# Generated by pormake.
# Topology eea, (3,6)-cn, num edge types: 1
# Building blocks:
#     Node 0, Type 0, BuildingBlock: PAMTOO_clean_linker_0, # of connection points: 3
#     Node 1, Type 0, BuildingBlock: PAMTOO_clean_linker_0, # of connection points: 3
#     Node 2, Type 0, BuildingBlock: PAMTOO_clean_linker_0, # of connection points: 3
#     Node 3, Type 0, BuildingBlock: PAMTOO_clean_linker_0, # of connection points: 3
#     Node 4, Type 0, BuildingBlock: PAMTOO_clean_linker_0, # of connection points: 3
#     Node 5, Type 0, BuildingBlock: PAMTOO_clean_linker_0, # of connection points: 3
#     Node 6, Type 0, BuildingBlock: PAMTOO_clean_linker_0, # of connection points: 3
#     Node 7, Type 0, BuildingBlock: PAMTOO_clean_linker_0, # of connection points: 3
#     Node 8, Type 0, BuildingBlock: PAMTOO_clean_linker_0, # of connection points: 3
#     Node 9, Type 0, BuildingBlock: PAMTOO_clean_linker_0, # of connection points: 3
#     Node 10, Type 0, BuildingBlock: PAMTOO_clean_linker_0, # of connection points: 3
#     Node 11, Type 0, BuildingBlock: PAMTOO_clean_linker_0, # of connection points: 3
#     Node 12, Type 0, BuildingBlock: PAMTOO_clean_linker_0, # of connection points: 3
#     Node 13, Type 0, BuildingBlock: PAMTOO_clean_linker_0, # of connection points: 3
#     Node 14, Type 0, BuildingBlock: PAMTOO_clean_linker_0, # of connection points: 3
#     Node 15, Type 0, BuildingBlock: PAMTOO_clean_linker_0, # of connection points: 3
#     Node 16, Type 0, BuildingBlock: PAMTOO_clean_linker_0, # of connection points: 3
#     Node 17, Type 0, BuildingBlock: PAMTOO_clean_linker_0, # of connection points: 3
#     Node 18, Type 1, BuildingBlock: KUMBOL_clean_sbu_0, # of connection points: 6
#     Node 19, Type 1, BuildingBlock: KUMBOL_clean_sbu_0, # of connection points: 6
#     Node 20, Type 1, BuildingBlock: KUMBOL_clean_sbu_0, # of connection points: 6
#     Node 21, Type 1, BuildingBlock: KUMBOL_clean_sbu_0, # of connection points: 6
#     Node 22, Type 1, BuildingBlock: KUMBOL_clean_sbu_0, # of connection points: 6
#     Node 23, Type 1, BuildingBlock: KUMBOL_clean_sbu_0, # of connection points: 6
#     Node 24, Type 1, BuildingBlock: KUMBOL_clean_sbu_0, # of connection points: 6
#     Node 25, Type 1, BuildingBlock: KUMBOL_clean_sbu_0, # of connection points: 6
#     Node 26, Type 1, BuildingBlock: KUMBOL_clean_sbu_0, # of connection points: 6
#     Edge 27, Type (0, 1), None
#     Edge 28, Type (0, 1), None
#     Edge 29, Type (0, 1), None
#     Edge 30, Type (0, 1), None
#     Edge 31, Type (0, 1), None
#     Edge 32, Type (0, 1), None
#     Edge 33, Type (0, 1), None
#     Edge 34, Type (0, 1), None
#     Edge 35, Type (0, 1), None
#     Edge 36, Type (0, 1), None
#     Edge 37, Type (0, 1), None
#     Edge 38, Type (0, 1), None
#     Edge 39, Type (0, 1), None
#     Edge 40, Type (0, 1), None
#     Edge 41, Type (0, 1), None
#     Edge 42, Type (0, 1), None
#     Edge 43, Type (0, 1), None
#     Edge 44, Type (0, 1), None
#     Edge 45, Type (0, 1), None
#     Edge 46, Type (0, 1), None
#     Edge 47, Type (0, 1), None
#     Edge 48, Type (0, 1), None
#     Edge 49, Type (0, 1), None
#     Edge 50, Type (0, 1), None
#     Edge 51, Type (0, 1), None
#     Edge 52, Type (0, 1), None
#     Edge 53, Type (0, 1), None
#     Edge 54, Type (0, 1), None
#     Edge 55, Type (0, 1), None
#     Edge 56, Type (0, 1), None
#     Edge 57, Type (0, 1), None
#     Edge 58, Type (0, 1), None
#     Edge 59, Type (0, 1), None
#     Edge 60, Type (0, 1), None
#     Edge 61, Type (0, 1), None
#     Edge 62, Type (0, 1), None
#     Edge 63, Type (0, 1), None
#     Edge 64, Type (0, 1), None
#     Edge 65, Type (0, 1), None
#     Edge 66, Type (0, 1), None
#     Edge 67, Type (0, 1), None
#     Edge 68, Type (0, 1), None
#     Edge 69, Type (0, 1), None
#     Edge 70, Type (0, 1), None
#     Edge 71, Type (0, 1), None
#     Edge 72, Type (0, 1), None
#     Edge 73, Type (0, 1), None
#     Edge 74, Type (0, 1), None
#     Edge 75, Type (0, 1), None
#     Edge 76, Type (0, 1), None
#     Edge 77, Type (0, 1), None
#     Edge 78, Type (0, 1), None
#     Edge 79, Type (0, 1), None
#     Edge 80, Type (0, 1), None
# Relax obj value: 0.026
# Max RMSD: 0.238
# Mean RMSD: 0.163
data_MOF--net-eea--node1-KUMBOL_clean_sbu_0--node2-PAMTOO_clean_linker_0--edge1-none
_symmetry_space_group_name_H-M    P1
_symmetry_Int_Tables_number       1
_symmetry_cell_setting            triclinic
loop_
_symmetry_equiv_pos_as_xyz
'x, y, z'
_cell_length_a     23.003322
_cell_length_b     24.25003
_cell_length_c     36.512247
_cell_angle_alpha  91.381984
_cell_angle_beta   89.694608
_cell_angle_gamma 120.10754
loop_
_atom_site_label
_atom_site_type_symbol
_atom_site_fract_x
_atom_site_fract_y
_atom_site_fract_z
_atom_type_partial_charge
H0 H 0.34525 0.08046 0.43051 0.0
H1 H 0.29452 0.22771 0.43003 0.0
H2 H 0.19256 0.06655 0.35626 0.0
H3 H 0.24092 0.2137 0.32821 0.0
C4 C 0.23588 0.2297 0.35628 0.0
O5 O 0.20569 0.17739 0.37837 0.0
H6 H 0.28671 0.26491 0.36712 0.0
C7 C 0.31639 0.09979 0.41872 0.0
C8 C 0.26854 0.06588 0.39057 0.0
C9 C 0.327 0.15872 0.43229 0.0
C10 C 0.28802 0.18304 0.41893 0.0
C11 C 0.2409 0.15086 0.39107 0.0
C12 C 0.23118 0.0924 0.37666 0.0
H13 H 0.96071 0.26582 0.43315 0.0
H14 H 0.84727 0.06282 0.43666 0.0
H15 H 0.98183 0.15162 0.34673 0.0
H16 H 0.84633 0.03233 0.32197 0.0
C17 C 0.82946 0.01578 0.35022 0.0
O18 O 0.88554 0.04175 0.37306 0.0
H19 H 0.7945 0.03255 0.35931 0.0
C20 C 0.94954 0.22039 0.42094 0.0
C21 C 0.97956 0.21749 0.38734 0.0
C22 C 0.90498 0.1655 0.4398 0.0
C23 C 0.88467 0.10565 0.42345 0.0
C24 C 0.91038 0.10053 0.38934 0.0
C25 C 0.96002 0.15633 0.37207 0.0
H26 H 0.75949 0.70615 0.42203 0.0
H27 H 0.96617 0.78797 0.44933 0.0
H28 H 0.9082 0.84944 0.35267 0.0
H29 H 0.02955 0.79202 0.35714 0.0
C30 C 0.04908 0.82108 0.38215 0.0
O31 O 1.01346 0.8529 0.38964 0.0
H32 H 0.03925 0.7862 0.40391 0.0
C33 C 0.81102 0.74024 0.41518 0.0
C34 C 0.82565 0.7794 0.38466 0.0
C35 C 0.86037 0.74429 0.43876 0.0
C36 C 0.9279 0.78583 0.43121 0.0
C37 C 0.94648 0.82041 0.39863 0.0
C38 C 0.89487 0.81945 0.37607 0.0
H39 H 0.05864 0.29691 0.60673 0.0
H40 H 0.18883 0.22336 0.58668 0.0
H41 H 0.07521 0.17877 0.6874 0.0
H42 H 0.2607 0.23815 0.67748 0.0
C43 C 0.24576 0.20591 0.65358 0.0
O44 O 0.17543 0.17111 0.65 0.0
H45 H 0.26754 0.23815 0.63007 0.0
C46 C 0.07764 0.26696 0.61626 0.0
C47 C 0.05733 0.23674 0.65013 0.0
C48 C 0.12438 0.26256 0.5939 0.0
C49 C 0.15225 0.22603 0.60432 0.0
C50 C 0.13882 0.19867 0.63906 0.0
C51 C 0.08913 0.20228 0.66164 0.0
H52 H 0.72007 0.75808 0.60442 0.0
H53 H 0.7867 0.95626 0.5928 0.0
H54 H 0.8473 0.89497 0.68758 0.0
H55 H 0.80695 0.98986 0.70589 0.0
C56 C 0.81272 0.01089 0.67844 0.0
O57 O 0.84891 0.99233 0.65615 0.0
H58 H 0.7616 0.99334 0.66674 0.0
C59 C 0.75002 0.80663 0.61467 0.0
C60 C 0.78551 0.8199 0.64827 0.0
C61 C 0.75192 0.85548 0.5939 0.0
C62 C 0.78722 0.91838 0.60769 0.0
C63 C 0.82031 0.93229 0.64175 0.0
C64 C 0.82076 0.88341 0.66158 0.0
H65 H 0.25767 0.94668 0.60364 0.0
H66 H 0.05293 0.79635 0.60783 0.0
H67 H 0.11937 0.96237 0.67773 0.0
H68 H 0.96901 0.82349 0.70436 0.0
C69 C 0.98343 0.80353 0.68087 0.0
O70 O 1.01479 0.85135 0.65567 0.0
H71 H 0.01796 0.78732 0.69074 0.0
C72 C 0.20869 0.92722 0.61611 0.0
C73 C 0.19693 0.96186 0.64425 0.0
C74 C 0.15758 0.86724 0.60345 0.0
C75 C 0.09329 0.84181 0.61814 0.0
C76 C 0.07943 0.87535 0.64503 0.0
C77 C 0.13122 0.93529 0.65834 0.0
H78 H 1.01203 0.41393 0.76401 0.0
H79 H 0.96127 0.56116 0.76338 0.0
H80 H 0.85947 0.39996 0.68964 0.0
H81 H 0.90799 0.54724 0.66157 0.0
C82 C 0.90286 0.56319 0.68963 0.0
O83 O 0.87257 0.51082 0.71168 0.0
H84 H 0.95367 0.59835 0.70053 0.0
C85 C 0.98319 0.43325 0.75219 0.0
C86 C 0.93538 0.39931 0.72402 0.0
C87 C 0.99379 0.4922 0.7657 0.0
C88 C 0.95481 0.51649 0.75231 0.0
C89 C 0.90774 0.48429 0.72443 0.0
C90 C 0.89805 0.42582 0.71005 0.0
H91 H 0.62783 0.59953 0.76646 0.0
H92 H 0.5147 0.39656 0.7702 0.0
H93 H 0.64905 0.48522 0.68016 0.0
H94 H 0.51368 0.36607 0.65544 0.0
C95 C 0.49675 0.34945 0.68367 0.0
O96 O 0.55279 0.37537 0.70654 0.0
H97 H 0.46179 0.36623 0.69276 0.0
C98 C 0.61673 0.55409 0.7543 0.0
C99 C 0.64677 0.55114 0.72072 0.0
C100 C 0.57232 0.49924 0.77323 0.0
C101 C 0.55204 0.43936 0.75694 0.0
C102 C 0.57766 0.43418 0.72281 0.0
C103 C 0.62726 0.48996 0.7055 0.0
H104 H 0.42639 0.03937 0.75519 0.0
H105 H 0.63299 0.12145 0.78267 0.0
H106 H 0.5751 0.18308 0.68605 0.0
H107 H 0.69643 0.12348 0.69149 0.0
C108 C 0.71622 0.15433 0.7159 0.0
O109 O 0.68036 0.18614 0.72279 0.0
H110 H 0.70702 0.12105 0.73849 0.0
C111 C 0.47792 0.07354 0.74839 0.0
C112 C 0.49257 0.1128 0.71792 0.0
C113 C 0.52725 0.07763 0.772 0.0
C114 C 0.59478 0.11925 0.76448 0.0
C115 C 0.61339 0.15376 0.73186 0.0
C116 C 0.56179 0.1529 0.70936 0.0
H117 H 0.72743 0.63283 0.94095 0.0
H118 H 0.85676 0.5586 0.91976 0.0
H119 H 0.74156 0.51093 0.01996 0.0
H120 H 0.9257 0.56924 0.01104 0.0
C121 C 0.91211 0.53839 0.98664 0.0
O122 O 0.84192 0.50393 0.98233 0.0
H123 H 0.93532 0.572 0.96383 0.0
C124 C 0.74609 0.6024 0.9501 0.0
C125 C 0.72493 0.57083 0.98355 0.0
C126 C 0.79277 0.59825 0.92754 0.0
C127 C 0.82013 0.56103 0.93747 0.0
C128 C 0.80594 0.53236 0.97184 0.0
C129 C 0.75608 0.53549 0.99454 0.0
H130 H 0.38661 0.09085 0.93764 0.0
H131 H 0.45367 0.28919 0.9263 0.0
H132 H 0.51386 0.22729 0.02098 0.0
H133 H 0.47489 0.32277 0.03954 0.0
C134 C 0.48002 0.34366 0.0121 0.0
O135 O 0.5159 0.32492 0.98967 0.0
H136 H 0.42917 0.32645 1.00011 0.0
C137 C 0.41659 0.13936 0.94796 0.0
C138 C 0.45199 0.15242 0.98158 0.0
C139 C 0.41866 0.18836 0.92726 0.0
C140 C 0.45405 0.25119 0.94114 0.0
C141 C 0.48707 0.2649 0.97521 0.0
C142 C 0.48734 0.21587 0.99497 0.0
H143 H 0.92461 0.27922 0.93703 0.0
H144 H 0.72 0.12862 0.94126 0.0
H145 H 0.78627 0.29443 0.0113 0.0
H146 H 0.63645 0.15478 0.03767 0.0
C147 C 0.65042 0.13479 0.01402 0.0
O148 O 0.68184 0.18334 0.98927 0.0
H149 H 0.6844 0.11764 0.02344 0.0
C150 C 0.87565 0.25964 0.94954 0.0
C151 C 0.86384 0.29417 0.97772 0.0
C152 C 0.82461 0.19963 0.93687 0.0
C153 C 0.76034 0.17408 0.95158 0.0
C154 C 0.74645 0.20748 0.97856 0.0
C155 C 0.79817 0.26743 0.99188 0.0
H156 H 0.67803 0.74659 0.09748 0.0
H157 H 0.62683 0.89353 0.09656 0.0
H158 H 0.52543 0.73211 0.02292 0.0
H159 H 0.57358 0.87888 0.9945 0.0
C160 C 0.56872 0.89501 0.02256 0.0
O161 O 0.53831 0.84293 0.0448 0.0
H162 H 0.62012 0.93006 0.03274 0.0
C163 C 0.64906 0.76576 0.08562 0.0
C164 C 0.60132 0.73167 0.05744 0.0
C165 C 0.6595 0.8247 0.09907 0.0
C166 C 0.62043 0.84882 0.08559 0.0
C167 C 0.57341 0.81646 0.05772 0.0
C168 C 0.56388 0.75802 0.0434 0.0
H169 H 0.29433 0.93225 0.09962 0.0
H170 H 0.18085 0.72928 0.10332 0.0
H171 H 0.31542 0.8178 0.01335 0.0
H172 H 0.1801 0.69865 0.98861 0.0
C173 C 0.16311 0.6821 0.01684 0.0
O174 O 0.2191 0.70803 0.03974 0.0
H175 H 0.12815 0.69892 0.02587 0.0
C176 C 0.28315 0.88679 0.08746 0.0
C177 C 0.31317 0.88377 0.05388 0.0
C178 C 0.23861 0.83196 0.10637 0.0
C179 C 0.21827 0.77206 0.09008 0.0
C180 C 0.24396 0.76684 0.05599 0.0
C181 C 0.29361 0.82258 0.03868 0.0
H182 H 0.09321 0.37302 0.0889 0.0
H183 H 0.29987 0.45449 0.116 0.0
H184 H 0.24186 0.51548 0.01914 0.0
H185 H 0.36325 0.45576 0.02488 0.0
C186 C 0.38295 0.48669 0.04926 0.0
O187 O 0.34716 0.51864 0.05595 0.0
H188 H 0.37356 0.45347 0.07191 0.0
C189 C 0.14474 0.40696 0.08196 0.0
C190 C 0.15935 0.44586 0.05132 0.0
C191 C 0.19412 0.411 0.1055 0.0
C192 C 0.26165 0.4523 0.09783 0.0
C193 C 0.28021 0.48649 0.06509 0.0
C194 C 0.22856 0.4856 0.04259 0.0
H195 H 0.39184 0.96364 0.27345 0.0
H196 H 0.52161 0.88964 0.25327 0.0
H197 H 0.40796 0.84503 0.35398 0.0
H198 H 0.59341 0.90438 0.34406 0.0
C199 C 0.57848 0.87209 0.32019 0.0
O200 O 0.50815 0.83733 0.31658 0.0
H201 H 0.60032 0.90426 0.29666 0.0
C202 C 0.41071 0.93356 0.28293 0.0
C203 C 0.39029 0.90323 0.31678 0.0
C204 C 0.45734 0.92904 0.26053 0.0
C205 C 0.48509 0.89238 0.27093 0.0
C206 C 0.47162 0.86497 0.30565 0.0
C207 C 0.42195 0.86862 0.32825 0.0
H208 H 0.0532 0.42454 0.27103 0.0
H209 H 0.11982 0.62273 0.25944 0.0
H210 H 0.18 0.56133 0.35435 0.0
H211 H 0.13925 0.65627 0.37244 0.0
C212 C 0.14536 0.67734 0.34497 0.0
O213 O 0.18173 0.65874 0.32287 0.0
H214 H 0.09439 0.65987 0.3331 0.0
C215 C 0.08309 0.47308 0.28131 0.0
C216 C 0.11843 0.48631 0.31496 0.0
C217 C 0.08505 0.52196 0.26053 0.0
C218 C 0.12029 0.58483 0.27435 0.0
C219 C 0.15321 0.59871 0.30845 0.0
C220 C 0.15358 0.5498 0.32831 0.0
H221 H 0.59096 0.61285 0.27051 0.0
H222 H 0.38633 0.46229 0.27462 0.0
H223 H 0.45235 0.62839 0.34441 0.0
H224 H 0.30217 0.48964 0.37102 0.0
C225 C 0.31645 0.46955 0.34753 0.0
O226 O 0.34792 0.51731 0.32231 0.0
H227 H 0.35083 0.45315 0.35738 0.0
C228 C 0.54196 0.59333 0.28295 0.0
C229 C 0.53006 0.62795 0.31103 0.0
C230 C 0.49097 0.53329 0.27029 0.0
C231 C 0.42663 0.50779 0.28493 0.0
C232 C 0.41262 0.54133 0.31176 0.0
C233 C 0.46432 0.60131 0.32507 0.0
Gd234 Gd 0.4894 0.03146 0.06551 0.0
Gd235 Gd 0.46601 0.98541 0.96779 0.0
C236 C 0.3022 0.79729 0.9198 0.0
C237 C 0.36724 0.76217 0.88366 0.0
C238 C 0.42405 0.85644 0.92334 0.0
C239 C 0.36234 0.84881 0.93403 0.0
C240 C 0.427 0.81366 0.89759 0.0
C241 C 0.30509 0.75408 0.89476 0.0
C242 C 0.24112 0.79355 0.9288 0.0
C243 C 0.24127 0.84277 0.94947 0.0
N244 N 0.36139 0.89598 0.95436 0.0
C245 C 0.3024 0.89495 0.96104 0.0
H246 H 0.30248 0.93498 0.97469 0.0
C247 C 0.54242 0.92314 0.92174 0.0
N248 N 0.48102 0.90964 0.93487 0.0
C249 C 0.54788 0.88106 0.89706 0.0
C250 C 0.48986 0.82627 0.8847 0.0
H251 H 0.58709 0.96681 0.93012 0.0
H252 H 0.2595 0.71619 0.88238 0.0
H253 H 0.6345 0.02983 0.08125 0.0
H254 H 0.19385 0.75433 0.91862 0.0
H255 H 0.19452 0.84159 0.9554 0.0
H256 H 0.36873 0.72986 0.86317 0.0
H257 H 0.4038 0.10731 0.07784 0.0
H258 H 0.75092 0.17924 0.15834 0.0
H259 H 0.73341 0.08624 0.12058 0.0
H260 H 0.6266 0.2868 0.17445 0.0
H261 H 0.59662 0.89163 0.88693 0.0
H262 H 0.49405 0.79453 0.86485 0.0
H263 H 0.71136 0.25432 0.17765 0.0
H264 H 0.4142 0.20012 0.11277 0.0
N265 N 0.59628 0.09238 0.09368 0.0
C266 C 0.70778 0.15564 0.1401 0.0
C267 C 0.69813 0.10328 0.11881 0.0
C268 C 0.66193 0.17718 0.13749 0.0
C269 C 0.60682 0.14519 0.11305 0.0
C270 C 0.6416 0.07163 0.09603 0.0
N271 N 0.50297 0.12768 0.09053 0.0
C272 C 0.5598 0.1647 0.11042 0.0
C273 C 0.4558 0.19116 0.11204 0.0
C274 C 0.51368 0.22957 0.13266 0.0
C275 C 0.4504 0.13905 0.092 0.0
C276 C 0.56616 0.21606 0.13262 0.0
H277 H 0.51552 0.26727 0.14997 0.0
O278 O 0.42069 0.99953 0.11131 0.0
O279 O 0.42169 0.95417 0.02517 0.0
O280 O 0.41761 0.04153 0.98689 0.0
O281 O 0.49269 0.11033 0.03004 0.0
O282 O 0.37999 0.99589 0.0571 0.0
O283 O 0.49704 0.97287 0.10751 0.0
O284 O 0.52232 0.04546 0.92255 0.0
O285 O 0.53177 0.04731 0.01186 0.0
O286 O 0.53703 0.97047 0.04791 0.0
O287 O 0.49354 0.9183 0.99117 0.0
O288 O 0.5806 0.05733 0.9642 0.0
O289 O 0.41431 1.00367 0.92417 0.0
C290 C 0.36578 0.94574 0.03737 0.0
C291 C 0.62159 0.24854 0.15644 0.0
C292 C 0.66941 0.22931 0.15877 0.0
C293 C 0.45093 0.97387 0.12795 0.0
C294 C 0.47007 0.99436 0.16654 0.0
C295 C 0.49393 0.05817 0.17713 0.0
C296 C 0.46346 0.95085 0.19331 0.0
C297 C 0.4835 0.9727 0.22967 0.0
C298 C 0.51946 0.08073 0.21211 0.0
C299 C 0.51525 0.03831 0.23823 0.0
C300 C 0.45265 0.09945 1.00128 0.0
C301 C 0.58786 0.07945 0.9973 0.0
C302 C 0.46863 0.03432 0.90459 0.0
C303 C 0.46543 0.01257 0.86609 0.0
C304 C 0.4243 0.94798 0.85619 0.0
C305 C 0.50525 0.05577 0.83907 0.0
C306 C 0.50453 0.03361 0.80295 0.0
C307 C 0.42707 0.92542 0.82121 0.0
C308 C 0.46738 0.96786 0.79476 0.0
C309 C 0.52887 0.92819 0.02127 0.0
H310 H 0.49065 0.09017 0.15883 0.0
H311 H 0.43933 0.90035 0.18648 0.0
H312 H 0.53927 0.13053 0.21947 0.0
H313 H 0.53099 0.05581 0.26609 0.0
H314 H 0.38921 0.9149 0.87523 0.0
H315 H 0.53384 0.10641 0.84566 0.0
H316 H 0.39595 0.87522 0.81423 0.0
H317 H 0.46579 0.94998 0.76707 0.0
Gd318 Gd 1.00715 0.47456 0.05518 0.0
Gd319 Gd 0.05462 0.4851 0.96166 0.0
C320 C 0.13591 0.35456 0.92085 0.0
C321 C 0.22375 0.42456 0.87979 0.0
C322 C 0.1621 0.46388 0.91611 0.0
C323 C 0.12263 0.40421 0.93028 0.0
C324 C 0.21317 0.4746 0.89067 0.0
C325 C 0.18596 0.36496 0.89543 0.0
C326 C 0.10102 0.29665 0.9385 0.0
C327 C 0.05627 0.28992 0.96593 0.0
N328 N 0.07569 0.39634 0.95562 0.0
C329 C 0.04497 0.34014 0.97449 0.0
H330 H 1.01034 0.33178 0.99625 0.0
C331 C 0.1962 0.5732 0.91786 0.0
N332 N 0.15421 0.51252 0.92923 0.0
C333 C 0.24618 0.58541 0.89206 0.0
C334 C 0.2545 0.53604 0.87823 0.0
H335 H 0.1908 0.61251 0.92807 0.0
H336 H 0.19758 0.3278 0.88886 0.0
H337 H 1.00669 0.61054 0.07826 0.0
H338 H 0.10997 0.25769 0.93203 0.0
H339 H 0.03024 0.24588 0.98068 0.0
H340 H 0.26326 0.43234 0.86071 0.0
H341 H 0.93141 0.32415 0.08716 0.0
H342 H 0.80208 0.5647 0.07321 0.0
H343 H 0.92229 0.64478 0.08184 0.0
H344 H 0.68049 0.33544 0.07757 0.0
H345 H 0.27884 0.63277 0.88282 0.0
H346 H 0.2942 0.5462 0.85878 0.0
H347 H 0.71077 0.4477 0.07121 0.0
H348 H 0.81453 0.23574 0.09411 0.0
N349 N 0.93366 0.5121 0.07033 0.0
C350 C 0.83836 0.54928 0.07458 0.0
C351 C 0.90641 0.59465 0.0789 0.0
C352 C 0.818 0.48441 0.07292 0.0
C353 C 0.86784 0.46745 0.07182 0.0
C354 C 0.95404 0.57494 0.07698 0.0
N355 N 0.90174 0.39188 0.07472 0.0
C356 C 0.85115 0.40497 0.07461 0.0
C357 C 0.82411 0.28332 0.08909 0.0
C358 C 0.77071 0.2947 0.08419 0.0
C359 C 0.89018 0.33341 0.08534 0.0
C360 C 0.78399 0.35669 0.07847 0.0
H361 H 0.71963 0.25572 0.08431 0.0
O362 O 0.03723 0.44619 0.10477 0.0
O363 O 0.09356 0.48672 0.01919 0.0
O364 O 0.96587 0.38792 0.96352 0.0
O365 O 0.92409 0.38572 0.02195 0.0
O366 O 0.04196 0.40493 0.04746 0.0
O367 O 0.05404 0.54065 0.10169 0.0
O368 O 0.06612 0.56194 0.92684 0.0
O369 O 1.00026 0.51299 1.0028 0.0
O370 O 0.07575 0.58028 0.04097 0.0
O371 O 0.13213 0.57951 0.98798 0.0
O372 O 0.94863 0.47088 0.9561 0.0
O373 O 0.02145 0.46445 0.90536 0.0
C374 C 0.09847 0.44075 0.03168 0.0
C375 C 0.73294 0.37211 0.07605 0.0
C376 C 0.75013 0.43606 0.0728 0.0
C377 C 0.05614 0.49935 0.12264 0.0
C378 C 0.02867 0.49445 0.16 0.0
C379 C 0.96 0.47303 0.16449 0.0
C380 C 0.07046 0.51112 0.1914 0.0
C381 C 0.0432 0.5059 0.22681 0.0
C382 C 0.93311 0.46784 0.19942 0.0
C383 C 0.97429 0.48396 0.2304 0.0
C384 C 0.91996 0.35952 0.98872 0.0
C385 C 0.9456 0.49752 0.98631 0.0
C386 C 0.03934 0.52333 0.89848 0.0
C387 C 0.06402 0.54517 0.86128 0.0
C388 C 0.11761 0.60673 0.85484 0.0
C389 C 0.02692 0.50574 0.83136 0.0
C390 C 0.0422 0.52778 0.79554 0.0
C391 C 0.13516 0.62765 0.81901 0.0
C392 C 0.09717 0.5887 0.78945 0.0
C393 C 0.12462 0.60989 0.01665 0.0
H394 H 0.92707 0.46027 0.14097 0.0
H395 H 0.12356 0.52764 0.18835 0.0
H396 H 0.88004 0.45118 0.2025 0.0
H397 H 0.95239 0.47943 0.25729 0.0
H398 H 0.14466 0.63923 0.87736 0.0
H399 H 0.98301 0.45952 0.83607 0.0
H400 H 0.17658 0.67514 0.81423 0.0
H401 H 0.10905 0.6069 0.76196 0.0
Gd402 Gd 0.54869 0.55293 0.97951 0.0
Gd403 Gd 0.57754 0.53638 0.07382 0.0
C404 C 0.7914 0.6445 0.12253 0.0
C405 C 0.79151 0.56321 0.15987 0.0
C406 C 0.69547 0.53751 0.12048 0.0
C407 C 0.72587 0.60009 0.10967 0.0
C408 C 0.72816 0.51846 0.14569 0.0
C409 C 0.82348 0.62582 0.14781 0.0
C410 C 0.82495 0.70512 0.10777 0.0
C411 C 0.79474 0.71939 0.07962 0.0
N412 N 0.69443 0.61577 0.08396 0.0
C413 C 0.73021 0.67406 0.06764 0.0
H414 H 0.70991 0.68764 0.04547 0.0
C415 C 0.60651 0.43144 0.11324 0.0
N416 N 0.63591 0.49445 0.10476 0.0
C417 C 0.63666 0.41086 0.13835 0.0
C418 C 0.69742 0.45443 0.15491 0.0
H419 H 0.55812 0.39666 0.10201 0.0
H420 H 0.87442 0.65872 0.15684 0.0
H421 H 0.40425 0.4174 0.95531 0.0
H422 H 0.87527 0.74022 0.1168 0.0
H423 H 0.82117 0.76546 0.06697 0.0
H424 H 0.81751 0.5492 0.17888 0.0
H425 H 0.63062 0.70348 0.94702 0.0
H426 H 0.24731 0.46189 0.96417 0.0
H427 H 0.28368 0.38269 0.95364 0.0
H428 H 0.36734 0.69112 0.95939 0.0
H429 H 0.6127 0.36146 0.14508 0.0
H430 H 0.72082 0.4379 0.17408 0.0
H431 H 0.27966 0.57913 0.96785 0.0
H432 H 0.60555 0.79048 0.93761 0.0
N433 N 0.435 0.51533 0.96578 0.0
C434 C 0.30009 0.47772 0.96262 0.0
C435 C 0.32054 0.43277 0.95711 0.0
C436 C 0.34822 0.54265 0.96465 0.0
C437 C 0.41614 0.55987 0.96512 0.0
C438 C 0.38909 0.45272 0.95835 0.0
N439 N 0.52978 0.63556 0.9607 0.0
C440 C 0.46534 0.62239 0.96181 0.0
C441 C 0.56561 0.7433 0.94442 0.0
C442 C 0.50028 0.73192 0.9499 0.0
C443 C 0.5795 0.69392 0.94934 0.0
C444 C 0.44871 0.67031 0.95756 0.0
H445 H 0.4901 0.77067 0.94814 0.0
O446 O 0.60128 0.58503 0.92729 0.0
O447 O 0.61782 0.53678 0.01637 0.0
O448 O 0.60103 0.63656 0.07112 0.0
O449 O 0.56341 0.64183 0.01299 0.0
O450 O 0.65821 0.61975 0.98959 0.0
O451 O 0.5352 0.48605 0.93475 0.0
O452 O 0.50279 0.46417 0.10938 0.0
O453 O 0.49724 0.51356 0.03156 0.0
O454 O 0.50262 0.44685 0.99102 0.0
O455 O 0.55031 0.4419 0.04611 0.0
O456 O 0.49029 0.556 0.07829 0.0
O457 O 0.56845 0.56104 0.13014 0.0
C458 C 0.67351 0.58118 1.00478 0.0
C459 C 0.38135 0.65471 0.96098 0.0
C460 C 0.33127 0.59085 0.96527 0.0
C461 C 0.57229 0.52907 0.91154 0.0
C462 C 0.54232 0.52288 0.87458 0.0
C463 C 0.48226 0.52417 0.87117 0.0
C464 C 0.57212 0.514 0.84255 0.0
C465 C 0.54105 0.50539 0.80781 0.0
C466 C 0.45147 0.51535 0.837 0.0
C467 C 0.48046 0.50584 0.80556 0.0
C468 C 0.58803 0.66686 0.04604 0.0
C469 C 0.45928 0.52977 0.0481 0.0
C470 C 0.51957 0.50406 0.13737 0.0
C471 C 0.51557 0.48156 0.17513 0.0
C472 C 0.50379 0.42009 0.18217 0.0
C473 C 0.51562 0.52023 0.20465 0.0
C474 C 0.5028 0.49741 0.24054 0.0
C475 C 0.49403 0.39839 0.21803 0.0
C476 C 0.4928 0.43645 0.24702 0.0
C477 C 0.51499 0.4149 0.01589 0.0
H478 H 0.45889 0.53184 0.89494 0.0
H479 H 0.619 0.51379 0.84462 0.0
H480 H 0.40496 0.51613 0.83487 0.0
H481 H 0.45601 0.49971 0.77927 0.0
H482 H 0.50016 0.388 0.1601 0.0
H483 H 0.52149 0.56659 0.1994 0.0
H484 H 0.48505 0.35098 0.2232 0.0
H485 H 0.48229 0.41771 0.27441 0.0
Gd486 Gd 0.15566 0.36549 0.39904 0.0
Gd487 Gd 0.1326 0.31932 0.30137 0.0
C488 C 0.96875 0.13111 0.25349 0.0
C489 C 0.03378 0.09584 0.21747 0.0
C490 C 0.09059 0.19024 0.25705 0.0
C491 C 0.02888 0.18267 0.26769 0.0
C492 C 0.09354 0.14739 0.23135 0.0
C493 C 0.97162 0.08777 0.22855 0.0
C494 C 0.90767 0.12746 0.26241 0.0
C495 C 0.90784 0.17679 0.28296 0.0
N496 N 0.02795 0.22994 0.28793 0.0
C497 C 0.96898 0.22899 0.29451 0.0
H498 H 0.96908 0.26908 0.30809 0.0
C499 C 0.20897 0.25692 0.25546 0.0
N500 N 0.14757 0.24344 0.26857 0.0
C501 C 0.21442 0.2148 0.2308 0.0
C502 C 0.1564 0.15999 0.21846 0.0
H503 H 0.25363 0.3006 0.26383 0.0
H504 H 0.92601 0.04983 0.2162 0.0
H505 H 0.30145 0.36536 0.41475 0.0
H506 H 0.86041 0.08822 0.25225 0.0
H507 H 0.8611 0.17568 0.28883 0.0
H508 H 0.03527 0.06346 0.19703 0.0
H509 H 0.06892 0.44035 0.41106 0.0
H510 H 0.41654 0.51478 0.49213 0.0
H511 H 0.40013 0.42226 0.45425 0.0
H512 H 0.29016 0.62026 0.50836 0.0
H513 H 0.26316 0.22535 0.22069 0.0
H514 H 0.16059 0.12821 0.19864 0.0
H515 H 0.37583 0.58894 0.51151 0.0
H516 H 0.07818 0.53259 0.44609 0.0
N517 N 0.26237 0.42717 0.42723 0.0
C518 C 0.37353 0.49096 0.47382 0.0
C519 C 0.36449 0.43888 0.45246 0.0
C520 C 0.32722 0.51196 0.47119 0.0
C521 C 0.2723 0.47973 0.44665 0.0
C522 C 0.30811 0.40695 0.4296 0.0
N523 N 0.1682 0.46134 0.42402 0.0
C524 C 0.22483 0.49866 0.44401 0.0
C525 C 0.12005 0.52403 0.44546 0.0
C526 C 0.17765 0.56263 0.46625 0.0
C527 C 0.11529 0.47224 0.42536 0.0
C528 C 0.23052 0.54968 0.46629 0.0
H529 H 0.17902 0.60011 0.48358 0.0
O530 O 0.08706 0.33304 0.44489 0.0
O531 O 0.0881 0.28811 0.35871 0.0
O532 O 0.08416 0.37545 0.3204 0.0
O533 O 0.15911 0.44438 0.36355 0.0
O534 O 0.04619 0.32963 0.39058 0.0
O535 O 0.16395 0.30711 0.44093 0.0
O536 O 0.18904 0.37923 0.25611 0.0
O537 O 0.19832 0.38113 0.34547 0.0
O538 O 0.20384 0.30494 0.38151 0.0
O539 O 0.16015 0.25228 0.32492 0.0
O540 O 0.24712 0.39158 0.29779 0.0
O541 O 0.08103 0.33755 0.25767 0.0
C542 C 0.03212 0.27953 0.37086 0.0
C543 C 0.28572 0.58235 0.49023 0.0
C544 C 0.33405 0.56376 0.49254 0.0
C545 C 0.11767 0.30765 0.46143 0.0
C546 C 0.1368 0.32804 0.50002 0.0
C547 C 0.1605 0.39178 0.51069 0.0
C548 C 0.13041 0.2845 0.52672 0.0
C549 C 0.15055 0.30628 0.56307 0.0
C550 C 0.18618 0.4143 0.54565 0.0
C551 C 0.18222 0.37187 0.57169 0.0
C552 C 0.11918 0.43343 0.33472 0.0
C553 C 0.25457 0.41303 0.33104 0.0
C554 C 0.13538 0.3681 0.2381 0.0
C555 C 0.13222 0.34626 0.19963 0.0
C556 C 0.09109 0.28164 0.18978 0.0
C557 C 0.17208 0.38937 0.1726 0.0
C558 C 0.17142 0.3671 0.13651 0.0
C559 C 0.09391 0.25897 0.15485 0.0
C560 C 0.13428 0.30133 0.12838 0.0
C561 C 0.19517 0.26206 0.35514 0.0
H562 H 0.15697 0.42373 0.49247 0.0
H563 H 0.10635 0.23402 0.51984 0.0
H564 H 0.20588 0.46406 0.55308 0.0
H565 H 0.19804 0.38931 0.59956 0.0
H566 H 0.05595 0.24863 0.20883 0.0
H567 H 0.20067 0.44003 0.17913 0.0
H568 H 0.0628 0.20875 0.14791 0.0
H569 H 0.13273 0.28337 0.10071 0.0
Gd570 Gd 0.6735 0.80817 0.38856 0.0
Gd571 Gd 0.72101 0.8188 0.29501 0.0
C572 C 0.80183 0.68803 0.25399 0.0
C573 C 0.88947 0.75791 0.2128 0.0
C574 C 0.82821 0.79742 0.24931 0.0
C575 C 0.78872 0.73776 0.2635 0.0
C576 C 0.8791 0.80804 0.22377 0.0
C577 C 0.85169 0.69833 0.22846 0.0
C578 C 0.76698 0.63015 0.27167 0.0
C579 C 0.72242 0.62351 0.29919 0.0
N580 N 0.74196 0.72998 0.28892 0.0
C581 C 0.71125 0.6738 0.30781 0.0
H582 H 0.67668 0.66549 0.3296 0.0
C583 C 0.86255 0.90678 0.25113 0.0
N584 N 0.82051 0.84612 0.2625 0.0
C585 C 0.91238 0.91892 0.22524 0.0
C586 C 0.92049 0.86947 0.21133 0.0
H587 H 0.85729 0.94615 0.26139 0.0
H588 H 0.86319 0.6611 0.22184 0.0
H589 H 0.67269 0.944 0.41136 0.0
H590 H 0.77581 0.59112 0.26515 0.0
H591 H 0.6964 0.57948 0.31396 0.0
H592 H 0.92885 0.76561 0.19364 0.0
H593 H 0.59816 0.65769 0.42038 0.0
H594 H 0.46791 0.89763 0.40705 0.0
H595 H 0.58809 0.97795 0.41521 0.0
H596 H 0.34684 0.66837 0.41122 0.0
H597 H 0.94505 0.96626 0.21598 0.0
H598 H 0.96005 0.87956 0.1918 0.0
H599 H 0.37681 0.78058 0.40498 0.0
H600 H 0.48138 0.56906 0.42729 0.0
N601 N 0.59981 0.84546 0.40368 0.0
C602 C 0.50429 0.88233 0.40822 0.0
C603 C 0.57233 0.92784 0.4123 0.0
C604 C 0.48409 0.81751 0.40654 0.0
C605 C 0.53404 0.8007 0.40532 0.0
C606 C 0.62006 0.90829 0.41023 0.0
N607 N 0.56823 0.7253 0.40811 0.0
C608 C 0.51753 0.73826 0.40811 0.0
C609 C 0.49083 0.61663 0.42235 0.0
C610 C 0.43733 0.62788 0.41756 0.0
C611 C 0.55684 0.66684 0.41863 0.0
C612 C 0.45043 0.68985 0.41197 0.0
H613 H 0.38631 0.5888 0.41763 0.0
O614 O 0.70392 0.78 0.43812 0.0
O615 O 0.7599 0.82032 0.35255 0.0
O616 O 0.6322 0.72164 0.29688 0.0
O617 O 0.59034 0.71947 0.35528 0.0
O618 O 0.70828 0.73854 0.38083 0.0
O619 O 0.72009 0.87425 0.43511 0.0
O620 O 0.73269 0.89561 0.26009 0.0
O621 O 0.66667 0.84661 0.33622 0.0
O622 O 0.74216 0.9139 0.37435 0.0
O623 O 0.79852 0.91322 0.32132 0.0
O624 O 0.61525 0.80496 0.28938 0.0
O625 O 0.68747 0.79797 0.23878 0.0
C626 C 0.76478 0.77434 0.36504 0.0
C627 C 0.39925 0.70513 0.40968 0.0
C628 C 0.41626 0.76905 0.4065 0.0
C629 C 0.72256 0.83309 0.45601 0.0
C630 C 0.69519 0.82802 0.49341 0.0
C631 C 0.6265 0.8064 0.49798 0.0
C632 C 0.7371 0.84476 0.52476 0.0
C633 C 0.70994 0.83939 0.56021 0.0
C634 C 0.59969 0.80107 0.53295 0.0
C635 C 0.641 0.81724 0.56388 0.0
C636 C 0.58622 0.69328 0.32205 0.0
C637 C 0.61213 0.83136 0.31966 0.0
C638 C 0.70561 0.85687 0.23181 0.0
C639 C 0.73012 0.8784 0.19454 0.0
C640 C 0.78379 0.93984 0.18793 0.0
C641 C 0.6928 0.83878 0.16472 0.0
C642 C 0.70798 0.8605 0.12884 0.0
C643 C 0.80119 0.96045 0.15204 0.0
C644 C 0.76301 0.92132 0.12258 0.0
C645 C 0.79102 0.94356 0.35001 0.0
H646 H 0.59347 0.79361 0.4745 0.0
H647 H 0.79022 0.86143 0.52165 0.0
H648 H 0.5466 0.78426 0.53609 0.0
H649 H 0.61916 0.81259 0.5908 0.0
H650 H 0.81105 0.97248 0.21036 0.0
H651 H 0.64886 0.79265 0.16956 0.0
H652 H 0.84267 0.00786 0.14713 0.0
H653 H 0.77481 0.93928 0.09504 0.0
Gd654 Gd 0.21499 0.88693 0.31254 0.0
Gd655 Gd 0.24319 0.87003 0.40693 0.0
C656 C 0.45668 0.97713 0.45611 0.0
C657 C 0.45599 0.89546 0.49345 0.0
C658 C 0.36046 0.87033 0.45378 0.0
C659 C 0.3912 0.93297 0.44307 0.0
C660 C 0.39273 0.85095 0.47906 0.0
C661 C 0.48831 0.95814 0.48149 0.0
C662 C 0.49066 0.03776 0.44138 0.0
C663 C 0.46092 0.05225 0.41308 0.0
N664 N 0.36019 0.94891 0.41724 0.0
C665 C 0.39641 0.00717 0.40093 0.0
H666 H 0.37645 0.02091 0.37868 0.0
C667 C 0.27133 0.76443 0.44617 0.0
N668 N 0.301 0.82752 0.43786 0.0
C669 C 0.30107 0.74351 0.47132 0.0
C670 C 0.36168 0.78682 0.48812 0.0
H671 H 0.22298 0.72983 0.43482 0.0
H672 H 0.53923 0.99085 0.49063 0.0
H673 H 0.07084 0.75148 0.28758 0.0
H674 H 0.54095 0.07267 0.45054 0.0
H675 H 0.48769 0.09833 0.40045 0.0
H676 H 0.48167 0.8812 0.51252 0.0
H677 H 0.29666 0.03773 0.28017 0.0
H678 H 0.91356 0.79544 0.2972 0.0
H679 H 0.95019 0.71653 0.286 0.0
H680 H 0.03316 0.02475 0.29318 0.0
H681 H 0.27685 0.69404 0.47791 0.0
H682 H 0.38475 0.77002 0.50734 0.0
H683 H 0.94564 0.91259 0.30126 0.0
H684 H 0.27134 0.12466 0.27118 0.0
N685 N 0.10134 0.84923 0.2986 0.0
C686 C 0.96636 0.81138 0.29552 0.0
C687 C 0.98696 0.7666 0.28966 0.0
C688 C 1.01437 0.87633 0.29777 0.0
C689 C 0.08234 0.89368 0.29818 0.0
C690 C 0.05555 0.78667 0.29088 0.0
N691 N 0.19592 0.96958 0.29391 0.0
C692 C 0.13144 0.95628 0.29511 0.0
C693 C 0.23149 0.0774 0.27791 0.0
C694 C 0.16614 0.06588 0.28357 0.0
C695 C 0.24551 0.02804 0.28258 0.0
C696 C 0.11468 0.00416 0.2911 0.0
H697 H 0.15587 0.1046 0.28205 0.0
O698 O 0.26695 0.91947 0.2602 0.0
O699 O 0.28351 0.87027 0.34954 0.0
O700 O 0.26742 0.97041 0.40429 0.0
O701 O 0.23042 0.97606 0.34606 0.0
O702 O 0.32465 0.95323 0.32274 0.0
O703 O 0.20272 0.82026 0.26787 0.0
O704 O 0.16819 0.79789 0.44243 0.0
O705 O 0.16324 0.84768 0.36456 0.0
O706 O 0.16848 0.78073 0.32387 0.0
O707 O 0.21544 0.77546 0.37917 0.0
O708 O 0.15634 0.89031 0.41119 0.0
O709 O 0.23383 0.89474 0.46319 0.0
C710 C 0.33943 0.91437 0.338 0.0
C711 C 0.04728 0.98839 0.29458 0.0
C712 C 0.99728 0.92444 0.29865 0.0
C713 C 0.23901 0.86344 0.24457 0.0
C714 C 0.20868 0.85641 0.20761 0.0
C715 C 0.14823 0.85695 0.20415 0.0
C716 C 0.23862 0.84755 0.17564 0.0
C717 C 0.20726 0.83814 0.14091 0.0
C718 C 0.11713 0.84731 0.17 0.0
C719 C 0.14622 0.83775 0.13862 0.0
C720 C 0.25489 1.00095 0.37916 0.0
C721 C 0.12538 0.86413 0.38098 0.0
C722 C 0.18494 0.83777 0.47042 0.0
C723 C 0.1812 0.81527 0.50817 0.0
C724 C 0.16926 0.75374 0.51516 0.0
C725 C 0.18168 0.85407 0.53773 0.0
C726 C 0.1692 0.83132 0.57364 0.0
C727 C 0.15987 0.73212 0.55102 0.0
C728 C 0.15911 0.77031 0.58008 0.0
C729 C 0.17987 0.74853 0.34901 0.0
H730 H 0.12481 0.86472 0.22786 0.0
H731 H 0.28582 0.84796 0.17773 0.0
H732 H 0.07031 0.8475 0.16784 0.0
H733 H 0.12153 0.83097 0.11235 0.0
H734 H 0.16523 0.72156 0.49306 0.0
H735 H 0.18762 0.90046 0.53253 0.0
H736 H 0.15078 0.68467 0.55616 0.0
H737 H 0.14883 0.75163 0.60748 0.0
Gd738 Gd 0.82284 0.69918 0.73239 0.0
Gd739 Gd 0.79976 0.653 0.6347 0.0
C740 C 0.63623 0.46461 0.58683 0.0
C741 C 0.70145 0.42957 0.5508 0.0
C742 C 0.75808 0.52401 0.59036 0.0
C743 C 0.69631 0.51626 0.60103 0.0
C744 C 0.76115 0.48124 0.56465 0.0
C745 C 0.63924 0.42135 0.56188 0.0
C746 C 0.57509 0.46079 0.59577 0.0
C747 C 0.57511 0.51005 0.61632 0.0
N748 N 0.69523 0.56345 0.62128 0.0
C749 C 0.63618 0.56234 0.62787 0.0
H750 H 0.63617 0.60238 0.64145 0.0
C751 C 0.87642 0.59092 0.58876 0.0
N752 N 0.81498 0.57729 0.60187 0.0
C753 C 0.882 0.54888 0.5641 0.0
C754 C 0.82406 0.49399 0.55176 0.0
H755 H 0.92101 0.63467 0.59714 0.0
H756 H 0.59368 0.38333 0.54954 0.0
H757 H 0.96869 0.69896 0.74783 0.0
H758 H 0.52787 0.42148 0.5856 0.0
H759 H 0.52831 0.50881 0.6222 0.0
H760 H 0.70303 0.39722 0.53037 0.0
H761 H 0.73647 0.77444 0.74435 0.0
H762 H 0.08389 0.84808 0.82536 0.0
H763 H 0.06738 0.75566 0.78735 0.0
H764 H 0.95792 0.95398 0.84166 0.0
H765 H 0.93078 0.55955 0.55398 0.0
H766 H 0.82835 0.46226 0.53194 0.0
H767 H 0.04336 0.92234 0.84483 0.0
H768 H 0.74605 0.86686 0.77934 0.0
N769 N 0.92964 0.76073 0.7605 0.0
C770 C 0.04085 0.82433 0.80707 0.0
C771 C 0.03176 0.7723 0.78563 0.0
C772 C 0.99459 0.8454 0.8045 0.0
C773 C 0.93963 0.81325 0.77998 0.0
C774 C 0.97537 0.74048 0.76277 0.0
N775 N 0.83567 0.79518 0.75731 0.0
C776 C 0.89228 0.83233 0.77735 0.0
C777 C 0.78781 0.85814 0.77872 0.0
C778 C 0.84544 0.89662 0.79952 0.0
C779 C 0.78288 0.80626 0.75864 0.0
C780 C 0.89815 0.88344 0.7996 0.0
H781 H 0.84694 0.93418 0.81683 0.0
O782 O 0.7541 0.66677 0.77817 0.0
O783 O 0.75529 0.62176 0.69206 0.0
O784 O 0.75127 0.70905 0.65375 0.0
O785 O 0.82627 0.77803 0.69686 0.0
O786 O 0.71336 0.6633 0.72393 0.0
O787 O 0.83138 0.64131 0.77454 0.0
O788 O 0.85598 0.71277 0.58935 0.0
O789 O 0.86553 0.71468 0.67884 0.0
O790 O 0.87071 0.63833 0.71491 0.0
O791 O 0.82742 0.58601 0.65819 0.0
O792 O 0.9142 0.72562 0.63107 0.0
O793 O 0.74798 0.67115 0.59109 0.0
C794 C 0.6993 0.61318 0.70421 0.0
C795 C 0.95335 0.916 0.82356 0.0
C796 C 1.00155 0.89724 0.82587 0.0
C797 C 0.78497 0.64184 0.79492 0.0
C798 C 0.80399 0.66271 0.83348 0.0
C799 C 0.82656 0.72632 0.84399 0.0
C800 C 0.79855 0.61971 0.86031 0.0
C801 C 0.81841 0.64189 0.89664 0.0
C802 C 0.85208 0.74935 0.87891 0.0
C803 C 0.84903 0.70747 0.90508 0.0
C804 C 0.7863 0.76705 0.66804 0.0
C805 C 0.92169 0.74687 0.66436 0.0
C806 C 0.80224 0.70163 0.57144 0.0
C807 C 0.79884 0.67968 0.53296 0.0
C808 C 0.75753 0.61507 0.52316 0.0
C809 C 0.83862 0.72272 0.50587 0.0
C810 C 0.83766 0.70038 0.46977 0.0
C811 C 0.76005 0.59233 0.4882 0.0
C812 C 0.80031 0.63461 0.46166 0.0
C813 C 0.86221 0.59561 0.68848 0.0
H814 H 0.82228 0.75777 0.82566 0.0
H815 H 0.77533 0.56924 0.85354 0.0
H816 H 0.87093 0.79903 0.88622 0.0
H817 H 0.86467 0.72525 0.93292 0.0
H818 H 0.72247 0.58213 0.54226 0.0
H819 H 0.86736 0.77337 0.51239 0.0
H820 H 0.72879 0.54212 0.48128 0.0
H821 H 0.79854 0.6166 0.43399 0.0
Gd822 Gd 0.34062 0.14181 0.72187 0.0
Gd823 Gd 0.38824 0.15251 0.62831 0.0
C824 C 0.46894 0.02152 0.58749 0.0
C825 C 0.55691 0.09139 0.54645 0.0
C826 C 0.49552 0.13097 0.58279 0.0
C827 C 0.45588 0.0713 0.59693 0.0
C828 C 0.54657 0.14156 0.55736 0.0
C829 C 0.51895 0.03179 0.56206 0.0
C830 C 0.43386 0.9636 0.60511 0.0
C831 C 0.38913 0.95697 0.63252 0.0
N832 N 0.40897 0.06355 0.62226 0.0
C833 C 0.37803 0.00731 0.6411 0.0
H834 H 0.34337 0.99903 0.66283 0.0
C835 C 0.53004 0.24037 0.58462 0.0
N836 N 0.48785 0.17971 0.59594 0.0
C837 C 0.58004 0.25249 0.55885 0.0
C838 C 0.58813 0.203 0.54498 0.0
H839 H 0.5248 0.27977 0.59485 0.0
H840 H 0.5304 0.99452 0.55548 0.0
H841 H 0.33999 0.27769 0.74475 0.0
H842 H 0.44265 0.92454 0.59863 0.0
H843 H 0.36294 0.91292 0.64725 0.0
H844 H 0.59637 0.09905 0.52736 0.0
H845 H 0.26515 0.99125 0.75357 0.0
H846 H 0.13527 0.23151 0.74043 0.0
H847 H 0.25548 0.31174 0.74863 0.0
H848 H 1.014 1.00224 0.74458 0.0
H849 H 0.61289 0.29986 0.54967 0.0
H850 H 0.62783 0.21307 0.52555 0.0
H851 H 0.0441 0.11449 0.73835 0.0
H852 H 0.14834 0.9027 0.76051 0.0
N853 N 0.26703 0.17918 0.73704 0.0
C854 C 0.17161 0.21616 0.74161 0.0
C855 C 0.23966 0.26163 0.7457 0.0
C856 C 0.15134 0.15132 0.73992 0.0
C857 C 0.20125 0.13446 0.73868 0.0
C858 C 0.28735 0.24202 0.74362 0.0
N859 N 0.23532 0.05897 0.7414 0.0
C860 C 0.18467 0.07199 0.74144 0.0
C861 C 0.15784 0.95029 0.75561 0.0
C862 C 0.10438 0.96163 0.75088 0.0
C863 C 0.22387 1.00046 0.75187 0.0
C864 C 0.11755 0.02363 0.74532 0.0
H865 H 0.05333 0.92259 0.75098 0.0
O866 O 0.37098 0.11349 0.7714 0.0
O867 O 0.42697 0.15389 0.68586 0.0
O868 O 0.29923 0.05544 0.63014 0.0
O869 O 0.25736 0.05326 0.68854 0.0
O870 O 0.37525 0.07207 0.71411 0.0
O871 O 0.38719 0.20777 0.76848 0.0
O872 O 0.40017 0.22935 0.59334 0.0
O873 O 0.33393 0.18035 0.66954 0.0
O874 O 0.40943 0.24755 0.70775 0.0
O875 O 0.46569 0.24694 0.65466 0.0
O876 O 0.2826 0.13894 0.62263 0.0
O877 O 0.35478 0.13168 0.57206 0.0
C878 C 0.43175 0.10785 0.69833 0.0
C879 C 0.06642 0.03897 0.74304 0.0
C880 C 0.0835 0.10291 0.73988 0.0
C881 C 0.38962 0.16654 0.78934 0.0
C882 C 0.36218 0.16138 0.82674 0.0
C883 C 0.29351 0.13987 0.83127 0.0
C884 C 0.40401 0.17793 0.85811 0.0
C885 C 0.37678 0.17248 0.89355 0.0
C886 C 0.26664 0.13446 0.86624 0.0
C887 C 0.30786 0.15044 0.89719 0.0
C888 C 0.25319 0.02712 0.65529 0.0
C889 C 0.27945 0.16522 0.65295 0.0
C890 C 0.37307 0.1906 0.56506 0.0
C891 C 0.39766 0.21207 0.52779 0.0
C892 C 0.45161 0.27337 0.52119 0.0
C893 C 0.3602 0.17259 0.49796 0.0
C894 C 0.37554 0.1943 0.46208 0.0
C895 C 0.46916 0.29394 0.4853 0.0
C896 C 0.43086 0.25494 0.45583 0.0
C897 C 0.45826 0.27722 0.68341 0.0
H898 H 0.26054 0.12722 0.80778 0.0
H899 H 0.45712 0.19452 0.85502 0.0
H900 H 0.21356 0.11773 0.86935 0.0
H901 H 0.28597 0.14573 0.92409 0.0
H902 H 0.47898 0.30593 0.54363 0.0
H903 H 0.31606 0.12659 0.50279 0.0
H904 H 0.51087 0.34123 0.48041 0.0
H905 H 0.44279 0.2729 0.4283 0.0
Gd906 Gd 0.8819 0.22038 0.64602 0.0
Gd907 Gd 0.91045 0.20356 0.74034 0.0
C908 C 0.12408 0.31125 0.78934 0.0
C909 C 0.12371 0.22983 0.82677 0.0
C910 C 0.02801 0.20436 0.78717 0.0
C911 C 0.05858 0.26695 0.77638 0.0
C912 C 0.06044 0.18517 0.81246 0.0
C913 C 0.15589 0.29246 0.81473 0.0
C914 C 0.15787 0.37183 0.77454 0.0
C915 C 0.12794 0.38614 0.74625 0.0
N916 N 0.0274 0.2827 0.75056 0.0
C917 C 0.06344 0.34091 0.73418 0.0
H918 H 0.04332 0.3545 0.71193 0.0
C919 C 0.93906 0.09834 0.77966 0.0
N920 N 0.96857 0.1614 0.7713 0.0
C921 C 0.96893 0.07763 0.80487 0.0
C922 C 0.02954 0.12109 0.82161 0.0
H923 H 0.89077 0.06363 0.76831 0.0
H924 H 0.20682 0.32526 0.8238 0.0
H925 H 0.7373 0.08499 0.62172 0.0
H926 H 0.20817 0.40685 0.78364 0.0
H927 H 0.15457 0.43217 0.73357 0.0
H928 H 0.14953 0.21572 0.84585 0.0
H929 H 0.96384 0.37103 0.61354 0.0
H930 H 0.58055 0.12966 0.63106 0.0
H931 H 0.61676 0.05041 0.62025 0.0
H932 H 0.70079 0.35894 0.62663 0.0
H933 H 0.94484 0.02818 0.81151 0.0
H934 H 0.05273 0.10446 0.84085 0.0
H935 H 0.61306 0.24697 0.63501 0.0
H936 H 0.93884 0.45814 0.60442 0.0
N937 N 0.7682 0.18291 0.63239 0.0
C938 C 0.63331 0.14545 0.62943 0.0
C939 C 0.65367 0.10047 0.62377 0.0
C940 C 0.6815 0.21037 0.63152 0.0
C941 C 0.74941 0.22751 0.63186 0.0
C942 C 0.7222 0.12034 0.62491 0.0
N943 N 0.86305 0.30313 0.62735 0.0
C944 C 0.79864 0.29003 0.6286 0.0
C945 C 0.89891 0.41095 0.61121 0.0
C946 C 0.83364 0.39963 0.61688 0.0
C947 C 0.91275 0.3615 0.61597 0.0
C948 C 0.78207 0.33802 0.62452 0.0
H949 H 0.82352 0.43844 0.6153 0.0
O950 O 0.93368 0.25264 0.5936 0.0
O951 O 0.95059 0.20378 0.68293 0.0
O952 O 0.93438 0.30388 0.73775 0.0
O953 O 0.89735 0.30951 0.67953 0.0
O954 O 0.99161 0.28667 0.65607 0.0
O955 O 0.86901 0.1535 0.60136 0.0
O956 O 0.83545 0.13118 0.77573 0.0
O957 O 0.83034 0.18117 0.69807 0.0
O958 O 0.83553 0.1142 0.65738 0.0
O959 O 0.88296 0.10908 0.71255 0.0
O960 O 0.82358 0.22371 0.7448 0.0
O961 O 0.90106 0.22792 0.79667 0.0
C962 C 1.00647 0.24787 0.67135 0.0
C963 C 0.71475 0.32249 0.62809 0.0
C964 C 0.66463 0.25863 0.63232 0.0
C965 C 0.9054 0.19656 0.57801 0.0
C966 C 0.87502 0.18958 0.54108 0.0
C967 C 0.81436 0.18977 0.53769 0.0
C968 C 0.90507 0.18102 0.50907 0.0
C969 C 0.87361 0.17154 0.47436 0.0
C970 C 0.78319 0.18007 0.50356 0.0
C971 C 0.81238 0.1708 0.47214 0.0
C972 C 0.92179 0.33439 0.71263 0.0
C973 C 0.7925 0.19751 0.71462 0.0
C974 C 0.85217 0.17089 0.80381 0.0
C975 C 0.84834 0.14816 0.84149 0.0
C976 C 0.83624 0.08653 0.84835 0.0
C977 C 0.84887 0.18682 0.87114 0.0
C978 C 0.83626 0.16384 0.90699 0.0
C979 C 0.82674 0.06468 0.88416 0.0
C980 C 0.82601 0.10274 0.9133 0.0
C981 C 0.84716 0.08207 0.68247 0.0
H982 H 0.79081 0.19725 0.56144 0.0
H983 H 0.9524 0.18167 0.51111 0.0
H984 H 0.7362 0.17997 0.50145 0.0
H985 H 0.7876 0.16393 0.44588 0.0
H986 H 0.83218 0.05444 0.82617 0.0
H987 H 0.85492 0.23329 0.86604 0.0
H988 H 0.81753 0.01715 0.88919 0.0
H989 H 0.81563 0.08388 0.94066 0.0
loop_
_geom_bond_atom_site_label_1
_geom_bond_atom_site_label_2
_geom_bond_distance
_geom_bond_site_symmetry_2
_ccdc_geom_bond_type
H0 C7 0.929 . S
H1 C10 0.930 . S
H2 C12 0.929 . S
H3 C4 0.969 . S
C4 H3 0.969 . S
C4 O5 1.550 . S
C4 H6 0.973 . S
O5 C4 1.550 . S
O5 C11 1.412 . S
H6 C4 0.973 . S
C7 H0 0.929 . S
C7 C8 1.400 . S
C7 C9 1.364 . S
C8 C7 1.400 . S
C8 C12 1.377 . S
C9 C7 1.364 . S
C9 C10 1.374 . S
C10 H1 0.930 . S
C10 C9 1.374 . S
C10 C11 1.383 . S
C11 O5 1.412 . S
C11 C10 1.383 . S
C11 C12 1.394 . S
C12 H2 0.929 . S
C12 C8 1.377 . S
C12 C11 1.394 . S
H13 C20 0.929 . S
H14 C23 0.930 . S
H15 C25 0.929 . S
H16 C17 0.969 . S
C17 H16 0.969 . S
C17 O18 1.550 1_565 S
C17 H19 0.973 . S
O18 C17 1.550 1_545 S
O18 C24 1.412 . S
H19 C17 0.973 . S
C20 H13 0.929 . S
C20 C21 1.400 . S
C20 C22 1.364 . S
C21 C20 1.400 . S
C21 C25 1.377 . S
C22 C20 1.364 . S
C22 C23 1.374 . S
C23 H14 0.930 . S
C23 C22 1.374 . S
C23 C24 1.383 . S
C24 O18 1.412 . S
C24 C23 1.383 . S
C24 C25 1.394 . S
C25 H15 0.929 . S
C25 C21 1.377 . S
C25 C24 1.394 . S
H26 C33 0.929 . S
H27 C36 0.930 . S
H28 C38 0.929 . S
H29 C30 0.969 . S
C30 H29 0.969 . S
C30 O31 1.550 1_455 S
C30 H32 0.973 . S
O31 C30 1.550 1_655 S
O31 C37 1.412 . S
H32 C30 0.973 . S
C33 H26 0.929 . S
C33 C34 1.400 . S
C33 C35 1.364 . S
C34 C33 1.400 . S
C34 C38 1.377 . S
C35 C33 1.364 . S
C35 C36 1.374 . S
C36 H27 0.930 . S
C36 C35 1.374 . S
C36 C37 1.383 . S
C37 O31 1.412 . S
C37 C36 1.383 . S
C37 C38 1.394 . S
C38 H28 0.929 . S
C38 C34 1.377 . S
C38 C37 1.394 . S
H39 C46 0.929 . S
H40 C49 0.930 . S
H41 C51 0.929 . S
H42 C43 0.969 . S
C43 H42 0.969 . S
C43 O44 1.550 . S
C43 H45 0.973 . S
O44 C43 1.550 . S
O44 C50 1.412 . S
H45 C43 0.973 . S
C46 H39 0.929 . S
C46 C47 1.400 . S
C46 C48 1.364 . S
C47 C46 1.400 . S
C47 C51 1.377 . S
C48 C46 1.364 . S
C48 C49 1.374 . S
C49 H40 0.930 . S
C49 C48 1.374 . S
C49 C50 1.383 . S
C50 O44 1.412 . S
C50 C49 1.383 . S
C50 C51 1.394 . S
C51 H41 0.929 . S
C51 C47 1.377 . S
C51 C50 1.394 . S
H52 C59 0.929 . S
H53 C62 0.930 . S
H54 C64 0.929 . S
H55 C56 0.969 . S
C56 H55 0.969 . S
C56 O57 1.550 1_545 S
C56 H58 0.973 . S
O57 C56 1.550 1_565 S
O57 C63 1.412 . S
H58 C56 0.973 . S
C59 H52 0.929 . S
C59 C60 1.400 . S
C59 C61 1.364 . S
C60 C59 1.400 . S
C60 C64 1.377 . S
C61 C59 1.364 . S
C61 C62 1.374 . S
C62 H53 0.930 . S
C62 C61 1.374 . S
C62 C63 1.383 . S
C63 O57 1.412 . S
C63 C62 1.383 . S
C63 C64 1.394 . S
C64 H54 0.929 . S
C64 C60 1.377 . S
C64 C63 1.394 . S
H65 C72 0.929 . S
H66 C75 0.930 . S
H67 C77 0.929 . S
H68 C69 0.969 . S
C69 H68 0.969 . S
C69 O70 1.550 1_655 S
C69 H71 0.973 . S
O70 C69 1.550 1_455 S
O70 C76 1.412 . S
H71 C69 0.973 . S
C72 H65 0.929 . S
C72 C73 1.400 . S
C72 C74 1.364 . S
C73 C72 1.400 . S
C73 C77 1.377 . S
C74 C72 1.364 . S
C74 C75 1.374 . S
C75 H66 0.930 . S
C75 C74 1.374 . S
C75 C76 1.383 . S
C76 O70 1.412 . S
C76 C75 1.383 . S
C76 C77 1.394 . S
C77 H67 0.929 . S
C77 C73 1.377 . S
C77 C76 1.394 . S
H78 C85 0.929 . S
H79 C88 0.930 . S
H80 C90 0.929 . S
H81 C82 0.969 . S
C82 H81 0.969 . S
C82 O83 1.550 . S
C82 H84 0.973 . S
O83 C82 1.550 . S
O83 C89 1.412 . S
H84 C82 0.973 . S
C85 H78 0.929 . S
C85 C86 1.400 . S
C85 C87 1.364 . S
C86 C85 1.400 . S
C86 C90 1.377 . S
C87 C85 1.364 . S
C87 C88 1.374 . S
C88 H79 0.930 . S
C88 C87 1.374 . S
C88 C89 1.383 . S
C89 O83 1.412 . S
C89 C88 1.383 . S
C89 C90 1.394 . S
C90 H80 0.929 . S
C90 C86 1.377 . S
C90 C89 1.394 . S
H91 C98 0.929 . S
H92 C101 0.930 . S
H93 C103 0.929 . S
H94 C95 0.969 . S
C95 H94 0.969 . S
C95 O96 1.550 . S
C95 H97 0.973 . S
O96 C95 1.550 . S
O96 C102 1.412 . S
H97 C95 0.973 . S
C98 H91 0.929 . S
C98 C99 1.400 . S
C98 C100 1.364 . S
C99 C98 1.400 . S
C99 C103 1.377 . S
C100 C98 1.364 . S
C100 C101 1.374 . S
C101 H92 0.930 . S
C101 C100 1.374 . S
C101 C102 1.383 . S
C102 O96 1.412 . S
C102 C101 1.383 . S
C102 C103 1.394 . S
C103 H93 0.929 . S
C103 C99 1.377 . S
C103 C102 1.394 . S
H104 C111 0.929 . S
H105 C114 0.930 . S
H106 C116 0.929 . S
H107 C108 0.969 . S
C108 H107 0.969 . S
C108 O109 1.550 . S
C108 H110 0.973 . S
O109 C108 1.550 . S
O109 C115 1.412 . S
H110 C108 0.973 . S
C111 H104 0.929 . S
C111 C112 1.400 . S
C111 C113 1.364 . S
C112 C111 1.400 . S
C112 C116 1.377 . S
C113 C111 1.364 . S
C113 C114 1.374 . S
C114 H105 0.930 . S
C114 C113 1.374 . S
C114 C115 1.383 . S
C115 O109 1.412 . S
C115 C114 1.383 . S
C115 C116 1.394 . S
C116 H106 0.929 . S
C116 C112 1.377 . S
C116 C115 1.394 . S
H117 C124 0.929 . S
H118 C127 0.930 . S
H119 C129 0.929 1_554 S
H120 C121 0.969 . S
C121 H120 0.969 . S
C121 O122 1.550 . S
C121 H123 0.973 . S
O122 C121 1.550 . S
O122 C128 1.412 . S
H123 C121 0.973 . S
C124 H117 0.929 . S
C124 C125 1.400 . S
C124 C126 1.364 . S
C125 C124 1.400 . S
C125 C129 1.377 . S
C126 C124 1.364 . S
C126 C127 1.374 . S
C127 H118 0.930 . S
C127 C126 1.374 . S
C127 C128 1.383 . S
C128 O122 1.412 . S
C128 C127 1.383 . S
C128 C129 1.394 . S
C129 H119 0.929 1_556 S
C129 C125 1.377 . S
C129 C128 1.394 . S
H130 C137 0.929 . S
H131 C140 0.930 . S
H132 C142 0.929 1_554 S
H133 C134 0.969 . S
C134 H133 0.969 . S
C134 O135 1.550 . S
C134 H136 0.973 . S
O135 C134 1.550 . S
O135 C141 1.412 . S
H136 C134 0.973 . S
C137 H130 0.929 . S
C137 C138 1.400 . S
C137 C139 1.364 . S
C138 C137 1.400 . S
C138 C142 1.377 . S
C139 C137 1.364 . S
C139 C140 1.374 . S
C140 H131 0.930 . S
C140 C139 1.374 . S
C140 C141 1.383 . S
C141 O135 1.412 . S
C141 C140 1.383 . S
C141 C142 1.394 . S
C142 H132 0.929 1_556 S
C142 C138 1.377 . S
C142 C141 1.394 . S
H143 C150 0.929 . S
H144 C153 0.930 . S
H145 C155 0.929 1_554 S
H146 C147 0.969 . S
C147 H146 0.969 . S
C147 O148 1.550 . S
C147 H149 0.973 . S
O148 C147 1.550 . S
O148 C154 1.412 . S
H149 C147 0.973 . S
C150 H143 0.929 . S
C150 C151 1.400 . S
C150 C152 1.364 . S
C151 C150 1.400 . S
C151 C155 1.377 . S
C152 C150 1.364 . S
C152 C153 1.374 . S
C153 H144 0.930 . S
C153 C152 1.374 . S
C153 C154 1.383 . S
C154 O148 1.412 . S
C154 C153 1.383 . S
C154 C155 1.394 . S
C155 H145 0.929 1_556 S
C155 C151 1.377 . S
C155 C154 1.394 . S
H156 C163 0.929 . S
H157 C166 0.930 . S
H158 C168 0.937 . S
H159 C160 0.969 . S
C160 H159 0.969 . S
C160 O161 1.550 . S
C160 H162 0.973 . S
O161 C160 1.550 . S
O161 C167 1.412 . S
H162 C160 0.973 . S
C163 H156 0.929 . S
C163 C164 1.400 . S
C163 C165 1.364 . S
C164 C163 1.400 . S
C164 C168 1.377 . S
C165 C163 1.364 . S
C165 C166 1.374 . S
C166 H157 0.930 . S
C166 C165 1.374 . S
C166 C167 1.383 . S
C167 O161 1.412 . S
C167 C166 1.383 . S
C167 C168 1.394 . S
C168 H158 0.937 . S
C168 C164 1.377 . S
C168 C167 1.394 . S
H169 C176 0.929 . S
H170 C179 0.930 . S
H171 C181 0.929 . S
H172 C173 0.969 . S
C173 H172 0.969 . S
C173 O174 1.550 . S
C173 H175 0.973 . S
O174 C173 1.550 . S
O174 C180 1.412 . S
H175 C173 0.973 . S
C176 H169 0.929 . S
C176 C177 1.400 . S
C176 C178 1.364 . S
C177 C176 1.400 . S
C177 C181 1.377 . S
C178 C176 1.364 . S
C178 C179 1.374 . S
C179 H170 0.930 . S
C179 C178 1.374 . S
C179 C180 1.383 . S
C180 O174 1.412 . S
C180 C179 1.383 . S
C180 C181 1.394 . S
C181 H171 0.929 . S
C181 C177 1.377 . S
C181 C180 1.394 . S
H182 C189 0.929 . S
H183 C192 0.930 . S
H184 C194 0.929 . S
H185 C186 0.969 . S
C186 H185 0.969 . S
C186 O187 1.550 . S
C186 H188 0.973 . S
O187 C186 1.550 . S
O187 C193 1.412 . S
H188 C186 0.973 . S
C189 H182 0.929 . S
C189 C190 1.400 . S
C189 C191 1.364 . S
C190 C189 1.400 . S
C190 C194 1.377 . S
C191 C189 1.364 . S
C191 C192 1.374 . S
C192 H183 0.930 . S
C192 C191 1.374 . S
C192 C193 1.383 . S
C193 O187 1.412 . S
C193 C192 1.383 . S
C193 C194 1.394 . S
C194 H184 0.929 . S
C194 C190 1.377 . S
C194 C193 1.394 . S
H195 C202 0.929 . S
H196 C205 0.930 . S
H197 C207 0.929 . S
H198 C199 0.969 . S
C199 H198 0.969 . S
C199 O200 1.550 . S
C199 H201 0.973 . S
O200 C199 1.550 . S
O200 C206 1.412 . S
H201 C199 0.973 . S
C202 H195 0.929 . S
C202 C203 1.400 . S
C202 C204 1.364 . S
C203 C202 1.400 . S
C203 C207 1.377 . S
C204 C202 1.364 . S
C204 C205 1.374 . S
C205 H196 0.930 . S
C205 C204 1.374 . S
C205 C206 1.383 . S
C206 O200 1.412 . S
C206 C205 1.383 . S
C206 C207 1.394 . S
C207 H197 0.929 . S
C207 C203 1.377 . S
C207 C206 1.394 . S
H208 C215 0.929 . S
H209 C218 0.930 . S
H210 C220 0.929 . S
H211 C212 0.969 . S
C212 H211 0.969 . S
C212 O213 1.550 . S
C212 H214 0.973 . S
O213 C212 1.550 . S
O213 C219 1.412 . S
H214 C212 0.973 . S
C215 H208 0.929 . S
C215 C216 1.400 . S
C215 C217 1.364 . S
C216 C215 1.400 . S
C216 C220 1.377 . S
C217 C215 1.364 . S
C217 C218 1.374 . S
C218 H209 0.930 . S
C218 C217 1.374 . S
C218 C219 1.383 . S
C219 O213 1.412 . S
C219 C218 1.383 . S
C219 C220 1.394 . S
C220 H210 0.929 . S
C220 C216 1.377 . S
C220 C219 1.394 . S
H221 C228 0.929 . S
H222 C231 0.930 . S
H223 C233 0.929 . S
H224 C225 0.969 . S
C225 H224 0.969 . S
C225 O226 1.550 . S
C225 H227 0.973 . S
O226 C225 1.550 . S
O226 C232 1.412 . S
H227 C225 0.973 . S
C228 H221 0.929 . S
C228 C229 1.400 . S
C228 C230 1.364 . S
C229 C228 1.400 . S
C229 C233 1.377 . S
C230 C228 1.364 . S
C230 C231 1.374 . S
C231 H222 0.930 . S
C231 C230 1.374 . S
C231 C232 1.383 . S
C232 O226 1.412 . S
C232 C231 1.383 . S
C232 C233 1.394 . S
C233 H223 0.929 . S
C233 C229 1.377 . S
C233 C232 1.394 . S
Gd234 N265 2.661 . S
Gd234 N271 2.601 . S
Gd234 O278 2.545 . S
Gd234 O279 2.606 1_545 S
Gd234 O281 2.429 . S
Gd234 O282 2.545 1_545 S
Gd234 O283 2.412 1_545 S
Gd234 O285 2.365 . S
Gd234 O286 2.324 1_545 S
Gd234 C293 2.828 . S
Gd235 N244 2.661 . S
Gd235 N248 2.601 . S
Gd235 O279 2.362 1_556 S
Gd235 O280 2.324 1_565 S
Gd235 O284 2.545 . S
Gd235 O285 2.604 1_566 S
Gd235 O287 2.429 . S
Gd235 O288 2.545 1_565 S
Gd235 O289 2.412 1_565 S
Gd235 C302 2.828 . S
C236 C239 1.417 . S
C236 C241 1.431 . S
C236 C242 1.412 . S
C237 C240 1.437 . S
C237 C241 1.317 . S
C237 H256 0.929 . S
C238 C239 1.426 . S
C238 C240 1.413 . S
C238 N248 1.359 . S
C239 C236 1.417 . S
C239 C238 1.426 . S
C239 N244 1.350 . S
C240 C237 1.437 . S
C240 C238 1.413 . S
C240 C250 1.391 . S
C241 C236 1.431 . S
C241 C237 1.317 . S
C241 H252 0.930 . S
C242 C236 1.412 . S
C242 C243 1.355 . S
C242 H254 0.930 . S
C243 C242 1.355 . S
C243 C245 1.402 . S
C243 H255 0.930 . S
N244 Gd235 2.661 . S
N244 C239 1.350 . S
N244 C245 1.307 . S
C245 C243 1.402 . S
C245 N244 1.307 . S
C245 H246 0.930 . S
H246 C245 0.930 . S
C247 N248 1.334 . S
C247 C249 1.394 . S
C247 H251 0.930 . S
N248 Gd235 2.601 . S
N248 C238 1.359 . S
N248 C247 1.334 . S
C249 C247 1.394 . S
C249 C250 1.359 . S
C249 H261 0.930 . S
C250 C240 1.391 . S
C250 C249 1.359 . S
C250 H262 0.929 . S
H251 C247 0.930 . S
H252 C241 0.930 . S
H253 C270 0.930 . S
H254 C242 0.930 . S
H255 C243 0.930 . S
H256 C237 0.929 . S
H257 C275 0.930 . S
H258 C266 0.930 . S
H259 C267 0.930 . S
H260 C291 0.929 . S
H261 C249 0.930 . S
H262 C250 0.929 . S
H263 C292 0.930 . S
H264 C273 0.930 . S
N265 Gd234 2.661 . S
N265 C269 1.350 . S
N265 C270 1.307 . S
C266 H258 0.930 . S
C266 C267 1.355 . S
C266 C268 1.412 . S
C267 H259 0.930 . S
C267 C266 1.355 . S
C267 C270 1.402 . S
C268 C266 1.412 . S
C268 C269 1.417 . S
C268 C292 1.431 . S
C269 N265 1.350 . S
C269 C268 1.417 . S
C269 C272 1.426 . S
C270 H253 0.930 . S
C270 N265 1.307 . S
C270 C267 1.402 . S
N271 Gd234 2.601 . S
N271 C272 1.359 . S
N271 C275 1.334 . S
C272 C269 1.426 . S
C272 N271 1.359 . S
C272 C276 1.413 . S
C273 H264 0.930 . S
C273 C274 1.359 . S
C273 C275 1.394 . S
C274 C273 1.359 . S
C274 C276 1.391 . S
C274 H277 0.929 . S
C275 H257 0.930 . S
C275 N271 1.334 . S
C275 C273 1.394 . S
C276 C272 1.413 . S
C276 C274 1.391 . S
C276 C291 1.437 . S
H277 C274 0.929 . S
O278 Gd234 2.545 . S
O278 C293 1.258 . S
O279 Gd234 2.606 1_565 S
O279 Gd235 2.362 1_554 S
O279 C290 1.284 . S
O280 Gd235 2.324 1_545 S
O280 C300 1.254 . S
O281 Gd234 2.429 . S
O281 C300 1.268 1_554 S
O282 Gd234 2.545 1_565 S
O282 C290 1.250 . S
O283 Gd234 2.412 1_565 S
O283 C293 1.252 1_565 S
O284 Gd235 2.545 . S
O284 C302 1.258 . S
O285 Gd234 2.365 . S
O285 Gd235 2.604 1_544 S
O285 C301 1.282 1_554 S
O286 Gd234 2.324 1_565 S
O286 C309 1.254 . S
O287 Gd235 2.429 . S
O287 C309 1.268 1_556 S
O288 Gd235 2.545 1_545 S
O288 C301 1.250 . S
O289 Gd235 2.412 1_545 S
O289 C302 1.252 1_545 S
C290 O279 1.284 . S
C290 O282 1.250 . S
C291 H260 0.929 . S
C291 C276 1.437 . S
C291 C292 1.317 . S
C292 H263 0.930 . S
C292 C268 1.431 . S
C292 C291 1.317 . S
C293 Gd234 2.828 . S
C293 O278 1.258 . S
C293 O283 1.252 1_545 S
C293 C294 1.497 . S
C294 C293 1.497 . S
C294 C295 1.395 . S
C294 C296 1.380 1_545 S
C295 C294 1.395 . S
C295 C298 1.398 . S
C295 H310 0.930 . S
C296 C294 1.380 1_565 S
C296 C297 1.391 . S
C296 H311 0.930 . S
C297 C296 1.391 . S
C297 C299 1.387 . S
C298 C295 1.398 . S
C298 C299 1.380 1_545 S
C298 H312 0.930 . S
C299 C297 1.387 . S
C299 C298 1.380 1_565 S
C299 H313 0.930 . S
C300 O280 1.254 . S
C300 O281 1.268 1_556 S
C301 O285 1.282 1_556 S
C301 O288 1.250 . S
C302 Gd235 2.828 . S
C302 O284 1.258 . S
C302 O289 1.252 1_565 S
C302 C303 1.498 . S
C303 C302 1.498 . S
C303 C304 1.399 . S
C303 C305 1.375 1_565 S
C304 C303 1.399 . S
C304 C307 1.398 . S
C304 H314 0.930 . S
C305 C303 1.375 1_545 S
C305 C306 1.391 . S
C305 H315 0.930 . S
C306 C305 1.391 . S
C306 C308 1.387 . S
C307 C304 1.398 . S
C307 C308 1.380 1_565 S
C307 H316 0.930 . S
C308 C306 1.387 . S
C308 C307 1.380 1_545 S
C308 H317 0.930 . S
C309 O286 1.254 . S
C309 O287 1.268 1_554 S
H310 C295 0.930 . S
H311 C296 0.930 . S
H312 C298 0.930 . S
H313 C299 0.930 . S
H314 C304 0.930 . S
H315 C305 0.930 . S
H316 C307 0.930 . S
H317 C308 0.930 . S
Gd318 N349 2.661 . S
Gd318 N355 2.601 . S
Gd318 O362 2.545 . S
Gd318 O363 2.606 1_655 S
Gd318 O365 2.429 . S
Gd318 O366 2.545 1_655 S
Gd318 O367 2.412 1_655 S
Gd318 O369 2.338 1_554 S
Gd318 O370 2.324 1_655 S
Gd318 C377 2.828 . S
Gd319 N328 2.661 . S
Gd319 N332 2.601 . S
Gd319 O363 2.362 1_556 S
Gd319 O364 2.324 1_455 S
Gd319 O368 2.545 . S
Gd319 O369 2.622 1_455 S
Gd319 O371 2.429 . S
Gd319 O372 2.545 1_455 S
Gd319 O373 2.412 . S
Gd319 C386 2.828 . S
C320 C323 1.417 . S
C320 C325 1.431 . S
C320 C326 1.412 . S
C321 C324 1.437 . S
C321 C325 1.317 . S
C321 H340 0.929 . S
C322 C323 1.426 . S
C322 C324 1.413 . S
C322 N332 1.359 . S
C323 C320 1.417 . S
C323 C322 1.426 . S
C323 N328 1.350 . S
C324 C321 1.437 . S
C324 C322 1.413 . S
C324 C334 1.391 . S
C325 C320 1.431 . S
C325 C321 1.317 . S
C325 H336 0.930 . S
C326 C320 1.412 . S
C326 C327 1.355 . S
C326 H338 0.930 . S
C327 C326 1.355 . S
C327 C329 1.402 . S
C327 H339 0.930 . S
N328 Gd319 2.661 . S
N328 C323 1.350 . S
N328 C329 1.307 . S
C329 C327 1.402 . S
C329 N328 1.307 . S
C329 H330 0.930 . S
H330 C329 0.930 . S
C331 N332 1.334 . S
C331 C333 1.394 . S
C331 H335 0.930 . S
N332 Gd319 2.601 . S
N332 C322 1.359 . S
N332 C331 1.334 . S
C333 C331 1.394 . S
C333 C334 1.359 . S
C333 H345 0.930 . S
C334 C324 1.391 . S
C334 C333 1.359 . S
C334 H346 0.929 . S
H335 C331 0.930 . S
H336 C325 0.930 . S
H337 C354 0.930 . S
H338 C326 0.930 . S
H339 C327 0.930 . S
H340 C321 0.929 . S
H341 C359 0.930 . S
H342 C350 0.930 . S
H343 C351 0.930 . S
H344 C375 0.929 . S
H345 C333 0.930 . S
H346 C334 0.929 . S
H347 C376 0.930 . S
H348 C357 0.930 . S
N349 Gd318 2.661 . S
N349 C353 1.350 . S
N349 C354 1.307 . S
C350 H342 0.930 . S
C350 C351 1.355 . S
C350 C352 1.412 . S
C351 H343 0.930 . S
C351 C350 1.355 . S
C351 C354 1.402 . S
C352 C350 1.412 . S
C352 C353 1.417 . S
C352 C376 1.431 . S
C353 N349 1.350 . S
C353 C352 1.417 . S
C353 C356 1.426 . S
C354 H337 0.930 . S
C354 N349 1.307 . S
C354 C351 1.402 . S
N355 Gd318 2.601 . S
N355 C356 1.359 . S
N355 C359 1.334 . S
C356 C353 1.426 . S
C356 N355 1.359 . S
C356 C360 1.413 . S
C357 H348 0.930 . S
C357 C358 1.359 . S
C357 C359 1.394 . S
C358 C357 1.359 . S
C358 C360 1.391 . S
C358 H361 0.929 . S
C359 H341 0.930 . S
C359 N355 1.334 . S
C359 C357 1.394 . S
C360 C356 1.413 . S
C360 C358 1.391 . S
C360 C375 1.437 . S
H361 C358 0.929 . S
O362 Gd318 2.545 . S
O362 C377 1.258 . S
O363 Gd318 2.606 1_455 S
O363 Gd319 2.362 1_554 S
O363 C374 1.284 . S
O364 Gd319 2.324 1_655 S
O364 C384 1.254 . S
O365 Gd318 2.429 . S
O365 C384 1.268 1_554 S
O366 Gd318 2.545 1_455 S
O366 C374 1.250 . S
O367 Gd318 2.412 1_455 S
O367 C377 1.252 1_455 S
O368 Gd319 2.545 . S
O368 C386 1.258 . S
O369 Gd318 2.338 1_556 S
O369 Gd319 2.622 1_655 S
O369 C385 1.303 . S
O370 Gd318 2.324 1_455 S
O370 C393 1.254 . S
O371 Gd319 2.429 . S
O371 C393 1.268 1_556 S
O372 Gd319 2.545 1_655 S
O372 C385 1.250 . S
O373 Gd319 2.412 . S
O373 C386 1.252 . S
C374 O363 1.284 . S
C374 O366 1.250 . S
C375 H344 0.929 . S
C375 C360 1.437 . S
C375 C376 1.317 . S
C376 H347 0.930 . S
C376 C352 1.431 . S
C376 C375 1.317 . S
C377 Gd318 2.828 . S
C377 O362 1.258 . S
C377 O367 1.252 1_655 S
C377 C378 1.497 . S
C378 C377 1.497 . S
C378 C379 1.395 . S
C378 C380 1.380 1_655 S
C379 C378 1.395 . S
C379 C382 1.398 . S
C379 H394 0.930 . S
C380 C378 1.380 1_455 S
C380 C381 1.391 . S
C380 H395 0.930 . S
C381 C380 1.391 . S
C381 C383 1.387 . S
C382 C379 1.398 . S
C382 C383 1.380 1_655 S
C382 H396 0.930 . S
C383 C381 1.387 . S
C383 C382 1.380 1_455 S
C383 H397 0.930 . S
C384 O364 1.254 . S
C384 O365 1.268 1_556 S
C385 O369 1.303 . S
C385 O372 1.250 . S
C386 Gd319 2.828 . S
C386 O368 1.258 . S
C386 O373 1.252 . S
C386 C387 1.497 . S
C387 C386 1.497 . S
C387 C388 1.395 . S
C387 C389 1.380 1_455 S
C388 C387 1.395 . S
C388 C391 1.398 . S
C388 H398 0.930 . S
C389 C387 1.380 1_655 S
C389 C390 1.391 . S
C389 H399 0.930 . S
C390 C389 1.391 . S
C390 C392 1.387 . S
C391 C388 1.398 . S
C391 C392 1.380 1_455 S
C391 H400 0.930 . S
C392 C390 1.387 . S
C392 C391 1.380 1_655 S
C392 H401 0.930 . S
C393 O370 1.254 . S
C393 O371 1.268 1_554 S
H394 C379 0.930 . S
H395 C380 0.930 . S
H396 C382 0.930 . S
H397 C383 0.930 . S
H398 C388 0.930 . S
H399 C389 0.930 . S
H400 C391 0.930 . S
H401 C392 0.930 . S
Gd402 N433 2.661 . S
Gd402 N439 2.601 . S
Gd402 O446 2.545 . S
Gd402 O447 2.599 1_556 S
Gd402 O449 2.429 . S
Gd402 O450 2.545 . S
Gd402 O451 2.412 . S
Gd402 O453 2.362 1_556 S
Gd402 O454 2.324 . S
Gd402 C461 2.828 . S
Gd403 N412 2.661 . S
Gd403 N416 2.601 . S
Gd403 O447 2.372 . S
Gd403 O448 2.324 . S
Gd403 O452 2.545 . S
Gd403 O453 2.606 . S
Gd403 O455 2.429 . S
Gd403 O456 2.545 . S
Gd403 O457 2.412 . S
Gd403 C470 2.828 . S
C404 C407 1.417 . S
C404 C409 1.431 . S
C404 C410 1.412 . S
C405 C408 1.437 . S
C405 C409 1.317 . S
C405 H424 0.929 . S
C406 C407 1.426 . S
C406 C408 1.413 . S
C406 N416 1.359 . S
C407 C404 1.417 . S
C407 C406 1.426 . S
C407 N412 1.350 . S
C408 C405 1.437 . S
C408 C406 1.413 . S
C408 C418 1.391 . S
C409 C404 1.431 . S
C409 C405 1.317 . S
C409 H420 0.930 . S
C410 C404 1.412 . S
C410 C411 1.355 . S
C410 H422 0.930 . S
C411 C410 1.355 . S
C411 C413 1.402 . S
C411 H423 0.930 . S
N412 Gd403 2.661 . S
N412 C407 1.350 . S
N412 C413 1.307 . S
C413 C411 1.402 . S
C413 N412 1.307 . S
C413 H414 0.930 . S
H414 C413 0.930 . S
C415 N416 1.334 . S
C415 C417 1.394 . S
C415 H419 0.930 . S
N416 Gd403 2.601 . S
N416 C406 1.359 . S
N416 C415 1.334 . S
C417 C415 1.394 . S
C417 C418 1.359 . S
C417 H429 0.930 . S
C418 C408 1.391 . S
C418 C417 1.359 . S
C418 H430 0.929 . S
H419 C415 0.930 . S
H420 C409 0.930 . S
H421 C438 0.930 . S
H422 C410 0.930 . S
H423 C411 0.930 . S
H424 C405 0.929 . S
H425 C443 0.930 . S
H426 C434 0.930 . S
H427 C435 0.930 . S
H428 C459 0.929 . S
H429 C417 0.930 . S
H430 C418 0.929 . S
H431 C460 0.930 . S
H432 C441 0.930 . S
N433 Gd402 2.661 . S
N433 C437 1.350 . S
N433 C438 1.307 . S
C434 H426 0.930 . S
C434 C435 1.355 . S
C434 C436 1.412 . S
C435 H427 0.930 . S
C435 C434 1.355 . S
C435 C438 1.402 . S
C436 C434 1.412 . S
C436 C437 1.417 . S
C436 C460 1.431 . S
C437 N433 1.350 . S
C437 C436 1.417 . S
C437 C440 1.426 . S
C438 H421 0.930 . S
C438 N433 1.307 . S
C438 C435 1.402 . S
N439 Gd402 2.601 . S
N439 C440 1.359 . S
N439 C443 1.334 . S
C440 C437 1.426 . S
C440 N439 1.359 . S
C440 C444 1.413 . S
C441 H432 0.930 . S
C441 C442 1.359 . S
C441 C443 1.394 . S
C442 C441 1.359 . S
C442 C444 1.391 . S
C442 H445 0.929 . S
C443 H425 0.930 . S
C443 N439 1.334 . S
C443 C441 1.394 . S
C444 C440 1.413 . S
C444 C442 1.391 . S
C444 C459 1.437 . S
H445 C442 0.929 . S
O446 Gd402 2.545 . S
O446 C461 1.258 . S
O447 Gd402 2.599 1_554 S
O447 Gd403 2.372 . S
O447 C458 1.276 1_554 S
O448 Gd403 2.324 . S
O448 C468 1.254 . S
O449 Gd402 2.429 . S
O449 C468 1.268 1_556 S
O450 Gd402 2.545 . S
O450 C458 1.250 . S
O451 Gd402 2.412 . S
O451 C461 1.252 . S
O452 Gd403 2.545 . S
O452 C470 1.258 . S
O453 Gd402 2.362 1_554 S
O453 Gd403 2.606 . S
O453 C469 1.284 . S
O454 Gd402 2.324 . S
O454 C477 1.254 . S
O455 Gd403 2.429 . S
O455 C477 1.268 1_554 S
O456 Gd403 2.545 . S
O456 C469 1.250 . S
O457 Gd403 2.412 . S
O457 C470 1.252 . S
C458 O447 1.276 1_556 S
C458 O450 1.250 . S
C459 H428 0.929 . S
C459 C444 1.437 . S
C459 C460 1.317 . S
C460 H431 0.930 . S
C460 C436 1.431 . S
C460 C459 1.317 . S
C461 Gd402 2.828 . S
C461 O446 1.258 . S
C461 O451 1.252 . S
C461 C462 1.497 . S
C462 C461 1.497 . S
C462 C463 1.395 . S
C462 C464 1.380 . S
C463 C462 1.395 . S
C463 C466 1.398 . S
C463 H478 0.930 . S
C464 C462 1.380 . S
C464 C465 1.391 . S
C464 H479 0.930 . S
C465 C464 1.391 . S
C465 C467 1.387 . S
C466 C463 1.398 . S
C466 C467 1.380 . S
C466 H480 0.930 . S
C467 C465 1.387 . S
C467 C466 1.380 . S
C467 H481 0.930 . S
C468 O448 1.254 . S
C468 O449 1.268 1_554 S
C469 O453 1.284 . S
C469 O456 1.250 . S
C470 Gd403 2.828 . S
C470 O452 1.258 . S
C470 O457 1.252 . S
C470 C471 1.497 . S
C471 C470 1.497 . S
C471 C472 1.395 . S
C471 C473 1.380 . S
C472 C471 1.395 . S
C472 C475 1.398 . S
C472 H482 0.930 . S
C473 C471 1.380 . S
C473 C474 1.391 . S
C473 H483 0.930 . S
C474 C473 1.391 . S
C474 C476 1.387 . S
C475 C472 1.398 . S
C475 C476 1.380 . S
C475 H484 0.930 . S
C476 C474 1.387 . S
C476 C475 1.380 . S
C476 H485 0.930 . S
C477 O454 1.254 . S
C477 O455 1.268 1_556 S
H478 C463 0.930 . S
H479 C464 0.930 . S
H480 C466 0.930 . S
H481 C467 0.930 . S
H482 C472 0.930 . S
H483 C473 0.930 . S
H484 C475 0.930 . S
H485 C476 0.930 . S
Gd486 N517 2.661 . S
Gd486 N523 2.601 . S
Gd486 O530 2.545 . S
Gd486 O531 2.606 . S
Gd486 O533 2.429 . S
Gd486 O534 2.545 . S
Gd486 O535 2.412 . S
Gd486 O537 2.362 . S
Gd486 O538 2.324 . S
Gd486 C545 2.828 . S
Gd487 N496 2.661 1_455 S
Gd487 N500 2.601 . S
Gd487 O531 2.362 . S
Gd487 O532 2.324 . S
Gd487 O536 2.545 . S
Gd487 O537 2.606 . S
Gd487 O539 2.429 . S
Gd487 O540 2.545 . S
Gd487 O541 2.412 . S
Gd487 C554 2.828 . S
C488 C491 1.417 . S
C488 C493 1.431 . S
C488 C494 1.412 . S
C489 C492 1.437 . S
C489 C493 1.317 . S
C489 H508 0.929 . S
C490 C491 1.426 . S
C490 C492 1.413 . S
C490 N500 1.359 1_655 S
C491 C488 1.417 . S
C491 C490 1.426 . S
C491 N496 1.350 . S
C492 C489 1.437 . S
C492 C490 1.413 . S
C492 C502 1.391 . S
C493 C488 1.431 . S
C493 C489 1.317 . S
C493 H504 0.930 . S
C494 C488 1.412 . S
C494 C495 1.355 . S
C494 H506 0.930 . S
C495 C494 1.355 . S
C495 C497 1.402 . S
C495 H507 0.930 . S
N496 Gd487 2.661 1_655 S
N496 C491 1.350 . S
N496 C497 1.307 . S
C497 C495 1.402 . S
C497 N496 1.307 . S
C497 H498 0.930 . S
H498 C497 0.930 . S
C499 N500 1.334 . S
C499 C501 1.394 . S
C499 H503 0.930 . S
N500 Gd487 2.601 . S
N500 C490 1.359 1_455 S
N500 C499 1.334 . S
C501 C499 1.394 . S
C501 C502 1.359 1_455 S
C501 H513 0.930 . S
C502 C492 1.391 . S
C502 C501 1.359 1_655 S
C502 H514 0.929 . S
H503 C499 0.930 . S
H504 C493 0.930 . S
H505 C522 0.930 . S
H506 C494 0.930 . S
H507 C495 0.930 . S
H508 C489 0.929 . S
H509 C527 0.930 . S
H510 C518 0.930 . S
H511 C519 0.930 . S
H512 C543 0.929 . S
H513 C501 0.930 . S
H514 C502 0.929 . S
H515 C544 0.930 . S
H516 C525 0.930 . S
N517 Gd486 2.661 . S
N517 C521 1.350 . S
N517 C522 1.307 . S
C518 H510 0.930 . S
C518 C519 1.355 . S
C518 C520 1.412 . S
C519 H511 0.930 . S
C519 C518 1.355 . S
C519 C522 1.402 . S
C520 C518 1.412 . S
C520 C521 1.417 . S
C520 C544 1.431 . S
C521 N517 1.350 . S
C521 C520 1.417 . S
C521 C524 1.426 . S
C522 H505 0.930 . S
C522 N517 1.307 . S
C522 C519 1.402 . S
N523 Gd486 2.601 . S
N523 C524 1.359 . S
N523 C527 1.334 . S
C524 C521 1.426 . S
C524 N523 1.359 . S
C524 C528 1.413 . S
C525 H516 0.930 . S
C525 C526 1.359 . S
C525 C527 1.394 . S
C526 C525 1.359 . S
C526 C528 1.391 . S
C526 H529 0.929 . S
C527 H509 0.930 . S
C527 N523 1.334 . S
C527 C525 1.394 . S
C528 C524 1.413 . S
C528 C526 1.391 . S
C528 C543 1.437 . S
H529 C526 0.929 . S
O530 Gd486 2.545 . S
O530 C545 1.258 . S
O531 Gd486 2.606 . S
O531 Gd487 2.362 . S
O531 C542 1.284 . S
O532 Gd487 2.324 . S
O532 C552 1.254 . S
O533 Gd486 2.429 . S
O533 C552 1.268 . S
O534 Gd486 2.545 . S
O534 C542 1.250 . S
O535 Gd486 2.412 . S
O535 C545 1.252 . S
O536 Gd487 2.545 . S
O536 C554 1.258 . S
O537 Gd486 2.362 . S
O537 Gd487 2.606 . S
O537 C553 1.284 . S
O538 Gd486 2.324 . S
O538 C561 1.254 . S
O539 Gd487 2.429 . S
O539 C561 1.268 . S
O540 Gd487 2.545 . S
O540 C553 1.250 . S
O541 Gd487 2.412 . S
O541 C554 1.252 . S
C542 O531 1.284 . S
C542 O534 1.250 . S
C543 H512 0.929 . S
C543 C528 1.437 . S
C543 C544 1.317 . S
C544 H515 0.930 . S
C544 C520 1.431 . S
C544 C543 1.317 . S
C545 Gd486 2.828 . S
C545 O530 1.258 . S
C545 O535 1.252 . S
C545 C546 1.497 . S
C546 C545 1.497 . S
C546 C547 1.395 . S
C546 C548 1.380 . S
C547 C546 1.395 . S
C547 C550 1.398 . S
C547 H562 0.930 . S
C548 C546 1.380 . S
C548 C549 1.391 . S
C548 H563 0.930 . S
C549 C548 1.391 . S
C549 C551 1.387 . S
C550 C547 1.398 . S
C550 C551 1.380 . S
C550 H564 0.930 . S
C551 C549 1.387 . S
C551 C550 1.380 . S
C551 H565 0.930 . S
C552 O532 1.254 . S
C552 O533 1.268 . S
C553 O537 1.284 . S
C553 O540 1.250 . S
C554 Gd487 2.828 . S
C554 O536 1.258 . S
C554 O541 1.252 . S
C554 C555 1.497 . S
C555 C554 1.497 . S
C555 C556 1.395 . S
C555 C557 1.380 . S
C556 C555 1.395 . S
C556 C559 1.398 . S
C556 H566 0.930 . S
C557 C555 1.380 . S
C557 C558 1.391 . S
C557 H567 0.930 . S
C558 C557 1.391 . S
C558 C560 1.387 . S
C559 C556 1.398 . S
C559 C560 1.380 . S
C559 H568 0.930 . S
C560 C558 1.387 . S
C560 C559 1.380 . S
C560 H569 0.930 . S
C561 O538 1.254 . S
C561 O539 1.268 . S
H562 C547 0.930 . S
H563 C548 0.930 . S
H564 C550 0.930 . S
H565 C551 0.930 . S
H566 C556 0.930 . S
H567 C557 0.930 . S
H568 C559 0.930 . S
H569 C560 0.930 . S
Gd570 N601 2.661 . S
Gd570 N607 2.601 . S
Gd570 O614 2.545 . S
Gd570 O615 2.606 . S
Gd570 O617 2.429 . S
Gd570 O618 2.545 . S
Gd570 O619 2.412 . S
Gd570 O621 2.362 . S
Gd570 O622 2.324 . S
Gd570 C629 2.828 . S
Gd571 N580 2.661 . S
Gd571 N584 2.601 . S
Gd571 O615 2.362 . S
Gd571 O616 2.324 . S
Gd571 O620 2.545 . S
Gd571 O621 2.606 . S
Gd571 O623 2.429 . S
Gd571 O624 2.545 . S
Gd571 O625 2.412 . S
Gd571 C638 2.828 . S
C572 C575 1.417 . S
C572 C577 1.431 . S
C572 C578 1.412 . S
C573 C576 1.437 . S
C573 C577 1.317 . S
C573 H592 0.929 . S
C574 C575 1.426 . S
C574 C576 1.413 . S
C574 N584 1.359 . S
C575 C572 1.417 . S
C575 C574 1.426 . S
C575 N580 1.350 . S
C576 C573 1.437 . S
C576 C574 1.413 . S
C576 C586 1.391 . S
C577 C572 1.431 . S
C577 C573 1.317 . S
C577 H588 0.930 . S
C578 C572 1.412 . S
C578 C579 1.355 . S
C578 H590 0.930 . S
C579 C578 1.355 . S
C579 C581 1.402 . S
C579 H591 0.930 . S
N580 Gd571 2.661 . S
N580 C575 1.350 . S
N580 C581 1.307 . S
C581 C579 1.402 . S
C581 N580 1.307 . S
C581 H582 0.930 . S
H582 C581 0.930 . S
C583 N584 1.334 . S
C583 C585 1.394 . S
C583 H587 0.930 . S
N584 Gd571 2.601 . S
N584 C574 1.359 . S
N584 C583 1.334 . S
C585 C583 1.394 . S
C585 C586 1.359 . S
C585 H597 0.930 1_565 S
C586 C576 1.391 . S
C586 C585 1.359 . S
C586 H598 0.929 . S
H587 C583 0.930 . S
H588 C577 0.930 . S
H589 C606 0.930 . S
H590 C578 0.930 . S
H591 C579 0.930 . S
H592 C573 0.929 . S
H593 C611 0.930 . S
H594 C602 0.930 . S
H595 C603 0.930 . S
H596 C627 0.929 . S
H597 C585 0.930 1_545 S
H598 C586 0.929 . S
H599 C628 0.930 . S
H600 C609 0.930 . S
N601 Gd570 2.661 . S
N601 C605 1.350 . S
N601 C606 1.307 . S
C602 H594 0.930 . S
C602 C603 1.355 . S
C602 C604 1.412 . S
C603 H595 0.930 . S
C603 C602 1.355 . S
C603 C606 1.402 . S
C604 C602 1.412 . S
C604 C605 1.417 . S
C604 C628 1.431 . S
C605 N601 1.350 . S
C605 C604 1.417 . S
C605 C608 1.426 . S
C606 H589 0.930 . S
C606 N601 1.307 . S
C606 C603 1.402 . S
N607 Gd570 2.601 . S
N607 C608 1.359 . S
N607 C611 1.334 . S
C608 C605 1.426 . S
C608 N607 1.359 . S
C608 C612 1.413 . S
C609 H600 0.930 . S
C609 C610 1.359 . S
C609 C611 1.394 . S
C610 C609 1.359 . S
C610 C612 1.391 . S
C610 H613 0.929 . S
C611 H593 0.930 . S
C611 N607 1.334 . S
C611 C609 1.394 . S
C612 C608 1.413 . S
C612 C610 1.391 . S
C612 C627 1.437 . S
H613 C610 0.929 . S
O614 Gd570 2.545 . S
O614 C629 1.258 . S
O615 Gd570 2.606 . S
O615 Gd571 2.362 . S
O615 C626 1.284 . S
O616 Gd571 2.324 . S
O616 C636 1.254 . S
O617 Gd570 2.429 . S
O617 C636 1.268 . S
O618 Gd570 2.545 . S
O618 C626 1.250 . S
O619 Gd570 2.412 . S
O619 C629 1.252 . S
O620 Gd571 2.545 . S
O620 C638 1.258 . S
O621 Gd570 2.362 . S
O621 Gd571 2.606 . S
O621 C637 1.284 . S
O622 Gd570 2.324 . S
O622 C645 1.254 . S
O623 Gd571 2.429 . S
O623 C645 1.268 . S
O624 Gd571 2.545 . S
O624 C637 1.250 . S
O625 Gd571 2.412 . S
O625 C638 1.252 . S
C626 O615 1.284 . S
C626 O618 1.250 . S
C627 H596 0.929 . S
C627 C612 1.437 . S
C627 C628 1.317 . S
C628 H599 0.930 . S
C628 C604 1.431 . S
C628 C627 1.317 . S
C629 Gd570 2.828 . S
C629 O614 1.258 . S
C629 O619 1.252 . S
C629 C630 1.497 . S
C630 C629 1.497 . S
C630 C631 1.395 . S
C630 C632 1.380 . S
C631 C630 1.395 . S
C631 C634 1.398 . S
C631 H646 0.930 . S
C632 C630 1.380 . S
C632 C633 1.391 . S
C632 H647 0.930 . S
C633 C632 1.391 . S
C633 C635 1.387 . S
C634 C631 1.398 . S
C634 C635 1.380 . S
C634 H648 0.930 . S
C635 C633 1.387 . S
C635 C634 1.380 . S
C635 H649 0.930 . S
C636 O616 1.254 . S
C636 O617 1.268 . S
C637 O621 1.284 . S
C637 O624 1.250 . S
C638 Gd571 2.828 . S
C638 O620 1.258 . S
C638 O625 1.252 . S
C638 C639 1.497 . S
C639 C638 1.497 . S
C639 C640 1.395 . S
C639 C641 1.380 . S
C640 C639 1.395 . S
C640 C643 1.398 . S
C640 H650 0.930 . S
C641 C639 1.380 . S
C641 C642 1.391 . S
C641 H651 0.930 . S
C642 C641 1.391 . S
C642 C644 1.387 . S
C643 C640 1.398 . S
C643 C644 1.380 . S
C643 H652 0.930 . S
C644 C642 1.387 . S
C644 C643 1.380 . S
C644 H653 0.930 . S
C645 O622 1.254 . S
C645 O623 1.268 . S
H646 C631 0.930 . S
H647 C632 0.930 . S
H648 C634 0.930 . S
H649 C635 0.930 . S
H650 C640 0.930 . S
H651 C641 0.930 . S
H652 C643 0.930 . S
H653 C644 0.930 . S
Gd654 N685 2.661 . S
Gd654 N691 2.601 . S
Gd654 O698 2.545 . S
Gd654 O699 2.606 . S
Gd654 O701 2.429 . S
Gd654 O702 2.545 . S
Gd654 O703 2.412 . S
Gd654 O705 2.362 . S
Gd654 O706 2.324 . S
Gd654 C713 2.828 . S
Gd655 N664 2.661 . S
Gd655 N668 2.601 . S
Gd655 O699 2.362 . S
Gd655 O700 2.324 . S
Gd655 O704 2.545 . S
Gd655 O705 2.606 . S
Gd655 O707 2.429 . S
Gd655 O708 2.545 . S
Gd655 O709 2.412 . S
Gd655 C722 2.828 . S
C656 C659 1.417 . S
C656 C661 1.431 . S
C656 C662 1.412 1_565 S
C657 C660 1.437 . S
C657 C661 1.317 . S
C657 H676 0.929 . S
C658 C659 1.426 . S
C658 C660 1.413 . S
C658 N668 1.359 . S
C659 C656 1.417 . S
C659 C658 1.426 . S
C659 N664 1.350 . S
C660 C657 1.437 . S
C660 C658 1.413 . S
C660 C670 1.391 . S
C661 C656 1.431 . S
C661 C657 1.317 . S
C661 H672 0.930 . S
C662 C656 1.412 1_545 S
C662 C663 1.355 . S
C662 H674 0.930 . S
C663 C662 1.355 . S
C663 C665 1.402 1_545 S
C663 H675 0.930 . S
N664 Gd655 2.661 . S
N664 C659 1.350 . S
N664 C665 1.307 . S
C665 C663 1.402 1_565 S
C665 N664 1.307 . S
C665 H666 0.930 1_565 S
H666 C665 0.930 1_545 S
C667 N668 1.334 . S
C667 C669 1.394 . S
C667 H671 0.930 . S
N668 Gd655 2.601 . S
N668 C658 1.359 . S
N668 C667 1.334 . S
C669 C667 1.394 . S
C669 C670 1.359 . S
C669 H681 0.930 . S
C670 C660 1.391 . S
C670 C669 1.359 . S
C670 H682 0.929 . S
H671 C667 0.930 . S
H672 C661 0.930 . S
H673 C690 0.930 . S
H674 C662 0.930 . S
H675 C663 0.930 . S
H676 C657 0.929 . S
H677 C695 0.930 . S
H678 C686 0.930 . S
H679 C687 0.930 . S
H680 C711 0.929 . S
H681 C669 0.930 . S
H682 C670 0.929 . S
H683 C712 0.930 . S
H684 C693 0.930 . S
N685 Gd654 2.661 . S
N685 C689 1.350 . S
N685 C690 1.307 . S
C686 H678 0.930 . S
C686 C687 1.355 . S
C686 C688 1.412 . S
C687 H679 0.930 . S
C687 C686 1.355 . S
C687 C690 1.402 1_655 S
C688 C686 1.412 . S
C688 C689 1.417 1_655 S
C688 C712 1.431 . S
C689 N685 1.350 . S
C689 C688 1.417 1_455 S
C689 C692 1.426 . S
C690 H673 0.930 . S
C690 N685 1.307 . S
C690 C687 1.402 1_455 S
N691 Gd654 2.601 . S
N691 C692 1.359 . S
N691 C695 1.334 1_565 S
C692 C689 1.426 . S
C692 N691 1.359 . S
C692 C696 1.413 . S
C693 H684 0.930 . S
C693 C694 1.359 . S
C693 C695 1.394 . S
C694 C693 1.359 . S
C694 C696 1.391 1_545 S
C694 H697 0.929 . S
C695 H677 0.930 . S
C695 N691 1.334 1_545 S
C695 C693 1.394 . S
C696 C692 1.413 . S
C696 C694 1.391 1_565 S
C696 C711 1.437 1_455 S
H697 C694 0.929 . S
O698 Gd654 2.545 . S
O698 C713 1.258 . S
O699 Gd654 2.606 . S
O699 Gd655 2.362 . S
O699 C710 1.284 . S
O700 Gd655 2.324 . S
O700 C720 1.254 1_565 S
O701 Gd654 2.429 . S
O701 C720 1.268 1_565 S
O702 Gd654 2.545 . S
O702 C710 1.250 . S
O703 Gd654 2.412 . S
O703 C713 1.252 . S
O704 Gd655 2.545 . S
O704 C722 1.258 . S
O705 Gd654 2.362 . S
O705 Gd655 2.606 . S
O705 C721 1.284 . S
O706 Gd654 2.324 . S
O706 C729 1.254 . S
O707 Gd655 2.429 . S
O707 C729 1.268 . S
O708 Gd655 2.545 . S
O708 C721 1.250 . S
O709 Gd655 2.412 . S
O709 C722 1.252 . S
C710 O699 1.284 . S
C710 O702 1.250 . S
C711 H680 0.929 . S
C711 C696 1.437 1_655 S
C711 C712 1.317 . S
C712 H683 0.930 . S
C712 C688 1.431 . S
C712 C711 1.317 . S
C713 Gd654 2.828 . S
C713 O698 1.258 . S
C713 O703 1.252 . S
C713 C714 1.497 . S
C714 C713 1.497 . S
C714 C715 1.395 . S
C714 C716 1.380 . S
C715 C714 1.395 . S
C715 C718 1.398 . S
C715 H730 0.930 . S
C716 C714 1.380 . S
C716 C717 1.391 . S
C716 H731 0.930 . S
C717 C716 1.391 . S
C717 C719 1.387 . S
C718 C715 1.398 . S
C718 C719 1.380 . S
C718 H732 0.930 . S
C719 C717 1.387 . S
C719 C718 1.380 . S
C719 H733 0.930 . S
C720 O700 1.254 1_545 S
C720 O701 1.268 1_545 S
C721 O705 1.284 . S
C721 O708 1.250 . S
C722 Gd655 2.828 . S
C722 O704 1.258 . S
C722 O709 1.252 . S
C722 C723 1.497 . S
C723 C722 1.497 . S
C723 C724 1.395 . S
C723 C725 1.380 . S
C724 C723 1.395 . S
C724 C727 1.398 . S
C724 H734 0.930 . S
C725 C723 1.380 . S
C725 C726 1.391 . S
C725 H735 0.930 . S
C726 C725 1.391 . S
C726 C728 1.387 . S
C727 C724 1.398 . S
C727 C728 1.380 . S
C727 H736 0.930 . S
C728 C726 1.387 . S
C728 C727 1.380 . S
C728 H737 0.930 . S
C729 O706 1.254 . S
C729 O707 1.268 . S
H730 C715 0.930 . S
H731 C716 0.930 . S
H732 C718 0.930 . S
H733 C719 0.930 . S
H734 C724 0.930 . S
H735 C725 0.930 . S
H736 C727 0.930 . S
H737 C728 0.930 . S
Gd738 N769 2.661 . S
Gd738 N775 2.601 . S
Gd738 O782 2.545 . S
Gd738 O783 2.606 . S
Gd738 O785 2.429 . S
Gd738 O786 2.545 . S
Gd738 O787 2.412 . S
Gd738 O789 2.362 . S
Gd738 O790 2.324 . S
Gd738 C797 2.828 . S
Gd739 N748 2.661 . S
Gd739 N752 2.601 . S
Gd739 O783 2.362 . S
Gd739 O784 2.324 . S
Gd739 O788 2.545 . S
Gd739 O789 2.606 . S
Gd739 O791 2.429 . S
Gd739 O792 2.545 . S
Gd739 O793 2.412 . S
Gd739 C806 2.828 . S
C740 C743 1.417 . S
C740 C745 1.431 . S
C740 C746 1.412 . S
C741 C744 1.437 . S
C741 C745 1.317 . S
C741 H760 0.929 . S
C742 C743 1.426 . S
C742 C744 1.413 . S
C742 N752 1.359 . S
C743 C740 1.417 . S
C743 C742 1.426 . S
C743 N748 1.350 . S
C744 C741 1.437 . S
C744 C742 1.413 . S
C744 C754 1.391 . S
C745 C740 1.431 . S
C745 C741 1.317 . S
C745 H756 0.930 . S
C746 C740 1.412 . S
C746 C747 1.355 . S
C746 H758 0.930 . S
C747 C746 1.355 . S
C747 C749 1.402 . S
C747 H759 0.930 . S
N748 Gd739 2.661 . S
N748 C743 1.350 . S
N748 C749 1.307 . S
C749 C747 1.402 . S
C749 N748 1.307 . S
C749 H750 0.930 . S
H750 C749 0.930 . S
C751 N752 1.334 . S
C751 C753 1.394 . S
C751 H755 0.930 . S
N752 Gd739 2.601 . S
N752 C742 1.359 . S
N752 C751 1.334 . S
C753 C751 1.394 . S
C753 C754 1.359 . S
C753 H765 0.930 . S
C754 C744 1.391 . S
C754 C753 1.359 . S
C754 H766 0.929 . S
H755 C751 0.930 . S
H756 C745 0.930 . S
H757 C774 0.930 . S
H758 C746 0.930 . S
H759 C747 0.930 . S
H760 C741 0.929 . S
H761 C779 0.930 . S
H762 C770 0.930 . S
H763 C771 0.930 . S
H764 C795 0.929 . S
H765 C753 0.930 . S
H766 C754 0.929 . S
H767 C796 0.930 . S
H768 C777 0.930 . S
N769 Gd738 2.661 . S
N769 C773 1.350 . S
N769 C774 1.307 . S
C770 H762 0.930 . S
C770 C771 1.355 . S
C770 C772 1.412 . S
C771 H763 0.930 . S
C771 C770 1.355 . S
C771 C774 1.402 1_455 S
C772 C770 1.412 . S
C772 C773 1.417 1_455 S
C772 C796 1.431 . S
C773 N769 1.350 . S
C773 C772 1.417 1_655 S
C773 C776 1.426 . S
C774 H757 0.930 . S
C774 N769 1.307 . S
C774 C771 1.402 1_655 S
N775 Gd738 2.601 . S
N775 C776 1.359 . S
N775 C779 1.334 . S
C776 C773 1.426 . S
C776 N775 1.359 . S
C776 C780 1.413 . S
C777 H768 0.930 . S
C777 C778 1.359 . S
C777 C779 1.394 . S
C778 C777 1.359 . S
C778 C780 1.391 . S
C778 H781 0.929 . S
C779 H761 0.930 . S
C779 N775 1.334 . S
C779 C777 1.394 . S
C780 C776 1.413 . S
C780 C778 1.391 . S
C780 C795 1.437 1_655 S
H781 C778 0.929 . S
O782 Gd738 2.545 . S
O782 C797 1.258 . S
O783 Gd738 2.606 . S
O783 Gd739 2.362 . S
O783 C794 1.284 . S
O784 Gd739 2.324 . S
O784 C804 1.254 . S
O785 Gd738 2.429 . S
O785 C804 1.268 . S
O786 Gd738 2.545 . S
O786 C794 1.250 . S
O787 Gd738 2.412 . S
O787 C797 1.252 . S
O788 Gd739 2.545 . S
O788 C806 1.258 . S
O789 Gd738 2.362 . S
O789 Gd739 2.606 . S
O789 C805 1.284 . S
O790 Gd738 2.324 . S
O790 C813 1.254 . S
O791 Gd739 2.429 . S
O791 C813 1.268 . S
O792 Gd739 2.545 . S
O792 C805 1.250 . S
O793 Gd739 2.412 . S
O793 C806 1.252 . S
C794 O783 1.284 . S
C794 O786 1.250 . S
C795 H764 0.929 . S
C795 C780 1.437 1_455 S
C795 C796 1.317 . S
C796 H767 0.930 . S
C796 C772 1.431 . S
C796 C795 1.317 . S
C797 Gd738 2.828 . S
C797 O782 1.258 . S
C797 O787 1.252 . S
C797 C798 1.497 . S
C798 C797 1.497 . S
C798 C799 1.395 . S
C798 C800 1.380 . S
C799 C798 1.395 . S
C799 C802 1.398 . S
C799 H814 0.930 . S
C800 C798 1.380 . S
C800 C801 1.391 . S
C800 H815 0.930 . S
C801 C800 1.391 . S
C801 C803 1.387 . S
C802 C799 1.398 . S
C802 C803 1.380 . S
C802 H816 0.930 . S
C803 C801 1.387 . S
C803 C802 1.380 . S
C803 H817 0.930 . S
C804 O784 1.254 . S
C804 O785 1.268 . S
C805 O789 1.284 . S
C805 O792 1.250 . S
C806 Gd739 2.828 . S
C806 O788 1.258 . S
C806 O793 1.252 . S
C806 C807 1.497 . S
C807 C806 1.497 . S
C807 C808 1.395 . S
C807 C809 1.380 . S
C808 C807 1.395 . S
C808 C811 1.398 . S
C808 H818 0.930 . S
C809 C807 1.380 . S
C809 C810 1.391 . S
C809 H819 0.930 . S
C810 C809 1.391 . S
C810 C812 1.387 . S
C811 C808 1.398 . S
C811 C812 1.380 . S
C811 H820 0.930 . S
C812 C810 1.387 . S
C812 C811 1.380 . S
C812 H821 0.930 . S
C813 O790 1.254 . S
C813 O791 1.268 . S
H814 C799 0.930 . S
H815 C800 0.930 . S
H816 C802 0.930 . S
H817 C803 0.930 . S
H818 C808 0.930 . S
H819 C809 0.930 . S
H820 C811 0.930 . S
H821 C812 0.930 . S
Gd822 N853 2.661 . S
Gd822 N859 2.601 . S
Gd822 O866 2.545 . S
Gd822 O867 2.606 . S
Gd822 O869 2.429 . S
Gd822 O870 2.545 . S
Gd822 O871 2.412 . S
Gd822 O873 2.362 . S
Gd822 O874 2.324 . S
Gd822 C881 2.828 . S
Gd823 N832 2.661 . S
Gd823 N836 2.601 . S
Gd823 O867 2.362 . S
Gd823 O868 2.324 . S
Gd823 O872 2.545 . S
Gd823 O873 2.606 . S
Gd823 O875 2.429 . S
Gd823 O876 2.545 . S
Gd823 O877 2.412 . S
Gd823 C890 2.828 . S
C824 C827 1.417 . S
C824 C829 1.431 . S
C824 C830 1.412 . S
C825 C828 1.437 . S
C825 C829 1.317 . S
C825 H844 0.929 . S
C826 C827 1.426 . S
C826 C828 1.413 . S
C826 N836 1.359 . S
C827 C824 1.417 . S
C827 C826 1.426 . S
C827 N832 1.350 . S
C828 C825 1.437 . S
C828 C826 1.413 . S
C828 C838 1.391 . S
C829 C824 1.431 . S
C829 C825 1.317 . S
C829 H840 0.930 . S
C830 C824 1.412 . S
C830 C831 1.355 1_545 S
C830 H842 0.930 1_545 S
C831 C830 1.355 1_565 S
C831 C833 1.402 1_565 S
C831 H843 0.930 . S
N832 Gd823 2.661 . S
N832 C827 1.350 . S
N832 C833 1.307 . S
C833 C831 1.402 1_545 S
C833 N832 1.307 . S
C833 H834 0.930 1_545 S
H834 C833 0.930 1_565 S
C835 N836 1.334 . S
C835 C837 1.394 . S
C835 H839 0.930 . S
N836 Gd823 2.601 . S
N836 C826 1.359 . S
N836 C835 1.334 . S
C837 C835 1.394 . S
C837 C838 1.359 . S
C837 H849 0.930 . S
C838 C828 1.391 . S
C838 C837 1.359 . S
C838 H850 0.929 . S
H839 C835 0.930 . S
H840 C829 0.930 . S
H841 C858 0.930 . S
H842 C830 0.930 1_565 S
H843 C831 0.930 . S
H844 C825 0.929 . S
H845 C863 0.930 . S
H846 C854 0.930 . S
H847 C855 0.930 . S
H848 C879 0.929 . S
H849 C837 0.930 . S
H850 C838 0.929 . S
H851 C880 0.930 . S
H852 C861 0.930 . S
N853 Gd822 2.661 . S
N853 C857 1.350 . S
N853 C858 1.307 . S
C854 H846 0.930 . S
C854 C855 1.355 . S
C854 C856 1.412 . S
C855 H847 0.930 . S
C855 C854 1.355 . S
C855 C858 1.402 . S
C856 C854 1.412 . S
C856 C857 1.417 . S
C856 C880 1.431 . S
C857 N853 1.350 . S
C857 C856 1.417 . S
C857 C860 1.426 . S
C858 H841 0.930 . S
C858 N853 1.307 . S
C858 C855 1.402 . S
N859 Gd822 2.601 . S
N859 C860 1.359 . S
N859 C863 1.334 1_545 S
C860 C857 1.426 . S
C860 N859 1.359 . S
C860 C864 1.413 . S
C861 H852 0.930 . S
C861 C862 1.359 . S
C861 C863 1.394 . S
C862 C861 1.359 . S
C862 C864 1.391 1_565 S
C862 H865 0.929 . S
C863 H845 0.930 . S
C863 N859 1.334 1_565 S
C863 C861 1.394 . S
C864 C860 1.413 . S
C864 C862 1.391 1_545 S
C864 C879 1.437 . S
H865 C862 0.929 . S
O866 Gd822 2.545 . S
O866 C881 1.258 . S
O867 Gd822 2.606 . S
O867 Gd823 2.362 . S
O867 C878 1.284 . S
O868 Gd823 2.324 . S
O868 C888 1.254 . S
O869 Gd822 2.429 . S
O869 C888 1.268 . S
O870 Gd822 2.545 . S
O870 C878 1.250 . S
O871 Gd822 2.412 . S
O871 C881 1.252 . S
O872 Gd823 2.545 . S
O872 C890 1.258 . S
O873 Gd822 2.362 . S
O873 Gd823 2.606 . S
O873 C889 1.284 . S
O874 Gd822 2.324 . S
O874 C897 1.254 . S
O875 Gd823 2.429 . S
O875 C897 1.268 . S
O876 Gd823 2.545 . S
O876 C889 1.250 . S
O877 Gd823 2.412 . S
O877 C890 1.252 . S
C878 O867 1.284 . S
C878 O870 1.250 . S
C879 H848 0.929 . S
C879 C864 1.437 . S
C879 C880 1.317 . S
C880 H851 0.930 . S
C880 C856 1.431 . S
C880 C879 1.317 . S
C881 Gd822 2.828 . S
C881 O866 1.258 . S
C881 O871 1.252 . S
C881 C882 1.497 . S
C882 C881 1.497 . S
C882 C883 1.395 . S
C882 C884 1.380 . S
C883 C882 1.395 . S
C883 C886 1.398 . S
C883 H898 0.930 . S
C884 C882 1.380 . S
C884 C885 1.391 . S
C884 H899 0.930 . S
C885 C884 1.391 . S
C885 C887 1.387 . S
C886 C883 1.398 . S
C886 C887 1.380 . S
C886 H900 0.930 . S
C887 C885 1.387 . S
C887 C886 1.380 . S
C887 H901 0.930 . S
C888 O868 1.254 . S
C888 O869 1.268 . S
C889 O873 1.284 . S
C889 O876 1.250 . S
C890 Gd823 2.828 . S
C890 O872 1.258 . S
C890 O877 1.252 . S
C890 C891 1.497 . S
C891 C890 1.497 . S
C891 C892 1.395 . S
C891 C893 1.380 . S
C892 C891 1.395 . S
C892 C895 1.398 . S
C892 H902 0.930 . S
C893 C891 1.380 . S
C893 C894 1.391 . S
C893 H903 0.930 . S
C894 C893 1.391 . S
C894 C896 1.387 . S
C895 C892 1.398 . S
C895 C896 1.380 . S
C895 H904 0.930 . S
C896 C894 1.387 . S
C896 C895 1.380 . S
C896 H905 0.930 . S
C897 O874 1.254 . S
C897 O875 1.268 . S
H898 C883 0.930 . S
H899 C884 0.930 . S
H900 C886 0.930 . S
H901 C887 0.930 . S
H902 C892 0.930 . S
H903 C893 0.930 . S
H904 C895 0.930 . S
H905 C896 0.930 . S
Gd906 N937 2.661 . S
Gd906 N943 2.601 . S
Gd906 O950 2.545 . S
Gd906 O951 2.606 . S
Gd906 O953 2.429 . S
Gd906 O954 2.545 . S
Gd906 O955 2.412 . S
Gd906 O957 2.362 . S
Gd906 O958 2.324 . S
Gd906 C965 2.828 . S
Gd907 N916 2.661 1_655 S
Gd907 N920 2.601 . S
Gd907 O951 2.362 . S
Gd907 O952 2.324 . S
Gd907 O956 2.545 . S
Gd907 O957 2.606 . S
Gd907 O959 2.429 . S
Gd907 O960 2.545 . S
Gd907 O961 2.412 . S
Gd907 C974 2.828 . S
C908 C911 1.417 . S
C908 C913 1.431 . S
C908 C914 1.412 . S
C909 C912 1.437 . S
C909 C913 1.317 . S
C909 H928 0.929 . S
C910 C911 1.426 . S
C910 C912 1.413 . S
C910 N920 1.359 1_455 S
C911 C908 1.417 . S
C911 C910 1.426 . S
C911 N916 1.350 . S
C912 C909 1.437 . S
C912 C910 1.413 . S
C912 C922 1.391 . S
C913 C908 1.431 . S
C913 C909 1.317 . S
C913 H924 0.930 . S
C914 C908 1.412 . S
C914 C915 1.355 . S
C914 H926 0.930 . S
C915 C914 1.355 . S
C915 C917 1.402 . S
C915 H927 0.930 . S
N916 Gd907 2.661 1_455 S
N916 C911 1.350 . S
N916 C917 1.307 . S
C917 C915 1.402 . S
C917 N916 1.307 . S
C917 H918 0.930 . S
H918 C917 0.930 . S
C919 N920 1.334 . S
C919 C921 1.394 . S
C919 H923 0.930 . S
N920 Gd907 2.601 . S
N920 C910 1.359 1_655 S
N920 C919 1.334 . S
C921 C919 1.394 . S
C921 C922 1.359 1_655 S
C921 H933 0.930 . S
C922 C912 1.391 . S
C922 C921 1.359 1_455 S
C922 H934 0.929 . S
H923 C919 0.930 . S
H924 C913 0.930 . S
H925 C942 0.930 . S
H926 C914 0.930 . S
H927 C915 0.930 . S
H928 C909 0.929 . S
H929 C947 0.930 . S
H930 C938 0.930 . S
H931 C939 0.930 . S
H932 C963 0.929 . S
H933 C921 0.930 . S
H934 C922 0.929 . S
H935 C964 0.930 . S
H936 C945 0.930 . S
N937 Gd906 2.661 . S
N937 C941 1.350 . S
N937 C942 1.307 . S
C938 H930 0.930 . S
C938 C939 1.355 . S
C938 C940 1.412 . S
C939 H931 0.930 . S
C939 C938 1.355 . S
C939 C942 1.402 . S
C940 C938 1.412 . S
C940 C941 1.417 . S
C940 C964 1.431 . S
C941 N937 1.350 . S
C941 C940 1.417 . S
C941 C944 1.426 . S
C942 H925 0.930 . S
C942 N937 1.307 . S
C942 C939 1.402 . S
N943 Gd906 2.601 . S
N943 C944 1.359 . S
N943 C947 1.334 . S
C944 C941 1.426 . S
C944 N943 1.359 . S
C944 C948 1.413 . S
C945 H936 0.930 . S
C945 C946 1.359 . S
C945 C947 1.394 . S
C946 C945 1.359 . S
C946 C948 1.391 . S
C946 H949 0.929 . S
C947 H929 0.930 . S
C947 N943 1.334 . S
C947 C945 1.394 . S
C948 C944 1.413 . S
C948 C946 1.391 . S
C948 C963 1.437 . S
H949 C946 0.929 . S
O950 Gd906 2.545 . S
O950 C965 1.258 . S
O951 Gd906 2.606 . S
O951 Gd907 2.362 . S
O951 C962 1.284 . S
O952 Gd907 2.324 . S
O952 C972 1.254 . S
O953 Gd906 2.429 . S
O953 C972 1.268 . S
O954 Gd906 2.545 . S
O954 C962 1.250 . S
O955 Gd906 2.412 . S
O955 C965 1.252 . S
O956 Gd907 2.545 . S
O956 C974 1.258 . S
O957 Gd906 2.362 . S
O957 Gd907 2.606 . S
O957 C973 1.284 . S
O958 Gd906 2.324 . S
O958 C981 1.254 . S
O959 Gd907 2.429 . S
O959 C981 1.268 . S
O960 Gd907 2.545 . S
O960 C973 1.250 . S
O961 Gd907 2.412 . S
O961 C974 1.252 . S
C962 O951 1.284 . S
C962 O954 1.250 . S
C963 H932 0.929 . S
C963 C948 1.437 . S
C963 C964 1.317 . S
C964 H935 0.930 . S
C964 C940 1.431 . S
C964 C963 1.317 . S
C965 Gd906 2.828 . S
C965 O950 1.258 . S
C965 O955 1.252 . S
C965 C966 1.497 . S
C966 C965 1.497 . S
C966 C967 1.395 . S
C966 C968 1.380 . S
C967 C966 1.395 . S
C967 C970 1.398 . S
C967 H982 0.930 . S
C968 C966 1.380 . S
C968 C969 1.391 . S
C968 H983 0.930 . S
C969 C968 1.391 . S
C969 C971 1.387 . S
C970 C967 1.398 . S
C970 C971 1.380 . S
C970 H984 0.930 . S
C971 C969 1.387 . S
C971 C970 1.380 . S
C971 H985 0.930 . S
C972 O952 1.254 . S
C972 O953 1.268 . S
C973 O957 1.284 . S
C973 O960 1.250 . S
C974 Gd907 2.828 . S
C974 O956 1.258 . S
C974 O961 1.252 . S
C974 C975 1.497 . S
C975 C974 1.497 . S
C975 C976 1.395 . S
C975 C977 1.380 . S
C976 C975 1.395 . S
C976 C979 1.398 . S
C976 H986 0.930 . S
C977 C975 1.380 . S
C977 C978 1.391 . S
C977 H987 0.930 . S
C978 C977 1.391 . S
C978 C980 1.387 . S
C979 C976 1.398 . S
C979 C980 1.380 . S
C979 H988 0.930 . S
C980 C978 1.387 . S
C980 C979 1.380 . S
C980 H989 0.930 . S
C981 O958 1.254 . S
C981 O959 1.268 . S
H982 C967 0.930 . S
H983 C968 0.930 . S
H984 C970 0.930 . S
H985 C971 0.930 . S
H986 C976 0.930 . S
H987 C977 0.930 . S
H988 C979 0.930 . S
H989 C980 0.930 . S
C177 C290 1.455 . S
C190 C374 1.535 . S
C164 C468 1.592 . S
C151 C384 1.628 . S
C458 C125 1.476 . S
C138 C300 1.556 . S
C301 C147 1.406 . S
C385 C121 1.421 . S
C134 C477 1.432 . S
C173 C393 1.391 . S
C186 C469 1.351 . S
C309 C160 1.379 . S
C542 C21 1.456 1_455 S
C34 C626 1.535 . S
C8 C720 1.591 . S
C229 C636 1.628 . S
C203 C710 1.476 . S
C216 C552 1.556 . S
C225 C553 1.405 . S
C199 C637 1.421 . S
C729 C212 1.432 . S
C17 C645 1.391 . S
C721 C30 1.351 . S
C4 C561 1.380 . S
C794 C99 1.455 . S
C112 C878 1.536 . S
C972 C86 1.591 . S
C888 C73 1.629 1_545 S
C962 C47 1.476 1_655 S
C60 C804 1.556 . S
C69 C805 1.405 . S
C43 C889 1.421 . S
C981 C56 1.433 . S
C95 C897 1.391 . S
C108 C973 1.351 . S
C82 C813 1.379 . S
C204 C297 1.707 . S
C381 C217 1.666 . S
C230 C474 1.440 . S
C87 C390 1.370 . S
C100 C465 1.615 . S
C306 C113 1.438 . S
C48 C549 1.708 . S
C61 C633 1.666 . S
C74 C726 1.439 . S
C165 C642 1.370 . S
C717 C178 1.615 . S
C191 C558 1.438 . S
C126 C801 1.707 . S
C139 C885 1.667 . S
C978 C152 1.439 . S
C9 C894 1.370 . S
C22 C969 1.615 . S
C35 C810 1.438 . S
