# Generated by pormake.
# Topology anh, (6,3)-cn, num edge types: 1
# Building blocks:
#     Node 0, Type 0, BuildingBlock: BETFEN_clean_sbu_0, # of connection points: 6
#     Node 1, Type 0, BuildingBlock: BETFEN_clean_sbu_0, # of connection points: 6
#     Node 2, Type 0, BuildingBlock: BETFEN_clean_sbu_0, # of connection points: 6
#     Node 3, Type 1, BuildingBlock: CUQRIR_clean_linker_1, # of connection points: 3
#     Node 4, Type 1, BuildingBlock: CUQRIR_clean_linker_1, # of connection points: 3
#     Node 5, Type 1, BuildingBlock: CUQRIR_clean_linker_1, # of connection points: 3
#     Node 6, Type 1, BuildingBlock: CUQRIR_clean_linker_1, # of connection points: 3
#     Node 7, Type 1, BuildingBlock: CUQRIR_clean_linker_1, # of connection points: 3
#     Node 8, Type 1, BuildingBlock: CUQRIR_clean_linker_1, # of connection points: 3
#     Edge 9, Type (0, 1), BuildingBlock: EZIPEK_clean_linker_0, # of connection points: 2
#     Edge 10, Type (0, 1), BuildingBlock: EZIPEK_clean_linker_0, # of connection points: 2
#     Edge 11, Type (0, 1), BuildingBlock: EZIPEK_clean_linker_0, # of connection points: 2
#     Edge 12, Type (0, 1), BuildingBlock: EZIPEK_clean_linker_0, # of connection points: 2
#     Edge 13, Type (0, 1), BuildingBlock: EZIPEK_clean_linker_0, # of connection points: 2
#     Edge 14, Type (0, 1), BuildingBlock: EZIPEK_clean_linker_0, # of connection points: 2
#     Edge 15, Type (0, 1), BuildingBlock: EZIPEK_clean_linker_0, # of connection points: 2
#     Edge 16, Type (0, 1), BuildingBlock: EZIPEK_clean_linker_0, # of connection points: 2
#     Edge 17, Type (0, 1), BuildingBlock: EZIPEK_clean_linker_0, # of connection points: 2
#     Edge 18, Type (0, 1), BuildingBlock: EZIPEK_clean_linker_0, # of connection points: 2
#     Edge 19, Type (0, 1), BuildingBlock: EZIPEK_clean_linker_0, # of connection points: 2
#     Edge 20, Type (0, 1), BuildingBlock: EZIPEK_clean_linker_0, # of connection points: 2
#     Edge 21, Type (0, 1), BuildingBlock: EZIPEK_clean_linker_0, # of connection points: 2
#     Edge 22, Type (0, 1), BuildingBlock: EZIPEK_clean_linker_0, # of connection points: 2
#     Edge 23, Type (0, 1), BuildingBlock: EZIPEK_clean_linker_0, # of connection points: 2
#     Edge 24, Type (0, 1), BuildingBlock: EZIPEK_clean_linker_0, # of connection points: 2
#     Edge 25, Type (0, 1), BuildingBlock: EZIPEK_clean_linker_0, # of connection points: 2
#     Edge 26, Type (0, 1), BuildingBlock: EZIPEK_clean_linker_0, # of connection points: 2
# Relax obj value: 0.273
# Max RMSD: 0.229
# Mean RMSD: 0.173
data_MOF--net-anh--node1-BETFEN_clean_sbu_0--node2-CUQRIR_clean_linker_1--edge1-EZIPEK_clean_linker_0
_symmetry_space_group_name_H-M    P1
_symmetry_Int_Tables_number       1
_symmetry_cell_setting            triclinic
loop_
_symmetry_equiv_pos_as_xyz
'x, y, z'
_cell_length_a     19.69888
_cell_length_b     21.372368
_cell_length_c     33.726122
_cell_angle_alpha  85.635087
_cell_angle_beta   90.748969
_cell_angle_gamma 98.741295
loop_
_atom_site_label
_atom_site_type_symbol
_atom_site_fract_x
_atom_site_fract_y
_atom_site_fract_z
_atom_type_partial_charge
Pr0 Pr 1.03943 0.52354 0.13308 0.0
Pr1 Pr 0.0654 0.66487 0.13161 0.0
C2 C 1.0148 0.39935 0.15623 0.0
C3 C 0.96242 0.35742 0.17975 0.0
C4 C 0.9433 0.2952 0.16906 0.0
C5 C 0.88586 0.25749 0.18631 0.0
C6 C 0.84711 0.28164 0.21448 0.0
C7 C 0.86801 0.34292 0.22667 0.0
C8 C 0.92528 0.38098 0.20909 0.0
C9 C 0.08339 0.56505 0.05494 0.0
C10 C 0.90164 0.5965 0.11959 0.0
C11 C 0.08825 0.79216 0.12418 0.0
C12 C 0.15091 0.83632 0.13183 0.0
C13 C 0.14797 0.88579 0.15645 0.0
C14 C 0.20846 0.92172 0.16902 0.0
C15 C 0.27242 0.9087 0.15692 0.0
C16 C 0.27545 0.86087 0.13111 0.0
C17 C 0.21511 0.82454 0.11887 0.0
C18 C 0.06391 0.60374 0.20794 0.0
C19 C 0.2024 0.59428 0.13684 0.0
O20 O 0.05697 0.44013 0.17528 0.0
O21 O 0.99252 0.42346 0.12263 0.0
O22 O 0.07706 0.60089 0.08225 0.0
O23 O 0.06209 0.50671 0.06714 0.0
O24 O 0.94619 0.64962 0.11496 0.0
O25 O 0.92368 0.54194 0.12947 0.0
O26 O 0.09024 0.75754 0.09403 0.0
O27 O 0.05967 0.75997 0.15569 0.0
O28 O 1.01959 0.5894 0.18121 0.0
O29 O 0.11117 0.64936 0.19507 0.0
O30 O 0.15829 0.54383 0.14944 0.0
O31 O 0.17917 0.64644 0.1227 0.0
H32 H 0.97099 0.27682 0.14609 0.0
H33 H 0.87001 0.2103 0.17657 0.0
H34 H 0.83824 0.36208 0.2483 0.0
H35 H 0.93888 0.42942 0.21716 0.0
H36 H 0.09908 0.89498 0.16716 0.0
H37 H 0.20555 0.95855 0.18904 0.0
H38 H 0.32455 0.85026 0.12164 0.0
H39 H 0.21894 0.78588 0.10044 0.0
Pr40 Pr 0.67236 0.1216 0.52415 0.0
Pr41 Pr 0.52759 0.10453 0.51901 0.0
C42 C 0.80549 0.15954 0.50454 0.0
C43 C 0.84705 0.21816 0.48678 0.0
C44 C 0.90776 0.24405 0.50552 0.0
C45 C 0.9469 0.30006 0.48927 0.0
C46 C 0.92614 0.3307 0.45384 0.0
C47 C 0.86614 0.30432 0.43466 0.0
C48 C 0.82669 0.24873 0.45107 0.0
C49 C 0.61395 0.11331 0.59916 0.0
C50 C 0.59564 0.26274 0.52353 0.0
C51 C 0.3918 1.06353 0.52431 0.0
C52 C 0.34984 1.0055 0.51182 0.0
C53 C 0.36606 0.97918 0.47684 0.0
C54 C 0.32911 0.92191 0.46632 0.0
C55 C 0.27586 0.88996 0.4907 0.0
C56 C 0.26012 0.91552 0.52596 0.0
C57 C 0.29702 0.97312 0.53647 0.0
C58 C 0.58932 0.12457 0.44417 0.0
C59 C 0.60357 0.96203 0.52953 0.0
O60 O 0.76039 0.12967 0.4812 0.0
O61 O 0.78252 0.16051 0.54064 0.0
O62 O 0.59483 0.14462 0.56907 0.0
O63 O 0.66469 1.0835 0.5912 0.0
O64 O 0.53799 0.22002 0.52719 0.0
O65 O 0.65316 0.23657 0.51853 0.0
O66 O 0.43444 1.05469 0.55335 0.0
O67 O 0.41918 0.10424 0.49592 0.0
O68 O 0.60458 1.08682 0.47226 0.0
O69 O 0.53945 0.15294 0.45459 0.0
O70 O 0.66212 1.00373 0.52838 0.0
O71 O 0.54597 0.98948 0.52775 0.0
H72 H 0.92448 0.22132 0.53298 0.0
H73 H 0.99277 0.32015 0.50465 0.0
H74 H 0.84906 0.32768 0.40752 0.0
H75 H 0.77991 0.23015 0.43596 0.0
H76 H 0.40774 1.00252 0.45784 0.0
H77 H 0.342 0.90244 0.43913 0.0
H78 H 0.21939 0.89094 0.54517 0.0
H79 H 0.28489 0.99205 0.56397 0.0
Pr80 Pr 0.57646 0.57803 0.81503 0.0
Pr81 Pr 0.58985 0.7059 0.82961 0.0
C82 C 0.61571 0.47417 0.79303 0.0
C83 C 0.67028 0.45051 0.81708 0.0
C84 C 0.67944 0.46728 0.85657 0.0
C85 C 0.71244 0.42991 0.88387 0.0
C86 C 0.72661 0.37162 0.87232 0.0
C87 C 0.7401 0.36887 0.83132 0.0
C88 C 0.7098 0.40792 0.80338 0.0
C89 C 0.5783 0.59423 0.89719 0.0
C90 C 0.73772 0.65544 0.8244 0.0
C91 C 0.56438 0.81285 0.85767 0.0
C92 C 0.5077 0.84243 0.84103 0.0
C93 C 0.47439 0.81624 0.80779 0.0
C94 C 0.42957 0.8485 0.78535 0.0
C95 C 0.42143 0.90932 0.79434 0.0
C96 C 0.44725 0.93178 0.83086 0.0
C97 C 0.49105 0.89848 0.85408 0.0
C98 C 0.59182 0.69445 0.7474 0.0
C99 C 0.42843 0.61987 0.82551 0.0
O100 O 0.63455 0.52833 0.77257 0.0
O101 O 0.55756 0.47153 0.81213 0.0
O102 O 0.61825 0.62601 0.87172 0.0
O103 O 0.53916 0.54944 0.88027 0.0
O104 O 0.70972 0.70486 0.83324 0.0
O105 O 0.69689 0.60373 0.81613 0.0
O106 O 0.54531 0.75766 0.87672 0.0
O107 O 0.61369 0.81232 0.83218 0.0
O108 O 0.55077 0.65941 0.77139 0.0
O109 O 0.62873 0.73945 0.76516 0.0
O110 O 0.45683 0.5758 0.80942 0.0
O111 O 0.46857 0.67035 0.83754 0.0
H112 H 0.6549 0.50456 0.86731 0.0
H113 H 0.71089 0.43866 0.91499 0.0
H114 H 0.76055 0.32902 0.82064 0.0
H115 H 0.71111 0.40045 0.77206 0.0
H116 H 0.48857 0.77387 0.79675 0.0
H117 H 0.40997 0.83035 0.75768 0.0
H118 H 0.44126 0.97881 0.83865 0.0
H119 H 0.51612 0.91898 0.87988 0.0
C120 C 0.56338 1.08261 0.21678 0.0
N121 N 0.59946 0.11026 0.24688 0.0
N122 N 0.5043 1.04773 0.23057 0.0
C123 C 0.58561 1.08961 0.174 0.0
C124 C 0.50616 1.05392 0.27017 0.0
N125 N 0.56459 1.09112 0.2803 0.0
C126 C 0.45089 1.0236 0.29885 0.0
H127 H 0.5652 0.13062 0.15865 0.0
H128 H 0.565 1.0465 0.15875 0.0
H129 H 0.64246 0.09847 0.17173 0.0
H130 H 0.46087 0.97516 0.30884 0.0
H131 H 0.39977 1.01931 0.28423 0.0
H132 H 0.45054 1.05129 0.32535 0.0
C133 C 0.60005 0.61413 0.52285 0.0
N134 N 0.60202 0.66539 0.54752 0.0
N135 N 0.59825 0.55332 0.54344 0.0
C136 C 0.59922 0.62305 0.47847 0.0
C137 C 0.59943 0.57102 0.58146 0.0
N138 N 0.602 0.6353 0.58393 0.0
C139 C 0.59701 0.52442 0.61763 0.0
H140 H 0.54588 0.60951 0.46782 0.0
H141 H 0.63149 0.59145 0.46562 0.0
H142 H 0.61745 0.67328 0.46817 0.0
H143 H 0.63622 0.54135 0.63975 0.0
H144 H 0.60602 0.47671 0.61037 0.0
H145 H 0.54601 0.52037 0.632 0.0
C146 C 0.08385 0.62502 0.82868 0.0
N147 N 0.13397 0.61322 0.85558 0.0
N148 N 1.02116 0.61832 0.84646 0.0
C149 C 0.09579 0.64449 0.78533 0.0
C150 C 1.03417 0.60037 0.88459 0.0
N151 N 0.10192 0.59821 0.89062 0.0
C152 C 0.98034 0.58865 0.91684 0.0
H153 H 0.10269 0.69702 0.78087 0.0
H154 H 0.05054 0.62556 0.76756 0.0
H155 H 0.14233 0.62769 0.77453 0.0
H156 H 0.92907 0.5712 0.90447 0.0
H157 H 0.97741 0.63388 0.9304 0.0
H158 H 0.99339 0.55351 0.94053 0.0
C159 C 0.11076 0.61006 0.4381 0.0
N160 N 0.08253 0.57459 0.4088 0.0
N161 N 0.14169 0.6674 0.42279 0.0
C162 C 0.10577 0.5892 0.48171 0.0
C163 C 0.13138 0.66581 0.38313 0.0
N164 N 0.09475 0.60967 0.37443 0.0
C165 C 0.15572 0.71975 0.35298 0.0
H166 H 0.13217 0.62603 0.50037 0.0
H167 H 0.12871 0.54502 0.4873 0.0
H168 H 0.05098 0.57799 0.49056 0.0
H169 H 0.19957 0.75216 0.36463 0.0
H170 H 0.11289 0.74702 0.34594 0.0
H171 H 0.17112 0.70152 0.32504 0.0
C172 C 0.5147 0.15973 0.81332 0.0
N173 N 0.50789 0.14185 0.7758 0.0
N174 N 0.5558 0.21602 0.81394 0.0
C175 C 0.49044 0.11795 0.84985 0.0
C176 C 0.57131 0.23274 0.77516 0.0
N177 N 0.54512 0.18613 0.75192 0.0
C178 C 0.61171 0.29473 0.76021 0.0
H179 H 0.43582 0.09706 0.84656 0.0
H180 H 0.4962 0.14481 0.87688 0.0
H181 H 0.52112 1.07843 0.85353 0.0
H182 H 0.66643 0.2945 0.76793 0.0
H183 H 0.59315 0.33345 0.77507 0.0
H184 H 0.60661 0.30319 0.72751 0.0
C185 C 0.55578 0.59491 0.12983 0.0
N186 N 0.60359 0.59692 0.10035 0.0
N187 N 0.49383 0.60655 0.11469 0.0
C188 C 0.56903 0.5805 0.17315 0.0
C189 C 0.50573 0.61637 0.07533 0.0
N190 N 0.57064 0.60849 0.06624 0.0
C191 C 0.45178 0.63089 0.04526 0.0
H192 H 0.60931 0.54947 0.17726 0.0
H193 H 0.52113 0.5576 0.18849 0.0
H194 H 0.58726 0.62563 0.18684 0.0
H195 H 0.41806 0.66183 0.05749 0.0
H196 H 0.4191 0.58596 0.03844 0.0
H197 H 0.47545 0.65471 0.01732 0.0
C198 C 0.32528 0.6467 0.1504 0.0
C199 C 0.27941 0.59288 0.13863 0.0
C200 C 0.38102 0.54052 0.12823 0.0
C201 C 0.42544 0.59823 0.13229 0.0
N202 N 0.44012 0.70788 0.14544 0.0
N203 N 0.26711 0.48925 0.11213 0.0
C204 C 0.39754 0.6516 0.1433 0.0
C205 C 0.30817 0.53941 0.12709 0.0
N206 N 0.30041 0.69211 0.16986 0.0
N207 N 0.40914 0.48674 0.12453 0.0
H208 H 0.21419 0.48601 0.10927 0.0
H209 H 0.28623 0.45307 0.0989 0.0
H210 H 0.46213 0.48696 0.12523 0.0
H211 H 0.3804 0.44156 0.12512 0.0
H212 H 0.33216 0.72901 0.18228 0.0
H213 H 0.24893 0.68879 0.17773 0.0
H214 H 0.42249 0.75082 0.1485 0.0
H215 H 0.49319 0.71163 0.14183 0.0
C216 C 1.0318 0.39696 0.42335 0.0
C217 C 0.96447 0.3931 0.4386 0.0
C218 C 0.97233 0.50883 0.42813 0.0
C219 C 1.04116 0.51289 0.41536 0.0
N220 N 0.14238 0.46286 0.41448 0.0
N221 N 0.87606 0.44624 0.4634 0.0
C222 C 0.07262 0.45746 0.41638 0.0
C223 C 0.93566 0.44922 0.44262 0.0
N224 N 0.05688 0.34295 0.41571 0.0
N225 N 0.94333 0.5628 0.42857 0.0
H226 H 0.84869 0.40394 0.47594 0.0
H227 H 0.85734 0.48629 0.47158 0.0
H228 H 0.97207 0.60787 0.42498 0.0
H229 H 0.89078 0.56282 0.43162 0.0
H230 H 0.1034 0.34355 0.40122 0.0
H231 H 1.02833 0.29778 0.42063 0.0
H232 H 0.16887 0.42421 0.4186 0.0
H233 H 0.17395 0.50665 0.41411 0.0
C234 C 0.37135 1.00144 0.76851 0.0
C235 C 0.41418 0.95672 0.76106 0.0
C236 C 0.5124 1.03692 0.75133 0.0
C237 C 0.47381 1.08157 0.76485 0.0
N238 N 0.36287 0.1126 0.77454 0.0
N239 N 0.51006 0.93971 0.72104 0.0
C240 C 0.40132 1.06618 0.76877 0.0
C241 C 0.47747 0.97826 0.74187 0.0
N242 N 0.30571 0.98005 0.78063 0.0
N243 N 0.58227 1.04775 0.75074 0.0
H244 H 0.48675 0.89498 0.71357 0.0
H245 H 0.48675 0.89498 0.71357 0.0
H246 H 0.6102 1.08637 0.76354 0.0
H247 H 0.61128 1.0149 0.74096 0.0
H248 H 0.27274 1.00894 0.7909 0.0
H249 H 0.28585 0.93176 0.78107 0.0
H250 H 0.30943 0.10479 0.77541 0.0
H251 H 0.38501 0.15992 0.7761 0.0
C252 C 0.79116 0.64341 0.13179 0.0
C253 C 0.82467 0.59784 0.11394 0.0
C254 C 0.71009 0.54689 0.092 0.0
C255 C 0.67813 0.59678 0.10516 0.0
N256 N 0.69237 0.69926 0.13176 0.0
N257 N 0.81441 0.51443 0.06874 0.0
C258 C 0.72004 0.64698 0.12337 0.0
C259 C 0.78356 0.55192 0.09168 0.0
N260 N 0.82581 0.68129 0.15859 0.0
N261 N 0.67016 0.49274 0.08187 0.0
H262 H 0.86757 0.51853 0.06588 0.0
H263 H 0.7872 0.48445 0.04913 0.0
H264 H 0.61719 0.48595 0.08549 0.0
H265 H 0.68998 0.45229 0.07515 0.0
H266 H 0.80212 0.71051 0.17556 0.0
H267 H 0.87636 0.67862 0.1671 0.0
H268 H 0.72158 0.74025 0.14124 0.0
H269 H 0.64137 0.70402 0.1254 0.0
C270 C 0.26554 0.77346 0.48316 0.0
C271 C 0.2362 0.8301 0.47841 0.0
C272 C 0.13685 0.7737 0.44505 0.0
C273 C 0.1718 0.72077 0.44392 0.0
N274 N 0.27153 0.67087 0.4586 0.0
N275 N 0.14539 0.88629 0.45313 0.0
C276 C 0.23654 0.72052 0.46241 0.0
C277 C 0.17182 0.83078 0.45917 0.0
N278 N 0.3199 0.76979 0.50828 0.0
N279 N 0.06979 0.76857 0.43329 0.0
H280 H 0.16894 0.92888 0.46371 0.0
H281 H 0.10248 0.89109 0.43546 0.0
H282 H 1.043 0.72671 0.42336 0.0
H283 H 1.03914 0.8034 0.43679 0.0
H284 H 0.3365 0.72689 0.51723 0.0
H285 H 0.34325 0.8082 0.52343 0.0
H286 H 0.32215 0.67099 0.46802 0.0
H287 H 0.25152 0.63158 0.44325 0.0
C288 C 0.70518 0.25541 0.88196 0.0
C289 C 0.68786 0.31286 0.89327 0.0
C290 C 0.57112 0.28451 0.86987 0.0
C291 C 0.59482 0.23914 0.84747 0.0
N292 N 0.67831 0.16685 0.84259 0.0
N293 N 0.59476 0.3476 0.92676 0.0
C294 C 0.65888 0.21866 0.85745 0.0
C295 C 0.61681 0.31485 0.89765 0.0
N296 N 0.76938 0.24157 0.88957 0.0
N297 N 0.5072 0.30017 0.86336 0.0
H298 H 0.54296 0.34888 0.93198 0.0
H299 H 0.629 0.36786 0.94778 0.0
H300 H 0.47304 0.27729 0.84325 0.0
H301 H 0.49008 0.3375 0.87652 0.0
H302 H 0.78587 0.20109 0.87995 0.0
H303 H 0.80435 0.27105 0.90608 0.0
H304 H 0.64691 0.13712 0.82454 0.0
H305 H 0.64691 0.13712 0.82454 0.0
C306 C 0.55175 0.83856 0.51413 0.0
C307 C 0.60281 0.88397 0.53284 0.0
C308 C 0.65934 0.7845 0.5523 0.0
C309 C 0.60383 0.73859 0.53921 0.0
N310 N 0.49325 0.72844 0.50823 0.0
N311 N 0.69965 0.888 0.5777 0.0
C312 C 0.54916 0.76807 0.52032 0.0
C313 C 0.65477 0.85293 0.55392 0.0
N314 N 0.50658 0.86257 0.48835 0.0
N315 N 0.72028 0.76372 0.56049 0.0
H316 H 0.6971 0.93532 0.58196 0.0
H317 H 0.73382 0.86798 0.59682 0.0
H318 H 0.7275 0.71804 0.55458 0.0
H319 H 0.76519 0.79379 0.5669 0.0
H320 H 0.47273 0.83502 0.4704 0.0
H321 H 0.50779 0.91108 0.48168 0.0
H322 H 0.44939 0.74389 0.49624 0.0
H323 H 0.48954 0.6792 0.5124 0.0
C324 C 0.86175 0.69311 0.84886 0.0
C325 C 0.81508 0.65438 0.82459 0.0
C326 C 0.90999 0.59495 0.81081 0.0
C327 C 0.95643 0.63665 0.8322 0.0
N328 N 0.98086 0.73572 0.86197 0.0
N329 N 0.80699 0.58272 0.7712 0.0
C330 C 0.93357 0.68968 0.84742 0.0
C331 C 0.84283 0.6096 0.80212 0.0
N332 N 0.83847 0.72899 0.87605 0.0
N333 N 0.9291 0.54001 0.79987 0.0
H334 H 0.76138 0.59631 0.76043 0.0
H335 H 0.82736 0.55336 0.7527 0.0
H336 H 0.97825 0.52872 0.80534 0.0
H337 H 0.89459 0.50399 0.78829 0.0
H338 H 0.87059 0.75256 0.89674 0.0
H339 H 0.78704 0.72941 0.88187 0.0
H340 H 0.96844 0.77848 0.87046 0.0
H341 H 1.03341 0.73346 0.86148 0.0
C342 C 0.35421 1.00938 0.16211 0.0
C343 C 0.33627 0.9436 0.17284 0.0
C344 C 0.43927 0.94565 0.21416 0.0
C345 C 0.4507 1.0125 0.20845 0.0
N346 N 0.41417 0.10958 0.18174 0.0
N347 N 0.35549 0.85058 0.21436 0.0
C348 C 0.40716 1.04494 0.18344 0.0
C349 C 0.3774 0.91178 0.20009 0.0
N350 N 0.32138 1.03753 0.13127 0.0
N351 N 0.4879 0.91489 0.23292 0.0
H352 H 0.30849 0.8252 0.20639 0.0
H353 H 0.38065 0.82721 0.23699 0.0
H354 H 0.53403 0.9392 0.24311 0.0
H355 H 0.48534 0.8657 0.23485 0.0
H356 H 0.33694 1.08408 0.1198 0.0
H357 H 0.28271 1.01249 0.11471 0.0
H358 H 0.37956 0.1356 0.16702 0.0
H359 H 0.45115 0.13676 0.19815 0.0
C360 C 0.64738 0.38979 0.50867 0.0
C361 C 0.59542 0.33987 0.52621 0.0
C362 C 0.53815 0.43484 0.54489 0.0
C363 C 0.59424 0.48356 0.53223 0.0
N364 N 0.70992 0.49886 0.50868 0.0
N365 N 0.49814 0.32551 0.57081 0.0
C366 C 0.65062 0.4581 0.51597 0.0
C367 C 0.54256 0.36591 0.54658 0.0
N368 N 0.69306 0.37335 0.48282 0.0
N369 N 0.47888 0.45448 0.55575 0.0
H370 H 0.50222 0.27776 0.57671 0.0
H371 H 0.46326 0.34097 0.58937 0.0
H372 H 0.47408 0.50254 0.55507 0.0
H373 H 0.43323 0.42354 0.56126 0.0
H374 H 0.72635 0.40694 0.46563 0.0
H375 H 0.69183 0.3271 0.47485 0.0
H376 H 0.7557 0.48335 0.5021 0.0
H377 H 0.71423 0.54711 0.51311 0.0
C378 C 0.30897 0.55879 0.8467 0.0
C379 C 0.35078 0.61482 0.83034 0.0
C380 C 0.24965 0.67066 0.83258 0.0
C381 C 0.20734 0.61413 0.84731 0.0
N382 N 0.19349 0.50068 0.84701 0.0
N383 N 0.34691 0.71233 0.79072 0.0
C384 C 0.236 0.55686 0.84864 0.0
C385 C 0.31742 0.66787 0.8188 0.0
N386 N 0.33786 0.5074 0.86073 0.0
N387 N 0.2252 0.72713 0.83058 0.0
H388 H 0.39249 0.70767 0.77665 0.0
H389 H 0.32063 0.74724 0.7774 0.0
H390 H 0.17506 0.73086 0.8383 0.0
H391 H 0.25648 0.77038 0.82345 0.0
H392 H 0.30923 0.46765 0.8756 0.0
H393 H 0.39065 0.50687 0.86064 0.0
H394 H 0.21159 0.45765 0.84499 0.0
H395 H 0.14092 0.49925 0.84186 0.0
C396 C 0.71876 0.2581 0.21215 0.0
C397 C 0.78177 0.24353 0.22844 0.0
C398 C 0.72429 0.14077 0.25638 0.0
C399 C 0.66057 0.15685 0.24279 0.0
N400 N 0.59478 0.23406 0.21238 0.0
N401 N 0.8426 0.17823 0.27315 0.0
C402 C 0.6571 0.21686 0.22237 0.0
C403 C 0.78372 0.1873 0.25316 0.0
N404 N 0.71824 0.30903 0.18503 0.0
N405 N 0.72895 1.07954 0.2692 0.0
H406 H 0.88709 0.2118 0.27129 0.0
H407 H 0.84512 0.14053 0.29433 0.0
H408 H 0.68725 1.04347 0.268 0.0
H409 H 0.77526 1.06347 0.27632 0.0
H410 H 0.67511 0.31741 0.16848 0.0
H411 H 0.76219 0.34069 0.17667 0.0
H412 H 0.58834 0.27979 0.20169 0.0
H413 H 0.54872 0.20373 0.21748 0.0
C414 C 0.13947 0.53713 -0.00611 0.0
C415 C 0.11295 0.58399 0.01417 0.0
C416 C 0.12698 0.6519 0.95187 0.0
C417 C 0.13084 0.59804 0.93033 0.0
N418 N 0.12562 0.48445 0.93349 0.0
N419 N 0.07799 0.68855 0.00949 0.0
C420 C 0.13518 0.53948 0.95198 0.0
C421 C 0.10755 0.64315 -0.00723 0.0
N422 N 0.16654 0.48926 0.01437 0.0
N423 N 0.1348 0.71044 0.93208 0.0
H424 H 0.05871 0.68346 0.0382 0.0
H425 H 0.0665 0.72922 -0.00658 0.0
H426 H 0.14543 0.71652 0.90179 0.0
H427 H 0.13722 0.75233 0.94631 0.0
H428 H 0.18938 0.45613 0.00012 0.0
H429 H 0.17378 0.48797 0.04504 0.0
H430 H 0.12302 0.43996 0.94893 0.0
H431 H 0.11073 0.48317 0.90393 0.0
C432 C 0.62552 1.06796 0.38622 0.0
C433 C 0.60792 0.12335 0.40148 0.0
C434 C 0.5784 0.1635 0.3346 0.0
C435 C 0.58638 0.10458 0.32022 0.0
N436 N 0.61123 0.99787 0.33258 0.0
N437 N 0.59975 0.2339 0.38798 0.0
C438 C 0.60933 1.0563 0.34597 0.0
C439 C 0.59478 0.17451 0.3748 0.0
N440 N 0.66069 1.02841 0.4093 0.0
N441 N 0.54855 0.20629 0.31096 0.0
H442 H 0.61542 0.24327 0.41691 0.0
H443 H 0.59645 0.27448 0.36933 0.0
H444 H 0.53054 0.19675 0.28261 0.0
H445 H 0.53499 0.24771 0.32078 0.0
H446 H 0.67925 0.98969 0.3988 0.0
H447 H 0.68029 1.03946 0.43714 0.0
H448 H 0.61925 0.95834 0.35103 0.0
H449 H 0.59932 0.98746 0.30339 0.0
C450 C 0.53711 0.68873 0.67891 0.0
C451 C 0.5961 0.68755 0.70354 0.0
C452 C 0.66301 0.66824 0.64542 0.0
C453 C 0.60251 0.66391 0.62175 0.0
N454 N 0.4812 0.66422 0.61601 0.0
N455 N 0.7179 0.6847 0.7096 0.0
C456 C 0.53958 0.67363 0.63842 0.0
C457 C 0.66016 0.68089 0.68636 0.0
N458 N 0.47965 0.70707 0.69383 0.0
N459 N 0.72192 0.6548 0.62916 0.0
H460 H 0.71776 0.69055 0.73991 0.0
H461 H 0.76714 0.68336 0.69945 0.0
H462 H 0.72351 0.63959 0.60062 0.0
H463 H 0.76882 0.65565 0.64365 0.0
H464 H 0.43709 0.71507 0.67667 0.0
H465 H 0.47694 0.72014 0.72286 0.0
H466 H 0.43199 0.66284 0.62722 0.0
H467 H 0.48184 0.65375 0.58633 0.0
C468 C 0.65115 0.16551 0.66191 0.0
C469 C 0.5993 0.1311 0.63927 0.0
C470 C 0.51313 0.15568 0.6844 0.0
C471 C 0.56492 0.17735 0.71158 0.0
N472 N 0.68667 0.18795 0.72831 0.0
N473 N 0.48238 1.07944 0.63569 0.0
C474 C 0.63523 0.1791 0.7009 0.0
C475 C 0.53041 0.12247 0.65226 0.0
N476 N 0.71499 0.18631 0.64639 0.0
N477 N 0.44747 0.16603 0.68973 0.0
H478 H 0.49633 1.04884 0.61566 0.0
H479 H 0.43204 1.06839 0.64612 0.0
H480 H 0.43495 0.19304 0.7123 0.0
H481 H 0.40827 0.15365 0.6694 0.0
H482 H 0.75191 0.21683 0.66088 0.0
H483 H 0.72864 0.17869 0.61761 0.0
H484 H 0.73749 0.18416 0.72198 0.0
H485 H 0.67799 0.19047 0.75837 0.0
C486 C 0.53484 0.55704 0.96623 0.0
C487 C 0.58161 0.59988 0.94163 0.0
C488 C 0.6307 0.64611 0.00288 0.0
C489 C 0.58988 0.59739 0.02635 0.0
N490 N 0.5143 0.49748 0.02951 0.0
N491 N 0.67785 0.68694 0.93894 0.0
C492 C 0.54819 0.5485 0.00738 0.0
C493 C 0.63154 0.64426 0.96057 0.0
N494 N 0.47254 0.53087 0.95187 0.0
N495 N 0.66375 0.69741 0.02073 0.0
H496 H 0.67229 0.70009 0.90903 0.0
H497 H 0.72199 0.71091 0.95153 0.0
H498 H 0.66281 0.70038 0.05138 0.0
H499 H 0.68747 0.73871 0.00511 0.0
H500 H 0.43528 0.50244 0.96961 0.0
H501 H 0.45267 0.54678 0.92483 0.0
H502 H 0.48786 0.45793 0.01669 0.0
H503 H 0.51638 0.49327 0.06043 0.0
C504 C 1.01004 0.61694 0.27354 0.0
C505 C 0.05489 0.58671 0.25146 0.0
C506 C 0.11868 0.56285 0.31228 0.0
C507 C 0.07443 0.59287 0.33468 0.0
N508 N 0.97679 0.64717 0.33771 0.0
N509 N 0.13921 0.51653 0.25112 0.0
C510 C 1.01873 0.61827 0.31564 0.0
C511 C 0.10445 0.55435 0.2715 0.0
N512 N 0.9627 0.64841 0.25383 0.0
N513 N 0.1787 0.54899 0.32882 0.0
H514 H 0.13023 0.51036 0.22113 0.0
H515 H 0.17126 0.48672 0.26473 0.0
H516 H 0.19411 0.56111 0.3572 0.0
H517 H 0.21672 0.53267 0.31304 0.0
H518 H 0.93339 0.67769 0.26698 0.0
H519 H 0.95368 0.64662 0.22341 0.0
H520 H 0.93059 0.66048 0.3276 0.0
H521 H 0.98808 0.65695 0.36698 0.0
loop_
_geom_bond_atom_site_label_1
_geom_bond_atom_site_label_2
_geom_bond_distance
_geom_bond_site_symmetry_2
_ccdc_geom_bond_type
Pr0 C2 2.880 . S
Pr0 O20 2.562 . S
Pr0 O21 2.490 . S
Pr0 O22 2.695 1_655 S
Pr0 O23 2.512 . S
Pr0 O25 2.437 . S
Pr0 O28 2.436 . S
Pr0 O30 2.438 1_655 S
Pr1 C11 2.880 . S
Pr1 O22 2.436 . S
Pr1 O24 2.438 1_455 S
Pr1 O26 2.562 . S
Pr1 O27 2.490 . S
Pr1 O28 2.695 1_455 S
Pr1 O29 2.512 . S
Pr1 O31 2.437 . S
C2 Pr0 2.880 . S
C2 C3 1.491 . S
C2 O20 1.254 . S
C2 O21 1.225 . S
C3 C2 1.491 . S
C3 C4 1.392 . S
C3 C8 1.356 . S
C4 C3 1.392 . S
C4 C5 1.368 . S
C4 H32 0.929 . S
C5 C4 1.368 . S
C5 C6 1.386 . S
C5 H33 0.929 . S
C6 C5 1.386 . S
C6 C7 1.373 . S
C7 C6 1.373 . S
C7 C8 1.409 . S
C7 H34 0.931 . S
C8 C3 1.356 . S
C8 C7 1.409 . S
C8 H35 0.930 . S
C9 O22 1.270 . S
C9 O23 1.248 1_455 S
C10 O24 1.267 . S
C10 O25 1.278 . S
C11 Pr1 2.880 . S
C11 C12 1.491 . S
C11 O26 1.254 . S
C11 O27 1.225 . S
C12 C11 1.491 . S
C12 C13 1.392 . S
C12 C17 1.356 . S
C13 C12 1.392 . S
C13 C14 1.368 . S
C13 H36 0.929 . S
C14 C13 1.368 . S
C14 C15 1.386 . S
C14 H37 0.929 . S
C15 C14 1.386 . S
C15 C16 1.373 . S
C16 C15 1.373 . S
C16 C17 1.409 . S
C16 H38 0.931 . S
C17 C12 1.356 . S
C17 C16 1.409 . S
C17 H39 0.930 . S
C18 O28 1.270 1_455 S
C18 O29 1.248 . S
C19 O30 1.267 . S
C19 O31 1.278 . S
O20 Pr0 2.562 . S
O20 C2 1.254 . S
O21 Pr0 2.490 . S
O21 C2 1.225 . S
O22 Pr0 2.695 1_455 S
O22 Pr1 2.436 . S
O22 C9 1.270 . S
O23 Pr0 2.512 . S
O23 C9 1.248 1_655 S
O24 Pr1 2.438 1_655 S
O24 C10 1.267 . S
O25 Pr0 2.437 . S
O25 C10 1.278 . S
O26 Pr1 2.562 . S
O26 C11 1.254 . S
O27 Pr1 2.490 . S
O27 C11 1.225 . S
O28 Pr0 2.436 . S
O28 Pr1 2.695 1_655 S
O28 C18 1.270 1_655 S
O29 Pr1 2.512 . S
O29 C18 1.248 . S
O30 Pr0 2.438 1_455 S
O30 C19 1.267 . S
O31 Pr1 2.437 . S
O31 C19 1.278 . S
H32 C4 0.929 . S
H33 C5 0.929 . S
H34 C7 0.931 . S
H35 C8 0.930 . S
H36 C13 0.929 . S
H37 C14 0.929 . S
H38 C16 0.931 . S
H39 C17 0.930 . S
Pr40 C42 2.880 . S
Pr40 O60 2.562 . S
Pr40 O61 2.490 . S
Pr40 O62 2.695 1_545 S
Pr40 O63 2.512 . S
Pr40 O65 2.437 . S
Pr40 O68 2.436 . S
Pr40 O70 2.438 1_545 S
Pr41 C51 2.880 . S
Pr41 O62 2.436 . S
Pr41 O64 2.438 1_565 S
Pr41 O66 2.562 . S
Pr41 O67 2.490 . S
Pr41 O68 2.695 1_565 S
Pr41 O69 2.512 . S
Pr41 O71 2.437 . S
C42 Pr40 2.880 . S
C42 C43 1.491 . S
C42 O60 1.254 . S
C42 O61 1.225 . S
C43 C42 1.491 . S
C43 C44 1.392 . S
C43 C48 1.356 . S
C44 C43 1.392 . S
C44 C45 1.368 . S
C44 H72 0.929 . S
C45 C44 1.368 . S
C45 C46 1.386 . S
C45 H73 0.929 . S
C46 C45 1.386 . S
C46 C47 1.373 . S
C47 C46 1.373 . S
C47 C48 1.409 . S
C47 H74 0.931 . S
C48 C43 1.356 . S
C48 C47 1.409 . S
C48 H75 0.930 . S
C49 O62 1.270 1_545 S
C49 O63 1.248 . S
C50 O64 1.267 . S
C50 O65 1.278 . S
C51 Pr41 2.880 . S
C51 C52 1.491 . S
C51 O66 1.254 . S
C51 O67 1.225 . S
C52 C51 1.491 . S
C52 C53 1.392 . S
C52 C57 1.356 . S
C53 C52 1.392 . S
C53 C54 1.368 . S
C53 H76 0.929 . S
C54 C53 1.368 . S
C54 C55 1.386 . S
C54 H77 0.929 . S
C55 C54 1.386 . S
C55 C56 1.373 . S
C56 C55 1.373 . S
C56 C57 1.409 . S
C56 H78 0.931 . S
C57 C52 1.356 . S
C57 C56 1.409 . S
C57 H79 0.930 . S
C58 O68 1.270 . S
C58 O69 1.248 1_545 S
C59 O70 1.267 . S
C59 O71 1.278 . S
O60 Pr40 2.562 . S
O60 C42 1.254 . S
O61 Pr40 2.490 . S
O61 C42 1.225 . S
O62 Pr40 2.695 1_565 S
O62 Pr41 2.436 . S
O62 C49 1.270 1_565 S
O63 Pr40 2.512 . S
O63 C49 1.248 . S
O64 Pr41 2.438 1_545 S
O64 C50 1.267 . S
O65 Pr40 2.437 . S
O65 C50 1.278 . S
O66 Pr41 2.562 . S
O66 C51 1.254 . S
O67 Pr41 2.490 . S
O67 C51 1.225 . S
O68 Pr40 2.436 . S
O68 Pr41 2.695 1_545 S
O68 C58 1.270 . S
O69 Pr41 2.512 . S
O69 C58 1.248 1_565 S
O70 Pr40 2.438 1_565 S
O70 C59 1.267 . S
O71 Pr41 2.437 . S
O71 C59 1.278 . S
H72 C44 0.929 . S
H73 C45 0.929 . S
H74 C47 0.931 . S
H75 C48 0.930 . S
H76 C53 0.929 . S
H77 C54 0.929 . S
H78 C56 0.931 . S
H79 C57 0.930 . S
Pr80 C82 2.880 . S
Pr80 O100 2.562 . S
Pr80 O101 2.490 . S
Pr80 O102 2.695 . S
Pr80 O103 2.512 . S
Pr80 O105 2.437 . S
Pr80 O108 2.436 . S
Pr80 O110 2.438 . S
Pr81 C91 2.880 . S
Pr81 O102 2.436 . S
Pr81 O104 2.438 . S
Pr81 O106 2.562 . S
Pr81 O107 2.490 . S
Pr81 O108 2.695 . S
Pr81 O109 2.512 . S
Pr81 O111 2.437 . S
C82 Pr80 2.880 . S
C82 C83 1.491 . S
C82 O100 1.254 . S
C82 O101 1.225 . S
C83 C82 1.491 . S
C83 C84 1.392 . S
C83 C88 1.356 . S
C84 C83 1.392 . S
C84 C85 1.368 . S
C84 H112 0.929 . S
C85 C84 1.368 . S
C85 C86 1.386 . S
C85 H113 0.929 . S
C86 C85 1.386 . S
C86 C87 1.373 . S
C87 C86 1.373 . S
C87 C88 1.409 . S
C87 H114 0.931 . S
C88 C83 1.356 . S
C88 C87 1.409 . S
C88 H115 0.930 . S
C89 O102 1.270 . S
C89 O103 1.248 . S
C90 O104 1.267 . S
C90 O105 1.278 . S
C91 Pr81 2.880 . S
C91 C92 1.491 . S
C91 O106 1.254 . S
C91 O107 1.225 . S
C92 C91 1.491 . S
C92 C93 1.392 . S
C92 C97 1.356 . S
C93 C92 1.392 . S
C93 C94 1.368 . S
C93 H116 0.929 . S
C94 C93 1.368 . S
C94 C95 1.386 . S
C94 H117 0.929 . S
C95 C94 1.386 . S
C95 C96 1.373 . S
C96 C95 1.373 . S
C96 C97 1.409 . S
C96 H118 0.931 . S
C97 C92 1.356 . S
C97 C96 1.409 . S
C97 H119 0.930 . S
C98 O108 1.270 . S
C98 O109 1.248 . S
C99 O110 1.267 . S
C99 O111 1.278 . S
O100 Pr80 2.562 . S
O100 C82 1.254 . S
O101 Pr80 2.490 . S
O101 C82 1.225 . S
O102 Pr80 2.695 . S
O102 Pr81 2.436 . S
O102 C89 1.270 . S
O103 Pr80 2.512 . S
O103 C89 1.248 . S
O104 Pr81 2.438 . S
O104 C90 1.267 . S
O105 Pr80 2.437 . S
O105 C90 1.278 . S
O106 Pr81 2.562 . S
O106 C91 1.254 . S
O107 Pr81 2.490 . S
O107 C91 1.225 . S
O108 Pr80 2.436 . S
O108 Pr81 2.695 . S
O108 C98 1.270 . S
O109 Pr81 2.512 . S
O109 C98 1.248 . S
O110 Pr80 2.438 . S
O110 C99 1.267 . S
O111 Pr81 2.437 . S
O111 C99 1.278 . S
H112 C84 0.929 . S
H113 C85 0.929 . S
H114 C87 0.931 . S
H115 C88 0.930 . S
H116 C93 0.929 . S
H117 C94 0.929 . S
H118 C96 0.931 . S
H119 C97 0.930 . S
C120 N121 1.317 . S
C120 N122 1.348 1_545 S
C120 C123 1.485 . S
N121 C120 1.317 . S
N121 N125 1.370 . S
N122 C120 1.348 1_565 S
N122 C124 1.346 . S
C123 C120 1.485 . S
C123 H127 0.960 . S
C123 H128 0.961 1_545 S
C123 H129 0.960 . S
C124 N122 1.346 . S
C124 N125 1.307 1_565 S
C124 C126 1.486 . S
N125 N121 1.370 . S
N125 C124 1.307 1_545 S
C126 C124 1.486 . S
C126 H130 0.960 . S
C126 H131 0.960 . S
C126 H132 0.959 . S
H127 C123 0.960 . S
H128 C123 0.961 1_565 S
H129 C123 0.960 . S
H130 C126 0.960 . S
H131 C126 0.960 . S
H132 C126 0.959 . S
C133 N134 1.317 . S
C133 N135 1.348 . S
C133 C136 1.485 . S
N134 C133 1.317 . S
N134 N138 1.370 . S
N135 C133 1.348 . S
N135 C137 1.346 . S
C136 C133 1.485 . S
C136 H140 0.960 . S
C136 H141 0.961 . S
C136 H142 0.960 . S
C137 N135 1.346 . S
C137 N138 1.307 . S
C137 C139 1.486 . S
N138 N134 1.370 . S
N138 C137 1.307 . S
C139 C137 1.486 . S
C139 H143 0.960 . S
C139 H144 0.960 . S
C139 H145 0.959 . S
H140 C136 0.960 . S
H141 C136 0.961 . S
H142 C136 0.960 . S
H143 C139 0.960 . S
H144 C139 0.960 . S
H145 C139 0.959 . S
C146 N147 1.317 . S
C146 N148 1.348 1_455 S
C146 C149 1.485 . S
N147 C146 1.317 . S
N147 N151 1.370 . S
N148 C146 1.348 1_655 S
N148 C150 1.346 . S
C149 C146 1.485 . S
C149 H153 0.960 . S
C149 H154 0.961 . S
C149 H155 0.960 . S
C150 N148 1.346 . S
C150 N151 1.307 1_655 S
C150 C152 1.486 . S
N151 N147 1.370 . S
N151 C150 1.307 1_455 S
C152 C150 1.486 . S
C152 H156 0.960 . S
C152 H157 0.960 . S
C152 H158 0.959 . S
H153 C149 0.960 . S
H154 C149 0.961 . S
H155 C149 0.960 . S
H156 C152 0.960 . S
H157 C152 0.960 . S
H158 C152 0.959 . S
C159 N160 1.317 . S
C159 N161 1.348 . S
C159 C162 1.485 . S
N160 C159 1.317 . S
N160 N164 1.370 . S
N161 C159 1.348 . S
N161 C163 1.346 . S
C162 C159 1.485 . S
C162 H166 0.960 . S
C162 H167 0.961 . S
C162 H168 0.960 . S
C163 N161 1.346 . S
C163 N164 1.307 . S
C163 C165 1.486 . S
N164 N160 1.370 . S
N164 C163 1.307 . S
C165 C163 1.486 . S
C165 H169 0.960 . S
C165 H170 0.960 . S
C165 H171 0.959 . S
H166 C162 0.960 . S
H167 C162 0.961 . S
H168 C162 0.960 . S
H169 C165 0.960 . S
H170 C165 0.960 . S
H171 C165 0.959 . S
C172 N173 1.331 . S
C172 N174 1.348 . S
C172 C175 1.485 . S
N173 C172 1.331 . S
N173 N177 1.378 . S
N174 C172 1.348 . S
N174 C176 1.346 . S
C175 C172 1.485 . S
C175 H179 0.960 . S
C175 H180 0.961 . S
C175 H181 0.960 1_545 S
C176 N174 1.346 . S
C176 N177 1.307 . S
C176 C178 1.486 . S
N177 N173 1.378 . S
N177 C176 1.307 . S
C178 C176 1.486 . S
C178 H182 0.960 . S
C178 H183 0.960 . S
C178 H184 0.959 . S
H179 C175 0.960 . S
H180 C175 0.961 . S
H181 C175 0.960 1_565 S
H182 C178 0.960 . S
H183 C178 0.960 . S
H184 C178 0.959 . S
C185 N186 1.317 . S
C185 N187 1.348 . S
C185 C188 1.485 . S
N186 C185 1.317 . S
N186 N190 1.370 . S
N187 C185 1.348 . S
N187 C189 1.346 . S
C188 C185 1.485 . S
C188 H192 0.960 . S
C188 H193 0.961 . S
C188 H194 0.960 . S
C189 N187 1.346 . S
C189 N190 1.307 . S
C189 C191 1.486 . S
N190 N186 1.370 . S
N190 C189 1.307 . S
C191 C189 1.486 . S
C191 H195 0.960 . S
C191 H196 0.960 . S
C191 H197 0.959 . S
H192 C188 0.960 . S
H193 C188 0.961 . S
H194 C188 0.960 . S
H195 C191 0.960 . S
H196 C191 0.960 . S
H197 C191 0.959 . S
C198 C199 1.363 . S
C198 C204 1.379 . S
C198 N206 1.356 . S
C199 C198 1.363 . S
C199 C205 1.363 . S
C200 C201 1.363 . S
C200 C205 1.379 . S
C200 N207 1.356 . S
C201 C200 1.363 . S
C201 C204 1.363 . S
N202 C204 1.356 . S
N202 H214 0.984 . S
N202 H215 0.985 . S
N203 C205 1.356 . S
N203 H208 0.984 . S
N203 H209 0.985 . S
C204 C198 1.379 . S
C204 C201 1.363 . S
C204 N202 1.356 . S
C205 C199 1.363 . S
C205 C200 1.379 . S
C205 N203 1.356 . S
N206 C198 1.356 . S
N206 H212 0.984 . S
N206 H213 0.984 . S
N207 C200 1.356 . S
N207 H210 0.984 . S
N207 H211 0.985 . S
H208 N203 0.984 . S
H209 N203 0.985 . S
H210 N207 0.984 . S
H211 N207 0.985 . S
H212 N206 0.984 . S
H213 N206 0.984 . S
H214 N202 0.984 . S
H215 N202 0.985 . S
C216 C217 1.363 1_455 S
C216 C222 1.379 . S
C216 N224 1.356 . S
C217 C216 1.363 1_655 S
C217 C223 1.363 . S
C218 C219 1.363 . S
C218 C223 1.379 . S
C218 N225 1.356 . S
C219 C218 1.363 . S
C219 C222 1.363 1_655 S
N220 C222 1.356 . S
N220 H232 0.984 . S
N220 H233 0.985 . S
N221 C223 1.356 . S
N221 H226 0.984 . S
N221 H227 0.985 . S
C222 C216 1.379 . S
C222 C219 1.363 1_455 S
C222 N220 1.356 . S
C223 C217 1.363 . S
C223 C218 1.379 . S
C223 N221 1.356 . S
N224 C216 1.356 . S
N224 H230 0.984 . S
N224 H231 0.984 . S
N225 C218 1.356 . S
N225 H228 0.984 . S
N225 H229 0.985 . S
H226 N221 0.984 . S
H227 N221 0.985 . S
H228 N225 0.984 . S
H229 N225 0.985 . S
H230 N224 0.984 . S
H231 N224 0.984 . S
H232 N220 0.984 . S
H233 N220 0.985 . S
C234 C235 1.363 . S
C234 C240 1.379 . S
C234 N242 1.356 . S
C235 C234 1.363 . S
C235 C241 1.363 . S
C236 C237 1.363 . S
C236 C241 1.379 . S
C236 N243 1.356 . S
C237 C236 1.363 . S
C237 C240 1.363 . S
N238 C240 1.356 1_545 S
N238 H250 0.984 . S
N238 H251 0.985 . S
N239 C241 1.356 . S
N239 H244 0.984 . S
N239 H245 0.985 . S
C240 C234 1.379 . S
C240 C237 1.363 . S
C240 N238 1.356 1_565 S
C241 C235 1.363 . S
C241 C236 1.379 . S
C241 N239 1.356 . S
N242 C234 1.356 . S
N242 H248 0.984 . S
N242 H249 0.984 . S
N243 C236 1.356 . S
N243 H246 0.984 . S
N243 H247 0.985 . S
H244 N239 0.984 . S
H245 N239 0.985 . S
H246 N243 0.984 . S
H247 N243 0.985 . S
H248 N242 0.984 . S
H249 N242 0.984 . S
H250 N238 0.984 . S
H251 N238 0.985 . S
C252 C253 1.363 . S
C252 C258 1.379 . S
C252 N260 1.356 . S
C253 C252 1.363 . S
C253 C259 1.363 . S
C254 C255 1.363 . S
C254 C259 1.379 . S
C254 N261 1.356 . S
C255 C254 1.363 . S
C255 C258 1.363 . S
N256 C258 1.356 . S
N256 H268 0.984 . S
N256 H269 0.985 . S
N257 C259 1.356 . S
N257 H262 0.984 . S
N257 H263 0.985 . S
C258 C252 1.379 . S
C258 C255 1.363 . S
C258 N256 1.356 . S
C259 C253 1.363 . S
C259 C254 1.379 . S
C259 N257 1.356 . S
N260 C252 1.356 . S
N260 H266 0.984 . S
N260 H267 0.984 . S
N261 C254 1.356 . S
N261 H264 0.984 . S
N261 H265 0.985 . S
H262 N257 0.984 . S
H263 N257 0.985 . S
H264 N261 0.984 . S
H265 N261 0.985 . S
H266 N260 0.984 . S
H267 N260 0.984 . S
H268 N256 0.984 . S
H269 N256 0.985 . S
C270 C271 1.363 . S
C270 C276 1.379 . S
C270 N278 1.356 . S
C271 C270 1.363 . S
C271 C277 1.363 . S
C272 C273 1.363 . S
C272 C277 1.379 . S
C272 N279 1.356 . S
C273 C272 1.363 . S
C273 C276 1.363 . S
N274 C276 1.356 . S
N274 H286 0.984 . S
N274 H287 0.985 . S
N275 C277 1.356 . S
N275 H280 0.984 . S
N275 H281 0.985 . S
C276 C270 1.379 . S
C276 C273 1.363 . S
C276 N274 1.356 . S
C277 C271 1.363 . S
C277 C272 1.379 . S
C277 N275 1.356 . S
N278 C270 1.356 . S
N278 H284 0.984 . S
N278 H285 0.984 . S
N279 C272 1.356 . S
N279 H282 0.984 . S
N279 H283 0.985 . S
H280 N275 0.984 . S
H281 N275 0.985 . S
H282 N279 0.984 . S
H283 N279 0.985 . S
H284 N278 0.984 . S
H285 N278 0.984 . S
H286 N274 0.984 . S
H287 N274 0.985 . S
C288 C289 1.363 . S
C288 C294 1.379 . S
C288 N296 1.356 . S
C289 C288 1.363 . S
C289 C295 1.363 . S
C290 C291 1.363 . S
C290 C295 1.379 . S
C290 N297 1.356 . S
C291 C290 1.363 . S
C291 C294 1.363 . S
N292 C294 1.356 . S
N292 H304 0.984 . S
N292 H305 0.985 . S
N293 C295 1.356 . S
N293 H298 0.984 . S
N293 H299 0.985 . S
C294 C288 1.379 . S
C294 C291 1.363 . S
C294 N292 1.356 . S
C295 C289 1.363 . S
C295 C290 1.379 . S
C295 N293 1.356 . S
N296 C288 1.356 . S
N296 H302 0.984 . S
N296 H303 0.984 . S
N297 C290 1.356 . S
N297 H300 0.984 . S
N297 H301 0.985 . S
H298 N293 0.984 . S
H299 N293 0.985 . S
H300 N297 0.984 . S
H301 N297 0.985 . S
H302 N296 0.984 . S
H303 N296 0.984 . S
H304 N292 0.984 . S
H305 N292 0.985 . S
C306 C307 1.363 . S
C306 C312 1.379 . S
C306 N314 1.356 . S
C307 C306 1.363 . S
C307 C313 1.363 . S
C308 C309 1.363 . S
C308 C313 1.379 . S
C308 N315 1.356 . S
C309 C308 1.363 . S
C309 C312 1.363 . S
N310 C312 1.356 . S
N310 H322 0.984 . S
N310 H323 0.985 . S
N311 C313 1.356 . S
N311 H316 0.984 . S
N311 H317 0.985 . S
C312 C306 1.379 . S
C312 C309 1.363 . S
C312 N310 1.356 . S
C313 C307 1.363 . S
C313 C308 1.379 . S
C313 N311 1.356 . S
N314 C306 1.356 . S
N314 H320 0.984 . S
N314 H321 0.984 . S
N315 C308 1.356 . S
N315 H318 0.984 . S
N315 H319 0.985 . S
H316 N311 0.984 . S
H317 N311 0.985 . S
H318 N315 0.984 . S
H319 N315 0.985 . S
H320 N314 0.984 . S
H321 N314 0.984 . S
H322 N310 0.984 . S
H323 N310 0.985 . S
C324 C325 1.363 . S
C324 C330 1.379 . S
C324 N332 1.356 . S
C325 C324 1.363 . S
C325 C331 1.363 . S
C326 C327 1.363 . S
C326 C331 1.379 . S
C326 N333 1.356 . S
C327 C326 1.363 . S
C327 C330 1.363 . S
N328 C330 1.356 . S
N328 H340 0.984 . S
N328 H341 0.985 . S
N329 C331 1.356 . S
N329 H334 0.984 . S
N329 H335 0.985 . S
C330 C324 1.379 . S
C330 C327 1.363 . S
C330 N328 1.356 . S
C331 C325 1.363 . S
C331 C326 1.379 . S
C331 N329 1.356 . S
N332 C324 1.356 . S
N332 H338 0.984 . S
N332 H339 0.984 . S
N333 C326 1.356 . S
N333 H336 0.984 . S
N333 H337 0.985 . S
H334 N329 0.984 . S
H335 N329 0.985 . S
H336 N333 0.984 . S
H337 N333 0.985 . S
H338 N332 0.984 . S
H339 N332 0.984 . S
H340 N328 0.984 . S
H341 N328 0.985 . S
C342 C343 1.363 . S
C342 C348 1.379 . S
C342 N350 1.356 . S
C343 C342 1.363 . S
C343 C349 1.363 . S
C344 C345 1.363 . S
C344 C349 1.379 . S
C344 N351 1.356 . S
C345 C344 1.363 . S
C345 C348 1.363 . S
N346 C348 1.356 . S
N346 H358 0.984 1_565 S
N346 H359 0.985 1_565 S
N347 C349 1.356 . S
N347 H352 0.984 . S
N347 H353 0.985 . S
C348 C342 1.379 . S
C348 C345 1.363 . S
C348 N346 1.356 . S
C349 C343 1.363 . S
C349 C344 1.379 . S
C349 N347 1.356 . S
N350 C342 1.356 . S
N350 H356 0.984 . S
N350 H357 0.984 . S
N351 C344 1.356 . S
N351 H354 0.984 . S
N351 H355 0.985 . S
H352 N347 0.984 . S
H353 N347 0.985 . S
H354 N351 0.984 . S
H355 N351 0.985 . S
H356 N350 0.984 . S
H357 N350 0.984 . S
H358 N346 0.984 1_545 S
H359 N346 0.985 1_545 S
C360 C361 1.363 . S
C360 C366 1.379 . S
C360 N368 1.356 . S
C361 C360 1.363 . S
C361 C367 1.363 . S
C362 C363 1.363 . S
C362 C367 1.379 . S
C362 N369 1.356 . S
C363 C362 1.363 . S
C363 C366 1.363 . S
N364 C366 1.356 . S
N364 H376 0.984 . S
N364 H377 0.985 . S
N365 C367 1.356 . S
N365 H370 0.984 . S
N365 H371 0.985 . S
C366 C360 1.379 . S
C366 C363 1.363 . S
C366 N364 1.356 . S
C367 C361 1.363 . S
C367 C362 1.379 . S
C367 N365 1.356 . S
N368 C360 1.356 . S
N368 H374 0.984 . S
N368 H375 0.984 . S
N369 C362 1.356 . S
N369 H372 0.984 . S
N369 H373 0.985 . S
H370 N365 0.984 . S
H371 N365 0.985 . S
H372 N369 0.984 . S
H373 N369 0.985 . S
H374 N368 0.984 . S
H375 N368 0.984 . S
H376 N364 0.984 . S
H377 N364 0.985 . S
C378 C379 1.363 . S
C378 C384 1.379 . S
C378 N386 1.356 . S
C379 C378 1.363 . S
C379 C385 1.363 . S
C380 C381 1.363 . S
C380 C385 1.379 . S
C380 N387 1.356 . S
C381 C380 1.363 . S
C381 C384 1.363 . S
N382 C384 1.356 . S
N382 H394 0.984 . S
N382 H395 0.985 . S
N383 C385 1.356 . S
N383 H388 0.984 . S
N383 H389 0.985 . S
C384 C378 1.379 . S
C384 C381 1.363 . S
C384 N382 1.356 . S
C385 C379 1.363 . S
C385 C380 1.379 . S
C385 N383 1.356 . S
N386 C378 1.356 . S
N386 H392 0.984 . S
N386 H393 0.984 . S
N387 C380 1.356 . S
N387 H390 0.984 . S
N387 H391 0.985 . S
H388 N383 0.984 . S
H389 N383 0.985 . S
H390 N387 0.984 . S
H391 N387 0.985 . S
H392 N386 0.984 . S
H393 N386 0.984 . S
H394 N382 0.984 . S
H395 N382 0.985 . S
C396 C397 1.363 . S
C396 C402 1.379 . S
C396 N404 1.356 . S
C397 C396 1.363 . S
C397 C403 1.363 . S
C398 C399 1.363 . S
C398 C403 1.379 . S
C398 N405 1.356 . S
C399 C398 1.363 . S
C399 C402 1.363 . S
N400 C402 1.356 . S
N400 H412 0.984 . S
N400 H413 0.985 . S
N401 C403 1.356 . S
N401 H406 0.984 . S
N401 H407 0.985 . S
C402 C396 1.379 . S
C402 C399 1.363 . S
C402 N400 1.356 . S
C403 C397 1.363 . S
C403 C398 1.379 . S
C403 N401 1.356 . S
N404 C396 1.356 . S
N404 H410 0.984 . S
N404 H411 0.984 . S
N405 C398 1.356 . S
N405 H408 0.984 . S
N405 H409 0.985 . S
H406 N401 0.984 . S
H407 N401 0.985 . S
H408 N405 0.984 . S
H409 N405 0.985 . S
H410 N404 0.984 . S
H411 N404 0.984 . S
H412 N400 0.984 . S
H413 N400 0.985 . S
C414 C415 1.363 . S
C414 C420 1.379 1_554 S
C414 N422 1.356 . S
C415 C414 1.363 . S
C415 C421 1.363 1_455 S
C416 C417 1.363 1_655 S
C416 C421 1.379 1_556 S
C416 N423 1.356 . S
C417 C416 1.363 1_455 S
C417 C420 1.363 . S
N418 C420 1.356 . S
N418 H430 0.984 . S
N418 H431 0.985 . S
N419 C421 1.356 . S
N419 H424 0.984 . S
N419 H425 0.985 . S
C420 C414 1.379 1_556 S
C420 C417 1.363 . S
C420 N418 1.356 . S
C421 C415 1.363 1_655 S
C421 C416 1.379 1_554 S
C421 N419 1.356 . S
N422 C414 1.356 . S
N422 H428 0.984 . S
N422 H429 0.984 . S
N423 C416 1.356 . S
N423 H426 0.984 . S
N423 H427 0.985 . S
H424 N419 0.984 . S
H425 N419 0.985 . S
H426 N423 0.984 . S
H427 N423 0.985 . S
H428 N422 0.984 . S
H429 N422 0.984 . S
H430 N418 0.984 . S
H431 N418 0.985 . S
C432 C433 1.363 1_565 S
C432 C438 1.379 . S
C432 N440 1.356 . S
C433 C432 1.363 1_545 S
C433 C439 1.363 . S
C434 C435 1.363 . S
C434 C439 1.379 . S
C434 N441 1.356 . S
C435 C434 1.363 . S
C435 C438 1.363 1_545 S
N436 C438 1.356 . S
N436 H448 0.984 . S
N436 H449 0.985 . S
N437 C439 1.356 . S
N437 H442 0.984 . S
N437 H443 0.985 . S
C438 C432 1.379 . S
C438 C435 1.363 1_565 S
C438 N436 1.356 . S
C439 C433 1.363 . S
C439 C434 1.379 . S
C439 N437 1.356 . S
N440 C432 1.356 . S
N440 H446 0.984 . S
N440 H447 0.984 . S
N441 C434 1.356 . S
N441 H444 0.984 . S
N441 H445 0.985 . S
H442 N437 0.984 . S
H443 N437 0.985 . S
H444 N441 0.984 . S
H445 N441 0.985 . S
H446 N440 0.984 . S
H447 N440 0.984 . S
H448 N436 0.984 . S
H449 N436 0.985 . S
C450 C451 1.363 . S
C450 C456 1.379 . S
C450 N458 1.356 . S
C451 C450 1.363 . S
C451 C457 1.363 . S
C452 C453 1.363 . S
C452 C457 1.379 . S
C452 N459 1.356 . S
C453 C452 1.363 . S
C453 C456 1.363 . S
N454 C456 1.356 . S
N454 H466 0.984 . S
N454 H467 0.985 . S
N455 C457 1.356 . S
N455 H460 0.984 . S
N455 H461 0.985 . S
C456 C450 1.379 . S
C456 C453 1.363 . S
C456 N454 1.356 . S
C457 C451 1.363 . S
C457 C452 1.379 . S
C457 N455 1.356 . S
N458 C450 1.356 . S
N458 H464 0.984 . S
N458 H465 0.984 . S
N459 C452 1.356 . S
N459 H462 0.984 . S
N459 H463 0.985 . S
H460 N455 0.984 . S
H461 N455 0.985 . S
H462 N459 0.984 . S
H463 N459 0.985 . S
H464 N458 0.984 . S
H465 N458 0.984 . S
H466 N454 0.984 . S
H467 N454 0.985 . S
C468 C469 1.363 . S
C468 C474 1.379 . S
C468 N476 1.356 . S
C469 C468 1.363 . S
C469 C475 1.363 1_545 S
C470 C471 1.363 1_565 S
C470 C475 1.379 . S
C470 N477 1.356 . S
C471 C470 1.363 1_545 S
C471 C474 1.363 . S
N472 C474 1.356 . S
N472 H484 0.984 . S
N472 H485 0.985 . S
N473 C475 1.356 . S
N473 H478 0.984 . S
N473 H479 0.985 . S
C474 C468 1.379 . S
C474 C471 1.363 . S
C474 N472 1.356 . S
C475 C469 1.363 1_565 S
C475 C470 1.379 . S
C475 N473 1.356 . S
N476 C468 1.356 . S
N476 H482 0.984 . S
N476 H483 0.984 . S
N477 C470 1.356 . S
N477 H480 0.984 . S
N477 H481 0.985 . S
H478 N473 0.984 . S
H479 N473 0.985 . S
H480 N477 0.984 . S
H481 N477 0.985 . S
H482 N476 0.984 . S
H483 N476 0.984 . S
H484 N472 0.984 . S
H485 N472 0.985 . S
C486 C487 1.363 . S
C486 C492 1.379 1_556 S
C486 N494 1.356 . S
C487 C486 1.363 . S
C487 C493 1.363 . S
C488 C489 1.363 . S
C488 C493 1.379 1_554 S
C488 N495 1.356 . S
C489 C488 1.363 . S
C489 C492 1.363 . S
N490 C492 1.356 . S
N490 H502 0.984 . S
N490 H503 0.985 . S
N491 C493 1.356 . S
N491 H496 0.984 . S
N491 H497 0.985 . S
C492 C486 1.379 1_554 S
C492 C489 1.363 . S
C492 N490 1.356 . S
C493 C487 1.363 . S
C493 C488 1.379 1_556 S
C493 N491 1.356 . S
N494 C486 1.356 . S
N494 H500 0.984 . S
N494 H501 0.984 . S
N495 C488 1.356 . S
N495 H498 0.984 . S
N495 H499 0.985 . S
H496 N491 0.984 . S
H497 N491 0.985 . S
H498 N495 0.984 . S
H499 N495 0.985 . S
H500 N494 0.984 . S
H501 N494 0.984 . S
H502 N490 0.984 . S
H503 N490 0.985 . S
C504 C505 1.363 . S
C504 C510 1.379 . S
C504 N512 1.356 . S
C505 C504 1.363 . S
C505 C511 1.363 1_455 S
C506 C507 1.363 1_655 S
C506 C511 1.379 . S
C506 N513 1.356 . S
C507 C506 1.363 1_455 S
C507 C510 1.363 . S
N508 C510 1.356 . S
N508 H520 0.984 . S
N508 H521 0.985 . S
N509 C511 1.356 . S
N509 H514 0.984 . S
N509 H515 0.985 . S
C510 C504 1.379 . S
C510 C507 1.363 . S
C510 N508 1.356 . S
C511 C505 1.363 1_655 S
C511 C506 1.379 . S
C511 N509 1.356 . S
N512 C504 1.356 . S
N512 H518 0.984 . S
N512 H519 0.984 . S
N513 C506 1.356 . S
N513 H516 0.984 . S
N513 H517 0.985 . S
H514 N509 0.984 . S
H515 N509 0.985 . S
H516 N513 0.984 . S
H517 N513 0.985 . S
H518 N512 0.984 . S
H519 N512 0.984 . S
H520 N508 0.984 . S
H521 N508 0.985 . S
C199 C19 1.761 . S
C201 N187 1.723 . S
C217 C46 1.460 . S
C219 N160 1.466 1_655 S
C235 C95 0.767 . S
C237 N173 0.758 1_565 S
C253 C10 2.099 . S
C255 N186 2.143 . S
C273 N161 1.495 . S
C271 C55 1.431 . S
C291 N174 1.309 . S
C289 C86 1.178 . S
C307 C59 3.057 . S
C309 N134 3.058 . S
C325 C90 1.828 . S
C327 N148 1.798 . S
C343 C15 1.444 . S
C345 N122 1.525 . S
C363 N135 3.098 . S
C361 C50 3.086 . S
C381 N147 2.151 . S
C379 C99 2.101 . S
C397 C6 1.189 . S
C399 N121 1.200 . S
C417 N151 1.422 . S
C415 C9 1.438 . S
C433 C58 1.476 . S
C435 N125 1.611 . S
C451 C98 1.738 . S
C453 N138 1.767 . S
C471 N177 1.292 . S
C469 C49 1.311 . S
C489 N190 1.389 . S
C487 C89 1.366 . S
C505 C18 1.435 . S
C507 N164 1.512 . S
