# Generated by pormake.
# Topology anh, (6,3)-cn, num edge types: 1
# Building blocks:
#     Node 0, Type 0, BuildingBlock: CUKXOW_clean_sbu_0, # of connection points: 6
#     Node 1, Type 0, BuildingBlock: CUKXOW_clean_sbu_0, # of connection points: 6
#     Node 2, Type 0, BuildingBlock: CUKXOW_clean_sbu_0, # of connection points: 6
#     Node 3, Type 1, BuildingBlock: CUQRIR_clean_linker_1, # of connection points: 3
#     Node 4, Type 1, BuildingBlock: CUQRIR_clean_linker_1, # of connection points: 3
#     Node 5, Type 1, BuildingBlock: CUQRIR_clean_linker_1, # of connection points: 3
#     Node 6, Type 1, BuildingBlock: CUQRIR_clean_linker_1, # of connection points: 3
#     Node 7, Type 1, BuildingBlock: CUQRIR_clean_linker_1, # of connection points: 3
#     Node 8, Type 1, BuildingBlock: CUQRIR_clean_linker_1, # of connection points: 3
#     Edge 9, Type (0, 1), BuildingBlock: UVAHIK_clean_linker_0, # of connection points: 2
#     Edge 10, Type (0, 1), BuildingBlock: UVAHIK_clean_linker_0, # of connection points: 2
#     Edge 11, Type (0, 1), BuildingBlock: UVAHIK_clean_linker_0, # of connection points: 2
#     Edge 12, Type (0, 1), BuildingBlock: UVAHIK_clean_linker_0, # of connection points: 2
#     Edge 13, Type (0, 1), BuildingBlock: UVAHIK_clean_linker_0, # of connection points: 2
#     Edge 14, Type (0, 1), BuildingBlock: UVAHIK_clean_linker_0, # of connection points: 2
#     Edge 15, Type (0, 1), BuildingBlock: UVAHIK_clean_linker_0, # of connection points: 2
#     Edge 16, Type (0, 1), BuildingBlock: UVAHIK_clean_linker_0, # of connection points: 2
#     Edge 17, Type (0, 1), BuildingBlock: UVAHIK_clean_linker_0, # of connection points: 2
#     Edge 18, Type (0, 1), BuildingBlock: UVAHIK_clean_linker_0, # of connection points: 2
#     Edge 19, Type (0, 1), BuildingBlock: UVAHIK_clean_linker_0, # of connection points: 2
#     Edge 20, Type (0, 1), BuildingBlock: UVAHIK_clean_linker_0, # of connection points: 2
#     Edge 21, Type (0, 1), BuildingBlock: UVAHIK_clean_linker_0, # of connection points: 2
#     Edge 22, Type (0, 1), BuildingBlock: UVAHIK_clean_linker_0, # of connection points: 2
#     Edge 23, Type (0, 1), BuildingBlock: UVAHIK_clean_linker_0, # of connection points: 2
#     Edge 24, Type (0, 1), BuildingBlock: UVAHIK_clean_linker_0, # of connection points: 2
#     Edge 25, Type (0, 1), BuildingBlock: UVAHIK_clean_linker_0, # of connection points: 2
#     Edge 26, Type (0, 1), BuildingBlock: UVAHIK_clean_linker_0, # of connection points: 2
# Relax obj value: 0.138
# Max RMSD: 0.198
# Mean RMSD: 0.166
data_MOF--net-anh--node1-CUKXOW_clean_sbu_0--node2-CUQRIR_clean_linker_1--edge1-UVAHIK_clean_linker_0
_symmetry_space_group_name_H-M    P1
_symmetry_Int_Tables_number       1
_symmetry_cell_setting            triclinic
loop_
_symmetry_equiv_pos_as_xyz
'x, y, z'
_cell_length_a     35.555202
_cell_length_b     34.726776
_cell_length_c     60.065846
_cell_angle_alpha  91.119437
_cell_angle_beta   89.878291
_cell_angle_gamma 114.55604
loop_
_atom_site_label
_atom_site_type_symbol
_atom_site_fract_x
_atom_site_fract_y
_atom_site_fract_z
_atom_type_partial_charge
Tb0 Tb 0.02438 0.50329 0.14746 0.0
C1 C 0.98944 0.4667 0.19462 0.0
Tb2 Tb 0.96399 0.40484 0.15185 0.0
O3 O 0.97569 0.52684 0.14424 0.0
O4 O 0.96069 0.46383 0.14848 0.0
O5 O 0.01757 0.49807 0.18337 0.0
C6 C 0.89745 0.33299 0.15735 0.0
O7 O 0.96335 0.43029 0.18535 0.0
C8 C 0.04404 0.41907 0.15156 0.0
C9 C 0.9989 0.44132 0.10484 0.0
O10 O 0.92992 0.3473 0.17015 0.0
O11 O 0.90252 0.35898 0.14114 0.0
O12 O 1.01364 0.38167 0.15254 0.0
O13 O 0.0272 0.44455 0.15096 0.0
O14 O 0.96898 0.41086 0.11583 0.0
O15 O 0.02634 0.47677 0.11447 0.0
C16 C 0.09366 0.57374 0.1474 0.0
O17 O 0.06499 0.56283 0.13215 0.0
O18 O 0.08315 0.54514 0.16259 0.0
C19 C 0.94477 0.4899 0.14597 0.0
Tb20 Tb 0.53959 0.98516 0.50805 0.0
C21 C 0.57771 0.01273 0.46048 0.0
Tb22 Tb 0.63336 0.05167 0.5038 0.0
O23 O 0.51953 0.03367 0.49716 0.0
O24 O 0.57575 0.05078 0.51379 0.0
O25 O 0.54864 0.98308 0.47225 0.0
C26 C 0.69623 0.12624 0.49761 0.0
O27 O 0.61048 0.04409 0.46959 0.0
C28 C 0.62432 0.97209 0.50113 0.0
C29 C 0.59645 0.01979 0.55148 0.0
O30 O 0.65926 0.11445 0.48944 0.0
O31 O 0.69795 0.09597 0.50943 0.0
O32 O 0.6601 0.00423 0.4995 0.0
O33 O 0.59815 0.98722 0.50319 0.0
O34 O 0.62577 0.0497 0.53983 0.0
O35 O 0.56234 0.98997 0.54232 0.0
C36 C 0.46998 0.91628 0.51384 0.0
O37 O 0.47562 0.95459 0.51957 0.0
O38 O 0.5035 0.91683 0.50495 0.0
C39 C 0.55351 0.06511 0.50366 0.0
Tb40 Tb 0.55402 0.60555 0.83903 0.0
C41 C 0.60605 0.61125 0.88229 0.0
Tb42 Tb 0.64775 0.621 0.83462 0.0
O43 O 0.53931 0.541 0.85008 0.0
O44 O 0.58872 0.57131 0.8289 0.0
O45 O 0.57427 0.61681 0.87364 0.0
C46 C 0.71064 0.59988 0.82835 0.0
O47 O 0.63573 0.60776 0.87 0.0
C48 C 0.6395 0.69252 0.84091 0.0
C49 C 0.59613 0.62103 0.7916 0.0
O50 O 0.68385 0.5864 0.84429 0.0
O51 O 0.70296 0.62664 0.81643 0.0
O52 O 0.67541 0.69088 0.83936 0.0
O53 O 0.61267 0.65521 0.83952 0.0
O54 O 0.62772 0.61487 0.8 0.0
O55 O 0.56596 0.62299 0.80408 0.0
C56 C 0.47876 0.60385 0.83979 0.0
O57 O 0.48935 0.57709 0.82911 0.0
O58 O 0.51097 0.63253 0.84976 0.0
C59 C 0.57079 0.53868 0.84019 0.0
C60 C 0.48542 0.9711 0.19175 0.0
N61 N 0.51144 0.99294 0.20847 0.0
N62 N 0.44885 0.94369 0.20002 0.0
C63 C 0.49466 0.97828 0.16734 0.0
C64 C 0.4535 0.94975 0.22237 0.0
N65 N 0.4914 0.9801 0.22748 0.0
C66 C 0.42269 0.92314 0.23922 0.0
H67 H 0.46575 0.96931 0.15751 0.0
H68 H 0.5106 0.95851 0.16147 0.0
H69 H 0.51526 0.01196 0.16437 0.0
H70 H 0.43828 0.92103 0.25483 0.0
H71 H 0.40437 0.89066 0.23252 0.0
H72 H 0.40116 0.93795 0.24325 0.0
C73 C 0.58316 0.51864 0.52723 0.0
N74 N 0.58396 0.54955 0.5417 0.0
N75 N 0.58425 0.48552 0.5384 0.0
C76 C 0.58481 0.52214 0.50232 0.0
C77 C 0.5856 0.49729 0.56009 0.0
N78 N 0.5857 0.53614 0.56209 0.0
C79 C 0.58486 0.46993 0.57937 0.0
H80 H 0.55286 0.51149 0.49575 0.0
H81 H 0.59879 0.50183 0.4947 0.0
H82 H 0.60281 0.55543 0.49741 0.0
H83 H 0.61712 0.47705 0.5844 0.0
H84 H 0.56911 0.43584 0.57468 0.0
H85 H 0.5689 0.47651 0.59388 0.0
C86 C 0.03203 0.44657 0.83434 0.0
N87 N 0.04914 0.44326 0.85383 0.0
N88 N 0.99031 0.42961 0.8357 0.0
C89 C 0.05616 0.46952 0.81445 0.0
C90 C 0.98275 0.41545 0.85687 0.0
N91 N 0.01855 0.4235 0.86784 0.0
C92 C 0.94126 0.40046 0.86809 0.0
H93 H 0.03737 0.45827 0.799 0.0
H94 H 0.08508 0.46482 0.81283 0.0
H95 H 0.06473 0.50394 0.81669 0.0
H96 H 0.93129 0.36693 0.87278 0.0
H97 H 0.91712 0.40283 0.8573 0.0
H98 H 0.94395 0.41924 0.88364 0.0
C99 C 0.06271 0.5399 0.46295 0.0
N100 N 0.03579 0.51767 0.44663 0.0
N101 N 0.09013 0.57742 0.45531 0.0
C102 C 0.0612 0.52612 0.48665 0.0
C103 C 0.07913 0.57736 0.43376 0.0
N104 N 0.04568 0.54116 0.4285 0.0
C105 C 0.10376 0.61061 0.41738 0.0
H106 H 0.07507 0.55392 0.49814 0.0
H107 H 0.07918 0.50672 0.48808 0.0
H108 H 0.02889 0.50666 0.49173 0.0
H109 H 0.10298 0.59628 0.40062 0.0
H110 H 0.13644 0.62765 0.42284 0.0
H111 H 0.09011 0.63399 0.41612 0.0
C112 C 0.61454 0.11868 0.81904 0.0
N113 N 0.61447 0.08864 0.80416 0.0
N114 N 0.61717 0.15377 0.80837 0.0
C115 C 0.61582 0.11546 0.84392 0.0
C116 C 0.6185 0.14403 0.78657 0.0
N117 N 0.61726 0.10481 0.78402 0.0
C118 C 0.61899 0.17205 0.76764 0.0
H119 H 0.5837 0.10018 0.85021 0.0
H120 H 0.63115 0.14729 0.85196 0.0
H121 H 0.63242 0.09593 0.84869 0.0
H122 H 0.65154 0.19195 0.76315 0.0
H123 H 0.60382 0.19315 0.77246 0.0
H124 H 0.60307 0.15286 0.75273 0.0
C125 C 0.4996 0.46694 0.13739 0.0
N126 N 0.5341 0.47965 0.12441 0.0
N127 N 0.47053 0.47825 0.12835 0.0
C128 C 0.49516 0.44586 0.1594 0.0
C129 C 0.48849 0.49778 0.10939 0.0
N130 N 0.52679 0.499 0.10714 0.0
C131 C 0.46764 0.51365 0.09229 0.0
H132 H 0.4837 0.41119 0.15647 0.0
H133 H 0.47264 0.45191 0.1701 0.0
H134 H 0.52549 0.45717 0.16808 0.0
H135 H 0.47501 0.54743 0.09606 0.0
H136 H 0.43357 0.49547 0.09261 0.0
H137 H 0.47885 0.51136 0.07528 0.0
C138 C 0.10018 0.39337 0.15235 0.0
C139 C 0.08883 0.42747 0.15043 0.0
C140 C 0.14169 0.3995 0.15129 0.0
C141 C 0.25009 0.48107 0.15731 0.0
H142 H 0.27658 0.39721 0.1257 0.0
C143 C 0.41991 0.50756 0.13834 0.0
C144 C 0.43 0.47254 0.13637 0.0
C145 C 0.37898 0.50217 0.14183 0.0
C146 C 0.26994 0.42068 0.13498 0.0
H147 H 0.11283 0.49494 0.1455 0.0
H148 H 0.1857 0.50607 0.14392 0.0
H149 H 0.2052 0.38874 0.12744 0.0
H150 H 0.40513 0.40437 0.1375 0.0
H151 H 0.33363 0.39456 0.14441 0.0
H152 H 0.3148 0.51289 0.16499 0.0
C153 C 0.16226 0.4744 0.14648 0.0
C154 C 0.22871 0.41588 0.13588 0.0
C155 C 0.12041 0.46812 0.1474 0.0
C156 C 0.39834 0.43193 0.13912 0.0
C157 C 0.35722 0.42643 0.14271 0.0
C158 C 0.29137 0.48576 0.15651 0.0
C159 C 0.17355 0.44006 0.14832 0.0
C160 C 0.218 0.44596 0.14706 0.0
C161 C 0.34661 0.46145 0.14359 0.0
C162 C 0.30212 0.45568 0.14529 0.0
H163 H 0.07679 0.36158 0.15475 0.0
H164 H 0.14883 0.3723 0.15313 0.0
H165 H 0.24323 0.50465 0.16634 0.0
H166 H 0.44368 0.53923 0.13621 0.0
H167 H 0.3726 0.53006 0.14215 0.0
C168 C 0.77152 0.1742 0.49914 0.0
C169 C 0.73107 0.16687 0.49297 0.0
C170 C 0.80468 0.21198 0.49352 0.0
C171 C 0.83353 0.30116 0.45452 0.0
H172 H 0.92519 0.35573 0.49563 0.0
C173 C 0.96157 0.47066 0.44346 0.0
C174 C 1.00207 0.47665 0.44865 0.0
C175 C 0.92841 0.43186 0.44755 0.0
C176 C 0.90001 0.34059 0.48388 0.0
H177 H 0.69309 0.19335 0.47671 0.0
H178 H 0.75072 0.2597 0.46738 0.0
H179 H 0.86727 0.29069 0.50624 0.0
H180 H 0.04042 0.4468 0.46074 0.0
H181 H 0.98257 0.37895 0.46812 0.0
H182 H 0.8662 0.35167 0.43233 0.0
C183 C 0.75716 0.23602 0.47604 0.0
C184 C 0.86683 0.30329 0.48994 0.0
C185 C 0.72411 0.19817 0.48152 0.0
C186 C 1.00923 0.44291 0.45707 0.0
C187 C 0.9762 0.40428 0.46128 0.0
C188 C 0.86663 0.33866 0.44852 0.0
C189 C 0.79792 0.24324 0.48177 0.0
C190 C 0.83319 0.28306 0.47533 0.0
C191 C 0.93539 0.39859 0.45696 0.0
C192 C 0.90025 0.35868 0.46312 0.0
H193 H 0.77764 0.15041 0.5079 0.0
H194 H 0.83569 0.21626 0.49798 0.0
H195 H 0.80847 0.28605 0.44271 0.0
H196 H 0.95557 0.49648 0.43701 0.0
H197 H 0.89726 0.42843 0.44413 0.0
C198 C 0.66386 0.76952 0.84926 0.0
C199 C 0.63247 0.73143 0.84153 0.0
C200 C 0.65954 0.80755 0.84766 0.0
C201 C 0.58382 0.8535 0.83358 0.0
H202 H 0.68491 0.95211 0.82173 0.0
C203 C 0.58568 0.02018 0.82346 0.0
C204 C 0.61474 0.04816 0.80891 0.0
C205 C 0.58666 0.98139 0.82847 0.0
C206 C 0.65617 0.92491 0.82467 0.0
H207 H 0.57161 0.70268 0.82643 0.0
H208 H 0.56464 0.7692 0.8225 0.0
H209 H 0.68789 0.88515 0.82835 0.0
H210 H 0.66761 0.05765 0.78825 0.0
H211 H 0.66774 0.98915 0.79553 0.0
H212 H 0.55188 0.89293 0.82836 0.0
C213 C 0.59214 0.76995 0.83055 0.0
C214 C 0.65798 0.88636 0.829 0.0
C215 C 0.5961 0.7317 0.8327 0.0
C216 C 0.6444 0.03639 0.79921 0.0
C217 C 0.6449 0.99733 0.8038 0.0
C218 C 0.58191 0.89197 0.82879 0.0
C219 C 0.62418 0.80862 0.83764 0.0
C220 C 0.62188 0.84999 0.83358 0.0
C221 C 0.61637 0.96937 0.81872 0.0
C222 C 0.61809 0.92827 0.82419 0.0
H223 H 0.69208 0.76999 0.85631 0.0
H224 H 0.68435 0.8362 0.85402 0.0
H225 H 0.55532 0.82655 0.83731 0.0
H226 H 0.56226 0.02842 0.83099 0.0
H227 H 0.56448 0.96122 0.84025 0.0
C228 C 0.89121 0.51751 0.13972 0.0
C229 C 0.90029 0.48269 0.14428 0.0
C230 C 0.85038 0.51308 0.13781 0.0
C231 C 0.74056 0.44407 0.15146 0.0
H232 H 0.71939 0.51318 0.10758 0.0
C233 C 0.575 0.43798 0.13302 0.0
C234 C 0.57319 0.47686 0.12868 0.0
C235 C 0.61341 0.43543 0.13535 0.0
C236 C 0.72463 0.49393 0.12012 0.0
H237 H 0.87276 0.41568 0.15097 0.0
H238 H 0.80074 0.40752 0.14735 0.0
H239 H 0.78763 0.51348 0.11028 0.0
H240 H 0.61027 0.54369 0.12445 0.0
H241 H 0.67675 0.53953 0.12832 0.0
H242 H 0.67703 0.42452 0.16116 0.0
C243 C 0.82565 0.43854 0.14528 0.0
C244 C 0.76406 0.49408 0.12169 0.0
C245 C 0.86697 0.44305 0.14719 0.0
C246 C 0.61059 0.51316 0.12732 0.0
C247 C 0.64879 0.51066 0.12952 0.0
C248 C 0.70082 0.4438 0.14983 0.0
C249 C 0.81673 0.47355 0.14033 0.0
C250 C 0.7731 0.46988 0.13766 0.0
C251 C 0.651 0.47169 0.13325 0.0
C252 C 0.69245 0.4694 0.13439 0.0
H253 H 0.9159 0.54867 0.13758 0.0
H254 H 0.84529 0.54112 0.13457 0.0
H255 H 0.7461 0.42509 0.16404 0.0
H256 H 0.54674 0.40939 0.13397 0.0
H257 H 0.61364 0.40481 0.13811 0.0
C258 C 0.42967 0.83817 0.51173 0.0
C259 C 0.43048 0.87864 0.5147 0.0
C260 C 0.39201 0.80264 0.50997 0.0
C261 C 0.27748 0.76626 0.5159 0.0
H262 H 0.275 0.68352 0.47094 0.0
C263 C 0.13035 0.65015 0.46922 0.0
C264 C 0.12567 0.6082 0.46666 0.0
C265 C 0.16639 0.68081 0.47881 0.0
C266 C 0.27532 0.70607 0.48375 0.0
H267 H 0.39308 0.914 0.51896 0.0
H268 H 0.32724 0.85237 0.51491 0.0
H269 H 0.34045 0.74142 0.48103 0.0
H270 H 0.15372 0.56467 0.47216 0.0
H271 H 0.21744 0.61849 0.4887 0.0
H272 H 0.21159 0.73158 0.51751 0.0
C273 C 0.35542 0.84755 0.51455 0.0
C274 C 0.3129 0.73922 0.48967 0.0
C275 C 0.39315 0.88299 0.51674 0.0
C276 C 0.15693 0.59695 0.47418 0.0
C277 C 0.19321 0.62764 0.48349 0.0
C278 C 0.23973 0.73338 0.50968 0.0
C279 C 0.35436 0.80698 0.51066 0.0
C280 C 0.31452 0.77 0.5057 0.0
C281 C 0.19844 0.66994 0.48564 0.0
C282 C 0.23835 0.70319 0.49345 0.0
H283 H 0.45817 0.83404 0.51034 0.0
H284 H 0.39249 0.77186 0.50761 0.0
H285 H 0.27753 0.78888 0.52857 0.0
H286 H 0.10638 0.65915 0.46342 0.0
H287 H 0.16987 0.71328 0.48009 0.0
C288 C 0.61304 0.50056 0.82687 0.0
C289 C 0.58101 0.5016 0.84019 0.0
C290 C 0.62177 0.46484 0.82634 0.0
C291 C 0.5992 0.36277 0.85501 0.0
H292 H 0.62911 0.331 0.79767 0.0
C293 C 0.58789 0.19492 0.83079 0.0
C294 C 0.61982 0.19341 0.81756 0.0
C295 C 0.58725 0.23396 0.83652 0.0
C296 C 0.6213 0.3397 0.81388 0.0
H297 H 0.53283 0.46619 0.86336 0.0
H298 H 0.5466 0.40305 0.8617 0.0
H299 H 0.62002 0.39632 0.80153 0.0
H300 H 0.67747 0.23077 0.80131 0.0
H301 H 0.67642 0.29903 0.81114 0.0
H302 H 0.59895 0.30478 0.86697 0.0
C303 C 0.56608 0.43024 0.85221 0.0
C304 C 0.61622 0.37733 0.81615 0.0
C305 C 0.55787 0.46629 0.85301 0.0
C306 C 0.65232 0.23138 0.81129 0.0
C307 C 0.6516 0.27027 0.81685 0.0
C308 C 0.60381 0.32475 0.85265 0.0
C309 C 0.59796 0.42885 0.83872 0.0
C310 C 0.60499 0.38943 0.83672 0.0
C311 C 0.61845 0.27195 0.82897 0.0
C312 C 0.61488 0.31284 0.83204 0.0
H313 H 0.63102 0.52713 0.81658 0.0
H314 H 0.64705 0.46542 0.81607 0.0
H315 H 0.59118 0.37126 0.87121 0.0
H316 H 0.56247 0.16589 0.83566 0.0
H317 H 0.56124 0.23429 0.84582 0.0
C318 C 0.58471 0.89933 0.51569 0.0
C319 C 0.61725 0.92727 0.50285 0.0
C320 C 0.57975 0.85756 0.51849 0.0
C321 C 0.63875 0.79083 0.5147 0.0
H322 H 0.53019 0.69873 0.52044 0.0
C323 C 0.61872 0.62739 0.54564 0.0
C324 C 0.58688 0.59108 0.53642 0.0
C325 C 0.62154 0.66771 0.54081 0.0
C326 C 0.56077 0.72392 0.51863 0.0
H327 H 0.67008 0.9338 0.48281 0.0
H328 H 0.66093 0.86063 0.48704 0.0
H329 H 0.5362 0.76947 0.5123 0.0
H330 H 0.53309 0.56818 0.51491 0.0
H331 H 0.5386 0.63874 0.50569 0.0
H332 H 0.66337 0.7452 0.52034 0.0
C333 C 0.6395 0.87089 0.49533 0.0
C334 C 0.56424 0.76474 0.51425 0.0
C335 C 0.64463 0.91274 0.49274 0.0
C336 C 0.55803 0.59581 0.5221 0.0
C337 C 0.56099 0.63621 0.51708 0.0
C338 C 0.63529 0.75002 0.5189 0.0
C339 C 0.60726 0.84278 0.50847 0.0
C340 C 0.6033 0.79886 0.51237 0.0
C341 C 0.59283 0.67278 0.52638 0.0
C342 C 0.59628 0.71602 0.52113 0.0
H343 H 0.56418 0.91026 0.52437 0.0
H344 H 0.55513 0.83732 0.52913 0.0
H345 H 0.6694 0.81622 0.51369 0.0
H346 H 0.64164 0.62455 0.5565 0.0
H347 H 0.64609 0.6949 0.54861 0.0
C348 C 0.75911 0.58933 0.80141 0.0
C349 C 0.73909 0.58079 0.82207 0.0
C350 C 0.7827 0.56766 0.79452 0.0
C351 C 0.80277 0.47342 0.80783 0.0
H352 H 0.91105 0.5397 0.78343 0.0
C353 C 0.97153 0.48513 0.82217 0.0
C354 C 0.96386 0.44223 0.82261 0.0
C355 C 0.94287 0.49766 0.81274 0.0
C356 C 0.88073 0.52058 0.79003 0.0
H357 H 0.72793 0.54343 0.8518 0.0
H358 H 0.77043 0.50701 0.84035 0.0
H359 H 0.86118 0.57061 0.78672 0.0
H360 H 0.922 0.37877 0.81262 0.0
H361 H 0.87101 0.40055 0.7958 0.0
H362 H 0.82365 0.42495 0.81315 0.0
C363 C 0.76708 0.52935 0.82907 0.0
C364 C 0.85197 0.53818 0.79174 0.0
C365 C 0.7433 0.55072 0.83584 0.0
C366 C 0.9282 0.41203 0.81232 0.0
C367 C 0.89922 0.42455 0.80283 0.0
C368 C 0.83172 0.45606 0.80641 0.0
C369 C 0.7868 0.53726 0.80825 0.0
C370 C 0.81348 0.51557 0.80177 0.0
C371 C 0.90569 0.46742 0.80362 0.0
C372 C 0.8718 0.48036 0.79864 0.0
H373 H 0.75576 0.61201 0.79036 0.0
H374 H 0.7973 0.57435 0.77835 0.0
H375 H 0.77281 0.45466 0.81494 0.0
H376 H 0.99863 0.50871 0.83039 0.0
H377 H 0.94863 0.53078 0.81414 0.0
C378 C 0.13991 0.64351 0.13158 0.0
C379 C 0.13217 0.61254 0.14775 0.0
C380 C 0.17622 0.68084 0.13257 0.0
C381 C 0.28101 0.72684 0.1575 0.0
H382 H 0.27284 0.83424 0.1523 0.0
C383 C 0.4222 0.8829 0.17385 0.0
C384 C 0.41504 0.91155 0.18811 0.0
C385 C 0.38909 0.84897 0.16402 0.0
C386 C 0.27561 0.80448 0.15374 0.0
H387 H 0.15609 0.59557 0.17736 0.0
H388 H 0.21911 0.66058 0.17921 0.0
H389 H 0.21215 0.76827 0.1447 0.0
H390 H 0.36847 0.92889 0.2026 0.0
H391 H 0.31011 0.8688 0.18599 0.0
H392 H 0.34364 0.76257 0.16766 0.0
C393 C 0.1976 0.65609 0.16563 0.0
C394 C 0.241 0.76676 0.14917 0.0
C395 C 0.16137 0.61901 0.16468 0.0
C396 C 0.37443 0.90685 0.19173 0.0
C397 C 0.34122 0.87277 0.18203 0.0
C398 C 0.31551 0.76444 0.16209 0.0
C399 C 0.20537 0.68749 0.14966 0.0
C400 C 0.24313 0.72754 0.15157 0.0
C401 C 0.34818 0.84291 0.16845 0.0
C402 C 0.31296 0.80365 0.16076 0.0
H403 H 0.11777 0.63909 0.11834 0.0
H404 H 0.18154 0.70441 0.11998 0.0
H405 H 0.28372 0.69708 0.15917 0.0
H406 H 0.45336 0.88589 0.17101 0.0
H407 H 0.39549 0.82685 0.15342 0.0
C408 C 0.53269 0.12284 0.49289 0.0
C409 C 0.56086 0.11026 0.50343 0.0
C410 C 0.53807 0.16514 0.49406 0.0
C411 C 0.58937 0.26212 0.529 0.0
H412 H 0.56093 0.31723 0.48041 0.0
C413 C 0.61881 0.43721 0.5362 0.0
C414 C 0.58628 0.44747 0.52973 0.0
C415 C 0.61823 0.39777 0.53056 0.0
C416 C 0.56875 0.30216 0.49417 0.0
H417 H 0.61717 0.13215 0.52311 0.0
H418 H 0.62737 0.20603 0.52459 0.0
H419 H 0.55571 0.24514 0.4751 0.0
H420 H 0.52863 0.42583 0.5115 0.0
H421 H 0.5273 0.3563 0.50147 0.0
H422 H 0.60216 0.31876 0.54813 0.0
C423 C 0.60062 0.18323 0.51576 0.0
C424 C 0.56573 0.26082 0.49115 0.0
C425 C 0.59506 0.14094 0.5147 0.0
C426 C 0.55409 0.41848 0.51652 0.0
C427 C 0.55344 0.37883 0.51084 0.0
C428 C 0.59253 0.30334 0.53198 0.0
C429 C 0.57181 0.19582 0.50579 0.0
C430 C 0.57597 0.24024 0.50855 0.0
C431 C 0.58501 0.36761 0.51831 0.0
C432 C 0.58228 0.32394 0.51464 0.0
H433 H 0.50597 0.0998 0.48413 0.0
H434 H 0.51502 0.17349 0.48638 0.0
H435 H 0.59659 0.24706 0.54297 0.0
H436 H 0.64413 0.45942 0.54619 0.0
H437 H 0.64348 0.39057 0.53617 0.0
C438 C 0.42589 0.62652 0.85585 0.0
C439 C 0.43566 0.5973 0.84336 0.0
C440 C 0.38467 0.61717 0.86116 0.0
C441 C 0.29092 0.5336 0.87554 0.0
H442 H 0.22562 0.578 0.84171 0.0
C443 C 0.11586 0.44261 0.86356 0.0
C444 C 0.09199 0.46518 0.85969 0.0
C445 C 0.1586 0.46422 0.86653 0.0
C446 C 0.24339 0.56598 0.85182 0.0
H447 H 0.41047 0.53615 0.82623 0.0
H448 H 0.33884 0.51975 0.83586 0.0
H449 H 0.30053 0.60846 0.8374 0.0
H450 H 0.09218 0.52723 0.85739 0.0
H451 H 0.16672 0.56551 0.86339 0.0
H452 H 0.23415 0.49058 0.88973 0.0
C453 C 0.36292 0.54973 0.84141 0.0
C454 C 0.28624 0.58345 0.84924 0.0
C455 C 0.40377 0.55927 0.83583 0.0
C456 C 0.11062 0.50954 0.86008 0.0
C457 C 0.15314 0.53123 0.8634 0.0
C458 C 0.24815 0.51649 0.87838 0.0
C459 C 0.35322 0.57831 0.85432 0.0
C460 C 0.30998 0.56646 0.86057 0.0
C461 C 0.17788 0.50883 0.86597 0.0
C462 C 0.22369 0.53146 0.86595 0.0
H463 H 0.45007 0.656 0.86186 0.0
H464 H 0.37746 0.63961 0.87106 0.0
H465 H 0.30899 0.52011 0.88436 0.0
H466 H 0.10164 0.40832 0.86325 0.0
H467 H 0.17663 0.44583 0.86816 0.0
C468 C 0.85751 0.27164 0.18101 0.0
C469 C 0.85953 0.29516 0.16195 0.0
C470 C 0.82087 0.2374 0.18646 0.0
C471 C 0.72208 0.16065 0.16327 0.0
H472 H 0.6857 0.15162 0.22468 0.0
C473 C 0.5817 0.01585 0.19358 0.0
C474 C 0.55292 0.02468 0.2062 0.0
C475 C 0.62056 0.04782 0.18925 0.0
C476 C 0.69544 0.15382 0.20747 0.0
H477 H 0.82542 0.30122 0.13341 0.0
H478 H 0.76105 0.24103 0.14291 0.0
H479 H 0.75049 0.20979 0.21412 0.0
H480 H 0.5421 0.07268 0.22506 0.0
H481 H 0.61052 0.12905 0.2177 0.0
H482 H 0.66674 0.10507 0.15654 0.0
C483 C 0.7879 0.24896 0.15356 0.0
C484 C 0.73265 0.18686 0.20146 0.0
C485 C 0.8246 0.2834 0.14814 0.0
C486 C 0.56412 0.06539 0.21537 0.0
C487 C 0.60311 0.09744 0.21113 0.0
C488 C 0.685 0.12748 0.1693 0.0
C489 C 0.78557 0.22596 0.17292 0.0
C490 C 0.74628 0.19065 0.17929 0.0
C491 C 0.63137 0.08915 0.19762 0.0
C492 C 0.67126 0.12379 0.19145 0.0
H493 H 0.8841 0.28006 0.19191 0.0
H494 H 0.82015 0.21989 0.2013 0.0
H495 H 0.73198 0.16262 0.1461 0.0
H496 H 0.5737 0.98433 0.18675 0.0
H497 H 0.64201 0.04033 0.17917 0.0
C498 C 0.02905 0.46954 0.0678 0.0
C499 C 1.00269 0.43549 0.08057 0.0
C500 C 0.03292 0.46444 0.04494 0.0
C501 C 0.97983 0.39572 0.99665 0.0
H502 H 0.08573 0.45687 0.96833 0.0
C503 C 1.00411 0.38199 0.90206 0.0
C504 C 0.02286 0.42105 0.89152 0.0
C505 C 1.00418 0.3801 0.9253 0.0
C506 C 0.05598 0.43962 0.97603 0.0
H507 H 0.96 0.36912 0.07926 0.0
H508 H 0.96737 0.35999 0.03935 0.0
H509 H 0.08061 0.45979 0.00877 0.0
H510 H 0.05573 0.48871 0.89672 0.0
H511 H 0.0573 0.48553 0.93726 0.0
H512 H 0.95534 0.37566 0.96379 0.0
C513 C 0.98451 0.3909 0.047 0.0
C514 C 0.05295 0.44143 0.99918 0.0
C515 C 0.98039 0.39609 0.06991 0.0
C516 C 0.0424 0.45813 0.90447 0.0
C517 C 0.04298 0.45626 0.92765 0.0
C518 C 0.98297 0.39361 0.9735 0.0
C519 C 1.01082 0.42505 0.03423 0.0
C520 C 1.01466 0.42018 0.00976 0.0
C521 C 0.02334 0.41731 0.93832 0.0
C522 C 0.02093 0.41615 0.96295 0.0
H523 H 0.04648 0.50045 0.07539 0.0
H524 H 0.05277 0.4917 0.0356 0.0
H525 H 0.94976 0.37939 0.00417 0.0
H526 H 0.98868 0.35314 0.89227 0.0
H527 H 0.98896 0.34965 0.9331 0.0
C528 C 0.59817 0.04654 0.42332 0.0
C529 C 0.57335 0.01138 0.43592 0.0
C530 C 0.59357 0.0459 0.40021 0.0
C531 C 0.55539 0.97438 0.35156 0.0
H532 H 0.54677 0.07037 0.3238 0.0
C533 C 0.48965 0.00927 0.26485 0.0
C534 C 0.50861 0.99231 0.24946 0.0
C535 C 0.50272 0.01596 0.28705 0.0
C536 C 0.54927 0.04343 0.33133 0.0
H537 H 0.52459 0.94775 0.43401 0.0
H538 H 0.51681 0.94662 0.39358 0.0
H539 H 0.55858 0.07196 0.36397 0.0
H540 H 0.55651 0.97011 0.24458 0.0
H541 H 0.57966 0.98164 0.28364 0.0
H542 H 0.54539 0.94556 0.31899 0.0
C543 C 0.53986 0.97462 0.40166 0.0
C544 C 0.55626 0.04443 0.35427 0.0
C545 C 0.54416 0.97538 0.42483 0.0
C546 C 0.54182 0.9835 0.2563 0.0
C547 C 0.55468 0.98976 0.27858 0.0
C548 C 0.54884 0.97357 0.32859 0.0
C549 C 0.56435 0.00998 0.38914 0.0
C550 C 0.55887 0.00969 0.36465 0.0
C551 C 0.53474 0.00534 0.29426 0.0
C552 C 0.54521 0.00788 0.31828 0.0
H553 H 0.62092 0.07486 0.43129 0.0
H554 H 0.61308 0.07348 0.39096 0.0
H555 H 0.55764 0.94732 0.3591 0.0
H556 H 0.46386 0.01603 0.25975 0.0
H557 H 0.48654 0.02766 0.29878 0.0
C558 C 0.62734 0.6257 0.75386 0.0
C559 C 0.59399 0.62393 0.76707 0.0
C560 C 0.62505 0.6261 0.7307 0.0
C561 C 0.55018 0.59276 0.68469 0.0
H562 H 0.64799 0.65489 0.64981 0.0
C563 C 0.55406 0.56774 0.58926 0.0
C564 C 0.58742 0.55872 0.58265 0.0
C565 C 0.55366 0.58467 0.61058 0.0
C566 C 0.62036 0.63748 0.65931 0.0
H567 H 0.53232 0.62227 0.76616 0.0
H568 H 0.52837 0.62299 0.72551 0.0
H569 H 0.64897 0.6683 0.68987 0.0
H570 H 0.64714 0.56183 0.59212 0.0
H571 H 0.64696 0.59172 0.62929 0.0
H572 H 0.52205 0.56102 0.65416 0.0
C573 C 0.5562 0.62379 0.73322 0.0
C574 C 0.62093 0.64506 0.68226 0.0
C575 C 0.55856 0.62356 0.7565 0.0
C576 C 0.6212 0.56865 0.59707 0.0
C577 C 0.62109 0.58594 0.61821 0.0
C578 C 0.54957 0.58528 0.66168 0.0
C579 C 0.58935 0.62474 0.72006 0.0
C580 C 0.58633 0.62177 0.69533 0.0
C581 C 0.58694 0.59331 0.6254 0.0
C582 C 0.58512 0.60658 0.64889 0.0
H583 H 0.6552 0.62613 0.76136 0.0
H584 H 0.65089 0.62612 0.72112 0.0
H585 H 0.5231 0.57405 0.69427 0.0
H586 H 0.52774 0.56007 0.57826 0.0
H587 H 0.52705 0.59023 0.61564 0.0
C588 C 0.5684 0.99546 0.58962 0.0
C589 C 0.60116 0.02119 0.57603 0.0
C590 C 0.57215 0.99902 0.61284 0.0
C591 C 0.63067 0.07646 0.65651 0.0
H592 H 0.58488 0.98137 0.69616 0.0
C593 C 0.65488 0.10372 0.75003 0.0
C594 C 0.61948 0.0851 0.76312 0.0
C595 C 0.65482 0.0903 0.72802 0.0
C596 C 0.59764 0.0082 0.68527 0.0
H597 H 0.66429 0.06933 0.57629 0.0
H598 H 0.67092 0.07506 0.6166 0.0
H599 H 0.58054 0.96874 0.65576 0.0
H600 H 0.5571 0.03668 0.76434 0.0
H601 H 0.5564 0.01309 0.7254 0.0
H602 H 0.64723 0.11601 0.68571 0.0
C603 C 0.64199 0.05282 0.60935 0.0
C604 C 0.59512 1.001 0.66216 0.0
C605 C 0.63821 0.04941 0.58619 0.0
C606 C 0.58472 0.05108 0.7544 0.0
C607 C 0.58445 0.03773 0.7322 0.0
C608 C 0.63321 0.08361 0.67947 0.0
C609 C 0.60876 0.02829 0.62296 0.0
C610 C 0.61172 0.03512 0.64753 0.0
C611 C 0.61906 0.05831 0.71856 0.0
C612 C 0.61689 0.04964 0.69416 0.0
H613 H 0.53942 0.97331 0.58237 0.0
H614 H 0.54586 0.97988 0.62284 0.0
H615 H 0.64283 0.10355 0.64576 0.0
H616 H 0.68194 0.12993 0.75666 0.0
H617 H 0.68229 0.10614 0.71812 0.0
C618 C 0.64045 0.60136 0.91693 0.0
C619 C 0.60731 0.60661 0.90676 0.0
C620 C 0.64023 0.59437 0.93983 0.0
C621 C 0.58874 0.60299 0.9925 0.0
H622 H 0.62354 0.51769 0.0131 0.0
C623 C 0.57014 0.55845 0.08413 0.0
C624 C 0.55288 0.51495 0.08814 0.0
C625 C 0.58685 0.57355 0.06335 0.0
C626 C 0.61365 0.54156 0.00764 0.0
H627 H 0.54811 0.60899 0.91288 0.0
H628 H 0.54743 0.5962 0.95247 0.0
H629 H 0.63118 0.53661 0.97393 0.0
H630 H 0.54081 0.45307 0.07441 0.0
H631 H 0.569 0.47891 0.03769 0.0
H632 H 0.56898 0.60637 0.02573 0.0
C633 C 0.57403 0.59824 0.94291 0.0
C634 C 0.61848 0.55279 0.9852 0.0
C635 C 0.57431 0.60537 0.9201 0.0
C636 C 0.55467 0.48683 0.07159 0.0
C637 C 0.57081 0.50178 0.05062 0.0
C638 C 0.58367 0.59161 0.01483 0.0
C639 C 0.60685 0.5924 0.95308 0.0
C640 C 0.60535 0.5831 0.97727 0.0
C641 C 0.58569 0.54524 0.04597 0.0
C642 C 0.59547 0.56028 0.02268 0.0
H643 H 0.66646 0.6022 0.90721 0.0
H644 H 0.66625 0.59053 0.94713 0.0
H645 H 0.57894 0.62698 0.9871 0.0
H646 H 0.56867 0.58042 0.09678 0.0
H647 H 0.59896 0.60728 0.0606 0.0
C648 C 0.97501 0.43769 0.23303 0.0
C649 C 0.98735 0.47254 0.21894 0.0
C650 C 0.97571 0.44357 0.25616 0.0
C651 C 0.02156 0.52829 0.29991 0.0
H652 H 0.94743 0.44181 0.33865 0.0
C653 C 1.0167 0.55596 0.39418 0.0
C654 C 0.02756 0.52833 0.40666 0.0
C655 C 1.0057 0.54703 0.37176 0.0
C656 C 0.9682 0.46616 0.32796 0.0
H657 H 1.00807 0.54058 0.21783 0.0
H658 H 1.00712 0.55077 0.25796 0.0
H659 H 0.93951 0.43154 0.29826 0.0
H660 H 0.03311 0.4686 0.40604 0.0
H661 H 1.01211 0.45196 0.36684 0.0
H662 H 0.04934 0.56326 0.32973 0.0
C663 C 0.9987 0.51899 0.25141 0.0
C664 C 0.96399 0.46025 0.30481 0.0
C665 C 0.99895 0.51319 0.22834 0.0
C666 C 0.02442 0.49012 0.39678 0.0
C667 C 1.01262 0.48074 0.37442 0.0
C668 C 0.02511 0.53452 0.32296 0.0
C669 C 0.9879 0.48438 0.26572 0.0
C670 C 0.99087 0.49111 0.29043 0.0
C671 C 1.00447 0.50981 0.36156 0.0
C672 C 0.99871 0.50344 0.33718 0.0
H673 H 0.96618 0.40599 0.22622 0.0
H674 H 0.96783 0.41613 0.26649 0.0
H675 H 0.04364 0.55235 0.2896 0.0
H676 H 0.01838 0.58529 0.40161 0.0
H677 H 0.99921 0.56974 0.36219 0.0
loop_
_geom_bond_atom_site_label_1
_geom_bond_atom_site_label_2
_geom_bond_distance
_geom_bond_site_symmetry_2
_ccdc_geom_bond_type
Tb0 O3 2.453 1_455 S
Tb0 O4 2.596 1_455 S
Tb0 O5 2.374 . S
Tb0 O13 2.343 . S
Tb0 O15 2.353 . S
Tb0 O17 2.427 . S
Tb0 O18 2.513 . S
C1 O5 1.250 1_655 S
C1 O7 1.255 . S
Tb2 O4 2.343 . S
Tb2 O7 2.353 . S
Tb2 O10 2.427 . S
Tb2 O11 2.513 . S
Tb2 O12 2.453 1_655 S
Tb2 O13 2.596 1_655 S
Tb2 O14 2.374 . S
O3 Tb0 2.453 1_655 S
O3 C19 1.245 . S
O4 Tb0 2.596 1_655 S
O4 Tb2 2.343 . S
O4 C19 1.259 . S
O5 Tb0 2.374 . S
O5 C1 1.250 1_455 S
C6 O10 1.275 . S
C6 O11 1.246 . S
O7 C1 1.255 . S
O7 Tb2 2.353 . S
C8 O12 1.245 . S
C8 O13 1.259 . S
C9 O14 1.250 1_455 S
C9 O15 1.263 . S
O10 Tb2 2.427 . S
O10 C6 1.275 . S
O11 Tb2 2.513 . S
O11 C6 1.246 . S
O12 Tb2 2.453 1_455 S
O12 C8 1.245 . S
O13 Tb0 2.343 . S
O13 Tb2 2.596 1_455 S
O13 C8 1.259 . S
O14 Tb2 2.374 . S
O14 C9 1.250 1_655 S
O15 Tb0 2.353 . S
O15 C9 1.263 . S
C16 O17 1.275 . S
C16 O18 1.246 . S
O17 Tb0 2.427 . S
O17 C16 1.275 . S
O18 Tb0 2.513 . S
O18 C16 1.246 . S
C19 O3 1.245 . S
C19 O4 1.259 . S
Tb20 O23 2.453 . S
Tb20 O24 2.596 . S
Tb20 O25 2.374 . S
Tb20 O33 2.343 1_545 S
Tb20 O35 2.353 . S
Tb20 O37 2.427 1_545 S
Tb20 O38 2.513 1_545 S
C21 O25 1.251 . S
C21 O27 1.263 . S
Tb22 O24 2.343 . S
Tb22 O27 2.353 . S
Tb22 O30 2.427 . S
Tb22 O31 2.513 . S
Tb22 O32 2.453 1_545 S
Tb22 O33 2.596 1_545 S
Tb22 O34 2.374 . S
O23 Tb20 2.453 . S
O23 C39 1.245 . S
O24 Tb20 2.596 . S
O24 Tb22 2.343 . S
O24 C39 1.259 . S
O25 Tb20 2.374 . S
O25 C21 1.251 . S
C26 O30 1.275 . S
C26 O31 1.246 . S
O27 C21 1.263 . S
O27 Tb22 2.353 . S
C28 O32 1.245 . S
C28 O33 1.259 . S
C29 O34 1.250 . S
C29 O35 1.263 . S
O30 Tb22 2.427 . S
O30 C26 1.275 . S
O31 Tb22 2.513 . S
O31 C26 1.246 . S
O32 Tb22 2.453 1_565 S
O32 C28 1.245 . S
O33 Tb20 2.343 1_565 S
O33 Tb22 2.596 1_565 S
O33 C28 1.259 . S
O34 Tb22 2.374 . S
O34 C29 1.250 . S
O35 Tb20 2.353 . S
O35 C29 1.263 . S
C36 O37 1.275 . S
C36 O38 1.246 . S
O37 Tb20 2.427 1_565 S
O37 C36 1.275 . S
O38 Tb20 2.513 1_565 S
O38 C36 1.246 . S
C39 O23 1.245 . S
C39 O24 1.259 . S
Tb40 O43 2.453 . S
Tb40 O44 2.596 . S
Tb40 O45 2.374 . S
Tb40 O53 2.343 . S
Tb40 O55 2.353 . S
Tb40 O57 2.427 . S
Tb40 O58 2.513 . S
C41 O45 1.251 . S
C41 O47 1.263 . S
Tb42 O44 2.343 . S
Tb42 O47 2.353 . S
Tb42 O50 2.427 . S
Tb42 O51 2.513 . S
Tb42 O52 2.453 . S
Tb42 O53 2.596 . S
Tb42 O54 2.374 . S
O43 Tb40 2.453 . S
O43 C59 1.245 . S
O44 Tb40 2.596 . S
O44 Tb42 2.343 . S
O44 C59 1.259 . S
O45 Tb40 2.374 . S
O45 C41 1.251 . S
C46 O50 1.275 . S
C46 O51 1.246 . S
O47 C41 1.263 . S
O47 Tb42 2.353 . S
C48 O52 1.245 . S
C48 O53 1.259 . S
C49 O54 1.250 . S
C49 O55 1.263 . S
O50 Tb42 2.427 . S
O50 C46 1.275 . S
O51 Tb42 2.513 . S
O51 C46 1.246 . S
O52 Tb42 2.453 . S
O52 C48 1.245 . S
O53 Tb40 2.343 . S
O53 Tb42 2.596 . S
O53 C48 1.259 . S
O54 Tb42 2.374 . S
O54 C49 1.250 . S
O55 Tb40 2.353 . S
O55 C49 1.263 . S
C56 O57 1.275 . S
C56 O58 1.246 . S
O57 Tb40 2.427 . S
O57 C56 1.275 . S
O58 Tb40 2.513 . S
O58 C56 1.246 . S
C59 O43 1.245 . S
C59 O44 1.259 . S
C60 N61 1.317 1_565 S
C60 N62 1.348 . S
C60 C63 1.485 . S
N61 C60 1.317 1_545 S
N61 N65 1.370 . S
N62 C60 1.348 . S
N62 C64 1.346 . S
C63 C60 1.485 . S
C63 H67 0.960 1_565 S
C63 H68 0.961 . S
C63 H69 0.960 1_565 S
C64 N62 1.346 . S
C64 N65 1.307 1_565 S
C64 C66 1.486 . S
N65 N61 1.370 . S
N65 C64 1.307 1_545 S
C66 C64 1.486 . S
C66 H70 0.960 . S
C66 H71 0.960 . S
C66 H72 0.959 . S
H67 C63 0.960 1_545 S
H68 C63 0.961 . S
H69 C63 0.960 1_545 S
H70 C66 0.960 . S
H71 C66 0.960 . S
H72 C66 0.959 . S
C73 N74 1.317 . S
C73 N75 1.348 . S
C73 C76 1.485 . S
N74 C73 1.317 . S
N74 N78 1.370 . S
N75 C73 1.348 . S
N75 C77 1.346 . S
C76 C73 1.485 . S
C76 H80 0.960 . S
C76 H81 0.961 . S
C76 H82 0.960 . S
C77 N75 1.346 . S
C77 N78 1.307 . S
C77 C79 1.486 . S
N78 N74 1.370 . S
N78 C77 1.307 . S
C79 C77 1.486 . S
C79 H83 0.960 . S
C79 H84 0.960 . S
C79 H85 0.959 . S
H80 C76 0.960 . S
H81 C76 0.961 . S
H82 C76 0.960 . S
H83 C79 0.960 . S
H84 C79 0.960 . S
H85 C79 0.959 . S
C86 N87 1.317 . S
C86 N88 1.348 . S
C86 C89 1.485 . S
N87 C86 1.317 . S
N87 N91 1.370 . S
N88 C86 1.348 . S
N88 C90 1.346 . S
C89 C86 1.485 . S
C89 H93 0.960 . S
C89 H94 0.961 . S
C89 H95 0.960 . S
C90 N88 1.346 . S
C90 N91 1.307 . S
C90 C92 1.486 1_455 S
N91 N87 1.370 . S
N91 C90 1.307 . S
C92 C90 1.486 1_655 S
C92 H96 0.960 . S
C92 H97 0.960 . S
C92 H98 0.959 . S
H93 C89 0.960 . S
H94 C89 0.961 . S
H95 C89 0.960 . S
H96 C92 0.960 . S
H97 C92 0.960 . S
H98 C92 0.959 . S
C99 N100 1.317 . S
C99 N101 1.348 . S
C99 C102 1.485 . S
N100 C99 1.317 . S
N100 N104 1.370 . S
N101 C99 1.348 . S
N101 C103 1.346 . S
C102 C99 1.485 . S
C102 H106 0.960 . S
C102 H107 0.961 . S
C102 H108 0.960 . S
C103 N101 1.346 . S
C103 N104 1.307 . S
C103 C105 1.486 . S
N104 N100 1.370 . S
N104 C103 1.307 . S
C105 C103 1.486 . S
C105 H109 0.960 . S
C105 H110 0.960 . S
C105 H111 0.959 . S
H106 C102 0.960 . S
H107 C102 0.961 . S
H108 C102 0.960 . S
H109 C105 0.960 . S
H110 C105 0.960 . S
H111 C105 0.959 . S
C112 N113 1.317 . S
C112 N114 1.348 . S
C112 C115 1.485 . S
N113 C112 1.317 . S
N113 N117 1.370 . S
N114 C112 1.348 . S
N114 C116 1.346 . S
C115 C112 1.485 . S
C115 H119 0.960 . S
C115 H120 0.961 . S
C115 H121 0.960 . S
C116 N114 1.346 . S
C116 N117 1.307 . S
C116 C118 1.486 . S
N117 N113 1.370 . S
N117 C116 1.307 . S
C118 C116 1.486 . S
C118 H122 0.960 . S
C118 H123 0.960 . S
C118 H124 0.959 . S
H119 C115 0.960 . S
H120 C115 0.961 . S
H121 C115 0.960 . S
H122 C118 0.960 . S
H123 C118 0.960 . S
H124 C118 0.959 . S
C125 N126 1.317 . S
C125 N127 1.348 . S
C125 C128 1.485 . S
N126 C125 1.317 . S
N126 N130 1.370 . S
N127 C125 1.348 . S
N127 C129 1.346 . S
C128 C125 1.485 . S
C128 H132 0.960 . S
C128 H133 0.961 . S
C128 H134 0.960 . S
C129 N127 1.346 . S
C129 N130 1.307 . S
C129 C131 1.486 . S
N130 N126 1.370 . S
N130 C129 1.307 . S
C131 C129 1.486 . S
C131 H135 0.960 . S
C131 H136 0.960 . S
C131 H137 0.959 . S
H132 C128 0.960 . S
H133 C128 0.961 . S
H134 C128 0.960 . S
H135 C131 0.960 . S
H136 C131 0.960 . S
H137 C131 0.959 . S
C138 C139 1.349 . S
C138 C140 1.327 . S
C138 H163 0.950 . S
C139 C138 1.349 . S
C139 C155 1.349 . S
C140 C138 1.327 . S
C140 C159 1.429 . S
C140 H164 0.950 . S
C141 C158 1.574 . S
C141 C160 1.368 . S
C141 H165 0.949 . S
H142 C146 0.949 . S
C143 C144 1.349 . S
C143 C145 1.327 . S
C143 H166 0.950 . S
C144 C143 1.349 . S
C144 C156 1.349 . S
C145 C143 1.327 . S
C145 C161 1.429 . S
C145 H167 0.950 . S
C146 H142 0.949 . S
C146 C154 1.574 . S
C146 C162 1.368 . S
H147 C155 0.950 . S
H148 C153 0.950 . S
H149 C154 0.949 . S
H150 C156 0.950 . S
H151 C157 0.950 . S
H152 C158 0.949 . S
C153 H148 0.950 . S
C153 C155 1.327 . S
C153 C159 1.429 . S
C154 C146 1.574 . S
C154 H149 0.949 . S
C154 C160 1.368 . S
C155 C139 1.349 . S
C155 H147 0.950 . S
C155 C153 1.327 . S
C156 C144 1.349 . S
C156 H150 0.950 . S
C156 C157 1.327 . S
C157 H151 0.950 . S
C157 C156 1.327 . S
C157 C161 1.429 . S
C158 C141 1.574 . S
C158 H152 0.949 . S
C158 C162 1.368 . S
C159 C140 1.429 . S
C159 C153 1.429 . S
C159 C160 1.523 . S
C160 C141 1.368 . S
C160 C154 1.368 . S
C160 C159 1.523 . S
C161 C145 1.429 . S
C161 C157 1.429 . S
C161 C162 1.523 . S
C162 C146 1.368 . S
C162 C158 1.368 . S
C162 C161 1.523 . S
H163 C138 0.950 . S
H164 C140 0.950 . S
H165 C141 0.949 . S
H166 C143 0.950 . S
H167 C145 0.950 . S
C168 C169 1.349 . S
C168 C170 1.327 . S
C168 H193 0.950 . S
C169 C168 1.349 . S
C169 C185 1.349 . S
C170 C168 1.327 . S
C170 C189 1.429 . S
C170 H194 0.950 . S
C171 C188 1.574 . S
C171 C190 1.368 . S
C171 H195 0.949 . S
H172 C176 0.949 . S
C173 C174 1.349 . S
C173 C175 1.327 . S
C173 H196 0.950 . S
C174 C173 1.349 . S
C174 C186 1.349 . S
C175 C173 1.327 . S
C175 C191 1.429 . S
C175 H197 0.950 . S
C176 H172 0.949 . S
C176 C184 1.574 . S
C176 C192 1.368 . S
H177 C185 0.950 . S
H178 C183 0.950 . S
H179 C184 0.949 . S
H180 C186 0.950 1_455 S
H181 C187 0.950 . S
H182 C188 0.949 . S
C183 H178 0.950 . S
C183 C185 1.327 . S
C183 C189 1.429 . S
C184 C176 1.574 . S
C184 H179 0.949 . S
C184 C190 1.368 . S
C185 C169 1.349 . S
C185 H177 0.950 . S
C185 C183 1.327 . S
C186 C174 1.349 . S
C186 H180 0.950 1_655 S
C186 C187 1.327 . S
C187 H181 0.950 . S
C187 C186 1.327 . S
C187 C191 1.429 . S
C188 C171 1.574 . S
C188 H182 0.949 . S
C188 C192 1.368 . S
C189 C170 1.429 . S
C189 C183 1.429 . S
C189 C190 1.523 . S
C190 C171 1.368 . S
C190 C184 1.368 . S
C190 C189 1.523 . S
C191 C175 1.429 . S
C191 C187 1.429 . S
C191 C192 1.523 . S
C192 C176 1.368 . S
C192 C188 1.368 . S
C192 C191 1.523 . S
H193 C168 0.950 . S
H194 C170 0.950 . S
H195 C171 0.949 . S
H196 C173 0.950 . S
H197 C175 0.950 . S
C198 C199 1.349 . S
C198 C200 1.327 . S
C198 H223 0.950 . S
C199 C198 1.349 . S
C199 C215 1.349 . S
C200 C198 1.327 . S
C200 C219 1.429 . S
C200 H224 0.950 . S
C201 C218 1.574 . S
C201 C220 1.368 . S
C201 H225 0.949 . S
H202 C206 0.949 . S
C203 C204 1.349 . S
C203 C205 1.327 . S
C203 H226 0.950 . S
C204 C203 1.349 . S
C204 C216 1.349 . S
C205 C203 1.327 . S
C205 C221 1.429 . S
C205 H227 0.950 . S
C206 H202 0.949 . S
C206 C214 1.574 . S
C206 C222 1.368 . S
H207 C215 0.950 . S
H208 C213 0.950 . S
H209 C214 0.949 . S
H210 C216 0.950 1_545 S
H211 C217 0.950 . S
H212 C218 0.949 . S
C213 H208 0.950 . S
C213 C215 1.327 . S
C213 C219 1.429 . S
C214 C206 1.574 . S
C214 H209 0.949 . S
C214 C220 1.368 . S
C215 C199 1.349 . S
C215 H207 0.950 . S
C215 C213 1.327 . S
C216 C204 1.349 . S
C216 H210 0.950 1_565 S
C216 C217 1.327 . S
C217 H211 0.950 . S
C217 C216 1.327 . S
C217 C221 1.429 . S
C218 C201 1.574 . S
C218 H212 0.949 . S
C218 C222 1.368 . S
C219 C200 1.429 . S
C219 C213 1.429 . S
C219 C220 1.523 . S
C220 C201 1.368 . S
C220 C214 1.368 . S
C220 C219 1.523 . S
C221 C205 1.429 . S
C221 C217 1.429 . S
C221 C222 1.523 . S
C222 C206 1.368 . S
C222 C218 1.368 . S
C222 C221 1.523 . S
H223 C198 0.950 . S
H224 C200 0.950 . S
H225 C201 0.949 . S
H226 C203 0.950 . S
H227 C205 0.950 . S
C228 C229 1.349 . S
C228 C230 1.327 . S
C228 H253 0.950 . S
C229 C228 1.349 . S
C229 C245 1.349 . S
C230 C228 1.327 . S
C230 C249 1.429 . S
C230 H254 0.950 . S
C231 C248 1.574 . S
C231 C250 1.368 . S
C231 H255 0.949 . S
H232 C236 0.949 . S
C233 C234 1.349 . S
C233 C235 1.327 . S
C233 H256 0.950 . S
C234 C233 1.349 . S
C234 C246 1.349 . S
C235 C233 1.327 . S
C235 C251 1.429 . S
C235 H257 0.950 . S
C236 H232 0.949 . S
C236 C244 1.574 . S
C236 C252 1.368 . S
H237 C245 0.950 . S
H238 C243 0.950 . S
H239 C244 0.949 . S
H240 C246 0.950 . S
H241 C247 0.950 . S
H242 C248 0.949 . S
C243 H238 0.950 . S
C243 C245 1.327 . S
C243 C249 1.429 . S
C244 C236 1.574 . S
C244 H239 0.949 . S
C244 C250 1.368 . S
C245 C229 1.349 . S
C245 H237 0.950 . S
C245 C243 1.327 . S
C246 C234 1.349 . S
C246 H240 0.950 . S
C246 C247 1.327 . S
C247 H241 0.950 . S
C247 C246 1.327 . S
C247 C251 1.429 . S
C248 C231 1.574 . S
C248 H242 0.949 . S
C248 C252 1.368 . S
C249 C230 1.429 . S
C249 C243 1.429 . S
C249 C250 1.523 . S
C250 C231 1.368 . S
C250 C244 1.368 . S
C250 C249 1.523 . S
C251 C235 1.429 . S
C251 C247 1.429 . S
C251 C252 1.523 . S
C252 C236 1.368 . S
C252 C248 1.368 . S
C252 C251 1.523 . S
H253 C228 0.950 . S
H254 C230 0.950 . S
H255 C231 0.949 . S
H256 C233 0.950 . S
H257 C235 0.950 . S
C258 C259 1.349 . S
C258 C260 1.327 . S
C258 H283 0.950 . S
C259 C258 1.349 . S
C259 C275 1.349 . S
C260 C258 1.327 . S
C260 C279 1.429 . S
C260 H284 0.950 . S
C261 C278 1.574 . S
C261 C280 1.368 . S
C261 H285 0.949 . S
H262 C266 0.949 . S
C263 C264 1.349 . S
C263 C265 1.327 . S
C263 H286 0.950 . S
C264 C263 1.349 . S
C264 C276 1.349 . S
C265 C263 1.327 . S
C265 C281 1.429 . S
C265 H287 0.950 . S
C266 H262 0.949 . S
C266 C274 1.574 . S
C266 C282 1.368 . S
H267 C275 0.950 . S
H268 C273 0.950 . S
H269 C274 0.949 . S
H270 C276 0.950 . S
H271 C277 0.950 . S
H272 C278 0.949 . S
C273 H268 0.950 . S
C273 C275 1.327 . S
C273 C279 1.429 . S
C274 C266 1.574 . S
C274 H269 0.949 . S
C274 C280 1.368 . S
C275 C259 1.349 . S
C275 H267 0.950 . S
C275 C273 1.327 . S
C276 C264 1.349 . S
C276 H270 0.950 . S
C276 C277 1.327 . S
C277 H271 0.950 . S
C277 C276 1.327 . S
C277 C281 1.429 . S
C278 C261 1.574 . S
C278 H272 0.949 . S
C278 C282 1.368 . S
C279 C260 1.429 . S
C279 C273 1.429 . S
C279 C280 1.523 . S
C280 C261 1.368 . S
C280 C274 1.368 . S
C280 C279 1.523 . S
C281 C265 1.429 . S
C281 C277 1.429 . S
C281 C282 1.523 . S
C282 C266 1.368 . S
C282 C278 1.368 . S
C282 C281 1.523 . S
H283 C258 0.950 . S
H284 C260 0.950 . S
H285 C261 0.949 . S
H286 C263 0.950 . S
H287 C265 0.950 . S
C288 C289 1.349 . S
C288 C290 1.327 . S
C288 H313 0.950 . S
C289 C288 1.349 . S
C289 C305 1.349 . S
C290 C288 1.327 . S
C290 C309 1.429 . S
C290 H314 0.950 . S
C291 C308 1.574 . S
C291 C310 1.368 . S
C291 H315 0.949 . S
H292 C296 0.949 . S
C293 C294 1.349 . S
C293 C295 1.327 . S
C293 H316 0.950 . S
C294 C293 1.349 . S
C294 C306 1.349 . S
C295 C293 1.327 . S
C295 C311 1.429 . S
C295 H317 0.950 . S
C296 H292 0.949 . S
C296 C304 1.574 . S
C296 C312 1.368 . S
H297 C305 0.950 . S
H298 C303 0.950 . S
H299 C304 0.949 . S
H300 C306 0.950 . S
H301 C307 0.950 . S
H302 C308 0.949 . S
C303 H298 0.950 . S
C303 C305 1.327 . S
C303 C309 1.429 . S
C304 C296 1.574 . S
C304 H299 0.949 . S
C304 C310 1.368 . S
C305 C289 1.349 . S
C305 H297 0.950 . S
C305 C303 1.327 . S
C306 C294 1.349 . S
C306 H300 0.950 . S
C306 C307 1.327 . S
C307 H301 0.950 . S
C307 C306 1.327 . S
C307 C311 1.429 . S
C308 C291 1.574 . S
C308 H302 0.949 . S
C308 C312 1.368 . S
C309 C290 1.429 . S
C309 C303 1.429 . S
C309 C310 1.523 . S
C310 C291 1.368 . S
C310 C304 1.368 . S
C310 C309 1.523 . S
C311 C295 1.429 . S
C311 C307 1.429 . S
C311 C312 1.523 . S
C312 C296 1.368 . S
C312 C308 1.368 . S
C312 C311 1.523 . S
H313 C288 0.950 . S
H314 C290 0.950 . S
H315 C291 0.949 . S
H316 C293 0.950 . S
H317 C295 0.950 . S
C318 C319 1.349 . S
C318 C320 1.327 . S
C318 H343 0.950 . S
C319 C318 1.349 . S
C319 C335 1.349 . S
C320 C318 1.327 . S
C320 C339 1.429 . S
C320 H344 0.950 . S
C321 C338 1.574 . S
C321 C340 1.368 . S
C321 H345 0.949 . S
H322 C326 0.949 . S
C323 C324 1.349 . S
C323 C325 1.327 . S
C323 H346 0.950 . S
C324 C323 1.349 . S
C324 C336 1.349 . S
C325 C323 1.327 . S
C325 C341 1.429 . S
C325 H347 0.950 . S
C326 H322 0.949 . S
C326 C334 1.574 . S
C326 C342 1.368 . S
H327 C335 0.950 . S
H328 C333 0.950 . S
H329 C334 0.949 . S
H330 C336 0.950 . S
H331 C337 0.950 . S
H332 C338 0.949 . S
C333 H328 0.950 . S
C333 C335 1.327 . S
C333 C339 1.429 . S
C334 C326 1.574 . S
C334 H329 0.949 . S
C334 C340 1.368 . S
C335 C319 1.349 . S
C335 H327 0.950 . S
C335 C333 1.327 . S
C336 C324 1.349 . S
C336 H330 0.950 . S
C336 C337 1.327 . S
C337 H331 0.950 . S
C337 C336 1.327 . S
C337 C341 1.429 . S
C338 C321 1.574 . S
C338 H332 0.949 . S
C338 C342 1.368 . S
C339 C320 1.429 . S
C339 C333 1.429 . S
C339 C340 1.523 . S
C340 C321 1.368 . S
C340 C334 1.368 . S
C340 C339 1.523 . S
C341 C325 1.429 . S
C341 C337 1.429 . S
C341 C342 1.523 . S
C342 C326 1.368 . S
C342 C338 1.368 . S
C342 C341 1.523 . S
H343 C318 0.950 . S
H344 C320 0.950 . S
H345 C321 0.949 . S
H346 C323 0.950 . S
H347 C325 0.950 . S
C348 C349 1.349 . S
C348 C350 1.327 . S
C348 H373 0.950 . S
C349 C348 1.349 . S
C349 C365 1.349 . S
C350 C348 1.327 . S
C350 C369 1.429 . S
C350 H374 0.950 . S
C351 C368 1.574 . S
C351 C370 1.368 . S
C351 H375 0.949 . S
H352 C356 0.949 . S
C353 C354 1.349 . S
C353 C355 1.327 . S
C353 H376 0.950 1_655 S
C354 C353 1.349 . S
C354 C366 1.349 . S
C355 C353 1.327 . S
C355 C371 1.429 . S
C355 H377 0.950 . S
C356 H352 0.949 . S
C356 C364 1.574 . S
C356 C372 1.368 . S
H357 C365 0.950 . S
H358 C363 0.950 . S
H359 C364 0.949 . S
H360 C366 0.950 . S
H361 C367 0.950 . S
H362 C368 0.949 . S
C363 H358 0.950 . S
C363 C365 1.327 . S
C363 C369 1.429 . S
C364 C356 1.574 . S
C364 H359 0.949 . S
C364 C370 1.368 . S
C365 C349 1.349 . S
C365 H357 0.950 . S
C365 C363 1.327 . S
C366 C354 1.349 . S
C366 H360 0.950 . S
C366 C367 1.327 . S
C367 H361 0.950 . S
C367 C366 1.327 . S
C367 C371 1.429 . S
C368 C351 1.574 . S
C368 H362 0.949 . S
C368 C372 1.368 . S
C369 C350 1.429 . S
C369 C363 1.429 . S
C369 C370 1.523 . S
C370 C351 1.368 . S
C370 C364 1.368 . S
C370 C369 1.523 . S
C371 C355 1.429 . S
C371 C367 1.429 . S
C371 C372 1.523 . S
C372 C356 1.368 . S
C372 C368 1.368 . S
C372 C371 1.523 . S
H373 C348 0.950 . S
H374 C350 0.950 . S
H375 C351 0.949 . S
H376 C353 0.950 1_455 S
H377 C355 0.950 . S
C378 C379 1.349 . S
C378 C380 1.327 . S
C378 H403 0.950 . S
C379 C378 1.349 . S
C379 C395 1.349 . S
C380 C378 1.327 . S
C380 C399 1.429 . S
C380 H404 0.950 . S
C381 C398 1.574 . S
C381 C400 1.368 . S
C381 H405 0.949 . S
H382 C386 0.949 . S
C383 C384 1.349 . S
C383 C385 1.327 . S
C383 H406 0.950 . S
C384 C383 1.349 . S
C384 C396 1.349 . S
C385 C383 1.327 . S
C385 C401 1.429 . S
C385 H407 0.950 . S
C386 H382 0.949 . S
C386 C394 1.574 . S
C386 C402 1.368 . S
H387 C395 0.950 . S
H388 C393 0.950 . S
H389 C394 0.949 . S
H390 C396 0.950 . S
H391 C397 0.950 . S
H392 C398 0.949 . S
C393 H388 0.950 . S
C393 C395 1.327 . S
C393 C399 1.429 . S
C394 C386 1.574 . S
C394 H389 0.949 . S
C394 C400 1.368 . S
C395 C379 1.349 . S
C395 H387 0.950 . S
C395 C393 1.327 . S
C396 C384 1.349 . S
C396 H390 0.950 . S
C396 C397 1.327 . S
C397 H391 0.950 . S
C397 C396 1.327 . S
C397 C401 1.429 . S
C398 C381 1.574 . S
C398 H392 0.949 . S
C398 C402 1.368 . S
C399 C380 1.429 . S
C399 C393 1.429 . S
C399 C400 1.523 . S
C400 C381 1.368 . S
C400 C394 1.368 . S
C400 C399 1.523 . S
C401 C385 1.429 . S
C401 C397 1.429 . S
C401 C402 1.523 . S
C402 C386 1.368 . S
C402 C398 1.368 . S
C402 C401 1.523 . S
H403 C378 0.950 . S
H404 C380 0.950 . S
H405 C381 0.949 . S
H406 C383 0.950 . S
H407 C385 0.950 . S
C408 C409 1.349 . S
C408 C410 1.327 . S
C408 H433 0.950 . S
C409 C408 1.349 . S
C409 C425 1.349 . S
C410 C408 1.327 . S
C410 C429 1.429 . S
C410 H434 0.950 . S
C411 C428 1.574 . S
C411 C430 1.368 . S
C411 H435 0.949 . S
H412 C416 0.949 . S
C413 C414 1.349 . S
C413 C415 1.327 . S
C413 H436 0.950 . S
C414 C413 1.349 . S
C414 C426 1.349 . S
C415 C413 1.327 . S
C415 C431 1.429 . S
C415 H437 0.950 . S
C416 H412 0.949 . S
C416 C424 1.574 . S
C416 C432 1.368 . S
H417 C425 0.950 . S
H418 C423 0.950 . S
H419 C424 0.949 . S
H420 C426 0.950 . S
H421 C427 0.950 . S
H422 C428 0.949 . S
C423 H418 0.950 . S
C423 C425 1.327 . S
C423 C429 1.429 . S
C424 C416 1.574 . S
C424 H419 0.949 . S
C424 C430 1.368 . S
C425 C409 1.349 . S
C425 H417 0.950 . S
C425 C423 1.327 . S
C426 C414 1.349 . S
C426 H420 0.950 . S
C426 C427 1.327 . S
C427 H421 0.950 . S
C427 C426 1.327 . S
C427 C431 1.429 . S
C428 C411 1.574 . S
C428 H422 0.949 . S
C428 C432 1.368 . S
C429 C410 1.429 . S
C429 C423 1.429 . S
C429 C430 1.523 . S
C430 C411 1.368 . S
C430 C424 1.368 . S
C430 C429 1.523 . S
C431 C415 1.429 . S
C431 C427 1.429 . S
C431 C432 1.523 . S
C432 C416 1.368 . S
C432 C428 1.368 . S
C432 C431 1.523 . S
H433 C408 0.950 . S
H434 C410 0.950 . S
H435 C411 0.949 . S
H436 C413 0.950 . S
H437 C415 0.950 . S
C438 C439 1.349 . S
C438 C440 1.327 . S
C438 H463 0.950 . S
C439 C438 1.349 . S
C439 C455 1.349 . S
C440 C438 1.327 . S
C440 C459 1.429 . S
C440 H464 0.950 . S
C441 C458 1.574 . S
C441 C460 1.368 . S
C441 H465 0.949 . S
H442 C446 0.949 . S
C443 C444 1.349 . S
C443 C445 1.327 . S
C443 H466 0.950 . S
C444 C443 1.349 . S
C444 C456 1.349 . S
C445 C443 1.327 . S
C445 C461 1.429 . S
C445 H467 0.950 . S
C446 H442 0.949 . S
C446 C454 1.574 . S
C446 C462 1.368 . S
H447 C455 0.950 . S
H448 C453 0.950 . S
H449 C454 0.949 . S
H450 C456 0.950 . S
H451 C457 0.950 . S
H452 C458 0.949 . S
C453 H448 0.950 . S
C453 C455 1.327 . S
C453 C459 1.429 . S
C454 C446 1.574 . S
C454 H449 0.949 . S
C454 C460 1.368 . S
C455 C439 1.349 . S
C455 H447 0.950 . S
C455 C453 1.327 . S
C456 C444 1.349 . S
C456 H450 0.950 . S
C456 C457 1.327 . S
C457 H451 0.950 . S
C457 C456 1.327 . S
C457 C461 1.429 . S
C458 C441 1.574 . S
C458 H452 0.949 . S
C458 C462 1.368 . S
C459 C440 1.429 . S
C459 C453 1.429 . S
C459 C460 1.523 . S
C460 C441 1.368 . S
C460 C454 1.368 . S
C460 C459 1.523 . S
C461 C445 1.429 . S
C461 C457 1.429 . S
C461 C462 1.523 . S
C462 C446 1.368 . S
C462 C458 1.368 . S
C462 C461 1.523 . S
H463 C438 0.950 . S
H464 C440 0.950 . S
H465 C441 0.949 . S
H466 C443 0.950 . S
H467 C445 0.950 . S
C468 C469 1.349 . S
C468 C470 1.327 . S
C468 H493 0.950 . S
C469 C468 1.349 . S
C469 C485 1.349 . S
C470 C468 1.327 . S
C470 C489 1.429 . S
C470 H494 0.950 . S
C471 C488 1.574 . S
C471 C490 1.368 . S
C471 H495 0.949 . S
H472 C476 0.949 . S
C473 C474 1.349 . S
C473 C475 1.327 . S
C473 H496 0.950 . S
C474 C473 1.349 . S
C474 C486 1.349 . S
C475 C473 1.327 . S
C475 C491 1.429 . S
C475 H497 0.950 . S
C476 H472 0.949 . S
C476 C484 1.574 . S
C476 C492 1.368 . S
H477 C485 0.950 . S
H478 C483 0.950 . S
H479 C484 0.949 . S
H480 C486 0.950 . S
H481 C487 0.950 . S
H482 C488 0.949 . S
C483 H478 0.950 . S
C483 C485 1.327 . S
C483 C489 1.429 . S
C484 C476 1.574 . S
C484 H479 0.949 . S
C484 C490 1.368 . S
C485 C469 1.349 . S
C485 H477 0.950 . S
C485 C483 1.327 . S
C486 C474 1.349 . S
C486 H480 0.950 . S
C486 C487 1.327 . S
C487 H481 0.950 . S
C487 C486 1.327 . S
C487 C491 1.429 . S
C488 C471 1.574 . S
C488 H482 0.949 . S
C488 C492 1.368 . S
C489 C470 1.429 . S
C489 C483 1.429 . S
C489 C490 1.523 . S
C490 C471 1.368 . S
C490 C484 1.368 . S
C490 C489 1.523 . S
C491 C475 1.429 . S
C491 C487 1.429 . S
C491 C492 1.523 . S
C492 C476 1.368 . S
C492 C488 1.368 . S
C492 C491 1.523 . S
H493 C468 0.950 . S
H494 C470 0.950 . S
H495 C471 0.949 . S
H496 C473 0.950 . S
H497 C475 0.950 . S
C498 C499 1.349 . S
C498 C500 1.327 . S
C498 H523 0.950 . S
C499 C498 1.349 . S
C499 C515 1.349 1_455 S
C500 C498 1.327 . S
C500 C519 1.429 . S
C500 H524 0.950 . S
C501 C518 1.574 1_654 S
C501 C520 1.368 1_655 S
C501 H525 0.949 . S
H502 C506 0.949 . S
C503 C504 1.349 . S
C503 C505 1.327 . S
C503 H526 0.950 1_455 S
C504 C503 1.349 . S
C504 C516 1.349 . S
C505 C503 1.327 . S
C505 C521 1.429 . S
C505 H527 0.950 1_455 S
C506 H502 0.949 . S
C506 C514 1.574 1_556 S
C506 C522 1.368 . S
H507 C515 0.950 . S
H508 C513 0.950 . S
H509 C514 0.949 . S
H510 C516 0.950 . S
H511 C517 0.950 . S
H512 C518 0.949 1_655 S
C513 H508 0.950 . S
C513 C515 1.327 . S
C513 C519 1.429 1_655 S
C514 C506 1.574 1_554 S
C514 H509 0.949 . S
C514 C520 1.368 . S
C515 C499 1.349 1_655 S
C515 H507 0.950 . S
C515 C513 1.327 . S
C516 C504 1.349 . S
C516 H510 0.950 . S
C516 C517 1.327 . S
C517 H511 0.950 . S
C517 C516 1.327 . S
C517 C521 1.429 . S
C518 C501 1.574 1_456 S
C518 H512 0.949 1_455 S
C518 C522 1.368 . S
C519 C500 1.429 . S
C519 C513 1.429 1_455 S
C519 C520 1.523 . S
C520 C501 1.368 1_455 S
C520 C514 1.368 . S
C520 C519 1.523 . S
C521 C505 1.429 . S
C521 C517 1.429 . S
C521 C522 1.523 . S
C522 C506 1.368 . S
C522 C518 1.368 . S
C522 C521 1.523 . S
H523 C498 0.950 . S
H524 C500 0.950 . S
H525 C501 0.949 . S
H526 C503 0.950 1_655 S
H527 C505 0.950 1_655 S
C528 C529 1.349 . S
C528 C530 1.327 . S
C528 H553 0.950 . S
C529 C528 1.349 . S
C529 C545 1.349 . S
C530 C528 1.327 . S
C530 C549 1.429 . S
C530 H554 0.950 . S
C531 C548 1.574 . S
C531 C550 1.368 . S
C531 H555 0.950 . S
H532 C536 0.949 . S
C533 C534 1.349 . S
C533 C535 1.327 . S
C533 H556 0.950 1_545 S
C534 C533 1.349 . S
C534 C546 1.349 . S
C535 C533 1.327 . S
C535 C551 1.429 . S
C535 H557 0.950 1_545 S
C536 H532 0.949 . S
C536 C544 1.574 . S
C536 C552 1.368 . S
H537 C545 0.950 . S
H538 C543 0.950 . S
H539 C544 0.949 . S
H540 C546 0.950 . S
H541 C547 0.950 . S
H542 C548 0.949 1_565 S
C543 H538 0.950 . S
C543 C545 1.327 . S
C543 C549 1.429 . S
C544 C536 1.574 . S
C544 H539 0.949 . S
C544 C550 1.368 . S
C545 C529 1.349 . S
C545 H537 0.950 . S
C545 C543 1.327 . S
C546 C534 1.349 . S
C546 H540 0.950 . S
C546 C547 1.327 . S
C547 H541 0.950 . S
C547 C546 1.327 . S
C547 C551 1.429 . S
C548 C531 1.574 . S
C548 H542 0.949 1_545 S
C548 C552 1.368 . S
C549 C530 1.429 . S
C549 C543 1.429 . S
C549 C550 1.523 . S
C550 C531 1.368 . S
C550 C544 1.368 . S
C550 C549 1.523 . S
C551 C535 1.429 . S
C551 C547 1.429 . S
C551 C552 1.523 . S
C552 C536 1.368 . S
C552 C548 1.368 . S
C552 C551 1.523 . S
H553 C528 0.950 . S
H554 C530 0.950 . S
H555 C531 0.950 . S
H556 C533 0.950 1_565 S
H557 C535 0.950 1_565 S
C558 C559 1.349 . S
C558 C560 1.327 . S
C558 H583 0.950 . S
C559 C558 1.349 . S
C559 C575 1.349 . S
C560 C558 1.327 . S
C560 C579 1.429 . S
C560 H584 0.950 . S
C561 C578 1.574 . S
C561 C580 1.368 . S
C561 H585 0.949 . S
H562 C566 0.949 . S
C563 C564 1.349 . S
C563 C565 1.327 . S
C563 H586 0.950 . S
C564 C563 1.349 . S
C564 C576 1.349 . S
C565 C563 1.327 . S
C565 C581 1.429 . S
C565 H587 0.950 . S
C566 H562 0.949 . S
C566 C574 1.574 . S
C566 C582 1.368 . S
H567 C575 0.950 . S
H568 C573 0.950 . S
H569 C574 0.949 . S
H570 C576 0.950 . S
H571 C577 0.950 . S
H572 C578 0.949 . S
C573 H568 0.950 . S
C573 C575 1.327 . S
C573 C579 1.429 . S
C574 C566 1.574 . S
C574 H569 0.949 . S
C574 C580 1.368 . S
C575 C559 1.349 . S
C575 H567 0.950 . S
C575 C573 1.327 . S
C576 C564 1.349 . S
C576 H570 0.950 . S
C576 C577 1.327 . S
C577 H571 0.950 . S
C577 C576 1.327 . S
C577 C581 1.429 . S
C578 C561 1.574 . S
C578 H572 0.949 . S
C578 C582 1.368 . S
C579 C560 1.429 . S
C579 C573 1.429 . S
C579 C580 1.523 . S
C580 C561 1.368 . S
C580 C574 1.368 . S
C580 C579 1.523 . S
C581 C565 1.429 . S
C581 C577 1.429 . S
C581 C582 1.523 . S
C582 C566 1.368 . S
C582 C578 1.368 . S
C582 C581 1.523 . S
H583 C558 0.950 . S
H584 C560 0.950 . S
H585 C561 0.949 . S
H586 C563 0.950 . S
H587 C565 0.950 . S
C588 C589 1.349 1_565 S
C588 C590 1.327 . S
C588 H613 0.950 . S
C589 C588 1.349 1_545 S
C589 C605 1.349 . S
C590 C588 1.327 . S
C590 C609 1.429 1_565 S
C590 H614 0.950 . S
C591 C608 1.574 . S
C591 C610 1.368 . S
C591 H615 0.949 . S
H592 C596 0.949 . S
C593 C594 1.349 . S
C593 C595 1.327 . S
C593 H616 0.950 . S
C594 C593 1.349 . S
C594 C606 1.349 . S
C595 C593 1.327 . S
C595 C611 1.429 . S
C595 H617 0.950 . S
C596 H592 0.949 . S
C596 C604 1.574 . S
C596 C612 1.368 1_565 S
H597 C605 0.950 . S
H598 C603 0.950 . S
H599 C604 0.949 . S
H600 C606 0.950 1_565 S
H601 C607 0.950 1_565 S
H602 C608 0.949 . S
C603 H598 0.950 . S
C603 C605 1.327 . S
C603 C609 1.429 . S
C604 C596 1.574 . S
C604 H599 0.949 . S
C604 C610 1.368 1_565 S
C605 C589 1.349 . S
C605 H597 0.950 . S
C605 C603 1.327 . S
C606 C594 1.349 . S
C606 H600 0.950 1_545 S
C606 C607 1.327 . S
C607 H601 0.950 1_545 S
C607 C606 1.327 . S
C607 C611 1.429 . S
C608 C591 1.574 . S
C608 H602 0.949 . S
C608 C612 1.368 . S
C609 C590 1.429 1_545 S
C609 C603 1.429 . S
C609 C610 1.523 . S
C610 C591 1.368 . S
C610 C604 1.368 1_545 S
C610 C609 1.523 . S
C611 C595 1.429 . S
C611 C607 1.429 . S
C611 C612 1.523 . S
C612 C596 1.368 1_545 S
C612 C608 1.368 . S
C612 C611 1.523 . S
H613 C588 0.950 . S
H614 C590 0.950 . S
H615 C591 0.949 . S
H616 C593 0.950 . S
H617 C595 0.950 . S
C618 C619 1.349 . S
C618 C620 1.327 . S
C618 H643 0.950 . S
C619 C618 1.349 . S
C619 C635 1.349 . S
C620 C618 1.327 . S
C620 C639 1.429 . S
C620 H644 0.950 . S
C621 C638 1.574 1_556 S
C621 C640 1.368 . S
C621 H645 0.949 . S
H622 C626 0.949 . S
C623 C624 1.349 . S
C623 C625 1.327 . S
C623 H646 0.950 . S
C624 C623 1.349 . S
C624 C636 1.349 . S
C625 C623 1.327 . S
C625 C641 1.429 . S
C625 H647 0.950 . S
C626 H622 0.949 . S
C626 C634 1.574 1_554 S
C626 C642 1.368 . S
H627 C635 0.950 . S
H628 C633 0.950 . S
H629 C634 0.949 . S
H630 C636 0.950 . S
H631 C637 0.950 . S
H632 C638 0.949 . S
C633 H628 0.950 . S
C633 C635 1.327 . S
C633 C639 1.429 . S
C634 C626 1.574 1_556 S
C634 H629 0.949 . S
C634 C640 1.368 . S
C635 C619 1.349 . S
C635 H627 0.950 . S
C635 C633 1.327 . S
C636 C624 1.349 . S
C636 H630 0.950 . S
C636 C637 1.327 . S
C637 H631 0.950 . S
C637 C636 1.327 . S
C637 C641 1.429 . S
C638 C621 1.574 1_554 S
C638 H632 0.949 . S
C638 C642 1.368 . S
C639 C620 1.429 . S
C639 C633 1.429 . S
C639 C640 1.523 . S
C640 C621 1.368 . S
C640 C634 1.368 . S
C640 C639 1.523 . S
C641 C625 1.429 . S
C641 C637 1.429 . S
C641 C642 1.523 . S
C642 C626 1.368 . S
C642 C638 1.368 . S
C642 C641 1.523 . S
H643 C618 0.950 . S
H644 C620 0.950 . S
H645 C621 0.949 . S
H646 C623 0.950 . S
H647 C625 0.950 . S
C648 C649 1.349 . S
C648 C650 1.327 . S
C648 H673 0.950 . S
C649 C648 1.349 . S
C649 C665 1.349 . S
C650 C648 1.327 . S
C650 C669 1.429 . S
C650 H674 0.950 . S
C651 C668 1.575 1_655 S
C651 C670 1.368 . S
C651 H675 0.949 . S
H652 C656 0.949 . S
C653 C654 1.349 . S
C653 C655 1.327 . S
C653 H676 0.950 . S
C654 C653 1.349 . S
C654 C666 1.349 . S
C655 C653 1.327 . S
C655 C671 1.429 . S
C655 H677 0.950 . S
C656 H652 0.949 . S
C656 C664 1.573 . S
C656 C672 1.368 . S
H657 C665 0.950 . S
H658 C663 0.950 . S
H659 C664 0.953 . S
H660 C666 0.950 . S
H661 C667 0.950 . S
H662 C668 0.938 . S
C663 H658 0.950 . S
C663 C665 1.327 . S
C663 C669 1.429 . S
C664 C656 1.573 . S
C664 H659 0.953 . S
C664 C670 1.365 1_455 S
C665 C649 1.349 . S
C665 H657 0.950 . S
C665 C663 1.327 . S
C666 C654 1.349 . S
C666 H660 0.950 . S
C666 C667 1.327 . S
C667 H661 0.950 . S
C667 C666 1.327 . S
C667 C671 1.429 . S
C668 C651 1.575 1_455 S
C668 H662 0.938 . S
C668 C672 1.381 . S
C669 C650 1.429 . S
C669 C663 1.429 . S
C669 C670 1.523 . S
C670 C651 1.368 . S
C670 C664 1.365 1_655 S
C670 C669 1.523 . S
C671 C655 1.429 . S
C671 C667 1.429 . S
C671 C672 1.523 . S
C672 C656 1.368 . S
C672 C668 1.381 . S
C672 C671 1.523 . S
H673 C648 0.950 . S
H674 C650 0.950 . S
H675 C651 0.949 . S
H676 C653 0.950 . S
H677 C655 0.950 . S
C139 C8 1.632 . S
C144 N127 1.663 . S
C169 C26 1.226 . S
C174 N100 1.229 1_655 S
C199 C48 1.398 . S
C204 N113 1.449 1_565 S
C229 C19 1.990 . S
C234 N126 2.115 . S
C264 N101 1.556 . S
C259 C36 1.516 . S
C294 N114 1.695 . S
C289 C59 1.604 . S
C319 C28 1.405 . S
C324 N74 1.453 . S
C349 C46 0.848 . S
C354 N88 0.847 1_655 S
C379 C16 1.516 . S
C384 N62 1.545 . S
C414 N75 1.697 . S
C409 C39 1.605 . S
C444 N87 1.335 . S
C439 C56 1.278 . S
C469 C6 1.261 . S
C474 N61 1.260 . S
C504 N91 1.528 . S
C499 C9 1.526 . S
C529 C21 1.533 . S
C534 N65 1.535 . S
C559 C49 1.553 . S
C564 N78 1.574 . S
C594 N117 1.537 . S
C589 C29 1.528 . S
C624 N130 1.596 . S
C619 C41 1.615 . S
C649 C1 1.576 . S
C654 N104 1.581 . S
