# Generated by pormake.
# Topology llj, (12,3)-cn, num edge types: 1
# Building blocks:
#     Node 0, Type 0, BuildingBlock: QEWDON_clean_sbu_0, # of connection points: 12
#     Node 1, Type 0, BuildingBlock: QEWDON_clean_sbu_0, # of connection points: 12
#     Node 2, Type 1, BuildingBlock: BETDIP_clean_linker_0, # of connection points: 3
#     Node 3, Type 1, BuildingBlock: BETDIP_clean_linker_0, # of connection points: 3
#     Node 4, Type 1, BuildingBlock: BETDIP_clean_linker_0, # of connection points: 3
#     Node 5, Type 1, BuildingBlock: BETDIP_clean_linker_0, # of connection points: 3
#     Node 6, Type 1, BuildingBlock: BETDIP_clean_linker_0, # of connection points: 3
#     Node 7, Type 1, BuildingBlock: BETDIP_clean_linker_0, # of connection points: 3
#     Node 8, Type 1, BuildingBlock: BETDIP_clean_linker_0, # of connection points: 3
#     Node 9, Type 1, BuildingBlock: BETDIP_clean_linker_0, # of connection points: 3
#     Edge 10, Type (0, 1), BuildingBlock: EZIPEK_clean_linker_0, # of connection points: 2
#     Edge 11, Type (0, 1), BuildingBlock: EZIPEK_clean_linker_0, # of connection points: 2
#     Edge 12, Type (0, 1), BuildingBlock: EZIPEK_clean_linker_0, # of connection points: 2
#     Edge 13, Type (0, 1), BuildingBlock: EZIPEK_clean_linker_0, # of connection points: 2
#     Edge 14, Type (0, 1), BuildingBlock: EZIPEK_clean_linker_0, # of connection points: 2
#     Edge 15, Type (0, 1), BuildingBlock: EZIPEK_clean_linker_0, # of connection points: 2
#     Edge 16, Type (0, 1), BuildingBlock: EZIPEK_clean_linker_0, # of connection points: 2
#     Edge 17, Type (0, 1), BuildingBlock: EZIPEK_clean_linker_0, # of connection points: 2
#     Edge 18, Type (0, 1), BuildingBlock: EZIPEK_clean_linker_0, # of connection points: 2
#     Edge 19, Type (0, 1), BuildingBlock: EZIPEK_clean_linker_0, # of connection points: 2
#     Edge 20, Type (0, 1), BuildingBlock: EZIPEK_clean_linker_0, # of connection points: 2
#     Edge 21, Type (0, 1), BuildingBlock: EZIPEK_clean_linker_0, # of connection points: 2
#     Edge 22, Type (0, 1), BuildingBlock: EZIPEK_clean_linker_0, # of connection points: 2
#     Edge 23, Type (0, 1), BuildingBlock: EZIPEK_clean_linker_0, # of connection points: 2
#     Edge 24, Type (0, 1), BuildingBlock: EZIPEK_clean_linker_0, # of connection points: 2
#     Edge 25, Type (0, 1), BuildingBlock: EZIPEK_clean_linker_0, # of connection points: 2
#     Edge 26, Type (0, 1), BuildingBlock: EZIPEK_clean_linker_0, # of connection points: 2
#     Edge 27, Type (0, 1), BuildingBlock: EZIPEK_clean_linker_0, # of connection points: 2
#     Edge 28, Type (0, 1), BuildingBlock: EZIPEK_clean_linker_0, # of connection points: 2
#     Edge 29, Type (0, 1), BuildingBlock: EZIPEK_clean_linker_0, # of connection points: 2
#     Edge 30, Type (0, 1), BuildingBlock: EZIPEK_clean_linker_0, # of connection points: 2
#     Edge 31, Type (0, 1), BuildingBlock: EZIPEK_clean_linker_0, # of connection points: 2
#     Edge 32, Type (0, 1), BuildingBlock: EZIPEK_clean_linker_0, # of connection points: 2
#     Edge 33, Type (0, 1), BuildingBlock: EZIPEK_clean_linker_0, # of connection points: 2
# Relax obj value: 0.010
# Max RMSD: 0.094
# Mean RMSD: 0.081
data_MOF--net-llj--node1-QEWDON_clean_sbu_0--node2-BETDIP_clean_linker_0--edge1-EZIPEK_clean_linker_0
_symmetry_space_group_name_H-M    P1
_symmetry_Int_Tables_number       1
_symmetry_cell_setting            triclinic
loop_
_symmetry_equiv_pos_as_xyz
'x, y, z'
_cell_length_a     30.452933
_cell_length_b     30.547389
_cell_length_c     18.522167
_cell_angle_alpha  90.398318
_cell_angle_beta   91.503684
_cell_angle_gamma 90.391049
loop_
_atom_site_label
_atom_site_type_symbol
_atom_site_fract_x
_atom_site_fract_y
_atom_site_fract_z
_atom_type_partial_charge
Zn0 Zn 0.96182 0.09669 0.93847 0.0
Zn1 Zn 0.9594 0.08663 0.10895 0.0
O2 O 0.98661 0.06134 0.02172 0.0
H3 H 0.00855 0.03872 0.01952 0.0
C4 C 0.88618 0.03798 0.85087 0.0
O5 O 0.92582 0.02619 0.87198 0.0
Zn6 Zn 0.0497 0.90848 0.14917 0.0
Zn7 Zn 0.04294 0.90446 0.97909 0.0
O8 O 0.01598 0.93239 0.06558 0.0
H9 H 0.00631 0.96238 0.06643 0.0
Zn10 Zn 0.85845 -0.00121 0.98966 0.0
O11 O 0.91916 0.98587 0.03201 0.0
Zn12 Zn 0.90001 0.95065 0.1167 0.0
H13 H 0.94363 0.97942 0.00169 0.0
Zn14 Zn 0.17164 0.98655 -0.00106 0.0
O15 O 0.10996 0.99142 0.038 0.0
H16 H 0.08269 0.98536 0.01192 0.0
Zn17 Zn 0.11944 0.03583 0.11633 0.0
C18 C 0.14821 0.93852 0.86703 0.0
O19 O 0.10924 0.9537 0.88205 0.0
O20 O 0.9259 0.15062 0.96785 0.0
O21 O 0.92754 0.14311 0.08724 0.0
O22 O 0.07649 0.84842 0.00437 0.0
O23 O 0.07958 0.8515 0.1247 0.0
O24 O 0.81685 0.94557 -0.00192 0.0
O25 O 0.8539 0.90612 0.07981 0.0
C26 C 0.04532 0.08489 0.18783 0.0
O27 O 0.20643 0.04506 0.00416 0.0
O28 O 0.16496 0.07939 0.08368 0.0
O29 O 0.0044 0.90223 0.88653 0.0
C30 C 0.91605 0.16393 0.0306 0.0
O31 O -0.00133 0.10158 0.84731 0.0
C32 C 0.96903 0.91116 0.22553 0.0
O33 O 0.85388 0.03142 0.89163 0.0
C34 C 0.08772 0.83239 0.06519 0.0
O35 O 0.18054 0.94648 0.90997 0.0
C36 C 0.88508 0.03097 0.18951 0.0
O37 O 0.00611 0.09845 0.18461 0.0
O38 O 0.06078 0.06474 0.13375 0.0
C39 C 0.822 0.91061 0.0343 0.0
O40 O 0.00913 0.89997 0.23124 0.0
O41 O 0.95471 0.92456 0.1643 0.0
C42 C 0.12337 0.96819 0.21516 0.0
O43 O 0.8726 0.99119 0.18678 0.0
O44 O 0.91637 0.04195 0.14868 0.0
C45 C 0.19718 0.0789 0.04124 0.0
O46 O 0.14177 0.00494 0.20519 0.0
O47 O 0.09289 0.9565 0.1711 0.0
C48 C 0.96503 0.88898 0.89198 0.0
O49 O 0.95072 0.87776 0.95553 0.0
C50 C 0.0403 0.10345 0.8527 0.0
O51 O 0.05984 0.10136 0.91664 0.0
Zn52 Zn 0.44974 0.57368 0.40866 0.0
Zn53 Zn 0.43981 0.58554 0.57717 0.0
O54 O 0.47799 0.55804 0.50407 0.0
H55 H 0.49467 0.5317 0.5122 0.0
C56 C 0.35453 0.52721 0.30979 0.0
O57 O 0.38912 0.50294 0.32319 0.0
Zn58 Zn 0.54329 0.40589 0.57847 0.0
Zn59 Zn 0.54663 0.39801 0.40657 0.0
O60 O 0.51379 0.42629 0.48836 0.0
H61 H 0.49436 0.45104 0.48461 0.0
Zn62 Zn 0.33667 0.50463 0.45736 0.0
O63 O 0.39977 0.49342 0.49074 0.0
Zn64 Zn 0.38798 0.45043 0.56859 0.0
H65 H 0.42456 0.4926 0.45929 0.0
Zn66 Zn 0.64384 0.52701 0.44805 0.0
O67 O 0.58661 0.51761 0.49887 0.0
H68 H 0.56335 0.49745 0.48486 0.0
Zn69 Zn 0.59486 0.55157 0.59174 0.0
C70 C 0.6368 0.47894 0.30311 0.0
O71 O 0.59892 0.46195 0.32101 0.0
O72 O 0.39099 0.60573 0.41817 0.0
O73 O 0.39503 0.62731 0.53315 0.0
O74 O 0.58918 0.34866 0.44021 0.0
O75 O 0.58299 0.35551 0.55946 0.0
O76 O 0.29762 0.44974 0.464 0.0
O77 O 0.3417 0.40806 0.53148 0.0
C78 C 0.5193 0.60316 0.66223 0.0
O79 O 0.68056 0.57886 0.48467 0.0
O80 O 0.64259 0.59752 0.58111 0.0
O81 O 0.51051 0.38951 0.31103 0.0
C82 C 0.37634 0.62764 0.47074 0.0
O83 O 0.49017 0.59582 0.32891 0.0
C84 C 0.45875 0.39947 0.64805 0.0
O85 O 0.32745 0.53454 0.35925 0.0
C86 C 0.59855 0.33655 0.50454 0.0
O87 O 0.65792 0.50414 0.34649 0.0
C88 C 0.37247 0.52245 0.65817 0.0
O89 O 0.47894 0.61295 0.65512 0.0
O90 O 0.53642 0.57933 0.614 0.0
C91 C 0.30682 0.41329 0.49328 0.0
O92 O 0.4981 0.38654 0.64882 0.0
O93 O 0.44455 0.42069 0.59363 0.0
C94 C 0.60858 0.46988 0.6664 0.0
O95 O 0.3636 0.48191 0.65309 0.0
O96 O 0.40293 0.5368 0.61858 0.0
C97 C 0.67402 0.60386 0.5383 0.0
O98 O 0.61762 0.51055 0.66812 0.0
O99 O 0.57847 0.45697 0.6218 0.0
C100 C 0.47509 0.41057 0.29991 0.0
O101 O 0.46217 0.43895 0.3483 0.0
C102 C 0.52359 0.57571 0.30642 0.0
O103 O 0.53463 0.53795 0.33481 0.0
H104 H 0.33486 0.3019 0.86784 0.0
H105 H 0.32725 0.31825 0.09789 0.0
H106 H 0.40753 0.40522 0.97706 0.0
H107 H 0.31858 0.24523 0.09063 0.0
C108 C 0.29684 0.24025 0.04386 0.0
C109 C 0.34305 0.32049 0.91645 0.0
C110 C 0.37154 0.35685 0.91341 0.0
C111 C 0.32647 0.3066 0.9823 0.0
C112 C 0.33902 0.32897 0.04625 0.0
C113 C 0.37059 0.3626 0.04491 0.0
C114 C 0.38409 0.37838 0.97815 0.0
N115 N 0.30002 0.26811 0.98306 0.0
H116 H 0.74611 0.35542 0.87061 0.0
H117 H 0.75285 0.37898 0.09805 0.0
H118 H 0.66709 0.45503 0.96097 0.0
H119 H 0.81363 0.34141 0.09951 0.0
C120 C 0.8127 0.32078 0.05163 0.0
C121 C 0.73692 0.37467 0.91717 0.0
C122 C 0.70575 0.40765 0.90945 0.0
C123 C 0.75521 0.36535 0.98495 0.0
C124 C 0.74222 0.38978 0.0453 0.0
C125 C 0.71376 0.42616 0.03829 0.0
C126 C 0.69368 0.4325 0.96951 0.0
N127 N 0.78542 0.33022 0.99046 0.0
H128 H 0.64166 0.706 0.12132 0.0
H129 H 0.63297 0.72191 0.89102 0.0
H130 H 0.57652 0.60813 0.98932 0.0
H131 H 0.69842 0.75764 0.90912 0.0
C132 C 0.69634 0.77337 0.96163 0.0
C133 C 0.63209 0.69333 0.06835 0.0
C134 C 0.60726 0.65473 0.06227 0.0
C135 C 0.64383 0.71632 0.00665 0.0
C136 C 0.62773 0.7021 0.93826 0.0
C137 C 0.6036 0.66269 0.93103 0.0
C138 C 0.59541 0.63831 -0.00646 0.0
N139 N 0.67051 0.75436 0.01604 0.0
H140 H 0.23498 0.63134 0.86014 0.0
H141 H 0.24113 0.6182 0.0915 0.0
H142 H 0.32882 0.54474 0.96106 0.0
H143 H 0.16946 0.64003 0.08168 0.0
C144 C 0.17404 0.66616 0.04309 0.0
C145 C 0.24874 0.61616 0.90831 0.0
C146 C 0.28329 0.58626 0.90278 0.0
C147 C 0.23232 0.62701 0.97596 0.0
C148 C 0.25162 0.60863 0.0383 0.0
C149 C 0.28614 0.57901 0.03278 0.0
C150 C 0.30161 0.56727 0.96507 0.0
N151 N 0.19888 0.65892 0.98036 0.0
H152 H 0.84774 0.81588 0.42601 0.0
H153 H 0.83646 0.80798 0.65607 0.0
H154 H 0.90898 0.91372 0.56565 0.0
H155 H 0.82749 0.73705 0.62945 0.0
C156 C 0.80467 0.73887 0.58356 0.0
C157 C 0.85409 0.82996 0.47916 0.0
C158 C 0.87995 0.8683 0.4873 0.0
C159 C 0.83733 0.8086 0.53921 0.0
C160 C 0.84772 0.82468 0.60858 0.0
C161 C 0.87494 0.86124 0.61796 0.0
C162 C 0.88849 0.88486 0.5576 0.0
N163 N 0.81116 0.77035 0.52869 0.0
H164 H 0.191 0.79055 0.63109 0.0
H165 H 0.18757 0.80422 0.40133 0.0
H166 H 0.14751 0.91017 0.53801 0.0
H167 H 0.19755 0.73257 0.3971 0.0
C168 C 0.21613 0.72594 0.44649 0.0
C169 C 0.18432 0.81015 0.58352 0.0
C170 C 0.16942 0.85293 0.59094 0.0
C171 C 0.19086 0.79251 0.51508 0.0
C172 C 0.18458 0.819 0.45371 0.0
C173 C 0.1745 0.86403 0.46044 0.0
C174 C 0.16225 0.87859 0.52964 0.0
N175 N 0.20803 0.74952 0.51096 0.0
H176 H 0.16798 0.19455 0.63635 0.0
H177 H 0.15996 0.18799 0.40498 0.0
H178 H 0.10068 0.08674 0.5309 0.0
H179 H 0.1654 0.26233 0.4204 0.0
C180 C 0.19169 0.26401 0.46109 0.0
C181 C 0.1586 0.17689 0.58729 0.0
C182 C 0.1325 0.13912 0.59097 0.0
C183 C 0.16896 0.19444 0.52049 0.0
C184 C 0.15345 0.17366 0.45691 0.0
C185 C 0.12919 0.1344 0.45976 0.0
C186 C 0.12055 0.11621 0.52754 0.0
N187 N 0.19347 0.23398 0.51905 0.0
H188 H 0.7536 0.13206 0.40167 0.0
H189 H 0.76247 0.12436 0.63309 0.0
H190 H 0.86472 0.07009 0.50454 0.0
H191 H 0.72733 0.18917 0.62556 0.0
C192 C 0.70743 0.18885 0.57611 0.0
C193 C 0.77086 0.12153 0.45042 0.0
C194 C 0.81009 0.09834 0.4455 0.0
C195 C 0.75434 0.13239 0.5176 0.0
C196 C 0.77613 0.11794 0.58074 0.0
C197 C 0.81628 0.09567 0.57668 0.0
C198 C 0.83355 0.08677 0.50856 0.0
N199 N 0.71684 0.15945 0.51916 0.0
C200 C 0.26853 0.11949 0.05969 0.0
C201 C 0.22401 0.11913 0.0353 0.0
C202 C 0.22656 0.19856 0.01843 0.0
C203 C 0.27192 0.19849 0.03797 0.0
N204 N 0.3384 0.15784 0.06186 0.0
N205 N 0.16326 0.15609 0.97669 0.0
C206 C 0.29362 0.15862 0.05416 0.0
C207 C 0.20381 0.15804 0.01009 0.0
N208 N 0.28634 0.08311 0.09117 0.0
N209 N 0.20458 0.23726 0.01173 0.0
H210 H 0.14589 0.12682 0.96881 0.0
H211 H 0.14879 0.18266 0.95063 0.0
H212 H 0.2197 0.26772 0.01944 0.0
H213 H 0.17057 0.23914 0.00527 0.0
H214 H 0.31697 0.08312 0.11754 0.0
H215 H 0.2691 0.05374 0.09637 0.0
H216 H 0.35631 0.129 0.06619 0.0
H217 H 0.35813 0.18564 0.0568 0.0
C218 C 0.85093 0.20414 0.07729 0.0
C219 C 0.89049 0.20462 0.03819 0.0
C220 C 0.87873 0.28159 0.00719 0.0
C221 C 0.84085 0.28169 0.05004 0.0
N222 N 0.79539 0.24649 0.13731 0.0
N223 N 0.94724 0.24604 0.98 0.0
C224 C 0.82854 0.24407 0.08908 0.0
C225 C 0.90584 0.24396 0.00679 0.0
N226 N 0.83339 0.16531 0.09956 0.0
N227 N 0.88878 0.31743 0.96686 0.0
H228 H 0.96882 0.21969 0.98109 0.0
H229 H 0.96189 0.27498 0.96318 0.0
H230 H 0.8713 0.34664 0.96923 0.0
H231 H 0.91277 0.31736 0.92779 0.0
H232 H 0.80245 0.16257 0.12184 0.0
H233 H 0.84765 0.13501 0.08954 0.0
H234 H 0.78814 0.22148 0.1731 0.0
H235 H 0.77746 0.27497 0.14583 0.0
C236 C 0.80445 0.83603 0.98319 0.0
C237 C 0.79069 0.87402 0.02063 0.0
C238 C 0.71446 0.84766 0.01422 0.0
C239 C 0.72874 0.80815 0.98188 0.0
N240 N 0.78825 0.76106 0.94795 0.0
N241 N 0.73447 0.91286 0.08338 0.0
C242 C 0.77401 0.8013 0.96966 0.0
C243 C 0.74619 0.87888 0.03965 0.0
N244 N 0.84615 0.8338 0.95802 0.0
N245 N 0.67057 0.85638 0.01736 0.0
H246 H 0.75696 0.93623 0.10317 0.0
H247 H 0.70347 0.91568 0.10535 0.0
H248 H 0.64631 0.83488 -0.00247 0.0
H249 H 0.65825 0.88654 0.03331 0.0
H250 H 0.85644 0.8096 0.92251 0.0
H251 H 0.86961 0.85816 0.96812 0.0
H252 H 0.82133 0.75281 0.94584 0.0
H253 H 0.7672 0.73447 0.93831 0.0
C254 C 0.08696 0.75136 0.08114 0.0
C255 C 0.11066 0.7902 0.06611 0.0
C256 C 0.17749 0.74795 0.0495 0.0
C257 C 0.15249 0.70878 0.05445 0.0
N258 N 0.08261 0.67243 0.06832 0.0
N259 N 0.17705 0.82608 0.02866 0.0
C260 C 0.10705 0.71017 0.06935 0.0
C261 C 0.15553 0.7887 0.04803 0.0
N262 N 0.04522 0.75385 0.10631 0.0
N263 N 0.22238 0.74639 0.05028 0.0
H264 H 0.16268 0.85698 0.03001 0.0
H265 H 0.20818 0.82608 0.0066 0.0
H266 H 0.23983 0.71728 0.05545 0.0
H267 H 0.24237 0.77414 0.05389 0.0
H268 H 0.02808 0.72702 0.12586 0.0
H269 H 0.02877 0.78339 0.11283 0.0
H270 H 0.04848 0.67181 0.07056 0.0
H271 H 0.09597 0.64158 0.05937 0.0
C272 C 0.74869 0.62751 0.58003 0.0
C273 C 0.70609 0.63895 0.55448 0.0
C274 C 0.72629 0.71649 0.55876 0.0
C275 C 0.77048 0.70459 0.57454 0.0
N276 N 0.82528 0.64846 0.59124 0.0
N277 N 0.65482 0.69329 0.51158 0.0
C278 C 0.78212 0.66001 0.5833 0.0
C279 C 0.69491 0.6832 0.54173 0.0
N280 N 0.75689 0.58577 0.60273 0.0
N281 N 0.71382 0.75931 0.56359 0.0
H282 H 0.63072 0.66973 0.4996 0.0
H283 H 0.64672 0.72452 0.49355 0.0
H284 H 0.73544 0.78449 0.57904 0.0
H285 H 0.68123 0.7693 0.55964 0.0
H286 H 0.78596 0.57666 0.6292 0.0
H287 H 0.73307 0.56102 0.60123 0.0
H288 H 0.83594 0.61613 0.58987 0.0
H289 H 0.85105 0.67111 0.59261 0.0
C290 C 0.29732 0.63709 0.49958 0.0
C291 C 0.33435 0.65094 0.46056 0.0
C292 C 0.2898 0.70664 0.39899 0.0
C293 C 0.25472 0.69675 0.4453 0.0
N294 N 0.22398 0.65297 0.53964 0.0
N295 N 0.36771 0.70035 0.37678 0.0
C296 C 0.25819 0.66207 0.49565 0.0
C297 C 0.33099 0.68575 0.41045 0.0
N298 N 0.29889 0.59882 0.53751 0.0
N299 N 0.28396 0.7363 0.34464 0.0
H300 H 0.39851 0.68611 0.3842 0.0
H301 H 0.36868 0.72863 0.34583 0.0
H302 H 0.25504 0.75379 0.33628 0.0
H303 H 0.30651 0.74129 0.30419 0.0
H304 H 0.27166 0.5845 0.56081 0.0
H305 H 0.32662 0.579 0.54035 0.0
H306 H 0.22655 0.6325 0.58426 0.0
H307 H 0.19314 0.66729 0.53321 0.0
C308 C 0.29247 0.33687 0.44945 0.0
C309 C 0.2767 0.37578 0.48181 0.0
C310 C 0.20327 0.34328 0.48892 0.0
C311 C 0.22038 0.30297 0.46456 0.0
N312 N 0.28164 0.25914 0.42815 0.0
N313 N 0.21927 0.41418 0.54302 0.0
C314 C 0.26516 0.29905 0.44687 0.0
C315 C 0.23255 0.3787 0.50399 0.0
N316 N 0.33271 0.33668 0.41829 0.0
N317 N 0.15908 0.34766 0.49786 0.0
H318 H 0.24001 0.44039 0.55685 0.0
H319 H 0.18891 0.41597 0.56739 0.0
H320 H 0.13677 0.32193 0.48958 0.0
H321 H 0.14412 0.37757 0.5079 0.0
H322 H 0.34408 0.3107 0.38743 0.0
H323 H 0.35325 0.36412 0.41732 0.0
H324 H 0.31505 0.2532 0.42311 0.0
H325 H 0.26211 0.23108 0.42211 0.0
C326 C 0.61164 0.25597 0.50441 0.0
C327 C 0.62777 0.29905 0.51755 0.0
C328 C 0.69701 0.2699 0.56659 0.0
C329 C 0.67939 0.22691 0.55919 0.0
N330 N 0.61768 0.17896 0.53343 0.0
N331 N 0.68306 0.34787 0.56908 0.0
C332 C 0.63614 0.21986 0.53105 0.0
C333 C 0.66961 0.30626 0.55124 0.0
N334 N 0.57277 0.24958 0.46705 0.0
N335 N 0.74051 0.27602 0.58445 0.0
H336 H 0.66544 0.37571 0.55418 0.0
H337 H 0.71038 0.35474 0.60233 0.0
H338 H 0.76208 0.25038 0.59516 0.0
H339 H 0.7563 0.30632 0.58261 0.0
H340 H 0.56181 0.21903 0.44861 0.0
H341 H 0.55273 0.27517 0.44966 0.0
H342 H 0.58477 0.17242 0.5208 0.0
H343 H 0.63418 0.15195 0.5547 0.0
C344 C 0.04713 0.08482 0.32236 0.0
C345 C 0.06991 0.09095 0.25729 0.0
C346 C 0.13497 0.11193 0.32888 0.0
C347 C 0.10936 0.11545 0.39174 0.0
N348 N 0.03549 0.11672 0.43889 0.0
N349 N 0.13204 0.12443 0.20075 0.0
C350 C 0.06382 0.10479 0.38641 0.0
C351 C 0.11319 0.10796 0.26069 0.0
N352 N 0.00996 0.05959 0.32353 0.0
N353 N 0.17973 0.11249 0.33381 0.0
H354 H 0.11478 0.12705 0.15161 0.0
H355 H 0.16256 0.14021 0.20269 0.0
H356 H 0.19685 0.11299 0.38336 0.0
H357 H 0.19914 0.10754 0.28892 0.0
H358 H 0.9943 0.05212 0.37138 0.0
H359 H -0.00192 0.04215 0.27838 0.0
H360 H 0.0016 0.11198 0.43314 0.0
H361 H 0.04462 0.13636 0.48297 0.0
C362 C 0.81849 0.04926 0.2577 0.0
C363 C 0.86211 0.06088 0.24083 0.0
C364 C 0.86573 0.10769 0.34948 0.0
C365 C 0.82703 0.08713 0.37362 0.0
N366 N 0.76771 0.03522 0.35274 0.0
N367 N 0.92339 0.10958 0.26309 0.0
C368 C 0.8033 0.05743 0.32796 0.0
C369 C 0.88461 0.09284 0.28438 0.0
N370 N 0.79139 0.03089 0.2057 0.0
N371 N 0.88335 0.14256 0.38729 0.0
H372 H 0.93116 0.10868 0.20933 0.0
H373 H 0.94562 0.12663 0.29679 0.0
H374 H 0.86969 0.15486 0.43428 0.0
H375 H 0.90923 0.16164 0.36955 0.0
H376 H 0.75818 0.02477 0.21322 0.0
H377 H 0.80126 0.02685 0.15249 0.0
H378 H 0.75218 0.00986 0.32369 0.0
H379 H 0.75616 0.03911 0.40492 0.0
C380 C 0.96327 0.91862 0.35921 0.0
C381 C 0.94204 0.90991 0.29152 0.0
C382 C 0.8756 0.89199 0.35659 0.0
C383 C 0.90059 0.88817 0.42221 0.0
N384 N 0.97416 0.8888 0.47748 0.0
N385 N 0.87863 0.87831 0.22873 0.0
C386 C 0.94606 0.89959 0.42191 0.0
C387 C 0.89798 0.89452 0.2905 0.0
N388 N 0.00019 0.9442 0.36378 0.0
N389 N 0.83084 0.89286 0.35698 0.0
H390 H 0.89595 0.8737 0.18166 0.0
H391 H 0.84737 0.86409 0.22759 0.0
H392 H 0.81352 0.89333 0.40487 0.0
H393 H 0.8118 0.89821 0.31025 0.0
H394 H 0.01501 0.9532 0.41317 0.0
H395 H 0.01249 0.96052 0.31921 0.0
H396 H 0.00797 0.89418 0.47547 0.0
H397 H 0.96517 0.86931 0.52042 0.0
C398 C 0.13691 0.95927 0.3471 0.0
C399 C 0.13797 0.94097 0.27677 0.0
C400 C 0.18263 0.88075 0.32466 0.0
C401 C 0.17308 0.89473 0.39587 0.0
N402 N 0.1779 0.96389 0.45914 0.0
N403 N 0.16509 0.88517 0.1966 0.0
C404 C 0.16065 0.93904 0.40377 0.0
C405 C 0.16163 0.90177 0.2648 0.0
N406 N 0.11264 -0.00439 0.36048 0.0
N407 N 0.21768 0.8541 0.31402 0.0
H408 H 0.15294 0.90121 0.15084 0.0
H409 H 0.17769 0.85417 0.18622 0.0
H410 H 0.23939 0.8461 0.35641 0.0
H411 H 0.22892 0.84564 0.26321 0.0
H412 H 0.10877 0.00812 0.41247 0.0
H413 H 0.09295 0.00995 0.32059 0.0
H414 H 0.1727 -0.00247 0.46337 0.0
H415 H 0.20212 0.9517 0.49443 0.0
C416 C 0.12746 0.87895 0.77808 0.0
C417 C 0.15488 0.91512 0.79788 0.0
C418 C 0.19607 0.90504 0.68732 0.0
C419 C 0.16512 0.87282 0.66355 0.0
N420 N 0.09753 0.83327 0.68111 0.0
N421 N 0.21003 0.96807 0.76406 0.0
C422 C 0.12973 0.86083 0.70751 0.0
C423 C 0.18795 0.92961 0.75072 0.0
N424 N 0.1006 0.86065 0.82762 0.0
N425 N 0.23373 0.91157 0.65012 0.0
H426 H 0.20406 0.98834 0.80814 0.0
H427 H 0.231 0.98232 0.72725 0.0
H428 H 0.24112 0.89395 0.6036 0.0
H429 H 0.25956 0.93136 0.66927 0.0
H430 H 0.08387 0.83117 0.81879 0.0
H431 H 0.09868 0.8725 0.88024 0.0
H432 H 0.0685 0.82731 0.70791 0.0
H433 H 0.09814 0.8192 0.62967 0.0
C434 C 0.09953 0.08432 0.76577 0.0
C435 C 0.06594 0.1131 0.788 0.0
C436 C 0.07392 0.15606 0.6783 0.0
C437 C 0.10986 0.12948 0.65883 0.0
N438 N 0.16142 0.07256 0.68804 0.0
N439 N 0.02889 0.18234 0.7747 0.0
C440 C 0.12408 0.09481 0.70383 0.0
C441 C 0.05528 0.15069 0.74686 0.0
N442 N 0.10659 0.04601 0.80173 0.0
N443 N 0.05673 0.18573 0.6305 0.0
H444 H 0.01587 0.18057 0.82613 0.0
H445 H 0.02376 0.21253 0.75011 0.0
H446 H 0.06945 0.19117 0.5796 0.0
H447 H 0.02742 0.20215 0.63873 0.0
H448 H 0.127 0.02148 0.78303 0.0
H449 H 0.0892 0.03712 0.84714 0.0
H450 H 0.17631 0.05037 0.7232 0.0
H451 H 0.17951 0.07886 0.64213 0.0
C452 C 0.87884 0.02763 0.71712 0.0
C453 C 0.87771 0.05591 0.77786 0.0
C454 C 0.84903 0.11384 0.69979 0.0
C455 C 0.84033 0.08241 0.64416 0.0
N456 N 0.84041 0.00608 0.60711 0.0
N457 N 0.85898 0.12614 0.82835 0.0
C458 C 0.85383 0.03838 0.65428 0.0
C459 C 0.86204 0.0992 0.76963 0.0
N460 N 0.90355 0.9906 0.71896 0.0
N461 N 0.84626 0.15756 0.68547 0.0
H462 H 0.86926 0.11677 0.88003 0.0
H463 H 0.84351 0.15646 0.82631 0.0
H464 H 0.8393 0.16954 0.63385 0.0
H465 H 0.85576 0.18172 0.72279 0.0
H466 H 0.9083 0.97125 0.67327 0.0
H467 H 0.92338 0.98229 0.76333 0.0
H468 H 0.84671 0.97305 0.61624 0.0
H469 H 0.81885 0.01145 0.56352 0.0
C470 C 0.95625 0.84937 0.77488 0.0
C471 C 0.93874 0.87885 0.82571 0.0
C472 C 0.87506 0.89153 0.74469 0.0
C473 C 0.89653 0.868 0.68976 0.0
N474 N 0.95687 0.823 0.65172 0.0
N475 N 0.88092 0.92698 0.86242 0.0
C476 C 0.93695 0.8465 0.70466 0.0
C477 C 0.89753 0.8991 0.81216 0.0
N478 N 0.98954 0.82194 0.79556 0.0
N479 N 0.83338 0.90652 0.73202 0.0
H480 H 0.89662 0.93343 0.91201 0.0
H481 H 0.8528 0.94551 0.854 0.0
H482 H 0.81697 0.90294 0.68215 0.0
H483 H 0.81392 0.92019 0.77151 0.0
H484 H 0.00045 0.79617 0.76375 0.0
H485 H 0.00312 0.82166 0.84785 0.0
H486 H 0.9891 0.81201 0.65618 0.0
H487 H 0.94203 0.81609 0.60156 0.0
C488 C 0.52236 0.61093 0.79617 0.0
C489 C 0.5433 0.61661 0.72953 0.0
C490 C 0.60696 0.64802 0.79492 0.0
C491 C 0.58304 0.64852 0.85995 0.0
N492 N 0.51024 0.6465 0.90949 0.0
N493 N 0.59921 0.65552 0.66556 0.0
C494 C 0.53841 0.63451 0.85706 0.0
C495 C 0.58397 0.63933 0.72852 0.0
N496 N 0.48729 0.58317 0.80195 0.0
N497 N 0.65137 0.65416 0.79589 0.0
H498 H 0.5817 0.65218 0.61661 0.0
H499 H 0.62688 0.67577 0.66397 0.0
H500 H 0.67006 0.65724 0.84362 0.0
H501 H 0.6698 0.65113 0.74941 0.0
H502 H 0.47303 0.57658 0.85136 0.0
H503 H 0.47588 0.56322 0.75942 0.0
H504 H 0.47679 0.63895 0.90682 0.0
H505 H 0.51915 0.66952 0.94885 0.0
C506 C 0.36189 0.58549 0.74723 0.0
C507 C 0.34453 0.54999 0.70587 0.0
C508 C 0.28083 0.54649 0.78405 0.0
C509 C 0.30229 0.57657 0.83195 0.0
N510 N 0.36283 0.6257 0.86031 0.0
N511 N 0.27828 0.51313 0.66485 0.0
C512 C 0.34261 0.59658 0.81367 0.0
C513 C 0.30099 0.53546 0.71823 0.0
N514 N 0.39323 0.61164 0.71919 0.0
N515 N 0.2426 0.52656 0.80342 0.0
H516 H 0.29127 0.50783 0.61394 0.0
H517 H 0.24521 0.50467 0.66749 0.0
H518 H 0.22659 0.53415 0.85096 0.0
H519 H 0.22826 0.5004 0.77499 0.0
H520 H 0.40602 0.63965 0.74452 0.0
H521 H 0.39973 0.60971 0.66484 0.0
H522 H 0.39499 0.63669 0.85461 0.0
H523 H 0.34831 0.63714 0.90713 0.0
C524 C 0.45525 0.39916 0.78199 0.0
C525 C 0.43324 0.3931 0.71431 0.0
C526 C 0.36736 0.37215 0.7782 0.0
C527 C 0.39233 0.36944 0.84412 0.0
N528 N 0.46604 0.36524 0.89729 0.0
N529 N 0.37166 0.3598 0.64984 0.0
C530 C 0.43812 0.37866 0.84309 0.0
C531 C 0.38997 0.37589 0.71245 0.0
N532 N 0.49227 0.42447 0.78849 0.0
N533 N 0.32258 0.37234 0.77773 0.0
H534 H 0.38935 0.35765 0.6025 0.0
H535 H 0.34113 0.34406 0.64779 0.0
H536 H 0.30472 0.37313 0.82499 0.0
H537 H 0.30384 0.37695 0.73044 0.0
H538 H 0.50765 0.43114 0.83842 0.0
H539 H 0.50427 0.44262 0.74563 0.0
H540 H 0.50001 0.36944 0.895 0.0
H541 H 0.45608 0.34494 0.93892 0.0
C542 C 0.68188 0.45108 0.7206 0.0
C543 C 0.63654 0.44061 0.71307 0.0
C544 C 0.64057 0.39898 0.82558 0.0
C545 C 0.6838 0.41518 0.83841 0.0
N546 N 0.74676 0.45606 0.79923 0.0
N547 N 0.58158 0.38701 0.73847 0.0
C548 C 0.70522 0.44029 0.78546 0.0
C549 C 0.61816 0.40949 0.75998 0.0
N550 N 0.70261 0.47003 0.66405 0.0
N551 N 0.62058 0.37439 0.87687 0.0
H552 H 0.57091 0.38886 0.68543 0.0
H553 H 0.56731 0.36175 0.76734 0.0
H554 H 0.63689 0.3636 0.92361 0.0
H555 H 0.58722 0.36662 0.87505 0.0
H556 H 0.73633 0.47558 0.66278 0.0
H557 H 0.68631 0.47601 0.61483 0.0
H558 H 0.76233 0.47877 0.76681 0.0
H559 H 0.76502 0.44842 0.84581 0.0
C560 C 0.63911 0.48331 0.16799 0.0
C561 C 0.65733 0.46766 0.23415 0.0
C562 C 0.72374 0.44659 0.17161 0.0
C563 C 0.70132 0.45264 0.10457 0.0
N564 N 0.65893 0.51102 0.05196 0.0
N565 N 0.71726 0.43246 0.29884 0.0
C566 C 0.66437 0.48061 0.1049 0.0
C567 C 0.70001 0.44922 0.23614 0.0
N568 N 0.59821 0.50129 0.16501 0.0
N569 N 0.76843 0.44364 0.17384 0.0
H570 H 0.70029 0.43222 0.34707 0.0
H571 H 0.74657 0.41503 0.30096 0.0
H572 H 0.7867 0.44703 0.12723 0.0
H573 H 0.78707 0.44334 0.22186 0.0
H574 H 0.58265 0.50999 0.1164 0.0
H575 H 0.57872 0.50438 0.21012 0.0
H576 H 0.63482 0.53507 0.05302 0.0
H577 H 0.68314 0.51633 0.01398 0.0
C578 C 0.59324 0.59879 0.24458 0.0
C579 C 0.54683 0.59331 0.24351 0.0
C580 C 0.54145 0.63557 0.13305 0.0
C581 C 0.58765 0.63497 0.12716 0.0
N582 N 0.65783 0.60944 0.17262 0.0
N583 N 0.479 0.59479 0.17287 0.0
C584 C 0.61383 0.61457 0.18155 0.0
C585 C 0.52156 0.60806 0.18343 0.0
N586 N 0.61742 0.59108 0.30619 0.0
N587 N 0.51665 0.66428 0.09373 0.0
H588 H 0.46421 0.57185 0.20599 0.0
H589 H 0.46073 0.60237 0.12625 0.0
H590 H 0.53091 0.68892 0.06328 0.0
H591 H 0.48285 0.66739 0.09982 0.0
H592 H 0.65079 0.5986 0.3114 0.0
H593 H 0.60338 0.58096 0.35408 0.0
H594 H 0.67746 0.59087 0.20754 0.0
H595 H 0.67376 0.6205 0.12694 0.0
C596 C 0.35709 0.5768 0.20323 0.0
C597 C 0.34181 0.53765 0.23481 0.0
C598 C 0.29241 0.52353 0.13085 0.0
C599 C 0.30783 0.56264 0.09922 0.0
N600 N 0.35937 0.62286 0.09724 0.0
N601 N 0.30257 0.469 0.22428 0.0
C602 C 0.34167 0.58815 0.13297 0.0
C603 C 0.31166 0.50956 0.19728 0.0
N604 N 0.38533 0.60364 0.2414 0.0
N605 N 0.25855 0.50056 0.09831 0.0
H606 H 0.31617 0.45773 0.27292 0.0
H607 H 0.28471 0.44506 0.19591 0.0
H608 H 0.24484 0.50896 0.04811 0.0
H609 H 0.24228 0.47466 0.12256 0.0
H610 H 0.39289 0.6356 0.22662 0.0
H611 H 0.40081 0.59395 0.28933 0.0
H612 H 0.38685 0.64038 0.11572 0.0
H613 H 0.34833 0.63252 0.04605 0.0
C614 C 0.43508 0.35507 0.22315 0.0
C615 C 0.44626 0.39946 0.2367 0.0
C616 C 0.40106 0.42077 0.13126 0.0
C617 C 0.39522 0.37585 0.11245 0.0
N618 N 0.42055 0.30137 0.1301 0.0
N619 N 0.44648 0.47439 0.196 0.0
C620 C 0.416 0.34319 0.15549 0.0
C621 C 0.43103 0.43245 0.18869 0.0
N622 N 0.44166 0.32416 0.27525 0.0
N623 N 0.37769 0.45207 0.09497 0.0
H624 H 0.46913 0.48395 0.23638 0.0
H625 H 0.44003 0.49873 0.1582 0.0
H626 H 0.35336 0.44444 0.05613 0.0
H627 H 0.37973 0.48528 0.10743 0.0
H628 H 0.43024 0.29203 0.26936 0.0
H629 H 0.45381 0.33169 0.32707 0.0
H630 H 0.43879 0.27779 0.15785 0.0
H631 H 0.41135 0.2917 0.07778 0.0
loop_
_geom_bond_atom_site_label_1
_geom_bond_atom_site_label_2
_geom_bond_distance
_geom_bond_site_symmetry_2
_ccdc_geom_bond_type
Zn0 O2 1.933 1_556 S
Zn0 O20 1.985 . S
Zn0 O31 1.955 . S
Zn1 O2 1.911 . S
Zn1 O21 1.970 . S
Zn1 O37 1.945 . S
Zn1 O44 1.981 . S
O2 Zn0 1.933 1_554 S
O2 Zn1 1.911 . S
O2 H3 0.841 1_655 S
H3 O2 0.841 1_455 S
C4 O5 1.246 . S
C4 O33 1.276 1_545 S
O5 C4 1.246 . S
Zn6 O8 1.911 . S
Zn6 O23 1.970 . S
Zn6 O40 1.945 . S
Zn6 O47 1.981 . S
Zn7 O8 1.933 1_556 S
Zn7 O22 1.985 . S
Zn7 O29 1.955 . S
O8 Zn6 1.911 . S
O8 Zn7 1.933 1_554 S
O8 H9 0.841 1_455 S
H9 O8 0.841 1_655 S
Zn10 O11 1.933 1_556 S
Zn10 O24 1.985 . S
Zn10 O33 1.955 . S
O11 Zn10 1.933 1_554 S
O11 Zn12 1.911 . S
O11 H13 0.841 1_565 S
Zn12 O11 1.911 . S
Zn12 O25 1.970 . S
Zn12 O41 1.981 . S
Zn12 O43 1.945 . S
H13 O11 0.841 1_545 S
Zn14 O15 1.933 1_556 S
Zn14 O27 1.985 . S
Zn14 O35 1.955 . S
O15 Zn14 1.933 1_554 S
O15 H16 0.841 1_545 S
O15 Zn17 1.911 . S
H16 O15 0.841 1_565 S
Zn17 O15 1.911 . S
Zn17 O28 1.970 . S
Zn17 O38 1.981 . S
Zn17 O46 1.945 . S
C18 O19 1.246 . S
C18 O35 1.276 1_565 S
O19 C18 1.246 . S
O20 Zn0 1.985 . S
O20 C30 1.245 1_556 S
O21 Zn1 1.970 . S
O21 C30 1.263 . S
O22 Zn7 1.985 . S
O22 C34 1.245 1_556 S
O23 Zn6 1.970 . S
O23 C34 1.263 . S
O24 Zn10 1.985 . S
O24 C39 1.245 1_556 S
O25 Zn12 1.970 . S
O25 C39 1.263 . S
C26 O37 1.262 1_455 S
C26 O38 1.245 . S
O27 Zn14 1.985 . S
O27 C45 1.245 1_556 S
O28 Zn17 1.970 . S
O28 C45 1.263 . S
O29 Zn7 1.955 . S
O29 C48 1.276 1_455 S
C30 O20 1.245 1_554 S
C30 O21 1.263 . S
O31 Zn0 1.955 . S
O31 C50 1.276 1_655 S
C32 O40 1.262 1_655 S
C32 O41 1.245 . S
O33 C4 1.276 1_565 S
O33 Zn10 1.955 . S
C34 O22 1.245 1_554 S
C34 O23 1.263 . S
O35 Zn14 1.955 . S
O35 C18 1.276 1_545 S
C36 O43 1.262 1_545 S
C36 O44 1.245 . S
O37 Zn1 1.945 . S
O37 C26 1.262 1_655 S
O38 Zn17 1.981 . S
O38 C26 1.245 . S
C39 O24 1.245 1_554 S
C39 O25 1.263 . S
O40 Zn6 1.945 . S
O40 C32 1.262 1_455 S
O41 Zn12 1.981 . S
O41 C32 1.245 . S
C42 O46 1.262 1_565 S
C42 O47 1.245 . S
O43 Zn12 1.945 . S
O43 C36 1.262 1_565 S
O44 Zn1 1.981 . S
O44 C36 1.245 . S
C45 O27 1.245 1_554 S
C45 O28 1.263 . S
O46 Zn17 1.945 . S
O46 C42 1.262 1_545 S
O47 Zn6 1.981 . S
O47 C42 1.245 . S
C48 O29 1.276 1_655 S
C48 O49 1.246 . S
O49 C48 1.246 . S
C50 O31 1.276 1_455 S
C50 O51 1.246 . S
O51 C50 1.246 . S
Zn52 O54 1.933 . S
Zn52 O72 1.985 . S
Zn52 O83 1.955 . S
Zn53 O54 1.911 . S
Zn53 O73 1.970 . S
Zn53 O89 1.945 . S
Zn53 O96 1.981 . S
O54 Zn52 1.933 . S
O54 Zn53 1.911 . S
O54 H55 0.841 . S
H55 O54 0.841 . S
C56 O57 1.246 . S
C56 O85 1.276 . S
O57 C56 1.246 . S
Zn58 O60 1.911 . S
Zn58 O75 1.970 . S
Zn58 O92 1.945 . S
Zn58 O99 1.981 . S
Zn59 O60 1.933 . S
Zn59 O74 1.985 . S
Zn59 O81 1.955 . S
O60 Zn58 1.911 . S
O60 Zn59 1.933 . S
O60 H61 0.841 . S
H61 O60 0.841 . S
Zn62 O63 1.933 . S
Zn62 O76 1.985 . S
Zn62 O85 1.955 . S
O63 Zn62 1.933 . S
O63 Zn64 1.911 . S
O63 H65 0.841 . S
Zn64 O63 1.911 . S
Zn64 O77 1.970 . S
Zn64 O93 1.981 . S
Zn64 O95 1.945 . S
H65 O63 0.841 . S
Zn66 O67 1.933 . S
Zn66 O79 1.985 . S
Zn66 O87 1.955 . S
O67 Zn66 1.933 . S
O67 H68 0.841 . S
O67 Zn69 1.911 . S
H68 O67 0.841 . S
Zn69 O67 1.911 . S
Zn69 O80 1.970 . S
Zn69 O90 1.981 . S
Zn69 O98 1.945 . S
C70 O71 1.246 . S
C70 O87 1.276 . S
O71 C70 1.246 . S
O72 Zn52 1.985 . S
O72 C82 1.245 . S
O73 Zn53 1.970 . S
O73 C82 1.263 . S
O74 Zn59 1.985 . S
O74 C86 1.245 . S
O75 Zn58 1.970 . S
O75 C86 1.263 . S
O76 Zn62 1.985 . S
O76 C91 1.245 . S
O77 Zn64 1.970 . S
O77 C91 1.263 . S
C78 O89 1.262 . S
C78 O90 1.245 . S
O79 Zn66 1.985 . S
O79 C97 1.245 . S
O80 Zn69 1.970 . S
O80 C97 1.263 . S
O81 Zn59 1.955 . S
O81 C100 1.276 . S
C82 O72 1.245 . S
C82 O73 1.263 . S
O83 Zn52 1.955 . S
O83 C102 1.276 . S
C84 O92 1.262 . S
C84 O93 1.245 . S
O85 C56 1.276 . S
O85 Zn62 1.955 . S
C86 O74 1.245 . S
C86 O75 1.263 . S
O87 Zn66 1.955 . S
O87 C70 1.276 . S
C88 O95 1.262 . S
C88 O96 1.245 . S
O89 Zn53 1.945 . S
O89 C78 1.262 . S
O90 Zn69 1.981 . S
O90 C78 1.245 . S
C91 O76 1.245 . S
C91 O77 1.263 . S
O92 Zn58 1.945 . S
O92 C84 1.262 . S
O93 Zn64 1.981 . S
O93 C84 1.245 . S
C94 O98 1.262 . S
C94 O99 1.245 . S
O95 Zn64 1.945 . S
O95 C88 1.262 . S
O96 Zn53 1.981 . S
O96 C88 1.245 . S
C97 O79 1.245 . S
C97 O80 1.263 . S
O98 Zn69 1.945 . S
O98 C94 1.262 . S
O99 Zn58 1.981 . S
O99 C94 1.245 . S
C100 O81 1.276 . S
C100 O101 1.246 . S
O101 C100 1.246 . S
C102 O83 1.276 . S
C102 O103 1.246 . S
O103 C102 1.246 . S
H104 C109 0.930 . S
H105 C112 0.930 . S
H106 C114 0.930 . S
H107 C108 1.016 . S
C108 H107 1.016 . S
C108 N115 1.286 1_554 S
C109 H104 0.930 . S
C109 C110 1.397 . S
C109 C111 1.361 1_556 S
C110 C109 1.397 . S
C110 C114 1.390 1_556 S
C111 C109 1.361 1_554 S
C111 C112 1.393 . S
C111 N115 1.413 1_554 S
C112 H105 0.930 . S
C112 C111 1.393 . S
C112 C113 1.399 . S
C113 C112 1.399 . S
C113 C114 1.381 . S
C114 H106 0.930 . S
C114 C110 1.390 1_554 S
C114 C113 1.381 . S
N115 C108 1.286 1_556 S
N115 C111 1.413 1_556 S
H116 C121 0.930 . S
H117 C124 0.930 . S
H118 C126 0.930 . S
H119 C120 1.016 . S
C120 H119 1.016 . S
C120 N127 1.286 1_554 S
C121 H116 0.930 . S
C121 C122 1.397 . S
C121 C123 1.361 1_556 S
C122 C121 1.397 . S
C122 C126 1.390 1_556 S
C123 C121 1.361 1_554 S
C123 C124 1.393 . S
C123 N127 1.413 1_554 S
C124 H117 0.930 . S
C124 C123 1.393 . S
C124 C125 1.399 . S
C125 C124 1.399 . S
C125 C126 1.381 . S
C126 H118 0.930 . S
C126 C122 1.390 1_554 S
C126 C125 1.381 . S
N127 C120 1.286 1_556 S
N127 C123 1.413 1_556 S
H128 C133 0.930 . S
H129 C136 0.930 . S
H130 C138 0.930 . S
H131 C132 1.011 1_556 S
C132 H131 1.011 1_554 S
C132 N139 1.290 . S
C133 H128 0.930 . S
C133 C134 1.397 . S
C133 C135 1.361 . S
C134 C133 1.397 . S
C134 C138 1.390 . S
C135 C133 1.361 . S
C135 C136 1.393 1_554 S
C135 N139 1.413 . S
C136 H129 0.930 . S
C136 C135 1.393 1_556 S
C136 C137 1.399 . S
C137 C136 1.399 . S
C137 C138 1.381 1_556 S
C138 H130 0.930 . S
C138 C134 1.390 . S
C138 C137 1.381 1_554 S
N139 C132 1.290 . S
N139 C135 1.413 . S
H140 C145 0.930 . S
H141 C148 0.930 . S
H142 C150 0.930 . S
H143 C144 1.016 . S
C144 H143 1.016 . S
C144 N151 1.286 1_554 S
C145 H140 0.930 . S
C145 C146 1.397 . S
C145 C147 1.364 . S
C146 C145 1.397 . S
C146 C150 1.390 1_556 S
C147 C145 1.364 . S
C147 C148 1.390 1_556 S
C147 N151 1.413 . S
C148 H141 0.930 . S
C148 C147 1.390 1_554 S
C148 C149 1.399 . S
C149 C148 1.399 . S
C149 C150 1.381 . S
C150 H142 0.930 . S
C150 C146 1.390 1_554 S
C150 C149 1.381 . S
N151 C144 1.286 1_556 S
N151 C147 1.413 . S
H152 C157 0.930 . S
H153 C160 0.930 . S
H154 C162 0.930 . S
H155 C156 1.016 . S
C156 H155 1.016 . S
C156 N163 1.286 . S
C157 H152 0.930 . S
C157 C158 1.397 . S
C157 C159 1.361 . S
C158 C157 1.397 . S
C158 C162 1.390 . S
C159 C157 1.361 . S
C159 C160 1.393 . S
C159 N163 1.413 . S
C160 H153 0.930 . S
C160 C159 1.393 . S
C160 C161 1.399 . S
C161 C160 1.399 . S
C161 C162 1.381 . S
C162 H154 0.930 . S
C162 C158 1.390 . S
C162 C161 1.381 . S
N163 C156 1.286 . S
N163 C159 1.413 . S
H164 C169 0.930 . S
H165 C172 0.930 . S
H166 C174 0.930 . S
H167 C168 1.016 . S
C168 H167 1.016 . S
C168 N175 1.286 . S
C169 H164 0.930 . S
C169 C170 1.397 . S
C169 C171 1.361 . S
C170 C169 1.397 . S
C170 C174 1.390 . S
C171 C169 1.361 . S
C171 C172 1.393 . S
C171 N175 1.413 . S
C172 H165 0.930 . S
C172 C171 1.393 . S
C172 C173 1.399 . S
C173 C172 1.399 . S
C173 C174 1.381 . S
C174 H166 0.930 . S
C174 C170 1.390 . S
C174 C173 1.381 . S
N175 C168 1.286 . S
N175 C171 1.413 . S
H176 C181 0.930 . S
H177 C184 0.930 . S
H178 C186 0.930 . S
H179 C180 1.016 . S
C180 H179 1.016 . S
C180 N187 1.286 . S
C181 H176 0.930 . S
C181 C182 1.397 . S
C181 C183 1.361 . S
C182 C181 1.397 . S
C182 C186 1.390 . S
C183 C181 1.361 . S
C183 C184 1.393 . S
C183 N187 1.413 . S
C184 H177 0.930 . S
C184 C183 1.393 . S
C184 C185 1.399 . S
C185 C184 1.399 . S
C185 C186 1.381 . S
C186 H178 0.930 . S
C186 C182 1.390 . S
C186 C185 1.381 . S
N187 C180 1.286 . S
N187 C183 1.413 . S
H188 C193 0.930 . S
H189 C196 0.930 . S
H190 C198 0.930 . S
H191 C192 1.016 . S
C192 H191 1.016 . S
C192 N199 1.286 . S
C193 H188 0.930 . S
C193 C194 1.397 . S
C193 C195 1.361 . S
C194 C193 1.397 . S
C194 C198 1.390 . S
C195 C193 1.361 . S
C195 C196 1.393 . S
C195 N199 1.413 . S
C196 H189 0.930 . S
C196 C195 1.393 . S
C196 C197 1.399 . S
C197 C196 1.399 . S
C197 C198 1.381 . S
C198 H190 0.930 . S
C198 C194 1.390 . S
C198 C197 1.381 . S
N199 C192 1.286 . S
N199 C195 1.413 . S
C200 C201 1.363 1_556 S
C200 C206 1.379 . S
C200 N208 1.356 . S
C201 C200 1.363 1_554 S
C201 C207 1.363 . S
C202 C203 1.363 . S
C202 C207 1.379 . S
C202 N209 1.356 . S
C203 C202 1.363 . S
C203 C206 1.363 1_554 S
N204 C206 1.356 . S
N204 H216 0.984 . S
N204 H217 0.985 . S
N205 C207 1.356 . S
N205 H210 0.984 . S
N205 H211 0.985 . S
C206 C200 1.379 . S
C206 C203 1.363 1_556 S
C206 N204 1.356 . S
C207 C201 1.363 . S
C207 C202 1.379 . S
C207 N205 1.356 . S
N208 C200 1.356 . S
N208 H214 0.984 . S
N208 H215 0.984 . S
N209 C202 1.356 . S
N209 H212 0.984 . S
N209 H213 0.985 . S
H210 N205 0.984 . S
H211 N205 0.985 . S
H212 N209 0.984 . S
H213 N209 0.985 . S
H214 N208 0.984 . S
H215 N208 0.984 . S
H216 N204 0.984 . S
H217 N204 0.985 . S
C218 C219 1.363 . S
C218 C224 1.379 . S
C218 N226 1.356 . S
C219 C218 1.363 . S
C219 C225 1.363 1_554 S
C220 C221 1.363 1_556 S
C220 C225 1.379 . S
C220 N227 1.356 . S
C221 C220 1.363 1_554 S
C221 C224 1.363 . S
N222 C224 1.356 . S
N222 H234 0.984 . S
N222 H235 0.985 . S
N223 C225 1.356 . S
N223 H228 0.984 . S
N223 H229 0.985 . S
C224 C218 1.379 . S
C224 C221 1.363 . S
C224 N222 1.356 . S
C225 C219 1.363 1_556 S
C225 C220 1.379 . S
C225 N223 1.356 . S
N226 C218 1.356 . S
N226 H232 0.984 . S
N226 H233 0.984 . S
N227 C220 1.356 . S
N227 H230 0.984 . S
N227 H231 0.985 . S
H228 N223 0.984 . S
H229 N223 0.985 . S
H230 N227 0.984 . S
H231 N227 0.985 . S
H232 N226 0.984 . S
H233 N226 0.984 . S
H234 N222 0.984 . S
H235 N222 0.985 . S
C236 C237 1.363 . S
C236 C242 1.379 . S
C236 N244 1.356 . S
C237 C236 1.363 . S
C237 C243 1.363 1_554 S
C238 C239 1.363 1_556 S
C238 C243 1.379 . S
C238 N245 1.356 . S
C239 C238 1.363 1_554 S
C239 C242 1.363 . S
N240 C242 1.356 . S
N240 H252 0.984 . S
N240 H253 0.985 . S
N241 C243 1.356 . S
N241 H246 0.984 . S
N241 H247 0.985 . S
C242 C236 1.379 . S
C242 C239 1.363 . S
C242 N240 1.356 . S
C243 C237 1.363 1_556 S
C243 C238 1.379 . S
C243 N241 1.356 . S
N244 C236 1.356 . S
N244 H250 0.984 . S
N244 H251 0.984 . S
N245 C238 1.356 . S
N245 H248 0.984 . S
N245 H249 0.985 . S
H246 N241 0.984 . S
H247 N241 0.985 . S
H248 N245 0.984 . S
H249 N245 0.985 . S
H250 N244 0.984 . S
H251 N244 0.984 . S
H252 N240 0.984 . S
H253 N240 0.985 . S
C254 C255 1.363 1_556 S
C254 C260 1.379 . S
C254 N262 1.356 . S
C255 C254 1.363 1_554 S
C255 C261 1.363 . S
C256 C257 1.363 . S
C256 C261 1.379 . S
C256 N263 1.356 . S
C257 C256 1.363 . S
C257 C260 1.363 1_554 S
N258 C260 1.356 . S
N258 H270 0.984 . S
N258 H271 0.985 . S
N259 C261 1.356 . S
N259 H264 0.984 . S
N259 H265 0.985 . S
C260 C254 1.379 . S
C260 C257 1.363 1_556 S
C260 N258 1.356 . S
C261 C255 1.363 . S
C261 C256 1.379 . S
C261 N259 1.356 . S
N262 C254 1.356 . S
N262 H268 0.984 . S
N262 H269 0.984 . S
N263 C256 1.356 . S
N263 H266 0.984 . S
N263 H267 0.985 . S
H264 N259 0.984 . S
H265 N259 0.985 . S
H266 N263 0.984 . S
H267 N263 0.985 . S
H268 N262 0.984 . S
H269 N262 0.984 . S
H270 N258 0.984 . S
H271 N258 0.985 . S
C272 C273 1.363 . S
C272 C278 1.379 . S
C272 N280 1.356 . S
C273 C272 1.363 . S
C273 C279 1.363 . S
C274 C275 1.363 . S
C274 C279 1.379 . S
C274 N281 1.356 . S
C275 C274 1.363 . S
C275 C278 1.363 . S
N276 C278 1.356 . S
N276 H288 0.984 . S
N276 H289 0.985 . S
N277 C279 1.356 . S
N277 H282 0.984 . S
N277 H283 0.985 . S
C278 C272 1.379 . S
C278 C275 1.363 . S
C278 N276 1.356 . S
C279 C273 1.363 . S
C279 C274 1.379 . S
C279 N277 1.356 . S
N280 C272 1.356 . S
N280 H286 0.984 . S
N280 H287 0.984 . S
N281 C274 1.356 . S
N281 H284 0.984 . S
N281 H285 0.985 . S
H282 N277 0.984 . S
H283 N277 0.985 . S
H284 N281 0.984 . S
H285 N281 0.985 . S
H286 N280 0.984 . S
H287 N280 0.984 . S
H288 N276 0.984 . S
H289 N276 0.985 . S
C290 C291 1.363 . S
C290 C296 1.379 . S
C290 N298 1.356 . S
C291 C290 1.363 . S
C291 C297 1.363 . S
C292 C293 1.363 . S
C292 C297 1.379 . S
C292 N299 1.356 . S
C293 C292 1.363 . S
C293 C296 1.363 . S
N294 C296 1.356 . S
N294 H306 0.984 . S
N294 H307 0.985 . S
N295 C297 1.356 . S
N295 H300 0.984 . S
N295 H301 0.985 . S
C296 C290 1.379 . S
C296 C293 1.363 . S
C296 N294 1.356 . S
C297 C291 1.363 . S
C297 C292 1.379 . S
C297 N295 1.356 . S
N298 C290 1.356 . S
N298 H304 0.984 . S
N298 H305 0.984 . S
N299 C292 1.356 . S
N299 H302 0.984 . S
N299 H303 0.985 . S
H300 N295 0.984 . S
H301 N295 0.985 . S
H302 N299 0.984 . S
H303 N299 0.985 . S
H304 N298 0.984 . S
H305 N298 0.984 . S
H306 N294 0.984 . S
H307 N294 0.985 . S
C308 C309 1.363 . S
C308 C314 1.379 . S
C308 N316 1.356 . S
C309 C308 1.363 . S
C309 C315 1.363 . S
C310 C311 1.363 . S
C310 C315 1.379 . S
C310 N317 1.356 . S
C311 C310 1.363 . S
C311 C314 1.363 . S
N312 C314 1.356 . S
N312 H324 0.984 . S
N312 H325 0.985 . S
N313 C315 1.356 . S
N313 H318 0.984 . S
N313 H319 0.985 . S
C314 C308 1.379 . S
C314 C311 1.363 . S
C314 N312 1.356 . S
C315 C309 1.363 . S
C315 C310 1.379 . S
C315 N313 1.356 . S
N316 C308 1.356 . S
N316 H322 0.984 . S
N316 H323 0.984 . S
N317 C310 1.356 . S
N317 H320 0.984 . S
N317 H321 0.985 . S
H318 N313 0.984 . S
H319 N313 0.985 . S
H320 N317 0.984 . S
H321 N317 0.985 . S
H322 N316 0.984 . S
H323 N316 0.984 . S
H324 N312 0.984 . S
H325 N312 0.985 . S
C326 C327 1.363 . S
C326 C332 1.379 . S
C326 N334 1.356 . S
C327 C326 1.363 . S
C327 C333 1.363 . S
C328 C329 1.363 . S
C328 C333 1.379 . S
C328 N335 1.356 . S
C329 C328 1.363 . S
C329 C332 1.363 . S
N330 C332 1.356 . S
N330 H342 0.984 . S
N330 H343 0.985 . S
N331 C333 1.356 . S
N331 H336 0.984 . S
N331 H337 0.985 . S
C332 C326 1.379 . S
C332 C329 1.363 . S
C332 N330 1.356 . S
C333 C327 1.363 . S
C333 C328 1.379 . S
C333 N331 1.356 . S
N334 C326 1.356 . S
N334 H340 0.984 . S
N334 H341 0.984 . S
N335 C328 1.356 . S
N335 H338 0.984 . S
N335 H339 0.985 . S
H336 N331 0.984 . S
H337 N331 0.985 . S
H338 N335 0.984 . S
H339 N335 0.985 . S
H340 N334 0.984 . S
H341 N334 0.984 . S
H342 N330 0.984 . S
H343 N330 0.985 . S
C344 C345 1.363 . S
C344 C350 1.379 . S
C344 N352 1.356 . S
C345 C344 1.363 . S
C345 C351 1.363 . S
C346 C347 1.363 . S
C346 C351 1.379 . S
C346 N353 1.356 . S
C347 C346 1.363 . S
C347 C350 1.363 . S
N348 C350 1.356 . S
N348 H360 0.984 . S
N348 H361 0.985 . S
N349 C351 1.356 . S
N349 H354 0.984 . S
N349 H355 0.985 . S
C350 C344 1.379 . S
C350 C347 1.363 . S
C350 N348 1.356 . S
C351 C345 1.363 . S
C351 C346 1.379 . S
C351 N349 1.356 . S
N352 C344 1.356 . S
N352 H358 0.984 1_455 S
N352 H359 0.984 . S
N353 C346 1.356 . S
N353 H356 0.984 . S
N353 H357 0.985 . S
H354 N349 0.984 . S
H355 N349 0.985 . S
H356 N353 0.984 . S
H357 N353 0.985 . S
H358 N352 0.984 1_655 S
H359 N352 0.984 . S
H360 N348 0.984 . S
H361 N348 0.985 . S
C362 C363 1.363 . S
C362 C368 1.379 . S
C362 N370 1.356 1_545 S
C363 C362 1.363 . S
C363 C369 1.363 . S
C364 C365 1.363 . S
C364 C369 1.379 . S
C364 N371 1.356 . S
C365 C364 1.363 . S
C365 C368 1.363 . S
N366 C368 1.356 . S
N366 H378 0.984 1_545 S
N366 H379 0.985 . S
N367 C369 1.356 . S
N367 H372 0.984 . S
N367 H373 0.985 . S
C368 C362 1.379 . S
C368 C365 1.363 . S
C368 N366 1.356 . S
C369 C363 1.363 . S
C369 C364 1.379 . S
C369 N367 1.356 . S
N370 C362 1.356 1_565 S
N370 H376 0.984 . S
N370 H377 0.984 . S
N371 C364 1.356 . S
N371 H374 0.984 . S
N371 H375 0.985 . S
H372 N367 0.984 . S
H373 N367 0.985 . S
H374 N371 0.984 . S
H375 N371 0.985 . S
H376 N370 0.984 . S
H377 N370 0.984 . S
H378 N366 0.984 1_565 S
H379 N366 0.985 . S
C380 C381 1.363 . S
C380 C386 1.379 . S
C380 N388 1.356 1_655 S
C381 C380 1.363 . S
C381 C387 1.363 . S
C382 C383 1.363 . S
C382 C387 1.379 . S
C382 N389 1.356 . S
C383 C382 1.363 . S
C383 C386 1.363 . S
N384 C386 1.356 . S
N384 H396 0.984 1_655 S
N384 H397 0.985 . S
N385 C387 1.356 . S
N385 H390 0.984 . S
N385 H391 0.985 . S
C386 C380 1.379 . S
C386 C383 1.363 . S
C386 N384 1.356 . S
C387 C381 1.363 . S
C387 C382 1.379 . S
C387 N385 1.356 . S
N388 C380 1.356 1_455 S
N388 H394 0.984 . S
N388 H395 0.984 . S
N389 C382 1.356 . S
N389 H392 0.984 . S
N389 H393 0.985 . S
H390 N385 0.984 . S
H391 N385 0.985 . S
H392 N389 0.984 . S
H393 N389 0.985 . S
H394 N388 0.984 . S
H395 N388 0.984 . S
H396 N384 0.984 1_455 S
H397 N384 0.985 . S
C398 C399 1.363 . S
C398 C404 1.379 . S
C398 N406 1.356 . S
C399 C398 1.363 . S
C399 C405 1.363 . S
C400 C401 1.363 . S
C400 C405 1.379 . S
C400 N407 1.356 . S
C401 C400 1.363 . S
C401 C404 1.363 . S
N402 C404 1.356 . S
N402 H414 0.984 . S
N402 H415 0.985 . S
N403 C405 1.356 . S
N403 H408 0.984 . S
N403 H409 0.985 . S
C404 C398 1.379 . S
C404 C401 1.363 . S
C404 N402 1.356 . S
C405 C399 1.363 . S
C405 C400 1.379 . S
C405 N403 1.356 . S
N406 C398 1.356 . S
N406 H412 0.984 . S
N406 H413 0.984 . S
N407 C400 1.356 . S
N407 H410 0.984 . S
N407 H411 0.985 . S
H408 N403 0.984 . S
H409 N403 0.985 . S
H410 N407 0.984 . S
H411 N407 0.985 . S
H412 N406 0.984 . S
H413 N406 0.984 . S
H414 N402 0.984 . S
H415 N402 0.985 . S
C416 C417 1.363 . S
C416 C422 1.379 . S
C416 N424 1.356 . S
C417 C416 1.363 . S
C417 C423 1.363 . S
C418 C419 1.363 . S
C418 C423 1.379 . S
C418 N425 1.356 . S
C419 C418 1.363 . S
C419 C422 1.363 . S
N420 C422 1.356 . S
N420 H432 0.984 . S
N420 H433 0.985 . S
N421 C423 1.356 . S
N421 H426 0.984 . S
N421 H427 0.985 1_565 S
C422 C416 1.379 . S
C422 C419 1.363 . S
C422 N420 1.356 . S
C423 C417 1.363 . S
C423 C418 1.379 . S
C423 N421 1.356 . S
N424 C416 1.356 . S
N424 H430 0.984 . S
N424 H431 0.984 . S
N425 C418 1.356 . S
N425 H428 0.984 . S
N425 H429 0.985 1_565 S
H426 N421 0.984 . S
H427 N421 0.985 1_545 S
H428 N425 0.984 . S
H429 N425 0.985 1_545 S
H430 N424 0.984 . S
H431 N424 0.984 . S
H432 N420 0.984 . S
H433 N420 0.985 . S
C434 C435 1.363 . S
C434 C440 1.379 . S
C434 N442 1.356 . S
C435 C434 1.363 . S
C435 C441 1.363 . S
C436 C437 1.363 . S
C436 C441 1.379 . S
C436 N443 1.356 . S
C437 C436 1.363 . S
C437 C440 1.363 . S
N438 C440 1.356 . S
N438 H450 0.984 . S
N438 H451 0.985 . S
N439 C441 1.356 . S
N439 H444 0.984 . S
N439 H445 0.985 1_455 S
C440 C434 1.379 . S
C440 C437 1.363 . S
C440 N438 1.356 . S
C441 C435 1.363 . S
C441 C436 1.379 . S
C441 N439 1.356 . S
N442 C434 1.356 . S
N442 H448 0.984 . S
N442 H449 0.984 . S
N443 C436 1.356 . S
N443 H446 0.984 . S
N443 H447 0.985 . S
H444 N439 0.984 . S
H445 N439 0.985 1_655 S
H446 N443 0.984 . S
H447 N443 0.985 . S
H448 N442 0.984 . S
H449 N442 0.984 . S
H450 N438 0.984 . S
H451 N438 0.985 . S
C452 C453 1.363 . S
C452 C458 1.379 . S
C452 N460 1.356 1_545 S
C453 C452 1.363 . S
C453 C459 1.363 . S
C454 C455 1.363 . S
C454 C459 1.379 . S
C454 N461 1.356 . S
C455 C454 1.363 . S
C455 C458 1.363 . S
N456 C458 1.356 . S
N456 H468 0.984 1_545 S
N456 H469 0.985 . S
N457 C459 1.356 . S
N457 H462 0.984 . S
N457 H463 0.985 . S
C458 C452 1.379 . S
C458 C455 1.363 . S
C458 N456 1.356 . S
C459 C453 1.363 . S
C459 C454 1.379 . S
C459 N457 1.356 . S
N460 C452 1.356 1_565 S
N460 H466 0.984 . S
N460 H467 0.984 . S
N461 C454 1.356 . S
N461 H464 0.984 . S
N461 H465 0.985 . S
H462 N457 0.984 . S
H463 N457 0.985 . S
H464 N461 0.984 . S
H465 N461 0.985 . S
H466 N460 0.984 . S
H467 N460 0.984 . S
H468 N456 0.984 1_565 S
H469 N456 0.985 . S
C470 C471 1.363 . S
C470 C476 1.379 . S
C470 N478 1.356 1_655 S
C471 C470 1.363 . S
C471 C477 1.363 . S
C472 C473 1.363 . S
C472 C477 1.379 . S
C472 N479 1.356 . S
C473 C472 1.363 . S
C473 C476 1.363 . S
N474 C476 1.356 . S
N474 H486 0.984 1_655 S
N474 H487 0.985 . S
N475 C477 1.356 . S
N475 H480 0.984 . S
N475 H481 0.985 . S
C476 C470 1.379 . S
C476 C473 1.363 . S
C476 N474 1.356 . S
C477 C471 1.363 . S
C477 C472 1.379 . S
C477 N475 1.356 . S
N478 C470 1.356 1_455 S
N478 H484 0.984 . S
N478 H485 0.984 . S
N479 C472 1.356 . S
N479 H482 0.984 . S
N479 H483 0.985 . S
H480 N475 0.984 . S
H481 N475 0.985 . S
H482 N479 0.984 . S
H483 N479 0.985 . S
H484 N478 0.984 . S
H485 N478 0.984 . S
H486 N474 0.984 1_455 S
H487 N474 0.985 . S
C488 C489 1.363 . S
C488 C494 1.379 . S
C488 N496 1.356 . S
C489 C488 1.363 . S
C489 C495 1.363 . S
C490 C491 1.363 . S
C490 C495 1.379 . S
C490 N497 1.356 . S
C491 C490 1.363 . S
C491 C494 1.363 . S
N492 C494 1.356 . S
N492 H504 0.984 . S
N492 H505 0.985 . S
N493 C495 1.356 . S
N493 H498 0.984 . S
N493 H499 0.985 . S
C494 C488 1.379 . S
C494 C491 1.363 . S
C494 N492 1.356 . S
C495 C489 1.363 . S
C495 C490 1.379 . S
C495 N493 1.356 . S
N496 C488 1.356 . S
N496 H502 0.984 . S
N496 H503 0.984 . S
N497 C490 1.356 . S
N497 H500 0.984 . S
N497 H501 0.985 . S
H498 N493 0.984 . S
H499 N493 0.985 . S
H500 N497 0.984 . S
H501 N497 0.985 . S
H502 N496 0.984 . S
H503 N496 0.984 . S
H504 N492 0.984 . S
H505 N492 0.985 . S
C506 C507 1.363 . S
C506 C512 1.379 . S
C506 N514 1.356 . S
C507 C506 1.363 . S
C507 C513 1.363 . S
C508 C509 1.363 . S
C508 C513 1.379 . S
C508 N515 1.356 . S
C509 C508 1.363 . S
C509 C512 1.363 . S
N510 C512 1.356 . S
N510 H522 0.984 . S
N510 H523 0.985 . S
N511 C513 1.356 . S
N511 H516 0.984 . S
N511 H517 0.985 . S
C512 C506 1.379 . S
C512 C509 1.363 . S
C512 N510 1.356 . S
C513 C507 1.363 . S
C513 C508 1.379 . S
C513 N511 1.356 . S
N514 C506 1.356 . S
N514 H520 0.984 . S
N514 H521 0.984 . S
N515 C508 1.356 . S
N515 H518 0.984 . S
N515 H519 0.985 . S
H516 N511 0.984 . S
H517 N511 0.985 . S
H518 N515 0.984 . S
H519 N515 0.985 . S
H520 N514 0.984 . S
H521 N514 0.984 . S
H522 N510 0.984 . S
H523 N510 0.985 . S
C524 C525 1.363 . S
C524 C530 1.379 . S
C524 N532 1.356 . S
C525 C524 1.363 . S
C525 C531 1.363 . S
C526 C527 1.363 . S
C526 C531 1.379 . S
C526 N533 1.356 . S
C527 C526 1.363 . S
C527 C530 1.363 . S
N528 C530 1.356 . S
N528 H540 0.984 . S
N528 H541 0.985 . S
N529 C531 1.356 . S
N529 H534 0.984 . S
N529 H535 0.985 . S
C530 C524 1.379 . S
C530 C527 1.363 . S
C530 N528 1.356 . S
C531 C525 1.363 . S
C531 C526 1.379 . S
C531 N529 1.356 . S
N532 C524 1.356 . S
N532 H538 0.984 . S
N532 H539 0.984 . S
N533 C526 1.356 . S
N533 H536 0.984 . S
N533 H537 0.985 . S
H534 N529 0.984 . S
H535 N529 0.985 . S
H536 N533 0.984 . S
H537 N533 0.985 . S
H538 N532 0.984 . S
H539 N532 0.984 . S
H540 N528 0.984 . S
H541 N528 0.985 . S
C542 C543 1.363 . S
C542 C548 1.379 . S
C542 N550 1.356 . S
C543 C542 1.363 . S
C543 C549 1.363 . S
C544 C545 1.363 . S
C544 C549 1.379 . S
C544 N551 1.356 . S
C545 C544 1.363 . S
C545 C548 1.363 . S
N546 C548 1.356 . S
N546 H558 0.984 . S
N546 H559 0.985 . S
N547 C549 1.356 . S
N547 H552 0.984 . S
N547 H553 0.985 . S
C548 C542 1.379 . S
C548 C545 1.363 . S
C548 N546 1.356 . S
C549 C543 1.363 . S
C549 C544 1.379 . S
C549 N547 1.356 . S
N550 C542 1.356 . S
N550 H556 0.984 . S
N550 H557 0.984 . S
N551 C544 1.356 . S
N551 H554 0.984 . S
N551 H555 0.985 . S
H552 N547 0.984 . S
H553 N547 0.985 . S
H554 N551 0.984 . S
H555 N551 0.985 . S
H556 N550 0.984 . S
H557 N550 0.984 . S
H558 N546 0.984 . S
H559 N546 0.985 . S
C560 C561 1.363 . S
C560 C566 1.379 . S
C560 N568 1.356 . S
C561 C560 1.363 . S
C561 C567 1.363 . S
C562 C563 1.363 . S
C562 C567 1.379 . S
C562 N569 1.356 . S
C563 C562 1.363 . S
C563 C566 1.363 . S
N564 C566 1.356 . S
N564 H576 0.984 . S
N564 H577 0.985 . S
N565 C567 1.356 . S
N565 H570 0.984 . S
N565 H571 0.985 . S
C566 C560 1.379 . S
C566 C563 1.363 . S
C566 N564 1.356 . S
C567 C561 1.363 . S
C567 C562 1.379 . S
C567 N565 1.356 . S
N568 C560 1.356 . S
N568 H574 0.984 . S
N568 H575 0.984 . S
N569 C562 1.356 . S
N569 H572 0.984 . S
N569 H573 0.985 . S
H570 N565 0.984 . S
H571 N565 0.985 . S
H572 N569 0.984 . S
H573 N569 0.985 . S
H574 N568 0.984 . S
H575 N568 0.984 . S
H576 N564 0.984 . S
H577 N564 0.985 . S
C578 C579 1.363 . S
C578 C584 1.379 . S
C578 N586 1.356 . S
C579 C578 1.363 . S
C579 C585 1.363 . S
C580 C581 1.363 . S
C580 C585 1.379 . S
C580 N587 1.356 . S
C581 C580 1.363 . S
C581 C584 1.363 . S
N582 C584 1.356 . S
N582 H594 0.984 . S
N582 H595 0.985 . S
N583 C585 1.356 . S
N583 H588 0.984 . S
N583 H589 0.985 . S
C584 C578 1.379 . S
C584 C581 1.363 . S
C584 N582 1.356 . S
C585 C579 1.363 . S
C585 C580 1.379 . S
C585 N583 1.356 . S
N586 C578 1.356 . S
N586 H592 0.984 . S
N586 H593 0.984 . S
N587 C580 1.356 . S
N587 H590 0.984 . S
N587 H591 0.985 . S
H588 N583 0.984 . S
H589 N583 0.985 . S
H590 N587 0.984 . S
H591 N587 0.985 . S
H592 N586 0.984 . S
H593 N586 0.984 . S
H594 N582 0.984 . S
H595 N582 0.985 . S
C596 C597 1.363 . S
C596 C602 1.379 . S
C596 N604 1.356 . S
C597 C596 1.363 . S
C597 C603 1.363 . S
C598 C599 1.363 . S
C598 C603 1.379 . S
C598 N605 1.356 . S
C599 C598 1.363 . S
C599 C602 1.363 . S
N600 C602 1.356 . S
N600 H612 0.984 . S
N600 H613 0.985 . S
N601 C603 1.356 . S
N601 H606 0.984 . S
N601 H607 0.985 . S
C602 C596 1.379 . S
C602 C599 1.363 . S
C602 N600 1.356 . S
C603 C597 1.363 . S
C603 C598 1.379 . S
C603 N601 1.356 . S
N604 C596 1.356 . S
N604 H610 0.984 . S
N604 H611 0.984 . S
N605 C598 1.356 . S
N605 H608 0.984 . S
N605 H609 0.985 . S
H606 N601 0.984 . S
H607 N601 0.985 . S
H608 N605 0.984 . S
H609 N605 0.985 . S
H610 N604 0.984 . S
H611 N604 0.984 . S
H612 N600 0.984 . S
H613 N600 0.985 . S
C614 C615 1.363 . S
C614 C620 1.379 . S
C614 N622 1.356 . S
C615 C614 1.363 . S
C615 C621 1.363 . S
C616 C617 1.363 . S
C616 C621 1.379 . S
C616 N623 1.356 . S
C617 C616 1.363 . S
C617 C620 1.363 . S
N618 C620 1.356 . S
N618 H630 0.984 . S
N618 H631 0.985 . S
N619 C621 1.356 . S
N619 H624 0.984 . S
N619 H625 0.985 . S
C620 C614 1.379 . S
C620 C617 1.363 . S
C620 N618 1.356 . S
C621 C615 1.363 . S
C621 C616 1.379 . S
C621 N619 1.356 . S
N622 C614 1.356 . S
N622 H628 0.984 . S
N622 H629 0.984 . S
N623 C616 1.356 . S
N623 H626 0.984 . S
N623 H627 0.985 . S
H624 N619 0.984 . S
H625 N619 0.985 . S
H626 N623 0.984 . S
H627 N623 0.985 . S
H628 N622 0.984 . S
H629 N622 0.984 . S
H630 N618 0.984 . S
H631 N618 0.985 . S
C201 C45 1.549 . S
C203 C108 1.559 . S
C219 C30 1.553 . S
C221 C120 1.567 . S
C237 C39 1.551 . S
C239 C132 1.551 . S
C257 C144 1.562 . S
C255 C34 1.550 . S
C273 C97 1.550 . S
C275 C156 1.562 . S
C293 C168 1.550 . S
C291 C82 1.551 . S
C311 C180 1.547 . S
C309 C91 1.550 . S
C329 C192 1.564 . S
C327 C86 1.551 . S
C347 C185 1.531 . S
C345 C26 1.484 . S
C365 C194 1.500 . S
C363 C36 1.461 . S
C383 C158 1.518 . S
C381 C32 1.482 . S
C401 C173 1.549 . S
C399 C42 1.506 . S
C417 C18 1.527 . S
C419 C170 1.609 . S
C437 C182 1.624 . S
C435 C50 1.547 . S
C453 C4 1.574 . S
C455 C197 1.622 . S
C471 C48 1.553 . S
C473 C161 1.606 . S
C491 C137 1.554 . S
C489 C78 1.508 . S
C507 C88 1.470 . S
C509 C146 1.508 . S
C527 C110 1.534 . S
C525 C84 1.497 . S
C545 C122 1.474 . S
C543 C94 1.440 . S
C563 C125 1.653 . S
C561 C70 1.598 . S
C581 C134 1.603 . S
C579 C102 1.524 . S
C597 C56 1.565 . S
C599 C149 1.615 . S
C615 C100 1.537 . S
C617 C113 1.590 . S
