# Generated by pormake.
# Topology ptr, (4,4)-cn, num edge types: 1
# Building blocks:
#     Node 0, Type 0, BuildingBlock: QUQFOY_clean_sbu_1, # of connection points: 4
#     Node 1, Type 0, BuildingBlock: QUQFOY_clean_sbu_1, # of connection points: 4
#     Node 2, Type 0, BuildingBlock: QUQFOY_clean_sbu_1, # of connection points: 4
#     Node 3, Type 0, BuildingBlock: QUQFOY_clean_sbu_1, # of connection points: 4
#     Node 4, Type 0, BuildingBlock: QUQFOY_clean_sbu_1, # of connection points: 4
#     Node 5, Type 0, BuildingBlock: QUQFOY_clean_sbu_1, # of connection points: 4
#     Node 6, Type 0, BuildingBlock: QUQFOY_clean_sbu_1, # of connection points: 4
#     Node 7, Type 0, BuildingBlock: QUQFOY_clean_sbu_1, # of connection points: 4
#     Node 8, Type 0, BuildingBlock: QUQFOY_clean_sbu_1, # of connection points: 4
#     Node 9, Type 0, BuildingBlock: QUQFOY_clean_sbu_1, # of connection points: 4
#     Node 10, Type 0, BuildingBlock: QUQFOY_clean_sbu_1, # of connection points: 4
#     Node 11, Type 0, BuildingBlock: QUQFOY_clean_sbu_1, # of connection points: 4
#     Node 12, Type 0, BuildingBlock: QUQFOY_clean_sbu_1, # of connection points: 4
#     Node 13, Type 0, BuildingBlock: QUQFOY_clean_sbu_1, # of connection points: 4
#     Node 14, Type 0, BuildingBlock: QUQFOY_clean_sbu_1, # of connection points: 4
#     Node 15, Type 0, BuildingBlock: QUQFOY_clean_sbu_1, # of connection points: 4
#     Node 16, Type 0, BuildingBlock: QUQFOY_clean_sbu_1, # of connection points: 4
#     Node 17, Type 0, BuildingBlock: QUQFOY_clean_sbu_1, # of connection points: 4
#     Node 18, Type 1, BuildingBlock: NAHDIM_clean_linker_0, # of connection points: 4
#     Node 19, Type 1, BuildingBlock: NAHDIM_clean_linker_0, # of connection points: 4
#     Node 20, Type 1, BuildingBlock: NAHDIM_clean_linker_0, # of connection points: 4
#     Node 21, Type 1, BuildingBlock: NAHDIM_clean_linker_0, # of connection points: 4
#     Node 22, Type 1, BuildingBlock: NAHDIM_clean_linker_0, # of connection points: 4
#     Node 23, Type 1, BuildingBlock: NAHDIM_clean_linker_0, # of connection points: 4
#     Node 24, Type 1, BuildingBlock: NAHDIM_clean_linker_0, # of connection points: 4
#     Node 25, Type 1, BuildingBlock: NAHDIM_clean_linker_0, # of connection points: 4
#     Node 26, Type 1, BuildingBlock: NAHDIM_clean_linker_0, # of connection points: 4
#     Node 27, Type 1, BuildingBlock: NAHDIM_clean_linker_0, # of connection points: 4
#     Node 28, Type 1, BuildingBlock: NAHDIM_clean_linker_0, # of connection points: 4
#     Node 29, Type 1, BuildingBlock: NAHDIM_clean_linker_0, # of connection points: 4
#     Node 30, Type 1, BuildingBlock: NAHDIM_clean_linker_0, # of connection points: 4
#     Node 31, Type 1, BuildingBlock: NAHDIM_clean_linker_0, # of connection points: 4
#     Node 32, Type 1, BuildingBlock: NAHDIM_clean_linker_0, # of connection points: 4
#     Node 33, Type 1, BuildingBlock: NAHDIM_clean_linker_0, # of connection points: 4
#     Node 34, Type 1, BuildingBlock: NAHDIM_clean_linker_0, # of connection points: 4
#     Node 35, Type 1, BuildingBlock: NAHDIM_clean_linker_0, # of connection points: 4
#     Edge 36, Type (0, 1), BuildingBlock: EZIPEK_clean_linker_0, # of connection points: 2
#     Edge 37, Type (0, 1), BuildingBlock: EZIPEK_clean_linker_0, # of connection points: 2
#     Edge 38, Type (0, 1), BuildingBlock: EZIPEK_clean_linker_0, # of connection points: 2
#     Edge 39, Type (0, 1), BuildingBlock: EZIPEK_clean_linker_0, # of connection points: 2
#     Edge 40, Type (0, 1), BuildingBlock: EZIPEK_clean_linker_0, # of connection points: 2
#     Edge 41, Type (0, 1), BuildingBlock: EZIPEK_clean_linker_0, # of connection points: 2
#     Edge 42, Type (0, 1), BuildingBlock: EZIPEK_clean_linker_0, # of connection points: 2
#     Edge 43, Type (0, 1), BuildingBlock: EZIPEK_clean_linker_0, # of connection points: 2
#     Edge 44, Type (0, 1), BuildingBlock: EZIPEK_clean_linker_0, # of connection points: 2
#     Edge 45, Type (0, 1), BuildingBlock: EZIPEK_clean_linker_0, # of connection points: 2
#     Edge 46, Type (0, 1), BuildingBlock: EZIPEK_clean_linker_0, # of connection points: 2
#     Edge 47, Type (0, 1), BuildingBlock: EZIPEK_clean_linker_0, # of connection points: 2
#     Edge 48, Type (0, 1), BuildingBlock: EZIPEK_clean_linker_0, # of connection points: 2
#     Edge 49, Type (0, 1), BuildingBlock: EZIPEK_clean_linker_0, # of connection points: 2
#     Edge 50, Type (0, 1), BuildingBlock: EZIPEK_clean_linker_0, # of connection points: 2
#     Edge 51, Type (0, 1), BuildingBlock: EZIPEK_clean_linker_0, # of connection points: 2
#     Edge 52, Type (0, 1), BuildingBlock: EZIPEK_clean_linker_0, # of connection points: 2
#     Edge 53, Type (0, 1), BuildingBlock: EZIPEK_clean_linker_0, # of connection points: 2
#     Edge 54, Type (0, 1), BuildingBlock: EZIPEK_clean_linker_0, # of connection points: 2
#     Edge 55, Type (0, 1), BuildingBlock: EZIPEK_clean_linker_0, # of connection points: 2
#     Edge 56, Type (0, 1), BuildingBlock: EZIPEK_clean_linker_0, # of connection points: 2
#     Edge 57, Type (0, 1), BuildingBlock: EZIPEK_clean_linker_0, # of connection points: 2
#     Edge 58, Type (0, 1), BuildingBlock: EZIPEK_clean_linker_0, # of connection points: 2
#     Edge 59, Type (0, 1), BuildingBlock: EZIPEK_clean_linker_0, # of connection points: 2
#     Edge 60, Type (0, 1), BuildingBlock: EZIPEK_clean_linker_0, # of connection points: 2
#     Edge 61, Type (0, 1), BuildingBlock: EZIPEK_clean_linker_0, # of connection points: 2
#     Edge 62, Type (0, 1), BuildingBlock: EZIPEK_clean_linker_0, # of connection points: 2
#     Edge 63, Type (0, 1), BuildingBlock: EZIPEK_clean_linker_0, # of connection points: 2
#     Edge 64, Type (0, 1), BuildingBlock: EZIPEK_clean_linker_0, # of connection points: 2
#     Edge 65, Type (0, 1), BuildingBlock: EZIPEK_clean_linker_0, # of connection points: 2
#     Edge 66, Type (0, 1), BuildingBlock: EZIPEK_clean_linker_0, # of connection points: 2
#     Edge 67, Type (0, 1), BuildingBlock: EZIPEK_clean_linker_0, # of connection points: 2
#     Edge 68, Type (0, 1), BuildingBlock: EZIPEK_clean_linker_0, # of connection points: 2
#     Edge 69, Type (0, 1), BuildingBlock: EZIPEK_clean_linker_0, # of connection points: 2
#     Edge 70, Type (0, 1), BuildingBlock: EZIPEK_clean_linker_0, # of connection points: 2
#     Edge 71, Type (0, 1), BuildingBlock: EZIPEK_clean_linker_0, # of connection points: 2
#     Edge 72, Type (0, 1), BuildingBlock: EZIPEK_clean_linker_0, # of connection points: 2
#     Edge 73, Type (0, 1), BuildingBlock: EZIPEK_clean_linker_0, # of connection points: 2
#     Edge 74, Type (0, 1), BuildingBlock: EZIPEK_clean_linker_0, # of connection points: 2
#     Edge 75, Type (0, 1), BuildingBlock: EZIPEK_clean_linker_0, # of connection points: 2
#     Edge 76, Type (0, 1), BuildingBlock: EZIPEK_clean_linker_0, # of connection points: 2
#     Edge 77, Type (0, 1), BuildingBlock: EZIPEK_clean_linker_0, # of connection points: 2
#     Edge 78, Type (0, 1), BuildingBlock: EZIPEK_clean_linker_0, # of connection points: 2
#     Edge 79, Type (0, 1), BuildingBlock: EZIPEK_clean_linker_0, # of connection points: 2
#     Edge 80, Type (0, 1), BuildingBlock: EZIPEK_clean_linker_0, # of connection points: 2
#     Edge 81, Type (0, 1), BuildingBlock: EZIPEK_clean_linker_0, # of connection points: 2
#     Edge 82, Type (0, 1), BuildingBlock: EZIPEK_clean_linker_0, # of connection points: 2
#     Edge 83, Type (0, 1), BuildingBlock: EZIPEK_clean_linker_0, # of connection points: 2
#     Edge 84, Type (0, 1), BuildingBlock: EZIPEK_clean_linker_0, # of connection points: 2
#     Edge 85, Type (0, 1), BuildingBlock: EZIPEK_clean_linker_0, # of connection points: 2
#     Edge 86, Type (0, 1), BuildingBlock: EZIPEK_clean_linker_0, # of connection points: 2
#     Edge 87, Type (0, 1), BuildingBlock: EZIPEK_clean_linker_0, # of connection points: 2
#     Edge 88, Type (0, 1), BuildingBlock: EZIPEK_clean_linker_0, # of connection points: 2
#     Edge 89, Type (0, 1), BuildingBlock: EZIPEK_clean_linker_0, # of connection points: 2
#     Edge 90, Type (0, 1), BuildingBlock: EZIPEK_clean_linker_0, # of connection points: 2
#     Edge 91, Type (0, 1), BuildingBlock: EZIPEK_clean_linker_0, # of connection points: 2
#     Edge 92, Type (0, 1), BuildingBlock: EZIPEK_clean_linker_0, # of connection points: 2
#     Edge 93, Type (0, 1), BuildingBlock: EZIPEK_clean_linker_0, # of connection points: 2
#     Edge 94, Type (0, 1), BuildingBlock: EZIPEK_clean_linker_0, # of connection points: 2
#     Edge 95, Type (0, 1), BuildingBlock: EZIPEK_clean_linker_0, # of connection points: 2
#     Edge 96, Type (0, 1), BuildingBlock: EZIPEK_clean_linker_0, # of connection points: 2
#     Edge 97, Type (0, 1), BuildingBlock: EZIPEK_clean_linker_0, # of connection points: 2
#     Edge 98, Type (0, 1), BuildingBlock: EZIPEK_clean_linker_0, # of connection points: 2
#     Edge 99, Type (0, 1), BuildingBlock: EZIPEK_clean_linker_0, # of connection points: 2
#     Edge 100, Type (0, 1), BuildingBlock: EZIPEK_clean_linker_0, # of connection points: 2
#     Edge 101, Type (0, 1), BuildingBlock: EZIPEK_clean_linker_0, # of connection points: 2
#     Edge 102, Type (0, 1), BuildingBlock: EZIPEK_clean_linker_0, # of connection points: 2
#     Edge 103, Type (0, 1), BuildingBlock: EZIPEK_clean_linker_0, # of connection points: 2
#     Edge 104, Type (0, 1), BuildingBlock: EZIPEK_clean_linker_0, # of connection points: 2
#     Edge 105, Type (0, 1), BuildingBlock: EZIPEK_clean_linker_0, # of connection points: 2
#     Edge 106, Type (0, 1), BuildingBlock: EZIPEK_clean_linker_0, # of connection points: 2
#     Edge 107, Type (0, 1), BuildingBlock: EZIPEK_clean_linker_0, # of connection points: 2
# Relax obj value: 0.009
# Max RMSD: 0.099
# Mean RMSD: 0.054
data_MOF--net-ptr--node1-QUQFOY_clean_sbu_1--node2-NAHDIM_clean_linker_0--edge1-EZIPEK_clean_linker_0
_symmetry_space_group_name_H-M    P1
_symmetry_Int_Tables_number       1
_symmetry_cell_setting            triclinic
loop_
_symmetry_equiv_pos_as_xyz
'x, y, z'
_cell_length_a     78.328138
_cell_length_b     77.906025
_cell_length_c     66.776833
_cell_angle_alpha  91.016166
_cell_angle_beta   90.444753
_cell_angle_gamma 119.91516
loop_
_atom_site_label
_atom_site_type_symbol
_atom_site_fract_x
_atom_site_fract_y
_atom_site_fract_z
_atom_type_partial_charge
O0 O 0.0156 0.37095 0.03165 0.0
Cd1 Cd 0.02634 0.36131 0.0087 0.0
Cd2 Cd 0.9875 0.34098 0.99744 0.0
O3 O 0.98383 0.35191 0.02451 0.0
O4 O 0.0515 0.36317 0.01841 0.0
O5 O 0.02468 0.33501 0.0101 0.0
C6 C 0.04258 0.34411 0.0168 0.0
C7 C 0.97064 0.30735 0.98903 0.0
C8 C 0.99768 0.3649 0.03563 0.0
C9 C 0.01575 0.37274 0.97029 0.0
O10 O 0.99793 0.36043 0.97417 0.0
O11 O 0.02983 0.37493 0.98168 0.0
O12 O 0.96177 0.31755 0.98857 0.0
O13 O 0.98886 0.31614 0.9948 0.0
O14 O 0.63379 0.62895 0.04676 0.0
Cd15 Cd 0.63761 0.65114 0.02762 0.0
Cd16 Cd 0.64934 0.63171 0.00253 0.0
O17 O 0.64308 0.61287 0.02597 0.0
O18 O 0.63816 0.67272 0.04468 0.0
O19 O 0.66376 0.67621 0.02769 0.0
C20 C 0.65631 0.68363 0.03986 0.0
C21 C 0.68063 0.64705 0.98923 0.0
C22 C 0.63676 0.61464 0.04287 0.0
C23 C 0.6139 0.6338 0.98956 0.0
O24 O 0.62554 0.62738 0.98545 0.0
O25 O 0.61636 0.64414 0.00538 0.0
O26 O 0.6681 0.62878 0.98476 0.0
O27 O 0.67538 0.65672 0.00119 0.0
O28 O 0.36293 0.00556 0.98609 0.0
Cd29 Cd 0.35274 0.01793 0.00705 0.0
Cd30 Cd 0.33423 0.98073 0.01895 0.0
O31 O 0.34277 0.97401 0.99217 0.0
O32 O 0.35852 0.04378 0.9957 0.0
O33 O 0.32827 0.01941 0.00127 0.0
C34 C 0.33977 0.03688 0.99463 0.0
C35 C 0.30141 0.96636 0.02806 0.0
C36 C 0.35653 0.98733 0.98205 0.0
C37 C 0.3672 0.01099 0.04524 0.0
O38 O 0.35585 0.9927 0.04109 0.0
O39 O 0.36667 0.02416 0.03472 0.0
O40 O 0.31088 0.95682 0.02966 0.0
O41 O 0.31051 0.9839 0.02086 0.0
O42 O 0.99524 0.6327 0.97977 0.0
Cd43 Cd 0.98024 0.64047 0.9998 0.0
Cd44 Cd 0.01691 0.66298 0.01608 0.0
O45 O 0.02534 0.65555 0.98947 0.0
O46 O 0.95661 0.63838 0.98562 0.0
O47 O 0.98234 0.6668 0.9961 0.0
C48 C 0.96561 0.65751 0.98666 0.0
C49 C 0.03095 0.69529 0.02883 0.0
C50 C 0.01378 0.6416 0.97745 0.0
C51 C 0.9867 0.62867 0.03971 0.0
O52 O 0.00468 0.6415 0.03734 0.0
O53 O 0.97352 0.62655 0.02706 0.0
O54 O 0.04033 0.68563 0.02988 0.0
O55 O 0.01408 0.68704 0.01964 0.0
O56 O 0.37728 0.37828 0.97451 0.0
Cd57 Cd 0.37004 0.35471 0.99303 0.0
Cd58 Cd 0.35265 0.37197 0.01461 0.0
O59 O 0.35803 0.38803 0.98876 0.0
O60 O 0.36933 0.33194 0.97761 0.0
O61 O 0.34293 0.3315 0.98994 0.0
C62 C 0.35054 0.32256 0.98029 0.0
C63 C 0.32126 0.35348 0.02765 0.0
C64 C 0.36957 0.38931 0.97481 0.0
C65 C 0.38638 0.37075 0.03437 0.0
O66 O 0.3757 0.37881 0.03435 0.0
O67 O 0.38547 0.35954 0.01982 0.0
O68 O 0.33096 0.37252 0.02996 0.0
O69 O 0.32904 0.34513 0.01728 0.0
O70 O 0.63858 0.99341 0.04915 0.0
Cd71 Cd 0.64313 0.97836 0.02596 0.0
Cd72 Cd 0.66113 0.01531 0.01052 0.0
O73 O 0.65494 0.02381 0.03767 0.0
O74 O 0.64115 0.95373 0.03725 0.0
O75 O 0.66862 0.97836 0.02533 0.0
C76 C 0.65968 0.96137 0.0337 0.0
C77 C 0.69199 0.02815 0.99647 0.0
C78 C 0.64441 0.01181 0.05101 0.0
C79 C 0.62498 0.98386 0.98883 0.0
O80 O 0.63784 0.00209 0.99065 0.0
O81 O 0.62474 0.97123 0.00084 0.0
O82 O 0.683 0.03826 0.99667 0.0
O83 O 0.68405 0.01145 0.00542 0.0
O84 O 0.67115 0.70569 0.37367 0.0
Cd85 Cd 0.68693 0.69877 0.35376 0.0
Cd86 Cd 0.65251 0.68019 0.33372 0.0
O87 O 0.64208 0.68406 0.36073 0.0
O88 O 0.71005 0.70081 0.3688 0.0
O89 O 0.68569 0.67261 0.35624 0.0
C90 C 0.70203 0.68188 0.36635 0.0
C91 C 0.63874 0.64841 0.31946 0.0
C92 C 0.65247 0.69666 0.37437 0.0
C93 C 0.68506 0.71636 0.31538 0.0
O94 O 0.66658 0.70451 0.31558 0.0
O95 O 0.69647 0.71538 0.32836 0.0
O96 O 0.62948 0.65822 0.31882 0.0
O97 O 0.65596 0.65679 0.328 0.0
O98 O 0.29934 0.96287 0.38422 0.0
Cd99 Cd 0.30301 0.98319 0.36277 0.0
Cd100 Cd 0.31532 0.96234 0.34014 0.0
O101 O 0.30778 0.94496 0.36503 0.0
O102 O 0.30428 0.00683 0.37638 0.0
O103 O 0.32938 0.00763 0.36045 0.0
C104 C 0.32226 0.01682 0.37058 0.0
C105 C 0.34656 0.9747 0.32701 0.0
C106 C 0.30185 0.9481 0.38159 0.0
C107 C 0.28065 0.96433 0.32424 0.0
O108 O 0.29277 0.95828 0.3211 0.0
O109 O 0.282 0.97437 0.33999 0.0
O110 O 0.33318 0.95642 0.3241 0.0
O111 O 0.34234 0.98601 0.33771 0.0
O112 O 0.04314 0.33746 0.31149 0.0
Cd113 Cd 0.03615 0.35342 0.33133 0.0
Cd114 Cd 0.01479 0.31812 0.34928 0.0
O115 O 0.02378 0.30831 0.32465 0.0
O116 O 0.03895 0.37746 0.31821 0.0
O117 O 0.01048 0.35294 0.32872 0.0
C118 C 0.02023 0.37 0.32049 0.0
C119 C 0.98187 0.29999 0.35878 0.0
C120 C 0.03598 0.31882 0.31149 0.0
C121 C 0.04918 0.35082 0.37256 0.0
O122 O 0.03535 0.33288 0.37211 0.0
O123 O 0.05192 0.36202 0.35791 0.0
O124 O 0.99391 0.29346 0.36157 0.0
O125 O 0.98845 0.31686 0.35033 0.0
O126 O 0.67028 0.95458 0.31216 0.0
Cd127 Cd 0.65211 0.95911 0.3313 0.0
Cd128 Cd 0.68724 0.98052 0.35164 0.0
O129 O 0.69905 0.97456 0.32688 0.0
O130 O 0.62645 0.94582 0.3165 0.0
O131 O 0.64251 0.97792 0.32357 0.0
C132 C 0.62742 0.96274 0.31544 0.0
C133 C 0.69679 0.0129 0.36101 0.0
C134 C 0.68896 0.9628 0.31256 0.0
C135 C 0.65579 0.94668 0.37314 0.0
O136 O 0.67413 0.95904 0.37287 0.0
O137 O 0.64464 0.94537 0.35857 0.0
O138 O 0.70759 0.00524 0.36546 0.0
O139 O 0.68064 0.00224 0.35081 0.0
O140 O 0.03992 0.70925 0.29689 0.0
Cd141 Cd 0.03792 0.68875 0.31721 0.0
Cd142 Cd 0.01482 0.70044 0.33757 0.0
O143 O 0.01886 0.71627 0.3117 0.0
O144 O 0.0401 0.66674 0.30386 0.0
O145 O 0.01291 0.66302 0.31797 0.0
C146 C 0.02194 0.65534 0.30863 0.0
C147 C 0.9837 0.68148 0.3512 0.0
C148 C 0.03033 0.71847 0.29734 0.0
C149 C 0.05278 0.70758 0.35745 0.0
O150 O 0.03802 0.7102 0.35786 0.0
O151 O 0.05555 0.69887 0.34263 0.0
O152 O 0.99292 0.70055 0.35282 0.0
O153 O 0.99172 0.67319 0.3411 0.0
O154 O 0.30543 0.33516 0.38524 0.0
Cd155 Cd 0.3079 0.31829 0.36238 0.0
Cd156 Cd 0.32252 0.35356 0.34326 0.0
O157 O 0.3165 0.36344 0.36967 0.0
O158 O 0.30679 0.29459 0.37501 0.0
O159 O 0.33318 0.3179 0.36013 0.0
C160 C 0.32485 0.3016 0.36979 0.0
C161 C 0.35359 0.36711 0.32949 0.0
C162 C 0.30934 0.3531 0.38513 0.0
C163 C 0.28654 0.31892 0.32494 0.0
O164 O 0.29901 0.33729 0.32423 0.0
O165 O 0.28739 0.30837 0.33883 0.0
O166 O 0.34347 0.37601 0.32804 0.0
O167 O 0.34647 0.3511 0.3396 0.0
O168 O 0.33564 0.04085 0.70873 0.0
Cd169 Cd 0.35207 0.03664 0.68711 0.0
Cd170 Cd 0.31705 0.01954 0.66626 0.0
O171 O 0.30702 0.02555 0.69232 0.0
O172 O 0.3763 0.03951 0.70075 0.0
O173 O 0.35352 0.01169 0.68607 0.0
C174 C 0.36994 0.02118 0.69595 0.0
C175 C 0.30377 0.98679 0.65524 0.0
C176 C 0.31731 0.03491 0.70771 0.0
C177 C 0.35013 0.05583 0.64897 0.0
O178 O 0.33193 0.04299 0.64743 0.0
O179 O 0.36085 0.05541 0.66312 0.0
O180 O 0.29429 0.9962 0.65246 0.0
O181 O 0.32096 0.99621 0.66378 0.0
O182 O 0.96082 0.29576 0.70743 0.0
Cd183 Cd 0.9652 0.3169 0.6868 0.0
Cd184 Cd 0.98865 0.30466 0.66949 0.0
O185 O 0.98375 0.28976 0.696 0.0
O186 O 0.95952 0.33667 0.69979 0.0
O187 O 0.98916 0.34381 0.68934 0.0
C188 C 0.97789 0.34952 0.69762 0.0
C189 C 0.02056 0.32097 0.65725 0.0
C190 C 0.97079 0.28702 0.70886 0.0
C191 C 0.95211 0.29746 0.64668 0.0
O192 O 0.96621 0.29387 0.64812 0.0
O193 O 0.94944 0.30747 0.66023 0.0
O194 O 0.00987 0.30196 0.65613 0.0
O195 O 0.0133 0.33092 0.66565 0.0
O196 O 0.70335 0.67383 0.64201 0.0
Cd197 Cd 0.6962 0.68874 0.66313 0.0
Cd198 Cd 0.68135 0.65441 0.68319 0.0
O199 O 0.68925 0.6452 0.65742 0.0
O200 O 0.69478 0.71094 0.65027 0.0
O201 O 0.6689 0.6847 0.66258 0.0
C202 C 0.67614 0.70147 0.65375 0.0
C203 C 0.64986 0.63515 0.69591 0.0
C204 C 0.69867 0.65571 0.64272 0.0
C205 C 0.71519 0.69038 0.70275 0.0
O206 O 0.70354 0.67182 0.70356 0.0
O207 O 0.71439 0.70019 0.68813 0.0
O208 O 0.66298 0.62983 0.69745 0.0
O209 O 0.65451 0.65136 0.68684 0.0
O210 O 0.32976 0.29751 0.63384 0.0
Cd211 Cd 0.31239 0.30291 0.65296 0.0
Cd212 Cd 0.34673 0.32428 0.67422 0.0
O213 O 0.35814 0.31876 0.64861 0.0
O214 O 0.29107 0.30419 0.63752 0.0
O215 O 0.316 0.33004 0.65321 0.0
C216 C 0.30037 0.32293 0.64195 0.0
C217 C 0.36221 0.35577 0.6894 0.0
C218 C 0.34848 0.30643 0.63446 0.0
C219 C 0.31362 0.28742 0.69263 0.0
O220 O 0.33157 0.30109 0.69332 0.0
O221 O 0.30239 0.28573 0.67798 0.0
O222 O 0.36981 0.34448 0.69059 0.0
O223 O 0.34609 0.34952 0.67916 0.0
O224 O 0.71209 0.04604 0.63596 0.0
Cd225 Cd 0.70514 0.02404 0.65646 0.0
Cd226 Cd 0.69016 0.04364 0.67702 0.0
O227 O 0.695 0.05824 0.6503 0.0
O228 O 0.70301 0.00051 0.64178 0.0
O229 O 0.6777 0.0009 0.65607 0.0
C230 C 0.68448 0.9915 0.64574 0.0
C231 C 0.65973 0.03151 0.69212 0.0
C232 C 0.70517 0.05773 0.63579 0.0
C233 C 0.72423 0.04182 0.69599 0.0
O234 O 0.71362 0.04995 0.69613 0.0
O235 O 0.7226 0.03001 0.68176 0.0
O236 O 0.67257 0.05014 0.69288 0.0
O237 O 0.66396 0.01966 0.68243 0.0
O238 O 0.95757 0.67084 0.70102 0.0
Cd239 Cd 0.96449 0.65561 0.68 0.0
Cd240 Cd 0.97928 0.69112 0.66191 0.0
O241 O 0.97281 0.70073 0.68823 0.0
O242 O 0.96006 0.63141 0.69413 0.0
O243 O 0.98949 0.65485 0.68467 0.0
C244 C 0.97881 0.63841 0.6936 0.0
C245 C 0.01136 0.7034 0.65164 0.0
C246 C 0.96291 0.68915 0.70208 0.0
C247 C 0.94692 0.65629 0.63992 0.0
O248 O 0.95699 0.67509 0.64112 0.0
O249 O 0.94855 0.64579 0.65335 0.0
O250 O 0.00221 0.71306 0.64839 0.0
O251 O 0.00246 0.68706 0.66123 0.0
C252 C 0.24123 0.28465 0.07225 0.0
C253 C 0.24475 0.30471 0.06464 0.0
C254 C 0.22601 0.3139 0.08793 0.0
C255 C 0.2279 0.32823 0.10201 0.0
C256 C 0.21138 0.32707 0.1113 0.0
C257 C 0.19246 0.31062 0.10696 0.0
C258 C 0.19038 0.29607 0.09261 0.0
C259 C 0.20713 0.29804 0.08297 0.0
C260 C 0.21427 0.34349 0.12575 0.0
C261 C 0.17049 0.27834 0.08754 0.0
C262 C 0.06771 0.32768 0.05234 0.0
C263 C 0.07708 0.3179 0.06322 0.0
C264 C 0.10791 0.32623 0.08064 0.0
C265 C 0.10316 0.30649 0.08343 0.0
C266 C 0.11572 0.30211 0.09458 0.0
C267 C 0.13328 0.31776 0.10321 0.0
C268 C 0.13824 0.33763 0.10019 0.0
C269 C 0.1255 0.34159 0.08884 0.0
C270 C 0.11016 0.28077 0.09729 0.0
C271 C 0.15687 0.35465 0.10917 0.0
C272 C 0.09402 0.31066 0.23133 0.0
C273 C 0.08877 0.29165 0.22381 0.0
C274 C 0.10245 0.28835 0.21341 0.0
C275 C 0.12165 0.30437 0.21037 0.0
C276 C 0.12691 0.32352 0.21787 0.0
C277 C 0.11299 0.32638 0.22824 0.0
C278 C 0.09642 0.26778 0.20559 0.0
C279 C 0.14725 0.34095 0.21493 0.0
C280 C 0.25529 0.30777 0.23856 0.0
C281 C 0.24073 0.30648 0.25461 0.0
C282 C 0.20841 0.29336 0.23754 0.0
C283 C 0.18976 0.27665 0.2347 0.0
C284 C 0.17529 0.27718 0.22257 0.0
C285 C 0.1795 0.29505 0.21333 0.0
C286 C 0.19825 0.31213 0.21637 0.0
C287 C 0.21261 0.31098 0.22798 0.0
C288 C 0.15554 0.25864 0.21958 0.0
C289 C 0.20325 0.33173 0.20736 0.0
C290 C 0.17491 0.30885 0.11729 0.0
C291 C 0.1622 0.31316 0.10649 0.0
C292 C 0.14629 0.31329 0.11566 0.0
C293 C 0.14318 0.30957 0.13635 0.0
C294 C 0.12789 0.31053 0.14626 0.0
C295 C 0.12541 0.30757 0.16677 0.0
C296 C 0.13806 0.30343 0.17813 0.0
C297 C 0.13622 0.30128 0.19912 0.0
C298 C 0.1494 0.2977 0.21004 0.0
C299 C 0.16441 0.29608 0.20055 0.0
C300 C 0.16614 0.29768 0.17949 0.0
C301 C 0.1807 0.29559 0.16936 0.0
C302 C 0.18333 0.29879 0.1489 0.0
C303 C 0.17147 0.30416 0.13778 0.0
C304 C 0.15585 0.30503 0.14744 0.0
C305 C 0.15321 0.30182 0.16834 0.0
C306 C 0.05535 0.30884 0.26408 0.0
C307 C 0.06276 0.30075 0.24811 0.0
O308 O 0.24282 0.31599 0.07981 0.0
O309 O 0.22169 0.29176 0.24957 0.0
O310 O 0.08149 0.31447 0.24193 0.0
O311 O 0.09597 0.33106 0.07025 0.0
H312 H 0.23334 0.30205 0.05313 0.0
H313 H 0.23959 0.27467 0.05942 0.0
H314 H 0.22762 0.27717 0.08111 0.0
H315 H 0.25361 0.28627 0.08181 0.0
H316 H 0.24248 0.34051 0.10561 0.0
H317 H 0.20529 0.28699 0.07181 0.0
H318 H 0.20263 0.34748 0.12349 0.0
H319 H 0.22888 0.35699 0.12408 0.0
H320 H 0.21333 0.33843 0.14133 0.0
H321 H 0.1717 0.26696 0.07839 0.0
H322 H 0.16151 0.28319 0.07896 0.0
H323 H 0.1625 0.27145 0.10145 0.0
H324 H 0.06773 0.30749 0.07495 0.0
H325 H 0.06391 0.31608 0.02385 0.0
H326 H 0.07685 0.34404 0.05583 0.0
H327 H 0.05499 0.32541 0.06186 0.0
H328 H 0.08971 0.29443 0.07695 0.0
H329 H 0.12909 0.35675 0.08651 0.0
H330 H 0.12238 0.27842 0.09237 0.0
H331 H 0.09655 0.27033 0.08873 0.0
H332 H 0.10781 0.2772 0.11341 0.0
H333 H 0.15836 0.36926 0.10587 0.0
H334 H 0.16985 0.35423 0.10322 0.0
H335 H 0.15705 0.35318 0.12568 0.0
H336 H 0.05235 0.29304 0.23527 0.0
H337 H 0.07408 0.27936 0.22602 0.0
H338 H 0.11691 0.34096 0.23415 0.0
H339 H 0.09759 0.26788 0.18903 0.0
H340 H 0.0811 0.25676 0.20961 0.0
H341 H 0.10659 0.26303 0.21172 0.0
H342 H 0.14891 0.35495 0.22139 0.0
H343 H 0.15046 0.34288 0.1987 0.0
H344 H 0.1584 0.33809 0.22211 0.0
H345 H 0.24201 0.3213 0.25468 0.0
H346 H 0.27071 0.31774 0.24384 0.0
H347 H 0.25286 0.31399 0.22469 0.0
H348 H 0.25339 0.29309 0.2344 0.0
H349 H 0.18658 0.26308 0.242 0.0
H350 H 0.22699 0.32405 0.22939 0.0
H351 H 0.15163 0.25578 0.20337 0.0
H352 H 0.14403 0.2607 0.227 0.0
H353 H 0.15533 0.24544 0.2259 0.0
H354 H 0.21649 0.3443 0.21467 0.0
H355 H 0.19076 0.33459 0.20868 0.0
H356 H 0.20631 0.33138 0.19122 0.0
H357 H 0.16486 0.31672 0.09077 0.0
H358 H 0.11783 0.31388 0.13834 0.0
H359 H 0.11355 0.30876 0.17362 0.0
H360 H 0.14838 0.29687 0.22623 0.0
H361 H 0.19043 0.29174 0.17721 0.0
H362 H 0.19495 0.29724 0.14195 0.0
H363 H 0.05284 0.29189 0.2885 0.0
H364 H 0.04231 0.30895 0.25704 0.0
H365 H 0.06509 0.32544 0.26429 0.0
C366 C 0.72354 0.93503 0.03302 0.0
C367 C 0.7081 0.92546 0.04933 0.0
C368 C 0.71293 0.91368 0.08125 0.0
C369 C 0.69345 0.90071 0.08662 0.0
C370 C 0.68906 0.88532 0.09989 0.0
C371 C 0.70452 0.88287 0.10782 0.0
C372 C 0.72427 0.8964 0.10289 0.0
C373 C 0.72822 0.91189 0.08992 0.0
C374 C 0.6679 0.87147 0.10517 0.0
C375 C 0.74114 0.89414 0.11077 0.0
C376 C 0.6697 0.73565 0.05254 0.0
C377 C 0.67927 0.75684 0.0592 0.0
C378 C 0.67402 0.77759 0.08359 0.0
C379 C 0.69371 0.79306 0.08449 0.0
C380 C 0.69926 0.81017 0.09632 0.0
C381 C 0.68475 0.81212 0.10701 0.0
C382 C 0.66484 0.79678 0.10571 0.0
C383 C 0.65983 0.77956 0.09429 0.0
C384 C 0.72067 0.82616 0.09743 0.0
C385 C 0.64883 0.79856 0.11633 0.0
C386 C 0.68971 0.7819 0.23621 0.0
C387 C 0.70836 0.79477 0.22844 0.0
C388 C 0.71177 0.81166 0.21803 0.0
C389 C 0.69621 0.81572 0.21524 0.0
C390 C 0.67743 0.80279 0.22301 0.0
C391 C 0.67444 0.78603 0.23338 0.0
C392 C 0.73198 0.82515 0.20992 0.0
C393 C 0.66052 0.80666 0.22025 0.0
C394 C 0.75199 0.97548 0.24725 0.0
C395 C 0.73384 0.95467 0.24724 0.0
C396 C 0.73177 0.92303 0.23826 0.0
C397 C 0.74415 0.91566 0.23302 0.0
C398 C 0.737 0.89788 0.22191 0.0
C399 C 0.71678 0.88692 0.2164 0.0
C400 C 0.70397 0.89389 0.22244 0.0
C401 C 0.71164 0.91197 0.23322 0.0
C402 C 0.75111 0.89087 0.21596 0.0
C403 C 0.6822 0.88223 0.21751 0.0
C404 C 0.69994 0.86525 0.11982 0.0
C405 C 0.69403 0.8474 0.10936 0.0
C406 C 0.69042 0.83033 0.11931 0.0
C407 C 0.69264 0.83092 0.1404 0.0
C408 C 0.68948 0.81412 0.15087 0.0
C409 C 0.69153 0.81479 0.17162 0.0
C410 C 0.69712 0.83238 0.18269 0.0
C411 C 0.69947 0.83324 0.20377 0.0
C412 C 0.70539 0.85105 0.21431 0.0
C413 C 0.70917 0.86822 0.20436 0.0
C414 C 0.70667 0.86759 0.18327 0.0
C415 C 0.71026 0.88452 0.17273 0.0
C416 C 0.7078 0.88374 0.15199 0.0
C417 C 0.70202 0.8661 0.14094 0.0
C418 C 0.69835 0.84885 0.15125 0.0
C419 C 0.70062 0.84959 0.17243 0.0
C420 C 0.69219 0.74489 0.26829 0.0
C421 C 0.69955 0.76017 0.25256 0.0
O422 O 0.71742 0.92807 0.06779 0.0
O423 O 0.73975 0.94066 0.24844 0.0
O424 O 0.68591 0.76563 0.24676 0.0
O425 O 0.66814 0.76049 0.07286 0.0
H426 H 0.70076 0.90956 0.04501 0.0
H427 H 0.73334 0.92852 0.03292 0.0
H428 H 0.73287 0.95127 0.03533 0.0
H429 H 0.71614 0.9321 0.01808 0.0
H430 H 0.68173 0.9027 0.08053 0.0
H431 H 0.74325 0.92222 0.08585 0.0
H432 H 0.66292 0.85667 0.09815 0.0
H433 H 0.65795 0.87687 0.09993 0.0
H434 H 0.66656 0.86963 0.12164 0.0
H435 H 0.75547 0.90511 0.10442 0.0
H436 H 0.73843 0.879 0.10717 0.0
H437 H 0.7422 0.89608 0.12732 0.0
H438 H 0.68465 0.76775 0.04691 0.0
H439 H 0.66622 0.73559 0.03615 0.0
H440 H 0.65389 0.72838 0.0573 0.0
H441 H 0.68887 0.72686 0.06274 0.0
H442 H 0.70487 0.7918 0.0762 0.0
H443 H 0.64467 0.76758 0.09347 0.0
H444 H 0.72253 0.83947 0.08971 0.0
H445 H 0.73042 0.82136 0.0903 0.0
H446 H 0.7255 0.83054 0.11329 0.0
H447 H 0.63387 0.78666 0.11156 0.0
H448 H 0.65012 0.81315 0.11344 0.0
H449 H 0.65048 0.79763 0.13273 0.0
H450 H 0.70645 0.75702 0.2395 0.0
H451 H 0.72031 0.79172 0.23043 0.0
H452 H 0.66013 0.77606 0.23946 0.0
H453 H 0.73101 0.82564 0.19336 0.0
H454 H 0.74267 0.82024 0.2138 0.0
H455 H 0.73767 0.84045 0.21595 0.0
H456 H 0.6468 0.79517 0.22719 0.0
H457 H 0.65761 0.80712 0.20402 0.0
H458 H 0.66451 0.82135 0.22701 0.0
H459 H 0.7273 0.95324 0.23218 0.0
H460 H 0.74739 0.9867 0.24493 0.0
H461 H 0.76179 0.97653 0.23481 0.0
H462 H 0.76063 0.97925 0.26148 0.0
H463 H 0.75962 0.92418 0.23728 0.0
H464 H 0.70186 0.91724 0.23799 0.0
H465 H 0.74974 0.8874 0.19962 0.0
H466 H 0.74734 0.87706 0.2239 0.0
H467 H 0.76667 0.90204 0.21968 0.0
H468 H 0.67395 0.88872 0.22483 0.0
H469 H 0.67601 0.86669 0.22229 0.0
H470 H 0.67987 0.88186 0.20106 0.0
H471 H 0.69249 0.84687 0.09316 0.0
H472 H 0.68535 0.80021 0.14315 0.0
H473 H 0.68878 0.80134 0.17885 0.0
H474 H 0.7074 0.85164 0.23045 0.0
H475 H 0.71495 0.89857 0.18041 0.0
H476 H 0.71063 0.89719 0.14469 0.0
H477 H 0.71047 0.75955 0.29267 0.0
H478 H 0.69151 0.73145 0.26092 0.0
H479 H 0.67573 0.73835 0.26869 0.0
C480 C 0.26033 0.94234 0.06361 0.0
C481 C 0.24144 0.93368 0.07458 0.0
C482 C 0.21734 0.90245 0.08943 0.0
C483 C 0.20358 0.90852 0.09382 0.0
C484 C 0.186 0.89588 0.10356 0.0
C485 C 0.1821 0.87681 0.10905 0.0
C486 C 0.19584 0.87062 0.10455 0.0
C487 C 0.21328 0.88353 0.09476 0.0
C488 C 0.17157 0.90288 0.108 0.0
C489 C 0.19211 0.85037 0.11015 0.0
C490 C 0.02887 0.76703 0.0694 0.0
C491 C 0.04881 0.76795 0.07184 0.0
C492 C 0.07985 0.7985 0.07788 0.0
C493 C 0.09185 0.7918 0.08626 0.0
C494 C 0.10809 0.80439 0.09863 0.0
C495 C 0.11238 0.82409 0.10254 0.0
C496 C 0.10062 0.83103 0.09352 0.0
C497 C 0.08457 0.81814 0.08111 0.0
C498 C 0.12063 0.79667 0.10757 0.0
C499 C 0.10488 0.85198 0.0972 0.0
C500 C 0.06585 0.80251 0.2283 0.0
C501 C 0.07792 0.79465 0.22301 0.0
C502 C 0.09632 0.80659 0.21429 0.0
C503 C 0.10258 0.8267 0.21052 0.0
C504 C 0.09059 0.83473 0.21629 0.0
C505 C 0.0725 0.82255 0.22536 0.0
C506 C 0.10903 0.79771 0.20906 0.0
C507 C 0.09677 0.8561 0.21267 0.0
C508 C 0.23835 0.95276 0.24129 0.0
C509 C 0.2247 0.94078 0.2584 0.0
C510 C 0.20315 0.90814 0.24192 0.0
C511 C 0.19942 0.88866 0.24011 0.0
C512 C 0.1841 0.87459 0.22768 0.0
C513 C 0.17208 0.88015 0.21689 0.0
C514 C 0.1756 0.89979 0.21878 0.0
C515 C 0.1912 0.91363 0.23111 0.0
C516 C 0.18082 0.85383 0.22596 0.0
C517 C 0.16291 0.90617 0.20769 0.0
C518 C 0.16353 0.8633 0.11933 0.0
C519 C 0.14724 0.85014 0.1075 0.0
C520 C 0.12913 0.83742 0.11609 0.0
C521 C 0.12709 0.83778 0.13711 0.0
C522 C 0.10899 0.82546 0.14622 0.0
C523 C 0.10712 0.82596 0.1669 0.0
C524 C 0.12329 0.83873 0.17932 0.0
C525 C 0.12154 0.83933 0.20038 0.0
C526 C 0.13779 0.85268 0.21217 0.0
C527 C 0.15586 0.8655 0.20355 0.0
C528 C 0.15803 0.86476 0.18258 0.0
C529 C 0.17612 0.87712 0.17346 0.0
C530 C 0.17799 0.87661 0.15278 0.0
C531 C 0.16186 0.8637 0.1404 0.0
C532 C 0.14355 0.85091 0.14931 0.0
C533 C 0.14165 0.85141 0.17043 0.0
C534 C 0.0139 0.76705 0.23171 0.0
C535 C 0.03517 0.77124 0.23351 0.0
O536 O 0.23456 0.91426 0.08008 0.0
O537 O 0.21843 0.92099 0.2541 0.0
O538 O 0.04785 0.7914 0.23646 0.0
O539 O 0.06384 0.78639 0.06633 0.0
H540 H 0.24127 0.94315 0.08723 0.0
H541 H 0.2666 0.93226 0.06589 0.0
H542 H 0.27142 0.95459 0.07377 0.0
H543 H 0.25277 0.94754 0.03584 0.0
H544 H 0.20642 0.92306 0.08966 0.0
H545 H 0.22391 0.87893 0.09125 0.0
H546 H 0.15702 0.89247 0.10098 0.0
H547 H 0.17658 0.91799 0.10243 0.0
H548 H 0.16947 0.90298 0.12442 0.0
H549 H 0.20445 0.84793 0.106 0.0
H550 H 0.17841 0.83881 0.10251 0.0
H551 H 0.18985 0.8485 0.12654 0.0
H552 H 0.04982 0.7666 0.08822 0.0
H553 H 0.02567 0.76913 0.05373 0.0
H554 H 0.02874 0.77884 0.07888 0.0
H555 H 0.01683 0.75249 0.07437 0.0
H556 H 0.08871 0.77688 0.08284 0.0
H557 H 0.07535 0.82321 0.07424 0.0
H558 H 0.11985 0.79698 0.12416 0.0
H559 H 0.13627 0.80641 0.10356 0.0
H560 H 0.11585 0.78128 0.10238 0.0
H561 H 0.09389 0.85487 0.08968 0.0
H562 H 0.11973 0.86253 0.0916 0.0
H563 H 0.10497 0.85495 0.11353 0.0
H564 H 0.03791 0.76716 0.21848 0.0
H565 H 0.07315 0.77931 0.22593 0.0
H566 H 0.06317 0.82853 0.22978 0.0
H567 H 0.10989 0.79676 0.19253 0.0
H568 H 0.10316 0.78262 0.21507 0.0
H569 H 0.12426 0.80735 0.21504 0.0
H570 H 0.08497 0.85955 0.21628 0.0
H571 H 0.10085 0.85965 0.19677 0.0
H572 H 0.10997 0.86587 0.22209 0.0
H573 H 0.21189 0.94319 0.25928 0.0
H574 H 0.242 0.96843 0.24159 0.0
H575 H 0.23109 0.94641 0.22653 0.0
H576 H 0.25225 0.95221 0.242 0.0
H577 H 0.20869 0.88453 0.24846 0.0
H578 H 0.19393 0.92867 0.23206 0.0
H579 H 0.18107 0.84978 0.20997 0.0
H580 H 0.16607 0.84322 0.23174 0.0
H581 H 0.19213 0.85214 0.23445 0.0
H582 H 0.16638 0.9214 0.21215 0.0
H583 H 0.1471 0.89577 0.2105 0.0
H584 H 0.16515 0.90575 0.19133 0.0
H585 H 0.14863 0.84991 0.09136 0.0
H586 H 0.09603 0.81532 0.13745 0.0
H587 H 0.09279 0.8162 0.17303 0.0
H588 H 0.13625 0.85333 0.22826 0.0
H589 H 0.18904 0.88738 0.18221 0.0
H590 H 0.19225 0.88652 0.1466 0.0
H591 H 0.00386 0.75115 0.22781 0.0
H592 H 0.0127 0.77602 0.21959 0.0
H593 H 0.00881 0.77064 0.24579 0.0
C594 C 0.33358 0.08758 0.92851 0.0
C595 C 0.32632 0.09064 0.94896 0.0
C596 C 0.30592 0.1047 0.93769 0.0
C597 C 0.28657 0.09995 0.93324 0.0
C598 C 0.2825 0.11302 0.92278 0.0
C599 C 0.29826 0.13137 0.91669 0.0
C600 C 0.31786 0.13662 0.92175 0.0
C601 C 0.32151 0.1233 0.93227 0.0
C602 C 0.26142 0.10705 0.91777 0.0
C603 C 0.335 0.15617 0.91565 0.0
C604 C 0.27622 0.23984 0.97811 0.0
C605 C 0.29192 0.24082 0.96382 0.0
C606 C 0.28513 0.219 0.93485 0.0
C607 C 0.30357 0.22193 0.92932 0.0
C608 C 0.30518 0.20706 0.9188 0.0
C609 C 0.28792 0.18896 0.9137 0.0
C610 C 0.26925 0.18616 0.91897 0.0
C611 C 0.26809 0.20138 0.92932 0.0
C612 C 0.32527 0.2107 0.91301 0.0
C613 C 0.25057 0.16711 0.91369 0.0
C614 C 0.28766 0.21271 0.78111 0.0
C615 C 0.30466 0.21614 0.79188 0.0
C616 C 0.30463 0.20133 0.80353 0.0
C617 C 0.28705 0.18291 0.80517 0.0
C618 C 0.26983 0.1795 0.7947 0.0
C619 C 0.27042 0.19442 0.7827 0.0
C620 C 0.32348 0.20543 0.81408 0.0
C621 C 0.2508 0.16011 0.7962 0.0
C622 C 0.29005 0.04886 0.79298 0.0
C623 C 0.28709 0.05916 0.77486 0.0
C624 C 0.29696 0.09286 0.78796 0.0
C625 C 0.31259 0.11234 0.78923 0.0
C626 C 0.31078 0.12724 0.79942 0.0
C627 C 0.29265 0.12257 0.80824 0.0
C628 C 0.27659 0.10294 0.80672 0.0
C629 C 0.27901 0.0882 0.79694 0.0
C630 C 0.32832 0.14793 0.80088 0.0
C631 C 0.25686 0.09747 0.81551 0.0
C632 C 0.29437 0.14465 0.90414 0.0
C633 C 0.29237 0.15966 0.91367 0.0
C634 C 0.2894 0.17307 0.90261 0.0
C635 C 0.28824 0.17144 0.88145 0.0
C636 C 0.2853 0.18469 0.86987 0.0
C637 C 0.28456 0.18319 0.84905 0.0
C638 C 0.28683 0.16846 0.83899 0.0
C639 C 0.28689 0.16732 0.81782 0.0
C640 C 0.28842 0.15203 0.8083 0.0
C641 C 0.29062 0.13814 0.81935 0.0
C642 C 0.29147 0.13958 0.84053 0.0
C643 C 0.29465 0.12649 0.85211 0.0
C644 C 0.29551 0.12805 0.87292 0.0
C645 C 0.2933 0.14282 0.88299 0.0
C646 C 0.29021 0.15626 0.87162 0.0
C647 C 0.28937 0.15468 0.85037 0.0
C648 C 0.30537 0.2606 0.78051 0.0
C649 C 0.30271 0.24493 0.76453 0.0
O650 O 0.3088 0.09087 0.94693 0.0
O651 O 0.30001 0.0793 0.77789 0.0
O652 O 0.28716 0.22644 0.76911 0.0
O653 O 0.28343 0.23319 0.94513 0.0
H654 H 0.33819 0.10528 0.95455 0.0
H655 H 0.33918 0.10114 0.91955 0.0
H656 H 0.32172 0.07528 0.9195 0.0
H657 H 0.34593 0.08459 0.93066 0.0
H658 H 0.27461 0.08569 0.93763 0.0
H659 H 0.33658 0.12754 0.93597 0.0
H660 H 0.25827 0.11875 0.92311 0.0
H661 H 0.25077 0.0928 0.92457 0.0
H662 H 0.25911 0.10555 0.90126 0.0
H663 H 0.3494 0.15814 0.92081 0.0
H664 H 0.33333 0.16852 0.92197 0.0
H665 H 0.33508 0.15721 0.89908 0.0
H666 H 0.29619 0.23065 0.97074 0.0
H667 H 0.28286 0.24563 0.99323 0.0
H668 H 0.26434 0.22419 0.97953 0.0
H669 H 0.26935 0.24842 0.9728 0.0
H670 H 0.31661 0.23598 0.93294 0.0
H671 H 0.2539 0.19945 0.93347 0.0
H672 H 0.32816 0.19958 0.92009 0.0
H673 H 0.3372 0.22575 0.91765 0.0
H674 H 0.32573 0.20886 0.89653 0.0
H675 H 0.23726 0.167 0.91945 0.0
H676 H 0.25133 0.15438 0.91995 0.0
H677 H 0.24905 0.1649 0.89716 0.0
H678 H 0.31687 0.24495 0.76501 0.0
H679 H 0.31809 0.23026 0.7914 0.0
H680 H 0.25734 0.19186 0.77448 0.0
H681 H 0.32225 0.20737 0.8304 0.0
H682 H 0.33649 0.21905 0.80868 0.0
H683 H 0.32608 0.19276 0.81185 0.0
H684 H 0.23826 0.16047 0.78873 0.0
H685 H 0.24724 0.15641 0.81217 0.0
H686 H 0.2525 0.14807 0.78908 0.0
H687 H 0.27161 0.05591 0.77387 0.0
H688 H 0.27855 0.03312 0.79397 0.0
H689 H 0.28942 0.05624 0.80712 0.0
H690 H 0.30472 0.0499 0.79242 0.0
H691 H 0.32638 0.11582 0.78229 0.0
H692 H 0.26678 0.07319 0.79647 0.0
H693 H 0.33097 0.15349 0.81667 0.0
H694 H 0.32527 0.15803 0.79196 0.0
H695 H 0.34194 0.14861 0.79521 0.0
H696 H 0.24511 0.08253 0.81032 0.0
H697 H 0.25245 0.10849 0.81144 0.0
H698 H 0.25798 0.09756 0.83209 0.0
H699 H 0.29334 0.16106 0.92989 0.0
H700 H 0.28362 0.19643 0.87677 0.0
H701 H 0.28225 0.19379 0.84092 0.0
H702 H 0.2884 0.15121 0.79206 0.0
H703 H 0.2966 0.11492 0.84523 0.0
H704 H 0.29799 0.11755 0.881 0.0
H705 H 0.31636 0.27565 0.7756 0.0
H706 H 0.3109 0.25783 0.79474 0.0
H707 H 0.2914 0.26029 0.78385 0.0
C708 C 0.76605 0.0363 0.9417 0.0
C709 C 0.76375 0.0534 0.95068 0.0
C710 C 0.78027 0.08049 0.92669 0.0
C711 C 0.77733 0.09282 0.91392 0.0
C712 C 0.79309 0.10821 0.90395 0.0
C713 C 0.81224 0.11082 0.90622 0.0
C714 C 0.81531 0.09819 0.91893 0.0
C715 C 0.79939 0.08343 0.92932 0.0
C716 C 0.78922 0.12178 0.89122 0.0
C717 C 0.83543 0.10037 0.92182 0.0
C718 C 0.91162 0.21453 0.9855 0.0
C719 C 0.92322 0.2242 0.96644 0.0
C720 C 0.89764 0.2076 0.93983 0.0
C721 C 0.89886 0.19022 0.93808 0.0
C722 C 0.88644 0.17482 0.92468 0.0
C723 C 0.87209 0.17651 0.91325 0.0
C724 C 0.87059 0.19382 0.91522 0.0
C725 C 0.88359 0.20924 0.92828 0.0
C726 C 0.88863 0.15667 0.92282 0.0
C727 C 0.85521 0.19601 0.90359 0.0
C728 C 0.91808 0.21071 0.78856 0.0
C729 C 0.91946 0.19376 0.79255 0.0
C730 C 0.90385 0.1772 0.80136 0.0
C731 C 0.88633 0.17738 0.80593 0.0
C732 C 0.88472 0.19422 0.80154 0.0
C733 C 0.90073 0.21075 0.79313 0.0
C734 C 0.90616 0.15954 0.80591 0.0
C735 C 0.86617 0.19485 0.80591 0.0
C736 C 0.7712 0.02561 0.76248 0.0
C737 C 0.77533 0.04703 0.76262 0.0
C738 C 0.8061 0.07612 0.77406 0.0
C739 C 0.82482 0.08034 0.78048 0.0
C740 C 0.8364 0.09664 0.79327 0.0
C741 C 0.82929 0.10944 0.7992 0.0
C742 C 0.81059 0.10564 0.79212 0.0
C743 C 0.7991 0.08888 0.77972 0.0
C744 C 0.85624 0.10015 0.80038 0.0
C745 C 0.8028 0.11931 0.79756 0.0
C746 C 0.82921 0.12731 0.89612 0.0
C747 C 0.8422 0.14384 0.90789 0.0
C748 C 0.85845 0.15998 0.89955 0.0
C749 C 0.86164 0.16001 0.87874 0.0
C750 C 0.87773 0.1761 0.86982 0.0
C751 C 0.88049 0.17619 0.84927 0.0
C752 C 0.8674 0.16011 0.83684 0.0
C753 C 0.86997 0.16021 0.81589 0.0
C754 C 0.85706 0.14369 0.80406 0.0
C755 C 0.8416 0.1269 0.81258 0.0
C756 C 0.83861 0.12667 0.83349 0.0
C757 C 0.8233 0.11004 0.84263 0.0
C758 C 0.82026 0.11014 0.86315 0.0
C759 C 0.83246 0.12683 0.87534 0.0
C760 C 0.84849 0.14344 0.86657 0.0
C761 C 0.85147 0.14342 0.8456 0.0
C762 C 0.96604 0.23421 0.78892 0.0
C763 C 0.95038 0.22977 0.77253 0.0
O764 O 0.76427 0.06602 0.93598 0.0
O765 O 0.79546 0.05991 0.76202 0.0
O766 O 0.93305 0.22734 0.78057 0.0
O767 O 0.90953 0.22309 0.95237 0.0
H768 H 0.77636 0.06253 0.96103 0.0
H769 H 0.77849 0.04186 0.93122 0.0
H770 H 0.7526 0.0252 0.93343 0.0
H771 H 0.76899 0.02847 0.95377 0.0
H772 H 0.76257 0.09053 0.91205 0.0
H773 H 0.80207 0.07424 0.93934 0.0
H774 H 0.80053 0.1375 0.89432 0.0
H775 H 0.77443 0.11996 0.89384 0.0
H776 H 0.79006 0.11845 0.87515 0.0
H777 H 0.83455 0.08683 0.92805 0.0
H778 H 0.84418 0.1129 0.93249 0.0
H779 H 0.84341 0.10364 0.90746 0.0
H780 H 0.93082 0.21628 0.96094 0.0
H781 H 0.92021 0.21142 0.99659 0.0
H782 H 0.89843 0.20002 0.98159 0.0
H783 H 0.90651 0.22411 0.99267 0.0
H784 H 0.90939 0.18842 0.94701 0.0
H785 H 0.88269 0.22264 0.92975 0.0
H786 H 0.87563 0.14391 0.92938 0.0
H787 H 0.90209 0.1587 0.93068 0.0
H788 H 0.88919 0.15293 0.9068 0.0
H789 H 0.85479 0.20956 0.9082 0.0
H790 H 0.84042 0.18289 0.90572 0.0
H791 H 0.85839 0.19675 0.88736 0.0
H792 H 0.94661 0.21552 0.76492 0.0
H793 H 0.93271 0.19334 0.78912 0.0
H794 H 0.89974 0.22383 0.78998 0.0
H795 H 0.90201 0.15499 0.8216 0.0
H796 H 0.92145 0.16259 0.80365 0.0
H797 H 0.8961 0.14691 0.79591 0.0
H798 H 0.86644 0.20809 0.7996 0.0
H799 H 0.86436 0.19513 0.82236 0.0
H800 H 0.85312 0.18133 0.79964 0.0
H801 H 0.77016 0.0487 0.77749 0.0
H802 H 0.75516 0.01523 0.76412 0.0
H803 H 0.77911 0.02355 0.77526 0.0
H804 H 0.77601 0.02159 0.74846 0.0
H805 H 0.83016 0.07051 0.77574 0.0
H806 H 0.78491 0.08602 0.77409 0.0
H807 H 0.85814 0.10326 0.81679 0.0
H808 H 0.86797 0.11328 0.79287 0.0
H809 H 0.85829 0.08729 0.79694 0.0
H810 H 0.78893 0.11539 0.78926 0.0
H811 H 0.81397 0.13486 0.79435 0.0
H812 H 0.79991 0.11856 0.81385 0.0
H813 H 0.8397 0.14408 0.92383 0.0
H814 H 0.88829 0.18889 0.87861 0.0
H815 H 0.89307 0.18906 0.84326 0.0
H816 H 0.85925 0.1438 0.78803 0.0
H817 H 0.81339 0.0968 0.83401 0.0
H818 H 0.80819 0.09696 0.86933 0.0
H819 H 0.97883 0.23386 0.78231 0.0
H820 H 0.96003 0.22297 0.80073 0.0
H821 H 0.9715 0.24898 0.79617 0.0
C822 C 0.77367 0.69747 0.98084 0.0
C823 C 0.76136 0.68837 0.96144 0.0
C824 C 0.78454 0.68476 0.93912 0.0
C825 C 0.79749 0.70503 0.93612 0.0
C826 C 0.81453 0.71129 0.92475 0.0
C827 C 0.81858 0.69702 0.91609 0.0
C828 C 0.80542 0.67664 0.91884 0.0
C829 C 0.78859 0.67081 0.93035 0.0
C830 C 0.82829 0.73314 0.92202 0.0
C831 C 0.8092 0.66101 0.90972 0.0
C832 C 0.96915 0.72912 0.94319 0.0
C833 C 0.94837 0.71095 0.94285 0.0
C834 C 0.91947 0.7147 0.93853 0.0
C835 C 0.90607 0.69688 0.92874 0.0
C836 C 0.89021 0.69541 0.9174 0.0
C837 C 0.88766 0.71212 0.91601 0.0
C838 C 0.90092 0.72999 0.92631 0.0
C839 C 0.91659 0.73098 0.93763 0.0
C840 C 0.87605 0.67597 0.90706 0.0
C841 C 0.89853 0.74801 0.92531 0.0
C842 C 0.92064 0.72762 0.78354 0.0
C843 C 0.90797 0.70927 0.79202 0.0
C844 C 0.89229 0.70677 0.80398 0.0
C845 C 0.88954 0.72313 0.80801 0.0
C846 C 0.9023 0.74165 0.79947 0.0
C847 C 0.9175 0.74354 0.78704 0.0
C848 C 0.87845 0.6865 0.81193 0.0
C849 C 0.89983 0.75942 0.80337 0.0
C850 C 0.75429 0.71837 0.78865 0.0
C851 C 0.76826 0.72077 0.77142 0.0
C852 C 0.79006 0.70958 0.78607 0.0
C853 C 0.79381 0.69385 0.78648 0.0
C854 C 0.80956 0.69511 0.79785 0.0
C855 C 0.82205 0.71274 0.8089 0.0
C856 C 0.81842 0.72881 0.80853 0.0
C857 C 0.80231 0.72698 0.79735 0.0
C858 C 0.81285 0.67761 0.79801 0.0
C859 C 0.83163 0.74795 0.81988 0.0
C860 C 0.8367 0.70334 0.90439 0.0
C861 C 0.85342 0.7056 0.91448 0.0
C862 C 0.87078 0.71069 0.90431 0.0
C863 C 0.87161 0.71375 0.88343 0.0
C864 C 0.88883 0.71893 0.8727 0.0
C865 C 0.88932 0.7214 0.85207 0.0
C866 C 0.8726 0.71876 0.84138 0.0
C867 C 0.87271 0.72051 0.82031 0.0
C868 C 0.85609 0.71861 0.8103 0.0
C869 C 0.83906 0.71447 0.82063 0.0
C870 C 0.83837 0.71181 0.84157 0.0
C871 C 0.82117 0.7067 0.85231 0.0
C872 C 0.8206 0.70398 0.87288 0.0
C873 C 0.83721 0.70629 0.88352 0.0
C874 C 0.85473 0.71148 0.87301 0.0
C875 C 0.85526 0.71411 0.85198 0.0
C876 C 0.9684 0.74026 0.77809 0.0
C877 C 0.94777 0.72238 0.77403 0.0
O878 O 0.76809 0.67782 0.95036 0.0
O879 O 0.77453 0.7072 0.77461 0.0
O880 O 0.93532 0.73004 0.77109 0.0
O881 O 0.93495 0.71641 0.94942 0.0
H882 H 0.76348 0.70136 0.95299 0.0
H883 H 0.78901 0.70871 0.97725 0.0
H884 H 0.77443 0.68642 0.9904 0.0
H885 H 0.76732 0.70507 0.98972 0.0
H886 H 0.79455 0.71608 0.94259 0.0
H887 H 0.77849 0.65522 0.93268 0.0
H888 H 0.84324 0.73732 0.92775 0.0
H889 H 0.82322 0.74243 0.9299 0.0
H890 H 0.82952 0.73646 0.90582 0.0
H891 H 0.79713 0.64575 0.91261 0.0
H892 H 0.82319 0.66279 0.91597 0.0
H893 H 0.81091 0.66291 0.89328 0.0
H894 H 0.94567 0.70697 0.9267 0.0
H895 H 0.97987 0.72496 0.93733 0.0
H896 H 0.97407 0.73573 0.95843 0.0
H897 H 0.96944 0.74067 0.93343 0.0
H898 H 0.90776 0.68404 0.93036 0.0
H899 H 0.92688 0.74459 0.94555 0.0
H900 H 0.876 0.67806 0.89066 0.0
H901 H 0.86088 0.67079 0.91234 0.0
H902 H 0.87991 0.66429 0.90985 0.0
H903 H 0.91056 0.76104 0.93348 0.0
H904 H 0.88424 0.74465 0.93186 0.0
H905 H 0.89827 0.75189 0.90943 0.0
H906 H 0.94343 0.7133 0.78765 0.0
H907 H 0.90988 0.69668 0.7887 0.0
H908 H 0.92718 0.75756 0.78018 0.0
H909 H 0.88069 0.68663 0.82837 0.0
H910 H 0.88088 0.67483 0.80504 0.0
H911 H 0.86289 0.68251 0.8091 0.0
H912 H 0.91252 0.77331 0.798 0.0
H913 H 0.8981 0.76118 0.81965 0.0
H914 H 0.88627 0.75714 0.79556 0.0
H915 H 0.78098 0.7361 0.77143 0.0
H916 H 0.75075 0.73043 0.78956 0.0
H917 H 0.76128 0.7186 0.80327 0.0
H918 H 0.74036 0.70395 0.78701 0.0
H919 H 0.78428 0.68047 0.77781 0.0
H920 H 0.79948 0.73922 0.79757 0.0
H921 H 0.81427 0.67384 0.81367 0.0
H922 H 0.82684 0.68151 0.79041 0.0
H923 H 0.8007 0.66432 0.79029 0.0
H924 H 0.82805 0.75972 0.81645 0.0
H925 H 0.84728 0.75335 0.81623 0.0
H926 H 0.83006 0.74535 0.83622 0.0
H927 H 0.85284 0.70311 0.93047 0.0
H928 H 0.9021 0.72103 0.88013 0.0
H929 H 0.90295 0.72533 0.84458 0.0
H930 H 0.8563 0.72007 0.79416 0.0
H931 H 0.80791 0.70464 0.84491 0.0
H932 H 0.80694 0.70001 0.88034 0.0
H933 H 0.9737 0.74953 0.7646 0.0
H934 H 0.97928 0.73576 0.78236 0.0
H935 H 0.96786 0.74951 0.79066 0.0
C936 C 0.90431 0.61597 0.40005 0.0
C937 C 0.90879 0.63622 0.39202 0.0
C938 C 0.89252 0.6478 0.41602 0.0
C939 C 0.89598 0.66272 0.43009 0.0
C940 C 0.88043 0.663 0.44007 0.0
C941 C 0.86086 0.64748 0.43639 0.0
C942 C 0.8572 0.63232 0.4221 0.0
C943 C 0.87301 0.63281 0.41181 0.0
C944 C 0.885 0.67993 0.45455 0.0
C945 C 0.83657 0.61553 0.41769 0.0
C946 C 0.74103 0.66945 0.37956 0.0
C947 C 0.75261 0.66027 0.38682 0.0
C948 C 0.77948 0.66746 0.41063 0.0
C949 C 0.7759 0.64789 0.41114 0.0
C950 C 0.78782 0.64313 0.42291 0.0
C951 C 0.8038 0.65824 0.43417 0.0
C952 C 0.80755 0.67797 0.43355 0.0
C953 C 0.79521 0.68226 0.42189 0.0
C954 C 0.78331 0.62191 0.42336 0.0
C955 C 0.82457 0.69447 0.44521 0.0
C956 C 0.75916 0.64039 0.56191 0.0
C957 C 0.75453 0.62328 0.55035 0.0
C958 C 0.76919 0.6218 0.53976 0.0
C959 C 0.78876 0.63788 0.54036 0.0
C960 C 0.79341 0.65517 0.55179 0.0
C961 C 0.77854 0.65614 0.56247 0.0
C962 C 0.76376 0.60303 0.5279 0.0
C963 C 0.81409 0.67265 0.55267 0.0
C964 C 0.90066 0.59342 0.57101 0.0
C965 C 0.89638 0.61059 0.57193 0.0
C966 C 0.86572 0.61002 0.56281 0.0
C967 C 0.84649 0.59642 0.55657 0.0
C968 C 0.83508 0.60246 0.5457 0.0
C969 C 0.84299 0.62275 0.54149 0.0
C970 C 0.86218 0.63674 0.54858 0.0
C971 C 0.87342 0.63019 0.55905 0.0
C972 C 0.81465 0.5871 0.53854 0.0
C973 C 0.87081 0.65859 0.5451 0.0
C974 C 0.84427 0.64726 0.44732 0.0
C975 C 0.83216 0.65269 0.43698 0.0
C976 C 0.81664 0.65337 0.44645 0.0
C977 C 0.8134 0.64912 0.46704 0.0
C978 C 0.79837 0.65032 0.47722 0.0
C979 C 0.79549 0.64641 0.49755 0.0
C980 C 0.80727 0.64075 0.5084 0.0
C981 C 0.80437 0.63661 0.52904 0.0
C982 C 0.81638 0.63105 0.53937 0.0
C983 C 0.83117 0.62925 0.52963 0.0
C984 C 0.83421 0.63322 0.50896 0.0
C985 C 0.8487 0.63122 0.49856 0.0
C986 C 0.85191 0.63564 0.47835 0.0
C987 C 0.84072 0.64216 0.46772 0.0
C988 C 0.8255 0.6435 0.4777 0.0
C989 C 0.82234 0.63917 0.49837 0.0
C990 C 0.71451 0.63097 0.5574 0.0
C991 C 0.72583 0.62866 0.57518 0.0
O992 O 0.90844 0.64848 0.40715 0.0
O993 O 0.87622 0.60314 0.57268 0.0
O994 O 0.74558 0.64248 0.57269 0.0
O995 O 0.76808 0.67262 0.39971 0.0
H996 H 0.89714 0.63396 0.381 0.0
H997 H 0.90169 0.60543 0.38744 0.0
H998 H 0.89095 0.60943 0.40933 0.0
H999 H 0.91663 0.61706 0.40931 0.0
H1000 H 0.91104 0.67431 0.43313 0.0
H1001 H 0.86995 0.6213 0.40073 0.0
H1002 H 0.87445 0.68537 0.45235 0.0
H1003 H 0.90021 0.69251 0.45284 0.0
H1004 H 0.88355 0.67471 0.47012 0.0
H1005 H 0.83651 0.60329 0.40883 0.0
H1006 H 0.82834 0.62117 0.409 0.0
H1007 H 0.82861 0.60949 0.43182 0.0
H1008 H 0.75727 0.65333 0.37489 0.0
H1009 H 0.74357 0.671 0.36297 0.0
H1010 H 0.75006 0.6858 0.38315 0.0
H1011 H 0.71364 0.65182 0.39124 0.0
H1012 H 0.76378 0.63625 0.4025 0.0
H1013 H 0.79786 0.6973 0.42144 0.0
H1014 H 0.79582 0.62083 0.41704 0.0
H1015 H 0.7697 0.61169 0.41467 0.0
H1016 H 0.78158 0.61696 0.43908 0.0
H1017 H 0.8261 0.70918 0.44235 0.0
H1018 H 0.83851 0.6949 0.4412 0.0
H1019 H 0.82243 0.69165 0.46148 0.0
H1020 H 0.72364 0.61344 0.57525 0.0
H1021 H 0.73957 0.61104 0.54938 0.0
H1022 H 0.78199 0.66929 0.57136 0.0
H1023 H 0.76576 0.60629 0.5117 0.0
H1024 H 0.74827 0.59128 0.53021 0.0
H1025 H 0.77368 0.59729 0.53222 0.0
H1026 H 0.81507 0.68545 0.56128 0.0
H1027 H 0.81937 0.67738 0.53727 0.0
H1028 H 0.82412 0.66824 0.55982 0.0
H1029 H 0.90138 0.61752 0.55726 0.0
H1030 H 0.91669 0.59923 0.56909 0.0
H1031 H 0.89267 0.58344 0.55798 0.0
H1032 H 0.89603 0.58452 0.58473 0.0
H1033 H 0.8406 0.58092 0.55985 0.0
H1034 H 0.88801 0.64084 0.56459 0.0
H1035 H 0.81292 0.58852 0.52223 0.0
H1036 H 0.8036 0.5896 0.54636 0.0
H1037 H 0.8114 0.57176 0.5414 0.0
H1038 H 0.88484 0.66771 0.55363 0.0
H1039 H 0.86016 0.6634 0.54948 0.0
H1040 H 0.87372 0.66147 0.52892 0.0
H1041 H 0.83482 0.6564 0.4213 0.0
H1042 H 0.78877 0.65449 0.46963 0.0
H1043 H 0.78384 0.64781 0.50463 0.0
H1044 H 0.81408 0.62793 0.5552 0.0
H1045 H 0.85782 0.62632 0.50595 0.0
H1046 H 0.86332 0.63389 0.47118 0.0
H1047 H 0.69897 0.61896 0.55624 0.0
H1048 H 0.72143 0.63061 0.54307 0.0
H1049 H 0.71491 0.64542 0.55868 0.0
C1050 C 0.38775 0.27393 0.36621 0.0
C1051 C 0.37261 0.26446 0.3828 0.0
C1052 C 0.3787 0.25198 0.41367 0.0
C1053 C 0.35954 0.23809 0.41915 0.0
C1054 C 0.35614 0.2225 0.43176 0.0
C1055 C 0.3723 0.22086 0.439 0.0
C1056 C 0.39171 0.23526 0.43394 0.0
C1057 C 0.39466 0.25083 0.42154 0.0
C1058 C 0.3353 0.2077 0.43727 0.0
C1059 C 0.40929 0.23398 0.44133 0.0
C1060 C 0.34727 0.10677 0.37064 0.0
C1061 C 0.3557 0.10034 0.38808 0.0
C1062 C 0.3505 0.11783 0.41633 0.0
C1063 C 0.36986 0.13349 0.41951 0.0
C1064 C 0.37365 0.15029 0.4311 0.0
C1065 C 0.35776 0.15152 0.43953 0.0
C1066 C 0.33827 0.1357 0.43648 0.0
C1067 C 0.33495 0.11891 0.42518 0.0
C1068 C 0.39466 0.16671 0.43441 0.0
C1069 C 0.32094 0.13659 0.44503 0.0
C1070 C 0.35717 0.12231 0.5696 0.0
C1071 C 0.37614 0.1361 0.5632 0.0
C1072 C 0.37938 0.15282 0.55256 0.0
C1073 C 0.36335 0.15579 0.54819 0.0
C1074 C 0.34427 0.14198 0.55466 0.0
C1075 C 0.34145 0.12539 0.56527 0.0
C1076 C 0.3999 0.16724 0.54582 0.0
C1077 C 0.32686 0.14469 0.55022 0.0
C1078 C 0.41231 0.31565 0.57093 0.0
C1079 C 0.39449 0.29478 0.57263 0.0
C1080 C 0.39377 0.2632 0.56729 0.0
C1081 C 0.40683 0.25618 0.56417 0.0
C1082 C 0.40072 0.23798 0.5542 0.0
C1083 C 0.38082 0.22625 0.54773 0.0
C1084 C 0.36724 0.23279 0.55189 0.0
C1085 C 0.37391 0.25132 0.56149 0.0
C1086 C 0.41561 0.23145 0.55031 0.0
C1087 C 0.34576 0.22032 0.546 0.0
C1088 C 0.36886 0.2037 0.45121 0.0
C1089 C 0.36456 0.18611 0.44106 0.0
C1090 C 0.3616 0.16944 0.45144 0.0
C1091 C 0.36273 0.17018 0.47262 0.0
C1092 C 0.35986 0.15372 0.48354 0.0
C1093 C 0.3609 0.15455 0.50437 0.0
C1094 C 0.36512 0.17197 0.51509 0.0
C1095 C 0.36642 0.173 0.53626 0.0
C1096 C 0.37104 0.19068 0.54646 0.0
C1097 C 0.37451 0.20753 0.53606 0.0
C1098 C 0.373 0.20668 0.51488 0.0
C1099 C 0.3763 0.22329 0.50389 0.0
C1100 C 0.3747 0.22228 0.48308 0.0
C1101 C 0.37017 0.20477 0.47238 0.0
C1102 C 0.367 0.18791 0.48312 0.0
C1103 C 0.36828 0.18883 0.50439 0.0
C1104 C 0.35947 0.08561 0.60239 0.0
C1105 C 0.36735 0.10145 0.58725 0.0
O1106 O 0.38225 0.26677 0.40101 0.0
O1107 O 0.40087 0.28138 0.57613 0.0
O1108 O 0.35345 0.10607 0.58018 0.0
O1109 O 0.34619 0.10132 0.40519 0.0
H1110 H 0.36491 0.2486 0.3783 0.0
H1111 H 0.39722 0.26706 0.36556 0.0
H1112 H 0.39745 0.2901 0.36864 0.0
H1113 H 0.38007 0.27133 0.35146 0.0
H1114 H 0.3473 0.2396 0.41379 0.0
H1115 H 0.40943 0.26187 0.41743 0.0
H1116 H 0.33133 0.19288 0.43091 0.0
H1117 H 0.32449 0.21183 0.43162 0.0
H1118 H 0.33417 0.20645 0.45381 0.0
H1119 H 0.42335 0.24591 0.43538 0.0
H1120 H 0.4076 0.21941 0.43685 0.0
H1121 H 0.41013 0.23507 0.45794 0.0
H1122 H 0.37183 0.11044 0.38939 0.0
H1123 H 0.35567 0.10944 0.35671 0.0
H1124 H 0.34788 0.12097 0.37466 0.0
H1125 H 0.33162 0.09544 0.36752 0.0
H1126 H 0.38214 0.13258 0.41343 0.0
H1127 H 0.32008 0.10667 0.42281 0.0
H1128 H 0.3968 0.18029 0.42704 0.0
H1129 H 0.40547 0.1628 0.42829 0.0
H1130 H 0.3978 0.17026 0.45067 0.0
H1131 H 0.30662 0.12385 0.43984 0.0
H1132 H 0.32147 0.15055 0.4407 0.0
H1133 H 0.3217 0.1366 0.46163 0.0
H1134 H 0.37573 0.09936 0.57493 0.0
H1135 H 0.38846 0.13388 0.56639 0.0
H1136 H 0.32689 0.11473 0.57031 0.0
H1137 H 0.40002 0.168 0.52923 0.0
H1138 H 0.41088 0.16302 0.55069 0.0
H1139 H 0.40447 0.18229 0.55194 0.0
H1140 H 0.31301 0.13278 0.55656 0.0
H1141 H 0.32481 0.14481 0.53376 0.0
H1142 H 0.3297 0.1592 0.55648 0.0
H1143 H 0.38782 0.29164 0.55745 0.0
H1144 H 0.40732 0.3262 0.56668 0.0
H1145 H 0.42222 0.31567 0.5591 0.0
H1146 H 0.42094 0.32111 0.58515 0.0
H1147 H 0.42206 0.26534 0.56906 0.0
H1148 H 0.36359 0.25637 0.56463 0.0
H1149 H 0.41527 0.22746 0.53421 0.0
H1150 H 0.41177 0.21805 0.55905 0.0
H1151 H 0.43083 0.24311 0.55462 0.0
H1152 H 0.33669 0.22621 0.55261 0.0
H1153 H 0.33995 0.20484 0.55084 0.0
H1154 H 0.34414 0.21992 0.52944 0.0
H1155 H 0.36372 0.18544 0.42481 0.0
H1156 H 0.35672 0.13996 0.47612 0.0
H1157 H 0.35845 0.14136 0.51195 0.0
H1158 H 0.37227 0.19142 0.56269 0.0
H1159 H 0.38007 0.23726 0.51126 0.0
H1160 H 0.37722 0.23548 0.47546 0.0
H1161 H 0.3753 0.10004 0.62817 0.0
H1162 H 0.36028 0.07288 0.59515 0.0
H1163 H 0.34292 0.07818 0.60134 0.0
C1164 C 0.90246 0.22501 0.37859 0.0
C1165 C 0.90203 0.24436 0.38232 0.0
C1166 C 0.87813 0.23212 0.40895 0.0
C1167 C 0.86217 0.23542 0.40861 0.0
C1168 C 0.84458 0.22253 0.41824 0.0
C1169 C 0.84305 0.20601 0.42836 0.0
C1170 C 0.85912 0.20246 0.42834 0.0
C1171 C 0.87662 0.21581 0.41895 0.0
C1172 C 0.82784 0.22687 0.41812 0.0
C1173 C 0.85802 0.18491 0.43875 0.0
C1174 C 0.70256 0.09729 0.37885 0.0
C1175 C 0.71963 0.09403 0.38517 0.0
C1176 C 0.74189 0.11547 0.41159 0.0
C1177 C 0.7556 0.11264 0.42233 0.0
C1178 C 0.77257 0.1288 0.43083 0.0
C1179 C 0.77536 0.14814 0.42921 0.0
C1180 C 0.76161 0.15106 0.41803 0.0
C1181 C 0.74504 0.13463 0.40919 0.0
C1182 C 0.78718 0.12509 0.44204 0.0
C1183 C 0.76404 0.17142 0.41609 0.0
C1184 C 0.73875 0.13722 0.55877 0.0
C1185 C 0.75099 0.1298 0.55267 0.0
C1186 C 0.76812 0.1416 0.54183 0.0
C1187 C 0.77287 0.16107 0.53678 0.0
C1188 C 0.76066 0.16861 0.54324 0.0
C1189 C 0.74392 0.15665 0.55442 0.0
C1190 C 0.78114 0.1333 0.53578 0.0
C1191 C 0.76522 0.18927 0.53825 0.0
C1192 C 0.90343 0.29184 0.56821 0.0
C1193 C 0.89655 0.27261 0.5798 0.0
C1194 C 0.87637 0.24373 0.5575 0.0
C1195 C 0.87495 0.22621 0.55002 0.0
C1196 C 0.85794 0.21186 0.53976 0.0
C1197 C 0.84215 0.21546 0.53637 0.0
C1198 C 0.84349 0.23322 0.5438 0.0
C1199 C 0.86052 0.24712 0.55444 0.0
C1200 C 0.85692 0.19291 0.53246 0.0
C1201 C 0.82701 0.23763 0.54037 0.0
C1202 C 0.82524 0.1932 0.4401 0.0
C1203 C 0.80883 0.17781 0.43007 0.0
C1204 C 0.79185 0.16499 0.44044 0.0
C1205 C 0.79109 0.16762 0.46139 0.0
C1206 C 0.77404 0.15543 0.47221 0.0
C1207 C 0.77372 0.15755 0.49292 0.0
C1208 C 0.79049 0.17183 0.50366 0.0
C1209 C 0.79057 0.17364 0.52481 0.0
C1210 C 0.80759 0.18794 0.53498 0.0
C1211 C 0.82448 0.20086 0.52459 0.0
C1212 C 0.8245 0.19957 0.50344 0.0
C1213 C 0.84099 0.21276 0.49247 0.0
C1214 C 0.84115 0.21094 0.47173 0.0
C1215 C 0.82486 0.19576 0.46111 0.0
C1216 C 0.80782 0.18276 0.4718 0.0
C1217 C 0.80759 0.18474 0.49298 0.0
C1218 C 0.68819 0.10139 0.56659 0.0
C1219 C 0.70961 0.10598 0.56788 0.0
O1220 O 0.89557 0.24567 0.40126 0.0
O1221 O 0.89339 0.25699 0.56714 0.0
O1222 O 0.72208 0.1263 0.56921 0.0
O1223 O 0.72493 0.09945 0.40508 0.0
H1224 H 0.89092 0.24343 0.37136 0.0
H1225 H 0.88728 0.21209 0.37871 0.0
H1226 H 0.91149 0.22274 0.38994 0.0
H1227 H 0.90855 0.22515 0.36358 0.0
H1228 H 0.86369 0.24834 0.40115 0.0
H1229 H 0.88926 0.21368 0.4196 0.0
H1230 H 0.81458 0.21423 0.41095 0.0
H1231 H 0.83149 0.24055 0.40994 0.0
H1232 H 0.82404 0.22854 0.43374 0.0
H1233 H 0.87057 0.18268 0.43493 0.0
H1234 H 0.84404 0.17121 0.43465 0.0
H1235 H 0.85822 0.18725 0.45521 0.0
H1236 H 0.73173 0.10415 0.37532 0.0
H1237 H 0.69754 0.09145 0.36333 0.0
H1238 H 0.70765 0.11339 0.37901 0.0
H1239 H 0.68979 0.0902 0.38885 0.0
H1240 H 0.7529 0.09769 0.42411 0.0
H1241 H 0.73416 0.13663 0.40108 0.0
H1242 H 0.78566 0.12663 0.45839 0.0
H1243 H 0.80249 0.13615 0.43806 0.0
H1244 H 0.78478 0.10999 0.43884 0.0
H1245 H 0.75162 0.1711 0.4076 0.0
H1246 H 0.77796 0.18115 0.40829 0.0
H1247 H 0.76511 0.17812 0.4312 0.0
H1248 H 0.71178 0.1007 0.55319 0.0
H1249 H 0.74739 0.11498 0.55665 0.0
H1250 H 0.73449 0.16229 0.55947 0.0
H1251 H 0.78063 0.1314 0.51924 0.0
H1252 H 0.77651 0.11875 0.54257 0.0
H1253 H 0.79666 0.14381 0.54032 0.0
H1254 H 0.75312 0.19211 0.54245 0.0
H1255 H 0.7679 0.19175 0.52198 0.0
H1256 H 0.77885 0.20021 0.54643 0.0
H1257 H 0.88249 0.26991 0.58636 0.0
H1258 H 0.8911 0.29075 0.55893 0.0
H1259 H 0.90821 0.30461 0.57886 0.0
H1260 H 0.91559 0.29506 0.5579 0.0
H1261 H 0.88725 0.22372 0.55242 0.0
H1262 H 0.86139 0.26066 0.55994 0.0
H1263 H 0.85772 0.19287 0.51587 0.0
H1264 H 0.84269 0.17991 0.53662 0.0
H1265 H 0.86916 0.1912 0.53869 0.0
H1266 H 0.83122 0.25302 0.54502 0.0
H1267 H 0.81405 0.22725 0.5491 0.0
H1268 H 0.82248 0.23531 0.5243 0.0
H1269 H 0.80939 0.17561 0.41405 0.0
H1270 H 0.76075 0.14404 0.4648 0.0
H1271 H 0.76022 0.14767 0.50042 0.0
H1272 H 0.80765 0.18909 0.5512 0.0
H1273 H 0.85403 0.22462 0.49981 0.0
H1274 H 0.85431 0.22148 0.46415 0.0
H1275 H 0.67816 0.08521 0.56418 0.0
H1276 H 0.68623 0.10914 0.55372 0.0
H1277 H 0.68374 0.10615 0.58038 0.0
C1278 C 0.00575 0.44136 0.31532 0.0
C1279 C 0.99538 0.42556 0.2985 0.0
C1280 C 0.00052 0.44582 0.26909 0.0
C1281 C 0.98107 0.44105 0.2646 0.0
C1282 C 0.97719 0.45341 0.25265 0.0
C1283 C 0.99306 0.47084 0.24499 0.0
C1284 C 0.01266 0.47539 0.24904 0.0
C1285 C 0.01611 0.46265 0.26085 0.0
C1286 C 0.9561 0.44784 0.24817 0.0
C1287 C 0.02993 0.49381 0.24104 0.0
C1288 C 0.96048 0.56566 0.31722 0.0
C1289 C 0.97524 0.56962 0.30051 0.0
C1290 C 0.96956 0.54936 0.2702 0.0
C1291 C 0.989 0.5552 0.26512 0.0
C1292 C 0.99317 0.5431 0.25266 0.0
C1293 C 0.97752 0.52487 0.2451 0.0
C1294 C 0.95783 0.51932 0.24966 0.0
C1295 C 0.95412 0.53182 0.26198 0.0
C1296 C 0.01427 0.5497 0.24763 0.0
C1297 C 0.94076 0.50001 0.24184 0.0
C1298 C 0.96458 0.54668 0.1149 0.0
C1299 C 0.9837 0.55303 0.1223 0.0
C1300 C 0.98797 0.54011 0.13276 0.0
C1301 C 0.97272 0.52054 0.13621 0.0
C1302 C 0.95353 0.51399 0.12839 0.0
C1303 C 0.94981 0.5271 0.11754 0.0
C1304 C 0.00881 0.54738 0.14008 0.0
C1305 C 0.93692 0.4932 0.1316 0.0
C1306 C 0.97183 0.38582 0.11982 0.0
C1307 C 0.97769 0.40031 0.10241 0.0
C1308 C 0.98872 0.43355 0.11734 0.0
C1309 C 0.00511 0.45243 0.12029 0.0
C1310 C 0.00347 0.46773 0.12978 0.0
C1311 C 0.9849 0.46398 0.13659 0.0
C1312 C 0.96814 0.44502 0.13337 0.0
C1313 C 0.9702 0.42996 0.12384 0.0
C1314 C 0.02162 0.48779 0.13296 0.0
C1315 C 0.94812 0.44056 0.14046 0.0
C1316 C 0.98912 0.48441 0.23298 0.0
C1317 C 0.98605 0.49839 0.24326 0.0
C1318 C 0.9817 0.51126 0.233 0.0
C1319 C 0.98063 0.51046 0.21183 0.0
C1320 C 0.97644 0.52329 0.20103 0.0
C1321 C 0.9751 0.52215 0.1802 0.0
C1322 C 0.97806 0.50824 0.16934 0.0
C1323 C 0.9768 0.507 0.14815 0.0
C1324 C 0.97935 0.49263 0.1379 0.0
C1325 C 0.98319 0.47944 0.14824 0.0
C1326 C 0.98489 0.48072 0.16938 0.0
C1327 C 0.98903 0.46784 0.18021 0.0
C1328 C 0.99049 0.46906 0.20101 0.0
C1329 C 0.98785 0.48318 0.21181 0.0
C1330 C 0.98366 0.49631 0.20121 0.0
C1331 C 0.98227 0.49513 0.17996 0.0
C1332 C 0.94845 0.57915 0.11702 0.0
C1333 C 0.96659 0.57856 0.1093 0.0
O1334 O 0.00477 0.43435 0.2809 0.0
O1335 O 0.99166 0.41936 0.10856 0.0
O1336 O 0.96019 0.55885 0.1044 0.0
O1337 O 0.9652 0.56039 0.28283 0.0
H1338 H 0.97959 0.42125 0.29779 0.0
H1339 H 0.00598 0.45525 0.3113 0.0
H1340 H 0.02122 0.44474 0.31739 0.0
H1341 H 0.99822 0.43686 0.32983 0.0
H1342 H 0.96886 0.42754 0.27005 0.0
H1343 H 0.03106 0.46603 0.26412 0.0
H1344 H 0.95316 0.45927 0.25478 0.0
H1345 H 0.9454 0.43323 0.25426 0.0
H1346 H 0.95363 0.44741 0.23173 0.0
H1347 H 0.04429 0.49558 0.24607 0.0
H1348 H 0.02916 0.50708 0.24602 0.0
H1349 H 0.02926 0.49319 0.22441 0.0
H1350 H 0.98301 0.56192 0.30577 0.0
H1351 H 0.96848 0.57222 0.33164 0.0
H1352 H 0.95099 0.54944 0.31904 0.0
H1353 H 0.95078 0.5719 0.31406 0.0
H1354 H 0.00086 0.56929 0.27066 0.0
H1355 H 0.93913 0.52765 0.26576 0.0
H1356 H 0.01851 0.53926 0.25402 0.0
H1357 H 0.02464 0.56487 0.25358 0.0
H1358 H 0.01581 0.54939 0.23113 0.0
H1359 H 0.92639 0.4975 0.24744 0.0
H1360 H 0.94278 0.48748 0.24637 0.0
H1361 H 0.94031 0.49994 0.22523 0.0
H1362 H 0.97768 0.58371 0.12171 0.0
H1363 H 0.99541 0.56794 0.11951 0.0
H1364 H 0.9352 0.52224 0.11142 0.0
H1365 H 0.00948 0.54882 0.15667 0.0
H1366 H 0.0194 0.56199 0.13391 0.0
H1367 H 0.0135 0.53652 0.13585 0.0
H1368 H 0.92248 0.49103 0.12629 0.0
H1369 H 0.93594 0.48971 0.14775 0.0
H1370 H 0.93993 0.48251 0.12338 0.0
H1371 H 0.96368 0.39959 0.09811 0.0
H1372 H 0.96295 0.37029 0.11407 0.0
H1373 H 0.96265 0.38857 0.13054 0.0
H1374 H 0.98466 0.38739 0.12847 0.0
H1375 H 0.01933 0.45508 0.11524 0.0
H1376 H 0.95733 0.41546 0.12189 0.0
H1377 H 0.02448 0.49125 0.14926 0.0
H1378 H 0.01918 0.49938 0.12632 0.0
H1379 H 0.03488 0.48853 0.1262 0.0
H1380 H 0.93632 0.42543 0.13582 0.0
H1381 H 0.94442 0.45151 0.13442 0.0
H1382 H 0.94839 0.44191 0.15705 0.0
H1383 H 0.98677 0.49905 0.25951 0.0
H1384 H 0.97409 0.53434 0.20858 0.0
H1385 H 0.97168 0.53232 0.17273 0.0
H1386 H 0.9782 0.49162 0.12167 0.0
H1387 H 0.9912 0.45665 0.17273 0.0
H1388 H 0.99367 0.45873 0.20853 0.0
H1389 H 0.93719 0.5747 0.10481 0.0
H1390 H 0.95213 0.59401 0.12291 0.0
H1391 H 0.94183 0.56864 0.12944 0.0
C1392 C 0.4325 0.38058 0.27985 0.0
C1393 C 0.42838 0.39681 0.28797 0.0
C1394 C 0.44462 0.42356 0.26353 0.0
C1395 C 0.44118 0.43456 0.24942 0.0
C1396 C 0.45669 0.44959 0.23885 0.0
C1397 C 0.47613 0.45318 0.24192 0.0
C1398 C 0.47977 0.44219 0.25632 0.0
C1399 C 0.46405 0.42779 0.26727 0.0
C1400 C 0.45215 0.46153 0.22439 0.0
C1401 C 0.50024 0.44552 0.26016 0.0
C1402 C 0.57992 0.55686 0.30964 0.0
C1403 C 0.59192 0.56709 0.29092 0.0
C1404 C 0.56543 0.55093 0.26518 0.0
C1405 C 0.56637 0.53344 0.26276 0.0
C1406 C 0.55234 0.51749 0.2509 0.0
C1407 C 0.53675 0.51878 0.24157 0.0
C1408 C 0.5357 0.53631 0.24396 0.0
C1409 C 0.55024 0.55226 0.25551 0.0
C1410 C 0.55411 0.49914 0.24844 0.0
C1411 C 0.51916 0.53812 0.23445 0.0
C1412 C 0.56748 0.54066 0.10939 0.0
C1413 C 0.57455 0.53121 0.12193 0.0
C1414 C 0.56154 0.51522 0.13356 0.0
C1415 C 0.54124 0.50928 0.13338 0.0
C1416 C 0.53417 0.51894 0.12084 0.0
C1417 C 0.54737 0.53422 0.10869 0.0
C1418 C 0.56953 0.50463 0.14588 0.0
C1419 C 0.51269 0.51317 0.12022 0.0
C1420 C 0.43001 0.35248 0.10318 0.0
C1421 C 0.43456 0.37403 0.10315 0.0
C1422 C 0.46521 0.40388 0.11376 0.0
C1423 C 0.48439 0.40946 0.11992 0.0
C1424 C 0.49591 0.427 0.13114 0.0
C1425 C 0.48817 0.43955 0.13583 0.0
C1426 C 0.46894 0.43428 0.12908 0.0
C1427 C 0.45758 0.41639 0.11822 0.0
C1428 C 0.51637 0.43214 0.13795 0.0
C1429 C 0.4605 0.44767 0.1331 0.0
C1430 C 0.49259 0.4685 0.23016 0.0
C1431 C 0.50605 0.48627 0.23996 0.0
C1432 C 0.52147 0.50155 0.22966 0.0
C1433 C 0.5229 0.49958 0.20874 0.0
C1434 C 0.53726 0.5152 0.19763 0.0
C1435 C 0.53838 0.51319 0.17701 0.0
C1436 C 0.52582 0.49517 0.16684 0.0
C1437 C 0.52723 0.49277 0.14597 0.0
C1438 C 0.51472 0.47453 0.13645 0.0
C1439 C 0.50058 0.45853 0.14708 0.0
C1440 C 0.49872 0.46072 0.16791 0.0
C1441 C 0.48465 0.44498 0.17912 0.0
C1442 C 0.48264 0.44745 0.19951 0.0
C1443 C 0.49479 0.46568 0.20953 0.0
C1444 C 0.50966 0.48148 0.19869 0.0
C1445 C 0.51141 0.47912 0.1778 0.0
C1446 C 0.60788 0.58323 0.08425 0.0
C1447 C 0.59918 0.56907 0.10083 0.0
O1448 O 0.42873 0.40901 0.2729 0.0
O1449 O 0.45477 0.3866 0.10314 0.0
O1450 O 0.57941 0.55559 0.09731 0.0
O1451 O 0.57858 0.56669 0.27678 0.0
H1452 H 0.44021 0.40653 0.29885 0.0
H1453 H 0.4354 0.37323 0.29244 0.0
H1454 H 0.44556 0.38686 0.27017 0.0
H1455 H 0.41988 0.36894 0.27099 0.0
H1456 H 0.4262 0.43137 0.24678 0.0
H1457 H 0.46711 0.4198 0.27847 0.0
H1458 H 0.46347 0.47748 0.22563 0.0
H1459 H 0.43745 0.45995 0.22702 0.0
H1460 H 0.45221 0.45631 0.20884 0.0
H1461 H 0.5 0.43323 0.26857 0.0
H1462 H 0.50886 0.45943 0.26915 0.0
H1463 H 0.50798 0.44712 0.24586 0.0
H1464 H 0.59936 0.55914 0.28508 0.0
H1465 H 0.57453 0.56617 0.31688 0.0
H1466 H 0.56691 0.54235 0.30538 0.0
H1467 H 0.58838 0.55366 0.32083 0.0
H1468 H 0.57794 0.532 0.27001 0.0
H1469 H 0.54959 0.56576 0.2574 0.0
H1470 H 0.54143 0.4865 0.25556 0.0
H1471 H 0.56793 0.50103 0.2553 0.0
H1472 H 0.55367 0.49524 0.23229 0.0
H1473 H 0.51988 0.55235 0.23856 0.0
H1474 H 0.50475 0.5257 0.23911 0.0
H1475 H 0.51976 0.53704 0.2179 0.0
H1476 H 0.60211 0.57591 0.1162 0.0
H1477 H 0.59008 0.5359 0.12231 0.0
H1478 H 0.54208 0.54153 0.09881 0.0
H1479 H 0.5703 0.50903 0.1619 0.0
H1480 H 0.58456 0.50832 0.14127 0.0
H1481 H 0.55969 0.48833 0.14453 0.0
H1482 H 0.51014 0.52403 0.11206 0.0
H1483 H 0.50704 0.51189 0.13564 0.0
H1484 H 0.50401 0.49848 0.11255 0.0
H1485 H 0.42917 0.37586 0.11781 0.0
H1486 H 0.41389 0.34233 0.1045 0.0
H1487 H 0.43752 0.35021 0.11621 0.0
H1488 H 0.43499 0.34833 0.08935 0.0
H1489 H 0.49021 0.3998 0.11615 0.0
H1490 H 0.443 0.41246 0.11283 0.0
H1491 H 0.51837 0.4358 0.15426 0.0
H1492 H 0.5274 0.44543 0.13003 0.0
H1493 H 0.51941 0.41986 0.1349 0.0
H1494 H 0.44599 0.44223 0.12547 0.0
H1495 H 0.47085 0.46285 0.12802 0.0
H1496 H 0.45863 0.44869 0.14946 0.0
H1497 H 0.5047 0.48814 0.2559 0.0
H1498 H 0.54758 0.52929 0.2047 0.0
H1499 H 0.54941 0.52591 0.16921 0.0
H1500 H 0.51597 0.47277 0.12046 0.0
H1501 H 0.4749 0.43061 0.17222 0.0
H1502 H 0.47148 0.43484 0.20734 0.0
H1503 H 0.62898 0.57726 0.07303 0.0
H1504 H 0.61169 0.59805 0.0911 0.0
H1505 H 0.59529 0.58189 0.07476 0.0
C1506 C 0.40332 0.98766 0.25817 0.0
C1507 C 0.41246 0.98924 0.27914 0.0
C1508 C 0.44781 0.00743 0.27144 0.0
C1509 C 0.46468 0.02618 0.27202 0.0
C1510 C 0.4818 0.02976 0.26197 0.0
C1511 C 0.48201 0.0141 0.25115 0.0
C1512 C 0.46523 0.99493 0.25102 0.0
C1513 C 0.44833 0.99176 0.26119 0.0
C1514 C 0.49949 0.05035 0.26247 0.0
C1515 C 0.46504 0.97783 0.23981 0.0
C1516 C 0.60031 0.97933 0.28068 0.0
C1517 C 0.58484 0.98065 0.26878 0.0
C1518 C 0.57122 0.00232 0.26313 0.0
C1519 C 0.55443 0.98781 0.25252 0.0
C1520 C 0.54066 0.99231 0.24427 0.0
C1521 C 0.54375 0.01175 0.24648 0.0
C1522 C 0.56044 0.02633 0.25736 0.0
C1523 C 0.57394 0.02138 0.26561 0.0
C1524 C 0.52289 0.97631 0.23297 0.0
C1525 C 0.56412 0.04718 0.25996 0.0
C1526 C 0.57885 0.03578 0.11619 0.0
C1527 C 0.55987 0.01937 0.1156 0.0
C1528 C 0.54516 0.01838 0.12815 0.0
C1529 C 0.54937 0.03466 0.1411 0.0
C1530 C 0.56844 0.05164 0.14135 0.0
C1531 C 0.58313 0.05185 0.1292 0.0
C1532 C 0.52515 0.99986 0.12753 0.0
C1533 C 0.57332 0.06962 0.15433 0.0
C1534 C 0.43503 0.00627 0.08325 0.0
C1535 C 0.42556 0.01379 0.09876 0.0
C1536 C 0.45396 0.03015 0.12217 0.0
C1537 C 0.45312 0.01285 0.1292 0.0
C1538 C 0.46885 0.01379 0.14031 0.0
C1539 C 0.48548 0.03247 0.14517 0.0
C1540 C 0.48598 0.04996 0.13891 0.0
C1541 C 0.47019 0.04855 0.12745 0.0
C1542 C 0.46779 0.99475 0.14659 0.0
C1543 C 0.50329 0.07011 0.14412 0.0
C1544 C 0.49932 0.0179 0.23905 0.0
C1545 C 0.51399 0.01514 0.24789 0.0
C1546 C 0.52979 0.01685 0.23676 0.0
C1547 C 0.53123 0.02172 0.2163 0.0
C1548 C 0.54681 0.02332 0.20461 0.0
C1549 C 0.54768 0.02731 0.18431 0.0
C1550 C 0.53315 0.03011 0.17491 0.0
C1551 C 0.53372 0.03386 0.15419 0.0
C1552 C 0.51844 0.03555 0.1452 0.0
C1553 C 0.50249 0.03351 0.15628 0.0
C1554 C 0.50211 0.03061 0.17714 0.0
C1555 C 0.48665 0.02923 0.18885 0.0
C1556 C 0.48586 0.02537 0.20918 0.0
C1557 C 0.50049 0.02273 0.21859 0.0
C1558 C 0.51648 0.02458 0.20718 0.0
C1559 C 0.51737 0.02867 0.18644 0.0
C1560 C 0.6189 0.06535 0.09245 0.0
C1561 C 0.61265 0.04675 0.10489 0.0
O1562 O 0.43144 0.00528 0.28071 0.0
O1563 O 0.43971 0.02978 0.11005 0.0
O1564 O 0.59228 0.03554 0.10358 0.0
O1565 O 0.58499 0.99845 0.2711 0.0
H1566 H 0.41268 0.97521 0.28056 0.0
H1567 H 0.38734 0.97655 0.25803 0.0
H1568 H 0.40531 0.00202 0.2532 0.0
H1569 H 0.41034 0.98266 0.24689 0.0
H1570 H 0.46426 0.03816 0.28007 0.0
H1571 H 0.43564 0.97703 0.26083 0.0
H1572 H 0.51266 0.04987 0.26797 0.0
H1573 H 0.49728 0.06076 0.27221 0.0
H1574 H 0.50256 0.05614 0.24706 0.0
H1575 H 0.45096 0.96372 0.24143 0.0
H1576 H 0.47729 0.97581 0.2454 0.0
H1577 H 0.46742 0.98115 0.22363 0.0
H1578 H 0.58383 0.97606 0.25268 0.0
H1579 H 0.5842 0.95694 0.3001 0.0
H1580 H 0.61124 0.99487 0.28595 0.0
H1581 H 0.61028 0.97832 0.26928 0.0
H1582 H 0.55195 0.97293 0.25053 0.0
H1583 H 0.58683 0.03246 0.27388 0.0
H1584 H 0.50922 0.97507 0.23916 0.0
H1585 H 0.52194 0.96162 0.2337 0.0
H1586 H 0.52356 0.98029 0.217 0.0
H1587 H 0.57783 0.05685 0.26877 0.0
H1588 H 0.5515 0.04694 0.26766 0.0
H1589 H 0.56524 0.0537 0.24504 0.0
H1590 H 0.61743 0.05095 0.1208 0.0
H1591 H 0.55669 0.0071 0.10541 0.0
H1592 H 0.59773 0.06474 0.12967 0.0
H1593 H 0.51993 0.99508 0.14294 0.0
H1594 H 0.5253 0.98744 0.11925 0.0
H1595 H 0.51439 0.00302 0.11995 0.0
H1596 H 0.58747 0.08273 0.15017 0.0
H1597 H 0.57453 0.06638 0.17022 0.0
H1598 H 0.56143 0.0734 0.15316 0.0
H1599 H 0.41709 0.00108 0.1086 0.0
H1600 H 0.44147 0.99811 0.09065 0.0
H1601 H 0.42373 0.9958 0.07227 0.0
H1602 H 0.44701 0.01858 0.07506 0.0
H1603 H 0.44037 0.99851 0.12591 0.0
H1604 H 0.47063 0.06185 0.12221 0.0
H1605 H 0.46662 0.99362 0.16312 0.0
H1606 H 0.48142 0.99466 0.14234 0.0
H1607 H 0.45492 0.98146 0.13969 0.0
H1608 H 0.50063 0.08229 0.1398 0.0
H1609 H 0.51652 0.07195 0.13626 0.0
H1610 H 0.50657 0.07139 0.16047 0.0
H1611 H 0.51274 0.01097 0.26346 0.0
H1612 H 0.55843 0.02132 0.211 0.0
H1613 H 0.55984 0.02804 0.17605 0.0
H1614 H 0.5186 0.03773 0.12918 0.0
H1615 H 0.47491 0.03098 0.18237 0.0
H1616 H 0.4735 0.0243 0.21737 0.0
H1617 H 0.61538 0.06116 0.07632 0.0
H1618 H 0.63483 0.07616 0.09413 0.0
H1619 H 0.61087 0.07306 0.09723 0.0
C1620 C 0.58822 0.98319 0.75081 0.0
C1621 C 0.58641 0.99713 0.73591 0.0
C1622 C 0.56424 0.00568 0.7543 0.0
C1623 C 0.56397 0.02078 0.76564 0.0
C1624 C 0.54706 0.01753 0.77582 0.0
C1625 C 0.52995 0.9986 0.77463 0.0
C1626 C 0.52991 0.98333 0.76281 0.0
C1627 C 0.54703 0.98703 0.75265 0.0
C1628 C 0.54757 0.03426 0.78806 0.0
C1629 C 0.51182 0.96303 0.76114 0.0
C1630 C 0.39663 0.00488 0.73002 0.0
C1631 C 0.40717 0.99565 0.73969 0.0
C1632 C 0.43861 0.0054 0.75674 0.0
C1633 C 0.4359 0.98615 0.75734 0.0
C1634 C 0.44991 0.98265 0.76681 0.0
C1635 C 0.46688 0.99866 0.77594 0.0
C1636 C 0.46977 0.01806 0.77512 0.0
C1637 C 0.4556 0.02116 0.76545 0.0
C1638 C 0.4465 0.96181 0.76727 0.0
C1639 C 0.48772 0.03548 0.78467 0.0
C1640 C 0.42887 0.97586 0.90644 0.0
C1641 C 0.42747 0.95835 0.8989 0.0
C1642 C 0.44209 0.9587 0.8866 0.0
C1643 C 0.45857 0.97708 0.88177 0.0
C1644 C 0.45994 0.99491 0.88903 0.0
C1645 C 0.44495 0.99414 0.90103 0.0
C1646 C 0.44004 0.93942 0.8789 0.0
C1647 C 0.47736 0.01481 0.88428 0.0
C1648 C 0.59839 0.99708 0.90838 0.0
C1649 C 0.58108 0.98653 0.92275 0.0
C1650 C 0.55069 0.97361 0.90221 0.0
C1651 C 0.53413 0.95637 0.89489 0.0
C1652 C 0.51921 0.9572 0.88389 0.0
C1653 C 0.52092 0.9758 0.88013 0.0
C1654 C 0.53762 0.99334 0.88743 0.0
C1655 C 0.55239 0.9921 0.89824 0.0
C1656 C 0.50162 0.93823 0.87624 0.0
C1657 C 0.53988 0.01344 0.88379 0.0
C1658 C 0.51227 0.99476 0.78612 0.0
C1659 C 0.49778 0.99729 0.77653 0.0
C1660 C 0.48135 0.99507 0.78685 0.0
C1661 C 0.47924 0.99018 0.80733 0.0
C1662 C 0.46302 0.98807 0.81821 0.0
C1663 C 0.46131 0.98371 0.83847 0.0
C1664 C 0.4758 0.98143 0.84866 0.0
C1665 C 0.47455 0.97772 0.8694 0.0
C1666 C 0.48922 0.97551 0.87906 0.0
C1667 C 0.50528 0.97702 0.86859 0.0
C1668 C 0.50681 0.98077 0.84785 0.0
C1669 C 0.5228 0.98246 0.83686 0.0
C1670 C 0.52454 0.98685 0.81661 0.0
C1671 C 0.51032 0.98967 0.80654 0.0
C1672 C 0.49382 0.98754 0.81721 0.0
C1673 C 0.49208 0.98312 0.83789 0.0
C1674 C 0.4313 0.99611 0.94764 0.0
C1675 C 0.41505 0.98919 0.93121 0.0
O1676 O 0.58142 0.00993 0.74539 0.0
O1677 O 0.56452 0.97165 0.91286 0.0
O1678 O 0.41458 0.97438 0.91899 0.0
O1679 O 0.42532 0.00942 0.74797 0.0
H1680 H 0.57441 0.98704 0.7254 0.0
H1681 H 0.5735 0.97216 0.75626 0.0
H1682 H 0.59747 0.99114 0.76415 0.0
H1683 H 0.59456 0.97485 0.74327 0.0
H1684 H 0.57725 0.03515 0.76669 0.0
H1685 H 0.54679 0.97529 0.74358 0.0
H1686 H 0.53519 0.03648 0.78342 0.0
H1687 H 0.56163 0.04841 0.78647 0.0
H1688 H 0.54568 0.03039 0.80412 0.0
H1689 H 0.5142 0.95261 0.75161 0.0
H1690 H 0.49935 0.96422 0.7547 0.0
H1691 H 0.5075 0.95678 0.77629 0.0
H1692 H 0.39813 0.98358 0.75021 0.0
H1693 H 0.39509 0.99669 0.70039 0.0
H1694 H 0.40421 0.02084 0.73532 0.0
H1695 H 0.38311 1.00024 0.73924 0.0
H1696 H 0.4229 0.97381 0.75049 0.0
H1697 H 0.45762 0.03596 0.76482 0.0
H1698 H 0.45941 0.96142 0.76105 0.0
H1699 H 0.43308 0.95111 0.75862 0.0
H1700 H 0.44497 0.95699 0.78302 0.0
H1701 H 0.48761 0.04959 0.78305 0.0
H1702 H 0.50121 0.03702 0.77769 0.0
H1703 H 0.48853 0.03288 0.80086 0.0
H1704 H 0.41912 0.00254 0.92235 0.0
H1705 H 0.41495 0.94432 0.90295 0.0
H1706 H 0.44607 0.00789 0.90618 0.0
H1707 H 0.44152 0.93974 0.86236 0.0
H1708 H 0.42568 0.92645 0.88279 0.0
H1709 H 0.45206 0.93751 0.88539 0.0
H1710 H 0.47701 0.02722 0.89235 0.0
H1711 H 0.47752 0.01725 0.86794 0.0
H1712 H 0.4913 0.01513 0.88832 0.0
H1713 H 0.57822 0.99838 0.92821 0.0
H1714 H 0.61202 0.00756 0.91691 0.0
H1715 H 0.5952 0.00578 0.89751 0.0
H1716 H 0.60121 0.98663 0.89957 0.0
H1717 H 0.53291 0.94218 0.8979 0.0
H1718 H 0.56514 0.00571 0.90338 0.0
H1719 H 0.50003 0.93879 0.85976 0.0
H1720 H 0.48802 0.93662 0.88305 0.0
H1721 H 0.50282 0.92498 0.87974 0.0
H1722 H 0.55316 0.02561 0.89145 0.0
H1723 H 0.52669 0.01385 0.88912 0.0
H1724 H 0.54098 0.01619 0.86747 0.0
H1725 H 0.49946 0.00136 0.76091 0.0
H1726 H 0.45151 0.98986 0.81123 0.0
H1727 H 0.44853 0.98231 0.84608 0.0
H1728 H 0.48833 0.97298 0.89505 0.0
H1729 H 0.53424 0.98054 0.84384 0.0
H1730 H 0.53724 0.9881 0.80898 0.0
H1731 H 0.43113 0.98347 0.95519 0.0
H1732 H 0.42952 0.00564 0.95904 0.0
H1733 H 0.4461 0.00506 0.94118 0.0
C1734 C 0.03691 0.61734 0.74277 0.0
C1735 C 0.01584 0.60095 0.73692 0.0
C1736 C 0.00505 0.57391 0.76099 0.0
C1737 C 0.98983 0.56263 0.774 0.0
C1738 C 0.98849 0.54596 0.78313 0.0
C1739 C 0.00338 0.54101 0.77985 0.0
C1740 C 0.01877 0.55226 0.76651 0.0
C1741 C 0.01927 0.56841 0.75694 0.0
C1742 C 0.97129 0.53388 0.79649 0.0
C1743 C 0.03493 0.54747 0.76262 0.0
C1744 C 0.98036 0.43004 0.70535 0.0
C1745 C 0.9929 0.42731 0.7215 0.0
C1746 C 0.98723 0.44127 0.75213 0.0
C1747 C 0.00645 0.45648 0.75685 0.0
C1748 C 0.00975 0.47249 0.76945 0.0
C1749 C 0.9935 0.4732 0.77766 0.0
C1750 C 0.97414 0.45754 0.7735 0.0
C1751 C 0.97128 0.44164 0.76092 0.0
C1752 C 0.03062 0.48871 0.77397 0.0
C1753 C 0.95653 0.45773 0.78222 0.0
C1754 C 0.00957 0.44602 0.90296 0.0
C1755 C 0.02661 0.45901 0.89267 0.0
C1756 C 0.02817 0.47583 0.88361 0.0
C1757 C 0.01229 0.4796 0.88475 0.0
C1758 C 0.99541 0.46691 0.89572 0.0
C1759 C 0.9944 0.45039 0.90493 0.0
C1760 C 0.0467 0.48946 0.87263 0.0
C1761 C 0.97829 0.47058 0.89735 0.0
C1762 C 0.06511 0.63954 0.90461 0.0
C1763 C 0.04715 0.61978 0.91011 0.0
C1764 C 0.04461 0.58737 0.90482 0.0
C1765 C 0.05695 0.57992 0.89971 0.0
C1766 C 0.0495 0.56142 0.88989 0.0
C1767 C 0.02903 0.54984 0.88567 0.0
C1768 C 0.01628 0.55684 0.89191 0.0
C1769 C 0.02424 0.57564 0.90128 0.0
C1770 C 0.06359 0.55446 0.88371 0.0
C1771 C 0.99429 0.54455 0.88849 0.0
C1772 C 0.00315 0.52453 0.79094 0.0
C1773 C 0.99778 0.50679 0.7805 0.0
C1774 C 0.99692 0.49062 0.79019 0.0
C1775 C 0.00053 0.49176 0.81109 0.0
C1776 C 0.99873 0.47543 0.82149 0.0
C1777 C 0.00249 0.47677 0.84202 0.0
C1778 C 0.00858 0.49461 0.85288 0.0
C1779 C 0.01303 0.49628 0.87364 0.0
C1780 C 0.01906 0.51422 0.884 0.0
C1781 C 0.02119 0.53083 0.87408 0.0
C1782 C 0.01694 0.52946 0.85327 0.0
C1783 C 0.01932 0.54594 0.84268 0.0
C1784 C 0.01489 0.54439 0.82229 0.0
C1785 C 0.00804 0.52635 0.81161 0.0
C1786 C 0.00625 0.50975 0.8218 0.0
C1787 C 0.01049 0.51124 0.84269 0.0
C1788 C 0.99435 0.40007 0.89271 0.0
C1789 C 0.01291 0.4164 0.90368 0.0
O1790 O 0.00564 0.59021 0.75331 0.0
O1791 O 0.05284 0.60579 0.91335 0.0
O1792 O 0.00758 0.42956 0.91179 0.0
O1793 O 0.98362 0.42584 0.73957 0.0
H1794 H 0.01811 0.59135 0.72608 0.0
H1795 H 0.04619 0.61076 0.74657 0.0
H1796 H 0.03748 0.62644 0.75593 0.0
H1797 H 0.0438 0.62724 0.72995 0.0
H1798 H 0.97886 0.56692 0.77693 0.0
H1799 H 0.03106 0.57688 0.74676 0.0
H1800 H 0.96568 0.51779 0.79406 0.0
H1801 H 0.95901 0.53688 0.79386 0.0
H1802 H 0.97615 0.53768 0.8124 0.0
H1803 H 0.04723 0.55922 0.75413 0.0
H1804 H 0.02879 0.53335 0.75382 0.0
H1805 H 0.04091 0.54547 0.77698 0.0
H1806 H 0.00793 0.44041 0.72166 0.0
H1807 H 0.98738 0.43349 0.69053 0.0
H1808 H 0.97815 0.44261 0.70974 0.0
H1809 H 0.96565 0.41646 0.70379 0.0
H1810 H 0.01893 0.45579 0.75096 0.0
H1811 H 0.95651 0.42962 0.75749 0.0
H1812 H 0.03348 0.49012 0.79039 0.0
H1813 H 0.03265 0.5031 0.76888 0.0
H1814 H 0.04167 0.4859 0.76656 0.0
H1815 H 0.94244 0.44425 0.77787 0.0
H1816 H 0.95605 0.47096 0.77705 0.0
H1817 H 0.95793 0.45887 0.79882 0.0
H1818 H 0.02485 0.42364 0.8927 0.0
H1819 H 0.03885 0.45629 0.89196 0.0
H1820 H 0.98149 0.44047 0.91328 0.0
H1821 H 0.04335 0.48834 0.85632 0.0
H1822 H 0.05854 0.48578 0.87508 0.0
H1823 H 0.05224 0.50507 0.87756 0.0
H1824 H 0.96601 0.45904 0.90604 0.0
H1825 H 0.97266 0.47096 0.88214 0.0
H1826 H 0.98329 0.48525 0.90475 0.0
H1827 H 0.03801 0.61544 0.89628 0.0
H1828 H 0.06037 0.65034 0.90062 0.0
H1829 H 0.07239 0.6373 0.89141 0.0
H1830 H 0.07614 0.64609 0.91702 0.0
H1831 H 0.07262 0.58898 0.90288 0.0
H1832 H 0.01458 0.58107 0.90603 0.0
H1833 H 0.06139 0.55005 0.86758 0.0
H1834 H 0.06057 0.54122 0.89235 0.0
H1835 H 0.07923 0.56602 0.88639 0.0
H1836 H 0.98623 0.55069 0.89682 0.0
H1837 H 0.98885 0.52908 0.89313 0.0
H1838 H 0.99082 0.54409 0.87227 0.0
H1839 H 0.99452 0.50565 0.76455 0.0
H1840 H 0.99425 0.46139 0.81389 0.0
H1841 H 0.00068 0.46364 0.84924 0.0
H1842 H 0.02259 0.5154 0.89989 0.0
H1843 H 0.02458 0.56024 0.85004 0.0
H1844 H 0.01701 0.55759 0.81499 0.0
H1845 H 0.98282 0.39113 0.90365 0.0
H1846 H 0.99732 0.39006 0.8833 0.0
H1847 H 0.98829 0.40691 0.88248 0.0
C1848 C 0.57428 0.5598 0.72499 0.0
C1849 C 0.57369 0.57914 0.72809 0.0
C1850 C 0.55195 0.56911 0.75637 0.0
C1851 C 0.53584 0.57207 0.75456 0.0
C1852 C 0.51832 0.55999 0.76469 0.0
C1853 C 0.517 0.54458 0.77671 0.0
C1854 C 0.53326 0.54139 0.77821 0.0
C1855 C 0.5507 0.55397 0.76827 0.0
C1856 C 0.50134 0.56388 0.76284 0.0
C1857 C 0.53232 0.52487 0.79049 0.0
C1858 C 0.37582 0.43384 0.73743 0.0
C1859 C 0.3937 0.43139 0.73255 0.0
C1860 C 0.42003 0.45129 0.75759 0.0
C1861 C 0.4323 0.44984 0.77189 0.0
C1862 C 0.44767 0.46675 0.78139 0.0
C1863 C 0.45026 0.48564 0.77712 0.0
C1864 C 0.43796 0.48728 0.76253 0.0
C1865 C 0.42315 0.4701 0.75267 0.0
C1866 C 0.461 0.46425 0.79606 0.0
C1867 C 0.44028 0.50714 0.75751 0.0
C1868 C 0.40954 0.47628 0.90474 0.0
C1869 C 0.42215 0.4695 0.89818 0.0
C1870 C 0.4393 0.48197 0.88768 0.0
C1871 C 0.44364 0.50149 0.88333 0.0
C1872 C 0.43109 0.50842 0.89033 0.0
C1873 C 0.41436 0.49579 0.90123 0.0
C1874 C 0.45276 0.4743 0.88131 0.0
C1875 C 0.43525 0.52912 0.88618 0.0
C1876 C 0.58285 0.6194 0.94295 0.0
C1877 C 0.56688 0.61314 0.92752 0.0
C1878 C 0.54646 0.58351 0.90639 0.0
C1879 C 0.54405 0.56526 0.90002 0.0
C1880 C 0.52728 0.55158 0.889 0.0
C1881 C 0.51267 0.55648 0.88396 0.0
C1882 C 0.51504 0.575 0.89025 0.0
C1883 C 0.53192 0.58836 0.90146 0.0
C1884 C 0.52517 0.53189 0.88277 0.0
C1885 C 0.49977 0.58069 0.88502 0.0
C1886 C 0.49886 0.53215 0.78814 0.0
C1887 C 0.48302 0.51612 0.77813 0.0
C1888 C 0.4657 0.50353 0.78812 0.0
C1889 C 0.46396 0.50714 0.80866 0.0
C1890 C 0.44646 0.49536 0.819 0.0
C1891 C 0.44538 0.4981 0.83951 0.0
C1892 C 0.4618 0.51263 0.8505 0.0
C1893 C 0.46131 0.51469 0.87157 0.0
C1894 C 0.47796 0.52935 0.88195 0.0
C1895 C 0.49509 0.54224 0.87186 0.0
C1896 C 0.49573 0.54056 0.8508 0.0
C1897 C 0.51258 0.55352 0.84014 0.0
C1898 C 0.51346 0.55112 0.81955 0.0
C1899 C 0.49763 0.5355 0.80885 0.0
C1900 C 0.48021 0.52278 0.81917 0.0
C1901 C 0.47919 0.52541 0.84015 0.0
C1902 C 0.35896 0.44082 0.90913 0.0
C1903 C 0.38003 0.44457 0.91158 0.0
O1904 O 0.56916 0.58155 0.74757 0.0
O1905 O 0.56283 0.59572 0.91751 0.0
O1906 O 0.39289 0.46464 0.91493 0.0
O1907 O 0.40523 0.43412 0.74944 0.0
H1908 H 0.56139 0.57713 0.71821 0.0
H1909 H 0.55936 0.54681 0.72694 0.0
H1910 H 0.58452 0.55858 0.73562 0.0
H1911 H 0.57888 0.55889 0.70949 0.0
H1912 H 0.53714 0.58403 0.74546 0.0
H1913 H 0.56342 0.55203 0.76971 0.0
H1914 H 0.48848 0.55079 0.75571 0.0
H1915 H 0.50507 0.57708 0.75378 0.0
H1916 H 0.49687 0.56613 0.77796 0.0
H1917 H 0.54511 0.52269 0.78787 0.0
H1918 H 0.51854 0.51077 0.78691 0.0
H1919 H 0.53217 0.52838 0.80664 0.0
H1920 H 0.40207 0.44314 0.72165 0.0
H1921 H 0.36559 0.42918 0.72425 0.0
H1922 H 0.38064 0.44959 0.74092 0.0
H1923 H 0.36756 0.42529 0.75049 0.0
H1924 H 0.42988 0.43528 0.77548 0.0
H1925 H 0.41393 0.47154 0.74149 0.0
H1926 H 0.45658 0.46533 0.81157 0.0
H1927 H 0.47658 0.47605 0.79439 0.0
H1928 H 0.46006 0.44961 0.79408 0.0
H1929 H 0.42796 0.50568 0.7479 0.0
H1930 H 0.45426 0.51593 0.74946 0.0
H1931 H 0.44109 0.51554 0.77144 0.0
H1932 H 0.38301 0.44038 0.89669 0.0
H1933 H 0.41881 0.45463 0.90159 0.0
H1934 H 0.40467 0.50095 0.90668 0.0
H1935 H 0.45155 0.47177 0.86483 0.0
H1936 H 0.44901 0.46013 0.88851 0.0
H1937 H 0.46834 0.48538 0.88508 0.0
H1938 H 0.42291 0.53147 0.89065 0.0
H1939 H 0.438 0.5322 0.87 0.0
H1940 H 0.44873 0.53999 0.89462 0.0
H1941 H 0.56855 0.62491 0.91712 0.0
H1942 H 0.59524 0.63381 0.93752 0.0
H1943 H 0.59055 0.61072 0.93978 0.0
H1944 H 0.56879 0.61742 0.96955 0.0
H1945 H 0.55533 0.56166 0.90396 0.0
H1946 H 0.5337 0.60251 0.90626 0.0
H1947 H 0.52569 0.53094 0.8662 0.0
H1948 H 0.51069 0.51961 0.88745 0.0
H1949 H 0.53702 0.52971 0.88931 0.0
H1950 H 0.5042 0.596 0.89019 0.0
H1951 H 0.4856 0.57026 0.89201 0.0
H1952 H 0.49719 0.57947 0.86855 0.0
H1953 H 0.48437 0.51317 0.76246 0.0
H1954 H 0.43346 0.48374 0.81137 0.0
H1955 H 0.4316 0.48844 0.84669 0.0
H1956 H 0.47767 0.5306 0.89814 0.0
H1957 H 0.52535 0.56559 0.84763 0.0
H1958 H 0.52686 0.56148 0.81218 0.0
H1959 H 0.34874 0.42497 0.90517 0.0
H1960 H 0.35829 0.44991 0.89684 0.0
H1961 H 0.35369 0.4446 0.92298 0.0
C1962 C 0.64104 0.75891 0.65244 0.0
C1963 C 0.63767 0.74594 0.63342 0.0
C1964 C 0.6456 0.77085 0.60732 0.0
C1965 C 0.62712 0.76973 0.60639 0.0
C1966 C 0.624 0.78247 0.59421 0.0
C1967 C 0.63978 0.797 0.58315 0.0
C1968 C 0.65852 0.79846 0.58442 0.0
C1969 C 0.66105 0.78512 0.59621 0.0
C1970 C 0.60378 0.78036 0.59318 0.0
C1971 C 0.67591 0.81412 0.57336 0.0
C1972 C 0.60937 0.90561 0.62995 0.0
C1973 C 0.6294 0.90953 0.62223 0.0
C1974 C 0.62937 0.88799 0.59574 0.0
C1975 C 0.64727 0.89093 0.58846 0.0
C1976 C 0.64876 0.87507 0.58013 0.0
C1977 C 0.63179 0.85601 0.57872 0.0
C1978 C 0.61369 0.85301 0.5863 0.0
C1979 C 0.61271 0.86911 0.59478 0.0
C1980 C 0.66831 0.87878 0.57233 0.0
C1981 C 0.59529 0.83294 0.58487 0.0
C1982 C 0.60985 0.86664 0.44906 0.0
C1983 C 0.62945 0.87347 0.45505 0.0
C1984 C 0.63453 0.86122 0.46576 0.0
C1985 C 0.61961 0.84197 0.47089 0.0
C1986 C 0.59992 0.83499 0.46442 0.0
C1987 C 0.59541 0.84733 0.45327 0.0
C1988 C 0.65578 0.86893 0.47176 0.0
C1989 C 0.58356 0.81455 0.46938 0.0
C1990 C 0.60461 0.70353 0.45395 0.0
C1991 C 0.61645 0.71926 0.43841 0.0
C1992 C 0.63017 0.75168 0.45609 0.0
C1993 C 0.64766 0.76886 0.46164 0.0
C1994 C 0.64747 0.78512 0.47081 0.0
C1995 C 0.62923 0.78394 0.47496 0.0
C1996 C 0.61143 0.76659 0.46943 0.0
C1997 C 0.61207 0.75074 0.45987 0.0
C1998 C 0.66674 0.80348 0.47625 0.0
C1999 C 0.59168 0.76471 0.47371 0.0
C2000 C 0.63664 0.81055 0.57018 0.0
C2001 C 0.63588 0.82645 0.57935 0.0
C2002 C 0.63266 0.83955 0.56808 0.0
C2003 C 0.63032 0.83696 0.54701 0.0
C2004 C 0.62677 0.8497 0.53526 0.0
C2005 C 0.62466 0.84715 0.51455 0.0
C2006 C 0.62622 0.83189 0.50471 0.0
C2007 C 0.62431 0.82933 0.48361 0.0
C2008 C 0.62576 0.81386 0.47437 0.0
C2009 C 0.62869 0.80056 0.48566 0.0
C2010 C 0.63043 0.80278 0.50678 0.0
C2011 C 0.63281 0.78935 0.51864 0.0
C2012 C 0.63465 0.79174 0.53939 0.0
C2013 C 0.63432 0.80773 0.54911 0.0
C2014 C 0.63141 0.82114 0.53749 0.0
C2015 C 0.62944 0.81866 0.5163 0.0
C2016 C 0.59611 0.90362 0.44164 0.0
C2017 C 0.61254 0.89841 0.44054 0.0
O2018 O 0.64933 0.75868 0.61869 0.0
O2019 O 0.63149 0.73644 0.44739 0.0
O2020 O 0.60428 0.87804 0.43894 0.0
O2021 O 0.62787 0.90368 0.60231 0.0
H2022 H 0.62189 0.73813 0.6288 0.0
H2023 H 0.63994 0.77216 0.64871 0.0
H2024 H 0.65598 0.76411 0.65895 0.0
H2025 H 0.62994 0.75119 0.66402 0.0
H2026 H 0.61497 0.75895 0.61496 0.0
H2027 H 0.67527 0.78597 0.59705 0.0
H2028 H 0.60424 0.79335 0.60084 0.0
H2029 H 0.59249 0.76672 0.60045 0.0
H2030 H 0.59917 0.78006 0.57734 0.0
H2031 H 0.69001 0.8153 0.57841 0.0
H2032 H 0.67697 0.82879 0.5755 0.0
H2033 H 0.6739 0.8104 0.55708 0.0
H2034 H 0.63264 0.8999 0.63174 0.0
H2035 H 0.61095 0.91104 0.64573 0.0
H2036 H 0.5988 0.88941 0.62956 0.0
H2037 H 0.60282 0.91271 0.62091 0.0
H2038 H 0.65998 0.90573 0.58912 0.0
H2039 H 0.59886 0.86714 0.60022 0.0
H2040 H 0.66729 0.87676 0.55578 0.0
H2041 H 0.672 0.86788 0.57854 0.0
H2042 H 0.68045 0.89397 0.5762 0.0
H2043 H 0.58235 0.83307 0.59141 0.0
H2044 H 0.59776 0.82195 0.5928 0.0
H2045 H 0.59187 0.82796 0.56892 0.0
H2046 H 0.61997 0.90329 0.45535 0.0
H2047 H 0.64079 0.88821 0.45117 0.0
H2048 H 0.58038 0.84214 0.44825 0.0
H2049 H 0.6576 0.8717 0.4882 0.0
H2050 H 0.66589 0.88295 0.46426 0.0
H2051 H 0.66016 0.85772 0.46803 0.0
H2052 H 0.56876 0.81253 0.4659 0.0
H2053 H 0.58428 0.81158 0.48547 0.0
H2054 H 0.58533 0.80341 0.46046 0.0
H2055 H 0.60648 0.72349 0.4309 0.0
H2056 H 0.5914 0.69096 0.44661 0.0
H2057 H 0.59953 0.70977 0.46603 0.0
H2058 H 0.61337 0.69756 0.46098 0.0
H2059 H 0.66156 0.76952 0.45866 0.0
H2060 H 0.59832 0.73764 0.45569 0.0
H2061 H 0.66843 0.80526 0.4928 0.0
H2062 H 0.66683 0.8168 0.47045 0.0
H2063 H 0.67959 0.80284 0.47021 0.0
H2064 H 0.57929 0.74943 0.47079 0.0
H2065 H 0.58954 0.77492 0.46402 0.0
H2066 H 0.59116 0.76902 0.48954 0.0
H2067 H 0.63772 0.82859 0.59549 0.0
H2068 H 0.62556 0.8618 0.54193 0.0
H2069 H 0.62187 0.8574 0.50635 0.0
H2070 H 0.62418 0.8119 0.4582 0.0
H2071 H 0.63329 0.77681 0.51203 0.0
H2072 H 0.63641 0.7809 0.5477 0.0
H2073 H 0.58701 0.89928 0.42768 0.0
H2074 H 0.60255 0.91983 0.44427 0.0
H2075 H 0.5863 0.89588 0.4543 0.0
C2076 C 0.09334 0.7099 0.62645 0.0
C2077 C 0.09049 0.72795 0.62412 0.0
C2078 C 0.11169 0.75183 0.59952 0.0
C2079 C 0.10991 0.7648 0.5867 0.0
C2080 C 0.1266 0.78128 0.57927 0.0
C2081 C 0.14556 0.78411 0.58382 0.0
C2082 C 0.14746 0.77114 0.5971 0.0
C2083 C 0.13045 0.75528 0.60509 0.0
C2084 C 0.12379 0.79529 0.56613 0.0
C2085 C 0.16735 0.77361 0.60235 0.0
C2086 C 0.24828 0.89381 0.65612 0.0
C2087 C 0.25926 0.90265 0.63651 0.0
C2088 C 0.23251 0.88374 0.61158 0.0
C2089 C 0.23404 0.86649 0.61107 0.0
C2090 C 0.22093 0.84987 0.59932 0.0
C2091 C 0.20569 0.85029 0.58821 0.0
C2092 C 0.20377 0.86741 0.58912 0.0
C2093 C 0.21742 0.88401 0.60055 0.0
C2094 C 0.22343 0.83187 0.59868 0.0
C2095 C 0.18736 0.86823 0.57798 0.0
C2096 C 0.23793 0.88087 0.45647 0.0
C2097 C 0.24543 0.87051 0.46697 0.0
C2098 C 0.23292 0.8539 0.47818 0.0
C2099 C 0.21276 0.84822 0.47975 0.0
C2100 C 0.20538 0.85909 0.46966 0.0
C2101 C 0.218 0.87497 0.45781 0.0
C2102 C 0.2412 0.84224 0.48802 0.0
C2103 C 0.18409 0.85384 0.47114 0.0
C2104 C 0.07705 0.72309 0.44747 0.0
C2105 C 0.09304 0.73669 0.43292 0.0
C2106 C 0.12488 0.75274 0.45135 0.0
C2107 C 0.14299 0.75344 0.45337 0.0
C2108 C 0.15797 0.76749 0.46616 0.0
C2109 C 0.1548 0.7814 0.47698 0.0
C2110 C 0.13647 0.78077 0.47506 0.0
C2111 C 0.12159 0.7662 0.46266 0.0
C2112 C 0.1772 0.76754 0.468 0.0
C2113 C 0.13254 0.79561 0.48593 0.0
C2114 C 0.1631 0.79984 0.57366 0.0
C2115 C 0.17619 0.81692 0.58468 0.0
C2116 C 0.19198 0.83289 0.57548 0.0
C2117 C 0.19443 0.83217 0.55456 0.0
C2118 C 0.20946 0.84836 0.5446 0.0
C2119 C 0.21099 0.84792 0.52386 0.0
C2120 C 0.19803 0.83099 0.51234 0.0
C2121 C 0.19909 0.83053 0.4912 0.0
C2122 C 0.18556 0.81361 0.48025 0.0
C2123 C 0.17076 0.79712 0.48975 0.0
C2124 C 0.16988 0.79707 0.51087 0.0
C2125 C 0.15566 0.78044 0.52094 0.0
C2126 C 0.15379 0.78109 0.54158 0.0
C2127 C 0.16601 0.79844 0.55293 0.0
C2128 C 0.18134 0.81489 0.54326 0.0
C2129 C 0.18328 0.81422 0.52217 0.0
C2130 C 0.27675 0.92104 0.42728 0.0
C2131 C 0.2694 0.90798 0.44488 0.0
O2132 O 0.09502 0.7354 0.60504 0.0
O2133 O 0.11121 0.739 0.43834 0.0
O2134 O 0.24908 0.89608 0.44429 0.0
O2135 O 0.24505 0.90035 0.62247 0.0
H2136 H 0.10107 0.7389 0.6353 0.0
H2137 H 0.10925 0.71466 0.62679 0.0
H2138 H 0.08646 0.69879 0.61409 0.0
H2139 H 0.08711 0.7026 0.64085 0.0
H2140 H 0.09531 0.76199 0.58257 0.0
H2141 H 0.13184 0.74516 0.61493 0.0
H2142 H 0.13564 0.81086 0.56893 0.0
H2143 H 0.10932 0.79431 0.56863 0.0
H2144 H 0.12427 0.79139 0.55016 0.0
H2145 H 0.16613 0.76094 0.61088 0.0
H2146 H 0.17592 0.78735 0.6116 0.0
H2147 H 0.17575 0.77514 0.58853 0.0
H2148 H 0.26708 0.89481 0.63144 0.0
H2149 H 0.25731 0.89131 0.66723 0.0
H2150 H 0.23508 0.87908 0.65304 0.0
H2151 H 0.24325 0.90359 0.66295 0.0
H2152 H 0.24541 0.86578 0.61965 0.0
H2153 H 0.21624 0.8973 0.6011 0.0
H2154 H 0.21047 0.81923 0.60548 0.0
H2155 H 0.23693 0.83442 0.60687 0.0
H2156 H 0.22415 0.82755 0.5829 0.0
H2157 H 0.18635 0.88151 0.58236 0.0
H2158 H 0.17302 0.85476 0.58082 0.0
H2159 H 0.18994 0.8686 0.56164 0.0
H2160 H 0.27503 0.91552 0.45978 0.0
H2161 H 0.26084 0.87489 0.46601 0.0
H2162 H 0.21236 0.88304 0.44961 0.0
H2163 H 0.2421 0.84484 0.50448 0.0
H2164 H 0.25618 0.84656 0.48269 0.0
H2165 H 0.23138 0.82612 0.48503 0.0
H2166 H 0.18166 0.86585 0.46566 0.0
H2167 H 0.17914 0.85076 0.48687 0.0
H2168 H 0.17473 0.84025 0.46195 0.0
H2169 H 0.09317 0.75095 0.43431 0.0
H2170 H 0.0623 0.71987 0.44195 0.0
H2171 H 0.07977 0.73059 0.4624 0.0
H2172 H 0.07685 0.70893 0.44963 0.0
H2173 H 0.1454 0.74293 0.44478 0.0
H2174 H 0.10755 0.76565 0.46195 0.0
H2175 H 0.18139 0.76814 0.48404 0.0
H2176 H 0.18901 0.78096 0.46091 0.0
H2177 H 0.17645 0.75427 0.46066 0.0
H2178 H 0.11925 0.79552 0.47988 0.0
H2179 H 0.14532 0.81083 0.48488 0.0
H2180 H 0.13018 0.79197 0.50202 0.0
H2181 H 0.17395 0.81791 0.60058 0.0
H2182 H 0.21993 0.86176 0.55265 0.0
H2183 H 0.22243 0.86107 0.51699 0.0
H2184 H 0.18593 0.81366 0.464 0.0
H2185 H 0.14563 0.76682 0.5129 0.0
H2186 H 0.14243 0.7679 0.54848 0.0
H2187 H 0.29404 0.91163 0.41273 0.0
H2188 H 0.28293 0.9365 0.4337 0.0
H2189 H 0.26364 0.9207 0.4198 0.0
C2190 C 0.1134 0.37346 0.64337 0.0
C2191 C 0.10004 0.36125 0.62546 0.0
C2192 C 0.12253 0.35528 0.60431 0.0
C2193 C 0.13494 0.37496 0.59862 0.0
C2194 C 0.15168 0.38002 0.5871 0.0
C2195 C 0.15589 0.36508 0.58085 0.0
C2196 C 0.14308 0.3452 0.58602 0.0
C2197 C 0.12662 0.34061 0.59774 0.0
C2198 C 0.16509 0.40138 0.58186 0.0
C2199 C 0.14694 0.32884 0.57941 0.0
C2200 C 0.30947 0.4024 0.6133 0.0
C2201 C 0.28869 0.38482 0.60927 0.0
C2202 C 0.25833 0.38601 0.60629 0.0
C2203 C 0.24539 0.36747 0.59749 0.0
C2204 C 0.22876 0.36446 0.58645 0.0
C2205 C 0.22508 0.38038 0.58423 0.0
C2206 C 0.23775 0.3989 0.59378 0.0
C2207 C 0.25415 0.4014 0.60491 0.0
C2208 C 0.21521 0.34434 0.57699 0.0
C2209 C 0.23419 0.41613 0.59188 0.0
C2210 C 0.26702 0.39373 0.46106 0.0
C2211 C 0.25064 0.37456 0.46182 0.0
C2212 C 0.23274 0.37138 0.46962 0.0
C2213 C 0.23101 0.38778 0.47632 0.0
C2214 C 0.24701 0.40722 0.47412 0.0
C2215 C 0.26484 0.40993 0.46647 0.0
C2216 C 0.21584 0.35046 0.47125 0.0
C2217 C 0.24551 0.42505 0.48059 0.0
C2218 C 0.08272 0.34971 0.45624 0.0
C2219 C 0.09774 0.36653 0.44322 0.0
C2220 C 0.12828 0.36591 0.44971 0.0
C2221 C 0.13371 0.35142 0.45126 0.0
C2222 C 0.1502 0.35484 0.46279 0.0
C2223 C 0.16191 0.37351 0.47249 0.0
C2224 C 0.15698 0.38857 0.47024 0.0
C2225 C 0.14012 0.38458 0.45894 0.0
C2226 C 0.15504 0.33845 0.46466 0.0
C2227 C 0.16951 0.40887 0.47979 0.0
C2228 C 0.17417 0.37032 0.56977 0.0
C2229 C 0.19065 0.37323 0.58088 0.0
C2230 C 0.20827 0.37781 0.57154 0.0
C2231 C 0.20967 0.37975 0.55051 0.0
C2232 C 0.22722 0.38446 0.54066 0.0
C2233 C 0.22838 0.38599 0.51995 0.0
C2234 C 0.2121 0.3831 0.50825 0.0
C2235 C 0.21311 0.38443 0.48713 0.0
C2236 C 0.19668 0.38159 0.47597 0.0
C2237 C 0.17903 0.3771 0.48531 0.0
C2238 C 0.17767 0.37542 0.50639 0.0
C2239 C 0.16003 0.37045 0.51625 0.0
C2240 C 0.15884 0.36881 0.53699 0.0
C2241 C 0.17521 0.372 0.54869 0.0
C2242 C 0.19308 0.37682 0.53905 0.0
C2243 C 0.19431 0.37855 0.51789 0.0
C2244 C 0.31193 0.39538 0.47101 0.0
C2245 C 0.29274 0.38462 0.45848 0.0
O2246 O 0.10665 0.34963 0.6162 0.0
O2247 O 0.11199 0.36156 0.43854 0.0
O2248 O 0.28509 0.3971 0.45546 0.0
O2249 O 0.27482 0.38938 0.61642 0.0
H2250 H 0.10108 0.37259 0.615 0.0
H2251 H 0.12811 0.38477 0.63814 0.0
H2252 H 0.11581 0.36439 0.65434 0.0
H2253 H 0.10685 0.38142 0.65125 0.0
H2254 H 0.13187 0.3865 0.60323 0.0
H2255 H 0.1169 0.32545 0.60205 0.0
H2256 H 0.18025 0.40641 0.58758 0.0
H2257 H 0.16004 0.41134 0.58819 0.0
H2258 H 0.16581 0.40275 0.56533 0.0
H2259 H 0.13472 0.31395 0.58324 0.0
H2260 H 0.16071 0.33112 0.58674 0.0
H2261 H 0.14908 0.32927 0.56297 0.0
H2262 H 0.28769 0.38404 0.59271 0.0
H2263 H 0.32063 0.39908 0.60699 0.0
H2264 H 0.31278 0.406 0.62949 0.0
H2265 H 0.31101 0.41576 0.60592 0.0
H2266 H 0.24816 0.35532 0.59948 0.0
H2267 H 0.26411 0.41557 0.6121 0.0
H2268 H 0.21582 0.34542 0.56043 0.0
H2269 H 0.19977 0.33917 0.58133 0.0
H2270 H 0.21924 0.33312 0.58141 0.0
H2271 H 0.24576 0.42974 0.59972 0.0
H2272 H 0.21967 0.41222 0.59825 0.0
H2273 H 0.2337 0.41935 0.57581 0.0
H2274 H 0.28313 0.37293 0.46867 0.0
H2275 H 0.25182 0.36202 0.45653 0.0
H2276 H 0.2774 0.42472 0.46538 0.0
H2277 H 0.21135 0.34738 0.4871 0.0
H2278 H 0.21965 0.33929 0.46568 0.0
H2279 H 0.20298 0.34874 0.46246 0.0
H2280 H 0.25844 0.43915 0.47598 0.0
H2281 H 0.24446 0.42538 0.49715 0.0
H2282 H 0.23191 0.42402 0.47412 0.0
H2283 H 0.10421 0.38074 0.45189 0.0
H2284 H 0.07134 0.35264 0.46242 0.0
H2285 H 0.07528 0.33556 0.44739 0.0
H2286 H 0.09044 0.34771 0.46925 0.0
H2287 H 0.12467 0.3372 0.44372 0.0
H2288 H 0.13656 0.3962 0.45701 0.0
H2289 H 0.15741 0.33635 0.48064 0.0
H2290 H 0.16891 0.34261 0.45671 0.0
H2291 H 0.14323 0.32415 0.45815 0.0
H2292 H 0.16491 0.41955 0.47491 0.0
H2293 H 0.18522 0.41476 0.47604 0.0
H2294 H 0.16839 0.4078 0.49633 0.0
H2295 H 0.18971 0.37178 0.59702 0.0
H2296 H 0.24027 0.38692 0.54884 0.0
H2297 H 0.24225 0.38949 0.51324 0.0
H2298 H 0.19753 0.38255 0.45978 0.0
H2299 H 0.14691 0.36774 0.50805 0.0
H2300 H 0.1449 0.36496 0.54375 0.0
H2301 H 0.31803 0.38536 0.47332 0.0
H2302 H 0.30885 0.39962 0.48596 0.0
H2303 H 0.32337 0.40907 0.4641 0.0
C2304 C 0.00072 0.37525 0.07179 0.0
C2305 C 0.99314 0.37466 0.05232 0.0
C2306 C 0.97862 0.39443 0.06447 0.0
C2307 C 0.98546 0.39407 0.08425 0.0
N2308 N 0.01186 0.3938 0.10301 0.0
N2309 N 0.97986 0.38839 0.02884 0.0
C2310 C 0.99922 0.38742 0.08686 0.0
C2311 C 0.98337 0.3855 0.04826 0.0
N2312 N 0.00897 0.36386 0.07611 0.0
N2313 N 0.96815 0.40385 0.06102 0.0
H2314 H 0.98371 0.38271 0.01652 0.0
H2315 H 0.97468 0.39781 0.02469 0.0
H2316 H 0.96801 0.41417 0.07108 0.0
H2317 H 0.95977 0.40166 0.04805 0.0
H2318 H 0.01298 0.3624 0.09063 0.0
H2319 H 0.01004 0.35441 0.06557 0.0
H2320 H 0.02316 0.39054 0.10469 0.0
H2321 H 0.01287 0.40463 0.11312 0.0
C2322 C 0.61189 0.57406 0.05027 0.0
C2323 C 0.63108 0.59901 0.05741 0.0
C2324 C 0.6354 0.58608 0.10071 0.0
C2325 C 0.61219 0.56258 0.09441 0.0
N2326 N 0.58909 0.53562 0.06369 0.0
N2327 N 0.65832 0.62341 0.08591 0.0
C2328 C 0.60315 0.55442 0.06821 0.0
C2329 C 0.6433 0.60493 0.08187 0.0
N2330 N 0.60396 0.57023 0.03157 0.0
N2331 N 0.64377 0.58969 0.11916 0.0
H2332 H 0.66301 0.63428 0.0751 0.0
H2333 H 0.66554 0.62719 0.09982 0.0
H2334 H 0.63789 0.5787 0.12987 0.0
H2335 H 0.65615 0.60326 0.12297 0.0
H2336 H 0.59285 0.55607 0.02721 0.0
H2337 H 0.60862 0.58142 0.02115 0.0
H2338 H 0.5834 0.5313 0.04916 0.0
H2339 H 0.58386 0.52508 0.07485 0.0
C2340 C 0.40287 0.0277 0.05615 0.0
C2341 C 0.38259 0.01672 0.06107 0.0
C2342 C 0.39161 0.01099 0.09445 0.0
C2343 C 0.41151 0.01942 0.08844 0.0
N2344 N 0.43657 0.04509 0.06863 0.0
N2345 N 0.3579 0.00109 0.08628 0.0
C2346 C 0.41734 0.03092 0.07095 0.0
C2347 C 0.3771 0.00953 0.08068 0.0
N2348 N 0.40844 0.03359 0.03697 0.0
N2349 N 0.38611 0.00484 0.11347 0.0
H2350 H 0.34683 0.00041 0.07692 0.0
H2351 H 0.35327 0.99526 0.10046 0.0
H2352 H 0.39601 0.00695 0.12509 0.0
H2353 H 0.39601 0.00695 0.12509 0.0
H2354 H 0.4229 0.03946 0.03226 0.0
H2355 H 0.39856 0.03105 0.02525 0.0
H2356 H 0.44128 0.05508 0.05698 0.0
H2357 H 0.44735 0.0484 0.07962 0.0
C2358 C 0.36868 0.98998 0.94708 0.0
C2359 C 0.36658 0.98204 0.96643 0.0
C2360 C 0.38873 0.96958 0.95712 0.0
C2361 C 0.39474 0.98207 0.94035 0.0
N2362 N 0.3839 0.99687 0.91518 0.0
N2363 N 0.37523 0.96434 0.99026 0.0
C2364 C 0.38272 0.9899 0.93396 0.0
C2365 C 0.37633 0.97135 0.97142 0.0
N2366 N 0.35738 0.99789 0.94116 0.0
N2367 N 0.39454 0.95585 0.95917 0.0
H2368 H 0.3668 0.96558 0.00156 0.0
H2369 H 0.38405 0.95869 0.99522 0.0
H2370 H 0.4028 0.95358 0.94836 0.0
H2371 H 0.3892 0.94521 0.9702 0.0
H2372 H 0.35885 0.00428 0.92721 0.0
H2373 H 0.34627 0.99751 0.95001 0.0
H2374 H 0.39259 0.99587 0.90397 0.0
H2375 H 0.39259 0.99587 0.90397 0.0
C2376 C 0.02364 0.40537 0.95637 0.0
C2377 C 0.01991 0.38575 0.95309 0.0
C2378 C 0.02101 0.39037 0.91689 0.0
C2379 C 0.02012 0.40793 0.92031 0.0
N2380 N 0.03437 0.43722 0.94167 0.0
N2381 N 0.0163 0.35966 0.93043 0.0
C2382 C 0.02562 0.41712 0.93962 0.0
C2383 C 0.01926 0.37835 0.93338 0.0
N2384 N 0.02434 0.41248 0.97541 0.0
N2385 N 0.02504 0.38611 0.89822 0.0
H2386 H 0.01578 0.3508 0.94222 0.0
H2387 H 0.01334 0.35259 0.91641 0.0
H2388 H 0.02843 0.39591 0.88648 0.0
H2389 H 0.02743 0.37435 0.89501 0.0
H2390 H 0.02459 0.42576 0.97848 0.0
H2391 H 0.02335 0.4045 0.98815 0.0
H2392 H 0.04003 0.4449 0.95524 0.0
H2393 H 0.03861 0.44632 0.92929 0.0
C2394 C 0.58037 0.60057 0.9726 0.0
C2395 C 0.59615 0.62712 0.9771 0.0
C2396 C 0.5673 0.63676 0.95298 0.0
C2397 C 0.55494 0.61032 0.94429 0.0
N2398 N 0.54525 0.57169 0.95462 0.0
N2399 N 0.60104 0.6644 0.97302 0.0
C2400 C 0.55802 0.5912 0.95756 0.0
C2401 C 0.58945 0.64498 0.96825 0.0
N2402 N 0.58491 0.58774 0.98118 0.0
N2403 N 0.56178 0.64936 0.94576 0.0
H2404 H 0.61393 0.66934 0.98154 0.0
H2405 H 0.59749 0.67488 0.9681 0.0
H2406 H 0.54962 0.64405 0.93603 0.0
H2407 H 0.56937 0.66436 0.94981 0.0
H2408 H 0.57601 0.5725 0.97885 0.0
H2409 H 0.59729 0.59274 0.99049 0.0
H2410 H 0.54738 0.56102 0.96157 0.0
H2411 H 0.53276 0.56705 0.9455 0.0
C2412 C 0.03623 0.62969 0.96453 0.0
C2413 C 0.02189 0.63526 0.9607 0.0
C2414 C 0.01981 0.62452 0.92569 0.0
C2415 C 0.0369 0.6226 0.92847 0.0
N2416 N 0.06314 0.62661 0.95155 0.0
N2417 N 0.00309 0.64198 0.93651 0.0
C2418 C 0.04563 0.62606 0.94817 0.0
C2419 C 0.01458 0.63385 0.94096 0.0
N2420 N 0.04048 0.62713 0.98377 0.0
N2421 N 0.00787 0.61678 0.90906 0.0
H2422 H 0.99948 0.64959 0.9471 0.0
H2423 H 0.99906 0.64308 0.92187 0.0
H2424 H 0.00927 0.60785 0.89823 0.0
H2425 H 0.99458 0.61671 0.9075 0.0
H2426 H 0.04922 0.62093 0.98724 0.0
H2427 H 0.0336 0.62913 0.99618 0.0
H2428 H 0.07092 0.63159 0.96512 0.0
H2429 H 0.071 0.62386 0.94076 0.0
C2430 C 0.37976 0.42389 0.96426 0.0
C2431 C 0.37432 0.40412 0.95894 0.0
C2432 C 0.38009 0.41351 0.92382 0.0
C2433 C 0.38112 0.43198 0.92858 0.0
N2434 N 0.37877 0.453 0.95483 0.0
N2435 N 0.36535 0.37917 0.9327 0.0
C2436 C 0.38014 0.43676 0.94922 0.0
C2437 C 0.37339 0.39864 0.93846 0.0
N2438 N 0.38515 0.43069 0.98359 0.0
N2439 N 0.38608 0.41013 0.90574 0.0
H2440 H 0.35936 0.36761 0.94275 0.0
H2441 H 0.36262 0.37442 0.91772 0.0
H2442 H 0.39322 0.42093 0.89514 0.0
H2443 H 0.38672 0.39732 0.90254 0.0
H2444 H 0.3911 0.44556 0.9878 0.0
H2445 H 0.38588 0.42201 0.99491 0.0
H2446 H 0.37567 0.45534 0.96945 0.0
H2447 H 0.37884 0.46325 0.94507 0.0
C2448 C 0.59514 0.9846 0.97679 0.0
C2449 C 0.60897 0.97811 0.97383 0.0
C2450 C 0.59692 0.96797 0.9394 0.0
C2451 C 0.58638 0.97839 0.94108 0.0
N2452 N 0.56705 0.98616 0.96336 0.0
N2453 N 0.62069 0.96035 0.95346 0.0
C2454 C 0.58277 0.98339 0.96051 0.0
C2455 C 0.6089 0.9685 0.95563 0.0
N2456 N 0.59441 0.99259 0.99493 0.0
N2457 N 0.59548 0.95704 0.92272 0.0
H2458 H 0.62967 0.96031 0.96507 0.0
H2459 H 0.62132 0.95361 0.94005 0.0
H2460 H 0.58575 0.95452 0.9108 0.0
H2461 H 0.58575 0.95452 0.9108 0.0
H2462 H 0.5865 0.99989 0.99737 0.0
H2463 H 0.60243 0.99257 0.00748 0.0
H2464 H 0.56271 0.98849 0.97737 0.0
H2465 H 0.55693 0.98373 0.95187 0.0
C2466 C 0.65036 0.0358 0.07974 0.0
C2467 C 0.63714 0.01894 0.06788 0.0
C2468 C 0.61019 0.01525 0.08893 0.0
C2469 C 0.62209 0.03484 0.09661 0.0
N2470 N 0.65574 0.06 0.1052 0.0
N2471 N 0.6032 0.99398 0.05995 0.0
C2472 C 0.64279 0.04395 0.0939 0.0
C2473 C 0.61671 0.00885 0.07225 0.0
N2474 N 0.67025 0.04415 0.07766 0.0
N2475 N 0.59355 0.00219 0.09854 0.0
H2476 H 0.60676 0.98958 0.04655 0.0
H2477 H 0.58806 0.98759 0.06202 0.0
H2478 H 0.5902 0.00549 0.11268 0.0
H2479 H 0.58512 0.98733 0.09406 0.0
H2480 H 0.68033 0.05675 0.08589 0.0
H2481 H 0.67659 0.0381 0.06828 0.0
H2482 H 0.65157 0.0661 0.11689 0.0
H2483 H 0.65157 0.0661 0.11689 0.0
C2484 C 0.97776 0.59622 0.05491 0.0
C2485 C 0.98154 0.61591 0.05733 0.0
C2486 C 0.98138 0.61298 0.09387 0.0
C2487 C 0.97555 0.59252 0.09143 0.0
N2488 N 0.98085 0.57018 0.07023 0.0
N2489 N 0.98561 0.64294 0.0787 0.0
C2490 C 0.97706 0.58543 0.07209 0.0
C2491 C 0.98321 0.62435 0.07672 0.0
N2492 N 0.97508 0.58782 0.03617 0.0
N2493 N 0.98648 0.62187 0.11248 0.0
H2494 H 0.98696 0.65165 0.06645 0.0
H2495 H 0.98458 0.64914 0.09225 0.0
H2496 H 0.98643 0.61446 0.12532 0.0
H2497 H 0.9928 0.63707 0.11505 0.0
H2498 H 0.96999 0.57278 0.0337 0.0
H2499 H 0.97636 0.59547 0.02309 0.0
H2500 H 0.98333 0.56521 0.05657 0.0
H2501 H 0.98531 0.56512 0.08238 0.0
C2502 C 0.41946 0.37916 0.04888 0.0
C2503 C 0.39959 0.37394 0.05185 0.0
C2504 C 0.40561 0.37643 0.08807 0.0
C2505 C 0.42407 0.37726 0.08519 0.0
N2506 N 0.44703 0.37656 0.061 0.0
N2507 N 0.37258 0.36324 0.07475 0.0
C2508 C 0.43067 0.37793 0.06508 0.0
C2509 C 0.39232 0.37139 0.07157 0.0
N2510 N 0.42787 0.38576 0.0307 0.0
N2511 N 0.40071 0.38095 0.10623 0.0
H2512 H 0.36206 0.35824 0.06318 0.0
H2513 H 0.3665 0.35933 0.08892 0.0
H2514 H 0.41033 0.38674 0.1185 0.0
H2515 H 0.38797 0.38181 0.10822 0.0
H2516 H 0.44289 0.39166 0.02835 0.0
H2517 H 0.42033 0.38745 0.01865 0.0
H2518 H 0.45064 0.37458 0.04648 0.0
H2519 H 0.45614 0.37554 0.0717 0.0
C2520 C 0.62661 0.70408 0.38704 0.0
C2521 C 0.64271 0.70108 0.39107 0.0
C2522 C 0.64181 0.70918 0.42661 0.0
C2523 C 0.6248 0.71099 0.42263 0.0
N2524 N 0.59669 0.7009 0.40015 0.0
N2525 N 0.66153 0.69483 0.41573 0.0
C2526 C 0.6158 0.70552 0.40321 0.0
C2527 C 0.64917 0.70193 0.41117 0.0
N2528 N 0.62205 0.7065 0.36788 0.0
N2529 N 0.65113 0.71434 0.44494 0.0
H2530 H 0.66645 0.68844 0.40506 0.0
H2531 H 0.66508 0.69317 0.43037 0.0
H2532 H 0.64571 0.7179 0.45754 0.0
H2533 H 0.66504 0.71601 0.44742 0.0
H2534 H 0.61145 0.71046 0.36463 0.0
H2535 H 0.63033 0.70692 0.35556 0.0
H2536 H 0.58934 0.69551 0.3864 0.0
H2537 H 0.58735 0.69965 0.41176 0.0
C2538 C 0.31163 0.93946 0.41966 0.0
C2539 C 0.29623 0.93351 0.39724 0.0
C2540 C 0.26685 0.89055 0.41165 0.0
C2541 C 0.27981 0.8993 0.43634 0.0
N2542 N 0.31556 0.92525 0.45639 0.0
N2543 N 0.26453 0.90523 0.37527 0.0
C2544 C 0.30484 0.92152 0.43931 0.0
C2545 C 0.27467 0.90927 0.3928 0.0
N2546 N 0.32824 0.95725 0.42152 0.0
N2547 N 0.2512 0.87218 0.40898 0.0
H2548 H 0.26886 0.91592 0.36432 0.0
H2549 H 0.2521 0.89144 0.37236 0.0
H2550 H 0.2468 0.86218 0.42063 0.0
H2551 H 0.24347 0.86761 0.39536 0.0
H2552 H 0.33734 0.96104 0.43422 0.0
H2553 H 0.33224 0.96757 0.41022 0.0
H2554 H 0.32906 0.93823 0.45844 0.0
H2555 H 0.31036 0.91494 0.46778 0.0
C2556 C 0.05728 0.36348 0.40809 0.0
C2557 C 0.06301 0.35842 0.38988 0.0
C2558 C 0.09539 0.36852 0.4048 0.0
C2559 C 0.08786 0.36862 0.42405 0.0
N2560 N 0.06554 0.37666 0.44148 0.0
N2561 N 0.08781 0.35623 0.37051 0.0
C2562 C 0.0701 0.36937 0.42499 0.0
C2563 C 0.08225 0.36119 0.38802 0.0
N2564 N 0.03955 0.36279 0.4094 0.0
N2565 N 0.11524 0.37725 0.40224 0.0
H2566 H 0.07871 0.35101 0.35775 0.0
H2567 H 0.1009 0.35592 0.36917 0.0
H2568 H 0.1253 0.38558 0.41368 0.0
H2569 H 0.12163 0.37889 0.38826 0.0
H2570 H 0.03479 0.36614 0.42271 0.0
H2571 H 0.02974 0.35889 0.39725 0.0
H2572 H 0.07502 0.38307 0.45386 0.0
H2573 H 0.07502 0.38307 0.45386 0.0
C2574 C 0.07008 0.31917 0.29751 0.0
C2575 C 0.04359 0.3096 0.2976 0.0
C2576 C 0.03553 0.27486 0.26715 0.0
C2577 C 0.06266 0.28848 0.26347 0.0
N2578 N 0.09968 0.31333 0.28181 0.0
N2579 N 0.00684 0.28012 0.28494 0.0
C2580 C 0.08032 0.30751 0.28176 0.0
C2581 C 0.02642 0.28735 0.28337 0.0
N2582 N 0.08207 0.33446 0.30993 0.0
N2583 N 0.02349 0.25852 0.25604 0.0
H2584 H 0.00141 0.28729 0.29398 0.0
H2585 H 0.99674 0.26739 0.27695 0.0
H2586 H 0.02948 0.25263 0.24599 0.0
H2587 H 0.00824 0.25152 0.25732 0.0
H2588 H 0.09724 0.34002 0.31022 0.0
H2589 H 0.07645 0.34095 0.31964 0.0
H2590 H 0.10962 0.32446 0.29162 0.0
H2591 H 0.1049 0.30641 0.2721 0.0
C2592 C 0.68386 0.74997 0.3021 0.0
C2593 C 0.69319 0.73274 0.30143 0.0
C2594 C 0.72612 0.75863 0.27086 0.0
C2595 C 0.7126 0.77247 0.26794 0.0
N2596 N 0.68904 0.78541 0.28721 0.0
N2597 N 0.72162 0.72474 0.28782 0.0
C2598 C 0.69474 0.77168 0.28668 0.0
C2599 C 0.71446 0.73728 0.28676 0.0
N2600 N 0.66937 0.74704 0.31481 0.0
N2601 N 0.74174 0.76255 0.25947 0.0
H2602 H 0.71491 0.71227 0.29671 0.0
H2603 H 0.73382 0.72707 0.2796 0.0
H2604 H 0.74714 0.77431 0.24963 0.0
H2605 H 0.74866 0.7541 0.26033 0.0
H2606 H 0.66395 0.75683 0.31555 0.0
H2607 H 0.66334 0.735 0.32427 0.0
H2608 H 0.67851 0.7845 0.29724 0.0
H2609 H 0.69542 0.79737 0.27763 0.0
C2610 C 0.26299 0.97338 0.29863 0.0
C2611 C 0.26414 0.95867 0.30983 0.0
C2612 C 0.23396 0.93302 0.29301 0.0
C2613 C 0.23553 0.94716 0.27893 0.0
N2614 N 0.24269 0.98095 0.27715 0.0
N2615 N 0.25 0.9244 0.31888 0.0
C2616 C 0.24738 0.96751 0.28438 0.0
C2617 C 0.24933 0.93844 0.30746 0.0
N2618 N 0.27735 0.99281 0.30075 0.0
N2619 N 0.21686 0.91529 0.29402 0.0
H2620 H 0.26013 0.92787 0.33063 0.0
H2621 H 0.24113 0.90924 0.31601 0.0
H2622 H 0.20423 0.91235 0.28587 0.0
H2623 H 0.21421 0.9049 0.30492 0.0
H2624 H 0.27844 0.00378 0.29127 0.0
H2625 H 0.28906 0.99776 0.31101 0.0
H2626 H 0.24973 0.99575 0.2819 0.0
H2627 H 0.23005 0.97662 0.26836 0.0
C2628 C 0.6951 0.96114 0.27587 0.0
C2629 C 0.6991 0.95874 0.29601 0.0
C2630 C 0.7252 0.95236 0.28491 0.0
C2631 C 0.72007 0.95305 0.26438 0.0
N2632 N 0.69449 0.95088 0.24161 0.0
N2633 N 0.71383 0.94619 0.31905 0.0
C2634 C 0.70329 0.95517 0.2602 0.0
C2635 C 0.71285 0.95251 0.30033 0.0
N2636 N 0.68417 0.96989 0.27153 0.0
N2637 N 0.74212 0.95235 0.2901 0.0
H2638 H 0.70469 0.94561 0.33063 0.0
H2639 H 0.72212 0.93949 0.32242 0.0
H2640 H 0.75198 0.95202 0.28003 0.0
H2641 H 0.74737 0.95442 0.30484 0.0
H2642 H 0.68268 0.97386 0.25706 0.0
H2643 H 0.67842 0.97519 0.28248 0.0
H2644 H 0.68137 0.95082 0.23871 0.0
H2645 H 0.69822 0.94456 0.22983 0.0
C2646 C 0.031 0.72632 0.26087 0.0
C2647 C 0.03302 0.73246 0.28123 0.0
C2648 C 0.03696 0.76428 0.27111 0.0
C2649 C 0.03704 0.75901 0.25043 0.0
N2650 N 0.04092 0.73665 0.2272 0.0
N2651 N 0.04402 0.75955 0.30525 0.0
C2652 C 0.03616 0.74057 0.24573 0.0
C2653 C 0.03789 0.75213 0.28621 0.0
N2654 N 0.02346 0.70675 0.2558 0.0
N2655 N 0.03522 0.7803 0.27673 0.0
H2656 H 0.04555 0.75138 0.31663 0.0
H2657 H 0.04971 0.77447 0.30911 0.0
H2658 H 0.03431 0.79002 0.26693 0.0
H2659 H 0.03277 0.78294 0.29149 0.0
H2660 H 0.01975 0.70132 0.24108 0.0
H2661 H 0.01886 0.69567 0.26636 0.0
H2662 H 0.04186 0.724 0.22402 0.0
H2663 H 0.04675 0.74685 0.21586 0.0
C2664 C 0.25717 0.31841 0.30956 0.0
C2665 C 0.27002 0.31048 0.31015 0.0
C2666 C 0.25452 0.29128 0.27939 0.0
C2667 C 0.24637 0.30363 0.27585 0.0
N2668 N 0.23258 0.32228 0.29069 0.0
N2669 N 0.28014 0.28811 0.29645 0.0
C2670 C 0.24522 0.31501 0.2921 0.0
C2671 C 0.26816 0.29616 0.29557 0.0
N2672 N 0.25661 0.32916 0.32572 0.0
N2673 N 0.24856 0.27457 0.26787 0.0
H2674 H 0.29018 0.29116 0.30818 0.0
H2675 H 0.28091 0.27936 0.2849 0.0
H2676 H 0.2372 0.26989 0.25721 0.0
H2677 H 0.25296 0.26421 0.27066 0.0
H2678 H 0.24783 0.33566 0.3266 0.0
H2679 H 0.26458 0.33096 0.33895 0.0
H2680 H 0.23162 0.33176 0.30118 0.0
H2681 H 0.22216 0.31798 0.27907 0.0
C2682 C 0.28682 0.34965 0.41336 0.0
C2683 C 0.30441 0.36155 0.40291 0.0
C2684 C 0.31034 0.3895 0.42485 0.0
C2685 C 0.29568 0.37648 0.43836 0.0
N2686 N 0.27177 0.34182 0.4455 0.0
N2687 N 0.33536 0.39243 0.4021 0.0
C2688 C 0.28441 0.35587 0.43273 0.0
C2689 C 0.31689 0.3814 0.40956 0.0
N2690 N 0.27187 0.33281 0.40454 0.0
N2691 N 0.31783 0.40952 0.42605 0.0
H2692 H 0.34146 0.38678 0.39196 0.0
H2693 H 0.34542 0.40647 0.4079 0.0
H2694 H 0.31297 0.41646 0.43607 0.0
H2695 H 0.32732 0.41903 0.41536 0.0
H2696 H 0.25808 0.32469 0.41099 0.0
H2697 H 0.27227 0.32849 0.38976 0.0
H2698 H 0.26529 0.3267 0.4421 0.0
H2699 H 0.26886 0.34436 0.46003 0.0
C2700 C 0.65168 0.94102 0.41044 0.0
C2701 C 0.647 0.93351 0.39046 0.0
C2702 C 0.62021 0.90231 0.40261 0.0
C2703 C 0.62611 0.90904 0.42295 0.0
N2704 N 0.65306 0.93278 0.44471 0.0
N2705 N 0.63144 0.90451 0.36865 0.0
C2706 C 0.64363 0.9277 0.42645 0.0
C2707 C 0.6328 0.91333 0.38691 0.0
N2708 N 0.66289 0.96092 0.41439 0.0
N2709 N 0.60234 0.88613 0.3978 0.0
H2710 H 0.64102 0.91186 0.35703 0.0
H2711 H 0.62242 0.88933 0.36595 0.0
H2712 H 0.59173 0.87753 0.40804 0.0
H2713 H 0.5971 0.88239 0.38305 0.0
H2714 H 0.66493 0.96703 0.42883 0.0
H2715 H 0.66822 0.97148 0.40328 0.0
H2716 H 0.66653 0.94575 0.44712 0.0
H2717 H 0.64942 0.92311 0.45651 0.0
C2718 C 0.07833 0.73597 0.37819 0.0
C2719 C 0.06706 0.71522 0.37445 0.0
C2720 C 0.0804 0.70942 0.40526 0.0
C2721 C 0.08798 0.72958 0.411 0.0
N2722 N 0.1034 0.76283 0.39885 0.0
N2723 N 0.0574 0.68187 0.384 0.0
C2724 C 0.08982 0.74319 0.39616 0.0
C2725 C 0.06845 0.70184 0.38762 0.0
N2726 N 0.07756 0.74869 0.36484 0.0
N2727 N 0.08555 0.69789 0.41601 0.0
H2728 H 0.04857 0.67568 0.37117 0.0
H2729 H 0.05593 0.67139 0.39435 0.0
H2730 H 0.09566 0.7036 0.42794 0.0
H2731 H 0.08185 0.68354 0.41162 0.0
H2732 H 0.08329 0.76375 0.36783 0.0
H2733 H 0.07041 0.744 0.3509 0.0
H2734 H 0.10659 0.77343 0.38805 0.0
H2735 H 0.11327 0.76816 0.41103 0.0
C2736 C 0.29409 0.02603 0.73634 0.0
C2737 C 0.30807 0.04063 0.7237 0.0
C2738 C 0.30199 0.0656 0.73959 0.0
C2739 C 0.2914 0.05203 0.75483 0.0
N2740 N 0.26733 0.0177 0.75911 0.0
N2741 N 0.32511 0.07442 0.71258 0.0
C2742 C 0.28439 0.03162 0.75075 0.0
C2743 C 0.31193 0.06046 0.72508 0.0
N2744 N 0.29059 0.00702 0.73509 0.0
N2745 N 0.30058 0.08227 0.73758 0.0
H2746 H 0.33186 0.07109 0.70093 0.0
H2747 H 0.33025 0.08952 0.71459 0.0
H2748 H 0.2907 0.08467 0.74587 0.0
H2749 H 0.3067 0.092 0.72583 0.0
H2750 H 0.28221 0.99632 0.74544 0.0
H2751 H 0.29733 0.00235 0.72461 0.0
H2752 H 0.26057 0.00263 0.75547 0.0
H2753 H 0.25855 0.0216 0.76751 0.0
C2754 C 0.96589 0.27913 0.74551 0.0
C2755 C 0.96711 0.2733 0.72556 0.0
C2756 C 0.96416 0.24265 0.73801 0.0
C2757 C 0.95827 0.24621 0.75703 0.0
N2758 N 0.95381 0.26904 0.77883 0.0
N2759 N 0.96331 0.24723 0.70252 0.0
C2760 C 0.95923 0.26482 0.76082 0.0
C2761 C 0.96516 0.25445 0.7217 0.0
N2762 N 0.97207 0.29857 0.75011 0.0
N2763 N 0.96953 0.22855 0.73551 0.0
H2764 H 0.96268 0.25472 0.69001 0.0
H2765 H 0.96009 0.23276 0.69927 0.0
H2766 H 0.97099 0.22081 0.74735 0.0
H2767 H 0.97526 0.22663 0.72216 0.0
H2768 H 0.97347 0.30404 0.76474 0.0
H2769 H 0.97797 0.30969 0.73957 0.0
H2770 H 0.95149 0.281 0.78104 0.0
H2771 H 0.95069 0.26035 0.79139 0.0
C2772 C 0.73054 0.71524 0.73116 0.0
C2773 C 0.73067 0.70052 0.71844 0.0
C2774 C 0.76071 0.70557 0.73551 0.0
C2775 C 0.75791 0.71685 0.75072 0.0
N2776 N 0.74931 0.74236 0.75475 0.0
N2777 N 0.74663 0.6824 0.70738 0.0
C2778 C 0.74555 0.72478 0.74612 0.0
C2779 C 0.74605 0.69596 0.72021 0.0
N2780 N 0.71559 0.71942 0.72969 0.0
N2781 N 0.7783 0.70594 0.73441 0.0
H2782 H 0.73711 0.67614 0.69503 0.0
H2783 H 0.75595 0.67662 0.70959 0.0
H2784 H 0.7904 0.71551 0.74344 0.0
H2785 H 0.78186 0.69925 0.72281 0.0
H2786 H 0.71363 0.72838 0.7401 0.0
H2787 H 0.70424 0.71272 0.71898 0.0
H2788 H 0.74183 0.74975 0.75076 0.0
H2789 H 0.76173 0.75079 0.76388 0.0
C2790 C 0.69144 0.63171 0.61398 0.0
C2791 C 0.70539 0.647 0.62693 0.0
C2792 C 0.73199 0.6442 0.61094 0.0
C2793 C 0.71858 0.63215 0.59546 0.0
N2794 N 0.68535 0.60526 0.59034 0.0
N2795 N 0.7391 0.66752 0.63852 0.0
C2796 C 0.69812 0.62306 0.59934 0.0
C2797 C 0.72573 0.65314 0.62568 0.0
N2798 N 0.67192 0.62608 0.61498 0.0
N2799 N 0.74977 0.64508 0.61299 0.0
H2800 H 0.73508 0.67352 0.65043 0.0
H2801 H 0.75427 0.6743 0.63663 0.0
H2802 H 0.75326 0.63584 0.60462 0.0
H2803 H 0.75963 0.65242 0.62485 0.0
H2804 H 0.66145 0.61665 0.60438 0.0
H2805 H 0.66642 0.63205 0.6255 0.0
H2806 H 0.67051 0.59702 0.59386 0.0
H2807 H 0.69022 0.59755 0.5813 0.0
C2808 C 0.38134 0.07903 0.62292 0.0
C2809 C 0.35853 0.07266 0.63559 0.0
C2810 C 0.35882 0.11093 0.62061 0.0
C2811 C 0.37871 0.11361 0.60361 0.0
N2812 N 0.41007 0.1063 0.59802 0.0
N2813 N 0.332 0.08439 0.64657 0.0
C2814 C 0.39328 0.10103 0.60793 0.0
C2815 C 0.34776 0.08865 0.6352 0.0
N2816 N 0.38947 0.06739 0.62485 0.0
N2817 N 0.35198 0.12376 0.62041 0.0
H2818 H 0.32583 0.072 0.65558 0.0
H2819 H 0.32574 0.09346 0.64672 0.0
H2820 H 0.35854 0.13608 0.61131 0.0
H2821 H 0.34036 0.12178 0.62942 0.0
H2822 H 0.40257 0.07078 0.6178 0.0
H2823 H 0.38265 0.0546 0.63326 0.0
H2824 H 0.41767 0.09858 0.59963 0.0
H2825 H 0.41568 0.1184 0.58861 0.0
C2826 C 0.94499 0.29296 0.60966 0.0
C2827 C 0.93802 0.28898 0.62951 0.0
C2828 C 0.90403 0.26887 0.61649 0.0
C2829 C 0.91098 0.27485 0.59674 0.0
N2830 N 0.93901 0.28435 0.57503 0.0
N2831 N 0.91186 0.26878 0.65185 0.0
C2832 C 0.93159 0.28416 0.59343 0.0
C2833 C 0.91774 0.2757 0.63298 0.0
N2834 N 0.9645 0.3053 0.60602 0.0
N2835 N 0.88442 0.25621 0.61935 0.0
H2836 H 0.92162 0.27278 0.66403 0.0
H2837 H 0.89764 0.25803 0.65543 0.0
H2838 H 0.87476 0.24777 0.60769 0.0
H2839 H 0.87769 0.25359 0.6332 0.0
H2840 H 0.96993 0.30854 0.59152 0.0
H2841 H 0.97503 0.31301 0.61729 0.0
H2842 H 0.93041 0.27655 0.5625 0.0
H2843 H 0.93041 0.27655 0.5625 0.0
C2844 C 0.37319 0.29642 0.62458 0.0
C2845 C 0.35917 0.30191 0.61888 0.0
C2846 C 0.36371 0.29596 0.58376 0.0
C2847 C 0.38068 0.29453 0.5891 0.0
N2848 N 0.40306 0.2967 0.61609 0.0
N2849 N 0.34394 0.31076 0.59254 0.0
C2850 C 0.38585 0.29563 0.60993 0.0
C2851 C 0.35522 0.30277 0.59833 0.0
N2852 N 0.37409 0.29132 0.64389 0.0
N2853 N 0.35499 0.29017 0.56518 0.0
H2854 H 0.33793 0.31654 0.60267 0.0
H2855 H 0.34239 0.3136 0.57764 0.0
H2856 H 0.35887 0.28309 0.55432 0.0
H2857 H 0.34178 0.28967 0.56154 0.0
H2858 H 0.38266 0.28519 0.6483 0.0
H2859 H 0.36465 0.29106 0.65497 0.0
H2860 H 0.40816 0.29995 0.6309 0.0
H2861 H 0.4133 0.29624 0.60665 0.0
C2862 C 0.70601 0.06328 0.59858 0.0
C2863 C 0.70881 0.07085 0.61852 0.0
C2864 C 0.71322 0.10213 0.60599 0.0
C2865 C 0.71244 0.0953 0.58573 0.0
N2866 N 0.71555 0.07129 0.56438 0.0
N2867 N 0.72169 0.09978 0.64035 0.0
C2868 C 0.71123 0.07653 0.58248 0.0
C2869 C 0.71455 0.09101 0.62196 0.0
N2870 N 0.69744 0.04336 0.59476 0.0
N2871 N 0.71181 0.11857 0.61044 0.0
H2872 H 0.72367 0.09237 0.65222 0.0
H2873 H 0.7278 0.11497 0.64304 0.0
H2874 H 0.71035 0.12745 0.59996 0.0
H2875 H 0.71012 0.12238 0.62505 0.0
H2876 H 0.69339 0.03717 0.58033 0.0
H2877 H 0.6923 0.03288 0.60595 0.0
H2878 H 0.71606 0.05827 0.56219 0.0
H2879 H 0.72151 0.08085 0.55252 0.0
C2880 C 0.93965 0.65105 0.6028 0.0
C2881 C 0.93312 0.64634 0.6227 0.0
C2882 C 0.90161 0.61898 0.61007 0.0
C2883 C 0.90753 0.62464 0.58986 0.0
N2884 N 0.93002 0.65148 0.56863 0.0
N2885 N 0.90571 0.62995 0.64483 0.0
C2886 C 0.92582 0.64235 0.58668 0.0
C2887 C 0.91341 0.63163 0.62619 0.0
N2888 N 0.95919 0.66309 0.59905 0.0
N2889 N 0.88534 0.6013 0.61429 0.0
H2890 H 0.91373 0.6393 0.65689 0.0
H2891 H 0.8908 0.62081 0.64771 0.0
H2892 H 0.87573 0.5911 0.60366 0.0
H2893 H 0.88223 0.59583 0.62874 0.0
H2894 H 0.96485 0.66515 0.58465 0.0
H2895 H 0.97003 0.66929 0.61029 0.0
H2896 H 0.94259 0.66516 0.56648 0.0
H2897 H 0.92002 0.64732 0.55671 0.0
C2898 C 0.96742 0.697 0.73881 0.0
C2899 C 0.95835 0.69697 0.72037 0.0
C2900 C 0.93728 0.70704 0.73788 0.0
C2901 C 0.94817 0.70977 0.75603 0.0
N2902 N 0.96696 0.69838 0.77497 0.0
N2903 N 0.93597 0.70367 0.70169 0.0
C2904 C 0.96124 0.702 0.75687 0.0
C2905 C 0.94376 0.70262 0.7197 0.0
N2906 N 0.98287 0.69347 0.73891 0.0
N2907 N 0.91924 0.70571 0.73835 0.0
H2908 H 0.93954 0.69956 0.6881 0.0
H2909 H 0.92714 0.7101 0.7001 0.0
H2910 H 0.91172 0.70378 0.75161 0.0
H2911 H 0.91012 0.70258 0.72578 0.0
H2912 H 0.99172 0.69561 0.75149 0.0
H2913 H 0.98815 0.69025 0.72592 0.0
H2914 H 0.97459 0.69071 0.77652 0.0
H2915 H 0.9623 0.70104 0.78864 0.0
C2916 C 0.31513 0.26021 0.71029 0.0
C2917 C 0.3065 0.27239 0.70838 0.0
C2918 C 0.288 0.25868 0.73898 0.0
C2919 C 0.30014 0.25043 0.74322 0.0
N2920 N 0.3166 0.23428 0.72859 0.0
N2921 N 0.28405 0.28289 0.7203 0.0
C2922 C 0.31108 0.24835 0.72747 0.0
C2923 C 0.29237 0.2712 0.7223 0.0
N2924 N 0.32766 0.26049 0.69598 0.0
N2925 N 0.27174 0.25363 0.75017 0.0
H2926 H 0.28671 0.2921 0.70817 0.0
H2927 H 0.27552 0.28442 0.7313 0.0
H2928 H 0.26728 0.24299 0.76119 0.0
H2929 H 0.26142 0.25793 0.74686 0.0
H2930 H 0.33648 0.25409 0.69765 0.0
H2931 H 0.32977 0.2678 0.68249 0.0
H2932 H 0.3234 0.23091 0.71709 0.0
H2933 H 0.31227 0.22429 0.74025 0.0
C2934 C 0.73189 0.04378 0.73292 0.0
C2935 C 0.73824 0.04567 0.71288 0.0
C2936 C 0.76998 0.05029 0.72475 0.0
C2937 C 0.7642 0.05001 0.74513 0.0
N2938 N 0.7419 0.05443 0.76712 0.0
N2939 N 0.76547 0.05692 0.69038 0.0
C2940 C 0.74592 0.04931 0.7488 0.0
C2941 C 0.75797 0.0509 0.709 0.0
N2942 N 0.71235 0.03579 0.73702 0.0
N2943 N 0.78634 0.04914 0.72001 0.0
H2944 H 0.75731 0.05812 0.67862 0.0
H2945 H 0.78037 0.06284 0.6873 0.0
H2946 H 0.79613 0.04884 0.73036 0.0
H2947 H 0.78937 0.04678 0.70538 0.0
H2948 H 0.70694 0.03237 0.75149 0.0
H2949 H 0.70133 0.03045 0.72595 0.0
H2950 H 0.72927 0.05536 0.76967 0.0
H2951 H 0.75213 0.06063 0.77886 0.0
C2952 C 0.07908 0.34455 0.0207 0.0
C2953 C 0.05233 0.33302 0.02303 0.0
C2954 C 0.04935 0.29461 0.04186 0.0
C2955 C 0.07666 0.30931 0.04427 0.0
N2956 N 0.11143 0.3395 0.02793 0.0
N2957 N 0.01767 0.29951 0.03394 0.0
C2958 C 0.09183 0.33195 0.02964 0.0
C2959 C 0.03747 0.308 0.03274 0.0
N2960 N 0.08941 0.36204 0.01152 0.0
N2961 N 0.03919 0.27628 0.04933 0.0
H2962 H 0.0102 0.3069 0.03005 0.0
H2963 H 0.00925 0.28534 0.03953 0.0
H2964 H 0.04679 0.26975 0.05554 0.0
H2965 H 0.02385 0.26832 0.04891 0.0
H2966 H 0.10463 0.36869 0.0101 0.0
H2967 H 0.08249 0.3691 0.00506 0.0
H2968 H 0.12009 0.3526 0.02043 0.0
H2969 H 0.11814 0.33209 0.03412 0.0
C2970 C 0.66375 0.7085 0.07433 0.0
C2971 C 0.66824 0.70376 0.04851 0.0
C2972 C 0.70248 0.74805 0.0442 0.0
C2973 C 0.69346 0.75306 0.06808 0.0
N2974 N 0.67556 0.73743 0.10469 0.0
N2975 N 0.69131 0.71896 0.01503 0.0
C2976 C 0.67777 0.73318 0.08554 0.0
C2977 C 0.68787 0.72303 0.03384 0.0
N2978 N 0.65076 0.69348 0.0856 0.0
N2979 N 0.71698 0.76288 0.03399 0.0
H2980 H 0.6827 0.70508 0.00819 0.0
H2981 H 0.7024 0.72987 0.00657 0.0
H2982 H 0.72408 0.77726 0.04011 0.0
H2983 H 0.72141 0.76031 0.02013 0.0
H2984 H 0.64818 0.69604 0.10034 0.0
H2985 H 0.64341 0.67888 0.08022 0.0
H2986 H 0.66621 0.7264 0.1143 0.0
H2987 H 0.68347 0.75202 0.11017 0.0
C2988 C 0.26433 0.93093 0.03068 0.0
C2989 C 0.28092 0.95754 0.03469 0.0
C2990 C 0.24762 0.96276 0.05556 0.0
C2991 C 0.23349 0.93523 0.05609 0.0
N2992 N 0.22623 0.89982 0.03675 0.0
N2993 N 0.28494 0.99317 0.04855 0.0
C2994 C 0.23925 0.91927 0.03968 0.0
C2995 C 0.27253 0.97346 0.04625 0.0
N2996 N 0.27037 0.91996 0.02028 0.0
N2997 N 0.24073 0.97375 0.06441 0.0
H2998 H 0.29959 0.99979 0.04433 0.0
H2999 H 0.28028 0.00228 0.05523 0.0
H3000 H 0.22675 0.96675 0.07064 0.0
H3001 H 0.249 0.98916 0.06504 0.0
H3002 H 0.26105 0.9048 0.01786 0.0
H3003 H 0.28428 0.92637 0.01399 0.0
H3004 H 0.22974 0.8907 0.02824 0.0
H3005 H 0.21229 0.89369 0.043 0.0
C3006 C 0.33702 0.06752 0.994 0.0
C3007 C 0.33185 0.04872 0.98549 0.0
C3008 C 0.3146 0.05451 0.95796 0.0
C3009 C 0.3239 0.07484 0.96389 0.0
N3010 N 0.33661 0.09784 0.99246 0.0
N3011 N 0.31574 0.02408 0.95895 0.0
C3012 C 0.33275 0.08048 0.98333 0.0
C3013 C 0.32025 0.04192 0.96758 0.0
N3014 N 0.34607 0.07317 0.01243 0.0
N3015 N 0.29988 0.04711 0.94375 0.0
H3016 H 0.31971 0.01441 0.9653 0.0
H3017 H 0.30941 0.01956 0.94467 0.0
H3018 H 0.29451 0.05569 0.9375 0.0
H3019 H 0.29144 0.03207 0.94005 0.0
H3020 H 0.35042 0.08706 0.01897 0.0
H3021 H 0.34879 0.06384 0.02125 0.0
H3022 H 0.33234 0.10749 0.98661 0.0
H3023 H 0.33234 0.10749 0.98661 0.0
C3024 C 0.96 0.27169 0.99502 0.0
C3025 C 0.96054 0.2863 0.98223 0.0
C3026 C 0.94313 0.26072 0.95598 0.0
C3027 C 0.93932 0.24597 0.97024 0.0
N3028 N 0.95592 0.2389 0.99654 0.0
N3029 N 0.95418 0.29519 0.94961 0.0
C3030 C 0.95132 0.25181 0.98783 0.0
C3031 C 0.9526 0.28097 0.96238 0.0
N3032 N 0.96681 0.27646 0.01438 0.0
N3033 N 0.93986 0.25558 0.93607 0.0
H3034 H 0.96272 0.31033 0.95284 0.0
H3035 H 0.94635 0.29196 0.93608 0.0
H3036 H 0.93601 0.2414 0.93079 0.0
H3037 H 0.94366 0.26574 0.92468 0.0
H3038 H 0.96489 0.26584 0.02478 0.0
H3039 H 0.97268 0.2907 0.02059 0.0
H3040 H 0.96597 0.2429 0.00846 0.0
H3041 H 0.95188 0.22512 0.98991 0.0
C3042 C 0.70643 0.67137 0.96654 0.0
C3043 C 0.70071 0.6565 0.98104 0.0
C3044 C 0.7329 0.6586 0.97906 0.0
C3045 C 0.73941 0.67483 0.96584 0.0
N3046 N 0.72879 0.68887 0.93989 0.0
N3047 N 0.70816 0.63525 0.00074 0.0
C3048 C 0.72515 0.67906 0.9575 0.0
C3049 C 0.71376 0.64983 0.987 0.0
N3050 N 0.694 0.67821 0.96137 0.0
N3051 N 0.74421 0.65048 0.98393 0.0
H3052 H 0.69449 0.62866 0.00762 0.0
H3053 H 0.71744 0.63008 0.00562 0.0
H3054 H 0.7579 0.65453 0.97788 0.0
H3055 H 0.7579 0.65453 0.97788 0.0
H3056 H 0.69835 0.69075 0.95284 0.0
H3057 H 0.67973 0.67221 0.96674 0.0
H3058 H 0.71838 0.69103 0.93228 0.0
H3059 H 0.74105 0.69222 0.93125 0.0
C3060 C 0.9542 0.6824 0.98713 0.0
C3061 C 0.95766 0.66875 0.97621 0.0
C3062 C 0.94698 0.67746 0.94538 0.0
C3063 C 0.94779 0.69422 0.95538 0.0
N3064 N 0.95231 0.71234 0.98697 0.0
N3065 N 0.96001 0.65517 0.94424 0.0
C3066 C 0.95118 0.69648 0.97666 0.0
C3067 C 0.95464 0.66667 0.95518 0.0
N3068 N 0.95338 0.68163 0.00756 0.0
N3069 N 0.93838 0.67124 0.9268 0.0
H3070 H 0.96592 0.64711 0.95061 0.0
H3071 H 0.96037 0.65517 0.92864 0.0
H3072 H 0.93101 0.67729 0.91934 0.0
H3073 H 0.93607 0.65812 0.91992 0.0
H3074 H 0.94873 0.68966 0.01633 0.0
H3075 H 0.95541 0.67141 0.01563 0.0
H3076 H 0.95766 0.71611 0.00166 0.0
H3077 H 0.9491 0.7226 0.98086 0.0
C3078 C 0.32211 0.29791 0.95901 0.0
C3079 C 0.33778 0.30202 0.97253 0.0
C3080 C 0.32773 0.26683 0.97211 0.0
C3081 C 0.30942 0.26212 0.96275 0.0
N3082 N 0.28994 0.2741 0.9457 0.0
N3083 N 0.35474 0.29014 0.99348 0.0
C3084 C 0.30693 0.27793 0.95545 0.0
C3085 C 0.34054 0.28646 0.97933 0.0
N3086 N 0.32202 0.31312 0.9492 0.0
N3087 N 0.33335 0.25287 0.97354 0.0
H3088 H 0.36441 0.30426 0.99935 0.0
H3089 H 0.35575 0.2789 0.00067 0.0
H3090 H 0.32549 0.23877 0.96696 0.0
H3091 H 0.34726 0.25617 0.97878 0.0
H3092 H 0.31223 0.31103 0.93752 0.0
H3093 H 0.33305 0.32788 0.95134 0.0
H3094 H 0.28623 0.28497 0.94294 0.0
H3095 H 0.27893 0.26005 0.94111 0.0
C3096 C 0.70925 0.03534 0.96366 0.0
C3097 C 0.71013 0.03458 0.98483 0.0
C3098 C 0.7446 0.04255 0.98343 0.0
C3099 C 0.74447 0.04523 0.96232 0.0
N3100 N 0.72451 0.03728 0.93183 0.0
N3101 N 0.72895 0.0401 0.01528 0.0
C3102 C 0.7262 0.03977 0.95225 0.0
C3103 C 0.72784 0.03877 0.9948 0.0
N3104 N 0.69218 0.03202 0.95438 0.0
N3105 N 0.76018 0.04229 0.99254 0.0
H3106 H 0.71701 0.03746 0.02415 0.0
H3107 H 0.7421 0.04563 0.02346 0.0
H3108 H 0.77236 0.04372 0.98496 0.0
H3109 H 0.76007 0.03822 0.00732 0.0
H3110 H 0.69133 0.03555 0.93959 0.0
H3111 H 0.67885 0.02675 0.96172 0.0
H3112 H 0.71118 0.03102 0.92391 0.0
H3113 H 0.73592 0.03938 0.92251 0.0
C3114 C 0.66453 0.93178 0.03341 0.0
C3115 C 0.67075 0.95143 0.0399 0.0
C3116 C 0.70051 0.95395 0.05518 0.0
C3117 C 0.6939 0.93377 0.04935 0.0
N3118 N 0.66528 0.90192 0.04015 0.0
N3119 N 0.69129 0.97883 0.0623 0.0
C3120 C 0.67458 0.92216 0.04072 0.0
C3121 C 0.6877 0.96178 0.05243 0.0
N3122 N 0.64951 0.92243 0.01961 0.0
N3123 N 0.71912 0.96606 0.06273 0.0
H3124 H 0.68202 0.9848 0.06106 0.0
H3125 H 0.70221 0.98584 0.07336 0.0
H3126 H 0.72914 0.96147 0.06622 0.0
H3127 H 0.72526 0.98136 0.06432 0.0
H3128 H 0.64593 0.9089 0.01274 0.0
H3129 H 0.64196 0.92904 0.01352 0.0
H3130 H 0.65066 0.8931 0.0354 0.0
H3131 H 0.67075 0.89375 0.04706 0.0
C3132 C 0.04013 0.71592 0.06044 0.0
C3133 C 0.03855 0.71472 0.03929 0.0
C3134 C 0.04721 0.7496 0.03844 0.0
C3135 C 0.04903 0.75095 0.05989 0.0
N3136 N 0.05512 0.73697 0.08959 0.0
N3137 N 0.04542 0.73128 0.00789 0.0
C3138 C 0.04799 0.73465 0.07038 0.0
C3139 C 0.04362 0.73186 0.02821 0.0
N3140 N 0.03329 0.69906 0.07126 0.0
N3141 N 0.04822 0.76486 0.02771 0.0
H3142 H 0.0428 0.71848 1.0 0.0
H3143 H 0.05128 0.7438 0.99911 0.0
H3144 H 0.05224 0.77877 0.03375 0.0
H3145 H 0.04397 0.7634 0.01268 0.0
H3146 H 0.03187 0.69894 0.08677 0.0
H3147 H 0.02727 0.68493 0.06469 0.0
H3148 H 0.05613 0.72583 0.09698 0.0
H3149 H 0.0626 0.75051 0.09728 0.0
C3150 C 0.28521 0.32879 0.02512 0.0
C3151 C 0.30198 0.34121 0.03723 0.0
C3152 C 0.28247 0.32823 0.06762 0.0
C3153 C 0.26526 0.31636 0.05537 0.0
N3154 N 0.25272 0.29999 0.02297 0.0
N3155 N 0.31693 0.35384 0.06981 0.0
C3156 C 0.26733 0.31508 0.03426 0.0
C3157 C 0.3007 0.34122 0.05842 0.0
N3158 N 0.28605 0.3308 0.00478 0.0
N3159 N 0.28186 0.32605 0.08796 0.0
H3160 H 0.331 0.36209 0.06402 0.0
H3161 H 0.31646 0.35711 0.0849 0.0
H3162 H 0.26936 0.31637 0.0957 0.0
H3163 H 0.29423 0.33237 0.09737 0.0
H3164 H 0.27369 0.324 0.99532 0.0
H3165 H 0.29878 0.34083 0.99746 0.0
H3166 H 0.25441 0.29712 0.00804 0.0
H3167 H 0.23979 0.28871 0.02884 0.0
C3168 C 0.72145 0.67845 0.40089 0.0
C3169 C 0.71088 0.67107 0.37558 0.0
C3170 C 0.71982 0.63576 0.37368 0.0
C3171 C 0.73511 0.64734 0.39675 0.0
N3172 N 0.73972 0.66972 0.43192 0.0
N3173 N 0.70063 0.64398 0.34405 0.0
C3174 C 0.73226 0.66536 0.41305 0.0
C3175 C 0.70931 0.64956 0.3624 0.0
N3176 N 0.72036 0.69299 0.4111 0.0
N3177 N 0.71927 0.6199 0.36455 0.0
H3178 H 0.69515 0.652 0.3368 0.0
H3179 H 0.69966 0.63175 0.3364 0.0
H3180 H 0.72659 0.61325 0.37111 0.0
H3181 H 0.71152 0.61398 0.3511 0.0
H3182 H 0.72622 0.69723 0.42558 0.0
H3183 H 0.71323 0.70002 0.40506 0.0
H3184 H 0.7388 0.68036 0.44078 0.0
H3185 H 0.74644 0.66224 0.43793 0.0
C3186 C 0.3438 0.05219 0.3604 0.0
C3187 C 0.33441 0.03826 0.37572 0.0
C3188 C 0.34659 0.06562 0.40063 0.0
C3189 C 0.35217 0.07915 0.38474 0.0
N3190 N 0.36873 0.08574 0.35324 0.0
N3191 N 0.32892 0.03145 0.41097 0.0
C3192 C 0.35473 0.07264 0.36566 0.0
C3193 C 0.33654 0.0449 0.39606 0.0
N3194 N 0.3413 0.04622 0.34071 0.0
N3195 N 0.35277 0.07264 0.41976 0.0
H3196 H 0.32335 0.0163 0.40852 0.0
H3197 H 0.32755 0.0352 0.42567 0.0
H3198 H 0.36267 0.08757 0.42293 0.0
H3199 H 0.35047 0.06364 0.43195 0.0
H3200 H 0.3462 0.05618 0.32903 0.0
H3201 H 0.33284 0.03148 0.33589 0.0
H3202 H 0.37235 0.08146 0.33978 0.0
H3203 H 0.37849 0.10034 0.35783 0.0
C3204 C 0.95823 0.28155 0.38592 0.0
C3205 C 0.96138 0.28864 0.36612 0.0
C3206 C 0.92575 0.27387 0.36144 0.0
C3207 C 0.92251 0.26244 0.37888 0.0
N3208 N 0.93688 0.25636 0.40854 0.0
N3209 N 0.94755 0.28962 0.33395 0.0
C3210 C 0.93908 0.26666 0.39148 0.0
C3211 C 0.945 0.28442 0.35359 0.0
N3212 N 0.9734 0.28958 0.39969 0.0
N3213 N 0.91079 0.27556 0.35286 0.0
H3214 H 0.9613 0.29679 0.32729 0.0
H3215 H 0.93578 0.28501 0.32383 0.0
H3216 H 0.89716 0.27039 0.35955 0.0
H3217 H 0.91293 0.2848 0.3409 0.0
H3218 H 0.97152 0.28645 0.41488 0.0
H3219 H 0.98743 0.30112 0.39641 0.0
H3220 H 0.94874 0.25697 0.41635 0.0
H3221 H 0.92338 0.24637 0.41449 0.0
C3222 C 0.0107 0.38583 0.29344 0.0
C3223 C 0.01028 0.38094 0.31391 0.0
C3224 C 0.992 0.39809 0.32168 0.0
C3225 C 0.99659 0.40674 0.30254 0.0
N3226 N 0.99769 0.39816 0.26793 0.0
N3227 N 0.00075 0.38276 0.34791 0.0
C3228 C 0.00234 0.39757 0.28756 0.0
C3229 C 0.0006 0.38678 0.32808 0.0
N3230 N 0.01919 0.3794 0.27965 0.0
N3231 N 0.97842 0.39958 0.33313 0.0
H3232 H 0.00718 0.37485 0.35346 0.0
H3233 H 0.99594 0.38876 0.3591 0.0
H3234 H 0.97064 0.40634 0.32799 0.0
H3235 H 0.97314 0.39206 0.34643 0.0
H3236 H 0.02229 0.38465 0.26513 0.0
H3237 H 0.02397 0.36943 0.28299 0.0
H3238 H 1.0002 0.39059 0.25636 0.0
H3239 H 0.98856 0.40369 0.26363 0.0
C3240 C 0.62869 0.61237 0.32212 0.0
C3241 C 0.62978 0.62805 0.3106 0.0
C3242 C 0.61253 0.60434 0.28269 0.0
C3243 C 0.60829 0.58857 0.29577 0.0
N3244 N 0.6244 0.57946 0.32083 0.0
N3245 N 0.62487 0.63949 0.27881 0.0
C3246 C 0.62011 0.59309 0.31337 0.0
C3247 C 0.6224 0.6242 0.29048 0.0
N3248 N 0.63456 0.6154 0.34182 0.0
N3249 N 0.60924 0.6005 0.26256 0.0
H3250 H 0.63393 0.65434 0.28304 0.0
H3251 H 0.6175 0.63748 0.26518 0.0
H3252 H 0.60514 0.5866 0.25623 0.0
H3253 H 0.61319 0.61138 0.25191 0.0
H3254 H 0.63208 0.60383 0.35117 0.0
H3255 H 0.64005 0.62898 0.3494 0.0
H3256 H 0.63434 0.58262 0.33269 0.0
H3257 H 0.62009 0.566 0.31334 0.0
C3258 C 0.37333 0.99746 0.30397 0.0
C3259 C 0.36627 0.98226 0.31828 0.0
C3260 C 0.39456 0.97769 0.31243 0.0
C3261 C 0.39976 0.99046 0.29588 0.0
N3262 N 0.40099 0.02016 0.2842 0.0
N3263 N 0.3723 0.96066 0.33905 0.0
C3264 C 0.39135 0.00287 0.29426 0.0
C3265 C 0.37761 0.97335 0.32346 0.0
N3266 N 0.36228 0.00583 0.29862 0.0
N3267 N 0.40591 0.96999 0.31856 0.0
H3268 H 0.36046 0.95767 0.34823 0.0
H3269 H 0.3801 0.95355 0.343 0.0
H3270 H 0.41958 0.97377 0.31256 0.0
H3271 H 0.41958 0.97377 0.31256 0.0
H3272 H 0.36565 0.01523 0.28656 0.0
H3273 H 0.34893 0.00227 0.30521 0.0
H3274 H 0.39638 0.0306 0.28394 0.0
H3275 H 0.41492 0.02517 0.27828 0.0
C3276 C 0.59863 0.94745 0.28418 0.0
C3277 C 0.61136 0.96417 0.30554 0.0
C3278 C 0.58061 0.97921 0.30656 0.0
C3279 C 0.5717 0.96606 0.28181 0.0
N3280 N 0.56715 0.93454 0.2571 0.0
N3281 N 0.61072 0.98995 0.33412 0.0
C3282 C 0.57702 0.94652 0.27294 0.0
C3283 C 0.60217 0.97935 0.31711 0.0
N3284 N 0.60551 0.93603 0.27627 0.0
N3285 N 0.57288 0.98974 0.31468 0.0
H3286 H 0.62258 0.98973 0.34097 0.0
H3287 H 0.60548 0.9985 0.34097 0.0
H3288 H 0.56103 0.98983 0.30753 0.0
H3289 H 0.57842 0.99777 0.3281 0.0
H3290 H 0.59835 0.92646 0.2641 0.0
H3291 H 0.61857 0.93707 0.28144 0.0
H3292 H 0.57071 0.9242 0.25143 0.0
H3293 H 0.55556 0.93546 0.25041 0.0
C3294 C 0.99413 0.6254 0.2918 0.0
C3295 C 0.01158 0.63386 0.30368 0.0
C3296 C 0.00869 0.60124 0.30617 0.0
C3297 C 0.98903 0.59206 0.29817 0.0
N3298 N 0.9628 0.59658 0.2838 0.0
N3299 N 0.03424 0.62946 0.32468 0.0
C3300 C 0.98173 0.60446 0.29088 0.0
C3301 C 0.01861 0.62172 0.31146 0.0
N3302 N 0.98959 0.63739 0.28101 0.0
N3303 N 0.01839 0.59082 0.30819 0.0
H3304 H 0.04186 0.64435 0.3292 0.0
H3305 H 0.0384 0.6207 0.33263 0.0
H3306 H 0.0129 0.5763 0.30308 0.0
H3307 H 0.03324 0.59753 0.31235 0.0
H3308 H 0.97824 0.63202 0.27029 0.0
H3309 H 0.99845 0.65279 0.2812 0.0
H3310 H 0.95622 0.60514 0.28122 0.0
H3311 H 0.95295 0.58156 0.2817 0.0
C3312 C 0.3725 0.37473 0.2976 0.0
C3313 C 0.37242 0.37432 0.31884 0.0
C3314 C 0.40763 0.38492 0.31966 0.0
C3315 C 0.40839 0.38739 0.29848 0.0
N3316 N 0.38996 0.37812 0.26688 0.0
N3317 N 0.3901 0.38181 0.35035 0.0
C3318 C 0.39038 0.38054 0.28729 0.0
C3319 C 0.38999 0.38004 0.32992 0.0
N3320 N 0.35544 0.36973 0.28722 0.0
N3321 N 0.4233 0.38593 0.32994 0.0
H3322 H 0.37754 0.37849 0.35846 0.0
H3323 H 0.40294 0.38837 0.35914 0.0
H3324 H 0.43619 0.38819 0.32324 0.0
H3325 H 0.42271 0.38208 0.34487 0.0
H3326 H 0.35491 0.3728 0.2722 0.0
H3327 H 0.34166 0.36336 0.29382 0.0
H3328 H 0.37709 0.37099 0.25821 0.0
H3329 H 0.40217 0.38128 0.25835 0.0
C3330 C 0.32915 0.27174 0.36881 0.0
C3331 C 0.33598 0.29153 0.37524 0.0
C3332 C 0.36591 0.29348 0.38937 0.0
C3333 C 0.35875 0.27319 0.38352 0.0
N3334 N 0.32952 0.24159 0.37491 0.0
N3335 N 0.35784 0.31919 0.39667 0.0
C3336 C 0.33914 0.26184 0.37549 0.0
C3337 C 0.35344 0.30177 0.38707 0.0
N3338 N 0.31353 0.26251 0.35565 0.0
N3339 N 0.38475 0.30525 0.39653 0.0
H3340 H 0.34895 0.32562 0.39555 0.0
H3341 H 0.36914 0.3262 0.40736 0.0
H3342 H 0.39451 0.30029 0.39983 0.0
H3343 H 0.39131 0.32059 0.39803 0.0
H3344 H 0.30943 0.24888 0.3487 0.0
H3345 H 0.3059 0.26928 0.35014 0.0
H3346 H 0.31471 0.23297 0.37071 0.0
H3347 H 0.33501 0.2332 0.38127 0.0
C3348 C 0.7211 0.0493 0.36202 0.0
C3349 C 0.70277 0.03336 0.36796 0.0
C3350 C 0.69735 0.05623 0.38921 0.0
C3351 C 0.71479 0.07249 0.38159 0.0
N3352 N 0.7474 0.08261 0.36949 0.0
N3353 N 0.67301 0.02121 0.38693 0.0
C3354 C 0.72793 0.06852 0.37051 0.0
C3355 C 0.69078 0.0367 0.3815 0.0
N3356 N 0.73162 0.04633 0.34748 0.0
N3357 N 0.68808 0.05916 0.40508 0.0
H3358 H 0.66843 0.00647 0.38324 0.0
H3359 H 0.66226 0.02298 0.3942 0.0
H3360 H 0.69333 0.07276 0.4125 0.0
H3361 H 0.67651 0.04777 0.41261 0.0
H3362 H 0.74391 0.05786 0.34088 0.0
H3363 H 0.72702 0.03256 0.34057 0.0
H3364 H 0.75796 0.07992 0.36312 0.0
H3365 H 0.75361 0.09602 0.37755 0.0
C3366 C 0.94752 0.65684 0.35044 0.0
C3367 C 0.96494 0.66928 0.36168 0.0
C3368 C 0.94679 0.65796 0.39307 0.0
C3369 C 0.92888 0.64644 0.38173 0.0
N3370 N 0.91426 0.62918 0.35016 0.0
N3371 N 0.98164 0.6825 0.39344 0.0
C3372 C 0.92983 0.64418 0.36056 0.0
C3373 C 0.9647 0.67 0.38292 0.0
N3374 N 0.94758 0.65788 0.33001 0.0
N3375 N 0.94707 0.65639 0.41346 0.0
H3376 H 0.99545 0.69 0.38691 0.0
H3377 H 0.98204 0.68636 0.4085 0.0
H3378 H 0.9348 0.64742 0.42185 0.0
H3379 H 0.95988 0.66244 0.42222 0.0
H3380 H 0.93483 0.6512 0.32109 0.0
H3381 H 0.96019 0.66695 0.32199 0.0
H3382 H 0.91498 0.62552 0.33524 0.0
H3383 H 0.90131 0.61871 0.35676 0.0
C3384 C 0.40801 0.02541 0.70056 0.0
C3385 C 0.38113 0.0114 0.70159 0.0
C3386 C 0.38134 0.97304 0.71592 0.0
C3387 C 0.40833 0.98957 0.71994 0.0
N3388 N 0.44224 0.0235 0.70703 0.0
N3389 N 0.34794 0.97516 0.70841 0.0
C3390 C 0.42241 0.01407 0.70795 0.0
C3391 C 0.36785 0.98532 0.70839 0.0
N3392 N 0.41726 0.04397 0.69346 0.0
N3393 N 0.37232 0.95394 0.72134 0.0
H3394 H 0.3397 0.98192 0.70517 0.0
H3395 H 0.34026 0.96032 0.7123 0.0
H3396 H 0.3807 0.94795 0.72677 0.0
H3397 H 0.35708 0.94489 0.72007 0.0
H3398 H 0.43256 0.05208 0.69273 0.0
H3399 H 0.40939 0.05052 0.6881 0.0
H3400 H 0.45019 0.03756 0.70105 0.0
H3401 H 0.44986 0.01662 0.71227 0.0
C3402 C 0.99371 0.38585 0.69069 0.0
C3403 C 0.98576 0.37031 0.70462 0.0
C3404 C 0.99091 0.39436 0.73155 0.0
C3405 C 0.99466 0.40876 0.7169 0.0
N3406 N 0.01181 0.42129 0.68606 0.0
N3407 N 0.97808 0.35972 0.73875 0.0
C3408 C 0.9999 0.40551 0.69748 0.0
C3409 C 0.98485 0.37457 0.72523 0.0
N3410 N 0.99413 0.38176 0.67077 0.0
N3411 N 0.99537 0.40008 0.75123 0.0
H3412 H 0.97506 0.34539 0.73505 0.0
H3413 H 0.97462 0.3614 0.75342 0.0
H3414 H 0.00311 0.41498 0.75574 0.0
H3415 H 0.99428 0.39056 0.76252 0.0
H3416 H 0.99753 0.39222 0.65973 0.0
H3417 H 0.98956 0.36757 0.66501 0.0
H3418 H 0.01763 0.41993 0.67254 0.0
H3419 H 0.01781 0.43588 0.69133 0.0
C3420 C 0.61266 0.61771 0.69447 0.0
C3421 C 0.63036 0.62331 0.70531 0.0
C3422 C 0.61128 0.60264 0.7331 0.0
C3423 C 0.59338 0.59715 0.72225 0.0
N3424 N 0.57834 0.6079 0.69723 0.0
N3425 N 0.64594 0.62676 0.73757 0.0
C3426 C 0.59441 0.60727 0.70435 0.0
C3427 C 0.6295 0.61749 0.72544 0.0
N3428 N 0.61302 0.62154 0.67455 0.0
N3429 N 0.61121 0.59363 0.75051 0.0
H3430 H 0.65934 0.63833 0.73278 0.0
H3431 H 0.64571 0.6246 0.75294 0.0
H3432 H 0.59856 0.58391 0.75801 0.0
H3433 H 0.62398 0.59509 0.7571 0.0
H3434 H 0.60025 0.61593 0.66568 0.0
H3435 H 0.62596 0.62853 0.66644 0.0
H3436 H 0.57893 0.61622 0.68493 0.0
H3437 H 0.56546 0.60291 0.70533 0.0
C3438 C 0.65084 0.71156 0.66134 0.0
C3439 C 0.66338 0.70956 0.64738 0.0
C3440 C 0.65257 0.72446 0.62163 0.0
C3441 C 0.64333 0.72984 0.63676 0.0
N3442 N 0.62237 0.71555 0.665 0.0
N3443 N 0.6743 0.71167 0.61329 0.0
C3444 C 0.63892 0.71942 0.65489 0.0
C3445 C 0.66359 0.71519 0.62716 0.0
N3446 N 0.6511 0.7072 0.68103 0.0
N3447 N 0.64898 0.72629 0.60195 0.0
H3448 H 0.68066 0.70294 0.61608 0.0
H3449 H 0.67735 0.71785 0.59916 0.0
H3450 H 0.63858 0.73021 0.59758 0.0
H3451 H 0.65407 0.72143 0.59001 0.0
H3452 H 0.6436 0.71041 0.69196 0.0
H3453 H 0.66018 0.70219 0.68683 0.0
H3454 H 0.61762 0.70663 0.67751 0.0
H3455 H 0.61201 0.71886 0.65904 0.0
C3456 C 0.29466 0.95178 0.66296 0.0
C3457 C 0.29506 0.9656 0.64908 0.0
C3458 C 0.27837 0.93858 0.62394 0.0
C3459 C 0.27498 0.92474 0.63912 0.0
N3460 N 0.29238 0.91993 0.66633 0.0
N3461 N 0.28936 0.97265 0.61536 0.0
C3462 C 0.28698 0.9318 0.65666 0.0
C3463 C 0.2876 0.95916 0.6292 0.0
N3464 N 0.30035 0.95723 0.68252 0.0
N3465 N 0.27479 0.93226 0.60435 0.0
H3466 H 0.29792 0.98791 0.61785 0.0
H3467 H 0.2819 0.96876 0.6016 0.0
H3468 H 0.271 0.91784 0.6 0.0
H3469 H 0.27811 0.94162 0.5923 0.0
H3470 H 0.2985 0.94703 0.6934 0.0
H3471 H 0.30492 0.97138 0.68839 0.0
H3472 H 0.30243 0.92494 0.67834 0.0
H3473 H 0.28901 0.90608 0.66041 0.0
C3474 C 0.05491 0.32659 0.65673 0.0
C3475 C 0.04062 0.33086 0.64887 0.0
C3476 C 0.06321 0.34982 0.62215 0.0
C3477 C 0.07853 0.34801 0.63173 0.0
N3478 N 0.08571 0.3279 0.65421 0.0
N3479 N 0.03115 0.34726 0.62454 0.0
C3480 C 0.07351 0.33448 0.64771 0.0
C3481 C 0.0448 0.34276 0.63176 0.0
N3482 N 0.05095 0.3151 0.67321 0.0
N3483 N 0.06553 0.35647 0.60299 0.0
H3484 H 0.017 0.34133 0.6302 0.0
H3485 H 0.03429 0.35792 0.61381 0.0
H3486 H 0.07756 0.35901 0.59434 0.0
H3487 H 0.05437 0.35664 0.59458 0.0
H3488 H 0.06114 0.31172 0.67946 0.0
H3489 H 0.03783 0.30955 0.68103 0.0
H3490 H 0.09896 0.33114 0.64759 0.0
H3491 H 0.09896 0.33114 0.64759 0.0
C3492 C 0.29279 0.33817 0.61286 0.0
C3493 C 0.29378 0.33628 0.63381 0.0
C3494 C 0.28768 0.36393 0.63954 0.0
C3495 C 0.28649 0.36577 0.61832 0.0
N3496 N 0.27952 0.34845 0.586 0.0
N3497 N 0.28651 0.34324 0.66689 0.0
C3498 C 0.28636 0.35095 0.60534 0.0
C3499 C 0.28942 0.34787 0.64708 0.0
N3500 N 0.29893 0.32857 0.60001 0.0
N3501 N 0.28788 0.37773 0.65263 0.0
H3502 H 0.28754 0.33148 0.67283 0.0
H3503 H 0.28115 0.34969 0.67696 0.0
H3504 H 0.28539 0.3891 0.64856 0.0
H3505 H 0.29172 0.37861 0.66773 0.0
H3506 H 0.3007 0.33137 0.58474 0.0
H3507 H 0.30408 0.31926 0.60476 0.0
H3508 H 0.27773 0.33674 0.57671 0.0
H3509 H 0.27295 0.35601 0.57997 0.0
C3510 C 0.65546 0.96679 0.62481 0.0
C3511 C 0.67129 0.97094 0.63822 0.0
C3512 C 0.6632 0.93626 0.63571 0.0
C3513 C 0.64552 0.93137 0.62501 0.0
N3514 N 0.62978 0.94325 0.60217 0.0
N3515 N 0.68898 0.95932 0.65842 0.0
C3516 C 0.64298 0.94701 0.61748 0.0
C3517 C 0.67495 0.95564 0.64405 0.0
N3518 N 0.6522 0.98176 0.61928 0.0
N3519 N 0.66961 0.92286 0.63665 0.0
H3520 H 0.69774 0.97322 0.66524 0.0
H3521 H 0.69062 0.94817 0.66498 0.0
H3522 H 0.66274 0.90932 0.62882 0.0
H3523 H 0.68327 0.92627 0.64271 0.0
H3524 H 0.63935 0.97947 0.61213 0.0
H3525 H 0.66199 0.99666 0.62267 0.0
H3526 H 0.62853 0.95416 0.59465 0.0
H3527 H 0.62136 0.92938 0.59527 0.0
C3528 C 0.03382 0.69924 0.62807 0.0
C3529 C 0.03125 0.7104 0.64357 0.0
C3530 C 0.0662 0.73566 0.64214 0.0
C3531 C 0.06939 0.72315 0.62877 0.0
N3532 N 0.05462 0.69859 0.60189 0.0
N3533 N 0.04501 0.73836 0.66671 0.0
C3534 C 0.05274 0.70644 0.61965 0.0
C3535 C 0.0474 0.72849 0.65083 0.0
N3536 N 0.01821 0.68158 0.62151 0.0
N3537 N 0.08061 0.75496 0.64522 0.0
H3538 H 0.03148 0.73359 0.67352 0.0
H3539 H 0.05671 0.75029 0.67427 0.0
H3540 H 0.09368 0.76151 0.63728 0.0
H3541 H 0.07854 0.76526 0.65341 0.0
H3542 H 0.0197 0.67139 0.61248 0.0
H3543 H 0.00378 0.67644 0.62604 0.0
H3544 H 0.04276 0.6877 0.59354 0.0
H3545 H 0.06767 0.70462 0.594 0.0
C3546 C 0.99642 0.63621 0.72384 0.0
C3547 C 0.98786 0.62862 0.70465 0.0
C3548 C 0.99311 0.60037 0.70869 0.0
C3549 C 0.00381 0.6092 0.72687 0.0
N3550 N 0.00596 0.62938 0.75583 0.0
N3551 N 0.97917 0.60453 0.67779 0.0
C3552 C 0.00277 0.62543 0.7357 0.0
C3553 C 0.98638 0.61091 0.69684 0.0
N3554 N 0.99877 0.65392 0.73069 0.0
N3555 N 0.98779 0.58123 0.70368 0.0
H3556 H 0.97391 0.61179 0.66881 0.0
H3557 H 0.97988 0.59308 0.67029 0.0
H3558 H 0.99016 0.57211 0.71318 0.0
H3559 H 0.97862 0.57341 0.69152 0.0
H3560 H 0.00723 0.66147 0.74336 0.0
H3561 H 0.99357 0.66191 0.72289 0.0
H3562 H 0.00355 0.63977 0.76337 0.0
H3563 H 0.00838 0.62052 0.7656 0.0
C3564 C 0.38761 0.39173 0.69334 0.0
C3565 C 0.37103 0.37477 0.70084 0.0
C3566 C 0.37284 0.39323 0.73162 0.0
C3567 C 0.38758 0.41099 0.72294 0.0
N3568 N 0.41511 0.4246 0.70054 0.0
N3569 N 0.34676 0.35925 0.72637 0.0
C3570 C 0.39679 0.40957 0.70517 0.0
C3571 C 0.36338 0.37546 0.7198 0.0
N3572 N 0.39415 0.39099 0.6746 0.0
N3573 N 0.36911 0.39285 0.75162 0.0
H3574 H 0.33979 0.34567 0.71856 0.0
H3575 H 0.339 0.35967 0.73879 0.0
H3576 H 0.37718 0.40488 0.76136 0.0
H3577 H 0.3599 0.37993 0.75913 0.0
H3578 H 0.4046 0.40344 0.66723 0.0
H3579 H 0.388 0.37806 0.66571 0.0
H3580 H 0.42331 0.42381 0.68874 0.0
H3581 H 0.42339 0.43679 0.7101 0.0
C3582 C 0.64171 0.02588 0.72423 0.0
C3583 C 0.64105 0.02396 0.70304 0.0
C3584 C 0.60513 0.00957 0.70309 0.0
C3585 C 0.60558 0.00929 0.7244 0.0
N3586 N 0.6249 0.02632 0.75419 0.0
N3587 N 0.62239 0.01341 0.67198 0.0
C3588 C 0.62406 0.02017 0.73473 0.0
C3589 C 0.62283 0.01567 0.69236 0.0
N3590 N 0.65909 0.03214 0.73449 0.0
N3591 N 0.58821 0.00582 0.69322 0.0
H3592 H 0.63509 0.01879 0.66348 0.0
H3593 H 0.60947 0.00513 0.66356 0.0
H3594 H 0.57576 0.00397 0.70063 0.0
H3595 H 0.58726 0.00728 0.67785 0.0
H3596 H 0.66001 0.03137 0.74999 0.0
H3597 H 0.67241 0.03639 0.72746 0.0
H3598 H 0.63802 0.03599 0.76174 0.0
H3599 H 0.61255 0.02395 0.7621 0.0
loop_
_geom_bond_atom_site_label_1
_geom_bond_atom_site_label_2
_geom_bond_distance
_geom_bond_site_symmetry_2
_ccdc_geom_bond_type
O0 Cd1 2.223 . S
O0 C8 1.315 . S
Cd1 O0 2.223 . S
Cd1 O4 2.297 . S
Cd1 O5 2.439 . S
Cd1 O11 2.240 1_554 S
Cd2 O3 2.240 . S
Cd2 O10 2.223 1_554 S
Cd2 O12 2.297 1_554 S
Cd2 O13 2.439 1_554 S
O3 Cd2 2.240 . S
O3 C8 1.279 1_655 S
O4 Cd1 2.297 . S
O4 C6 1.247 . S
O5 Cd1 2.439 . S
O5 C6 1.208 . S
C6 O4 1.247 . S
C6 O5 1.208 . S
C7 O12 1.247 . S
C7 O13 1.208 . S
C8 O0 1.315 . S
C8 O3 1.279 1_455 S
C9 O10 1.315 1_455 S
C9 O11 1.279 . S
O10 Cd2 2.223 1_556 S
O10 C9 1.315 1_655 S
O11 Cd1 2.240 1_556 S
O11 C9 1.279 . S
O12 Cd2 2.297 1_556 S
O12 C7 1.247 . S
O13 Cd2 2.439 1_556 S
O13 C7 1.208 . S
O14 Cd15 2.223 . S
O14 C22 1.315 . S
Cd15 O14 2.223 . S
Cd15 O18 2.297 . S
Cd15 O19 2.439 . S
Cd15 O25 2.240 1_554 S
Cd16 O17 2.240 . S
Cd16 O24 2.223 1_554 S
Cd16 O26 2.297 1_554 S
Cd16 O27 2.439 1_554 S
O17 Cd16 2.240 . S
O17 C22 1.279 . S
O18 Cd15 2.297 . S
O18 C20 1.247 . S
O19 Cd15 2.439 . S
O19 C20 1.208 . S
C20 O18 1.247 . S
C20 O19 1.208 . S
C21 O26 1.247 . S
C21 O27 1.208 . S
C22 O14 1.315 . S
C22 O17 1.279 . S
C23 O24 1.315 . S
C23 O25 1.279 . S
O24 Cd16 2.223 1_556 S
O24 C23 1.315 . S
O25 Cd15 2.240 1_556 S
O25 C23 1.279 . S
O26 Cd16 2.297 1_556 S
O26 C21 1.247 . S
O27 Cd16 2.439 1_556 S
O27 C21 1.208 . S
O28 Cd29 2.223 1_556 S
O28 C36 1.315 . S
Cd29 O28 2.223 1_554 S
Cd29 O32 2.297 1_554 S
Cd29 O33 2.439 1_554 S
Cd29 O39 2.240 . S
Cd30 O31 2.240 1_554 S
Cd30 O38 2.223 . S
Cd30 O40 2.297 . S
Cd30 O41 2.439 . S
O31 Cd30 2.240 1_556 S
O31 C36 1.279 1_565 S
O32 Cd29 2.297 1_556 S
O32 C34 1.247 . S
O33 Cd29 2.439 1_556 S
O33 C34 1.208 . S
C34 O32 1.247 . S
C34 O33 1.208 . S
C35 O40 1.247 . S
C35 O41 1.208 . S
C36 O28 1.315 . S
C36 O31 1.279 1_545 S
C37 O38 1.315 1_545 S
C37 O39 1.279 . S
O38 Cd30 2.223 . S
O38 C37 1.315 1_565 S
O39 Cd29 2.240 . S
O39 C37 1.279 . S
O40 Cd30 2.297 . S
O40 C35 1.247 . S
O41 Cd30 2.439 . S
O41 C35 1.208 . S
O42 Cd43 2.223 1_556 S
O42 C50 1.349 . S
Cd43 O42 2.223 1_554 S
Cd43 O46 2.297 1_554 S
Cd43 O47 2.439 1_554 S
Cd43 O53 2.240 . S
Cd44 O45 2.240 1_554 S
Cd44 O52 2.223 . S
Cd44 O54 2.297 . S
Cd44 O55 2.439 . S
O45 Cd44 2.240 1_556 S
O45 C50 1.281 1_455 S
O46 Cd43 2.297 1_556 S
O46 C48 1.247 . S
O47 Cd43 2.439 1_556 S
O47 C48 1.208 . S
C48 O46 1.247 . S
C48 O47 1.208 . S
C49 O54 1.247 . S
C49 O55 1.208 . S
C50 O42 1.349 . S
C50 O45 1.281 1_655 S
C51 O52 1.369 . S
C51 O53 1.230 1_455 S
O52 Cd44 2.223 . S
O52 C51 1.369 . S
O53 Cd43 2.240 . S
O53 C51 1.230 1_655 S
O54 Cd44 2.297 . S
O54 C49 1.247 . S
O55 Cd44 2.439 . S
O55 C49 1.208 . S
O56 Cd57 2.223 . S
O56 C64 1.315 . S
Cd57 O56 2.223 . S
Cd57 O60 2.297 . S
Cd57 O61 2.439 . S
Cd57 O67 2.240 1_556 S
Cd58 O59 2.240 1_554 S
Cd58 O66 2.223 . S
Cd58 O68 2.297 . S
Cd58 O69 2.439 . S
O59 Cd58 2.240 1_556 S
O59 C64 1.279 . S
O60 Cd57 2.297 . S
O60 C62 1.247 . S
O61 Cd57 2.439 . S
O61 C62 1.208 . S
C62 O60 1.247 . S
C62 O61 1.208 . S
C63 O68 1.247 . S
C63 O69 1.208 . S
C64 O56 1.315 . S
C64 O59 1.279 . S
C65 O66 1.315 . S
C65 O67 1.279 . S
O66 Cd58 2.223 . S
O66 C65 1.315 . S
O67 Cd57 2.240 1_554 S
O67 C65 1.279 . S
O68 Cd58 2.297 . S
O68 C63 1.247 . S
O69 Cd58 2.439 . S
O69 C63 1.208 . S
O70 Cd71 2.223 . S
O70 C78 1.320 1_565 S
Cd71 O70 2.223 . S
Cd71 O74 2.297 . S
Cd71 O75 2.439 . S
Cd71 O81 2.240 1_554 S
Cd72 O73 2.240 . S
Cd72 O80 2.223 1_554 S
Cd72 O82 2.297 1_554 S
Cd72 O83 2.439 1_554 S
O73 Cd72 2.240 . S
O73 C78 1.279 . S
O74 Cd71 2.297 . S
O74 C76 1.247 . S
O75 Cd71 2.439 . S
O75 C76 1.208 . S
C76 O74 1.247 . S
C76 O75 1.208 . S
C77 O82 1.247 . S
C77 O83 1.208 . S
C78 O70 1.320 1_545 S
C78 O73 1.279 . S
C79 O80 1.352 . S
C79 O81 1.245 1_545 S
O80 Cd72 2.223 1_556 S
O80 C79 1.352 . S
O81 Cd71 2.240 1_556 S
O81 C79 1.245 1_565 S
O82 Cd72 2.297 1_556 S
O82 C77 1.247 . S
O83 Cd72 2.439 1_556 S
O83 C77 1.208 . S
O84 Cd85 2.223 . S
O84 C92 1.315 . S
Cd85 O84 2.223 . S
Cd85 O88 2.297 . S
Cd85 O89 2.439 . S
Cd85 O95 2.240 . S
Cd86 O87 2.240 . S
Cd86 O94 2.223 . S
Cd86 O96 2.297 . S
Cd86 O97 2.439 . S
O87 Cd86 2.240 . S
O87 C92 1.279 . S
O88 Cd85 2.297 . S
O88 C90 1.247 . S
O89 Cd85 2.439 . S
O89 C90 1.208 . S
C90 O88 1.247 . S
C90 O89 1.208 . S
C91 O96 1.247 . S
C91 O97 1.208 . S
C92 O84 1.315 . S
C92 O87 1.279 . S
C93 O94 1.315 . S
C93 O95 1.279 . S
O94 Cd86 2.223 . S
O94 C93 1.315 . S
O95 Cd85 2.240 . S
O95 C93 1.279 . S
O96 Cd86 2.297 . S
O96 C91 1.247 . S
O97 Cd86 2.439 . S
O97 C91 1.208 . S
O98 Cd99 2.223 . S
O98 C106 1.315 . S
Cd99 O98 2.223 . S
Cd99 O102 2.297 1_565 S
Cd99 O103 2.439 1_565 S
Cd99 O109 2.240 . S
Cd100 O101 2.240 . S
Cd100 O108 2.223 . S
Cd100 O110 2.297 . S
Cd100 O111 2.439 . S
O101 Cd100 2.240 . S
O101 C106 1.279 . S
O102 Cd99 2.297 1_545 S
O102 C104 1.247 . S
O103 Cd99 2.439 1_545 S
O103 C104 1.208 . S
C104 O102 1.247 . S
C104 O103 1.208 . S
C105 O110 1.247 . S
C105 O111 1.208 . S
C106 O98 1.315 . S
C106 O101 1.279 . S
C107 O108 1.315 . S
C107 O109 1.279 . S
O108 Cd100 2.223 . S
O108 C107 1.315 . S
O109 Cd99 2.240 . S
O109 C107 1.279 . S
O110 Cd100 2.297 . S
O110 C105 1.247 . S
O111 Cd100 2.439 . S
O111 C105 1.208 . S
O112 Cd113 2.223 . S
O112 C120 1.315 . S
Cd113 O112 2.223 . S
Cd113 O116 2.297 . S
Cd113 O117 2.439 . S
Cd113 O123 2.240 . S
Cd114 O115 2.240 . S
Cd114 O122 2.223 . S
Cd114 O124 2.297 1_455 S
Cd114 O125 2.439 1_455 S
O115 Cd114 2.240 . S
O115 C120 1.279 . S
O116 Cd113 2.297 . S
O116 C118 1.247 . S
O117 Cd113 2.439 . S
O117 C118 1.208 . S
C118 O116 1.247 . S
C118 O117 1.208 . S
C119 O124 1.247 . S
C119 O125 1.208 . S
C120 O112 1.315 . S
C120 O115 1.279 . S
C121 O122 1.315 . S
C121 O123 1.279 . S
O122 Cd114 2.223 . S
O122 C121 1.315 . S
O123 Cd113 2.240 . S
O123 C121 1.279 . S
O124 Cd114 2.297 1_655 S
O124 C119 1.247 . S
O125 Cd114 2.439 1_655 S
O125 C119 1.208 . S
O126 Cd127 2.223 . S
O126 C134 1.315 . S
Cd127 O126 2.223 . S
Cd127 O130 2.297 . S
Cd127 O131 2.439 . S
Cd127 O137 2.240 . S
Cd128 O129 2.240 . S
Cd128 O136 2.223 . S
Cd128 O138 2.297 1_565 S
Cd128 O139 2.439 1_565 S
O129 Cd128 2.240 . S
O129 C134 1.279 . S
O130 Cd127 2.297 . S
O130 C132 1.247 . S
O131 Cd127 2.439 . S
O131 C132 1.208 . S
C132 O130 1.247 . S
C132 O131 1.208 . S
C133 O138 1.247 . S
C133 O139 1.208 . S
C134 O126 1.315 . S
C134 O129 1.279 . S
C135 O136 1.315 . S
C135 O137 1.279 . S
O136 Cd128 2.223 . S
O136 C135 1.315 . S
O137 Cd127 2.240 . S
O137 C135 1.279 . S
O138 Cd128 2.297 1_545 S
O138 C133 1.247 . S
O139 Cd128 2.439 1_545 S
O139 C133 1.208 . S
O140 Cd141 2.223 . S
O140 C148 1.315 . S
Cd141 O140 2.223 . S
Cd141 O144 2.297 . S
Cd141 O145 2.439 . S
Cd141 O151 2.240 . S
Cd142 O143 2.240 . S
Cd142 O150 2.223 . S
Cd142 O152 2.297 1_455 S
Cd142 O153 2.439 1_455 S
O143 Cd142 2.240 . S
O143 C148 1.279 . S
O144 Cd141 2.297 . S
O144 C146 1.247 . S
O145 Cd141 2.439 . S
O145 C146 1.208 . S
C146 O144 1.247 . S
C146 O145 1.208 . S
C147 O152 1.247 . S
C147 O153 1.208 . S
C148 O140 1.315 . S
C148 O143 1.279 . S
C149 O150 1.315 . S
C149 O151 1.279 . S
O150 Cd142 2.223 . S
O150 C149 1.315 . S
O151 Cd141 2.240 . S
O151 C149 1.279 . S
O152 Cd142 2.297 1_655 S
O152 C147 1.247 . S
O153 Cd142 2.439 1_655 S
O153 C147 1.208 . S
O154 Cd155 2.223 . S
O154 C162 1.315 . S
Cd155 O154 2.223 . S
Cd155 O158 2.297 . S
Cd155 O159 2.439 . S
Cd155 O165 2.240 . S
Cd156 O157 2.240 . S
Cd156 O164 2.223 . S
Cd156 O166 2.297 . S
Cd156 O167 2.439 . S
O157 Cd156 2.240 . S
O157 C162 1.279 . S
O158 Cd155 2.297 . S
O158 C160 1.247 . S
O159 Cd155 2.439 . S
O159 C160 1.208 . S
C160 O158 1.247 . S
C160 O159 1.208 . S
C161 O166 1.247 . S
C161 O167 1.208 . S
C162 O154 1.315 . S
C162 O157 1.279 . S
C163 O164 1.315 . S
C163 O165 1.279 . S
O164 Cd156 2.223 . S
O164 C163 1.315 . S
O165 Cd155 2.240 . S
O165 C163 1.279 . S
O166 Cd156 2.297 . S
O166 C161 1.247 . S
O167 Cd156 2.439 . S
O167 C161 1.208 . S
O168 Cd169 2.223 . S
O168 C176 1.315 . S
Cd169 O168 2.223 . S
Cd169 O172 2.297 . S
Cd169 O173 2.439 . S
Cd169 O179 2.240 . S
Cd170 O171 2.240 . S
Cd170 O178 2.223 . S
Cd170 O180 2.297 1_545 S
Cd170 O181 2.439 1_545 S
O171 Cd170 2.240 . S
O171 C176 1.279 . S
O172 Cd169 2.297 . S
O172 C174 1.247 . S
O173 Cd169 2.439 . S
O173 C174 1.208 . S
C174 O172 1.247 . S
C174 O173 1.208 . S
C175 O180 1.247 . S
C175 O181 1.208 . S
C176 O168 1.315 . S
C176 O171 1.279 . S
C177 O178 1.315 . S
C177 O179 1.279 . S
O178 Cd170 2.223 . S
O178 C177 1.315 . S
O179 Cd169 2.240 . S
O179 C177 1.279 . S
O180 Cd170 2.297 1_565 S
O180 C175 1.247 . S
O181 Cd170 2.439 1_565 S
O181 C175 1.208 . S
O182 Cd183 2.223 . S
O182 C190 1.315 . S
Cd183 O182 2.223 . S
Cd183 O186 2.297 . S
Cd183 O187 2.439 . S
Cd183 O193 2.240 . S
Cd184 O185 2.240 . S
Cd184 O192 2.223 . S
Cd184 O194 2.297 1_655 S
Cd184 O195 2.439 1_655 S
O185 Cd184 2.240 . S
O185 C190 1.279 . S
O186 Cd183 2.297 . S
O186 C188 1.247 . S
O187 Cd183 2.439 . S
O187 C188 1.208 . S
C188 O186 1.247 . S
C188 O187 1.208 . S
C189 O194 1.247 . S
C189 O195 1.208 . S
C190 O182 1.315 . S
C190 O185 1.279 . S
C191 O192 1.315 . S
C191 O193 1.279 . S
O192 Cd184 2.223 . S
O192 C191 1.315 . S
O193 Cd183 2.240 . S
O193 C191 1.279 . S
O194 Cd184 2.297 1_455 S
O194 C189 1.247 . S
O195 Cd184 2.439 1_455 S
O195 C189 1.208 . S
O196 Cd197 2.223 . S
O196 C204 1.315 . S
Cd197 O196 2.223 . S
Cd197 O200 2.297 . S
Cd197 O201 2.439 . S
Cd197 O207 2.240 . S
Cd198 O199 2.240 . S
Cd198 O206 2.223 . S
Cd198 O208 2.297 . S
Cd198 O209 2.439 . S
O199 Cd198 2.240 . S
O199 C204 1.279 . S
O200 Cd197 2.297 . S
O200 C202 1.247 . S
O201 Cd197 2.439 . S
O201 C202 1.208 . S
C202 O200 1.247 . S
C202 O201 1.208 . S
C203 O208 1.247 . S
C203 O209 1.208 . S
C204 O196 1.315 . S
C204 O199 1.279 . S
C205 O206 1.315 . S
C205 O207 1.279 . S
O206 Cd198 2.223 . S
O206 C205 1.315 . S
O207 Cd197 2.240 . S
O207 C205 1.279 . S
O208 Cd198 2.297 . S
O208 C203 1.247 . S
O209 Cd198 2.439 . S
O209 C203 1.208 . S
O210 Cd211 2.223 . S
O210 C218 1.315 . S
Cd211 O210 2.223 . S
Cd211 O214 2.297 . S
Cd211 O215 2.439 . S
Cd211 O221 2.240 . S
Cd212 O213 2.240 . S
Cd212 O220 2.223 . S
Cd212 O222 2.297 . S
Cd212 O223 2.439 . S
O213 Cd212 2.240 . S
O213 C218 1.279 . S
O214 Cd211 2.297 . S
O214 C216 1.247 . S
O215 Cd211 2.439 . S
O215 C216 1.208 . S
C216 O214 1.247 . S
C216 O215 1.208 . S
C217 O222 1.247 . S
C217 O223 1.208 . S
C218 O210 1.315 . S
C218 O213 1.279 . S
C219 O220 1.315 . S
C219 O221 1.279 . S
O220 Cd212 2.223 . S
O220 C219 1.315 . S
O221 Cd211 2.240 . S
O221 C219 1.279 . S
O222 Cd212 2.297 . S
O222 C217 1.247 . S
O223 Cd212 2.439 . S
O223 C217 1.208 . S
O224 Cd225 2.223 . S
O224 C232 1.315 . S
Cd225 O224 2.223 . S
Cd225 O228 2.297 1_545 S
Cd225 O229 2.439 1_545 S
Cd225 O235 2.240 . S
Cd226 O227 2.240 . S
Cd226 O234 2.223 . S
Cd226 O236 2.297 . S
Cd226 O237 2.439 . S
O227 Cd226 2.240 . S
O227 C232 1.279 . S
O228 Cd225 2.297 1_565 S
O228 C230 1.247 . S
O229 Cd225 2.439 1_565 S
O229 C230 1.208 . S
C230 O228 1.247 . S
C230 O229 1.208 . S
C231 O236 1.247 . S
C231 O237 1.208 . S
C232 O224 1.315 . S
C232 O227 1.279 . S
C233 O234 1.315 . S
C233 O235 1.279 . S
O234 Cd226 2.223 . S
O234 C233 1.315 . S
O235 Cd225 2.240 . S
O235 C233 1.279 . S
O236 Cd226 2.297 . S
O236 C231 1.247 . S
O237 Cd226 2.439 . S
O237 C231 1.208 . S
O238 Cd239 2.223 . S
O238 C246 1.315 . S
Cd239 O238 2.223 . S
Cd239 O242 2.297 . S
Cd239 O243 2.439 . S
Cd239 O249 2.240 . S
Cd240 O241 2.240 . S
Cd240 O248 2.223 . S
Cd240 O250 2.297 1_655 S
Cd240 O251 2.439 1_655 S
O241 Cd240 2.240 . S
O241 C246 1.279 . S
O242 Cd239 2.297 . S
O242 C244 1.247 . S
O243 Cd239 2.439 . S
O243 C244 1.208 . S
C244 O242 1.247 . S
C244 O243 1.208 . S
C245 O250 1.247 . S
C245 O251 1.208 . S
C246 O238 1.315 . S
C246 O241 1.279 . S
C247 O248 1.315 . S
C247 O249 1.279 . S
O248 Cd240 2.223 . S
O248 C247 1.315 . S
O249 Cd239 2.240 . S
O249 C247 1.279 . S
O250 Cd240 2.297 1_455 S
O250 C245 1.247 . S
O251 Cd240 2.439 1_455 S
O251 C245 1.208 . S
C252 C253 1.560 . S
C252 H313 0.959 . S
C252 H314 0.959 . S
C252 H315 0.960 . S
C253 C252 1.560 . S
C253 O308 1.426 . S
C253 H312 0.980 . S
C254 C255 1.407 . S
C254 C259 1.418 . S
C254 O308 1.334 . S
C255 C254 1.407 . S
C255 C256 1.360 . S
C255 H316 0.929 . S
C256 C255 1.360 . S
C256 C257 1.401 . S
C256 C260 1.527 . S
C257 C256 1.401 . S
C257 C258 1.405 . S
C257 C290 1.587 . S
C258 C257 1.405 . S
C258 C259 1.332 . S
C258 C261 1.496 . S
C259 C254 1.418 . S
C259 C258 1.332 . S
C259 H317 0.929 . S
C260 C256 1.527 . S
C260 H318 0.959 . S
C260 H319 0.961 . S
C260 H320 0.961 . S
C261 C258 1.496 . S
C261 H321 0.960 . S
C261 H322 0.960 . S
C261 H323 0.961 . S
C262 C263 1.517 . S
C262 H325 0.961 . S
C262 H326 0.960 . S
C262 H327 0.959 . S
C263 C262 1.517 . S
C263 O311 1.468 . S
C263 H324 0.980 . S
C264 C265 1.349 . S
C264 C269 1.367 . S
C264 O311 1.408 . S
C265 C264 1.349 . S
C265 C266 1.407 . S
C265 H328 0.930 . S
C266 C265 1.407 . S
C266 C267 1.449 . S
C266 C270 1.535 . S
C267 C266 1.449 . S
C267 C268 1.384 . S
C267 C292 1.553 . S
C268 C267 1.384 . S
C268 C269 1.364 . S
C268 C271 1.450 . S
C269 C264 1.367 . S
C269 C268 1.364 . S
C269 H329 0.931 . S
C270 C266 1.535 . S
C270 H330 0.959 . S
C270 H331 0.961 . S
C270 H332 0.959 . S
C271 C268 1.450 . S
C271 H333 0.960 . S
C271 H334 0.960 . S
C271 H335 0.960 . S
C272 C273 1.309 . S
C272 C277 1.304 . S
C272 O310 1.435 . S
C273 C272 1.309 . S
C273 C274 1.476 . S
C273 H337 0.930 . S
C274 C273 1.476 . S
C274 C275 1.400 . S
C274 C278 1.567 . S
C275 C274 1.400 . S
C275 C276 1.373 . S
C275 C297 1.432 . S
C276 C275 1.373 . S
C276 C277 1.339 . S
C276 C279 1.530 . S
C277 C272 1.304 . S
C277 C276 1.339 . S
C277 H338 0.930 . S
C278 C274 1.567 . S
C278 H339 0.961 . S
C278 H340 0.960 . S
C278 H341 0.958 . S
C279 C276 1.530 . S
C279 H342 0.961 . S
C279 H343 0.960 . S
C279 H344 0.960 . S
C280 C281 1.530 . S
C280 H346 0.961 . S
C280 H347 0.961 . S
C280 H348 0.959 . S
C281 C280 1.530 . S
C281 O309 1.412 . S
C281 H345 0.980 . S
C282 C283 1.288 . S
C282 C287 1.377 . S
C282 O309 1.393 . S
C283 C282 1.288 . S
C283 C284 1.369 . S
C283 H349 0.932 . S
C284 C283 1.369 . S
C284 C285 1.398 . S
C284 C288 1.527 . S
C285 C284 1.398 . S
C285 C286 1.380 . S
C285 C299 1.497 . S
C286 C285 1.380 . S
C286 C287 1.383 . S
C286 C289 1.603 . S
C287 C282 1.377 . S
C287 C286 1.383 . S
C287 H350 0.929 . S
C288 C284 1.527 . S
C288 H351 0.961 . S
C288 H352 0.959 . S
C288 H353 0.959 . S
C289 C286 1.603 . S
C289 H354 0.960 . S
C289 H355 0.962 . S
C289 H356 0.961 . S
C290 C257 1.587 . S
C290 C291 1.360 . S
C290 C303 1.412 . S
C291 C290 1.360 . S
C291 C292 1.365 . S
C291 H357 0.929 . S
C292 C267 1.553 . S
C292 C291 1.365 . S
C292 C293 1.404 . S
C293 C292 1.404 . S
C293 C294 1.395 . S
C293 C304 1.451 . S
C294 C293 1.395 . S
C294 C295 1.322 . S
C294 H358 0.930 . S
C295 C294 1.322 . S
C295 C296 1.459 . S
C295 H359 0.929 . S
C296 C295 1.459 . S
C296 C297 1.445 . S
C296 C305 1.395 . S
C297 C275 1.432 . S
C297 C296 1.445 . S
C297 C298 1.370 . S
C298 C297 1.370 . S
C298 C299 1.438 . S
C298 H360 0.930 . S
C299 C285 1.497 . S
C299 C298 1.438 . S
C299 C300 1.360 . S
C300 C299 1.360 . S
C300 C301 1.401 . S
C300 C305 1.446 . S
C301 C300 1.401 . S
C301 C302 1.347 . S
C301 H361 0.929 . S
C302 C301 1.347 . S
C302 C303 1.455 . S
C302 H362 0.930 . S
C303 C290 1.412 . S
C303 C302 1.455 . S
C303 C304 1.331 . S
C304 C293 1.451 . S
C304 C303 1.331 . S
C304 C305 1.497 . S
C305 C296 1.395 . S
C305 C300 1.446 . S
C305 C304 1.497 . S
C306 C307 1.582 . S
C306 H363 0.962 . S
C306 H364 0.959 . S
C306 H365 0.958 . S
C307 C306 1.582 . S
C307 O310 1.458 . S
C307 H336 0.980 . S
O308 C253 1.426 . S
O308 C254 1.334 . S
O309 C281 1.412 . S
O309 C282 1.393 . S
O310 C272 1.435 . S
O310 C307 1.458 . S
O311 C263 1.468 . S
O311 C264 1.408 . S
H312 C253 0.980 . S
H313 C252 0.959 . S
H314 C252 0.959 . S
H315 C252 0.960 . S
H316 C255 0.929 . S
H317 C259 0.929 . S
H318 C260 0.959 . S
H319 C260 0.961 . S
H320 C260 0.961 . S
H321 C261 0.960 . S
H322 C261 0.960 . S
H323 C261 0.961 . S
H324 C263 0.980 . S
H325 C262 0.961 . S
H326 C262 0.960 . S
H327 C262 0.959 . S
H328 C265 0.930 . S
H329 C269 0.931 . S
H330 C270 0.959 . S
H331 C270 0.961 . S
H332 C270 0.959 . S
H333 C271 0.960 . S
H334 C271 0.960 . S
H335 C271 0.960 . S
H336 C307 0.980 . S
H337 C273 0.930 . S
H338 C277 0.930 . S
H339 C278 0.961 . S
H340 C278 0.960 . S
H341 C278 0.958 . S
H342 C279 0.961 . S
H343 C279 0.960 . S
H344 C279 0.960 . S
H345 C281 0.980 . S
H346 C280 0.961 . S
H347 C280 0.961 . S
H348 C280 0.959 . S
H349 C283 0.932 . S
H350 C287 0.929 . S
H351 C288 0.961 . S
H352 C288 0.959 . S
H353 C288 0.959 . S
H354 C289 0.960 . S
H355 C289 0.962 . S
H356 C289 0.961 . S
H357 C291 0.929 . S
H358 C294 0.930 . S
H359 C295 0.929 . S
H360 C298 0.930 . S
H361 C301 0.929 . S
H362 C302 0.930 . S
H363 C306 0.962 . S
H364 C306 0.959 . S
H365 C306 0.958 . S
C366 C367 1.560 . S
C366 H427 0.959 . S
C366 H428 0.959 . S
C366 H429 0.960 . S
C367 C366 1.560 . S
C367 O422 1.426 . S
C367 H426 0.980 . S
C368 C369 1.407 . S
C368 C373 1.418 . S
C368 O422 1.334 . S
C369 C368 1.407 . S
C369 C370 1.360 . S
C369 H430 0.929 . S
C370 C369 1.360 . S
C370 C371 1.401 . S
C370 C374 1.527 . S
C371 C370 1.401 . S
C371 C372 1.405 . S
C371 C404 1.587 . S
C372 C371 1.405 . S
C372 C373 1.332 . S
C372 C375 1.496 . S
C373 C368 1.418 . S
C373 C372 1.332 . S
C373 H431 0.929 . S
C374 C370 1.527 . S
C374 H432 0.959 . S
C374 H433 0.961 . S
C374 H434 0.961 . S
C375 C372 1.496 . S
C375 H435 0.960 . S
C375 H436 0.960 . S
C375 H437 0.961 . S
C376 C377 1.517 . S
C376 H439 0.961 . S
C376 H440 0.960 . S
C376 H441 0.959 . S
C377 C376 1.517 . S
C377 O425 1.468 . S
C377 H438 0.980 . S
C378 C379 1.349 . S
C378 C383 1.367 . S
C378 O425 1.408 . S
C379 C378 1.349 . S
C379 C380 1.407 . S
C379 H442 0.930 . S
C380 C379 1.407 . S
C380 C381 1.449 . S
C380 C384 1.535 . S
C381 C380 1.449 . S
C381 C382 1.384 . S
C381 C406 1.553 . S
C382 C381 1.384 . S
C382 C383 1.364 . S
C382 C385 1.450 . S
C383 C378 1.367 . S
C383 C382 1.364 . S
C383 H443 0.931 . S
C384 C380 1.535 . S
C384 H444 0.959 . S
C384 H445 0.961 . S
C384 H446 0.959 . S
C385 C382 1.450 . S
C385 H447 0.960 . S
C385 H448 0.960 . S
C385 H449 0.960 . S
C386 C387 1.309 . S
C386 C391 1.304 . S
C386 O424 1.435 . S
C387 C386 1.309 . S
C387 C388 1.476 . S
C387 H451 0.930 . S
C388 C387 1.476 . S
C388 C389 1.400 . S
C388 C392 1.567 . S
C389 C388 1.400 . S
C389 C390 1.373 . S
C389 C411 1.432 . S
C390 C389 1.373 . S
C390 C391 1.339 . S
C390 C393 1.530 . S
C391 C386 1.304 . S
C391 C390 1.339 . S
C391 H452 0.930 . S
C392 C388 1.567 . S
C392 H453 0.961 . S
C392 H454 0.960 . S
C392 H455 0.958 . S
C393 C390 1.530 . S
C393 H456 0.961 . S
C393 H457 0.960 . S
C393 H458 0.960 . S
C394 C395 1.530 . S
C394 H460 0.961 . S
C394 H461 0.961 . S
C394 H462 0.959 . S
C395 C394 1.530 . S
C395 O423 1.412 . S
C395 H459 0.980 . S
C396 C397 1.288 . S
C396 C401 1.377 . S
C396 O423 1.393 . S
C397 C396 1.288 . S
C397 C398 1.369 . S
C397 H463 0.932 . S
C398 C397 1.369 . S
C398 C399 1.398 . S
C398 C402 1.527 . S
C399 C398 1.398 . S
C399 C400 1.380 . S
C399 C413 1.497 . S
C400 C399 1.380 . S
C400 C401 1.383 . S
C400 C403 1.603 . S
C401 C396 1.377 . S
C401 C400 1.383 . S
C401 H464 0.929 . S
C402 C398 1.527 . S
C402 H465 0.961 . S
C402 H466 0.959 . S
C402 H467 0.959 . S
C403 C400 1.603 . S
C403 H468 0.960 . S
C403 H469 0.962 . S
C403 H470 0.961 . S
C404 C371 1.587 . S
C404 C405 1.360 . S
C404 C417 1.412 . S
C405 C404 1.360 . S
C405 C406 1.365 . S
C405 H471 0.929 . S
C406 C381 1.553 . S
C406 C405 1.365 . S
C406 C407 1.404 . S
C407 C406 1.404 . S
C407 C408 1.395 . S
C407 C418 1.451 . S
C408 C407 1.395 . S
C408 C409 1.322 . S
C408 H472 0.930 . S
C409 C408 1.322 . S
C409 C410 1.459 . S
C409 H473 0.929 . S
C410 C409 1.459 . S
C410 C411 1.445 . S
C410 C419 1.395 . S
C411 C389 1.432 . S
C411 C410 1.445 . S
C411 C412 1.370 . S
C412 C411 1.370 . S
C412 C413 1.438 . S
C412 H474 0.930 . S
C413 C399 1.497 . S
C413 C412 1.438 . S
C413 C414 1.360 . S
C414 C413 1.360 . S
C414 C415 1.401 . S
C414 C419 1.446 . S
C415 C414 1.401 . S
C415 C416 1.347 . S
C415 H475 0.929 . S
C416 C415 1.347 . S
C416 C417 1.455 . S
C416 H476 0.930 . S
C417 C404 1.412 . S
C417 C416 1.455 . S
C417 C418 1.331 . S
C418 C407 1.451 . S
C418 C417 1.331 . S
C418 C419 1.497 . S
C419 C410 1.395 . S
C419 C414 1.446 . S
C419 C418 1.497 . S
C420 C421 1.582 . S
C420 H477 0.962 . S
C420 H478 0.959 . S
C420 H479 0.958 . S
C421 C420 1.582 . S
C421 O424 1.458 . S
C421 H450 0.980 . S
O422 C367 1.426 . S
O422 C368 1.334 . S
O423 C395 1.412 . S
O423 C396 1.393 . S
O424 C386 1.435 . S
O424 C421 1.458 . S
O425 C377 1.468 . S
O425 C378 1.408 . S
H426 C367 0.980 . S
H427 C366 0.959 . S
H428 C366 0.959 . S
H429 C366 0.960 . S
H430 C369 0.929 . S
H431 C373 0.929 . S
H432 C374 0.959 . S
H433 C374 0.961 . S
H434 C374 0.961 . S
H435 C375 0.960 . S
H436 C375 0.960 . S
H437 C375 0.961 . S
H438 C377 0.980 . S
H439 C376 0.961 . S
H440 C376 0.960 . S
H441 C376 0.959 . S
H442 C379 0.930 . S
H443 C383 0.931 . S
H444 C384 0.959 . S
H445 C384 0.961 . S
H446 C384 0.959 . S
H447 C385 0.960 . S
H448 C385 0.960 . S
H449 C385 0.960 . S
H450 C421 0.980 . S
H451 C387 0.930 . S
H452 C391 0.930 . S
H453 C392 0.961 . S
H454 C392 0.960 . S
H455 C392 0.958 . S
H456 C393 0.961 . S
H457 C393 0.960 . S
H458 C393 0.960 . S
H459 C395 0.980 . S
H460 C394 0.961 . S
H461 C394 0.961 . S
H462 C394 0.959 . S
H463 C397 0.932 . S
H464 C401 0.929 . S
H465 C402 0.961 . S
H466 C402 0.959 . S
H467 C402 0.959 . S
H468 C403 0.960 . S
H469 C403 0.962 . S
H470 C403 0.961 . S
H471 C405 0.929 . S
H472 C408 0.930 . S
H473 C409 0.929 . S
H474 C412 0.930 . S
H475 C415 0.929 . S
H476 C416 0.930 . S
H477 C420 0.962 . S
H478 C420 0.959 . S
H479 C420 0.958 . S
C480 C481 1.560 . S
C480 H541 0.959 . S
C480 H542 0.959 . S
C480 H543 0.960 . S
C481 C480 1.560 . S
C481 O536 1.426 . S
C481 H540 0.980 . S
C482 C483 1.407 . S
C482 C487 1.418 . S
C482 O536 1.334 . S
C483 C482 1.407 . S
C483 C484 1.360 . S
C483 H544 0.929 . S
C484 C483 1.360 . S
C484 C485 1.401 . S
C484 C488 1.527 . S
C485 C484 1.401 . S
C485 C486 1.405 . S
C485 C518 1.587 . S
C486 C485 1.405 . S
C486 C487 1.332 . S
C486 C489 1.496 . S
C487 C482 1.418 . S
C487 C486 1.332 . S
C487 H545 0.929 . S
C488 C484 1.527 . S
C488 H546 0.959 . S
C488 H547 0.961 . S
C488 H548 0.961 . S
C489 C486 1.496 . S
C489 H549 0.960 . S
C489 H550 0.960 . S
C489 H551 0.961 . S
C490 C491 1.517 . S
C490 H553 0.961 . S
C490 H554 0.960 . S
C490 H555 0.959 . S
C491 C490 1.517 . S
C491 O539 1.468 . S
C491 H552 0.980 . S
C492 C493 1.349 . S
C492 C497 1.367 . S
C492 O539 1.408 . S
C493 C492 1.349 . S
C493 C494 1.407 . S
C493 H556 0.930 . S
C494 C493 1.407 . S
C494 C495 1.449 . S
C494 C498 1.535 . S
C495 C494 1.449 . S
C495 C496 1.384 . S
C495 C520 1.553 . S
C496 C495 1.384 . S
C496 C497 1.364 . S
C496 C499 1.450 . S
C497 C492 1.367 . S
C497 C496 1.364 . S
C497 H557 0.931 . S
C498 C494 1.535 . S
C498 H558 0.959 . S
C498 H559 0.961 . S
C498 H560 0.959 . S
C499 C496 1.450 . S
C499 H561 0.960 . S
C499 H562 0.960 . S
C499 H563 0.960 . S
C500 C501 1.309 . S
C500 C505 1.304 . S
C500 O538 1.435 . S
C501 C500 1.309 . S
C501 C502 1.476 . S
C501 H565 0.930 . S
C502 C501 1.476 . S
C502 C503 1.400 . S
C502 C506 1.567 . S
C503 C502 1.400 . S
C503 C504 1.373 . S
C503 C525 1.432 . S
C504 C503 1.373 . S
C504 C505 1.339 . S
C504 C507 1.530 . S
C505 C500 1.304 . S
C505 C504 1.339 . S
C505 H566 0.930 . S
C506 C502 1.567 . S
C506 H567 0.961 . S
C506 H568 0.960 . S
C506 H569 0.958 . S
C507 C504 1.530 . S
C507 H570 0.961 . S
C507 H571 0.960 . S
C507 H572 0.960 . S
C508 C509 1.530 . S
C508 H574 0.961 . S
C508 H575 0.961 . S
C508 H576 0.959 . S
C509 C508 1.530 . S
C509 O537 1.412 . S
C509 H573 0.980 . S
C510 C511 1.288 . S
C510 C515 1.377 . S
C510 O537 1.393 . S
C511 C510 1.288 . S
C511 C512 1.369 . S
C511 H577 0.932 . S
C512 C511 1.369 . S
C512 C513 1.398 . S
C512 C516 1.527 . S
C513 C512 1.398 . S
C513 C514 1.380 . S
C513 C527 1.497 . S
C514 C513 1.380 . S
C514 C515 1.383 . S
C514 C517 1.603 . S
C515 C510 1.377 . S
C515 C514 1.383 . S
C515 H578 0.929 . S
C516 C512 1.527 . S
C516 H579 0.961 . S
C516 H580 0.959 . S
C516 H581 0.959 . S
C517 C514 1.603 . S
C517 H582 0.960 . S
C517 H583 0.962 . S
C517 H584 0.961 . S
C518 C485 1.587 . S
C518 C519 1.360 . S
C518 C531 1.412 . S
C519 C518 1.360 . S
C519 C520 1.365 . S
C519 H585 0.929 . S
C520 C495 1.553 . S
C520 C519 1.365 . S
C520 C521 1.404 . S
C521 C520 1.404 . S
C521 C522 1.395 . S
C521 C532 1.451 . S
C522 C521 1.395 . S
C522 C523 1.322 . S
C522 H586 0.930 . S
C523 C522 1.322 . S
C523 C524 1.459 . S
C523 H587 0.929 . S
C524 C523 1.459 . S
C524 C525 1.445 . S
C524 C533 1.395 . S
C525 C503 1.432 . S
C525 C524 1.445 . S
C525 C526 1.370 . S
C526 C525 1.370 . S
C526 C527 1.438 . S
C526 H588 0.930 . S
C527 C513 1.497 . S
C527 C526 1.438 . S
C527 C528 1.360 . S
C528 C527 1.360 . S
C528 C529 1.401 . S
C528 C533 1.446 . S
C529 C528 1.401 . S
C529 C530 1.347 . S
C529 H589 0.929 . S
C530 C529 1.347 . S
C530 C531 1.455 . S
C530 H590 0.930 . S
C531 C518 1.412 . S
C531 C530 1.455 . S
C531 C532 1.331 . S
C532 C521 1.451 . S
C532 C531 1.331 . S
C532 C533 1.497 . S
C533 C524 1.395 . S
C533 C528 1.446 . S
C533 C532 1.497 . S
C534 C535 1.582 . S
C534 H591 0.962 . S
C534 H592 0.959 . S
C534 H593 0.958 . S
C535 C534 1.582 . S
C535 O538 1.458 . S
C535 H564 0.980 . S
O536 C481 1.426 . S
O536 C482 1.334 . S
O537 C509 1.412 . S
O537 C510 1.393 . S
O538 C500 1.435 . S
O538 C535 1.458 . S
O539 C491 1.468 . S
O539 C492 1.408 . S
H540 C481 0.980 . S
H541 C480 0.959 . S
H542 C480 0.959 . S
H543 C480 0.960 . S
H544 C483 0.929 . S
H545 C487 0.929 . S
H546 C488 0.959 . S
H547 C488 0.961 . S
H548 C488 0.961 . S
H549 C489 0.960 . S
H550 C489 0.960 . S
H551 C489 0.961 . S
H552 C491 0.980 . S
H553 C490 0.961 . S
H554 C490 0.960 . S
H555 C490 0.959 . S
H556 C493 0.930 . S
H557 C497 0.931 . S
H558 C498 0.959 . S
H559 C498 0.961 . S
H560 C498 0.959 . S
H561 C499 0.960 . S
H562 C499 0.960 . S
H563 C499 0.960 . S
H564 C535 0.980 . S
H565 C501 0.930 . S
H566 C505 0.930 . S
H567 C506 0.961 . S
H568 C506 0.960 . S
H569 C506 0.958 . S
H570 C507 0.961 . S
H571 C507 0.960 . S
H572 C507 0.960 . S
H573 C509 0.980 . S
H574 C508 0.961 . S
H575 C508 0.961 . S
H576 C508 0.959 . S
H577 C511 0.932 . S
H578 C515 0.929 . S
H579 C516 0.961 . S
H580 C516 0.959 . S
H581 C516 0.959 . S
H582 C517 0.960 . S
H583 C517 0.962 . S
H584 C517 0.961 . S
H585 C519 0.929 . S
H586 C522 0.930 . S
H587 C523 0.929 . S
H588 C526 0.930 . S
H589 C529 0.929 . S
H590 C530 0.930 . S
H591 C534 0.962 . S
H592 C534 0.959 . S
H593 C534 0.958 . S
C594 C595 1.560 . S
C594 H655 0.959 . S
C594 H656 0.959 . S
C594 H657 0.960 . S
C595 C594 1.560 . S
C595 O650 1.426 . S
C595 H654 0.980 . S
C596 C597 1.407 . S
C596 C601 1.418 . S
C596 O650 1.334 . S
C597 C596 1.407 . S
C597 C598 1.360 . S
C597 H658 0.929 . S
C598 C597 1.360 . S
C598 C599 1.401 . S
C598 C602 1.527 . S
C599 C598 1.401 . S
C599 C600 1.405 . S
C599 C632 1.587 . S
C600 C599 1.405 . S
C600 C601 1.332 . S
C600 C603 1.496 . S
C601 C596 1.418 . S
C601 C600 1.332 . S
C601 H659 0.929 . S
C602 C598 1.527 . S
C602 H660 0.959 . S
C602 H661 0.961 . S
C602 H662 0.961 . S
C603 C600 1.496 . S
C603 H663 0.960 . S
C603 H664 0.960 . S
C603 H665 0.961 . S
C604 C605 1.517 . S
C604 H667 0.961 . S
C604 H668 0.960 . S
C604 H669 0.959 . S
C605 C604 1.517 . S
C605 O653 1.468 . S
C605 H666 0.980 . S
C606 C607 1.349 . S
C606 C611 1.367 . S
C606 O653 1.408 . S
C607 C606 1.349 . S
C607 C608 1.407 . S
C607 H670 0.930 . S
C608 C607 1.407 . S
C608 C609 1.449 . S
C608 C612 1.535 . S
C609 C608 1.449 . S
C609 C610 1.384 . S
C609 C634 1.553 . S
C610 C609 1.384 . S
C610 C611 1.364 . S
C610 C613 1.450 . S
C611 C606 1.367 . S
C611 C610 1.364 . S
C611 H671 0.931 . S
C612 C608 1.535 . S
C612 H672 0.959 . S
C612 H673 0.961 . S
C612 H674 0.959 . S
C613 C610 1.450 . S
C613 H675 0.960 . S
C613 H676 0.960 . S
C613 H677 0.960 . S
C614 C615 1.309 . S
C614 C619 1.304 . S
C614 O652 1.435 . S
C615 C614 1.309 . S
C615 C616 1.476 . S
C615 H679 0.930 . S
C616 C615 1.476 . S
C616 C617 1.400 . S
C616 C620 1.567 . S
C617 C616 1.400 . S
C617 C618 1.373 . S
C617 C639 1.432 . S
C618 C617 1.373 . S
C618 C619 1.339 . S
C618 C621 1.530 . S
C619 C614 1.304 . S
C619 C618 1.339 . S
C619 H680 0.930 . S
C620 C616 1.567 . S
C620 H681 0.961 . S
C620 H682 0.960 . S
C620 H683 0.958 . S
C621 C618 1.530 . S
C621 H684 0.961 . S
C621 H685 0.960 . S
C621 H686 0.960 . S
C622 C623 1.530 . S
C622 H688 0.961 . S
C622 H689 0.961 . S
C622 H690 0.959 . S
C623 C622 1.530 . S
C623 O651 1.412 . S
C623 H687 0.980 . S
C624 C625 1.288 . S
C624 C629 1.377 . S
C624 O651 1.393 . S
C625 C624 1.288 . S
C625 C626 1.369 . S
C625 H691 0.932 . S
C626 C625 1.369 . S
C626 C627 1.398 . S
C626 C630 1.527 . S
C627 C626 1.398 . S
C627 C628 1.380 . S
C627 C641 1.497 . S
C628 C627 1.380 . S
C628 C629 1.383 . S
C628 C631 1.603 . S
C629 C624 1.377 . S
C629 C628 1.383 . S
C629 H692 0.929 . S
C630 C626 1.527 . S
C630 H693 0.961 . S
C630 H694 0.959 . S
C630 H695 0.959 . S
C631 C628 1.603 . S
C631 H696 0.960 . S
C631 H697 0.962 . S
C631 H698 0.961 . S
C632 C599 1.587 . S
C632 C633 1.360 . S
C632 C645 1.412 . S
C633 C632 1.360 . S
C633 C634 1.365 . S
C633 H699 0.929 . S
C634 C609 1.553 . S
C634 C633 1.365 . S
C634 C635 1.404 . S
C635 C634 1.404 . S
C635 C636 1.395 . S
C635 C646 1.451 . S
C636 C635 1.395 . S
C636 C637 1.322 . S
C636 H700 0.930 . S
C637 C636 1.322 . S
C637 C638 1.459 . S
C637 H701 0.929 . S
C638 C637 1.459 . S
C638 C639 1.445 . S
C638 C647 1.395 . S
C639 C617 1.432 . S
C639 C638 1.445 . S
C639 C640 1.370 . S
C640 C639 1.370 . S
C640 C641 1.438 . S
C640 H702 0.930 . S
C641 C627 1.497 . S
C641 C640 1.438 . S
C641 C642 1.360 . S
C642 C641 1.360 . S
C642 C643 1.401 . S
C642 C647 1.446 . S
C643 C642 1.401 . S
C643 C644 1.347 . S
C643 H703 0.929 . S
C644 C643 1.347 . S
C644 C645 1.455 . S
C644 H704 0.930 . S
C645 C632 1.412 . S
C645 C644 1.455 . S
C645 C646 1.331 . S
C646 C635 1.451 . S
C646 C645 1.331 . S
C646 C647 1.497 . S
C647 C638 1.395 . S
C647 C642 1.446 . S
C647 C646 1.497 . S
C648 C649 1.582 . S
C648 H705 0.962 . S
C648 H706 0.959 . S
C648 H707 0.958 . S
C649 C648 1.582 . S
C649 O652 1.458 . S
C649 H678 0.980 . S
O650 C595 1.426 . S
O650 C596 1.334 . S
O651 C623 1.412 . S
O651 C624 1.393 . S
O652 C614 1.435 . S
O652 C649 1.458 . S
O653 C605 1.468 . S
O653 C606 1.408 . S
H654 C595 0.980 . S
H655 C594 0.959 . S
H656 C594 0.959 . S
H657 C594 0.960 . S
H658 C597 0.929 . S
H659 C601 0.929 . S
H660 C602 0.959 . S
H661 C602 0.961 . S
H662 C602 0.961 . S
H663 C603 0.960 . S
H664 C603 0.960 . S
H665 C603 0.961 . S
H666 C605 0.980 . S
H667 C604 0.961 . S
H668 C604 0.960 . S
H669 C604 0.959 . S
H670 C607 0.930 . S
H671 C611 0.931 . S
H672 C612 0.959 . S
H673 C612 0.961 . S
H674 C612 0.959 . S
H675 C613 0.960 . S
H676 C613 0.960 . S
H677 C613 0.960 . S
H678 C649 0.980 . S
H679 C615 0.930 . S
H680 C619 0.930 . S
H681 C620 0.961 . S
H682 C620 0.960 . S
H683 C620 0.958 . S
H684 C621 0.961 . S
H685 C621 0.960 . S
H686 C621 0.960 . S
H687 C623 0.980 . S
H688 C622 0.961 . S
H689 C622 0.961 . S
H690 C622 0.959 . S
H691 C625 0.932 . S
H692 C629 0.929 . S
H693 C630 0.961 . S
H694 C630 0.959 . S
H695 C630 0.959 . S
H696 C631 0.960 . S
H697 C631 0.962 . S
H698 C631 0.961 . S
H699 C633 0.929 . S
H700 C636 0.930 . S
H701 C637 0.929 . S
H702 C640 0.930 . S
H703 C643 0.929 . S
H704 C644 0.930 . S
H705 C648 0.962 . S
H706 C648 0.959 . S
H707 C648 0.958 . S
C708 C709 1.560 . S
C708 H769 0.959 . S
C708 H770 0.959 . S
C708 H771 0.960 . S
C709 C708 1.560 . S
C709 O764 1.426 . S
C709 H768 0.980 . S
C710 C711 1.407 . S
C710 C715 1.418 . S
C710 O764 1.334 . S
C711 C710 1.407 . S
C711 C712 1.360 . S
C711 H772 0.929 . S
C712 C711 1.360 . S
C712 C713 1.401 . S
C712 C716 1.527 . S
C713 C712 1.401 . S
C713 C714 1.405 . S
C713 C746 1.587 . S
C714 C713 1.405 . S
C714 C715 1.332 . S
C714 C717 1.496 . S
C715 C710 1.418 . S
C715 C714 1.332 . S
C715 H773 0.929 . S
C716 C712 1.527 . S
C716 H774 0.959 . S
C716 H775 0.961 . S
C716 H776 0.961 . S
C717 C714 1.496 . S
C717 H777 0.960 . S
C717 H778 0.960 . S
C717 H779 0.961 . S
C718 C719 1.517 . S
C718 H781 0.961 . S
C718 H782 0.960 . S
C718 H783 0.959 . S
C719 C718 1.517 . S
C719 O767 1.468 . S
C719 H780 0.980 . S
C720 C721 1.349 . S
C720 C725 1.367 . S
C720 O767 1.408 . S
C721 C720 1.349 . S
C721 C722 1.407 . S
C721 H784 0.930 . S
C722 C721 1.407 . S
C722 C723 1.449 . S
C722 C726 1.535 . S
C723 C722 1.449 . S
C723 C724 1.384 . S
C723 C748 1.553 . S
C724 C723 1.384 . S
C724 C725 1.364 . S
C724 C727 1.450 . S
C725 C720 1.367 . S
C725 C724 1.364 . S
C725 H785 0.931 . S
C726 C722 1.535 . S
C726 H786 0.959 . S
C726 H787 0.961 . S
C726 H788 0.959 . S
C727 C724 1.450 . S
C727 H789 0.960 . S
C727 H790 0.960 . S
C727 H791 0.960 . S
C728 C729 1.309 . S
C728 C733 1.304 . S
C728 O766 1.435 . S
C729 C728 1.309 . S
C729 C730 1.476 . S
C729 H793 0.930 . S
C730 C729 1.476 . S
C730 C731 1.400 . S
C730 C734 1.567 . S
C731 C730 1.400 . S
C731 C732 1.373 . S
C731 C753 1.432 . S
C732 C731 1.373 . S
C732 C733 1.339 . S
C732 C735 1.530 . S
C733 C728 1.304 . S
C733 C732 1.339 . S
C733 H794 0.930 . S
C734 C730 1.567 . S
C734 H795 0.961 . S
C734 H796 0.960 . S
C734 H797 0.958 . S
C735 C732 1.530 . S
C735 H798 0.961 . S
C735 H799 0.960 . S
C735 H800 0.960 . S
C736 C737 1.530 . S
C736 H802 0.961 . S
C736 H803 0.961 . S
C736 H804 0.959 . S
C737 C736 1.530 . S
C737 O765 1.412 . S
C737 H801 0.980 . S
C738 C739 1.288 . S
C738 C743 1.377 . S
C738 O765 1.393 . S
C739 C738 1.288 . S
C739 C740 1.369 . S
C739 H805 0.932 . S
C740 C739 1.369 . S
C740 C741 1.398 . S
C740 C744 1.527 . S
C741 C740 1.398 . S
C741 C742 1.380 . S
C741 C755 1.497 . S
C742 C741 1.380 . S
C742 C743 1.383 . S
C742 C745 1.603 . S
C743 C738 1.377 . S
C743 C742 1.383 . S
C743 H806 0.929 . S
C744 C740 1.527 . S
C744 H807 0.961 . S
C744 H808 0.959 . S
C744 H809 0.959 . S
C745 C742 1.603 . S
C745 H810 0.960 . S
C745 H811 0.962 . S
C745 H812 0.961 . S
C746 C713 1.587 . S
C746 C747 1.360 . S
C746 C759 1.412 . S
C747 C746 1.360 . S
C747 C748 1.365 . S
C747 H813 0.929 . S
C748 C723 1.553 . S
C748 C747 1.365 . S
C748 C749 1.404 . S
C749 C748 1.404 . S
C749 C750 1.395 . S
C749 C760 1.451 . S
C750 C749 1.395 . S
C750 C751 1.322 . S
C750 H814 0.930 . S
C751 C750 1.322 . S
C751 C752 1.459 . S
C751 H815 0.929 . S
C752 C751 1.459 . S
C752 C753 1.445 . S
C752 C761 1.395 . S
C753 C731 1.432 . S
C753 C752 1.445 . S
C753 C754 1.370 . S
C754 C753 1.370 . S
C754 C755 1.438 . S
C754 H816 0.930 . S
C755 C741 1.497 . S
C755 C754 1.438 . S
C755 C756 1.360 . S
C756 C755 1.360 . S
C756 C757 1.401 . S
C756 C761 1.446 . S
C757 C756 1.401 . S
C757 C758 1.347 . S
C757 H817 0.929 . S
C758 C757 1.347 . S
C758 C759 1.455 . S
C758 H818 0.930 . S
C759 C746 1.412 . S
C759 C758 1.455 . S
C759 C760 1.331 . S
C760 C749 1.451 . S
C760 C759 1.331 . S
C760 C761 1.497 . S
C761 C752 1.395 . S
C761 C756 1.446 . S
C761 C760 1.497 . S
C762 C763 1.582 . S
C762 H819 0.962 . S
C762 H820 0.959 . S
C762 H821 0.958 . S
C763 C762 1.582 . S
C763 O766 1.458 . S
C763 H792 0.980 . S
O764 C709 1.426 . S
O764 C710 1.334 . S
O765 C737 1.412 . S
O765 C738 1.393 . S
O766 C728 1.435 . S
O766 C763 1.458 . S
O767 C719 1.468 . S
O767 C720 1.408 . S
H768 C709 0.980 . S
H769 C708 0.959 . S
H770 C708 0.959 . S
H771 C708 0.960 . S
H772 C711 0.929 . S
H773 C715 0.929 . S
H774 C716 0.959 . S
H775 C716 0.961 . S
H776 C716 0.961 . S
H777 C717 0.960 . S
H778 C717 0.960 . S
H779 C717 0.961 . S
H780 C719 0.980 . S
H781 C718 0.961 . S
H782 C718 0.960 . S
H783 C718 0.959 . S
H784 C721 0.930 . S
H785 C725 0.931 . S
H786 C726 0.959 . S
H787 C726 0.961 . S
H788 C726 0.959 . S
H789 C727 0.960 . S
H790 C727 0.960 . S
H791 C727 0.960 . S
H792 C763 0.980 . S
H793 C729 0.930 . S
H794 C733 0.930 . S
H795 C734 0.961 . S
H796 C734 0.960 . S
H797 C734 0.958 . S
H798 C735 0.961 . S
H799 C735 0.960 . S
H800 C735 0.960 . S
H801 C737 0.980 . S
H802 C736 0.961 . S
H803 C736 0.961 . S
H804 C736 0.959 . S
H805 C739 0.932 . S
H806 C743 0.929 . S
H807 C744 0.961 . S
H808 C744 0.959 . S
H809 C744 0.959 . S
H810 C745 0.960 . S
H811 C745 0.962 . S
H812 C745 0.961 . S
H813 C747 0.929 . S
H814 C750 0.930 . S
H815 C751 0.929 . S
H816 C754 0.930 . S
H817 C757 0.929 . S
H818 C758 0.930 . S
H819 C762 0.962 . S
H820 C762 0.959 . S
H821 C762 0.958 . S
C822 C823 1.560 . S
C822 H883 0.959 . S
C822 H884 0.959 . S
C822 H885 0.960 . S
C823 C822 1.560 . S
C823 O878 1.426 . S
C823 H882 0.980 . S
C824 C825 1.407 . S
C824 C829 1.418 . S
C824 O878 1.334 . S
C825 C824 1.407 . S
C825 C826 1.360 . S
C825 H886 0.929 . S
C826 C825 1.360 . S
C826 C827 1.401 . S
C826 C830 1.527 . S
C827 C826 1.401 . S
C827 C828 1.405 . S
C827 C860 1.587 . S
C828 C827 1.405 . S
C828 C829 1.332 . S
C828 C831 1.496 . S
C829 C824 1.418 . S
C829 C828 1.332 . S
C829 H887 0.929 . S
C830 C826 1.527 . S
C830 H888 0.959 . S
C830 H889 0.961 . S
C830 H890 0.961 . S
C831 C828 1.496 . S
C831 H891 0.960 . S
C831 H892 0.960 . S
C831 H893 0.961 . S
C832 C833 1.517 . S
C832 H895 0.961 . S
C832 H896 0.960 . S
C832 H897 0.959 . S
C833 C832 1.517 . S
C833 O881 1.468 . S
C833 H894 0.980 . S
C834 C835 1.349 . S
C834 C839 1.367 . S
C834 O881 1.408 . S
C835 C834 1.349 . S
C835 C836 1.407 . S
C835 H898 0.930 . S
C836 C835 1.407 . S
C836 C837 1.449 . S
C836 C840 1.535 . S
C837 C836 1.449 . S
C837 C838 1.384 . S
C837 C862 1.553 . S
C838 C837 1.384 . S
C838 C839 1.364 . S
C838 C841 1.450 . S
C839 C834 1.367 . S
C839 C838 1.364 . S
C839 H899 0.931 . S
C840 C836 1.535 . S
C840 H900 0.959 . S
C840 H901 0.961 . S
C840 H902 0.959 . S
C841 C838 1.450 . S
C841 H903 0.960 . S
C841 H904 0.960 . S
C841 H905 0.960 . S
C842 C843 1.309 . S
C842 C847 1.304 . S
C842 O880 1.435 . S
C843 C842 1.309 . S
C843 C844 1.476 . S
C843 H907 0.930 . S
C844 C843 1.476 . S
C844 C845 1.400 . S
C844 C848 1.567 . S
C845 C844 1.400 . S
C845 C846 1.373 . S
C845 C867 1.432 . S
C846 C845 1.373 . S
C846 C847 1.339 . S
C846 C849 1.530 . S
C847 C842 1.304 . S
C847 C846 1.339 . S
C847 H908 0.930 . S
C848 C844 1.567 . S
C848 H909 0.961 . S
C848 H910 0.960 . S
C848 H911 0.958 . S
C849 C846 1.530 . S
C849 H912 0.961 . S
C849 H913 0.960 . S
C849 H914 0.960 . S
C850 C851 1.530 . S
C850 H916 0.961 . S
C850 H917 0.961 . S
C850 H918 0.959 . S
C851 C850 1.530 . S
C851 O879 1.412 . S
C851 H915 0.980 . S
C852 C853 1.288 . S
C852 C857 1.377 . S
C852 O879 1.393 . S
C853 C852 1.288 . S
C853 C854 1.369 . S
C853 H919 0.932 . S
C854 C853 1.369 . S
C854 C855 1.398 . S
C854 C858 1.527 . S
C855 C854 1.398 . S
C855 C856 1.380 . S
C855 C869 1.497 . S
C856 C855 1.380 . S
C856 C857 1.383 . S
C856 C859 1.603 . S
C857 C852 1.377 . S
C857 C856 1.383 . S
C857 H920 0.929 . S
C858 C854 1.527 . S
C858 H921 0.961 . S
C858 H922 0.959 . S
C858 H923 0.959 . S
C859 C856 1.603 . S
C859 H924 0.960 . S
C859 H925 0.962 . S
C859 H926 0.961 . S
C860 C827 1.587 . S
C860 C861 1.360 . S
C860 C873 1.412 . S
C861 C860 1.360 . S
C861 C862 1.365 . S
C861 H927 0.929 . S
C862 C837 1.553 . S
C862 C861 1.365 . S
C862 C863 1.404 . S
C863 C862 1.404 . S
C863 C864 1.395 . S
C863 C874 1.451 . S
C864 C863 1.395 . S
C864 C865 1.322 . S
C864 H928 0.930 . S
C865 C864 1.322 . S
C865 C866 1.459 . S
C865 H929 0.929 . S
C866 C865 1.459 . S
C866 C867 1.445 . S
C866 C875 1.395 . S
C867 C845 1.432 . S
C867 C866 1.445 . S
C867 C868 1.370 . S
C868 C867 1.370 . S
C868 C869 1.438 . S
C868 H930 0.930 . S
C869 C855 1.497 . S
C869 C868 1.438 . S
C869 C870 1.360 . S
C870 C869 1.360 . S
C870 C871 1.401 . S
C870 C875 1.446 . S
C871 C870 1.401 . S
C871 C872 1.347 . S
C871 H931 0.929 . S
C872 C871 1.347 . S
C872 C873 1.455 . S
C872 H932 0.930 . S
C873 C860 1.412 . S
C873 C872 1.455 . S
C873 C874 1.331 . S
C874 C863 1.451 . S
C874 C873 1.331 . S
C874 C875 1.497 . S
C875 C866 1.395 . S
C875 C870 1.446 . S
C875 C874 1.497 . S
C876 C877 1.582 . S
C876 H933 0.962 . S
C876 H934 0.959 . S
C876 H935 0.958 . S
C877 C876 1.582 . S
C877 O880 1.458 . S
C877 H906 0.980 . S
O878 C823 1.426 . S
O878 C824 1.334 . S
O879 C851 1.412 . S
O879 C852 1.393 . S
O880 C842 1.435 . S
O880 C877 1.458 . S
O881 C833 1.468 . S
O881 C834 1.408 . S
H882 C823 0.980 . S
H883 C822 0.959 . S
H884 C822 0.959 . S
H885 C822 0.960 . S
H886 C825 0.929 . S
H887 C829 0.929 . S
H888 C830 0.959 . S
H889 C830 0.961 . S
H890 C830 0.961 . S
H891 C831 0.960 . S
H892 C831 0.960 . S
H893 C831 0.961 . S
H894 C833 0.980 . S
H895 C832 0.961 . S
H896 C832 0.960 . S
H897 C832 0.959 . S
H898 C835 0.930 . S
H899 C839 0.931 . S
H900 C840 0.959 . S
H901 C840 0.961 . S
H902 C840 0.959 . S
H903 C841 0.960 . S
H904 C841 0.960 . S
H905 C841 0.960 . S
H906 C877 0.980 . S
H907 C843 0.930 . S
H908 C847 0.930 . S
H909 C848 0.961 . S
H910 C848 0.960 . S
H911 C848 0.958 . S
H912 C849 0.961 . S
H913 C849 0.960 . S
H914 C849 0.960 . S
H915 C851 0.980 . S
H916 C850 0.961 . S
H917 C850 0.961 . S
H918 C850 0.959 . S
H919 C853 0.932 . S
H920 C857 0.929 . S
H921 C858 0.961 . S
H922 C858 0.959 . S
H923 C858 0.959 . S
H924 C859 0.960 . S
H925 C859 0.962 . S
H926 C859 0.961 . S
H927 C861 0.929 . S
H928 C864 0.930 . S
H929 C865 0.929 . S
H930 C868 0.930 . S
H931 C871 0.929 . S
H932 C872 0.930 . S
H933 C876 0.962 . S
H934 C876 0.959 . S
H935 C876 0.958 . S
C936 C937 1.560 . S
C936 H997 0.959 . S
C936 H998 0.959 . S
C936 H999 0.960 . S
C937 C936 1.560 . S
C937 O992 1.426 . S
C937 H996 0.980 . S
C938 C939 1.407 . S
C938 C943 1.418 . S
C938 O992 1.334 . S
C939 C938 1.407 . S
C939 C940 1.360 . S
C939 H1000 0.929 . S
C940 C939 1.360 . S
C940 C941 1.401 . S
C940 C944 1.527 . S
C941 C940 1.401 . S
C941 C942 1.405 . S
C941 C974 1.587 . S
C942 C941 1.405 . S
C942 C943 1.332 . S
C942 C945 1.496 . S
C943 C938 1.418 . S
C943 C942 1.332 . S
C943 H1001 0.929 . S
C944 C940 1.527 . S
C944 H1002 0.959 . S
C944 H1003 0.961 . S
C944 H1004 0.961 . S
C945 C942 1.496 . S
C945 H1005 0.960 . S
C945 H1006 0.960 . S
C945 H1007 0.961 . S
C946 C947 1.517 . S
C946 H1009 0.961 . S
C946 H1010 0.960 . S
C946 H1011 0.959 . S
C947 C946 1.517 . S
C947 O995 1.468 . S
C947 H1008 0.980 . S
C948 C949 1.349 . S
C948 C953 1.367 . S
C948 O995 1.408 . S
C949 C948 1.349 . S
C949 C950 1.407 . S
C949 H1012 0.930 . S
C950 C949 1.407 . S
C950 C951 1.449 . S
C950 C954 1.535 . S
C951 C950 1.449 . S
C951 C952 1.384 . S
C951 C976 1.553 . S
C952 C951 1.384 . S
C952 C953 1.364 . S
C952 C955 1.450 . S
C953 C948 1.367 . S
C953 C952 1.364 . S
C953 H1013 0.931 . S
C954 C950 1.535 . S
C954 H1014 0.959 . S
C954 H1015 0.961 . S
C954 H1016 0.959 . S
C955 C952 1.450 . S
C955 H1017 0.960 . S
C955 H1018 0.960 . S
C955 H1019 0.960 . S
C956 C957 1.309 . S
C956 C961 1.304 . S
C956 O994 1.435 . S
C957 C956 1.309 . S
C957 C958 1.476 . S
C957 H1021 0.930 . S
C958 C957 1.476 . S
C958 C959 1.400 . S
C958 C962 1.567 . S
C959 C958 1.400 . S
C959 C960 1.373 . S
C959 C981 1.432 . S
C960 C959 1.373 . S
C960 C961 1.339 . S
C960 C963 1.530 . S
C961 C956 1.304 . S
C961 C960 1.339 . S
C961 H1022 0.930 . S
C962 C958 1.567 . S
C962 H1023 0.961 . S
C962 H1024 0.960 . S
C962 H1025 0.958 . S
C963 C960 1.530 . S
C963 H1026 0.961 . S
C963 H1027 0.960 . S
C963 H1028 0.960 . S
C964 C965 1.530 . S
C964 H1030 0.961 . S
C964 H1031 0.961 . S
C964 H1032 0.959 . S
C965 C964 1.530 . S
C965 O993 1.412 . S
C965 H1029 0.980 . S
C966 C967 1.288 . S
C966 C971 1.377 . S
C966 O993 1.393 . S
C967 C966 1.288 . S
C967 C968 1.369 . S
C967 H1033 0.932 . S
C968 C967 1.369 . S
C968 C969 1.398 . S
C968 C972 1.527 . S
C969 C968 1.398 . S
C969 C970 1.380 . S
C969 C983 1.497 . S
C970 C969 1.380 . S
C970 C971 1.383 . S
C970 C973 1.603 . S
C971 C966 1.377 . S
C971 C970 1.383 . S
C971 H1034 0.929 . S
C972 C968 1.527 . S
C972 H1035 0.961 . S
C972 H1036 0.959 . S
C972 H1037 0.959 . S
C973 C970 1.603 . S
C973 H1038 0.960 . S
C973 H1039 0.962 . S
C973 H1040 0.961 . S
C974 C941 1.587 . S
C974 C975 1.360 . S
C974 C987 1.412 . S
C975 C974 1.360 . S
C975 C976 1.365 . S
C975 H1041 0.929 . S
C976 C951 1.553 . S
C976 C975 1.365 . S
C976 C977 1.404 . S
C977 C976 1.404 . S
C977 C978 1.395 . S
C977 C988 1.451 . S
C978 C977 1.395 . S
C978 C979 1.322 . S
C978 H1042 0.930 . S
C979 C978 1.322 . S
C979 C980 1.459 . S
C979 H1043 0.929 . S
C980 C979 1.459 . S
C980 C981 1.445 . S
C980 C989 1.395 . S
C981 C959 1.432 . S
C981 C980 1.445 . S
C981 C982 1.370 . S
C982 C981 1.370 . S
C982 C983 1.438 . S
C982 H1044 0.930 . S
C983 C969 1.497 . S
C983 C982 1.438 . S
C983 C984 1.360 . S
C984 C983 1.360 . S
C984 C985 1.401 . S
C984 C989 1.446 . S
C985 C984 1.401 . S
C985 C986 1.347 . S
C985 H1045 0.929 . S
C986 C985 1.347 . S
C986 C987 1.455 . S
C986 H1046 0.930 . S
C987 C974 1.412 . S
C987 C986 1.455 . S
C987 C988 1.331 . S
C988 C977 1.451 . S
C988 C987 1.331 . S
C988 C989 1.497 . S
C989 C980 1.395 . S
C989 C984 1.446 . S
C989 C988 1.497 . S
C990 C991 1.582 . S
C990 H1047 0.962 . S
C990 H1048 0.959 . S
C990 H1049 0.958 . S
C991 C990 1.582 . S
C991 O994 1.458 . S
C991 H1020 0.980 . S
O992 C937 1.426 . S
O992 C938 1.334 . S
O993 C965 1.412 . S
O993 C966 1.393 . S
O994 C956 1.435 . S
O994 C991 1.458 . S
O995 C947 1.468 . S
O995 C948 1.408 . S
H996 C937 0.980 . S
H997 C936 0.959 . S
H998 C936 0.959 . S
H999 C936 0.960 . S
H1000 C939 0.929 . S
H1001 C943 0.929 . S
H1002 C944 0.959 . S
H1003 C944 0.961 . S
H1004 C944 0.961 . S
H1005 C945 0.960 . S
H1006 C945 0.960 . S
H1007 C945 0.961 . S
H1008 C947 0.980 . S
H1009 C946 0.961 . S
H1010 C946 0.960 . S
H1011 C946 0.959 . S
H1012 C949 0.930 . S
H1013 C953 0.931 . S
H1014 C954 0.959 . S
H1015 C954 0.961 . S
H1016 C954 0.959 . S
H1017 C955 0.960 . S
H1018 C955 0.960 . S
H1019 C955 0.960 . S
H1020 C991 0.980 . S
H1021 C957 0.930 . S
H1022 C961 0.930 . S
H1023 C962 0.961 . S
H1024 C962 0.960 . S
H1025 C962 0.958 . S
H1026 C963 0.961 . S
H1027 C963 0.960 . S
H1028 C963 0.960 . S
H1029 C965 0.980 . S
H1030 C964 0.961 . S
H1031 C964 0.961 . S
H1032 C964 0.959 . S
H1033 C967 0.932 . S
H1034 C971 0.929 . S
H1035 C972 0.961 . S
H1036 C972 0.959 . S
H1037 C972 0.959 . S
H1038 C973 0.960 . S
H1039 C973 0.962 . S
H1040 C973 0.961 . S
H1041 C975 0.929 . S
H1042 C978 0.930 . S
H1043 C979 0.929 . S
H1044 C982 0.930 . S
H1045 C985 0.929 . S
H1046 C986 0.930 . S
H1047 C990 0.962 . S
H1048 C990 0.959 . S
H1049 C990 0.958 . S
C1050 C1051 1.560 . S
C1050 H1111 0.959 . S
C1050 H1112 0.959 . S
C1050 H1113 0.960 . S
C1051 C1050 1.560 . S
C1051 O1106 1.426 . S
C1051 H1110 0.980 . S
C1052 C1053 1.407 . S
C1052 C1057 1.418 . S
C1052 O1106 1.334 . S
C1053 C1052 1.407 . S
C1053 C1054 1.360 . S
C1053 H1114 0.929 . S
C1054 C1053 1.360 . S
C1054 C1055 1.401 . S
C1054 C1058 1.527 . S
C1055 C1054 1.401 . S
C1055 C1056 1.405 . S
C1055 C1088 1.587 . S
C1056 C1055 1.405 . S
C1056 C1057 1.332 . S
C1056 C1059 1.496 . S
C1057 C1052 1.418 . S
C1057 C1056 1.332 . S
C1057 H1115 0.929 . S
C1058 C1054 1.527 . S
C1058 H1116 0.959 . S
C1058 H1117 0.961 . S
C1058 H1118 0.961 . S
C1059 C1056 1.496 . S
C1059 H1119 0.960 . S
C1059 H1120 0.960 . S
C1059 H1121 0.961 . S
C1060 C1061 1.517 . S
C1060 H1123 0.961 . S
C1060 H1124 0.960 . S
C1060 H1125 0.959 . S
C1061 C1060 1.517 . S
C1061 O1109 1.468 . S
C1061 H1122 0.980 . S
C1062 C1063 1.349 . S
C1062 C1067 1.367 . S
C1062 O1109 1.408 . S
C1063 C1062 1.349 . S
C1063 C1064 1.407 . S
C1063 H1126 0.930 . S
C1064 C1063 1.407 . S
C1064 C1065 1.449 . S
C1064 C1068 1.535 . S
C1065 C1064 1.449 . S
C1065 C1066 1.384 . S
C1065 C1090 1.553 . S
C1066 C1065 1.384 . S
C1066 C1067 1.364 . S
C1066 C1069 1.450 . S
C1067 C1062 1.367 . S
C1067 C1066 1.364 . S
C1067 H1127 0.931 . S
C1068 C1064 1.535 . S
C1068 H1128 0.959 . S
C1068 H1129 0.961 . S
C1068 H1130 0.959 . S
C1069 C1066 1.450 . S
C1069 H1131 0.960 . S
C1069 H1132 0.960 . S
C1069 H1133 0.960 . S
C1070 C1071 1.309 . S
C1070 C1075 1.304 . S
C1070 O1108 1.435 . S
C1071 C1070 1.309 . S
C1071 C1072 1.476 . S
C1071 H1135 0.930 . S
C1072 C1071 1.476 . S
C1072 C1073 1.400 . S
C1072 C1076 1.567 . S
C1073 C1072 1.400 . S
C1073 C1074 1.373 . S
C1073 C1095 1.432 . S
C1074 C1073 1.373 . S
C1074 C1075 1.339 . S
C1074 C1077 1.530 . S
C1075 C1070 1.304 . S
C1075 C1074 1.339 . S
C1075 H1136 0.930 . S
C1076 C1072 1.567 . S
C1076 H1137 0.961 . S
C1076 H1138 0.960 . S
C1076 H1139 0.958 . S
C1077 C1074 1.530 . S
C1077 H1140 0.961 . S
C1077 H1141 0.960 . S
C1077 H1142 0.960 . S
C1078 C1079 1.530 . S
C1078 H1144 0.961 . S
C1078 H1145 0.961 . S
C1078 H1146 0.959 . S
C1079 C1078 1.530 . S
C1079 O1107 1.412 . S
C1079 H1143 0.980 . S
C1080 C1081 1.288 . S
C1080 C1085 1.377 . S
C1080 O1107 1.393 . S
C1081 C1080 1.288 . S
C1081 C1082 1.369 . S
C1081 H1147 0.932 . S
C1082 C1081 1.369 . S
C1082 C1083 1.398 . S
C1082 C1086 1.527 . S
C1083 C1082 1.398 . S
C1083 C1084 1.380 . S
C1083 C1097 1.497 . S
C1084 C1083 1.380 . S
C1084 C1085 1.383 . S
C1084 C1087 1.603 . S
C1085 C1080 1.377 . S
C1085 C1084 1.383 . S
C1085 H1148 0.929 . S
C1086 C1082 1.527 . S
C1086 H1149 0.961 . S
C1086 H1150 0.959 . S
C1086 H1151 0.959 . S
C1087 C1084 1.603 . S
C1087 H1152 0.960 . S
C1087 H1153 0.962 . S
C1087 H1154 0.961 . S
C1088 C1055 1.587 . S
C1088 C1089 1.360 . S
C1088 C1101 1.412 . S
C1089 C1088 1.360 . S
C1089 C1090 1.365 . S
C1089 H1155 0.929 . S
C1090 C1065 1.553 . S
C1090 C1089 1.365 . S
C1090 C1091 1.404 . S
C1091 C1090 1.404 . S
C1091 C1092 1.395 . S
C1091 C1102 1.451 . S
C1092 C1091 1.395 . S
C1092 C1093 1.322 . S
C1092 H1156 0.930 . S
C1093 C1092 1.322 . S
C1093 C1094 1.459 . S
C1093 H1157 0.929 . S
C1094 C1093 1.459 . S
C1094 C1095 1.445 . S
C1094 C1103 1.395 . S
C1095 C1073 1.432 . S
C1095 C1094 1.445 . S
C1095 C1096 1.370 . S
C1096 C1095 1.370 . S
C1096 C1097 1.438 . S
C1096 H1158 0.930 . S
C1097 C1083 1.497 . S
C1097 C1096 1.438 . S
C1097 C1098 1.360 . S
C1098 C1097 1.360 . S
C1098 C1099 1.401 . S
C1098 C1103 1.446 . S
C1099 C1098 1.401 . S
C1099 C1100 1.347 . S
C1099 H1159 0.929 . S
C1100 C1099 1.347 . S
C1100 C1101 1.455 . S
C1100 H1160 0.930 . S
C1101 C1088 1.412 . S
C1101 C1100 1.455 . S
C1101 C1102 1.331 . S
C1102 C1091 1.451 . S
C1102 C1101 1.331 . S
C1102 C1103 1.497 . S
C1103 C1094 1.395 . S
C1103 C1098 1.446 . S
C1103 C1102 1.497 . S
C1104 C1105 1.582 . S
C1104 H1161 0.962 . S
C1104 H1162 0.959 . S
C1104 H1163 0.958 . S
C1105 C1104 1.582 . S
C1105 O1108 1.458 . S
C1105 H1134 0.980 . S
O1106 C1051 1.426 . S
O1106 C1052 1.334 . S
O1107 C1079 1.412 . S
O1107 C1080 1.393 . S
O1108 C1070 1.435 . S
O1108 C1105 1.458 . S
O1109 C1061 1.468 . S
O1109 C1062 1.408 . S
H1110 C1051 0.980 . S
H1111 C1050 0.959 . S
H1112 C1050 0.959 . S
H1113 C1050 0.960 . S
H1114 C1053 0.929 . S
H1115 C1057 0.929 . S
H1116 C1058 0.959 . S
H1117 C1058 0.961 . S
H1118 C1058 0.961 . S
H1119 C1059 0.960 . S
H1120 C1059 0.960 . S
H1121 C1059 0.961 . S
H1122 C1061 0.980 . S
H1123 C1060 0.961 . S
H1124 C1060 0.960 . S
H1125 C1060 0.959 . S
H1126 C1063 0.930 . S
H1127 C1067 0.931 . S
H1128 C1068 0.959 . S
H1129 C1068 0.961 . S
H1130 C1068 0.959 . S
H1131 C1069 0.960 . S
H1132 C1069 0.960 . S
H1133 C1069 0.960 . S
H1134 C1105 0.980 . S
H1135 C1071 0.930 . S
H1136 C1075 0.930 . S
H1137 C1076 0.961 . S
H1138 C1076 0.960 . S
H1139 C1076 0.958 . S
H1140 C1077 0.961 . S
H1141 C1077 0.960 . S
H1142 C1077 0.960 . S
H1143 C1079 0.980 . S
H1144 C1078 0.961 . S
H1145 C1078 0.961 . S
H1146 C1078 0.959 . S
H1147 C1081 0.932 . S
H1148 C1085 0.929 . S
H1149 C1086 0.961 . S
H1150 C1086 0.959 . S
H1151 C1086 0.959 . S
H1152 C1087 0.960 . S
H1153 C1087 0.962 . S
H1154 C1087 0.961 . S
H1155 C1089 0.929 . S
H1156 C1092 0.930 . S
H1157 C1093 0.929 . S
H1158 C1096 0.930 . S
H1159 C1099 0.929 . S
H1160 C1100 0.930 . S
H1161 C1104 0.962 . S
H1162 C1104 0.959 . S
H1163 C1104 0.958 . S
C1164 C1165 1.560 . S
C1164 H1225 0.959 . S
C1164 H1226 0.959 . S
C1164 H1227 0.960 . S
C1165 C1164 1.560 . S
C1165 O1220 1.426 . S
C1165 H1224 0.980 . S
C1166 C1167 1.407 . S
C1166 C1171 1.418 . S
C1166 O1220 1.334 . S
C1167 C1166 1.407 . S
C1167 C1168 1.360 . S
C1167 H1228 0.929 . S
C1168 C1167 1.360 . S
C1168 C1169 1.401 . S
C1168 C1172 1.527 . S
C1169 C1168 1.401 . S
C1169 C1170 1.405 . S
C1169 C1202 1.587 . S
C1170 C1169 1.405 . S
C1170 C1171 1.332 . S
C1170 C1173 1.496 . S
C1171 C1166 1.418 . S
C1171 C1170 1.332 . S
C1171 H1229 0.929 . S
C1172 C1168 1.527 . S
C1172 H1230 0.959 . S
C1172 H1231 0.961 . S
C1172 H1232 0.961 . S
C1173 C1170 1.496 . S
C1173 H1233 0.960 . S
C1173 H1234 0.960 . S
C1173 H1235 0.961 . S
C1174 C1175 1.517 . S
C1174 H1237 0.961 . S
C1174 H1238 0.960 . S
C1174 H1239 0.959 . S
C1175 C1174 1.517 . S
C1175 O1223 1.468 . S
C1175 H1236 0.980 . S
C1176 C1177 1.349 . S
C1176 C1181 1.367 . S
C1176 O1223 1.408 . S
C1177 C1176 1.349 . S
C1177 C1178 1.407 . S
C1177 H1240 0.930 . S
C1178 C1177 1.407 . S
C1178 C1179 1.449 . S
C1178 C1182 1.535 . S
C1179 C1178 1.449 . S
C1179 C1180 1.384 . S
C1179 C1204 1.553 . S
C1180 C1179 1.384 . S
C1180 C1181 1.364 . S
C1180 C1183 1.450 . S
C1181 C1176 1.367 . S
C1181 C1180 1.364 . S
C1181 H1241 0.931 . S
C1182 C1178 1.535 . S
C1182 H1242 0.959 . S
C1182 H1243 0.961 . S
C1182 H1244 0.959 . S
C1183 C1180 1.450 . S
C1183 H1245 0.960 . S
C1183 H1246 0.960 . S
C1183 H1247 0.960 . S
C1184 C1185 1.309 . S
C1184 C1189 1.304 . S
C1184 O1222 1.435 . S
C1185 C1184 1.309 . S
C1185 C1186 1.476 . S
C1185 H1249 0.930 . S
C1186 C1185 1.476 . S
C1186 C1187 1.400 . S
C1186 C1190 1.567 . S
C1187 C1186 1.400 . S
C1187 C1188 1.373 . S
C1187 C1209 1.432 . S
C1188 C1187 1.373 . S
C1188 C1189 1.339 . S
C1188 C1191 1.530 . S
C1189 C1184 1.304 . S
C1189 C1188 1.339 . S
C1189 H1250 0.930 . S
C1190 C1186 1.567 . S
C1190 H1251 0.961 . S
C1190 H1252 0.960 . S
C1190 H1253 0.958 . S
C1191 C1188 1.530 . S
C1191 H1254 0.961 . S
C1191 H1255 0.960 . S
C1191 H1256 0.960 . S
C1192 C1193 1.530 . S
C1192 H1258 0.961 . S
C1192 H1259 0.961 . S
C1192 H1260 0.959 . S
C1193 C1192 1.530 . S
C1193 O1221 1.412 . S
C1193 H1257 0.980 . S
C1194 C1195 1.288 . S
C1194 C1199 1.377 . S
C1194 O1221 1.393 . S
C1195 C1194 1.288 . S
C1195 C1196 1.369 . S
C1195 H1261 0.932 . S
C1196 C1195 1.369 . S
C1196 C1197 1.398 . S
C1196 C1200 1.527 . S
C1197 C1196 1.398 . S
C1197 C1198 1.380 . S
C1197 C1211 1.497 . S
C1198 C1197 1.380 . S
C1198 C1199 1.383 . S
C1198 C1201 1.603 . S
C1199 C1194 1.377 . S
C1199 C1198 1.383 . S
C1199 H1262 0.929 . S
C1200 C1196 1.527 . S
C1200 H1263 0.961 . S
C1200 H1264 0.959 . S
C1200 H1265 0.959 . S
C1201 C1198 1.603 . S
C1201 H1266 0.960 . S
C1201 H1267 0.962 . S
C1201 H1268 0.961 . S
C1202 C1169 1.587 . S
C1202 C1203 1.360 . S
C1202 C1215 1.412 . S
C1203 C1202 1.360 . S
C1203 C1204 1.365 . S
C1203 H1269 0.929 . S
C1204 C1179 1.553 . S
C1204 C1203 1.365 . S
C1204 C1205 1.404 . S
C1205 C1204 1.404 . S
C1205 C1206 1.395 . S
C1205 C1216 1.451 . S
C1206 C1205 1.395 . S
C1206 C1207 1.322 . S
C1206 H1270 0.930 . S
C1207 C1206 1.322 . S
C1207 C1208 1.459 . S
C1207 H1271 0.929 . S
C1208 C1207 1.459 . S
C1208 C1209 1.445 . S
C1208 C1217 1.395 . S
C1209 C1187 1.432 . S
C1209 C1208 1.445 . S
C1209 C1210 1.370 . S
C1210 C1209 1.370 . S
C1210 C1211 1.438 . S
C1210 H1272 0.930 . S
C1211 C1197 1.497 . S
C1211 C1210 1.438 . S
C1211 C1212 1.360 . S
C1212 C1211 1.360 . S
C1212 C1213 1.401 . S
C1212 C1217 1.446 . S
C1213 C1212 1.401 . S
C1213 C1214 1.347 . S
C1213 H1273 0.929 . S
C1214 C1213 1.347 . S
C1214 C1215 1.455 . S
C1214 H1274 0.930 . S
C1215 C1202 1.412 . S
C1215 C1214 1.455 . S
C1215 C1216 1.331 . S
C1216 C1205 1.451 . S
C1216 C1215 1.331 . S
C1216 C1217 1.497 . S
C1217 C1208 1.395 . S
C1217 C1212 1.446 . S
C1217 C1216 1.497 . S
C1218 C1219 1.582 . S
C1218 H1275 0.962 . S
C1218 H1276 0.959 . S
C1218 H1277 0.958 . S
C1219 C1218 1.582 . S
C1219 O1222 1.458 . S
C1219 H1248 0.980 . S
O1220 C1165 1.426 . S
O1220 C1166 1.334 . S
O1221 C1193 1.412 . S
O1221 C1194 1.393 . S
O1222 C1184 1.435 . S
O1222 C1219 1.458 . S
O1223 C1175 1.468 . S
O1223 C1176 1.408 . S
H1224 C1165 0.980 . S
H1225 C1164 0.959 . S
H1226 C1164 0.959 . S
H1227 C1164 0.960 . S
H1228 C1167 0.929 . S
H1229 C1171 0.929 . S
H1230 C1172 0.959 . S
H1231 C1172 0.961 . S
H1232 C1172 0.961 . S
H1233 C1173 0.960 . S
H1234 C1173 0.960 . S
H1235 C1173 0.961 . S
H1236 C1175 0.980 . S
H1237 C1174 0.961 . S
H1238 C1174 0.960 . S
H1239 C1174 0.959 . S
H1240 C1177 0.930 . S
H1241 C1181 0.931 . S
H1242 C1182 0.959 . S
H1243 C1182 0.961 . S
H1244 C1182 0.959 . S
H1245 C1183 0.960 . S
H1246 C1183 0.960 . S
H1247 C1183 0.960 . S
H1248 C1219 0.980 . S
H1249 C1185 0.930 . S
H1250 C1189 0.930 . S
H1251 C1190 0.961 . S
H1252 C1190 0.960 . S
H1253 C1190 0.958 . S
H1254 C1191 0.961 . S
H1255 C1191 0.960 . S
H1256 C1191 0.960 . S
H1257 C1193 0.980 . S
H1258 C1192 0.961 . S
H1259 C1192 0.961 . S
H1260 C1192 0.959 . S
H1261 C1195 0.932 . S
H1262 C1199 0.929 . S
H1263 C1200 0.961 . S
H1264 C1200 0.959 . S
H1265 C1200 0.959 . S
H1266 C1201 0.960 . S
H1267 C1201 0.962 . S
H1268 C1201 0.961 . S
H1269 C1203 0.929 . S
H1270 C1206 0.930 . S
H1271 C1207 0.929 . S
H1272 C1210 0.930 . S
H1273 C1213 0.929 . S
H1274 C1214 0.930 . S
H1275 C1218 0.962 . S
H1276 C1218 0.959 . S
H1277 C1218 0.958 . S
C1278 C1279 1.560 . S
C1278 H1339 0.959 . S
C1278 H1340 0.959 . S
C1278 H1341 0.960 . S
C1279 C1278 1.560 . S
C1279 O1334 1.426 . S
C1279 H1338 0.980 . S
C1280 C1281 1.407 1_455 S
C1280 C1285 1.418 . S
C1280 O1334 1.334 . S
C1281 C1280 1.407 1_655 S
C1281 C1282 1.360 . S
C1281 H1342 0.929 . S
C1282 C1281 1.360 . S
C1282 C1283 1.401 1_655 S
C1282 C1286 1.527 . S
C1283 C1282 1.401 1_455 S
C1283 C1284 1.405 . S
C1283 C1316 1.587 1_455 S
C1284 C1283 1.405 . S
C1284 C1285 1.332 . S
C1284 C1287 1.496 . S
C1285 C1280 1.418 . S
C1285 C1284 1.332 . S
C1285 H1343 0.929 . S
C1286 C1282 1.527 . S
C1286 H1344 0.959 . S
C1286 H1345 0.961 . S
C1286 H1346 0.961 . S
C1287 C1284 1.496 . S
C1287 H1347 0.960 . S
C1287 H1348 0.960 . S
C1287 H1349 0.961 . S
C1288 C1289 1.517 . S
C1288 H1351 0.994 . S
C1288 H1352 0.960 . S
C1288 H1353 0.959 . S
C1289 C1288 1.517 . S
C1289 O1337 1.468 . S
C1289 H1350 0.980 1_655 S
C1290 C1291 1.349 . S
C1290 C1295 1.367 . S
C1290 O1337 1.408 . S
C1291 C1290 1.349 . S
C1291 C1292 1.376 1_655 S
C1291 H1354 0.930 1_655 S
C1292 C1291 1.376 1_455 S
C1292 C1293 1.422 1_455 S
C1292 C1296 1.590 . S
C1293 C1292 1.422 1_655 S
C1293 C1294 1.384 . S
C1293 C1318 1.553 . S
C1294 C1293 1.384 . S
C1294 C1295 1.364 . S
C1294 C1297 1.450 . S
C1295 C1290 1.367 . S
C1295 C1294 1.364 . S
C1295 H1355 0.931 . S
C1296 C1292 1.590 . S
C1296 H1356 0.959 . S
C1296 H1357 0.961 . S
C1296 H1358 0.959 . S
C1297 C1294 1.450 . S
C1297 H1359 0.960 . S
C1297 H1360 0.960 . S
C1297 H1361 0.960 . S
C1298 C1299 1.309 . S
C1298 C1303 1.304 . S
C1298 O1336 1.435 . S
C1299 C1298 1.309 . S
C1299 C1300 1.449 1_655 S
C1299 H1363 0.930 1_655 S
C1300 C1299 1.449 1_455 S
C1300 C1301 1.383 1_455 S
C1300 C1304 1.611 . S
C1301 C1300 1.383 1_655 S
C1301 C1302 1.373 . S
C1301 C1323 1.432 . S
C1302 C1301 1.373 . S
C1302 C1303 1.339 . S
C1302 C1305 1.530 . S
C1303 C1298 1.304 . S
C1303 C1302 1.339 . S
C1303 H1364 0.930 . S
C1304 C1300 1.611 . S
C1304 H1365 0.961 . S
C1304 H1366 0.960 . S
C1304 H1367 0.958 . S
C1305 C1302 1.530 . S
C1305 H1368 0.961 . S
C1305 H1369 0.960 . S
C1305 H1370 0.960 . S
C1306 C1307 1.533 1_455 S
C1306 H1372 0.961 . S
C1306 H1373 0.961 . S
C1306 H1374 0.959 . S
C1307 C1306 1.533 1_655 S
C1307 O1335 1.412 1_655 S
C1307 H1371 0.979 . S
C1308 C1309 1.288 . S
C1308 C1313 1.377 1_455 S
C1308 O1335 1.393 . S
C1309 C1308 1.288 . S
C1309 C1310 1.369 . S
C1309 H1375 0.932 . S
C1310 C1309 1.369 . S
C1310 C1311 1.398 1_455 S
C1310 C1314 1.527 . S
C1311 C1310 1.398 1_655 S
C1311 C1312 1.380 . S
C1311 C1325 1.497 . S
C1312 C1311 1.380 . S
C1312 C1313 1.383 . S
C1312 C1315 1.603 . S
C1313 C1308 1.377 1_655 S
C1313 C1312 1.383 . S
C1313 H1376 0.929 . S
C1314 C1310 1.527 . S
C1314 H1377 0.961 . S
C1314 H1378 0.959 . S
C1314 H1379 0.959 . S
C1315 C1312 1.603 . S
C1315 H1380 0.960 . S
C1315 H1381 0.962 . S
C1315 H1382 0.961 . S
C1316 C1283 1.587 1_655 S
C1316 C1317 1.360 . S
C1316 C1329 1.412 . S
C1317 C1316 1.360 . S
C1317 C1318 1.365 . S
C1317 H1383 0.929 . S
C1318 C1293 1.553 . S
C1318 C1317 1.365 . S
C1318 C1319 1.404 . S
C1319 C1318 1.404 . S
C1319 C1320 1.395 . S
C1319 C1330 1.451 . S
C1320 C1319 1.395 . S
C1320 C1321 1.322 . S
C1320 H1384 0.930 . S
C1321 C1320 1.322 . S
C1321 C1322 1.459 . S
C1321 H1385 0.929 . S
C1322 C1321 1.459 . S
C1322 C1323 1.445 . S
C1322 C1331 1.395 . S
C1323 C1301 1.432 . S
C1323 C1322 1.445 . S
C1323 C1324 1.370 . S
C1324 C1323 1.370 . S
C1324 C1325 1.438 . S
C1324 H1386 0.930 . S
C1325 C1311 1.497 . S
C1325 C1324 1.438 . S
C1325 C1326 1.360 . S
C1326 C1325 1.360 . S
C1326 C1327 1.401 . S
C1326 C1331 1.446 . S
C1327 C1326 1.401 . S
C1327 C1328 1.347 . S
C1327 H1387 0.929 . S
C1328 C1327 1.347 . S
C1328 C1329 1.455 . S
C1328 H1388 0.930 . S
C1329 C1316 1.412 . S
C1329 C1328 1.455 . S
C1329 C1330 1.331 . S
C1330 C1319 1.451 . S
C1330 C1329 1.331 . S
C1330 C1331 1.497 . S
C1331 C1322 1.395 . S
C1331 C1326 1.446 . S
C1331 C1330 1.497 . S
C1332 C1333 1.582 . S
C1332 H1389 0.962 . S
C1332 H1390 0.959 . S
C1332 H1391 0.958 . S
C1333 C1332 1.582 . S
C1333 O1336 1.458 . S
C1333 H1362 0.980 . S
O1334 C1279 1.426 . S
O1334 C1280 1.334 . S
O1335 C1307 1.412 1_455 S
O1335 C1308 1.393 . S
O1336 C1298 1.435 . S
O1336 C1333 1.458 . S
O1337 C1289 1.468 . S
O1337 C1290 1.408 . S
H1338 C1279 0.980 . S
H1339 C1278 0.959 . S
H1340 C1278 0.959 . S
H1341 C1278 0.960 . S
H1342 C1281 0.929 . S
H1343 C1285 0.929 . S
H1344 C1286 0.959 . S
H1345 C1286 0.961 . S
H1346 C1286 0.961 . S
H1347 C1287 0.960 . S
H1348 C1287 0.960 . S
H1349 C1287 0.961 . S
H1350 C1289 0.980 1_455 S
H1351 C1288 0.994 . S
H1352 C1288 0.960 . S
H1353 C1288 0.959 . S
H1354 C1291 0.930 1_455 S
H1355 C1295 0.931 . S
H1356 C1296 0.959 . S
H1357 C1296 0.961 . S
H1358 C1296 0.959 . S
H1359 C1297 0.960 . S
H1360 C1297 0.960 . S
H1361 C1297 0.960 . S
H1362 C1333 0.980 . S
H1363 C1299 0.930 1_455 S
H1364 C1303 0.930 . S
H1365 C1304 0.961 . S
H1366 C1304 0.960 . S
H1367 C1304 0.958 . S
H1368 C1305 0.961 . S
H1369 C1305 0.960 . S
H1370 C1305 0.960 . S
H1371 C1307 0.979 . S
H1372 C1306 0.961 . S
H1373 C1306 0.961 . S
H1374 C1306 0.959 . S
H1375 C1309 0.932 . S
H1376 C1313 0.929 . S
H1377 C1314 0.961 . S
H1378 C1314 0.959 . S
H1379 C1314 0.959 . S
H1380 C1315 0.960 . S
H1381 C1315 0.962 . S
H1382 C1315 0.961 . S
H1383 C1317 0.929 . S
H1384 C1320 0.930 . S
H1385 C1321 0.929 . S
H1386 C1324 0.930 . S
H1387 C1327 0.929 . S
H1388 C1328 0.930 . S
H1389 C1332 0.962 . S
H1390 C1332 0.959 . S
H1391 C1332 0.958 . S
C1392 C1393 1.560 . S
C1392 H1453 0.959 . S
C1392 H1454 0.959 . S
C1392 H1455 0.960 . S
C1393 C1392 1.560 . S
C1393 O1448 1.426 . S
C1393 H1452 0.980 . S
C1394 C1395 1.407 . S
C1394 C1399 1.418 . S
C1394 O1448 1.334 . S
C1395 C1394 1.407 . S
C1395 C1396 1.360 . S
C1395 H1456 0.929 . S
C1396 C1395 1.360 . S
C1396 C1397 1.401 . S
C1396 C1400 1.527 . S
C1397 C1396 1.401 . S
C1397 C1398 1.405 . S
C1397 C1430 1.587 . S
C1398 C1397 1.405 . S
C1398 C1399 1.332 . S
C1398 C1401 1.496 . S
C1399 C1394 1.418 . S
C1399 C1398 1.332 . S
C1399 H1457 0.929 . S
C1400 C1396 1.527 . S
C1400 H1458 0.959 . S
C1400 H1459 0.961 . S
C1400 H1460 0.961 . S
C1401 C1398 1.496 . S
C1401 H1461 0.960 . S
C1401 H1462 0.960 . S
C1401 H1463 0.961 . S
C1402 C1403 1.517 . S
C1402 H1465 0.961 . S
C1402 H1466 0.960 . S
C1402 H1467 0.959 . S
C1403 C1402 1.517 . S
C1403 O1451 1.468 . S
C1403 H1464 0.980 . S
C1404 C1405 1.349 . S
C1404 C1409 1.367 . S
C1404 O1451 1.408 . S
C1405 C1404 1.349 . S
C1405 C1406 1.407 . S
C1405 H1468 0.930 . S
C1406 C1405 1.407 . S
C1406 C1407 1.449 . S
C1406 C1410 1.535 . S
C1407 C1406 1.449 . S
C1407 C1408 1.384 . S
C1407 C1432 1.553 . S
C1408 C1407 1.384 . S
C1408 C1409 1.364 . S
C1408 C1411 1.450 . S
C1409 C1404 1.367 . S
C1409 C1408 1.364 . S
C1409 H1469 0.931 . S
C1410 C1406 1.535 . S
C1410 H1470 0.959 . S
C1410 H1471 0.961 . S
C1410 H1472 0.959 . S
C1411 C1408 1.450 . S
C1411 H1473 0.960 . S
C1411 H1474 0.960 . S
C1411 H1475 0.960 . S
C1412 C1413 1.309 . S
C1412 C1417 1.304 . S
C1412 O1450 1.435 . S
C1413 C1412 1.309 . S
C1413 C1414 1.476 . S
C1413 H1477 0.930 . S
C1414 C1413 1.476 . S
C1414 C1415 1.400 . S
C1414 C1418 1.567 . S
C1415 C1414 1.400 . S
C1415 C1416 1.373 . S
C1415 C1437 1.432 . S
C1416 C1415 1.373 . S
C1416 C1417 1.339 . S
C1416 C1419 1.530 . S
C1417 C1412 1.304 . S
C1417 C1416 1.339 . S
C1417 H1478 0.930 . S
C1418 C1414 1.567 . S
C1418 H1479 0.961 . S
C1418 H1480 0.960 . S
C1418 H1481 0.958 . S
C1419 C1416 1.530 . S
C1419 H1482 0.961 . S
C1419 H1483 0.960 . S
C1419 H1484 0.960 . S
C1420 C1421 1.530 . S
C1420 H1486 0.961 . S
C1420 H1487 0.961 . S
C1420 H1488 0.959 . S
C1421 C1420 1.530 . S
C1421 O1449 1.412 . S
C1421 H1485 0.980 . S
C1422 C1423 1.288 . S
C1422 C1427 1.377 . S
C1422 O1449 1.393 . S
C1423 C1422 1.288 . S
C1423 C1424 1.369 . S
C1423 H1489 0.932 . S
C1424 C1423 1.369 . S
C1424 C1425 1.398 . S
C1424 C1428 1.527 . S
C1425 C1424 1.398 . S
C1425 C1426 1.380 . S
C1425 C1439 1.497 . S
C1426 C1425 1.380 . S
C1426 C1427 1.383 . S
C1426 C1429 1.603 . S
C1427 C1422 1.377 . S
C1427 C1426 1.383 . S
C1427 H1490 0.929 . S
C1428 C1424 1.527 . S
C1428 H1491 0.961 . S
C1428 H1492 0.959 . S
C1428 H1493 0.959 . S
C1429 C1426 1.603 . S
C1429 H1494 0.960 . S
C1429 H1495 0.962 . S
C1429 H1496 0.961 . S
C1430 C1397 1.587 . S
C1430 C1431 1.360 . S
C1430 C1443 1.412 . S
C1431 C1430 1.360 . S
C1431 C1432 1.365 . S
C1431 H1497 0.929 . S
C1432 C1407 1.553 . S
C1432 C1431 1.365 . S
C1432 C1433 1.404 . S
C1433 C1432 1.404 . S
C1433 C1434 1.395 . S
C1433 C1444 1.451 . S
C1434 C1433 1.395 . S
C1434 C1435 1.322 . S
C1434 H1498 0.930 . S
C1435 C1434 1.322 . S
C1435 C1436 1.459 . S
C1435 H1499 0.929 . S
C1436 C1435 1.459 . S
C1436 C1437 1.445 . S
C1436 C1445 1.395 . S
C1437 C1415 1.432 . S
C1437 C1436 1.445 . S
C1437 C1438 1.370 . S
C1438 C1437 1.370 . S
C1438 C1439 1.438 . S
C1438 H1500 0.930 . S
C1439 C1425 1.497 . S
C1439 C1438 1.438 . S
C1439 C1440 1.360 . S
C1440 C1439 1.360 . S
C1440 C1441 1.401 . S
C1440 C1445 1.446 . S
C1441 C1440 1.401 . S
C1441 C1442 1.347 . S
C1441 H1501 0.929 . S
C1442 C1441 1.347 . S
C1442 C1443 1.455 . S
C1442 H1502 0.930 . S
C1443 C1430 1.412 . S
C1443 C1442 1.455 . S
C1443 C1444 1.331 . S
C1444 C1433 1.451 . S
C1444 C1443 1.331 . S
C1444 C1445 1.497 . S
C1445 C1436 1.395 . S
C1445 C1440 1.446 . S
C1445 C1444 1.497 . S
C1446 C1447 1.582 . S
C1446 H1503 0.962 . S
C1446 H1504 0.959 . S
C1446 H1505 0.958 . S
C1447 C1446 1.582 . S
C1447 O1450 1.458 . S
C1447 H1476 0.980 . S
O1448 C1393 1.426 . S
O1448 C1394 1.334 . S
O1449 C1421 1.412 . S
O1449 C1422 1.393 . S
O1450 C1412 1.435 . S
O1450 C1447 1.458 . S
O1451 C1403 1.468 . S
O1451 C1404 1.408 . S
H1452 C1393 0.980 . S
H1453 C1392 0.959 . S
H1454 C1392 0.959 . S
H1455 C1392 0.960 . S
H1456 C1395 0.929 . S
H1457 C1399 0.929 . S
H1458 C1400 0.959 . S
H1459 C1400 0.961 . S
H1460 C1400 0.961 . S
H1461 C1401 0.960 . S
H1462 C1401 0.960 . S
H1463 C1401 0.961 . S
H1464 C1403 0.980 . S
H1465 C1402 0.961 . S
H1466 C1402 0.960 . S
H1467 C1402 0.959 . S
H1468 C1405 0.930 . S
H1469 C1409 0.931 . S
H1470 C1410 0.959 . S
H1471 C1410 0.961 . S
H1472 C1410 0.959 . S
H1473 C1411 0.960 . S
H1474 C1411 0.960 . S
H1475 C1411 0.960 . S
H1476 C1447 0.980 . S
H1477 C1413 0.930 . S
H1478 C1417 0.930 . S
H1479 C1418 0.961 . S
H1480 C1418 0.960 . S
H1481 C1418 0.958 . S
H1482 C1419 0.961 . S
H1483 C1419 0.960 . S
H1484 C1419 0.960 . S
H1485 C1421 0.980 . S
H1486 C1420 0.961 . S
H1487 C1420 0.961 . S
H1488 C1420 0.959 . S
H1489 C1423 0.932 . S
H1490 C1427 0.929 . S
H1491 C1428 0.961 . S
H1492 C1428 0.959 . S
H1493 C1428 0.959 . S
H1494 C1429 0.960 . S
H1495 C1429 0.962 . S
H1496 C1429 0.961 . S
H1497 C1431 0.929 . S
H1498 C1434 0.930 . S
H1499 C1435 0.929 . S
H1500 C1438 0.930 . S
H1501 C1441 0.929 . S
H1502 C1442 0.930 . S
H1503 C1446 0.962 . S
H1504 C1446 0.959 . S
H1505 C1446 0.958 . S
C1506 C1507 1.560 . S
C1506 H1567 0.959 . S
C1506 H1568 0.959 . S
C1506 H1569 0.960 . S
C1507 C1506 1.560 . S
C1507 O1562 1.426 . S
C1507 H1566 0.980 . S
C1508 C1509 1.407 1_565 S
C1508 C1513 1.418 . S
C1508 O1562 1.334 . S
C1509 C1508 1.407 1_545 S
C1509 C1510 1.360 . S
C1509 H1570 0.929 . S
C1510 C1509 1.360 . S
C1510 C1511 1.401 1_545 S
C1510 C1514 1.527 . S
C1511 C1510 1.401 1_565 S
C1511 C1512 1.405 . S
C1511 C1544 1.587 1_565 S
C1512 C1511 1.405 . S
C1512 C1513 1.332 . S
C1512 C1515 1.496 . S
C1513 C1508 1.418 . S
C1513 C1512 1.332 . S
C1513 H1571 0.929 . S
C1514 C1510 1.527 . S
C1514 H1572 0.959 . S
C1514 H1573 0.961 . S
C1514 H1574 0.961 . S
C1515 C1512 1.496 . S
C1515 H1575 0.960 . S
C1515 H1576 0.960 . S
C1515 H1577 0.961 . S
C1516 C1517 1.517 . S
C1516 H1579 0.961 1_545 S
C1516 H1580 0.960 . S
C1516 H1581 0.959 . S
C1517 C1516 1.517 . S
C1517 O1565 1.468 . S
C1517 H1578 0.980 1_545 S
C1518 C1519 1.349 . S
C1518 C1523 1.367 . S
C1518 O1565 1.408 . S
C1519 C1518 1.349 . S
C1519 C1520 1.407 1_545 S
C1519 H1582 0.930 1_545 S
C1520 C1519 1.407 1_565 S
C1520 C1521 1.449 1_565 S
C1520 C1524 1.535 . S
C1521 C1520 1.449 1_545 S
C1521 C1522 1.384 . S
C1521 C1546 1.553 . S
C1522 C1521 1.384 . S
C1522 C1523 1.364 . S
C1522 C1525 1.450 . S
C1523 C1518 1.367 . S
C1523 C1522 1.364 . S
C1523 H1583 0.931 . S
C1524 C1520 1.535 . S
C1524 H1584 0.959 . S
C1524 H1585 0.961 . S
C1524 H1586 0.959 . S
C1525 C1522 1.450 . S
C1525 H1587 0.960 . S
C1525 H1588 0.960 . S
C1525 H1589 0.960 . S
C1526 C1527 1.309 . S
C1526 C1531 1.304 . S
C1526 O1564 1.435 . S
C1527 C1526 1.309 . S
C1527 C1528 1.497 1_545 S
C1527 H1591 0.930 1_545 S
C1528 C1527 1.497 1_565 S
C1528 C1529 1.332 1_565 S
C1528 C1532 1.614 . S
C1529 C1528 1.332 1_545 S
C1529 C1530 1.373 . S
C1529 C1551 1.432 . S
C1530 C1529 1.373 . S
C1530 C1531 1.339 . S
C1530 C1533 1.530 . S
C1531 C1526 1.304 . S
C1531 C1530 1.339 . S
C1531 H1592 0.930 . S
C1532 C1528 1.614 . S
C1532 H1593 0.961 . S
C1532 H1594 0.960 . S
C1532 H1595 0.958 . S
C1533 C1530 1.530 . S
C1533 H1596 0.961 . S
C1533 H1597 0.960 . S
C1533 H1598 0.960 . S
C1534 C1535 1.523 1_565 S
C1534 H1600 0.961 . S
C1534 H1601 0.961 . S
C1534 H1602 0.959 . S
C1535 C1534 1.523 1_545 S
C1535 O1563 1.355 1_545 S
C1535 H1599 1.011 . S
C1536 C1537 1.288 . S
C1536 C1541 1.377 1_565 S
C1536 O1563 1.393 . S
C1537 C1536 1.288 . S
C1537 C1538 1.369 . S
C1537 H1603 0.932 . S
C1538 C1537 1.369 . S
C1538 C1539 1.398 1_565 S
C1538 C1542 1.527 . S
C1539 C1538 1.398 1_545 S
C1539 C1540 1.380 . S
C1539 C1553 1.497 . S
C1540 C1539 1.380 . S
C1540 C1541 1.383 . S
C1540 C1543 1.603 . S
C1541 C1536 1.377 1_545 S
C1541 C1540 1.383 . S
C1541 H1604 0.929 . S
C1542 C1538 1.527 . S
C1542 H1605 0.961 . S
C1542 H1606 0.959 . S
C1542 H1607 0.959 . S
C1543 C1540 1.603 . S
C1543 H1608 0.960 . S
C1543 H1609 0.962 . S
C1543 H1610 0.961 . S
C1544 C1511 1.587 1_545 S
C1544 C1545 1.360 . S
C1544 C1557 1.412 . S
C1545 C1544 1.360 . S
C1545 C1546 1.365 . S
C1545 H1611 0.929 . S
C1546 C1521 1.553 . S
C1546 C1545 1.365 . S
C1546 C1547 1.404 . S
C1547 C1546 1.404 . S
C1547 C1548 1.395 . S
C1547 C1558 1.451 . S
C1548 C1547 1.395 . S
C1548 C1549 1.322 . S
C1548 H1612 0.930 . S
C1549 C1548 1.322 . S
C1549 C1550 1.459 . S
C1549 H1613 0.929 . S
C1550 C1549 1.459 . S
C1550 C1551 1.445 . S
C1550 C1559 1.395 . S
C1551 C1529 1.432 . S
C1551 C1550 1.445 . S
C1551 C1552 1.370 . S
C1552 C1551 1.370 . S
C1552 C1553 1.438 . S
C1552 H1614 0.930 . S
C1553 C1539 1.497 . S
C1553 C1552 1.438 . S
C1553 C1554 1.360 . S
C1554 C1553 1.360 . S
C1554 C1555 1.401 . S
C1554 C1559 1.446 . S
C1555 C1554 1.401 . S
C1555 C1556 1.347 . S
C1555 H1615 0.929 . S
C1556 C1555 1.347 . S
C1556 C1557 1.455 . S
C1556 H1616 0.930 . S
C1557 C1544 1.412 . S
C1557 C1556 1.455 . S
C1557 C1558 1.331 . S
C1558 C1547 1.451 . S
C1558 C1557 1.331 . S
C1558 C1559 1.497 . S
C1559 C1550 1.395 . S
C1559 C1554 1.446 . S
C1559 C1558 1.497 . S
C1560 C1561 1.582 . S
C1560 H1617 0.962 . S
C1560 H1618 0.959 . S
C1560 H1619 0.958 . S
C1561 C1560 1.582 . S
C1561 O1564 1.458 . S
C1561 H1590 0.980 . S
O1562 C1507 1.426 . S
O1562 C1508 1.334 . S
O1563 C1535 1.355 1_565 S
O1563 C1536 1.393 . S
O1564 C1526 1.435 . S
O1564 C1561 1.458 . S
O1565 C1517 1.468 . S
O1565 C1518 1.408 . S
H1566 C1507 0.980 . S
H1567 C1506 0.959 . S
H1568 C1506 0.959 . S
H1569 C1506 0.960 . S
H1570 C1509 0.929 . S
H1571 C1513 0.929 . S
H1572 C1514 0.959 . S
H1573 C1514 0.961 . S
H1574 C1514 0.961 . S
H1575 C1515 0.960 . S
H1576 C1515 0.960 . S
H1577 C1515 0.961 . S
H1578 C1517 0.980 1_565 S
H1579 C1516 0.961 1_565 S
H1580 C1516 0.960 . S
H1581 C1516 0.959 . S
H1582 C1519 0.930 1_565 S
H1583 C1523 0.931 . S
H1584 C1524 0.959 . S
H1585 C1524 0.961 . S
H1586 C1524 0.959 . S
H1587 C1525 0.960 . S
H1588 C1525 0.960 . S
H1589 C1525 0.960 . S
H1590 C1561 0.980 . S
H1591 C1527 0.930 1_565 S
H1592 C1531 0.930 . S
H1593 C1532 0.961 . S
H1594 C1532 0.960 . S
H1595 C1532 0.958 . S
H1596 C1533 0.961 . S
H1597 C1533 0.960 . S
H1598 C1533 0.960 . S
H1599 C1535 1.011 . S
H1600 C1534 0.961 . S
H1601 C1534 0.961 . S
H1602 C1534 0.959 . S
H1603 C1537 0.932 . S
H1604 C1541 0.929 . S
H1605 C1542 0.961 . S
H1606 C1542 0.959 . S
H1607 C1542 0.959 . S
H1608 C1543 0.960 . S
H1609 C1543 0.962 . S
H1610 C1543 0.961 . S
H1611 C1545 0.929 . S
H1612 C1548 0.930 . S
H1613 C1549 0.929 . S
H1614 C1552 0.930 . S
H1615 C1555 0.929 . S
H1616 C1556 0.930 . S
H1617 C1560 0.962 . S
H1618 C1560 0.959 . S
H1619 C1560 0.958 . S
C1620 C1621 1.560 . S
C1620 H1681 0.959 . S
C1620 H1682 0.959 . S
C1620 H1683 0.960 . S
C1621 C1620 1.560 . S
C1621 O1676 1.426 . S
C1621 H1680 0.980 1_565 S
C1622 C1623 1.407 1_565 S
C1622 C1627 1.418 . S
C1622 O1676 1.334 . S
C1623 C1622 1.407 1_545 S
C1623 C1624 1.360 . S
C1623 H1684 0.929 . S
C1624 C1623 1.360 . S
C1624 C1625 1.401 . S
C1624 C1628 1.527 . S
C1625 C1624 1.401 . S
C1625 C1626 1.405 1_545 S
C1625 C1658 1.587 . S
C1626 C1625 1.405 1_565 S
C1626 C1627 1.332 . S
C1626 C1629 1.496 . S
C1627 C1622 1.418 . S
C1627 C1626 1.332 . S
C1627 H1685 0.929 . S
C1628 C1624 1.527 . S
C1628 H1686 0.959 . S
C1628 H1687 0.961 . S
C1628 H1688 0.961 . S
C1629 C1626 1.496 . S
C1629 H1689 0.960 . S
C1629 H1690 0.960 . S
C1629 H1691 0.961 . S
C1630 C1631 1.517 . S
C1630 H1693 0.961 . S
C1630 H1694 0.960 . S
C1630 H1695 0.959 . S
C1631 C1630 1.517 . S
C1631 O1679 1.468 . S
C1631 H1692 0.980 . S
C1632 C1633 1.349 . S
C1632 C1637 1.367 . S
C1632 O1679 1.408 . S
C1633 C1632 1.349 . S
C1633 C1634 1.407 . S
C1633 H1696 0.911 1_545 S
C1634 C1633 1.407 . S
C1634 C1635 1.449 . S
C1634 C1638 1.535 1_545 S
C1635 C1634 1.449 . S
C1635 C1636 1.384 . S
C1635 C1660 1.553 . S
C1636 C1635 1.384 . S
C1636 C1637 1.364 . S
C1636 C1639 1.450 . S
C1637 C1632 1.367 . S
C1637 C1636 1.364 . S
C1637 H1697 0.931 . S
C1638 C1634 1.535 1_565 S
C1638 H1698 0.959 . S
C1638 H1699 0.961 . S
C1638 H1700 0.959 . S
C1639 C1636 1.450 . S
C1639 H1701 0.960 . S
C1639 H1702 0.960 . S
C1639 H1703 0.960 . S
C1640 C1641 1.309 1_545 S
C1640 C1645 1.304 . S
C1640 O1678 1.435 . S
C1641 C1640 1.309 1_565 S
C1641 C1642 1.476 . S
C1641 H1705 0.930 . S
C1642 C1641 1.476 . S
C1642 C1643 1.400 1_565 S
C1642 C1646 1.567 . S
C1643 C1642 1.400 1_545 S
C1643 C1644 1.373 . S
C1643 C1665 1.432 . S
C1644 C1643 1.373 . S
C1644 C1645 1.339 . S
C1644 C1647 1.530 . S
C1645 C1640 1.304 . S
C1645 C1644 1.339 . S
C1645 H1706 0.930 . S
C1646 C1642 1.567 . S
C1646 H1707 0.961 . S
C1646 H1708 0.960 . S
C1646 H1709 0.958 . S
C1647 C1644 1.530 . S
C1647 H1710 0.961 . S
C1647 H1711 0.960 . S
C1647 H1712 0.960 . S
C1648 C1649 1.530 . S
C1648 H1714 0.961 . S
C1648 H1715 0.961 . S
C1648 H1716 0.959 . S
C1649 C1648 1.530 . S
C1649 O1677 1.412 . S
C1649 H1713 0.980 . S
C1650 C1651 1.288 . S
C1650 C1655 1.377 1_565 S
C1650 O1677 1.393 . S
C1651 C1650 1.288 . S
C1651 C1652 1.369 . S
C1651 H1717 0.932 . S
C1652 C1651 1.369 . S
C1652 C1653 1.398 . S
C1652 C1656 1.527 . S
C1653 C1652 1.398 . S
C1653 C1654 1.380 1_565 S
C1653 C1667 1.497 1_565 S
C1654 C1653 1.380 1_545 S
C1654 C1655 1.383 . S
C1654 C1657 1.603 . S
C1655 C1650 1.377 1_545 S
C1655 C1654 1.383 . S
C1655 H1718 0.929 . S
C1656 C1652 1.527 . S
C1656 H1719 0.961 . S
C1656 H1720 0.959 . S
C1656 H1721 0.959 . S
C1657 C1654 1.603 . S
C1657 H1722 0.960 . S
C1657 H1723 0.962 . S
C1657 H1724 0.961 . S
C1658 C1625 1.587 . S
C1658 C1659 1.360 . S
C1658 C1671 1.412 . S
C1659 C1658 1.360 . S
C1659 C1660 1.365 . S
C1659 H1725 0.929 . S
C1660 C1635 1.553 . S
C1660 C1659 1.365 . S
C1660 C1661 1.404 . S
C1661 C1660 1.404 . S
C1661 C1662 1.395 . S
C1661 C1672 1.451 . S
C1662 C1661 1.395 . S
C1662 C1663 1.322 . S
C1662 H1726 0.930 . S
C1663 C1662 1.322 . S
C1663 C1664 1.459 . S
C1663 H1727 0.929 . S
C1664 C1663 1.459 . S
C1664 C1665 1.445 . S
C1664 C1673 1.395 . S
C1665 C1643 1.432 . S
C1665 C1664 1.445 . S
C1665 C1666 1.370 . S
C1666 C1665 1.370 . S
C1666 C1667 1.438 . S
C1666 H1728 0.930 . S
C1667 C1653 1.497 1_545 S
C1667 C1666 1.438 . S
C1667 C1668 1.360 . S
C1668 C1667 1.360 . S
C1668 C1669 1.401 . S
C1668 C1673 1.446 . S
C1669 C1668 1.401 . S
C1669 C1670 1.347 . S
C1669 H1729 0.929 . S
C1670 C1669 1.347 . S
C1670 C1671 1.455 . S
C1670 H1730 0.930 . S
C1671 C1658 1.412 . S
C1671 C1670 1.455 . S
C1671 C1672 1.331 . S
C1672 C1661 1.451 . S
C1672 C1671 1.331 . S
C1672 C1673 1.497 . S
C1673 C1664 1.395 . S
C1673 C1668 1.446 . S
C1673 C1672 1.497 . S
C1674 C1675 1.582 . S
C1674 H1731 0.962 . S
C1674 H1732 0.959 . S
C1674 H1733 0.958 . S
C1675 C1674 1.582 . S
C1675 O1678 1.458 . S
C1675 H1704 0.980 1_545 S
O1676 C1621 1.426 . S
O1676 C1622 1.334 . S
O1677 C1649 1.412 . S
O1677 C1650 1.393 . S
O1678 C1640 1.435 . S
O1678 C1675 1.458 . S
O1679 C1631 1.468 . S
O1679 C1632 1.408 . S
H1680 C1621 0.980 1_545 S
H1681 C1620 0.959 . S
H1682 C1620 0.959 . S
H1683 C1620 0.960 . S
H1684 C1623 0.929 . S
H1685 C1627 0.929 . S
H1686 C1628 0.959 . S
H1687 C1628 0.961 . S
H1688 C1628 0.961 . S
H1689 C1629 0.960 . S
H1690 C1629 0.960 . S
H1691 C1629 0.961 . S
H1692 C1631 0.980 . S
H1693 C1630 0.961 . S
H1694 C1630 0.960 . S
H1695 C1630 0.959 . S
H1696 C1633 0.911 1_565 S
H1697 C1637 0.931 . S
H1698 C1638 0.959 . S
H1699 C1638 0.961 . S
H1700 C1638 0.959 . S
H1701 C1639 0.960 . S
H1702 C1639 0.960 . S
H1703 C1639 0.960 . S
H1704 C1675 0.980 1_565 S
H1705 C1641 0.930 . S
H1706 C1645 0.930 . S
H1707 C1646 0.961 . S
H1708 C1646 0.960 . S
H1709 C1646 0.958 . S
H1710 C1647 0.961 . S
H1711 C1647 0.960 . S
H1712 C1647 0.960 . S
H1713 C1649 0.980 . S
H1714 C1648 0.961 . S
H1715 C1648 0.961 . S
H1716 C1648 0.959 . S
H1717 C1651 0.932 . S
H1718 C1655 0.929 . S
H1719 C1656 0.961 . S
H1720 C1656 0.959 . S
H1721 C1656 0.959 . S
H1722 C1657 0.960 . S
H1723 C1657 0.962 . S
H1724 C1657 0.961 . S
H1725 C1659 0.929 . S
H1726 C1662 0.930 . S
H1727 C1663 0.929 . S
H1728 C1666 0.930 . S
H1729 C1669 0.929 . S
H1730 C1670 0.930 . S
H1731 C1674 0.962 . S
H1732 C1674 0.959 . S
H1733 C1674 0.958 . S
C1734 C1735 1.560 . S
C1734 H1795 0.959 . S
C1734 H1796 0.959 . S
C1734 H1797 0.960 . S
C1735 C1734 1.560 . S
C1735 O1790 1.426 . S
C1735 H1794 0.980 1_455 S
C1736 C1737 1.407 1_455 S
C1736 C1741 1.418 . S
C1736 O1790 1.334 . S
C1737 C1736 1.407 1_655 S
C1737 C1738 1.360 . S
C1737 H1798 0.929 . S
C1738 C1737 1.360 . S
C1738 C1739 1.401 . S
C1738 C1742 1.527 . S
C1739 C1738 1.401 . S
C1739 C1740 1.405 1_655 S
C1739 C1772 1.587 . S
C1740 C1739 1.405 1_455 S
C1740 C1741 1.332 . S
C1740 C1743 1.496 . S
C1741 C1736 1.418 . S
C1741 C1740 1.332 . S
C1741 H1799 0.929 . S
C1742 C1738 1.527 . S
C1742 H1800 0.959 . S
C1742 H1801 0.961 . S
C1742 H1802 0.961 . S
C1743 C1740 1.496 . S
C1743 H1803 0.960 . S
C1743 H1804 0.960 . S
C1743 H1805 0.961 . S
C1744 C1745 1.517 . S
C1744 H1807 0.961 . S
C1744 H1808 0.960 . S
C1744 H1809 0.959 . S
C1745 C1744 1.517 . S
C1745 O1793 1.468 . S
C1745 H1806 0.980 . S
C1746 C1747 1.349 . S
C1746 C1751 1.367 . S
C1746 O1793 1.408 . S
C1747 C1746 1.349 . S
C1747 C1748 1.407 . S
C1747 H1810 0.884 1_655 S
C1748 C1747 1.407 . S
C1748 C1749 1.449 . S
C1748 C1752 1.535 1_655 S
C1749 C1748 1.449 . S
C1749 C1750 1.384 . S
C1749 C1774 1.553 . S
C1750 C1749 1.384 . S
C1750 C1751 1.364 . S
C1750 C1753 1.450 . S
C1751 C1746 1.367 . S
C1751 C1750 1.364 . S
C1751 H1811 0.931 . S
C1752 C1748 1.535 1_455 S
C1752 H1812 0.959 . S
C1752 H1813 0.961 . S
C1752 H1814 0.959 . S
C1753 C1750 1.450 . S
C1753 H1815 0.960 . S
C1753 H1816 0.960 . S
C1753 H1817 0.960 . S
C1754 C1755 1.309 1_655 S
C1754 C1759 1.304 . S
C1754 O1792 1.435 . S
C1755 C1754 1.309 1_455 S
C1755 C1756 1.476 . S
C1755 H1819 0.930 . S
C1756 C1755 1.476 . S
C1756 C1757 1.400 1_455 S
C1756 C1760 1.567 . S
C1757 C1756 1.400 1_655 S
C1757 C1758 1.373 . S
C1757 C1779 1.432 . S
C1758 C1757 1.373 . S
C1758 C1759 1.339 . S
C1758 C1761 1.530 . S
C1759 C1754 1.304 . S
C1759 C1758 1.339 . S
C1759 H1820 0.930 . S
C1760 C1756 1.567 . S
C1760 H1821 0.961 . S
C1760 H1822 0.960 . S
C1760 H1823 0.958 . S
C1761 C1758 1.530 . S
C1761 H1824 0.961 . S
C1761 H1825 0.960 . S
C1761 H1826 0.960 . S
C1762 C1763 1.530 . S
C1762 H1828 0.961 . S
C1762 H1829 0.961 . S
C1762 H1830 0.959 . S
C1763 C1762 1.530 . S
C1763 O1791 1.412 . S
C1763 H1827 0.978 1_455 S
C1764 C1765 1.288 . S
C1764 C1769 1.377 1_455 S
C1764 O1791 1.393 . S
C1765 C1764 1.288 . S
C1765 C1766 1.369 . S
C1765 H1831 0.932 . S
C1766 C1765 1.369 . S
C1766 C1767 1.398 . S
C1766 C1770 1.527 . S
C1767 C1766 1.398 . S
C1767 C1768 1.380 1_455 S
C1767 C1781 1.497 1_455 S
C1768 C1767 1.380 1_655 S
C1768 C1769 1.383 . S
C1768 C1771 1.603 . S
C1769 C1764 1.377 1_655 S
C1769 C1768 1.383 . S
C1769 H1832 0.929 . S
C1770 C1766 1.527 . S
C1770 H1833 0.961 . S
C1770 H1834 0.959 . S
C1770 H1835 0.959 . S
C1771 C1768 1.603 . S
C1771 H1836 0.960 . S
C1771 H1837 0.962 . S
C1771 H1838 0.961 . S
C1772 C1739 1.587 . S
C1772 C1773 1.360 . S
C1772 C1785 1.412 . S
C1773 C1772 1.360 . S
C1773 C1774 1.365 . S
C1773 H1839 0.929 . S
C1774 C1749 1.553 . S
C1774 C1773 1.365 . S
C1774 C1775 1.404 . S
C1775 C1774 1.404 . S
C1775 C1776 1.395 . S
C1775 C1786 1.451 . S
C1776 C1775 1.395 . S
C1776 C1777 1.322 . S
C1776 H1840 0.930 . S
C1777 C1776 1.322 . S
C1777 C1778 1.459 . S
C1777 H1841 0.929 . S
C1778 C1777 1.459 . S
C1778 C1779 1.445 . S
C1778 C1787 1.395 . S
C1779 C1757 1.432 . S
C1779 C1778 1.445 . S
C1779 C1780 1.370 . S
C1780 C1779 1.370 . S
C1780 C1781 1.438 . S
C1780 H1842 0.930 . S
C1781 C1767 1.497 1_655 S
C1781 C1780 1.438 . S
C1781 C1782 1.360 . S
C1782 C1781 1.360 . S
C1782 C1783 1.401 . S
C1782 C1787 1.446 . S
C1783 C1782 1.401 . S
C1783 C1784 1.347 . S
C1783 H1843 0.929 . S
C1784 C1783 1.347 . S
C1784 C1785 1.455 . S
C1784 H1844 0.930 . S
C1785 C1772 1.412 . S
C1785 C1784 1.455 . S
C1785 C1786 1.331 . S
C1786 C1775 1.451 . S
C1786 C1785 1.331 . S
C1786 C1787 1.497 . S
C1787 C1778 1.395 . S
C1787 C1782 1.446 . S
C1787 C1786 1.497 . S
C1788 C1789 1.582 . S
C1788 H1845 0.962 . S
C1788 H1846 0.959 . S
C1788 H1847 0.958 . S
C1789 C1788 1.582 . S
C1789 O1792 1.458 . S
C1789 H1818 0.980 1_655 S
O1790 C1735 1.426 . S
O1790 C1736 1.334 . S
O1791 C1763 1.412 . S
O1791 C1764 1.393 . S
O1792 C1754 1.435 . S
O1792 C1789 1.458 . S
O1793 C1745 1.468 . S
O1793 C1746 1.408 . S
H1794 C1735 0.980 1_655 S
H1795 C1734 0.959 . S
H1796 C1734 0.959 . S
H1797 C1734 0.960 . S
H1798 C1737 0.929 . S
H1799 C1741 0.929 . S
H1800 C1742 0.959 . S
H1801 C1742 0.961 . S
H1802 C1742 0.961 . S
H1803 C1743 0.960 . S
H1804 C1743 0.960 . S
H1805 C1743 0.961 . S
H1806 C1745 0.980 . S
H1807 C1744 0.961 . S
H1808 C1744 0.960 . S
H1809 C1744 0.959 . S
H1810 C1747 0.884 1_455 S
H1811 C1751 0.931 . S
H1812 C1752 0.959 . S
H1813 C1752 0.961 . S
H1814 C1752 0.959 . S
H1815 C1753 0.960 . S
H1816 C1753 0.960 . S
H1817 C1753 0.960 . S
H1818 C1789 0.980 1_455 S
H1819 C1755 0.930 . S
H1820 C1759 0.930 . S
H1821 C1760 0.961 . S
H1822 C1760 0.960 . S
H1823 C1760 0.958 . S
H1824 C1761 0.961 . S
H1825 C1761 0.960 . S
H1826 C1761 0.960 . S
H1827 C1763 0.978 1_655 S
H1828 C1762 0.961 . S
H1829 C1762 0.961 . S
H1830 C1762 0.959 . S
H1831 C1765 0.932 . S
H1832 C1769 0.929 . S
H1833 C1770 0.961 . S
H1834 C1770 0.959 . S
H1835 C1770 0.959 . S
H1836 C1771 0.960 . S
H1837 C1771 0.962 . S
H1838 C1771 0.961 . S
H1839 C1773 0.929 . S
H1840 C1776 0.930 . S
H1841 C1777 0.929 . S
H1842 C1780 0.930 . S
H1843 C1783 0.929 . S
H1844 C1784 0.930 . S
H1845 C1788 0.962 . S
H1846 C1788 0.959 . S
H1847 C1788 0.958 . S
C1848 C1849 1.560 . S
C1848 H1909 0.959 . S
C1848 H1910 0.959 . S
C1848 H1911 0.960 . S
C1849 C1848 1.560 . S
C1849 O1904 1.426 . S
C1849 H1908 0.980 . S
C1850 C1851 1.407 . S
C1850 C1855 1.418 . S
C1850 O1904 1.334 . S
C1851 C1850 1.407 . S
C1851 C1852 1.360 . S
C1851 H1912 0.929 . S
C1852 C1851 1.360 . S
C1852 C1853 1.401 . S
C1852 C1856 1.527 . S
C1853 C1852 1.401 . S
C1853 C1854 1.405 . S
C1853 C1886 1.587 . S
C1854 C1853 1.405 . S
C1854 C1855 1.332 . S
C1854 C1857 1.496 . S
C1855 C1850 1.418 . S
C1855 C1854 1.332 . S
C1855 H1913 0.929 . S
C1856 C1852 1.527 . S
C1856 H1914 0.959 . S
C1856 H1915 0.961 . S
C1856 H1916 0.961 . S
C1857 C1854 1.496 . S
C1857 H1917 0.960 . S
C1857 H1918 0.960 . S
C1857 H1919 0.961 . S
C1858 C1859 1.517 . S
C1858 H1921 0.961 . S
C1858 H1922 0.960 . S
C1858 H1923 0.959 . S
C1859 C1858 1.517 . S
C1859 O1907 1.468 . S
C1859 H1920 0.980 . S
C1860 C1861 1.349 . S
C1860 C1865 1.367 . S
C1860 O1907 1.408 . S
C1861 C1860 1.349 . S
C1861 C1862 1.407 . S
C1861 H1924 0.930 . S
C1862 C1861 1.407 . S
C1862 C1863 1.449 . S
C1862 C1866 1.535 . S
C1863 C1862 1.449 . S
C1863 C1864 1.384 . S
C1863 C1888 1.553 . S
C1864 C1863 1.384 . S
C1864 C1865 1.364 . S
C1864 C1867 1.450 . S
C1865 C1860 1.367 . S
C1865 C1864 1.364 . S
C1865 H1925 0.931 . S
C1866 C1862 1.535 . S
C1866 H1926 0.959 . S
C1866 H1927 0.961 . S
C1866 H1928 0.959 . S
C1867 C1864 1.450 . S
C1867 H1929 0.960 . S
C1867 H1930 0.960 . S
C1867 H1931 0.960 . S
C1868 C1869 1.309 . S
C1868 C1873 1.304 . S
C1868 O1906 1.435 . S
C1869 C1868 1.309 . S
C1869 C1870 1.476 . S
C1869 H1933 0.930 . S
C1870 C1869 1.476 . S
C1870 C1871 1.400 . S
C1870 C1874 1.567 . S
C1871 C1870 1.400 . S
C1871 C1872 1.373 . S
C1871 C1893 1.432 . S
C1872 C1871 1.373 . S
C1872 C1873 1.339 . S
C1872 C1875 1.530 . S
C1873 C1868 1.304 . S
C1873 C1872 1.339 . S
C1873 H1934 0.930 . S
C1874 C1870 1.567 . S
C1874 H1935 0.961 . S
C1874 H1936 0.960 . S
C1874 H1937 0.958 . S
C1875 C1872 1.530 . S
C1875 H1938 0.961 . S
C1875 H1939 0.960 . S
C1875 H1940 0.960 . S
C1876 C1877 1.530 . S
C1876 H1942 0.961 . S
C1876 H1943 0.961 . S
C1876 H1944 0.959 . S
C1877 C1876 1.530 . S
C1877 O1905 1.412 . S
C1877 H1941 0.980 . S
C1878 C1879 1.288 . S
C1878 C1883 1.377 . S
C1878 O1905 1.393 . S
C1879 C1878 1.288 . S
C1879 C1880 1.369 . S
C1879 H1945 0.932 . S
C1880 C1879 1.369 . S
C1880 C1881 1.398 . S
C1880 C1884 1.527 . S
C1881 C1880 1.398 . S
C1881 C1882 1.380 . S
C1881 C1895 1.497 . S
C1882 C1881 1.380 . S
C1882 C1883 1.383 . S
C1882 C1885 1.603 . S
C1883 C1878 1.377 . S
C1883 C1882 1.383 . S
C1883 H1946 0.929 . S
C1884 C1880 1.527 . S
C1884 H1947 0.961 . S
C1884 H1948 0.959 . S
C1884 H1949 0.959 . S
C1885 C1882 1.603 . S
C1885 H1950 0.960 . S
C1885 H1951 0.962 . S
C1885 H1952 0.961 . S
C1886 C1853 1.587 . S
C1886 C1887 1.360 . S
C1886 C1899 1.412 . S
C1887 C1886 1.360 . S
C1887 C1888 1.365 . S
C1887 H1953 0.929 . S
C1888 C1863 1.553 . S
C1888 C1887 1.365 . S
C1888 C1889 1.404 . S
C1889 C1888 1.404 . S
C1889 C1890 1.395 . S
C1889 C1900 1.451 . S
C1890 C1889 1.395 . S
C1890 C1891 1.322 . S
C1890 H1954 0.930 . S
C1891 C1890 1.322 . S
C1891 C1892 1.459 . S
C1891 H1955 0.929 . S
C1892 C1891 1.459 . S
C1892 C1893 1.445 . S
C1892 C1901 1.395 . S
C1893 C1871 1.432 . S
C1893 C1892 1.445 . S
C1893 C1894 1.370 . S
C1894 C1893 1.370 . S
C1894 C1895 1.438 . S
C1894 H1956 0.930 . S
C1895 C1881 1.497 . S
C1895 C1894 1.438 . S
C1895 C1896 1.360 . S
C1896 C1895 1.360 . S
C1896 C1897 1.401 . S
C1896 C1901 1.446 . S
C1897 C1896 1.401 . S
C1897 C1898 1.347 . S
C1897 H1957 0.929 . S
C1898 C1897 1.347 . S
C1898 C1899 1.455 . S
C1898 H1958 0.930 . S
C1899 C1886 1.412 . S
C1899 C1898 1.455 . S
C1899 C1900 1.331 . S
C1900 C1889 1.451 . S
C1900 C1899 1.331 . S
C1900 C1901 1.497 . S
C1901 C1892 1.395 . S
C1901 C1896 1.446 . S
C1901 C1900 1.497 . S
C1902 C1903 1.582 . S
C1902 H1959 0.962 . S
C1902 H1960 0.959 . S
C1902 H1961 0.958 . S
C1903 C1902 1.582 . S
C1903 O1906 1.458 . S
C1903 H1932 0.980 . S
O1904 C1849 1.426 . S
O1904 C1850 1.334 . S
O1905 C1877 1.412 . S
O1905 C1878 1.393 . S
O1906 C1868 1.435 . S
O1906 C1903 1.458 . S
O1907 C1859 1.468 . S
O1907 C1860 1.408 . S
H1908 C1849 0.980 . S
H1909 C1848 0.959 . S
H1910 C1848 0.959 . S
H1911 C1848 0.960 . S
H1912 C1851 0.929 . S
H1913 C1855 0.929 . S
H1914 C1856 0.959 . S
H1915 C1856 0.961 . S
H1916 C1856 0.961 . S
H1917 C1857 0.960 . S
H1918 C1857 0.960 . S
H1919 C1857 0.961 . S
H1920 C1859 0.980 . S
H1921 C1858 0.961 . S
H1922 C1858 0.960 . S
H1923 C1858 0.959 . S
H1924 C1861 0.930 . S
H1925 C1865 0.931 . S
H1926 C1866 0.959 . S
H1927 C1866 0.961 . S
H1928 C1866 0.959 . S
H1929 C1867 0.960 . S
H1930 C1867 0.960 . S
H1931 C1867 0.960 . S
H1932 C1903 0.980 . S
H1933 C1869 0.930 . S
H1934 C1873 0.930 . S
H1935 C1874 0.961 . S
H1936 C1874 0.960 . S
H1937 C1874 0.958 . S
H1938 C1875 0.961 . S
H1939 C1875 0.960 . S
H1940 C1875 0.960 . S
H1941 C1877 0.980 . S
H1942 C1876 0.961 . S
H1943 C1876 0.961 . S
H1944 C1876 0.959 . S
H1945 C1879 0.932 . S
H1946 C1883 0.929 . S
H1947 C1884 0.961 . S
H1948 C1884 0.959 . S
H1949 C1884 0.959 . S
H1950 C1885 0.960 . S
H1951 C1885 0.962 . S
H1952 C1885 0.961 . S
H1953 C1887 0.929 . S
H1954 C1890 0.930 . S
H1955 C1891 0.929 . S
H1956 C1894 0.930 . S
H1957 C1897 0.929 . S
H1958 C1898 0.930 . S
H1959 C1902 0.962 . S
H1960 C1902 0.959 . S
H1961 C1902 0.958 . S
C1962 C1963 1.560 . S
C1962 H2023 0.959 . S
C1962 H2024 0.959 . S
C1962 H2025 0.960 . S
C1963 C1962 1.560 . S
C1963 O2018 1.426 . S
C1963 H2022 0.980 . S
C1964 C1965 1.407 . S
C1964 C1969 1.418 . S
C1964 O2018 1.334 . S
C1965 C1964 1.407 . S
C1965 C1966 1.360 . S
C1965 H2026 0.929 . S
C1966 C1965 1.360 . S
C1966 C1967 1.401 . S
C1966 C1970 1.527 . S
C1967 C1966 1.401 . S
C1967 C1968 1.405 . S
C1967 C2000 1.587 . S
C1968 C1967 1.405 . S
C1968 C1969 1.332 . S
C1968 C1971 1.496 . S
C1969 C1964 1.418 . S
C1969 C1968 1.332 . S
C1969 H2027 0.929 . S
C1970 C1966 1.527 . S
C1970 H2028 0.959 . S
C1970 H2029 0.961 . S
C1970 H2030 0.961 . S
C1971 C1968 1.496 . S
C1971 H2031 0.960 . S
C1971 H2032 0.960 . S
C1971 H2033 0.961 . S
C1972 C1973 1.517 . S
C1972 H2035 0.961 . S
C1972 H2036 0.960 . S
C1972 H2037 0.959 . S
C1973 C1972 1.517 . S
C1973 O2021 1.468 . S
C1973 H2034 0.980 . S
C1974 C1975 1.349 . S
C1974 C1979 1.367 . S
C1974 O2021 1.408 . S
C1975 C1974 1.349 . S
C1975 C1976 1.407 . S
C1975 H2038 0.930 . S
C1976 C1975 1.407 . S
C1976 C1977 1.449 . S
C1976 C1980 1.535 . S
C1977 C1976 1.449 . S
C1977 C1978 1.384 . S
C1977 C2002 1.553 . S
C1978 C1977 1.384 . S
C1978 C1979 1.364 . S
C1978 C1981 1.450 . S
C1979 C1974 1.367 . S
C1979 C1978 1.364 . S
C1979 H2039 0.931 . S
C1980 C1976 1.535 . S
C1980 H2040 0.959 . S
C1980 H2041 0.961 . S
C1980 H2042 0.959 . S
C1981 C1978 1.450 . S
C1981 H2043 0.960 . S
C1981 H2044 0.960 . S
C1981 H2045 0.960 . S
C1982 C1983 1.309 . S
C1982 C1987 1.304 . S
C1982 O2020 1.435 . S
C1983 C1982 1.309 . S
C1983 C1984 1.476 . S
C1983 H2047 0.930 . S
C1984 C1983 1.476 . S
C1984 C1985 1.400 . S
C1984 C1988 1.567 . S
C1985 C1984 1.400 . S
C1985 C1986 1.373 . S
C1985 C2007 1.432 . S
C1986 C1985 1.373 . S
C1986 C1987 1.339 . S
C1986 C1989 1.530 . S
C1987 C1982 1.304 . S
C1987 C1986 1.339 . S
C1987 H2048 0.930 . S
C1988 C1984 1.567 . S
C1988 H2049 0.961 . S
C1988 H2050 0.960 . S
C1988 H2051 0.958 . S
C1989 C1986 1.530 . S
C1989 H2052 0.961 . S
C1989 H2053 0.960 . S
C1989 H2054 0.960 . S
C1990 C1991 1.530 . S
C1990 H2056 0.961 . S
C1990 H2057 0.961 . S
C1990 H2058 0.959 . S
C1991 C1990 1.530 . S
C1991 O2019 1.412 . S
C1991 H2055 0.980 . S
C1992 C1993 1.288 . S
C1992 C1997 1.377 . S
C1992 O2019 1.393 . S
C1993 C1992 1.288 . S
C1993 C1994 1.369 . S
C1993 H2059 0.932 . S
C1994 C1993 1.369 . S
C1994 C1995 1.398 . S
C1994 C1998 1.527 . S
C1995 C1994 1.398 . S
C1995 C1996 1.380 . S
C1995 C2009 1.497 . S
C1996 C1995 1.380 . S
C1996 C1997 1.383 . S
C1996 C1999 1.603 . S
C1997 C1992 1.377 . S
C1997 C1996 1.383 . S
C1997 H2060 0.929 . S
C1998 C1994 1.527 . S
C1998 H2061 0.961 . S
C1998 H2062 0.959 . S
C1998 H2063 0.959 . S
C1999 C1996 1.603 . S
C1999 H2064 0.960 . S
C1999 H2065 0.962 . S
C1999 H2066 0.961 . S
C2000 C1967 1.587 . S
C2000 C2001 1.360 . S
C2000 C2013 1.412 . S
C2001 C2000 1.360 . S
C2001 C2002 1.365 . S
C2001 H2067 0.929 . S
C2002 C1977 1.553 . S
C2002 C2001 1.365 . S
C2002 C2003 1.404 . S
C2003 C2002 1.404 . S
C2003 C2004 1.395 . S
C2003 C2014 1.451 . S
C2004 C2003 1.395 . S
C2004 C2005 1.322 . S
C2004 H2068 0.930 . S
C2005 C2004 1.322 . S
C2005 C2006 1.459 . S
C2005 H2069 0.929 . S
C2006 C2005 1.459 . S
C2006 C2007 1.445 . S
C2006 C2015 1.395 . S
C2007 C1985 1.432 . S
C2007 C2006 1.445 . S
C2007 C2008 1.370 . S
C2008 C2007 1.370 . S
C2008 C2009 1.438 . S
C2008 H2070 0.930 . S
C2009 C1995 1.497 . S
C2009 C2008 1.438 . S
C2009 C2010 1.360 . S
C2010 C2009 1.360 . S
C2010 C2011 1.401 . S
C2010 C2015 1.446 . S
C2011 C2010 1.401 . S
C2011 C2012 1.347 . S
C2011 H2071 0.929 . S
C2012 C2011 1.347 . S
C2012 C2013 1.455 . S
C2012 H2072 0.930 . S
C2013 C2000 1.412 . S
C2013 C2012 1.455 . S
C2013 C2014 1.331 . S
C2014 C2003 1.451 . S
C2014 C2013 1.331 . S
C2014 C2015 1.497 . S
C2015 C2006 1.395 . S
C2015 C2010 1.446 . S
C2015 C2014 1.497 . S
C2016 C2017 1.582 . S
C2016 H2073 0.962 . S
C2016 H2074 0.959 . S
C2016 H2075 0.958 . S
C2017 C2016 1.582 . S
C2017 O2020 1.458 . S
C2017 H2046 0.980 . S
O2018 C1963 1.426 . S
O2018 C1964 1.334 . S
O2019 C1991 1.412 . S
O2019 C1992 1.393 . S
O2020 C1982 1.435 . S
O2020 C2017 1.458 . S
O2021 C1973 1.468 . S
O2021 C1974 1.408 . S
H2022 C1963 0.980 . S
H2023 C1962 0.959 . S
H2024 C1962 0.959 . S
H2025 C1962 0.960 . S
H2026 C1965 0.929 . S
H2027 C1969 0.929 . S
H2028 C1970 0.959 . S
H2029 C1970 0.961 . S
H2030 C1970 0.961 . S
H2031 C1971 0.960 . S
H2032 C1971 0.960 . S
H2033 C1971 0.961 . S
H2034 C1973 0.980 . S
H2035 C1972 0.961 . S
H2036 C1972 0.960 . S
H2037 C1972 0.959 . S
H2038 C1975 0.930 . S
H2039 C1979 0.931 . S
H2040 C1980 0.959 . S
H2041 C1980 0.961 . S
H2042 C1980 0.959 . S
H2043 C1981 0.960 . S
H2044 C1981 0.960 . S
H2045 C1981 0.960 . S
H2046 C2017 0.980 . S
H2047 C1983 0.930 . S
H2048 C1987 0.930 . S
H2049 C1988 0.961 . S
H2050 C1988 0.960 . S
H2051 C1988 0.958 . S
H2052 C1989 0.961 . S
H2053 C1989 0.960 . S
H2054 C1989 0.960 . S
H2055 C1991 0.980 . S
H2056 C1990 0.961 . S
H2057 C1990 0.961 . S
H2058 C1990 0.959 . S
H2059 C1993 0.932 . S
H2060 C1997 0.929 . S
H2061 C1998 0.961 . S
H2062 C1998 0.959 . S
H2063 C1998 0.959 . S
H2064 C1999 0.960 . S
H2065 C1999 0.962 . S
H2066 C1999 0.961 . S
H2067 C2001 0.929 . S
H2068 C2004 0.930 . S
H2069 C2005 0.929 . S
H2070 C2008 0.930 . S
H2071 C2011 0.929 . S
H2072 C2012 0.930 . S
H2073 C2016 0.962 . S
H2074 C2016 0.959 . S
H2075 C2016 0.958 . S
C2076 C2077 1.560 . S
C2076 H2137 0.959 . S
C2076 H2138 0.959 . S
C2076 H2139 0.960 . S
C2077 C2076 1.560 . S
C2077 O2132 1.426 . S
C2077 H2136 0.980 . S
C2078 C2079 1.407 . S
C2078 C2083 1.418 . S
C2078 O2132 1.334 . S
C2079 C2078 1.407 . S
C2079 C2080 1.360 . S
C2079 H2140 0.929 . S
C2080 C2079 1.360 . S
C2080 C2081 1.401 . S
C2080 C2084 1.527 . S
C2081 C2080 1.401 . S
C2081 C2082 1.405 . S
C2081 C2114 1.587 . S
C2082 C2081 1.405 . S
C2082 C2083 1.332 . S
C2082 C2085 1.496 . S
C2083 C2078 1.418 . S
C2083 C2082 1.332 . S
C2083 H2141 0.929 . S
C2084 C2080 1.527 . S
C2084 H2142 0.959 . S
C2084 H2143 0.961 . S
C2084 H2144 0.961 . S
C2085 C2082 1.496 . S
C2085 H2145 0.960 . S
C2085 H2146 0.960 . S
C2085 H2147 0.961 . S
C2086 C2087 1.517 . S
C2086 H2149 0.961 . S
C2086 H2150 0.960 . S
C2086 H2151 0.959 . S
C2087 C2086 1.517 . S
C2087 O2135 1.468 . S
C2087 H2148 0.980 . S
C2088 C2089 1.349 . S
C2088 C2093 1.367 . S
C2088 O2135 1.408 . S
C2089 C2088 1.349 . S
C2089 C2090 1.407 . S
C2089 H2152 0.930 . S
C2090 C2089 1.407 . S
C2090 C2091 1.449 . S
C2090 C2094 1.535 . S
C2091 C2090 1.449 . S
C2091 C2092 1.384 . S
C2091 C2116 1.553 . S
C2092 C2091 1.384 . S
C2092 C2093 1.364 . S
C2092 C2095 1.450 . S
C2093 C2088 1.367 . S
C2093 C2092 1.364 . S
C2093 H2153 0.931 . S
C2094 C2090 1.535 . S
C2094 H2154 0.959 . S
C2094 H2155 0.961 . S
C2094 H2156 0.959 . S
C2095 C2092 1.450 . S
C2095 H2157 0.960 . S
C2095 H2158 0.960 . S
C2095 H2159 0.960 . S
C2096 C2097 1.309 . S
C2096 C2101 1.304 . S
C2096 O2134 1.435 . S
C2097 C2096 1.309 . S
C2097 C2098 1.476 . S
C2097 H2161 0.930 . S
C2098 C2097 1.476 . S
C2098 C2099 1.400 . S
C2098 C2102 1.567 . S
C2099 C2098 1.400 . S
C2099 C2100 1.373 . S
C2099 C2121 1.432 . S
C2100 C2099 1.373 . S
C2100 C2101 1.339 . S
C2100 C2103 1.530 . S
C2101 C2096 1.304 . S
C2101 C2100 1.339 . S
C2101 H2162 0.930 . S
C2102 C2098 1.567 . S
C2102 H2163 0.961 . S
C2102 H2164 0.960 . S
C2102 H2165 0.958 . S
C2103 C2100 1.530 . S
C2103 H2166 0.961 . S
C2103 H2167 0.960 . S
C2103 H2168 0.960 . S
C2104 C2105 1.530 . S
C2104 H2170 0.961 . S
C2104 H2171 0.961 . S
C2104 H2172 0.959 . S
C2105 C2104 1.530 . S
C2105 O2133 1.412 . S
C2105 H2169 0.980 . S
C2106 C2107 1.288 . S
C2106 C2111 1.377 . S
C2106 O2133 1.393 . S
C2107 C2106 1.288 . S
C2107 C2108 1.369 . S
C2107 H2173 0.932 . S
C2108 C2107 1.369 . S
C2108 C2109 1.398 . S
C2108 C2112 1.527 . S
C2109 C2108 1.398 . S
C2109 C2110 1.380 . S
C2109 C2123 1.497 . S
C2110 C2109 1.380 . S
C2110 C2111 1.383 . S
C2110 C2113 1.603 . S
C2111 C2106 1.377 . S
C2111 C2110 1.383 . S
C2111 H2174 0.929 . S
C2112 C2108 1.527 . S
C2112 H2175 0.961 . S
C2112 H2176 0.959 . S
C2112 H2177 0.959 . S
C2113 C2110 1.603 . S
C2113 H2178 0.960 . S
C2113 H2179 0.962 . S
C2113 H2180 0.961 . S
C2114 C2081 1.587 . S
C2114 C2115 1.360 . S
C2114 C2127 1.412 . S
C2115 C2114 1.360 . S
C2115 C2116 1.365 . S
C2115 H2181 0.929 . S
C2116 C2091 1.553 . S
C2116 C2115 1.365 . S
C2116 C2117 1.404 . S
C2117 C2116 1.404 . S
C2117 C2118 1.395 . S
C2117 C2128 1.451 . S
C2118 C2117 1.395 . S
C2118 C2119 1.322 . S
C2118 H2182 0.930 . S
C2119 C2118 1.322 . S
C2119 C2120 1.459 . S
C2119 H2183 0.929 . S
C2120 C2119 1.459 . S
C2120 C2121 1.445 . S
C2120 C2129 1.395 . S
C2121 C2099 1.432 . S
C2121 C2120 1.445 . S
C2121 C2122 1.370 . S
C2122 C2121 1.370 . S
C2122 C2123 1.438 . S
C2122 H2184 0.930 . S
C2123 C2109 1.497 . S
C2123 C2122 1.438 . S
C2123 C2124 1.360 . S
C2124 C2123 1.360 . S
C2124 C2125 1.401 . S
C2124 C2129 1.446 . S
C2125 C2124 1.401 . S
C2125 C2126 1.347 . S
C2125 H2185 0.929 . S
C2126 C2125 1.347 . S
C2126 C2127 1.455 . S
C2126 H2186 0.930 . S
C2127 C2114 1.412 . S
C2127 C2126 1.455 . S
C2127 C2128 1.331 . S
C2128 C2117 1.451 . S
C2128 C2127 1.331 . S
C2128 C2129 1.497 . S
C2129 C2120 1.395 . S
C2129 C2124 1.446 . S
C2129 C2128 1.497 . S
C2130 C2131 1.582 . S
C2130 H2187 0.962 . S
C2130 H2188 0.959 . S
C2130 H2189 0.958 . S
C2131 C2130 1.582 . S
C2131 O2134 1.458 . S
C2131 H2160 0.980 . S
O2132 C2077 1.426 . S
O2132 C2078 1.334 . S
O2133 C2105 1.412 . S
O2133 C2106 1.393 . S
O2134 C2096 1.435 . S
O2134 C2131 1.458 . S
O2135 C2087 1.468 . S
O2135 C2088 1.408 . S
H2136 C2077 0.980 . S
H2137 C2076 0.959 . S
H2138 C2076 0.959 . S
H2139 C2076 0.960 . S
H2140 C2079 0.929 . S
H2141 C2083 0.929 . S
H2142 C2084 0.959 . S
H2143 C2084 0.961 . S
H2144 C2084 0.961 . S
H2145 C2085 0.960 . S
H2146 C2085 0.960 . S
H2147 C2085 0.961 . S
H2148 C2087 0.980 . S
H2149 C2086 0.961 . S
H2150 C2086 0.960 . S
H2151 C2086 0.959 . S
H2152 C2089 0.930 . S
H2153 C2093 0.931 . S
H2154 C2094 0.959 . S
H2155 C2094 0.961 . S
H2156 C2094 0.959 . S
H2157 C2095 0.960 . S
H2158 C2095 0.960 . S
H2159 C2095 0.960 . S
H2160 C2131 0.980 . S
H2161 C2097 0.930 . S
H2162 C2101 0.930 . S
H2163 C2102 0.961 . S
H2164 C2102 0.960 . S
H2165 C2102 0.958 . S
H2166 C2103 0.961 . S
H2167 C2103 0.960 . S
H2168 C2103 0.960 . S
H2169 C2105 0.980 . S
H2170 C2104 0.961 . S
H2171 C2104 0.961 . S
H2172 C2104 0.959 . S
H2173 C2107 0.932 . S
H2174 C2111 0.929 . S
H2175 C2112 0.961 . S
H2176 C2112 0.959 . S
H2177 C2112 0.959 . S
H2178 C2113 0.960 . S
H2179 C2113 0.962 . S
H2180 C2113 0.961 . S
H2181 C2115 0.929 . S
H2182 C2118 0.930 . S
H2183 C2119 0.929 . S
H2184 C2122 0.930 . S
H2185 C2125 0.929 . S
H2186 C2126 0.930 . S
H2187 C2130 0.962 . S
H2188 C2130 0.959 . S
H2189 C2130 0.958 . S
C2190 C2191 1.560 . S
C2190 H2251 0.959 . S
C2190 H2252 0.959 . S
C2190 H2253 0.960 . S
C2191 C2190 1.560 . S
C2191 O2246 1.426 . S
C2191 H2250 0.980 . S
C2192 C2193 1.407 . S
C2192 C2197 1.418 . S
C2192 O2246 1.334 . S
C2193 C2192 1.407 . S
C2193 C2194 1.360 . S
C2193 H2254 0.929 . S
C2194 C2193 1.360 . S
C2194 C2195 1.401 . S
C2194 C2198 1.527 . S
C2195 C2194 1.401 . S
C2195 C2196 1.405 . S
C2195 C2228 1.587 . S
C2196 C2195 1.405 . S
C2196 C2197 1.332 . S
C2196 C2199 1.496 . S
C2197 C2192 1.418 . S
C2197 C2196 1.332 . S
C2197 H2255 0.929 . S
C2198 C2194 1.527 . S
C2198 H2256 0.959 . S
C2198 H2257 0.961 . S
C2198 H2258 0.961 . S
C2199 C2196 1.496 . S
C2199 H2259 0.960 . S
C2199 H2260 0.960 . S
C2199 H2261 0.961 . S
C2200 C2201 1.517 . S
C2200 H2263 0.961 . S
C2200 H2264 0.960 . S
C2200 H2265 0.959 . S
C2201 C2200 1.517 . S
C2201 O2249 1.468 . S
C2201 H2262 0.980 . S
C2202 C2203 1.349 . S
C2202 C2207 1.367 . S
C2202 O2249 1.408 . S
C2203 C2202 1.349 . S
C2203 C2204 1.407 . S
C2203 H2266 0.930 . S
C2204 C2203 1.407 . S
C2204 C2205 1.449 . S
C2204 C2208 1.535 . S
C2205 C2204 1.449 . S
C2205 C2206 1.384 . S
C2205 C2230 1.553 . S
C2206 C2205 1.384 . S
C2206 C2207 1.364 . S
C2206 C2209 1.450 . S
C2207 C2202 1.367 . S
C2207 C2206 1.364 . S
C2207 H2267 0.931 . S
C2208 C2204 1.535 . S
C2208 H2268 0.959 . S
C2208 H2269 0.961 . S
C2208 H2270 0.959 . S
C2209 C2206 1.450 . S
C2209 H2271 0.960 . S
C2209 H2272 0.960 . S
C2209 H2273 0.960 . S
C2210 C2211 1.309 . S
C2210 C2215 1.304 . S
C2210 O2248 1.435 . S
C2211 C2210 1.309 . S
C2211 C2212 1.476 . S
C2211 H2275 0.930 . S
C2212 C2211 1.476 . S
C2212 C2213 1.400 . S
C2212 C2216 1.567 . S
C2213 C2212 1.400 . S
C2213 C2214 1.373 . S
C2213 C2235 1.432 . S
C2214 C2213 1.373 . S
C2214 C2215 1.339 . S
C2214 C2217 1.530 . S
C2215 C2210 1.304 . S
C2215 C2214 1.339 . S
C2215 H2276 0.930 . S
C2216 C2212 1.567 . S
C2216 H2277 0.961 . S
C2216 H2278 0.960 . S
C2216 H2279 0.958 . S
C2217 C2214 1.530 . S
C2217 H2280 0.961 . S
C2217 H2281 0.960 . S
C2217 H2282 0.960 . S
C2218 C2219 1.530 . S
C2218 H2284 0.961 . S
C2218 H2285 0.961 . S
C2218 H2286 0.959 . S
C2219 C2218 1.530 . S
C2219 O2247 1.412 . S
C2219 H2283 0.980 . S
C2220 C2221 1.288 . S
C2220 C2225 1.377 . S
C2220 O2247 1.393 . S
C2221 C2220 1.288 . S
C2221 C2222 1.369 . S
C2221 H2287 0.932 . S
C2222 C2221 1.369 . S
C2222 C2223 1.398 . S
C2222 C2226 1.527 . S
C2223 C2222 1.398 . S
C2223 C2224 1.380 . S
C2223 C2237 1.497 . S
C2224 C2223 1.380 . S
C2224 C2225 1.383 . S
C2224 C2227 1.603 . S
C2225 C2220 1.377 . S
C2225 C2224 1.383 . S
C2225 H2288 0.929 . S
C2226 C2222 1.527 . S
C2226 H2289 0.961 . S
C2226 H2290 0.959 . S
C2226 H2291 0.959 . S
C2227 C2224 1.603 . S
C2227 H2292 0.960 . S
C2227 H2293 0.962 . S
C2227 H2294 0.961 . S
C2228 C2195 1.587 . S
C2228 C2229 1.360 . S
C2228 C2241 1.412 . S
C2229 C2228 1.360 . S
C2229 C2230 1.365 . S
C2229 H2295 0.929 . S
C2230 C2205 1.553 . S
C2230 C2229 1.365 . S
C2230 C2231 1.404 . S
C2231 C2230 1.404 . S
C2231 C2232 1.395 . S
C2231 C2242 1.451 . S
C2232 C2231 1.395 . S
C2232 C2233 1.322 . S
C2232 H2296 0.930 . S
C2233 C2232 1.322 . S
C2233 C2234 1.459 . S
C2233 H2297 0.929 . S
C2234 C2233 1.459 . S
C2234 C2235 1.445 . S
C2234 C2243 1.395 . S
C2235 C2213 1.432 . S
C2235 C2234 1.445 . S
C2235 C2236 1.370 . S
C2236 C2235 1.370 . S
C2236 C2237 1.438 . S
C2236 H2298 0.930 . S
C2237 C2223 1.497 . S
C2237 C2236 1.438 . S
C2237 C2238 1.360 . S
C2238 C2237 1.360 . S
C2238 C2239 1.401 . S
C2238 C2243 1.446 . S
C2239 C2238 1.401 . S
C2239 C2240 1.347 . S
C2239 H2299 0.929 . S
C2240 C2239 1.347 . S
C2240 C2241 1.455 . S
C2240 H2300 0.930 . S
C2241 C2228 1.412 . S
C2241 C2240 1.455 . S
C2241 C2242 1.331 . S
C2242 C2231 1.451 . S
C2242 C2241 1.331 . S
C2242 C2243 1.497 . S
C2243 C2234 1.395 . S
C2243 C2238 1.446 . S
C2243 C2242 1.497 . S
C2244 C2245 1.582 . S
C2244 H2301 0.962 . S
C2244 H2302 0.959 . S
C2244 H2303 0.958 . S
C2245 C2244 1.582 . S
C2245 O2248 1.458 . S
C2245 H2274 0.980 . S
O2246 C2191 1.426 . S
O2246 C2192 1.334 . S
O2247 C2219 1.412 . S
O2247 C2220 1.393 . S
O2248 C2210 1.435 . S
O2248 C2245 1.458 . S
O2249 C2201 1.468 . S
O2249 C2202 1.408 . S
H2250 C2191 0.980 . S
H2251 C2190 0.959 . S
H2252 C2190 0.959 . S
H2253 C2190 0.960 . S
H2254 C2193 0.929 . S
H2255 C2197 0.929 . S
H2256 C2198 0.959 . S
H2257 C2198 0.961 . S
H2258 C2198 0.961 . S
H2259 C2199 0.960 . S
H2260 C2199 0.960 . S
H2261 C2199 0.961 . S
H2262 C2201 0.980 . S
H2263 C2200 0.961 . S
H2264 C2200 0.960 . S
H2265 C2200 0.959 . S
H2266 C2203 0.930 . S
H2267 C2207 0.931 . S
H2268 C2208 0.959 . S
H2269 C2208 0.961 . S
H2270 C2208 0.959 . S
H2271 C2209 0.960 . S
H2272 C2209 0.960 . S
H2273 C2209 0.960 . S
H2274 C2245 0.980 . S
H2275 C2211 0.930 . S
H2276 C2215 0.930 . S
H2277 C2216 0.961 . S
H2278 C2216 0.960 . S
H2279 C2216 0.958 . S
H2280 C2217 0.961 . S
H2281 C2217 0.960 . S
H2282 C2217 0.960 . S
H2283 C2219 0.980 . S
H2284 C2218 0.961 . S
H2285 C2218 0.961 . S
H2286 C2218 0.959 . S
H2287 C2221 0.932 . S
H2288 C2225 0.929 . S
H2289 C2226 0.961 . S
H2290 C2226 0.959 . S
H2291 C2226 0.959 . S
H2292 C2227 0.960 . S
H2293 C2227 0.962 . S
H2294 C2227 0.961 . S
H2295 C2229 0.929 . S
H2296 C2232 0.930 . S
H2297 C2233 0.929 . S
H2298 C2236 0.930 . S
H2299 C2239 0.929 . S
H2300 C2240 0.930 . S
H2301 C2244 0.962 . S
H2302 C2244 0.959 . S
H2303 C2244 0.958 . S
C2304 C2305 1.363 1_455 S
C2304 C2310 1.379 . S
C2304 N2312 1.356 . S
C2305 C2304 1.363 1_655 S
C2305 C2311 1.363 . S
C2306 C2307 1.363 . S
C2306 C2311 1.379 . S
C2306 N2313 1.356 . S
C2307 C2306 1.363 . S
C2307 C2310 1.363 1_655 S
N2308 C2310 1.356 . S
N2308 H2320 0.984 . S
N2308 H2321 0.985 . S
N2309 C2311 1.356 . S
N2309 H2314 0.984 . S
N2309 H2315 0.985 . S
C2310 C2304 1.379 . S
C2310 C2307 1.363 1_455 S
C2310 N2308 1.356 . S
C2311 C2305 1.363 . S
C2311 C2306 1.379 . S
C2311 N2309 1.356 . S
N2312 C2304 1.356 . S
N2312 H2318 0.984 . S
N2312 H2319 0.984 . S
N2313 C2306 1.356 . S
N2313 H2316 0.984 . S
N2313 H2317 0.985 . S
H2314 N2309 0.984 . S
H2315 N2309 0.985 . S
H2316 N2313 0.984 . S
H2317 N2313 0.985 . S
H2318 N2312 0.984 . S
H2319 N2312 0.984 . S
H2320 N2308 0.984 . S
H2321 N2308 0.985 . S
C2322 C2323 1.363 . S
C2322 C2328 1.379 . S
C2322 N2330 1.356 . S
C2323 C2322 1.363 . S
C2323 C2329 1.363 . S
C2324 C2325 1.363 . S
C2324 C2329 1.379 . S
C2324 N2331 1.356 . S
C2325 C2324 1.363 . S
C2325 C2328 1.363 . S
N2326 C2328 1.356 . S
N2326 H2338 0.984 . S
N2326 H2339 0.985 . S
N2327 C2329 1.356 . S
N2327 H2332 0.984 . S
N2327 H2333 0.985 . S
C2328 C2322 1.379 . S
C2328 C2325 1.363 . S
C2328 N2326 1.356 . S
C2329 C2323 1.363 . S
C2329 C2324 1.379 . S
C2329 N2327 1.356 . S
N2330 C2322 1.356 . S
N2330 H2336 0.984 . S
N2330 H2337 0.984 . S
N2331 C2324 1.356 . S
N2331 H2334 0.984 . S
N2331 H2335 0.985 . S
H2332 N2327 0.984 . S
H2333 N2327 0.985 . S
H2334 N2331 0.984 . S
H2335 N2331 0.985 . S
H2336 N2330 0.984 . S
H2337 N2330 0.984 . S
H2338 N2326 0.984 . S
H2339 N2326 0.985 . S
C2340 C2341 1.363 . S
C2340 C2346 1.379 . S
C2340 N2348 1.356 . S
C2341 C2340 1.363 . S
C2341 C2347 1.363 1_545 S
C2342 C2343 1.363 1_565 S
C2342 C2347 1.379 . S
C2342 N2349 1.356 . S
C2343 C2342 1.363 1_545 S
C2343 C2346 1.363 . S
N2344 C2346 1.356 . S
N2344 H2356 0.984 . S
N2344 H2357 0.985 . S
N2345 C2347 1.356 . S
N2345 H2350 0.984 . S
N2345 H2351 0.985 . S
C2346 C2340 1.379 . S
C2346 C2343 1.363 . S
C2346 N2344 1.356 . S
C2347 C2341 1.363 1_565 S
C2347 C2342 1.379 . S
C2347 N2345 1.356 . S
N2348 C2340 1.356 . S
N2348 H2354 0.984 . S
N2348 H2355 0.984 . S
N2349 C2342 1.356 . S
N2349 H2352 0.984 . S
N2349 H2353 0.985 . S
H2350 N2345 0.984 . S
H2351 N2345 0.985 . S
H2352 N2349 0.984 . S
H2353 N2349 0.985 . S
H2354 N2348 0.984 . S
H2355 N2348 0.984 . S
H2356 N2344 0.984 . S
H2357 N2344 0.985 . S
C2358 C2359 1.363 1_545 S
C2358 C2364 1.379 . S
C2358 N2366 1.356 . S
C2359 C2358 1.363 1_565 S
C2359 C2365 1.363 . S
C2360 C2361 1.363 . S
C2360 C2365 1.379 . S
C2360 N2367 1.356 . S
C2361 C2360 1.363 . S
C2361 C2364 1.363 1_565 S
N2362 C2364 1.356 . S
N2362 H2374 0.984 . S
N2362 H2375 0.985 . S
N2363 C2365 1.356 . S
N2363 H2368 0.984 . S
N2363 H2369 0.985 . S
C2364 C2358 1.379 . S
C2364 C2361 1.363 1_545 S
C2364 N2362 1.356 . S
C2365 C2359 1.363 . S
C2365 C2360 1.379 . S
C2365 N2363 1.356 . S
N2366 C2358 1.356 . S
N2366 H2372 0.984 . S
N2366 H2373 0.984 . S
N2367 C2360 1.356 . S
N2367 H2370 0.984 . S
N2367 H2371 0.985 . S
H2368 N2363 0.984 . S
H2369 N2363 0.985 . S
H2370 N2367 0.984 . S
H2371 N2367 0.985 . S
H2372 N2366 0.984 . S
H2373 N2366 0.984 . S
H2374 N2362 0.984 . S
H2375 N2362 0.985 . S
C2376 C2377 1.363 . S
C2376 C2382 1.379 . S
C2376 N2384 1.356 . S
C2377 C2376 1.363 . S
C2377 C2383 1.363 . S
C2378 C2379 1.363 . S
C2378 C2383 1.379 . S
C2378 N2385 1.356 . S
C2379 C2378 1.363 . S
C2379 C2382 1.363 . S
N2380 C2382 1.356 . S
N2380 H2392 0.984 . S
N2380 H2393 0.985 . S
N2381 C2383 1.356 . S
N2381 H2386 0.984 . S
N2381 H2387 0.985 . S
C2382 C2376 1.379 . S
C2382 C2379 1.363 . S
C2382 N2380 1.356 . S
C2383 C2377 1.363 . S
C2383 C2378 1.379 . S
C2383 N2381 1.356 . S
N2384 C2376 1.356 . S
N2384 H2390 0.984 1_556 S
N2384 H2391 0.982 . S
N2385 C2378 1.356 . S
N2385 H2388 0.984 . S
N2385 H2389 0.985 . S
H2386 N2381 0.984 . S
H2387 N2381 0.985 . S
H2388 N2385 0.984 . S
H2389 N2385 0.985 . S
H2390 N2384 0.984 1_554 S
H2391 N2384 0.982 . S
H2392 N2380 0.984 . S
H2393 N2380 0.985 . S
C2394 C2395 1.363 . S
C2394 C2400 1.379 . S
C2394 N2402 1.356 . S
C2395 C2394 1.363 . S
C2395 C2401 1.363 . S
C2396 C2397 1.363 . S
C2396 C2401 1.379 . S
C2396 N2403 1.356 . S
C2397 C2396 1.363 . S
C2397 C2400 1.363 . S
N2398 C2400 1.356 . S
N2398 H2410 0.984 . S
N2398 H2411 0.985 . S
N2399 C2401 1.356 . S
N2399 H2404 0.984 1_556 S
N2399 H2405 0.985 1_556 S
C2400 C2394 1.379 . S
C2400 C2397 1.363 . S
C2400 N2398 1.356 . S
C2401 C2395 1.363 . S
C2401 C2396 1.379 . S
C2401 N2399 1.356 . S
N2402 C2394 1.356 . S
N2402 H2408 0.984 . S
N2402 H2409 0.984 . S
N2403 C2396 1.356 . S
N2403 H2406 0.984 . S
N2403 H2407 0.985 . S
H2404 N2399 0.984 1_554 S
H2405 N2399 0.985 1_554 S
H2406 N2403 0.984 . S
H2407 N2403 0.985 . S
H2408 N2402 0.984 . S
H2409 N2402 0.984 . S
H2410 N2398 0.984 . S
H2411 N2398 0.985 . S
C2412 C2413 1.363 . S
C2412 C2418 1.379 . S
C2412 N2420 1.356 . S
C2413 C2412 1.363 . S
C2413 C2419 1.363 1_455 S
C2414 C2415 1.363 1_655 S
C2414 C2419 1.379 . S
C2414 N2421 1.356 . S
C2415 C2414 1.363 1_455 S
C2415 C2418 1.363 . S
N2416 C2418 1.356 . S
N2416 H2428 0.984 . S
N2416 H2429 0.985 . S
N2417 C2419 1.356 . S
N2417 H2422 0.984 . S
N2417 H2423 0.985 . S
C2418 C2412 1.379 . S
C2418 C2415 1.363 . S
C2418 N2416 1.356 . S
C2419 C2413 1.363 1_655 S
C2419 C2414 1.379 . S
C2419 N2417 1.356 . S
N2420 C2412 1.356 . S
N2420 H2426 0.984 . S
N2420 H2427 0.984 . S
N2421 C2414 1.356 . S
N2421 H2424 0.984 . S
N2421 H2425 0.985 . S
H2422 N2417 0.984 . S
H2423 N2417 0.985 . S
H2424 N2421 0.984 . S
H2425 N2421 0.985 . S
H2426 N2420 0.984 . S
H2427 N2420 0.984 . S
H2428 N2416 0.984 . S
H2429 N2416 0.985 . S
C2430 C2431 1.363 . S
C2430 C2436 1.379 . S
C2430 N2438 1.356 . S
C2431 C2430 1.363 . S
C2431 C2437 1.363 . S
C2432 C2433 1.363 . S
C2432 C2437 1.379 . S
C2432 N2439 1.356 . S
C2433 C2432 1.363 . S
C2433 C2436 1.363 . S
N2434 C2436 1.356 . S
N2434 H2446 0.984 . S
N2434 H2447 0.985 . S
N2435 C2437 1.356 . S
N2435 H2440 0.984 . S
N2435 H2441 0.985 . S
C2436 C2430 1.379 . S
C2436 C2433 1.363 . S
C2436 N2434 1.356 . S
C2437 C2431 1.363 . S
C2437 C2432 1.379 . S
C2437 N2435 1.356 . S
N2438 C2430 1.356 . S
N2438 H2444 0.984 . S
N2438 H2445 0.984 . S
N2439 C2432 1.356 . S
N2439 H2442 0.984 . S
N2439 H2443 0.985 . S
H2440 N2435 0.984 . S
H2441 N2435 0.985 . S
H2442 N2439 0.984 . S
H2443 N2439 0.985 . S
H2444 N2438 0.984 . S
H2445 N2438 0.984 . S
H2446 N2434 0.984 . S
H2447 N2434 0.985 . S
C2448 C2449 1.363 1_545 S
C2448 C2454 1.379 . S
C2448 N2456 1.356 . S
C2449 C2448 1.363 1_565 S
C2449 C2455 1.363 . S
C2450 C2451 1.363 . S
C2450 C2455 1.379 . S
C2450 N2457 1.356 . S
C2451 C2450 1.363 . S
C2451 C2454 1.363 1_565 S
N2452 C2454 1.356 . S
N2452 H2464 0.984 . S
N2452 H2465 0.985 . S
N2453 C2455 1.356 . S
N2453 H2458 0.984 . S
N2453 H2459 0.985 . S
C2454 C2448 1.379 . S
C2454 C2451 1.363 1_545 S
C2454 N2452 1.356 . S
C2455 C2449 1.363 . S
C2455 C2450 1.379 . S
C2455 N2453 1.356 . S
N2456 C2448 1.356 . S
N2456 H2462 0.984 . S
N2456 H2463 0.984 . S
N2457 C2450 1.356 . S
N2457 H2460 0.984 . S
N2457 H2461 0.985 . S
H2458 N2453 0.984 . S
H2459 N2453 0.985 . S
H2460 N2457 0.984 . S
H2461 N2457 0.985 . S
H2462 N2456 0.984 . S
H2463 N2456 0.984 . S
H2464 N2452 0.984 . S
H2465 N2452 0.985 . S
C2466 C2467 1.363 . S
C2466 C2472 1.379 . S
C2466 N2474 1.356 . S
C2467 C2466 1.363 . S
C2467 C2473 1.363 1_545 S
C2468 C2469 1.363 1_565 S
C2468 C2473 1.379 . S
C2468 N2475 1.356 . S
C2469 C2468 1.363 1_545 S
C2469 C2472 1.363 . S
N2470 C2472 1.356 . S
N2470 H2482 0.984 . S
N2470 H2483 0.985 . S
N2471 C2473 1.356 . S
N2471 H2476 0.984 . S
N2471 H2477 0.985 . S
C2472 C2466 1.379 . S
C2472 C2469 1.363 . S
C2472 N2470 1.356 . S
C2473 C2467 1.363 1_565 S
C2473 C2468 1.379 . S
C2473 N2471 1.356 . S
N2474 C2466 1.356 . S
N2474 H2480 0.984 . S
N2474 H2481 0.984 . S
N2475 C2468 1.356 . S
N2475 H2478 0.984 . S
N2475 H2479 0.985 . S
H2476 N2471 0.984 . S
H2477 N2471 0.985 . S
H2478 N2475 0.984 . S
H2479 N2475 0.985 . S
H2480 N2474 0.984 . S
H2481 N2474 0.984 . S
H2482 N2470 0.984 . S
H2483 N2470 0.985 . S
C2484 C2485 1.363 . S
C2484 C2490 1.379 . S
C2484 N2492 1.356 . S
C2485 C2484 1.363 . S
C2485 C2491 1.363 1_655 S
C2486 C2487 1.389 1_455 S
C2486 C2491 1.351 . S
C2486 N2493 1.370 . S
C2487 C2486 1.389 1_655 S
C2487 C2490 1.363 . S
N2488 C2490 1.356 . S
N2488 H2500 0.984 . S
N2488 H2501 0.985 . S
N2489 C2491 1.357 . S
N2489 H2494 0.994 . S
N2489 H2495 0.985 . S
C2490 C2484 1.379 . S
C2490 C2487 1.363 . S
C2490 N2488 1.356 . S
C2491 C2485 1.363 1_455 S
C2491 C2486 1.351 . S
C2491 N2489 1.357 . S
N2492 C2484 1.356 . S
N2492 H2498 0.984 . S
N2492 H2499 0.984 . S
N2493 C2486 1.370 . S
N2493 H2496 0.984 . S
N2493 H2497 0.985 . S
H2494 N2489 0.994 . S
H2495 N2489 0.985 . S
H2496 N2493 0.984 . S
H2497 N2493 0.985 . S
H2498 N2492 0.984 . S
H2499 N2492 0.984 . S
H2500 N2488 0.984 . S
H2501 N2488 0.985 . S
C2502 C2503 1.363 . S
C2502 C2508 1.379 . S
C2502 N2510 1.356 . S
C2503 C2502 1.363 . S
C2503 C2509 1.363 . S
C2504 C2505 1.363 . S
C2504 C2509 1.379 . S
C2504 N2511 1.356 . S
C2505 C2504 1.363 . S
C2505 C2508 1.363 . S
N2506 C2508 1.356 . S
N2506 H2518 0.984 . S
N2506 H2519 0.985 . S
N2507 C2509 1.356 . S
N2507 H2512 0.984 . S
N2507 H2513 0.985 . S
C2508 C2502 1.379 . S
C2508 C2505 1.363 . S
C2508 N2506 1.356 . S
C2509 C2503 1.363 . S
C2509 C2504 1.379 . S
C2509 N2507 1.356 . S
N2510 C2502 1.356 . S
N2510 H2516 0.984 . S
N2510 H2517 0.984 . S
N2511 C2504 1.356 . S
N2511 H2514 0.984 . S
N2511 H2515 0.985 . S
H2512 N2507 0.984 . S
H2513 N2507 0.985 . S
H2514 N2511 0.984 . S
H2515 N2511 0.985 . S
H2516 N2510 0.984 . S
H2517 N2510 0.984 . S
H2518 N2506 0.984 . S
H2519 N2506 0.985 . S
C2520 C2521 1.363 . S
C2520 C2526 1.379 . S
C2520 N2528 1.356 . S
C2521 C2520 1.363 . S
C2521 C2527 1.363 . S
C2522 C2523 1.363 . S
C2522 C2527 1.379 . S
C2522 N2529 1.356 . S
C2523 C2522 1.363 . S
C2523 C2526 1.363 . S
N2524 C2526 1.356 . S
N2524 H2536 0.984 . S
N2524 H2537 0.985 . S
N2525 C2527 1.356 . S
N2525 H2530 0.984 . S
N2525 H2531 0.985 . S
C2526 C2520 1.379 . S
C2526 C2523 1.363 . S
C2526 N2524 1.356 . S
C2527 C2521 1.363 . S
C2527 C2522 1.379 . S
C2527 N2525 1.356 . S
N2528 C2520 1.356 . S
N2528 H2534 0.984 . S
N2528 H2535 0.984 . S
N2529 C2522 1.356 . S
N2529 H2532 0.984 . S
N2529 H2533 0.985 . S
H2530 N2525 0.984 . S
H2531 N2525 0.985 . S
H2532 N2529 0.984 . S
H2533 N2529 0.985 . S
H2534 N2528 0.984 . S
H2535 N2528 0.984 . S
H2536 N2524 0.984 . S
H2537 N2524 0.985 . S
C2538 C2539 1.363 . S
C2538 C2544 1.379 . S
C2538 N2546 1.356 . S
C2539 C2538 1.363 . S
C2539 C2545 1.363 . S
C2540 C2541 1.363 . S
C2540 C2545 1.379 . S
C2540 N2547 1.356 . S
C2541 C2540 1.363 . S
C2541 C2544 1.363 . S
N2542 C2544 1.356 . S
N2542 H2554 0.984 . S
N2542 H2555 0.985 . S
N2543 C2545 1.356 . S
N2543 H2548 0.984 . S
N2543 H2549 0.985 . S
C2544 C2538 1.379 . S
C2544 C2541 1.363 . S
C2544 N2542 1.356 . S
C2545 C2539 1.363 . S
C2545 C2540 1.379 . S
C2545 N2543 1.356 . S
N2546 C2538 1.356 . S
N2546 H2552 0.984 . S
N2546 H2553 0.984 . S
N2547 C2540 1.356 . S
N2547 H2550 0.984 . S
N2547 H2551 0.985 . S
H2548 N2543 0.984 . S
H2549 N2543 0.985 . S
H2550 N2547 0.984 . S
H2551 N2547 0.985 . S
H2552 N2546 0.984 . S
H2553 N2546 0.984 . S
H2554 N2542 0.984 . S
H2555 N2542 0.985 . S
C2556 C2557 1.363 . S
C2556 C2562 1.379 . S
C2556 N2564 1.356 . S
C2557 C2556 1.363 . S
C2557 C2563 1.363 . S
C2558 C2559 1.363 . S
C2558 C2563 1.379 . S
C2558 N2565 1.356 . S
C2559 C2558 1.363 . S
C2559 C2562 1.363 . S
N2560 C2562 1.356 . S
N2560 H2572 0.984 . S
N2560 H2573 0.985 . S
N2561 C2563 1.356 . S
N2561 H2566 0.984 . S
N2561 H2567 0.985 . S
C2562 C2556 1.379 . S
C2562 C2559 1.363 . S
C2562 N2560 1.356 . S
C2563 C2557 1.363 . S
C2563 C2558 1.379 . S
C2563 N2561 1.356 . S
N2564 C2556 1.356 . S
N2564 H2570 0.984 . S
N2564 H2571 0.984 . S
N2565 C2558 1.356 . S
N2565 H2568 0.984 . S
N2565 H2569 0.985 . S
H2566 N2561 0.984 . S
H2567 N2561 0.985 . S
H2568 N2565 0.984 . S
H2569 N2565 0.985 . S
H2570 N2564 0.984 . S
H2571 N2564 0.984 . S
H2572 N2560 0.984 . S
H2573 N2560 0.985 . S
C2574 C2575 1.363 . S
C2574 C2580 1.379 . S
C2574 N2582 1.356 . S
C2575 C2574 1.363 . S
C2575 C2581 1.363 . S
C2576 C2577 1.363 . S
C2576 C2581 1.379 . S
C2576 N2583 1.356 . S
C2577 C2576 1.363 . S
C2577 C2580 1.363 . S
N2578 C2580 1.356 . S
N2578 H2590 0.984 . S
N2578 H2591 0.985 . S
N2579 C2581 1.356 . S
N2579 H2584 0.984 . S
N2579 H2585 0.985 . S
C2580 C2574 1.379 . S
C2580 C2577 1.363 . S
C2580 N2578 1.356 . S
C2581 C2575 1.363 . S
C2581 C2576 1.379 . S
C2581 N2579 1.356 . S
N2582 C2574 1.356 . S
N2582 H2588 0.984 . S
N2582 H2589 0.984 . S
N2583 C2576 1.356 . S
N2583 H2586 0.984 . S
N2583 H2587 0.985 . S
H2584 N2579 0.984 . S
H2585 N2579 0.985 . S
H2586 N2583 0.984 . S
H2587 N2583 0.985 . S
H2588 N2582 0.984 . S
H2589 N2582 0.984 . S
H2590 N2578 0.984 . S
H2591 N2578 0.985 . S
C2592 C2593 1.363 . S
C2592 C2598 1.379 . S
C2592 N2600 1.356 . S
C2593 C2592 1.363 . S
C2593 C2599 1.363 . S
C2594 C2595 1.363 . S
C2594 C2599 1.379 . S
C2594 N2601 1.356 . S
C2595 C2594 1.363 . S
C2595 C2598 1.363 . S
N2596 C2598 1.356 . S
N2596 H2608 0.984 . S
N2596 H2609 0.985 . S
N2597 C2599 1.356 . S
N2597 H2602 0.984 . S
N2597 H2603 0.985 . S
C2598 C2592 1.379 . S
C2598 C2595 1.363 . S
C2598 N2596 1.356 . S
C2599 C2593 1.363 . S
C2599 C2594 1.379 . S
C2599 N2597 1.356 . S
N2600 C2592 1.356 . S
N2600 H2606 0.984 . S
N2600 H2607 0.984 . S
N2601 C2594 1.356 . S
N2601 H2604 0.984 . S
N2601 H2605 0.985 . S
H2602 N2597 0.984 . S
H2603 N2597 0.985 . S
H2604 N2601 0.984 . S
H2605 N2601 0.985 . S
H2606 N2600 0.984 . S
H2607 N2600 0.984 . S
H2608 N2596 0.984 . S
H2609 N2596 0.985 . S
C2610 C2611 1.363 . S
C2610 C2616 1.379 . S
C2610 N2618 1.356 . S
C2611 C2610 1.363 . S
C2611 C2617 1.363 . S
C2612 C2613 1.363 . S
C2612 C2617 1.379 . S
C2612 N2619 1.356 . S
C2613 C2612 1.363 . S
C2613 C2616 1.363 . S
N2614 C2616 1.356 . S
N2614 H2626 0.984 . S
N2614 H2627 0.985 . S
N2615 C2617 1.356 . S
N2615 H2620 0.984 . S
N2615 H2621 0.985 . S
C2616 C2610 1.379 . S
C2616 C2613 1.363 . S
C2616 N2614 1.356 . S
C2617 C2611 1.363 . S
C2617 C2612 1.379 . S
C2617 N2615 1.356 . S
N2618 C2610 1.356 . S
N2618 H2624 0.984 . S
N2618 H2625 0.984 . S
N2619 C2612 1.356 . S
N2619 H2622 0.984 . S
N2619 H2623 0.985 . S
H2620 N2615 0.984 . S
H2621 N2615 0.985 . S
H2622 N2619 0.984 . S
H2623 N2619 0.985 . S
H2624 N2618 0.984 . S
H2625 N2618 0.984 . S
H2626 N2614 0.984 . S
H2627 N2614 0.985 . S
C2628 C2629 1.363 . S
C2628 C2634 1.379 . S
C2628 N2636 1.356 . S
C2629 C2628 1.363 . S
C2629 C2635 1.363 . S
C2630 C2631 1.363 . S
C2630 C2635 1.379 . S
C2630 N2637 1.356 . S
C2631 C2630 1.363 . S
C2631 C2634 1.363 . S
N2632 C2634 1.356 . S
N2632 H2644 0.984 . S
N2632 H2645 0.985 . S
N2633 C2635 1.356 . S
N2633 H2638 0.984 . S
N2633 H2639 0.985 . S
C2634 C2628 1.379 . S
C2634 C2631 1.363 . S
C2634 N2632 1.356 . S
C2635 C2629 1.363 . S
C2635 C2630 1.379 . S
C2635 N2633 1.356 . S
N2636 C2628 1.356 . S
N2636 H2642 0.984 . S
N2636 H2643 0.984 . S
N2637 C2630 1.356 . S
N2637 H2640 0.984 . S
N2637 H2641 0.985 . S
H2638 N2633 0.984 . S
H2639 N2633 0.985 . S
H2640 N2637 0.984 . S
H2641 N2637 0.985 . S
H2642 N2636 0.984 . S
H2643 N2636 0.984 . S
H2644 N2632 0.984 . S
H2645 N2632 0.985 . S
C2646 C2647 1.363 . S
C2646 C2652 1.379 . S
C2646 N2654 1.356 . S
C2647 C2646 1.363 . S
C2647 C2653 1.363 . S
C2648 C2649 1.363 . S
C2648 C2653 1.379 . S
C2648 N2655 1.356 . S
C2649 C2648 1.363 . S
C2649 C2652 1.363 . S
N2650 C2652 1.356 . S
N2650 H2662 0.984 . S
N2650 H2663 0.985 . S
N2651 C2653 1.356 . S
N2651 H2656 0.984 . S
N2651 H2657 0.985 . S
C2652 C2646 1.379 . S
C2652 C2649 1.363 . S
C2652 N2650 1.356 . S
C2653 C2647 1.363 . S
C2653 C2648 1.379 . S
C2653 N2651 1.356 . S
N2654 C2646 1.356 . S
N2654 H2660 0.984 . S
N2654 H2661 0.984 . S
N2655 C2648 1.356 . S
N2655 H2658 0.984 . S
N2655 H2659 0.985 . S
H2656 N2651 0.984 . S
H2657 N2651 0.985 . S
H2658 N2655 0.984 . S
H2659 N2655 0.985 . S
H2660 N2654 0.984 . S
H2661 N2654 0.984 . S
H2662 N2650 0.984 . S
H2663 N2650 0.985 . S
C2664 C2665 1.363 . S
C2664 C2670 1.379 . S
C2664 N2672 1.356 . S
C2665 C2664 1.363 . S
C2665 C2671 1.363 . S
C2666 C2667 1.363 . S
C2666 C2671 1.379 . S
C2666 N2673 1.356 . S
C2667 C2666 1.363 . S
C2667 C2670 1.363 . S
N2668 C2670 1.356 . S
N2668 H2680 0.984 . S
N2668 H2681 0.985 . S
N2669 C2671 1.356 . S
N2669 H2674 0.984 . S
N2669 H2675 0.985 . S
C2670 C2664 1.379 . S
C2670 C2667 1.363 . S
C2670 N2668 1.356 . S
C2671 C2665 1.363 . S
C2671 C2666 1.379 . S
C2671 N2669 1.356 . S
N2672 C2664 1.356 . S
N2672 H2678 0.984 . S
N2672 H2679 0.984 . S
N2673 C2666 1.356 . S
N2673 H2676 0.984 . S
N2673 H2677 0.985 . S
H2674 N2669 0.984 . S
H2675 N2669 0.985 . S
H2676 N2673 0.984 . S
H2677 N2673 0.985 . S
H2678 N2672 0.984 . S
H2679 N2672 0.984 . S
H2680 N2668 0.984 . S
H2681 N2668 0.985 . S
C2682 C2683 1.363 . S
C2682 C2688 1.379 . S
C2682 N2690 1.356 . S
C2683 C2682 1.363 . S
C2683 C2689 1.363 . S
C2684 C2685 1.363 . S
C2684 C2689 1.379 . S
C2684 N2691 1.356 . S
C2685 C2684 1.363 . S
C2685 C2688 1.363 . S
N2686 C2688 1.356 . S
N2686 H2698 0.984 . S
N2686 H2699 0.985 . S
N2687 C2689 1.356 . S
N2687 H2692 0.984 . S
N2687 H2693 0.985 . S
C2688 C2682 1.379 . S
C2688 C2685 1.363 . S
C2688 N2686 1.356 . S
C2689 C2683 1.363 . S
C2689 C2684 1.379 . S
C2689 N2687 1.356 . S
N2690 C2682 1.356 . S
N2690 H2696 0.984 . S
N2690 H2697 0.984 . S
N2691 C2684 1.356 . S
N2691 H2694 0.984 . S
N2691 H2695 0.985 . S
H2692 N2687 0.984 . S
H2693 N2687 0.985 . S
H2694 N2691 0.984 . S
H2695 N2691 0.985 . S
H2696 N2690 0.984 . S
H2697 N2690 0.984 . S
H2698 N2686 0.984 . S
H2699 N2686 0.985 . S
C2700 C2701 1.363 . S
C2700 C2706 1.379 . S
C2700 N2708 1.356 . S
C2701 C2700 1.363 . S
C2701 C2707 1.363 . S
C2702 C2703 1.363 . S
C2702 C2707 1.379 . S
C2702 N2709 1.356 . S
C2703 C2702 1.363 . S
C2703 C2706 1.363 . S
N2704 C2706 1.356 . S
N2704 H2716 0.984 . S
N2704 H2717 0.985 . S
N2705 C2707 1.356 . S
N2705 H2710 0.984 . S
N2705 H2711 0.985 . S
C2706 C2700 1.379 . S
C2706 C2703 1.363 . S
C2706 N2704 1.356 . S
C2707 C2701 1.363 . S
C2707 C2702 1.379 . S
C2707 N2705 1.356 . S
N2708 C2700 1.356 . S
N2708 H2714 0.984 . S
N2708 H2715 0.984 . S
N2709 C2702 1.356 . S
N2709 H2712 0.984 . S
N2709 H2713 0.985 . S
H2710 N2705 0.984 . S
H2711 N2705 0.985 . S
H2712 N2709 0.984 . S
H2713 N2709 0.985 . S
H2714 N2708 0.984 . S
H2715 N2708 0.984 . S
H2716 N2704 0.984 . S
H2717 N2704 0.985 . S
C2718 C2719 1.363 . S
C2718 C2724 1.379 . S
C2718 N2726 1.356 . S
C2719 C2718 1.363 . S
C2719 C2725 1.363 . S
C2720 C2721 1.363 . S
C2720 C2725 1.379 . S
C2720 N2727 1.356 . S
C2721 C2720 1.363 . S
C2721 C2724 1.363 . S
N2722 C2724 1.356 . S
N2722 H2734 0.984 . S
N2722 H2735 0.985 . S
N2723 C2725 1.356 . S
N2723 H2728 0.984 . S
N2723 H2729 0.985 . S
C2724 C2718 1.379 . S
C2724 C2721 1.363 . S
C2724 N2722 1.356 . S
C2725 C2719 1.363 . S
C2725 C2720 1.379 . S
C2725 N2723 1.356 . S
N2726 C2718 1.356 . S
N2726 H2732 0.984 . S
N2726 H2733 0.984 . S
N2727 C2720 1.356 . S
N2727 H2730 0.984 . S
N2727 H2731 0.985 . S
H2728 N2723 0.984 . S
H2729 N2723 0.985 . S
H2730 N2727 0.984 . S
H2731 N2727 0.985 . S
H2732 N2726 0.984 . S
H2733 N2726 0.984 . S
H2734 N2722 0.984 . S
H2735 N2722 0.985 . S
C2736 C2737 1.363 . S
C2736 C2742 1.379 . S
C2736 N2744 1.356 . S
C2737 C2736 1.363 . S
C2737 C2743 1.363 . S
C2738 C2739 1.363 . S
C2738 C2743 1.379 . S
C2738 N2745 1.356 . S
C2739 C2738 1.363 . S
C2739 C2742 1.363 . S
N2740 C2742 1.356 . S
N2740 H2752 0.984 . S
N2740 H2753 0.985 . S
N2741 C2743 1.356 . S
N2741 H2746 0.984 . S
N2741 H2747 0.985 . S
C2742 C2736 1.379 . S
C2742 C2739 1.363 . S
C2742 N2740 1.356 . S
C2743 C2737 1.363 . S
C2743 C2738 1.379 . S
C2743 N2741 1.356 . S
N2744 C2736 1.356 . S
N2744 H2750 0.984 . S
N2744 H2751 0.984 . S
N2745 C2738 1.356 . S
N2745 H2748 0.984 . S
N2745 H2749 0.985 . S
H2746 N2741 0.984 . S
H2747 N2741 0.985 . S
H2748 N2745 0.984 . S
H2749 N2745 0.985 . S
H2750 N2744 0.984 . S
H2751 N2744 0.984 . S
H2752 N2740 0.984 . S
H2753 N2740 0.985 . S
C2754 C2755 1.363 . S
C2754 C2760 1.379 . S
C2754 N2762 1.356 . S
C2755 C2754 1.363 . S
C2755 C2761 1.363 . S
C2756 C2757 1.363 . S
C2756 C2761 1.379 . S
C2756 N2763 1.356 . S
C2757 C2756 1.363 . S
C2757 C2760 1.363 . S
N2758 C2760 1.356 . S
N2758 H2770 0.984 . S
N2758 H2771 0.985 . S
N2759 C2761 1.356 . S
N2759 H2764 0.984 . S
N2759 H2765 0.985 . S
C2760 C2754 1.379 . S
C2760 C2757 1.363 . S
C2760 N2758 1.356 . S
C2761 C2755 1.363 . S
C2761 C2756 1.379 . S
C2761 N2759 1.356 . S
N2762 C2754 1.356 . S
N2762 H2768 0.984 . S
N2762 H2769 0.984 . S
N2763 C2756 1.356 . S
N2763 H2766 0.984 . S
N2763 H2767 0.985 . S
H2764 N2759 0.984 . S
H2765 N2759 0.985 . S
H2766 N2763 0.984 . S
H2767 N2763 0.985 . S
H2768 N2762 0.984 . S
H2769 N2762 0.984 . S
H2770 N2758 0.984 . S
H2771 N2758 0.985 . S
C2772 C2773 1.363 . S
C2772 C2778 1.379 . S
C2772 N2780 1.356 . S
C2773 C2772 1.363 . S
C2773 C2779 1.363 . S
C2774 C2775 1.363 . S
C2774 C2779 1.379 . S
C2774 N2781 1.356 . S
C2775 C2774 1.363 . S
C2775 C2778 1.363 . S
N2776 C2778 1.356 . S
N2776 H2788 0.984 . S
N2776 H2789 0.985 . S
N2777 C2779 1.356 . S
N2777 H2782 0.984 . S
N2777 H2783 0.985 . S
C2778 C2772 1.379 . S
C2778 C2775 1.363 . S
C2778 N2776 1.356 . S
C2779 C2773 1.363 . S
C2779 C2774 1.379 . S
C2779 N2777 1.356 . S
N2780 C2772 1.356 . S
N2780 H2786 0.984 . S
N2780 H2787 0.984 . S
N2781 C2774 1.356 . S
N2781 H2784 0.984 . S
N2781 H2785 0.985 . S
H2782 N2777 0.984 . S
H2783 N2777 0.985 . S
H2784 N2781 0.984 . S
H2785 N2781 0.985 . S
H2786 N2780 0.984 . S
H2787 N2780 0.984 . S
H2788 N2776 0.984 . S
H2789 N2776 0.985 . S
C2790 C2791 1.363 . S
C2790 C2796 1.379 . S
C2790 N2798 1.356 . S
C2791 C2790 1.363 . S
C2791 C2797 1.363 . S
C2792 C2793 1.363 . S
C2792 C2797 1.379 . S
C2792 N2799 1.356 . S
C2793 C2792 1.363 . S
C2793 C2796 1.363 . S
N2794 C2796 1.356 . S
N2794 H2806 0.984 . S
N2794 H2807 0.985 . S
N2795 C2797 1.356 . S
N2795 H2800 0.984 . S
N2795 H2801 0.985 . S
C2796 C2790 1.379 . S
C2796 C2793 1.363 . S
C2796 N2794 1.356 . S
C2797 C2791 1.363 . S
C2797 C2792 1.379 . S
C2797 N2795 1.356 . S
N2798 C2790 1.356 . S
N2798 H2804 0.984 . S
N2798 H2805 0.984 . S
N2799 C2792 1.356 . S
N2799 H2802 0.984 . S
N2799 H2803 0.985 . S
H2800 N2795 0.984 . S
H2801 N2795 0.985 . S
H2802 N2799 0.984 . S
H2803 N2799 0.985 . S
H2804 N2798 0.984 . S
H2805 N2798 0.984 . S
H2806 N2794 0.984 . S
H2807 N2794 0.985 . S
C2808 C2809 1.363 . S
C2808 C2814 1.379 . S
C2808 N2816 1.356 . S
C2809 C2808 1.363 . S
C2809 C2815 1.363 . S
C2810 C2811 1.363 . S
C2810 C2815 1.379 . S
C2810 N2817 1.356 . S
C2811 C2810 1.363 . S
C2811 C2814 1.363 . S
N2812 C2814 1.356 . S
N2812 H2824 0.984 . S
N2812 H2825 0.985 . S
N2813 C2815 1.356 . S
N2813 H2818 0.984 . S
N2813 H2819 0.985 . S
C2814 C2808 1.379 . S
C2814 C2811 1.363 . S
C2814 N2812 1.356 . S
C2815 C2809 1.363 . S
C2815 C2810 1.379 . S
C2815 N2813 1.356 . S
N2816 C2808 1.356 . S
N2816 H2822 0.984 . S
N2816 H2823 0.984 . S
N2817 C2810 1.356 . S
N2817 H2820 0.984 . S
N2817 H2821 0.985 . S
H2818 N2813 0.984 . S
H2819 N2813 0.985 . S
H2820 N2817 0.984 . S
H2821 N2817 0.985 . S
H2822 N2816 0.984 . S
H2823 N2816 0.984 . S
H2824 N2812 0.984 . S
H2825 N2812 0.985 . S
C2826 C2827 1.363 . S
C2826 C2832 1.379 . S
C2826 N2834 1.356 . S
C2827 C2826 1.363 . S
C2827 C2833 1.363 . S
C2828 C2829 1.363 . S
C2828 C2833 1.379 . S
C2828 N2835 1.356 . S
C2829 C2828 1.363 . S
C2829 C2832 1.363 . S
N2830 C2832 1.356 . S
N2830 H2842 0.984 . S
N2830 H2843 0.985 . S
N2831 C2833 1.356 . S
N2831 H2836 0.984 . S
N2831 H2837 0.985 . S
C2832 C2826 1.379 . S
C2832 C2829 1.363 . S
C2832 N2830 1.356 . S
C2833 C2827 1.363 . S
C2833 C2828 1.379 . S
C2833 N2831 1.356 . S
N2834 C2826 1.356 . S
N2834 H2840 0.984 . S
N2834 H2841 0.984 . S
N2835 C2828 1.356 . S
N2835 H2838 0.984 . S
N2835 H2839 0.985 . S
H2836 N2831 0.984 . S
H2837 N2831 0.985 . S
H2838 N2835 0.984 . S
H2839 N2835 0.985 . S
H2840 N2834 0.984 . S
H2841 N2834 0.984 . S
H2842 N2830 0.984 . S
H2843 N2830 0.985 . S
C2844 C2845 1.363 . S
C2844 C2850 1.379 . S
C2844 N2852 1.356 . S
C2845 C2844 1.363 . S
C2845 C2851 1.363 . S
C2846 C2847 1.363 . S
C2846 C2851 1.379 . S
C2846 N2853 1.356 . S
C2847 C2846 1.363 . S
C2847 C2850 1.363 . S
N2848 C2850 1.356 . S
N2848 H2860 0.984 . S
N2848 H2861 0.985 . S
N2849 C2851 1.356 . S
N2849 H2854 0.984 . S
N2849 H2855 0.985 . S
C2850 C2844 1.379 . S
C2850 C2847 1.363 . S
C2850 N2848 1.356 . S
C2851 C2845 1.363 . S
C2851 C2846 1.379 . S
C2851 N2849 1.356 . S
N2852 C2844 1.356 . S
N2852 H2858 0.984 . S
N2852 H2859 0.984 . S
N2853 C2846 1.356 . S
N2853 H2856 0.984 . S
N2853 H2857 0.985 . S
H2854 N2849 0.984 . S
H2855 N2849 0.985 . S
H2856 N2853 0.984 . S
H2857 N2853 0.985 . S
H2858 N2852 0.984 . S
H2859 N2852 0.984 . S
H2860 N2848 0.984 . S
H2861 N2848 0.985 . S
C2862 C2863 1.363 . S
C2862 C2868 1.379 . S
C2862 N2870 1.356 . S
C2863 C2862 1.363 . S
C2863 C2869 1.363 . S
C2864 C2865 1.363 . S
C2864 C2869 1.379 . S
C2864 N2871 1.356 . S
C2865 C2864 1.363 . S
C2865 C2868 1.363 . S
N2866 C2868 1.356 . S
N2866 H2878 0.984 . S
N2866 H2879 0.985 . S
N2867 C2869 1.356 . S
N2867 H2872 0.984 . S
N2867 H2873 0.985 . S
C2868 C2862 1.379 . S
C2868 C2865 1.363 . S
C2868 N2866 1.356 . S
C2869 C2863 1.363 . S
C2869 C2864 1.379 . S
C2869 N2867 1.356 . S
N2870 C2862 1.356 . S
N2870 H2876 0.984 . S
N2870 H2877 0.984 . S
N2871 C2864 1.356 . S
N2871 H2874 0.984 . S
N2871 H2875 0.985 . S
H2872 N2867 0.984 . S
H2873 N2867 0.985 . S
H2874 N2871 0.984 . S
H2875 N2871 0.985 . S
H2876 N2870 0.984 . S
H2877 N2870 0.984 . S
H2878 N2866 0.984 . S
H2879 N2866 0.985 . S
C2880 C2881 1.363 . S
C2880 C2886 1.379 . S
C2880 N2888 1.356 . S
C2881 C2880 1.363 . S
C2881 C2887 1.363 . S
C2882 C2883 1.363 . S
C2882 C2887 1.379 . S
C2882 N2889 1.356 . S
C2883 C2882 1.363 . S
C2883 C2886 1.363 . S
N2884 C2886 1.356 . S
N2884 H2896 0.984 . S
N2884 H2897 0.985 . S
N2885 C2887 1.356 . S
N2885 H2890 0.984 . S
N2885 H2891 0.985 . S
C2886 C2880 1.379 . S
C2886 C2883 1.363 . S
C2886 N2884 1.356 . S
C2887 C2881 1.363 . S
C2887 C2882 1.379 . S
C2887 N2885 1.356 . S
N2888 C2880 1.356 . S
N2888 H2894 0.984 . S
N2888 H2895 0.984 . S
N2889 C2882 1.356 . S
N2889 H2892 0.984 . S
N2889 H2893 0.985 . S
H2890 N2885 0.984 . S
H2891 N2885 0.985 . S
H2892 N2889 0.984 . S
H2893 N2889 0.985 . S
H2894 N2888 0.984 . S
H2895 N2888 0.984 . S
H2896 N2884 0.984 . S
H2897 N2884 0.985 . S
C2898 C2899 1.363 . S
C2898 C2904 1.379 . S
C2898 N2906 1.356 . S
C2899 C2898 1.363 . S
C2899 C2905 1.363 . S
C2900 C2901 1.363 . S
C2900 C2905 1.379 . S
C2900 N2907 1.356 . S
C2901 C2900 1.363 . S
C2901 C2904 1.363 . S
N2902 C2904 1.356 . S
N2902 H2914 0.984 . S
N2902 H2915 0.985 . S
N2903 C2905 1.356 . S
N2903 H2908 0.984 . S
N2903 H2909 0.985 . S
C2904 C2898 1.379 . S
C2904 C2901 1.363 . S
C2904 N2902 1.356 . S
C2905 C2899 1.363 . S
C2905 C2900 1.379 . S
C2905 N2903 1.356 . S
N2906 C2898 1.356 . S
N2906 H2912 0.984 . S
N2906 H2913 0.984 . S
N2907 C2900 1.356 . S
N2907 H2910 0.984 . S
N2907 H2911 0.985 . S
H2908 N2903 0.984 . S
H2909 N2903 0.985 . S
H2910 N2907 0.984 . S
H2911 N2907 0.985 . S
H2912 N2906 0.984 . S
H2913 N2906 0.984 . S
H2914 N2902 0.984 . S
H2915 N2902 0.985 . S
C2916 C2917 1.363 . S
C2916 C2922 1.379 . S
C2916 N2924 1.356 . S
C2917 C2916 1.363 . S
C2917 C2923 1.363 . S
C2918 C2919 1.363 . S
C2918 C2923 1.379 . S
C2918 N2925 1.356 . S
C2919 C2918 1.363 . S
C2919 C2922 1.363 . S
N2920 C2922 1.356 . S
N2920 H2932 0.984 . S
N2920 H2933 0.985 . S
N2921 C2923 1.356 . S
N2921 H2926 0.984 . S
N2921 H2927 0.985 . S
C2922 C2916 1.379 . S
C2922 C2919 1.363 . S
C2922 N2920 1.356 . S
C2923 C2917 1.363 . S
C2923 C2918 1.379 . S
C2923 N2921 1.356 . S
N2924 C2916 1.356 . S
N2924 H2930 0.984 . S
N2924 H2931 0.984 . S
N2925 C2918 1.356 . S
N2925 H2928 0.984 . S
N2925 H2929 0.985 . S
H2926 N2921 0.984 . S
H2927 N2921 0.985 . S
H2928 N2925 0.984 . S
H2929 N2925 0.985 . S
H2930 N2924 0.984 . S
H2931 N2924 0.984 . S
H2932 N2920 0.984 . S
H2933 N2920 0.985 . S
C2934 C2935 1.363 . S
C2934 C2940 1.379 . S
C2934 N2942 1.356 . S
C2935 C2934 1.363 . S
C2935 C2941 1.363 . S
C2936 C2937 1.363 . S
C2936 C2941 1.379 . S
C2936 N2943 1.356 . S
C2937 C2936 1.363 . S
C2937 C2940 1.363 . S
N2938 C2940 1.356 . S
N2938 H2950 0.984 . S
N2938 H2951 0.985 . S
N2939 C2941 1.356 . S
N2939 H2944 0.984 . S
N2939 H2945 0.985 . S
C2940 C2934 1.379 . S
C2940 C2937 1.363 . S
C2940 N2938 1.356 . S
C2941 C2935 1.363 . S
C2941 C2936 1.379 . S
C2941 N2939 1.356 . S
N2942 C2934 1.356 . S
N2942 H2948 0.984 . S
N2942 H2949 0.984 . S
N2943 C2936 1.356 . S
N2943 H2946 0.984 . S
N2943 H2947 0.985 . S
H2944 N2939 0.984 . S
H2945 N2939 0.985 . S
H2946 N2943 0.984 . S
H2947 N2943 0.985 . S
H2948 N2942 0.984 . S
H2949 N2942 0.984 . S
H2950 N2938 0.984 . S
H2951 N2938 0.985 . S
C2952 C2953 1.363 . S
C2952 C2958 1.379 . S
C2952 N2960 1.356 . S
C2953 C2952 1.363 . S
C2953 C2959 1.363 . S
C2954 C2955 1.363 . S
C2954 C2959 1.379 . S
C2954 N2961 1.356 . S
C2955 C2954 1.363 . S
C2955 C2958 1.363 . S
N2956 C2958 1.356 . S
N2956 H2968 0.984 . S
N2956 H2969 0.985 . S
N2957 C2959 1.356 . S
N2957 H2962 0.984 . S
N2957 H2963 0.985 . S
C2958 C2952 1.379 . S
C2958 C2955 1.363 . S
C2958 N2956 1.356 . S
C2959 C2953 1.363 . S
C2959 C2954 1.379 . S
C2959 N2957 1.356 . S
N2960 C2952 1.356 . S
N2960 H2966 0.984 . S
N2960 H2967 0.984 . S
N2961 C2954 1.356 . S
N2961 H2964 0.984 . S
N2961 H2965 0.985 . S
H2962 N2957 0.984 . S
H2963 N2957 0.985 . S
H2964 N2961 0.984 . S
H2965 N2961 0.985 . S
H2966 N2960 0.984 . S
H2967 N2960 0.984 . S
H2968 N2956 0.984 . S
H2969 N2956 0.985 . S
C2970 C2971 1.363 . S
C2970 C2976 1.379 . S
C2970 N2978 1.356 . S
C2971 C2970 1.363 . S
C2971 C2977 1.363 . S
C2972 C2973 1.363 . S
C2972 C2977 1.379 . S
C2972 N2979 1.356 . S
C2973 C2972 1.363 . S
C2973 C2976 1.363 . S
N2974 C2976 1.356 . S
N2974 H2986 0.984 . S
N2974 H2987 0.985 . S
N2975 C2977 1.356 . S
N2975 H2980 0.984 . S
N2975 H2981 0.985 . S
C2976 C2970 1.379 . S
C2976 C2973 1.363 . S
C2976 N2974 1.356 . S
C2977 C2971 1.363 . S
C2977 C2972 1.379 . S
C2977 N2975 1.356 . S
N2978 C2970 1.356 . S
N2978 H2984 0.984 . S
N2978 H2985 0.984 . S
N2979 C2972 1.356 . S
N2979 H2982 0.984 . S
N2979 H2983 0.985 . S
H2980 N2975 0.984 . S
H2981 N2975 0.985 . S
H2982 N2979 0.984 . S
H2983 N2979 0.985 . S
H2984 N2978 0.984 . S
H2985 N2978 0.984 . S
H2986 N2974 0.984 . S
H2987 N2974 0.985 . S
C2988 C2989 1.363 . S
C2988 C2994 1.379 . S
C2988 N2996 1.356 . S
C2989 C2988 1.363 . S
C2989 C2995 1.363 . S
C2990 C2991 1.363 . S
C2990 C2995 1.379 . S
C2990 N2997 1.356 . S
C2991 C2990 1.363 . S
C2991 C2994 1.363 . S
N2992 C2994 1.356 . S
N2992 H3004 0.984 . S
N2992 H3005 0.985 . S
N2993 C2995 1.356 . S
N2993 H2998 0.984 . S
N2993 H2999 0.985 . S
C2994 C2988 1.379 . S
C2994 C2991 1.363 . S
C2994 N2992 1.356 . S
C2995 C2989 1.363 . S
C2995 C2990 1.379 . S
C2995 N2993 1.356 . S
N2996 C2988 1.356 . S
N2996 H3002 0.984 . S
N2996 H3003 0.984 . S
N2997 C2990 1.356 . S
N2997 H3000 0.984 . S
N2997 H3001 0.985 . S
H2998 N2993 0.984 . S
H2999 N2993 0.985 . S
H3000 N2997 0.984 . S
H3001 N2997 0.985 . S
H3002 N2996 0.984 . S
H3003 N2996 0.984 . S
H3004 N2992 0.984 . S
H3005 N2992 0.985 . S
C3006 C3007 1.363 . S
C3006 C3012 1.379 . S
C3006 N3014 1.356 . S
C3007 C3006 1.363 . S
C3007 C3013 1.363 . S
C3008 C3009 1.363 . S
C3008 C3013 1.379 . S
C3008 N3015 1.356 . S
C3009 C3008 1.363 . S
C3009 C3012 1.363 . S
N3010 C3012 1.356 . S
N3010 H3022 0.984 . S
N3010 H3023 0.985 . S
N3011 C3013 1.356 . S
N3011 H3016 0.984 . S
N3011 H3017 0.985 . S
C3012 C3006 1.379 . S
C3012 C3009 1.363 . S
C3012 N3010 1.356 . S
C3013 C3007 1.363 . S
C3013 C3008 1.379 . S
C3013 N3011 1.356 . S
N3014 C3006 1.356 . S
N3014 H3020 0.984 1_556 S
N3014 H3021 0.984 . S
N3015 C3008 1.356 . S
N3015 H3018 0.984 . S
N3015 H3019 0.985 . S
H3016 N3011 0.984 . S
H3017 N3011 0.985 . S
H3018 N3015 0.984 . S
H3019 N3015 0.985 . S
H3020 N3014 0.984 1_554 S
H3021 N3014 0.984 . S
H3022 N3010 0.984 . S
H3023 N3010 0.985 . S
C3024 C3025 1.363 . S
C3024 C3030 1.379 . S
C3024 N3032 1.356 . S
C3025 C3024 1.363 . S
C3025 C3031 1.363 . S
C3026 C3027 1.363 . S
C3026 C3031 1.379 . S
C3026 N3033 1.356 . S
C3027 C3026 1.363 . S
C3027 C3030 1.363 . S
N3028 C3030 1.356 . S
N3028 H3040 0.984 . S
N3028 H3041 0.985 . S
N3029 C3031 1.356 . S
N3029 H3034 0.984 . S
N3029 H3035 0.985 . S
C3030 C3024 1.379 . S
C3030 C3027 1.363 . S
C3030 N3028 1.356 . S
C3031 C3025 1.363 . S
C3031 C3026 1.379 . S
C3031 N3029 1.356 . S
N3032 C3024 1.356 . S
N3032 H3038 0.989 . S
N3032 H3039 0.984 . S
N3033 C3026 1.356 . S
N3033 H3036 0.984 . S
N3033 H3037 0.985 . S
H3034 N3029 0.984 . S
H3035 N3029 0.985 . S
H3036 N3033 0.984 . S
H3037 N3033 0.985 . S
H3038 N3032 0.989 . S
H3039 N3032 0.984 . S
H3040 N3028 0.984 . S
H3041 N3028 0.985 . S
C3042 C3043 1.363 . S
C3042 C3048 1.379 . S
C3042 N3050 1.356 . S
C3043 C3042 1.363 . S
C3043 C3049 1.363 . S
C3044 C3045 1.363 . S
C3044 C3049 1.379 . S
C3044 N3051 1.356 . S
C3045 C3044 1.363 . S
C3045 C3048 1.363 . S
N3046 C3048 1.356 . S
N3046 H3058 0.984 . S
N3046 H3059 0.985 . S
N3047 C3049 1.356 . S
N3047 H3052 0.984 . S
N3047 H3053 0.985 . S
C3048 C3042 1.379 . S
C3048 C3045 1.363 . S
C3048 N3046 1.356 . S
C3049 C3043 1.363 . S
C3049 C3044 1.379 . S
C3049 N3047 1.356 . S
N3050 C3042 1.356 . S
N3050 H3056 0.984 . S
N3050 H3057 0.984 . S
N3051 C3044 1.356 . S
N3051 H3054 0.984 . S
N3051 H3055 0.985 . S
H3052 N3047 0.984 . S
H3053 N3047 0.985 . S
H3054 N3051 0.984 . S
H3055 N3051 0.985 . S
H3056 N3050 0.984 . S
H3057 N3050 0.984 . S
H3058 N3046 0.984 . S
H3059 N3046 0.985 . S
C3060 C3061 1.363 . S
C3060 C3066 1.379 . S
C3060 N3068 1.356 . S
C3061 C3060 1.363 . S
C3061 C3067 1.363 . S
C3062 C3063 1.363 . S
C3062 C3067 1.379 . S
C3062 N3069 1.356 . S
C3063 C3062 1.363 . S
C3063 C3066 1.363 . S
N3064 C3066 1.356 . S
N3064 H3076 0.984 . S
N3064 H3077 0.985 . S
N3065 C3067 1.356 . S
N3065 H3070 0.984 . S
N3065 H3071 0.985 . S
C3066 C3060 1.379 . S
C3066 C3063 1.363 . S
C3066 N3064 1.356 . S
C3067 C3061 1.363 . S
C3067 C3062 1.379 . S
C3067 N3065 1.356 . S
N3068 C3060 1.356 . S
N3068 H3074 0.984 1_556 S
N3068 H3075 0.984 . S
N3069 C3062 1.356 . S
N3069 H3072 0.984 . S
N3069 H3073 0.985 . S
H3070 N3065 0.984 . S
H3071 N3065 0.985 . S
H3072 N3069 0.984 . S
H3073 N3069 0.985 . S
H3074 N3068 0.984 1_554 S
H3075 N3068 0.984 . S
H3076 N3064 0.984 . S
H3077 N3064 0.985 . S
C3078 C3079 1.363 . S
C3078 C3084 1.379 . S
C3078 N3086 1.356 . S
C3079 C3078 1.363 . S
C3079 C3085 1.363 . S
C3080 C3081 1.363 . S
C3080 C3085 1.379 . S
C3080 N3087 1.356 . S
C3081 C3080 1.363 . S
C3081 C3084 1.363 . S
N3082 C3084 1.356 . S
N3082 H3094 0.984 . S
N3082 H3095 0.985 . S
N3083 C3085 1.356 . S
N3083 H3088 0.984 . S
N3083 H3089 0.985 . S
C3084 C3078 1.379 . S
C3084 C3081 1.363 . S
C3084 N3082 1.356 . S
C3085 C3079 1.363 . S
C3085 C3080 1.379 . S
C3085 N3083 1.356 . S
N3086 C3078 1.356 . S
N3086 H3092 0.984 . S
N3086 H3093 0.984 . S
N3087 C3080 1.356 . S
N3087 H3090 0.984 . S
N3087 H3091 0.985 . S
H3088 N3083 0.984 . S
H3089 N3083 0.985 . S
H3090 N3087 0.984 . S
H3091 N3087 0.985 . S
H3092 N3086 0.984 . S
H3093 N3086 0.984 . S
H3094 N3082 0.984 . S
H3095 N3082 0.985 . S
C3096 C3097 1.363 . S
C3096 C3102 1.379 . S
C3096 N3104 1.356 . S
C3097 C3096 1.363 . S
C3097 C3103 1.363 . S
C3098 C3099 1.363 . S
C3098 C3103 1.379 . S
C3098 N3105 1.356 . S
C3099 C3098 1.363 . S
C3099 C3102 1.363 . S
N3100 C3102 1.356 . S
N3100 H3112 0.984 . S
N3100 H3113 0.985 . S
N3101 C3103 1.356 . S
N3101 H3106 0.979 1_556 S
N3101 H3107 0.985 1_556 S
C3102 C3096 1.379 . S
C3102 C3099 1.363 . S
C3102 N3100 1.356 . S
C3103 C3097 1.363 . S
C3103 C3098 1.379 . S
C3103 N3101 1.356 . S
N3104 C3096 1.356 . S
N3104 H3110 0.984 . S
N3104 H3111 0.984 . S
N3105 C3098 1.356 . S
N3105 H3108 0.984 . S
N3105 H3109 0.985 . S
H3106 N3101 0.979 1_554 S
H3107 N3101 0.985 1_554 S
H3108 N3105 0.984 . S
H3109 N3105 0.985 . S
H3110 N3104 0.984 . S
H3111 N3104 0.984 . S
H3112 N3100 0.984 . S
H3113 N3100 0.985 . S
C3114 C3115 1.363 . S
C3114 C3120 1.379 . S
C3114 N3122 1.356 . S
C3115 C3114 1.363 . S
C3115 C3121 1.363 . S
C3116 C3117 1.363 . S
C3116 C3121 1.379 . S
C3116 N3123 1.356 . S
C3117 C3116 1.363 . S
C3117 C3120 1.363 . S
N3118 C3120 1.356 . S
N3118 H3130 0.984 . S
N3118 H3131 0.985 . S
N3119 C3121 1.356 . S
N3119 H3124 0.984 . S
N3119 H3125 0.985 . S
C3120 C3114 1.379 . S
C3120 C3117 1.363 . S
C3120 N3118 1.356 . S
C3121 C3115 1.363 . S
C3121 C3116 1.379 . S
C3121 N3119 1.356 . S
N3122 C3114 1.356 . S
N3122 H3128 0.984 . S
N3122 H3129 0.984 . S
N3123 C3116 1.356 . S
N3123 H3126 0.984 . S
N3123 H3127 0.985 . S
H3124 N3119 0.984 . S
H3125 N3119 0.985 . S
H3126 N3123 0.984 . S
H3127 N3123 0.985 . S
H3128 N3122 0.984 . S
H3129 N3122 0.984 . S
H3130 N3118 0.984 . S
H3131 N3118 0.985 . S
C3132 C3133 1.363 . S
C3132 C3138 1.379 . S
C3132 N3140 1.356 . S
C3133 C3132 1.363 . S
C3133 C3139 1.363 . S
C3134 C3135 1.363 . S
C3134 C3139 1.379 . S
C3134 N3141 1.356 . S
C3135 C3134 1.363 . S
C3135 C3138 1.363 . S
N3136 C3138 1.356 . S
N3136 H3148 0.984 . S
N3136 H3149 0.985 . S
N3137 C3139 1.356 . S
N3137 H3142 0.984 . S
N3137 H3143 0.985 . S
C3138 C3132 1.379 . S
C3138 C3135 1.363 . S
C3138 N3136 1.356 . S
C3139 C3133 1.363 . S
C3139 C3134 1.379 . S
C3139 N3137 1.356 . S
N3140 C3132 1.356 . S
N3140 H3146 0.984 . S
N3140 H3147 0.984 . S
N3141 C3134 1.356 . S
N3141 H3144 0.984 . S
N3141 H3145 0.985 . S
H3142 N3137 0.984 . S
H3143 N3137 0.985 . S
H3144 N3141 0.984 . S
H3145 N3141 0.985 . S
H3146 N3140 0.984 . S
H3147 N3140 0.984 . S
H3148 N3136 0.984 . S
H3149 N3136 0.985 . S
C3150 C3151 1.363 . S
C3150 C3156 1.379 . S
C3150 N3158 1.356 . S
C3151 C3150 1.363 . S
C3151 C3157 1.363 . S
C3152 C3153 1.363 . S
C3152 C3157 1.379 . S
C3152 N3159 1.356 . S
C3153 C3152 1.363 . S
C3153 C3156 1.363 . S
N3154 C3156 1.356 . S
N3154 H3166 0.984 . S
N3154 H3167 0.985 . S
N3155 C3157 1.356 . S
N3155 H3160 0.984 . S
N3155 H3161 0.985 . S
C3156 C3150 1.379 . S
C3156 C3153 1.363 . S
C3156 N3154 1.356 . S
C3157 C3151 1.363 . S
C3157 C3152 1.379 . S
C3157 N3155 1.356 . S
N3158 C3150 1.356 . S
N3158 H3164 0.984 . S
N3158 H3165 0.984 . S
N3159 C3152 1.356 . S
N3159 H3162 0.984 . S
N3159 H3163 0.985 . S
H3160 N3155 0.984 . S
H3161 N3155 0.985 . S
H3162 N3159 0.984 . S
H3163 N3159 0.985 . S
H3164 N3158 0.984 . S
H3165 N3158 0.984 . S
H3166 N3154 0.984 . S
H3167 N3154 0.985 . S
C3168 C3169 1.363 . S
C3168 C3174 1.379 . S
C3168 N3176 1.356 . S
C3169 C3168 1.363 . S
C3169 C3175 1.363 . S
C3170 C3171 1.363 . S
C3170 C3175 1.379 . S
C3170 N3177 1.356 . S
C3171 C3170 1.363 . S
C3171 C3174 1.363 . S
N3172 C3174 1.356 . S
N3172 H3184 0.984 . S
N3172 H3185 0.985 . S
N3173 C3175 1.356 . S
N3173 H3178 0.984 . S
N3173 H3179 0.985 . S
C3174 C3168 1.379 . S
C3174 C3171 1.363 . S
C3174 N3172 1.356 . S
C3175 C3169 1.363 . S
C3175 C3170 1.379 . S
C3175 N3173 1.356 . S
N3176 C3168 1.356 . S
N3176 H3182 0.984 . S
N3176 H3183 0.984 . S
N3177 C3170 1.356 . S
N3177 H3180 0.984 . S
N3177 H3181 0.985 . S
H3178 N3173 0.984 . S
H3179 N3173 0.985 . S
H3180 N3177 0.984 . S
H3181 N3177 0.985 . S
H3182 N3176 0.984 . S
H3183 N3176 0.984 . S
H3184 N3172 0.984 . S
H3185 N3172 0.985 . S
C3186 C3187 1.363 . S
C3186 C3192 1.379 . S
C3186 N3194 1.356 . S
C3187 C3186 1.363 . S
C3187 C3193 1.363 . S
C3188 C3189 1.363 . S
C3188 C3193 1.379 . S
C3188 N3195 1.356 . S
C3189 C3188 1.363 . S
C3189 C3192 1.363 . S
N3190 C3192 1.356 . S
N3190 H3202 0.984 . S
N3190 H3203 0.985 . S
N3191 C3193 1.356 . S
N3191 H3196 0.984 . S
N3191 H3197 0.985 . S
C3192 C3186 1.379 . S
C3192 C3189 1.363 . S
C3192 N3190 1.356 . S
C3193 C3187 1.363 . S
C3193 C3188 1.379 . S
C3193 N3191 1.356 . S
N3194 C3186 1.356 . S
N3194 H3200 0.984 . S
N3194 H3201 0.984 . S
N3195 C3188 1.356 . S
N3195 H3198 0.984 . S
N3195 H3199 0.985 . S
H3196 N3191 0.984 . S
H3197 N3191 0.985 . S
H3198 N3195 0.984 . S
H3199 N3195 0.985 . S
H3200 N3194 0.984 . S
H3201 N3194 0.984 . S
H3202 N3190 0.984 . S
H3203 N3190 0.985 . S
C3204 C3205 1.363 . S
C3204 C3210 1.379 . S
C3204 N3212 1.356 . S
C3205 C3204 1.363 . S
C3205 C3211 1.363 . S
C3206 C3207 1.363 . S
C3206 C3211 1.379 . S
C3206 N3213 1.356 . S
C3207 C3206 1.363 . S
C3207 C3210 1.363 . S
N3208 C3210 1.356 . S
N3208 H3220 0.984 . S
N3208 H3221 0.985 . S
N3209 C3211 1.356 . S
N3209 H3214 0.984 . S
N3209 H3215 0.985 . S
C3210 C3204 1.379 . S
C3210 C3207 1.363 . S
C3210 N3208 1.356 . S
C3211 C3205 1.363 . S
C3211 C3206 1.379 . S
C3211 N3209 1.356 . S
N3212 C3204 1.356 . S
N3212 H3218 0.984 . S
N3212 H3219 0.984 . S
N3213 C3206 1.356 . S
N3213 H3216 0.984 . S
N3213 H3217 0.985 . S
H3214 N3209 0.984 . S
H3215 N3209 0.985 . S
H3216 N3213 0.984 . S
H3217 N3213 0.985 . S
H3218 N3212 0.984 . S
H3219 N3212 0.984 . S
H3220 N3208 0.984 . S
H3221 N3208 0.985 . S
C3222 C3223 1.363 . S
C3222 C3228 1.379 . S
C3222 N3230 1.356 . S
C3223 C3222 1.363 . S
C3223 C3229 1.363 . S
C3224 C3225 1.363 . S
C3224 C3229 1.379 . S
C3224 N3231 1.356 1_455 S
C3225 C3224 1.363 . S
C3225 C3228 1.363 . S
N3226 C3228 1.356 . S
N3226 H3238 0.984 . S
N3226 H3239 0.985 . S
N3227 C3229 1.356 1_655 S
N3227 H3232 1.016 . S
N3227 H3233 0.985 . S
C3228 C3222 1.379 . S
C3228 C3225 1.363 . S
C3228 N3226 1.356 . S
C3229 C3223 1.363 . S
C3229 C3224 1.379 . S
C3229 N3227 1.356 1_455 S
N3230 C3222 1.356 . S
N3230 H3236 0.984 . S
N3230 H3237 0.984 . S
N3231 C3224 1.356 1_655 S
N3231 H3234 0.984 . S
N3231 H3235 0.985 . S
H3232 N3227 1.016 . S
H3233 N3227 0.985 . S
H3234 N3231 0.984 . S
H3235 N3231 0.985 . S
H3236 N3230 0.984 . S
H3237 N3230 0.984 . S
H3238 N3226 0.984 . S
H3239 N3226 0.985 . S
C3240 C3241 1.363 . S
C3240 C3246 1.379 . S
C3240 N3248 1.356 . S
C3241 C3240 1.363 . S
C3241 C3247 1.363 . S
C3242 C3243 1.363 . S
C3242 C3247 1.379 . S
C3242 N3249 1.356 . S
C3243 C3242 1.363 . S
C3243 C3246 1.363 . S
N3244 C3246 1.356 . S
N3244 H3256 0.984 . S
N3244 H3257 0.985 . S
N3245 C3247 1.356 . S
N3245 H3250 0.984 . S
N3245 H3251 0.985 . S
C3246 C3240 1.379 . S
C3246 C3243 1.363 . S
C3246 N3244 1.356 . S
C3247 C3241 1.363 . S
C3247 C3242 1.379 . S
C3247 N3245 1.356 . S
N3248 C3240 1.356 . S
N3248 H3254 0.984 . S
N3248 H3255 0.984 . S
N3249 C3242 1.356 . S
N3249 H3252 0.984 . S
N3249 H3253 0.985 . S
H3250 N3245 0.984 . S
H3251 N3245 0.985 . S
H3252 N3249 0.984 . S
H3253 N3249 0.985 . S
H3254 N3248 0.984 . S
H3255 N3248 0.984 . S
H3256 N3244 0.984 . S
H3257 N3244 0.985 . S
C3258 C3259 1.363 1_545 S
C3258 C3264 1.379 . S
C3258 N3266 1.356 . S
C3259 C3258 1.363 1_565 S
C3259 C3265 1.363 . S
C3260 C3261 1.363 . S
C3260 C3265 1.379 . S
C3260 N3267 1.356 . S
C3261 C3260 1.363 . S
C3261 C3264 1.363 1_565 S
N3262 C3264 1.356 . S
N3262 H3274 0.984 . S
N3262 H3275 0.985 . S
N3263 C3265 1.356 . S
N3263 H3268 0.984 . S
N3263 H3269 0.985 . S
C3264 C3258 1.379 . S
C3264 C3261 1.363 1_545 S
C3264 N3262 1.356 . S
C3265 C3259 1.363 . S
C3265 C3260 1.379 . S
C3265 N3263 1.356 . S
N3266 C3258 1.356 . S
N3266 H3272 0.984 . S
N3266 H3273 0.984 . S
N3267 C3260 1.356 . S
N3267 H3270 0.984 . S
N3267 H3271 0.985 . S
H3268 N3263 0.984 . S
H3269 N3263 0.985 . S
H3270 N3267 0.984 . S
H3271 N3267 0.985 . S
H3272 N3266 0.984 . S
H3273 N3266 0.984 . S
H3274 N3262 0.984 . S
H3275 N3262 0.985 . S
C3276 C3277 1.363 . S
C3276 C3282 1.379 . S
C3276 N3284 1.356 . S
C3277 C3276 1.363 . S
C3277 C3283 1.363 1_565 S
C3278 C3279 1.363 1_545 S
C3278 C3283 1.379 . S
C3278 N3285 1.356 . S
C3279 C3278 1.363 1_565 S
C3279 C3282 1.363 . S
N3280 C3282 1.356 . S
N3280 H3292 0.984 . S
N3280 H3293 0.985 . S
N3281 C3283 1.356 . S
N3281 H3286 0.984 . S
N3281 H3287 0.985 . S
C3282 C3276 1.379 . S
C3282 C3279 1.363 . S
C3282 N3280 1.356 . S
C3283 C3277 1.363 1_545 S
C3283 C3278 1.379 . S
C3283 N3281 1.356 . S
N3284 C3276 1.356 . S
N3284 H3290 0.984 . S
N3284 H3291 0.984 . S
N3285 C3278 1.356 . S
N3285 H3288 0.984 . S
N3285 H3289 0.985 . S
H3286 N3281 0.984 . S
H3287 N3281 0.985 . S
H3288 N3285 0.984 . S
H3289 N3285 0.985 . S
H3290 N3284 0.984 . S
H3291 N3284 0.984 . S
H3292 N3280 0.984 . S
H3293 N3280 0.985 . S
C3294 C3295 1.363 1_655 S
C3294 C3300 1.379 . S
C3294 N3302 1.356 . S
C3295 C3294 1.363 1_455 S
C3295 C3301 1.363 . S
C3296 C3297 1.363 . S
C3296 C3301 1.379 . S
C3296 N3303 1.356 . S
C3297 C3296 1.363 . S
C3297 C3300 1.363 1_455 S
N3298 C3300 1.356 . S
N3298 H3310 0.984 . S
N3298 H3311 0.985 . S
N3299 C3301 1.356 . S
N3299 H3304 0.984 . S
N3299 H3305 0.985 . S
C3300 C3294 1.379 . S
C3300 C3297 1.363 1_655 S
C3300 N3298 1.356 . S
C3301 C3295 1.363 . S
C3301 C3296 1.379 . S
C3301 N3299 1.356 . S
N3302 C3294 1.356 . S
N3302 H3308 0.984 . S
N3302 H3309 0.984 . S
N3303 C3296 1.356 . S
N3303 H3306 0.984 . S
N3303 H3307 0.985 . S
H3304 N3299 0.984 . S
H3305 N3299 0.985 . S
H3306 N3303 0.984 . S
H3307 N3303 0.985 . S
H3308 N3302 0.984 . S
H3309 N3302 0.984 . S
H3310 N3298 0.984 . S
H3311 N3298 0.985 . S
C3312 C3313 1.363 . S
C3312 C3318 1.379 . S
C3312 N3320 1.356 . S
C3313 C3312 1.363 . S
C3313 C3319 1.363 . S
C3314 C3315 1.363 . S
C3314 C3319 1.379 . S
C3314 N3321 1.356 . S
C3315 C3314 1.363 . S
C3315 C3318 1.363 . S
N3316 C3318 1.356 . S
N3316 H3328 0.984 . S
N3316 H3329 0.985 . S
N3317 C3319 1.356 . S
N3317 H3322 0.984 . S
N3317 H3323 0.985 . S
C3318 C3312 1.379 . S
C3318 C3315 1.363 . S
C3318 N3316 1.356 . S
C3319 C3313 1.363 . S
C3319 C3314 1.379 . S
C3319 N3317 1.356 . S
N3320 C3312 1.356 . S
N3320 H3326 0.984 . S
N3320 H3327 0.984 . S
N3321 C3314 1.356 . S
N3321 H3324 0.984 . S
N3321 H3325 0.985 . S
H3322 N3317 0.984 . S
H3323 N3317 0.985 . S
H3324 N3321 0.984 . S
H3325 N3321 0.985 . S
H3326 N3320 0.984 . S
H3327 N3320 0.984 . S
H3328 N3316 0.984 . S
H3329 N3316 0.985 . S
C3330 C3331 1.363 . S
C3330 C3336 1.379 . S
C3330 N3338 1.356 . S
C3331 C3330 1.363 . S
C3331 C3337 1.363 . S
C3332 C3333 1.363 . S
C3332 C3337 1.379 . S
C3332 N3339 1.356 . S
C3333 C3332 1.363 . S
C3333 C3336 1.363 . S
N3334 C3336 1.356 . S
N3334 H3346 0.984 . S
N3334 H3347 0.985 . S
N3335 C3337 1.356 . S
N3335 H3340 0.984 . S
N3335 H3341 0.985 . S
C3336 C3330 1.379 . S
C3336 C3333 1.363 . S
C3336 N3334 1.356 . S
C3337 C3331 1.363 . S
C3337 C3332 1.379 . S
C3337 N3335 1.356 . S
N3338 C3330 1.356 . S
N3338 H3344 0.984 . S
N3338 H3345 0.984 . S
N3339 C3332 1.356 . S
N3339 H3342 0.984 . S
N3339 H3343 0.985 . S
H3340 N3335 0.984 . S
H3341 N3335 0.985 . S
H3342 N3339 0.984 . S
H3343 N3339 0.985 . S
H3344 N3338 0.984 . S
H3345 N3338 0.984 . S
H3346 N3334 0.984 . S
H3347 N3334 0.985 . S
C3348 C3349 1.363 . S
C3348 C3354 1.379 . S
C3348 N3356 1.356 . S
C3349 C3348 1.363 . S
C3349 C3355 1.363 . S
C3350 C3351 1.363 . S
C3350 C3355 1.379 . S
C3350 N3357 1.356 . S
C3351 C3350 1.363 . S
C3351 C3354 1.363 . S
N3352 C3354 1.356 . S
N3352 H3364 0.984 . S
N3352 H3365 0.985 . S
N3353 C3355 1.356 . S
N3353 H3358 0.984 . S
N3353 H3359 0.985 . S
C3354 C3348 1.379 . S
C3354 C3351 1.363 . S
C3354 N3352 1.356 . S
C3355 C3349 1.363 . S
C3355 C3350 1.379 . S
C3355 N3353 1.356 . S
N3356 C3348 1.356 . S
N3356 H3362 0.984 . S
N3356 H3363 0.984 . S
N3357 C3350 1.356 . S
N3357 H3360 0.984 . S
N3357 H3361 0.985 . S
H3358 N3353 0.984 . S
H3359 N3353 0.985 . S
H3360 N3357 0.984 . S
H3361 N3357 0.985 . S
H3362 N3356 0.984 . S
H3363 N3356 0.984 . S
H3364 N3352 0.984 . S
H3365 N3352 0.985 . S
C3366 C3367 1.363 . S
C3366 C3372 1.379 . S
C3366 N3374 1.356 . S
C3367 C3366 1.363 . S
C3367 C3373 1.363 . S
C3368 C3369 1.363 . S
C3368 C3373 1.379 . S
C3368 N3375 1.356 . S
C3369 C3368 1.363 . S
C3369 C3372 1.363 . S
N3370 C3372 1.356 . S
N3370 H3382 0.984 . S
N3370 H3383 0.985 . S
N3371 C3373 1.356 . S
N3371 H3376 0.984 . S
N3371 H3377 0.985 . S
C3372 C3366 1.379 . S
C3372 C3369 1.363 . S
C3372 N3370 1.356 . S
C3373 C3367 1.363 . S
C3373 C3368 1.379 . S
C3373 N3371 1.356 . S
N3374 C3366 1.356 . S
N3374 H3380 0.984 . S
N3374 H3381 0.984 . S
N3375 C3368 1.356 . S
N3375 H3378 0.984 . S
N3375 H3379 0.985 . S
H3376 N3371 0.984 . S
H3377 N3371 0.985 . S
H3378 N3375 0.984 . S
H3379 N3375 0.985 . S
H3380 N3374 0.984 . S
H3381 N3374 0.984 . S
H3382 N3370 0.984 . S
H3383 N3370 0.985 . S
C3384 C3385 1.363 . S
C3384 C3390 1.379 . S
C3384 N3392 1.356 . S
C3385 C3384 1.363 . S
C3385 C3391 1.363 1_545 S
C3386 C3387 1.363 1_565 S
C3386 C3391 1.379 . S
C3386 N3393 1.356 . S
C3387 C3386 1.363 1_545 S
C3387 C3390 1.363 . S
N3388 C3390 1.356 . S
N3388 H3400 0.984 . S
N3388 H3401 0.985 . S
N3389 C3391 1.356 . S
N3389 H3394 0.984 . S
N3389 H3395 0.985 . S
C3390 C3384 1.379 . S
C3390 C3387 1.363 . S
C3390 N3388 1.356 . S
C3391 C3385 1.363 1_565 S
C3391 C3386 1.379 . S
C3391 N3389 1.356 . S
N3392 C3384 1.356 . S
N3392 H3398 0.984 . S
N3392 H3399 0.984 . S
N3393 C3386 1.356 . S
N3393 H3396 0.984 . S
N3393 H3397 0.985 . S
H3394 N3389 0.984 . S
H3395 N3389 0.985 . S
H3396 N3393 0.984 . S
H3397 N3393 0.985 . S
H3398 N3392 0.984 . S
H3399 N3392 0.984 . S
H3400 N3388 0.984 . S
H3401 N3388 0.985 . S
C3402 C3403 1.363 1_455 S
C3402 C3408 1.379 . S
C3402 N3410 1.356 . S
C3403 C3402 1.363 1_655 S
C3403 C3409 1.363 . S
C3404 C3405 1.363 . S
C3404 C3409 1.379 . S
C3404 N3411 1.356 . S
C3405 C3404 1.363 . S
C3405 C3408 1.363 1_655 S
N3406 C3408 1.356 . S
N3406 H3418 0.984 . S
N3406 H3419 0.985 . S
N3407 C3409 1.356 . S
N3407 H3412 0.984 . S
N3407 H3413 0.985 . S
C3408 C3402 1.379 . S
C3408 C3405 1.363 1_455 S
C3408 N3406 1.356 . S
C3409 C3403 1.363 . S
C3409 C3404 1.379 . S
C3409 N3407 1.356 . S
N3410 C3402 1.356 . S
N3410 H3416 0.984 . S
N3410 H3417 0.984 . S
N3411 C3404 1.356 . S
N3411 H3414 0.984 . S
N3411 H3415 0.985 . S
H3412 N3407 0.984 . S
H3413 N3407 0.985 . S
H3414 N3411 0.984 . S
H3415 N3411 0.985 . S
H3416 N3410 0.984 . S
H3417 N3410 0.984 . S
H3418 N3406 0.984 . S
H3419 N3406 0.985 . S
C3420 C3421 1.363 . S
C3420 C3426 1.379 . S
C3420 N3428 1.356 . S
C3421 C3420 1.363 . S
C3421 C3427 1.363 . S
C3422 C3423 1.363 . S
C3422 C3427 1.379 . S
C3422 N3429 1.356 . S
C3423 C3422 1.363 . S
C3423 C3426 1.363 . S
N3424 C3426 1.356 . S
N3424 H3436 0.984 . S
N3424 H3437 0.985 . S
N3425 C3427 1.356 . S
N3425 H3430 0.984 . S
N3425 H3431 0.985 . S
C3426 C3420 1.379 . S
C3426 C3423 1.363 . S
C3426 N3424 1.356 . S
C3427 C3421 1.363 . S
C3427 C3422 1.379 . S
C3427 N3425 1.356 . S
N3428 C3420 1.356 . S
N3428 H3434 0.984 . S
N3428 H3435 0.984 . S
N3429 C3422 1.356 . S
N3429 H3432 0.984 . S
N3429 H3433 0.985 . S
H3430 N3425 0.984 . S
H3431 N3425 0.985 . S
H3432 N3429 0.984 . S
H3433 N3429 0.985 . S
H3434 N3428 0.984 . S
H3435 N3428 0.984 . S
H3436 N3424 0.984 . S
H3437 N3424 0.985 . S
C3438 C3439 1.363 . S
C3438 C3444 1.379 . S
C3438 N3446 1.356 . S
C3439 C3438 1.363 . S
C3439 C3445 1.363 . S
C3440 C3441 1.363 . S
C3440 C3445 1.379 . S
C3440 N3447 1.356 . S
C3441 C3440 1.363 . S
C3441 C3444 1.363 . S
N3442 C3444 1.356 . S
N3442 H3454 0.984 . S
N3442 H3455 0.985 . S
N3443 C3445 1.356 . S
N3443 H3448 0.984 . S
N3443 H3449 0.985 . S
C3444 C3438 1.379 . S
C3444 C3441 1.363 . S
C3444 N3442 1.356 . S
C3445 C3439 1.363 . S
C3445 C3440 1.379 . S
C3445 N3443 1.356 . S
N3446 C3438 1.356 . S
N3446 H3452 0.984 . S
N3446 H3453 0.984 . S
N3447 C3440 1.356 . S
N3447 H3450 0.984 . S
N3447 H3451 0.985 . S
H3448 N3443 0.984 . S
H3449 N3443 0.985 . S
H3450 N3447 0.984 . S
H3451 N3447 0.985 . S
H3452 N3446 0.984 . S
H3453 N3446 0.984 . S
H3454 N3442 0.984 . S
H3455 N3442 0.985 . S
C3456 C3457 1.363 . S
C3456 C3462 1.379 . S
C3456 N3464 1.356 . S
C3457 C3456 1.363 . S
C3457 C3463 1.363 . S
C3458 C3459 1.363 . S
C3458 C3463 1.379 . S
C3458 N3465 1.356 . S
C3459 C3458 1.363 . S
C3459 C3462 1.363 . S
N3460 C3462 1.356 . S
N3460 H3472 0.984 . S
N3460 H3473 0.985 . S
N3461 C3463 1.356 . S
N3461 H3466 0.984 . S
N3461 H3467 0.985 . S
C3462 C3456 1.379 . S
C3462 C3459 1.363 . S
C3462 N3460 1.356 . S
C3463 C3457 1.363 . S
C3463 C3458 1.379 . S
C3463 N3461 1.356 . S
N3464 C3456 1.356 . S
N3464 H3470 0.984 . S
N3464 H3471 0.984 . S
N3465 C3458 1.356 . S
N3465 H3468 0.984 . S
N3465 H3469 0.985 . S
H3466 N3461 0.984 . S
H3467 N3461 0.985 . S
H3468 N3465 0.984 . S
H3469 N3465 0.985 . S
H3470 N3464 0.984 . S
H3471 N3464 0.984 . S
H3472 N3460 0.984 . S
H3473 N3460 0.985 . S
C3474 C3475 1.363 . S
C3474 C3480 1.379 . S
C3474 N3482 1.356 . S
C3475 C3474 1.363 . S
C3475 C3481 1.363 . S
C3476 C3477 1.363 . S
C3476 C3481 1.379 . S
C3476 N3483 1.356 . S
C3477 C3476 1.363 . S
C3477 C3480 1.363 . S
N3478 C3480 1.356 . S
N3478 H3490 0.984 . S
N3478 H3491 0.985 . S
N3479 C3481 1.356 . S
N3479 H3484 0.984 . S
N3479 H3485 0.985 . S
C3480 C3474 1.379 . S
C3480 C3477 1.363 . S
C3480 N3478 1.356 . S
C3481 C3475 1.363 . S
C3481 C3476 1.379 . S
C3481 N3479 1.356 . S
N3482 C3474 1.356 . S
N3482 H3488 0.984 . S
N3482 H3489 0.984 . S
N3483 C3476 1.356 . S
N3483 H3486 0.984 . S
N3483 H3487 0.985 . S
H3484 N3479 0.984 . S
H3485 N3479 0.985 . S
H3486 N3483 0.984 . S
H3487 N3483 0.985 . S
H3488 N3482 0.984 . S
H3489 N3482 0.984 . S
H3490 N3478 0.984 . S
H3491 N3478 0.985 . S
C3492 C3493 1.363 . S
C3492 C3498 1.379 . S
C3492 N3500 1.356 . S
C3493 C3492 1.363 . S
C3493 C3499 1.363 . S
C3494 C3495 1.363 . S
C3494 C3499 1.379 . S
C3494 N3501 1.356 . S
C3495 C3494 1.363 . S
C3495 C3498 1.363 . S
N3496 C3498 1.356 . S
N3496 H3508 0.984 . S
N3496 H3509 0.985 . S
N3497 C3499 1.356 . S
N3497 H3502 0.984 . S
N3497 H3503 0.985 . S
C3498 C3492 1.379 . S
C3498 C3495 1.363 . S
C3498 N3496 1.356 . S
C3499 C3493 1.363 . S
C3499 C3494 1.379 . S
C3499 N3497 1.356 . S
N3500 C3492 1.356 . S
N3500 H3506 0.984 . S
N3500 H3507 0.984 . S
N3501 C3494 1.356 . S
N3501 H3504 0.984 . S
N3501 H3505 0.985 . S
H3502 N3497 0.984 . S
H3503 N3497 0.985 . S
H3504 N3501 0.984 . S
H3505 N3501 0.985 . S
H3506 N3500 0.984 . S
H3507 N3500 0.984 . S
H3508 N3496 0.984 . S
H3509 N3496 0.985 . S
C3510 C3511 1.363 . S
C3510 C3516 1.379 . S
C3510 N3518 1.356 . S
C3511 C3510 1.363 . S
C3511 C3517 1.363 . S
C3512 C3513 1.363 . S
C3512 C3517 1.379 . S
C3512 N3519 1.356 . S
C3513 C3512 1.363 . S
C3513 C3516 1.363 . S
N3514 C3516 1.356 . S
N3514 H3526 0.984 . S
N3514 H3527 0.985 . S
N3515 C3517 1.356 . S
N3515 H3520 0.984 . S
N3515 H3521 0.985 . S
C3516 C3510 1.379 . S
C3516 C3513 1.363 . S
C3516 N3514 1.356 . S
C3517 C3511 1.363 . S
C3517 C3512 1.379 . S
C3517 N3515 1.356 . S
N3518 C3510 1.356 . S
N3518 H3524 0.984 . S
N3518 H3525 0.984 . S
N3519 C3512 1.356 . S
N3519 H3522 0.984 . S
N3519 H3523 0.985 . S
H3520 N3515 0.984 . S
H3521 N3515 0.985 . S
H3522 N3519 0.984 . S
H3523 N3519 0.985 . S
H3524 N3518 0.984 . S
H3525 N3518 0.984 . S
H3526 N3514 0.984 . S
H3527 N3514 0.985 . S
C3528 C3529 1.363 . S
C3528 C3534 1.379 . S
C3528 N3536 1.356 . S
C3529 C3528 1.363 . S
C3529 C3535 1.363 . S
C3530 C3531 1.363 . S
C3530 C3535 1.379 . S
C3530 N3537 1.356 . S
C3531 C3530 1.363 . S
C3531 C3534 1.363 . S
N3532 C3534 1.356 . S
N3532 H3544 0.984 . S
N3532 H3545 0.985 . S
N3533 C3535 1.356 . S
N3533 H3538 0.984 . S
N3533 H3539 0.985 . S
C3534 C3528 1.379 . S
C3534 C3531 1.363 . S
C3534 N3532 1.356 . S
C3535 C3529 1.363 . S
C3535 C3530 1.379 . S
C3535 N3533 1.356 . S
N3536 C3528 1.356 . S
N3536 H3542 0.984 . S
N3536 H3543 0.984 . S
N3537 C3530 1.356 . S
N3537 H3540 0.984 . S
N3537 H3541 0.985 . S
H3538 N3533 0.984 . S
H3539 N3533 0.985 . S
H3540 N3537 0.984 . S
H3541 N3537 0.985 . S
H3542 N3536 0.984 . S
H3543 N3536 0.984 . S
H3544 N3532 0.984 . S
H3545 N3532 0.985 . S
C3546 C3547 1.363 1_455 S
C3546 C3552 1.379 . S
C3546 N3554 1.356 . S
C3547 C3546 1.363 1_655 S
C3547 C3553 1.363 . S
C3548 C3549 1.363 . S
C3548 C3553 1.379 . S
C3548 N3555 1.356 . S
C3549 C3548 1.363 . S
C3549 C3552 1.363 1_655 S
N3550 C3552 1.356 . S
N3550 H3562 0.984 . S
N3550 H3563 0.985 . S
N3551 C3553 1.356 . S
N3551 H3556 0.984 . S
N3551 H3557 0.985 . S
C3552 C3546 1.379 . S
C3552 C3549 1.363 1_455 S
C3552 N3550 1.356 . S
C3553 C3547 1.363 . S
C3553 C3548 1.379 . S
C3553 N3551 1.356 . S
N3554 C3546 1.356 . S
N3554 H3560 0.984 . S
N3554 H3561 0.984 . S
N3555 C3548 1.356 . S
N3555 H3558 0.984 . S
N3555 H3559 0.985 . S
H3556 N3551 0.984 . S
H3557 N3551 0.985 . S
H3558 N3555 0.984 . S
H3559 N3555 0.985 . S
H3560 N3554 0.984 . S
H3561 N3554 0.984 . S
H3562 N3550 0.984 . S
H3563 N3550 0.985 . S
C3564 C3565 1.363 . S
C3564 C3570 1.379 . S
C3564 N3572 1.356 . S
C3565 C3564 1.363 . S
C3565 C3571 1.363 . S
C3566 C3567 1.363 . S
C3566 C3571 1.379 . S
C3566 N3573 1.356 . S
C3567 C3566 1.363 . S
C3567 C3570 1.363 . S
N3568 C3570 1.356 . S
N3568 H3580 0.984 . S
N3568 H3581 0.985 . S
N3569 C3571 1.356 . S
N3569 H3574 0.984 . S
N3569 H3575 0.985 . S
C3570 C3564 1.379 . S
C3570 C3567 1.363 . S
C3570 N3568 1.356 . S
C3571 C3565 1.363 . S
C3571 C3566 1.379 . S
C3571 N3569 1.356 . S
N3572 C3564 1.356 . S
N3572 H3578 0.984 . S
N3572 H3579 0.984 . S
N3573 C3566 1.356 . S
N3573 H3576 0.984 . S
N3573 H3577 0.985 . S
H3574 N3569 0.984 . S
H3575 N3569 0.985 . S
H3576 N3573 0.984 . S
H3577 N3573 0.985 . S
H3578 N3572 0.984 . S
H3579 N3572 0.984 . S
H3580 N3568 0.984 . S
H3581 N3568 0.985 . S
C3582 C3583 1.363 . S
C3582 C3588 1.379 . S
C3582 N3590 1.356 . S
C3583 C3582 1.363 . S
C3583 C3589 1.363 1_545 S
C3584 C3585 1.363 1_565 S
C3584 C3589 1.379 . S
C3584 N3591 1.356 . S
C3585 C3584 1.363 1_545 S
C3585 C3588 1.363 . S
N3586 C3588 1.356 . S
N3586 H3598 0.984 . S
N3586 H3599 0.985 . S
N3587 C3589 1.356 . S
N3587 H3592 0.984 . S
N3587 H3593 0.985 . S
C3588 C3582 1.379 . S
C3588 C3585 1.363 . S
C3588 N3586 1.356 . S
C3589 C3583 1.363 1_565 S
C3589 C3584 1.379 . S
C3589 N3587 1.356 . S
N3590 C3582 1.356 . S
N3590 H3596 0.984 . S
N3590 H3597 0.984 . S
N3591 C3584 1.356 . S
N3591 H3594 0.984 . S
N3591 H3595 0.985 . S
H3592 N3587 0.984 . S
H3593 N3587 0.985 . S
H3594 N3591 0.984 . S
H3595 N3591 0.985 . S
H3596 N3590 0.984 . S
H3597 N3590 0.984 . S
H3598 N3586 0.984 . S
H3599 N3586 0.985 . S
C2305 C8 1.398 1_655 S
C2307 C1307 1.081 . S
C2323 C22 1.780 . S
C2325 C1447 1.061 . S
C2343 C1535 1.184 . S
C2341 C37 1.421 . S
C2359 C36 1.469 1_565 S
C2361 C1675 1.069 1_565 S
C2377 C9 1.423 . S
C2379 C1789 1.041 1_455 S
C2395 C23 1.802 . S
C2397 C1877 1.246 . S
C2413 C50 1.327 1_455 S
C2415 C1763 1.086 . S
C2433 C1903 1.410 . S
C2431 C64 1.654 . S
C2451 C1649 1.165 . S
C2449 C79 1.417 1_565 S
C2467 C78 1.422 . S
C2469 C1561 1.077 . S
C2487 C1333 1.066 . S
C2485 C51 1.424 1_655 S
C2503 C65 1.672 . S
C2505 C1421 1.503 . S
C2521 C92 1.843 . S
C2523 C1991 1.253 . S
C2539 C106 1.873 . S
C2541 C2131 1.145 . S
C2559 C2219 1.262 . S
C2557 C121 1.814 . S
C2575 C120 1.827 . S
C2577 C307 1.115 . S
C2593 C93 1.832 . S
C2595 C421 1.099 . S
C2611 C107 1.866 . S
C2613 C509 1.300 . S
C2629 C134 1.605 . S
C2631 C395 1.430 . S
C2647 C148 1.717 . S
C2649 C535 1.503 . S
C2667 C281 1.505 . S
C2665 C163 1.676 . S
C2685 C2245 1.581 . S
C2683 C162 1.808 . S
C2703 C2017 1.485 . S
C2701 C135 1.713 . S
C2721 C2105 1.613 . S
C2719 C149 1.759 . S
C2737 C176 1.743 . S
C2739 C623 1.157 . S
C2755 C190 1.851 . S
C2757 C763 1.114 . S
C2773 C205 1.805 . S
C2775 C851 1.257 . S
C2791 C204 1.928 . S
C2793 C991 1.211 . S
C2811 C1105 1.107 . S
C2809 C177 1.846 . S
C2829 C1193 1.331 . S
C2827 C191 1.893 . S
C2847 C1079 1.531 . S
C2845 C218 1.714 . S
C2865 C1219 1.523 . S
C2863 C232 1.743 . S
C2881 C247 1.678 . S
C2883 C965 1.514 . S
C2901 C877 1.486 . S
C2899 C246 1.699 . S
C2917 C219 1.705 . S
C2919 C649 1.467 . S
C2937 C737 1.586 . S
C2935 C233 1.728 . S
C2955 C263 0.901 . S
C2953 C6 1.780 . S
C2971 C20 1.617 . S
C2973 C377 0.861 . S
C2991 C481 1.184 . S
C2989 C35 1.708 . S
C3009 C595 1.152 . S
C3007 C34 1.627 . S
C3027 C719 0.904 . S
C3025 C7 1.748 . S
C3045 C823 1.155 . S
C3043 C21 1.636 . S
C3061 C48 1.897 . S
C3063 C833 1.399 . S
C3079 C62 1.735 . S
C3081 C605 1.329 . S
C3097 C77 1.841 . S
C3099 C709 1.600 . S
C3115 C76 1.758 . S
C3117 C367 1.549 . S
C3135 C491 1.433 . S
C3133 C49 1.877 . S
C3151 C63 1.758 . S
C3153 C253 1.537 . S
C3171 C947 0.927 . S
C3169 C90 1.706 . S
C3187 C104 1.702 . S
C3189 C1061 0.963 . S
C3205 C119 1.686 . S
C3207 C1165 1.261 . S
C3225 C1279 1.130 . S
C3223 C118 1.324 . S
C3241 C91 1.663 . S
C3243 C1403 0.903 . S
C3259 C105 1.411 . S
C3261 C1507 1.166 . S
C3277 C132 1.512 . S
C3279 C1517 0.955 1_565 S
C3295 C146 1.437 . S
C3297 C1289 0.950 1_455 S
C3315 C1393 1.526 . S
C3313 C161 1.749 . S
C3331 C160 1.705 . S
C3333 C1051 1.531 . S
C3349 C133 1.826 . S
C3351 C1175 1.413 . S
C3369 C937 1.605 . S
C3367 C147 1.827 . S
C3387 C1631 0.964 . S
C3385 C174 1.496 . S
C3403 C188 1.407 . S
C3405 C1745 0.943 . S
C3421 C203 1.630 . S
C3423 C1849 1.179 . S
C3441 C1963 1.175 . S
C3439 C202 1.576 . S
C3459 C2087 0.986 . S
C3457 C175 1.718 . S
C3475 C189 1.712 . S
C3477 C2191 1.259 . S
C3493 C216 1.823 . S
C3495 C2201 1.367 . S
C3511 C230 1.812 . S
C3513 C1973 1.388 . S
C3531 C2077 1.596 . S
C3529 C245 1.797 . S
C3549 C1735 1.137 1_655 S
C3547 C244 1.338 . S
C3567 C1859 1.350 . S
C3565 C217 1.780 . S
C3583 C231 1.444 . S
C3585 C1621 1.187 1_545 S
