# Generated by pormake.
# Topology pyr, (3,6)-cn, num edge types: 1
# Building blocks:
#     Node 0, Type 0, BuildingBlock: MIDCAF_clean_linker_0, # of connection points: 3
#     Node 1, Type 0, BuildingBlock: MIDCAF_clean_linker_0, # of connection points: 3
#     Node 2, Type 0, BuildingBlock: MIDCAF_clean_linker_0, # of connection points: 3
#     Node 3, Type 0, BuildingBlock: MIDCAF_clean_linker_0, # of connection points: 3
#     Node 4, Type 0, BuildingBlock: MIDCAF_clean_linker_0, # of connection points: 3
#     Node 5, Type 0, BuildingBlock: MIDCAF_clean_linker_0, # of connection points: 3
#     Node 6, Type 0, BuildingBlock: MIDCAF_clean_linker_0, # of connection points: 3
#     Node 7, Type 0, BuildingBlock: MIDCAF_clean_linker_0, # of connection points: 3
#     Node 8, Type 1, BuildingBlock: PAMTUU_clean_sbu_0, # of connection points: 6
#     Node 9, Type 1, BuildingBlock: PAMTUU_clean_sbu_0, # of connection points: 6
#     Node 10, Type 1, BuildingBlock: PAMTUU_clean_sbu_0, # of connection points: 6
#     Node 11, Type 1, BuildingBlock: PAMTUU_clean_sbu_0, # of connection points: 6
#     Edge 12, Type (0, 1), None
#     Edge 13, Type (0, 1), None
#     Edge 14, Type (0, 1), None
#     Edge 15, Type (0, 1), None
#     Edge 16, Type (0, 1), None
#     Edge 17, Type (0, 1), None
#     Edge 18, Type (0, 1), None
#     Edge 19, Type (0, 1), None
#     Edge 20, Type (0, 1), None
#     Edge 21, Type (0, 1), None
#     Edge 22, Type (0, 1), None
#     Edge 23, Type (0, 1), None
#     Edge 24, Type (0, 1), None
#     Edge 25, Type (0, 1), None
#     Edge 26, Type (0, 1), None
#     Edge 27, Type (0, 1), None
#     Edge 28, Type (0, 1), None
#     Edge 29, Type (0, 1), None
#     Edge 30, Type (0, 1), None
#     Edge 31, Type (0, 1), None
#     Edge 32, Type (0, 1), None
#     Edge 33, Type (0, 1), None
#     Edge 34, Type (0, 1), None
#     Edge 35, Type (0, 1), None
# Relax obj value: 0.226
# Max RMSD: 0.171
# Mean RMSD: 0.072
data_MOF--net-pyr--node1-PAMTUU_clean_sbu_0--node2-MIDCAF_clean_linker_0--edge1-none
_symmetry_space_group_name_H-M    P1
_symmetry_Int_Tables_number       1
_symmetry_cell_setting            triclinic
loop_
_symmetry_equiv_pos_as_xyz
'x, y, z'
_cell_length_a     25.777036
_cell_length_b     26.097112
_cell_length_c     23.935224
_cell_angle_alpha  89.901601
_cell_angle_beta   89.660309
_cell_angle_gamma 104.08686
loop_
_atom_site_label
_atom_site_type_symbol
_atom_site_fract_x
_atom_site_fract_y
_atom_site_fract_z
_atom_type_partial_charge
C0 C 0.35746 0.3073 0.50925 0.0
C1 C 0.37078 0.25895 0.51932 0.0
C2 C 0.42035 0.25271 0.49938 0.0
C3 C 0.44862 0.28747 0.45906 0.0
H4 H 0.52644 0.25945 0.32061 0.0
H5 H 0.55245 0.18815 0.27015 0.0
H6 H 0.45766 0.21414 0.12955 0.0
H7 H 0.43181 0.28493 0.17927 0.0
H8 H 0.33721 0.34082 0.19629 0.0
H9 H 0.24943 0.35256 0.16924 0.0
H10 H 0.23426 0.42471 0.32867 0.0
H11 H 0.32138 0.41343 0.35579 0.0
H12 H 0.3706 0.37568 0.45731 0.0
H13 H 0.32066 0.31479 0.52529 0.0
H14 H 0.43354 0.21737 0.50909 0.0
H15 H 0.48213 0.27722 0.43825 0.0
N16 N 0.46039 0.3164 0.34449 0.0
N17 N 0.41337 0.33495 0.26635 0.0
N18 N 0.39488 0.36373 0.35507 0.0
C19 C 0.45191 0.31339 0.28848 0.0
C20 C 0.38505 0.36083 0.29945 0.0
C21 C 0.43211 0.34158 0.37826 0.0
C22 C 0.47612 0.2775 0.25446 0.0
C23 C 0.51182 0.25056 0.27853 0.0
C24 C 0.52682 0.20963 0.24972 0.0
C25 C 0.50606 0.19462 0.19652 0.0
C26 C 0.47338 0.22389 0.17111 0.0
C27 C 0.45879 0.26489 0.19955 0.0
C28 C 0.33644 0.37569 0.27847 0.0
C29 C 0.31561 0.35999 0.22525 0.0
C30 C 0.26517 0.36647 0.2098 0.0
C31 C 0.23442 0.38845 0.24736 0.0
C32 C 0.25632 0.40633 0.2994 0.0
C33 C 0.30666 0.40026 0.31466 0.0
C34 C 0.42726 0.32852 0.4387 0.0
C35 C 0.38629 0.34248 0.46976 0.0
C36 C 1.02168 0.91465 0.74235 0.0
C37 C 0.0535 0.94131 0.69851 0.0
C38 C 0.09757 0.92308 0.67995 0.0
C39 C 0.11129 0.88062 0.70635 0.0
H40 H 0.21568 0.78421 0.69677 0.0
H41 H 0.30313 0.7714 0.66956 0.0
H42 H 0.32306 0.71321 0.83499 0.0
H43 H 0.23621 0.72585 0.86244 0.0
H44 H 0.16351 0.74539 0.96403 0.0
H45 H 0.21632 0.79857 1.03663 0.0
H46 H 0.14011 0.92508 1.00033 0.0
H47 H 0.08591 0.87129 0.9306 0.0
H48 H 1.01269 0.85459 0.80551 0.0
H49 H 0.98725 0.92778 0.75707 0.0
H50 H 0.1222 0.9424 0.64548 0.0
H51 H 0.14678 0.8691 0.69213 0.0
N52 N 0.14272 0.79748 0.7673 0.0
N53 N 0.15825 0.76945 0.85717 0.0
N54 N 0.09319 0.81683 0.84356 0.0
C55 C 0.16978 0.77173 0.80173 0.0
C56 C 0.12029 0.79192 0.87871 0.0
C57 C 0.10363 0.81934 0.78781 0.0
C58 C 0.21876 0.75648 0.78197 0.0
C59 C 0.23829 0.76798 0.72717 0.0
C60 C 0.28853 0.7608 0.71157 0.0
C61 C 0.32044 0.74227 0.75047 0.0
C62 C 0.30003 0.7288 0.80447 0.0
C63 C 0.24982 0.73559 0.81996 0.0
C64 C 0.1237 0.80587 0.93875 0.0
C65 C 0.15594 0.78347 0.97376 0.0
C66 C 0.18673 0.81425 1.015 0.0
C67 C 0.18549 0.86755 1.02119 0.0
C68 C 0.14377 0.88487 0.99553 0.0
C69 C 0.11236 0.85372 0.95505 0.0
C70 C 0.08195 0.85612 0.75286 0.0
C71 C 0.0362 0.87276 0.76984 0.0
C72 C 0.6447 0.21649 1.00955 0.0
C73 C 0.58949 0.19368 1.00507 0.0
C74 C 0.55842 0.22115 0.97399 0.0
C75 C 0.58177 0.271 0.95011 0.0
H76 H 0.618 0.38016 0.78661 0.0
H77 H 0.5842 0.42252 0.70808 0.0
H78 H 0.63149 0.57304 0.79125 0.0
H79 H 0.66741 0.53093 0.86894 0.0
H80 H 0.79989 0.52493 0.9342 0.0
H81 H 0.88232 0.56494 0.98368 0.0
H82 H 0.85281 0.43285 1.09829 0.0
H83 H 0.77062 0.39294 1.0491 0.0
H84 H 0.71009 0.28248 0.99238 0.0
H85 H 0.67034 0.1969 1.03271 0.0
H86 H 0.51579 0.20499 0.96959 0.0
H87 H 0.55655 0.29192 0.92815 0.0
N88 N 0.64216 0.37453 0.89677 0.0
N89 N 0.70987 0.45234 0.91191 0.0
N90 N 0.70501 0.37756 0.96791 0.0
C91 C 0.6662 0.42571 0.88244 0.0
C92 C 0.72959 0.42826 0.95486 0.0
C93 C 0.66152 0.35027 0.93973 0.0
C94 C 0.64544 0.45195 0.83442 0.0
C95 C 0.62147 0.42234 0.78815 0.0
C96 C 0.60234 0.44676 0.74284 0.0
C97 C 0.60506 0.50135 0.74305 0.0
C98 C 0.62864 0.53098 0.78952 0.0
C99 C 0.64933 0.50679 0.8341 0.0
C100 C 0.77837 0.45536 0.98696 0.0
C101 C 0.81064 0.50454 0.97014 0.0
C102 C 0.85815 0.52744 0.99865 0.0
C103 C 0.87472 0.50201 1.04503 0.0
C104 C 0.84162 0.45369 1.06292 0.0
C105 C 0.79432 0.43069 1.0343 0.0
C106 C 0.63654 0.29468 0.95739 0.0
C107 C 0.66767 0.26605 0.98638 0.0
C108 C 0.71465 0.68165 0.56116 0.0
C109 C 0.68289 0.63263 0.54394 0.0
C110 C 0.7008 0.6074 0.49811 0.0
C111 C 0.74838 0.63108 0.46954 0.0
H112 H 0.8901 0.60449 0.36958 0.0
H113 H 0.92544 0.56112 0.29225 0.0
H114 H 0.97774 0.71132 0.20814 0.0
H115 H 0.94445 0.75491 0.28636 0.0
H116 H 1.00422 0.83812 0.43893 0.0
H117 H 0.04455 0.92387 0.48177 0.0
H118 H 0.88692 0.94431 0.52014 0.0
H119 H 0.84723 0.8586 0.47936 0.0
H120 H 0.78475 0.74367 0.54666 0.0
H121 H 0.70234 0.70234 0.5961 0.0
H122 H 0.67768 0.5694 0.4837 0.0
H123 H 0.76025 0.61072 0.43411 0.0
N124 N 0.84906 0.6839 0.41145 0.0
N125 N 0.91742 0.76128 0.39619 0.0
N126 N 0.85294 0.75895 0.46648 0.0
C127 C 0.89336 0.71016 0.38215 0.0
C128 C 0.89721 0.78585 0.43853 0.0
C129 C 0.82855 0.70819 0.45378 0.0
C130 C 0.91459 0.68342 0.33462 0.0
C131 C 0.90924 0.62833 0.33466 0.0
C132 C 0.92957 0.60339 0.29026 0.0
C133 C 0.95428 0.63252 0.24358 0.0
C134 C 0.95867 0.68743 0.24308 0.0
C135 C 0.93986 0.71257 0.28822 0.0
C136 C 0.92251 0.84116 0.45609 0.0
C137 C 0.97831 0.86139 0.45578 0.0
C138 C 1.00136 0.91054 0.4806 0.0
C139 C 0.96911 0.94107 0.50535 0.0
C140 C 0.91327 0.922 0.50241 0.0
C141 C 0.8904 0.87265 0.47879 0.0
C142 C 0.77938 0.68086 0.48573 0.0
C143 C 0.76203 0.70546 0.53242 0.0
C144 C 0.53531 0.92605 0.96039 0.0
C145 C 0.55135 0.93543 1.01616 0.0
C146 C 0.58084 0.90273 1.04113 0.0
C147 C 0.59678 0.86383 1.01028 0.0
H148 H 0.72307 0.79476 1.01007 0.0
H149 H 0.80955 0.78131 1.0385 0.0
H150 H 0.82496 0.70741 0.88001 0.0
H151 H 0.73913 0.72119 0.85124 0.0
H152 H 0.69319 0.76483 0.74884 0.0
H153 H 0.74243 0.82687 0.68159 0.0
H154 H 0.62735 0.92186 0.69867 0.0
H155 H 0.5795 0.86081 0.76896 0.0
H156 H 0.54022 0.88239 0.88576 0.0
H157 H 0.51219 0.95017 0.94006 0.0
H158 H 0.59316 0.90812 1.08435 0.0
H159 H 0.62116 0.84096 1.0306 0.0
N160 N 0.64705 0.79991 0.94032 0.0
N161 N 0.66716 0.77372 0.851 0.0
N162 N 0.60139 0.82072 0.86224 0.0
C163 C 0.67601 0.77506 0.90681 0.0
C164 C 0.6302 0.79645 0.82807 0.0
C165 C 0.60894 0.82215 0.91841 0.0
C166 C 0.72402 0.75941 0.92817 0.0
C167 C 0.74444 0.77492 0.98155 0.0
C168 C 0.79419 0.76737 0.99782 0.0
C169 C 0.82467 0.74414 0.96112 0.0
C170 C 0.80323 0.72668 0.90873 0.0
C171 C 0.75359 0.73412 0.89252 0.0
C172 C 0.63546 0.81067 0.76794 0.0
C173 C 0.67695 0.79779 0.73679 0.0
C174 C 0.70534 0.83365 0.69763 0.0
C175 C 0.69121 0.88171 0.6881 0.0
C176 C 0.64123 0.88684 0.70804 0.0
C177 C 0.6134 0.85142 0.74806 0.0
C178 C 0.58381 0.85658 0.95348 0.0
C179 C 0.5514 0.88704 0.92934 0.0
C180 C 0.90998 0.23777 0.21079 0.0
C181 C 0.86756 0.25378 0.18495 0.0
C182 C 0.86544 0.30696 0.19015 0.0
C183 C 0.89574 0.33873 0.23103 0.0
H184 H 0.81939 0.40263 0.34484 0.0
H185 H 0.73392 0.41752 0.37436 0.0
H186 H 0.75462 0.35624 0.53821 0.0
H187 H 0.84071 0.34159 0.50899 0.0
H188 H 0.94069 0.29212 0.52975 0.0
H189 H 0.96797 0.2254 0.58487 0.0
H190 H 0.04924 0.18078 0.44128 0.0
H191 H 1.02214 0.24817 0.38569 0.0
H192 H 0.9682 0.25342 0.27527 0.0
H193 H 0.91449 0.19779 0.20673 0.0
H194 H 0.83547 0.32179 0.16815 0.0
H195 H 0.88741 0.3766 0.24018 0.0
N196 N 0.89515 0.35527 0.34777 0.0
N197 N 0.91452 0.33099 0.43802 0.0
N198 N 0.9617 0.30962 0.36093 0.0
C199 C 0.88556 0.3548 0.40359 0.0
C200 C 0.95332 0.30894 0.41701 0.0
C201 C 0.93299 0.33284 0.32589 0.0
C202 C 0.83718 0.37061 0.4244 0.0
C203 C 0.80618 0.39267 0.38739 0.0
C204 C 0.75673 0.40075 0.40409 0.0
C205 C 0.73693 0.38727 0.45833 0.0
C206 C 0.76872 0.36711 0.4961 0.0
C207 C 0.81823 0.35884 0.47934 0.0
C208 C 0.9783 0.27516 0.45293 0.0
C209 C 0.96504 0.26881 0.5099 0.0
C210 C 0.98057 0.23017 0.54153 0.0
C211 C 1.00984 0.19683 0.51712 0.0
C212 C 0.02629 0.20542 0.46118 0.0
C213 C 1.01071 0.24421 0.42939 0.0
C214 C 0.92877 0.31759 0.26626 0.0
C215 C 0.9411 0.27 0.25067 0.0
C216 C 0.20132 0.59739 0.21913 0.0
C217 C 0.17737 0.62892 0.18449 0.0
C218 C 0.20244 0.68286 0.17956 0.0
C219 C 0.24961 0.70482 0.20836 0.0
H220 H 0.34457 0.84271 0.23149 0.0
H221 H 0.38298 0.92779 0.18968 0.0
H222 H 0.53821 0.92378 0.25379 0.0
H223 H 0.49899 0.8369 0.29652 0.0
H224 H 0.46926 0.74666 0.41643 0.0
H225 H 0.50608 0.70621 0.49318 0.0
H226 H 0.40391 0.55421 0.45146 0.0
H227 H 0.36612 0.5952 0.37424 0.0
H228 H 0.26588 0.59437 0.27497 0.0
H229 H 0.18305 0.55562 0.22421 0.0
H230 H 0.18551 0.70855 0.15347 0.0
H231 H 0.26697 0.74672 0.20307 0.0
N232 N 0.34896 0.74987 0.25989 0.0
N233 N 0.41565 0.75166 0.3262 0.0
N234 N 0.34573 0.67471 0.31476 0.0
C235 C 0.39431 0.7765 0.28525 0.0
C236 C 0.39153 0.70069 0.34158 0.0
C237 C 0.32419 0.69944 0.27364 0.0
C238 C 0.41871 0.83208 0.26683 0.0
C239 C 0.3869 0.85973 0.23735 0.0
C240 C 0.40904 0.90901 0.21328 0.0
C241 C 0.46397 0.93281 0.21763 0.0
C242 C 0.4957 0.90677 0.24963 0.0
C243 C 0.47325 0.8569 0.27408 0.0
C244 C 0.41446 0.67455 0.38848 0.0
C245 C 0.45442 0.70458 0.42319 0.0
C246 C 0.47558 0.68119 0.46772 0.0
C247 C 0.45816 0.62664 0.4791 0.0
C248 C 0.41848 0.59625 0.44424 0.0
C249 C 0.39672 0.6199 0.39984 0.0
C250 C 0.27357 0.67382 0.24362 0.0
C251 C 0.24874 0.61962 0.24855 0.0
C252 C 0.14961 0.21867 0.71695 0.0
C253 C 0.09431 0.1961 0.71857 0.0
C254 C 0.0616 0.2224 0.74905 0.0
C255 C 0.08366 0.27184 0.77421 0.0
H256 H 0.08647 0.38234 0.91812 0.0
H257 H 0.04985 0.42373 0.99469 0.0
H258 H 0.15433 0.5746 0.95126 0.0
H259 H 0.19185 0.53274 0.87433 0.0
H260 H 0.29004 0.5336 0.77419 0.0
H261 H 0.37296 0.57309 0.72296 0.0
H262 H 0.37453 0.41999 0.65574 0.0
H263 H 0.29273 0.38101 0.70594 0.0
H264 H 0.21415 0.28373 0.73781 0.0
H265 H 0.17625 0.19924 0.69496 0.0
H266 H 1.01876 0.20617 0.75102 0.0
H267 H 0.0573 0.29237 0.79509 0.0
N268 N 0.14133 0.37631 0.82791 0.0
N269 N 0.2115 0.45306 0.8157 0.0
N270 N 0.2088 0.37776 0.76162 0.0
C271 C 0.16544 0.42729 0.84279 0.0
C272 C 0.23344 0.42821 0.77488 0.0
C273 C 0.16309 0.35129 0.78723 0.0
C274 C 0.14236 0.45384 0.8894 0.0
C275 C 0.10183 0.42437 0.92447 0.0
C276 C 0.08079 0.4483 0.96887 0.0
C277 C 0.09896 0.50281 0.97972 0.0
C278 C 0.13919 0.53261 0.94447 0.0
C279 C 0.16078 0.50845 0.90021 0.0
C280 C 0.28426 0.45399 0.74464 0.0
C281 C 0.30808 0.50845 0.74847 0.0
C282 C 0.35556 0.5311 0.71876 0.0
C283 C 0.38064 0.49977 0.68491 0.0
C284 C 0.35666 0.44552 0.68116 0.0
C285 C 0.30934 0.42311 0.71026 0.0
C286 C 0.13877 0.29575 0.7692 0.0
C287 C 0.17141 0.26746 0.74173 0.0
Tb288 Tb 0.09159 0.07572 0.5831 0.0
Tb289 Tb 0.97132 0.06383 0.63701 0.0
C290 C 0.99305 0.98999 0.53801 0.0
C291 C 0.23503 0.12884 0.54553 0.0
C292 C 0.32787 0.21189 0.5357 0.0
C293 C 0.3234 0.164 0.50668 0.0
C294 C 0.27751 0.12292 0.51173 0.0
C295 C 0.23979 0.17537 0.57646 0.0
C296 C 0.286 0.21647 0.5719 0.0
C297 C 0.1864 0.08588 0.54852 0.0
O298 O 0.05184 0.12348 0.53091 0.0
O299 O 0.99382 0.14024 0.59699 0.0
O300 O 0.02522 0.11662 0.69497 0.0
O301 O 0.0991 0.14367 0.63748 0.0
O302 O 0.89469 0.07387 0.6211 0.0
O303 O 0.91413 1.04579 0.7016 0.0
O304 O 0.99401 0.99259 0.66351 0.0
O305 O 0.08451 1.0263 0.65683 0.0
O306 O 0.04462 1.00208 0.54816 0.0
O307 O 0.96131 1.01773 0.55944 0.0
C308 C 1.01951 0.15165 0.54961 0.0
O309 O 0.16998 0.07087 0.59871 0.0
O310 O 0.14696 0.0899 0.51631 0.0
C311 C 0.07199 0.14898 0.68301 0.0
C312 C 0.82677 1.01277 0.66792 0.0
C313 C 0.73372 0.92954 0.67281 0.0
C314 C 0.73682 0.97696 0.70234 0.0
C315 C 0.78285 1.01812 0.69974 0.0
C316 C 0.82323 0.96708 0.63594 0.0
C317 C 0.77688 0.92595 0.63791 0.0
C318 C 0.87633 1.05457 0.66956 0.0
C319 C 0.0431 0.98912 0.6726 0.0
H320 H 0.3539 0.15907 0.47731 0.0
H321 H 0.27457 0.08706 0.48791 0.0
H322 H 0.20735 0.18032 0.60314 0.0
H323 H 0.28805 0.25246 0.59515 0.0
H324 H 0.70528 0.98126 0.73067 0.0
H325 H 0.78492 1.05333 0.72443 0.0
H326 H 0.85696 0.96257 0.61097 0.0
H327 H 0.7759 0.89046 0.61415 0.0
Tb328 Tb 0.58617 0.06778 0.13804 0.0
Tb329 Tb 0.46711 1.05498 1.08 0.0
C330 C 0.54064 0.98056 1.04794 0.0
C331 C 0.72881 0.12661 0.16377 0.0
C332 C 0.81923 0.21292 0.16756 0.0
C333 C 0.82354 0.1637 0.14664 0.0
C334 C 0.77875 0.12085 0.14517 0.0
C335 C 0.72337 0.17656 0.18018 0.0
C336 C 0.76807 0.21913 0.18242 0.0
C337 C 0.68263 0.08061 0.16491 0.0
O338 O 0.59696 0.12446 1.06894 0.0
O339 O 0.51304 0.12427 1.03569 0.0
O340 O 0.47921 0.12504 0.13107 0.0
O341 O 0.55675 0.12887 0.18049 0.0
O342 O 0.41079 1.03907 1.01527 0.0
O343 O 0.38762 1.054 1.09965 0.0
O344 O 0.4586 0.99192 0.14211 0.0
O345 O 0.53653 1.00899 0.19327 0.0
O346 O 0.56562 0.99254 1.09535 0.0
O347 O 0.50765 1.00753 1.02874 0.0
C348 C 0.56503 0.14417 1.03704 0.0
O349 O 0.64444 0.08188 0.20072 0.0
O350 O 0.66398 0.06385 0.11602 0.0
C351 C 0.51489 0.14701 0.16817 0.0
C352 C 0.32495 0.99261 1.04821 0.0
C353 C 0.23399 0.90731 1.03998 0.0
C354 C 0.2299 0.95553 1.06357 0.0
C355 C 0.27496 0.99786 1.06731 0.0
C356 C 0.33009 0.94351 1.02865 0.0
C357 C 0.28507 0.9014 1.0243 0.0
C358 C 0.37109 1.03859 1.04974 0.0
C359 C 0.4874 0.9814 0.18395 0.0
H360 H 0.8619 0.15759 0.13374 0.0
H361 H 0.78337 0.08283 0.13085 0.0
H362 H 0.6849 0.18235 0.19331 0.0
H363 H 0.76266 0.25587 0.19947 0.0
H364 H 0.19154 0.96135 1.07691 0.0
H365 H 0.27051 1.03521 1.08381 0.0
H366 H 0.36852 0.93814 1.01487 0.0
H367 H 0.29012 0.86536 1.00517 0.0
Tb368 Tb 0.52729 0.51109 0.57571 0.0
Tb369 Tb 0.53406 0.61942 0.64772 0.0
C370 C 0.48192 0.60278 0.52702 0.0
C371 C 0.58405 0.41458 0.50582 0.0
C372 C 0.68356 0.39477 0.47538 0.0
C373 C 0.63965 0.38221 0.43875 0.0
C374 C 0.59034 0.39207 0.45386 0.0
C375 C 0.62746 0.42604 0.54287 0.0
C376 C 0.67653 0.41605 0.52795 0.0
C377 C 0.53495 0.43194 0.51895 0.0
O378 O 0.59785 0.56909 0.54594 0.0
O379 O 0.61607 0.62924 0.61761 0.0
O380 O 0.56222 0.56764 0.70624 0.0
O381 O 0.57948 0.50518 0.64597 0.0
O382 O 0.54281 0.70177 0.64959 0.0
O383 O 0.5242 0.65506 0.72442 0.0
O384 O 0.45102 0.57419 0.65399 0.0
O385 O 0.45899 0.49072 0.63271 0.0
O386 O 0.47275 0.55116 0.53323 0.0
O387 O 0.51352 0.63476 0.56173 0.0
C388 C 0.63019 0.60882 0.57129 0.0
O389 O 0.52034 0.42917 0.57133 0.0
O390 O 0.53292 0.47705 0.49692 0.0
C391 C 0.58158 0.52633 0.69602 0.0
C392 C 0.47588 0.71851 0.70964 0.0
C393 C 0.37477 0.73665 0.73509 0.0
C394 C 0.41786 0.7525 0.77229 0.0
C395 C 0.46801 0.74349 0.75964 0.0
C396 C 0.43344 0.70416 0.67166 0.0
C397 C 0.38349 0.71342 0.68411 0.0
C398 C 0.52497 0.70014 0.70079 0.0
C399 C 0.43258 0.52266 0.65561 0.0
H400 H 0.64354 0.36515 0.39819 0.0
H401 H 0.55761 0.38341 0.42443 0.0
H402 H 0.62403 0.4442 0.58288 0.0
H403 H 0.70952 0.42677 0.55688 0.0
H404 H 0.41254 0.7711 0.81162 0.0
H405 H 0.50003 0.75426 0.78975 0.0
H406 H 0.43826 0.68384 0.63325 0.0
H407 H 0.35107 0.70031 0.65488 0.0
Tb408 Tb 0.03221 0.62048 1.07585 0.0
Tb409 Tb 1.02231 0.5118 0.14838 0.0
C410 C 0.07545 0.52732 1.02751 0.0
C411 C 0.97828 0.71856 1.00631 0.0
C412 C 0.87843 0.73765 0.97733 0.0
C413 C 0.92101 0.74669 0.93843 0.0
C414 C 0.97046 0.73715 0.9528 0.0
C415 C 0.93634 0.71105 1.04566 0.0
C416 C 0.88709 0.72064 1.03142 0.0
C417 C 0.02681 0.70017 1.0188 0.0
O418 O 0.96075 0.56402 1.04665 0.0
O419 O 0.94071 0.50374 0.11854 0.0
O420 O 0.99486 0.56434 0.20682 0.0
O421 O 0.98025 0.62796 0.14641 0.0
O422 O 1.01166 0.42919 0.15042 0.0
O423 O 0.03115 0.47549 0.22501 0.0
O424 O 0.10591 0.55544 0.15443 0.0
O425 O 0.1001 0.63946 0.13244 0.0
O426 O 0.08587 0.579 1.0335 0.0
O427 O 0.04284 0.49594 1.06237 0.0
C428 C 0.92746 0.52473 1.07222 0.0
O429 O 0.04162 0.70275 1.07091 0.0
O430 O 0.02784 0.6548 0.9969 0.0
C431 C 0.97712 0.60663 0.19656 0.0
C432 C 0.07834 0.41107 0.20932 0.0
C433 C 0.17969 0.39304 0.23282 0.0
C434 C 0.13776 0.38015 0.27234 0.0
C435 C 0.08752 0.38909 0.26066 0.0
C436 C 0.11953 0.42215 0.16899 0.0
C437 C 0.16958 0.41287 0.18049 0.0
C438 C 0.02969 0.43037 0.20127 0.0
C439 C 0.12543 0.60683 0.15557 0.0
H440 H 0.9159 0.76052 0.89661 0.0
H441 H 1.00198 0.74267 0.92161 0.0
H442 H 0.94089 0.69598 1.08703 0.0
H443 H 0.85514 0.71274 1.0622 0.0
H444 H 0.14417 0.36418 0.31281 0.0
H445 H 0.05659 0.3809 0.29256 0.0
H446 H 0.1138 0.44016 0.12941 0.0
H447 H 0.2011 0.42358 0.1494 0.0
loop_
_geom_bond_atom_site_label_1
_geom_bond_atom_site_label_2
_geom_bond_distance
_geom_bond_site_symmetry_2
_ccdc_geom_bond_type
C0 C1 1.384 . S
C0 H13 0.947 . S
C0 C35 1.382 . S
C1 C0 1.384 . S
C1 C2 1.378 . S
C2 C1 1.378 . S
C2 C3 1.378 . S
C2 H14 0.952 . S
C3 C2 1.378 . S
C3 H15 0.950 . S
C3 C34 1.383 . S
H4 C23 0.947 . S
H5 C24 0.946 . S
H6 C26 0.953 . S
H7 C27 0.945 . S
H8 C29 0.952 . S
H9 C30 0.949 . S
H10 C32 0.950 . S
H11 C33 0.948 . S
H12 C35 0.951 . S
H13 C0 0.947 . S
H14 C2 0.952 . S
H15 C3 0.950 . S
N16 C19 1.382 . S
N16 C21 1.363 . S
N17 C19 1.371 . S
N17 C20 1.372 . S
N18 C20 1.361 . S
N18 C21 1.377 . S
C19 N16 1.382 . S
C19 N17 1.371 . S
C19 C22 1.480 . S
C20 N17 1.372 . S
C20 N18 1.361 . S
C20 C28 1.457 . S
C21 N16 1.363 . S
C21 N18 1.377 . S
C21 C34 1.479 . S
C22 C19 1.480 . S
C22 C23 1.383 . S
C22 C27 1.385 . S
C23 H4 0.947 . S
C23 C22 1.383 . S
C23 C24 1.388 . S
C24 H5 0.946 . S
C24 C23 1.388 . S
C24 C25 1.384 . S
C25 C24 1.384 . S
C25 C26 1.377 . S
C26 H6 0.953 . S
C26 C25 1.377 . S
C26 C27 1.369 . S
C27 H7 0.945 . S
C27 C22 1.385 . S
C27 C26 1.369 . S
C28 C20 1.457 . S
C28 C29 1.372 . S
C28 C33 1.364 . S
C29 H8 0.952 . S
C29 C28 1.372 . S
C29 C30 1.389 . S
C30 H9 0.949 . S
C30 C29 1.389 . S
C30 C31 1.387 . S
C31 C30 1.387 . S
C31 C32 1.372 . S
C32 H10 0.950 . S
C32 C31 1.372 . S
C32 C33 1.379 . S
C33 H11 0.948 . S
C33 C28 1.364 . S
C33 C32 1.379 . S
C34 C3 1.383 . S
C34 C21 1.479 . S
C34 C35 1.398 . S
C35 C0 1.382 . S
C35 H12 0.951 . S
C35 C34 1.398 . S
C36 C37 1.384 . S
C36 H49 0.947 . S
C36 C71 1.382 1_655 S
C37 C36 1.384 . S
C37 C38 1.378 . S
C38 C37 1.378 . S
C38 C39 1.378 . S
C38 H50 0.952 . S
C39 C38 1.378 . S
C39 H51 0.950 1_655 S
C39 C70 1.383 1_655 S
H40 C59 0.947 . S
H41 C60 0.946 . S
H42 C62 0.953 . S
H43 C63 0.945 . S
H44 C65 0.952 . S
H45 C66 0.949 . S
H46 C68 0.950 . S
H47 C69 0.948 . S
H48 C71 0.951 . S
H49 C36 0.947 . S
H50 C38 0.952 . S
H51 C39 0.950 1_455 S
N52 C55 1.382 . S
N52 C57 1.363 . S
N53 C55 1.371 . S
N53 C56 1.372 . S
N54 C56 1.361 . S
N54 C57 1.377 . S
C55 N52 1.382 . S
C55 N53 1.371 . S
C55 C58 1.480 . S
C56 N53 1.372 . S
C56 N54 1.361 . S
C56 C64 1.457 . S
C57 N52 1.363 . S
C57 N54 1.377 . S
C57 C70 1.479 . S
C58 C55 1.480 . S
C58 C59 1.383 . S
C58 C63 1.385 . S
C59 H40 0.947 . S
C59 C58 1.383 . S
C59 C60 1.388 . S
C60 H41 0.946 . S
C60 C59 1.388 . S
C60 C61 1.384 . S
C61 C60 1.384 . S
C61 C62 1.377 . S
C62 H42 0.953 . S
C62 C61 1.377 . S
C62 C63 1.369 . S
C63 H43 0.945 . S
C63 C58 1.385 . S
C63 C62 1.369 . S
C64 C56 1.457 . S
C64 C65 1.372 . S
C64 C69 1.364 . S
C65 H44 0.952 . S
C65 C64 1.372 . S
C65 C66 1.389 . S
C66 H45 0.949 . S
C66 C65 1.389 . S
C66 C67 1.387 . S
C67 C66 1.387 . S
C67 C68 1.372 . S
C68 H46 0.950 . S
C68 C67 1.372 . S
C68 C69 1.379 . S
C69 H47 0.948 . S
C69 C64 1.364 . S
C69 C68 1.379 . S
C70 C39 1.383 1_455 S
C70 C57 1.479 . S
C70 C71 1.398 . S
C71 C36 1.382 1_455 S
C71 H48 0.951 . S
C71 C70 1.398 . S
C72 C73 1.384 . S
C72 H85 0.947 . S
C72 C107 1.382 . S
C73 C72 1.384 . S
C73 C74 1.378 . S
C74 C73 1.378 . S
C74 C75 1.378 . S
C74 H86 0.952 . S
C75 C74 1.378 . S
C75 H87 0.950 . S
C75 C106 1.383 . S
H76 C95 0.947 . S
H77 C96 0.946 . S
H78 C98 0.953 . S
H79 C99 0.945 . S
H80 C101 0.952 . S
H81 C102 0.949 . S
H82 C104 0.950 . S
H83 C105 0.948 . S
H84 C107 0.951 . S
H85 C72 0.947 . S
H86 C74 0.952 . S
H87 C75 0.950 . S
N88 C91 1.382 . S
N88 C93 1.363 . S
N89 C91 1.371 . S
N89 C92 1.372 . S
N90 C92 1.361 . S
N90 C93 1.377 . S
C91 N88 1.382 . S
C91 N89 1.371 . S
C91 C94 1.480 . S
C92 N89 1.372 . S
C92 N90 1.361 . S
C92 C100 1.457 . S
C93 N88 1.363 . S
C93 N90 1.377 . S
C93 C106 1.479 . S
C94 C91 1.480 . S
C94 C95 1.383 . S
C94 C99 1.385 . S
C95 H76 0.947 . S
C95 C94 1.383 . S
C95 C96 1.388 . S
C96 H77 0.946 . S
C96 C95 1.388 . S
C96 C97 1.384 . S
C97 C96 1.384 . S
C97 C98 1.377 . S
C98 H78 0.953 . S
C98 C97 1.377 . S
C98 C99 1.369 . S
C99 H79 0.945 . S
C99 C94 1.385 . S
C99 C98 1.369 . S
C100 C92 1.457 . S
C100 C101 1.372 . S
C100 C105 1.364 . S
C101 H80 0.952 . S
C101 C100 1.372 . S
C101 C102 1.389 . S
C102 H81 0.949 . S
C102 C101 1.389 . S
C102 C103 1.387 . S
C103 C102 1.387 . S
C103 C104 1.372 . S
C104 H82 0.950 . S
C104 C103 1.372 . S
C104 C105 1.379 . S
C105 H83 0.948 . S
C105 C100 1.364 . S
C105 C104 1.379 . S
C106 C75 1.383 . S
C106 C93 1.479 . S
C106 C107 1.398 . S
C107 C72 1.382 . S
C107 H84 0.951 . S
C107 C106 1.398 . S
C108 C109 1.384 . S
C108 H121 0.947 . S
C108 C143 1.382 . S
C109 C108 1.384 . S
C109 C110 1.378 . S
C110 C109 1.378 . S
C110 C111 1.378 . S
C110 H122 0.952 . S
C111 C110 1.378 . S
C111 H123 0.950 . S
C111 C142 1.383 . S
H112 C131 0.947 . S
H113 C132 0.946 . S
H114 C134 0.953 1_455 S
H115 C135 0.945 . S
H116 C137 0.952 . S
H117 C138 0.949 1_455 S
H118 C140 0.950 . S
H119 C141 0.948 . S
H120 C143 0.951 . S
H121 C108 0.947 . S
H122 C110 0.952 . S
H123 C111 0.950 . S
N124 C127 1.382 . S
N124 C129 1.363 . S
N125 C127 1.371 . S
N125 C128 1.372 . S
N126 C128 1.361 . S
N126 C129 1.377 . S
C127 N124 1.382 . S
C127 N125 1.371 . S
C127 C130 1.480 . S
C128 N125 1.372 . S
C128 N126 1.361 . S
C128 C136 1.457 . S
C129 N124 1.363 . S
C129 N126 1.377 . S
C129 C142 1.479 . S
C130 C127 1.480 . S
C130 C131 1.383 . S
C130 C135 1.385 . S
C131 H112 0.947 . S
C131 C130 1.383 . S
C131 C132 1.388 . S
C132 H113 0.946 . S
C132 C131 1.388 . S
C132 C133 1.384 . S
C133 C132 1.384 . S
C133 C134 1.377 . S
C134 H114 0.953 1_655 S
C134 C133 1.377 . S
C134 C135 1.369 . S
C135 H115 0.945 . S
C135 C130 1.385 . S
C135 C134 1.369 . S
C136 C128 1.457 . S
C136 C137 1.372 . S
C136 C141 1.364 . S
C137 H116 0.952 . S
C137 C136 1.372 . S
C137 C138 1.389 . S
C138 H117 0.949 1_655 S
C138 C137 1.389 . S
C138 C139 1.387 . S
C139 C138 1.387 . S
C139 C140 1.372 . S
C140 H118 0.950 . S
C140 C139 1.372 . S
C140 C141 1.379 . S
C141 H119 0.948 . S
C141 C136 1.364 . S
C141 C140 1.379 . S
C142 C111 1.383 . S
C142 C129 1.479 . S
C142 C143 1.398 . S
C143 C108 1.382 . S
C143 H120 0.951 . S
C143 C142 1.398 . S
C144 C145 1.384 . S
C144 H157 0.947 . S
C144 C179 1.382 . S
C145 C144 1.384 . S
C145 C146 1.378 . S
C146 C145 1.378 . S
C146 C147 1.378 . S
C146 H158 0.952 . S
C147 C146 1.378 . S
C147 H159 0.950 . S
C147 C178 1.383 . S
H148 C167 0.947 . S
H149 C168 0.946 . S
H150 C170 0.953 . S
H151 C171 0.945 . S
H152 C173 0.952 . S
H153 C174 0.949 . S
H154 C176 0.950 . S
H155 C177 0.948 . S
H156 C179 0.951 . S
H157 C144 0.947 . S
H158 C146 0.952 . S
H159 C147 0.950 . S
N160 C163 1.382 . S
N160 C165 1.363 . S
N161 C163 1.371 . S
N161 C164 1.372 . S
N162 C164 1.361 . S
N162 C165 1.377 . S
C163 N160 1.382 . S
C163 N161 1.371 . S
C163 C166 1.480 . S
C164 N161 1.372 . S
C164 N162 1.361 . S
C164 C172 1.457 . S
C165 N160 1.363 . S
C165 N162 1.377 . S
C165 C178 1.479 . S
C166 C163 1.480 . S
C166 C167 1.383 . S
C166 C171 1.385 . S
C167 H148 0.947 . S
C167 C166 1.383 . S
C167 C168 1.388 . S
C168 H149 0.946 . S
C168 C167 1.388 . S
C168 C169 1.384 . S
C169 C168 1.384 . S
C169 C170 1.377 . S
C170 H150 0.953 . S
C170 C169 1.377 . S
C170 C171 1.369 . S
C171 H151 0.945 . S
C171 C166 1.385 . S
C171 C170 1.369 . S
C172 C164 1.457 . S
C172 C173 1.372 . S
C172 C177 1.364 . S
C173 H152 0.952 . S
C173 C172 1.372 . S
C173 C174 1.389 . S
C174 H153 0.949 . S
C174 C173 1.389 . S
C174 C175 1.387 . S
C175 C174 1.387 . S
C175 C176 1.372 . S
C176 H154 0.950 . S
C176 C175 1.372 . S
C176 C177 1.379 . S
C177 H155 0.948 . S
C177 C172 1.364 . S
C177 C176 1.379 . S
C178 C147 1.383 . S
C178 C165 1.479 . S
C178 C179 1.398 . S
C179 C144 1.382 . S
C179 H156 0.951 . S
C179 C178 1.398 . S
C180 C181 1.384 . S
C180 H193 0.947 . S
C180 C215 1.382 . S
C181 C180 1.384 . S
C181 C182 1.378 . S
C182 C181 1.378 . S
C182 C183 1.378 . S
C182 H194 0.952 . S
C183 C182 1.378 . S
C183 H195 0.950 . S
C183 C214 1.383 . S
H184 C203 0.947 . S
H185 C204 0.946 . S
H186 C206 0.953 . S
H187 C207 0.945 . S
H188 C209 0.952 1_655 S
H189 C210 0.949 . S
H190 C212 0.950 . S
H191 C213 0.948 . S
H192 C215 0.951 . S
H193 C180 0.947 . S
H194 C182 0.952 . S
H195 C183 0.950 . S
N196 C199 1.382 . S
N196 C201 1.363 . S
N197 C199 1.371 . S
N197 C200 1.372 . S
N198 C200 1.361 . S
N198 C201 1.377 . S
C199 N196 1.382 . S
C199 N197 1.371 . S
C199 C202 1.480 . S
C200 N197 1.372 . S
C200 N198 1.361 . S
C200 C208 1.457 . S
C201 N196 1.363 . S
C201 N198 1.377 . S
C201 C214 1.479 . S
C202 C199 1.480 . S
C202 C203 1.383 . S
C202 C207 1.385 . S
C203 H184 0.947 . S
C203 C202 1.383 . S
C203 C204 1.388 . S
C204 H185 0.946 . S
C204 C203 1.388 . S
C204 C205 1.384 . S
C205 C204 1.384 . S
C205 C206 1.377 . S
C206 H186 0.953 . S
C206 C205 1.377 . S
C206 C207 1.369 . S
C207 H187 0.945 . S
C207 C202 1.385 . S
C207 C206 1.369 . S
C208 C200 1.457 . S
C208 C209 1.372 1_655 S
C208 C213 1.364 1_655 S
C209 H188 0.952 1_455 S
C209 C208 1.372 1_455 S
C209 C210 1.389 . S
C210 H189 0.949 . S
C210 C209 1.389 . S
C210 C211 1.387 . S
C211 C210 1.387 . S
C211 C212 1.372 . S
C212 H190 0.950 . S
C212 C211 1.372 . S
C212 C213 1.379 . S
C213 H191 0.948 . S
C213 C208 1.364 1_455 S
C213 C212 1.379 . S
C214 C183 1.383 . S
C214 C201 1.479 . S
C214 C215 1.398 . S
C215 C180 1.382 . S
C215 H192 0.951 . S
C215 C214 1.398 . S
C216 C217 1.384 . S
C216 H229 0.947 . S
C216 C251 1.382 . S
C217 C216 1.384 . S
C217 C218 1.378 . S
C218 C217 1.378 . S
C218 C219 1.378 . S
C218 H230 0.952 . S
C219 C218 1.378 . S
C219 H231 0.950 . S
C219 C250 1.383 . S
H220 C239 0.947 . S
H221 C240 0.946 . S
H222 C242 0.953 . S
H223 C243 0.945 . S
H224 C245 0.952 . S
H225 C246 0.949 . S
H226 C248 0.950 . S
H227 C249 0.948 . S
H228 C251 0.951 . S
H229 C216 0.947 . S
H230 C218 0.952 . S
H231 C219 0.950 . S
N232 C235 1.382 . S
N232 C237 1.363 . S
N233 C235 1.371 . S
N233 C236 1.372 . S
N234 C236 1.361 . S
N234 C237 1.377 . S
C235 N232 1.382 . S
C235 N233 1.371 . S
C235 C238 1.480 . S
C236 N233 1.372 . S
C236 N234 1.361 . S
C236 C244 1.457 . S
C237 N232 1.363 . S
C237 N234 1.377 . S
C237 C250 1.479 . S
C238 C235 1.480 . S
C238 C239 1.383 . S
C238 C243 1.385 . S
C239 H220 0.947 . S
C239 C238 1.383 . S
C239 C240 1.388 . S
C240 H221 0.946 . S
C240 C239 1.388 . S
C240 C241 1.384 . S
C241 C240 1.384 . S
C241 C242 1.377 . S
C242 H222 0.953 . S
C242 C241 1.377 . S
C242 C243 1.369 . S
C243 H223 0.945 . S
C243 C238 1.385 . S
C243 C242 1.369 . S
C244 C236 1.457 . S
C244 C245 1.372 . S
C244 C249 1.364 . S
C245 H224 0.952 . S
C245 C244 1.372 . S
C245 C246 1.389 . S
C246 H225 0.949 . S
C246 C245 1.389 . S
C246 C247 1.387 . S
C247 C246 1.387 . S
C247 C248 1.372 . S
C248 H226 0.950 . S
C248 C247 1.372 . S
C248 C249 1.379 . S
C249 H227 0.948 . S
C249 C244 1.364 . S
C249 C248 1.379 . S
C250 C219 1.383 . S
C250 C237 1.479 . S
C250 C251 1.398 . S
C251 C216 1.382 . S
C251 H228 0.951 . S
C251 C250 1.398 . S
C252 C253 1.384 . S
C252 H265 0.947 . S
C252 C287 1.382 . S
C253 C252 1.384 . S
C253 C254 1.378 . S
C254 C253 1.378 . S
C254 C255 1.378 . S
C254 H266 0.952 1_455 S
C255 C254 1.378 . S
C255 H267 0.950 . S
C255 C286 1.383 . S
H256 C275 0.947 . S
H257 C276 0.946 . S
H258 C278 0.953 . S
H259 C279 0.945 . S
H260 C281 0.952 . S
H261 C282 0.949 . S
H262 C284 0.950 . S
H263 C285 0.948 . S
H264 C287 0.951 . S
H265 C252 0.947 . S
H266 C254 0.952 1_655 S
H267 C255 0.950 . S
N268 C271 1.382 . S
N268 C273 1.363 . S
N269 C271 1.371 . S
N269 C272 1.372 . S
N270 C272 1.361 . S
N270 C273 1.377 . S
C271 N268 1.382 . S
C271 N269 1.371 . S
C271 C274 1.480 . S
C272 N269 1.372 . S
C272 N270 1.361 . S
C272 C280 1.457 . S
C273 N268 1.363 . S
C273 N270 1.377 . S
C273 C286 1.479 . S
C274 C271 1.480 . S
C274 C275 1.383 . S
C274 C279 1.385 . S
C275 H256 0.947 . S
C275 C274 1.383 . S
C275 C276 1.388 . S
C276 H257 0.946 . S
C276 C275 1.388 . S
C276 C277 1.384 . S
C277 C276 1.384 . S
C277 C278 1.377 . S
C278 H258 0.953 . S
C278 C277 1.377 . S
C278 C279 1.369 . S
C279 H259 0.945 . S
C279 C274 1.385 . S
C279 C278 1.369 . S
C280 C272 1.457 . S
C280 C281 1.372 . S
C280 C285 1.364 . S
C281 H260 0.952 . S
C281 C280 1.372 . S
C281 C282 1.389 . S
C282 H261 0.949 . S
C282 C281 1.389 . S
C282 C283 1.387 . S
C283 C282 1.387 . S
C283 C284 1.372 . S
C284 H262 0.950 . S
C284 C283 1.372 . S
C284 C285 1.379 . S
C285 H263 0.948 . S
C285 C280 1.364 . S
C285 C284 1.379 . S
C286 C255 1.383 . S
C286 C273 1.479 . S
C286 C287 1.398 . S
C287 C252 1.382 . S
C287 H264 0.951 . S
C287 C286 1.398 . S
Tb288 C297 2.764 . S
Tb288 O298 2.325 . S
Tb288 O301 2.303 . S
Tb288 O305 2.322 1_545 S
Tb288 O306 2.349 1_545 S
Tb288 O309 2.415 . S
Tb288 O310 2.399 . S
Tb289 O299 2.322 . S
Tb289 O300 2.349 . S
Tb289 O302 2.415 1_545 S
Tb289 O303 2.399 1_545 S
Tb289 O304 2.325 1_545 S
Tb289 O307 2.303 1_545 S
Tb289 C318 2.764 1_545 S
C290 O306 1.261 1_655 S
C290 O307 1.257 . S
C291 C294 1.358 . S
C291 C295 1.332 . S
C291 C297 1.504 . S
C292 C293 1.373 . S
C292 C296 1.308 . S
C293 C292 1.373 . S
C293 C294 1.429 . S
C293 H320 0.932 . S
C294 C291 1.358 . S
C294 C293 1.429 . S
C294 H321 0.930 . S
C295 C291 1.332 . S
C295 C296 1.394 . S
C295 H322 0.932 . S
C296 C292 1.308 . S
C296 C295 1.394 . S
C296 H323 0.929 . S
C297 Tb288 2.764 . S
C297 C291 1.504 . S
C297 O309 1.239 . S
C297 O310 1.263 . S
O298 Tb288 2.325 . S
O298 C308 1.236 1_455 S
O299 Tb289 2.322 . S
O299 C308 1.257 . S
O300 Tb289 2.349 . S
O300 C311 1.261 1_655 S
O301 Tb288 2.303 . S
O301 C311 1.257 . S
O302 Tb289 2.415 1_565 S
O302 C318 1.239 . S
O303 Tb289 2.399 1_565 S
O303 C318 1.263 . S
O304 Tb289 2.325 1_565 S
O304 C319 1.236 1_655 S
O305 Tb288 2.322 1_565 S
O305 C319 1.257 . S
O306 Tb288 2.349 1_565 S
O306 C290 1.261 1_455 S
O307 Tb289 2.303 1_565 S
O307 C290 1.257 . S
C308 O298 1.236 1_655 S
C308 O299 1.257 . S
O309 Tb288 2.415 . S
O309 C297 1.239 . S
O310 Tb288 2.399 . S
O310 C297 1.263 . S
C311 O300 1.261 1_455 S
C311 O301 1.257 . S
C312 C315 1.358 . S
C312 C316 1.332 . S
C312 C318 1.504 . S
C313 C314 1.373 . S
C313 C317 1.308 . S
C314 C313 1.373 . S
C314 C315 1.429 . S
C314 H324 0.932 . S
C315 C312 1.358 . S
C315 C314 1.429 . S
C315 H325 0.930 . S
C316 C312 1.332 . S
C316 C317 1.394 . S
C316 H326 0.932 . S
C317 C313 1.308 . S
C317 C316 1.394 . S
C317 H327 0.929 . S
C318 Tb289 2.764 1_565 S
C318 O302 1.239 . S
C318 O303 1.263 . S
C318 C312 1.504 . S
C319 O304 1.236 1_455 S
C319 O305 1.257 . S
H320 C293 0.932 . S
H321 C294 0.930 . S
H322 C295 0.932 . S
H323 C296 0.929 . S
H324 C314 0.932 . S
H325 C315 0.930 . S
H326 C316 0.932 . S
H327 C317 0.929 . S
Tb328 C337 2.764 . S
Tb328 O338 2.325 1_554 S
Tb328 O341 2.303 . S
Tb328 O345 2.322 1_545 S
Tb328 O346 2.349 1_544 S
Tb328 O349 2.415 . S
Tb328 O350 2.399 . S
Tb329 O339 2.314 1_565 S
Tb329 O340 2.342 1_566 S
Tb329 O342 2.424 . S
Tb329 O343 2.401 . S
Tb329 O344 2.333 1_556 S
Tb329 O347 2.309 . S
Tb329 C358 2.770 . S
C330 O346 1.261 . S
C330 O347 1.257 . S
C331 C334 1.358 . S
C331 C335 1.332 . S
C331 C337 1.504 . S
C332 C333 1.373 . S
C332 C336 1.308 . S
C333 C332 1.373 . S
C333 C334 1.429 . S
C333 H360 0.932 . S
C334 C331 1.358 . S
C334 C333 1.429 . S
C334 H361 0.930 . S
C335 C331 1.332 . S
C335 C336 1.394 . S
C335 H362 0.932 . S
C336 C332 1.308 . S
C336 C335 1.394 . S
C336 H363 0.929 . S
C337 Tb328 2.764 . S
C337 C331 1.504 . S
C337 O349 1.239 . S
C337 O350 1.263 . S
O338 Tb328 2.325 1_556 S
O338 C348 1.236 . S
O339 Tb329 2.314 1_545 S
O339 C348 1.257 . S
O340 Tb329 2.342 1_544 S
O340 C351 1.261 . S
O341 Tb328 2.303 . S
O341 C351 1.257 . S
O342 Tb329 2.424 . S
O342 C358 1.239 . S
O343 Tb329 2.401 . S
O343 C358 1.263 . S
O344 Tb329 2.333 1_554 S
O344 C359 1.236 . S
O345 Tb328 2.322 1_565 S
O345 C359 1.257 . S
O346 Tb328 2.349 1_566 S
O346 C330 1.261 . S
O347 Tb329 2.309 . S
O347 C330 1.257 . S
C348 O338 1.236 . S
C348 O339 1.257 . S
O349 Tb328 2.415 . S
O349 C337 1.239 . S
O350 Tb328 2.399 . S
O350 C337 1.263 . S
C351 O340 1.261 . S
C351 O341 1.257 . S
C352 C355 1.358 . S
C352 C356 1.332 . S
C352 C358 1.504 . S
C353 C354 1.373 . S
C353 C357 1.308 . S
C354 C353 1.373 . S
C354 C355 1.429 . S
C354 H364 0.932 . S
C355 C352 1.358 . S
C355 C354 1.429 . S
C355 H365 0.930 . S
C356 C352 1.332 . S
C356 C357 1.394 . S
C356 H366 0.932 . S
C357 C353 1.308 . S
C357 C356 1.394 . S
C357 H367 0.929 . S
C358 Tb329 2.770 . S
C358 O342 1.239 . S
C358 O343 1.263 . S
C358 C352 1.504 . S
C359 O344 1.236 . S
C359 O345 1.257 . S
H360 C333 0.932 . S
H361 C334 0.930 . S
H362 C335 0.932 . S
H363 C336 0.929 . S
H364 C354 0.932 . S
H365 C355 0.930 . S
H366 C356 0.932 . S
H367 C357 0.929 . S
Tb368 C377 2.764 . S
Tb368 O378 2.325 . S
Tb368 O381 2.303 . S
Tb368 O385 2.322 . S
Tb368 O386 2.349 . S
Tb368 O389 2.415 . S
Tb368 O390 2.399 . S
Tb369 O379 2.322 . S
Tb369 O380 2.349 . S
Tb369 O382 2.415 . S
Tb369 O383 2.399 . S
Tb369 O384 2.325 . S
Tb369 O387 2.303 . S
Tb369 C398 2.764 . S
C370 O386 1.261 . S
C370 O387 1.257 . S
C371 C374 1.358 . S
C371 C375 1.332 . S
C371 C377 1.504 . S
C372 C373 1.373 . S
C372 C376 1.308 . S
C373 C372 1.373 . S
C373 C374 1.429 . S
C373 H400 0.932 . S
C374 C371 1.358 . S
C374 C373 1.429 . S
C374 H401 0.930 . S
C375 C371 1.332 . S
C375 C376 1.394 . S
C375 H402 0.932 . S
C376 C372 1.308 . S
C376 C375 1.394 . S
C376 H403 0.929 . S
C377 Tb368 2.764 . S
C377 C371 1.504 . S
C377 O389 1.239 . S
C377 O390 1.263 . S
O378 Tb368 2.325 . S
O378 C388 1.236 . S
O379 Tb369 2.322 . S
O379 C388 1.257 . S
O380 Tb369 2.349 . S
O380 C391 1.261 . S
O381 Tb368 2.303 . S
O381 C391 1.257 . S
O382 Tb369 2.415 . S
O382 C398 1.239 . S
O383 Tb369 2.399 . S
O383 C398 1.263 . S
O384 Tb369 2.325 . S
O384 C399 1.236 . S
O385 Tb368 2.322 . S
O385 C399 1.257 . S
O386 Tb368 2.349 . S
O386 C370 1.261 . S
O387 Tb369 2.303 . S
O387 C370 1.257 . S
C388 O378 1.236 . S
C388 O379 1.257 . S
O389 Tb368 2.415 . S
O389 C377 1.239 . S
O390 Tb368 2.399 . S
O390 C377 1.263 . S
C391 O380 1.261 . S
C391 O381 1.257 . S
C392 C395 1.358 . S
C392 C396 1.332 . S
C392 C398 1.504 . S
C393 C394 1.373 . S
C393 C397 1.308 . S
C394 C393 1.373 . S
C394 C395 1.429 . S
C394 H404 0.932 . S
C395 C392 1.358 . S
C395 C394 1.429 . S
C395 H405 0.930 . S
C396 C392 1.332 . S
C396 C397 1.394 . S
C396 H406 0.932 . S
C397 C393 1.308 . S
C397 C396 1.394 . S
C397 H407 0.929 . S
C398 Tb369 2.764 . S
C398 O382 1.239 . S
C398 O383 1.263 . S
C398 C392 1.504 . S
C399 O384 1.236 . S
C399 O385 1.257 . S
H400 C373 0.932 . S
H401 C374 0.930 . S
H402 C375 0.932 . S
H403 C376 0.929 . S
H404 C394 0.932 . S
H405 C395 0.930 . S
H406 C396 0.932 . S
H407 C397 0.929 . S
Tb408 C417 2.764 . S
Tb408 O418 2.325 . S
Tb408 O421 2.303 1_556 S
Tb408 O425 2.322 1_656 S
Tb408 O426 2.349 1_655 S
Tb408 O429 2.415 . S
Tb408 O430 2.399 . S
Tb409 O419 2.322 1_455 S
Tb409 O420 2.349 1_455 S
Tb409 O422 2.415 . S
Tb409 O423 2.399 . S
Tb409 O424 2.325 . S
Tb409 O427 2.303 1_554 S
Tb409 C438 2.764 . S
C410 O426 1.261 . S
C410 O427 1.257 . S
C411 C414 1.358 . S
C411 C415 1.332 . S
C411 C417 1.504 . S
C412 C413 1.373 . S
C412 C416 1.308 . S
C413 C412 1.373 . S
C413 C414 1.429 . S
C413 H440 0.932 . S
C414 C411 1.358 . S
C414 C413 1.429 . S
C414 H441 0.930 . S
C415 C411 1.332 . S
C415 C416 1.394 . S
C415 H442 0.932 . S
C416 C412 1.308 . S
C416 C415 1.394 . S
C416 H443 0.929 . S
C417 Tb408 2.764 . S
C417 C411 1.504 . S
C417 O429 1.239 . S
C417 O430 1.263 . S
O418 Tb408 2.325 . S
O418 C428 1.236 . S
O419 Tb409 2.322 1_655 S
O419 C428 1.257 1_554 S
O420 Tb409 2.349 1_655 S
O420 C431 1.261 . S
O421 Tb408 2.303 1_554 S
O421 C431 1.257 . S
O422 Tb409 2.415 . S
O422 C438 1.239 . S
O423 Tb409 2.399 . S
O423 C438 1.263 . S
O424 Tb409 2.325 . S
O424 C439 1.236 . S
O425 Tb408 2.322 1_454 S
O425 C439 1.257 . S
O426 Tb408 2.349 1_455 S
O426 C410 1.261 . S
O427 Tb409 2.303 1_556 S
O427 C410 1.257 . S
C428 O418 1.236 . S
C428 O419 1.257 1_556 S
O429 Tb408 2.415 . S
O429 C417 1.239 . S
O430 Tb408 2.399 . S
O430 C417 1.263 . S
C431 O420 1.261 . S
C431 O421 1.257 . S
C432 C435 1.358 . S
C432 C436 1.332 . S
C432 C438 1.504 . S
C433 C434 1.373 . S
C433 C437 1.308 . S
C434 C433 1.373 . S
C434 C435 1.429 . S
C434 H444 0.932 . S
C435 C432 1.358 . S
C435 C434 1.429 . S
C435 H445 0.930 . S
C436 C432 1.332 . S
C436 C437 1.394 . S
C436 H446 0.932 . S
C437 C433 1.308 . S
C437 C436 1.394 . S
C437 H447 0.929 . S
C438 Tb409 2.764 . S
C438 O422 1.239 . S
C438 O423 1.263 . S
C438 C432 1.504 . S
C439 O424 1.236 . S
C439 O425 1.257 . S
H440 C413 0.932 . S
H441 C414 0.930 . S
H442 C415 0.932 . S
H443 C416 0.929 . S
H444 C434 0.932 . S
H445 C435 0.930 . S
H446 C436 0.932 . S
H447 C437 0.929 . S
C1 C292 1.933 . S
C67 C353 1.685 . S
C391 C97 3.662 . S
C133 C431 3.546 . S
C351 C25 3.223 . S
C319 C37 3.956 1_455 S
C428 C103 2.389 . S
C388 C109 2.541 . S
C31 C433 2.952 . S
C348 C73 3.413 . S
C139 C290 3.183 . S
C61 C393 3.266 . S
C313 C175 1.769 . S
C181 C332 1.570 . S
C247 C370 3.729 . S
C277 C410 3.486 . S
C145 C330 3.036 . S
C308 C211 3.969 1_655 S
C439 C217 2.384 . S
C399 C283 2.543 . S
C169 C412 2.801 . S
C359 C241 3.487 . S
C311 C253 3.158 . S
C205 C372 3.340 . S
