# Generated by pormake.
# Topology bpr, (3,3)-cn, num edge types: 1
# Building blocks:
#     Node 0, Type 0, BuildingBlock: WUSLED_clean_sbu_0, # of connection points: 3
#     Node 1, Type 0, BuildingBlock: WUSLED_clean_sbu_0, # of connection points: 3
#     Node 2, Type 0, BuildingBlock: WUSLED_clean_sbu_0, # of connection points: 3
#     Node 3, Type 0, BuildingBlock: WUSLED_clean_sbu_0, # of connection points: 3
#     Node 4, Type 0, BuildingBlock: WUSLED_clean_sbu_0, # of connection points: 3
#     Node 5, Type 0, BuildingBlock: WUSLED_clean_sbu_0, # of connection points: 3
#     Node 6, Type 0, BuildingBlock: WUSLED_clean_sbu_0, # of connection points: 3
#     Node 7, Type 0, BuildingBlock: WUSLED_clean_sbu_0, # of connection points: 3
#     Node 8, Type 0, BuildingBlock: WUSLED_clean_sbu_0, # of connection points: 3
#     Node 9, Type 0, BuildingBlock: WUSLED_clean_sbu_0, # of connection points: 3
#     Node 10, Type 0, BuildingBlock: WUSLED_clean_sbu_0, # of connection points: 3
#     Node 11, Type 0, BuildingBlock: WUSLED_clean_sbu_0, # of connection points: 3
#     Node 12, Type 0, BuildingBlock: WUSLED_clean_sbu_0, # of connection points: 3
#     Node 13, Type 0, BuildingBlock: WUSLED_clean_sbu_0, # of connection points: 3
#     Node 14, Type 0, BuildingBlock: WUSLED_clean_sbu_0, # of connection points: 3
#     Node 15, Type 0, BuildingBlock: WUSLED_clean_sbu_0, # of connection points: 3
#     Node 16, Type 0, BuildingBlock: WUSLED_clean_sbu_0, # of connection points: 3
#     Node 17, Type 0, BuildingBlock: WUSLED_clean_sbu_0, # of connection points: 3
#     Node 18, Type 0, BuildingBlock: WUSLED_clean_sbu_0, # of connection points: 3
#     Node 19, Type 0, BuildingBlock: WUSLED_clean_sbu_0, # of connection points: 3
#     Node 20, Type 0, BuildingBlock: WUSLED_clean_sbu_0, # of connection points: 3
#     Node 21, Type 0, BuildingBlock: WUSLED_clean_sbu_0, # of connection points: 3
#     Node 22, Type 0, BuildingBlock: WUSLED_clean_sbu_0, # of connection points: 3
#     Node 23, Type 0, BuildingBlock: WUSLED_clean_sbu_0, # of connection points: 3
#     Node 24, Type 0, BuildingBlock: WUSLED_clean_sbu_0, # of connection points: 3
#     Node 25, Type 0, BuildingBlock: WUSLED_clean_sbu_0, # of connection points: 3
#     Node 26, Type 0, BuildingBlock: WUSLED_clean_sbu_0, # of connection points: 3
#     Node 27, Type 0, BuildingBlock: WUSLED_clean_sbu_0, # of connection points: 3
#     Node 28, Type 0, BuildingBlock: WUSLED_clean_sbu_0, # of connection points: 3
#     Node 29, Type 0, BuildingBlock: WUSLED_clean_sbu_0, # of connection points: 3
#     Node 30, Type 0, BuildingBlock: WUSLED_clean_sbu_0, # of connection points: 3
#     Node 31, Type 0, BuildingBlock: WUSLED_clean_sbu_0, # of connection points: 3
#     Node 32, Type 0, BuildingBlock: WUSLED_clean_sbu_0, # of connection points: 3
#     Node 33, Type 0, BuildingBlock: WUSLED_clean_sbu_0, # of connection points: 3
#     Node 34, Type 0, BuildingBlock: WUSLED_clean_sbu_0, # of connection points: 3
#     Node 35, Type 0, BuildingBlock: WUSLED_clean_sbu_0, # of connection points: 3
#     Node 36, Type 0, BuildingBlock: WUSLED_clean_sbu_0, # of connection points: 3
#     Node 37, Type 0, BuildingBlock: WUSLED_clean_sbu_0, # of connection points: 3
#     Node 38, Type 0, BuildingBlock: WUSLED_clean_sbu_0, # of connection points: 3
#     Node 39, Type 0, BuildingBlock: WUSLED_clean_sbu_0, # of connection points: 3
#     Node 40, Type 0, BuildingBlock: WUSLED_clean_sbu_0, # of connection points: 3
#     Node 41, Type 0, BuildingBlock: WUSLED_clean_sbu_0, # of connection points: 3
#     Node 42, Type 0, BuildingBlock: WUSLED_clean_sbu_0, # of connection points: 3
#     Node 43, Type 0, BuildingBlock: WUSLED_clean_sbu_0, # of connection points: 3
#     Node 44, Type 0, BuildingBlock: WUSLED_clean_sbu_0, # of connection points: 3
#     Node 45, Type 0, BuildingBlock: WUSLED_clean_sbu_0, # of connection points: 3
#     Node 46, Type 0, BuildingBlock: WUSLED_clean_sbu_0, # of connection points: 3
#     Node 47, Type 0, BuildingBlock: WUSLED_clean_sbu_0, # of connection points: 3
#     Node 48, Type 1, BuildingBlock: KAKCAD_clean_linker_0, # of connection points: 3
#     Node 49, Type 1, BuildingBlock: KAKCAD_clean_linker_0, # of connection points: 3
#     Node 50, Type 1, BuildingBlock: KAKCAD_clean_linker_0, # of connection points: 3
#     Node 51, Type 1, BuildingBlock: KAKCAD_clean_linker_0, # of connection points: 3
#     Node 52, Type 1, BuildingBlock: KAKCAD_clean_linker_0, # of connection points: 3
#     Node 53, Type 1, BuildingBlock: KAKCAD_clean_linker_0, # of connection points: 3
#     Node 54, Type 1, BuildingBlock: KAKCAD_clean_linker_0, # of connection points: 3
#     Node 55, Type 1, BuildingBlock: KAKCAD_clean_linker_0, # of connection points: 3
#     Node 56, Type 1, BuildingBlock: KAKCAD_clean_linker_0, # of connection points: 3
#     Node 57, Type 1, BuildingBlock: KAKCAD_clean_linker_0, # of connection points: 3
#     Node 58, Type 1, BuildingBlock: KAKCAD_clean_linker_0, # of connection points: 3
#     Node 59, Type 1, BuildingBlock: KAKCAD_clean_linker_0, # of connection points: 3
#     Node 60, Type 1, BuildingBlock: KAKCAD_clean_linker_0, # of connection points: 3
#     Node 61, Type 1, BuildingBlock: KAKCAD_clean_linker_0, # of connection points: 3
#     Node 62, Type 1, BuildingBlock: KAKCAD_clean_linker_0, # of connection points: 3
#     Node 63, Type 1, BuildingBlock: KAKCAD_clean_linker_0, # of connection points: 3
#     Node 64, Type 1, BuildingBlock: KAKCAD_clean_linker_0, # of connection points: 3
#     Node 65, Type 1, BuildingBlock: KAKCAD_clean_linker_0, # of connection points: 3
#     Node 66, Type 1, BuildingBlock: KAKCAD_clean_linker_0, # of connection points: 3
#     Node 67, Type 1, BuildingBlock: KAKCAD_clean_linker_0, # of connection points: 3
#     Node 68, Type 1, BuildingBlock: KAKCAD_clean_linker_0, # of connection points: 3
#     Node 69, Type 1, BuildingBlock: KAKCAD_clean_linker_0, # of connection points: 3
#     Node 70, Type 1, BuildingBlock: KAKCAD_clean_linker_0, # of connection points: 3
#     Node 71, Type 1, BuildingBlock: KAKCAD_clean_linker_0, # of connection points: 3
#     Node 72, Type 1, BuildingBlock: KAKCAD_clean_linker_0, # of connection points: 3
#     Node 73, Type 1, BuildingBlock: KAKCAD_clean_linker_0, # of connection points: 3
#     Node 74, Type 1, BuildingBlock: KAKCAD_clean_linker_0, # of connection points: 3
#     Node 75, Type 1, BuildingBlock: KAKCAD_clean_linker_0, # of connection points: 3
#     Node 76, Type 1, BuildingBlock: KAKCAD_clean_linker_0, # of connection points: 3
#     Node 77, Type 1, BuildingBlock: KAKCAD_clean_linker_0, # of connection points: 3
#     Node 78, Type 1, BuildingBlock: KAKCAD_clean_linker_0, # of connection points: 3
#     Node 79, Type 1, BuildingBlock: KAKCAD_clean_linker_0, # of connection points: 3
#     Node 80, Type 1, BuildingBlock: KAKCAD_clean_linker_0, # of connection points: 3
#     Node 81, Type 1, BuildingBlock: KAKCAD_clean_linker_0, # of connection points: 3
#     Node 82, Type 1, BuildingBlock: KAKCAD_clean_linker_0, # of connection points: 3
#     Node 83, Type 1, BuildingBlock: KAKCAD_clean_linker_0, # of connection points: 3
#     Node 84, Type 1, BuildingBlock: KAKCAD_clean_linker_0, # of connection points: 3
#     Node 85, Type 1, BuildingBlock: KAKCAD_clean_linker_0, # of connection points: 3
#     Node 86, Type 1, BuildingBlock: KAKCAD_clean_linker_0, # of connection points: 3
#     Node 87, Type 1, BuildingBlock: KAKCAD_clean_linker_0, # of connection points: 3
#     Node 88, Type 1, BuildingBlock: KAKCAD_clean_linker_0, # of connection points: 3
#     Node 89, Type 1, BuildingBlock: KAKCAD_clean_linker_0, # of connection points: 3
#     Node 90, Type 1, BuildingBlock: KAKCAD_clean_linker_0, # of connection points: 3
#     Node 91, Type 1, BuildingBlock: KAKCAD_clean_linker_0, # of connection points: 3
#     Node 92, Type 1, BuildingBlock: KAKCAD_clean_linker_0, # of connection points: 3
#     Node 93, Type 1, BuildingBlock: KAKCAD_clean_linker_0, # of connection points: 3
#     Node 94, Type 1, BuildingBlock: KAKCAD_clean_linker_0, # of connection points: 3
#     Node 95, Type 1, BuildingBlock: KAKCAD_clean_linker_0, # of connection points: 3
#     Edge 96, Type (0, 1), BuildingBlock: UVAHIK_clean_linker_0, # of connection points: 2
#     Edge 97, Type (0, 1), BuildingBlock: UVAHIK_clean_linker_0, # of connection points: 2
#     Edge 98, Type (0, 1), BuildingBlock: UVAHIK_clean_linker_0, # of connection points: 2
#     Edge 99, Type (0, 1), BuildingBlock: UVAHIK_clean_linker_0, # of connection points: 2
#     Edge 100, Type (0, 1), BuildingBlock: UVAHIK_clean_linker_0, # of connection points: 2
#     Edge 101, Type (0, 1), BuildingBlock: UVAHIK_clean_linker_0, # of connection points: 2
#     Edge 102, Type (0, 1), BuildingBlock: UVAHIK_clean_linker_0, # of connection points: 2
#     Edge 103, Type (0, 1), BuildingBlock: UVAHIK_clean_linker_0, # of connection points: 2
#     Edge 104, Type (0, 1), BuildingBlock: UVAHIK_clean_linker_0, # of connection points: 2
#     Edge 105, Type (0, 1), BuildingBlock: UVAHIK_clean_linker_0, # of connection points: 2
#     Edge 106, Type (0, 1), BuildingBlock: UVAHIK_clean_linker_0, # of connection points: 2
#     Edge 107, Type (0, 1), BuildingBlock: UVAHIK_clean_linker_0, # of connection points: 2
#     Edge 108, Type (0, 1), BuildingBlock: UVAHIK_clean_linker_0, # of connection points: 2
#     Edge 109, Type (0, 1), BuildingBlock: UVAHIK_clean_linker_0, # of connection points: 2
#     Edge 110, Type (0, 1), BuildingBlock: UVAHIK_clean_linker_0, # of connection points: 2
#     Edge 111, Type (0, 1), BuildingBlock: UVAHIK_clean_linker_0, # of connection points: 2
#     Edge 112, Type (0, 1), BuildingBlock: UVAHIK_clean_linker_0, # of connection points: 2
#     Edge 113, Type (0, 1), BuildingBlock: UVAHIK_clean_linker_0, # of connection points: 2
#     Edge 114, Type (0, 1), BuildingBlock: UVAHIK_clean_linker_0, # of connection points: 2
#     Edge 115, Type (0, 1), BuildingBlock: UVAHIK_clean_linker_0, # of connection points: 2
#     Edge 116, Type (0, 1), BuildingBlock: UVAHIK_clean_linker_0, # of connection points: 2
#     Edge 117, Type (0, 1), BuildingBlock: UVAHIK_clean_linker_0, # of connection points: 2
#     Edge 118, Type (0, 1), BuildingBlock: UVAHIK_clean_linker_0, # of connection points: 2
#     Edge 119, Type (0, 1), BuildingBlock: UVAHIK_clean_linker_0, # of connection points: 2
#     Edge 120, Type (0, 1), BuildingBlock: UVAHIK_clean_linker_0, # of connection points: 2
#     Edge 121, Type (0, 1), BuildingBlock: UVAHIK_clean_linker_0, # of connection points: 2
#     Edge 122, Type (0, 1), BuildingBlock: UVAHIK_clean_linker_0, # of connection points: 2
#     Edge 123, Type (0, 1), BuildingBlock: UVAHIK_clean_linker_0, # of connection points: 2
#     Edge 124, Type (0, 1), BuildingBlock: UVAHIK_clean_linker_0, # of connection points: 2
#     Edge 125, Type (0, 1), BuildingBlock: UVAHIK_clean_linker_0, # of connection points: 2
#     Edge 126, Type (0, 1), BuildingBlock: UVAHIK_clean_linker_0, # of connection points: 2
#     Edge 127, Type (0, 1), BuildingBlock: UVAHIK_clean_linker_0, # of connection points: 2
#     Edge 128, Type (0, 1), BuildingBlock: UVAHIK_clean_linker_0, # of connection points: 2
#     Edge 129, Type (0, 1), BuildingBlock: UVAHIK_clean_linker_0, # of connection points: 2
#     Edge 130, Type (0, 1), BuildingBlock: UVAHIK_clean_linker_0, # of connection points: 2
#     Edge 131, Type (0, 1), BuildingBlock: UVAHIK_clean_linker_0, # of connection points: 2
#     Edge 132, Type (0, 1), BuildingBlock: UVAHIK_clean_linker_0, # of connection points: 2
#     Edge 133, Type (0, 1), BuildingBlock: UVAHIK_clean_linker_0, # of connection points: 2
#     Edge 134, Type (0, 1), BuildingBlock: UVAHIK_clean_linker_0, # of connection points: 2
#     Edge 135, Type (0, 1), BuildingBlock: UVAHIK_clean_linker_0, # of connection points: 2
#     Edge 136, Type (0, 1), BuildingBlock: UVAHIK_clean_linker_0, # of connection points: 2
#     Edge 137, Type (0, 1), BuildingBlock: UVAHIK_clean_linker_0, # of connection points: 2
#     Edge 138, Type (0, 1), BuildingBlock: UVAHIK_clean_linker_0, # of connection points: 2
#     Edge 139, Type (0, 1), BuildingBlock: UVAHIK_clean_linker_0, # of connection points: 2
#     Edge 140, Type (0, 1), BuildingBlock: UVAHIK_clean_linker_0, # of connection points: 2
#     Edge 141, Type (0, 1), BuildingBlock: UVAHIK_clean_linker_0, # of connection points: 2
#     Edge 142, Type (0, 1), BuildingBlock: UVAHIK_clean_linker_0, # of connection points: 2
#     Edge 143, Type (0, 1), BuildingBlock: UVAHIK_clean_linker_0, # of connection points: 2
#     Edge 144, Type (0, 1), BuildingBlock: UVAHIK_clean_linker_0, # of connection points: 2
#     Edge 145, Type (0, 1), BuildingBlock: UVAHIK_clean_linker_0, # of connection points: 2
#     Edge 146, Type (0, 1), BuildingBlock: UVAHIK_clean_linker_0, # of connection points: 2
#     Edge 147, Type (0, 1), BuildingBlock: UVAHIK_clean_linker_0, # of connection points: 2
#     Edge 148, Type (0, 1), BuildingBlock: UVAHIK_clean_linker_0, # of connection points: 2
#     Edge 149, Type (0, 1), BuildingBlock: UVAHIK_clean_linker_0, # of connection points: 2
#     Edge 150, Type (0, 1), BuildingBlock: UVAHIK_clean_linker_0, # of connection points: 2
#     Edge 151, Type (0, 1), BuildingBlock: UVAHIK_clean_linker_0, # of connection points: 2
#     Edge 152, Type (0, 1), BuildingBlock: UVAHIK_clean_linker_0, # of connection points: 2
#     Edge 153, Type (0, 1), BuildingBlock: UVAHIK_clean_linker_0, # of connection points: 2
#     Edge 154, Type (0, 1), BuildingBlock: UVAHIK_clean_linker_0, # of connection points: 2
#     Edge 155, Type (0, 1), BuildingBlock: UVAHIK_clean_linker_0, # of connection points: 2
#     Edge 156, Type (0, 1), BuildingBlock: UVAHIK_clean_linker_0, # of connection points: 2
#     Edge 157, Type (0, 1), BuildingBlock: UVAHIK_clean_linker_0, # of connection points: 2
#     Edge 158, Type (0, 1), BuildingBlock: UVAHIK_clean_linker_0, # of connection points: 2
#     Edge 159, Type (0, 1), BuildingBlock: UVAHIK_clean_linker_0, # of connection points: 2
#     Edge 160, Type (0, 1), BuildingBlock: UVAHIK_clean_linker_0, # of connection points: 2
#     Edge 161, Type (0, 1), BuildingBlock: UVAHIK_clean_linker_0, # of connection points: 2
#     Edge 162, Type (0, 1), BuildingBlock: UVAHIK_clean_linker_0, # of connection points: 2
#     Edge 163, Type (0, 1), BuildingBlock: UVAHIK_clean_linker_0, # of connection points: 2
#     Edge 164, Type (0, 1), BuildingBlock: UVAHIK_clean_linker_0, # of connection points: 2
#     Edge 165, Type (0, 1), BuildingBlock: UVAHIK_clean_linker_0, # of connection points: 2
#     Edge 166, Type (0, 1), BuildingBlock: UVAHIK_clean_linker_0, # of connection points: 2
#     Edge 167, Type (0, 1), BuildingBlock: UVAHIK_clean_linker_0, # of connection points: 2
#     Edge 168, Type (0, 1), BuildingBlock: UVAHIK_clean_linker_0, # of connection points: 2
#     Edge 169, Type (0, 1), BuildingBlock: UVAHIK_clean_linker_0, # of connection points: 2
#     Edge 170, Type (0, 1), BuildingBlock: UVAHIK_clean_linker_0, # of connection points: 2
#     Edge 171, Type (0, 1), BuildingBlock: UVAHIK_clean_linker_0, # of connection points: 2
#     Edge 172, Type (0, 1), BuildingBlock: UVAHIK_clean_linker_0, # of connection points: 2
#     Edge 173, Type (0, 1), BuildingBlock: UVAHIK_clean_linker_0, # of connection points: 2
#     Edge 174, Type (0, 1), BuildingBlock: UVAHIK_clean_linker_0, # of connection points: 2
#     Edge 175, Type (0, 1), BuildingBlock: UVAHIK_clean_linker_0, # of connection points: 2
#     Edge 176, Type (0, 1), BuildingBlock: UVAHIK_clean_linker_0, # of connection points: 2
#     Edge 177, Type (0, 1), BuildingBlock: UVAHIK_clean_linker_0, # of connection points: 2
#     Edge 178, Type (0, 1), BuildingBlock: UVAHIK_clean_linker_0, # of connection points: 2
#     Edge 179, Type (0, 1), BuildingBlock: UVAHIK_clean_linker_0, # of connection points: 2
#     Edge 180, Type (0, 1), BuildingBlock: UVAHIK_clean_linker_0, # of connection points: 2
#     Edge 181, Type (0, 1), BuildingBlock: UVAHIK_clean_linker_0, # of connection points: 2
#     Edge 182, Type (0, 1), BuildingBlock: UVAHIK_clean_linker_0, # of connection points: 2
#     Edge 183, Type (0, 1), BuildingBlock: UVAHIK_clean_linker_0, # of connection points: 2
#     Edge 184, Type (0, 1), BuildingBlock: UVAHIK_clean_linker_0, # of connection points: 2
#     Edge 185, Type (0, 1), BuildingBlock: UVAHIK_clean_linker_0, # of connection points: 2
#     Edge 186, Type (0, 1), BuildingBlock: UVAHIK_clean_linker_0, # of connection points: 2
#     Edge 187, Type (0, 1), BuildingBlock: UVAHIK_clean_linker_0, # of connection points: 2
#     Edge 188, Type (0, 1), BuildingBlock: UVAHIK_clean_linker_0, # of connection points: 2
#     Edge 189, Type (0, 1), BuildingBlock: UVAHIK_clean_linker_0, # of connection points: 2
#     Edge 190, Type (0, 1), BuildingBlock: UVAHIK_clean_linker_0, # of connection points: 2
#     Edge 191, Type (0, 1), BuildingBlock: UVAHIK_clean_linker_0, # of connection points: 2
#     Edge 192, Type (0, 1), BuildingBlock: UVAHIK_clean_linker_0, # of connection points: 2
#     Edge 193, Type (0, 1), BuildingBlock: UVAHIK_clean_linker_0, # of connection points: 2
#     Edge 194, Type (0, 1), BuildingBlock: UVAHIK_clean_linker_0, # of connection points: 2
#     Edge 195, Type (0, 1), BuildingBlock: UVAHIK_clean_linker_0, # of connection points: 2
#     Edge 196, Type (0, 1), BuildingBlock: UVAHIK_clean_linker_0, # of connection points: 2
#     Edge 197, Type (0, 1), BuildingBlock: UVAHIK_clean_linker_0, # of connection points: 2
#     Edge 198, Type (0, 1), BuildingBlock: UVAHIK_clean_linker_0, # of connection points: 2
#     Edge 199, Type (0, 1), BuildingBlock: UVAHIK_clean_linker_0, # of connection points: 2
#     Edge 200, Type (0, 1), BuildingBlock: UVAHIK_clean_linker_0, # of connection points: 2
#     Edge 201, Type (0, 1), BuildingBlock: UVAHIK_clean_linker_0, # of connection points: 2
#     Edge 202, Type (0, 1), BuildingBlock: UVAHIK_clean_linker_0, # of connection points: 2
#     Edge 203, Type (0, 1), BuildingBlock: UVAHIK_clean_linker_0, # of connection points: 2
#     Edge 204, Type (0, 1), BuildingBlock: UVAHIK_clean_linker_0, # of connection points: 2
#     Edge 205, Type (0, 1), BuildingBlock: UVAHIK_clean_linker_0, # of connection points: 2
#     Edge 206, Type (0, 1), BuildingBlock: UVAHIK_clean_linker_0, # of connection points: 2
#     Edge 207, Type (0, 1), BuildingBlock: UVAHIK_clean_linker_0, # of connection points: 2
#     Edge 208, Type (0, 1), BuildingBlock: UVAHIK_clean_linker_0, # of connection points: 2
#     Edge 209, Type (0, 1), BuildingBlock: UVAHIK_clean_linker_0, # of connection points: 2
#     Edge 210, Type (0, 1), BuildingBlock: UVAHIK_clean_linker_0, # of connection points: 2
#     Edge 211, Type (0, 1), BuildingBlock: UVAHIK_clean_linker_0, # of connection points: 2
#     Edge 212, Type (0, 1), BuildingBlock: UVAHIK_clean_linker_0, # of connection points: 2
#     Edge 213, Type (0, 1), BuildingBlock: UVAHIK_clean_linker_0, # of connection points: 2
#     Edge 214, Type (0, 1), BuildingBlock: UVAHIK_clean_linker_0, # of connection points: 2
#     Edge 215, Type (0, 1), BuildingBlock: UVAHIK_clean_linker_0, # of connection points: 2
#     Edge 216, Type (0, 1), BuildingBlock: UVAHIK_clean_linker_0, # of connection points: 2
#     Edge 217, Type (0, 1), BuildingBlock: UVAHIK_clean_linker_0, # of connection points: 2
#     Edge 218, Type (0, 1), BuildingBlock: UVAHIK_clean_linker_0, # of connection points: 2
#     Edge 219, Type (0, 1), BuildingBlock: UVAHIK_clean_linker_0, # of connection points: 2
#     Edge 220, Type (0, 1), BuildingBlock: UVAHIK_clean_linker_0, # of connection points: 2
#     Edge 221, Type (0, 1), BuildingBlock: UVAHIK_clean_linker_0, # of connection points: 2
#     Edge 222, Type (0, 1), BuildingBlock: UVAHIK_clean_linker_0, # of connection points: 2
#     Edge 223, Type (0, 1), BuildingBlock: UVAHIK_clean_linker_0, # of connection points: 2
#     Edge 224, Type (0, 1), BuildingBlock: UVAHIK_clean_linker_0, # of connection points: 2
#     Edge 225, Type (0, 1), BuildingBlock: UVAHIK_clean_linker_0, # of connection points: 2
#     Edge 226, Type (0, 1), BuildingBlock: UVAHIK_clean_linker_0, # of connection points: 2
#     Edge 227, Type (0, 1), BuildingBlock: UVAHIK_clean_linker_0, # of connection points: 2
#     Edge 228, Type (0, 1), BuildingBlock: UVAHIK_clean_linker_0, # of connection points: 2
#     Edge 229, Type (0, 1), BuildingBlock: UVAHIK_clean_linker_0, # of connection points: 2
#     Edge 230, Type (0, 1), BuildingBlock: UVAHIK_clean_linker_0, # of connection points: 2
#     Edge 231, Type (0, 1), BuildingBlock: UVAHIK_clean_linker_0, # of connection points: 2
#     Edge 232, Type (0, 1), BuildingBlock: UVAHIK_clean_linker_0, # of connection points: 2
#     Edge 233, Type (0, 1), BuildingBlock: UVAHIK_clean_linker_0, # of connection points: 2
#     Edge 234, Type (0, 1), BuildingBlock: UVAHIK_clean_linker_0, # of connection points: 2
#     Edge 235, Type (0, 1), BuildingBlock: UVAHIK_clean_linker_0, # of connection points: 2
#     Edge 236, Type (0, 1), BuildingBlock: UVAHIK_clean_linker_0, # of connection points: 2
#     Edge 237, Type (0, 1), BuildingBlock: UVAHIK_clean_linker_0, # of connection points: 2
#     Edge 238, Type (0, 1), BuildingBlock: UVAHIK_clean_linker_0, # of connection points: 2
#     Edge 239, Type (0, 1), BuildingBlock: UVAHIK_clean_linker_0, # of connection points: 2
# Relax obj value: 0.091
# Max RMSD: 0.078
# Mean RMSD: 0.073
data_MOF--net-bpr--node1-WUSLED_clean_sbu_0--node2-KAKCAD_clean_linker_0--edge1-UVAHIK_clean_linker_0
_symmetry_space_group_name_H-M    P1
_symmetry_Int_Tables_number       1
_symmetry_cell_setting            triclinic
loop_
_symmetry_equiv_pos_as_xyz
'x, y, z'
_cell_length_a     148.30904
_cell_length_b     148.56166
_cell_length_c     149.46793
_cell_angle_alpha  90.459014
_cell_angle_beta   90.139188
_cell_angle_gamma 90.108376
loop_
_atom_site_label
_atom_site_type_symbol
_atom_site_fract_x
_atom_site_fract_y
_atom_site_fract_z
_atom_type_partial_charge
C0 C 0.00822 0.36793 0.27201 0.0
C1 C 0.01034 0.36717 0.28114 0.0
C2 C 0.99617 0.37454 0.28519 0.0
C3 C 1.00436 0.37043 0.28767 0.0
C4 C 0.994 0.375 0.27603 0.0
C5 C 0.99996 0.37174 0.26953 0.0
U6 U 0.03134 0.3592 0.26437 0.0
O7 O 0.03513 0.3507 0.2528 0.0
O8 O 0.04044 0.36446 0.25404 0.0
C9 C 0.04009 0.35705 0.24919 0.0
C10 C 0.01472 0.36534 0.26497 0.0
C11 C 0.03953 0.3582 0.2394 0.0
C12 C 0.0315 0.36176 0.22562 0.0
C13 C 0.03148 0.3604 0.23493 0.0
C14 C 0.04752 0.35863 0.22521 0.0
C15 C 0.03955 0.36092 0.22072 0.0
C16 C 0.0475 0.35729 0.23445 0.0
C17 C 0.0484 0.35315 0.28326 0.0
C18 C 0.06468 0.35134 0.28208 0.0
C19 C 0.05737 0.35008 0.29649 0.0
C20 C 0.04901 0.35156 0.29245 0.0
C21 C 0.06534 0.35019 0.29141 0.0
C22 C 0.05626 0.35286 0.27803 0.0
C23 C 0.0396 0.35586 0.27958 0.0
O24 O 0.02185 0.37055 0.26436 0.0
O25 O 0.01666 0.35672 0.26427 0.0
O26 O 0.03496 0.34974 0.27512 0.0
O27 O 0.0393 0.36386 0.27592 0.0
H28 H 0.0167 0.36427 0.2832 0.0
H29 H 0.00629 0.37 0.29464 0.0
H30 H 0.9877 0.37796 0.27386 0.0
H31 H 0.99819 0.37236 0.26252 0.0
H32 H 0.02529 0.36357 0.22226 0.0
H33 H 0.02526 0.36116 0.23864 0.0
H34 H 0.0538 0.35801 0.22157 0.0
H35 H 0.05378 0.35563 0.23777 0.0
H36 H 0.0707 0.35148 0.27799 0.0
H37 H 0.05761 0.34904 0.30365 0.0
H38 H 0.04303 0.35174 0.29659 0.0
H39 H 0.05592 0.35409 0.2709 0.0
C40 C 0.86519 0.74432 0.53025 0.0
C41 C 0.8644 0.74248 0.53943 0.0
C42 C 0.86516 0.72632 0.53634 0.0
C43 C 0.86437 0.73355 0.54244 0.0
C44 C 0.86573 0.72824 0.52715 0.0
C45 C 0.86576 0.73714 0.52416 0.0
U46 U 0.86352 0.76995 0.53343 0.0
O47 O 0.87255 0.78064 0.52867 0.0
O48 O 0.85837 0.7804 0.52434 0.0
C49 C 0.86625 0.78442 0.52378 0.0
C50 C 0.86578 0.75362 0.5269 0.0
C51 C 0.86896 0.78784 0.51494 0.0
C52 C 0.87671 0.78651 0.50063 0.0
C53 C 0.87362 0.78259 0.5086 0.0
C54 C 0.87042 0.80082 0.50529 0.0
C55 C 0.87524 0.79573 0.49891 0.0
C56 C 0.8673 0.79691 0.51314 0.0
C57 C 0.85682 0.77882 0.55701 0.0
C58 C 0.85605 0.79446 0.56197 0.0
C59 C 0.85355 0.78243 0.57253 0.0
C60 C 0.85478 0.77608 0.56571 0.0
C61 C 0.85428 0.79167 0.57078 0.0
C62 C 0.85737 0.78806 0.55512 0.0
C63 C 0.85865 0.77181 0.55024 0.0
O64 O 0.85813 0.75804 0.52631 0.0
O65 O 0.87238 0.75853 0.53023 0.0
O66 O 0.86708 0.77101 0.54769 0.0
O67 O 0.85285 0.77106 0.54361 0.0
H68 H 0.86395 0.74794 0.54425 0.0
H69 H 0.86397 0.73233 0.54957 0.0
H70 H 0.86618 0.72285 0.52225 0.0
H71 H 0.86633 0.73841 0.51705 0.0
H72 H 0.8803 0.78234 0.49586 0.0
H73 H 0.87498 0.77556 0.50987 0.0
H74 H 0.86931 0.80795 0.5044 0.0
H75 H 0.86379 0.80108 0.51798 0.0
H76 H 0.85667 0.80156 0.56046 0.0
H77 H 0.85208 0.7801 0.57922 0.0
H78 H 0.85429 0.76899 0.56729 0.0
H79 H 0.85896 0.7903 0.54843 0.0
C80 C 0.48193 0.64348 0.73813 0.0
C81 C 0.47319 0.64644 0.73609 0.0
C82 C 0.47584 0.64372 0.72014 0.0
C83 C 0.47018 0.64659 0.72718 0.0
C84 C 0.48461 0.64079 0.72229 0.0
C85 C 0.48761 0.6407 0.73116 0.0
U86 U 0.47893 0.64548 0.76369 0.0
O87 O 0.48401 0.63674 0.77434 0.0
O88 O 0.48837 0.65087 0.77388 0.0
C89 C 0.48925 0.64302 0.77779 0.0
C90 C 0.48528 0.64306 0.74743 0.0
C91 C 0.49844 0.6403 0.78057 0.0
C92 C 0.50991 0.62872 0.78243 0.0
C93 C 0.5021 0.63189 0.77819 0.0
C94 C 0.51091 0.64258 0.79097 0.0
C95 C 0.51422 0.63389 0.78913 0.0
C96 C 0.5031 0.64572 0.78678 0.0
C97 C 0.4553 0.65203 0.77282 0.0
C98 C 0.45078 0.6533 0.78844 0.0
C99 C 0.43984 0.65573 0.77665 0.0
C100 C 0.44648 0.6541 0.77024 0.0
C101 C 0.44187 0.65536 0.78584 0.0
C102 C 0.45745 0.65164 0.78197 0.0
C103 C 0.46196 0.65014 0.76575 0.0
O104 O 0.48581 0.65077 0.75178 0.0
O105 O 0.482 0.63651 0.75231 0.0
O106 O 0.46464 0.64175 0.765 0.0
O107 O 0.46854 0.656 0.76485 0.0
H108 H 0.4687 0.64862 0.74139 0.0
H109 H 0.46343 0.649 0.72582 0.0
H110 H 0.48913 0.63837 0.71714 0.0
H111 H 0.49437 0.63836 0.7326 0.0
H112 H 0.51223 0.62199 0.78083 0.0
H113 H 0.49869 0.62755 0.7734 0.0
H114 H 0.51415 0.64685 0.79593 0.0
H115 H 0.50043 0.65223 0.78873 0.0
H116 H 0.45261 0.65302 0.79544 0.0
H117 H 0.43305 0.65708 0.77437 0.0
H118 H 0.44468 0.65437 0.76322 0.0
H119 H 0.46425 0.65004 0.78409 0.0
C120 C 0.64489 0.2684 0.03309 0.0
C121 C 0.64541 0.27037 0.04229 0.0
C122 C 0.6446 0.2865 0.03924 0.0
C123 C 0.64528 0.27933 0.04534 0.0
C124 C 0.64428 0.28445 0.03003 0.0
C125 C 0.64442 0.27551 0.02701 0.0
U126 U 0.6469 0.24274 0.03597 0.0
O127 O 0.63808 0.23193 0.03094 0.0
O128 O 0.65226 0.2324 0.02669 0.0
C129 C 0.64443 0.22828 0.02598 0.0
C130 C 0.64451 0.25905 0.02967 0.0
C131 C 0.64171 0.22485 0.01707 0.0
C132 C 0.63213 0.22521 1.00378 0.0
C133 C 0.63571 0.22948 0.01145 0.0
C134 C 0.64079 0.21184 0.00714 0.0
C135 C 0.63443 0.21624 1.00176 0.0
C136 C 0.64442 0.21612 0.01468 0.0
C137 C 0.6533 0.23396 0.0596 0.0
C138 C 0.65418 0.21836 0.06445 0.0
C139 C 0.65634 0.2305 0.07517 0.0
C140 C 0.65514 0.23678 0.06838 0.0
C141 C 0.65577 0.22123 0.07332 0.0
C142 C 0.65289 0.2247 0.05763 0.0
C143 C 0.65153 0.24091 0.05285 0.0
O144 O 0.65223 0.25475 0.02917 0.0
O145 O 0.63793 0.25405 0.03282 0.0
O146 O 0.64314 0.24163 0.05014 0.0
O147 O 0.65743 0.24169 0.04635 0.0
H148 H 0.64577 0.26497 0.04711 0.0
H149 H 0.64547 0.28064 0.05248 0.0
H150 H 0.64393 0.28977 0.02513 0.0
H151 H 0.64406 0.27415 0.01989 0.0
H152 H 0.62721 0.22871 0.99974 0.0
H153 H 0.63351 0.23622 0.01318 0.0
H154 H 0.6427 0.20495 0.00569 0.0
H155 H 0.64903 0.21242 0.01891 0.0
H156 H 0.65368 0.21125 0.06286 0.0
H157 H 0.65767 0.2329 0.08191 0.0
H158 H 0.65552 0.24389 0.07003 0.0
H159 H 0.65145 0.22239 0.05088 0.0
C160 C 0.00929 0.64224 0.23706 0.0
C161 C 0.01161 0.64271 0.22796 0.0
C162 C 0.99722 0.63576 0.22372 0.0
C163 C 0.00562 0.63953 0.22135 0.0
C164 C 0.99486 0.63562 0.23284 0.0
C165 C 1.00082 0.63882 0.23941 0.0
U166 U 0.03248 0.65062 0.24549 0.0
O167 O 0.03601 0.65872 0.25748 0.0
O168 O 0.04133 0.645 0.25587 0.0
C169 C 0.04095 0.65226 0.26093 0.0
C170 C 0.01576 0.6447 0.24425 0.0
C171 C 0.04081 0.65086 0.27074 0.0
C172 C 0.03377 0.65121 0.2855 0.0
C173 C 0.03322 0.65247 0.27617 0.0
C174 C 0.04939 0.64679 0.28399 0.0
C175 C 0.04186 0.64826 0.28949 0.0
C176 C 0.04886 0.64808 0.27477 0.0
C177 C 0.05022 0.65648 0.22711 0.0
C178 C 0.06651 0.65814 0.22861 0.0
C179 C 0.05949 0.65903 0.21401 0.0
C180 C 0.05104 0.65778 0.21789 0.0
C181 C 0.06737 0.65901 0.21927 0.0
C182 C 0.05799 0.65682 0.23251 0.0
C183 C 0.04126 0.65399 0.23061 0.0
O184 O 0.02279 0.63939 0.24499 0.0
O185 O 0.01783 0.65328 0.2451 0.0
O186 O 0.03673 0.66017 0.23505 0.0
O187 O 0.04063 0.64595 0.23413 0.0
H188 H 0.01813 0.64532 0.226 0.0
H189 H 0.0077 0.63972 0.21441 0.0
H190 H 0.9884 0.63295 0.23492 0.0
H191 H 0.99888 0.63842 0.24638 0.0
H192 H 0.02784 0.65238 0.28958 0.0
H193 H 0.02693 0.65466 0.27323 0.0
H194 H 0.05576 0.64469 0.28684 0.0
H195 H 0.05483 0.64693 0.27076 0.0
H196 H 0.07245 0.65808 0.23284 0.0
H197 H 0.05988 0.65984 0.20682 0.0
H198 H 0.04513 0.65754 0.21361 0.0
H199 H 0.05749 0.6558 0.23966 0.0
C200 C 0.6443 0.7424 0.47614 0.0
C201 C 0.64463 0.74037 0.46695 0.0
C202 C 0.64424 0.72426 0.47017 0.0
C203 C 0.6446 0.73138 0.46399 0.0
C204 C 0.6441 0.72639 0.47936 0.0
C205 C 0.64413 0.73535 0.4823 0.0
U206 U 0.64635 0.7681 0.47328 0.0
O207 O 0.63769 0.77893 0.47842 0.0
O208 O 0.65187 0.77829 0.48267 0.0
C209 C 0.64405 0.78235 0.48357 0.0
C210 C 0.6439 0.75176 0.4795 0.0
C211 C 0.64141 0.78531 0.49269 0.0
C212 C 0.62999 0.78723 0.50425 0.0
C213 C 0.63311 0.78286 0.49651 0.0
C214 C 0.6437 0.79606 0.50488 0.0
C215 C 0.6351 0.79413 0.50836 0.0
C216 C 0.64678 0.79174 0.49712 0.0
C217 C 0.65301 0.77738 0.44999 0.0
C218 C 0.64954 0.79168 0.44292 0.0
C219 C 0.66107 0.78201 0.43665 0.0
C220 C 0.65958 0.7758 0.44346 0.0
C221 C 0.65593 0.78996 0.43615 0.0
C222 C 0.64811 0.78546 0.44979 0.0
C223 C 0.65104 0.77019 0.45648 0.0
O224 O 0.65163 0.75607 0.48006 0.0
O225 O 0.63735 0.75674 0.47628 0.0
O226 O 0.64262 0.76943 0.45912 0.0
O227 O 0.65692 0.76908 0.46296 0.0
H228 H 0.64477 0.74573 0.46208 0.0
H229 H 0.64465 0.73 0.45686 0.0
H230 H 0.64399 0.72111 0.48431 0.0
H231 H 0.64394 0.73677 0.48941 0.0
H232 H 0.62333 0.78554 0.50669 0.0
H233 H 0.62883 0.7779 0.49327 0.0
H234 H 0.64796 0.80113 0.50797 0.0
H235 H 0.65321 0.79375 0.49434 0.0
H236 H 0.64541 0.79768 0.44276 0.0
H237 H 0.6662 0.78052 0.43173 0.0
H238 H 0.66346 0.76962 0.44351 0.0
H239 H 0.643 0.78686 0.45478 0.0
C240 C 0.50369 0.36947 0.73572 0.0
C241 C 0.50078 0.36967 0.72678 0.0
C242 C 0.51526 0.37598 0.72215 0.0
C243 C 0.5065 0.37288 0.72006 0.0
C244 C 0.51819 0.37552 0.73111 0.0
C245 C 0.51247 0.3723 0.73781 0.0
U246 U 0.48087 0.36081 0.74396 0.0
O247 O 0.47732 0.35205 0.75532 0.0
O248 O 0.4722 0.36591 0.75476 0.0
C249 C 0.47254 0.35837 0.75928 0.0
C250 C 0.49751 0.36688 0.74301 0.0
C251 C 0.47309 0.35916 0.76913 0.0
C252 C 0.47916 0.36572 0.78291 0.0
C253 C 0.47971 0.3643 0.77359 0.0
C254 C 0.46559 0.35666 0.78333 0.0
C255 C 0.47192 0.36212 0.78784 0.0
C256 C 0.46617 0.35521 0.77412 0.0
C257 C 0.46337 0.35502 0.72517 0.0
C258 C 0.44708 0.35326 0.72634 0.0
C259 C 0.45437 0.35187 0.71192 0.0
C260 C 0.46274 0.35336 0.71596 0.0
C261 C 0.4464 0.35204 0.717 0.0
C262 C 0.45552 0.35478 0.7304 0.0
C263 C 0.47222 0.35772 0.72885 0.0
O264 O 0.49046 0.37211 0.74404 0.0
O265 O 0.49553 0.35827 0.74357 0.0
O266 O 0.47695 0.35154 0.73299 0.0
O267 O 0.47257 0.36564 0.7328 0.0
H268 H 0.49402 0.36748 0.72502 0.0
H269 H 0.50405 0.37299 0.71323 0.0
H270 H 0.52482 0.37793 0.73302 0.0
H271 H 0.51483 0.37224 0.74467 0.0
H272 H 0.48414 0.36995 0.78618 0.0
H273 H 0.48511 0.36742 0.76986 0.0
H274 H 0.46003 0.35363 0.78692 0.0
H275 H 0.461 0.35122 0.77082 0.0
H276 H 0.44107 0.35344 0.73044 0.0
H277 H 0.45413 0.35079 0.70475 0.0
H278 H 0.46873 0.35349 0.71182 0.0
H279 H 0.45587 0.35606 0.73754 0.0
C280 C 0.87045 0.23282 1.00081 0.0
C281 C 0.86881 0.22367 0.99895 0.0
C282 C 0.87669 0.21945 0.01262 0.0
C283 C 0.87187 0.21702 0.00486 0.0
C284 C 0.87813 0.2286 0.01455 0.0
C285 C 0.875 0.23522 0.00872 0.0
U286 U 0.86264 0.24054 0.97761 0.0
O287 O 0.85401 0.2519 0.97354 0.0
O288 O 0.8681 0.25124 0.9691 0.0
C289 C 0.86052 0.25579 0.96902 0.0
C290 C 0.86804 0.23993 0.99438 0.0
C291 C 0.86122 0.2657 0.96955 0.0
C292 C 0.86597 0.27975 0.9767 0.0
C293 C 0.86506 0.27031 0.97688 0.0
C294 C 0.85916 0.27996 0.96197 0.0
C295 C 0.86302 0.28468 0.96922 0.0
C296 C 0.85828 0.27061 0.96215 0.0
C297 C 0.85736 0.22161 0.96018 0.0
C298 C 0.85324 0.22333 0.9445 0.0
C299 C 0.85541 0.20845 0.95063 0.0
C300 C 0.85741 0.21226 0.95897 0.0
C301 C 0.85332 0.21391 0.94328 0.0
C302 C 0.85522 0.22716 0.95291 0.0
C303 C 0.85985 0.22524 0.96906 0.0
O304 O 0.87357 0.24076 0.98758 0.0
O305 O 0.8595 0.24045 0.99204 0.0
O306 O 0.85353 0.22949 0.97355 0.0
O307 O 0.86778 0.22915 0.96965 0.0
H308 H 0.86537 0.22167 0.99285 0.0
H309 H 0.87073 0.20999 1.00323 0.0
H310 H 0.88182 0.23061 0.0205 0.0
H311 H 0.87633 0.24224 0.01027 0.0
H312 H 0.86895 0.28318 0.98241 0.0
H313 H 0.8674 0.26663 0.98266 0.0
H314 H 0.85698 0.28348 0.95603 0.0
H315 H 0.85539 0.26718 0.95639 0.0
H316 H 0.85162 0.22771 0.93897 0.0
H317 H 0.85569 0.20119 0.9499 0.0
H318 H 0.85911 0.20787 0.96448 0.0
H319 H 0.85514 0.23441 0.95373 0.0
C320 C 0.24321 0.02833 0.36583 0.0
C321 C 0.24137 0.03754 0.36693 0.0
C322 C 0.22524 0.03468 0.36522 0.0
C323 C 0.23247 0.04068 0.36668 0.0
C324 C 0.22715 0.0255 0.36387 0.0
C325 C 0.23604 0.02236 0.3642 0.0
U326 U 0.26888 0.03125 0.36494 0.0
O327 O 0.27943 0.02633 0.374 0.0
O328 O 0.27945 0.02209 0.35987 0.0
C329 C 0.28324 0.02132 0.36779 0.0
C330 C 0.25247 0.02477 0.36663 0.0
C331 C 0.28626 0.01225 0.37046 0.0
C332 C 0.28566 0.99928 0.38032 0.0
C333 C 0.28178 0.00721 0.37703 0.0
C334 C 0.29828 1.00114 0.37025 0.0
C335 C 0.29407 0.99627 0.37712 0.0
C336 C 0.29441 0.00903 0.36698 0.0
C337 C 0.27783 0.05499 0.35882 0.0
C338 C 0.29351 0.05969 0.35764 0.0
C339 C 0.28154 0.07053 0.35549 0.0
C340 C 0.27514 0.06381 0.35697 0.0
C341 C 0.29082 0.06859 0.35579 0.0
C342 C 0.28706 0.05294 0.35914 0.0
C343 C 0.27078 0.04822 0.36045 0.0
O344 O 0.25709 0.02419 0.35916 0.0
O345 O 0.25724 0.02793 0.37339 0.0
O346 O 0.26988 0.04555 0.36876 0.0
O347 O 0.27011 0.04162 0.35458 0.0
H348 H 0.24681 0.04229 0.36812 0.0
H349 H 0.23123 0.04781 0.36764 0.0
H350 H 0.22174 0.02069 0.36282 0.0
H351 H 0.23731 0.01523 0.36333 0.0
H352 H 0.28217 0.99563 0.38552 0.0
H353 H 0.27546 0.00955 0.3798 0.0
H354 H 0.3048 0.99914 0.3677 0.0
H355 H 0.298 0.01284 0.36196 0.0
H356 H 0.30059 0.05793 0.35786 0.0
H357 H 0.27918 0.07731 0.3543 0.0
H358 H 0.26805 0.06553 0.35674 0.0
H359 H 0.28926 0.04614 0.36056 0.0
C360 C 0.23471 0.01056 0.64284 0.0
C361 C 0.22569 0.01183 0.64539 0.0
C362 C 0.22117 0.99829 0.63707 0.0
C363 C 0.21899 0.00574 0.64255 0.0
C364 C 0.23026 0.99702 0.63466 0.0
C365 C 0.23693 1.00308 0.63752 0.0
U366 U 0.24261 0.03396 0.65076 0.0
O367 O 0.25415 0.03805 0.65924 0.0
O368 O 0.25329 0.04264 0.64534 0.0
C369 C 0.258 0.04263 0.65279 0.0
C370 C 0.24185 0.01711 0.64524 0.0
C371 C 0.26789 0.04193 0.65187 0.0
C372 C 0.28164 0.03404 0.64756 0.0
C373 C 0.27222 0.0341 0.64876 0.0
C374 C 0.28244 0.04949 0.65279 0.0
C375 C 0.2868 0.04176 0.64956 0.0
C376 C 0.27309 0.04958 0.65389 0.0
C377 C 0.22357 0.05133 0.65599 0.0
C378 C 0.22472 0.06765 0.65741 0.0
C379 C 0.21016 0.06035 0.65853 0.0
C380 C 0.21425 0.05197 0.65736 0.0
C381 C 0.21529 0.06832 0.65834 0.0
C382 C 0.22883 0.05921 0.6562 0.0
C383 C 0.22732 0.04245 0.65362 0.0
O384 O 0.24265 0.02397 0.63981 0.0
O385 O 0.24249 0.01944 0.65373 0.0
O386 O 0.23166 0.03807 0.6599 0.0
O387 O 0.23117 0.04182 0.64574 0.0
H388 H 0.22381 0.01758 0.64948 0.0
H389 H 0.21209 0.00689 0.64464 0.0
H390 H 0.23222 0.99148 0.63034 0.0
H391 H 0.24384 1.00201 0.63542 0.0
H392 H 0.28488 0.028 0.64505 0.0
H393 H 0.26833 0.02812 0.64715 0.0
H394 H 0.28627 0.05554 0.65428 0.0
H395 H 0.26988 0.0557 0.65624 0.0
H396 H 0.22886 0.07366 0.65722 0.0
H397 H 0.20291 0.06059 0.6594 0.0
H398 H 0.21008 0.04598 0.65724 0.0
H399 H 0.23605 0.05885 0.65514 0.0
C400 C 0.23483 1.0008 0.86861 0.0
C401 C 0.22583 0.99965 0.86586 0.0
C402 C 0.22137 0.01305 0.87437 0.0
C403 C 0.21917 0.00574 0.86869 0.0
C404 C 0.23044 0.01419 0.87698 0.0
C405 C 0.23707 0.00814 0.87412 0.0
U406 U 0.24235 0.97731 0.86089 0.0
O407 O 0.25365 0.97298 0.8523 0.0
O408 O 0.25301 0.96861 0.8663 0.0
C409 C 0.25755 0.96844 0.85876 0.0
C410 C 0.2419 0.99421 0.86623 0.0
C411 C 0.26747 0.96893 0.85944 0.0
C412 C 0.28157 0.97642 0.86343 0.0
C413 C 0.27211 0.97655 0.86267 0.0
C414 C 0.28175 0.9611 0.85782 0.0
C415 C 0.28653 0.96867 0.86101 0.0
C416 C 0.27238 0.96126 0.85702 0.0
C417 C 0.22318 0.96 0.85592 0.0
C418 C 0.22441 0.9437 0.85451 0.0
C419 C 0.2098 0.95087 0.85344 0.0
C420 C 0.21386 0.95928 0.8546 0.0
C421 C 0.21498 0.94295 0.85361 0.0
C422 C 0.22849 0.95218 0.8557 0.0
C423 C 0.22692 0.96892 0.85823 0.0
O424 O 0.2427 0.98741 0.87174 0.0
O425 O 0.24241 0.99179 0.85776 0.0
O426 O 0.23121 0.97326 0.85189 0.0
O427 O 0.23088 0.96959 0.86608 0.0
H428 H 0.22394 0.994 0.86162 0.0
H429 H 0.21229 1.0047 0.86645 0.0
H430 H 0.2324 0.01962 0.88145 0.0
H431 H 0.24396 0.0091 0.87637 0.0
H432 H 0.28499 0.98241 0.86586 0.0
H433 H 0.26843 0.98254 0.86461 0.0
H434 H 0.28521 0.95492 0.8561 0.0
H435 H 0.26892 0.95528 0.85459 0.0
H436 H 0.22859 0.93774 0.85468 0.0
H437 H 0.20255 0.95055 0.8526 0.0
H438 H 0.20965 0.96524 0.85472 0.0
H439 H 0.23571 0.95261 0.85671 0.0
C440 C 0.24182 0.98329 0.14448 0.0
C441 C 0.23994 0.97403 0.14471 0.0
C442 C 0.22375 0.9771 0.14493 0.0
C443 C 0.23099 0.97097 0.14492 0.0
C444 C 0.22571 0.98638 0.1449 0.0
C445 C 0.23465 0.98943 0.14467 0.0
U446 U 0.26752 0.98012 0.14535 0.0
O447 O 0.27802 0.98512 0.13631 0.0
O448 O 0.27815 0.98926 0.15046 0.0
C449 C 0.28187 0.99012 0.14254 0.0
C450 C 0.25114 0.9867 0.14374 0.0
C451 C 0.28475 0.99925 0.1399 0.0
C452 C 0.28393 0.01221 0.13005 0.0
C453 C 0.28017 1.00422 0.13335 0.0
C454 C 0.29661 0.01057 0.14013 0.0
C455 C 0.29231 0.01537 0.13326 0.0
C456 C 0.29287 1.00262 0.1434 0.0
C457 C 0.27652 0.95631 0.15113 0.0
C458 C 0.29221 0.95163 0.15207 0.0
C459 C 0.28026 0.94073 0.15418 0.0
C460 C 0.27385 0.94746 0.15287 0.0
C461 C 0.28954 0.9427 0.15381 0.0
C462 C 0.28575 0.9584 0.15073 0.0
C463 C 0.26945 0.96309 0.14963 0.0
O464 O 0.25581 0.98711 0.15122 0.0
O465 O 0.25583 0.98352 0.13697 0.0
O466 O 0.26845 0.96586 0.14136 0.0
O467 O 0.26885 0.96962 0.15559 0.0
H468 H 0.24538 0.96918 0.14462 0.0
H469 H 0.22975 0.96378 0.14508 0.0
H470 H 0.22034 0.9913 0.14479 0.0
H471 H 0.23596 0.9966 0.14448 0.0
H472 H 0.28038 0.0158 0.12484 0.0
H473 H 0.27387 1.00177 0.13056 0.0
H474 H 0.30312 0.01271 0.14269 0.0
H475 H 0.29654 0.99887 0.14841 0.0
H476 H 0.29929 0.95341 0.1518 0.0
H477 H 0.27791 0.93393 0.1553 0.0
H478 H 0.26676 0.94572 0.15314 0.0
H479 H 0.28793 0.96521 0.14938 0.0
C480 C 0.36558 0.24493 0.02935 0.0
C481 C 0.36401 0.24309 0.03843 0.0
C482 C 0.36553 0.22696 0.0355 0.0
C483 C 0.36395 0.23417 0.04147 0.0
C484 C 0.36692 0.22887 0.0264 0.0
C485 C 0.36693 0.23775 0.02337 0.0
U486 U 0.36377 0.2706 0.03236 0.0
O487 O 0.37271 0.28134 0.02761 0.0
O488 O 0.35861 0.28089 0.02306 0.0
C489 C 0.36649 0.2849 0.02246 0.0
C490 C 0.36614 0.25422 0.02599 0.0
C491 C 0.36938 0.28789 0.01351 0.0
C492 C 0.37983 0.28748 1.00097 0.0
C493 C 0.37631 0.28358 0.00874 0.0
C494 C 0.36921 0.29976 1.00241 0.0
C495 C 0.37646 0.29574 0.99783 0.0
C496 C 0.36573 0.29588 0.01015 0.0
C497 C 0.35687 0.27993 0.05561 0.0
C498 C 0.35841 0.29533 0.0611 0.0
C499 C 0.35083 0.28416 0.07011 0.0
C500 C 0.35225 0.27771 0.06344 0.0
C501 C 0.35393 0.29306 0.06909 0.0
C502 C 0.35987 0.28881 0.05441 0.0
C503 C 0.35879 0.2727 0.0491 0.0
O504 O 0.35848 0.2586 0.02533 0.0
O505 O 0.3727 0.25918 0.02934 0.0
O506 O 0.36724 0.27188 0.04661 0.0
O507 O 0.35303 0.27171 0.04248 0.0
H508 H 0.36296 0.24855 0.04316 0.0
H509 H 0.36291 0.23294 0.04853 0.0
H510 H 0.36801 0.22348 0.02161 0.0
H511 H 0.36811 0.23902 0.01634 0.0
H512 H 0.38532 0.28414 0.99753 0.0
H513 H 0.37922 0.27738 0.01118 0.0
H514 H 0.36652 0.30617 1.00028 0.0
H515 H 0.36043 0.29935 0.01376 0.0
H516 H 0.3608 0.30212 0.06001 0.0
H517 H 0.34753 0.28206 0.0762 0.0
H518 H 0.34992 0.27088 0.0645 0.0
H519 H 0.36345 0.29065 0.04838 0.0
C520 C 1.00312 0.86982 0.23674 0.0
C521 C 1.00138 0.86789 0.22768 0.0
C522 C 0.01488 0.87622 0.22328 0.0
C523 C 0.00721 0.87106 0.22101 0.0
C524 C 0.01667 0.87793 0.23239 0.0
C525 C 0.01084 0.87478 0.23903 0.0
U526 U 0.98008 0.86108 0.24448 0.0
O527 O 0.97632 0.85262 0.25596 0.0
O528 O 0.97104 0.86637 0.25491 0.0
C529 C 0.97137 0.85897 0.25965 0.0
C530 C 0.99672 0.86723 0.24384 0.0
C531 C 0.97187 0.86015 0.26946 0.0
C532 C 0.97992 0.86322 0.28341 0.0
C533 C 0.97999 0.86186 0.27408 0.0
C534 C 0.96373 0.86111 0.28354 0.0
C535 C 0.97176 0.8629 0.28818 0.0
C536 C 0.96379 0.85973 0.27429 0.0
C537 C 0.96285 0.8552 0.22555 0.0
C538 C 0.9467 0.85247 0.22698 0.0
C539 C 0.95348 0.85353 0.2123 0.0
C540 C 0.96193 0.85482 0.21623 0.0
C541 C 0.94575 0.85253 0.21761 0.0
C542 C 0.95521 0.85387 0.23094 0.0
C543 C 0.9717 0.8578 0.22926 0.0
O544 O 0.98961 0.87244 0.24462 0.0
O545 O 0.99475 0.85861 0.24443 0.0
O546 O 0.97626 0.85163 0.23361 0.0
O547 O 0.97212 0.86579 0.23304 0.0
H548 H 0.99544 0.86407 0.22575 0.0
H549 H 0.00568 0.86953 0.21407 0.0
H550 H 0.02244 0.88196 0.23439 0.0
H551 H 0.01227 0.8764 0.24597 0.0
H552 H 0.98619 0.86465 0.28688 0.0
H553 H 0.9863 0.86223 0.27047 0.0
H554 H 0.95736 0.86088 0.28708 0.0
H555 H 0.95747 0.85843 0.27086 0.0
H556 H 0.94084 0.85174 0.23122 0.0
H557 H 0.95295 0.85351 0.20506 0.0
H558 H 0.96773 0.85583 0.21196 0.0
H559 H 0.95579 0.85419 0.23817 0.0
C560 C 0.14542 0.76888 0.5342 0.0
C561 C 0.14441 0.77091 0.54334 0.0
C562 C 0.14523 0.78702 0.5402 0.0
C563 C 0.14431 0.7799 0.5463 0.0
C564 C 0.14647 0.78489 0.53108 0.0
C565 C 0.14655 0.77593 0.52813 0.0
U566 U 0.1473 0.74325 0.53716 0.0
O567 O 0.13837 0.73246 0.53228 0.0
O568 O 0.15251 0.73282 0.52793 0.0
C569 C 0.14462 0.72882 0.52719 0.0
C570 C 0.14494 0.75953 0.53078 0.0
C571 C 0.14182 0.7258 0.51817 0.0
C572 C 0.13175 0.72635 0.50528 0.0
C573 C 0.13511 0.73022 0.51322 0.0
C574 C 0.14202 0.71383 0.50699 0.0
C575 C 0.13502 0.71798 0.50217 0.0
C576 C 0.14537 0.71771 0.51486 0.0
C577 C 0.15386 0.73451 0.56071 0.0
C578 C 0.15499 0.71888 0.56538 0.0
C579 C 0.15651 0.73093 0.5763 0.0
C580 C 0.15536 0.73727 0.56956 0.0
C581 C 0.15621 0.72167 0.57433 0.0
C582 C 0.15376 0.72527 0.5586 0.0
C583 C 0.1521 0.7415 0.55399 0.0
O584 O 0.15264 0.75518 0.53022 0.0
O585 O 0.13836 0.75457 0.53397 0.0
O586 O 0.14368 0.74229 0.55137 0.0
O587 O 0.15793 0.7422 0.54742 0.0
H588 H 0.14355 0.76557 0.54815 0.0
H589 H 0.14326 0.78125 0.55335 0.0
H590 H 0.14739 0.79016 0.5262 0.0
H591 H 0.14738 0.77451 0.52106 0.0
H592 H 0.12647 0.72983 0.50169 0.0
H593 H 0.13228 0.7365 0.51563 0.0
H594 H 0.14463 0.70734 0.50494 0.0
H595 H 0.15051 0.71416 0.5186 0.0
H596 H 0.15471 0.71178 0.56368 0.0
H597 H 0.15757 0.73328 0.5831 0.0
H598 H 0.1555 0.74436 0.5713 0.0
H599 H 0.15259 0.72302 0.55178 0.0
C600 C 0.98632 0.62535 0.7514 0.0
C601 C 0.97727 0.6262 0.74877 0.0
C602 C 0.97311 0.63088 0.76392 0.0
C603 C 0.97073 0.62894 0.75497 0.0
C604 C 0.98217 0.62974 0.76654 0.0
C605 C 0.9887 0.62703 0.76033 0.0
U606 U 0.99365 0.61821 0.7279 0.0
O607 O 1.00456 0.62341 0.71943 0.0
O608 O 1.00454 0.60919 0.72339 0.0
C609 C 0.00877 0.61564 0.71911 0.0
C610 C 0.9934 0.62311 0.74484 0.0
C611 C 0.01868 0.61589 0.71988 0.0
C612 C 0.0327 0.61979 0.72754 0.0
C613 C 0.02322 0.61941 0.7274 0.0
C614 C 0.03309 0.61312 0.71271 0.0
C615 C 0.03775 0.61663 0.72017 0.0
C616 C 0.0237 0.61275 0.71259 0.0
C617 C 0.97448 0.6137 0.71066 0.0
C618 C 0.97611 0.61022 0.6948 0.0
C619 C 0.96125 0.61099 0.70144 0.0
C620 C 0.96512 0.61299 0.70974 0.0
C621 C 0.96666 0.60953 0.69383 0.0
C622 C 0.97999 0.6123 0.70316 0.0
C623 C 0.97816 0.61608 0.71953 0.0
O624 O 0.99374 0.61466 0.7422 0.0
O625 O 0.99427 0.62882 0.73822 0.0
O626 O 0.98238 0.62384 0.72017 0.0
O627 O 0.98219 0.6096 0.72393 0.0
H628 H 0.9753 0.62493 0.74189 0.0
H629 H 0.96386 0.62981 0.75267 0.0
H630 H 0.98424 0.63099 0.77339 0.0
H631 H 0.99564 0.62636 0.76249 0.0
H632 H 0.03607 0.6225 0.73341 0.0
H633 H 0.01945 0.62189 0.7331 0.0
H634 H 0.0367 0.61082 0.70683 0.0
H635 H 0.02032 0.61009 0.70669 0.0
H636 H 0.98052 0.60907 0.68915 0.0
H637 H 0.95397 0.61077 0.701 0.0
H638 H 0.96076 0.61409 0.71545 0.0
H639 H 0.98725 0.61283 0.70375 0.0
C640 C 0.12013 0.24898 0.48307 0.0
C641 C 0.12016 0.24646 0.47399 0.0
C642 C 0.12603 0.26123 0.46993 0.0
C643 C 0.12304 0.25255 0.46746 0.0
C644 C 0.12578 0.26377 0.479 0.0
C645 C 0.12283 0.25771 0.4855 0.0
U646 U 0.11275 0.22555 0.49078 0.0
O647 O 0.11771 0.21738 0.50195 0.0
O648 O 0.10348 0.2215 0.50159 0.0
C649 C 0.10986 0.2173 0.50603 0.0
C650 C 0.11772 0.24253 0.49014 0.0
C651 C 0.10995 0.21825 0.51588 0.0
C652 C 0.11626 0.22412 0.52986 0.0
C653 C 0.11555 0.2244 0.52046 0.0
C654 C 0.10558 0.21179 0.53012 0.0
C655 C 0.11147 0.2176 0.53475 0.0
C656 C 0.10482 0.21212 0.52081 0.0
C657 C 0.10851 0.2077 0.47197 0.0
C658 C 0.10597 0.19158 0.47348 0.0
C659 C 0.10501 0.19851 0.4589 0.0
C660 C 0.10701 0.20687 0.46275 0.0
C661 C 0.10447 0.19075 0.46419 0.0
C662 C 0.10794 0.20001 0.47736 0.0
C663 C 0.11088 0.21665 0.4756 0.0
O664 O 0.10924 0.23995 0.49037 0.0
O665 O 0.12341 0.23586 0.49125 0.0
O666 O 0.11856 0.21729 0.47995 0.0
O667 O 0.10432 0.22125 0.47935 0.0
H668 H 0.11812 0.23973 0.47198 0.0
H669 H 0.12322 0.25039 0.46052 0.0
H670 H 0.12795 0.27043 0.48109 0.0
H671 H 0.12281 0.2598 0.49246 0.0
H672 H 0.12086 0.22869 0.53324 0.0
H673 H 0.11958 0.2292 0.51678 0.0
H674 H 0.10169 0.20679 0.53369 0.0
H675 H 0.10045 0.20732 0.51743 0.0
H676 H 0.10555 0.18573 0.47774 0.0
H677 H 0.10407 0.19811 0.45172 0.0
H678 H 0.10747 0.21272 0.45848 0.0
H679 H 0.10908 0.20052 0.4845 0.0
C680 C 0.49029 0.39816 0.23343 0.0
C681 C 0.48854 0.39874 0.22421 0.0
C682 C 0.47231 0.39767 0.22694 0.0
C683 C 0.47963 0.39851 0.22099 0.0
C684 C 0.47415 0.39738 0.23618 0.0
C685 C 0.48302 0.39761 0.23938 0.0
U686 U 0.51609 0.39977 0.23093 0.0
O687 O 0.52649 0.40439 0.24055 0.0
O688 O 0.52659 0.39046 0.2355 0.0
C689 C 0.53045 0.39648 0.24073 0.0
C690 C 0.49958 0.39758 0.23699 0.0
C691 C 0.53399 0.39324 0.24936 0.0
C692 C 0.53255 0.38515 0.26342 0.0
C693 C 0.52855 0.38922 0.25591 0.0
C694 C 0.54732 0.38933 0.25795 0.0
C695 C 0.54201 0.38494 0.26433 0.0
C696 C 0.54336 0.39345 0.25058 0.0
C697 C 0.52541 0.40634 0.20756 0.0
C698 C 0.54102 0.40578 0.20254 0.0
C699 C 0.52914 0.40971 0.19215 0.0
C700 C 0.52278 0.40884 0.19894 0.0
C701 C 0.53833 0.408 0.19376 0.0
C702 C 0.5346 0.40494 0.20939 0.0
C703 C 0.51829 0.40475 0.21423 0.0
O704 O 0.5045 0.39099 0.23372 0.0
O705 O 0.50406 0.4052 0.23778 0.0
O706 O 0.51772 0.4105 0.22094 0.0
O707 O 0.51713 0.39635 0.21665 0.0
H708 H 0.49406 0.39917 0.2195 0.0
H709 H 0.4785 0.39871 0.21384 0.0
H710 H 0.46871 0.39691 0.24098 0.0
H711 H 0.48422 0.39719 0.24652 0.0
H712 H 0.52831 0.38181 0.26826 0.0
H713 H 0.5213 0.38896 0.25507 0.0
H714 H 0.55461 0.38936 0.25854 0.0
H715 H 0.54767 0.39652 0.24561 0.0
H716 H 0.54803 0.4044 0.20404 0.0
H717 H 0.52681 0.41167 0.18558 0.0
H718 H 0.51573 0.40998 0.19741 0.0
H719 H 0.53676 0.403 0.21603 0.0
C720 C 0.38887 0.76073 0.98094 0.0
C721 C 0.38754 0.7636 0.97211 0.0
C722 C 0.38292 0.74842 0.96758 0.0
C723 C 0.38459 0.75752 0.9655 0.0
C724 C 0.38454 0.74556 0.9764 0.0
C725 C 0.38746 0.75165 0.983 0.0
U726 U 0.39717 0.78386 0.98899 0.0
O727 O 0.39225 0.79256 0.9999 0.0
O728 O 0.40621 0.78763 1.00018 0.0
C729 C 0.39995 0.79236 1.00427 0.0
C730 C 0.39137 0.76713 0.98815 0.0
C731 C 0.39944 0.79179 0.01412 0.0
C732 C 0.39427 0.78491 0.02796 0.0
C733 C 0.39534 0.78458 0.0186 0.0
C734 C 0.40152 0.79953 0.02836 0.0
C735 C 0.39718 0.79251 0.03288 0.0
C736 C 0.40267 0.79915 0.0191 0.0
C737 C 0.40269 0.80124 0.97038 0.0
C738 C 0.40342 0.81761 0.97124 0.0
C739 C 0.40764 0.80987 0.95756 0.0
C740 C 0.40588 0.80161 0.96158 0.0
C741 C 0.40624 0.81799 0.96225 0.0
C742 C 0.40162 0.80929 0.97527 0.0
C743 C 0.39993 0.79241 0.9739 0.0
O744 O 0.39995 0.76928 0.98871 0.0
O745 O 0.386 0.7741 0.98911 0.0
O746 O 0.39207 0.79207 0.97792 0.0
O747 O 0.40618 0.78763 0.9779 0.0
H748 H 0.38861 0.77059 0.97037 0.0
H749 H 0.38335 0.76002 0.95882 0.0
H750 H 0.38352 0.7386 0.97825 0.0
H751 H 0.38849 0.74929 0.98976 0.0
H752 H 0.39086 0.77944 0.0313 0.0
H753 H 0.39276 0.77885 0.01486 0.0
H754 H 0.40385 0.80544 0.03199 0.0
H755 H 0.40585 0.80478 0.01578 0.0
H756 H 0.40224 0.82374 0.97502 0.0
H757 H 0.40996 0.80991 0.9507 0.0
H758 H 0.40677 0.79548 0.95771 0.0
H759 H 0.39917 0.80915 0.98209 0.0
C760 C 0.02036 0.39908 0.77931 0.0
C761 C 0.02227 0.40076 0.78838 0.0
C762 C 0.03827 0.39786 0.78564 0.0
C763 C 0.03121 0.4002 0.79152 0.0
C764 C 0.03626 0.39657 0.77652 0.0
C765 C 0.02742 0.39715 0.77342 0.0
U766 U 0.99375 0.39947 0.77883 0.0
O767 O 0.98569 0.38925 0.77154 0.0
O768 O 0.98559 0.40356 0.76715 0.0
C769 C 0.98292 0.39521 0.76571 0.0
C770 C 0.01115 0.39856 0.77566 0.0
C771 C 0.9768 0.39281 0.75833 0.0
C772 C 0.97445 0.38908 0.74262 0.0
C773 C 0.97991 0.39262 0.74947 0.0
C774 C 0.96264 0.38623 0.75342 0.0
C775 C 0.96578 0.38577 0.74454 0.0
C776 C 0.96813 0.38966 0.76025 0.0
C777 C 0.98138 0.40469 0.80213 0.0
C778 C 0.96609 0.4048 0.8081 0.0
C779 C 0.97882 0.40753 0.81793 0.0
C780 C 0.98466 0.40658 0.81072 0.0
C781 C 0.96945 0.40648 0.81682 0.0
C782 C 0.97203 0.40389 0.80079 0.0
C783 C 0.98818 0.40336 0.79506 0.0
O784 O 0.00627 0.39163 0.77812 0.0
O785 O 0.00651 0.40604 0.77492 0.0
O786 O 0.98914 0.40948 0.78882 0.0
O787 O 0.98992 0.39511 0.79235 0.0
H788 H 0.01688 0.40226 0.79303 0.0
H789 H 0.03255 0.40126 0.79858 0.0
H790 H 0.04152 0.39496 0.77176 0.0
H791 H 0.02607 0.39584 0.7664 0.0
H792 H 0.97704 0.38885 0.73585 0.0
H793 H 0.98666 0.3949 0.74789 0.0
H794 H 0.95606 0.38363 0.75516 0.0
H795 H 0.96569 0.38963 0.76707 0.0
H796 H 0.95892 0.40395 0.80697 0.0
H797 H 0.98171 0.4091 0.82441 0.0
H798 H 0.99185 0.40726 0.81189 0.0
H799 H 0.96935 0.40245 0.79418 0.0
C800 C 0.38912 0.24969 0.52634 0.0
C801 C 0.38906 0.24734 0.53542 0.0
C802 C 0.38303 0.26213 0.53946 0.0
C803 C 0.38605 0.2535 0.54192 0.0
C804 C 0.38332 0.26449 0.53036 0.0
C805 C 0.38632 0.25833 0.52389 0.0
U806 U 0.39757 0.22646 0.51871 0.0
O807 O 0.39274 0.21765 0.50781 0.0
O808 O 0.40667 0.2227 0.50762 0.0
C809 C 0.40044 0.21792 0.50348 0.0
C810 C 0.39172 0.24316 0.51931 0.0
C811 C 0.3999 0.21856 0.49365 0.0
C812 C 0.39526 0.22593 0.47986 0.0
C813 C 0.39632 0.22608 0.48923 0.0
C814 C 0.40144 0.21086 0.47933 0.0
C815 C 0.39766 0.21822 0.47488 0.0
C816 C 0.40258 0.21105 0.4886 0.0
C817 C 0.40298 0.20917 0.53744 0.0
C818 C 0.40334 0.19277 0.53683 0.0
C819 C 0.40816 0.20064 0.55026 0.0
C820 C 0.40644 0.20887 0.54616 0.0
C821 C 0.40643 0.19247 0.54574 0.0
C822 C 0.4016 0.20106 0.53271 0.0
C823 C 0.40025 0.21798 0.53386 0.0
O824 O 0.40031 0.24106 0.51892 0.0
O825 O 0.38637 0.23615 0.51841 0.0
O826 O 0.39241 0.2183 0.52977 0.0
O827 O 0.40652 0.22279 0.52992 0.0
H828 H 0.39119 0.24068 0.53746 0.0
H829 H 0.38586 0.2514 0.54884 0.0
H830 H 0.38122 0.2711 0.52821 0.0
H831 H 0.38635 0.26029 0.51692 0.0
H832 H 0.39226 0.23166 0.47655 0.0
H833 H 0.39417 0.23194 0.49301 0.0
H834 H 0.40334 0.20485 0.47563 0.0
H835 H 0.40535 0.20518 0.49188 0.0
H836 H 0.40191 0.18661 0.53317 0.0
H837 H 0.4107 0.20067 0.55706 0.0
H838 H 0.40758 0.21504 0.54991 0.0
H839 H 0.39893 0.20114 0.52596 0.0
C840 C 0.49003 0.61147 0.27662 0.0
C841 C 0.48818 0.60914 0.28553 0.0
C842 C 0.47208 0.61177 0.28309 0.0
C843 C 0.47927 0.60926 0.28873 0.0
C844 C 0.47401 0.61381 0.27411 0.0
C845 C 0.48287 0.61368 0.27093 0.0
U846 U 0.51583 0.61 0.27939 0.0
O847 O 0.52631 0.60579 0.26977 0.0
O848 O 0.52628 0.61959 0.2752 0.0
C849 C 0.53023 0.61374 0.26988 0.0
C850 C 0.49935 0.61218 0.27322 0.0
C851 C 0.53395 0.61719 0.26143 0.0
C852 C 0.53279 0.62243 0.24604 0.0
C853 C 0.52872 0.61889 0.25377 0.0
C854 C 0.54723 0.62253 0.25364 0.0
C855 C 0.54213 0.62426 0.24589 0.0
C856 C 0.5432 0.61904 0.26126 0.0
C857 C 0.52521 0.60304 0.30261 0.0
C858 C 0.54088 0.60365 0.30756 0.0
C859 C 0.52909 0.59973 0.31801 0.0
C860 C 0.52266 0.60055 0.31124 0.0
C861 C 0.53826 0.60147 0.31635 0.0
C862 C 0.53439 0.60445 0.30073 0.0
C863 C 0.51803 0.60463 0.29598 0.0
O864 O 0.5042 0.61874 0.2767 0.0
O865 O 0.50387 0.60462 0.27232 0.0
O866 O 0.51755 0.59904 0.28913 0.0
O867 O 0.51674 0.61307 0.29377 0.0
H868 H 0.49363 0.60743 0.29004 0.0
H869 H 0.47807 0.60769 0.29568 0.0
H870 H 0.46866 0.61559 0.26951 0.0
H871 H 0.48415 0.61547 0.26404 0.0
H872 H 0.52867 0.62367 0.24019 0.0
H873 H 0.52154 0.61752 0.25378 0.0
H874 H 0.55437 0.62406 0.2539 0.0
H875 H 0.54734 0.61785 0.26712 0.0
H876 H 0.54787 0.60504 0.30602 0.0
H877 H 0.52681 0.5978 0.32461 0.0
H878 H 0.51562 0.5994 0.31281 0.0
H879 H 0.53649 0.60638 0.29408 0.0
C880 C 0.10986 0.78049 0.99426 0.0
C881 C 0.10748 0.78943 0.9924 0.0
C882 C 0.10994 0.78682 0.97638 0.0
C883 C 0.10749 0.79255 0.98355 0.0
C884 C 0.11218 0.77783 0.97835 0.0
C885 C 0.11211 0.77472 0.98716 0.0
U886 U 0.10822 0.78349 0.01986 0.0
O887 O 0.1035 0.77401 0.0302 0.0
O888 O 0.11747 0.77894 0.0304 0.0
C889 C 0.11142 0.77373 0.03416 0.0
C890 C 0.11045 0.77711 1.00353 0.0
C891 C 0.11464 0.76495 0.03744 0.0
C892 C 0.12382 0.75143 0.03597 0.0
C893 C 0.11972 0.759 0.03211 0.0
C894 C 0.11747 0.75548 0.05036 0.0
C895 C 0.12286 0.74974 0.04516 0.0
C896 C 0.1134 0.76301 0.04653 0.0
C897 C 0.10155 0.80711 0.02903 0.0
C898 C 0.10206 0.81228 0.04453 0.0
C899 C 0.09748 0.82249 0.03283 0.0
C900 C 0.09858 0.81564 0.02648 0.0
C901 C 0.09922 0.82096 0.04196 0.0
C902 C 0.10324 0.80542 0.03811 0.0
C903 C 0.10323 0.80036 0.02195 0.0
O904 O 0.11704 0.78048 0.00841 0.0
O905 O 0.10282 0.77645 0.00794 0.0
O906 O 0.09747 0.79364 0.02128 0.0
O907 O 0.11166 0.79785 0.02093 0.0
H908 H 0.10572 0.79401 0.99779 0.0
H909 H 0.10559 0.79947 0.98234 0.0
H910 H 0.11425 0.77321 0.97311 0.0
H911 H 0.11401 0.76781 0.98846 0.0
H912 H 0.128 0.74709 0.03187 0.0
H913 H 0.12078 0.76039 0.02509 0.0
H914 H 0.11672 0.75435 0.05747 0.0
H915 H 0.10958 0.76755 0.05077 0.0
H916 H 0.10337 0.81077 0.05148 0.0
H917 H 0.09549 0.82907 0.03049 0.0
H918 H 0.0973 0.81709 0.01949 0.0
H919 H 0.10556 0.79885 0.04021 0.0
C920 C 0.75109 0.98738 0.6225 0.0
C921 C 0.7489 0.9782 0.62172 0.0
C922 C 0.76324 0.97415 0.62864 0.0
C923 C 0.75496 0.97163 0.62473 0.0
C924 C 0.76547 0.98334 0.62916 0.0
C925 C 0.75946 0.98988 0.62611 0.0
U926 U 0.72777 0.99488 0.61447 0.0
O927 O 0.71906 0.00574 0.61955 0.0
O928 O 0.72371 0.00598 0.60561 0.0
C929 C 0.71913 0.01011 0.61194 0.0
C930 C 0.74458 0.99445 0.62007 0.0
C931 C 0.71988 0.02001 0.61247 0.0
C932 C 0.72688 0.03393 0.6178 0.0
C933 C 0.72688 0.02448 0.61707 0.0
C934 C 0.713 0.03447 0.60927 0.0
C935 C 0.71991 0.03905 0.61391 0.0
C936 C 0.71301 0.0251 0.60856 0.0
C937 C 0.71051 0.97593 0.60887 0.0
C938 C 0.69439 0.97753 0.60622 0.0
C939 C 0.70144 0.96291 0.60472 0.0
C940 C 0.70978 0.96672 0.60693 0.0
C941 C 0.69362 0.96823 0.60439 0.0
C942 C 0.70278 0.98136 0.60844 0.0
C943 C 0.71936 0.97951 0.61165 0.0
O944 O 0.74234 0.99489 0.61157 0.0
O945 O 0.73764 0.99527 0.62547 0.0
O946 O 0.71968 0.98358 0.61948 0.0
O947 O 0.72409 0.98362 0.60548 0.0
H948 H 0.74245 0.97613 0.61897 0.0
H949 H 0.75303 0.9646 0.62428 0.0
H950 H 0.77185 0.98549 0.63202 0.0
H951 H 0.76128 0.99693 0.62673 0.0
H952 H 0.73233 0.03724 0.62138 0.0
H953 H 0.73225 0.02066 0.62016 0.0
H954 H 0.70741 0.03811 0.60637 0.0
H955 H 0.7075 0.02178 0.60507 0.0
H956 H 0.68853 0.98185 0.60594 0.0
H957 H 0.70111 0.95572 0.60352 0.0
H958 H 0.71566 0.96242 0.60727 0.0
H959 H 0.70322 0.9885 0.6099 0.0
C960 C 0.75936 0.98711 0.38403 0.0
C961 C 0.76137 0.97803 0.38566 0.0
C962 C 0.74725 0.97335 0.37849 0.0
C963 C 0.75536 0.97122 0.38295 0.0
C964 C 0.74526 0.98249 0.37702 0.0
C965 C 0.75123 0.98928 0.37978 0.0
U966 U 0.78263 0.99505 0.39185 0.0
O967 O 0.79136 0.00581 0.3867 0.0
O968 O 0.78672 0.00634 0.40065 0.0
C969 C 0.79137 0.0103 0.39432 0.0
C970 C 0.76579 0.99436 0.38633 0.0
C971 C 0.79087 0.0202 0.39379 0.0
C972 C 0.78346 0.03424 0.38977 0.0
C973 C 0.78333 0.02479 0.39043 0.0
C974 C 0.79862 0.03449 0.39581 0.0
C975 C 0.79114 0.03922 0.39245 0.0
C976 C 0.79846 0.02514 0.39649 0.0
C977 C 0.79986 0.97616 0.39733 0.0
C978 C 0.81578 0.97787 0.40101 0.0
C979 C 0.80899 0.96304 0.40058 0.0
C980 C 0.8007 0.96685 0.39834 0.0
C981 C 0.81667 0.96846 0.40197 0.0
C982 C 0.80744 0.98168 0.39869 0.0
C983 C 0.79103 0.97975 0.39463 0.0
O984 O 0.76808 0.99507 0.39481 0.0
O985 O 0.77269 0.99514 0.38089 0.0
O986 O 0.79068 0.98368 0.3868 0.0
O987 O 0.78637 0.98397 0.40083 0.0
H988 H 0.76762 0.97621 0.38893 0.0
H989 H 0.75709 0.9643 0.38435 0.0
H990 H 0.7392 0.98445 0.37349 0.0
H991 H 0.74957 0.99623 0.37843 0.0
H992 H 0.77755 0.03763 0.38721 0.0
H993 H 0.7774 0.02109 0.38828 0.0
H994 H 0.80475 0.03799 0.39773 0.0
H995 H 0.80437 0.02172 0.39903 0.0
H996 H 0.82149 0.9823 0.40211 0.0
H997 H 0.80937 0.95578 0.40101 0.0
H998 H 0.79494 0.96247 0.39727 0.0
H999 H 0.80691 0.98891 0.39792 0.0
C1000 C 0.77997 0.99092 0.11357 0.0
C1001 C 0.78855 0.98873 0.11024 0.0
C1002 C 0.78633 0.97296 0.11432 0.0
C1003 C 0.79169 0.9798 0.11056 0.0
C1004 C 0.77769 0.97521 0.11748 0.0
C1005 C 0.77455 0.98407 0.11708 0.0
U1006 U 0.78285 0.01666 0.11118 0.0
O1007 O 0.77316 0.02692 0.10651 0.0
O1008 O 0.77845 0.02749 0.12023 0.0
C1009 C 0.77303 0.0311 0.1143 0.0
C1010 C 0.77662 1.0003 0.1139 0.0
C1011 C 0.76427 0.0344 0.11765 0.0
C1012 C 0.75105 0.03303 0.12722 0.0
C1013 C 0.75859 0.02913 0.12302 0.0
C1014 C 0.75457 0.04733 0.12037 0.0
C1015 C 0.74911 0.04221 0.12604 0.0
C1016 C 0.76208 0.04346 0.11623 0.0
C1017 C 0.80633 0.0257 0.104 0.0
C1018 C 0.81178 0.04116 0.10504 0.0
C1019 C 0.8216 0.02938 0.09947 0.0
C1020 C 0.81469 0.02309 0.10053 0.0
C1021 C 0.82031 0.03846 0.10188 0.0
C1022 C 0.80484 0.0348 0.10614 0.0
C1023 C 0.79963 0.01863 0.10587 0.0
O1024 O 0.78006 1.00541 0.12026 0.0
O1025 O 0.77583 1.00449 0.10621 0.0
O1026 O 0.7928 0.01786 0.10029 0.0
O1027 O 0.79729 0.01777 0.11429 0.0
H1028 H 0.79287 0.99392 0.10753 0.0
H1029 H 0.79839 0.97829 0.10811 0.0
H1030 H 0.77335 0.9701 0.1203 0.0
H1031 H 0.7679 0.98561 0.11966 0.0
H1032 H 0.74692 0.02898 0.1316 0.0
H1033 H 0.76016 0.02213 0.12423 0.0
H1034 H 0.75325 0.05444 0.11946 0.0
H1035 H 0.76642 0.04767 0.11219 0.0
H1036 H 0.81058 0.04809 0.10697 0.0
H1037 H 0.82802 0.02711 0.09686 0.0
H1038 H 0.81596 0.0161 0.09882 0.0
H1039 H 0.79842 0.03695 0.10885 0.0
C1040 C 0.73079 0.98919 0.89884 0.0
C1041 C 0.72185 0.98723 0.90124 0.0
C1042 C 0.72433 0.97124 0.89807 0.0
C1043 C 0.71865 0.97832 0.90089 0.0
C1044 C 0.73334 0.97327 0.89594 0.0
C1045 C 0.73652 0.98213 0.89633 0.0
U1046 U 0.72807 0.01496 0.90101 0.0
O1047 O 0.73781 0.02532 0.90558 0.0
O1048 O 0.73255 0.02551 0.89182 0.0
C1049 C 0.73806 0.0292 0.8977 0.0
C1050 C 0.7342 0.99853 0.8984 0.0
C1051 C 0.74695 0.03215 0.89436 0.0
C1052 C 0.75941 0.03114 0.8838 0.0
C1053 C 0.75168 0.02737 0.88772 0.0
C1054 C 0.75797 0.04425 0.89342 0.0
C1055 C 0.76254 0.0397 0.88651 0.0
C1056 C 0.75026 0.04052 0.89728 0.0
C1057 C 0.7047 0.02419 0.90841 0.0
C1058 C 0.69953 0.03975 0.9081 0.0
C1059 C 0.68929 0.02786 0.91245 0.0
C1060 C 0.69614 0.02154 0.91129 0.0
C1061 C 0.6908 0.03703 0.91065 0.0
C1062 C 0.70644 0.03337 0.90696 0.0
C1063 C 0.71137 0.01711 0.90648 0.0
O1064 O 0.73072 1.00348 0.89203 0.0
O1065 O 0.73508 1.00291 0.90604 0.0
O1066 O 0.71826 0.01645 0.91199 0.0
O1067 O 0.71361 0.01608 0.89804 0.0
H1068 H 0.7173 0.9926 0.90318 0.0
H1069 H 0.71167 0.97701 0.90253 0.0
H1070 H 0.73795 0.968 0.89391 0.0
H1071 H 0.74345 0.9835 0.89448 0.0
H1072 H 0.76284 0.02743 0.87856 0.0
H1073 H 0.74926 0.02089 0.88537 0.0
H1074 H 0.7601 0.0509 0.89558 0.0
H1075 H 0.74667 0.04436 0.90232 0.0
H1076 H 0.70095 0.04674 0.90665 0.0
H1077 H 0.68276 0.02551 0.91465 0.0
H1078 H 0.69468 0.01449 0.91248 0.0
H1079 H 0.71304 0.03555 0.90475 0.0
C1080 C 0.61982 0.74944 0.98323 0.0
C1081 C 0.62136 0.74651 0.97441 0.0
C1082 C 0.62581 0.76172 0.97009 0.0
C1083 C 0.62433 0.75258 0.96791 0.0
C1084 C 0.62398 0.76464 0.97889 0.0
C1085 C 0.62104 0.75856 0.98538 0.0
U1086 U 0.61177 0.72624 0.99089 0.0
O1087 O 0.61671 0.71763 1.00175 0.0
O1088 O 0.60268 0.72236 1.00189 0.0
C1089 C 0.60897 0.71774 0.00602 0.0
C1090 C 0.61731 0.74305 0.99034 0.0
C1091 C 0.60942 0.71844 0.01587 0.0
C1092 C 0.61357 0.72608 0.0298 0.0
C1093 C 0.61264 0.72613 0.02041 0.0
C1094 C 0.60798 0.71076 0.0301 0.0
C1095 C 0.61139 0.71831 0.03468 0.0
C1096 C 0.60696 0.71085 0.02081 0.0
C1097 C 0.60691 0.70877 0.97183 0.0
C1098 C 0.60515 0.6925 0.97288 0.0
C1099 C 0.60373 0.69982 0.95853 0.0
C1100 C 0.60525 0.70816 0.96263 0.0
C1101 C 0.60384 0.69186 0.96356 0.0
C1102 C 0.60672 0.70091 0.977 0.0
C1103 C 0.60939 0.71763 0.97561 0.0
O1104 O 0.60875 0.74077 0.99072 0.0
O1105 O 0.62277 0.73617 0.99134 0.0
O1106 O 0.61718 0.71811 0.97979 0.0
O1107 O 0.60298 0.72224 0.9796 0.0
H1108 H 0.62044 0.73949 0.97261 0.0
H1109 H 0.62573 0.75004 0.96125 0.0
H1110 H 0.62486 0.77163 0.98079 0.0
H1111 H 0.61984 0.76097 0.99213 0.0
H1112 H 0.61628 0.73196 0.0332 0.0
H1113 H 0.61461 0.73206 0.01671 0.0
H1114 H 0.60624 0.7047 0.03371 0.0
H1115 H 0.60446 0.70486 0.01744 0.0
H1116 H 0.6053 0.68649 0.97693 0.0
H1117 H 0.6026 0.69959 0.95137 0.0
H1118 H 0.60535 0.71415 0.95854 0.0
H1119 H 0.60799 0.70124 0.98413 0.0
C1120 C 0.99022 0.11127 0.77658 0.0
C1121 C 0.98849 0.10978 0.78568 0.0
C1122 C 0.9723 0.11154 0.7831 0.0
C1123 C 0.9796 0.10988 0.78892 0.0
C1124 C 0.9741 0.11274 0.77395 0.0
C1125 C 0.98295 0.11261 0.77073 0.0
U1126 U 0.016 0.10988 0.77922 0.0
O1127 O 0.02646 0.10543 0.76966 0.0
O1128 O 0.02642 0.11935 0.77475 0.0
C1129 C 0.03023 0.11344 0.76937 0.0
C1130 C 0.9995 0.11199 0.77309 0.0
C1131 C 0.03318 0.11674 0.76055 0.0
C1132 C 0.03204 0.1271 0.74803 0.0
C1133 C 0.0283 0.1232 0.75572 0.0
C1134 C 0.04533 0.11782 0.74973 0.0
C1135 C 0.04068 0.12455 0.74505 0.0
C1136 C 0.04163 0.11399 0.75739 0.0
C1137 C 0.02538 0.10295 0.80245 0.0
C1138 C 0.041 0.10358 0.8075 0.0
C1139 C 0.02919 0.09928 0.81779 0.0
C1140 C 0.0228 0.10021 0.811 0.0
C1141 C 0.03835 0.10117 0.81622 0.0
C1142 C 0.03455 0.10448 0.80066 0.0
C1143 C 0.01823 0.10462 0.79582 0.0
O1144 O 1.00436 0.11858 0.77649 0.0
O1145 O 1.00403 0.10443 0.77223 0.0
O1146 O 0.01765 0.09899 0.78902 0.0
O1147 O 0.01706 0.11306 0.79356 0.0
H1148 H 0.99401 0.10873 0.79031 0.0
H1149 H 0.97848 0.10897 0.79601 0.0
H1150 H 0.96866 0.11385 0.76924 0.0
H1151 H 0.98414 0.11375 0.76368 0.0
H1152 H 0.02826 0.13221 0.74452 0.0
H1153 H 0.02175 0.12543 0.75803 0.0
H1154 H 0.05204 0.1158 0.74771 0.0
H1155 H 0.04554 0.10908 0.76106 0.0
H1156 H 0.04799 0.10508 0.80604 0.0
H1157 H 0.0269 0.09718 0.82432 0.0
H1158 H 0.01576 0.09896 0.8125 0.0
H1159 H 0.03667 0.10659 0.79407 0.0
C1160 C 0.88881 0.26126 0.48061 0.0
C1161 C 0.88756 0.26413 0.47177 0.0
C1162 C 0.8828 0.24899 0.46726 0.0
C1163 C 0.88458 0.25806 0.46516 0.0
C1164 C 0.88434 0.24613 0.47609 0.0
C1165 C 0.88729 0.2522 0.48269 0.0
U1166 U 0.89663 0.28455 0.48851 0.0
O1167 O 0.8919 0.29299 0.49967 0.0
O1168 O 0.90603 0.28855 0.49933 0.0
C1169 C 0.89977 0.29299 0.50374 0.0
C1170 C 0.89136 0.26765 0.48779 0.0
C1171 C 0.89968 0.29222 0.51358 0.0
C1172 C 0.8936 0.28626 0.52748 0.0
C1173 C 0.89445 0.28581 0.5181 0.0
C1174 C 0.90351 0.29923 0.52782 0.0
C1175 C 0.8979 0.29318 0.5324 0.0
C1176 C 0.90436 0.29875 0.51854 0.0
C1177 C 0.90099 0.30215 0.46987 0.0
C1178 C 0.90488 0.318 0.47173 0.0
C1179 C 0.90371 0.31145 0.45688 0.0
C1180 C 0.90151 0.30315 0.46059 0.0
C1181 C 0.90545 0.31898 0.46237 0.0
C1182 C 0.90269 0.30962 0.47546 0.0
C1183 C 0.89853 0.29325 0.47338 0.0
O1184 O 0.89988 0.27007 0.48805 0.0
O1185 O 0.8858 0.27444 0.48899 0.0
O1186 O 0.89086 0.29274 0.47772 0.0
O1187 O 0.90504 0.28858 0.47709 0.0
H1188 H 0.88871 0.2711 0.47002 0.0
H1189 H 0.8834 0.26056 0.45847 0.0
H1190 H 0.88323 0.23918 0.47794 0.0
H1191 H 0.88827 0.24985 0.48946 0.0
H1192 H 0.88924 0.28149 0.5308 0.0
H1193 H 0.89078 0.28068 0.51439 0.0
H1194 H 0.90708 0.30451 0.53139 0.0
H1195 H 0.90844 0.30375 0.51518 0.0
H1196 H 0.90621 0.32367 0.47614 0.0
H1197 H 0.9039 0.31199 0.44966 0.0
H1198 H 0.90017 0.29748 0.45617 0.0
H1199 H 0.90231 0.30897 0.48266 0.0
C1200 C 0.50873 0.86842 0.7723 0.0
C1201 C 0.5114 0.86855 0.78132 0.0
C1202 C 0.49683 0.87484 0.78571 0.0
C1203 C 0.50551 0.87172 0.78796 0.0
C1204 C 0.49412 0.87443 0.77668 0.0
C1205 C 0.50001 0.87126 0.77006 0.0
U1206 U 0.53174 0.85985 0.76449 0.0
O1207 O 0.53553 0.85142 0.75287 0.0
O1208 O 0.54089 0.86516 0.75424 0.0
C1209 C 0.54051 0.8578 0.74932 0.0
C1210 C 0.51509 0.86591 0.76513 0.0
C1211 C 0.54004 0.85908 0.73954 0.0
C1212 C 0.53198 0.86081 0.72541 0.0
C1213 C 0.53189 0.85943 0.73472 0.0
C1214 C 0.54829 0.86151 0.72573 0.0
C1215 C 0.5402 0.86196 0.72088 0.0
C1216 C 0.54821 0.86005 0.73494 0.0
C1217 C 0.54881 0.85403 0.78346 0.0
C1218 C 0.56511 0.85234 0.78237 0.0
C1219 C 0.55776 0.85125 0.79677 0.0
C1220 C 0.5494 0.85259 0.79269 0.0
C1221 C 0.56574 0.85133 0.79172 0.0
C1222 C 0.55669 0.85373 0.77827 0.0
C1223 C 0.53999 0.85661 0.77972 0.0
O1224 O 0.5222 0.87115 0.76445 0.0
O1225 O 0.51707 0.8573 0.76439 0.0
O1226 O 0.53545 0.85043 0.77525 0.0
O1227 O 0.53962 0.8646 0.77605 0.0
H1228 H 0.51811 0.86636 0.7832 0.0
H1229 H 0.50779 0.87177 0.79485 0.0
H1230 H 0.48756 0.87685 0.77465 0.0
H1231 H 0.49783 0.87124 0.76313 0.0
H1232 H 0.52565 0.86119 0.72179 0.0
H1233 H 0.5255 0.85872 0.73815 0.0
H1234 H 0.55471 0.86233 0.72238 0.0
H1235 H 0.55457 0.85975 0.73851 0.0
H1236 H 0.57113 0.85245 0.77829 0.0
H1237 H 0.55797 0.85033 0.80395 0.0
H1238 H 0.5434 0.8528 0.7968 0.0
H1239 H 0.55636 0.85484 0.77112 0.0
C1240 C 0.98198 0.14463 0.23811 0.0
C1241 C 0.97277 0.14329 0.23627 0.0
C1242 C 0.97557 0.14472 0.22025 0.0
C1243 C 0.96961 0.14329 0.22743 0.0
C1244 C 0.98472 0.14637 0.22216 0.0
C1245 C 0.98789 0.14629 0.231 0.0
U1246 U 0.97928 0.14611 0.26361 0.0
O1247 O 0.98409 0.13701 0.27412 0.0
O1248 O 0.98859 0.15112 0.27408 0.0
C1249 C 0.98905 0.14325 0.27801 0.0
C1250 C 0.9856 0.14395 0.24732 0.0
C1251 C 0.99786 0.14045 0.28163 0.0
C1252 C 0.01245 0.13298 0.28053 0.0
C1253 C 1.00452 0.13617 0.27645 0.0
C1254 C 0.00712 0.13844 0.29488 0.0
C1255 C 0.01381 0.13401 0.28984 0.0
C1256 C 0.9993 0.14163 0.29082 0.0
C1257 C 0.95569 0.15303 0.27255 0.0
C1258 C 0.95117 0.1547 0.28813 0.0
C1259 C 0.94018 0.15662 0.2763 0.0
C1260 C 0.94684 0.1549 0.26993 0.0
C1261 C 0.94223 0.15656 0.2855 0.0
C1262 C 0.95786 0.15295 0.28171 0.0
C1263 C 0.96239 0.15111 0.26553 0.0
O1264 O 0.98636 0.15154 0.25184 0.0
O1265 O 0.98238 0.13732 0.25214 0.0
O1266 O 0.96488 0.14267 0.26466 0.0
O1267 O 0.96911 0.15683 0.26482 0.0
H1268 H 0.96806 0.14207 0.24166 0.0
H1269 H 0.9625 0.14211 0.22619 0.0
H1270 H 0.9895 0.14742 0.2168 0.0
H1271 H 0.99501 0.14734 0.23227 0.0
H1272 H 0.01746 0.12967 0.27642 0.0
H1273 H 1.00352 0.13518 0.26933 0.0
H1274 H 0.00774 0.13918 0.30206 0.0
H1275 H 0.99421 0.14484 0.29494 0.0
H1276 H 0.95302 0.15465 0.29515 0.0
H1277 H 0.93337 0.15781 0.27398 0.0
H1278 H 0.94503 0.15495 0.2629 0.0
H1279 H 0.96468 0.15151 0.28387 0.0
C1280 C 0.50919 0.14205 0.7373 0.0
C1281 C 0.51137 0.14268 0.72818 0.0
C1282 C 0.49704 0.13557 0.72405 0.0
C1283 C 0.50534 0.13948 0.72162 0.0
C1284 C 0.49482 0.13524 0.7332 0.0
C1285 C 0.50083 0.13842 0.73973 0.0
U1286 U 0.53237 0.15068 0.74524 0.0
O1287 O 0.53607 0.15902 0.75699 0.0
O1288 O 0.5414 0.14529 0.75559 0.0
C1289 C 0.54102 0.15263 0.76054 0.0
C1290 C 0.5157 0.14461 0.74439 0.0
C1291 C 0.54061 0.15132 0.77032 0.0
C1292 C 0.53266 0.14953 0.78449 0.0
C1293 C 0.5325 0.15097 0.77517 0.0
C1294 C 0.54896 0.1488 0.78408 0.0
C1295 C 0.54092 0.14831 0.78898 0.0
C1296 C 0.5488 0.15032 0.77489 0.0
C1297 C 0.54974 0.15648 0.72657 0.0
C1298 C 0.5659 0.1591 0.72815 0.0
C1299 C 0.55913 0.15817 0.71341 0.0
C1300 C 0.55067 0.1569 0.71726 0.0
C1301 C 0.56687 0.15909 0.71878 0.0
C1302 C 0.55738 0.15773 0.73203 0.0
C1303 C 0.54085 0.15395 0.73016 0.0
O1304 O 0.52278 0.13937 0.74507 0.0
O1305 O 0.51771 0.15322 0.74511 0.0
O1306 O 0.53632 0.16014 0.73461 0.0
O1307 O 0.54034 0.14594 0.73378 0.0
H1308 H 0.51781 0.14544 0.72616 0.0
H1309 H 0.50733 0.1398 0.71466 0.0
H1310 H 0.48843 0.13245 0.73535 0.0
H1311 H 0.49901 0.1379 0.74673 0.0
H1312 H 0.52637 0.14914 0.78812 0.0
H1313 H 0.52608 0.15172 0.77178 0.0
H1314 H 0.55542 0.14797 0.78739 0.0
H1315 H 0.55513 0.15063 0.7713 0.0
H1316 H 0.57177 0.15978 0.73244 0.0
H1317 H 0.55965 0.15824 0.70618 0.0
H1318 H 0.54487 0.15595 0.71294 0.0
H1319 H 0.55679 0.15739 0.73924 0.0
C1320 C 0.14393 0.24209 0.97647 0.0
C1321 C 0.145 0.24012 0.96732 0.0
C1322 C 0.14364 0.22402 0.97031 0.0
C1323 C 0.14488 0.23116 0.96427 0.0
C1324 C 0.14274 0.22608 0.97947 0.0
C1325 C 0.14288 0.235 0.9825 0.0
U1326 U 0.14588 0.26773 0.9735 0.0
O1327 O 0.13715 0.27852 0.97859 0.0
O1328 O 0.15138 0.27811 0.98269 0.0
C1329 C 0.14356 0.28218 0.9835 0.0
C1330 C 0.14359 0.25144 0.97988 0.0
C1331 C 0.14097 0.28549 0.99248 0.0
C1332 C 0.13135 0.2851 0.00568 0.0
C1333 C 0.13482 0.28089 0.99797 0.0
C1334 C 0.14041 0.29831 1.00266 0.0
C1335 C 0.13389 0.29398 0.00789 0.0
C1336 C 0.14394 0.29409 0.99507 0.0
C1337 C 0.15188 0.27651 0.94983 0.0
C1338 C 0.15267 0.29214 0.94506 0.0
C1339 C 0.15468 0.28006 0.93426 0.0
C1340 C 0.15358 0.27374 0.94102 0.0
C1341 C 0.15414 0.28932 0.93617 0.0
C1342 C 0.15148 0.28576 0.95186 0.0
C1343 C 0.15023 0.26953 0.95656 0.0
O1344 O 0.15132 0.25577 0.98028 0.0
O1345 O 0.13696 0.25639 0.97679 0.0
O1346 O 0.14188 0.26877 0.95937 0.0
O1347 O 0.15623 0.26877 0.963 0.0
H1348 H 0.14581 0.24551 0.96255 0.0
H1349 H 0.14553 0.22982 0.95717 0.0
H1350 H 0.14193 0.22077 0.98433 0.0
H1351 H 0.14209 0.23638 0.98959 0.0
H1352 H 0.1263 0.28164 0.00961 0.0
H1353 H 0.13243 0.27425 0.99609 0.0
H1354 H 0.14252 0.30512 1.00426 0.0
H1355 H 0.14866 0.29775 0.99094 0.0
H1356 H 0.15219 0.29924 0.9467 0.0
H1357 H 0.15592 0.27771 0.92749 0.0
H1358 H 0.15394 0.26664 0.93933 0.0
H1359 H 0.15014 0.28802 0.95863 0.0
C1360 C 0.36958 0.7322 0.50065 0.0
C1361 C 0.37007 0.72321 0.49772 0.0
C1362 C 0.37561 0.7186 0.5124 0.0
C1363 C 0.37305 0.71647 0.50354 0.0
C1364 C 0.3748 0.72759 0.51536 0.0
C1365 C 0.37182 0.7343 0.50954 0.0
U1366 U 0.36171 0.74027 0.47773 0.0
O1367 O 0.35341 0.75192 0.47382 0.0
O1368 O 0.36735 0.75071 0.46899 0.0
C1369 C 0.35993 0.75553 0.46909 0.0
C1370 C 0.36733 0.7395 0.4944 0.0
C1371 C 0.36101 0.7654 0.4694 0.0
C1372 C 0.36279 0.77985 0.47709 0.0
C1373 C 0.36193 0.7704 0.47738 0.0
C1374 C 0.36188 0.77925 0.46092 0.0
C1375 C 0.36267 0.78439 0.46883 0.0
C1376 C 0.36105 0.76992 0.46122 0.0
C1377 C 0.35578 0.72163 0.46029 0.0
C1378 C 0.35438 0.72326 0.44415 0.0
C1379 C 0.35159 0.7088 0.45099 0.0
C1380 C 0.35339 0.71255 0.45941 0.0
C1381 C 0.35215 0.71407 0.44323 0.0
C1382 C 0.35616 0.72702 0.45262 0.0
C1383 C 0.35841 0.72505 0.46921 0.0
O1384 O 0.37278 0.74024 0.48752 0.0
O1385 O 0.35878 0.7403 0.4922 0.0
O1386 O 0.35224 0.72946 0.47376 0.0
O1387 O 0.36646 0.72871 0.4698 0.0
H1388 H 0.36833 0.72143 0.49089 0.0
H1389 H 0.37344 0.70961 0.50107 0.0
H1390 H 0.37678 0.72951 0.52208 0.0
H1391 H 0.3715 0.7412 0.51192 0.0
H1392 H 0.36339 0.7836 0.48331 0.0
H1393 H 0.36194 0.76703 0.48378 0.0
H1394 H 0.36196 0.78246 0.45444 0.0
H1395 H 0.36041 0.76619 0.45498 0.0
H1396 H 0.35479 0.72752 0.43831 0.0
H1397 H 0.35004 0.70168 0.45055 0.0
H1398 H 0.35313 0.70827 0.46524 0.0
H1399 H 0.358 0.73407 0.45317 0.0
C1400 C 0.74329 0.52864 0.86604 0.0
C1401 C 0.74127 0.53741 0.86321 0.0
C1402 C 0.72525 0.5347 0.86581 0.0
C1403 C 0.73229 0.5404 0.86305 0.0
C1404 C 0.72734 0.5259 0.86849 0.0
C1405 C 0.73627 0.5229 0.86858 0.0
U1406 U 0.76895 0.53212 0.86488 0.0
O1407 O 0.77956 0.52732 0.87392 0.0
O1408 O 0.77958 0.52304 0.85981 0.0
C1409 C 0.78338 0.5223 0.86773 0.0
C1410 C 0.75266 0.52539 0.86669 0.0
C1411 C 0.78636 0.51324 0.87043 0.0
C1412 C 0.78576 0.50031 0.88033 0.0
C1413 C 0.78191 0.50825 0.87704 0.0
C1414 C 0.79833 0.50209 0.87019 0.0
C1415 C 0.79414 0.49724 0.87709 0.0
C1416 C 0.79447 0.50997 0.8669 0.0
C1417 C 0.77784 0.55584 0.85884 0.0
C1418 C 0.79356 0.56037 0.85755 0.0
C1419 C 0.78169 0.57139 0.85578 0.0
C1420 C 0.77523 0.56472 0.85721 0.0
C1421 C 0.79095 0.56933 0.8559 0.0
C1422 C 0.78705 0.55366 0.85901 0.0
C1423 C 0.77074 0.5491 0.86042 0.0
O1424 O 0.75722 0.52497 0.85917 0.0
O1425 O 0.75739 0.52869 0.8734 0.0
O1426 O 0.76983 0.54642 0.86872 0.0
O1427 O 0.77009 0.54252 0.85453 0.0
H1428 H 0.74662 0.54195 0.86126 0.0
H1429 H 0.73088 0.54724 0.86101 0.0
H1430 H 0.72206 0.52133 0.87055 0.0
H1431 H 0.7377 0.51611 0.87075 0.0
H1432 H 0.78227 0.49668 0.88554 0.0
H1433 H 0.77561 0.51063 0.87984 0.0
H1434 H 0.80483 0.50007 0.8676 0.0
H1435 H 0.79805 0.51374 0.86184 0.0
H1436 H 0.80062 0.55852 0.85764 0.0
H1437 H 0.7794 0.57822 0.85475 0.0
H1438 H 0.76816 0.56652 0.85711 0.0
H1439 H 0.78919 0.54682 0.86027 0.0
C1440 C 0.73469 0.51009 0.14252 0.0
C1441 C 0.72554 0.5125 0.14251 0.0
C1442 C 0.72141 0.49772 0.13642 0.0
C1443 C 0.71896 0.50637 0.13951 0.0
C1444 C 0.73058 0.49528 0.13673 0.0
C1445 C 0.73713 0.5014 0.13973 0.0
U1446 U 0.74248 0.53358 0.15019 0.0
O1447 O 0.75388 0.53782 0.15878 0.0
O1448 O 0.75323 0.54216 0.14478 0.0
C1449 C 0.75784 0.54227 0.15231 0.0
C1450 C 0.74182 0.51666 0.14487 0.0
C1451 C 0.76774 0.54151 0.15157 0.0
C1452 C 0.78143 0.53447 0.14586 0.0
C1453 C 0.772 0.53444 0.14693 0.0
C1454 C 0.78238 0.54844 0.15427 0.0
C1455 C 0.78671 0.5415 0.1495 0.0
C1456 C 0.77302 0.54844 0.15526 0.0
C1457 C 0.72344 0.55096 0.15528 0.0
C1458 C 0.72468 0.56725 0.15684 0.0
C1459 C 0.71007 0.56001 0.15786 0.0
C1460 C 0.71413 0.55163 0.15662 0.0
C1461 C 0.71524 0.56796 0.15776 0.0
C1462 C 0.72875 0.5588 0.15557 0.0
C1463 C 0.72717 0.54206 0.15291 0.0
O1464 O 0.74262 0.52347 0.13937 0.0
O1465 O 0.74238 0.51908 0.15333 0.0
O1466 O 0.73146 0.53768 0.15923 0.0
O1467 O 0.73107 0.54141 0.14506 0.0
H1468 H 0.72351 0.51919 0.14463 0.0
H1469 H 0.71199 0.50852 0.13931 0.0
H1470 H 0.73273 0.48865 0.13458 0.0
H1471 H 0.74415 0.4994 0.13972 0.0
H1472 H 0.78459 0.52901 0.14219 0.0
H1473 H 0.76805 0.52902 0.14402 0.0
H1474 H 0.78622 0.55402 0.15702 0.0
H1475 H 0.76986 0.554 0.15878 0.0
H1476 H 0.72885 0.57324 0.15672 0.0
H1477 H 0.70283 0.56029 0.15872 0.0
H1478 H 0.70993 0.54565 0.15645 0.0
H1479 H 0.73597 0.55841 0.15454 0.0
C1480 C 0.73496 0.50124 0.36818 0.0
C1481 C 0.72585 0.49868 0.36846 0.0
C1482 C 0.72169 0.51354 0.37425 0.0
C1483 C 0.71927 0.50477 0.37145 0.0
C1484 C 0.73081 0.51613 0.37365 0.0
C1485 C 0.73736 0.51004 0.37067 0.0
U1486 U 0.74267 0.47776 0.36066 0.0
O1487 O 0.75395 0.47344 0.35203 0.0
O1488 O 0.75345 0.46922 0.36607 0.0
C1489 C 0.75796 0.46903 0.35851 0.0
C1490 C 0.7421 0.49471 0.36586 0.0
C1491 C 0.76788 0.46974 0.35915 0.0
C1492 C 0.78173 0.4768 0.36455 0.0
C1493 C 0.77228 0.47684 0.36364 0.0
C1494 C 0.7824 0.46268 0.35639 0.0
C1495 C 0.7869 0.46968 0.36095 0.0
C1496 C 0.77302 0.46272 0.35551 0.0
C1497 C 0.72353 0.46035 0.35576 0.0
C1498 C 0.72473 0.44405 0.35433 0.0
C1499 C 0.71014 0.45126 0.35319 0.0
C1500 C 0.71422 0.45966 0.35438 0.0
C1501 C 0.71529 0.44332 0.35338 0.0
C1502 C 0.72882 0.45252 0.35555 0.0
C1503 C 0.72729 0.46927 0.35806 0.0
O1504 O 0.74295 0.48795 0.3714 0.0
O1505 O 0.7426 0.49223 0.35741 0.0
O1506 O 0.73153 0.47361 0.3517 0.0
O1507 O 0.73127 0.46996 0.36589 0.0
H1508 H 0.72385 0.4919 0.36658 0.0
H1509 H 0.71234 0.50251 0.37187 0.0
H1510 H 0.73292 0.52285 0.37557 0.0
H1511 H 0.74435 0.51215 0.37047 0.0
H1512 H 0.78499 0.48233 0.36806 0.0
H1513 H 0.76843 0.48233 0.36653 0.0
H1514 H 0.7861 0.45701 0.35368 0.0
H1515 H 0.76975 0.45713 0.3521 0.0
H1516 H 0.72889 0.43807 0.35452 0.0
H1517 H 0.70289 0.45097 0.3523 0.0
H1518 H 0.71003 0.46563 0.35448 0.0
H1519 H 0.73604 0.45293 0.3566 0.0
C1520 C 0.74137 0.48279 0.64448 0.0
C1521 C 0.73931 0.47394 0.64706 0.0
C1522 C 0.7233 0.47671 0.64446 0.0
C1523 C 0.73032 0.47094 0.64711 0.0
C1524 C 0.72541 0.48557 0.64201 0.0
C1525 C 0.73435 0.48859 0.64206 0.0
U1526 U 0.76713 0.47959 0.64579 0.0
O1527 O 0.7777 0.48464 0.63687 0.0
O1528 O 0.77763 0.48882 0.651 0.0
C1529 C 0.78145 0.48968 0.64312 0.0
C1530 C 0.75074 0.48609 0.64394 0.0
C1531 C 0.78436 0.49881 0.64049 0.0
C1532 C 0.78382 0.51162 0.63042 0.0
C1533 C 0.77997 0.50367 0.63373 0.0
C1534 C 0.7962 0.51017 0.64089 0.0
C1535 C 0.7921 0.51484 0.63382 0.0
C1536 C 0.79237 0.50225 0.64417 0.0
C1537 C 0.77623 0.45586 0.65162 0.0
C1538 C 0.79197 0.45134 0.65266 0.0
C1539 C 0.7801 0.44032 0.65465 0.0
C1540 C 0.77364 0.44699 0.65332 0.0
C1541 C 0.78936 0.44238 0.65436 0.0
C1542 C 0.78545 0.45804 0.6513 0.0
C1543 C 0.76911 0.46257 0.65007 0.0
O1544 O 0.75528 0.48647 0.6515 0.0
O1545 O 0.75552 0.48291 0.63724 0.0
O1546 O 0.76818 0.46535 0.64179 0.0
O1547 O 0.76841 0.46909 0.65603 0.0
H1548 H 0.74465 0.46935 0.64892 0.0
H1549 H 0.72887 0.46406 0.64897 0.0
H1550 H 0.72013 0.49018 0.64002 0.0
H1551 H 0.73579 0.49544 0.64008 0.0
H1552 H 0.78043 0.51512 0.62505 0.0
H1553 H 0.77376 0.50118 0.6308 0.0
H1554 H 0.80262 0.51237 0.6436 0.0
H1555 H 0.79591 0.49858 0.64934 0.0
H1556 H 0.79903 0.45319 0.65244 0.0
H1557 H 0.77781 0.43349 0.65573 0.0
H1558 H 0.76656 0.44517 0.65353 0.0
H1559 H 0.78758 0.46488 0.64998 0.0
C1560 C 0.48586 0.12503 0.25084 0.0
C1561 C 0.47705 0.12692 0.24797 0.0
C1562 C 0.4726 0.13061 0.26329 0.0
C1563 C 0.4705 0.12971 0.25412 0.0
C1564 C 0.48139 0.12842 0.26614 0.0
C1565 C 0.48794 0.12569 0.25996 0.0
U1566 U 0.49341 0.11776 0.22745 0.0
O1567 O 0.50454 0.12269 0.21912 0.0
O1568 O 0.50422 0.1085 0.22314 0.0
C1569 C 0.50863 0.11485 0.21891 0.0
C1570 C 0.493 0.12266 0.24438 0.0
C1571 C 0.51854 0.11496 0.21973 0.0
C1572 C 0.53258 0.12036 0.22643 0.0
C1573 C 0.52312 0.11961 0.22662 0.0
C1574 C 0.53289 0.11167 0.21266 0.0
C1575 C 0.53752 0.11659 0.21929 0.0
C1576 C 0.52353 0.11085 0.2129 0.0
C1577 C 0.47433 0.11366 0.20995 0.0
C1578 C 0.47597 0.11063 0.19399 0.0
C1579 C 0.46113 0.11074 0.20072 0.0
C1580 C 0.46499 0.11268 0.20904 0.0
C1581 C 0.46654 0.10967 0.19306 0.0
C1582 C 0.47984 0.11261 0.20238 0.0
C1583 C 0.478 0.11597 0.21885 0.0
O1584 O 0.49322 0.1142 0.24174 0.0
O1585 O 0.49411 0.12835 0.23778 0.0
O1586 O 0.48239 0.12363 0.21953 0.0
O1587 O 0.48182 0.1094 0.2233 0.0
H1588 H 0.4753 0.12642 0.24094 0.0
H1589 H 0.46386 0.13141 0.25163 0.0
H1590 H 0.48323 0.12884 0.27314 0.0
H1591 H 0.49469 0.1242 0.26232 0.0
H1592 H 0.53599 0.12421 0.23162 0.0
H1593 H 0.51938 0.12285 0.23196 0.0
H1594 H 0.53652 0.10862 0.20713 0.0
H1595 H 0.52013 0.10724 0.20753 0.0
H1596 H 0.48036 0.10978 0.18828 0.0
H1597 H 0.45386 0.11027 0.20028 0.0
H1598 H 0.46063 0.11353 0.2148 0.0
H1599 H 0.48708 0.11334 0.20295 0.0
C1600 C 0.99006 0.89819 0.73419 0.0
C1601 C 0.98823 0.9002 0.7252 0.0
C1602 C 0.97212 0.89763 0.72761 0.0
C1603 C 0.97933 0.89996 0.72194 0.0
C1604 C 0.97402 0.89586 0.73666 0.0
C1605 C 0.98288 0.89614 0.7399 0.0
U1606 U 0.01585 0.89998 0.73161 0.0
O1607 O 0.02627 0.90464 0.74121 0.0
O1608 O 0.02642 0.89072 0.73614 0.0
C1609 C 0.03022 0.89672 0.74145 0.0
C1610 C 0.99938 0.89768 0.7377 0.0
C1611 C 0.03344 0.89344 0.75019 0.0
C1612 C 0.03176 0.88423 0.76351 0.0
C1613 C 0.02798 0.88833 0.75593 0.0
C1614 C 0.0463 0.8907 0.75992 0.0
C1615 C 0.04099 0.88528 0.76546 0.0
C1616 C 0.04256 0.89472 0.75235 0.0
C1617 C 0.0251 0.90664 0.70827 0.0
C1618 C 0.0407 0.90602 0.70324 0.0
C1619 C 0.02885 0.91013 0.69289 0.0
C1620 C 0.02248 0.90925 0.69968 0.0
C1621 C 0.03802 0.90833 0.69449 0.0
C1622 C 0.03428 0.90516 0.71009 0.0
C1623 C 0.01798 0.90501 0.71492 0.0
O1624 O 1.00432 0.89112 0.7344 0.0
O1625 O 1.00381 0.90532 0.73847 0.0
O1626 O 0.0174 0.91074 0.72164 0.0
O1627 O 0.01688 0.8966 0.71732 0.0
H1628 H 0.99369 0.90179 0.72067 0.0
H1629 H 0.97813 0.90131 0.71493 0.0
H1630 H 0.96865 0.89421 0.74126 0.0
H1631 H 0.98413 0.89459 0.74686 0.0
H1632 H 0.02756 0.88006 0.76771 0.0
H1633 H 0.02093 0.88725 0.75438 0.0
H1634 H 0.05345 0.89151 0.76125 0.0
H1635 H 0.0469 0.89856 0.74797 0.0
H1636 H 0.0477 0.90456 0.70473 0.0
H1637 H 0.02652 0.91216 0.68634 0.0
H1638 H 0.01544 0.91045 0.69817 0.0
H1639 H 0.03643 0.90314 0.7167 0.0
C1640 C 0.51894 0.89685 0.27729 0.0
C1641 C 0.52084 0.89766 0.28648 0.0
C1642 C 0.53698 0.89608 0.28353 0.0
C1643 C 0.52979 0.8973 0.28957 0.0
C1644 C 0.535 0.89556 0.27432 0.0
C1645 C 0.52609 0.89593 0.27125 0.0
U1646 U 0.49318 0.89854 0.28017 0.0
O1647 O 0.48276 0.90361 0.27087 0.0
O1648 O 0.48257 0.88948 0.27515 0.0
C1649 C 0.47882 0.8957 0.27016 0.0
C1650 C 0.5096 0.89644 0.27386 0.0
C1651 C 0.47547 0.89283 0.26126 0.0
C1652 C 0.47554 0.88255 0.24845 0.0
C1653 C 0.47989 0.88633 0.25597 0.0
C1654 C 0.46258 0.89204 0.25123 0.0
C1655 C 0.46669 0.88514 0.24623 0.0
C1656 C 0.46693 0.89585 0.25863 0.0
C1657 C 0.48418 0.90464 0.30393 0.0
C1658 C 0.46866 0.9042 0.30924 0.0
C1659 C 0.48079 0.908 0.31947 0.0
C1660 C 0.48701 0.9071 0.31254 0.0
C1661 C 0.47155 0.90637 0.318 0.0
C1662 C 0.47494 0.90333 0.30225 0.0
C1663 C 0.49116 0.90308 0.29709 0.0
O1664 O 0.50466 0.88979 0.2769 0.0
O1665 O 0.50519 0.9041 0.27348 0.0
O1666 O 0.49179 0.909 0.29063 0.0
O1667 O 0.4921 0.89473 0.2943 0.0
H1668 H 0.5154 0.89837 0.29126 0.0
H1669 H 0.53104 0.89768 0.2967 0.0
H1670 H 0.54035 0.8948 0.26946 0.0
H1671 H 0.52477 0.89534 0.26414 0.0
H1672 H 0.47886 0.87724 0.2447 0.0
H1673 H 0.48649 0.88389 0.25787 0.0
H1674 H 0.4558 0.89423 0.24962 0.0
H1675 H 0.46339 0.90085 0.26261 0.0
H1676 H 0.46161 0.90289 0.30784 0.0
H1677 H 0.48328 0.90992 0.32603 0.0
H1678 H 0.4941 0.90818 0.31396 0.0
H1679 H 0.47263 0.90144 0.29561 0.0
C1680 C 0.88934 0.74987 0.027 0.0
C1681 C 0.89221 0.74884 0.0359 0.0
C1682 C 0.88377 0.76227 0.04042 0.0
C1683 C 0.88949 0.755 0.04253 0.0
C1684 C 0.881 0.76324 0.03145 0.0
C1685 C 0.88378 0.75714 0.02484 0.0
U1686 U 0.89746 0.72658 0.0193 0.0
O1687 O 0.89224 0.7177 0.00861 0.0
O1688 O 0.90623 0.72256 0.00807 0.0
C1689 C 0.89986 0.7178 1.00414 0.0
C1690 C 0.89176 0.74331 0.01992 0.0
C1691 C 0.8992 0.71821 0.99429 0.0
C1692 C 0.89661 0.72599 0.9802 0.0
C1693 C 0.89718 0.72614 0.98962 0.0
C1694 C 0.90002 0.71006 0.98017 0.0
C1695 C 0.89808 0.71793 0.97536 0.0
C1696 C 0.90058 0.71022 0.98948 0.0
C1697 C 0.90304 0.70951 0.0382 0.0
C1698 C 0.90488 0.69325 0.03704 0.0
C1699 C 0.90661 0.70077 0.05138 0.0
C1700 C 0.90494 0.70904 0.04736 0.0
C1701 C 0.90641 0.69275 0.04633 0.0
C1702 C 0.90317 0.70159 0.033 0.0
C1703 C 0.90038 0.7183 0.03452 0.0
O1704 O 0.90033 0.74114 0.01932 0.0
O1705 O 0.88633 0.73635 0.01914 0.0
O1706 O 0.89246 0.71862 0.03059 0.0
O1707 O 0.90663 0.72291 0.03034 0.0
H1708 H 0.8965 0.74325 0.03772 0.0
H1709 H 0.89189 0.75406 0.0493 0.0
H1710 H 0.87646 0.76859 0.02953 0.0
H1711 H 0.88144 0.75803 0.01803 0.0
H1712 H 0.89513 0.73218 0.97672 0.0
H1713 H 0.89607 0.73239 0.99322 0.0
H1714 H 0.90097 0.70368 0.97675 0.0
H1715 H 0.90208 0.70402 0.99296 0.0
H1716 H 0.90467 0.68719 0.03297 0.0
H1717 H 0.90792 0.70064 0.05852 0.0
H1718 H 0.90489 0.71508 0.05147 0.0
H1719 H 0.90171 0.70183 0.0259 0.0
C1720 C 0.61048 0.28105 0.49343 0.0
C1721 C 0.60897 0.2902 0.49166 0.0
C1722 C 0.6104 0.28738 0.47556 0.0
C1723 C 0.60892 0.29333 0.48281 0.0
C1724 C 0.61168 0.27819 0.47741 0.0
C1725 C 0.61173 0.27508 0.48624 0.0
U1726 U 0.60926 0.28407 0.51903 0.0
O1727 O 0.60476 0.2747 0.52952 0.0
O1728 O 0.61875 0.27957 0.5294 0.0
C1729 C 0.61274 0.27448 0.53336 0.0
C1730 C 0.61128 0.27766 0.50268 0.0
C1731 C 0.61589 0.26579 0.53694 0.0
C1732 C 0.6237 0.2514 0.53568 0.0
C1733 C 0.62014 0.25918 0.53166 0.0
C1734 C 0.61859 0.25674 0.55015 0.0
C1735 C 0.62301 0.25014 0.545 0.0
C1736 C 0.61509 0.26445 0.54616 0.0
C1737 C 0.60232 0.30765 0.52816 0.0
C1738 C 0.6015 0.31244 0.54376 0.0
C1739 C 0.59911 0.32325 0.53195 0.0
C1740 C 0.6004 0.31647 0.52556 0.0
C1741 C 0.59967 0.32137 0.54115 0.0
C1742 C 0.60283 0.30563 0.53731 0.0
C1743 C 0.60405 0.30088 0.5211 0.0
O1744 O 0.61791 0.2811 0.50745 0.0
O1745 O 0.60374 0.2769 0.50723 0.0
O1746 O 0.59839 0.29407 0.52054 0.0
O1747 O 0.6125 0.2985 0.52001 0.0
H1748 H 0.60797 0.29493 0.49712 0.0
H1749 H 0.60778 0.30042 0.48166 0.0
H1750 H 0.61296 0.27341 0.47206 0.0
H1751 H 0.61294 0.268 0.48745 0.0
H1752 H 0.62703 0.24642 0.53152 0.0
H1753 H 0.62084 0.2601 0.52452 0.0
H1754 H 0.61808 0.25609 0.55734 0.0
H1755 H 0.61193 0.26951 0.55037 0.0
H1756 H 0.60189 0.31071 0.55077 0.0
H1757 H 0.59792 0.33003 0.52963 0.0
H1758 H 0.60003 0.31816 0.51853 0.0
H1759 H 0.60431 0.29885 0.53945 0.0
C1760 C 0.25078 0.48713 0.12225 0.0
C1761 C 0.2486 0.47794 0.12151 0.0
C1762 C 0.26298 0.47392 0.12836 0.0
C1763 C 0.25468 0.47138 0.12449 0.0
C1764 C 0.26521 0.48312 0.12885 0.0
C1765 C 0.25917 0.48965 0.12581 0.0
U1766 U 0.22741 0.49456 0.11429 0.0
O1767 O 0.21863 0.50534 0.11941 0.0
O1768 O 0.22329 0.50567 0.10548 0.0
C1769 C 0.21863 0.50972 0.1118 0.0
C1770 C 0.24424 0.49419 0.11984 0.0
C1771 C 0.21919 0.51963 0.11236 0.0
C1772 C 0.22666 0.53371 0.11645 0.0
C1773 C 0.22674 0.52425 0.11577 0.0
C1774 C 0.21153 0.53391 0.11034 0.0
C1775 C 0.21902 0.53868 0.11374 0.0
C1776 C 0.21164 0.52455 0.10963 0.0
C1777 C 0.21021 0.47552 0.10881 0.0
C1778 C 0.19414 0.47713 0.10589 0.0
C1779 C 0.20111 0.46242 0.105 0.0
C1780 C 0.20944 0.46625 0.10719 0.0
C1781 C 0.19333 0.46778 0.10436 0.0
C1782 C 0.20252 0.48097 0.10809 0.0
C1783 C 0.21906 0.47914 0.11152 0.0
O1784 O 0.24197 0.49463 0.11135 0.0
O1785 O 0.23732 0.49499 0.12526 0.0
O1786 O 0.21942 0.48321 0.11935 0.0
O1787 O 0.22373 0.48328 0.10532 0.0
H1788 H 0.24213 0.47587 0.11881 0.0
H1789 H 0.25276 0.46435 0.12407 0.0
H1790 H 0.2716 0.48527 0.13167 0.0
H1791 H 0.26099 0.4967 0.1264 0.0
H1792 H 0.23258 0.53713 0.11905 0.0
H1793 H 0.23264 0.52056 0.11794 0.0
H1794 H 0.20544 0.5374 0.10839 0.0
H1795 H 0.20572 0.5211 0.10705 0.0
H1796 H 0.18831 0.48147 0.10537 0.0
H1797 H 0.20075 0.45519 0.10405 0.0
H1798 H 0.21529 0.46193 0.10776 0.0
H1799 H 0.20299 0.48816 0.10931 0.0
C1800 C 0.27911 0.52073 0.89572 0.0
C1801 C 0.28814 0.52276 0.8978 0.0
C1802 C 0.28552 0.53867 0.89463 0.0
C1803 C 0.29131 0.53166 0.8973 0.0
C1804 C 0.27643 0.53658 0.89281 0.0
C1805 C 0.27328 0.52772 0.89335 0.0
U1806 U 0.28195 0.49507 0.89832 0.0
O1807 O 0.27228 0.48483 0.90309 0.0
O1808 O 0.2775 0.48416 0.88935 0.0
C1809 C 0.27218 0.48055 0.89536 0.0
C1810 C 0.27571 0.51137 0.89546 0.0
C1811 C 0.26352 0.47688 0.89207 0.0
C1812 C 0.24965 0.47788 0.88334 0.0
C1813 C 0.25711 0.48208 0.88749 0.0
C1814 C 0.25486 0.46341 0.88862 0.0
C1815 C 0.24865 0.46846 0.88364 0.0
C1816 C 0.26218 0.46759 0.8928 0.0
C1817 C 0.30548 0.48615 0.90555 0.0
C1818 C 0.31078 0.47062 0.90514 0.0
C1819 C 0.32093 0.48264 0.90959 0.0
C1820 C 0.31403 0.4889 0.90846 0.0
C1821 C 0.31951 0.47344 0.90774 0.0
C1822 C 0.30382 0.47694 0.90403 0.0
C1823 C 0.29875 0.49317 0.90363 0.0
O1824 O 0.27911 0.50621 0.88915 0.0
O1825 O 0.27495 0.50726 0.90318 0.0
O1826 O 0.29196 0.49396 0.90921 0.0
O1827 O 0.29637 0.49396 0.8952 0.0
H1828 H 0.29277 0.51744 0.89964 0.0
H1829 H 0.29835 0.53301 0.89871 0.0
H1830 H 0.27174 0.54181 0.89091 0.0
H1831 H 0.26629 0.52631 0.89174 0.0
H1832 H 0.24495 0.48192 0.87955 0.0
H1833 H 0.25805 0.48928 0.88683 0.0
H1834 H 0.25419 0.45616 0.88905 0.0
H1835 H 0.26704 0.46346 0.8963 0.0
H1836 H 0.30942 0.46361 0.90365 0.0
H1837 H 0.32745 0.48507 0.91184 0.0
H1838 H 0.31544 0.49596 0.90969 0.0
H1839 H 0.29724 0.47469 0.90178 0.0
C1840 C 0.27986 0.49015 0.61368 0.0
C1841 C 0.28893 0.48816 0.61185 0.0
C1842 C 0.28609 0.47213 0.61427 0.0
C1843 C 0.29202 0.47922 0.61212 0.0
C1844 C 0.27695 0.47419 0.61579 0.0
C1845 C 0.27389 0.48309 0.61552 0.0
U1846 U 0.28287 0.51588 0.61191 0.0
O1847 O 0.27332 0.52635 0.60748 0.0
O1848 O 0.27848 0.52646 0.62127 0.0
C1849 C 0.27311 0.53025 0.61541 0.0
C1850 C 0.27653 0.49951 0.61426 0.0
C1851 C 0.26428 0.53344 0.61872 0.0
C1852 C 0.25143 0.53255 0.62882 0.0
C1853 C 0.25914 0.52863 0.62496 0.0
C1854 C 0.25378 0.54593 0.61997 0.0
C1855 C 0.24874 0.54132 0.62646 0.0
C1856 C 0.26144 0.54204 0.61616 0.0
C1857 C 0.3064 0.52488 0.60476 0.0
C1858 C 0.31112 0.54052 0.6033 0.0
C1859 C 0.32219 0.52857 0.60255 0.0
C1860 C 0.31538 0.52219 0.60367 0.0
C1861 C 0.32019 0.53781 0.60248 0.0
C1862 C 0.30427 0.53408 0.60448 0.0
C1863 C 0.29962 0.51785 0.60652 0.0
O1864 O 0.28005 0.50444 0.62072 0.0
O1865 O 0.27572 0.50389 0.60669 0.0
O1866 O 0.29273 0.51729 0.60099 0.0
O1867 O 0.29736 0.51682 0.61494 0.0
H1868 H 0.29366 0.49353 0.61043 0.0
H1869 H 0.2991 0.47792 0.61095 0.0
H1870 H 0.27214 0.46892 0.61727 0.0
H1871 H 0.26686 0.48447 0.61692 0.0
H1872 H 0.24765 0.52879 0.63373 0.0
H1873 H 0.26121 0.52198 0.62704 0.0
H1874 H 0.25203 0.55274 0.6181 0.0
H1875 H 0.26536 0.5459 0.61144 0.0
H1876 H 0.30938 0.54759 0.60329 0.0
H1877 H 0.32907 0.52625 0.60179 0.0
H1878 H 0.31715 0.51512 0.60383 0.0
H1879 H 0.29736 0.53629 0.60533 0.0
C1880 C 0.25064 0.52238 0.38739 0.0
C1881 C 0.2475 0.53111 0.38565 0.0
C1882 C 0.26267 0.53586 0.38145 0.0
C1883 C 0.25346 0.53778 0.38269 0.0
C1884 C 0.26581 0.52718 0.38351 0.0
C1885 C 0.25984 0.52051 0.38644 0.0
U1886 U 0.2275 0.51464 0.39526 0.0
O1887 O 0.2187 0.50376 0.3903 0.0
O1888 O 0.22336 0.50369 0.40427 0.0
C1889 C 0.21871 0.49952 0.39798 0.0
C1890 C 0.24433 0.51511 0.38982 0.0
C1891 C 0.21931 0.48961 0.39758 0.0
C1892 C 0.22627 0.47558 0.39266 0.0
C1893 C 0.22641 0.48503 0.39334 0.0
C1894 C 0.212 0.47529 0.4005 0.0
C1895 C 0.21901 0.47058 0.39619 0.0
C1896 C 0.21218 0.48466 0.4012 0.0
C1897 C 0.21042 0.53383 0.40037 0.0
C1898 C 0.1945 0.53236 0.404 0.0
C1899 C 0.20145 0.54711 0.4035 0.0
C1900 C 0.20968 0.54317 0.40132 0.0
C1901 C 0.19371 0.54179 0.40491 0.0
C1902 C 0.20279 0.52841 0.40173 0.0
C1903 C 0.21921 0.53009 0.39774 0.0
O1904 O 0.24207 0.5147 0.3983 0.0
O1905 O 0.23742 0.51404 0.38438 0.0
O1906 O 0.21951 0.52587 0.38998 0.0
O1907 O 0.22386 0.52606 0.40403 0.0
H1908 H 0.24042 0.53272 0.38642 0.0
H1909 H 0.25083 0.54443 0.38132 0.0
H1910 H 0.27283 0.52544 0.38257 0.0
H1911 H 0.26239 0.51382 0.38777 0.0
H1912 H 0.23182 0.4722 0.38937 0.0
H1913 H 0.23197 0.48875 0.39047 0.0
H1914 H 0.2062 0.47177 0.40312 0.0
H1915 H 0.2066 0.48807 0.40443 0.0
H1916 H 0.18875 0.52802 0.40511 0.0
H1917 H 0.20114 0.55438 0.4039 0.0
H1918 H 0.21549 0.54746 0.40024 0.0
H1919 H 0.20325 0.52116 0.40101 0.0
C1920 C 0.11137 0.40835 0.10554 0.0
C1921 C 0.11393 0.41223 0.09739 0.0
C1922 C 0.10489 0.4015 0.10575 0.0
C1923 C 0.10074 0.39841 0.09782 0.0
C1924 C 0.10315 0.40248 0.08968 0.0
C1925 C 0.1097 0.40927 0.08947 0.0
C1926 C 0.09432 0.39065 0.09801 0.0
C1927 C 0.08832 0.38957 0.10519 0.0
C1928 C 0.08298 0.38177 0.10599 0.0
C1929 C 0.0833 0.37523 0.0991 0.0
C1930 C 0.08914 0.37624 0.09173 0.0
C1931 C 0.09466 0.38395 0.09134 0.0
C1932 C 0.09013 0.36898 0.08477 0.0
C1933 C 0.08951 0.35983 0.08706 0.0
C1934 C 0.09237 0.37113 0.07588 0.0
C1935 C 0.0945 0.36438 0.06966 0.0
C1936 C 0.09428 0.35524 0.07206 0.0
C1937 C 0.07763 0.38025 0.11435 0.0
C1938 C 0.08104 0.38318 0.12268 0.0
C1939 C 0.06926 0.37571 0.1142 0.0
C1940 C 0.06449 0.37419 0.12216 0.0
C1941 C 0.0679 0.37727 0.13042 0.0
C1942 C 0.07624 0.38177 0.13056 0.0
C1943 C 0.09147 0.35307 0.08078 0.0
H1944 H 0.11459 0.4104 0.11174 0.0
H1945 H 0.10337 0.39844 0.11212 0.0
H1946 H 0.1 0.40038 0.08346 0.0
H1947 H 0.11146 0.41222 0.0831 0.0
H1948 H 0.0879 0.39482 0.11024 0.0
H1949 H 0.09961 0.38454 0.08607 0.0
H1950 H 0.07919 0.36923 0.09962 0.0
H1951 H 0.08787 0.35783 0.09381 0.0
H1952 H 0.09269 0.37807 0.07374 0.0
H1953 H 0.09665 0.36641 0.06305 0.0
H1954 H 0.08757 0.38643 0.12318 0.0
H1955 H 0.06635 0.37341 0.10793 0.0
H1956 H 0.09094 0.34613 0.08286 0.0
H1957 H 0.07916 0.38406 0.13683 0.0
H1958 H 0.05806 0.37072 0.12183 0.0
C1959 C 0.90144 0.91138 0.41845 0.0
C1960 C 0.8962 0.91302 0.41074 0.0
C1961 C 0.90792 0.90452 0.41851 0.0
C1962 C 0.90945 0.89925 0.41082 0.0
C1963 C 0.90436 0.90095 0.4031 0.0
C1964 C 0.89778 0.90767 0.40308 0.0
C1965 C 0.91605 0.89172 0.41086 0.0
C1966 C 0.91598 0.88538 0.41776 0.0
C1967 C 0.92147 0.87766 0.41738 0.0
C1968 C 0.92716 0.8764 0.4099 0.0
C1969 C 0.92732 0.88269 0.40288 0.0
C1970 C 0.92186 0.89041 0.40357 0.0
C1971 C 0.93265 0.88101 0.39454 0.0
C1972 C 0.94119 0.87687 0.39475 0.0
C1973 C 0.92911 0.88354 0.38618 0.0
C1974 C 0.93401 0.88222 0.37833 0.0
C1975 C 0.94256 0.87819 0.37853 0.0
C1976 C 0.92054 0.8706 0.42439 0.0
C1977 C 0.91891 0.87301 0.43337 0.0
C1978 C 0.92047 0.8614 0.42205 0.0
C1979 C 0.91838 0.85485 0.42841 0.0
C1980 C 0.91623 0.85733 0.43724 0.0
C1981 C 0.91673 0.86647 0.4397 0.0
C1982 C 0.94608 0.87543 0.38682 0.0
H1983 H 0.9006 0.9154 0.42445 0.0
H1984 H 0.91178 0.90337 0.42456 0.0
H1985 H 0.90526 0.8969 0.39711 0.0
H1986 H 0.89379 0.90847 0.39707 0.0
H1987 H 0.91121 0.88622 0.42319 0.0
H1988 H 0.92202 0.89542 0.39835 0.0
H1989 H 0.93125 0.87039 0.40943 0.0
H1990 H 0.94418 0.87487 0.40104 0.0
H1991 H 0.92245 0.88646 0.38565 0.0
H1992 H 0.93102 0.88424 0.37204 0.0
H1993 H 0.9191 0.88 0.43549 0.0
H1994 H 0.92157 0.85926 0.4152 0.0
H1995 H 0.95267 0.87232 0.38718 0.0
H1996 H 0.91527 0.86859 0.4465 0.0
H1997 H 0.91799 0.84788 0.42628 0.0
C1998 C 0.40146 0.59964 0.58784 0.0
C1999 C 0.39727 0.59703 0.59585 0.0
C2000 C 0.40827 0.60619 0.5879 0.0
C2001 C 0.41101 0.61032 0.59597 0.0
C2002 C 0.4069 0.60758 0.60398 0.0
C2003 C 0.40016 0.60101 0.60392 0.0
C2004 C 0.41767 0.61786 0.59608 0.0
C2005 C 0.4173 0.62463 0.58959 0.0
C2006 C 0.42271 0.6324 0.59029 0.0
C2007 C 0.42848 0.6334 0.59776 0.0
C2008 C 0.42893 0.62671 0.6044 0.0
C2009 C 0.42377 0.61882 0.60323 0.0
C2010 C 0.43398 0.62825 0.61298 0.0
C2011 C 0.44204 0.63328 0.61336 0.0
C2012 C 0.43045 0.62492 0.62105 0.0
C2013 C 0.43477 0.62657 0.62919 0.0
C2014 C 0.44264 0.63183 0.62965 0.0
C2015 C 0.42153 0.63979 0.58366 0.0
C2016 C 0.41989 0.63779 0.57457 0.0
C2017 C 0.42129 0.64885 0.58646 0.0
C2018 C 0.41901 0.65566 0.58044 0.0
C2019 C 0.41684 0.6536 0.57148 0.0
C2020 C 0.41754 0.64459 0.56858 0.0
C2021 C 0.44632 0.63507 0.6216 0.0
H2022 H 0.39945 0.59662 0.58152 0.0
H2023 H 0.41134 0.60807 0.58162 0.0
H2024 H 0.40867 0.61073 0.6103 0.0
H2025 H 0.39698 0.59927 0.61019 0.0
H2026 H 0.41236 0.62409 0.58426 0.0
H2027 H 0.42427 0.61346 0.60807 0.0
H2028 H 0.43238 0.63952 0.59856 0.0
H2029 H 0.44505 0.63588 0.60732 0.0
H2030 H 0.42418 0.6212 0.62117 0.0
H2031 H 0.43183 0.62374 0.63516 0.0
H2032 H 0.42017 0.63092 0.57213 0.0
H2033 H 0.42245 0.65068 0.59339 0.0
H2034 H 0.45237 0.63916 0.62167 0.0
H2035 H 0.4159 0.64271 0.56175 0.0
H2036 H 0.41873 0.66253 0.58289 0.0
C2037 C 0.61236 0.10275 0.90557 0.0
C2038 C 0.61402 0.09773 0.91337 0.0
C2039 C 0.60561 0.10928 0.90535 0.0
C2040 C 0.6004 0.11113 0.91296 0.0
C2041 C 0.60195 0.10614 0.92077 0.0
C2042 C 0.60862 0.09946 0.92095 0.0
C2043 C 0.59379 0.11865 0.91283 0.0
C2044 C 0.58802 0.11978 0.90547 0.0
C2045 C 0.58262 0.12751 0.90464 0.0
C2046 C 0.5828 0.13401 0.91157 0.0
C2047 C 0.58854 0.133 0.91906 0.0
C2048 C 0.59395 0.12524 0.91959 0.0
C2049 C 0.58964 0.14035 0.9259 0.0
C2050 C 0.58936 0.14946 0.9234 0.0
C2051 C 0.59176 0.13833 0.93485 0.0
C2052 C 0.59409 0.14515 0.94095 0.0
C2053 C 0.59421 0.15423 0.93834 0.0
C2054 C 0.57742 0.12906 0.89619 0.0
C2055 C 0.58117 0.12656 0.8879 0.0
C2056 C 0.56884 0.13313 0.89623 0.0
C2057 C 0.56414 0.13456 0.88818 0.0
C2058 C 0.56789 0.13192 0.87993 0.0
C2059 C 0.57649 0.12795 0.87992 0.0
C2060 C 0.59154 0.15629 0.92954 0.0
H2061 H 0.61646 0.10188 0.89965 0.0
H2062 H 0.6047 0.11312 0.89929 0.0
H2063 H 0.598 0.1074 0.92673 0.0
H2064 H 0.60952 0.09568 0.92704 0.0
H2065 H 0.58788 0.11464 0.90028 0.0
H2066 H 0.59877 0.12456 0.925 0.0
H2067 H 0.57871 0.14 0.91097 0.0
H2068 H 0.58784 0.15135 0.91658 0.0
H2069 H 0.59185 0.13143 0.93713 0.0
H2070 H 0.59613 0.14322 0.94762 0.0
H2071 H 0.58786 0.12367 0.88752 0.0
H2072 H 0.5657 0.1351 0.90248 0.0
H2073 H 0.5913 0.1632 0.9273 0.0
H2074 H 0.57971 0.12604 0.87369 0.0
H2075 H 0.55752 0.13761 0.88844 0.0
C2076 C 0.10961 0.6 0.42103 0.0
C2077 C 0.11492 0.59831 0.41338 0.0
C2078 C 0.10317 0.6069 0.42108 0.0
C2079 C 0.10175 0.61214 0.41342 0.0
C2080 C 0.10694 0.61041 0.40577 0.0
C2081 C 0.11348 0.60366 0.40577 0.0
C2082 C 0.09514 0.61966 0.41342 0.0
C2083 C 0.09525 0.62616 0.42027 0.0
C2084 C 0.08977 0.63388 0.41981 0.0
C2085 C 0.08401 0.63492 0.41235 0.0
C2086 C 0.08387 0.62849 0.40536 0.0
C2087 C 0.08933 0.6208 0.4061 0.0
C2088 C 0.07867 0.63008 0.39693 0.0
C2089 C 0.07005 0.63405 0.39699 0.0
C2090 C 0.08248 0.62771 0.38862 0.0
C2091 C 0.07778 0.62907 0.38066 0.0
C2092 C 0.06914 0.63294 0.38069 0.0
C2093 C 0.09086 0.64122 0.42665 0.0
C2094 C 0.09288 0.63922 0.43563 0.0
C2095 C 0.09064 0.65031 0.4241 0.0
C2096 C 0.09279 0.65716 0.43023 0.0
C2097 C 0.09537 0.65512 0.43906 0.0
C2098 C 0.09517 0.64606 0.44173 0.0
C2099 C 0.06535 0.6355 0.38895 0.0
H2100 H 0.11035 0.59598 0.42699 0.0
H2101 H 0.09923 0.60808 0.42707 0.0
H2102 H 0.10613 0.61446 0.39983 0.0
H2103 H 0.11755 0.60284 0.39982 0.0
H2104 H 0.10007 0.62545 0.42568 0.0
H2105 H 0.08921 0.61572 0.40086 0.0
H2106 H 0.07987 0.64089 0.41181 0.0
H2107 H 0.06689 0.63594 0.40325 0.0
H2108 H 0.0892 0.6249 0.38823 0.0
H2109 H 0.08101 0.62723 0.37442 0.0
H2110 H 0.09294 0.63232 0.43791 0.0
H2111 H 0.0892 0.65218 0.41727 0.0
H2112 H 0.0587 0.63848 0.38921 0.0
H2113 H 0.09712 0.64417 0.44844 0.0
H2114 H 0.0926 0.66405 0.42795 0.0
C2115 C 0.61177 0.90866 0.60555 0.0
C2116 C 0.61441 0.91249 0.59739 0.0
C2117 C 0.6053 0.90181 0.60574 0.0
C2118 C 0.60122 0.89866 0.59779 0.0
C2119 C 0.60371 0.90267 0.58965 0.0
C2120 C 0.61027 0.90946 0.58945 0.0
C2121 C 0.59473 0.89095 0.59799 0.0
C2122 C 0.58875 0.88991 0.60519 0.0
C2123 C 0.58331 0.88218 0.60598 0.0
C2124 C 0.58351 0.87566 0.59907 0.0
C2125 C 0.58932 0.87663 0.59167 0.0
C2126 C 0.59493 0.88428 0.59128 0.0
C2127 C 0.59016 0.86939 0.5847 0.0
C2128 C 0.58971 0.86024 0.58703 0.0
C2129 C 0.59209 0.87156 0.57574 0.0
C2130 C 0.59404 0.86482 0.56945 0.0
C2131 C 0.59404 0.8557 0.57191 0.0
C2132 C 0.57797 0.88069 0.61434 0.0
C2133 C 0.58154 0.88337 0.62268 0.0
C2134 C 0.56945 0.87646 0.61417 0.0
C2135 C 0.56466 0.87501 0.62213 0.0
C2136 C 0.56823 0.87783 0.63042 0.0
C2137 C 0.57673 0.88201 0.63057 0.0
C2138 C 0.59159 0.8535 0.58072 0.0
H2139 H 0.61493 0.91076 0.61176 0.0
H2140 H 0.60372 0.89879 0.61212 0.0
H2141 H 0.60062 0.90054 0.58342 0.0
H2142 H 0.61209 0.91235 0.58308 0.0
H2143 H 0.5884 0.89513 0.61028 0.0
H2144 H 0.59983 0.88482 0.58596 0.0
H2145 H 0.57933 0.86971 0.59959 0.0
H2146 H 0.58831 0.85826 0.59384 0.0
H2147 H 0.59231 0.87851 0.57361 0.0
H2148 H 0.59592 0.86679 0.56275 0.0
H2149 H 0.58817 0.8864 0.62317 0.0
H2150 H 0.56644 0.87435 0.60788 0.0
H2151 H 0.59132 0.84654 0.58281 0.0
H2152 H 0.57979 0.88409 0.63685 0.0
H2153 H 0.5581 0.8718 0.62178 0.0
C2154 C 0.39925 0.40893 0.90403 0.0
C2155 C 0.39723 0.41392 0.91183 0.0
C2156 C 0.40618 0.40259 0.90395 0.0
C2157 C 0.41124 0.4009 0.91171 0.0
C2158 C 0.40931 0.40585 0.91952 0.0
C2159 C 0.40244 0.41234 0.91957 0.0
C2160 C 0.418 0.3935 0.91166 0.0
C2161 C 0.42383 0.39236 0.90434 0.0
C2162 C 0.42907 0.38452 0.90331 0.0
C2163 C 0.42868 0.37794 0.91006 0.0
C2164 C 0.4231 0.37911 0.9176 0.0
C2165 C 0.41785 0.38695 0.91836 0.0
C2166 C 0.4218 0.37173 0.92417 0.0
C2167 C 0.42021 0.36288 0.92118 0.0
C2168 C 0.42124 0.37363 0.9334 0.0
C2169 C 0.41883 0.36688 0.93945 0.0
C2170 C 0.41681 0.35817 0.93635 0.0
C2171 C 0.43422 0.38289 0.89483 0.0
C2172 C 0.43076 0.38596 0.88662 0.0
C2173 C 0.4424 0.37807 0.89471 0.0
C2174 C 0.44688 0.37626 0.88661 0.0
C2175 C 0.44329 0.37924 0.87842 0.0
C2176 C 0.43526 0.38426 0.8786 0.0
C2177 C 0.41766 0.35618 0.9272 0.0
H2178 H 0.3953 0.40968 0.89799 0.0
H2179 H 0.40735 0.39876 0.89787 0.0
H2180 H 0.41311 0.40469 0.9256 0.0
H2181 H 0.40125 0.4161 0.92568 0.0
H2182 H 0.42406 0.39756 0.89931 0.0
H2183 H 0.41314 0.38764 0.92385 0.0
H2184 H 0.43245 0.37174 0.9093 0.0
H2185 H 0.42048 0.36121 0.91411 0.0
H2186 H 0.42246 0.38038 0.93592 0.0
H2187 H 0.41816 0.36856 0.94648 0.0
H2188 H 0.42442 0.38953 0.8863 0.0
H2189 H 0.44536 0.37567 0.90088 0.0
H2190 H 0.41613 0.34949 0.92468 0.0
H2191 H 0.43236 0.38688 0.8725 0.0
H2192 H 0.45303 0.37235 0.88676 0.0
C2193 C 0.90105 0.1009 0.08851 0.0
C2194 C 0.8972 0.09803 0.09656 0.0
C2195 C 0.90793 0.10738 0.08856 0.0
C2196 C 0.91096 0.11126 0.09667 0.0
C2197 C 0.90715 0.1082 0.10473 0.0
C2198 C 0.90042 0.1016 0.10467 0.0
C2199 C 0.9176 0.11885 0.09674 0.0
C2200 C 0.91736 0.12545 0.09006 0.0
C2201 C 0.92287 0.13317 0.09057 0.0
C2202 C 0.92866 0.13429 0.09799 0.0
C2203 C 0.92899 0.12778 0.10479 0.0
C2204 C 0.92366 0.11998 0.10391 0.0
C2205 C 0.93421 0.12938 0.11323 0.0
C2206 C 0.94285 0.13335 0.11323 0.0
C2207 C 0.93041 0.12697 0.12148 0.0
C2208 C 0.93512 0.12828 0.12947 0.0
C2209 C 0.94379 0.13211 0.1295 0.0
C2210 C 0.92175 0.14039 0.08377 0.0
C2211 C 0.92055 0.13821 0.07465 0.0
C2212 C 0.92095 0.14946 0.08646 0.0
C2213 C 0.91851 0.15607 0.08029 0.0
C2214 C 0.91694 0.15378 0.0713 0.0
C2215 C 0.91819 0.14484 0.06847 0.0
C2216 C 0.94758 0.13472 0.12129 0.0
H2217 H 0.8987 0.09818 0.08218 0.0
H2218 H 0.9108 0.10941 0.08224 0.0
H2219 H 0.9091 0.11112 0.1111 0.0
H2220 H 0.89747 0.09953 0.11096 0.0
H2221 H 0.91246 0.12488 0.0847 0.0
H2222 H 0.92409 0.11481 0.10897 0.0
H2223 H 0.93267 0.14037 0.09862 0.0
H2224 H 0.94599 0.13528 0.10699 0.0
H2225 H 0.92367 0.12416 0.12182 0.0
H2226 H 0.93188 0.12642 0.13567 0.0
H2227 H 0.92118 0.13131 0.07234 0.0
H2228 H 0.92174 0.15138 0.09343 0.0
H2229 H 0.95426 0.13767 0.12108 0.0
H2230 H 0.91696 0.14294 0.06156 0.0
H2231 H 0.91755 0.16293 0.0826 0.0
C2232 C 0.10715 0.10881 0.405 0.0
C2233 C 0.09881 0.11137 0.40863 0.0
C2234 C 0.1076 0.10236 0.39816 0.0
C2235 C 0.09972 0.09824 0.3948 0.0
C2236 C 0.09139 0.10063 0.39862 0.0
C2237 C 0.09093 0.10715 0.40543 0.0
C2238 C 0.1002 0.09186 0.38703 0.0
C2239 C 0.10756 0.08601 0.38603 0.0
C2240 C 0.10871 0.0808 0.37822 0.0
C2241 C 0.10201 0.08108 0.37152 0.0
C2242 C 0.09443 0.08672 0.37247 0.0
C2243 C 0.09366 0.09211 0.38023 0.0
C2244 C 0.08764 0.08766 0.36515 0.0
C2245 C 0.09034 0.08811 0.35614 0.0
C2246 C 0.07847 0.08892 0.36719 0.0
C2247 C 0.07228 0.09115 0.3605 0.0
C2248 C 0.07508 0.09209 0.35157 0.0
C2249 C 0.11725 0.07566 0.37687 0.0
C2250 C 0.12549 0.07947 0.37967 0.0
C2251 C 0.11737 0.0671 0.37276 0.0
C2252 C 0.12552 0.06242 0.37163 0.0
C2253 C 0.13371 0.06621 0.37463 0.0
C2254 C 0.13357 0.07481 0.37859 0.0
C2255 C 0.08412 0.09027 0.34942 0.0
H2256 H 0.11333 0.11202 0.40723 0.0
H2257 H 0.11413 0.10086 0.39529 0.0
H2258 H 0.08519 0.0975 0.39633 0.0
H2259 H 0.08441 0.1089 0.40817 0.0
H2260 H 0.11253 0.08562 0.39134 0.0
H2261 H 0.08817 0.09688 0.38075 0.0
H2262 H 0.10283 0.07712 0.36546 0.0
H2263 H 0.09735 0.08725 0.35431 0.0
H2264 H 0.0761 0.08843 0.37401 0.0
H2265 H 0.06532 0.09234 0.36234 0.0
H2266 H 0.12574 0.08615 0.38261 0.0
H2267 H 0.11115 0.06395 0.37054 0.0
H2268 H 0.0865 0.09098 0.34262 0.0
H2269 H 0.13976 0.07805 0.38076 0.0
H2270 H 0.1254 0.0558 0.36856 0.0
C2271 C 0.10054 0.91913 0.61327 0.0
C2272 C 0.09899 0.91144 0.61852 0.0
C2273 C 0.10721 0.91911 0.60664 0.0
C2274 C 0.11239 0.91136 0.605 0.0
C2275 C 0.11074 0.90364 0.61009 0.0
C2276 C 0.1042 0.9037 0.6168 0.0
C2277 C 0.11981 0.91136 0.59832 0.0
C2278 C 0.12624 0.91829 0.59837 0.0
C2279 C 0.13387 0.91795 0.59275 0.0
C2280 C 0.13491 0.91041 0.58698 0.0
C2281 C 0.12861 0.90329 0.58702 0.0
C2282 C 0.12099 0.90397 0.59255 0.0
C2283 C 0.13037 0.89468 0.5821 0.0
C2284 C 0.13373 0.89453 0.57329 0.0
C2285 C 0.12882 0.88644 0.5864 0.0
C2286 C 0.13062 0.87828 0.58209 0.0
C2287 C 0.13407 0.87808 0.57335 0.0
C2288 C 0.14106 0.92504 0.59363 0.0
C2289 C 0.13885 0.93389 0.59629 0.0
C2290 C 0.15025 0.92291 0.59257 0.0
C2291 C 0.15698 0.92927 0.59451 0.0
C2292 C 0.15477 0.93791 0.5978 0.0
C2293 C 0.14557 0.94016 0.59846 0.0
C2294 C 0.1355 0.88629 0.56893 0.0
H2295 H 0.09659 0.92518 0.61423 0.0
H2296 H 0.10831 0.92515 0.60277 0.0
H2297 H 0.11473 0.89761 0.60911 0.0
H2298 H 0.10346 0.8977 0.62079 0.0
H2299 H 0.12554 0.92367 0.60323 0.0
H2300 H 0.11603 0.8986 0.59254 0.0
H2301 H 0.14077 0.9099 0.58272 0.0
H2302 H 0.13496 0.90075 0.56977 0.0
H2303 H 0.12636 0.88627 0.59321 0.0
H2304 H 0.12933 0.87209 0.58565 0.0
H2305 H 0.13189 0.93596 0.59694 0.0
H2306 H 0.15233 0.91621 0.59059 0.0
H2307 H 0.13816 0.88635 0.56219 0.0
H2308 H 0.14347 0.94666 0.601 0.0
H2309 H 0.16393 0.9273 0.5936 0.0
C2310 C 0.42073 0.90174 0.90529 0.0
C2311 C 0.41277 0.89704 0.90737 0.0
C2312 C 0.42068 0.90843 0.89872 0.0
C2313 C 0.41265 0.91063 0.89419 0.0
C2314 C 0.40467 0.90611 0.89652 0.0
C2315 C 0.40473 0.89942 0.90302 0.0
C2316 C 0.41256 0.9172 0.88671 0.0
C2317 C 0.41919 0.91688 0.88004 0.0
C2318 C 0.41853 0.92222 0.87231 0.0
C2319 C 0.41101 0.92798 0.87137 0.0
C2320 C 0.40423 0.92832 0.87796 0.0
C2321 C 0.40526 0.92311 0.88571 0.0
C2322 C 0.39567 0.93342 0.87654 0.0
C2323 C 0.39557 0.942 0.8726 0.0
C2324 C 0.3874 0.92958 0.87912 0.0
C2325 C 0.37931 0.93421 0.87798 0.0
C2326 C 0.37917 0.94284 0.8742 0.0
C2327 C 0.42524 0.92103 0.86493 0.0
C2328 C 0.43434 0.91912 0.86685 0.0
C2329 C 0.42249 0.92104 0.85591 0.0
C2330 C 0.42854 0.91878 0.84907 0.0
C2331 C 0.4375 0.91634 0.85104 0.0
C2332 C 0.44036 0.91676 0.86002 0.0
C2333 C 0.38741 0.94666 0.87145 0.0
H2334 H 0.42704 0.90003 0.90852 0.0
H2335 H 0.42694 0.91183 0.89711 0.0
H2336 H 0.39839 0.90753 0.89311 0.0
H2337 H 0.39847 0.89601 0.90455 0.0
H2338 H 0.42459 0.91201 0.88061 0.0
H2339 H 0.40021 0.92346 0.89092 0.0
H2340 H 0.41026 0.93196 0.86537 0.0
H2341 H 0.4018 0.94518 0.87055 0.0
H2342 H 0.38714 0.92289 0.88192 0.0
H2343 H 0.37312 0.9309 0.87994 0.0
H2344 H 0.43679 0.91921 0.87368 0.0
H2345 H 0.41556 0.92241 0.85411 0.0
H2346 H 0.38758 0.95331 0.86855 0.0
H2347 H 0.44717 0.9149 0.86186 0.0
H2348 H 0.42612 0.91877 0.84223 0.0
C2349 C 0.40675 0.11137 0.11143 0.0
C2350 C 0.41115 0.10328 0.11354 0.0
C2351 C 0.39997 0.11155 0.10492 0.0
C2352 C 0.39742 0.10365 0.10031 0.0
C2353 C 0.40193 0.09558 0.10229 0.0
C2354 C 0.40871 0.0954 0.10884 0.0
C2355 C 0.38973 0.1038 0.09384 0.0
C2356 C 0.38849 0.11117 0.08813 0.0
C2357 C 0.38068 0.11196 0.08282 0.0
C2358 C 0.37419 0.10503 0.08305 0.0
C2359 C 0.37538 0.0975 0.08861 0.0
C2360 C 0.3832 0.09694 0.09392 0.0
C2361 C 0.36807 0.0907 0.08968 0.0
C2362 C 0.35908 0.09348 0.09081 0.0
C2363 C 0.37011 0.08148 0.09044 0.0
C2364 C 0.36338 0.07525 0.09264 0.0
C2365 C 0.35452 0.07815 0.09418 0.0
C2366 C 0.37903 0.12035 0.07761 0.0
C2367 C 0.38137 0.12879 0.0813 0.0
C2368 C 0.37491 0.12008 0.0691 0.0
C2369 C 0.37317 0.12806 0.06444 0.0
C2370 C 0.3755 0.13643 0.06822 0.0
C2371 C 0.37964 0.13673 0.07665 0.0
C2372 C 0.35239 0.08727 0.09309 0.0
H2373 H 0.40836 0.11753 0.11502 0.0
H2374 H 0.39652 0.11784 0.10372 0.0
H2375 H 0.40021 0.0894 0.09879 0.0
H2376 H 0.41204 0.08908 0.11023 0.0
H2377 H 0.39359 0.11639 0.08792 0.0
H2378 H 0.38391 0.09142 0.09856 0.0
H2379 H 0.36807 0.10562 0.07914 0.0
H2380 H 0.35728 0.10052 0.09038 0.0
H2381 H 0.37696 0.07912 0.08955 0.0
H2382 H 0.36516 0.06824 0.09349 0.0
H2383 H 0.38438 0.12932 0.08789 0.0
H2384 H 0.37307 0.11371 0.06603 0.0
H2385 H 0.34558 0.08962 0.09429 0.0
H2386 H 0.38144 0.14313 0.07969 0.0
H2387 H 0.36995 0.12772 0.05793 0.0
C2388 C 0.10498 0.9011 0.10552 0.0
C2389 C 0.09693 0.89893 0.101 0.0
C2390 C 0.10516 0.90785 0.11207 0.0
C2391 C 0.09729 0.9126 0.11434 0.0
C2392 C 0.08925 0.91055 0.10977 0.0
C2393 C 0.08908 0.90383 0.10313 0.0
C2394 C 0.09753 0.91923 0.12184 0.0
C2395 C 0.10468 0.92536 0.12255 0.0
C2396 C 0.10634 0.93035 0.13049 0.0
C2397 C 0.09991 0.92961 0.13748 0.0
C2398 C 0.09223 0.92401 0.13657 0.0
C2399 C 0.09122 0.91877 0.12876 0.0
C2400 C 0.0855 0.92298 0.14393 0.0
C2401 C 0.08825 0.92205 0.15289 0.0
C2402 C 0.07627 0.92208 0.14189 0.0
C2403 C 0.07005 0.91973 0.1485 0.0
C2404 C 0.07287 0.91828 0.15736 0.0
C2405 C 0.115 0.93573 0.13156 0.0
C2406 C 0.12235 0.93428 0.12571 0.0
C2407 C 0.11629 0.94209 0.13854 0.0
C2408 C 0.12467 0.94639 0.13985 0.0
C2409 C 0.13197 0.94472 0.13405 0.0
C2410 C 0.13048 0.93887 0.12677 0.0
C2411 C 0.082 0.91975 0.15954 0.0
H2412 H 0.11111 0.89738 0.10422 0.0
H2413 H 0.11143 0.90915 0.11559 0.0
H2414 H 0.08309 0.91414 0.11134 0.0
H2415 H 0.08278 0.90244 0.0997 0.0
H2416 H 0.109 0.92597 0.11679 0.0
H2417 H 0.08576 0.91393 0.12825 0.0
H2418 H 0.10083 0.93322 0.14371 0.0
H2419 H 0.0953 0.92263 0.15471 0.0
H2420 H 0.07387 0.92294 0.1351 0.0
H2421 H 0.06304 0.91885 0.14663 0.0
H2422 H 0.12214 0.92941 0.12033 0.0
H2423 H 0.11094 0.94376 0.14314 0.0
H2424 H 0.08441 0.91866 0.16629 0.0
H2425 H 0.13567 0.93761 0.12184 0.0
H2426 H 0.12541 0.95084 0.14557 0.0
C2427 C 0.40723 0.9011 0.39719 0.0
C2428 C 0.41233 0.90891 0.39547 0.0
C2429 C 0.40089 0.90093 0.40408 0.0
C2430 C 0.39932 0.90861 0.40937 0.0
C2431 C 0.40439 0.91643 0.40775 0.0
C2432 C 0.41088 0.91656 0.40093 0.0
C2433 C 0.39198 0.90854 0.41613 0.0
C2434 C 0.39082 0.90111 0.42177 0.0
C2435 C 0.38324 0.90041 0.42737 0.0
C2436 C 0.37685 0.90742 0.42742 0.0
C2437 C 0.37788 0.91493 0.42179 0.0
C2438 C 0.38555 0.91545 0.41628 0.0
C2439 C 0.37058 0.92176 0.42082 0.0
C2440 C 0.36148 0.91905 0.42035 0.0
C2441 C 0.37268 0.93089 0.41941 0.0
C2442 C 0.36594 0.93704 0.41711 0.0
C2443 C 0.35696 0.9342 0.41627 0.0
C2444 C 0.38163 0.89196 0.43245 0.0
C2445 C 0.38296 0.88357 0.42823 0.0
C2446 C 0.37857 0.89211 0.44137 0.0
C2447 C 0.37689 0.88404 0.44593 0.0
C2448 C 0.37807 0.87569 0.44159 0.0
C2449 C 0.38118 0.87557 0.43272 0.0
C2450 C 0.35474 0.92522 0.41809 0.0
H2451 H 0.40789 0.89513 0.39305 0.0
H2452 H 0.39697 0.89486 0.40504 0.0
H2453 H 0.40334 0.92244 0.41175 0.0
H2454 H 0.41474 0.92266 0.39998 0.0
H2455 H 0.39577 0.89575 0.42167 0.0
H2456 H 0.38621 0.92095 0.4116 0.0
H2457 H 0.3709 0.90684 0.43156 0.0
H2458 H 0.3596 0.91207 0.42127 0.0
H2459 H 0.37959 0.93323 0.41981 0.0
H2460 H 0.36777 0.94395 0.41571 0.0
H2461 H 0.3852 0.88319 0.42135 0.0
H2462 H 0.37751 0.89846 0.44482 0.0
H2463 H 0.34784 0.9229 0.41741 0.0
H2464 H 0.38219 0.86923 0.42923 0.0
H2465 H 0.37447 0.88432 0.45276 0.0
C2466 C 0.42029 0.10889 0.60322 0.0
C2467 C 0.4124 0.11373 0.60125 0.0
C2468 C 0.42024 0.10226 0.60987 0.0
C2469 C 0.41227 0.10028 0.61457 0.0
C2470 C 0.40434 0.10491 0.61232 0.0
C2471 C 0.4044 0.11154 0.60577 0.0
C2472 C 0.41223 0.09386 0.62219 0.0
C2473 C 0.41902 0.09424 0.62873 0.0
C2474 C 0.41846 0.08909 0.63658 0.0
C2475 C 0.41084 0.0835 0.63783 0.0
C2476 C 0.40391 0.08305 0.63134 0.0
C2477 C 0.40488 0.08806 0.62344 0.0
C2478 C 0.39533 0.07795 0.63296 0.0
C2479 C 0.3952 0.06972 0.63758 0.0
C2480 C 0.38706 0.08142 0.62985 0.0
C2481 C 0.379 0.07673 0.63108 0.0
C2482 C 0.37888 0.0685 0.63561 0.0
C2483 C 0.42547 0.09029 0.64373 0.0
C2484 C 0.43455 0.09186 0.64144 0.0
C2485 C 0.42307 0.09067 0.65283 0.0
C2486 C 0.42944 0.09304 0.65939 0.0
C2487 C 0.43837 0.09515 0.65701 0.0
C2488 C 0.44089 0.09431 0.64798 0.0
C2489 C 0.38705 0.06507 0.63894 0.0
H2490 H 0.42656 0.11044 0.59986 0.0
H2491 H 0.42645 0.09877 0.6114 0.0
H2492 H 0.3981 0.10365 0.61587 0.0
H2493 H 0.39819 0.11507 0.60432 0.0
H2494 H 0.42449 0.099 0.62793 0.0
H2495 H 0.39976 0.08761 0.61827 0.0
H2496 H 0.41018 0.07972 0.64396 0.0
H2497 H 0.4014 0.06678 0.64004 0.0
H2498 H 0.38676 0.08787 0.62654 0.0
H2499 H 0.3728 0.07966 0.6286 0.0
H2500 H 0.43673 0.0914 0.63455 0.0
H2501 H 0.41615 0.0896 0.65488 0.0
H2502 H 0.38715 0.05872 0.64246 0.0
H2503 H 0.44775 0.0957 0.64593 0.0
H2504 H 0.42726 0.09365 0.66628 0.0
C2505 C 0.10095 0.09154 0.89776 0.0
C2506 C 0.09946 0.09913 0.89235 0.0
C2507 C 0.10763 0.09167 0.9044 0.0
C2508 C 0.11287 0.09943 0.90591 0.0
C2509 C 0.11127 0.10705 0.90067 0.0
C2510 C 0.10473 0.10689 0.89394 0.0
C2511 C 0.1203 0.09951 0.91261 0.0
C2512 C 0.12664 0.09253 0.91272 0.0
C2513 C 0.1342 0.09283 0.91848 0.0
C2514 C 0.13521 0.10035 0.92427 0.0
C2515 C 0.12902 0.10753 0.92406 0.0
C2516 C 0.12152 0.10695 0.91832 0.0
C2517 C 0.13077 0.11606 0.92908 0.0
C2518 C 0.13327 0.11609 0.93817 0.0
C2519 C 0.13003 0.12433 0.92463 0.0
C2520 C 0.13182 0.13242 0.92909 0.0
C2521 C 0.13429 0.13248 0.93815 0.0
C2522 C 0.14135 0.08572 0.91771 0.0
C2523 C 0.13912 0.07689 0.91497 0.0
C2524 C 0.15053 0.08783 0.91896 0.0
C2525 C 0.15725 0.08147 0.91711 0.0
C2526 C 0.15503 0.07287 0.91371 0.0
C2527 C 0.14584 0.07063 0.91287 0.0
C2528 C 0.13491 0.12426 0.94271 0.0
H2529 H 0.09696 0.08549 0.8969 0.0
H2530 H 0.10869 0.0857 0.90839 0.0
H2531 H 0.11531 0.11308 0.90156 0.0
H2532 H 0.10402 0.11281 0.88983 0.0
H2533 H 0.12593 0.08712 0.90788 0.0
H2534 H 0.11669 0.11241 0.91817 0.0
H2535 H 0.14098 0.10082 0.92869 0.0
H2536 H 0.13387 0.10983 0.94178 0.0
H2537 H 0.12823 0.12454 0.9176 0.0
H2538 H 0.13126 0.13868 0.92545 0.0
H2539 H 0.13216 0.07483 0.91418 0.0
H2540 H 0.15262 0.09451 0.92103 0.0
H2541 H 0.13683 0.12416 0.9497 0.0
H2542 H 0.14374 0.06415 0.91024 0.0
H2543 H 0.1642 0.08343 0.91816 0.0
C2544 C 0.90765 0.40166 0.89772 0.0
C2545 C 0.91276 0.40949 0.89612 0.0
C2546 C 0.90128 0.40141 0.90458 0.0
C2547 C 0.89969 0.40902 0.90995 0.0
C2548 C 0.90477 0.41686 0.90845 0.0
C2549 C 0.91129 0.41707 0.90169 0.0
C2550 C 0.89226 0.40888 0.9166 0.0
C2551 C 0.89119 0.4015 0.92231 0.0
C2552 C 0.88342 0.40056 0.92765 0.0
C2553 C 0.87684 0.40741 0.92739 0.0
C2554 C 0.87789 0.41496 0.92183 0.0
C2555 C 0.88567 0.41563 0.91652 0.0
C2556 C 0.87051 0.42169 0.92075 0.0
C2557 C 0.86146 0.41889 0.92027 0.0
C2558 C 0.87249 0.43085 0.91937 0.0
C2559 C 0.86568 0.43692 0.91707 0.0
C2560 C 0.85668 0.43402 0.91615 0.0
C2561 C 0.88195 0.39215 0.93297 0.0
C2562 C 0.88523 0.3838 0.92982 0.0
C2563 C 0.87708 0.39228 0.94107 0.0
C2564 C 0.87543 0.3843 0.94575 0.0
C2565 C 0.87879 0.37606 0.94256 0.0
C2566 C 0.88376 0.3759 0.93461 0.0
C2567 C 0.85464 0.42497 0.91807 0.0
H2568 H 0.90831 0.39575 0.89351 0.0
H2569 H 0.89735 0.39533 0.90545 0.0
H2570 H 0.90368 0.42283 0.91252 0.0
H2571 H 0.91516 0.42318 0.90084 0.0
H2572 H 0.89641 0.39642 0.92245 0.0
H2573 H 0.88634 0.42112 0.91183 0.0
H2574 H 0.87074 0.40674 0.9313 0.0
H2575 H 0.85965 0.4119 0.92122 0.0
H2576 H 0.87936 0.43328 0.91983 0.0
H2577 H 0.86756 0.4438 0.91564 0.0
H2578 H 0.88877 0.38327 0.92352 0.0
H2579 H 0.87455 0.39854 0.94382 0.0
H2580 H 0.84778 0.42251 0.91768 0.0
H2581 H 0.88631 0.36958 0.93196 0.0
H2582 H 0.87156 0.38456 0.95189 0.0
C2583 C 0.92041 0.60958 0.10405 0.0
C2584 C 0.9124 0.61398 0.10158 0.0
C2585 C 0.92032 0.60291 0.11063 0.0
C2586 C 0.91221 0.60047 0.11487 0.0
C2587 C 0.90418 0.60468 0.11216 0.0
C2588 C 0.90427 0.6113 0.10559 0.0
C2589 C 0.91209 0.59401 0.12248 0.0
C2590 C 0.91882 0.59435 0.12909 0.0
C2591 C 0.91826 0.58906 0.13685 0.0
C2592 C 0.91064 0.58346 0.13801 0.0
C2593 C 0.90375 0.58305 0.13147 0.0
C2594 C 0.90477 0.58812 0.12361 0.0
C2595 C 0.89518 0.57789 0.13298 0.0
C2596 C 0.89504 0.56974 0.13774 0.0
C2597 C 0.88693 0.58123 0.12967 0.0
C2598 C 0.87889 0.57651 0.13087 0.0
C2599 C 0.87876 0.56839 0.13559 0.0
C2600 C 0.92533 0.59007 0.14396 0.0
C2601 C 0.9344 0.59155 0.1416 0.0
C2602 C 0.92301 0.59037 0.15308 0.0
C2603 C 0.92948 0.5926 0.1596 0.0
C2604 C 0.93839 0.59466 0.15715 0.0
C2605 C 0.94082 0.59388 0.1481 0.0
C2606 C 0.8869 0.56508 0.1391 0.0
H2607 H 0.92679 0.61149 0.1011 0.0
H2608 H 0.92661 0.59974 0.11248 0.0
H2609 H 0.89782 0.6031 0.11533 0.0
H2610 H 0.89795 0.61442 0.10375 0.0
H2611 H 0.92428 0.59914 0.12842 0.0
H2612 H 0.89975 0.58762 0.11836 0.0
H2613 H 0.90997 0.57962 0.14409 0.0
H2614 H 0.90121 0.56688 0.14034 0.0
H2615 H 0.88661 0.58762 0.12625 0.0
H2616 H 0.8727 0.57931 0.12823 0.0
H2617 H 0.93652 0.59115 0.13468 0.0
H2618 H 0.91611 0.58934 0.15518 0.0
H2619 H 0.88698 0.55882 0.14276 0.0
H2620 H 0.94767 0.59524 0.146 0.0
H2621 H 0.92738 0.59316 0.16652 0.0
C2622 C 0.60091 0.59159 0.3979 0.0
C2623 C 0.59946 0.59918 0.39248 0.0
C2624 C 0.60758 0.59169 0.40457 0.0
C2625 C 0.61285 0.59942 0.40608 0.0
C2626 C 0.61131 0.60704 0.4008 0.0
C2627 C 0.60479 0.6069 0.39406 0.0
C2628 C 0.62028 0.59951 0.41279 0.0
C2629 C 0.6266 0.5925 0.41296 0.0
C2630 C 0.63432 0.59303 0.41845 0.0
C2631 C 0.63553 0.60067 0.424 0.0
C2632 C 0.62925 0.60777 0.4239 0.0
C2633 C 0.62161 0.60705 0.41835 0.0
C2634 C 0.63104 0.61634 0.42883 0.0
C2635 C 0.6338 0.61645 0.43784 0.0
C2636 C 0.63005 0.62458 0.42437 0.0
C2637 C 0.63188 0.63271 0.42875 0.0
C2638 C 0.63465 0.63285 0.43773 0.0
C2639 C 0.64148 0.58602 0.41757 0.0
C2640 C 0.63916 0.57691 0.41631 0.0
C2641 C 0.65063 0.58848 0.41708 0.0
C2642 C 0.65722 0.58208 0.41493 0.0
C2643 C 0.65482 0.57306 0.41319 0.0
C2644 C 0.64573 0.57052 0.41413 0.0
C2645 C 0.6355 0.62465 0.4423 0.0
H2646 H 0.59688 0.58555 0.39704 0.0
H2647 H 0.60859 0.58572 0.40857 0.0
H2648 H 0.61538 0.61305 0.40167 0.0
H2649 H 0.60414 0.61281 0.38993 0.0
H2650 H 0.62579 0.58689 0.40834 0.0
H2651 H 0.61675 0.6125 0.41823 0.0
H2652 H 0.64152 0.60126 0.42812 0.0
H2653 H 0.63458 0.6102 0.44145 0.0
H2654 H 0.62802 0.62475 0.41741 0.0
H2655 H 0.6311 0.63894 0.4251 0.0
H2656 H 0.6322 0.57474 0.4168 0.0
H2657 H 0.65267 0.59544 0.4179 0.0
H2658 H 0.63765 0.62458 0.44923 0.0
H2659 H 0.64367 0.5636 0.41303 0.0
H2660 H 0.66414 0.58429 0.41421 0.0
C2661 C 0.92121 0.40172 0.40463 0.0
C2662 C 0.91323 0.39795 0.408 0.0
C2663 C 0.9209 0.4082 0.3979 0.0
C2664 C 0.91259 0.41095 0.39425 0.0
C2665 C 0.9046 0.40728 0.39779 0.0
C2666 C 0.90492 0.40092 0.40463 0.0
C2667 C 0.91223 0.41717 0.38643 0.0
C2668 C 0.91876 0.41663 0.37967 0.0
C2669 C 0.91817 0.4219 0.37191 0.0
C2670 C 0.91063 0.42759 0.37082 0.0
C2671 C 0.9039 0.42817 0.37747 0.0
C2672 C 0.90502 0.42318 0.38538 0.0
C2673 C 0.89542 0.43349 0.37608 0.0
C2674 C 0.89534 0.44156 0.37117 0.0
C2675 C 0.88719 0.4304 0.37966 0.0
C2676 C 0.87923 0.43528 0.37856 0.0
C2677 C 0.87917 0.44328 0.37366 0.0
C2678 C 0.92518 0.42083 0.36479 0.0
C2679 C 0.93425 0.41929 0.36715 0.0
C2680 C 0.92281 0.42052 0.35566 0.0
C2681 C 0.92922 0.41821 0.34916 0.0
C2682 C 0.93812 0.41607 0.35163 0.0
C2683 C 0.94061 0.41687 0.36067 0.0
C2684 C 0.88728 0.44635 0.3699 0.0
H2685 H 0.92771 0.3996 0.40718 0.0
H2686 H 0.92718 0.41099 0.3955 0.0
H2687 H 0.89807 0.40905 0.39507 0.0
H2688 H 0.89867 0.39805 0.40702 0.0
H2689 H 0.92412 0.41173 0.38024 0.0
H2690 H 0.90017 0.4239 0.39074 0.0
H2691 H 0.90993 0.4314 0.36471 0.0
H2692 H 0.9015 0.44424 0.36837 0.0
H2693 H 0.88681 0.42409 0.38321 0.0
H2694 H 0.87305 0.43268 0.3814 0.0
H2695 H 0.93641 0.41971 0.37407 0.0
H2696 H 0.91591 0.42161 0.35357 0.0
H2697 H 0.8874 0.45252 0.36609 0.0
H2698 H 0.94745 0.41545 0.36277 0.0
H2699 H 0.92709 0.41764 0.34224 0.0
C2700 C 0.60783 0.60921 0.90459 0.0
C2701 C 0.5996 0.61202 0.90833 0.0
C2702 C 0.60806 0.60252 0.898 0.0
C2703 C 0.60008 0.59836 0.89498 0.0
C2704 C 0.59186 0.60092 0.89895 0.0
C2705 C 0.59163 0.60766 0.90557 0.0
C2706 C 0.60038 0.5919 0.88728 0.0
C2707 C 0.60767 0.58594 0.8863 0.0
C2708 C 0.60895 0.58095 0.87834 0.0
C2709 C 0.60238 0.58156 0.87153 0.0
C2710 C 0.59479 0.58714 0.87257 0.0
C2711 C 0.59389 0.59231 0.88045 0.0
C2712 C 0.58811 0.58823 0.8652 0.0
C2713 C 0.59098 0.58937 0.85632 0.0
C2714 C 0.57885 0.58879 0.8671 0.0
C2715 C 0.57265 0.59086 0.86037 0.0
C2716 C 0.57555 0.59248 0.85156 0.0
C2717 C 0.61744 0.57566 0.87698 0.0
C2718 C 0.6256 0.57867 0.88084 0.0
C2719 C 0.6176 0.56776 0.87168 0.0
C2720 C 0.6257 0.56309 0.87024 0.0
C2721 C 0.63374 0.5661 0.87424 0.0
C2722 C 0.63359 0.57389 0.87958 0.0
C2723 C 0.58477 0.59148 0.84958 0.0
H2724 H 0.61413 0.6123 0.90667 0.0
H2725 H 0.61451 0.60084 0.89504 0.0
H2726 H 0.58559 0.5978 0.89685 0.0
H2727 H 0.58517 0.60967 0.90829 0.0
H2728 H 0.61246 0.58535 0.89173 0.0
H2729 H 0.58838 0.59706 0.88101 0.0
H2730 H 0.60326 0.57788 0.86532 0.0
H2731 H 0.59807 0.58907 0.85464 0.0
H2732 H 0.57641 0.58778 0.87384 0.0
H2733 H 0.56558 0.59135 0.86211 0.0
H2734 H 0.62592 0.58485 0.88471 0.0
H2735 H 0.61148 0.56512 0.86868 0.0
H2736 H 0.58728 0.59275 0.84291 0.0
H2737 H 0.63975 0.57641 0.88263 0.0
H2738 H 0.62566 0.55707 0.8661 0.0
C2739 C 0.85887 0.64432 0.84902 0.0
C2740 C 0.84997 0.6464 0.85139 0.0
C2741 C 0.86539 0.65105 0.84859 0.0
C2742 C 0.86321 0.66005 0.85056 0.0
C2743 C 0.85428 0.66219 0.85289 0.0
C2744 C 0.84767 0.65541 0.85321 0.0
C2745 C 0.87045 0.66698 0.85034 0.0
C2746 C 0.87669 0.6668 0.84332 0.0
C2747 C 0.88472 0.6718 0.84374 0.0
C2748 C 0.88609 0.67772 0.85103 0.0
C2749 C 0.87972 0.67831 0.85804 0.0
C2750 C 0.87191 0.67287 0.85759 0.0
C2751 C 0.8816 0.68383 0.86626 0.0
C2752 C 0.89038 0.68438 0.86982 0.0
C2753 C 0.87457 0.68813 0.87095 0.0
C2754 C 0.87621 0.69251 0.87913 0.0
C2755 C 0.88495 0.69277 0.88284 0.0
C2756 C 0.89195 0.66996 0.83703 0.0
C2757 C 0.89337 0.66108 0.83401 0.0
C2758 C 0.89749 0.67683 0.83363 0.0
C2759 C 0.90414 0.67485 0.82722 0.0
C2760 C 0.90532 0.66597 0.82406 0.0
C2761 C 0.89989 0.65913 0.8276 0.0
C2762 C 0.89203 0.68882 0.87795 0.0
H2763 H 0.86079 0.63743 0.84755 0.0
H2764 H 0.87223 0.64915 0.8469 0.0
H2765 H 0.85242 0.66908 0.85443 0.0
H2766 H 0.84084 0.65716 0.85508 0.0
H2767 H 0.87544 0.66238 0.83765 0.0
H2768 H 0.86725 0.67275 0.86317 0.0
H2769 H 0.89226 0.68161 0.8514 0.0
H2770 H 0.89598 0.68109 0.86651 0.0
H2771 H 0.86774 0.68798 0.86837 0.0
H2772 H 0.87056 0.69542 0.88269 0.0
H2773 H 0.88949 0.65553 0.83668 0.0
H2774 H 0.8966 0.68374 0.8358 0.0
H2775 H 0.89888 0.68902 0.88046 0.0
H2776 H 0.90077 0.65219 0.82551 0.0
H2777 H 0.90825 0.68026 0.82463 0.0
C2778 C 0.16256 0.15724 0.65729 0.0
C2779 C 0.16045 0.14821 0.65918 0.0
C2780 C 0.15578 0.16385 0.65736 0.0
C2781 C 0.14685 0.16155 0.65953 0.0
C2782 C 0.14484 0.15253 0.66152 0.0
C2783 C 0.15153 0.14596 0.66133 0.0
C2784 C 0.13945 0.16831 0.65965 0.0
C2785 C 0.13786 0.17396 0.65233 0.0
C2786 C 0.12983 0.17902 0.65175 0.0
C2787 C 0.12333 0.17821 0.65861 0.0
C2788 C 0.12486 0.17259 0.66602 0.0
C2789 C 0.13318 0.16812 0.66664 0.0
C2790 C 0.11752 0.17042 0.67256 0.0
C2791 C 0.11081 0.17669 0.675 0.0
C2792 C 0.11701 0.16171 0.67619 0.0
C2793 C 0.1101 0.15932 0.68198 0.0
C2794 C 0.10321 0.16541 0.68415 0.0
C2795 C 0.12789 0.1844 0.64354 0.0
C2796 C 0.13476 0.18936 0.63932 0.0
C2797 C 0.11928 0.18417 0.63955 0.0
C2798 C 0.11768 0.18849 0.63141 0.0
C2799 C 0.12461 0.19322 0.62712 0.0
C2800 C 0.13312 0.19375 0.6312 0.0
C2801 C 0.10372 0.1742 0.68072 0.0
H2802 H 0.16939 0.15913 0.65556 0.0
H2803 H 0.15752 0.17074 0.6558 0.0
H2804 H 0.13801 0.15049 0.6631 0.0
H2805 H 0.14972 0.13907 0.66286 0.0
H2806 H 0.14259 0.17396 0.64681 0.0
H2807 H 0.13466 0.16402 0.67242 0.0
H2808 H 0.11697 0.18171 0.65801 0.0
H2809 H 0.11099 0.18348 0.67245 0.0
H2810 H 0.12181 0.15653 0.67438 0.0
H2811 H 0.11012 0.15257 0.68466 0.0
H2812 H 0.14145 0.18975 0.64223 0.0
H2813 H 0.11386 0.18033 0.6425 0.0
H2814 H 0.09853 0.17909 0.68225 0.0
H2815 H 0.13858 0.1973 0.62796 0.0
H2816 H 0.11108 0.18794 0.62833 0.0
C2817 C 0.66193 0.35467 0.35394 0.0
C2818 C 0.65991 0.36375 0.35223 0.0
C2819 C 0.65504 0.34816 0.35396 0.0
C2820 C 0.64607 0.35061 0.35209 0.0
C2821 C 0.64415 0.35966 0.35024 0.0
C2822 C 0.65096 0.36614 0.35033 0.0
C2823 C 0.6386 0.3439 0.35214 0.0
C2824 C 0.63739 0.33804 0.35938 0.0
C2825 C 0.62965 0.3325 0.35998 0.0
C2826 C 0.62314 0.33293 0.35305 0.0
C2827 C 0.62419 0.33892 0.34587 0.0
C2828 C 0.63207 0.34411 0.34536 0.0
C2829 C 0.6167 0.34071 0.33946 0.0
C2830 C 0.61181 0.33373 0.33525 0.0
C2831 C 0.61437 0.34968 0.33759 0.0
C2832 C 0.60734 0.35164 0.33172 0.0
C2833 C 0.60246 0.34471 0.32751 0.0
C2834 C 0.62804 0.32699 0.36824 0.0
C2835 C 0.63532 0.32355 0.37324 0.0
C2836 C 0.61924 0.32561 0.37154 0.0
C2837 C 0.61781 0.32121 0.37968 0.0
C2838 C 0.62512 0.31824 0.38484 0.0
C2839 C 0.63389 0.31935 0.38148 0.0
C2840 C 0.6048 0.33572 0.32924 0.0
H2841 H 0.66877 0.35266 0.35547 0.0
H2842 H 0.65672 0.34122 0.35539 0.0
H2843 H 0.6373 0.3618 0.34888 0.0
H2844 H 0.64922 0.37307 0.34893 0.0
H2845 H 0.64223 0.33828 0.36481 0.0
H2846 H 0.63297 0.34864 0.33978 0.0
H2847 H 0.61706 0.32889 0.35338 0.0
H2848 H 0.61347 0.32676 0.33656 0.0
H2849 H 0.6179 0.35523 0.34078 0.0
H2850 H 0.6057 0.35862 0.33046 0.0
H2851 H 0.64218 0.32421 0.37088 0.0
H2852 H 0.61342 0.32824 0.36807 0.0
H2853 H 0.6011 0.33026 0.32607 0.0
H2854 H 0.63965 0.31703 0.38528 0.0
H2855 H 0.61098 0.32049 0.38214 0.0
C2856 C 0.34655 0.85682 0.15503 0.0
C2857 C 0.34887 0.8658 0.15701 0.0
C2858 C 0.35317 0.85006 0.15512 0.0
C2859 C 0.36215 0.85218 0.15739 0.0
C2860 C 0.36435 0.86116 0.15954 0.0
C2861 C 0.35781 0.86787 0.15932 0.0
C2862 C 0.36939 0.84526 0.15737 0.0
C2863 C 0.37061 0.83945 0.15002 0.0
C2864 C 0.37825 0.8338 0.14943 0.0
C2865 C 0.38474 0.8342 0.15639 0.0
C2866 C 0.38366 0.84008 0.16376 0.0
C2867 C 0.37575 0.84524 0.16431 0.0
C2868 C 0.39102 0.84154 0.17052 0.0
C2869 C 0.39679 0.83453 0.17324 0.0
C2870 C 0.39242 0.8502 0.17422 0.0
C2871 C 0.39916 0.85177 0.18055 0.0
C2872 C 0.40488 0.8448 0.18322 0.0
C2873 C 0.37973 0.82808 0.14123 0.0
C2874 C 0.37236 0.82441 0.13646 0.0
C2875 C 0.38846 0.82664 0.1378 0.0
C2876 C 0.38975 0.82192 0.12975 0.0
C2877 C 0.38235 0.81865 0.12482 0.0
C2878 C 0.37365 0.81984 0.12833 0.0
C2879 C 0.40371 0.83617 0.17949 0.0
H2880 H 0.33969 0.85508 0.15319 0.0
H2881 H 0.35128 0.84321 0.15345 0.0
H2882 H 0.37121 0.86304 0.16121 0.0
H2883 H 0.35975 0.87473 0.16092 0.0
H2884 H 0.36586 0.83974 0.14451 0.0
H2885 H 0.37462 0.84955 0.17008 0.0
H2886 H 0.39077 0.83012 0.15594 0.0
H2887 H 0.39592 0.82777 0.17062 0.0
H2888 H 0.38839 0.85588 0.17214 0.0
H2889 H 0.40002 0.85849 0.18329 0.0
H2890 H 0.36555 0.82514 0.13894 0.0
H2891 H 0.39433 0.82945 0.14112 0.0
H2892 H 0.40807 0.8307 0.18149 0.0
H2893 H 0.36781 0.8173 0.12474 0.0
H2894 H 0.39653 0.82119 0.12717 0.0
C2895 C 0.84585 0.3563 0.65486 0.0
C2896 C 0.84825 0.36524 0.65693 0.0
C2897 C 0.85241 0.34948 0.65489 0.0
C2898 C 0.8614 0.35151 0.65717 0.0
C2899 C 0.86369 0.36046 0.65936 0.0
C2900 C 0.85721 0.36722 0.65922 0.0
C2901 C 0.86857 0.34452 0.6572 0.0
C2902 C 0.86982 0.33867 0.64988 0.0
C2903 C 0.87755 0.33315 0.64933 0.0
C2904 C 0.88403 0.3336 0.65625 0.0
C2905 C 0.88284 0.33943 0.66362 0.0
C2906 C 0.8749 0.34453 0.66417 0.0
C2907 C 0.89014 0.341 0.67033 0.0
C2908 C 0.89557 0.33396 0.67354 0.0
C2909 C 0.89172 0.3498 0.67354 0.0
C2910 C 0.89827 0.35148 0.68001 0.0
C2911 C 0.90357 0.34446 0.68336 0.0
C2912 C 0.87918 0.32754 0.64116 0.0
C2913 C 0.87204 0.3229 0.63696 0.0
C2914 C 0.88779 0.32715 0.63724 0.0
C2915 C 0.88915 0.32252 0.62916 0.0
C2916 C 0.88194 0.31813 0.62478 0.0
C2917 C 0.87341 0.31823 0.62891 0.0
C2918 C 0.90228 0.3357 0.67998 0.0
H2919 H 0.83897 0.35463 0.65304 0.0
H2920 H 0.85046 0.34265 0.65319 0.0
H2921 H 0.87057 0.36228 0.66103 0.0
H2922 H 0.85921 0.37406 0.66086 0.0
H2923 H 0.86508 0.33883 0.64436 0.0
H2924 H 0.87378 0.34887 0.66992 0.0
H2925 H 0.89014 0.32965 0.65576 0.0
H2926 H 0.89455 0.32712 0.6712 0.0
H2927 H 0.88793 0.35546 0.67102 0.0
H2928 H 0.89926 0.35834 0.68234 0.0
H2929 H 0.86536 0.32293 0.63987 0.0
H2930 H 0.89342 0.33073 0.64021 0.0
H2931 H 0.90632 0.33017 0.68245 0.0
H2932 H 0.86773 0.31477 0.62589 0.0
H2933 H 0.89579 0.32271 0.62618 0.0
C2934 C 0.3586 0.14367 0.34826 0.0
C2935 C 0.34977 0.14575 0.35086 0.0
C2936 C 0.36517 0.15036 0.3479 0.0
C2937 C 0.36311 0.15933 0.3502 0.0
C2938 C 0.35423 0.16145 0.35275 0.0
C2939 C 0.34758 0.15471 0.35299 0.0
C2940 C 0.37041 0.16622 0.35013 0.0
C2941 C 0.37666 0.16618 0.34312 0.0
C2942 C 0.38469 0.17119 0.34364 0.0
C2943 C 0.38601 0.17702 0.35102 0.0
C2944 C 0.37956 0.17755 0.35797 0.0
C2945 C 0.37181 0.17203 0.35745 0.0
C2946 C 0.38117 0.18326 0.36613 0.0
C2947 C 0.38986 0.18414 0.36987 0.0
C2948 C 0.37392 0.18746 0.37055 0.0
C2949 C 0.37524 0.19203 0.37867 0.0
C2950 C 0.38386 0.19262 0.38257 0.0
C2951 C 0.3919 0.16959 0.33681 0.0
C2952 C 0.39305 0.1609 0.33314 0.0
C2953 C 0.39772 0.1765 0.33393 0.0
C2954 C 0.40439 0.17474 0.32748 0.0
C2955 C 0.40526 0.16609 0.3237 0.0
C2956 C 0.39953 0.15921 0.32663 0.0
C2957 C 0.39119 0.1888 0.37797 0.0
H2958 H 0.36044 0.1368 0.34657 0.0
H2959 H 0.37196 0.14846 0.34603 0.0
H2960 H 0.35245 0.1683 0.35455 0.0
H2961 H 0.3408 0.15645 0.35506 0.0
H2962 H 0.37537 0.16192 0.33735 0.0
H2963 H 0.36712 0.17185 0.36299 0.0
H2964 H 0.39214 0.18096 0.35149 0.0
H2965 H 0.39561 0.18092 0.36677 0.0
H2966 H 0.36717 0.18712 0.3678 0.0
H2967 H 0.36946 0.19503 0.38197 0.0
H2968 H 0.38901 0.15528 0.33538 0.0
H2969 H 0.39705 0.18328 0.33656 0.0
H2970 H 0.3979 0.18905 0.38082 0.0
H2971 H 0.40019 0.15243 0.32399 0.0
H2972 H 0.40875 0.18017 0.32534 0.0
C2973 C 0.6617 0.65628 0.15722 0.0
C2974 C 0.65971 0.6472 0.159 0.0
C2975 C 0.65479 0.66274 0.15714 0.0
C2976 C 0.64584 0.66025 0.15902 0.0
C2977 C 0.64395 0.65119 0.16095 0.0
C2978 C 0.65079 0.64476 0.16091 0.0
C2979 C 0.63833 0.66688 0.15891 0.0
C2980 C 0.63701 0.67264 0.15162 0.0
C2981 C 0.62916 0.67798 0.15095 0.0
C2982 C 0.62259 0.67738 0.15777 0.0
C2983 C 0.62377 0.67154 0.16506 0.0
C2984 C 0.63184 0.66666 0.1657 0.0
C2985 C 0.61637 0.66974 0.17159 0.0
C2986 C 0.6106 0.67658 0.17475 0.0
C2987 C 0.61501 0.66091 0.17466 0.0
C2988 C 0.60835 0.65899 0.18091 0.0
C2989 C 0.6027 0.6658 0.18421 0.0
C2990 C 0.62757 0.68356 0.14277 0.0
C2991 C 0.63484 0.68759 0.13825 0.0
C2992 C 0.61885 0.68451 0.13911 0.0
C2993 C 0.6175 0.6891 0.13106 0.0
C2994 C 0.62484 0.69274 0.12638 0.0
C2995 C 0.6335 0.69205 0.13014 0.0
C2996 C 0.60379 0.67461 0.18099 0.0
H2997 H 0.66853 0.65832 0.15568 0.0
H2998 H 0.65644 0.66968 0.15566 0.0
H2999 H 0.63712 0.64902 0.16232 0.0
H3000 H 0.64908 0.63783 0.16235 0.0
H3001 H 0.64187 0.67253 0.14622 0.0
H3002 H 0.63298 0.66234 0.17141 0.0
H3003 H 0.61641 0.68122 0.15727 0.0
H3004 H 0.61143 0.68345 0.17255 0.0
H3005 H 0.61906 0.65537 0.17217 0.0
H3006 H 0.60755 0.6521 0.18307 0.0
H3007 H 0.64162 0.68724 0.14092 0.0
H3008 H 0.61307 0.68141 0.14225 0.0
H3009 H 0.59951 0.68 0.18342 0.0
H3010 H 0.63928 0.69492 0.12676 0.0
H3011 H 0.61075 0.68945 0.12831 0.0
C3012 C 0.16164 0.85428 0.85424 0.0
C3013 C 0.15966 0.86337 0.85257 0.0
C3014 C 0.15472 0.84779 0.85425 0.0
C3015 C 0.14577 0.85029 0.8524 0.0
C3016 C 0.14388 0.85936 0.85058 0.0
C3017 C 0.15072 0.86581 0.85069 0.0
C3018 C 0.13825 0.84363 0.85249 0.0
C3019 C 0.13706 0.83776 0.85972 0.0
C3020 C 0.12925 0.83235 0.8604 0.0
C3021 C 0.12264 0.83289 0.85358 0.0
C3022 C 0.12369 0.83883 0.84635 0.0
C3023 C 0.13166 0.84391 0.84576 0.0
C3024 C 0.11621 0.84052 0.83987 0.0
C3025 C 0.11082 0.83349 0.83639 0.0
C3026 C 0.11435 0.8494 0.83718 0.0
C3027 C 0.10744 0.8512 0.8311 0.0
C3028 C 0.10213 0.8442 0.82762 0.0
C3029 C 0.12765 0.82688 0.86864 0.0
C3030 C 0.13487 0.82285 0.87326 0.0
C3031 C 0.11894 0.8261 0.87231 0.0
C3032 C 0.11755 0.82172 0.88045 0.0
C3033 C 0.12481 0.81802 0.88524 0.0
C3034 C 0.13348 0.81851 0.88144 0.0
C3035 C 0.10383 0.83532 0.83031 0.0
H3036 H 0.16848 0.85223 0.85575 0.0
H3037 H 0.15638 0.84085 0.85566 0.0
H3038 H 0.13704 0.86153 0.84924 0.0
H3039 H 0.14901 0.87275 0.84933 0.0
H3040 H 0.14197 0.83786 0.8651 0.0
H3041 H 0.13263 0.84837 0.84014 0.0
H3042 H 0.11651 0.82895 0.85405 0.0
H3043 H 0.11208 0.82658 0.83828 0.0
H3044 H 0.11818 0.85502 0.83986 0.0
H3045 H 0.1062 0.8581 0.82916 0.0
H3046 H 0.14165 0.8231 0.87059 0.0
H3047 H 0.1132 0.82921 0.86911 0.0
H3048 H 0.09978 0.82983 0.82767 0.0
H3049 H 0.13923 0.81559 0.88481 0.0
H3050 H 0.11079 0.82159 0.88318 0.0
C3051 C 0.85066 0.84913 0.65604 0.0
C3052 C 0.84812 0.85132 0.64722 0.0
C3053 C 0.85084 0.85577 0.66278 0.0
C3054 C 0.84845 0.8647 0.66084 0.0
C3055 C 0.84612 0.86687 0.65199 0.0
C3056 C 0.84596 0.8603 0.6453 0.0
C3057 C 0.84827 0.87188 0.66784 0.0
C3058 C 0.85555 0.87325 0.67373 0.0
C3059 C 0.85592 0.88094 0.67938 0.0
C3060 C 0.84882 0.88729 0.6789 0.0
C3061 C 0.8416 0.88605 0.67288 0.0
C3062 C 0.84119 0.87809 0.6678 0.0
C3063 C 0.83516 0.89345 0.67078 0.0
C3064 C 0.8313 0.89895 0.67746 0.0
C3065 C 0.83298 0.89514 0.66177 0.0
C3066 C 0.82714 0.90206 0.65948 0.0
C3067 C 0.82332 0.9076 0.66608 0.0
C3068 C 0.86415 0.88272 0.68501 0.0
C3069 C 0.86921 0.87558 0.68859 0.0
C3070 C 0.86734 0.89156 0.68643 0.0
C3071 C 0.87544 0.89317 0.691 0.0
C3072 C 0.88074 0.88601 0.69416 0.0
C3073 C 0.87741 0.87718 0.69302 0.0
C3074 C 0.82536 0.90593 0.67513 0.0
H3075 H 0.85236 0.84228 0.65775 0.0
H3076 H 0.85268 0.8539 0.66954 0.0
H3077 H 0.84448 0.87373 0.6502 0.0
H3078 H 0.84424 0.86232 0.63856 0.0
H3079 H 0.86117 0.86863 0.67346 0.0
H3080 H 0.8355 0.87696 0.66336 0.0
H3081 H 0.84907 0.89339 0.6829 0.0
H3082 H 0.83283 0.89782 0.68445 0.0
H3083 H 0.83594 0.89119 0.65642 0.0
H3084 H 0.82562 0.9031 0.65247 0.0
H3085 H 0.86694 0.86868 0.68785 0.0
H3086 H 0.86378 0.89729 0.68375 0.0
H3087 H 0.82251 0.91013 0.68036 0.0
H3088 H 0.88126 0.87145 0.69527 0.0
H3089 H 0.87759 0.90008 0.69193 0.0
C3090 C 0.85617 0.16051 0.34179 0.0
C3091 C 0.86521 0.16222 0.34416 0.0
C3092 C 0.84937 0.16082 0.34833 0.0
C3093 C 0.85151 0.16303 0.35725 0.0
C3094 C 0.86054 0.16488 0.35951 0.0
C3095 C 0.86729 0.16446 0.35306 0.0
C3096 C 0.84455 0.16334 0.36439 0.0
C3097 C 0.83862 0.15609 0.36576 0.0
C3098 C 0.83309 0.15576 0.37344 0.0
C3099 C 0.83366 0.16289 0.37977 0.0
C3100 C 0.83968 0.17012 0.37853 0.0
C3101 C 0.84472 0.17043 0.37061 0.0
C3102 C 0.84157 0.17685 0.38578 0.0
C3103 C 0.83474 0.18036 0.39132 0.0
C3104 C 0.85051 0.17975 0.38724 0.0
C3105 C 0.85253 0.18616 0.39379 0.0
C3106 C 0.84574 0.18979 0.39923 0.0
C3107 C 0.82743 0.14759 0.3752 0.0
C3108 C 0.82349 0.14265 0.36812 0.0
C3109 C 0.8263 0.14436 0.38396 0.0
C3110 C 0.8216 0.13636 0.38556 0.0
C3111 C 0.818 0.13121 0.37845 0.0
C3112 C 0.8189 0.13455 0.3697 0.0
C3113 C 0.83681 0.18675 0.39802 0.0
H3114 H 0.85442 0.15873 0.33497 0.0
H3115 H 0.84247 0.15937 0.34641 0.0
H3116 H 0.86243 0.1665 0.36634 0.0
H3117 H 0.87418 0.16586 0.35505 0.0
H3118 H 0.83879 0.15045 0.36113 0.0
H3119 H 0.84919 0.17608 0.36944 0.0
H3120 H 0.82969 0.16266 0.38583 0.0
H3121 H 0.82779 0.17829 0.3904 0.0
H3122 H 0.85603 0.17699 0.38338 0.0
H3123 H 0.8595 0.18817 0.3947 0.0
H3124 H 0.82403 0.14495 0.36129 0.0
H3125 H 0.82929 0.14783 0.38963 0.0
H3126 H 0.83143 0.18943 0.40214 0.0
H3127 H 0.8163 0.13081 0.36401 0.0
H3128 H 0.8209 0.13417 0.39241 0.0
C3129 C 0.66583 0.15255 0.14657 0.0
C3130 C 0.66339 0.16145 0.1487 0.0
C3131 C 0.66573 0.14588 0.15307 0.0
C3132 C 0.6632 0.14787 0.16192 0.0
C3133 C 0.66063 0.15673 0.16409 0.0
C3134 C 0.66075 0.16346 0.15755 0.0
C3135 C 0.66313 0.14055 0.16868 0.0
C3136 C 0.67002 0.13411 0.1686 0.0
C3137 C 0.66937 0.12614 0.17355 0.0
C3138 C 0.66205 0.12515 0.17948 0.0
C3139 C 0.65523 0.13178 0.18008 0.0
C3140 C 0.65582 0.1394 0.17452 0.0
C3141 C 0.64712 0.13049 0.18592 0.0
C3142 C 0.64346 0.12185 0.18736 0.0
C3143 C 0.64261 0.13797 0.18966 0.0
C3144 C 0.63444 0.1369 0.19421 0.0
C3145 C 0.63071 0.12831 0.19536 0.0
C3146 C 0.67592 0.11865 0.1718 0.0
C3147 C 0.67954 0.11748 0.16314 0.0
C3148 C 0.67849 0.11251 0.17849 0.0
C3149 C 0.68453 0.10547 0.17654 0.0
C3150 C 0.68823 0.10456 0.16793 0.0
C3151 C 0.68569 0.11064 0.16129 0.0
C3152 C 0.63539 0.12078 0.1921 0.0
H3153 H 0.66765 0.15066 0.1398 0.0
H3154 H 0.66751 0.13908 0.15109 0.0
H3155 H 0.65865 0.15848 0.17085 0.0
H3156 H 0.65887 0.17025 0.15944 0.0
H3157 H 0.67582 0.13523 0.16436 0.0
H3158 H 0.65036 0.14421 0.17434 0.0
H3159 H 0.66154 0.11911 0.18344 0.0
H3160 H 0.64657 0.11591 0.18451 0.0
H3161 H 0.64528 0.14471 0.18894 0.0
H3162 H 0.63095 0.1428 0.1967 0.0
H3163 H 0.67753 0.12175 0.15766 0.0
H3164 H 0.67594 0.11317 0.18523 0.0
H3165 H 0.63258 0.11409 0.19283 0.0
H3166 H 0.68835 0.10999 0.15457 0.0
H3167 H 0.68641 0.10083 0.18177 0.0
C3168 C 0.64223 0.84612 0.85638 0.0
C3169 C 0.64472 0.84824 0.84759 0.0
C3170 C 0.64866 0.84591 0.86319 0.0
C3171 C 0.65776 0.84787 0.86143 0.0
C3172 C 0.6603 0.84996 0.85263 0.0
C3173 C 0.65384 0.85005 0.84573 0.0
C3174 C 0.66438 0.84779 0.86893 0.0
C3175 C 0.66411 0.84075 0.87508 0.0
C3176 C 0.66894 0.84118 0.88317 0.0
C3177 C 0.67482 0.84851 0.88466 0.0
C3178 C 0.67546 0.85562 0.87842 0.0
C3179 C 0.67013 0.85514 0.87057 0.0
C3180 C 0.68101 0.86389 0.8804 0.0
C3181 C 0.68221 0.86702 0.88925 0.0
C3182 C 0.68476 0.86902 0.87345 0.0
C3183 C 0.68915 0.87721 0.87523 0.0
C3184 C 0.69012 0.88046 0.88407 0.0
C3185 C 0.66703 0.83438 0.89028 0.0
C3186 C 0.65819 0.83106 0.89131 0.0
C3187 C 0.67377 0.83124 0.89613 0.0
C3188 C 0.6717 0.82485 0.90272 0.0
C3189 C 0.66289 0.82142 0.90352 0.0
C3190 C 0.65618 0.82465 0.89775 0.0
C3191 C 0.68678 0.87509 0.89105 0.0
H3192 H 0.63527 0.84464 0.85799 0.0
H3193 H 0.64646 0.84437 0.86992 0.0
H3194 H 0.66727 0.85148 0.85108 0.0
H3195 H 0.65592 0.85175 0.83901 0.0
H3196 H 0.65979 0.83501 0.87368 0.0
H3197 H 0.67 0.86074 0.86597 0.0
H3198 H 0.67865 0.84881 0.89082 0.0
H3199 H 0.67939 0.86342 0.89485 0.0
H3200 H 0.68421 0.86681 0.86655 0.0
H3201 H 0.69153 0.8811 0.86962 0.0
H3202 H 0.65271 0.83352 0.88721 0.0
H3203 H 0.68065 0.83361 0.89556 0.0
H3204 H 0.68757 0.87715 0.89797 0.0
H3205 H 0.64928 0.82233 0.89832 0.0
H3206 H 0.67702 0.82249 0.90709 0.0
C3207 C 0.85265 0.16075 0.85475 0.0
C3208 C 0.85023 0.15869 0.8636 0.0
C3209 C 0.8523 0.15408 0.84803 0.0
C3210 C 0.84936 0.14531 0.85003 0.0
C3211 C 0.84683 0.14337 0.85888 0.0
C3212 C 0.84727 0.14996 0.86555 0.0
C3213 C 0.84908 0.13799 0.84316 0.0
C3214 C 0.85646 0.13632 0.83752 0.0
C3215 C 0.85682 0.12845 0.83215 0.0
C3216 C 0.84969 0.12213 0.83276 0.0
C3217 C 0.8423 0.12366 0.83849 0.0
C3218 C 0.84186 0.1319 0.84315 0.0
C3219 C 0.83564 0.11638 0.84064 0.0
C3220 C 0.83297 0.10977 0.83433 0.0
C3221 C 0.83221 0.11576 0.84939 0.0
C3222 C 0.82638 0.10885 0.85179 0.0
C3223 C 0.82397 0.10206 0.84565 0.0
C3224 C 0.86504 0.12652 0.82662 0.0
C3225 C 0.86996 0.13357 0.82267 0.0
C3226 C 0.86833 0.11768 0.82561 0.0
C3227 C 0.8764 0.11599 0.82105 0.0
C3228 C 0.88153 0.12308 0.81747 0.0
C3229 C 0.8781 0.13189 0.81823 0.0
C3230 C 0.8272 0.10269 0.83681 0.0
H3231 H 0.855 0.16743 0.85308 0.0
H3232 H 0.85429 0.15578 0.84128 0.0
H3233 H 0.84467 0.13667 0.86071 0.0
H3234 H 0.84529 0.14819 0.87229 0.0
H3235 H 0.86216 0.14088 0.83775 0.0
H3236 H 0.83604 0.13342 0.84726 0.0
H3237 H 0.85004 0.11587 0.82903 0.0
H3238 H 0.83538 0.11003 0.82751 0.0
H3239 H 0.8342 0.12048 0.85459 0.0
H3240 H 0.82387 0.10878 0.85859 0.0
H3241 H 0.8676 0.14045 0.82311 0.0
H3242 H 0.86487 0.11204 0.8286 0.0
H3243 H 0.82548 0.09758 0.83188 0.0
H3244 H 0.88183 0.13757 0.81565 0.0
H3245 H 0.87865 0.10909 0.82044 0.0
C3246 C 0.64358 0.16501 0.65487 0.0
C3247 C 0.64622 0.16293 0.66362 0.0
C3248 C 0.64991 0.16533 0.648 0.0
C3249 C 0.65905 0.16347 0.64968 0.0
C3250 C 0.66173 0.16139 0.65847 0.0
C3251 C 0.65536 0.16121 0.66541 0.0
C3252 C 0.6656 0.16353 0.64214 0.0
C3253 C 0.66529 0.1705 0.63589 0.0
C3254 C 0.67021 0.17007 0.62787 0.0
C3255 C 0.67612 0.16275 0.62653 0.0
C3256 C 0.67678 0.15573 0.63285 0.0
C3257 C 0.67142 0.15623 0.64064 0.0
C3258 C 0.68247 0.14755 0.63104 0.0
C3259 C 0.68375 0.14433 0.62225 0.0
C3260 C 0.68633 0.14262 0.63809 0.0
C3261 C 0.69091 0.13453 0.63644 0.0
C3262 C 0.69198 0.13119 0.62766 0.0
C3263 C 0.66853 0.17688 0.62067 0.0
C3264 C 0.65991 0.18077 0.61973 0.0
C3265 C 0.67528 0.17937 0.61451 0.0
C3266 C 0.67341 0.18549 0.60763 0.0
C3267 C 0.66482 0.18938 0.60689 0.0
C3268 C 0.65814 0.18702 0.61304 0.0
C3269 C 0.68853 0.13638 0.62059 0.0
H3270 H 0.63656 0.16633 0.65334 0.0
H3271 H 0.64762 0.16683 0.64129 0.0
H3272 H 0.66872 0.15993 0.65996 0.0
H3273 H 0.65752 0.15954 0.67212 0.0
H3274 H 0.66096 0.17621 0.63725 0.0
H3275 H 0.67134 0.1507 0.64531 0.0
H3276 H 0.68001 0.16238 0.62044 0.0
H3277 H 0.68085 0.14777 0.61658 0.0
H3278 H 0.68572 0.14493 0.64495 0.0
H3279 H 0.69336 0.1308 0.64214 0.0
H3280 H 0.65438 0.17887 0.62404 0.0
H3281 H 0.68203 0.17666 0.61501 0.0
H3282 H 0.6894 0.1343 0.61369 0.0
H3283 H 0.65143 0.18985 0.61252 0.0
H3284 H 0.67867 0.18724 0.60294 0.0
C3285 C 0.66481 0.8588 0.36239 0.0
C3286 C 0.66149 0.85011 0.36066 0.0
C3287 C 0.66509 0.86522 0.35566 0.0
C3288 C 0.66213 0.86313 0.34694 0.0
C3289 C 0.65893 0.85439 0.34511 0.0
C3290 C 0.65865 0.84791 0.3519 0.0
C3291 C 0.66214 0.87031 0.34002 0.0
C3292 C 0.66926 0.87651 0.33984 0.0
C3293 C 0.6686 0.88459 0.33506 0.0
C3294 C 0.66103 0.88588 0.32949 0.0
C3295 C 0.654 0.87944 0.32908 0.0
C3296 C 0.65462 0.87171 0.33448 0.0
C3297 C 0.64561 0.88113 0.32376 0.0
C3298 C 0.64201 0.88987 0.32311 0.0
C3299 C 0.64082 0.87397 0.31973 0.0
C3300 C 0.63249 0.87544 0.31553 0.0
C3301 C 0.62875 0.88414 0.31517 0.0
C3302 C 0.67538 0.89193 0.33673 0.0
C3303 C 0.67938 0.89285 0.34527 0.0
C3304 C 0.67774 0.89821 0.33011 0.0
C3305 C 0.68388 0.90519 0.33201 0.0
C3306 C 0.68792 0.90588 0.3405 0.0
C3307 C 0.68565 0.89964 0.34707 0.0
C3308 C 0.63376 0.89135 0.31883 0.0
H3309 H 0.66719 0.86069 0.369 0.0
H3310 H 0.66745 0.87192 0.35737 0.0
H3311 H 0.65663 0.85256 0.33846 0.0
H3312 H 0.65603 0.84127 0.35036 0.0
H3313 H 0.67521 0.87519 0.34382 0.0
H3314 H 0.64898 0.86707 0.33483 0.0
H3315 H 0.66047 0.89202 0.32569 0.0
H3316 H 0.64539 0.89557 0.32618 0.0
H3317 H 0.64342 0.86717 0.31994 0.0
H3318 H 0.62886 0.8697 0.31284 0.0
H3319 H 0.67756 0.88846 0.35072 0.0
H3320 H 0.67489 0.89774 0.32345 0.0
H3321 H 0.63123 0.89817 0.31852 0.0
H3322 H 0.68857 0.90014 0.35371 0.0
H3323 H 0.68555 0.90998 0.32684 0.0
C3324 C 0.85656 0.85193 0.16491 0.0
C3325 C 0.86558 0.84976 0.16306 0.0
C3326 C 0.8501 0.85185 0.15801 0.0
C3327 C 0.85257 0.84948 0.14922 0.0
C3328 C 0.86163 0.84726 0.14748 0.0
C3329 C 0.86805 0.84743 0.15431 0.0
C3330 C 0.84591 0.84936 0.14174 0.0
C3331 C 0.84012 0.85668 0.14025 0.0
C3332 C 0.83465 0.85705 0.1325 0.0
C3333 C 0.83518 0.84989 0.1262 0.0
C3334 C 0.84107 0.84258 0.12754 0.0
C3335 C 0.84606 0.84226 0.13553 0.0
C3336 C 0.84273 0.83565 0.12037 0.0
C3337 C 0.83588 0.83276 0.11444 0.0
C3338 C 0.85144 0.832 0.1193 0.0
C3339 C 0.85319 0.82552 0.11273 0.0
C3340 C 0.84639 0.82267 0.10685 0.0
C3341 C 0.82904 0.86527 0.13065 0.0
C3342 C 0.82533 0.87042 0.13769 0.0
C3343 C 0.82772 0.86831 0.12185 0.0
C3344 C 0.82308 0.87632 0.12015 0.0
C3345 C 0.8198 0.88174 0.12721 0.0
C3346 C 0.82087 0.87856 0.13601 0.0
C3347 C 0.83772 0.82639 0.10768 0.0
H3348 H 0.85455 0.85381 0.17163 0.0
H3349 H 0.84318 0.85357 0.15955 0.0
H3350 H 0.86379 0.84554 0.14076 0.0
H3351 H 0.875 0.84581 0.15275 0.0
H3352 H 0.8403 0.86231 0.14489 0.0
H3353 H 0.85035 0.83652 0.13686 0.0
H3354 H 0.83123 0.85013 0.12013 0.0
H3355 H 0.82909 0.83534 0.11504 0.0
H3356 H 0.85702 0.83423 0.12343 0.0
H3357 H 0.85997 0.82286 0.11212 0.0
H3358 H 0.82596 0.86826 0.14456 0.0
H3359 H 0.8305 0.86469 0.11619 0.0
H3360 H 0.83237 0.82428 0.10319 0.0
H3361 H 0.81852 0.88246 0.14168 0.0
H3362 H 0.8222 0.8783 0.11326 0.0
C3363 C 0.14368 0.66489 0.15484 0.0
C3364 C 0.14623 0.66275 0.16361 0.0
C3365 C 0.15006 0.66513 0.148 0.0
C3366 C 0.15917 0.66316 0.14972 0.0
C3367 C 0.16177 0.66105 0.15852 0.0
C3368 C 0.15536 0.66094 0.16544 0.0
C3369 C 0.16573 0.66314 0.14219 0.0
C3370 C 0.16542 0.67006 0.13588 0.0
C3371 C 0.17021 0.6695 0.12779 0.0
C3372 C 0.17605 0.66213 0.12645 0.0
C3373 C 0.17678 0.6552 0.13286 0.0
C3374 C 0.17152 0.6558 0.14071 0.0
C3375 C 0.18241 0.647 0.13107 0.0
C3376 C 0.18336 0.64353 0.12233 0.0
C3377 C 0.18657 0.6423 0.13812 0.0
C3378 C 0.19121 0.63423 0.13651 0.0
C3379 C 0.19195 0.63066 0.12779 0.0
C3380 C 0.1684 0.67619 0.12052 0.0
C3381 C 0.15975 0.68004 0.11968 0.0
C3382 C 0.17504 0.67863 0.11423 0.0
C3383 C 0.17304 0.68469 0.10733 0.0
C3384 C 0.16443 0.68859 0.10671 0.0
C3385 C 0.15786 0.68623 0.11297 0.0
C3386 C 0.18812 0.63556 0.12071 0.0
H3387 H 0.1367 0.66634 0.15325 0.0
H3388 H 0.14781 0.66668 0.14129 0.0
H3389 H 0.16874 0.65951 0.16005 0.0
H3390 H 0.15748 0.65923 0.17215 0.0
H3391 H 0.16116 0.67582 0.13723 0.0
H3392 H 0.17149 0.65032 0.14544 0.0
H3393 H 0.17984 0.66164 0.1203 0.0
H3394 H 0.1802 0.64679 0.11669 0.0
H3395 H 0.18617 0.64479 0.14493 0.0
H3396 H 0.19398 0.63069 0.14218 0.0
H3397 H 0.1543 0.67816 0.12408 0.0
H3398 H 0.18179 0.67592 0.11464 0.0
H3399 H 0.1887 0.63321 0.11386 0.0
H3400 H 0.15113 0.68904 0.11256 0.0
H3401 H 0.17823 0.68643 0.10256 0.0
C3402 C 0.16449 0.35818 0.86335 0.0
C3403 C 0.1621 0.34929 0.8611 0.0
C3404 C 0.16456 0.36488 0.85689 0.0
C3405 C 0.16224 0.36293 0.84796 0.0
C3406 C 0.15969 0.35407 0.84568 0.0
C3407 C 0.15964 0.34731 0.85219 0.0
C3408 C 0.16236 0.37027 0.84124 0.0
C3409 C 0.16926 0.37674 0.84156 0.0
C3410 C 0.16879 0.38462 0.83647 0.0
C3411 C 0.16159 0.38567 0.83043 0.0
C3412 C 0.15472 0.37911 0.82976 0.0
C3413 C 0.15519 0.37142 0.8352 0.0
C3414 C 0.1466 0.38067 0.82407 0.0
C3415 C 0.14264 0.38926 0.82364 0.0
C3416 C 0.14241 0.37349 0.81947 0.0
C3417 C 0.13429 0.37479 0.81488 0.0
C3418 C 0.13019 0.38331 0.81473 0.0
C3419 C 0.17529 0.39208 0.83827 0.0
C3420 C 0.17783 0.39408 0.84716 0.0
C3421 C 0.17879 0.39742 0.83135 0.0
C3422 C 0.18469 0.40457 0.8333 0.0
C3423 C 0.18708 0.40654 0.8422 0.0
C3424 C 0.18364 0.40121 0.84909 0.0
C3425 C 0.13455 0.39057 0.819 0.0
H3426 H 0.16617 0.36003 0.87018 0.0
H3427 H 0.16629 0.37168 0.85896 0.0
H3428 H 0.15786 0.35236 0.83885 0.0
H3429 H 0.15778 0.34053 0.85022 0.0
H3430 H 0.1749 0.37578 0.84607 0.0
H3431 H 0.14969 0.36661 0.83516 0.0
H3432 H 0.16115 0.39175 0.82651 0.0
H3433 H 0.14556 0.39493 0.82722 0.0
H3434 H 0.14535 0.36682 0.81953 0.0
H3435 H 0.13115 0.36909 0.81154 0.0
H3436 H 0.17514 0.39026 0.85269 0.0
H3437 H 0.17699 0.39605 0.82444 0.0
H3438 H 0.13151 0.39719 0.81911 0.0
H3439 H 0.18541 0.40264 0.856 0.0
H3440 H 0.18728 0.40865 0.8279 0.0
C3441 C 0.35723 0.35141 0.66457 0.0
C3442 C 0.36633 0.3498 0.66241 0.0
C3443 C 0.35058 0.35136 0.65785 0.0
C3444 C 0.35291 0.34951 0.64891 0.0
C3445 C 0.36199 0.34781 0.64682 0.0
C3446 C 0.3686 0.34796 0.65347 0.0
C3447 C 0.34606 0.34925 0.64161 0.0
C3448 C 0.34006 0.35643 0.64025 0.0
C3449 C 0.33454 0.35675 0.63252 0.0
C3450 C 0.33512 0.34962 0.6262 0.0
C3451 C 0.34122 0.34249 0.62743 0.0
C3452 C 0.34635 0.34223 0.63532 0.0
C3453 C 0.34316 0.33582 0.62018 0.0
C3454 C 0.33629 0.33164 0.61513 0.0
C3455 C 0.35218 0.33358 0.6183 0.0
C3456 C 0.35429 0.32716 0.6118 0.0
C3457 C 0.34747 0.32278 0.6069 0.0
C3458 C 0.32893 0.36493 0.63067 0.0
C3459 C 0.32501 0.36995 0.63769 0.0
C3460 C 0.32788 0.36813 0.62188 0.0
C3461 C 0.32332 0.37618 0.62019 0.0
C3462 C 0.31977 0.38141 0.62723 0.0
C3463 C 0.32054 0.37808 0.636 0.0
C3464 C 0.33842 0.32517 0.60854 0.0
H3465 H 0.35531 0.35289 0.67141 0.0
H3466 H 0.34363 0.35266 0.65964 0.0
H3467 H 0.36403 0.34646 0.63998 0.0
H3468 H 0.37552 0.34663 0.6516 0.0
H3469 H 0.34016 0.36204 0.64493 0.0
H3470 H 0.35095 0.33667 0.6364 0.0
H3471 H 0.33112 0.34978 0.62014 0.0
H3472 H 0.32928 0.33323 0.6164 0.0
H3473 H 0.35767 0.33685 0.62185 0.0
H3474 H 0.36133 0.32571 0.61055 0.0
H3475 H 0.32549 0.36768 0.64453 0.0
H3476 H 0.33085 0.36459 0.61626 0.0
H3477 H 0.333 0.32192 0.60486 0.0
H3478 H 0.31796 0.38189 0.64164 0.0
H3479 H 0.3227 0.37836 0.61332 0.0
C3480 C 0.16641 0.65324 0.64787 0.0
C3481 C 0.16363 0.66207 0.64988 0.0
C3482 C 0.16649 0.64664 0.65444 0.0
C3483 C 0.16371 0.64861 0.66322 0.0
C3484 C 0.16077 0.65737 0.66527 0.0
C3485 C 0.16078 0.66406 0.65868 0.0
C3486 C 0.16376 0.64133 0.67001 0.0
C3487 C 0.17107 0.6354 0.67032 0.0
C3488 C 0.17055 0.62712 0.67485 0.0
C3489 C 0.16291 0.62562 0.6803 0.0
C3490 C 0.15577 0.63193 0.68075 0.0
C3491 C 0.15621 0.63965 0.67534 0.0
C3492 C 0.14752 0.63023 0.6863 0.0
C3493 C 0.14424 0.62145 0.68764 0.0
C3494 C 0.1426 0.63746 0.69001 0.0
C3495 C 0.13444 0.636 0.69446 0.0
C3496 C 0.13102 0.62723 0.69555 0.0
C3497 C 0.17751 0.61988 0.67305 0.0
C3498 C 0.18291 0.62025 0.66528 0.0
C3499 C 0.17847 0.61221 0.67854 0.0
C3500 C 0.18418 0.60506 0.67604 0.0
C3501 C 0.18921 0.60544 0.66809 0.0
C3502 C 0.18877 0.6133 0.663 0.0
C3503 C 0.13619 0.61997 0.69228 0.0
H3504 H 0.16839 0.65134 0.64115 0.0
H3505 H 0.16857 0.6399 0.65257 0.0
H3506 H 0.15859 0.65908 0.67198 0.0
H3507 H 0.15863 0.67078 0.6605 0.0
H3508 H 0.17705 0.63724 0.66666 0.0
H3509 H 0.15049 0.64415 0.67491 0.0
H3510 H 0.16238 0.61949 0.68408 0.0
H3511 H 0.1477 0.61567 0.68487 0.0
H3512 H 0.14497 0.64432 0.68936 0.0
H3513 H 0.13071 0.64181 0.69679 0.0
H3514 H 0.18248 0.62568 0.66056 0.0
H3515 H 0.17473 0.61157 0.68469 0.0
H3516 H 0.13398 0.61309 0.69316 0.0
H3517 H 0.19276 0.61401 0.65698 0.0
H3518 H 0.1844 0.59912 0.68019 0.0
C3519 C 0.35137 0.34904 0.15597 0.0
C3520 C 0.34852 0.35107 0.14721 0.0
C3521 C 0.35137 0.3557 0.1627 0.0
C3522 C 0.34849 0.36449 0.16079 0.0
C3523 C 0.34583 0.36651 0.15199 0.0
C3524 C 0.34585 0.35992 0.14533 0.0
C3525 C 0.34831 0.37175 0.16772 0.0
C3526 C 0.35563 0.37322 0.17354 0.0
C3527 C 0.35608 0.38102 0.179 0.0
C3528 C 0.34904 0.38741 0.17844 0.0
C3529 C 0.34172 0.38605 0.17256 0.0
C3530 C 0.34122 0.37798 0.16766 0.0
C3531 C 0.33525 0.39342 0.17042 0.0
C3532 C 0.33151 0.39904 0.17706 0.0
C3533 C 0.33293 0.39494 0.16142 0.0
C3534 C 0.32707 0.40185 0.15909 0.0
C3535 C 0.32337 0.40751 0.16567 0.0
C3536 C 0.36435 0.38286 0.18449 0.0
C3537 C 0.36907 0.3758 0.18863 0.0
C3538 C 0.36793 0.39162 0.18517 0.0
C3539 C 0.37612 0.39322 0.18959 0.0
C3540 C 0.38104 0.38611 0.19338 0.0
C3541 C 0.37731 0.37739 0.19298 0.0
C3542 C 0.32555 0.406 0.1747 0.0
H3543 H 0.35348 0.34228 0.15765 0.0
H3544 H 0.35349 0.35395 0.1694 0.0
H3545 H 0.34385 0.37327 0.15018 0.0
H3546 H 0.34389 0.36184 0.13863 0.0
H3547 H 0.36126 0.36858 0.17336 0.0
H3548 H 0.33547 0.37677 0.16332 0.0
H3549 H 0.34942 0.39361 0.18227 0.0
H3550 H 0.33315 0.39804 0.18404 0.0
H3551 H 0.33579 0.39089 0.15609 0.0
H3552 H 0.32545 0.40277 0.15209 0.0
H3553 H 0.36648 0.36898 0.18838 0.0
H3554 H 0.3646 0.39725 0.18202 0.0
H3555 H 0.3228 0.41029 0.17991 0.0
H3556 H 0.38089 0.37171 0.19576 0.0
H3557 H 0.37865 0.40006 0.18991 0.0
C3558 C 0.60083 0.41861 0.11241 0.0
C3559 C 0.59934 0.41098 0.11777 0.0
C3560 C 0.6075 0.41855 0.10577 0.0
C3561 C 0.61274 0.41082 0.10423 0.0
C3562 C 0.61116 0.40317 0.10944 0.0
C3563 C 0.60462 0.40326 0.11614 0.0
C3564 C 0.6202 0.4108 0.09758 0.0
C3565 C 0.62649 0.41786 0.09747 0.0
C3566 C 0.63421 0.41743 0.092 0.0
C3567 C 0.63545 0.40982 0.08642 0.0
C3568 C 0.6292 0.40266 0.08646 0.0
C3569 C 0.62156 0.40329 0.09198 0.0
C3570 C 0.631 0.39412 0.08149 0.0
C3571 C 0.63369 0.39408 0.07246 0.0
C3572 C 0.63007 0.38585 0.0859 0.0
C3573 C 0.63186 0.37775 0.08146 0.0
C3574 C 0.63455 0.37767 0.07247 0.0
C3575 C 0.64132 0.42453 0.09294 0.0
C3576 C 0.63893 0.43359 0.09438 0.0
C3577 C 0.65051 0.4222 0.09331 0.0
C3578 C 0.65706 0.42866 0.09552 0.0
C3579 C 0.65459 0.4376 0.09747 0.0
C3580 C 0.64547 0.44002 0.09665 0.0
C3581 C 0.63535 0.3859 0.06795 0.0
H3582 H 0.59684 0.42464 0.1133 0.0
H3583 H 0.60855 0.42455 0.10183 0.0
H3584 H 0.6152 0.39716 0.10854 0.0
H3585 H 0.60394 0.39731 0.12022 0.0
H3586 H 0.62567 0.42342 0.10212 0.0
H3587 H 0.61672 0.39781 0.09206 0.0
H3588 H 0.64143 0.4093 0.0823 0.0
H3589 H 0.63443 0.40035 0.06888 0.0
H3590 H 0.6281 0.38564 0.09287 0.0
H3591 H 0.63113 0.3715 0.08508 0.0
H3592 H 0.63195 0.43568 0.09397 0.0
H3593 H 0.65262 0.41528 0.09235 0.0
H3594 H 0.63743 0.38602 0.06101 0.0
H3595 H 0.64334 0.44689 0.09791 0.0
H3596 H 0.66402 0.42654 0.09615 0.0
C3597 C 0.90619 0.61051 0.61261 0.0
C3598 C 0.91132 0.6027 0.61418 0.0
C3599 C 0.8995 0.61062 0.60602 0.0
C3600 C 0.89761 0.60288 0.60088 0.0
C3601 C 0.9027 0.59507 0.60238 0.0
C3602 C 0.90952 0.595 0.60888 0.0
C3603 C 0.89006 0.60295 0.59431 0.0
C3604 C 0.88878 0.61039 0.58872 0.0
C3605 C 0.88105 0.61112 0.5833 0.0
C3606 C 0.87461 0.60415 0.58341 0.0
C3607 C 0.87577 0.59662 0.58897 0.0
C3608 C 0.8836 0.59602 0.59427 0.0
C3609 C 0.86837 0.58996 0.59017 0.0
C3610 C 0.85951 0.59295 0.59171 0.0
C3611 C 0.87021 0.58069 0.59068 0.0
C3612 C 0.86339 0.57458 0.59297 0.0
C3613 C 0.85468 0.57767 0.59495 0.0
C3614 C 0.87933 0.61957 0.57829 0.0
C3615 C 0.88063 0.62794 0.58256 0.0
C3616 C 0.87621 0.61941 0.56939 0.0
C3617 C 0.87444 0.62747 0.56488 0.0
C3618 C 0.87559 0.6358 0.56927 0.0
C3619 C 0.87873 0.63594 0.57812 0.0
C3620 C 0.85276 0.58687 0.59415 0.0
H3621 H 0.90712 0.61653 0.61664 0.0
H3622 H 0.89559 0.6167 0.60516 0.0
H3623 H 0.90142 0.58902 0.59848 0.0
H3624 H 0.91339 0.58889 0.6097 0.0
H3625 H 0.89375 0.61575 0.58871 0.0
H3626 H 0.88435 0.59046 0.59887 0.0
H3627 H 0.8685 0.60478 0.57947 0.0
H3628 H 0.8579 0.60005 0.59148 0.0
H3629 H 0.87697 0.57819 0.58951 0.0
H3630 H 0.86503 0.56751 0.59358 0.0
H3631 H 0.88293 0.6283 0.58944 0.0
H3632 H 0.87517 0.61306 0.56592 0.0
H3633 H 0.84607 0.58939 0.59563 0.0
H3634 H 0.8797 0.64228 0.58163 0.0
H3635 H 0.872 0.62721 0.55804 0.0
C3636 C 0.60649 0.40167 0.60454 0.0
C3637 C 0.59835 0.39881 0.60058 0.0
C3638 C 0.60656 0.40849 0.61102 0.0
C3639 C 0.59851 0.41269 0.61371 0.0
C3640 C 0.5904 0.41007 0.60952 0.0
C3641 C 0.59032 0.40322 0.60301 0.0
C3642 C 0.59859 0.41926 0.62131 0.0
C3643 C 0.60573 0.42541 0.6223 0.0
C3644 C 0.60683 0.43056 0.63019 0.0
C3645 C 0.60016 0.42995 0.63688 0.0
C3646 C 0.59271 0.42408 0.63588 0.0
C3647 C 0.59207 0.41874 0.62807 0.0
C3648 C 0.58603 0.4228 0.64325 0.0
C3649 C 0.58882 0.42275 0.65226 0.0
C3650 C 0.57692 0.42093 0.64131 0.0
C3651 C 0.57091 0.41853 0.6481 0.0
C3652 C 0.57381 0.41804 0.65705 0.0
C3653 C 0.61529 0.43594 0.63164 0.0
C3654 C 0.62351 0.43292 0.62796 0.0
C3655 C 0.61539 0.4439 0.63685 0.0
C3656 C 0.62348 0.44863 0.63836 0.0
C3657 C 0.63158 0.44561 0.63452 0.0
C3658 C 0.63148 0.43775 0.62929 0.0
C3659 C 0.58278 0.42045 0.65906 0.0
H3660 H 0.61281 0.39852 0.60273 0.0
H3661 H 0.61293 0.41024 0.61416 0.0
H3662 H 0.58408 0.41322 0.61137 0.0
H3663 H 0.58393 0.40118 0.60011 0.0
H3664 H 0.61058 0.426 0.61693 0.0
H3665 H 0.58676 0.41375 0.62749 0.0
H3666 H 0.60089 0.43382 0.643 0.0
H3667 H 0.59577 0.42409 0.65406 0.0
H3668 H 0.57446 0.42107 0.63448 0.0
H3669 H 0.56408 0.41671 0.64624 0.0
H3670 H 0.62389 0.42669 0.62419 0.0
H3671 H 0.60924 0.44654 0.63972 0.0
H3672 H 0.58523 0.42036 0.66589 0.0
H3673 H 0.63767 0.4352 0.62638 0.0
H3674 H 0.62339 0.45471 0.64242 0.0
C3675 C 0.35604 0.65896 0.84256 0.0
C3676 C 0.36509 0.66072 0.84483 0.0
C3677 C 0.34932 0.65925 0.84917 0.0
C3678 C 0.35154 0.6615 0.85807 0.0
C3679 C 0.36059 0.6634 0.86022 0.0
C3680 C 0.36726 0.66299 0.85369 0.0
C3681 C 0.34465 0.66181 0.86528 0.0
C3682 C 0.33883 0.65452 0.8668 0.0
C3683 C 0.33333 0.65424 0.87451 0.0
C3684 C 0.33386 0.66147 0.88073 0.0
C3685 C 0.33983 0.66873 0.87936 0.0
C3686 C 0.34481 0.66899 0.8714 0.0
C3687 C 0.34177 0.67554 0.88654 0.0
C3688 C 0.33498 0.67904 0.89215 0.0
C3689 C 0.35069 0.67852 0.88788 0.0
C3690 C 0.35276 0.68497 0.89438 0.0
C3691 C 0.34601 0.68857 0.89989 0.0
C3692 C 0.32777 0.646 0.87643 0.0
C3693 C 0.3242 0.64065 0.86943 0.0
C3694 C 0.32641 0.64309 0.88527 0.0
C3695 C 0.32188 0.63502 0.88704 0.0
C3696 C 0.31875 0.62944 0.88003 0.0
C3697 C 0.31985 0.63247 0.87119 0.0
C3698 C 0.3371 0.68547 0.89879 0.0
H3699 H 0.35422 0.65716 0.83576 0.0
H3700 H 0.3424 0.65776 0.84734 0.0
H3701 H 0.36254 0.66506 0.86702 0.0
H3702 H 0.37418 0.66442 0.8556 0.0
H3703 H 0.33907 0.64882 0.86224 0.0
H3704 H 0.34922 0.67466 0.87012 0.0
H3705 H 0.32992 0.66133 0.8868 0.0
H3706 H 0.32804 0.67692 0.89133 0.0
H3707 H 0.35619 0.67577 0.88397 0.0
H3708 H 0.35973 0.68702 0.89519 0.0
H3709 H 0.32487 0.64269 0.86253 0.0
H3710 H 0.32908 0.64685 0.89091 0.0
H3711 H 0.33175 0.68813 0.90297 0.0
H3712 H 0.31761 0.62841 0.86556 0.0
H3713 H 0.32098 0.63312 0.89395 0.0
C3714 C 0.14219 0.34452 0.35559 0.0
C3715 C 0.14461 0.34673 0.3468 0.0
C3716 C 0.14867 0.3443 0.36235 0.0
C3717 C 0.15774 0.34634 0.36054 0.0
C3718 C 0.16021 0.34851 0.35173 0.0
C3719 C 0.1537 0.34861 0.34489 0.0
C3720 C 0.16442 0.34629 0.36798 0.0
C3721 C 0.16429 0.33924 0.37413 0.0
C3722 C 0.16919 0.3397 0.38218 0.0
C3723 C 0.17502 0.3471 0.38359 0.0
C3724 C 0.17558 0.35417 0.37731 0.0
C3725 C 0.17014 0.35368 0.36955 0.0
C3726 C 0.18128 0.36237 0.37911 0.0
C3727 C 0.18269 0.36559 0.38789 0.0
C3728 C 0.18506 0.36729 0.37202 0.0
C3729 C 0.18973 0.37535 0.37362 0.0
C3730 C 0.19097 0.37868 0.38239 0.0
C3731 C 0.16754 0.33282 0.38929 0.0
C3732 C 0.15892 0.32887 0.39013 0.0
C3733 C 0.17429 0.33028 0.39544 0.0
C3734 C 0.17242 0.32404 0.40221 0.0
C3735 C 0.16384 0.32008 0.40283 0.0
C3736 C 0.15715 0.32251 0.3967 0.0
C3737 C 0.18754 0.37354 0.3895 0.0
H3738 H 0.13525 0.343 0.35724 0.0
H3739 H 0.14653 0.3427 0.36908 0.0
H3740 H 0.16716 0.35008 0.35015 0.0
H3741 H 0.15572 0.35037 0.33817 0.0
H3742 H 0.16005 0.33345 0.3727 0.0
H3743 H 0.16995 0.35926 0.36494 0.0
H3744 H 0.17892 0.34748 0.3897 0.0
H3745 H 0.17985 0.36215 0.39358 0.0
H3746 H 0.18434 0.36499 0.36516 0.0
H3747 H 0.19215 0.37908 0.36791 0.0
H3748 H 0.15338 0.33082 0.38584 0.0
H3749 H 0.18102 0.33306 0.39502 0.0
H3750 H 0.1885 0.37568 0.39638 0.0
H3751 H 0.15045 0.31964 0.39715 0.0
H3752 H 0.17768 0.32226 0.40691 0.0
C3753 C 0.35195 0.66028 0.35523 0.0
C3754 C 0.34925 0.65831 0.36403 0.0
C3755 C 0.35211 0.65349 0.34863 0.0
C3756 C 0.34957 0.64462 0.35072 0.0
C3757 C 0.34714 0.64266 0.35958 0.0
C3758 C 0.34698 0.64939 0.36612 0.0
C3759 C 0.34932 0.63732 0.34382 0.0
C3760 C 0.35649 0.63597 0.33783 0.0
C3761 C 0.35671 0.62833 0.33211 0.0
C3762 C 0.34955 0.62204 0.33255 0.0
C3763 C 0.34244 0.62323 0.33867 0.0
C3764 C 0.34223 0.63108 0.34393 0.0
C3765 C 0.3359 0.61587 0.34057 0.0
C3766 C 0.33178 0.61074 0.33372 0.0
C3767 C 0.3339 0.61381 0.34951 0.0
C3768 C 0.32799 0.60685 0.3516 0.0
C3769 C 0.32391 0.60167 0.34482 0.0
C3770 C 0.36482 0.62654 0.32638 0.0
C3771 C 0.36985 0.63367 0.32272 0.0
C3772 C 0.36793 0.61769 0.32494 0.0
C3773 C 0.37593 0.61605 0.32025 0.0
C3774 C 0.38119 0.6232 0.31698 0.0
C3775 C 0.37794 0.63203 0.31816 0.0
C3776 C 0.32577 0.60374 0.33583 0.0
H3777 H 0.35374 0.66708 0.35339 0.0
H3778 H 0.35402 0.65521 0.34186 0.0
H3779 H 0.3454 0.63586 0.36151 0.0
H3780 H 0.34513 0.64756 0.37287 0.0
H3781 H 0.36214 0.64059 0.33803 0.0
H3782 H 0.33663 0.63214 0.34847 0.0
H3783 H 0.34966 0.61602 0.32843 0.0
H3784 H 0.33316 0.61217 0.32676 0.0
H3785 H 0.33704 0.61749 0.35498 0.0
H3786 H 0.32661 0.60552 0.35858 0.0
H3787 H 0.36763 0.64057 0.3235 0.0
H3788 H 0.36439 0.61198 0.3277 0.0
H3789 H 0.32272 0.59984 0.33047 0.0
H3790 H 0.38177 0.63775 0.31582 0.0
H3791 H 0.37804 0.60914 0.31932 0.0
C3792 C 0.1766 0.46625 0.10699 0.0
C3793 C 0.18441 0.46349 0.10242 0.0
C3794 C 0.16842 0.46165 0.10577 0.0
C3795 C 0.15636 0.4455 0.09086 0.0
H3796 H 0.14341 0.43937 0.11246 0.0
C3797 C 0.12827 0.41839 0.0909 0.0
C3798 C 0.12125 0.41909 0.09716 0.0
C3799 C 0.13549 0.42446 0.09109 0.0
C3800 C 0.14679 0.44114 0.10631 0.0
H3801 H 0.18957 0.45399 0.09259 0.0
H3802 H 0.17539 0.44591 0.09059 0.0
H3803 H 0.15663 0.44898 0.11341 0.0
H3804 H 0.11611 0.42695 0.10829 0.0
H3805 H 0.12848 0.43775 0.10844 0.0
H3806 H 0.14651 0.43773 0.08372 0.0
C3807 C 0.17557 0.45165 0.09511 0.0
C3808 C 0.15443 0.44666 0.10688 0.0
C3809 C 0.18374 0.45623 0.09633 0.0
C3810 C 0.12148 0.42617 0.10345 0.0
C3811 C 0.12863 0.43233 0.10356 0.0
C3812 C 0.14866 0.44006 0.09027 0.0
C3813 C 0.16785 0.4542 0.09992 0.0
C3814 C 0.15937 0.44883 0.09918 0.0
C3815 C 0.13584 0.43149 0.09748 0.0
C3816 C 0.1438 0.4377 0.098 0.0
H3817 H 0.17685 0.47177 0.11176 0.0
H3818 H 0.16257 0.46387 0.1095 0.0
H3819 H 0.15995 0.44712 0.08478 0.0
H3820 H 0.12833 0.41295 0.08603 0.0
H3821 H 0.14094 0.42345 0.08639 0.0
C3822 C 0.83371 0.9677 0.40101 0.0
C3823 C 0.82552 0.9642 0.40423 0.0
C3824 C 0.84189 0.96327 0.40262 0.0
C3825 C 0.85188 0.94388 0.41563 0.0
H3826 H 0.87078 0.94622 0.39802 0.0
C3827 C 0.88415 0.92228 0.4185 0.0
C3828 C 0.88898 0.92008 0.41069 0.0
C3829 C 0.87714 0.92857 0.41831 0.0
C3830 C 0.86555 0.94526 0.40295 0.0
H3831 H 0.81973 0.95345 0.41214 0.0
H3832 H 0.83362 0.94541 0.41425 0.0
H3833 H 0.85722 0.9549 0.39646 0.0
H3834 H 0.89028 0.92324 0.39658 0.0
H3835 H 0.87767 0.93331 0.39603 0.0
H3836 H 0.85972 0.93358 0.4216 0.0
C3837 C 0.83392 0.95172 0.41071 0.0
C3838 C 0.85775 0.95051 0.40216 0.0
C3839 C 0.82582 0.95627 0.40931 0.0
C3840 C 0.88663 0.92449 0.40272 0.0
C3841 C 0.87942 0.93053 0.40246 0.0
C3842 C 0.8595 0.93838 0.41621 0.0
C3843 C 0.84212 0.95508 0.40733 0.0
C3844 C 0.85073 0.94986 0.40845 0.0
C3845 C 0.87448 0.93268 0.41024 0.0
C3846 C 0.86648 0.93891 0.40985 0.0
H3847 H 0.83381 0.97376 0.39703 0.0
H3848 H 0.848 0.96628 0.40007 0.0
H3849 H 0.84685 0.9433 0.42082 0.0
H3850 H 0.88563 0.91902 0.42478 0.0
H3851 H 0.87381 0.93012 0.42456 0.0
C3852 C 0.3355 0.54331 0.60706 0.0
C3853 C 0.32767 0.54448 0.60188 0.0
C3854 C 0.34279 0.54921 0.60628 0.0
C3855 C 0.35356 0.565 0.59083 0.0
H3856 H 0.36614 0.57326 0.61214 0.0
C3857 C 0.38268 0.59112 0.58949 0.0
C3858 C 0.38965 0.59049 0.59584 0.0
C3859 C 0.37512 0.58549 0.58997 0.0
C3860 C 0.36282 0.57091 0.60609 0.0
H3861 H 0.32131 0.55285 0.5919 0.0
H3862 H 0.33413 0.56323 0.59051 0.0
H3863 H 0.35282 0.56382 0.61358 0.0
H3864 H 0.39436 0.58312 0.60739 0.0
H3865 H 0.38135 0.57316 0.6081 0.0
H3866 H 0.36367 0.57191 0.58332 0.0
C3867 C 0.3346 0.55768 0.59515 0.0
C3868 C 0.35513 0.56553 0.60693 0.0
C3869 C 0.32724 0.5518 0.596 0.0
C3870 C 0.38904 0.58388 0.60248 0.0
C3871 C 0.38153 0.5782 0.60292 0.0
C3872 C 0.36132 0.57032 0.58998 0.0
C3873 C 0.34248 0.55642 0.60027 0.0
C3874 C 0.35042 0.56248 0.59932 0.0
C3875 C 0.37437 0.57902 0.59676 0.0
C3876 C 0.36609 0.57333 0.5976 0.0
H3877 H 0.33601 0.5378 0.61173 0.0
H3878 H 0.34877 0.54801 0.61027 0.0
H3879 H 0.35015 0.56266 0.58483 0.0
H3880 H 0.3829 0.59621 0.58434 0.0
H3881 H 0.36973 0.58642 0.58516 0.0
C3882 C 0.67448 0.04074 0.9082 0.0
C3883 C 0.6831 0.0435 0.91104 0.0
C3884 C 0.66711 0.04653 0.90877 0.0
C3885 C 0.65943 0.06843 0.91892 0.0
H3886 H 0.63986 0.06461 0.90213 0.0
C3887 C 0.62643 0.0893 0.92145 0.0
C3888 C 0.62149 0.09096 0.91357 0.0
C3889 C 0.63375 0.08334 0.92142 0.0
C3890 C 0.64527 0.06598 0.9068 0.0
H3891 H 0.6907 0.05473 0.91657 0.0
H3892 H 0.67793 0.06506 0.91709 0.0
H3893 H 0.65318 0.05558 0.90096 0.0
H3894 H 0.62032 0.08717 0.89954 0.0
H3895 H 0.63337 0.07764 0.89928 0.0
H3896 H 0.65179 0.07939 0.92426 0.0
C3897 C 0.67679 0.05826 0.9147 0.0
C3898 C 0.65294 0.06056 0.90627 0.0
C3899 C 0.68417 0.05237 0.91427 0.0
C3900 C 0.62403 0.08634 0.90572 0.0
C3901 C 0.63149 0.08062 0.90562 0.0
C3902 C 0.65186 0.07407 0.91928 0.0
C3903 C 0.66811 0.05542 0.91197 0.0
C3904 C 0.66011 0.06159 0.91238 0.0
C3905 C 0.63652 0.07901 0.91346 0.0
C3906 C 0.64461 0.07293 0.91324 0.0
H3907 H 0.67337 0.03405 0.90548 0.0
H3908 H 0.66059 0.04391 0.90677 0.0
H3909 H 0.6647 0.06942 0.92386 0.0
H3910 H 0.62479 0.09274 0.92764 0.0
H3911 H 0.63723 0.08219 0.92768 0.0
C3912 C 0.18473 0.55421 0.41219 0.0
C3913 C 0.18492 0.54619 0.40713 0.0
C3914 C 0.17668 0.55888 0.41355 0.0
C3915 C 0.15288 0.56025 0.40489 0.0
H3916 H 0.1511 0.57747 0.42436 0.0
C3917 C 0.12445 0.58674 0.40533 0.0
C3918 C 0.12206 0.59117 0.41333 0.0
C3919 C 0.13158 0.5806 0.40509 0.0
C3920 C 0.15127 0.57259 0.41896 0.0
H3921 H 0.17652 0.5366 0.39991 0.0
H3922 H 0.16242 0.5443 0.40287 0.0
H3923 H 0.16385 0.56757 0.42364 0.0
H3924 H 0.12526 0.59219 0.42749 0.0
H3925 H 0.13695 0.58093 0.42727 0.0
H3926 H 0.13992 0.56467 0.40067 0.0
C3927 C 0.16857 0.54728 0.40544 0.0
C3928 C 0.15882 0.56699 0.41841 0.0
C3929 C 0.17669 0.54272 0.40388 0.0
C3930 C 0.12677 0.58891 0.42118 0.0
C3931 C 0.1337 0.58253 0.421 0.0
C3932 C 0.14516 0.56561 0.40563 0.0
C3933 C 0.16844 0.55556 0.41014 0.0
C3934 C 0.1599 0.56089 0.41122 0.0
C3935 C 0.13639 0.57839 0.41291 0.0
C3936 C 0.1443 0.57206 0.41255 0.0
H3937 H 0.19085 0.55701 0.41503 0.0
H3938 H 0.17706 0.56525 0.41708 0.0
H3939 H 0.15337 0.55577 0.39917 0.0
H3940 H 0.12088 0.58803 0.39915 0.0
H3941 H 0.13338 0.57779 0.39864 0.0
C3942 C 0.68393 0.95691 0.59617 0.0
C3943 C 0.68469 0.96395 0.60249 0.0
C3944 C 0.67577 0.95231 0.59497 0.0
C3945 C 0.65489 0.94682 0.60703 0.0
H3946 H 0.64663 0.93843 0.58379 0.0
C3947 C 0.62188 0.92647 0.60347 0.0
C3948 C 0.62171 0.91937 0.59719 0.0
C3949 C 0.62901 0.93265 0.60361 0.0
C3950 C 0.64887 0.94062 0.59035 0.0
H3951 H 0.6773 0.97183 0.61229 0.0
H3952 H 0.66303 0.96392 0.61007 0.0
H3953 H 0.66003 0.9479 0.58486 0.0
H3954 H 0.62887 0.91323 0.58612 0.0
H3955 H 0.64143 0.92382 0.58649 0.0
H3956 H 0.64397 0.93936 0.61259 0.0
C3957 C 0.66881 0.96187 0.60614 0.0
C3958 C 0.65656 0.94609 0.59095 0.0
C3959 C 0.67697 0.96649 0.60733 0.0
C3960 C 0.62876 0.91869 0.59097 0.0
C3961 C 0.63595 0.9248 0.59117 0.0
C3962 C 0.64726 0.94129 0.60644 0.0
C3963 C 0.66815 0.95463 0.60005 0.0
C3964 C 0.65969 0.94922 0.5993 0.0
C3965 C 0.63624 0.93183 0.59755 0.0
C3966 C 0.64416 0.93806 0.5981 0.0
H3967 H 0.6897 0.95486 0.59222 0.0
H3968 H 0.67554 0.94674 0.59026 0.0
H3969 H 0.65719 0.94898 0.61358 0.0
H3970 H 0.61648 0.92724 0.60828 0.0
H3971 H 0.62884 0.93807 0.60849 0.0
C3972 C 0.32623 0.45817 0.91131 0.0
C3973 C 0.32726 0.46702 0.90816 0.0
C3974 C 0.33368 0.45235 0.91181 0.0
C3975 C 0.35773 0.45025 0.90387 0.0
H3976 H 0.35873 0.43155 0.92172 0.0
C3977 C 0.38714 0.42502 0.90397 0.0
C3978 C 0.38957 0.4205 0.91185 0.0
C3979 C 0.37956 0.43057 0.90369 0.0
C3980 C 0.35871 0.43683 0.91678 0.0
H3981 H 0.33695 0.4765 0.90279 0.0
H3982 H 0.34981 0.46678 0.90422 0.0
H3983 H 0.3457 0.44133 0.92106 0.0
H3984 H 0.38591 0.4187 0.92579 0.0
H3985 H 0.37323 0.42896 0.92552 0.0
H3986 H 0.37096 0.44637 0.90006 0.0
C3987 C 0.3433 0.46411 0.9061 0.0
C3988 C 0.35106 0.44237 0.91627 0.0
C3989 C 0.33588 0.46982 0.90545 0.0
C3990 C 0.38437 0.42207 0.91958 0.0
C3991 C 0.37691 0.42786 0.91937 0.0
C3992 C 0.36545 0.44494 0.90457 0.0
C3993 C 0.34236 0.45525 0.90924 0.0
C3994 C 0.35043 0.44917 0.90978 0.0
C3995 C 0.37428 0.43212 0.91138 0.0
C3996 C 0.36608 0.43805 0.91096 0.0
H3997 H 0.31971 0.45577 0.9135 0.0
H3998 H 0.33257 0.44556 0.91414 0.0
H3999 H 0.35753 0.4552 0.89861 0.0
H4000 H 0.39105 0.42425 0.89791 0.0
H4001 H 0.37781 0.43348 0.89732 0.0
C4002 C 0.83661 0.04227 0.10438 0.0
C4003 C 0.82801 0.0449 0.1014 0.0
C4004 C 0.84397 0.0481 0.10374 0.0
C4005 C 0.8502 0.07214 0.10056 0.0
H4006 H 0.87354 0.06193 0.09474 0.0
C4007 C 0.88137 0.09408 0.09231 0.0
C4008 C 0.88948 0.0917 0.09653 0.0
C4009 C 0.87385 0.08841 0.09274 0.0
C4010 C 0.86708 0.06488 0.09643 0.0
H4011 H 0.82042 0.05579 0.0955 0.0
H4012 H 0.83333 0.06596 0.09423 0.0
H4013 H 0.8604 0.05213 0.09572 0.0
H4014 H 0.8962 0.08152 0.10436 0.0
H4015 H 0.8831 0.07144 0.10494 0.0
H4016 H 0.85693 0.08492 0.10112 0.0
C4017 C 0.83435 0.05942 0.09719 0.0
C4018 C 0.85953 0.05926 0.09703 0.0
C4019 C 0.82694 0.05358 0.0979 0.0
C4020 C 0.89001 0.08348 0.10105 0.0
C4021 C 0.88253 0.07771 0.10135 0.0
C4022 C 0.85775 0.07777 0.09988 0.0
C4023 C 0.84299 0.05672 0.10004 0.0
C4024 C 0.85099 0.06279 0.09917 0.0
C4025 C 0.87433 0.08016 0.09728 0.0
C4026 C 0.86628 0.0742 0.09786 0.0
H4027 H 0.83763 0.0357 0.10729 0.0
H4028 H 0.85044 0.04584 0.10623 0.0
H4029 H 0.84378 0.07511 0.10235 0.0
H4030 H 0.8808 0.10044 0.08885 0.0
H4031 H 0.86766 0.09045 0.08948 0.0
C4032 C 0.09606 0.18118 0.45303 0.0
C4033 C 0.10256 0.18187 0.45987 0.0
C4034 C 0.09487 0.17313 0.44827 0.0
C4035 C 0.10043 0.14861 0.44813 0.0
H4036 H 0.09659 0.15114 0.42261 0.0
C4037 C 0.10463 0.11932 0.42244 0.0
C4038 C 0.09832 0.11876 0.41541 0.0
C4039 C 0.10454 0.12661 0.42843 0.0
C4040 C 0.09754 0.15029 0.42974 0.0
H4041 H 0.11267 0.17449 0.46728 0.0
H4042 H 0.11069 0.16045 0.4589 0.0
H4043 H 0.09753 0.16449 0.43204 0.0
H4044 H 0.0869 0.12539 0.40925 0.0
H4045 H 0.08672 0.13808 0.41971 0.0
H4046 H 0.10068 0.13435 0.4457 0.0
C4047 C 0.10643 0.16611 0.45727 0.0
C4048 C 0.09806 0.15797 0.43518 0.0
C4049 C 0.10758 0.17418 0.46209 0.0
C4050 C 0.09181 0.12557 0.41463 0.0
C4051 C 0.09176 0.13289 0.42057 0.0
C4052 C 0.09998 0.14091 0.44266 0.0
C4053 C 0.10019 0.16554 0.45016 0.0
C4054 C 0.0995 0.15725 0.44446 0.0
C4055 C 0.09819 0.13356 0.42748 0.0
C4056 C 0.09851 0.14167 0.4334 0.0
H4057 H 0.09195 0.18692 0.45128 0.0
H4058 H 0.08982 0.1729 0.44303 0.0
H4059 H 0.10143 0.14776 0.45526 0.0
H4060 H 0.10969 0.11414 0.42326 0.0
H4061 H 0.10962 0.12695 0.43364 0.0
C4062 C 0.05343 0.91178 0.68801 0.0
C4063 C 0.04457 0.90853 0.6869 0.0
C4064 C 0.05938 0.9121 0.68072 0.0
C4065 C 0.06185 0.90358 0.65701 0.0
H4066 H 0.0805 0.92181 0.6561 0.0
C4067 C 0.08772 0.90349 0.62833 0.0
C4068 C 0.0922 0.91147 0.62593 0.0
C4069 C 0.08198 0.90326 0.63572 0.0
C4070 C 0.07523 0.91676 0.6561 0.0
H4071 H 0.03521 0.90277 0.67724 0.0
H4072 H 0.04516 0.90391 0.66461 0.0
H4073 H 0.0705 0.92129 0.66886 0.0
H4074 H 0.09371 0.92562 0.62939 0.0
H4075 H 0.08313 0.92542 0.64171 0.0
H4076 H 0.06599 0.89951 0.64399 0.0
C4077 C 0.04773 0.906 0.67108 0.0
C4078 C 0.06957 0.91634 0.66359 0.0
C4079 C 0.04189 0.90552 0.67836 0.0
C4080 C 0.09038 0.91933 0.63092 0.0
C4081 C 0.08441 0.91917 0.63818 0.0
C4082 C 0.06729 0.90419 0.64942 0.0
C4083 C 0.0566 0.90927 0.6721 0.0
C4084 C 0.0628 0.90971 0.66419 0.0
C4085 C 0.08022 0.91108 0.64081 0.0
C4086 C 0.07415 0.91073 0.64884 0.0
H4087 H 0.05574 0.91419 0.69447 0.0
H4088 H 0.06616 0.91453 0.68189 0.0
H4089 H 0.05692 0.89822 0.65719 0.0
H4090 H 0.08869 0.89732 0.62456 0.0
H4091 H 0.07911 0.89682 0.63748 0.0
C4092 C 0.41141 0.83422 0.96157 0.0
C4093 C 0.40718 0.82674 0.95752 0.0
C4094 C 0.41227 0.84237 0.95694 0.0
C4095 C 0.40209 0.85485 0.93815 0.0
H4096 H 0.42472 0.86794 0.93732 0.0
C4097 C 0.40821 0.88139 0.9114 0.0
C4098 C 0.41281 0.88935 0.91369 0.0
C4099 C 0.40779 0.87423 0.91736 0.0
C4100 C 0.41831 0.86444 0.93758 0.0
H4101 H 0.40035 0.82205 0.9455 0.0
H4102 H 0.40191 0.8361 0.93746 0.0
H4103 H 0.42336 0.85464 0.94682 0.0
H4104 H 0.4208 0.89596 0.92398 0.0
H4105 H 0.41999 0.88341 0.93452 0.0
H4106 H 0.397 0.86453 0.92896 0.0
C4107 C 0.40456 0.83573 0.94421 0.0
C4108 C 0.41754 0.85681 0.94302 0.0
C4109 C 0.40376 0.82762 0.94879 0.0
C4110 C 0.41721 0.8899 0.92202 0.0
C4111 C 0.41675 0.88271 0.92805 0.0
C4112 C 0.40285 0.86244 0.93277 0.0
C4113 C 0.4088 0.84322 0.94821 0.0
C4114 C 0.40947 0.85182 0.9432 0.0
C4115 C 0.41192 0.87482 0.92583 0.0
C4116 C 0.41102 0.86722 0.93223 0.0
H4117 H 0.41415 0.83375 0.96828 0.0
H4118 H 0.41553 0.84803 0.96022 0.0
H4119 H 0.39572 0.85129 0.93829 0.0
H4120 H 0.40493 0.88067 0.90495 0.0
H4121 H 0.40424 0.86818 0.91529 0.0
C4122 C 0.45453 0.10226 0.18354 0.0
C4123 C 0.46224 0.10778 0.18417 0.0
C4124 C 0.45 0.10108 0.17539 0.0
C4125 C 0.44654 0.11219 0.15366 0.0
H4126 H 0.4355 0.08947 0.14706 0.0
C4127 C 0.42448 0.10993 0.12169 0.0
C4128 C 0.41802 0.10306 0.12083 0.0
C4129 C 0.43068 0.10996 0.12878 0.0
C4130 C 0.43831 0.09597 0.14878 0.0
H4131 H 0.47137 0.11613 0.17651 0.0
H4132 H 0.4636 0.11388 0.16225 0.0
H4133 H 0.44458 0.09048 0.16045 0.0
H4134 H 0.413 0.09082 0.12679 0.0
H4135 H 0.42325 0.09107 0.13934 0.0
H4136 H 0.43999 0.11793 0.14246 0.0
C4137 C 0.46096 0.11061 0.16814 0.0
C4138 C 0.44365 0.0965 0.15651 0.0
C4139 C 0.46549 0.1118 0.17631 0.0
C4140 C 0.41795 0.09618 0.1272 0.0
C4141 C 0.42397 0.09632 0.13444 0.0
C4142 C 0.44102 0.11174 0.14605 0.0
C4143 C 0.45307 0.10534 0.1676 0.0
C4144 C 0.4478 0.10462 0.15909 0.0
C4145 C 0.43046 0.10325 0.13544 0.0
C4146 C 0.43672 0.10363 0.14345 0.0
H4147 H 0.4519 0.0989 0.18939 0.0
H4148 H 0.44392 0.09704 0.17528 0.0
H4149 H 0.44953 0.11861 0.15548 0.0
H4150 H 0.42481 0.11528 0.11682 0.0
H4151 H 0.43563 0.11529 0.1289 0.0
C4152 C 0.09182 0.83527 0.0474 0.0
C4153 C 0.09834 0.82851 0.04861 0.0
C4154 C 0.09149 0.84278 0.05308 0.0
C4155 C 0.10529 0.85537 0.07012 0.0
H4156 H 0.08271 0.86791 0.07388 0.0
C4157 C 0.10408 0.88962 0.08874 0.0
C4158 C 0.0967 0.89132 0.09441 0.0
C4159 C 0.10413 0.88211 0.08303 0.0
C4160 C 0.08908 0.86445 0.07301 0.0
H4161 H 0.10944 0.82433 0.0571 0.0
H4162 H 0.10848 0.83708 0.06732 0.0
H4163 H 0.0829 0.8542 0.06502 0.0
H4164 H 0.08353 0.88642 0.09837 0.0
H4165 H 0.08362 0.87336 0.0885 0.0
H4166 H 0.11136 0.86539 0.07855 0.0
C4167 C 0.10383 0.83678 0.06174 0.0
C4168 C 0.08922 0.85661 0.06777 0.0
C4169 C 0.10427 0.82932 0.05594 0.0
C4170 C 0.08928 0.88542 0.09403 0.0
C4171 C 0.08934 0.87789 0.08834 0.0
C4172 C 0.10512 0.86313 0.0755 0.0
C4173 C 0.09753 0.84372 0.06031 0.0
C4174 C 0.09734 0.85196 0.06618 0.0
C4175 C 0.09681 0.87606 0.08282 0.0
C4176 C 0.09701 0.86781 0.077 0.0
H4177 H 0.08697 0.83483 0.04199 0.0
H4178 H 0.08659 0.84796 0.05161 0.0
H4179 H 0.11172 0.85213 0.06898 0.0
H4180 H 0.10985 0.8941 0.08871 0.0
H4181 H 0.10992 0.88108 0.07875 0.0
C4182 C 0.46795 0.90346 0.33414 0.0
C4183 C 0.46515 0.9066 0.32573 0.0
C4184 C 0.46228 0.90396 0.34155 0.0
C4185 C 0.44075 0.91445 0.34982 0.0
H4186 H 0.44454 0.89729 0.36879 0.0
C4187 C 0.42057 0.91699 0.38301 0.0
C4188 C 0.41891 0.90907 0.38787 0.0
C4189 C 0.42635 0.91692 0.3756 0.0
C4190 C 0.44317 0.90207 0.36355 0.0
H4191 H 0.45395 0.91255 0.31855 0.0
H4192 H 0.44381 0.91293 0.33137 0.0
H4193 H 0.45327 0.89611 0.35537 0.0
H4194 H 0.42249 0.89493 0.38878 0.0
H4195 H 0.43169 0.8946 0.3756 0.0
H4196 H 0.43007 0.9199 0.35771 0.0
C4197 C 0.45056 0.91037 0.33233 0.0
C4198 C 0.44843 0.90152 0.35583 0.0
C4199 C 0.45635 0.91002 0.3249 0.0
C4200 C 0.42333 0.90114 0.38514 0.0
C4201 C 0.42886 0.90101 0.3776 0.0
C4202 C 0.43526 0.91481 0.35744 0.0
C4203 C 0.45346 0.90738 0.34081 0.0
C4204 C 0.44743 0.90777 0.34886 0.0
C4205 C 0.4305 0.90889 0.37266 0.0
C4206 C 0.4364 0.90864 0.36448 0.0
H4207 H 0.47459 0.90059 0.33504 0.0
H4208 H 0.46494 0.90176 0.3479 0.0
H4209 H 0.43979 0.9195 0.34472 0.0
H4210 H 0.41727 0.92324 0.38479 0.0
H4211 H 0.42752 0.92322 0.3722 0.0
C4212 C 0.41117 0.17612 0.54651 0.0
C4213 C 0.40732 0.18378 0.55059 0.0
C4214 C 0.41196 0.16803 0.55124 0.0
C4215 C 0.40213 0.1561 0.57056 0.0
H4216 H 0.42427 0.14226 0.57069 0.0
C4217 C 0.40823 0.12949 0.59726 0.0
C4218 C 0.41249 0.12138 0.59489 0.0
C4219 C 0.40788 0.13664 0.59129 0.0
C4220 C 0.41799 0.14598 0.57063 0.0
H4221 H 0.40111 0.18881 0.56276 0.0
H4222 H 0.40257 0.17485 0.57095 0.0
H4223 H 0.42301 0.1555 0.56111 0.0
H4224 H 0.41992 0.1145 0.58443 0.0
H4225 H 0.41918 0.12702 0.57384 0.0
H4226 H 0.39707 0.14669 0.58002 0.0
C4227 C 0.40497 0.17505 0.56412 0.0
C4228 C 0.41727 0.15357 0.56514 0.0
C4229 C 0.40423 0.18311 0.55944 0.0
C4230 C 0.4166 0.12067 0.58644 0.0
C4231 C 0.41619 0.12785 0.58039 0.0
C4232 C 0.40283 0.14854 0.57599 0.0
C4233 C 0.40881 0.16739 0.56009 0.0
C4234 C 0.4094 0.15883 0.5652 0.0
C4235 C 0.4117 0.13589 0.58271 0.0
C4236 C 0.41083 0.14348 0.57628 0.0
H4237 H 0.41365 0.17642 0.53971 0.0
H4238 H 0.41492 0.16223 0.54793 0.0
H4239 H 0.39589 0.15987 0.57061 0.0
H4240 H 0.40519 0.13033 0.6038 0.0
H4241 H 0.40461 0.1428 0.59343 0.0
C4242 C 0.05376 0.09776 0.82276 0.0
C4243 C 0.04491 0.10099 0.82382 0.0
C4244 C 0.05972 0.09749 0.83007 0.0
C4245 C 0.06227 0.10631 0.85366 0.0
H4246 H 0.08082 0.08808 0.85492 0.0
C4247 C 0.08822 0.10691 0.88236 0.0
C4248 C 0.09265 0.09897 0.88492 0.0
C4249 C 0.08247 0.107 0.87495 0.0
C4250 C 0.07558 0.09313 0.85482 0.0
H4251 H 0.03555 0.10675 0.83342 0.0
H4252 H 0.04553 0.10573 0.84609 0.0
H4253 H 0.0708 0.0884 0.84211 0.0
H4254 H 0.09407 0.08475 0.88174 0.0
H4255 H 0.08346 0.08473 0.8694 0.0
H4256 H 0.06645 0.11059 0.86661 0.0
C4257 C 0.04809 0.10361 0.83964 0.0
C4258 C 0.06991 0.09344 0.8473 0.0
C4259 C 0.04223 0.10402 0.83234 0.0
C4260 C 0.09078 0.09101 0.88008 0.0
C4261 C 0.08479 0.09105 0.87281 0.0
C4262 C 0.06772 0.10582 0.86127 0.0
C4263 C 0.05695 0.10038 0.83866 0.0
C4264 C 0.06317 0.10006 0.84658 0.0
C4265 C 0.08064 0.09908 0.87001 0.0
C4266 C 0.07455 0.09929 0.86197 0.0
H4267 H 0.05606 0.09533 0.81631 0.0
H4268 H 0.0665 0.09508 0.82894 0.0
H4269 H 0.05736 0.11167 0.85337 0.0
H4270 H 0.08924 0.11315 0.88601 0.0
H4271 H 0.07962 0.11341 0.87305 0.0
C4272 C 0.95481 0.41076 0.82458 0.0
C4273 C 0.96346 0.40689 0.82488 0.0
C4274 C 0.9495 0.41138 0.83234 0.0
C4275 C 0.94834 0.40252 0.85594 0.0
H4276 H 0.93029 0.42112 0.85855 0.0
C4277 C 0.92372 0.40187 0.88564 0.0
C4278 C 0.91934 0.40976 0.88852 0.0
C4279 C 0.92924 0.40186 0.87808 0.0
C4280 C 0.93541 0.41597 0.85808 0.0
H4281 H 0.97308 0.40036 0.83366 0.0
H4282 H 0.96434 0.40207 0.84705 0.0
H4283 H 0.93958 0.4207 0.84527 0.0
H4284 H 0.91777 0.424 0.88572 0.0
H4285 H 0.92798 0.42418 0.87312 0.0
H4286 H 0.94481 0.39824 0.869 0.0
C4287 C 0.9614 0.4044 0.84087 0.0
C4288 C 0.94065 0.4156 0.85028 0.0
C4289 C 0.96657 0.40359 0.83312 0.0
C4290 C 0.92103 0.41777 0.88382 0.0
C4291 C 0.9268 0.41782 0.8764 0.0
C4292 C 0.94335 0.40308 0.86384 0.0
C4293 C 0.95273 0.40823 0.84064 0.0
C4294 C 0.94715 0.4088 0.84902 0.0
C4295 C 0.93088 0.40983 0.87328 0.0
C4296 C 0.93666 0.40969 0.86501 0.0
H4297 H 0.95218 0.41344 0.81838 0.0
H4298 H 0.94283 0.41426 0.83176 0.0
H4299 H 0.95307 0.39703 0.8553 0.0
H4300 H 0.92286 0.39559 0.88916 0.0
H4301 H 0.93202 0.39548 0.87594 0.0
C4302 C 0.91271 0.67697 0.04749 0.0
C4303 C 0.90727 0.68393 0.05094 0.0
C4304 C 0.91358 0.66881 0.05211 0.0
C4305 C 0.90199 0.65502 0.06913 0.0
H4306 H 0.92539 0.64421 0.07325 0.0
C4307 C 0.90705 0.62921 0.09682 0.0
C4308 C 0.91246 0.62162 0.09516 0.0
C4309 C 0.90675 0.6363 0.09076 0.0
C4310 C 0.91879 0.64707 0.07206 0.0
H4311 H 0.89831 0.68766 0.06178 0.0
H4312 H 0.89986 0.6736 0.06979 0.0
H4313 H 0.92414 0.65743 0.06364 0.0
H4314 H 0.92198 0.61566 0.08586 0.0
H4315 H 0.92145 0.62812 0.07522 0.0
H4316 H 0.89661 0.6448 0.07757 0.0
C4317 C 0.90345 0.67438 0.06354 0.0
C4318 C 0.91808 0.65464 0.06655 0.0
C4319 C 0.90264 0.6825 0.05899 0.0
C4320 C 0.91776 0.62142 0.08736 0.0
C4321 C 0.91746 0.62855 0.08126 0.0
C4322 C 0.9027 0.64748 0.0746 0.0
C4323 C 0.90892 0.66742 0.06018 0.0
C4324 C 0.90968 0.65883 0.0652 0.0
C4325 C 0.91184 0.63602 0.08284 0.0
C4326 C 0.91112 0.64353 0.07632 0.0
H4327 H 0.91639 0.67789 0.04132 0.0
H4328 H 0.91781 0.66357 0.04931 0.0
H4329 H 0.89539 0.65793 0.06807 0.0
H4330 H 0.90307 0.62972 0.10287 0.0
H4331 H 0.90254 0.64204 0.09233 0.0
C4332 C 0.55367 0.59797 0.32287 0.0
C4333 C 0.54487 0.60136 0.32392 0.0
C4334 C 0.55965 0.59772 0.33016 0.0
C4335 C 0.56243 0.60674 0.35367 0.0
H4336 H 0.58064 0.58818 0.35507 0.0
C4337 C 0.58831 0.60705 0.38246 0.0
C4338 C 0.59265 0.59906 0.38504 0.0
C4339 C 0.58257 0.6072 0.37504 0.0
C4340 C 0.57549 0.59333 0.35494 0.0
H4341 H 0.53567 0.60744 0.33347 0.0
H4342 H 0.54568 0.60645 0.34611 0.0
H4343 H 0.57062 0.58858 0.34227 0.0
H4344 H 0.59391 0.58482 0.38189 0.0
H4345 H 0.58332 0.5849 0.36953 0.0
H4346 H 0.56668 0.61105 0.36659 0.0
C4347 C 0.54818 0.60419 0.33968 0.0
C4348 C 0.56983 0.59368 0.34742 0.0
C4349 C 0.54229 0.60458 0.3324 0.0
C4350 C 0.59069 0.59112 0.38021 0.0
C4351 C 0.58471 0.59121 0.37293 0.0
C4352 C 0.56787 0.60621 0.36129 0.0
C4353 C 0.55697 0.60077 0.33872 0.0
C4354 C 0.5632 0.60042 0.34664 0.0
C4355 C 0.58066 0.59929 0.3701 0.0
C4356 C 0.57458 0.59956 0.36205 0.0
H4357 H 0.55589 0.5954 0.31645 0.0
H4358 H 0.56638 0.59516 0.32904 0.0
H4359 H 0.55762 0.61219 0.35334 0.0
H4360 H 0.58938 0.61328 0.3861 0.0
H4361 H 0.57981 0.61363 0.37313 0.0
C4362 C 0.91347 0.32805 0.45075 0.0
C4363 C 0.90771 0.32778 0.4582 0.0
C4364 C 0.91483 0.33604 0.4461 0.0
C4365 C 0.91176 0.3609 0.44703 0.0
H4366 H 0.91177 0.35827 0.42119 0.0
C4367 C 0.908 0.39074 0.42224 0.0
C4368 C 0.91354 0.39056 0.41462 0.0
C4369 C 0.90787 0.38346 0.42814 0.0
C4370 C 0.91189 0.35912 0.4284 0.0
H4371 H 0.89921 0.33585 0.46687 0.0
H4372 H 0.90154 0.34987 0.4587 0.0
H4373 H 0.91053 0.34499 0.4305 0.0
H4374 H 0.92334 0.38269 0.40724 0.0
H4375 H 0.92307 0.36995 0.41748 0.0
H4376 H 0.91293 0.37512 0.44483 0.0
C4377 C 0.90505 0.34387 0.45648 0.0
C4378 C 0.9112 0.35149 0.43375 0.0
C4379 C 0.9037 0.33584 0.46117 0.0
C4380 C 0.91906 0.38304 0.4131 0.0
C4381 C 0.91884 0.37572 0.41892 0.0
C4382 C 0.9124 0.36856 0.44165 0.0
C4383 C 0.91045 0.34402 0.44874 0.0
C4384 C 0.91118 0.35226 0.44314 0.0
C4385 C 0.91318 0.3758 0.42645 0.0
C4386 C 0.91252 0.36774 0.43227 0.0
H4387 H 0.91683 0.32201 0.44841 0.0
H4388 H 0.91924 0.33594 0.44034 0.0
H4389 H 0.91184 0.36174 0.45424 0.0
H4390 H 0.9037 0.39648 0.42358 0.0
H4391 H 0.9034 0.38371 0.43385 0.0
C4392 C 0.59764 0.67603 0.96219 0.0
C4393 C 0.60313 0.68298 0.9589 0.0
C4394 C 0.59692 0.6678 0.95755 0.0
C4395 C 0.60904 0.65382 0.94087 0.0
H4396 H 0.58581 0.64275 0.9361 0.0
C4397 C 0.60492 0.62731 0.91322 0.0
C4398 C 0.59941 0.61977 0.91473 0.0
C4399 C 0.60505 0.63453 0.91925 0.0
C4400 C 0.59236 0.64568 0.93748 0.0
H4401 H 0.61235 0.68664 0.94829 0.0
H4402 H 0.61107 0.67244 0.94022 0.0
H4403 H 0.58672 0.65617 0.94569 0.0
H4404 H 0.58953 0.61402 0.92372 0.0
H4405 H 0.58977 0.6267 0.93431 0.0
H4406 H 0.61471 0.64346 0.93266 0.0
C4407 C 0.60731 0.67328 0.94638 0.0
C4408 C 0.59288 0.65337 0.94297 0.0
C4409 C 0.60797 0.68148 0.95096 0.0
C4410 C 0.59384 0.61974 0.92234 0.0
C4411 C 0.59397 0.627 0.92841 0.0
C4412 C 0.60853 0.64616 0.93542 0.0
C4413 C 0.60179 0.66633 0.9496 0.0
C4414 C 0.60121 0.65764 0.94456 0.0
C4415 C 0.59968 0.63444 0.92698 0.0
C4416 C 0.60017 0.64211 0.93347 0.0
H4417 H 0.59379 0.677 0.96827 0.0
H4418 H 0.59264 0.66256 0.96022 0.0
H4419 H 0.61559 0.65681 0.94212 0.0
H4420 H 0.60911 0.62769 0.90731 0.0
H4421 H 0.60934 0.64024 0.91779 0.0
C4422 C 0.79601 0.58358 0.84842 0.0
C4423 C 0.79772 0.57662 0.85453 0.0
C4424 C 0.80185 0.59094 0.84777 0.0
C4425 C 0.81911 0.60326 0.86095 0.0
H4426 H 0.82346 0.61551 0.83855 0.0
C4427 C 0.84537 0.63164 0.85772 0.0
C4428 C 0.84334 0.639 0.85226 0.0
C4429 C 0.83965 0.62419 0.85801 0.0
C4430 C 0.82221 0.61223 0.84488 0.0
H4431 H 0.80722 0.57181 0.86445 0.0
H4432 H 0.81757 0.58451 0.86309 0.0
H4433 H 0.81439 0.60179 0.83865 0.0
H4434 H 0.83367 0.64446 0.8429 0.0
H4435 H 0.82354 0.63137 0.8434 0.0
H4436 H 0.82695 0.61367 0.86717 0.0
C4437 C 0.81155 0.58437 0.85897 0.0
C4438 C 0.81703 0.60435 0.84494 0.0
C4439 C 0.80568 0.57702 0.85966 0.0
C4440 C 0.83534 0.63888 0.84721 0.0
C4441 C 0.82962 0.63135 0.84743 0.0
C4442 C 0.8243 0.61112 0.86089 0.0
C4443 C 0.80961 0.59153 0.85315 0.0
C4444 C 0.8154 0.59975 0.85298 0.0
C4445 C 0.83175 0.62389 0.85279 0.0
C4446 C 0.82593 0.6157 0.85286 0.0
H4447 H 0.79005 0.58342 0.84422 0.0
H4448 H 0.80008 0.59632 0.84324 0.0
H4449 H 0.81785 0.60004 0.8673 0.0
H4450 H 0.85151 0.6316 0.86168 0.0
H4451 H 0.84156 0.61855 0.86214 0.0
C4452 C 0.20273 0.07845 0.65349 0.0
C4453 C 0.21065 0.07722 0.65852 0.0
C4454 C 0.19823 0.0867 0.65356 0.0
C4455 C 0.19531 0.1078 0.6665 0.0
H4456 H 0.18469 0.11596 0.64428 0.0
C4457 C 0.17546 0.14157 0.6635 0.0
C4458 C 0.16733 0.14098 0.65866 0.0
C4459 C 0.18155 0.13434 0.66348 0.0
C4460 C 0.18756 0.11377 0.65056 0.0
H4461 H 0.22004 0.08378 0.6676 0.0
H4462 H 0.21218 0.0983 0.66768 0.0
H4463 H 0.19382 0.1024 0.64434 0.0
H4464 H 0.15932 0.13252 0.64986 0.0
H4465 H 0.16988 0.12001 0.64974 0.0
H4466 H 0.18891 0.11918 0.67272 0.0
C4467 C 0.20944 0.0928 0.66372 0.0
C4468 C 0.1928 0.10597 0.6506 0.0
C4469 C 0.21399 0.08451 0.66362 0.0
C4470 C 0.16552 0.13315 0.65366 0.0
C4471 C 0.17161 0.126 0.65356 0.0
C4472 C 0.19005 0.11564 0.66646 0.0
C4473 C 0.20152 0.094 0.65865 0.0
C4474 C 0.19661 0.10277 0.65859 0.0
C4475 C 0.17968 0.12645 0.6585 0.0
C4476 C 0.18597 0.11862 0.65851 0.0
H4477 H 0.20003 0.07304 0.64938 0.0
H4478 H 0.19209 0.0873 0.64967 0.0
H4479 H 0.19809 0.1055 0.67279 0.0
H4480 H 0.17698 0.14751 0.66747 0.0
H4481 H 0.18772 0.13493 0.66732 0.0
C4482 C 0.71404 0.42713 0.34809 0.0
C4483 C 0.71068 0.43439 0.35318 0.0
C4484 C 0.70952 0.4188 0.34797 0.0
C4485 C 0.69295 0.40554 0.36104 0.0
H4486 H 0.68887 0.39242 0.33887 0.0
C4487 C 0.66531 0.37868 0.35785 0.0
C4488 C 0.66693 0.37088 0.35275 0.0
C4489 C 0.67154 0.38573 0.35801 0.0
C4490 C 0.69007 0.39592 0.34514 0.0
H4491 H 0.70006 0.4385 0.36227 0.0
H4492 H 0.69217 0.42418 0.36195 0.0
H4493 H 0.69814 0.40607 0.33885 0.0
H4494 H 0.67639 0.36428 0.34387 0.0
H4495 H 0.68738 0.37668 0.34412 0.0
H4496 H 0.6848 0.39554 0.36733 0.0
C4497 C 0.69831 0.42484 0.35809 0.0
C4498 C 0.69538 0.40375 0.34513 0.0
C4499 C 0.70278 0.43311 0.35818 0.0
C4500 C 0.67501 0.37021 0.3479 0.0
C4501 C 0.68125 0.37733 0.34798 0.0
C4502 C 0.68766 0.39775 0.36105 0.0
C4503 C 0.70161 0.41755 0.35302 0.0
C4504 C 0.69672 0.40876 0.35306 0.0
C4505 C 0.67957 0.38519 0.35304 0.0
C4506 C 0.68599 0.39294 0.35308 0.0
H4507 H 0.72009 0.4279 0.34413 0.0
H4508 H 0.71228 0.41333 0.34402 0.0
H4509 H 0.69402 0.40909 0.36731 0.0
H4510 H 0.65916 0.37937 0.36169 0.0
H4511 H 0.66995 0.39171 0.36188 0.0
C4512 C 0.30409 0.93489 0.14971 0.0
C4513 C 0.29627 0.93533 0.15501 0.0
C4514 C 0.30992 0.9275 0.15027 0.0
C4515 C 0.31563 0.90748 0.16417 0.0
H4516 H 0.32529 0.89837 0.1418 0.0
C4517 C 0.33424 0.87314 0.16144 0.0
C4518 C 0.3422 0.87319 0.15636 0.0
C4519 C 0.32844 0.8806 0.16135 0.0
C4520 C 0.3227 0.90086 0.14812 0.0
H4521 H 0.28881 0.92852 0.16545 0.0
H4522 H 0.29875 0.91558 0.1662 0.0
H4523 H 0.31607 0.91189 0.14183 0.0
H4524 H 0.35021 0.88085 0.14703 0.0
H4525 H 0.34011 0.89377 0.14678 0.0
H4526 H 0.32224 0.89635 0.17044 0.0
C4527 C 0.30044 0.92095 0.16164 0.0
C4528 C 0.31744 0.90866 0.14815 0.0
C4529 C 0.29465 0.92835 0.16113 0.0
C4530 C 0.34412 0.88067 0.15101 0.0
C4531 C 0.3383 0.88804 0.15084 0.0
C4532 C 0.32087 0.89964 0.16414 0.0
C4533 C 0.30807 0.92034 0.15611 0.0
C4534 C 0.31385 0.91211 0.15617 0.0
C4535 C 0.33044 0.88816 0.15608 0.0
C4536 C 0.32451 0.89626 0.15612 0.0
H4537 H 0.30556 0.9401 0.14491 0.0
H4538 H 0.31582 0.92737 0.14603 0.0
H4539 H 0.31308 0.90998 0.1705 0.0
H4540 H 0.33265 0.86746 0.16566 0.0
H4541 H 0.3224 0.88044 0.16541 0.0
C4542 C 0.79457 0.42807 0.66168 0.0
C4543 C 0.79615 0.43507 0.65557 0.0
C4544 C 0.8004 0.42071 0.66218 0.0
C4545 C 0.81726 0.40846 0.64858 0.0
H4546 H 0.82232 0.39617 0.67082 0.0
C4547 C 0.84351 0.38005 0.65086 0.0
C4548 C 0.84166 0.37268 0.65637 0.0
C4549 C 0.83782 0.38752 0.65081 0.0
C4550 C 0.82088 0.39946 0.66453 0.0
H4551 H 0.80543 0.43994 0.6455 0.0
H4552 H 0.81576 0.42724 0.64659 0.0
H4553 H 0.81324 0.40985 0.67099 0.0
H4554 H 0.83241 0.36724 0.66611 0.0
H4555 H 0.82235 0.38036 0.66604 0.0
H4556 H 0.82488 0.39809 0.64211 0.0
C4557 C 0.80985 0.42735 0.65083 0.0
C4558 C 0.81568 0.40732 0.66463 0.0
C4559 C 0.80398 0.4347 0.65029 0.0
C4560 C 0.83391 0.37283 0.66175 0.0
C4561 C 0.82824 0.38038 0.66177 0.0
C4562 C 0.82245 0.40062 0.64848 0.0
C4563 C 0.80803 0.42016 0.65665 0.0
C4564 C 0.81381 0.41194 0.65665 0.0
C4565 C 0.83016 0.38784 0.65632 0.0
C4566 C 0.82435 0.39602 0.65645 0.0
H4567 H 0.78871 0.4282 0.66599 0.0
H4568 H 0.79874 0.41531 0.66671 0.0
H4569 H 0.8158 0.4117 0.64227 0.0
H4570 H 0.84946 0.38008 0.64666 0.0
H4571 H 0.83958 0.39316 0.64661 0.0
C4572 C 0.3054 0.07651 0.35966 0.0
C4573 C 0.29753 0.07594 0.35441 0.0
C4574 C 0.31122 0.0839 0.35894 0.0
C4575 C 0.31688 0.10358 0.34461 0.0
H4576 H 0.3263 0.11344 0.36683 0.0
C4577 C 0.33531 0.13809 0.34639 0.0
C4578 C 0.34312 0.13838 0.35171 0.0
C4579 C 0.32957 0.13058 0.34664 0.0
C4580 C 0.3238 0.11074 0.36055 0.0
H4581 H 0.28996 0.08251 0.34388 0.0
H4582 H 0.29991 0.09547 0.34282 0.0
H4583 H 0.31719 0.09982 0.36708 0.0
H4584 H 0.35096 0.13128 0.36161 0.0
H4585 H 0.34097 0.11825 0.36216 0.0
H4586 H 0.32349 0.11456 0.33809 0.0
C4587 C 0.30164 0.09019 0.34747 0.0
C4588 C 0.31859 0.10289 0.36069 0.0
C4589 C 0.29585 0.08279 0.34816 0.0
C4590 C 0.34496 0.13119 0.35746 0.0
C4591 C 0.33921 0.12376 0.35779 0.0
C4592 C 0.32209 0.11145 0.34447 0.0
C4593 C 0.30932 0.09093 0.35296 0.0
C4594 C 0.31507 0.09918 0.35272 0.0
C4595 C 0.3315 0.12329 0.35231 0.0
C4596 C 0.32564 0.11512 0.35244 0.0
H4597 H 0.30692 0.07139 0.36456 0.0
H4598 H 0.31717 0.08416 0.36315 0.0
H4599 H 0.31438 0.10087 0.33833 0.0
H4600 H 0.33381 0.14354 0.34185 0.0
H4601 H 0.32365 0.13047 0.3424 0.0
C4602 C 0.70278 0.57819 0.15292 0.0
C4603 C 0.71065 0.57688 0.158 0.0
C4604 C 0.69831 0.58644 0.15305 0.0
C4605 C 0.69522 0.60733 0.16623 0.0
H4606 H 0.68487 0.61578 0.14398 0.0
C4607 C 0.6748 0.64082 0.16347 0.0
C4608 C 0.66675 0.64011 0.15853 0.0
C4609 C 0.68106 0.63373 0.16342 0.0
C4610 C 0.68767 0.6135 0.15027 0.0
H4611 H 0.71999 0.58329 0.16723 0.0
H4612 H 0.71216 0.59784 0.16743 0.0
H4613 H 0.69413 0.6023 0.14396 0.0
H4614 H 0.65904 0.63161 0.1495 0.0
H4615 H 0.66988 0.61934 0.14935 0.0
H4616 H 0.68859 0.61854 0.17253 0.0
C4617 C 0.70944 0.59239 0.16338 0.0
C4618 C 0.69298 0.60576 0.15026 0.0
C4619 C 0.71397 0.58409 0.16321 0.0
C4620 C 0.66517 0.63231 0.15339 0.0
C4621 C 0.67143 0.62531 0.15327 0.0
C4622 C 0.68988 0.61512 0.16624 0.0
C4623 C 0.70157 0.59367 0.15826 0.0
C4624 C 0.69667 0.60244 0.15826 0.0
C4625 C 0.67943 0.62588 0.15831 0.0
C4626 C 0.68588 0.61819 0.15827 0.0
H4627 H 0.70009 0.57283 0.14873 0.0
H4628 H 0.6922 0.58712 0.14912 0.0
H4629 H 0.69791 0.60495 0.17252 0.0
H4630 H 0.67615 0.64674 0.16753 0.0
H4631 H 0.68717 0.6344 0.16735 0.0
C4632 C 0.20254 0.93269 0.85852 0.0
C4633 C 0.2104 0.934 0.85345 0.0
C4634 C 0.19809 0.92441 0.85846 0.0
C4635 C 0.19505 0.9034 0.84545 0.0
H4636 H 0.18477 0.89502 0.86772 0.0
C4637 C 0.1747 0.86986 0.84812 0.0
C4638 C 0.1667 0.87046 0.85311 0.0
C4639 C 0.18094 0.87698 0.84822 0.0
C4640 C 0.18755 0.89727 0.86142 0.0
H4641 H 0.21975 0.92755 0.84433 0.0
H4642 H 0.21197 0.91295 0.84426 0.0
H4643 H 0.19396 0.90858 0.86768 0.0
H4644 H 0.15909 0.87881 0.8623 0.0
H4645 H 0.1699 0.89114 0.86252 0.0
H4646 H 0.18846 0.89211 0.83919 0.0
C4647 C 0.20923 0.91842 0.84824 0.0
C4648 C 0.19282 0.90507 0.8614 0.0
C4649 C 0.21373 0.92675 0.84834 0.0
C4650 C 0.16518 0.87819 0.85836 0.0
C4651 C 0.17142 0.88522 0.85853 0.0
C4652 C 0.18974 0.89557 0.84547 0.0
C4653 C 0.20137 0.91714 0.85334 0.0
C4654 C 0.19649 0.90835 0.85339 0.0
C4655 C 0.17936 0.88476 0.85341 0.0
C4656 C 0.18577 0.89252 0.85344 0.0
H4657 H 0.19984 0.93808 0.86264 0.0
H4658 H 0.19199 0.92373 0.86237 0.0
H4659 H 0.19773 0.90576 0.83915 0.0
H4660 H 0.176 0.86399 0.84397 0.0
H4661 H 0.18701 0.87638 0.84424 0.0
C4662 C 0.84759 0.80554 0.57796 0.0
C4663 C 0.85357 0.79823 0.5783 0.0
C4664 C 0.84651 0.81121 0.58543 0.0
C4665 C 0.8511 0.81192 0.61011 0.0
H4666 H 0.84622 0.83738 0.60755 0.0
C4667 C 0.85455 0.83778 0.6392 0.0
C4668 C 0.84785 0.84443 0.63991 0.0
C4669 C 0.85469 0.83186 0.63186 0.0
C4670 C 0.84751 0.83026 0.60837 0.0
H4671 H 0.86342 0.79139 0.58648 0.0
H4672 H 0.86187 0.80141 0.5993 0.0
H4673 H 0.84773 0.82793 0.59423 0.0
H4674 H 0.8357 0.84966 0.63371 0.0
H4675 H 0.83606 0.83946 0.62087 0.0
H4676 H 0.85115 0.81436 0.62427 0.0
C4677 C 0.8577 0.80261 0.59348 0.0
C4678 C 0.84834 0.82482 0.60072 0.0
C4679 C 0.85866 0.79689 0.5861 0.0
C4680 C 0.84111 0.84478 0.63327 0.0
C4681 C 0.84129 0.83893 0.62591 0.0
C4682 C 0.85039 0.81738 0.61774 0.0
C4683 C 0.85149 0.80976 0.59335 0.0
C4684 C 0.85023 0.81557 0.60148 0.0
C4685 C 0.84815 0.83249 0.62505 0.0
C4686 C 0.84863 0.82662 0.61696 0.0
H4687 H 0.84355 0.80669 0.57203 0.0
H4688 H 0.8416 0.81658 0.58507 0.0
H4689 H 0.8523 0.8048 0.61103 0.0
H4690 H 0.85989 0.83736 0.64413 0.0
H4691 H 0.86009 0.82699 0.63135 0.0
C4692 C 0.9345 0.15314 0.30012 0.0
C4693 C 0.93492 0.15815 0.29219 0.0
C4694 C 0.92713 0.154 0.30591 0.0
C4695 C 0.90704 0.16829 0.31112 0.0
H4696 H 0.89797 0.14616 0.32134 0.0
C4697 C 0.87259 0.16623 0.32956 0.0
C4698 C 0.87263 0.16136 0.33758 0.0
C4699 C 0.88008 0.16596 0.32385 0.0
C4700 C 0.90044 0.15243 0.31861 0.0
H4701 H 0.92813 0.16846 0.28449 0.0
H4702 H 0.91521 0.16971 0.29436 0.0
H4703 H 0.91153 0.14583 0.31226 0.0
H4704 H 0.88034 0.1522 0.34578 0.0
H4705 H 0.89332 0.15167 0.33585 0.0
H4706 H 0.89584 0.17485 0.31745 0.0
C4707 C 0.92058 0.16515 0.29617 0.0
C4708 C 0.90827 0.15224 0.31342 0.0
C4709 C 0.92796 0.16433 0.29043 0.0
C4710 C 0.88015 0.15604 0.33965 0.0
C4711 C 0.88756 0.1557 0.33393 0.0
C4712 C 0.89917 0.16847 0.31629 0.0
C4713 C 0.91996 0.15986 0.30391 0.0
C4714 C 0.91171 0.16017 0.30963 0.0
C4715 C 0.88768 0.16072 0.326 0.0
C4716 C 0.8958 0.16053 0.32014 0.0
H4717 H 0.9397 0.14829 0.30172 0.0
H4718 H 0.927 0.14996 0.31191 0.0
H4719 H 0.90952 0.17456 0.30841 0.0
H4720 H 0.86689 0.17043 0.32785 0.0
H4721 H 0.87992 0.16985 0.31775 0.0
C4722 C 0.66258 0.20746 0.08038 0.0
C4723 C 0.65655 0.21472 0.08078 0.0
C4724 C 0.66373 0.20182 0.08778 0.0
C4725 C 0.65914 0.20104 0.11245 0.0
H4726 H 0.66458 0.1757 0.10943 0.0
C4727 C 0.65656 0.17491 0.14104 0.0
C4728 C 0.66345 0.16844 0.14158 0.0
C4729 C 0.65621 0.18089 0.13385 0.0
C4730 C 0.66313 0.18279 0.11038 0.0
H4731 H 0.64667 0.22152 0.08905 0.0
H4732 H 0.64833 0.21155 0.10174 0.0
H4733 H 0.66279 0.18513 0.09629 0.0
H4734 H 0.6757 0.16361 0.13523 0.0
H4735 H 0.67496 0.17391 0.12265 0.0
H4736 H 0.65921 0.19856 0.12657 0.0
C4737 C 0.6525 0.21036 0.09592 0.0
C4738 C 0.66214 0.18823 0.10283 0.0
C4739 C 0.65147 0.21605 0.0886 0.0
C4740 C 0.67016 0.16834 0.13493 0.0
C4741 C 0.66976 0.17425 0.12771 0.0
C4742 C 0.66 0.19557 0.11998 0.0
C4743 C 0.65876 0.20325 0.09571 0.0
C4744 C 0.66007 0.19744 0.10375 0.0
C4745 C 0.66271 0.1805 0.12701 0.0
C4746 C 0.66199 0.18638 0.11903 0.0
H4747 H 0.66662 0.20632 0.07445 0.0
H4748 H 0.66868 0.19649 0.08735 0.0
H4749 H 0.65779 0.20813 0.1135 0.0
H4750 H 0.65124 0.17514 0.14598 0.0
H4751 H 0.65067 0.18561 0.13347 0.0
C4752 C 0.57602 0.85597 0.80426 0.0
C4753 C 0.57465 0.85095 0.79636 0.0
C4754 C 0.58426 0.85568 0.80878 0.0
C4755 C 0.60488 0.8421 0.81177 0.0
H4756 H 0.61368 0.86414 0.82281 0.0
C4757 C 0.63838 0.84422 0.8324 0.0
C4758 C 0.63764 0.8489 0.84058 0.0
C4759 C 0.63131 0.84446 0.82613 0.0
C4760 C 0.61131 0.85791 0.8198 0.0
H4761 H 0.58093 0.8417 0.78699 0.0
H4762 H 0.59544 0.84125 0.7949 0.0
H4763 H 0.60027 0.86452 0.81343 0.0
H4764 H 0.62911 0.85765 0.84852 0.0
H4765 H 0.61689 0.85814 0.83763 0.0
H4766 H 0.61594 0.8355 0.81828 0.0
C4767 C 0.59007 0.84535 0.79762 0.0
C4768 C 0.6036 0.85812 0.81443 0.0
C4769 C 0.58179 0.84567 0.79304 0.0
C4770 C 0.62984 0.85395 0.84228 0.0
C4771 C 0.62287 0.85428 0.83601 0.0
C4772 C 0.61264 0.84189 0.81715 0.0
C4773 C 0.59141 0.85039 0.80553 0.0
C4774 C 0.60015 0.8502 0.8105 0.0
C4775 C 0.62347 0.84951 0.82787 0.0
C4776 C 0.61583 0.84977 0.82139 0.0
H4777 H 0.57073 0.8602 0.80695 0.0
H4778 H 0.58497 0.85954 0.81492 0.0
H4779 H 0.60239 0.83585 0.80889 0.0
H4780 H 0.6443 0.84022 0.83095 0.0
H4781 H 0.632 0.84074 0.8199 0.0
C4782 C 0.84609 0.20193 0.93374 0.0
C4783 C 0.85154 0.20966 0.93439 0.0
C4784 C 0.84524 0.19724 0.92564 0.0
C4785 C 0.85037 0.19823 0.90106 0.0
H4786 H 0.84925 0.1723 0.90336 0.0
C4787 C 0.847 0.17399 0.87028 0.0
C4788 C 0.85096 0.16544 0.87097 0.0
C4789 C 0.84693 0.17989 0.87767 0.0
C4790 C 0.8497 0.17952 0.90254 0.0
H4791 H 0.86006 0.21874 0.92691 0.0
H4792 H 0.85878 0.21044 0.9128 0.0
H4793 H 0.84929 0.18163 0.91665 0.0
H4794 H 0.85845 0.15659 0.87968 0.0
H4795 H 0.85869 0.16691 0.89235 0.0
H4796 H 0.85127 0.19601 0.88691 0.0
C4797 C 0.85503 0.20805 0.91852 0.0
C4798 C 0.84952 0.18493 0.91022 0.0
C4799 C 0.85578 0.21282 0.92662 0.0
C4800 C 0.85521 0.16308 0.87901 0.0
C4801 C 0.85526 0.169 0.88631 0.0
C4802 C 0.85067 0.19279 0.89335 0.0
C4803 C 0.84991 0.20005 0.91796 0.0
C4804 C 0.84985 0.19438 0.90963 0.0
C4805 C 0.85093 0.1774 0.88585 0.0
C4806 C 0.85041 0.18334 0.89398 0.0
H4807 H 0.84259 0.19941 0.93957 0.0
H4808 H 0.84099 0.1913 0.92547 0.0
H4809 H 0.85053 0.20547 0.90029 0.0
H4810 H 0.84364 0.17596 0.86416 0.0
H4811 H 0.84347 0.18627 0.87703 0.0
C4812 C 0.57805 0.15292 0.70791 0.0
C4813 C 0.57588 0.15939 0.71445 0.0
C4814 C 0.58616 0.15339 0.70323 0.0
C4815 C 0.60896 0.16387 0.70291 0.0
H4816 H 0.60725 0.15774 0.6777 0.0
C4817 C 0.63856 0.1686 0.67753 0.0
C4818 C 0.63926 0.16216 0.67065 0.0
C4819 C 0.63125 0.16838 0.68348 0.0
C4820 C 0.60792 0.15935 0.68475 0.0
H4821 H 0.58066 0.1713 0.72143 0.0
H4822 H 0.59488 0.17228 0.71307 0.0
H4823 H 0.59386 0.15726 0.68691 0.0
H4824 H 0.63323 0.15025 0.66476 0.0
H4825 H 0.62071 0.14961 0.67528 0.0
H4826 H 0.6231 0.16601 0.70064 0.0
C4827 C 0.59031 0.16676 0.71165 0.0
C4828 C 0.6002 0.15909 0.69006 0.0
C4829 C 0.58217 0.16622 0.71643 0.0
C4830 C 0.63279 0.15531 0.67 0.0
C4831 C 0.62557 0.15501 0.67598 0.0
C4832 C 0.61674 0.16414 0.69756 0.0
C4833 C 0.59232 0.16043 0.70487 0.0
C4834 C 0.60061 0.1612 0.69924 0.0
C4835 C 0.62456 0.16167 0.68267 0.0
C4836 C 0.61633 0.16175 0.68843 0.0
H4837 H 0.5734 0.14748 0.70636 0.0
H4838 H 0.58757 0.14824 0.69827 0.0
H4839 H 0.60955 0.16553 0.70996 0.0
H4840 H 0.64346 0.174 0.67808 0.0
H4841 H 0.63067 0.17365 0.68849 0.0
C4842 C 0.6588 0.79268 0.41978 0.0
C4843 C 0.65699 0.79615 0.42838 0.0
C4844 C 0.65967 0.79838 0.41244 0.0
C4845 C 0.66293 0.8225 0.40629 0.0
H4846 H 0.65408 0.81417 0.38322 0.0
C4847 C 0.65791 0.84645 0.3766 0.0
C4848 C 0.66081 0.84354 0.36811 0.0
C4849 C 0.65769 0.84052 0.3838 0.0
C4850 C 0.65667 0.81656 0.38959 0.0
H4851 H 0.65479 0.80849 0.43592 0.0
H4852 H 0.65588 0.81839 0.42307 0.0
H4853 H 0.65315 0.80431 0.39611 0.0
H4854 H 0.66561 0.83204 0.36049 0.0
H4855 H 0.66514 0.82161 0.3731 0.0
H4856 H 0.66621 0.83486 0.39976 0.0
C4857 C 0.65684 0.81124 0.42203 0.0
C4858 C 0.65617 0.81089 0.39701 0.0
C4859 C 0.65607 0.80553 0.4294 0.0
C4860 C 0.66328 0.83448 0.36693 0.0
C4861 C 0.66303 0.82852 0.37416 0.0
C4862 C 0.66334 0.8282 0.39889 0.0
C4863 C 0.65862 0.80774 0.41342 0.0
C4864 C 0.65927 0.81378 0.40548 0.0
C4865 C 0.66032 0.83151 0.3827 0.0
C4866 C 0.66018 0.82531 0.39047 0.0
H4867 H 0.6594 0.7855 0.41864 0.0
H4868 H 0.6612 0.7954 0.40598 0.0
H4869 H 0.66556 0.82493 0.41263 0.0
H4870 H 0.65576 0.85333 0.3777 0.0
H4871 H 0.65538 0.843 0.39023 0.0
C4872 C 0.93445 0.85898 0.2071 0.0
C4873 C 0.93674 0.85226 0.21324 0.0
C4874 C 0.9263 0.85862 0.20243 0.0
C4875 C 0.90369 0.84754 0.20158 0.0
H4876 H 0.90456 0.85576 0.17704 0.0
C4877 C 0.87397 0.84327 0.17608 0.0
C4878 C 0.87263 0.85034 0.17005 0.0
C4879 C 0.88139 0.84339 0.18193 0.0
C4880 C 0.90414 0.85354 0.18391 0.0
H4881 H 0.9322 0.83998 0.21949 0.0
H4882 H 0.91797 0.83915 0.2111 0.0
H4883 H 0.91815 0.856 0.18605 0.0
H4884 H 0.87771 0.86314 0.16549 0.0
H4885 H 0.89049 0.86353 0.17582 0.0
H4886 H 0.88961 0.84495 0.19928 0.0
C4887 C 0.92242 0.84481 0.21001 0.0
C4888 C 0.91197 0.85369 0.18912 0.0
C4889 C 0.93058 0.84526 0.2148 0.0
C4890 C 0.87863 0.85763 0.17011 0.0
C4891 C 0.88599 0.85779 0.17597 0.0
C4892 C 0.89582 0.84735 0.19632 0.0
C4893 C 0.92024 0.85143 0.20364 0.0
C4894 C 0.91185 0.85082 0.19807 0.0
C4895 C 0.88759 0.85059 0.18183 0.0
C4896 C 0.89593 0.85047 0.18745 0.0
H4897 H 0.93901 0.86454 0.20587 0.0
H4898 H 0.92477 0.864 0.19783 0.0
H4899 H 0.9033 0.84531 0.20844 0.0
H4900 H 0.86947 0.83752 0.17605 0.0
H4901 H 0.88245 0.8377 0.18628 0.0
C4902 C 0.08337 0.66489 0.21804 0.0
C4903 C 0.07636 0.65934 0.21483 0.0
C4904 C 0.09166 0.6653 0.21352 0.0
C4905 C 0.10556 0.65247 0.19712 0.0
H4906 H 0.11709 0.67539 0.19243 0.0
C4907 C 0.13161 0.6566 0.16911 0.0
C4908 C 0.13921 0.66205 0.17063 0.0
C4909 C 0.12466 0.65622 0.17539 0.0
C4910 C 0.11403 0.66892 0.1938 0.0
H4911 H 0.0727 0.64964 0.20452 0.0
H4912 H 0.08698 0.65039 0.19666 0.0
H4913 H 0.10363 0.67485 0.20188 0.0
H4914 H 0.14554 0.67138 0.17992 0.0
H4915 H 0.13328 0.67078 0.19096 0.0
H4916 H 0.11579 0.64654 0.18893 0.0
C4917 C 0.08615 0.65443 0.20266 0.0
C4918 C 0.10631 0.66861 0.19922 0.0
C4919 C 0.0779 0.65408 0.20712 0.0
C4920 C 0.13977 0.66707 0.17863 0.0
C4921 C 0.13273 0.66678 0.18489 0.0
C4922 C 0.11323 0.65278 0.19172 0.0
C4923 C 0.09315 0.66005 0.20577 0.0
C4924 C 0.10187 0.66039 0.20079 0.0
C4925 C 0.12509 0.66134 0.18334 0.0
C4926 C 0.11746 0.66102 0.18983 0.0
H4927 H 0.08238 0.66905 0.22394 0.0
H4928 H 0.09692 0.66965 0.21612 0.0
H4929 H 0.10246 0.64599 0.19835 0.0
H4930 H 0.13102 0.65265 0.16301 0.0
H4931 H 0.11885 0.65204 0.17391 0.0
C4932 C 0.1497 0.29458 0.92094 0.0
C4933 C 0.15484 0.29587 0.92875 0.0
C4934 C 0.15068 0.3003 0.91365 0.0
C4935 C 0.16032 0.32246 0.90682 0.0
H4936 H 0.1575 0.31213 0.88305 0.0
C4937 C 0.1687 0.34232 0.87489 0.0
C4938 C 0.16204 0.34227 0.86817 0.0
C4939 C 0.1682 0.33639 0.88208 0.0
C4940 C 0.15825 0.31512 0.88964 0.0
H4941 H 0.16498 0.30426 0.9351 0.0
H4942 H 0.16697 0.31415 0.92225 0.0
H4943 H 0.156 0.30255 0.8961 0.0
H4944 H 0.14981 0.33565 0.86358 0.0
H4945 H 0.14905 0.32514 0.87606 0.0
H4946 H 0.1628 0.33499 0.90027 0.0
C4947 C 0.162 0.30882 0.9218 0.0
C4948 C 0.15735 0.30964 0.89716 0.0
C4949 C 0.16089 0.30314 0.92918 0.0
C4950 C 0.15509 0.33584 0.86859 0.0
C4951 C 0.15463 0.32983 0.87576 0.0
C4952 C 0.16135 0.3279 0.89929 0.0
C4953 C 0.15697 0.30742 0.91389 0.0
C4954 C 0.15826 0.31324 0.90587 0.0
C4955 C 0.16108 0.33018 0.88267 0.0
C4956 C 0.16025 0.32431 0.89063 0.0
H4957 H 0.14488 0.2891 0.92048 0.0
H4958 H 0.14648 0.29913 0.90783 0.0
H4959 H 0.16094 0.32554 0.91338 0.0
H4960 H 0.17428 0.34703 0.87467 0.0
H4961 H 0.17337 0.33669 0.88721 0.0
C4962 C 0.4303 0.34642 0.71578 0.0
C4963 C 0.43747 0.35158 0.7124 0.0
C4964 C 0.42197 0.3461 0.71128 0.0
C4965 C 0.40844 0.35889 0.69477 0.0
H4966 H 0.39551 0.33648 0.69095 0.0
C4967 C 0.38147 0.35522 0.66749 0.0
C4968 C 0.37359 0.35029 0.66927 0.0
C4969 C 0.3886 0.35537 0.67359 0.0
C4970 C 0.39898 0.34281 0.69207 0.0
H4971 H 0.44142 0.36058 0.70173 0.0
H4972 H 0.42709 0.35992 0.6939 0.0
H4973 H 0.40926 0.33665 0.70009 0.0
H4974 H 0.36699 0.34169 0.67889 0.0
H4975 H 0.37955 0.34196 0.68965 0.0
H4976 H 0.39832 0.36505 0.68667 0.0
C4977 C 0.42782 0.35615 0.70003 0.0
C4978 C 0.40685 0.34291 0.69731 0.0
C4979 C 0.4361 0.35644 0.70448 0.0
C4980 C 0.37296 0.3456 0.67738 0.0
C4981 C 0.38018 0.34568 0.68348 0.0
C4982 C 0.40062 0.35879 0.68955 0.0
C4983 C 0.42061 0.35102 0.70338 0.0
C4984 C 0.41179 0.35093 0.69856 0.0
C4985 C 0.38809 0.35059 0.68165 0.0
C4986 C 0.39588 0.35073 0.68797 0.0
H4987 H 0.43115 0.34256 0.72184 0.0
H4988 H 0.41656 0.34211 0.71406 0.0
H4989 H 0.41193 0.36524 0.69576 0.0
H4990 H 0.38213 0.35894 0.66132 0.0
H4991 H 0.39462 0.35913 0.67189 0.0
C4992 C 0.15164 0.71637 0.5895 0.0
C4993 C 0.15684 0.71509 0.58174 0.0
C4994 C 0.15249 0.71057 0.59675 0.0
C4995 C 0.16823 0.69521 0.60765 0.0
H4996 H 0.14687 0.68647 0.61972 0.0
C4997 C 0.17013 0.66893 0.63595 0.0
C4998 C 0.16352 0.669 0.6427 0.0
C4999 C 0.16956 0.67477 0.62869 0.0
C5000 C 0.15293 0.68897 0.61656 0.0
H5001 H 0.16692 0.70663 0.57546 0.0
H5002 H 0.16847 0.69646 0.58825 0.0
H5003 H 0.14529 0.69581 0.60652 0.0
H5004 H 0.15134 0.67568 0.64723 0.0
H5005 H 0.15062 0.68617 0.63485 0.0
H5006 H 0.17589 0.68861 0.61779 0.0
C5007 C 0.16375 0.702 0.58868 0.0
C5008 C 0.15201 0.69427 0.60893 0.0
C5009 C 0.16282 0.70776 0.58134 0.0
C5010 C 0.15657 0.67541 0.6422 0.0
C5011 C 0.15608 0.68135 0.63499 0.0
C5012 C 0.16916 0.69 0.61536 0.0
C5013 C 0.1586 0.70337 0.59647 0.0
C5014 C 0.15964 0.69745 0.60438 0.0
C5015 C 0.16245 0.68098 0.62801 0.0
C5016 C 0.16152 0.68678 0.61993 0.0
H5017 H 0.14693 0.72191 0.58997 0.0
H5018 H 0.14848 0.71185 0.60267 0.0
H5019 H 0.17424 0.69767 0.60436 0.0
H5020 H 0.17571 0.66425 0.63619 0.0
H5021 H 0.17458 0.67419 0.62347 0.0
C5022 C 0.35953 0.30608 0.07859 0.0
C5023 C 0.35276 0.29973 0.07654 0.0
C5024 C 0.35877 0.31172 0.08611 0.0
C5025 C 0.34234 0.31917 0.10387 0.0
H5026 H 0.36428 0.32638 0.11609 0.0
C5027 C 0.34157 0.34429 0.13338 0.0
C5028 C 0.34842 0.34417 0.1399 0.0
C5029 C 0.34193 0.33862 0.12591 0.0
C5030 C 0.35805 0.3243 0.11289 0.0
H5031 H 0.33962 0.29479 0.08059 0.0
H5032 H 0.33858 0.30406 0.09388 0.0
H5033 H 0.3652 0.31729 0.10262 0.0
H5034 H 0.36079 0.33755 0.14388 0.0
H5035 H 0.36116 0.32724 0.13112 0.0
H5036 H 0.33517 0.3256 0.11447 0.0
C5037 C 0.34442 0.3049 0.08964 0.0
C5038 C 0.35859 0.31922 0.10498 0.0
C5039 C 0.34509 0.29942 0.08204 0.0
C5040 C 0.35539 0.33783 0.139 0.0
C5041 C 0.35568 0.33201 0.13157 0.0
C5042 C 0.3418 0.32403 0.1119 0.0
C5043 C 0.35129 0.31108 0.09188 0.0
C5044 C 0.35074 0.31662 0.1003 0.0
C5045 C 0.34905 0.33246 0.1248 0.0
C5046 C 0.34964 0.32677 0.1165 0.0
H5047 H 0.36556 0.30653 0.07456 0.0
H5048 H 0.36411 0.31653 0.0874 0.0
H5049 H 0.33611 0.31749 0.10047 0.0
H5050 H 0.33597 0.34893 0.13394 0.0
H5051 H 0.33673 0.33932 0.12088 0.0
C5052 C 0.54224 0.40513 0.17764 0.0
C5053 C 0.54489 0.40821 0.18617 0.0
C5054 C 0.54807 0.40562 0.17036 0.0
C5055 C 0.56982 0.4161 0.16278 0.0
H5056 H 0.5664 0.39908 0.14332 0.0
C5057 C 0.59066 0.41895 0.13008 0.0
C5058 C 0.59254 0.41105 0.12517 0.0
C5059 C 0.58468 0.41881 0.13734 0.0
C5060 C 0.56765 0.40382 0.14871 0.0
H5061 H 0.55601 0.41403 0.1937 0.0
H5062 H 0.56642 0.4144 0.18111 0.0
H5063 H 0.55733 0.39782 0.15653 0.0
H5064 H 0.58914 0.39686 0.12395 0.0
H5065 H 0.57955 0.39643 0.13686 0.0
H5066 H 0.5807 0.42161 0.15524 0.0
C5067 C 0.55966 0.4119 0.17995 0.0
C5068 C 0.56222 0.40323 0.1563 0.0
C5069 C 0.55372 0.41155 0.18725 0.0
C5070 C 0.58812 0.40306 0.12765 0.0
C5071 C 0.58238 0.40287 0.13504 0.0
C5072 C 0.57548 0.41651 0.15528 0.0
C5073 C 0.55691 0.40898 0.17136 0.0
C5074 C 0.5631 0.40942 0.16343 0.0
C5075 C 0.58055 0.41072 0.14005 0.0
C5076 C 0.57446 0.4104 0.14808 0.0
H5077 H 0.53558 0.40231 0.17654 0.0
H5078 H 0.54552 0.40346 0.1639 0.0
H5079 H 0.5707 0.4211 0.16801 0.0
H5080 H 0.59394 0.42524 0.12848 0.0
H5081 H 0.58336 0.42509 0.1408 0.0
C5082 C 0.95423 0.60258 0.68453 0.0
C5083 C 0.96234 0.6075 0.68497 0.0
C5084 C 0.94966 0.60138 0.67643 0.0
C5085 C 0.94877 0.61031 0.65295 0.0
H5086 H 0.93127 0.5911 0.65051 0.0
C5087 C 0.92294 0.6105 0.62395 0.0
C5088 C 0.9183 0.60259 0.62145 0.0
C5089 C 0.92893 0.6106 0.63119 0.0
C5090 C 0.93623 0.59643 0.65085 0.0
H5091 H 0.97218 0.61462 0.67696 0.0
H5092 H 0.96463 0.61194 0.66277 0.0
H5093 H 0.94098 0.59154 0.66335 0.0
H5094 H 0.91676 0.58843 0.62462 0.0
H5095 H 0.92776 0.58835 0.63649 0.0
H5096 H 0.94466 0.61472 0.64007 0.0
C5097 C 0.96151 0.60936 0.66877 0.0
C5098 C 0.94172 0.59682 0.65847 0.0
C5099 C 0.96598 0.61076 0.67694 0.0
C5100 C 0.9202 0.59467 0.6262 0.0
C5101 C 0.92644 0.59469 0.63325 0.0
C5102 C 0.94353 0.60972 0.64516 0.0
C5103 C 0.95315 0.60481 0.66839 0.0
C5104 C 0.94793 0.6039 0.65979 0.0
C5105 C 0.93079 0.6027 0.63603 0.0
C5106 C 0.93698 0.6029 0.64404 0.0
H5107 H 0.9513 0.59972 0.6905 0.0
H5108 H 0.94322 0.59796 0.67662 0.0
H5109 H 0.95334 0.61596 0.65362 0.0
H5110 H 0.92191 0.61672 0.62037 0.0
H5111 H 0.93189 0.617 0.63303 0.0
C5112 C 0.60407 0.32917 0.55561 0.0
C5113 C 0.59866 0.32882 0.54787 0.0
C5114 C 0.60366 0.33657 0.56147 0.0
C5115 C 0.58986 0.35681 0.56737 0.0
H5116 H 0.61239 0.36526 0.57765 0.0
C5117 C 0.59283 0.39085 0.5866 0.0
C5118 C 0.59825 0.39093 0.59434 0.0
C5119 C 0.59275 0.38335 0.58085 0.0
C5120 C 0.60601 0.36295 0.57491 0.0
H5121 H 0.58821 0.33587 0.54055 0.0
H5122 H 0.58776 0.34885 0.55051 0.0
H5123 H 0.6123 0.35191 0.56814 0.0
H5124 H 0.60765 0.38306 0.60219 0.0
H5125 H 0.60749 0.37006 0.59223 0.0
H5126 H 0.58361 0.36794 0.57411 0.0
C5127 C 0.59227 0.34337 0.55214 0.0
C5128 C 0.60595 0.35525 0.56946 0.0
C5129 C 0.59262 0.33595 0.54633 0.0
C5130 C 0.60354 0.38332 0.59619 0.0
C5131 C 0.60345 0.37584 0.59047 0.0
C5132 C 0.58993 0.36454 0.5728 0.0
C5133 C 0.59788 0.34386 0.55973 0.0
C5134 C 0.59788 0.35203 0.56564 0.0
C5135 C 0.59807 0.37574 0.58271 0.0
C5136 C 0.598 0.36769 0.57668 0.0
H5137 H 0.60884 0.32385 0.55703 0.0
H5138 H 0.60796 0.33659 0.56734 0.0
H5139 H 0.58348 0.3545 0.56465 0.0
H5140 H 0.58873 0.39663 0.58493 0.0
H5141 H 0.5886 0.38355 0.57488 0.0
C5142 C 0.43404 0.65159 0.80033 0.0
C5143 C 0.43458 0.65686 0.79258 0.0
C5144 C 0.42668 0.6524 0.80614 0.0
C5145 C 0.40692 0.66694 0.81185 0.0
H5146 H 0.39734 0.64466 0.82129 0.0
C5147 C 0.37247 0.665 0.83031 0.0
C5148 C 0.37244 0.65988 0.83817 0.0
C5149 C 0.37993 0.66475 0.82455 0.0
C5150 C 0.39996 0.65096 0.81877 0.0
H5151 H 0.428 0.66755 0.78521 0.0
H5152 H 0.41509 0.66873 0.79512 0.0
H5153 H 0.41088 0.64434 0.81217 0.0
H5154 H 0.37998 0.65033 0.84606 0.0
H5155 H 0.3929 0.64981 0.83604 0.0
H5156 H 0.39589 0.67352 0.81844 0.0
C5157 C 0.42037 0.664 0.79678 0.0
C5158 C 0.40777 0.65078 0.81356 0.0
C5159 C 0.42774 0.66323 0.79101 0.0
C5160 C 0.37985 0.65434 0.84004 0.0
C5161 C 0.38723 0.65402 0.83427 0.0
C5162 C 0.39906 0.66711 0.81705 0.0
C5163 C 0.41964 0.65848 0.80433 0.0
C5164 C 0.4114 0.65877 0.81006 0.0
C5165 C 0.38742 0.65928 0.8265 0.0
C5166 C 0.39552 0.65912 0.82061 0.0
H5167 H 0.43915 0.6466 0.80177 0.0
H5168 H 0.42646 0.64816 0.812 0.0
H5169 H 0.40955 0.67324 0.80936 0.0
H5170 H 0.36685 0.66938 0.82877 0.0
H5171 H 0.37983 0.66884 0.81859 0.0
C5172 C 0.08137 0.34446 0.29261 0.0
C5173 C 0.07426 0.34972 0.29602 0.0
C5174 C 0.08968 0.34409 0.29713 0.0
C5175 C 0.10333 0.35675 0.3139 0.0
H5176 H 0.11564 0.33409 0.31765 0.0
C5177 C 0.12971 0.35248 0.3416 0.0
C5178 C 0.13749 0.3474 0.33985 0.0
C5179 C 0.12271 0.35283 0.33537 0.0
C5180 C 0.11236 0.34049 0.31655 0.0
H5181 H 0.07041 0.35887 0.30672 0.0
H5182 H 0.0847 0.35812 0.3146 0.0
H5183 H 0.10204 0.33449 0.30833 0.0
H5184 H 0.14407 0.33872 0.33017 0.0
H5185 H 0.13171 0.33929 0.3192 0.0
H5186 H 0.11348 0.36273 0.32223 0.0
C5187 C 0.08394 0.35431 0.30843 0.0
C5188 C 0.10456 0.34072 0.31121 0.0
C5189 C 0.07568 0.35465 0.30396 0.0
C5190 C 0.13816 0.34273 0.33166 0.0
C5191 C 0.13107 0.343 0.32543 0.0
C5192 C 0.11107 0.35651 0.31923 0.0
C5193 C 0.09107 0.34906 0.30509 0.0
C5194 C 0.09984 0.34883 0.30999 0.0
C5195 C 0.12326 0.34807 0.32722 0.0
C5196 C 0.11558 0.34836 0.32078 0.0
H5197 H 0.08048 0.34056 0.28652 0.0
H5198 H 0.09504 0.34 0.29435 0.0
H5199 H 0.10001 0.36315 0.31293 0.0
H5200 H 0.12903 0.35617 0.34784 0.0
H5201 H 0.11675 0.35671 0.33703 0.0
C5202 C 0.34401 0.70331 0.43293 0.0
C5203 C 0.35081 0.70979 0.43427 0.0
C5204 C 0.34331 0.6986 0.42483 0.0
C5205 C 0.35121 0.69817 0.40108 0.0
H5206 H 0.3453 0.67283 0.40297 0.0
C5207 C 0.35558 0.67199 0.37204 0.0
C5208 C 0.3488 0.66541 0.37114 0.0
C5209 C 0.35548 0.67808 0.37927 0.0
C5210 C 0.34686 0.67991 0.40229 0.0
H5211 H 0.36206 0.71658 0.42797 0.0
H5212 H 0.36092 0.70828 0.41386 0.0
H5213 H 0.34568 0.68216 0.41636 0.0
H5214 H 0.33627 0.6605 0.37679 0.0
H5215 H 0.33616 0.671 0.38935 0.0
H5216 H 0.35259 0.69576 0.38696 0.0
C5217 C 0.35603 0.70692 0.41904 0.0
C5218 C 0.34705 0.6853 0.40999 0.0
C5219 C 0.35669 0.71168 0.42715 0.0
C5220 C 0.34173 0.66532 0.3774 0.0
C5221 C 0.34165 0.67135 0.38461 0.0
C5222 C 0.35108 0.69274 0.39336 0.0
C5223 C 0.34944 0.70017 0.41783 0.0
C5224 C 0.34918 0.69452 0.40951 0.0
C5225 C 0.34862 0.67769 0.38574 0.0
C5226 C 0.34885 0.68355 0.39388 0.0
H5227 H 0.33926 0.70181 0.43821 0.0
H5228 H 0.33799 0.69365 0.42409 0.0
H5229 H 0.35279 0.70525 0.40041 0.0
H5230 H 0.36114 0.67223 0.36737 0.0
H5231 H 0.36096 0.68286 0.37997 0.0
C5232 C 0.1247 0.3072 0.01258 0.0
C5233 C 0.12909 0.29919 0.01492 0.0
C5234 C 0.12037 0.31244 0.01905 0.0
C5235 C 0.12029 0.31769 0.04309 0.0
H5236 H 0.09734 0.32886 0.03758 0.0
C5237 C 0.10195 0.3404 0.06886 0.0
C5238 C 0.09742 0.34807 0.06569 0.0
C5239 C 0.10528 0.33388 0.06294 0.0
C5240 C 0.1038 0.3259 0.03921 0.0
H5241 H 0.13234 0.29031 0.02587 0.0
H5242 H 0.12482 0.2996 0.03733 0.0
H5243 H 0.10407 0.31839 0.02693 0.0
H5244 H 0.09272 0.35466 0.05363 0.0
H5245 H 0.09889 0.34356 0.04334 0.0
H5246 H 0.12017 0.32538 0.05526 0.0
C5247 C 0.12473 0.3018 0.03044 0.0
C5248 C 0.10764 0.31985 0.03311 0.0
C5249 C 0.12899 0.29646 0.0239 0.0
C5250 C 0.09626 0.34895 0.05638 0.0
C5251 C 0.0997 0.34248 0.05045 0.0
C5252 C 0.11648 0.3238 0.04918 0.0
C5253 C 0.12036 0.30986 0.02807 0.0
C5254 C 0.11598 0.31574 0.03492 0.0
C5255 C 0.1043 0.33486 0.05364 0.0
C5256 C 0.10821 0.32807 0.0473 0.0
H5257 H 0.12465 0.30943 0.00569 0.0
H5258 H 0.11717 0.31865 0.017 0.0
H5259 H 0.12677 0.31473 0.04465 0.0
H5260 H 0.10314 0.33949 0.07594 0.0
H5261 H 0.10864 0.32805 0.06569 0.0
C5262 C 0.96863 0.87341 0.30086 0.0
C5263 C 0.97134 0.86486 0.2979 0.0
C5264 C 0.96683 0.87502 0.30991 0.0
C5265 C 0.96924 0.86567 0.33295 0.0
H5266 H 0.94808 0.88029 0.33737 0.0
C5267 C 0.9516 0.8686 0.3678 0.0
C5268 C 0.94764 0.87692 0.37002 0.0
C5269 C 0.95545 0.86721 0.35932 0.0
C5270 C 0.95409 0.8763 0.33631 0.0
H5271 H 0.97443 0.85129 0.30201 0.0
H5272 H 0.97121 0.85403 0.3179 0.0
H5273 H 0.95311 0.8778 0.32215 0.0
H5274 H 0.94522 0.89047 0.36536 0.0
H5275 H 0.95204 0.88813 0.35074 0.0
H5276 H 0.97009 0.86411 0.3472 0.0
C5277 C 0.97063 0.85957 0.31327 0.0
C5278 C 0.957 0.87487 0.32753 0.0
C5279 C 0.97247 0.85798 0.30419 0.0
C5280 C 0.94804 0.88393 0.36378 0.0
C5281 C 0.95193 0.88256 0.35538 0.0
C5282 C 0.96632 0.86711 0.34178 0.0
C5283 C 0.96757 0.86806 0.31623 0.0
C5284 C 0.96464 0.86958 0.3257 0.0
C5285 C 0.95547 0.87412 0.35292 0.0
C5286 C 0.95872 0.87249 0.34358 0.0
H5287 H 0.96765 0.87879 0.2961 0.0
H5288 H 0.96468 0.88169 0.31194 0.0
H5289 H 0.97518 0.86159 0.33181 0.0
H5290 H 0.95136 0.86306 0.37246 0.0
H5291 H 0.95807 0.8606 0.35767 0.0
C5292 C 0.3856 0.70515 0.515 0.0
C5293 C 0.37953 0.7116 0.51838 0.0
C5294 C 0.38966 0.69889 0.52066 0.0
C5295 C 0.38754 0.68834 0.54302 0.0
H5296 H 0.41275 0.68244 0.53945 0.0
C5297 C 0.4073 0.66728 0.56866 0.0
C5298 C 0.41326 0.66068 0.56539 0.0
C5299 C 0.40345 0.67359 0.56292 0.0
C5300 C 0.40568 0.68393 0.54049 0.0
H5301 H 0.37285 0.71631 0.53043 0.0
H5302 H 0.38005 0.7055 0.54033 0.0
H5303 H 0.40537 0.69308 0.5295 0.0
H5304 H 0.42 0.65576 0.55345 0.0
H5305 H 0.41313 0.66666 0.5434 0.0
H5306 H 0.38784 0.6792 0.55401 0.0
C5307 C 0.38162 0.70524 0.53326 0.0
C5308 C 0.40144 0.69004 0.53477 0.0
C5309 C 0.37755 0.71151 0.52759 0.0
C5310 C 0.41538 0.66068 0.55621 0.0
C5311 C 0.4115 0.667 0.55045 0.0
C5312 C 0.39178 0.68224 0.54874 0.0
C5313 C 0.38779 0.69888 0.52988 0.0
C5314 C 0.39231 0.69233 0.53596 0.0
C5315 C 0.4054 0.67348 0.55372 0.0
C5316 C 0.40092 0.67997 0.54757 0.0
H5317 H 0.38738 0.70507 0.50797 0.0
H5318 H 0.39428 0.69402 0.51779 0.0
H5319 H 0.38047 0.68981 0.54406 0.0
H5320 H 0.4054 0.66745 0.57565 0.0
H5321 H 0.3989 0.67856 0.56572 0.0
C5322 C 0.53803 0.15207 0.80524 0.0
C5323 C 0.5414 0.14615 0.79867 0.0
C5324 C 0.53975 0.15052 0.81436 0.0
C5325 C 0.55596 0.13786 0.82869 0.0
H5326 H 0.53991 0.1444 0.8481 0.0
C5327 C 0.56348 0.12674 0.86448 0.0
C5328 C 0.56306 0.13334 0.87126 0.0
C5329 C 0.55988 0.12835 0.856 0.0
C5330 C 0.54448 0.14259 0.84274 0.0
H5331 H 0.54863 0.13371 0.79648 0.0
H5332 H 0.55127 0.13077 0.81224 0.0
H5333 H 0.53526 0.14698 0.83257 0.0
H5334 H 0.55804 0.14667 0.87452 0.0
H5335 H 0.55166 0.14945 0.85964 0.0
H5336 H 0.56512 0.13338 0.83877 0.0
C5337 C 0.54765 0.13681 0.81046 0.0
C5338 C 0.54183 0.14408 0.83383 0.0
C5339 C 0.54605 0.13843 0.8014 0.0
C5340 C 0.55847 0.14142 0.86946 0.0
C5341 C 0.55482 0.14302 0.86094 0.0
C5342 C 0.55855 0.13629 0.83753 0.0
C5343 C 0.5448 0.14297 0.81708 0.0
C5344 C 0.54751 0.14164 0.82666 0.0
C5345 C 0.5557 0.13659 0.85404 0.0
C5346 C 0.55283 0.13854 0.84467 0.0
H5347 H 0.53445 0.1581 0.8033 0.0
H5348 H 0.53745 0.15544 0.81922 0.0
H5349 H 0.56069 0.13616 0.82344 0.0
H5350 H 0.56674 0.12034 0.86568 0.0
H5351 H 0.56049 0.12315 0.85091 0.0
C5352 C 0.12138 0.7134 0.49307 0.0
C5353 C 0.13078 0.7132 0.49439 0.0
C5354 C 0.11728 0.70799 0.4865 0.0
C5355 C 0.12231 0.69316 0.46669 0.0
H5356 H 0.09924 0.68257 0.47274 0.0
C5357 C 0.10381 0.66961 0.44187 0.0
C5358 C 0.09876 0.66236 0.44523 0.0
C5359 C 0.10729 0.67625 0.44759 0.0
C5360 C 0.10573 0.68537 0.47096 0.0
H5361 H 0.14326 0.70754 0.48932 0.0
H5362 H 0.13615 0.69785 0.47824 0.0
H5363 H 0.10621 0.69333 0.48292 0.0
H5364 H 0.09337 0.65656 0.45739 0.0
H5365 H 0.09983 0.66785 0.4674 0.0
H5366 H 0.12212 0.68479 0.45502 0.0
C5367 C 0.13189 0.70226 0.48218 0.0
C5368 C 0.10968 0.6917 0.47675 0.0
C5369 C 0.13599 0.70775 0.48866 0.0
C5370 C 0.0973 0.66197 0.45453 0.0
C5371 C 0.10091 0.66855 0.46028 0.0
C5372 C 0.11844 0.68672 0.46097 0.0
C5373 C 0.12246 0.70214 0.48112 0.0
C5374 C 0.11804 0.69569 0.47472 0.0
C5375 C 0.106 0.67578 0.4569 0.0
C5376 C 0.11008 0.68271 0.46301 0.0
H5377 H 0.11711 0.71747 0.49735 0.0
H5378 H 0.11003 0.70829 0.48577 0.0
H5379 H 0.12868 0.69613 0.46478 0.0
H5380 H 0.10526 0.67011 0.4348 0.0
H5381 H 0.11101 0.68176 0.44466 0.0
C5382 C 0.54436 0.87217 0.70841 0.0
C5383 C 0.54059 0.864 0.71118 0.0
C5384 C 0.54602 0.87376 0.69937 0.0
C5385 C 0.54189 0.86521 0.67605 0.0
H5386 H 0.56413 0.87816 0.6716 0.0
C5387 C 0.55915 0.86813 0.64092 0.0
C5388 C 0.56328 0.87642 0.63897 0.0
C5389 C 0.5554 0.86658 0.6494 0.0
C5390 C 0.55783 0.87463 0.6727 0.0
H5391 H 0.53537 0.85113 0.70669 0.0
H5392 H 0.5385 0.85376 0.6908 0.0
H5393 H 0.55941 0.87552 0.68685 0.0
H5394 H 0.56611 0.88979 0.64419 0.0
H5395 H 0.55958 0.88713 0.65885 0.0
H5396 H 0.54054 0.86416 0.66175 0.0
C5397 C 0.54001 0.85906 0.6956 0.0
C5398 C 0.55509 0.87313 0.68149 0.0
C5399 C 0.53821 0.85753 0.70469 0.0
C5400 C 0.56317 0.88326 0.64553 0.0
C5401 C 0.55943 0.88173 0.65395 0.0
C5402 C 0.54469 0.86666 0.6672 0.0
C5403 C 0.54416 0.86712 0.69283 0.0
C5404 C 0.54702 0.8685 0.68333 0.0
C5405 C 0.5557 0.8733 0.65609 0.0
C5406 C 0.55266 0.87149 0.66542 0.0
H5407 H 0.54622 0.87728 0.7133 0.0
H5408 H 0.54896 0.88016 0.69753 0.0
H5409 H 0.53563 0.86164 0.67718 0.0
H5410 H 0.55915 0.86271 0.63603 0.0
H5411 H 0.55261 0.86001 0.65082 0.0
C5412 C 0.37577 0.30544 0.98407 0.0
C5413 C 0.3809 0.30059 0.99032 0.0
C5414 C 0.37998 0.31088 0.97771 0.0
C5415 C 0.40066 0.32396 0.9745 0.0
H5416 H 0.39292 0.32522 0.94978 0.0
C5417 C 0.41832 0.34767 0.94934 0.0
C5418 C 0.41307 0.35135 0.94247 0.0
C5419 C 0.41472 0.34106 0.95494 0.0
C5420 C 0.39509 0.32509 0.95669 0.0
H5421 H 0.39454 0.2975 0.99457 0.0
H5422 H 0.40186 0.30695 0.98344 0.0
H5423 H 0.38598 0.31431 0.9597 0.0
H5424 H 0.39992 0.35132 0.9362 0.0
H5425 H 0.39344 0.34019 0.94619 0.0
H5426 H 0.4095 0.33493 0.97168 0.0
C5427 C 0.39457 0.30657 0.98352 0.0
C5428 C 0.39113 0.31877 0.96236 0.0
C5429 C 0.39036 0.30107 0.98983 0.0
C5430 C 0.40412 0.34848 0.9414 0.0
C5431 C 0.40045 0.34202 0.94709 0.0
C5432 C 0.40452 0.33038 0.96888 0.0
C5433 C 0.38942 0.31167 0.9775 0.0
C5434 C 0.39385 0.31814 0.97134 0.0
C5435 C 0.40571 0.33812 0.9539 0.0
C5436 C 0.40177 0.33109 0.95988 0.0
H5437 H 0.36847 0.30515 0.98419 0.0
H5438 H 0.37582 0.31475 0.97318 0.0
H5439 H 0.40282 0.32372 0.98143 0.0
H5440 H 0.42526 0.3498 0.95025 0.0
H5441 H 0.41906 0.33816 0.95998 0.0
C5442 C 0.96671 0.13695 0.2081 0.0
C5443 C 0.97236 0.14407 0.2108 0.0
C5444 C 0.96401 0.13602 0.19916 0.0
C5445 C 0.96958 0.14367 0.17597 0.0
H5446 H 0.94626 0.13303 0.17073 0.0
C5447 C 0.95318 0.14147 0.14025 0.0
C5448 C 0.94865 0.13339 0.13818 0.0
C5449 C 0.95672 0.14299 0.14886 0.0
C5450 C 0.95283 0.13594 0.17207 0.0
H5451 H 0.97943 0.15594 0.20623 0.0
H5452 H 0.97448 0.15452 0.19069 0.0
H5453 H 0.95069 0.13562 0.18617 0.0
H5454 H 0.94494 0.12029 0.14333 0.0
H5455 H 0.95102 0.12294 0.15826 0.0
H5456 H 0.97152 0.14416 0.16174 0.0
C5457 C 0.97233 0.14947 0.19541 0.0
C5458 C 0.95541 0.13741 0.18096 0.0
C5459 C 0.97514 0.15033 0.20435 0.0
C5460 C 0.94818 0.12668 0.14475 0.0
C5461 C 0.95166 0.1282 0.15332 0.0
C5462 C 0.96693 0.1423 0.16704 0.0
C5463 C 0.96677 0.14226 0.19266 0.0
C5464 C 0.96388 0.14117 0.18308 0.0
C5465 C 0.95576 0.13645 0.15557 0.0
C5466 C 0.95857 0.1383 0.16499 0.0
H5467 H 0.96457 0.13192 0.21286 0.0
H5468 H 0.95991 0.13025 0.19734 0.0
H5469 H 0.97619 0.14648 0.17728 0.0
H5470 H 0.95364 0.14678 0.13535 0.0
H5471 H 0.95985 0.14941 0.15038 0.0
C5472 C 0.02546 0.13447 0.30212 0.0
C5473 C 0.0218 0.1301 0.29453 0.0
C5474 C 0.03179 0.13017 0.30752 0.0
C5475 C 0.04854 0.11225 0.30925 0.0
H5476 H 0.04081 0.11128 0.33399 0.0
C5477 C 0.06839 0.09202 0.33602 0.0
C5478 C 0.06877 0.09568 0.34472 0.0
C5479 C 0.0627 0.09577 0.32953 0.0
C5480 C 0.0432 0.11159 0.32716 0.0
H5481 H 0.02263 0.11801 0.28632 0.0
H5482 H 0.03399 0.11064 0.29566 0.0
H5483 H 0.03163 0.11913 0.32308 0.0
H5484 H 0.0636 0.10625 0.35335 0.0
H5485 H 0.05395 0.11289 0.34211 0.0
H5486 H 0.06028 0.10498 0.31337 0.0
C5487 C 0.03175 0.11735 0.29746 0.0
C5488 C 0.03788 0.11606 0.32089 0.0
C5489 C 0.02527 0.1216 0.29209 0.0
C5490 C 0.06334 0.10315 0.34677 0.0
C5491 C 0.05777 0.10695 0.34029 0.0
C5492 C 0.05397 0.10789 0.31557 0.0
C5493 C 0.0348 0.12147 0.30541 0.0
C5494 C 0.04051 0.11651 0.31189 0.0
C5495 C 0.05734 0.10334 0.33156 0.0
C5496 C 0.05141 0.10757 0.32465 0.0
H5497 H 0.02321 0.14113 0.30407 0.0
H5498 H 0.03418 0.13358 0.31351 0.0
H5499 H 0.05072 0.11251 0.30234 0.0
H5500 H 0.07246 0.08623 0.33425 0.0
H5501 H 0.06248 0.09268 0.32295 0.0
C5502 C 0.14029 0.8031 0.53796 0.0
C5503 C 0.14468 0.79663 0.54324 0.0
C5504 C 0.13963 0.81207 0.54084 0.0
C5505 C 0.14031 0.82615 0.56134 0.0
H5506 H 0.14315 0.84593 0.5448 0.0
C5507 C 0.14088 0.8627 0.57409 0.0
C5508 C 0.13631 0.86926 0.56911 0.0
C5509 C 0.14237 0.8541 0.57055 0.0
C5510 C 0.14223 0.84049 0.54949 0.0
H5511 H 0.15197 0.79466 0.55567 0.0
H5512 H 0.15075 0.81026 0.56072 0.0
H5513 H 0.14485 0.83044 0.53945 0.0
H5514 H 0.12998 0.87201 0.55635 0.0
H5515 H 0.13245 0.85689 0.55016 0.0
H5516 H 0.13757 0.8361 0.57135 0.0
C5517 C 0.14772 0.80836 0.55438 0.0
C5518 C 0.14323 0.8316 0.54643 0.0
C5519 C 0.14841 0.7994 0.55148 0.0
C5520 C 0.13355 0.86711 0.56034 0.0
C5521 C 0.13498 0.85844 0.5568 0.0
C5522 C 0.13929 0.83501 0.56439 0.0
C5523 C 0.14329 0.81482 0.54911 0.0
C5524 C 0.14231 0.82431 0.55233 0.0
C5525 C 0.13927 0.85177 0.56194 0.0
C5526 C 0.14028 0.84232 0.55854 0.0
H5527 H 0.13718 0.80122 0.53166 0.0
H5528 H 0.13605 0.81681 0.53667 0.0
H5529 H 0.13937 0.82072 0.56604 0.0
H5530 H 0.14327 0.8642 0.58079 0.0
H5531 H 0.14592 0.84926 0.57462 0.0
C5532 C 0.49428 0.8844 0.79951 0.0
C5533 C 0.49076 0.87885 0.79266 0.0
C5534 C 0.48857 0.88853 0.80576 0.0
C5535 C 0.46546 0.88736 0.8153 0.0
H5536 H 0.47051 0.91188 0.8229 0.0
C5537 C 0.44019 0.90737 0.83691 0.0
C5538 C 0.44362 0.91283 0.84387 0.0
C5539 C 0.44592 0.90357 0.83051 0.0
C5540 C 0.46904 0.90499 0.82093 0.0
H5541 H 0.47841 0.87317 0.78721 0.0
H5542 H 0.46847 0.88051 0.79797 0.0
H5543 H 0.48049 0.90443 0.81223 0.0
H5544 H 0.45588 0.91875 0.8493 0.0
H5545 H 0.4659 0.91189 0.8383 0.0
H5546 H 0.45405 0.88789 0.82401 0.0
C5547 C 0.47566 0.88161 0.79856 0.0
C5548 C 0.47478 0.90071 0.8148 0.0
C5549 C 0.48137 0.87747 0.79232 0.0
C5550 C 0.45297 0.9145 0.84413 0.0
C5551 C 0.45873 0.91064 0.83773 0.0
C5552 C 0.45973 0.89163 0.82142 0.0
C5553 C 0.47918 0.88725 0.80534 0.0
C5554 C 0.47307 0.89183 0.8119 0.0
C5555 C 0.45529 0.90503 0.83089 0.0
C5556 C 0.46143 0.90052 0.82432 0.0
H5557 H 0.50145 0.88572 0.79995 0.0
H5558 H 0.49155 0.89272 0.81095 0.0
H5559 H 0.464 0.88047 0.81335 0.0
H5560 H 0.43307 0.90581 0.83651 0.0
H5561 H 0.44299 0.89942 0.82526 0.0
C5562 C 0.35966 0.2141 0.04479 0.0
C5563 C 0.36601 0.21749 0.03871 0.0
C5564 C 0.36008 0.20511 0.04759 0.0
C5565 C 0.37052 0.18292 0.04157 0.0
H5566 H 0.36422 0.17684 0.06593 0.0
C5567 C 0.37974 0.14878 0.05777 0.0
C5568 C 0.37345 0.14494 0.0636 0.0
C5569 C 0.37823 0.15735 0.05422 0.0
C5570 C 0.3659 0.1784 0.05907 0.0
H5571 H 0.37795 0.21416 0.03104 0.0
H5572 H 0.37882 0.19867 0.03604 0.0
H5573 H 0.36283 0.19234 0.06097 0.0
H5574 H 0.36063 0.14682 0.07021 0.0
H5575 H 0.3579 0.16175 0.06393 0.0
H5576 H 0.3738 0.16898 0.03977 0.0
C5577 C 0.37332 0.2028 0.03846 0.0
C5578 C 0.36509 0.18731 0.0562 0.0
C5579 C 0.37285 0.21173 0.0356 0.0
C5580 C 0.36554 0.14967 0.06568 0.0
C5581 C 0.36403 0.15823 0.06215 0.0
C5582 C 0.3714 0.17402 0.04446 0.0
C5583 C 0.36691 0.19932 0.04444 0.0
C5584 C 0.36745 0.18973 0.04743 0.0
C5585 C 0.37043 0.16225 0.05648 0.0
C5586 C 0.36915 0.17165 0.05326 0.0
H5587 H 0.35426 0.21834 0.04726 0.0
H5588 H 0.35494 0.20269 0.0521 0.0
H5589 H 0.37222 0.18443 0.0347 0.0
H5590 H 0.38593 0.14527 0.05618 0.0
H5591 H 0.38334 0.16027 0.04996 0.0
C5592 C 0.01695 0.88419 0.20861 0.0
C5593 C 0.02076 0.88018 0.21622 0.0
C5594 C 0.0224 0.88846 0.20227 0.0
C5595 C 0.04583 0.89766 0.19912 0.0
H5596 H 0.03814 0.89867 0.17438 0.0
C5597 C 0.06628 0.91785 0.17293 0.0
C5598 C 0.06646 0.91459 0.16408 0.0
C5599 C 0.06044 0.91406 0.17926 0.0
C5600 C 0.04051 0.89837 0.18122 0.0
H5601 H 0.03338 0.87723 0.22291 0.0
H5602 H 0.04289 0.88433 0.21176 0.0
H5603 H 0.02901 0.8907 0.1851 0.0
H5604 H 0.06072 0.90468 0.15499 0.0
H5605 H 0.05087 0.89789 0.16596 0.0
H5606 H 0.05763 0.90484 0.19511 0.0
C5607 C 0.03566 0.88451 0.21079 0.0
C5608 C 0.03513 0.89391 0.18747 0.0
C5609 C 0.0302 0.88036 0.2172 0.0
C5610 C 0.06065 0.90747 0.16171 0.0
C5611 C 0.05494 0.90358 0.16804 0.0
C5612 C 0.05131 0.90197 0.19283 0.0
C5613 C 0.03186 0.88874 0.20326 0.0
C5614 C 0.03768 0.89347 0.19654 0.0
C5615 C 0.05474 0.90678 0.17694 0.0
C5616 C 0.04876 0.9024 0.18376 0.0
H5617 H 0.00971 0.8843 0.20769 0.0
H5618 H 0.01912 0.89174 0.19671 0.0
H5619 H 0.04801 0.89768 0.20603 0.0
H5620 H 0.0706 0.92339 0.17495 0.0
H5621 H 0.0604 0.91689 0.18595 0.0
C5622 C 0.35802 0.799 0.46193 0.0
C5623 C 0.36333 0.7944 0.46822 0.0
C5624 C 0.3594 0.80813 0.4603 0.0
C5625 C 0.36925 0.82941 0.46852 0.0
H5626 H 0.37132 0.83435 0.44318 0.0
C5627 C 0.37952 0.86466 0.45428 0.0
C5628 C 0.37574 0.86707 0.446 0.0
C5629 C 0.37795 0.85606 0.45785 0.0
C5630 C 0.37061 0.83318 0.45028 0.0
H5631 H 0.37387 0.79604 0.47818 0.0
H5632 H 0.37622 0.81216 0.47537 0.0
H5633 H 0.3685 0.81911 0.44808 0.0
H5634 H 0.3669 0.86267 0.43529 0.0
H5635 H 0.36386 0.84796 0.44159 0.0
H5636 H 0.37121 0.84359 0.47068 0.0
C5637 C 0.37102 0.80859 0.47167 0.0
C5638 C 0.36904 0.82439 0.45309 0.0
C5639 C 0.36967 0.79937 0.47328 0.0
C5640 C 0.37003 0.86093 0.4416 0.0
C5641 C 0.36836 0.85245 0.4452 0.0
C5642 C 0.37074 0.8383 0.46568 0.0
C5643 C 0.36609 0.81299 0.46494 0.0
C5644 C 0.36821 0.82239 0.46222 0.0
C5645 C 0.37249 0.84977 0.45324 0.0
C5646 C 0.3713 0.84032 0.4565 0.0
H5647 H 0.35291 0.79546 0.45808 0.0
H5648 H 0.35533 0.81136 0.45523 0.0
H5649 H 0.36866 0.82807 0.4756 0.0
H5650 H 0.38397 0.86927 0.4578 0.0
H5651 H 0.38128 0.85427 0.46403 0.0
C5652 C 0.48619 0.12346 0.71892 0.0
C5653 C 0.49086 0.13151 0.71716 0.0
C5654 C 0.48054 0.11952 0.71247 0.0
C5655 C 0.46822 0.12436 0.69126 0.0
H5656 H 0.46744 0.09833 0.68918 0.0
C5657 C 0.45024 0.1063 0.66178 0.0
C5658 C 0.44484 0.09879 0.66379 0.0
C5659 C 0.45593 0.11014 0.66826 0.0
C5660 C 0.46751 0.1056 0.68972 0.0
H5661 H 0.49308 0.14176 0.70714 0.0
H5662 H 0.48342 0.13477 0.69581 0.0
H5663 H 0.47711 0.1054 0.70042 0.0
H5664 H 0.4414 0.08929 0.67417 0.0
H5665 H 0.45137 0.09597 0.68549 0.0
H5666 H 0.45868 0.12453 0.68047 0.0
C5667 C 0.48403 0.13156 0.70226 0.0
C5668 C 0.47305 0.10968 0.6962 0.0
C5669 C 0.48968 0.13552 0.70873 0.0
C5670 C 0.44542 0.0951 0.67241 0.0
C5671 C 0.45119 0.0989 0.67888 0.0
C5672 C 0.46272 0.12028 0.68475 0.0
C5673 C 0.47941 0.12347 0.70402 0.0
C5674 C 0.47349 0.11912 0.69707 0.0
C5675 C 0.45643 0.10654 0.67692 0.0
C5676 C 0.46229 0.11085 0.68389 0.0
H5677 H 0.487 0.12009 0.72527 0.0
H5678 H 0.47701 0.11338 0.71416 0.0
H5679 H 0.46822 0.13163 0.69181 0.0
H5680 H 0.44991 0.10938 0.65524 0.0
H5681 H 0.45995 0.11594 0.66647 0.0
C5682 C 0.13668 0.20857 0.9708 0.0
C5683 C 0.14309 0.21448 0.96713 0.0
C5684 C 0.13621 0.19957 0.968 0.0
C5685 C 0.14281 0.18418 0.94946 0.0
H5686 H 0.13752 0.1656 0.96676 0.0
C5687 C 0.1431 0.14679 0.93912 0.0
C5688 C 0.13637 0.14119 0.94263 0.0
C5689 C 0.1445 0.15543 0.94262 0.0
C5690 C 0.13891 0.1707 0.96181 0.0
H5691 H 0.15403 0.21548 0.95761 0.0
H5692 H 0.15326 0.19976 0.95276 0.0
H5693 H 0.13881 0.18123 0.97168 0.0
H5694 H 0.12593 0.14012 0.95264 0.0
H5695 H 0.12816 0.15536 0.95864 0.0
H5696 H 0.14281 0.17372 0.93957 0.0
C5697 C 0.14851 0.20212 0.95774 0.0
C5698 C 0.13965 0.17969 0.96464 0.0
C5699 C 0.14896 0.21115 0.96052 0.0
C5700 C 0.13121 0.1443 0.94988 0.0
C5701 C 0.13252 0.15302 0.95332 0.0
C5702 C 0.14205 0.17521 0.94663 0.0
C5703 C 0.14213 0.19619 0.96146 0.0
C5704 C 0.14158 0.18657 0.95849 0.0
C5705 C 0.13909 0.15878 0.94962 0.0
C5706 C 0.14007 0.16833 0.95275 0.0
H5707 H 0.13193 0.21093 0.97578 0.0
H5708 H 0.13108 0.19529 0.97089 0.0
H5709 H 0.14415 0.18928 0.9445 0.0
H5710 H 0.1472 0.1445 0.93357 0.0
H5711 H 0.14978 0.15953 0.93975 0.0
C5712 C 0.29712 0.02395 0.11963 0.0
C5713 C 0.29699 0.02313 0.129 0.0
C5714 C 0.30251 0.03047 0.11553 0.0
C5715 C 0.31531 0.05154 0.1195 0.0
H5716 H 0.33041 0.0428 0.10017 0.0
C5717 C 0.34546 0.07234 0.10685 0.0
C5718 C 0.34771 0.0719 0.09776 0.0
C5719 C 0.33892 0.06659 0.11037 0.0
C5720 C 0.32616 0.04544 0.10544 0.0
H5721 H 0.30203 0.02891 0.14141 0.0
H5722 H 0.31146 0.04024 0.13426 0.0
H5723 H 0.3192 0.03287 0.10672 0.0
H5724 H 0.34499 0.06519 0.08516 0.0
H5725 H 0.33329 0.05529 0.09118 0.0
H5726 H 0.32214 0.06414 0.11819 0.0
C5727 C 0.3074 0.03583 0.13008 0.0
C5728 C 0.31972 0.03971 0.10921 0.0
C5729 C 0.30205 0.02928 0.13418 0.0
C5730 C 0.34335 0.0656 0.09221 0.0
C5731 C 0.33669 0.05991 0.0957 0.0
C5732 C 0.32167 0.0573 0.11566 0.0
C5733 C 0.30787 0.03635 0.1207 0.0
C5734 C 0.31429 0.04266 0.11635 0.0
C5735 C 0.33436 0.06034 0.10484 0.0
C5736 C 0.32728 0.05431 0.10864 0.0
H5737 H 0.29337 0.0193 0.11542 0.0
H5738 H 0.30262 0.03079 0.1083 0.0
H5739 H 0.31115 0.05405 0.12492 0.0
H5740 H 0.34881 0.07712 0.11125 0.0
H5741 H 0.33753 0.06701 0.11747 0.0
C5742 C 0.80433 0.48371 0.87603 0.0
C5743 C 0.79891 0.48946 0.88125 0.0
C5744 C 0.80983 0.47725 0.88004 0.0
C5745 C 0.82028 0.47177 0.90212 0.0
H5746 H 0.8275 0.45027 0.88925 0.0
C5747 C 0.84962 0.44946 0.9148 0.0
C5748 C 0.84954 0.4402 0.91271 0.0
C5749 C 0.84312 0.45524 0.91119 0.0
C5750 C 0.82549 0.45613 0.89308 0.0
H5751 H 0.7947 0.4925 0.89483 0.0
H5752 H 0.80385 0.48092 0.90177 0.0
H5753 H 0.81614 0.45994 0.88292 0.0
H5754 H 0.84248 0.42987 0.90508 0.0
H5755 H 0.83091 0.43968 0.8994 0.0
H5756 H 0.82923 0.46768 0.91253 0.0
C5757 C 0.80415 0.48163 0.89458 0.0
C5758 C 0.81904 0.46183 0.88931 0.0
C5759 C 0.79874 0.48819 0.89057 0.0
C5760 C 0.84271 0.4369 0.90703 0.0
C5761 C 0.83613 0.44263 0.90357 0.0
C5762 C 0.82658 0.46596 0.90599 0.0
C5763 C 0.80996 0.47622 0.8894 0.0
C5764 C 0.81641 0.46981 0.89371 0.0
C5765 C 0.83626 0.45192 0.9055 0.0
C5766 C 0.82936 0.45807 0.90149 0.0
H5767 H 0.80452 0.48435 0.86882 0.0
H5768 H 0.81422 0.47332 0.87577 0.0
H5769 H 0.8186 0.4779 0.9057 0.0
H5770 H 0.85471 0.45227 0.91922 0.0
H5771 H 0.84362 0.46234 0.91278 0.0
C5772 C 0.80246 0.5441 0.15525 0.0
C5773 C 0.79665 0.54195 0.14809 0.0
C5774 C 0.81168 0.54553 0.1538 0.0
C5775 C 0.82714 0.55323 0.13641 0.0
H5776 H 0.84597 0.54446 0.1521 0.0
C5777 C 0.86434 0.56193 0.12953 0.0
C5778 C 0.87005 0.56358 0.13687 0.0
C5779 C 0.85576 0.55821 0.13075 0.0
C5780 C 0.84081 0.54708 0.1477 0.0
H5781 H 0.79601 0.53942 0.13381 0.0
H5782 H 0.81211 0.54203 0.13124 0.0
H5783 H 0.83035 0.5399 0.15455 0.0
H5784 H 0.87133 0.56246 0.15124 0.0
H5785 H 0.85624 0.55626 0.15346 0.0
H5786 H 0.83739 0.56072 0.12977 0.0
C5787 C 0.80953 0.54258 0.138 0.0
C5788 C 0.83184 0.54441 0.14909 0.0
C5789 C 0.80032 0.54101 0.13947 0.0
C5790 C 0.86709 0.5612 0.14545 0.0
C5791 C 0.85843 0.55761 0.1467 0.0
C5792 C 0.83606 0.556 0.13509 0.0
C5793 C 0.81529 0.54499 0.14512 0.0
C5794 C 0.8249 0.54746 0.14346 0.0
C5795 C 0.85256 0.55619 0.13938 0.0
C5796 C 0.84306 0.55299 0.14071 0.0
H5797 H 0.79984 0.54483 0.16198 0.0
H5798 H 0.81591 0.54742 0.15942 0.0
H5799 H 0.82194 0.55584 0.13204 0.0
H5800 H 0.86649 0.56361 0.12282 0.0
H5801 H 0.85162 0.55699 0.12489 0.0
C5802 C 0.70602 0.52024 0.37467 0.0
C5803 C 0.71484 0.51982 0.37814 0.0
C5804 C 0.69958 0.52595 0.37854 0.0
C5805 C 0.69718 0.546 0.39343 0.0
H5806 H 0.67268 0.53735 0.39615 0.0
C5807 C 0.67046 0.56636 0.41327 0.0
C5808 C 0.66164 0.5665 0.4098 0.0
C5809 C 0.67694 0.56049 0.4097 0.0
C5810 C 0.67946 0.53993 0.39536 0.0
H5811 H 0.7237 0.5251 0.38851 0.0
H5812 H 0.71252 0.53503 0.3952 0.0
H5813 H 0.68391 0.52772 0.3891 0.0
H5814 H 0.65277 0.56058 0.3998 0.0
H5815 H 0.66401 0.55045 0.39357 0.0
H5816 H 0.69272 0.55824 0.39962 0.0
C5817 C 0.71061 0.53104 0.38939 0.0
C5818 C 0.68592 0.53439 0.3913 0.0
C5819 C 0.71704 0.52534 0.38554 0.0
C5820 C 0.65944 0.56055 0.40276 0.0
C5821 C 0.66592 0.55472 0.39917 0.0
C5822 C 0.69072 0.55156 0.39746 0.0
C5823 C 0.70177 0.5314 0.38599 0.0
C5824 C 0.69487 0.53735 0.39026 0.0
C5825 C 0.67478 0.55464 0.40255 0.0
C5826 C 0.68175 0.54861 0.39847 0.0
H5827 H 0.70411 0.5162 0.36891 0.0
H5828 H 0.69288 0.52615 0.37564 0.0
H5829 H 0.70397 0.54856 0.39264 0.0
H5830 H 0.67236 0.57078 0.41876 0.0
H5831 H 0.68364 0.56052 0.4126 0.0
C5832 C 0.21175 0.96643 0.13928 0.0
C5833 C 0.21419 0.97388 0.14464 0.0
C5834 C 0.20278 0.96356 0.13875 0.0
C5835 C 0.17925 0.97114 0.14216 0.0
H5836 H 0.17425 0.94554 0.14179 0.0
C5837 C 0.14254 0.9568 0.14038 0.0
C5838 C 0.14122 0.94861 0.1357 0.0
C5839 C 0.15127 0.96016 0.142 0.0
C5840 C 0.17548 0.95272 0.14172 0.0
H5841 H 0.20902 0.98402 0.15379 0.0
H5842 H 0.19333 0.97901 0.15284 0.0
H5843 H 0.18965 0.95076 0.1435 0.0
H5844 H 0.14844 0.93757 0.12925 0.0
H5845 H 0.16321 0.94375 0.1313 0.0
H5846 H 0.16508 0.9731 0.14015 0.0
C5847 C 0.19838 0.97548 0.14895 0.0
C5848 C 0.18436 0.95572 0.14276 0.0
C5849 C 0.20738 0.97834 0.1495 0.0
C5850 C 0.14894 0.94401 0.13264 0.0
C5851 C 0.15758 0.94747 0.13405 0.0
C5852 C 0.17034 0.96813 0.14101 0.0
C5853 C 0.19596 0.96805 0.14356 0.0
C5854 C 0.18639 0.96496 0.14289 0.0
C5855 C 0.15893 0.95551 0.13888 0.0
C5856 C 0.16833 0.95886 0.14064 0.0
H5857 H 0.21676 0.96293 0.13532 0.0
H5858 H 0.20115 0.95791 0.13441 0.0
H5859 H 0.18058 0.97831 0.14219 0.0
H5860 H 0.13686 0.96067 0.14278 0.0
H5861 H 0.15198 0.96635 0.14581 0.0
C5862 C 0.21577 0.98275 0.63256 0.0
C5863 C 0.21404 0.99202 0.63358 0.0
C5864 C 0.20934 0.97699 0.62871 0.0
C5865 C 0.18496 0.97527 0.62264 0.0
H5866 H 0.19338 0.95631 0.60677 0.0
C5867 C 0.16062 0.95372 0.60079 0.0
C5868 C 0.16195 0.94432 0.601 0.0
C5869 C 0.167 0.95964 0.6045 0.0
C5870 C 0.19092 0.96154 0.61123 0.0
H5871 H 0.20401 1.00239 0.6314 0.0
H5872 H 0.19283 0.99237 0.6247 0.0
H5873 H 0.20426 0.96633 0.61402 0.0
H5874 H 0.17133 0.93395 0.60525 0.0
H5875 H 0.18253 0.94427 0.61129 0.0
H5876 H 0.1716 0.9705 0.61973 0.0
C5877 C 0.19914 0.98952 0.62697 0.0
C5878 C 0.19716 0.96727 0.61543 0.0
C5879 C 0.20558 0.9953 0.63084 0.0
C5880 C 0.17004 0.9411 0.60475 0.0
C5881 C 0.17649 0.94703 0.6083 0.0
C5882 C 0.17871 0.96957 0.61838 0.0
C5883 C 0.20098 0.9803 0.62574 0.0
C5884 C 0.19428 0.9742 0.62124 0.0
C5885 C 0.17499 0.95636 0.60836 0.0
C5886 C 0.18162 0.96261 0.61265 0.0
H5887 H 0.22212 0.97992 0.63476 0.0
H5888 H 0.21094 0.9699 0.62808 0.0
H5889 H 0.18246 0.98042 0.62716 0.0
H5890 H 0.15464 0.95657 0.59778 0.0
H5891 H 0.16571 0.96681 0.60431 0.0
C5892 C 0.80094 0.4713 0.37045 0.0
C5893 C 0.79691 0.46926 0.36214 0.0
C5894 C 0.8102 0.46993 0.3718 0.0
C5895 C 0.83199 0.4665 0.36009 0.0
H5896 H 0.83851 0.45306 0.38124 0.0
C5897 C 0.8671 0.44973 0.36381 0.0
C5898 C 0.87055 0.44819 0.37241 0.0
C5899 C 0.85846 0.45337 0.36269 0.0
C5900 C 0.83693 0.45699 0.37538 0.0
H5901 H 0.7996 0.46466 0.34861 0.0
H5902 H 0.81569 0.46226 0.35096 0.0
H5903 H 0.82301 0.45782 0.37912 0.0
H5904 H 0.86792 0.44968 0.38657 0.0
H5905 H 0.85312 0.4565 0.38468 0.0
H5906 H 0.84589 0.46581 0.35637 0.0
C5907 C 0.8117 0.4649 0.35645 0.0
C5908 C 0.82797 0.45969 0.37415 0.0
C5909 C 0.80245 0.4662 0.35512 0.0
C5910 C 0.86538 0.45074 0.37986 0.0
C5911 C 0.85683 0.45456 0.37875 0.0
C5912 C 0.84099 0.46392 0.36138 0.0
C5913 C 0.81567 0.46658 0.36485 0.0
C5914 C 0.82536 0.46437 0.36644 0.0
C5915 C 0.85311 0.45573 0.37015 0.0
C5916 C 0.8436 0.45901 0.36899 0.0
H5917 H 0.79688 0.47363 0.37602 0.0
H5918 H 0.81306 0.47138 0.37833 0.0
H5919 H 0.83023 0.47018 0.35412 0.0
H5920 H 0.87093 0.44774 0.35796 0.0
H5921 H 0.85587 0.454 0.35595 0.0
C5922 C 0.71176 0.5424 0.85901 0.0
C5923 C 0.71578 0.53794 0.86626 0.0
C5924 C 0.70272 0.54515 0.85944 0.0
C5925 C 0.68503 0.55119 0.8755 0.0
H5926 H 0.66816 0.5455 0.85642 0.0
C5927 C 0.64733 0.55826 0.88017 0.0
C5928 C 0.64239 0.56135 0.87281 0.0
C5929 C 0.65601 0.5548 0.87903 0.0
C5930 C 0.67278 0.54726 0.86177 0.0
H5931 H 0.71356 0.53307 0.8797 0.0
H5932 H 0.69789 0.53797 0.88051 0.0
H5933 H 0.68399 0.54119 0.85494 0.0
H5934 H 0.64247 0.56307 0.85846 0.0
H5935 H 0.65779 0.55734 0.85644 0.0
H5936 H 0.67405 0.55749 0.88226 0.0
C5937 C 0.70167 0.53928 0.87446 0.0
C5938 C 0.68186 0.54477 0.86092 0.0
C5939 C 0.71063 0.53642 0.87398 0.0
C5940 C 0.64615 0.56065 0.86423 0.0
C5941 C 0.65493 0.55735 0.86309 0.0
C5942 C 0.67602 0.55379 0.87631 0.0
C5943 C 0.6976 0.54364 0.86719 0.0
C5944 C 0.68805 0.54663 0.86782 0.0
C5945 C 0.66006 0.55455 0.87052 0.0
C5946 C 0.66971 0.55178 0.86951 0.0
H5947 H 0.71556 0.54363 0.85296 0.0
H5948 H 0.69977 0.54855 0.85376 0.0
H5949 H 0.68967 0.55284 0.88088 0.0
H5950 H 0.64452 0.55867 0.88685 0.0
H5951 H 0.65958 0.55245 0.88489 0.0
C5952 C 0.89069 0.722 0.96061 0.0
C5953 C 0.89751 0.71747 0.96537 0.0
C5954 C 0.88953 0.72049 0.95137 0.0
C5955 C 0.89326 0.70257 0.93487 0.0
H5956 H 0.8892 0.72056 0.91666 0.0
C5957 C 0.89279 0.69249 0.89779 0.0
C5958 C 0.8866 0.69662 0.89199 0.0
C5959 C 0.89415 0.69576 0.90647 0.0
C5960 C 0.8902 0.71544 0.92168 0.0
H5961 H 0.90894 0.70848 0.96391 0.0
H5962 H 0.90678 0.70575 0.94799 0.0
H5963 H 0.89155 0.72526 0.93227 0.0
H5964 H 0.8771 0.70766 0.89086 0.0
H5965 H 0.87925 0.71319 0.90616 0.0
H5966 H 0.89173 0.69274 0.92451 0.0
C5967 C 0.90223 0.71032 0.9514 0.0
C5968 C 0.89158 0.71815 0.93061 0.0
C5969 C 0.90344 0.71187 0.96055 0.0
C5970 C 0.88185 0.70422 0.89514 0.0
C5971 C 0.88317 0.70747 0.9039 0.0
C5972 C 0.8918 0.69987 0.92602 0.0
C5973 C 0.89511 0.7144 0.94675 0.0
C5974 C 0.89326 0.71173 0.93728 0.0
C5975 C 0.88926 0.70321 0.90973 0.0
C5976 C 0.8904 0.70625 0.91924 0.0
H5977 H 0.886 0.72636 0.96408 0.0
H5978 H 0.88399 0.72375 0.94796 0.0
H5979 H 0.89433 0.69745 0.93987 0.0
H5980 H 0.89649 0.68656 0.89571 0.0
H5981 H 0.89904 0.69239 0.91066 0.0
C5982 C 0.05028 0.12435 0.73122 0.0
C5983 C 0.0452 0.12925 0.73751 0.0
C5984 C 0.0556 0.12878 0.72492 0.0
C5985 C 0.06073 0.1513 0.71492 0.0
H5986 H 0.08373 0.13987 0.71021 0.0
C5987 C 0.09146 0.16786 0.69627 0.0
C5988 C 0.09546 0.1623 0.68971 0.0
C5989 C 0.08467 0.16448 0.70188 0.0
C5990 C 0.07732 0.14313 0.71142 0.0
H5991 H 0.04141 0.14268 0.74181 0.0
H5992 H 0.05081 0.15044 0.73092 0.0
H5993 H 0.07303 0.13267 0.72012 0.0
H5994 H 0.09488 0.14903 0.68353 0.0
H5995 H 0.08341 0.14314 0.69342 0.0
H5996 H 0.06529 0.16192 0.70631 0.0
C5997 C 0.05062 0.14315 0.73077 0.0
C5998 C 0.07112 0.13896 0.71706 0.0
C5999 C 0.04521 0.1387 0.73703 0.0
C6000 C 0.09222 0.15344 0.68868 0.0
C6001 C 0.08559 0.15005 0.69432 0.0
C6002 C 0.06701 0.15554 0.70934 0.0
C6003 C 0.05609 0.13825 0.72479 0.0
C6004 C 0.06267 0.1429 0.7188 0.0
C6005 C 0.08185 0.15546 0.70108 0.0
C6006 C 0.07532 0.15143 0.70744 0.0
H6007 H 0.05029 0.11706 0.7313 0.0
H6008 H 0.05946 0.12474 0.72024 0.0
H6009 H 0.05429 0.15453 0.71605 0.0
H6010 H 0.09377 0.17472 0.69727 0.0
H6011 H 0.08189 0.1688 0.70704 0.0
C6012 C 0.60764 0.28562 0.45891 0.0
C6013 C 0.61103 0.29074 0.46615 0.0
C6014 C 0.60882 0.28848 0.45006 0.0
C6015 C 0.62369 0.30276 0.43634 0.0
H6016 H 0.60473 0.30093 0.41854 0.0
C6017 C 0.62814 0.31837 0.40134 0.0
C6018 C 0.62366 0.31454 0.39395 0.0
C6019 C 0.62648 0.31528 0.41001 0.0
C6020 C 0.61019 0.30136 0.42335 0.0
H6021 H 0.61822 0.30301 0.46964 0.0
H6022 H 0.62015 0.30803 0.45428 0.0
H6023 H 0.60189 0.29601 0.43379 0.0
H6024 H 0.61408 0.30432 0.38981 0.0
H6025 H 0.61151 0.29856 0.40486 0.0
H6026 H 0.63211 0.30783 0.42597 0.0
C6027 C 0.61666 0.30174 0.45545 0.0
C6028 C 0.60851 0.29857 0.43214 0.0
C6029 C 0.61545 0.29891 0.46428 0.0
C6030 C 0.61759 0.30743 0.3954 0.0
C6031 C 0.61607 0.30419 0.40407 0.0
C6032 C 0.62541 0.30543 0.42754 0.0
C6033 C 0.61346 0.29651 0.44821 0.0
C6034 C 0.61522 0.29932 0.43878 0.0
C6035 C 0.62044 0.30811 0.41155 0.0
C6036 C 0.61866 0.30488 0.42089 0.0
H6037 H 0.6041 0.27935 0.46006 0.0
H6038 H 0.60629 0.28427 0.44466 0.0
H6039 H 0.62908 0.30327 0.44122 0.0
H6040 H 0.63275 0.32395 0.40044 0.0
H6041 H 0.62984 0.31868 0.41552 0.0
C6042 C 0.46428 0.87873 0.23066 0.0
C6043 C 0.46127 0.88007 0.23948 0.0
C6044 C 0.45875 0.8743 0.22435 0.0
C6045 C 0.43467 0.86878 0.22036 0.0
H6046 H 0.44361 0.85135 0.20313 0.0
C6047 C 0.40976 0.84851 0.19878 0.0
C6048 C 0.41205 0.84678 0.18984 0.0
C6049 C 0.41623 0.85179 0.2048 0.0
C6050 C 0.44099 0.85627 0.20783 0.0
H6051 H 0.45041 0.87741 0.24874 0.0
H6052 H 0.44091 0.86959 0.23791 0.0
H6053 H 0.45413 0.85885 0.21339 0.0
H6054 H 0.42283 0.84695 0.18015 0.0
H6055 H 0.43414 0.85293 0.19057 0.0
H6056 H 0.42162 0.86644 0.2148 0.0
C6057 C 0.44736 0.87218 0.23571 0.0
C6058 C 0.44705 0.86057 0.21372 0.0
C6059 C 0.45282 0.87664 0.24194 0.0
C6060 C 0.42097 0.84813 0.18706 0.0
C6061 C 0.42744 0.85155 0.19306 0.0
C6062 C 0.42866 0.86455 0.21447 0.0
C6063 C 0.45016 0.87108 0.22679 0.0
C6064 C 0.44393 0.86679 0.22014 0.0
C6065 C 0.4251 0.85363 0.20198 0.0
C6066 C 0.43168 0.85814 0.20818 0.0
H6067 H 0.47078 0.88132 0.22859 0.0
H6068 H 0.46109 0.8736 0.21752 0.0
H6069 H 0.43204 0.87369 0.22506 0.0
H6070 H 0.40289 0.84754 0.20104 0.0
H6071 H 0.41419 0.85304 0.21165 0.0
C6072 C 0.89564 0.28752 0.54823 0.0
C6073 C 0.89606 0.29467 0.54212 0.0
C6074 C 0.89396 0.28918 0.55735 0.0
C6075 C 0.88486 0.30716 0.57253 0.0
H6076 H 0.89617 0.2933 0.5913 0.0
C6077 C 0.8763 0.31457 0.60925 0.0
C6078 C 0.88318 0.31398 0.61571 0.0
C6079 C 0.87758 0.31124 0.60058 0.0
C6080 C 0.89301 0.29731 0.58615 0.0
H6081 H 0.89482 0.30915 0.54084 0.0
H6082 H 0.89227 0.31206 0.55655 0.0
H6083 H 0.89914 0.28953 0.57566 0.0
H6084 H 0.89674 0.30904 0.61808 0.0
H6085 H 0.89913 0.30366 0.60284 0.0
H6086 H 0.87918 0.31529 0.58285 0.0
C6087 C 0.89308 0.30513 0.55439 0.0
C6088 C 0.89462 0.29505 0.57715 0.0
C6089 C 0.8947 0.30347 0.54535 0.0
C6090 C 0.89133 0.30977 0.61327 0.0
C6091 C 0.89265 0.30655 0.60452 0.0
C6092 C 0.88338 0.3095 0.58146 0.0
C6093 C 0.8926 0.29803 0.56055 0.0
C6094 C 0.89062 0.3 0.5702 0.0
C6095 C 0.88584 0.30737 0.59799 0.0
C6096 C 0.88741 0.30463 0.58844 0.0
H6097 H 0.8967 0.28066 0.54597 0.0
H6098 H 0.89359 0.28352 0.56185 0.0
H6099 H 0.88146 0.31104 0.56744 0.0
H6100 H 0.86997 0.31784 0.61078 0.0
H6101 H 0.87205 0.31181 0.59587 0.0
C6102 C 0.45657 0.13198 0.26884 0.0
C6103 C 0.46577 0.13411 0.26979 0.0
C6104 C 0.45014 0.13562 0.27468 0.0
C6105 C 0.44686 0.15446 0.29101 0.0
H6106 H 0.42586 0.14056 0.29777 0.0
C6107 C 0.42132 0.16609 0.31829 0.0
C6108 C 0.41219 0.16397 0.31684 0.0
C6109 C 0.42795 0.16291 0.31239 0.0
C6110 C 0.43163 0.14458 0.29587 0.0
H6111 H 0.47536 0.14177 0.2778 0.0
H6112 H 0.46427 0.14779 0.28816 0.0
H6113 H 0.43722 0.13378 0.28817 0.0
H6114 H 0.40279 0.15738 0.3078 0.0
H6115 H 0.41429 0.15199 0.29744 0.0
H6116 H 0.44127 0.16523 0.29884 0.0
C6117 C 0.46196 0.14345 0.28276 0.0
C6118 C 0.43817 0.14068 0.29034 0.0
C6119 C 0.46837 0.13986 0.27688 0.0
C6120 C 0.40979 0.15901 0.30915 0.0
C6121 C 0.41639 0.15587 0.30325 0.0
C6122 C 0.44034 0.15835 0.29659 0.0
C6123 C 0.45274 0.14147 0.2817 0.0
C6124 C 0.44586 0.14557 0.28778 0.0
C6125 C 0.42558 0.15757 0.30491 0.0
C6126 C 0.43261 0.15348 0.29904 0.0
H6127 H 0.45429 0.12747 0.26357 0.0
H6128 H 0.44311 0.13399 0.27357 0.0
H6129 H 0.4526 0.15851 0.28909 0.0
H6130 H 0.42336 0.16985 0.3242 0.0
H6131 H 0.43496 0.16431 0.3139 0.0
C6132 C 0.61954 0.7113 0.04744 0.0
C6133 C 0.61325 0.71764 0.04441 0.0
C6134 C 0.6209 0.70998 0.05659 0.0
C6135 C 0.60971 0.71186 0.07837 0.0
H6136 H 0.63389 0.70832 0.08756 0.0
C6137 C 0.61649 0.70286 0.11567 0.0
C6138 C 0.62355 0.69679 0.11737 0.0
C6139 C 0.61525 0.70645 0.1071 0.0
C6140 C 0.62707 0.70917 0.08512 0.0
H6141 H 0.60345 0.7276 0.04853 0.0
H6142 H 0.60573 0.7252 0.06467 0.0
H6143 H 0.63175 0.71277 0.07209 0.0
H6144 H 0.63469 0.68958 0.11133 0.0
H6145 H 0.63242 0.69558 0.09643 0.0
H6146 H 0.605 0.70794 0.09132 0.0
C6147 C 0.60965 0.7213 0.05993 0.0
C6148 C 0.62585 0.71178 0.07623 0.0
C6149 C 0.60839 0.72272 0.05072 0.0
C6150 C 0.6293 0.69437 0.11029 0.0
C6151 C 0.628 0.69786 0.10173 0.0
C6152 C 0.61092 0.70914 0.08727 0.0
C6153 C 0.61592 0.71488 0.06296 0.0
C6154 C 0.61716 0.71301 0.07269 0.0
C6155 C 0.62098 0.70399 0.09998 0.0
C6156 C 0.61963 0.70759 0.09073 0.0
H6157 H 0.62333 0.70727 0.04269 0.0
H6158 H 0.62569 0.70491 0.05867 0.0
H6159 H 0.60291 0.71269 0.07584 0.0
H6160 H 0.61198 0.70489 0.121 0.0
H6161 H 0.60985 0.71122 0.10608 0.0
C6162 C 0.04844 0.88447 0.78051 0.0
C6163 C 0.04539 0.88013 0.7727 0.0
C6164 C 0.05366 0.8798 0.78679 0.0
C6165 C 0.06852 0.85958 0.78837 0.0
H6166 H 0.06825 0.8655 0.81364 0.0
C6167 C 0.09685 0.84782 0.81221 0.0
C6168 C 0.09484 0.84638 0.82124 0.0
C6169 C 0.09027 0.85116 0.80638 0.0
C6170 C 0.06835 0.86362 0.80664 0.0
H6171 H 0.04524 0.86757 0.76531 0.0
H6172 H 0.05418 0.85934 0.77627 0.0
H6173 H 0.05744 0.87254 0.80369 0.0
H6174 H 0.08445 0.84715 0.83132 0.0
H6175 H 0.07281 0.85269 0.82115 0.0
H6176 H 0.07918 0.85042 0.79134 0.0
C6177 C 0.05268 0.86635 0.77759 0.0
C6178 C 0.06221 0.86781 0.80086 0.0
C6179 C 0.04745 0.87102 0.77135 0.0
C6180 C 0.08609 0.84811 0.82433 0.0
C6181 C 0.07948 0.85142 0.81851 0.0
C6182 C 0.07456 0.85531 0.79415 0.0
C6183 C 0.05602 0.87071 0.78533 0.0
C6184 C 0.06226 0.86593 0.79162 0.0
C6185 C 0.0815 0.85315 0.80947 0.0
C6186 C 0.07466 0.85733 0.80337 0.0
H6187 H 0.04699 0.89153 0.78164 0.0
H6188 H 0.05614 0.88346 0.79259 0.0
H6189 H 0.06892 0.85802 0.78129 0.0
H6190 H 0.10361 0.84664 0.80973 0.0
H6191 H 0.0922 0.8525 0.79955 0.0
C6192 C 0.95715 0.88961 0.72698 0.0
C6193 C 0.96269 0.89673 0.72412 0.0
C6194 C 0.94827 0.88875 0.72389 0.0
C6195 C 0.93281 0.89588 0.70569 0.0
H6196 H 0.91427 0.88793 0.7221 0.0
C6197 C 0.89529 0.89486 0.69515 0.0
C6198 C 0.88988 0.88771 0.69819 0.0
C6199 C 0.90397 0.89628 0.69858 0.0
C6200 C 0.91936 0.89005 0.71738 0.0
H6201 H 0.96314 0.90853 0.71571 0.0
H6202 H 0.94762 0.90707 0.71034 0.0
H6203 H 0.9297 0.8898 0.72739 0.0
H6204 H 0.88948 0.87658 0.70751 0.0
H6205 H 0.90472 0.8788 0.71317 0.0
H6206 H 0.92251 0.89604 0.69565 0.0
C6207 C 0.9502 0.90207 0.71491 0.0
C6208 C 0.92824 0.89114 0.72043 0.0
C6209 C 0.95911 0.90292 0.71799 0.0
C6210 C 0.89343 0.88208 0.70486 0.0
C6211 C 0.90217 0.88344 0.70823 0.0
C6212 C 0.92393 0.89477 0.70263 0.0
C6213 C 0.94464 0.89499 0.71785 0.0
C6214 C 0.93511 0.89404 0.71462 0.0
C6215 C 0.90761 0.89052 0.70508 0.0
C6216 C 0.91707 0.89182 0.70842 0.0
H6217 H 0.95972 0.88459 0.73154 0.0
H6218 H 0.9443 0.88309 0.72616 0.0
H6219 H 0.93791 0.898 0.70098 0.0
H6220 H 0.89294 0.8993 0.68994 0.0
H6221 H 0.90784 0.90191 0.69609 0.0
C6222 C 0.8725 0.23622 0.4627 0.0
C6223 C 0.87907 0.24264 0.46037 0.0
C6224 C 0.86874 0.23047 0.45623 0.0
C6225 C 0.87234 0.22153 0.43316 0.0
H6226 H 0.84681 0.21597 0.4344 0.0
C6227 C 0.85419 0.2036 0.40406 0.0
C6228 C 0.84819 0.19661 0.40617 0.0
C6229 C 0.85751 0.20937 0.41072 0.0
C6230 C 0.85397 0.21738 0.434 0.0
H6231 H 0.88696 0.24782 0.44934 0.0
H6232 H 0.88023 0.23799 0.43803 0.0
H6233 H 0.85371 0.2255 0.44589 0.0
H6234 H 0.84065 0.19042 0.41688 0.0
H6235 H 0.84646 0.20052 0.42859 0.0
H6236 H 0.87259 0.21346 0.42125 0.0
C6237 C 0.87805 0.23732 0.4449 0.0
C6238 C 0.85794 0.22284 0.44061 0.0
C6239 C 0.88184 0.24306 0.45138 0.0
C6240 C 0.84523 0.19578 0.41505 0.0
C6241 C 0.84858 0.20156 0.42175 0.0
C6242 C 0.86837 0.2161 0.42655 0.0
C6243 C 0.8714 0.23098 0.44722 0.0
C6244 C 0.86719 0.22502 0.44026 0.0
C6245 C 0.85493 0.2083 0.41969 0.0
C6246 C 0.85911 0.214 0.42685 0.0
H6247 H 0.87009 0.23574 0.46951 0.0
H6248 H 0.86375 0.22559 0.45831 0.0
H6249 H 0.87951 0.22288 0.43275 0.0
H6250 H 0.85647 0.20452 0.39724 0.0
H6251 H 0.86219 0.21463 0.40884 0.0
C6252 C 0.55361 0.11623 0.22495 0.0
C6253 C 0.54734 0.11828 0.2182 0.0
C6254 C 0.56291 0.11714 0.22337 0.0
C6255 C 0.57897 0.11866 0.20423 0.0
H6256 H 0.59621 0.12686 0.22206 0.0
C6257 C 0.61417 0.13104 0.19456 0.0
C6258 C 0.62153 0.12729 0.1991 0.0
C6259 C 0.60539 0.12967 0.19762 0.0
C6260 C 0.59146 0.12449 0.21705 0.0
H6261 H 0.54582 0.12343 0.20478 0.0
H6262 H 0.56184 0.12532 0.20213 0.0
H6263 H 0.58028 0.12511 0.22614 0.0
H6264 H 0.62556 0.11937 0.21052 0.0
H6265 H 0.61009 0.11719 0.21609 0.0
H6266 H 0.59004 0.1183 0.19509 0.0
C6267 C 0.55972 0.12264 0.20851 0.0
C6268 C 0.58234 0.12346 0.21938 0.0
C6269 C 0.5505 0.12163 0.21004 0.0
C6270 C 0.61997 0.12232 0.20692 0.0
C6271 C 0.61115 0.12111 0.2101 0.0
C6272 C 0.588 0.11979 0.2019 0.0
C6273 C 0.56609 0.1202 0.21504 0.0
C6274 C 0.57594 0.1207 0.21294 0.0
C6275 C 0.60376 0.12464 0.20538 0.0
C6276 C 0.59432 0.12286 0.20822 0.0
H6277 H 0.55133 0.11363 0.23131 0.0
H6278 H 0.5676 0.11518 0.22856 0.0
H6279 H 0.57433 0.11622 0.19915 0.0
H6280 H 0.61521 0.13484 0.18849 0.0
H6281 H 0.59983 0.13253 0.19388 0.0
C6282 C 0.6359 0.77471 0.96587 0.0
C6283 C 0.62956 0.76809 0.96333 0.0
C6284 C 0.6397 0.78046 0.95953 0.0
C6285 C 0.64432 0.78206 0.93529 0.0
H6286 H 0.64832 0.80735 0.94055 0.0
C6287 C 0.65479 0.80735 0.90806 0.0
C6288 C 0.66046 0.8146 0.91037 0.0
C6289 C 0.65159 0.80148 0.91459 0.0
C6290 C 0.6474 0.80027 0.93901 0.0
H6291 H 0.62207 0.7626 0.95204 0.0
H6292 H 0.62877 0.77256 0.94098 0.0
H6293 H 0.64126 0.79778 0.95172 0.0
H6294 H 0.66748 0.82117 0.92134 0.0
H6295 H 0.66203 0.8108 0.93278 0.0
H6296 H 0.65049 0.78451 0.92262 0.0
C6297 C 0.63089 0.77321 0.9479 0.0
C6298 C 0.64331 0.79478 0.94542 0.0
C6299 C 0.62705 0.76748 0.95425 0.0
C6300 C 0.66315 0.81563 0.91934 0.0
C6301 C 0.65993 0.80975 0.92591 0.0
C6302 C 0.64845 0.78753 0.92891 0.0
C6303 C 0.63732 0.77973 0.95044 0.0
C6304 C 0.64167 0.78561 0.94362 0.0
C6305 C 0.65398 0.80267 0.92364 0.0
C6306 C 0.65 0.79673 0.93064 0.0
H6307 H 0.63813 0.77532 0.97275 0.0
H6308 H 0.64471 0.78532 0.96172 0.0
H6309 H 0.64333 0.77499 0.93373 0.0
H6310 H 0.65267 0.80631 0.90119 0.0
H6311 H 0.64698 0.79618 0.91255 0.0
C6312 C 0.95708 0.11903 0.78321 0.0
C6313 C 0.96287 0.11235 0.78655 0.0
C6314 C 0.94825 0.11987 0.78637 0.0
C6315 C 0.93346 0.11382 0.80544 0.0
H6316 H 0.91428 0.12001 0.78894 0.0
C6317 C 0.89623 0.11454 0.81673 0.0
C6318 C 0.89059 0.12135 0.81337 0.0
C6319 C 0.90485 0.11313 0.81321 0.0
C6320 C 0.91956 0.11838 0.79368 0.0
H6321 H 0.9638 0.10126 0.79584 0.0
H6322 H 0.94836 0.10268 0.80133 0.0
H6323 H 0.9296 0.11811 0.78341 0.0
H6324 H 0.8897 0.13186 0.80339 0.0
H6325 H 0.90483 0.12963 0.79752 0.0
H6326 H 0.92347 0.11417 0.81573 0.0
C6327 C 0.95071 0.10736 0.79633 0.0
C6328 C 0.92837 0.11728 0.79049 0.0
C6329 C 0.95958 0.10654 0.79318 0.0
C6330 C 0.89384 0.12663 0.80628 0.0
C6331 C 0.90252 0.12527 0.80281 0.0
C6332 C 0.92466 0.11494 0.80863 0.0
C6333 C 0.94491 0.11404 0.79296 0.0
C6334 C 0.93546 0.11501 0.79633 0.0
C6335 C 0.90818 0.11854 0.80627 0.0
C6336 C 0.91757 0.11725 0.80281 0.0
H6337 H 0.95942 0.12375 0.77824 0.0
H6338 H 0.94408 0.12521 0.78374 0.0
H6339 H 0.93875 0.11222 0.81018 0.0
H6340 H 0.8941 0.11039 0.82226 0.0
H6341 H 0.90892 0.10777 0.81597 0.0
C6342 C 0.63612 0.23968 0.5477 0.0
C6343 C 0.62721 0.24229 0.54958 0.0
C6344 C 0.64054 0.23335 0.55308 0.0
C6345 C 0.63897 0.22399 0.5761 0.0
H6346 H 0.6581 0.2082 0.56801 0.0
C6347 C 0.65989 0.20457 0.60182 0.0
C6348 C 0.66257 0.19577 0.59966 0.0
C6349 C 0.65646 0.21024 0.59523 0.0
C6350 C 0.65272 0.2125 0.5704 0.0
H6351 H 0.61569 0.23966 0.55805 0.0
H6352 H 0.6232 0.22849 0.5672 0.0
H6353 H 0.64981 0.21716 0.55716 0.0
H6354 H 0.66399 0.18603 0.58894 0.0
H6355 H 0.65764 0.19578 0.57742 0.0
H6356 H 0.6415 0.21909 0.58922 0.0
C6357 C 0.62698 0.23158 0.56184 0.0
C6358 C 0.64802 0.21774 0.56416 0.0
C6359 C 0.62262 0.23795 0.55654 0.0
C6360 C 0.66204 0.19284 0.59073 0.0
C6361 C 0.65841 0.19846 0.58414 0.0
C6362 C 0.64356 0.21868 0.58229 0.0
C6363 C 0.63611 0.22942 0.56042 0.0
C6364 C 0.64106 0.22358 0.56693 0.0
C6365 C 0.65535 0.20718 0.58633 0.0
C6366 C 0.65056 0.21289 0.57958 0.0
H6367 H 0.63986 0.2429 0.54239 0.0
H6368 H 0.64755 0.23189 0.55174 0.0
H6369 H 0.63382 0.2285 0.57858 0.0
H6370 H 0.66028 0.20698 0.60867 0.0
H6371 H 0.65449 0.21699 0.59718 0.0
C6372 C 0.55222 0.88867 0.28272 0.0
C6373 C 0.54647 0.89504 0.28676 0.0
C6374 C 0.56112 0.88764 0.28566 0.0
C6375 C 0.57623 0.89223 0.30501 0.0
H6376 H 0.59518 0.88779 0.28771 0.0
C6377 C 0.61371 0.892 0.31546 0.0
C6378 C 0.61949 0.88564 0.31146 0.0
C6379 C 0.60494 0.89327 0.31226 0.0
C6380 C 0.58997 0.88892 0.29265 0.0
H6381 H 0.54568 0.90535 0.29706 0.0
H6382 H 0.56123 0.90358 0.30218 0.0
H6383 H 0.57971 0.88984 0.28259 0.0
H6384 H 0.62048 0.87572 0.30078 0.0
H6385 H 0.60509 0.87773 0.29537 0.0
H6386 H 0.58645 0.89125 0.31507 0.0
C6387 C 0.5588 0.89929 0.2968 0.0
C6388 C 0.58107 0.89011 0.28971 0.0
C6389 C 0.54987 0.90032 0.29386 0.0
C6390 C 0.61623 0.88061 0.30411 0.0
C6391 C 0.60741 0.88185 0.30093 0.0
C6392 C 0.58512 0.89102 0.30795 0.0
C6393 C 0.56456 0.89294 0.29272 0.0
C6394 C 0.57407 0.89178 0.29585 0.0
C6395 C 0.60162 0.88816 0.305 0.0
C6396 C 0.59213 0.88937 0.30182 0.0
H6397 H 0.5498 0.88435 0.27736 0.0
H6398 H 0.56526 0.88255 0.28248 0.0
H6399 H 0.57102 0.89334 0.30996 0.0
H6400 H 0.61587 0.89592 0.32122 0.0
H6401 H 0.60077 0.8983 0.31549 0.0
C6402 C 0.8785 0.76561 0.05619 0.0
C6403 C 0.88042 0.76863 0.0475 0.0
C6404 C 0.87478 0.77144 0.06261 0.0
C6405 C 0.86998 0.79585 0.06735 0.0
H6406 H 0.85306 0.78585 0.08435 0.0
C6407 C 0.84815 0.81824 0.09072 0.0
C6408 C 0.84859 0.81595 0.09981 0.0
C6409 C 0.85154 0.81236 0.08417 0.0
C6410 C 0.85779 0.78874 0.07965 0.0
H6411 H 0.88028 0.78041 0.03899 0.0
H6412 H 0.87338 0.79034 0.04992 0.0
H6413 H 0.86029 0.77599 0.07343 0.0
H6414 H 0.85256 0.80564 0.10917 0.0
H6415 H 0.85823 0.79525 0.09772 0.0
H6416 H 0.86723 0.80865 0.07349 0.0
C6417 C 0.87488 0.78351 0.05189 0.0
C6418 C 0.86201 0.78307 0.07342 0.0
C6419 C 0.87872 0.77773 0.04552 0.0
C6420 C 0.85211 0.80753 0.1022 0.0
C6421 C 0.85535 0.80159 0.09565 0.0
C6422 C 0.86563 0.80153 0.07349 0.0
C6423 C 0.87274 0.78044 0.06051 0.0
C6424 C 0.86823 0.78652 0.0672 0.0
C6425 C 0.85529 0.80402 0.08658 0.0
C6426 C 0.85953 0.79803 0.07975 0.0
H6427 H 0.87963 0.75867 0.05802 0.0
H6428 H 0.87346 0.76882 0.06922 0.0
H6429 H 0.87483 0.7988 0.06283 0.0
H6430 H 0.84553 0.82473 0.08873 0.0
H6431 H 0.85135 0.81438 0.07722 0.0
C6432 C 0.72341 0.95659 0.88955 0.0
C6433 C 0.72086 0.96183 0.897 0.0
C6434 C 0.72029 0.94775 0.88848 0.0
C6435 C 0.70228 0.93207 0.89575 0.0
H6436 H 0.7184 0.91385 0.88626 0.0
C6437 C 0.69123 0.89479 0.89329 0.0
C6438 C 0.69421 0.88955 0.88598 0.0
C6439 C 0.69478 0.90338 0.89495 0.0
C6440 C 0.71374 0.91885 0.8888 0.0
H6441 H 0.71299 0.96181 0.9092 0.0
H6442 H 0.70757 0.94634 0.90737 0.0
H6443 H 0.72386 0.92915 0.88857 0.0
H6444 H 0.70353 0.88941 0.87479 0.0
H6445 H 0.7093 0.90452 0.87737 0.0
H6446 H 0.69211 0.92186 0.89585 0.0
C6447 C 0.71192 0.94912 0.90227 0.0
C6448 C 0.7169 0.92766 0.89015 0.0
C6449 C 0.71503 0.958 0.90333 0.0
C6450 C 0.70091 0.89321 0.88041 0.0
C6451 C 0.70436 0.90189 0.88199 0.0
C6452 C 0.6991 0.92328 0.89435 0.0
C6453 C 0.71452 0.94386 0.89483 0.0
C6454 C 0.71121 0.9344 0.89362 0.0
C6455 C 0.70131 0.90714 0.88926 0.0
C6456 C 0.70477 0.91652 0.89084 0.0
H6457 H 0.72774 0.95936 0.88443 0.0
H6458 H 0.7223 0.94401 0.88257 0.0
H6459 H 0.69765 0.93709 0.8983 0.0
H6460 H 0.686 0.89238 0.89769 0.0
H6461 H 0.69235 0.90708 0.90073 0.0
C6462 C 0.22236 0.55326 0.12206 0.0
C6463 C 0.2186 0.54873 0.11462 0.0
C6464 C 0.22109 0.56255 0.12326 0.0
C6465 C 0.21269 0.58328 0.11152 0.0
H6466 H 0.20827 0.59182 0.13568 0.0
C6467 C 0.19313 0.61595 0.11927 0.0
C6468 C 0.19636 0.62172 0.12609 0.0
C6469 C 0.19704 0.60752 0.11776 0.0
C6470 C 0.20959 0.58957 0.1289 0.0
H6471 H 0.21106 0.55067 0.10233 0.0
H6472 H 0.20848 0.56658 0.10463 0.0
H6473 H 0.21308 0.57632 0.1332 0.0
H6474 H 0.20645 0.62299 0.13659 0.0
H6475 H 0.21305 0.60813 0.13411 0.0
H6476 H 0.2088 0.59645 0.10724 0.0
C6477 C 0.21253 0.56307 0.10951 0.0
C6478 C 0.2124 0.58066 0.12746 0.0
C6479 C 0.21389 0.55383 0.10826 0.0
C6480 C 0.20364 0.61874 0.13137 0.0
C6481 C 0.20748 0.61022 0.12993 0.0
C6482 C 0.20977 0.59212 0.11296 0.0
C6483 C 0.21598 0.56757 0.1171 0.0
C6484 C 0.21384 0.57732 0.11872 0.0
C6485 C 0.20422 0.60451 0.1231 0.0
C6486 C 0.20805 0.59534 0.12165 0.0
H6487 H 0.22603 0.54958 0.12712 0.0
H6488 H 0.22403 0.56577 0.12911 0.0
H6489 H 0.21396 0.5811 0.10471 0.0
H6490 H 0.18741 0.61783 0.11519 0.0
H6491 H 0.19426 0.60323 0.11254 0.0
C6492 C 0.24441 0.45657 0.87253 0.0
C6493 C 0.24173 0.46365 0.8782 0.0
C6494 C 0.23805 0.45151 0.86777 0.0
C6495 C 0.21411 0.44478 0.8681 0.0
H6496 H 0.21965 0.43551 0.84441 0.0
C6497 C 0.1892 0.42178 0.8489 0.0
C6498 C 0.19291 0.41427 0.84453 0.0
C6499 C 0.19478 0.42865 0.85218 0.0
C6500 C 0.21802 0.43798 0.85104 0.0
H6501 H 0.23026 0.47112 0.88321 0.0
H6502 H 0.21902 0.46223 0.87483 0.0
H6503 H 0.22987 0.44621 0.8516 0.0
H6504 H 0.20526 0.40798 0.84006 0.0
H6505 H 0.21509 0.41994 0.84591 0.0
H6506 H 0.20233 0.43645 0.86759 0.0
C6507 C 0.22609 0.46057 0.87412 0.0
C6508 C 0.22388 0.44414 0.85518 0.0
C6509 C 0.23251 0.46571 0.87886 0.0
C6510 C 0.20227 0.41381 0.8433 0.0
C6511 C 0.20787 0.42066 0.84664 0.0
C6512 C 0.20824 0.43864 0.86395 0.0
C6513 C 0.22879 0.45336 0.86855 0.0
C6514 C 0.22208 0.44751 0.86382 0.0
C6515 C 0.2042 0.42811 0.85126 0.0
C6516 C 0.21018 0.43506 0.85542 0.0
H6517 H 0.25148 0.45487 0.87184 0.0
H6518 H 0.2404 0.44596 0.86367 0.0
H6519 H 0.21256 0.44713 0.8748 0.0
H6520 H 0.18199 0.42222 0.84993 0.0
H6521 H 0.1917 0.43435 0.85555 0.0
C6522 C 0.28598 0.45717 0.6221 0.0
C6523 C 0.2894 0.46267 0.61528 0.0
C6524 C 0.28901 0.44832 0.62315 0.0
C6525 C 0.301 0.4297 0.61129 0.0
H6526 H 0.30373 0.42036 0.63529 0.0
C6527 C 0.31916 0.39601 0.61871 0.0
C6528 C 0.31567 0.39045 0.62547 0.0
C6529 C 0.31561 0.4046 0.61723 0.0
C6530 C 0.3029 0.4228 0.62854 0.0
H6531 H 0.29875 0.46303 0.60415 0.0
H6532 H 0.3042 0.44767 0.6061 0.0
H6533 H 0.29852 0.43572 0.6332 0.0
H6534 H 0.30545 0.38964 0.6358 0.0
H6535 H 0.29937 0.40465 0.6333 0.0
H6536 H 0.30551 0.41678 0.60666 0.0
C6537 C 0.29905 0.45017 0.61058 0.0
C6538 C 0.2999 0.43165 0.62732 0.0
C6539 C 0.296 0.45905 0.60953 0.0
C6540 C 0.30845 0.39374 0.63064 0.0
C6541 C 0.30494 0.40237 0.6292 0.0
C6542 C 0.30404 0.42086 0.61251 0.0
C6543 C 0.29561 0.44468 0.61743 0.0
C6544 C 0.29889 0.43524 0.61868 0.0
C6545 C 0.30851 0.40794 0.6225 0.0
C6546 C 0.30504 0.41729 0.62116 0.0
H6547 H 0.281 0.45972 0.62676 0.0
H6548 H 0.28608 0.44431 0.62842 0.0
H6549 H 0.30017 0.43214 0.60453 0.0
H6550 H 0.32483 0.39386 0.61468 0.0
H6551 H 0.31864 0.40873 0.6121 0.0
C6552 C 0.77043 0.04442 0.8724 0.0
C6553 C 0.77011 0.04426 0.8818 0.0
C6554 C 0.77675 0.04982 0.86797 0.0
C6555 C 0.79119 0.06995 0.87235 0.0
H6556 H 0.80112 0.06441 0.84896 0.0
C6557 C 0.81969 0.09091 0.85741 0.0
C6558 C 0.81839 0.09431 0.84874 0.0
C6559 C 0.81403 0.08429 0.86083 0.0
C6560 C 0.79833 0.06606 0.85546 0.0
H6561 H 0.77664 0.04908 0.8939 0.0
H6562 H 0.78782 0.05819 0.88625 0.0
H6563 H 0.7913 0.05348 0.85633 0.0
H6564 H 0.81033 0.09292 0.83667 0.0
H6565 H 0.8005 0.08107 0.84264 0.0
H6566 H 0.79839 0.08241 0.87158 0.0
C6567 C 0.78298 0.05448 0.88225 0.0
C6568 C 0.79269 0.05981 0.8597 0.0
C6569 C 0.7766 0.04918 0.88665 0.0
C6570 C 0.81154 0.09048 0.84337 0.0
C6571 C 0.8059 0.08371 0.84679 0.0
C6572 C 0.7969 0.0761 0.86818 0.0
C6573 C 0.78297 0.05512 0.87284 0.0
C6574 C 0.78908 0.06164 0.86824 0.0
C6575 C 0.80697 0.08072 0.85564 0.0
C6576 C 0.80058 0.07422 0.85973 0.0
H6577 H 0.76549 0.04075 0.86845 0.0
H6578 H 0.77647 0.05013 0.86074 0.0
H6579 H 0.78836 0.07179 0.87877 0.0
H6580 H 0.82507 0.09344 0.86166 0.0
H6581 H 0.81514 0.08199 0.8676 0.0
C6582 C 0.78782 0.05369 0.38419 0.0
C6583 C 0.79162 0.04926 0.39158 0.0
C6584 C 0.78913 0.06297 0.38299 0.0
C6585 C 0.79767 0.08385 0.39471 0.0
H6586 H 0.80192 0.09206 0.37053 0.0
C6587 C 0.81691 0.11667 0.38701 0.0
C6588 C 0.81369 0.12224 0.38013 0.0
C6589 C 0.81308 0.10821 0.38851 0.0
C6590 C 0.80065 0.0899 0.37732 0.0
H6591 H 0.79929 0.05137 0.40381 0.0
H6592 H 0.80193 0.06724 0.40152 0.0
H6593 H 0.79714 0.07658 0.37302 0.0
H6594 H 0.80372 0.12315 0.36951 0.0
H6595 H 0.79723 0.10826 0.37199 0.0
H6596 H 0.80155 0.0971 0.399 0.0
C6597 C 0.79782 0.06366 0.39667 0.0
C6598 C 0.79786 0.08101 0.37877 0.0
C6599 C 0.79642 0.05445 0.39792 0.0
C6600 C 0.8065 0.11905 0.37478 0.0
C6601 C 0.80274 0.11051 0.37622 0.0
C6602 C 0.80056 0.09269 0.39327 0.0
C6603 C 0.79432 0.06806 0.38912 0.0
C6604 C 0.79646 0.07779 0.3875 0.0
C6605 C 0.80599 0.10499 0.38311 0.0
C6606 C 0.80222 0.0958 0.38457 0.0
H6607 H 0.7841 0.04995 0.37914 0.0
H6608 H 0.78615 0.0661 0.37718 0.0
H6609 H 0.79644 0.08176 0.40153 0.0
H6610 H 0.82256 0.11873 0.39115 0.0
H6611 H 0.81585 0.10407 0.39378 0.0
C6612 C 0.24015 0.54557 0.64043 0.0
C6613 C 0.24113 0.546 0.63107 0.0
C6614 C 0.2339 0.55108 0.64488 0.0
C6615 C 0.22201 0.57268 0.64149 0.0
H6616 H 0.2086 0.56621 0.66274 0.0
C6617 C 0.19465 0.59579 0.6554 0.0
C6618 C 0.19453 0.59761 0.66465 0.0
C6619 C 0.20004 0.58898 0.65186 0.0
C6620 C 0.21238 0.56813 0.65686 0.0
H6621 H 0.23572 0.55197 0.61902 0.0
H6622 H 0.2248 0.56144 0.62671 0.0
H6623 H 0.21814 0.55496 0.6553 0.0
H6624 H 0.1997 0.59327 0.67749 0.0
H6625 H 0.20911 0.58116 0.67125 0.0
H6626 H 0.21628 0.58579 0.64297 0.0
C6627 C 0.22905 0.55709 0.63067 0.0
C6628 C 0.21783 0.56168 0.65259 0.0
C6629 C 0.23531 0.55163 0.62624 0.0
C6630 C 0.19964 0.59208 0.67033 0.0
C6631 C 0.20503 0.58515 0.66676 0.0
C6632 C 0.21657 0.57907 0.64572 0.0
C6633 C 0.22847 0.55713 0.64007 0.0
C6634 C 0.22264 0.56386 0.64477 0.0
C6635 C 0.20543 0.58367 0.65745 0.0
C6636 C 0.2116 0.57686 0.65339 0.0
H6637 H 0.24455 0.54135 0.64437 0.0
H6638 H 0.23365 0.55092 0.65211 0.0
H6639 H 0.2258 0.57472 0.63566 0.0
H6640 H 0.19057 0.59967 0.65081 0.0
H6641 H 0.19999 0.58787 0.64469 0.0
C6642 C 0.27285 0.46847 0.14083 0.0
C6643 C 0.26914 0.46708 0.13227 0.0
C6644 C 0.2786 0.4621 0.14463 0.0
C6645 C 0.29321 0.44256 0.13876 0.0
H6646 H 0.29262 0.43863 0.16437 0.0
C6647 C 0.32001 0.42053 0.1557 0.0
C6648 C 0.31743 0.41504 0.16286 0.0
C6649 C 0.31417 0.42704 0.15234 0.0
C6650 C 0.29283 0.43955 0.15719 0.0
H6651 H 0.26859 0.45791 0.12095 0.0
H6652 H 0.27856 0.44669 0.12759 0.0
H6653 H 0.28212 0.44916 0.15764 0.0
H6654 H 0.30676 0.41225 0.17231 0.0
H6655 H 0.2964 0.4235 0.16633 0.0
H6656 H 0.30362 0.43267 0.13823 0.0
C6657 C 0.2771 0.45276 0.13137 0.0
C6658 C 0.28688 0.44571 0.15333 0.0
C6659 C 0.27131 0.45914 0.12758 0.0
C6660 C 0.30895 0.41642 0.16681 0.0
C6661 C 0.30302 0.42289 0.16337 0.0
C6662 C 0.29909 0.43632 0.1426 0.0
C6663 C 0.28082 0.45414 0.13997 0.0
C6664 C 0.28702 0.44736 0.14406 0.0
C6665 C 0.30549 0.4282 0.15597 0.0
C6666 C 0.29906 0.43476 0.15189 0.0
H6667 H 0.27124 0.47448 0.14465 0.0
H6668 H 0.2814 0.46349 0.15119 0.0
H6669 H 0.29362 0.44368 0.13162 0.0
H6670 H 0.32657 0.41972 0.15261 0.0
H6671 H 0.31647 0.43115 0.14685 0.0
C6672 C 0.63295 0.80916 0.51599 0.0
C6673 C 0.63116 0.79986 0.51566 0.0
C6674 C 0.62877 0.81473 0.5223 0.0
C6675 C 0.61506 0.81451 0.54335 0.0
H6676 H 0.60982 0.83891 0.53603 0.0
C6677 C 0.6027 0.84154 0.56852 0.0
C6678 C 0.59717 0.84859 0.56552 0.0
C6679 C 0.60625 0.83523 0.5625 0.0
C6680 C 0.61107 0.83209 0.53818 0.0
H6681 H 0.62369 0.78913 0.52208 0.0
H6682 H 0.61607 0.79888 0.53281 0.0
H6683 H 0.61699 0.82866 0.52562 0.0
H6684 H 0.59075 0.85425 0.55381 0.0
H6685 H 0.59676 0.84316 0.54333 0.0
H6686 H 0.60869 0.81783 0.55576 0.0
C6687 C 0.62086 0.80188 0.52827 0.0
C6688 C 0.61539 0.82622 0.53223 0.0
C6689 C 0.62516 0.79627 0.522 0.0
C6690 C 0.59509 0.849 0.55635 0.0
C6691 C 0.59858 0.84263 0.55033 0.0
C6692 C 0.61059 0.82035 0.54926 0.0
C6693 C 0.6225 0.81123 0.52842 0.0
C6694 C 0.61759 0.81737 0.53475 0.0
C6695 C 0.60434 0.83572 0.55329 0.0
C6696 C 0.60862 0.82928 0.54681 0.0
H6697 H 0.63741 0.81226 0.51118 0.0
H6698 H 0.63043 0.82182 0.52231 0.0
H6699 H 0.61666 0.8078 0.54562 0.0
H6700 H 0.60459 0.84107 0.5755 0.0
H6701 H 0.61076 0.83015 0.56509 0.0
C6702 C 0.47752 0.36442 0.80378 0.0
C6703 C 0.47045 0.36446 0.79747 0.0
C6704 C 0.47582 0.36636 0.81286 0.0
C6705 C 0.4585 0.37711 0.82758 0.0
H6706 H 0.46915 0.363 0.84658 0.0
C6707 C 0.44223 0.3753 0.86205 0.0
C6708 C 0.44764 0.37702 0.86963 0.0
C6709 C 0.44609 0.37393 0.85365 0.0
C6710 C 0.46621 0.36706 0.84134 0.0
H6711 H 0.45614 0.36687 0.79577 0.0
H6712 H 0.45318 0.37003 0.81139 0.0
H6713 H 0.47399 0.36057 0.83104 0.0
H6714 H 0.46149 0.37815 0.87426 0.0
H6715 H 0.46824 0.3755 0.85948 0.0
H6716 H 0.45051 0.38336 0.83776 0.0
C6717 C 0.46005 0.36858 0.80942 0.0
C6718 C 0.46899 0.36569 0.83244 0.0
C6719 C 0.46173 0.36664 0.80043 0.0
C6720 C 0.45709 0.37685 0.8686 0.0
C6721 C 0.46097 0.37535 0.86013 0.0
C6722 C 0.45568 0.3784 0.8364 0.0
C6723 C 0.46705 0.36849 0.8158 0.0
C6724 C 0.46499 0.37055 0.82541 0.0
C6725 C 0.45548 0.37409 0.85254 0.0
C6726 C 0.45933 0.37326 0.84336 0.0
H6727 H 0.48431 0.36273 0.80173 0.0
H6728 H 0.48139 0.36626 0.81756 0.0
H6729 H 0.45546 0.38119 0.82242 0.0
H6730 H 0.43496 0.37505 0.86258 0.0
H6731 H 0.44168 0.37277 0.84796 0.0
C6732 C 0.87536 0.20713 0.02397 0.0
C6733 C 0.88074 0.2125 0.01843 0.0
C6734 C 0.87934 0.2008 0.02967 0.0
C6735 C 0.89992 0.18722 0.03274 0.0
H6736 H 0.89229 0.18593 0.05747 0.0
C6737 C 0.91828 0.16435 0.05834 0.0
C6738 C 0.91308 0.1605 0.06513 0.0
C6739 C 0.91449 0.17079 0.05262 0.0
C6740 C 0.89443 0.18605 0.05055 0.0
H6741 H 0.89441 0.21545 0.01437 0.0
H6742 H 0.90137 0.20427 0.02415 0.0
H6743 H 0.88517 0.19667 0.04749 0.0
H6744 H 0.89989 0.16005 0.07121 0.0
H6745 H 0.89313 0.1709 0.06108 0.0
H6746 H 0.90901 0.17647 0.03568 0.0
C6747 C 0.8941 0.20495 0.02415 0.0
C6748 C 0.89035 0.19226 0.04483 0.0
C6749 C 0.89013 0.21137 0.01858 0.0
C6750 C 0.90404 0.16303 0.06605 0.0
C6751 C 0.90021 0.16932 0.06028 0.0
C6752 C 0.90392 0.18091 0.03842 0.0
C6753 C 0.88876 0.19962 0.0298 0.0
C6754 C 0.89304 0.19293 0.03586 0.0
C6755 C 0.90538 0.17337 0.0535 0.0
C6756 C 0.90123 0.18021 0.04743 0.0
H6757 H 0.8681 0.20793 0.02398 0.0
H6758 H 0.87504 0.19677 0.0339 0.0
H6759 H 0.9021 0.1875 0.02584 0.0
H6760 H 0.92529 0.16248 0.05753 0.0
H6761 H 0.91876 0.17381 0.04761 0.0
C6762 C 0.03988 0.65287 0.30573 0.0
C6763 C 0.04265 0.6465 0.29928 0.0
C6764 C 0.04173 0.65152 0.31486 0.0
C6765 C 0.05728 0.63828 0.32937 0.0
H6766 H 0.04171 0.64603 0.34873 0.0
C6767 C 0.0646 0.62763 0.36535 0.0
C6768 C 0.06431 0.63433 0.37204 0.0
C6769 C 0.06105 0.6292 0.35685 0.0
C6770 C 0.04615 0.64388 0.34339 0.0
H6771 H 0.04892 0.63347 0.29743 0.0
H6772 H 0.05186 0.63099 0.31319 0.0
H6773 H 0.03714 0.6486 0.33319 0.0
H6774 H 0.05961 0.6478 0.37514 0.0
H6775 H 0.05336 0.65056 0.3602 0.0
H6776 H 0.06624 0.63351 0.33948 0.0
C6777 C 0.0486 0.6372 0.31127 0.0
C6778 C 0.04354 0.64537 0.33447 0.0
C6779 C 0.04685 0.63859 0.30221 0.0
C6780 C 0.05992 0.64249 0.37014 0.0
C6781 C 0.05635 0.64407 0.36158 0.0
C6782 C 0.05983 0.63674 0.33822 0.0
C6783 C 0.04631 0.64374 0.31774 0.0
C6784 C 0.04904 0.64249 0.32732 0.0
C6785 C 0.05709 0.63752 0.35476 0.0
C6786 C 0.05428 0.63943 0.34536 0.0
H6787 H 0.03665 0.65906 0.30368 0.0
H6788 H 0.03986 0.65673 0.31961 0.0
H6789 H 0.06186 0.63622 0.32412 0.0
H6790 H 0.06773 0.62119 0.36665 0.0
H6791 H 0.06154 0.62392 0.35183 0.0
C6792 C 0.62988 0.21338 0.98569 0.0
C6793 C 0.62954 0.21101 0.99476 0.0
C6794 C 0.62561 0.20796 0.97919 0.0
C6795 C 0.60789 0.19043 0.97651 0.0
H6796 H 0.62095 0.18361 0.9551 0.0
C6797 C 0.59616 0.16088 0.95388 0.0
C6798 C 0.59755 0.16144 0.94458 0.0
C6799 C 0.59971 0.16741 0.95971 0.0
C6800 C 0.61712 0.18554 0.96096 0.0
H6801 H 0.62435 0.20133 1.0042 0.0
H6802 H 0.61685 0.19198 0.99296 0.0
H6803 H 0.6276 0.19442 0.96557 0.0
H6804 H 0.60385 0.16948 0.93424 0.0
H6805 H 0.6096 0.18102 0.94431 0.0
H6806 H 0.59741 0.1816 0.97196 0.0
C6807 C 0.62038 0.19797 0.9908 0.0
C6808 C 0.62096 0.19175 0.96698 0.0
C6809 C 0.62472 0.20329 0.99724 0.0
C6810 C 0.60247 0.16883 0.94131 0.0
C6811 C 0.60593 0.17541 0.94713 0.0
C6812 C 0.60403 0.18427 0.97049 0.0
C6813 C 0.62081 0.20017 0.98169 0.0
C6814 C 0.61644 0.19417 0.97489 0.0
C6815 C 0.60467 0.17477 0.95643 0.0
C6816 C 0.60863 0.18164 0.96267 0.0
H6817 H 0.63359 0.21929 0.98363 0.0
H6818 H 0.62604 0.20986 0.97223 0.0
H6819 H 0.60416 0.19225 0.98248 0.0
H6820 H 0.59233 0.15538 0.95669 0.0
H6821 H 0.59867 0.16659 0.96683 0.0
C6822 C 0.04207 0.37154 0.20814 0.0
C6823 C 0.03995 0.36283 0.21102 0.0
C6824 C 0.04385 0.37318 0.1991 0.0
C6825 C 0.04209 0.36356 0.176 0.0
H6826 H 0.06247 0.3793 0.17173 0.0
C6827 C 0.05944 0.36727 0.14113 0.0
C6828 C 0.06298 0.37577 0.13897 0.0
C6829 C 0.05572 0.36571 0.14961 0.0
C6830 C 0.05667 0.375 0.17275 0.0
H6831 H 0.03785 0.34904 0.20679 0.0
H6832 H 0.04095 0.35187 0.19094 0.0
H6833 H 0.05754 0.37665 0.18693 0.0
H6834 H 0.0648 0.38944 0.1438 0.0
H6835 H 0.05819 0.38681 0.15843 0.0
H6836 H 0.04133 0.36187 0.16173 0.0
C6837 C 0.04113 0.35747 0.19561 0.0
C6838 C 0.05383 0.37347 0.18151 0.0
C6839 C 0.03936 0.35583 0.20468 0.0
C6840 C 0.0623 0.38277 0.14531 0.0
C6841 C 0.05854 0.38124 0.15373 0.0
C6842 C 0.04494 0.3651 0.16718 0.0
C6843 C 0.04362 0.36614 0.19274 0.0
C6844 C 0.04648 0.36776 0.18329 0.0
C6845 C 0.05541 0.37264 0.1561 0.0
C6846 C 0.05225 0.37089 0.16544 0.0
H6847 H 0.04264 0.37702 0.21293 0.0
H6848 H 0.04558 0.37997 0.19714 0.0
H6849 H 0.03638 0.35916 0.17709 0.0
H6850 H 0.0599 0.36173 0.1364 0.0
H6851 H 0.05342 0.35899 0.15119 0.0
C6852 C 0.8876 0.79797 0.48747 0.0
C6853 C 0.87905 0.80029 0.49085 0.0
C6854 C 0.89166 0.80312 0.48075 0.0
C6855 C 0.88712 0.82208 0.46471 0.0
H6856 H 0.91296 0.82567 0.46666 0.0
C6857 C 0.90507 0.85237 0.44879 0.0
C6858 C 0.91277 0.85051 0.44364 0.0
C6859 C 0.90126 0.84574 0.4542 0.0
C6860 C 0.90575 0.82469 0.466 0.0
H6861 H 0.86781 0.80946 0.48916 0.0
H6862 H 0.87502 0.81867 0.47804 0.0
H6863 H 0.90554 0.81471 0.47621 0.0
H6864 H 0.92272 0.84033 0.44041 0.0
H6865 H 0.9161 0.82875 0.44998 0.0
H6866 H 0.88734 0.83239 0.45477 0.0
C6867 C 0.87861 0.81282 0.48039 0.0
C6868 C 0.90147 0.81834 0.47143 0.0
C6869 C 0.8745 0.80758 0.48696 0.0
C6870 C 0.91675 0.84194 0.44425 0.0
C6871 C 0.91299 0.83533 0.44976 0.0
C6872 C 0.89138 0.82853 0.45941 0.0
C6873 C 0.88735 0.81081 0.47731 0.0
C6874 C 0.89205 0.817 0.47096 0.0
C6875 C 0.9051 0.83712 0.45466 0.0
C6876 C 0.90071 0.82998 0.46007 0.0
H6877 H 0.89135 0.7924 0.49025 0.0
H6878 H 0.89827 0.80116 0.47841 0.0
H6879 H 0.87993 0.82113 0.46389 0.0
H6880 H 0.90179 0.85886 0.44843 0.0
H6881 H 0.89525 0.84735 0.45799 0.0
C6882 C 0.46362 0.64123 0.70856 0.0
C6883 C 0.4726 0.6435 0.71063 0.0
C6884 C 0.46073 0.64051 0.69966 0.0
C6885 C 0.46729 0.64587 0.67603 0.0
H6886 H 0.44932 0.62763 0.67062 0.0
C6887 C 0.45612 0.63459 0.63985 0.0
C6888 C 0.44671 0.63406 0.63858 0.0
C6889 C 0.45976 0.63615 0.64842 0.0
C6890 C 0.45433 0.63278 0.67203 0.0
H6891 H 0.48547 0.64719 0.70479 0.0
H6892 H 0.48057 0.64552 0.68935 0.0
H6893 H 0.45464 0.62954 0.6859 0.0
H6894 H 0.43382 0.63539 0.64534 0.0
H6895 H 0.44015 0.63774 0.66015 0.0
H6896 H 0.46706 0.64887 0.66198 0.0
C6897 C 0.47569 0.64441 0.6946 0.0
C6898 C 0.45734 0.63394 0.68083 0.0
C6899 C 0.47855 0.64524 0.70351 0.0
C6900 C 0.44109 0.63543 0.64604 0.0
C6901 C 0.44471 0.63684 0.65456 0.0
C6902 C 0.46435 0.64461 0.66717 0.0
C6903 C 0.46676 0.64193 0.69252 0.0
C6904 C 0.46377 0.64059 0.68301 0.0
C6905 C 0.45407 0.63711 0.65588 0.0
C6906 C 0.45774 0.63813 0.66511 0.0
H6907 H 0.45883 0.63976 0.71381 0.0
H6908 H 0.45375 0.6388 0.69839 0.0
H6909 H 0.47217 0.65113 0.67741 0.0
H6910 H 0.46068 0.63355 0.63429 0.0
H6911 H 0.46702 0.63633 0.64925 0.0
C6912 C 0.5215 0.63157 0.80412 0.0
C6913 C 0.52144 0.6299 0.79484 0.0
C6914 C 0.52763 0.62723 0.80971 0.0
C6915 C 0.54895 0.61424 0.81028 0.0
H6916 H 0.53928 0.60616 0.83293 0.0
C6917 C 0.56981 0.59312 0.83563 0.0
C6918 C 0.5691 0.59579 0.84466 0.0
C6919 C 0.56401 0.59668 0.82915 0.0
C6920 C 0.54212 0.60842 0.82667 0.0
H6921 H 0.52813 0.62255 0.78416 0.0
H6922 H 0.53878 0.61482 0.79399 0.0
H6923 H 0.52948 0.61373 0.82235 0.0
H6924 H 0.56175 0.60443 0.85387 0.0
H6925 H 0.55166 0.61052 0.84265 0.0
H6926 H 0.56163 0.6089 0.81469 0.0
C6927 C 0.53406 0.61956 0.7969 0.0
C6928 C 0.5365 0.61279 0.8206 0.0
C6929 C 0.52791 0.62394 0.79128 0.0
C6930 C 0.56238 0.60204 0.84704 0.0
C6931 C 0.55659 0.60557 0.84058 0.0
C6932 C 0.55459 0.60983 0.81638 0.0
C6933 C 0.53387 0.62102 0.80622 0.0
C6934 C 0.53986 0.61591 0.81239 0.0
C6935 C 0.55735 0.60298 0.83155 0.0
C6936 C 0.55127 0.60701 0.82472 0.0
H6937 H 0.51659 0.63601 0.80716 0.0
H6938 H 0.5274 0.62867 0.81682 0.0
H6939 H 0.55178 0.61657 0.80404 0.0
H6940 H 0.57482 0.58824 0.83357 0.0
H6941 H 0.5647 0.59446 0.82226 0.0
C6942 C 0.63817 0.30215 0.03819 0.0
C6943 C 0.64403 0.29606 0.04241 0.0
C6944 C 0.63761 0.31112 0.04108 0.0
C6945 C 0.64242 0.32594 0.06061 0.0
H6946 H 0.63956 0.34512 0.0434 0.0
C6947 C 0.64272 0.36297 0.0721 0.0
C6948 C 0.63667 0.36894 0.06802 0.0
C6949 C 0.64416 0.35438 0.06851 0.0
C6950 C 0.64026 0.33985 0.04831 0.0
H6951 H 0.65399 0.29474 0.05296 0.0
H6952 H 0.65304 0.31039 0.05799 0.0
H6953 H 0.641 0.32959 0.03818 0.0
H6954 H 0.62753 0.3707 0.05687 0.0
H6955 H 0.62983 0.35555 0.05068 0.0
H6956 H 0.64154 0.33611 0.07075 0.0
C6957 C 0.64876 0.30819 0.05251 0.0
C6958 C 0.64109 0.33092 0.04531 0.0
C6959 C 0.64931 0.2992 0.04962 0.0
C6960 C 0.63228 0.36624 0.06011 0.0
C6961 C 0.63362 0.35756 0.05657 0.0
C6962 C 0.64155 0.33484 0.06361 0.0
C6963 C 0.6429 0.31428 0.04827 0.0
C6964 C 0.64218 0.32383 0.05143 0.0
C6965 C 0.63947 0.35144 0.06082 0.0
C6966 C 0.64047 0.34195 0.05751 0.0
H6967 H 0.63387 0.29995 0.03273 0.0
H6968 H 0.63289 0.31554 0.03776 0.0
H6969 H 0.64307 0.32067 0.06553 0.0
H6970 H 0.64628 0.36494 0.07814 0.0
H6971 H 0.64891 0.35001 0.07185 0.0
C6972 C 0.98862 0.3746 0.30036 0.0
C6973 C 0.99012 0.37872 0.29205 0.0
C6974 C 0.98307 0.37869 0.3068 0.0
C6975 C 0.96514 0.396 0.30952 0.0
H6976 H 0.97235 0.39561 0.33445 0.0
C6977 C 0.94555 0.41625 0.33646 0.0
C6978 C 0.94459 0.41236 0.34494 0.0
C6979 C 0.95136 0.41243 0.33009 0.0
C6980 C 0.97014 0.3957 0.32754 0.0
H6981 H 0.98701 0.39049 0.28411 0.0
H6982 H 0.9774 0.39757 0.29528 0.0
H6983 H 0.98165 0.38812 0.32326 0.0
H6984 H 0.94893 0.40137 0.35335 0.0
H6985 H 0.95881 0.39459 0.34226 0.0
H6986 H 0.95358 0.40346 0.31377 0.0
C6987 C 0.98036 0.3911 0.29678 0.0
C6988 C 0.97551 0.39139 0.32111 0.0
C6989 C 0.98589 0.38702 0.29036 0.0
C6990 C 0.94962 0.40461 0.34693 0.0
C6991 C 0.95532 0.40073 0.34054 0.0
C6992 C 0.95975 0.40026 0.31596 0.0
C6993 C 0.97889 0.38701 0.30511 0.0
C6994 C 0.97309 0.39149 0.312 0.0
C6995 C 0.95626 0.40454 0.33199 0.0
C6996 C 0.96215 0.40018 0.32508 0.0
H6997 H 0.99165 0.36817 0.30186 0.0
H6998 H 0.98198 0.37528 0.31308 0.0
H6999 H 0.96299 0.39612 0.30259 0.0
H7000 H 0.94183 0.42227 0.33476 0.0
H7001 H 0.95201 0.41569 0.32367 0.0
C7002 C 0.87167 0.7107 0.53549 0.0
C7003 C 0.86562 0.71681 0.53949 0.0
C7004 C 0.87215 0.70177 0.53836 0.0
C7005 C 0.86668 0.68714 0.55757 0.0
H7006 H 0.87046 0.66786 0.54034 0.0
C7007 C 0.86696 0.65018 0.56877 0.0
C7008 C 0.87331 0.6444 0.56485 0.0
C7009 C 0.86535 0.65869 0.5652 0.0
C7010 C 0.8695 0.67316 0.54527 0.0
H7011 H 0.85528 0.71822 0.54962 0.0
H7012 H 0.85608 0.70263 0.55461 0.0
H7013 H 0.86895 0.68331 0.53519 0.0
H7014 H 0.88286 0.64284 0.55403 0.0
H7015 H 0.8803 0.65787 0.5479 0.0
H7016 H 0.86737 0.67707 0.56767 0.0
C7017 C 0.86055 0.70479 0.54932 0.0
C7018 C 0.86862 0.68204 0.5423 0.0
C7019 C 0.86008 0.71374 0.54646 0.0
C7020 C 0.87787 0.64718 0.55713 0.0
C7021 C 0.87637 0.65578 0.55362 0.0
C7022 C 0.86759 0.67828 0.56054 0.0
C7023 C 0.8666 0.69867 0.5453 0.0
C7024 C 0.86724 0.68916 0.54842 0.0
C7025 C 0.87019 0.66172 0.55771 0.0
C7026 C 0.86903 0.67115 0.55444 0.0
H7027 H 0.87617 0.71285 0.53023 0.0
H7028 H 0.87702 0.69734 0.53523 0.0
H7029 H 0.86578 0.69244 0.5625 0.0
H7030 H 0.8633 0.64813 0.57468 0.0
H7031 H 0.86037 0.66294 0.5684 0.0
C7032 C 0.51752 0.38563 0.70851 0.0
C7033 C 0.52117 0.38002 0.71515 0.0
C7034 C 0.5231 0.3898 0.70222 0.0
C7035 C 0.54597 0.38863 0.69212 0.0
H7036 H 0.54104 0.41329 0.68536 0.0
C7037 C 0.57115 0.40886 0.67089 0.0
C7038 C 0.56771 0.41445 0.66414 0.0
C7039 C 0.56544 0.40497 0.67722 0.0
C7040 C 0.54246 0.40637 0.68709 0.0
H7041 H 0.53362 0.37427 0.72015 0.0
H7042 H 0.54334 0.38166 0.70934 0.0
H7043 H 0.53118 0.40574 0.69598 0.0
H7044 H 0.55547 0.42052 0.65901 0.0
H7045 H 0.54547 0.41354 0.66988 0.0
H7046 H 0.55723 0.38923 0.68323 0.0
C7047 C 0.53613 0.38278 0.70894 0.0
C7048 C 0.53679 0.40203 0.69319 0.0
C7049 C 0.53055 0.37861 0.71522 0.0
C7050 C 0.55838 0.41617 0.66402 0.0
C7051 C 0.55264 0.41224 0.67034 0.0
C7052 C 0.55162 0.39296 0.68602 0.0
C7053 C 0.5325 0.38849 0.70238 0.0
C7054 C 0.53848 0.3931 0.6958 0.0
C7055 C 0.55609 0.40649 0.67696 0.0
C7056 C 0.54998 0.4019 0.68344 0.0
H7057 H 0.51035 0.38697 0.70828 0.0
H7058 H 0.52003 0.39403 0.69721 0.0
H7059 H 0.5474 0.38171 0.69383 0.0
H7060 H 0.57827 0.40725 0.67118 0.0
H7061 H 0.56838 0.40072 0.6823 0.0
C7062 C 0.85718 0.29993 0.96499 0.0
C7063 C 0.8641 0.29466 0.96869 0.0
C7064 C 0.85849 0.3091 0.96339 0.0
C7065 C 0.87372 0.32872 0.96806 0.0
H7066 H 0.86347 0.33734 0.94583 0.0
C7067 C 0.88385 0.36238 0.95088 0.0
C7068 C 0.87683 0.36751 0.94723 0.0
C7069 C 0.8821 0.35389 0.95452 0.0
C7070 C 0.86629 0.33508 0.95211 0.0
H7071 H 0.87769 0.29506 0.97401 0.0
H7072 H 0.88004 0.31107 0.97114 0.0
H7073 H 0.86088 0.32187 0.9503 0.0
H7074 H 0.8625 0.36793 0.94456 0.0
H7075 H 0.85942 0.35301 0.95075 0.0
H7076 H 0.87937 0.34197 0.96964 0.0
C7077 C 0.87355 0.30812 0.96952 0.0
C7078 C 0.86478 0.32619 0.95472 0.0
C7079 C 0.87222 0.29892 0.97117 0.0
C7080 C 0.868 0.36411 0.9474 0.0
C7081 C 0.86627 0.35556 0.95089 0.0
C7082 C 0.8753 0.33762 0.96539 0.0
C7083 C 0.86678 0.31329 0.96539 0.0
C7084 C 0.86842 0.32286 0.96275 0.0
C7085 C 0.87331 0.3503 0.95439 0.0
C7086 C 0.87157 0.34091 0.9574 0.0
H7087 H 0.85077 0.29692 0.96317 0.0
H7088 H 0.853 0.31287 0.96047 0.0
H7089 H 0.87656 0.32646 0.97433 0.0
H7090 H 0.89072 0.36488 0.95078 0.0
H7091 H 0.88767 0.34999 0.95712 0.0
C7092 C 0.98659 0.62348 0.21862 0.0
C7093 C 0.99113 0.6316 0.21682 0.0
C7094 C 0.981 0.61942 0.21219 0.0
C7095 C 0.97633 0.6188 0.18776 0.0
H7096 H 0.95406 0.60731 0.19505 0.0
C7097 C 0.95015 0.60593 0.16188 0.0
C7098 C 0.94494 0.59829 0.16387 0.0
C7099 C 0.95593 0.60974 0.16828 0.0
C7100 C 0.96032 0.61035 0.19288 0.0
H7101 H 0.99317 0.64186 0.20679 0.0
H7102 H 0.98337 0.6348 0.19557 0.0
H7103 H 0.9636 0.61461 0.20622 0.0
H7104 H 0.94194 0.5885 0.1741 0.0
H7105 H 0.95223 0.59497 0.18523 0.0
H7106 H 0.9731 0.61448 0.17445 0.0
C7107 C 0.98426 0.63149 0.20194 0.0
C7108 C 0.9658 0.61458 0.19931 0.0
C7109 C 0.98988 0.63556 0.20838 0.0
C7110 C 0.94579 0.59444 0.17239 0.0
C7111 C 0.95167 0.59819 0.17878 0.0
C7112 C 0.97087 0.61453 0.18134 0.0
C7113 C 0.97976 0.62335 0.20374 0.0
C7114 C 0.97387 0.61889 0.19685 0.0
C7115 C 0.95676 0.60597 0.17686 0.0
C7116 C 0.96275 0.61027 0.18378 0.0
H7117 H 0.9875 0.62013 0.22497 0.0
H7118 H 0.9778 0.61308 0.21379 0.0
H7119 H 0.98256 0.62189 0.18562 0.0
H7120 H 0.94954 0.60915 0.15543 0.0
H7121 H 0.95956 0.6158 0.16655 0.0
C7122 C 0.64898 0.71159 0.45984 0.0
C7123 C 0.64379 0.71467 0.4671 0.0
C7124 C 0.64855 0.70257 0.45705 0.0
C7125 C 0.64146 0.67975 0.46454 0.0
H7126 H 0.64126 0.67442 0.43913 0.0
C7127 C 0.63258 0.64429 0.45008 0.0
C7128 C 0.63682 0.6416 0.44211 0.0
C7129 C 0.63394 0.65299 0.45357 0.0
C7130 C 0.64146 0.67573 0.44626 0.0
H7131 H 0.63391 0.71065 0.47698 0.0
H7132 H 0.63313 0.695 0.47211 0.0
H7133 H 0.64271 0.68991 0.44421 0.0
H7134 H 0.64622 0.64564 0.43184 0.0
H7135 H 0.64888 0.66062 0.43803 0.0
H7136 H 0.64018 0.66554 0.46657 0.0
C7137 C 0.6377 0.69949 0.46868 0.0
C7138 C 0.64228 0.68466 0.44918 0.0
C7139 C 0.63814 0.70849 0.47147 0.0
C7140 C 0.64277 0.6476 0.43793 0.0
C7141 C 0.64423 0.65621 0.44146 0.0
C7142 C 0.64067 0.67079 0.46161 0.0
C7143 C 0.64289 0.69639 0.46143 0.0
C7144 C 0.64226 0.68681 0.45835 0.0
C7145 C 0.63967 0.65914 0.4492 0.0
C7146 C 0.64065 0.66865 0.45242 0.0
H7147 H 0.6535 0.71612 0.45639 0.0
H7148 H 0.65274 0.70041 0.45151 0.0
H7149 H 0.64154 0.68113 0.47166 0.0
H7150 H 0.62792 0.63981 0.45341 0.0
H7151 H 0.63026 0.655 0.4595 0.0
C7152 C 0.79742 0.52308 0.62017 0.0
C7153 C 0.79691 0.52252 0.62955 0.0
C7154 C 0.80291 0.52953 0.61612 0.0
C7155 C 0.81474 0.55106 0.61956 0.0
H7156 H 0.83182 0.54166 0.60227 0.0
C7157 C 0.84423 0.57298 0.6071 0.0
C7158 C 0.84776 0.57147 0.59853 0.0
C7159 C 0.83774 0.56718 0.61064 0.0
C7160 C 0.82701 0.54451 0.60693 0.0
H7161 H 0.80139 0.52868 0.64199 0.0
H7162 H 0.81093 0.54 0.6349 0.0
H7163 H 0.82056 0.53171 0.60867 0.0
H7164 H 0.84729 0.56279 0.58686 0.0
H7165 H 0.83557 0.55291 0.59275 0.0
H7166 H 0.82089 0.56389 0.61766 0.0
C7167 C 0.80711 0.53539 0.6307 0.0
C7168 C 0.82057 0.53875 0.61064 0.0
C7169 C 0.80169 0.52886 0.63476 0.0
C7170 C 0.84467 0.56406 0.59351 0.0
C7171 C 0.838 0.55837 0.59695 0.0
C7172 C 0.82105 0.55687 0.61571 0.0
C7173 C 0.80795 0.53565 0.62134 0.0
C7174 C 0.81443 0.54193 0.61706 0.0
C7175 C 0.83443 0.55982 0.6056 0.0
C7176 C 0.82739 0.55367 0.60941 0.0
H7177 H 0.79389 0.51827 0.61595 0.0
H7178 H 0.80336 0.52965 0.60889 0.0
H7179 H 0.81004 0.55372 0.62443 0.0
H7180 H 0.84661 0.5786 0.61114 0.0
H7181 H 0.83545 0.56845 0.61739 0.0
C7182 C 0.30412 0.98261 0.37614 0.0
C7183 C 0.29886 0.98854 0.38134 0.0
C7184 C 0.30957 0.97613 0.38021 0.0
C7185 C 0.32133 0.97186 0.40153 0.0
H7186 H 0.32539 0.94819 0.39123 0.0
C7187 C 0.3447 0.9456 0.41836 0.0
C7188 C 0.35006 0.94034 0.41266 0.0
C7189 C 0.33803 0.95123 0.41482 0.0
C7190 C 0.32442 0.95481 0.39415 0.0
H7191 H 0.29497 0.99198 0.39492 0.0
H7192 H 0.3043 0.98055 0.40198 0.0
H7193 H 0.31421 0.95811 0.38456 0.0
H7194 H 0.35284 0.9368 0.39889 0.0
H7195 H 0.34134 0.94671 0.39264 0.0
H7196 H 0.33163 0.96864 0.41103 0.0
C7197 C 0.30433 0.98103 0.39475 0.0
C7198 C 0.31798 0.96049 0.39033 0.0
C7199 C 0.29887 0.98751 0.39069 0.0
C7200 C 0.34874 0.94081 0.40339 0.0
C7201 C 0.3421 0.94642 0.39984 0.0
C7202 C 0.32779 0.96619 0.40534 0.0
C7203 C 0.30991 0.9754 0.38958 0.0
C7204 C 0.31639 0.96912 0.39393 0.0
C7205 C 0.33661 0.95168 0.4055 0.0
C7206 C 0.32948 0.95761 0.40166 0.0
H7207 H 0.30419 0.98311 0.36892 0.0
H7208 H 0.31379 0.97193 0.376 0.0
H7209 H 0.3204 0.97851 0.4044 0.0
H7210 H 0.34563 0.9453 0.42554 0.0
H7211 H 0.3339 0.95511 0.41939 0.0
C7212 C 0.30003 0.04267 0.63924 0.0
C7213 C 0.29667 0.04206 0.64798 0.0
C7214 C 0.30922 0.04431 0.63776 0.0
C7215 C 0.33194 0.04397 0.64839 0.0
H7216 H 0.33727 0.06252 0.6311 0.0
C7217 C 0.36744 0.06061 0.64528 0.0
C7218 C 0.37014 0.06368 0.63683 0.0
C7219 C 0.35876 0.05705 0.64654 0.0
C7220 C 0.33598 0.0572 0.63584 0.0
H7221 H 0.30023 0.04243 0.66202 0.0
H7222 H 0.31634 0.04509 0.65947 0.0
H7223 H 0.32178 0.05778 0.63335 0.0
H7224 H 0.36609 0.06486 0.62296 0.0
H7225 H 0.35116 0.05841 0.62504 0.0
H7226 H 0.34618 0.04338 0.65086 0.0
C7227 C 0.31191 0.0443 0.65374 0.0
C7228 C 0.32704 0.05449 0.63714 0.0
C7229 C 0.3027 0.0428 0.65522 0.0
C7230 C 0.36415 0.0627 0.62959 0.0
C7231 C 0.35555 0.05905 0.63081 0.0
C7232 C 0.34092 0.04663 0.64703 0.0
C7233 C 0.31526 0.04529 0.645 0.0
C7234 C 0.32488 0.04786 0.64344 0.0
C7235 C 0.35261 0.05638 0.63934 0.0
C7236 C 0.34308 0.05331 0.64074 0.0
H7237 H 0.29549 0.04223 0.63357 0.0
H7238 H 0.31158 0.04494 0.63094 0.0
H7239 H 0.33053 0.03879 0.65325 0.0
H7240 H 0.37189 0.06133 0.651 0.0
H7241 H 0.35677 0.05514 0.65322 0.0
C7242 C 0.20573 0.01599 0.88038 0.0
C7243 C 0.21426 0.01928 0.87788 0.0
C7244 C 0.1993 0.02171 0.88426 0.0
C7245 C 0.1974 0.04362 0.89636 0.0
H7246 H 0.17188 0.04077 0.8914 0.0
C7247 C 0.17039 0.06974 0.90701 0.0
C7248 C 0.16222 0.06648 0.91056 0.0
C7249 C 0.17683 0.06385 0.90347 0.0
C7250 C 0.17898 0.04159 0.89293 0.0
H7251 H 0.22248 0.03135 0.87715 0.0
H7252 H 0.21132 0.04128 0.88387 0.0
H7253 H 0.18274 0.03098 0.88391 0.0
H7254 H 0.15479 0.05421 0.91347 0.0
H7255 H 0.16587 0.04404 0.90695 0.0
H7256 H 0.19361 0.05436 0.90525 0.0
C7257 C 0.20966 0.03422 0.88304 0.0
C7258 C 0.18522 0.03597 0.88864 0.0
C7259 C 0.21607 0.02851 0.87915 0.0
C7260 C 0.16083 0.05708 0.91061 0.0
C7261 C 0.16721 0.0512 0.90691 0.0
C7262 C 0.19117 0.04929 0.90059 0.0
C7263 C 0.20122 0.03088 0.88576 0.0
C7264 C 0.19453 0.03691 0.89029 0.0
C7265 C 0.17526 0.05453 0.90323 0.0
C7266 C 0.18188 0.04834 0.89892 0.0
H7267 H 0.2041 0.00892 0.87962 0.0
H7268 H 0.19293 0.01885 0.88634 0.0
H7269 H 0.20448 0.04445 0.89796 0.0
H7270 H 0.17173 0.07689 0.90663 0.0
H7271 H 0.18293 0.06663 0.90063 0.0
C7272 C 0.70892 0.47466 0.63589 0.0
C7273 C 0.71382 0.47348 0.64385 0.0
C7274 C 0.69994 0.47185 0.63524 0.0
C7275 C 0.67963 0.46724 0.64839 0.0
H7276 H 0.67222 0.45357 0.62744 0.0
C7277 C 0.64377 0.45151 0.64469 0.0
C7278 C 0.64024 0.4504 0.63603 0.0
C7279 C 0.65256 0.45481 0.64595 0.0
C7280 C 0.67408 0.45754 0.63326 0.0
H7281 H 0.71315 0.46849 0.6574 0.0
H7282 H 0.69729 0.46371 0.65633 0.0
H7283 H 0.68787 0.45814 0.62909 0.0
H7284 H 0.64282 0.45238 0.62194 0.0
H7285 H 0.65789 0.45857 0.6241 0.0
H7286 H 0.6658 0.46685 0.65248 0.0
C7287 C 0.70046 0.46677 0.65058 0.0
C7288 C 0.68311 0.4601 0.63423 0.0
C7289 C 0.70953 0.46944 0.65118 0.0
C7290 C 0.64544 0.4531 0.62869 0.0
C7291 C 0.65413 0.45655 0.62995 0.0
C7292 C 0.67054 0.46479 0.64737 0.0
C7293 C 0.69558 0.46792 0.64258 0.0
C7294 C 0.68599 0.46499 0.64179 0.0
C7295 C 0.65795 0.45719 0.63857 0.0
C7296 C 0.66762 0.45992 0.63976 0.0
H7297 H 0.71207 0.47771 0.63013 0.0
H7298 H 0.69635 0.47288 0.62901 0.0
H7299 H 0.68165 0.47108 0.65426 0.0
H7300 H 0.6399 0.44941 0.65045 0.0
H7301 H 0.65523 0.45513 0.65269 0.0
C7302 C 0.7166 0.48615 0.12492 0.0
C7303 C 0.71455 0.49141 0.13253 0.0
C7304 C 0.71016 0.48039 0.12109 0.0
C7305 C 0.68548 0.47639 0.11984 0.0
H7306 H 0.6926 0.45302 0.11058 0.0
C7307 C 0.65924 0.4499 0.10818 0.0
C7308 C 0.66137 0.4442 0.10093 0.0
C7309 C 0.66569 0.45577 0.1118 0.0
C7310 C 0.69049 0.45957 0.113 0.0
H7311 H 0.70405 0.49453 0.14214 0.0
H7312 H 0.69282 0.48447 0.13546 0.0
H7313 H 0.70383 0.46282 0.11751 0.0
H7314 H 0.67194 0.44042 0.09166 0.0
H7315 H 0.68318 0.45078 0.09787 0.0
H7316 H 0.67216 0.47319 0.11529 0.0
C7317 C 0.6994 0.48492 0.13238 0.0
C7318 C 0.69695 0.4652 0.11701 0.0
C7319 C 0.70585 0.49069 0.13622 0.0
C7320 C 0.6701 0.44464 0.09731 0.0
C7321 C 0.67656 0.45057 0.1009 0.0
C7322 C 0.67902 0.47078 0.1158 0.0
C7323 C 0.70145 0.47972 0.12474 0.0
C7324 C 0.69454 0.47368 0.12051 0.0
C7325 C 0.67447 0.45617 0.10826 0.0
C7326 C 0.68142 0.46227 0.11234 0.0
H7327 H 0.72315 0.48663 0.12178 0.0
H7328 H 0.71196 0.47662 0.11513 0.0
H7329 H 0.68339 0.48293 0.1223 0.0
H7330 H 0.65264 0.44964 0.11125 0.0
H7331 H 0.66385 0.45984 0.11756 0.0
C7332 C 0.30116 0.97246 0.86906 0.0
C7333 C 0.2966 0.96826 0.86188 0.0
C7334 C 0.3105 0.97136 0.87021 0.0
C7335 C 0.33122 0.96213 0.85863 0.0
H7336 H 0.34044 0.96127 0.88286 0.0
C7337 C 0.36853 0.95277 0.86543 0.0
C7338 C 0.37039 0.94766 0.8731 0.0
C7339 C 0.36001 0.95666 0.86416 0.0
C7340 C 0.338 0.96135 0.87603 0.0
H7341 H 0.29856 0.96002 0.84999 0.0
H7342 H 0.31447 0.95763 0.85226 0.0
H7343 H 0.3248 0.9651 0.88033 0.0
H7344 H 0.36479 0.94311 0.88568 0.0
H7345 H 0.34996 0.94936 0.88328 0.0
H7346 H 0.3442 0.95768 0.85437 0.0
C7347 C 0.31098 0.96196 0.85696 0.0
C7348 C 0.32899 0.96376 0.87455 0.0
C7349 C 0.30172 0.96319 0.85574 0.0
C7350 C 0.36358 0.94682 0.87959 0.0
C7351 C 0.35505 0.95058 0.87827 0.0
C7352 C 0.34016 0.95952 0.86012 0.0
C7353 C 0.31555 0.96593 0.86427 0.0
C7354 C 0.32539 0.96407 0.86583 0.0
C7355 C 0.35306 0.95548 0.87049 0.0
C7356 C 0.34369 0.95896 0.86885 0.0
H7357 H 0.29749 0.97639 0.87397 0.0
H7358 H 0.31371 0.97472 0.87582 0.0
H7359 H 0.32888 0.96251 0.85178 0.0
H7360 H 0.37357 0.95356 0.86027 0.0
H7361 H 0.35888 0.96053 0.85816 0.0
C7362 C 0.20936 0.0349 0.35915 0.0
C7363 C 0.21573 0.03789 0.3655 0.0
C7364 C 0.20036 0.0377 0.35965 0.0
C7365 C 0.18559 0.0549 0.37076 0.0
H7366 H 0.16636 0.03848 0.36394 0.0
C7367 C 0.14894 0.06188 0.38048 0.0
C7368 C 0.14248 0.06142 0.3736 0.0
C7369 C 0.1576 0.05844 0.37922 0.0
C7370 C 0.17167 0.04315 0.36582 0.0
H7371 H 0.21759 0.04607 0.37742 0.0
H7372 H 0.20194 0.05073 0.37849 0.0
H7373 H 0.18207 0.03384 0.3622 0.0
H7374 H 0.13993 0.05646 0.36014 0.0
H7375 H 0.15511 0.0503 0.35798 0.0
H7376 H 0.17518 0.06409 0.37462 0.0
C7377 C 0.20388 0.04646 0.37292 0.0
C7378 C 0.18069 0.04053 0.36478 0.0
C7379 C 0.21289 0.04376 0.37234 0.0
C7380 C 0.14474 0.05692 0.36559 0.0
C7381 C 0.15343 0.05341 0.36434 0.0
C7382 C 0.17661 0.05746 0.37191 0.0
C7383 C 0.19746 0.04348 0.36659 0.0
C7384 C 0.1878 0.04634 0.36732 0.0
C7385 C 0.16003 0.05437 0.37107 0.0
C7386 C 0.16954 0.0516 0.36953 0.0
H7387 H 0.21136 0.03044 0.35375 0.0
H7388 H 0.1957 0.03538 0.35455 0.0
H7389 H 0.1908 0.0597 0.37256 0.0
H7390 H 0.14737 0.06508 0.38682 0.0
H7391 H 0.16247 0.05909 0.38461 0.0
C7392 C 0.40043 0.2222 0.45874 0.0
C7393 C 0.39561 0.21736 0.46519 0.0
C7394 C 0.39917 0.22037 0.44958 0.0
C7395 C 0.39022 0.2021 0.4346 0.0
H7396 H 0.39221 0.22001 0.41598 0.0
C7397 C 0.37901 0.19449 0.39856 0.0
C7398 C 0.38508 0.19663 0.39168 0.0
C7399 C 0.38039 0.19768 0.40727 0.0
C7400 C 0.39169 0.21493 0.42112 0.0
H7401 H 0.38542 0.20716 0.46719 0.0
H7402 H 0.38286 0.20426 0.45136 0.0
H7403 H 0.39423 0.22449 0.43168 0.0
H7404 H 0.39722 0.20411 0.38856 0.0
H7405 H 0.3996 0.20978 0.40386 0.0
H7406 H 0.38749 0.19261 0.42411 0.0
C7407 C 0.38789 0.20922 0.45324 0.0
C7408 C 0.39287 0.21749 0.43013 0.0
C7409 C 0.38925 0.21095 0.46234 0.0
C7410 C 0.39245 0.20228 0.39372 0.0
C7411 C 0.39378 0.20558 0.40245 0.0
C7412 C 0.38892 0.1996 0.42567 0.0
C7413 C 0.393 0.2137 0.4467 0.0
C7414 C 0.39205 0.21111 0.43702 0.0
C7415 C 0.38784 0.20318 0.40936 0.0
C7416 C 0.38955 0.20598 0.41882 0.0
H7417 H 0.40543 0.22714 0.4608 0.0
H7418 H 0.40328 0.22395 0.44479 0.0
H7419 H 0.38983 0.1969 0.43962 0.0
H7420 H 0.37331 0.19009 0.39726 0.0
H7421 H 0.37564 0.19578 0.41243 0.0
C7422 C 0.54285 0.63534 0.2331 0.0
C7423 C 0.54672 0.62822 0.23794 0.0
C7424 C 0.54793 0.64001 0.22669 0.0
C7425 C 0.57119 0.64637 0.223 0.0
H7426 H 0.56513 0.65132 0.19829 0.0
C7427 C 0.59804 0.65784 0.19813 0.0
C7428 C 0.59575 0.66348 0.19098 0.0
C7429 C 0.59144 0.65461 0.20391 0.0
C7430 C 0.56685 0.65016 0.20523 0.0
H7431 H 0.55864 0.61984 0.23911 0.0
H7432 H 0.56748 0.62809 0.2282 0.0
H7433 H 0.55438 0.6432 0.20773 0.0
H7434 H 0.58475 0.6705 0.18454 0.0
H7435 H 0.57314 0.665 0.19482 0.0
H7436 H 0.58354 0.65337 0.22069 0.0
C7437 C 0.5606 0.63017 0.22946 0.0
C7438 C 0.56071 0.64546 0.2106 0.0
C7439 C 0.55552 0.62546 0.23574 0.0
C7440 C 0.58672 0.66617 0.19001 0.0
C7441 C 0.58006 0.66293 0.19583 0.0
C7442 C 0.57724 0.65116 0.21771 0.0
C7443 C 0.55697 0.63766 0.22509 0.0
C7444 C 0.56294 0.64333 0.21948 0.0
C7445 C 0.58232 0.65698 0.20278 0.0
C7446 C 0.5753 0.65291 0.20867 0.0
H7447 H 0.5361 0.63764 0.23461 0.0
H7448 H 0.54497 0.64574 0.22337 0.0
H7449 H 0.57301 0.64497 0.22987 0.0
H7450 H 0.60496 0.65572 0.19912 0.0
H7451 H 0.59348 0.64997 0.20908 0.0
C7452 C 0.10854 0.7845 0.95962 0.0
C7453 C 0.11051 0.79019 0.96695 0.0
C7454 C 0.10977 0.7874 0.9508 0.0
C7455 C 0.12148 0.80544 0.93768 0.0
H7456 H 0.10757 0.79508 0.91825 0.0
C7457 C 0.12972 0.81554 0.90121 0.0
C7458 C 0.1234 0.8141 0.89433 0.0
C7459 C 0.12819 0.81231 0.90986 0.0
C7460 C 0.1115 0.79827 0.92349 0.0
H7461 H 0.11508 0.80363 0.97056 0.0
H7462 H 0.1167 0.80885 0.95532 0.0
H7463 H 0.1042 0.79094 0.93337 0.0
H7464 H 0.11057 0.80782 0.8912 0.0
H7465 H 0.10756 0.80279 0.90617 0.0
H7466 H 0.12828 0.81334 0.92808 0.0
C7467 C 0.11452 0.80198 0.95634 0.0
C7468 C 0.10964 0.79568 0.9323 0.0
C7469 C 0.11341 0.79902 0.96515 0.0
C7470 C 0.11554 0.80922 0.89635 0.0
C7471 C 0.1139 0.80617 0.90505 0.0
C7472 C 0.12315 0.80825 0.92892 0.0
C7473 C 0.11289 0.79617 0.949 0.0
C7474 C 0.11464 0.79916 0.93956 0.0
C7475 C 0.12015 0.8077 0.91206 0.0
C7476 C 0.11827 0.80468 0.92156 0.0
H7477 H 0.1061 0.77771 0.96066 0.0
H7478 H 0.10849 0.78264 0.94543 0.0
H7479 H 0.12567 0.80819 0.94298 0.0
H7480 H 0.13582 0.81934 0.89998 0.0
H7481 H 0.13345 0.81351 0.91473 0.0
C7482 C 0.95076 0.38301 0.73728 0.0
C7483 C 0.9601 0.38145 0.73749 0.0
C7484 C 0.94523 0.37823 0.73135 0.0
C7485 C 0.94479 0.36482 0.71058 0.0
H7486 H 0.9227 0.35532 0.72068 0.0
C7487 C 0.91941 0.34392 0.68935 0.0
C7488 C 0.91037 0.34652 0.69036 0.0
C7489 C 0.92599 0.34704 0.69538 0.0
C7490 C 0.92881 0.35796 0.71773 0.0
H7491 H 0.97099 0.37388 0.73137 0.0
H7492 H 0.96128 0.36559 0.72091 0.0
H7493 H 0.93323 0.36354 0.73022 0.0
H7494 H 0.90101 0.35395 0.69871 0.0
H7495 H 0.91239 0.35942 0.70914 0.0
H7496 H 0.94023 0.35944 0.69802 0.0
C7497 C 0.95827 0.37052 0.72536 0.0
C7498 C 0.93484 0.36268 0.7232 0.0
C7499 C 0.96383 0.37529 0.73133 0.0
C7500 C 0.90795 0.3519 0.69774 0.0
C7501 C 0.91448 0.35497 0.70375 0.0
C7502 C 0.93871 0.36013 0.70507 0.0
C7503 C 0.94888 0.3718 0.72546 0.0
C7504 C 0.94282 0.36631 0.71967 0.0
C7505 C 0.92361 0.35274 0.70256 0.0
C7506 C 0.93057 0.35679 0.70856 0.0
H7507 H 0.94771 0.38784 0.7418 0.0
H7508 H 0.93804 0.37953 0.73144 0.0
H7509 H 0.95088 0.36756 0.70767 0.0
H7510 H 0.92145 0.33981 0.68369 0.0
H7511 H 0.93295 0.34511 0.69434 0.0
C7512 C 0.38992 0.80105 0.04529 0.0
C7513 C 0.39511 0.79366 0.04253 0.0
C7514 C 0.38854 0.80286 0.05436 0.0
C7515 C 0.3908 0.79343 0.07743 0.0
H7516 H 0.38939 0.81874 0.08382 0.0
C7517 C 0.39032 0.80809 0.11413 0.0
C7518 C 0.38364 0.81462 0.11575 0.0
C7519 C 0.3918 0.80474 0.10544 0.0
C7520 C 0.38972 0.81164 0.08214 0.0
H7521 H 0.40279 0.78221 0.04709 0.0
H7522 H 0.40064 0.7855 0.06308 0.0
H7523 H 0.39204 0.81439 0.06837 0.0
H7524 H 0.37328 0.82272 0.10952 0.0
H7525 H 0.37595 0.81701 0.0944 0.0
H7526 H 0.38874 0.79081 0.09142 0.0
C7527 C 0.39746 0.78983 0.05821 0.0
C7528 C 0.39118 0.80912 0.07325 0.0
C7529 C 0.39872 0.78793 0.04906 0.0
C7530 C 0.37842 0.81764 0.10852 0.0
C7531 C 0.37999 0.81442 0.09985 0.0
C7532 C 0.38947 0.79598 0.08641 0.0
C7533 C 0.39248 0.79744 0.06099 0.0
C7534 C 0.39153 0.79997 0.07068 0.0
C7535 C 0.38676 0.808 0.09818 0.0
C7536 C 0.38874 0.80513 0.08882 0.0
H7537 H 0.38698 0.80552 0.04039 0.0
H7538 H 0.38441 0.80859 0.05615 0.0
H7539 H 0.391 0.78633 0.07576 0.0
H7540 H 0.39442 0.8056 0.11958 0.0
H7541 H 0.39707 0.79981 0.10436 0.0
C7542 C 0.95734 0.63122 0.77026 0.0
C7543 C 0.96628 0.63439 0.7704 0.0
C7544 C 0.95088 0.63481 0.7761 0.0
C7545 C 0.94631 0.65492 0.7904 0.0
H7546 H 0.92776 0.63963 0.80039 0.0
C7547 C 0.92111 0.66685 0.8179 0.0
C7548 C 0.91221 0.66362 0.81722 0.0
C7549 C 0.92779 0.66369 0.81204 0.0
C7550 C 0.93284 0.64402 0.79758 0.0
H7551 H 0.9754 0.64385 0.7769 0.0
H7552 H 0.96426 0.64986 0.78724 0.0
H7553 H 0.93927 0.63307 0.79079 0.0
H7554 H 0.90323 0.65505 0.80946 0.0
H7555 H 0.91481 0.64962 0.79926 0.0
H7556 H 0.93988 0.66587 0.7973 0.0
C7557 C 0.96217 0.64471 0.7825 0.0
C7558 C 0.93945 0.64025 0.79206 0.0
C7559 C 0.96861 0.64115 0.77664 0.0
C7560 C 0.91006 0.65752 0.81029 0.0
C7561 C 0.91671 0.65438 0.80445 0.0
C7562 C 0.93972 0.65869 0.79597 0.0
C7563 C 0.95319 0.64165 0.78227 0.0
C7564 C 0.94625 0.64565 0.78834 0.0
C7565 C 0.9257 0.65726 0.80538 0.0
C7566 C 0.93285 0.6533 0.79958 0.0
H7567 H 0.95531 0.62595 0.76563 0.0
H7568 H 0.94403 0.63232 0.77564 0.0
H7569 H 0.95136 0.65933 0.78756 0.0
H7570 H 0.92298 0.67151 0.8232 0.0
H7571 H 0.93465 0.66602 0.81295 0.0
C7572 C 0.11295 0.22351 0.55066 0.0
C7573 C 0.11302 0.21629 0.54452 0.0
C7574 C 0.11393 0.22195 0.55989 0.0
C7575 C 0.11148 0.20351 0.57641 0.0
H7576 H 0.12634 0.21838 0.59198 0.0
C7577 C 0.12254 0.19072 0.61077 0.0
C7578 C 0.12316 0.19676 0.61799 0.0
C7579 C 0.12106 0.19385 0.6021 0.0
C7580 C 0.12206 0.21422 0.58776 0.0
H7581 H 0.11471 0.20185 0.5432 0.0
H7582 H 0.11655 0.19916 0.5591 0.0
H7583 H 0.1242 0.22263 0.57631 0.0
H7584 H 0.12277 0.21079 0.62191 0.0
H7585 H 0.1199 0.21634 0.6067 0.0
H7586 H 0.10931 0.1951 0.58772 0.0
C7587 C 0.11543 0.206 0.55691 0.0
C7588 C 0.12084 0.21666 0.57876 0.0
C7589 C 0.1144 0.20755 0.54777 0.0
C7590 C 0.12233 0.20602 0.6164 0.0
C7591 C 0.12073 0.20918 0.6077 0.0
C7592 C 0.11267 0.2011 0.58535 0.0
C7593 C 0.11505 0.21314 0.56313 0.0
C7594 C 0.11571 0.2112 0.57292 0.0
C7595 C 0.12001 0.20311 0.60043 0.0
C7596 C 0.11816 0.20627 0.59111 0.0
H7597 H 0.11189 0.23033 0.54836 0.0
H7598 H 0.11359 0.22761 0.56449 0.0
H7599 H 0.10726 0.19928 0.5722 0.0
H7600 H 0.12326 0.18355 0.61184 0.0
H7601 H 0.1208 0.18897 0.59669 0.0
C7602 C 0.54488 0.38118 0.28055 0.0
C7603 C 0.54653 0.37961 0.27142 0.0
C7604 C 0.5499 0.37662 0.28709 0.0
C7605 C 0.56505 0.35681 0.29032 0.0
H7606 H 0.5745 0.37082 0.31021 0.0
C7607 C 0.59478 0.34451 0.31248 0.0
C7608 C 0.59483 0.34708 0.32154 0.0
C7609 C 0.58812 0.3478 0.30668 0.0
C7610 C 0.57182 0.36674 0.30479 0.0
H7611 H 0.55441 0.37182 0.26197 0.0
H7612 H 0.56309 0.36391 0.27326 0.0
H7613 H 0.56401 0.37773 0.29979 0.0
H7614 H 0.58779 0.35469 0.33174 0.0
H7615 H 0.57602 0.36016 0.32176 0.0
H7616 H 0.57295 0.34585 0.29526 0.0
C7617 C 0.55796 0.3686 0.27545 0.0
C7618 C 0.56578 0.37072 0.2988 0.0
C7619 C 0.55303 0.3732 0.26896 0.0
C7620 C 0.58792 0.35267 0.32476 0.0
C7621 C 0.58123 0.35586 0.31902 0.0
C7622 C 0.57109 0.35282 0.29632 0.0
C7623 C 0.55657 0.37033 0.2846 0.0
C7624 C 0.56239 0.36585 0.29142 0.0
C7625 C 0.58134 0.35365 0.30984 0.0
C7626 C 0.57462 0.35775 0.3036 0.0
H7627 H 0.53992 0.38612 0.28262 0.0
H7628 H 0.54859 0.37807 0.29408 0.0
H7629 H 0.56248 0.3528 0.2848 0.0
H7630 H 0.60009 0.34028 0.30982 0.0
H7631 H 0.5885 0.34602 0.29965 0.0
C7632 C 0.4568 0.39075 0.22764 0.0
C7633 C 0.46284 0.39678 0.22357 0.0
C7634 C 0.44793 0.38983 0.22453 0.0
C7635 C 0.43341 0.39399 0.2047 0.0
H7636 H 0.41394 0.39056 0.22161 0.0
C7637 C 0.39614 0.39394 0.19337 0.0
C7638 C 0.39021 0.38771 0.1973 0.0
C7639 C 0.40485 0.39525 0.19676 0.0
C7640 C 0.4193 0.39141 0.21678 0.0
H7641 H 0.46416 0.40661 0.21301 0.0
H7642 H 0.44868 0.40504 0.2076 0.0
H7643 H 0.42933 0.39252 0.22706 0.0
H7644 H 0.38887 0.37811 0.20808 0.0
H7645 H 0.40414 0.38022 0.21385 0.0
H7646 H 0.42341 0.39284 0.19441 0.0
C7647 C 0.45086 0.40092 0.21315 0.0
C7648 C 0.42815 0.39254 0.21991 0.0
C7649 C 0.45975 0.40184 0.21626 0.0
C7650 C 0.39325 0.38289 0.2048 0.0
C7651 C 0.40199 0.38418 0.20818 0.0
C7652 C 0.42457 0.39285 0.20157 0.0
C7653 C 0.44481 0.3949 0.21725 0.0
C7654 C 0.43534 0.39384 0.21391 0.0
C7655 C 0.40794 0.39033 0.20417 0.0
C7656 C 0.41738 0.39155 0.20756 0.0
H7657 H 0.45896 0.3866 0.23316 0.0
H7658 H 0.44356 0.385 0.22776 0.0
H7659 H 0.43876 0.39481 0.19986 0.0
H7660 H 0.39414 0.3977 0.18752 0.0
H7661 H 0.40916 0.40014 0.19356 0.0
C7662 C 0.37277 0.7355 0.96306 0.0
C7663 C 0.37921 0.74203 0.9607 0.0
C7664 C 0.36905 0.7297 0.95661 0.0
C7665 C 0.37259 0.72085 0.93348 0.0
H7666 H 0.34719 0.71479 0.935 0.0
C7667 C 0.35445 0.70246 0.9046 0.0
C7668 C 0.34851 0.69543 0.90679 0.0
C7669 C 0.35777 0.70829 0.91121 0.0
C7670 C 0.35431 0.71634 0.93452 0.0
H7671 H 0.38692 0.74736 0.94961 0.0
H7672 H 0.38026 0.73745 0.93833 0.0
H7673 H 0.35402 0.72446 0.94641 0.0
H7674 H 0.34113 0.68922 0.9176 0.0
H7675 H 0.34697 0.69941 0.92922 0.0
H7676 H 0.37286 0.71278 0.92157 0.0
C7677 C 0.37815 0.73673 0.94522 0.0
C7678 C 0.35825 0.72188 0.94108 0.0
C7679 C 0.3819 0.74251 0.95169 0.0
C7680 C 0.34565 0.69461 0.9157 0.0
C7681 C 0.34901 0.70045 0.92235 0.0
C7682 C 0.36864 0.71534 0.92691 0.0
C7683 C 0.37162 0.73027 0.94758 0.0
C7684 C 0.36744 0.72424 0.94064 0.0
C7685 C 0.35528 0.70724 0.92021 0.0
C7686 C 0.35944 0.71305 0.92731 0.0
H7687 H 0.37043 0.73497 0.96989 0.0
H7688 H 0.36416 0.72474 0.95873 0.0
H7689 H 0.37971 0.72235 0.93299 0.0
H7690 H 0.35665 0.70336 0.89776 0.0
H7691 H 0.36239 0.71358 0.90926 0.0
C7692 C 0.0528 0.61012 0.71598 0.0
C7693 C 0.04781 0.61712 0.71998 0.0
C7694 C 0.06205 0.61102 0.71456 0.0
C7695 C 0.08268 0.62367 0.72054 0.0
H7696 H 0.08961 0.61756 0.69626 0.0
C7697 C 0.11836 0.63156 0.70616 0.0
C7698 C 0.1219 0.62569 0.69959 0.0
C7699 C 0.10955 0.63044 0.70939 0.0
C7700 C 0.08789 0.61914 0.70313 0.0
H7701 H 0.04886 0.63035 0.72616 0.0
H7702 H 0.06514 0.63185 0.72376 0.0
H7703 H 0.07411 0.61556 0.7009 0.0
H7704 H 0.11877 0.61387 0.69149 0.0
H7705 H 0.10387 0.61159 0.69749 0.0
H7706 H 0.09655 0.62713 0.7228 0.0
C7707 C 0.0618 0.62569 0.72168 0.0
C7708 C 0.07895 0.61803 0.70577 0.0
C7709 C 0.05247 0.62482 0.72307 0.0
C7710 C 0.11645 0.6185 0.69661 0.0
C7711 C 0.10774 0.61728 0.69995 0.0
C7712 C 0.09171 0.62468 0.71792 0.0
C7713 C 0.06663 0.61891 0.71715 0.0
C7714 C 0.07622 0.62022 0.71451 0.0
C7715 C 0.10406 0.62334 0.70623 0.0
C7716 C 0.09446 0.62238 0.70917 0.0
H7717 H 0.04949 0.604 0.71374 0.0
H7718 H 0.06561 0.60558 0.71124 0.0
H7719 H 0.08078 0.6254 0.72733 0.0
H7720 H 0.12234 0.63709 0.70879 0.0
H7721 H 0.10699 0.63528 0.71419 0.0
C7722 C 0.12537 0.26915 0.45508 0.0
C7723 C 0.12987 0.26746 0.46317 0.0
C7724 C 0.1291 0.27499 0.44876 0.0
C7725 C 0.14792 0.29198 0.44585 0.0
H7726 H 0.14192 0.28858 0.42085 0.0
C7727 C 0.16087 0.31666 0.4189 0.0
C7728 C 0.16156 0.31367 0.41001 0.0
C7729 C 0.1573 0.31101 0.42547 0.0
C7730 C 0.14388 0.28956 0.42777 0.0
H7731 H 0.1419 0.27041 0.47088 0.0
H7732 H 0.14865 0.28009 0.45978 0.0
H7733 H 0.13533 0.2788 0.43183 0.0
H7734 H 0.15949 0.30239 0.40103 0.0
H7735 H 0.15394 0.29227 0.41251 0.0
H7736 H 0.15702 0.30226 0.44172 0.0
C7737 C 0.14205 0.27732 0.45836 0.0
C7738 C 0.13987 0.28402 0.43417 0.0
C7739 C 0.13821 0.27167 0.46476 0.0
C7740 C 0.15902 0.30482 0.40786 0.0
C7741 C 0.15568 0.29909 0.41446 0.0
C7742 C 0.15214 0.29733 0.43942 0.0
C7743 C 0.13757 0.27912 0.45024 0.0
C7744 C 0.14179 0.28514 0.44335 0.0
C7745 C 0.15452 0.30215 0.42335 0.0
C7746 C 0.15018 0.29625 0.43025 0.0
H7747 H 0.11889 0.26605 0.45371 0.0
H7748 H 0.12525 0.2763 0.44275 0.0
H7749 H 0.14949 0.2933 0.45281 0.0
H7750 H 0.16268 0.32352 0.42067 0.0
H7751 H 0.15643 0.31378 0.43212 0.0
C7752 C 0.45906 0.60639 0.29262 0.0
C7753 C 0.46266 0.61263 0.28655 0.0
C7754 C 0.45017 0.60726 0.29574 0.0
C7755 C 0.43161 0.62407 0.29794 0.0
H7756 H 0.41661 0.60301 0.30143 0.0
C7757 C 0.39355 0.62703 0.30596 0.0
C7758 C 0.3902 0.62147 0.31279 0.0
C7759 C 0.40221 0.6257 0.30246 0.0
C7760 C 0.42073 0.60896 0.30055 0.0
H7761 H 0.4597 0.6248 0.27919 0.0
H7762 H 0.44428 0.62619 0.28439 0.0
H7763 H 0.43208 0.60119 0.29617 0.0
H7764 H 0.39352 0.61006 0.32118 0.0
H7765 H 0.40844 0.60766 0.31495 0.0
H7766 H 0.42026 0.63184 0.30227 0.0
C7767 C 0.4483 0.62065 0.28684 0.0
C7768 C 0.42962 0.60792 0.29756 0.0
C7769 C 0.45715 0.61978 0.28374 0.0
C7770 C 0.39572 0.6144 0.31583 0.0
C7771 C 0.40433 0.61303 0.31227 0.0
C7772 C 0.42272 0.62511 0.30088 0.0
C7773 C 0.44467 0.61442 0.29289 0.0
C7774 C 0.4352 0.61546 0.2962 0.0
C7775 C 0.40775 0.61873 0.30562 0.0
C7776 C 0.41715 0.61757 0.30224 0.0
H7777 H 0.46307 0.60076 0.29489 0.0
H7778 H 0.44766 0.60238 0.30047 0.0
H7779 H 0.43572 0.63004 0.29716 0.0
H7780 H 0.38949 0.63243 0.30328 0.0
H7781 H 0.40457 0.63013 0.29724 0.0
C7782 C 0.12444 0.73429 0.05169 0.0
C7783 C 0.12822 0.74269 0.04966 0.0
C7784 C 0.12921 0.72813 0.05698 0.0
C7785 C 0.1478 0.72771 0.07383 0.0
H7786 H 0.14532 0.70185 0.07133 0.0
C7787 C 0.15862 0.70354 0.10184 0.0
C7788 C 0.16209 0.69505 0.09955 0.0
C7789 C 0.15534 0.70929 0.09524 0.0
C7790 C 0.1462 0.70905 0.07206 0.0
H7791 H 0.1399 0.75125 0.05136 0.0
H7792 H 0.14833 0.74052 0.06037 0.0
H7793 H 0.13812 0.71169 0.06047 0.0
H7794 H 0.165 0.68594 0.08858 0.0
H7795 H 0.15931 0.69602 0.07695 0.0
H7796 H 0.15604 0.72511 0.08527 0.0
C7797 C 0.14166 0.73864 0.05805 0.0
C7798 C 0.14195 0.71472 0.06589 0.0
C7799 C 0.1369 0.74477 0.05279 0.0
C7800 C 0.16244 0.6925 0.09049 0.0
C7801 C 0.15907 0.69823 0.08386 0.0
C7802 C 0.1521 0.72206 0.07994 0.0
C7803 C 0.13783 0.7303 0.0604 0.0
C7804 C 0.14263 0.72415 0.06672 0.0
C7805 C 0.15537 0.70668 0.08616 0.0
C7806 C 0.15128 0.71265 0.07923 0.0
H7807 H 0.11771 0.7326 0.0494 0.0
H7808 H 0.12597 0.72184 0.05867 0.0
H7809 H 0.1484 0.73491 0.07484 0.0
H7810 H 0.15827 0.70565 0.10878 0.0
H7811 H 0.15247 0.71566 0.09732 0.0
C7812 C 0.05265 0.38906 0.78537 0.0
C7813 C 0.04766 0.39632 0.78885 0.0
C7814 C 0.06163 0.38776 0.78784 0.0
C7815 C 0.08134 0.39934 0.79846 0.0
H7816 H 0.09044 0.37493 0.79945 0.0
C7817 C 0.11906 0.39208 0.8055 0.0
C7818 C 0.12109 0.38451 0.81072 0.0
C7819 C 0.1103 0.39346 0.80229 0.0
C7820 C 0.08803 0.3818 0.79933 0.0
H7821 H 0.04818 0.40779 0.79789 0.0
H7822 H 0.06381 0.40532 0.80252 0.0
H7823 H 0.07476 0.37747 0.79583 0.0
H7824 H 0.1155 0.37249 0.81666 0.0
H7825 H 0.10026 0.37498 0.81135 0.0
H7826 H 0.09452 0.40362 0.80249 0.0
C7827 C 0.06084 0.40076 0.79765 0.0
C7828 C 0.07901 0.38328 0.79708 0.0
C7829 C 0.05183 0.40212 0.7951 0.0
C7830 C 0.1142 0.37831 0.81254 0.0
C7831 C 0.10543 0.37975 0.80945 0.0
C7832 C 0.09035 0.39785 0.80087 0.0
C7833 C 0.06588 0.39358 0.79401 0.0
C7834 C 0.07551 0.39207 0.79659 0.0
C7835 C 0.10331 0.38738 0.80433 0.0
C7836 C 0.09382 0.38904 0.80137 0.0
H7837 H 0.04963 0.38436 0.78067 0.0
H7838 H 0.06525 0.38224 0.78475 0.0
H7839 H 0.07898 0.40621 0.79802 0.0
H7840 H 0.12426 0.39693 0.80391 0.0
H7841 H 0.10902 0.39932 0.79821 0.0
C7842 C 0.37175 0.27389 0.54428 0.0
C7843 C 0.37931 0.26854 0.54628 0.0
C7844 C 0.36811 0.27976 0.55068 0.0
C7845 C 0.37346 0.2914 0.5722 0.0
H7846 H 0.34748 0.29384 0.57389 0.0
C7847 C 0.35699 0.30973 0.60194 0.0
C7848 C 0.34999 0.31582 0.6001 0.0
C7849 C 0.36016 0.30385 0.59533 0.0
C7850 C 0.35474 0.29331 0.57345 0.0
H7851 H 0.38903 0.26535 0.55664 0.0
H7852 H 0.38257 0.27541 0.56787 0.0
H7853 H 0.35397 0.28399 0.56247 0.0
H7854 H 0.34055 0.32019 0.58994 0.0
H7855 H 0.34606 0.30982 0.57836 0.0
H7856 H 0.37423 0.30065 0.58322 0.0
C7857 C 0.37951 0.27515 0.56129 0.0
C7858 C 0.35849 0.28766 0.56689 0.0
C7859 C 0.38316 0.26928 0.55487 0.0
C7860 C 0.34593 0.31556 0.59159 0.0
C7861 C 0.34911 0.30963 0.58495 0.0
C7862 C 0.36972 0.297 0.57877 0.0
C7863 C 0.3719 0.28045 0.5593 0.0
C7864 C 0.3679 0.28659 0.5662 0.0
C7865 C 0.35641 0.30385 0.58669 0.0
C7866 C 0.36031 0.29799 0.57953 0.0
H7867 H 0.36853 0.27344 0.53778 0.0
H7868 H 0.36234 0.2838 0.54885 0.0
H7869 H 0.38073 0.29091 0.57178 0.0
H7870 H 0.36013 0.30958 0.60849 0.0
H7871 H 0.36563 0.29932 0.59699 0.0
C7872 C 0.22129 0.45618 0.3873 0.0
C7873 C 0.21844 0.46055 0.39519 0.0
C7874 C 0.21985 0.44692 0.38605 0.0
C7875 C 0.21284 0.42591 0.39816 0.0
H7876 H 0.20577 0.41793 0.3744 0.0
C7877 C 0.19284 0.39309 0.39135 0.0
C7878 C 0.19548 0.38759 0.38409 0.0
C7879 C 0.1968 0.40153 0.3928 0.0
C7880 C 0.20783 0.42002 0.38106 0.0
H7881 H 0.21237 0.45835 0.40819 0.0
H7882 H 0.20948 0.44247 0.40587 0.0
H7883 H 0.21068 0.43342 0.37676 0.0
H7884 H 0.20467 0.3868 0.3728 0.0
H7885 H 0.21126 0.40168 0.37514 0.0
H7886 H 0.20956 0.41257 0.40248 0.0
C7887 C 0.21294 0.4461 0.40064 0.0
C7888 C 0.2107 0.42892 0.38243 0.0
C7889 C 0.21447 0.45531 0.40193 0.0
C7890 C 0.20227 0.39084 0.37835 0.0
C7891 C 0.20611 0.39937 0.37972 0.0
C7892 C 0.20984 0.41706 0.39681 0.0
C7893 C 0.21547 0.44176 0.39263 0.0
C7894 C 0.21314 0.43205 0.39103 0.0
C7895 C 0.20341 0.40482 0.38695 0.0
C7896 C 0.2072 0.41404 0.38827 0.0
H7897 H 0.22434 0.45996 0.38193 0.0
H7898 H 0.22208 0.44383 0.37986 0.0
H7899 H 0.21486 0.42794 0.40485 0.0
H7900 H 0.18752 0.39101 0.39583 0.0
H7901 H 0.19447 0.40562 0.39836 0.0
C7902 C 0.72143 0.05339 0.62306 0.0
C7903 C 0.71949 0.04907 0.61486 0.0
C7904 C 0.71977 0.06264 0.62421 0.0
C7905 C 0.70458 0.07993 0.6156 0.0
H7906 H 0.72002 0.09715 0.6278 0.0
C7907 C 0.6936 0.11692 0.61844 0.0
C7908 C 0.69626 0.12217 0.62588 0.0
C7909 C 0.69729 0.10841 0.61687 0.0
C7910 C 0.71553 0.09243 0.6245 0.0
H7911 H 0.71503 0.0513 0.60122 0.0
H7912 H 0.71204 0.06729 0.60327 0.0
H7913 H 0.72514 0.08167 0.62564 0.0
H7914 H 0.70523 0.12237 0.6374 0.0
H7915 H 0.71108 0.10731 0.63508 0.0
H7916 H 0.69477 0.09031 0.61481 0.0
C7917 C 0.71467 0.06352 0.60887 0.0
C7918 C 0.71852 0.08355 0.62321 0.0
C7919 C 0.71637 0.05433 0.60771 0.0
C7920 C 0.70281 0.11855 0.63169 0.0
C7921 C 0.70633 0.1099 0.63025 0.0
C7922 C 0.70152 0.08871 0.61704 0.0
C7923 C 0.7161 0.06774 0.6172 0.0
C7924 C 0.7131 0.07721 0.61867 0.0
C7925 C 0.70357 0.10463 0.62284 0.0
C7926 C 0.70695 0.09517 0.62143 0.0
H7927 H 0.7238 0.04956 0.62873 0.0
H7928 H 0.72093 0.06569 0.63072 0.0
H7929 H 0.70015 0.07517 0.61224 0.0
H7930 H 0.68848 0.11925 0.61384 0.0
H7931 H 0.69513 0.1048 0.61092 0.0
C7932 C 0.74451 0.95794 0.37167 0.0
C7933 C 0.74106 0.96611 0.37503 0.0
C7934 C 0.73877 0.95143 0.3679 0.0
C7935 C 0.71438 0.94497 0.36559 0.0
H7936 H 0.72341 0.93074 0.34569 0.0
C7937 C 0.69126 0.92207 0.34385 0.0
C7938 C 0.69432 0.91319 0.34278 0.0
C7939 C 0.69699 0.92872 0.34738 0.0
C7940 C 0.7208 0.93465 0.35125 0.0
H7941 H 0.72869 0.97356 0.37737 0.0
H7942 H 0.71882 0.9625 0.37042 0.0
H7943 H 0.73322 0.94179 0.35291 0.0
H7944 H 0.70574 0.9043 0.3443 0.0
H7945 H 0.71588 0.91598 0.35019 0.0
H7946 H 0.70187 0.93793 0.36369 0.0
C7947 C 0.72595 0.96101 0.37081 0.0
C7948 C 0.72645 0.94095 0.35547 0.0
C7949 C 0.73167 0.96746 0.37469 0.0
C7950 C 0.70328 0.91114 0.34499 0.0
C7951 C 0.70906 0.91781 0.34835 0.0
C7952 C 0.70869 0.93876 0.36127 0.0
C7953 C 0.72942 0.95292 0.36726 0.0
C7954 C 0.72335 0.94618 0.36275 0.0
C7955 C 0.70593 0.92663 0.34977 0.0
C7956 C 0.71186 0.9335 0.35408 0.0
H7957 H 0.75168 0.95663 0.37171 0.0
H7958 H 0.74173 0.94523 0.36546 0.0
H7959 H 0.71174 0.94869 0.37125 0.0
H7960 H 0.68433 0.92376 0.3423 0.0
H7961 H 0.69441 0.93547 0.34834 0.0
C7962 C 0.78873 0.95902 0.12343 0.0
C7963 C 0.78976 0.96357 0.11528 0.0
C7964 C 0.79172 0.95014 0.12439 0.0
C7965 C 0.80683 0.9329 0.11416 0.0
H7966 H 0.79285 0.91657 0.12868 0.0
C7967 C 0.81842 0.89591 0.11798 0.0
C7968 C 0.81567 0.89081 0.12539 0.0
C7969 C 0.81482 0.90445 0.11636 0.0
C7970 C 0.79702 0.92098 0.12473 0.0
H7971 H 0.79475 0.96232 0.10173 0.0
H7972 H 0.79981 0.94674 0.10331 0.0
H7973 H 0.78778 0.93186 0.12674 0.0
H7974 H 0.80668 0.8909 0.13683 0.0
H7975 H 0.80109 0.90593 0.13455 0.0
H7976 H 0.81628 0.92232 0.11239 0.0
C7977 C 0.79684 0.95009 0.10905 0.0
C7978 C 0.79402 0.92984 0.12357 0.0
C7979 C 0.79393 0.95903 0.10812 0.0
C7980 C 0.80917 0.8946 0.13114 0.0
C7981 C 0.80578 0.90329 0.12968 0.0
C7982 C 0.80993 0.92409 0.11545 0.0
C7983 C 0.79577 0.9455 0.1172 0.0
C7984 C 0.79888 0.93596 0.11828 0.0
C7985 C 0.80855 0.90844 0.12226 0.0
C7986 C 0.8051 0.91791 0.12077 0.0
H7987 H 0.78569 0.96237 0.12913 0.0
H7988 H 0.79095 0.94696 0.13084 0.0
H7989 H 0.81084 0.9374 0.11013 0.0
H7990 H 0.82352 0.89342 0.11343 0.0
H7991 H 0.81706 0.90785 0.1104 0.0
C7992 C 0.26609 0.54827 0.37057 0.0
C7993 C 0.2689 0.54275 0.37766 0.0
C7994 C 0.27201 0.55448 0.36675 0.0
C7995 C 0.29322 0.56701 0.37112 0.0
H7996 H 0.29343 0.57 0.34536 0.0
C7997 C 0.32056 0.58823 0.35422 0.0
C7998 C 0.31792 0.59407 0.34734 0.0
C7999 C 0.31465 0.5817 0.35743 0.0
C8000 C 0.2934 0.56932 0.35257 0.0
H8001 H 0.28015 0.53962 0.38639 0.0
H8002 H 0.29051 0.55038 0.37966 0.0
H8003 H 0.28298 0.55931 0.35211 0.0
H8004 H 0.30711 0.59738 0.33818 0.0
H8005 H 0.29668 0.58595 0.34385 0.0
H8006 H 0.30357 0.57703 0.37163 0.0
C8007 C 0.28369 0.54993 0.37708 0.0
C8008 C 0.2874 0.56319 0.35645 0.0
C8009 C 0.27777 0.54369 0.38089 0.0
C8010 C 0.30934 0.59295 0.34346 0.0
C8011 C 0.30338 0.58641 0.34672 0.0
C8012 C 0.29919 0.57314 0.36726 0.0
C8013 C 0.28091 0.55537 0.36992 0.0
C8014 C 0.28725 0.56194 0.36578 0.0
C8015 C 0.3059 0.58083 0.35389 0.0
C8016 C 0.2994 0.57435 0.35793 0.0
H8017 H 0.25934 0.54766 0.36784 0.0
H8018 H 0.26959 0.55863 0.36133 0.0
H8019 H 0.29319 0.56636 0.37833 0.0
H8020 H 0.32719 0.58881 0.35723 0.0
H8021 H 0.31693 0.57738 0.36277 0.0
C8022 C 0.295 0.55202 0.89954 0.0
C8023 C 0.28892 0.54807 0.89342 0.0
C8024 C 0.29805 0.56089 0.89838 0.0
C8025 C 0.29251 0.58214 0.88638 0.0
H8026 H 0.3174 0.58821 0.89156 0.0
C8027 C 0.30814 0.61649 0.87632 0.0
C8028 C 0.31477 0.62035 0.88193 0.0
C8029 C 0.30479 0.60781 0.87792 0.0
C8030 C 0.31038 0.58671 0.8902 0.0
H8031 H 0.28153 0.55032 0.88111 0.0
H8032 H 0.28685 0.56565 0.87904 0.0
H8033 H 0.31205 0.57297 0.89409 0.0
H8034 H 0.323 0.61787 0.89371 0.0
H8035 H 0.31685 0.60311 0.89673 0.0
H8036 H 0.29082 0.59588 0.88251 0.0
C8037 C 0.28911 0.56202 0.88488 0.0
C8038 C 0.30731 0.57791 0.89164 0.0
C8039 C 0.28606 0.55319 0.88607 0.0
C8040 C 0.3178 0.61529 0.88928 0.0
C8041 C 0.31438 0.60668 0.89094 0.0
C8042 C 0.29557 0.59094 0.88496 0.0
C8043 C 0.29512 0.56602 0.89103 0.0
C8044 C 0.29834 0.57548 0.88972 0.0
C8045 C 0.30791 0.60275 0.88523 0.0
C8046 C 0.30457 0.59336 0.88682 0.0
H8047 H 0.29729 0.54832 0.90533 0.0
H8048 H 0.30258 0.56376 0.90332 0.0
H8049 H 0.28551 0.58058 0.88495 0.0
H8050 H 0.30549 0.62015 0.87066 0.0
H8051 H 0.29987 0.60502 0.8733 0.0
C8052 C 0.7441 0.0497 0.14013 0.0
C8053 C 0.74207 0.04679 0.13141 0.0
C8054 C 0.73801 0.05505 0.14492 0.0
C8055 C 0.71418 0.06342 0.14517 0.0
H8056 H 0.7247 0.08253 0.15961 0.0
C8057 C 0.69204 0.08823 0.1658 0.0
C8058 C 0.69469 0.0973 0.16564 0.0
C8059 C 0.69775 0.08151 0.16239 0.0
C8060 C 0.72162 0.07727 0.15558 0.0
H8061 H 0.73209 0.047 0.12086 0.0
H8062 H 0.72137 0.05637 0.12919 0.0
H8063 H 0.73446 0.07195 0.15191 0.0
H8064 H 0.70539 0.10649 0.16208 0.0
H8065 H 0.71538 0.09487 0.15622 0.0
H8066 H 0.70132 0.06907 0.14853 0.0
C8067 C 0.72761 0.05446 0.13242 0.0
C8068 C 0.72724 0.07108 0.15124 0.0
C8069 C 0.73374 0.04912 0.12762 0.0
C8070 C 0.70324 0.09952 0.16232 0.0
C8071 C 0.70896 0.09284 0.15899 0.0
C8072 C 0.70854 0.06966 0.14947 0.0
C8073 C 0.72974 0.05767 0.14109 0.0
C8074 C 0.72363 0.06407 0.14594 0.0
C8075 C 0.70626 0.08374 0.15883 0.0
C8076 C 0.71219 0.07673 0.15468 0.0
H8077 H 0.75053 0.04805 0.14314 0.0
H8078 H 0.73985 0.05721 0.15161 0.0
H8079 H 0.71111 0.05807 0.14124 0.0
H8080 H 0.68543 0.08638 0.16824 0.0
H8081 H 0.69547 0.07459 0.16248 0.0
C8082 C 0.77146 0.9593 0.62793 0.0
C8083 C 0.76937 0.96729 0.63257 0.0
C8084 C 0.77721 0.9529 0.63174 0.0
C8085 C 0.78696 0.94589 0.65369 0.0
H8086 H 0.80372 0.93278 0.63866 0.0
C8087 C 0.80888 0.91648 0.66718 0.0
C8088 C 0.8174 0.91516 0.66331 0.0
C8089 C 0.80297 0.92297 0.66373 0.0
C8090 C 0.79917 0.93645 0.64301 0.0
H8091 H 0.7716 0.97477 0.64489 0.0
H8092 H 0.78171 0.96375 0.65146 0.0
H8093 H 0.79376 0.94382 0.632 0.0
H8094 H 0.82664 0.91996 0.65321 0.0
H8095 H 0.81657 0.9314 0.64742 0.0
H8096 H 0.79264 0.93879 0.66475 0.0
C8097 C 0.77886 0.96233 0.64492 0.0
C8098 C 0.79332 0.9427 0.63914 0.0
C8099 C 0.77315 0.96872 0.6411 0.0
C8100 C 0.82005 0.92072 0.65623 0.0
C8101 C 0.81422 0.92724 0.65286 0.0
C8102 C 0.79288 0.9397 0.65758 0.0
C8103 C 0.78098 0.95431 0.64031 0.0
C8104 C 0.78713 0.94753 0.64442 0.0
C8105 C 0.80551 0.92834 0.6564 0.0
C8106 C 0.7991 0.93491 0.6523 0.0
H8107 H 0.76869 0.95803 0.62133 0.0
H8108 H 0.77861 0.94679 0.628 0.0
H8109 H 0.7822 0.94936 0.65798 0.0
H8110 H 0.80664 0.91226 0.67261 0.0
H8111 H 0.79631 0.92355 0.66662 0.0
loop_
_geom_bond_atom_site_label_1
_geom_bond_atom_site_label_2
_geom_bond_distance
_geom_bond_site_symmetry_2
_ccdc_geom_bond_type
C0 C1 1.261 . S
C0 C5 1.383 1_455 S
C0 C10 1.567 . S
C1 C0 1.261 . S
C1 C3 1.300 1_455 S
C1 H28 0.968 . S
C2 C3 1.395 . S
C2 C4 1.320 . S
C3 C1 1.300 1_655 S
C3 C2 1.395 . S
C3 H29 0.929 . S
C4 C2 1.320 . S
C4 C5 1.405 . S
C4 H30 0.930 . S
C5 C0 1.383 1_655 S
C5 C4 1.405 . S
C5 H31 0.931 . S
U6 O7 2.454 . S
U6 O8 2.458 . S
U6 C9 2.984 . S
U6 C10 2.847 . S
U6 C23 2.882 . S
U6 O24 2.441 . S
U6 O25 2.420 . S
U6 O26 2.455 . S
U6 O27 2.449 . S
O7 U6 2.454 . S
O7 C9 1.353 . S
O8 U6 2.458 . S
O8 C9 1.286 . S
C9 U6 2.984 . S
C9 O7 1.353 . S
C9 O8 1.286 . S
C9 C11 1.363 . S
C10 C0 1.567 . S
C10 U6 2.847 . S
C10 O24 1.249 . S
C10 O25 1.202 . S
C11 C9 1.363 . S
C11 C13 1.408 . S
C11 C16 1.342 . S
C12 C13 1.310 . S
C12 C15 1.461 . S
C12 H32 0.932 . S
C13 C11 1.408 . S
C13 C12 1.310 . S
C13 H33 0.930 . S
C14 C15 1.474 . S
C14 C16 1.285 . S
C14 H34 0.929 . S
C15 C12 1.461 . S
C15 C14 1.474 . S
C16 C11 1.342 . S
C16 C14 1.285 . S
C16 H35 0.930 . S
C17 C20 1.424 . S
C17 C22 1.245 . S
C17 C23 1.428 . S
C18 C21 1.260 . S
C18 C22 1.477 . S
C18 H36 0.932 . S
C19 C20 1.384 . S
C19 C21 1.479 . S
C19 H37 0.929 . S
C20 C17 1.424 . S
C20 C19 1.384 . S
C20 H38 0.928 . S
C21 C18 1.260 . S
C21 C19 1.479 . S
C22 C17 1.245 . S
C22 C18 1.477 . S
C22 H39 0.932 . S
C23 U6 2.882 . S
C23 C17 1.428 . S
C23 O26 1.301 . S
C23 O27 1.282 . S
O24 U6 2.441 . S
O24 C10 1.249 . S
O25 U6 2.420 . S
O25 C10 1.202 . S
O26 U6 2.455 . S
O26 C23 1.301 . S
O27 U6 2.449 . S
O27 C23 1.282 . S
H28 C1 0.968 . S
H29 C3 0.929 . S
H30 C4 0.930 . S
H31 C5 0.931 . S
H32 C12 0.932 . S
H33 C13 0.930 . S
H34 C14 0.929 . S
H35 C16 0.930 . S
H36 C18 0.932 . S
H37 C19 0.929 . S
H38 C20 0.928 . S
H39 C22 0.932 . S
C40 C41 1.264 . S
C40 C45 1.479 . S
C40 C50 1.465 . S
C41 C40 1.264 . S
C41 C43 1.339 . S
C41 H68 0.931 . S
C42 C43 1.395 . S
C42 C44 1.320 . S
C43 C41 1.339 . S
C43 C42 1.395 . S
C43 H69 0.929 . S
C44 C42 1.320 . S
C44 C45 1.405 . S
C44 H70 0.930 . S
C45 C40 1.479 . S
C45 C44 1.405 . S
C45 H71 0.931 . S
U46 O47 2.454 . S
U46 O48 2.458 . S
U46 C49 2.984 . S
U46 C50 2.847 . S
U46 C63 2.882 . S
U46 O64 2.441 . S
U46 O65 2.420 . S
U46 O66 2.455 . S
U46 O67 2.449 . S
O47 U46 2.454 . S
O47 C49 1.353 . S
O48 U46 2.458 . S
O48 C49 1.286 . S
C49 U46 2.984 . S
C49 O47 1.353 . S
C49 O48 1.286 . S
C49 C51 1.363 . S
C50 C40 1.465 . S
C50 U46 2.847 . S
C50 O64 1.249 . S
C50 O65 1.202 . S
C51 C49 1.363 . S
C51 C53 1.408 . S
C51 C56 1.342 . S
C52 C53 1.310 . S
C52 C55 1.461 . S
C52 H72 0.932 . S
C53 C51 1.408 . S
C53 C52 1.310 . S
C53 H73 0.930 . S
C54 C55 1.474 . S
C54 C56 1.285 . S
C54 H74 0.929 . S
C55 C52 1.461 . S
C55 C54 1.474 . S
C56 C51 1.342 . S
C56 C54 1.285 . S
C56 H75 0.930 . S
C57 C60 1.424 . S
C57 C62 1.245 . S
C57 C63 1.428 . S
C58 C61 1.260 . S
C58 C62 1.477 . S
C58 H76 0.932 . S
C59 C60 1.384 . S
C59 C61 1.479 . S
C59 H77 0.929 . S
C60 C57 1.424 . S
C60 C59 1.384 . S
C60 H78 0.928 . S
C61 C58 1.260 . S
C61 C59 1.479 . S
C62 C57 1.245 . S
C62 C58 1.477 . S
C62 H79 0.932 . S
C63 U46 2.882 . S
C63 C57 1.428 . S
C63 O66 1.301 . S
C63 O67 1.282 . S
O64 U46 2.441 . S
O64 C50 1.249 . S
O65 U46 2.420 . S
O65 C50 1.202 . S
O66 U46 2.455 . S
O66 C63 1.301 . S
O67 U46 2.449 . S
O67 C63 1.282 . S
H68 C41 0.931 . S
H69 C43 0.929 . S
H70 C44 0.930 . S
H71 C45 0.931 . S
H72 C52 0.932 . S
H73 C53 0.930 . S
H74 C54 0.929 . S
H75 C56 0.930 . S
H76 C58 0.932 . S
H77 C59 0.929 . S
H78 C60 0.928 . S
H79 C62 0.932 . S
C80 C81 1.264 . S
C80 C85 1.479 . S
C80 C90 1.465 . S
C81 C80 1.264 . S
C81 C83 1.339 . S
C81 H108 0.931 . S
C82 C83 1.395 . S
C82 C84 1.320 . S
C83 C81 1.339 . S
C83 C82 1.395 . S
C83 H109 0.929 . S
C84 C82 1.320 . S
C84 C85 1.405 . S
C84 H110 0.930 . S
C85 C80 1.479 . S
C85 C84 1.405 . S
C85 H111 0.931 . S
U86 O87 2.454 . S
U86 O88 2.458 . S
U86 C89 2.984 . S
U86 C90 2.847 . S
U86 C103 2.882 . S
U86 O104 2.441 . S
U86 O105 2.420 . S
U86 O106 2.455 . S
U86 O107 2.449 . S
O87 U86 2.454 . S
O87 C89 1.353 . S
O88 U86 2.458 . S
O88 C89 1.286 . S
C89 U86 2.984 . S
C89 O87 1.353 . S
C89 O88 1.286 . S
C89 C91 1.363 . S
C90 C80 1.465 . S
C90 U86 2.847 . S
C90 O104 1.249 . S
C90 O105 1.202 . S
C91 C89 1.363 . S
C91 C93 1.408 . S
C91 C96 1.342 . S
C92 C93 1.310 . S
C92 C95 1.461 . S
C92 H112 0.932 . S
C93 C91 1.408 . S
C93 C92 1.310 . S
C93 H113 0.930 . S
C94 C95 1.474 . S
C94 C96 1.285 . S
C94 H114 0.929 . S
C95 C92 1.461 . S
C95 C94 1.474 . S
C96 C91 1.342 . S
C96 C94 1.285 . S
C96 H115 0.930 . S
C97 C100 1.424 . S
C97 C102 1.245 . S
C97 C103 1.428 . S
C98 C101 1.260 . S
C98 C102 1.477 . S
C98 H116 0.932 . S
C99 C100 1.384 . S
C99 C101 1.479 . S
C99 H117 0.929 . S
C100 C97 1.424 . S
C100 C99 1.384 . S
C100 H118 0.928 . S
C101 C98 1.260 . S
C101 C99 1.479 . S
C102 C97 1.245 . S
C102 C98 1.477 . S
C102 H119 0.932 . S
C103 U86 2.882 . S
C103 C97 1.428 . S
C103 O106 1.301 . S
C103 O107 1.282 . S
O104 U86 2.441 . S
O104 C90 1.249 . S
O105 U86 2.420 . S
O105 C90 1.202 . S
O106 U86 2.455 . S
O106 C103 1.301 . S
O107 U86 2.449 . S
O107 C103 1.282 . S
H108 C81 0.931 . S
H109 C83 0.929 . S
H110 C84 0.930 . S
H111 C85 0.931 . S
H112 C92 0.932 . S
H113 C93 0.930 . S
H114 C94 0.929 . S
H115 C96 0.930 . S
H116 C98 0.932 . S
H117 C99 0.929 . S
H118 C100 0.928 . S
H119 C102 0.932 . S
C120 C121 1.264 . S
C120 C125 1.479 . S
C120 C130 1.465 . S
C121 C120 1.264 . S
C121 C123 1.339 . S
C121 H148 0.931 . S
C122 C123 1.395 . S
C122 C124 1.320 . S
C123 C121 1.339 . S
C123 C122 1.395 . S
C123 H149 0.929 . S
C124 C122 1.320 . S
C124 C125 1.405 . S
C124 H150 0.930 . S
C125 C120 1.479 . S
C125 C124 1.405 . S
C125 H151 0.931 . S
U126 O127 2.454 . S
U126 O128 2.458 . S
U126 C129 2.984 . S
U126 C130 2.847 . S
U126 C143 2.882 . S
U126 O144 2.441 . S
U126 O145 2.420 . S
U126 O146 2.455 . S
U126 O147 2.449 . S
O127 U126 2.454 . S
O127 C129 1.353 . S
O128 U126 2.458 . S
O128 C129 1.286 . S
C129 U126 2.984 . S
C129 O127 1.353 . S
C129 O128 1.286 . S
C129 C131 1.363 . S
C130 C120 1.465 . S
C130 U126 2.847 . S
C130 O144 1.249 . S
C130 O145 1.202 . S
C131 C129 1.363 . S
C131 C133 1.408 1_554 S
C131 C136 1.342 . S
C132 C133 1.310 . S
C132 C135 1.461 . S
C132 H152 0.932 . S
C133 C131 1.408 1_556 S
C133 C132 1.310 . S
C133 H153 0.942 . S
C134 C135 1.474 . S
C134 C136 1.285 1_556 S
C134 H154 0.929 . S
C135 C132 1.461 . S
C135 C134 1.474 . S
C136 C131 1.342 . S
C136 C134 1.285 1_554 S
C136 H155 0.930 . S
C137 C140 1.424 . S
C137 C142 1.245 . S
C137 C143 1.428 . S
C138 C141 1.260 . S
C138 C142 1.477 . S
C138 H156 0.932 . S
C139 C140 1.384 . S
C139 C141 1.479 . S
C139 H157 0.929 . S
C140 C137 1.424 . S
C140 C139 1.384 . S
C140 H158 0.928 . S
C141 C138 1.260 . S
C141 C139 1.479 . S
C142 C137 1.245 . S
C142 C138 1.477 . S
C142 H159 0.932 . S
C143 U126 2.882 . S
C143 C137 1.428 . S
C143 O146 1.301 . S
C143 O147 1.282 . S
O144 U126 2.441 . S
O144 C130 1.249 . S
O145 U126 2.420 . S
O145 C130 1.202 . S
O146 U126 2.455 . S
O146 C143 1.301 . S
O147 U126 2.449 . S
O147 C143 1.282 . S
H148 C121 0.931 . S
H149 C123 0.929 . S
H150 C124 0.930 . S
H151 C125 0.931 . S
H152 C132 0.932 . S
H153 C133 0.942 . S
H154 C134 0.929 . S
H155 C136 0.930 . S
H156 C138 0.932 . S
H157 C139 0.929 . S
H158 C140 0.928 . S
H159 C142 0.932 . S
C160 C161 1.264 . S
C160 C165 1.479 1_455 S
C160 C170 1.465 . S
C161 C160 1.264 . S
C161 C163 1.339 1_455 S
C161 H188 0.931 . S
C162 C163 1.395 . S
C162 C164 1.320 . S
C163 C161 1.339 1_655 S
C163 C162 1.395 . S
C163 H189 0.929 . S
C164 C162 1.320 . S
C164 C165 1.405 . S
C164 H190 0.930 . S
C165 C160 1.479 1_655 S
C165 C164 1.405 . S
C165 H191 0.931 . S
U166 O167 2.454 . S
U166 O168 2.458 . S
U166 C169 2.984 . S
U166 C170 2.847 . S
U166 C183 2.882 . S
U166 O184 2.441 . S
U166 O185 2.420 . S
U166 O186 2.455 . S
U166 O187 2.449 . S
O167 U166 2.454 . S
O167 C169 1.353 . S
O168 U166 2.458 . S
O168 C169 1.286 . S
C169 U166 2.984 . S
C169 O167 1.353 . S
C169 O168 1.286 . S
C169 C171 1.363 . S
C170 C160 1.465 . S
C170 U166 2.847 . S
C170 O184 1.249 . S
C170 O185 1.202 . S
C171 C169 1.363 . S
C171 C173 1.408 . S
C171 C176 1.342 . S
C172 C173 1.310 . S
C172 C175 1.461 . S
C172 H192 0.932 . S
C173 C171 1.408 . S
C173 C172 1.310 . S
C173 H193 0.930 . S
C174 C175 1.474 . S
C174 C176 1.285 . S
C174 H194 0.929 . S
C175 C172 1.461 . S
C175 C174 1.474 . S
C176 C171 1.342 . S
C176 C174 1.285 . S
C176 H195 0.930 . S
C177 C180 1.424 . S
C177 C182 1.245 . S
C177 C183 1.428 . S
C178 C181 1.260 . S
C178 C182 1.477 . S
C178 H196 0.932 . S
C179 C180 1.384 . S
C179 C181 1.479 . S
C179 H197 0.929 . S
C180 C177 1.424 . S
C180 C179 1.384 . S
C180 H198 0.928 . S
C181 C178 1.260 . S
C181 C179 1.479 . S
C182 C177 1.245 . S
C182 C178 1.477 . S
C182 H199 0.932 . S
C183 U166 2.882 . S
C183 C177 1.428 . S
C183 O186 1.301 . S
C183 O187 1.282 . S
O184 U166 2.441 . S
O184 C170 1.249 . S
O185 U166 2.420 . S
O185 C170 1.202 . S
O186 U166 2.455 . S
O186 C183 1.301 . S
O187 U166 2.449 . S
O187 C183 1.282 . S
H188 C161 0.931 . S
H189 C163 0.929 . S
H190 C164 0.930 . S
H191 C165 0.931 . S
H192 C172 0.932 . S
H193 C173 0.930 . S
H194 C174 0.929 . S
H195 C176 0.930 . S
H196 C178 0.932 . S
H197 C179 0.929 . S
H198 C180 0.928 . S
H199 C182 0.932 . S
C200 C201 1.264 . S
C200 C205 1.479 . S
C200 C210 1.465 . S
C201 C200 1.264 . S
C201 C203 1.339 . S
C201 H228 0.931 . S
C202 C203 1.395 . S
C202 C204 1.320 . S
C203 C201 1.339 . S
C203 C202 1.395 . S
C203 H229 0.929 . S
C204 C202 1.320 . S
C204 C205 1.405 . S
C204 H230 0.930 . S
C205 C200 1.479 . S
C205 C204 1.405 . S
C205 H231 0.931 . S
U206 O207 2.454 . S
U206 O208 2.458 . S
U206 C209 2.984 . S
U206 C210 2.847 . S
U206 C223 2.882 . S
U206 O224 2.441 . S
U206 O225 2.420 . S
U206 O226 2.455 . S
U206 O227 2.449 . S
O207 U206 2.454 . S
O207 C209 1.353 . S
O208 U206 2.458 . S
O208 C209 1.286 . S
C209 U206 2.984 . S
C209 O207 1.353 . S
C209 O208 1.286 . S
C209 C211 1.363 . S
C210 C200 1.465 . S
C210 U206 2.847 . S
C210 O224 1.249 . S
C210 O225 1.202 . S
C211 C209 1.363 . S
C211 C213 1.408 . S
C211 C216 1.342 . S
C212 C213 1.310 . S
C212 C215 1.461 . S
C212 H232 0.932 . S
C213 C211 1.408 . S
C213 C212 1.310 . S
C213 H233 0.930 . S
C214 C215 1.474 . S
C214 C216 1.285 . S
C214 H234 0.929 . S
C215 C212 1.461 . S
C215 C214 1.474 . S
C216 C211 1.342 . S
C216 C214 1.285 . S
C216 H235 0.930 . S
C217 C220 1.424 . S
C217 C222 1.245 . S
C217 C223 1.428 . S
C218 C221 1.260 . S
C218 C222 1.477 . S
C218 H236 0.932 . S
C219 C220 1.384 . S
C219 C221 1.479 . S
C219 H237 0.929 . S
C220 C217 1.424 . S
C220 C219 1.384 . S
C220 H238 0.928 . S
C221 C218 1.260 . S
C221 C219 1.479 . S
C222 C217 1.245 . S
C222 C218 1.477 . S
C222 H239 0.932 . S
C223 U206 2.882 . S
C223 C217 1.428 . S
C223 O226 1.301 . S
C223 O227 1.282 . S
O224 U206 2.441 . S
O224 C210 1.249 . S
O225 U206 2.420 . S
O225 C210 1.202 . S
O226 U206 2.455 . S
O226 C223 1.301 . S
O227 U206 2.449 . S
O227 C223 1.282 . S
H228 C201 0.931 . S
H229 C203 0.929 . S
H230 C204 0.930 . S
H231 C205 0.931 . S
H232 C212 0.932 . S
H233 C213 0.930 . S
H234 C214 0.929 . S
H235 C216 0.930 . S
H236 C218 0.932 . S
H237 C219 0.929 . S
H238 C220 0.928 . S
H239 C222 0.932 . S
C240 C241 1.264 . S
C240 C245 1.479 . S
C240 C250 1.465 . S
C241 C240 1.264 . S
C241 C243 1.339 . S
C241 H268 0.931 . S
C242 C243 1.395 . S
C242 C244 1.320 . S
C243 C241 1.339 . S
C243 C242 1.395 . S
C243 H269 0.929 . S
C244 C242 1.320 . S
C244 C245 1.405 . S
C244 H270 0.930 . S
C245 C240 1.479 . S
C245 C244 1.405 . S
C245 H271 0.931 . S
U246 O247 2.454 . S
U246 O248 2.458 . S
U246 C249 2.984 . S
U246 C250 2.847 . S
U246 C263 2.882 . S
U246 O264 2.441 . S
U246 O265 2.420 . S
U246 O266 2.455 . S
U246 O267 2.449 . S
O247 U246 2.454 . S
O247 C249 1.353 . S
O248 U246 2.458 . S
O248 C249 1.286 . S
C249 U246 2.984 . S
C249 O247 1.353 . S
C249 O248 1.286 . S
C249 C251 1.363 . S
C250 C240 1.465 . S
C250 U246 2.847 . S
C250 O264 1.249 . S
C250 O265 1.202 . S
C251 C249 1.363 . S
C251 C253 1.408 . S
C251 C256 1.342 . S
C252 C253 1.310 . S
C252 C255 1.461 . S
C252 H272 0.932 . S
C253 C251 1.408 . S
C253 C252 1.310 . S
C253 H273 0.930 . S
C254 C255 1.474 . S
C254 C256 1.285 . S
C254 H274 0.929 . S
C255 C252 1.461 . S
C255 C254 1.474 . S
C256 C251 1.342 . S
C256 C254 1.285 . S
C256 H275 0.930 . S
C257 C260 1.424 . S
C257 C262 1.245 . S
C257 C263 1.428 . S
C258 C261 1.260 . S
C258 C262 1.477 . S
C258 H276 0.932 . S
C259 C260 1.384 . S
C259 C261 1.479 . S
C259 H277 0.929 . S
C260 C257 1.424 . S
C260 C259 1.384 . S
C260 H278 0.928 . S
C261 C258 1.260 . S
C261 C259 1.479 . S
C262 C257 1.245 . S
C262 C258 1.477 . S
C262 H279 0.932 . S
C263 U246 2.882 . S
C263 C257 1.428 . S
C263 O266 1.301 . S
C263 O267 1.282 . S
O264 U246 2.441 . S
O264 C250 1.249 . S
O265 U246 2.420 . S
O265 C250 1.202 . S
O266 U246 2.455 . S
O266 C263 1.301 . S
O267 U246 2.449 . S
O267 C263 1.282 . S
H268 C241 0.931 . S
H269 C243 0.929 . S
H270 C244 0.930 . S
H271 C245 0.931 . S
H272 C252 0.932 . S
H273 C253 0.930 . S
H274 C254 0.929 . S
H275 C256 0.930 . S
H276 C258 0.932 . S
H277 C259 0.929 . S
H278 C260 0.928 . S
H279 C262 0.932 . S
C280 C281 1.264 . S
C280 C285 1.479 1_556 S
C280 C290 1.465 . S
C281 C280 1.264 . S
C281 C283 1.339 1_556 S
C281 H308 0.931 . S
C282 C283 1.395 . S
C282 C284 1.320 . S
C283 C281 1.339 1_554 S
C283 C282 1.395 . S
C283 H309 0.929 . S
C284 C282 1.320 . S
C284 C285 1.405 . S
C284 H310 0.930 . S
C285 C280 1.479 1_554 S
C285 C284 1.405 . S
C285 H311 0.931 . S
U286 O287 2.454 . S
U286 O288 2.458 . S
U286 C289 2.984 . S
U286 C290 2.847 . S
U286 C303 2.882 . S
U286 O304 2.441 . S
U286 O305 2.420 . S
U286 O306 2.455 . S
U286 O307 2.449 . S
O287 U286 2.454 . S
O287 C289 1.353 . S
O288 U286 2.458 . S
O288 C289 1.286 . S
C289 U286 2.984 . S
C289 O287 1.353 . S
C289 O288 1.286 . S
C289 C291 1.363 . S
C290 C280 1.465 . S
C290 U286 2.847 . S
C290 O304 1.249 . S
C290 O305 1.202 . S
C291 C289 1.363 . S
C291 C293 1.408 . S
C291 C296 1.342 . S
C292 C293 1.310 . S
C292 C295 1.461 . S
C292 H312 0.932 . S
C293 C291 1.408 . S
C293 C292 1.310 . S
C293 H313 0.930 . S
C294 C295 1.474 . S
C294 C296 1.285 . S
C294 H314 0.929 . S
C295 C292 1.461 . S
C295 C294 1.474 . S
C296 C291 1.342 . S
C296 C294 1.285 . S
C296 H315 0.930 . S
C297 C300 1.424 . S
C297 C302 1.245 . S
C297 C303 1.428 . S
C298 C301 1.260 . S
C298 C302 1.477 . S
C298 H316 0.932 . S
C299 C300 1.384 . S
C299 C301 1.479 . S
C299 H317 0.929 . S
C300 C297 1.424 . S
C300 C299 1.384 . S
C300 H318 0.928 . S
C301 C298 1.260 . S
C301 C299 1.479 . S
C302 C297 1.245 . S
C302 C298 1.477 . S
C302 H319 0.932 . S
C303 U286 2.882 . S
C303 C297 1.428 . S
C303 O306 1.301 . S
C303 O307 1.282 . S
O304 U286 2.441 . S
O304 C290 1.249 . S
O305 U286 2.420 . S
O305 C290 1.202 . S
O306 U286 2.455 . S
O306 C303 1.301 . S
O307 U286 2.449 . S
O307 C303 1.282 . S
H308 C281 0.931 . S
H309 C283 0.929 . S
H310 C284 0.930 . S
H311 C285 0.931 . S
H312 C292 0.932 . S
H313 C293 0.930 . S
H314 C294 0.929 . S
H315 C296 0.930 . S
H316 C298 0.932 . S
H317 C299 0.929 . S
H318 C300 0.928 . S
H319 C302 0.932 . S
C320 C321 1.264 . S
C320 C325 1.479 . S
C320 C330 1.465 . S
C321 C320 1.264 . S
C321 C323 1.339 . S
C321 H348 0.931 . S
C322 C323 1.395 . S
C322 C324 1.320 . S
C323 C321 1.339 . S
C323 C322 1.395 . S
C323 H349 0.929 . S
C324 C322 1.320 . S
C324 C325 1.405 . S
C324 H350 0.930 . S
C325 C320 1.479 . S
C325 C324 1.405 . S
C325 H351 0.931 . S
U326 O327 2.454 . S
U326 O328 2.458 . S
U326 C329 2.984 . S
U326 C330 2.847 . S
U326 C343 2.882 . S
U326 O344 2.441 . S
U326 O345 2.420 . S
U326 O346 2.455 . S
U326 O347 2.449 . S
O327 U326 2.454 . S
O327 C329 1.353 . S
O328 U326 2.458 . S
O328 C329 1.286 . S
C329 U326 2.984 . S
C329 O327 1.353 . S
C329 O328 1.286 . S
C329 C331 1.454 . S
C330 C320 1.465 . S
C330 U326 2.847 . S
C330 O344 1.249 . S
C330 O345 1.202 . S
C331 C329 1.454 . S
C331 C333 1.327 1_545 S
C331 C336 1.341 . S
C332 C333 1.310 . S
C332 C335 1.461 . S
C332 H352 0.932 . S
C333 C331 1.327 1_565 S
C333 C332 1.310 . S
C333 H353 0.930 . S
C334 C335 1.474 . S
C334 C336 1.238 1_565 S
C334 H354 0.929 . S
C335 C332 1.461 . S
C335 C334 1.474 . S
C336 C331 1.341 . S
C336 C334 1.238 1_545 S
C336 H355 0.976 . S
C337 C340 1.424 . S
C337 C342 1.245 . S
C337 C343 1.428 . S
C338 C341 1.260 . S
C338 C342 1.477 . S
C338 H356 0.932 . S
C339 C340 1.384 . S
C339 C341 1.479 . S
C339 H357 0.929 . S
C340 C337 1.424 . S
C340 C339 1.384 . S
C340 H358 0.928 . S
C341 C338 1.260 . S
C341 C339 1.479 . S
C342 C337 1.245 . S
C342 C338 1.477 . S
C342 H359 0.932 . S
C343 U326 2.882 . S
C343 C337 1.428 . S
C343 O346 1.301 . S
C343 O347 1.282 . S
O344 U326 2.441 . S
O344 C330 1.249 . S
O345 U326 2.420 . S
O345 C330 1.202 . S
O346 U326 2.455 . S
O346 C343 1.301 . S
O347 U326 2.449 . S
O347 C343 1.282 . S
H348 C321 0.931 . S
H349 C323 0.929 . S
H350 C324 0.930 . S
H351 C325 0.931 . S
H352 C332 0.932 . S
H353 C333 0.930 . S
H354 C334 0.929 . S
H355 C336 0.976 . S
H356 C338 0.932 . S
H357 C339 0.929 . S
H358 C340 0.928 . S
H359 C342 0.932 . S
C360 C361 1.264 . S
C360 C365 1.479 1_545 S
C360 C370 1.465 . S
C361 C360 1.264 . S
C361 C363 1.339 1_545 S
C361 H388 0.931 . S
C362 C363 1.395 . S
C362 C364 1.320 . S
C363 C361 1.339 1_565 S
C363 C362 1.395 . S
C363 H389 0.929 . S
C364 C362 1.320 . S
C364 C365 1.405 . S
C364 H390 0.930 . S
C365 C360 1.479 1_565 S
C365 C364 1.405 . S
C365 H391 0.931 . S
U366 O367 2.454 . S
U366 O368 2.458 . S
U366 C369 2.984 . S
U366 C370 2.847 . S
U366 C383 2.882 . S
U366 O384 2.441 . S
U366 O385 2.420 . S
U366 O386 2.455 . S
U366 O387 2.449 . S
O367 U366 2.454 . S
O367 C369 1.353 . S
O368 U366 2.458 . S
O368 C369 1.286 . S
C369 U366 2.984 . S
C369 O367 1.353 . S
C369 O368 1.286 . S
C369 C371 1.363 . S
C370 C360 1.465 . S
C370 U366 2.847 . S
C370 O384 1.249 . S
C370 O385 1.202 . S
C371 C369 1.363 . S
C371 C373 1.408 . S
C371 C376 1.342 . S
C372 C373 1.310 . S
C372 C375 1.461 . S
C372 H392 0.932 . S
C373 C371 1.408 . S
C373 C372 1.310 . S
C373 H393 0.930 . S
C374 C375 1.474 . S
C374 C376 1.285 . S
C374 H394 0.929 . S
C375 C372 1.461 . S
C375 C374 1.474 . S
C376 C371 1.342 . S
C376 C374 1.285 . S
C376 H395 0.930 . S
C377 C380 1.424 . S
C377 C382 1.245 . S
C377 C383 1.428 . S
C378 C381 1.260 . S
C378 C382 1.477 . S
C378 H396 0.932 . S
C379 C380 1.384 . S
C379 C381 1.479 . S
C379 H397 0.929 . S
C380 C377 1.424 . S
C380 C379 1.384 . S
C380 H398 0.928 . S
C381 C378 1.260 . S
C381 C379 1.479 . S
C382 C377 1.245 . S
C382 C378 1.477 . S
C382 H399 0.932 . S
C383 U366 2.882 . S
C383 C377 1.428 . S
C383 O386 1.301 . S
C383 O387 1.282 . S
O384 U366 2.441 . S
O384 C370 1.249 . S
O385 U366 2.420 . S
O385 C370 1.202 . S
O386 U366 2.455 . S
O386 C383 1.301 . S
O387 U366 2.449 . S
O387 C383 1.282 . S
H388 C361 0.931 . S
H389 C363 0.929 . S
H390 C364 0.930 . S
H391 C365 0.931 . S
H392 C372 0.932 . S
H393 C373 0.930 . S
H394 C374 0.929 . S
H395 C376 0.930 . S
H396 C378 0.932 . S
H397 C379 0.929 . S
H398 C380 0.928 . S
H399 C382 0.932 . S
C400 C401 1.264 . S
C400 C405 1.479 1_565 S
C400 C410 1.465 . S
C401 C400 1.264 . S
C401 C403 1.339 1_565 S
C401 H428 0.931 . S
C402 C403 1.395 . S
C402 C404 1.320 . S
C403 C401 1.339 1_545 S
C403 C402 1.395 . S
C403 H429 0.929 . S
C404 C402 1.320 . S
C404 C405 1.405 . S
C404 H430 0.930 . S
C405 C400 1.479 1_545 S
C405 C404 1.405 . S
C405 H431 0.931 . S
U406 O407 2.454 . S
U406 O408 2.458 . S
U406 C409 2.984 . S
U406 C410 2.847 . S
U406 C423 2.882 . S
U406 O424 2.441 . S
U406 O425 2.420 . S
U406 O426 2.455 . S
U406 O427 2.449 . S
O407 U406 2.454 . S
O407 C409 1.353 . S
O408 U406 2.458 . S
O408 C409 1.286 . S
C409 U406 2.984 . S
C409 O407 1.353 . S
C409 O408 1.286 . S
C409 C411 1.363 . S
C410 C400 1.465 . S
C410 U406 2.847 . S
C410 O424 1.249 . S
C410 O425 1.202 . S
C411 C409 1.363 . S
C411 C413 1.408 . S
C411 C416 1.342 . S
C412 C413 1.310 . S
C412 C415 1.461 . S
C412 H432 0.932 . S
C413 C411 1.408 . S
C413 C412 1.310 . S
C413 H433 0.930 . S
C414 C415 1.474 . S
C414 C416 1.285 . S
C414 H434 0.929 . S
C415 C412 1.461 . S
C415 C414 1.474 . S
C416 C411 1.342 . S
C416 C414 1.285 . S
C416 H435 0.930 . S
C417 C420 1.424 . S
C417 C422 1.245 . S
C417 C423 1.428 . S
C418 C421 1.260 . S
C418 C422 1.477 . S
C418 H436 0.932 . S
C419 C420 1.384 . S
C419 C421 1.479 . S
C419 H437 0.929 . S
C420 C417 1.424 . S
C420 C419 1.384 . S
C420 H438 0.928 . S
C421 C418 1.260 . S
C421 C419 1.479 . S
C422 C417 1.245 . S
C422 C418 1.477 . S
C422 H439 0.932 . S
C423 U406 2.882 . S
C423 C417 1.428 . S
C423 O426 1.301 . S
C423 O427 1.282 . S
O424 U406 2.441 . S
O424 C410 1.249 . S
O425 U406 2.420 . S
O425 C410 1.202 . S
O426 U406 2.455 . S
O426 C423 1.301 . S
O427 U406 2.449 . S
O427 C423 1.282 . S
H428 C401 0.931 . S
H429 C403 0.929 . S
H430 C404 0.930 . S
H431 C405 0.931 . S
H432 C412 0.932 . S
H433 C413 0.930 . S
H434 C414 0.929 . S
H435 C416 0.930 . S
H436 C418 0.932 . S
H437 C419 0.929 . S
H438 C420 0.928 . S
H439 C422 0.932 . S
C440 C441 1.264 . S
C440 C445 1.479 . S
C440 C450 1.465 . S
C441 C440 1.264 . S
C441 C443 1.339 . S
C441 H468 0.931 . S
C442 C443 1.395 . S
C442 C444 1.320 . S
C443 C441 1.339 . S
C443 C442 1.395 . S
C443 H469 0.929 . S
C444 C442 1.320 . S
C444 C445 1.405 . S
C444 H470 0.930 . S
C445 C440 1.479 . S
C445 C444 1.405 . S
C445 H471 0.931 . S
U446 O447 2.454 . S
U446 O448 2.458 . S
U446 C449 2.984 . S
U446 C450 2.847 . S
U446 C463 2.882 . S
U446 O464 2.441 . S
U446 O465 2.420 . S
U446 O466 2.455 . S
U446 O467 2.449 . S
O447 U446 2.454 . S
O447 C449 1.353 . S
O448 U446 2.458 . S
O448 C449 1.286 . S
C449 U446 2.984 . S
C449 O447 1.353 . S
C449 O448 1.286 . S
C449 C451 1.359 1_565 S
C450 C440 1.465 . S
C450 U446 2.847 . S
C450 O464 1.249 . S
C450 O465 1.202 . S
C451 C449 1.359 1_545 S
C451 C453 1.411 . S
C451 C456 1.341 . S
C452 C453 1.310 . S
C452 C455 1.461 . S
C452 H472 0.932 . S
C453 C451 1.411 . S
C453 C452 1.310 . S
C453 H473 0.930 . S
C454 C455 1.474 . S
C454 C456 1.331 . S
C454 H474 0.929 . S
C455 C452 1.461 . S
C455 C454 1.474 . S
C456 C451 1.341 . S
C456 C454 1.331 . S
C456 H475 0.887 1_545 S
C457 C460 1.424 . S
C457 C462 1.245 . S
C457 C463 1.428 . S
C458 C461 1.260 . S
C458 C462 1.477 . S
C458 H476 0.932 . S
C459 C460 1.384 . S
C459 C461 1.479 . S
C459 H477 0.929 . S
C460 C457 1.424 . S
C460 C459 1.384 . S
C460 H478 0.928 . S
C461 C458 1.260 . S
C461 C459 1.479 . S
C462 C457 1.245 . S
C462 C458 1.477 . S
C462 H479 0.932 . S
C463 U446 2.882 . S
C463 C457 1.428 . S
C463 O466 1.301 . S
C463 O467 1.282 . S
O464 U446 2.441 . S
O464 C450 1.249 . S
O465 U446 2.420 . S
O465 C450 1.202 . S
O466 U446 2.455 . S
O466 C463 1.301 . S
O467 U446 2.449 . S
O467 C463 1.282 . S
H468 C441 0.931 . S
H469 C443 0.929 . S
H470 C444 0.930 . S
H471 C445 0.931 . S
H472 C452 0.932 . S
H473 C453 0.930 . S
H474 C454 0.929 . S
H475 C456 0.887 1_565 S
H476 C458 0.932 . S
H477 C459 0.929 . S
H478 C460 0.928 . S
H479 C462 0.932 . S
C480 C481 1.264 . S
C480 C485 1.479 . S
C480 C490 1.465 . S
C481 C480 1.264 . S
C481 C483 1.339 . S
C481 H508 0.931 . S
C482 C483 1.395 . S
C482 C484 1.320 . S
C483 C481 1.339 . S
C483 C482 1.395 . S
C483 H509 0.929 . S
C484 C482 1.320 . S
C484 C485 1.405 . S
C484 H510 0.930 . S
C485 C480 1.479 . S
C485 C484 1.405 . S
C485 H511 0.931 . S
U486 O487 2.454 . S
U486 O488 2.458 . S
U486 C489 2.984 . S
U486 C490 2.847 . S
U486 C503 2.882 . S
U486 O504 2.441 . S
U486 O505 2.420 . S
U486 O506 2.455 . S
U486 O507 2.449 . S
O487 U486 2.454 . S
O487 C489 1.353 . S
O488 U486 2.458 . S
O488 C489 1.286 . S
C489 U486 2.984 . S
C489 O487 1.353 . S
C489 O488 1.286 . S
C489 C491 1.363 . S
C490 C480 1.465 . S
C490 U486 2.847 . S
C490 O504 1.249 . S
C490 O505 1.202 . S
C491 C489 1.363 . S
C491 C493 1.408 1_554 S
C491 C496 1.342 . S
C492 C493 1.310 . S
C492 C495 1.461 . S
C492 H512 0.932 . S
C493 C491 1.408 1_556 S
C493 C492 1.310 . S
C493 H513 0.930 . S
C494 C495 1.474 . S
C494 C496 1.285 1_556 S
C494 H514 0.929 . S
C495 C492 1.461 . S
C495 C494 1.474 . S
C496 C491 1.342 . S
C496 C494 1.285 1_554 S
C496 H515 0.930 . S
C497 C500 1.424 . S
C497 C502 1.245 . S
C497 C503 1.428 . S
C498 C501 1.260 . S
C498 C502 1.477 . S
C498 H516 0.932 . S
C499 C500 1.384 . S
C499 C501 1.479 . S
C499 H517 0.929 . S
C500 C497 1.424 . S
C500 C499 1.384 . S
C500 H518 0.928 . S
C501 C498 1.260 . S
C501 C499 1.479 . S
C502 C497 1.245 . S
C502 C498 1.477 . S
C502 H519 0.932 . S
C503 U486 2.882 . S
C503 C497 1.428 . S
C503 O506 1.301 . S
C503 O507 1.282 . S
O504 U486 2.441 . S
O504 C490 1.249 . S
O505 U486 2.420 . S
O505 C490 1.202 . S
O506 U486 2.455 . S
O506 C503 1.301 . S
O507 U486 2.449 . S
O507 C503 1.282 . S
H508 C481 0.931 . S
H509 C483 0.929 . S
H510 C484 0.930 . S
H511 C485 0.931 . S
H512 C492 0.932 . S
H513 C493 0.930 . S
H514 C494 0.929 . S
H515 C496 0.930 . S
H516 C498 0.932 . S
H517 C499 0.929 . S
H518 C500 0.928 . S
H519 C502 0.932 . S
C520 C521 1.262 1_655 S
C520 C525 1.470 1_655 S
C520 C530 1.473 . S
C521 C520 1.262 1_455 S
C521 C523 1.367 . S
C521 H548 0.906 1_455 S
C522 C523 1.395 . S
C522 C524 1.320 . S
C523 C521 1.367 . S
C523 C522 1.395 . S
C523 H549 0.929 . S
C524 C522 1.320 . S
C524 C525 1.405 . S
C524 H550 0.930 . S
C525 C520 1.470 1_455 S
C525 C524 1.405 . S
C525 H551 0.931 . S
U526 O527 2.454 . S
U526 O528 2.458 . S
U526 C529 2.984 . S
U526 C530 2.847 . S
U526 C543 2.882 . S
U526 O544 2.441 . S
U526 O545 2.420 . S
U526 O546 2.455 . S
U526 O547 2.449 . S
O527 U526 2.454 . S
O527 C529 1.353 . S
O528 U526 2.458 . S
O528 C529 1.286 . S
C529 U526 2.984 . S
C529 O527 1.353 . S
C529 O528 1.286 . S
C529 C531 1.363 . S
C530 C520 1.473 . S
C530 U526 2.847 . S
C530 O544 1.249 . S
C530 O545 1.202 . S
C531 C529 1.363 . S
C531 C533 1.408 . S
C531 C536 1.342 . S
C532 C533 1.310 . S
C532 C535 1.461 . S
C532 H552 0.932 . S
C533 C531 1.408 . S
C533 C532 1.310 . S
C533 H553 0.930 . S
C534 C535 1.474 . S
C534 C536 1.285 . S
C534 H554 0.929 . S
C535 C532 1.461 . S
C535 C534 1.474 . S
C536 C531 1.342 . S
C536 C534 1.285 . S
C536 H555 0.930 . S
C537 C540 1.424 . S
C537 C542 1.245 . S
C537 C543 1.428 . S
C538 C541 1.260 . S
C538 C542 1.477 . S
C538 H556 0.932 . S
C539 C540 1.384 . S
C539 C541 1.479 . S
C539 H557 0.929 . S
C540 C537 1.424 . S
C540 C539 1.384 . S
C540 H558 0.928 . S
C541 C538 1.260 . S
C541 C539 1.479 . S
C542 C537 1.245 . S
C542 C538 1.477 . S
C542 H559 0.932 . S
C543 U526 2.882 . S
C543 C537 1.428 . S
C543 O546 1.301 . S
C543 O547 1.282 . S
O544 U526 2.441 . S
O544 C530 1.249 . S
O545 U526 2.420 . S
O545 C530 1.202 . S
O546 U526 2.455 . S
O546 C543 1.301 . S
O547 U526 2.449 . S
O547 C543 1.282 . S
H548 C521 0.906 1_655 S
H549 C523 0.929 . S
H550 C524 0.930 . S
H551 C525 0.931 . S
H552 C532 0.932 . S
H553 C533 0.930 . S
H554 C534 0.929 . S
H555 C536 0.930 . S
H556 C538 0.932 . S
H557 C539 0.929 . S
H558 C540 0.928 . S
H559 C542 0.932 . S
C560 C561 1.264 . S
C560 C565 1.479 . S
C560 C570 1.465 . S
C561 C560 1.264 . S
C561 C563 1.339 . S
C561 H588 0.931 . S
C562 C563 1.395 . S
C562 C564 1.320 . S
C563 C561 1.339 . S
C563 C562 1.395 . S
C563 H589 0.929 . S
C564 C562 1.320 . S
C564 C565 1.405 . S
C564 H590 0.930 . S
C565 C560 1.479 . S
C565 C564 1.405 . S
C565 H591 0.931 . S
U566 O567 2.454 . S
U566 O568 2.458 . S
U566 C569 2.984 . S
U566 C570 2.847 . S
U566 C583 2.882 . S
U566 O584 2.441 . S
U566 O585 2.420 . S
U566 O586 2.455 . S
U566 O587 2.449 . S
O567 U566 2.454 . S
O567 C569 1.353 . S
O568 U566 2.458 . S
O568 C569 1.286 . S
C569 U566 2.984 . S
C569 O567 1.353 . S
C569 O568 1.286 . S
C569 C571 1.363 . S
C570 C560 1.465 . S
C570 U566 2.847 . S
C570 O584 1.249 . S
C570 O585 1.202 . S
C571 C569 1.363 . S
C571 C573 1.408 . S
C571 C576 1.342 . S
C572 C573 1.310 . S
C572 C575 1.461 . S
C572 H592 0.932 . S
C573 C571 1.408 . S
C573 C572 1.310 . S
C573 H593 0.930 . S
C574 C575 1.474 . S
C574 C576 1.285 . S
C574 H594 0.929 . S
C575 C572 1.461 . S
C575 C574 1.474 . S
C576 C571 1.342 . S
C576 C574 1.285 . S
C576 H595 0.930 . S
C577 C580 1.424 . S
C577 C582 1.245 . S
C577 C583 1.428 . S
C578 C581 1.260 . S
C578 C582 1.477 . S
C578 H596 0.932 . S
C579 C580 1.384 . S
C579 C581 1.479 . S
C579 H597 0.929 . S
C580 C577 1.424 . S
C580 C579 1.384 . S
C580 H598 0.928 . S
C581 C578 1.260 . S
C581 C579 1.479 . S
C582 C577 1.245 . S
C582 C578 1.477 . S
C582 H599 0.932 . S
C583 U566 2.882 . S
C583 C577 1.428 . S
C583 O586 1.301 . S
C583 O587 1.282 . S
O584 U566 2.441 . S
O584 C570 1.249 . S
O585 U566 2.420 . S
O585 C570 1.202 . S
O586 U566 2.455 . S
O586 C583 1.301 . S
O587 U566 2.449 . S
O587 C583 1.282 . S
H588 C561 0.931 . S
H589 C563 0.929 . S
H590 C564 0.930 . S
H591 C565 0.931 . S
H592 C572 0.932 . S
H593 C573 0.930 . S
H594 C574 0.929 . S
H595 C576 0.930 . S
H596 C578 0.932 . S
H597 C579 0.929 . S
H598 C580 0.928 . S
H599 C582 0.932 . S
C600 C601 1.264 . S
C600 C605 1.479 . S
C600 C610 1.465 . S
C601 C600 1.264 . S
C601 C603 1.339 . S
C601 H628 0.931 . S
C602 C603 1.395 . S
C602 C604 1.320 . S
C603 C601 1.339 . S
C603 C602 1.395 . S
C603 H629 0.929 . S
C604 C602 1.320 . S
C604 C605 1.405 . S
C604 H630 0.930 . S
C605 C600 1.479 . S
C605 C604 1.405 . S
C605 H631 0.931 . S
U606 O607 2.454 1_655 S
U606 O608 2.458 1_655 S
U606 C609 2.984 1_655 S
U606 C610 2.847 . S
U606 C623 2.882 . S
U606 O624 2.441 . S
U606 O625 2.420 . S
U606 O626 2.455 . S
U606 O627 2.449 . S
O607 U606 2.454 1_455 S
O607 C609 1.353 . S
O608 U606 2.458 1_455 S
O608 C609 1.286 . S
C609 U606 2.984 1_455 S
C609 O607 1.353 . S
C609 O608 1.286 . S
C609 C611 1.363 . S
C610 C600 1.465 . S
C610 U606 2.847 . S
C610 O624 1.249 . S
C610 O625 1.202 . S
C611 C609 1.363 . S
C611 C613 1.408 . S
C611 C616 1.342 . S
C612 C613 1.310 . S
C612 C615 1.461 . S
C612 H632 0.932 . S
C613 C611 1.408 . S
C613 C612 1.310 . S
C613 H633 0.930 . S
C614 C615 1.474 . S
C614 C616 1.285 . S
C614 H634 0.929 . S
C615 C612 1.461 . S
C615 C614 1.474 . S
C616 C611 1.342 . S
C616 C614 1.285 . S
C616 H635 0.930 . S
C617 C620 1.424 . S
C617 C622 1.245 . S
C617 C623 1.428 . S
C618 C621 1.260 . S
C618 C622 1.477 . S
C618 H636 0.932 . S
C619 C620 1.384 . S
C619 C621 1.479 . S
C619 H637 0.929 . S
C620 C617 1.424 . S
C620 C619 1.384 . S
C620 H638 0.928 . S
C621 C618 1.260 . S
C621 C619 1.479 . S
C622 C617 1.245 . S
C622 C618 1.477 . S
C622 H639 0.932 . S
C623 U606 2.882 . S
C623 C617 1.428 . S
C623 O626 1.301 . S
C623 O627 1.282 . S
O624 U606 2.441 . S
O624 C610 1.249 . S
O625 U606 2.420 . S
O625 C610 1.202 . S
O626 U606 2.455 . S
O626 C623 1.301 . S
O627 U606 2.449 . S
O627 C623 1.282 . S
H628 C601 0.931 . S
H629 C603 0.929 . S
H630 C604 0.930 . S
H631 C605 0.931 . S
H632 C612 0.932 . S
H633 C613 0.930 . S
H634 C614 0.929 . S
H635 C616 0.930 . S
H636 C618 0.932 . S
H637 C619 0.929 . S
H638 C620 0.928 . S
H639 C622 0.932 . S
C640 C641 1.264 . S
C640 C645 1.479 . S
C640 C650 1.465 . S
C641 C640 1.264 . S
C641 C643 1.339 . S
C641 H668 0.931 . S
C642 C643 1.395 . S
C642 C644 1.320 . S
C643 C641 1.339 . S
C643 C642 1.395 . S
C643 H669 0.929 . S
C644 C642 1.320 . S
C644 C645 1.405 . S
C644 H670 0.930 . S
C645 C640 1.479 . S
C645 C644 1.405 . S
C645 H671 0.931 . S
U646 O647 2.454 . S
U646 O648 2.458 . S
U646 C649 2.984 . S
U646 C650 2.847 . S
U646 C663 2.882 . S
U646 O664 2.441 . S
U646 O665 2.420 . S
U646 O666 2.455 . S
U646 O667 2.449 . S
O647 U646 2.454 . S
O647 C649 1.353 . S
O648 U646 2.458 . S
O648 C649 1.286 . S
C649 U646 2.984 . S
C649 O647 1.353 . S
C649 O648 1.286 . S
C649 C651 1.363 . S
C650 C640 1.465 . S
C650 U646 2.847 . S
C650 O664 1.249 . S
C650 O665 1.202 . S
C651 C649 1.363 . S
C651 C653 1.408 . S
C651 C656 1.342 . S
C652 C653 1.310 . S
C652 C655 1.461 . S
C652 H672 0.932 . S
C653 C651 1.408 . S
C653 C652 1.310 . S
C653 H673 0.930 . S
C654 C655 1.474 . S
C654 C656 1.285 . S
C654 H674 0.929 . S
C655 C652 1.461 . S
C655 C654 1.474 . S
C656 C651 1.342 . S
C656 C654 1.285 . S
C656 H675 0.930 . S
C657 C660 1.424 . S
C657 C662 1.245 . S
C657 C663 1.428 . S
C658 C661 1.260 . S
C658 C662 1.477 . S
C658 H676 0.932 . S
C659 C660 1.384 . S
C659 C661 1.479 . S
C659 H677 0.929 . S
C660 C657 1.424 . S
C660 C659 1.384 . S
C660 H678 0.928 . S
C661 C658 1.260 . S
C661 C659 1.479 . S
C662 C657 1.245 . S
C662 C658 1.477 . S
C662 H679 0.932 . S
C663 U646 2.882 . S
C663 C657 1.428 . S
C663 O666 1.301 . S
C663 O667 1.282 . S
O664 U646 2.441 . S
O664 C650 1.249 . S
O665 U646 2.420 . S
O665 C650 1.202 . S
O666 U646 2.455 . S
O666 C663 1.301 . S
O667 U646 2.449 . S
O667 C663 1.282 . S
H668 C641 0.931 . S
H669 C643 0.929 . S
H670 C644 0.930 . S
H671 C645 0.931 . S
H672 C652 0.932 . S
H673 C653 0.930 . S
H674 C654 0.929 . S
H675 C656 0.930 . S
H676 C658 0.932 . S
H677 C659 0.929 . S
H678 C660 0.928 . S
H679 C662 0.932 . S
C680 C681 1.264 . S
C680 C685 1.479 . S
C680 C690 1.465 . S
C681 C680 1.264 . S
C681 C683 1.339 . S
C681 H708 0.931 . S
C682 C683 1.395 . S
C682 C684 1.320 . S
C683 C681 1.339 . S
C683 C682 1.395 . S
C683 H709 0.929 . S
C684 C682 1.320 . S
C684 C685 1.405 . S
C684 H710 0.930 . S
C685 C680 1.479 . S
C685 C684 1.405 . S
C685 H711 0.931 . S
U686 O687 2.454 . S
U686 O688 2.458 . S
U686 C689 2.984 . S
U686 C690 2.847 . S
U686 C703 2.882 . S
U686 O704 2.441 . S
U686 O705 2.420 . S
U686 O706 2.455 . S
U686 O707 2.449 . S
O687 U686 2.454 . S
O687 C689 1.353 . S
O688 U686 2.458 . S
O688 C689 1.286 . S
C689 U686 2.984 . S
C689 O687 1.353 . S
C689 O688 1.286 . S
C689 C691 1.363 . S
C690 C680 1.465 . S
C690 U686 2.847 . S
C690 O704 1.249 . S
C690 O705 1.202 . S
C691 C689 1.363 . S
C691 C693 1.408 . S
C691 C696 1.342 . S
C692 C693 1.310 . S
C692 C695 1.461 . S
C692 H712 0.932 . S
C693 C691 1.408 . S
C693 C692 1.310 . S
C693 H713 0.930 . S
C694 C695 1.474 . S
C694 C696 1.285 . S
C694 H714 0.929 . S
C695 C692 1.461 . S
C695 C694 1.474 . S
C696 C691 1.342 . S
C696 C694 1.285 . S
C696 H715 0.930 . S
C697 C700 1.424 . S
C697 C702 1.245 . S
C697 C703 1.428 . S
C698 C701 1.260 . S
C698 C702 1.477 . S
C698 H716 0.932 . S
C699 C700 1.384 . S
C699 C701 1.479 . S
C699 H717 0.929 . S
C700 C697 1.424 . S
C700 C699 1.384 . S
C700 H718 0.928 . S
C701 C698 1.260 . S
C701 C699 1.479 . S
C702 C697 1.245 . S
C702 C698 1.477 . S
C702 H719 0.932 . S
C703 U686 2.882 . S
C703 C697 1.428 . S
C703 O706 1.301 . S
C703 O707 1.282 . S
O704 U686 2.441 . S
O704 C690 1.249 . S
O705 U686 2.420 . S
O705 C690 1.202 . S
O706 U686 2.455 . S
O706 C703 1.301 . S
O707 U686 2.449 . S
O707 C703 1.282 . S
H708 C681 0.931 . S
H709 C683 0.929 . S
H710 C684 0.930 . S
H711 C685 0.931 . S
H712 C692 0.932 . S
H713 C693 0.930 . S
H714 C694 0.929 . S
H715 C696 0.930 . S
H716 C698 0.932 . S
H717 C699 0.929 . S
H718 C700 0.928 . S
H719 C702 0.932 . S
C720 C721 1.264 . S
C720 C725 1.479 . S
C720 C730 1.465 . S
C721 C720 1.264 . S
C721 C723 1.339 . S
C721 H748 0.931 . S
C722 C723 1.395 . S
C722 C724 1.320 . S
C723 C721 1.339 . S
C723 C722 1.395 . S
C723 H749 0.929 . S
C724 C722 1.320 . S
C724 C725 1.405 . S
C724 H750 0.930 . S
C725 C720 1.479 . S
C725 C724 1.405 . S
C725 H751 0.931 . S
U726 O727 2.447 . S
U726 O728 2.458 . S
U726 C729 2.984 1_556 S
U726 C730 2.847 . S
U726 C743 2.882 . S
U726 O744 2.441 . S
U726 O745 2.420 . S
U726 O746 2.455 . S
U726 O747 2.449 . S
O727 U726 2.447 . S
O727 C729 1.357 1_556 S
O728 U726 2.458 . S
O728 C729 1.286 1_556 S
C729 U726 2.984 1_554 S
C729 O727 1.357 1_554 S
C729 O728 1.286 1_554 S
C729 C731 1.363 . S
C730 C720 1.465 . S
C730 U726 2.847 . S
C730 O744 1.249 . S
C730 O745 1.202 . S
C731 C729 1.363 . S
C731 C733 1.408 . S
C731 C736 1.342 . S
C732 C733 1.310 . S
C732 C735 1.461 . S
C732 H752 0.932 . S
C733 C731 1.408 . S
C733 C732 1.310 . S
C733 H753 0.930 . S
C734 C735 1.474 . S
C734 C736 1.285 . S
C734 H754 0.929 . S
C735 C732 1.461 . S
C735 C734 1.474 . S
C736 C731 1.342 . S
C736 C734 1.285 . S
C736 H755 0.930 . S
C737 C740 1.424 . S
C737 C742 1.245 . S
C737 C743 1.428 . S
C738 C741 1.260 . S
C738 C742 1.477 . S
C738 H756 0.932 . S
C739 C740 1.384 . S
C739 C741 1.479 . S
C739 H757 0.929 . S
C740 C737 1.424 . S
C740 C739 1.384 . S
C740 H758 0.928 . S
C741 C738 1.260 . S
C741 C739 1.479 . S
C742 C737 1.245 . S
C742 C738 1.477 . S
C742 H759 0.932 . S
C743 U726 2.882 . S
C743 C737 1.428 . S
C743 O746 1.301 . S
C743 O747 1.282 . S
O744 U726 2.441 . S
O744 C730 1.249 . S
O745 U726 2.420 . S
O745 C730 1.202 . S
O746 U726 2.455 . S
O746 C743 1.301 . S
O747 U726 2.449 . S
O747 C743 1.282 . S
H748 C721 0.931 . S
H749 C723 0.929 . S
H750 C724 0.930 . S
H751 C725 0.931 . S
H752 C732 0.932 . S
H753 C733 0.930 . S
H754 C734 0.929 . S
H755 C736 0.930 . S
H756 C738 0.932 . S
H757 C739 0.929 . S
H758 C740 0.928 . S
H759 C742 0.932 . S
C760 C761 1.264 . S
C760 C765 1.479 . S
C760 C770 1.465 . S
C761 C760 1.264 . S
C761 C763 1.339 . S
C761 H788 0.931 . S
C762 C763 1.395 . S
C762 C764 1.320 . S
C763 C761 1.339 . S
C763 C762 1.395 . S
C763 H789 0.929 . S
C764 C762 1.320 . S
C764 C765 1.405 . S
C764 H790 0.930 . S
C765 C760 1.479 . S
C765 C764 1.405 . S
C765 H791 0.931 . S
U766 O767 2.454 . S
U766 O768 2.458 . S
U766 C769 2.984 . S
U766 C770 2.847 1_655 S
U766 C783 2.882 . S
U766 O784 2.441 1_655 S
U766 O785 2.420 1_655 S
U766 O786 2.455 . S
U766 O787 2.449 . S
O767 U766 2.454 . S
O767 C769 1.353 . S
O768 U766 2.458 . S
O768 C769 1.286 . S
C769 U766 2.984 . S
C769 O767 1.353 . S
C769 O768 1.286 . S
C769 C771 1.363 . S
C770 C760 1.465 . S
C770 U766 2.847 1_455 S
C770 O784 1.249 . S
C770 O785 1.202 . S
C771 C769 1.363 . S
C771 C773 1.408 . S
C771 C776 1.342 . S
C772 C773 1.310 . S
C772 C775 1.461 . S
C772 H792 0.932 . S
C773 C771 1.408 . S
C773 C772 1.310 . S
C773 H793 0.930 . S
C774 C775 1.474 . S
C774 C776 1.285 . S
C774 H794 0.929 . S
C775 C772 1.461 . S
C775 C774 1.474 . S
C776 C771 1.342 . S
C776 C774 1.285 . S
C776 H795 0.930 . S
C777 C780 1.424 . S
C777 C782 1.245 . S
C777 C783 1.428 . S
C778 C781 1.260 . S
C778 C782 1.477 . S
C778 H796 0.932 . S
C779 C780 1.384 . S
C779 C781 1.479 . S
C779 H797 0.929 . S
C780 C777 1.424 . S
C780 C779 1.384 . S
C780 H798 0.928 . S
C781 C778 1.260 . S
C781 C779 1.479 . S
C782 C777 1.245 . S
C782 C778 1.477 . S
C782 H799 0.932 . S
C783 U766 2.882 . S
C783 C777 1.428 . S
C783 O786 1.301 . S
C783 O787 1.282 . S
O784 U766 2.441 1_455 S
O784 C770 1.249 . S
O785 U766 2.420 1_455 S
O785 C770 1.202 . S
O786 U766 2.455 . S
O786 C783 1.301 . S
O787 U766 2.449 . S
O787 C783 1.282 . S
H788 C761 0.931 . S
H789 C763 0.929 . S
H790 C764 0.930 . S
H791 C765 0.931 . S
H792 C772 0.932 . S
H793 C773 0.930 . S
H794 C774 0.929 . S
H795 C776 0.930 . S
H796 C778 0.932 . S
H797 C779 0.929 . S
H798 C780 0.928 . S
H799 C782 0.932 . S
C800 C801 1.264 . S
C800 C805 1.479 . S
C800 C810 1.465 . S
C801 C800 1.264 . S
C801 C803 1.339 . S
C801 H828 0.931 . S
C802 C803 1.395 . S
C802 C804 1.320 . S
C803 C801 1.339 . S
C803 C802 1.395 . S
C803 H829 0.929 . S
C804 C802 1.320 . S
C804 C805 1.405 . S
C804 H830 0.930 . S
C805 C800 1.479 . S
C805 C804 1.405 . S
C805 H831 0.931 . S
U806 O807 2.454 . S
U806 O808 2.458 . S
U806 C809 2.984 . S
U806 C810 2.847 . S
U806 C823 2.882 . S
U806 O824 2.441 . S
U806 O825 2.420 . S
U806 O826 2.455 . S
U806 O827 2.449 . S
O807 U806 2.454 . S
O807 C809 1.353 . S
O808 U806 2.458 . S
O808 C809 1.286 . S
C809 U806 2.984 . S
C809 O807 1.353 . S
C809 O808 1.286 . S
C809 C811 1.363 . S
C810 C800 1.465 . S
C810 U806 2.847 . S
C810 O824 1.249 . S
C810 O825 1.202 . S
C811 C809 1.363 . S
C811 C813 1.408 . S
C811 C816 1.342 . S
C812 C813 1.310 . S
C812 C815 1.461 . S
C812 H832 0.932 . S
C813 C811 1.408 . S
C813 C812 1.310 . S
C813 H833 0.930 . S
C814 C815 1.474 . S
C814 C816 1.285 . S
C814 H834 0.929 . S
C815 C812 1.461 . S
C815 C814 1.474 . S
C816 C811 1.342 . S
C816 C814 1.285 . S
C816 H835 0.930 . S
C817 C820 1.424 . S
C817 C822 1.245 . S
C817 C823 1.428 . S
C818 C821 1.260 . S
C818 C822 1.477 . S
C818 H836 0.932 . S
C819 C820 1.384 . S
C819 C821 1.479 . S
C819 H837 0.929 . S
C820 C817 1.424 . S
C820 C819 1.384 . S
C820 H838 0.928 . S
C821 C818 1.260 . S
C821 C819 1.479 . S
C822 C817 1.245 . S
C822 C818 1.477 . S
C822 H839 0.932 . S
C823 U806 2.882 . S
C823 C817 1.428 . S
C823 O826 1.301 . S
C823 O827 1.282 . S
O824 U806 2.441 . S
O824 C810 1.249 . S
O825 U806 2.420 . S
O825 C810 1.202 . S
O826 U806 2.455 . S
O826 C823 1.301 . S
O827 U806 2.449 . S
O827 C823 1.282 . S
H828 C801 0.931 . S
H829 C803 0.929 . S
H830 C804 0.930 . S
H831 C805 0.931 . S
H832 C812 0.932 . S
H833 C813 0.930 . S
H834 C814 0.929 . S
H835 C816 0.930 . S
H836 C818 0.932 . S
H837 C819 0.929 . S
H838 C820 0.928 . S
H839 C822 0.932 . S
C840 C841 1.264 . S
C840 C845 1.479 . S
C840 C850 1.465 . S
C841 C840 1.264 . S
C841 C843 1.339 . S
C841 H868 0.931 . S
C842 C843 1.395 . S
C842 C844 1.320 . S
C843 C841 1.339 . S
C843 C842 1.395 . S
C843 H869 0.929 . S
C844 C842 1.320 . S
C844 C845 1.405 . S
C844 H870 0.930 . S
C845 C840 1.479 . S
C845 C844 1.405 . S
C845 H871 0.931 . S
U846 O847 2.454 . S
U846 O848 2.458 . S
U846 C849 2.984 . S
U846 C850 2.847 . S
U846 C863 2.882 . S
U846 O864 2.441 . S
U846 O865 2.420 . S
U846 O866 2.455 . S
U846 O867 2.449 . S
O847 U846 2.454 . S
O847 C849 1.353 . S
O848 U846 2.458 . S
O848 C849 1.286 . S
C849 U846 2.984 . S
C849 O847 1.353 . S
C849 O848 1.286 . S
C849 C851 1.363 . S
C850 C840 1.465 . S
C850 U846 2.847 . S
C850 O864 1.249 . S
C850 O865 1.202 . S
C851 C849 1.363 . S
C851 C853 1.408 . S
C851 C856 1.342 . S
C852 C853 1.310 . S
C852 C855 1.461 . S
C852 H872 0.932 . S
C853 C851 1.408 . S
C853 C852 1.310 . S
C853 H873 0.930 . S
C854 C855 1.474 . S
C854 C856 1.285 . S
C854 H874 0.929 . S
C855 C852 1.461 . S
C855 C854 1.474 . S
C856 C851 1.342 . S
C856 C854 1.285 . S
C856 H875 0.930 . S
C857 C860 1.424 . S
C857 C862 1.245 . S
C857 C863 1.428 . S
C858 C861 1.260 . S
C858 C862 1.477 . S
C858 H876 0.932 . S
C859 C860 1.384 . S
C859 C861 1.479 . S
C859 H877 0.929 . S
C860 C857 1.424 . S
C860 C859 1.384 . S
C860 H878 0.928 . S
C861 C858 1.260 . S
C861 C859 1.479 . S
C862 C857 1.245 . S
C862 C858 1.477 . S
C862 H879 0.932 . S
C863 U846 2.882 . S
C863 C857 1.428 . S
C863 O866 1.301 . S
C863 O867 1.282 . S
O864 U846 2.441 . S
O864 C850 1.249 . S
O865 U846 2.420 . S
O865 C850 1.202 . S
O866 U846 2.455 . S
O866 C863 1.301 . S
O867 U846 2.449 . S
O867 C863 1.282 . S
H868 C841 0.931 . S
H869 C843 0.929 . S
H870 C844 0.930 . S
H871 C845 0.931 . S
H872 C852 0.932 . S
H873 C853 0.930 . S
H874 C854 0.929 . S
H875 C856 0.930 . S
H876 C858 0.932 . S
H877 C859 0.929 . S
H878 C860 0.928 . S
H879 C862 0.932 . S
C880 C881 1.264 . S
C880 C885 1.479 . S
C880 C890 1.465 . S
C881 C880 1.264 . S
C881 C883 1.339 . S
C881 H908 0.931 . S
C882 C883 1.395 . S
C882 C884 1.320 . S
C883 C881 1.339 . S
C883 C882 1.395 . S
C883 H909 0.929 . S
C884 C882 1.320 . S
C884 C885 1.405 . S
C884 H910 0.930 . S
C885 C880 1.479 . S
C885 C884 1.405 . S
C885 H911 0.931 . S
U886 O887 2.454 . S
U886 O888 2.458 . S
U886 C889 2.984 . S
U886 C890 2.847 1_554 S
U886 C903 2.882 . S
U886 O904 2.364 1_554 S
U886 O905 2.447 . S
U886 O906 2.455 . S
U886 O907 2.449 . S
O887 U886 2.454 . S
O887 C889 1.353 . S
O888 U886 2.458 . S
O888 C889 1.286 . S
C889 U886 2.984 . S
C889 O887 1.353 . S
C889 O888 1.286 . S
C889 C891 1.363 . S
C890 C880 1.465 . S
C890 U886 2.847 1_556 S
C890 O904 1.290 . S
C890 O905 1.185 1_556 S
C891 C889 1.363 . S
C891 C893 1.408 . S
C891 C896 1.342 . S
C892 C893 1.310 . S
C892 C895 1.461 . S
C892 H912 0.932 . S
C893 C891 1.408 . S
C893 C892 1.310 . S
C893 H913 0.930 . S
C894 C895 1.474 . S
C894 C896 1.285 . S
C894 H914 0.929 . S
C895 C892 1.461 . S
C895 C894 1.474 . S
C896 C891 1.342 . S
C896 C894 1.285 . S
C896 H915 0.930 . S
C897 C900 1.424 . S
C897 C902 1.245 . S
C897 C903 1.428 . S
C898 C901 1.260 . S
C898 C902 1.477 . S
C898 H916 0.932 . S
C899 C900 1.384 . S
C899 C901 1.479 . S
C899 H917 0.929 . S
C900 C897 1.424 . S
C900 C899 1.384 . S
C900 H918 0.928 . S
C901 C898 1.260 . S
C901 C899 1.479 . S
C902 C897 1.245 . S
C902 C898 1.477 . S
C902 H919 0.932 . S
C903 U886 2.882 . S
C903 C897 1.428 . S
C903 O906 1.301 . S
C903 O907 1.282 . S
O904 U886 2.364 1_556 S
O904 C890 1.290 . S
O905 U886 2.447 . S
O905 C890 1.185 1_554 S
O906 U886 2.455 . S
O906 C903 1.301 . S
O907 U886 2.449 . S
O907 C903 1.282 . S
H908 C881 0.931 . S
H909 C883 0.929 . S
H910 C884 0.930 . S
H911 C885 0.931 . S
H912 C892 0.932 . S
H913 C893 0.930 . S
H914 C894 0.929 . S
H915 C896 0.930 . S
H916 C898 0.932 . S
H917 C899 0.929 . S
H918 C900 0.928 . S
H919 C902 0.932 . S
C920 C921 1.264 . S
C920 C925 1.479 . S
C920 C930 1.465 . S
C921 C920 1.264 . S
C921 C923 1.339 . S
C921 H948 0.931 . S
C922 C923 1.395 . S
C922 C924 1.320 . S
C923 C921 1.339 . S
C923 C922 1.395 . S
C923 H949 0.929 . S
C924 C922 1.320 . S
C924 C925 1.405 . S
C924 H950 0.930 . S
C925 C920 1.479 . S
C925 C924 1.405 . S
C925 H951 0.931 . S
U926 O927 2.454 1_565 S
U926 O928 2.458 1_565 S
U926 C929 2.984 1_565 S
U926 C930 2.847 . S
U926 C943 2.882 . S
U926 O944 2.441 . S
U926 O945 2.420 . S
U926 O946 2.455 . S
U926 O947 2.449 . S
O927 U926 2.454 1_545 S
O927 C929 1.353 . S
O928 U926 2.458 1_545 S
O928 C929 1.286 . S
C929 U926 2.984 1_545 S
C929 O927 1.353 . S
C929 O928 1.286 . S
C929 C931 1.363 . S
C930 C920 1.465 . S
C930 U926 2.847 . S
C930 O944 1.249 . S
C930 O945 1.202 . S
C931 C929 1.363 . S
C931 C933 1.408 . S
C931 C936 1.342 . S
C932 C933 1.310 . S
C932 C935 1.461 . S
C932 H952 0.932 . S
C933 C931 1.408 . S
C933 C932 1.310 . S
C933 H953 0.930 . S
C934 C935 1.474 . S
C934 C936 1.285 . S
C934 H954 0.929 . S
C935 C932 1.461 . S
C935 C934 1.474 . S
C936 C931 1.342 . S
C936 C934 1.285 . S
C936 H955 0.930 . S
C937 C940 1.424 . S
C937 C942 1.245 . S
C937 C943 1.428 . S
C938 C941 1.260 . S
C938 C942 1.477 . S
C938 H956 0.932 . S
C939 C940 1.384 . S
C939 C941 1.479 . S
C939 H957 0.929 . S
C940 C937 1.424 . S
C940 C939 1.384 . S
C940 H958 0.928 . S
C941 C938 1.260 . S
C941 C939 1.479 . S
C942 C937 1.245 . S
C942 C938 1.477 . S
C942 H959 0.932 . S
C943 U926 2.882 . S
C943 C937 1.428 . S
C943 O946 1.301 . S
C943 O947 1.282 . S
O944 U926 2.441 . S
O944 C930 1.249 . S
O945 U926 2.420 . S
O945 C930 1.202 . S
O946 U926 2.455 . S
O946 C943 1.301 . S
O947 U926 2.449 . S
O947 C943 1.282 . S
H948 C921 0.931 . S
H949 C923 0.929 . S
H950 C924 0.930 . S
H951 C925 0.931 . S
H952 C932 0.932 . S
H953 C933 0.930 . S
H954 C934 0.929 . S
H955 C936 0.930 . S
H956 C938 0.932 . S
H957 C939 0.929 . S
H958 C940 0.928 . S
H959 C942 0.932 . S
C960 C961 1.264 . S
C960 C965 1.479 . S
C960 C970 1.465 . S
C961 C960 1.264 . S
C961 C963 1.339 . S
C961 H988 0.931 . S
C962 C963 1.395 . S
C962 C964 1.320 . S
C963 C961 1.339 . S
C963 C962 1.395 . S
C963 H989 0.929 . S
C964 C962 1.320 . S
C964 C965 1.405 . S
C964 H990 0.930 . S
C965 C960 1.479 . S
C965 C964 1.405 . S
C965 H991 0.931 . S
U966 O967 2.454 1_565 S
U966 O968 2.458 1_565 S
U966 C969 2.984 1_565 S
U966 C970 2.847 . S
U966 C983 2.882 . S
U966 O984 2.441 . S
U966 O985 2.420 . S
U966 O986 2.455 . S
U966 O987 2.449 . S
O967 U966 2.454 1_545 S
O967 C969 1.353 . S
O968 U966 2.458 1_545 S
O968 C969 1.286 . S
C969 U966 2.984 1_545 S
C969 O967 1.353 . S
C969 O968 1.286 . S
C969 C971 1.363 . S
C970 C960 1.465 . S
C970 U966 2.847 . S
C970 O984 1.249 . S
C970 O985 1.202 . S
C971 C969 1.363 . S
C971 C973 1.408 . S
C971 C976 1.342 . S
C972 C973 1.310 . S
C972 C975 1.461 . S
C972 H992 0.932 . S
C973 C971 1.408 . S
C973 C972 1.310 . S
C973 H993 0.930 . S
C974 C975 1.474 . S
C974 C976 1.285 . S
C974 H994 0.929 . S
C975 C972 1.461 . S
C975 C974 1.474 . S
C976 C971 1.342 . S
C976 C974 1.285 . S
C976 H995 0.930 . S
C977 C980 1.424 . S
C977 C982 1.245 . S
C977 C983 1.428 . S
C978 C981 1.260 . S
C978 C982 1.477 . S
C978 H996 0.932 . S
C979 C980 1.384 . S
C979 C981 1.479 . S
C979 H997 0.929 . S
C980 C977 1.424 . S
C980 C979 1.384 . S
C980 H998 0.928 . S
C981 C978 1.260 . S
C981 C979 1.479 . S
C982 C977 1.245 . S
C982 C978 1.477 . S
C982 H999 0.932 . S
C983 U966 2.882 . S
C983 C977 1.428 . S
C983 O986 1.301 . S
C983 O987 1.282 . S
O984 U966 2.441 . S
O984 C970 1.249 . S
O985 U966 2.420 . S
O985 C970 1.202 . S
O986 U966 2.455 . S
O986 C983 1.301 . S
O987 U966 2.449 . S
O987 C983 1.282 . S
H988 C961 0.931 . S
H989 C963 0.929 . S
H990 C964 0.930 . S
H991 C965 0.931 . S
H992 C972 0.932 . S
H993 C973 0.930 . S
H994 C974 0.929 . S
H995 C976 0.930 . S
H996 C978 0.932 . S
H997 C979 0.929 . S
H998 C980 0.928 . S
H999 C982 0.932 . S
C1000 C1001 1.264 . S
C1000 C1005 1.479 . S
C1000 C1010 1.465 . S
C1001 C1000 1.264 . S
C1001 C1003 1.339 . S
C1001 H1028 0.931 . S
C1002 C1003 1.395 . S
C1002 C1004 1.320 . S
C1003 C1001 1.339 . S
C1003 C1002 1.395 . S
C1003 H1029 0.929 . S
C1004 C1002 1.320 . S
C1004 C1005 1.405 . S
C1004 H1030 0.930 . S
C1005 C1000 1.479 . S
C1005 C1004 1.405 . S
C1005 H1031 0.931 . S
U1006 O1007 2.454 . S
U1006 O1008 2.458 . S
U1006 C1009 2.984 . S
U1006 C1010 2.847 1_545 S
U1006 C1023 2.882 . S
U1006 O1024 2.441 1_545 S
U1006 O1025 2.420 1_545 S
U1006 O1026 2.455 . S
U1006 O1027 2.449 . S
O1007 U1006 2.454 . S
O1007 C1009 1.353 . S
O1008 U1006 2.458 . S
O1008 C1009 1.286 . S
C1009 U1006 2.984 . S
C1009 O1007 1.353 . S
C1009 O1008 1.286 . S
C1009 C1011 1.363 . S
C1010 C1000 1.465 . S
C1010 U1006 2.847 1_565 S
C1010 O1024 1.249 . S
C1010 O1025 1.202 . S
C1011 C1009 1.363 . S
C1011 C1013 1.408 . S
C1011 C1016 1.342 . S
C1012 C1013 1.310 . S
C1012 C1015 1.461 . S
C1012 H1032 0.932 . S
C1013 C1011 1.408 . S
C1013 C1012 1.310 . S
C1013 H1033 0.930 . S
C1014 C1015 1.474 . S
C1014 C1016 1.285 . S
C1014 H1034 0.929 . S
C1015 C1012 1.461 . S
C1015 C1014 1.474 . S
C1016 C1011 1.342 . S
C1016 C1014 1.285 . S
C1016 H1035 0.930 . S
C1017 C1020 1.424 . S
C1017 C1022 1.245 . S
C1017 C1023 1.428 . S
C1018 C1021 1.260 . S
C1018 C1022 1.477 . S
C1018 H1036 0.932 . S
C1019 C1020 1.384 . S
C1019 C1021 1.479 . S
C1019 H1037 0.929 . S
C1020 C1017 1.424 . S
C1020 C1019 1.384 . S
C1020 H1038 0.928 . S
C1021 C1018 1.260 . S
C1021 C1019 1.479 . S
C1022 C1017 1.245 . S
C1022 C1018 1.477 . S
C1022 H1039 0.932 . S
C1023 U1006 2.882 . S
C1023 C1017 1.428 . S
C1023 O1026 1.301 . S
C1023 O1027 1.282 . S
O1024 U1006 2.441 1_565 S
O1024 C1010 1.249 . S
O1025 U1006 2.420 1_565 S
O1025 C1010 1.202 . S
O1026 U1006 2.455 . S
O1026 C1023 1.301 . S
O1027 U1006 2.449 . S
O1027 C1023 1.282 . S
H1028 C1001 0.931 . S
H1029 C1003 0.929 . S
H1030 C1004 0.930 . S
H1031 C1005 0.931 . S
H1032 C1012 0.932 . S
H1033 C1013 0.930 . S
H1034 C1014 0.929 . S
H1035 C1016 0.930 . S
H1036 C1018 0.932 . S
H1037 C1019 0.929 . S
H1038 C1020 0.928 . S
H1039 C1022 0.932 . S
C1040 C1041 1.264 . S
C1040 C1045 1.479 . S
C1040 C1050 1.465 . S
C1041 C1040 1.264 . S
C1041 C1043 1.339 . S
C1041 H1068 0.931 . S
C1042 C1043 1.395 . S
C1042 C1044 1.320 . S
C1043 C1041 1.339 . S
C1043 C1042 1.395 . S
C1043 H1069 0.929 . S
C1044 C1042 1.320 . S
C1044 C1045 1.405 . S
C1044 H1070 0.930 . S
C1045 C1040 1.479 . S
C1045 C1044 1.405 . S
C1045 H1071 0.931 . S
U1046 O1047 2.454 . S
U1046 O1048 2.458 . S
U1046 C1049 2.984 . S
U1046 C1050 2.847 1_545 S
U1046 C1063 2.882 . S
U1046 O1064 2.441 1_545 S
U1046 O1065 2.420 1_545 S
U1046 O1066 2.455 . S
U1046 O1067 2.449 . S
O1047 U1046 2.454 . S
O1047 C1049 1.353 . S
O1048 U1046 2.458 . S
O1048 C1049 1.286 . S
C1049 U1046 2.984 . S
C1049 O1047 1.353 . S
C1049 O1048 1.286 . S
C1049 C1051 1.363 . S
C1050 C1040 1.465 . S
C1050 U1046 2.847 1_565 S
C1050 O1064 1.249 . S
C1050 O1065 1.202 . S
C1051 C1049 1.363 . S
C1051 C1053 1.408 . S
C1051 C1056 1.342 . S
C1052 C1053 1.310 . S
C1052 C1055 1.461 . S
C1052 H1072 0.932 . S
C1053 C1051 1.408 . S
C1053 C1052 1.310 . S
C1053 H1073 0.930 . S
C1054 C1055 1.474 . S
C1054 C1056 1.285 . S
C1054 H1074 0.929 . S
C1055 C1052 1.461 . S
C1055 C1054 1.474 . S
C1056 C1051 1.342 . S
C1056 C1054 1.285 . S
C1056 H1075 0.930 . S
C1057 C1060 1.424 . S
C1057 C1062 1.245 . S
C1057 C1063 1.428 . S
C1058 C1061 1.260 . S
C1058 C1062 1.477 . S
C1058 H1076 0.932 . S
C1059 C1060 1.384 . S
C1059 C1061 1.479 . S
C1059 H1077 0.929 . S
C1060 C1057 1.424 . S
C1060 C1059 1.384 . S
C1060 H1078 0.928 . S
C1061 C1058 1.260 . S
C1061 C1059 1.479 . S
C1062 C1057 1.245 . S
C1062 C1058 1.477 . S
C1062 H1079 0.932 . S
C1063 U1046 2.882 . S
C1063 C1057 1.428 . S
C1063 O1066 1.301 . S
C1063 O1067 1.282 . S
O1064 U1046 2.441 1_565 S
O1064 C1050 1.249 . S
O1065 U1046 2.420 1_565 S
O1065 C1050 1.202 . S
O1066 U1046 2.455 . S
O1066 C1063 1.301 . S
O1067 U1046 2.449 . S
O1067 C1063 1.282 . S
H1068 C1041 0.931 . S
H1069 C1043 0.929 . S
H1070 C1044 0.930 . S
H1071 C1045 0.931 . S
H1072 C1052 0.932 . S
H1073 C1053 0.930 . S
H1074 C1054 0.929 . S
H1075 C1056 0.930 . S
H1076 C1058 0.932 . S
H1077 C1059 0.929 . S
H1078 C1060 0.928 . S
H1079 C1062 0.932 . S
C1080 C1081 1.264 . S
C1080 C1085 1.479 . S
C1080 C1090 1.465 . S
C1081 C1080 1.264 . S
C1081 C1083 1.339 . S
C1081 H1108 0.931 . S
C1082 C1083 1.395 . S
C1082 C1084 1.320 . S
C1083 C1081 1.339 . S
C1083 C1082 1.395 . S
C1083 H1109 0.929 . S
C1084 C1082 1.320 . S
C1084 C1085 1.405 . S
C1084 H1110 0.930 . S
C1085 C1080 1.479 . S
C1085 C1084 1.405 . S
C1085 H1111 0.931 . S
U1086 O1087 2.454 1_556 S
U1086 O1088 2.402 1_556 S
U1086 C1089 2.984 1_556 S
U1086 C1090 2.847 . S
U1086 C1103 2.882 . S
U1086 O1104 2.441 . S
U1086 O1105 2.420 . S
U1086 O1106 2.455 . S
U1086 O1107 2.449 . S
O1087 U1086 2.454 1_554 S
O1087 C1089 1.353 . S
O1088 U1086 2.402 1_554 S
O1088 C1089 1.331 . S
C1089 U1086 2.984 1_554 S
C1089 O1087 1.353 . S
C1089 O1088 1.331 . S
C1089 C1091 1.363 . S
C1090 C1080 1.465 . S
C1090 U1086 2.847 . S
C1090 O1104 1.249 . S
C1090 O1105 1.202 . S
C1091 C1089 1.363 . S
C1091 C1093 1.408 . S
C1091 C1096 1.342 . S
C1092 C1093 1.310 . S
C1092 C1095 1.461 . S
C1092 H1112 0.932 . S
C1093 C1091 1.408 . S
C1093 C1092 1.310 . S
C1093 H1113 0.930 . S
C1094 C1095 1.474 . S
C1094 C1096 1.285 . S
C1094 H1114 0.929 . S
C1095 C1092 1.461 . S
C1095 C1094 1.474 . S
C1096 C1091 1.342 . S
C1096 C1094 1.285 . S
C1096 H1115 0.930 . S
C1097 C1100 1.424 . S
C1097 C1102 1.245 . S
C1097 C1103 1.428 . S
C1098 C1101 1.260 . S
C1098 C1102 1.477 . S
C1098 H1116 0.932 . S
C1099 C1100 1.384 . S
C1099 C1101 1.479 . S
C1099 H1117 0.929 . S
C1100 C1097 1.424 . S
C1100 C1099 1.384 . S
C1100 H1118 0.928 . S
C1101 C1098 1.260 . S
C1101 C1099 1.479 . S
C1102 C1097 1.245 . S
C1102 C1098 1.477 . S
C1102 H1119 0.932 . S
C1103 U1086 2.882 . S
C1103 C1097 1.428 . S
C1103 O1106 1.301 . S
C1103 O1107 1.282 . S
O1104 U1086 2.441 . S
O1104 C1090 1.249 . S
O1105 U1086 2.420 . S
O1105 C1090 1.202 . S
O1106 U1086 2.455 . S
O1106 C1103 1.301 . S
O1107 U1086 2.449 . S
O1107 C1103 1.282 . S
H1108 C1081 0.931 . S
H1109 C1083 0.929 . S
H1110 C1084 0.930 . S
H1111 C1085 0.931 . S
H1112 C1092 0.932 . S
H1113 C1093 0.930 . S
H1114 C1094 0.929 . S
H1115 C1096 0.930 . S
H1116 C1098 0.932 . S
H1117 C1099 0.929 . S
H1118 C1100 0.928 . S
H1119 C1102 0.932 . S
C1120 C1121 1.264 . S
C1120 C1125 1.479 . S
C1120 C1130 1.465 . S
C1121 C1120 1.264 . S
C1121 C1123 1.339 . S
C1121 H1148 0.931 . S
C1122 C1123 1.395 . S
C1122 C1124 1.320 . S
C1123 C1121 1.339 . S
C1123 C1122 1.395 . S
C1123 H1149 0.929 . S
C1124 C1122 1.320 . S
C1124 C1125 1.405 . S
C1124 H1150 0.930 . S
C1125 C1120 1.479 . S
C1125 C1124 1.405 . S
C1125 H1151 0.931 . S
U1126 O1127 2.454 . S
U1126 O1128 2.458 . S
U1126 C1129 2.984 . S
U1126 C1130 2.847 1_455 S
U1126 C1143 2.882 . S
U1126 O1144 2.441 1_455 S
U1126 O1145 2.420 1_455 S
U1126 O1146 2.455 . S
U1126 O1147 2.449 . S
O1127 U1126 2.454 . S
O1127 C1129 1.353 . S
O1128 U1126 2.458 . S
O1128 C1129 1.286 . S
C1129 U1126 2.984 . S
C1129 O1127 1.353 . S
C1129 O1128 1.286 . S
C1129 C1131 1.363 . S
C1130 C1120 1.465 . S
C1130 U1126 2.847 1_655 S
C1130 O1144 1.249 . S
C1130 O1145 1.202 . S
C1131 C1129 1.363 . S
C1131 C1133 1.408 . S
C1131 C1136 1.342 . S
C1132 C1133 1.310 . S
C1132 C1135 1.461 . S
C1132 H1152 0.932 . S
C1133 C1131 1.408 . S
C1133 C1132 1.310 . S
C1133 H1153 0.930 . S
C1134 C1135 1.474 . S
C1134 C1136 1.285 . S
C1134 H1154 0.929 . S
C1135 C1132 1.461 . S
C1135 C1134 1.474 . S
C1136 C1131 1.342 . S
C1136 C1134 1.285 . S
C1136 H1155 0.930 . S
C1137 C1140 1.424 . S
C1137 C1142 1.245 . S
C1137 C1143 1.428 . S
C1138 C1141 1.260 . S
C1138 C1142 1.477 . S
C1138 H1156 0.932 . S
C1139 C1140 1.384 . S
C1139 C1141 1.479 . S
C1139 H1157 0.929 . S
C1140 C1137 1.424 . S
C1140 C1139 1.384 . S
C1140 H1158 0.928 . S
C1141 C1138 1.260 . S
C1141 C1139 1.479 . S
C1142 C1137 1.245 . S
C1142 C1138 1.477 . S
C1142 H1159 0.932 . S
C1143 U1126 2.882 . S
C1143 C1137 1.428 . S
C1143 O1146 1.301 . S
C1143 O1147 1.282 . S
O1144 U1126 2.441 1_655 S
O1144 C1130 1.249 . S
O1145 U1126 2.420 1_655 S
O1145 C1130 1.202 . S
O1146 U1126 2.455 . S
O1146 C1143 1.301 . S
O1147 U1126 2.449 . S
O1147 C1143 1.282 . S
H1148 C1121 0.931 . S
H1149 C1123 0.929 . S
H1150 C1124 0.930 . S
H1151 C1125 0.931 . S
H1152 C1132 0.932 . S
H1153 C1133 0.930 . S
H1154 C1134 0.929 . S
H1155 C1136 0.930 . S
H1156 C1138 0.932 . S
H1157 C1139 0.929 . S
H1158 C1140 0.928 . S
H1159 C1142 0.932 . S
C1160 C1161 1.264 . S
C1160 C1165 1.479 . S
C1160 C1170 1.465 . S
C1161 C1160 1.264 . S
C1161 C1163 1.339 . S
C1161 H1188 0.931 . S
C1162 C1163 1.395 . S
C1162 C1164 1.320 . S
C1163 C1161 1.339 . S
C1163 C1162 1.395 . S
C1163 H1189 0.929 . S
C1164 C1162 1.320 . S
C1164 C1165 1.405 . S
C1164 H1190 0.930 . S
C1165 C1160 1.479 . S
C1165 C1164 1.405 . S
C1165 H1191 0.931 . S
U1166 O1167 2.454 . S
U1166 O1168 2.458 . S
U1166 C1169 2.984 . S
U1166 C1170 2.847 . S
U1166 C1183 2.882 . S
U1166 O1184 2.441 . S
U1166 O1185 2.420 . S
U1166 O1186 2.455 . S
U1166 O1187 2.449 . S
O1167 U1166 2.454 . S
O1167 C1169 1.353 . S
O1168 U1166 2.458 . S
O1168 C1169 1.286 . S
C1169 U1166 2.984 . S
C1169 O1167 1.353 . S
C1169 O1168 1.286 . S
C1169 C1171 1.363 . S
C1170 C1160 1.465 . S
C1170 U1166 2.847 . S
C1170 O1184 1.249 . S
C1170 O1185 1.202 . S
C1171 C1169 1.363 . S
C1171 C1173 1.408 . S
C1171 C1176 1.342 . S
C1172 C1173 1.310 . S
C1172 C1175 1.461 . S
C1172 H1192 0.932 . S
C1173 C1171 1.408 . S
C1173 C1172 1.310 . S
C1173 H1193 0.930 . S
C1174 C1175 1.474 . S
C1174 C1176 1.285 . S
C1174 H1194 0.929 . S
C1175 C1172 1.461 . S
C1175 C1174 1.474 . S
C1176 C1171 1.342 . S
C1176 C1174 1.285 . S
C1176 H1195 0.930 . S
C1177 C1180 1.424 . S
C1177 C1182 1.245 . S
C1177 C1183 1.428 . S
C1178 C1181 1.260 . S
C1178 C1182 1.477 . S
C1178 H1196 0.932 . S
C1179 C1180 1.384 . S
C1179 C1181 1.479 . S
C1179 H1197 0.929 . S
C1180 C1177 1.424 . S
C1180 C1179 1.384 . S
C1180 H1198 0.928 . S
C1181 C1178 1.260 . S
C1181 C1179 1.479 . S
C1182 C1177 1.245 . S
C1182 C1178 1.477 . S
C1182 H1199 0.932 . S
C1183 U1166 2.882 . S
C1183 C1177 1.428 . S
C1183 O1186 1.301 . S
C1183 O1187 1.282 . S
O1184 U1166 2.441 . S
O1184 C1170 1.249 . S
O1185 U1166 2.420 . S
O1185 C1170 1.202 . S
O1186 U1166 2.455 . S
O1186 C1183 1.301 . S
O1187 U1166 2.449 . S
O1187 C1183 1.282 . S
H1188 C1161 0.931 . S
H1189 C1163 0.929 . S
H1190 C1164 0.930 . S
H1191 C1165 0.931 . S
H1192 C1172 0.932 . S
H1193 C1173 0.930 . S
H1194 C1174 0.929 . S
H1195 C1176 0.930 . S
H1196 C1178 0.932 . S
H1197 C1179 0.929 . S
H1198 C1180 0.928 . S
H1199 C1182 0.932 . S
C1200 C1201 1.264 . S
C1200 C1205 1.479 . S
C1200 C1210 1.465 . S
C1201 C1200 1.264 . S
C1201 C1203 1.339 . S
C1201 H1228 0.931 . S
C1202 C1203 1.395 . S
C1202 C1204 1.320 . S
C1203 C1201 1.339 . S
C1203 C1202 1.395 . S
C1203 H1229 0.929 . S
C1204 C1202 1.320 . S
C1204 C1205 1.405 . S
C1204 H1230 0.930 . S
C1205 C1200 1.479 . S
C1205 C1204 1.405 . S
C1205 H1231 0.931 . S
U1206 O1207 2.454 . S
U1206 O1208 2.458 . S
U1206 C1209 2.984 . S
U1206 C1210 2.847 . S
U1206 C1223 2.882 . S
U1206 O1224 2.441 . S
U1206 O1225 2.420 . S
U1206 O1226 2.455 . S
U1206 O1227 2.449 . S
O1207 U1206 2.454 . S
O1207 C1209 1.353 . S
O1208 U1206 2.458 . S
O1208 C1209 1.286 . S
C1209 U1206 2.984 . S
C1209 O1207 1.353 . S
C1209 O1208 1.286 . S
C1209 C1211 1.363 . S
C1210 C1200 1.465 . S
C1210 U1206 2.847 . S
C1210 O1224 1.249 . S
C1210 O1225 1.202 . S
C1211 C1209 1.363 . S
C1211 C1213 1.408 . S
C1211 C1216 1.342 . S
C1212 C1213 1.310 . S
C1212 C1215 1.461 . S
C1212 H1232 0.932 . S
C1213 C1211 1.408 . S
C1213 C1212 1.310 . S
C1213 H1233 0.930 . S
C1214 C1215 1.474 . S
C1214 C1216 1.285 . S
C1214 H1234 0.929 . S
C1215 C1212 1.461 . S
C1215 C1214 1.474 . S
C1216 C1211 1.342 . S
C1216 C1214 1.285 . S
C1216 H1235 0.930 . S
C1217 C1220 1.424 . S
C1217 C1222 1.245 . S
C1217 C1223 1.428 . S
C1218 C1221 1.260 . S
C1218 C1222 1.477 . S
C1218 H1236 0.932 . S
C1219 C1220 1.384 . S
C1219 C1221 1.479 . S
C1219 H1237 0.929 . S
C1220 C1217 1.424 . S
C1220 C1219 1.384 . S
C1220 H1238 0.928 . S
C1221 C1218 1.260 . S
C1221 C1219 1.479 . S
C1222 C1217 1.245 . S
C1222 C1218 1.477 . S
C1222 H1239 0.932 . S
C1223 U1206 2.882 . S
C1223 C1217 1.428 . S
C1223 O1226 1.301 . S
C1223 O1227 1.282 . S
O1224 U1206 2.441 . S
O1224 C1210 1.249 . S
O1225 U1206 2.420 . S
O1225 C1210 1.202 . S
O1226 U1206 2.455 . S
O1226 C1223 1.301 . S
O1227 U1206 2.449 . S
O1227 C1223 1.282 . S
H1228 C1201 0.931 . S
H1229 C1203 0.929 . S
H1230 C1204 0.930 . S
H1231 C1205 0.931 . S
H1232 C1212 0.932 . S
H1233 C1213 0.930 . S
H1234 C1214 0.929 . S
H1235 C1216 0.930 . S
H1236 C1218 0.932 . S
H1237 C1219 0.929 . S
H1238 C1220 0.928 . S
H1239 C1222 0.932 . S
C1240 C1241 1.264 . S
C1240 C1245 1.479 . S
C1240 C1250 1.465 . S
C1241 C1240 1.264 . S
C1241 C1243 1.339 . S
C1241 H1268 0.931 . S
C1242 C1243 1.395 . S
C1242 C1244 1.320 . S
C1243 C1241 1.339 . S
C1243 C1242 1.395 . S
C1243 H1269 0.929 . S
C1244 C1242 1.320 . S
C1244 C1245 1.405 . S
C1244 H1270 0.930 . S
C1245 C1240 1.479 . S
C1245 C1244 1.405 . S
C1245 H1271 0.931 . S
U1246 O1247 2.454 . S
U1246 O1248 2.458 . S
U1246 C1249 2.984 . S
U1246 C1250 2.847 . S
U1246 C1263 2.882 . S
U1246 O1264 2.441 . S
U1246 O1265 2.420 . S
U1246 O1266 2.455 . S
U1246 O1267 2.449 . S
O1247 U1246 2.454 . S
O1247 C1249 1.353 . S
O1248 U1246 2.458 . S
O1248 C1249 1.286 . S
C1249 U1246 2.984 . S
C1249 O1247 1.353 . S
C1249 O1248 1.286 . S
C1249 C1251 1.427 . S
C1250 C1240 1.465 . S
C1250 U1246 2.847 . S
C1250 O1264 1.249 . S
C1250 O1265 1.202 . S
C1251 C1249 1.427 . S
C1251 C1253 1.350 1_655 S
C1251 C1256 1.341 . S
C1252 C1253 1.310 . S
C1252 C1255 1.461 . S
C1252 H1272 0.932 . S
C1253 C1251 1.350 1_455 S
C1253 C1252 1.310 . S
C1253 H1273 0.930 . S
C1254 C1255 1.474 . S
C1254 C1256 1.267 1_455 S
C1254 H1274 0.929 . S
C1255 C1252 1.461 . S
C1255 C1254 1.474 . S
C1256 C1251 1.341 . S
C1256 C1254 1.267 1_655 S
C1256 H1275 0.947 . S
C1257 C1260 1.424 . S
C1257 C1262 1.245 . S
C1257 C1263 1.428 . S
C1258 C1261 1.260 . S
C1258 C1262 1.477 . S
C1258 H1276 0.932 . S
C1259 C1260 1.384 . S
C1259 C1261 1.479 . S
C1259 H1277 0.929 . S
C1260 C1257 1.424 . S
C1260 C1259 1.384 . S
C1260 H1278 0.928 . S
C1261 C1258 1.260 . S
C1261 C1259 1.479 . S
C1262 C1257 1.245 . S
C1262 C1258 1.477 . S
C1262 H1279 0.932 . S
C1263 U1246 2.882 . S
C1263 C1257 1.428 . S
C1263 O1266 1.301 . S
C1263 O1267 1.282 . S
O1264 U1246 2.441 . S
O1264 C1250 1.249 . S
O1265 U1246 2.420 . S
O1265 C1250 1.202 . S
O1266 U1246 2.455 . S
O1266 C1263 1.301 . S
O1267 U1246 2.449 . S
O1267 C1263 1.282 . S
H1268 C1241 0.931 . S
H1269 C1243 0.929 . S
H1270 C1244 0.930 . S
H1271 C1245 0.931 . S
H1272 C1252 0.932 . S
H1273 C1253 0.930 . S
H1274 C1254 0.929 . S
H1275 C1256 0.947 . S
H1276 C1258 0.932 . S
H1277 C1259 0.929 . S
H1278 C1260 0.928 . S
H1279 C1262 0.932 . S
C1280 C1281 1.264 . S
C1280 C1285 1.479 . S
C1280 C1290 1.465 . S
C1281 C1280 1.264 . S
C1281 C1283 1.339 . S
C1281 H1308 0.931 . S
C1282 C1283 1.395 . S
C1282 C1284 1.320 . S
C1283 C1281 1.339 . S
C1283 C1282 1.395 . S
C1283 H1309 0.929 . S
C1284 C1282 1.320 . S
C1284 C1285 1.405 . S
C1284 H1310 0.930 . S
C1285 C1280 1.479 . S
C1285 C1284 1.405 . S
C1285 H1311 0.931 . S
U1286 O1287 2.454 . S
U1286 O1288 2.458 . S
U1286 C1289 2.984 . S
U1286 C1290 2.847 . S
U1286 C1303 2.882 . S
U1286 O1304 2.441 . S
U1286 O1305 2.420 . S
U1286 O1306 2.455 . S
U1286 O1307 2.449 . S
O1287 U1286 2.454 . S
O1287 C1289 1.353 . S
O1288 U1286 2.458 . S
O1288 C1289 1.286 . S
C1289 U1286 2.984 . S
C1289 O1287 1.353 . S
C1289 O1288 1.286 . S
C1289 C1291 1.363 . S
C1290 C1280 1.465 . S
C1290 U1286 2.847 . S
C1290 O1304 1.249 . S
C1290 O1305 1.202 . S
C1291 C1289 1.363 . S
C1291 C1293 1.408 . S
C1291 C1296 1.342 . S
C1292 C1293 1.310 . S
C1292 C1295 1.461 . S
C1292 H1312 0.932 . S
C1293 C1291 1.408 . S
C1293 C1292 1.310 . S
C1293 H1313 0.930 . S
C1294 C1295 1.474 . S
C1294 C1296 1.285 . S
C1294 H1314 0.929 . S
C1295 C1292 1.461 . S
C1295 C1294 1.474 . S
C1296 C1291 1.342 . S
C1296 C1294 1.285 . S
C1296 H1315 0.930 . S
C1297 C1300 1.424 . S
C1297 C1302 1.245 . S
C1297 C1303 1.428 . S
C1298 C1301 1.260 . S
C1298 C1302 1.477 . S
C1298 H1316 0.932 . S
C1299 C1300 1.384 . S
C1299 C1301 1.479 . S
C1299 H1317 0.929 . S
C1300 C1297 1.424 . S
C1300 C1299 1.384 . S
C1300 H1318 0.928 . S
C1301 C1298 1.260 . S
C1301 C1299 1.479 . S
C1302 C1297 1.245 . S
C1302 C1298 1.477 . S
C1302 H1319 0.932 . S
C1303 U1286 2.882 . S
C1303 C1297 1.428 . S
C1303 O1306 1.301 . S
C1303 O1307 1.282 . S
O1304 U1286 2.441 . S
O1304 C1290 1.249 . S
O1305 U1286 2.420 . S
O1305 C1290 1.202 . S
O1306 U1286 2.455 . S
O1306 C1303 1.301 . S
O1307 U1286 2.449 . S
O1307 C1303 1.282 . S
H1308 C1281 0.931 . S
H1309 C1283 0.929 . S
H1310 C1284 0.930 . S
H1311 C1285 0.931 . S
H1312 C1292 0.932 . S
H1313 C1293 0.930 . S
H1314 C1294 0.929 . S
H1315 C1296 0.930 . S
H1316 C1298 0.932 . S
H1317 C1299 0.929 . S
H1318 C1300 0.928 . S
H1319 C1302 0.932 . S
C1320 C1321 1.264 . S
C1320 C1325 1.479 . S
C1320 C1330 1.465 . S
C1321 C1320 1.264 . S
C1321 C1323 1.339 . S
C1321 H1348 0.931 . S
C1322 C1323 1.395 . S
C1322 C1324 1.320 . S
C1323 C1321 1.339 . S
C1323 C1322 1.395 . S
C1323 H1349 0.929 . S
C1324 C1322 1.320 . S
C1324 C1325 1.405 . S
C1324 H1350 0.930 . S
C1325 C1320 1.479 . S
C1325 C1324 1.405 . S
C1325 H1351 0.931 . S
U1326 O1327 2.454 . S
U1326 O1328 2.458 . S
U1326 C1329 2.984 . S
U1326 C1330 2.847 . S
U1326 C1343 2.882 . S
U1326 O1344 2.441 . S
U1326 O1345 2.420 . S
U1326 O1346 2.455 . S
U1326 O1347 2.449 . S
O1327 U1326 2.454 . S
O1327 C1329 1.353 . S
O1328 U1326 2.458 . S
O1328 C1329 1.286 . S
C1329 U1326 2.984 . S
C1329 O1327 1.353 . S
C1329 O1328 1.286 . S
C1329 C1331 1.363 . S
C1330 C1320 1.465 . S
C1330 U1326 2.847 . S
C1330 O1344 1.249 . S
C1330 O1345 1.202 . S
C1331 C1329 1.363 . S
C1331 C1333 1.408 1_556 S
C1331 C1336 1.342 . S
C1332 C1333 1.310 . S
C1332 C1335 1.461 . S
C1332 H1352 0.932 . S
C1333 C1331 1.408 1_554 S
C1333 C1332 1.310 . S
C1333 H1353 0.940 . S
C1334 C1335 1.474 . S
C1334 C1336 1.285 1_554 S
C1334 H1354 0.929 . S
C1335 C1332 1.461 . S
C1335 C1334 1.474 . S
C1336 C1331 1.342 . S
C1336 C1334 1.285 1_556 S
C1336 H1355 0.930 . S
C1337 C1340 1.424 . S
C1337 C1342 1.245 . S
C1337 C1343 1.428 . S
C1338 C1341 1.260 . S
C1338 C1342 1.477 . S
C1338 H1356 0.932 . S
C1339 C1340 1.384 . S
C1339 C1341 1.479 . S
C1339 H1357 0.929 . S
C1340 C1337 1.424 . S
C1340 C1339 1.384 . S
C1340 H1358 0.928 . S
C1341 C1338 1.260 . S
C1341 C1339 1.479 . S
C1342 C1337 1.245 . S
C1342 C1338 1.477 . S
C1342 H1359 0.932 . S
C1343 U1326 2.882 . S
C1343 C1337 1.428 . S
C1343 O1346 1.301 . S
C1343 O1347 1.282 . S
O1344 U1326 2.441 . S
O1344 C1330 1.249 . S
O1345 U1326 2.420 . S
O1345 C1330 1.202 . S
O1346 U1326 2.455 . S
O1346 C1343 1.301 . S
O1347 U1326 2.449 . S
O1347 C1343 1.282 . S
H1348 C1321 0.931 . S
H1349 C1323 0.929 . S
H1350 C1324 0.930 . S
H1351 C1325 0.931 . S
H1352 C1332 0.932 . S
H1353 C1333 0.940 . S
H1354 C1334 0.929 . S
H1355 C1336 0.930 . S
H1356 C1338 0.932 . S
H1357 C1339 0.929 . S
H1358 C1340 0.928 . S
H1359 C1342 0.932 . S
C1360 C1361 1.264 . S
C1360 C1365 1.479 . S
C1360 C1370 1.465 . S
C1361 C1360 1.264 . S
C1361 C1363 1.339 . S
C1361 H1388 0.931 . S
C1362 C1363 1.395 . S
C1362 C1364 1.320 . S
C1363 C1361 1.339 . S
C1363 C1362 1.395 . S
C1363 H1389 0.929 . S
C1364 C1362 1.320 . S
C1364 C1365 1.405 . S
C1364 H1390 0.930 . S
C1365 C1360 1.479 . S
C1365 C1364 1.405 . S
C1365 H1391 0.931 . S
U1366 O1367 2.454 . S
U1366 O1368 2.458 . S
U1366 C1369 2.984 . S
U1366 C1370 2.847 . S
U1366 C1383 2.882 . S
U1366 O1384 2.441 . S
U1366 O1385 2.420 . S
U1366 O1386 2.455 . S
U1366 O1387 2.449 . S
O1367 U1366 2.454 . S
O1367 C1369 1.353 . S
O1368 U1366 2.458 . S
O1368 C1369 1.286 . S
C1369 U1366 2.984 . S
C1369 O1367 1.353 . S
C1369 O1368 1.286 . S
C1369 C1371 1.363 . S
C1370 C1360 1.465 . S
C1370 U1366 2.847 . S
C1370 O1384 1.249 . S
C1370 O1385 1.202 . S
C1371 C1369 1.363 . S
C1371 C1373 1.408 . S
C1371 C1376 1.342 . S
C1372 C1373 1.310 . S
C1372 C1375 1.461 . S
C1372 H1392 0.932 . S
C1373 C1371 1.408 . S
C1373 C1372 1.310 . S
C1373 H1393 0.930 . S
C1374 C1375 1.474 . S
C1374 C1376 1.285 . S
C1374 H1394 0.929 . S
C1375 C1372 1.461 . S
C1375 C1374 1.474 . S
C1376 C1371 1.342 . S
C1376 C1374 1.285 . S
C1376 H1395 0.930 . S
C1377 C1380 1.424 . S
C1377 C1382 1.245 . S
C1377 C1383 1.428 . S
C1378 C1381 1.260 . S
C1378 C1382 1.477 . S
C1378 H1396 0.932 . S
C1379 C1380 1.384 . S
C1379 C1381 1.479 . S
C1379 H1397 0.929 . S
C1380 C1377 1.424 . S
C1380 C1379 1.384 . S
C1380 H1398 0.928 . S
C1381 C1378 1.260 . S
C1381 C1379 1.479 . S
C1382 C1377 1.245 . S
C1382 C1378 1.477 . S
C1382 H1399 0.932 . S
C1383 U1366 2.882 . S
C1383 C1377 1.428 . S
C1383 O1386 1.301 . S
C1383 O1387 1.282 . S
O1384 U1366 2.441 . S
O1384 C1370 1.249 . S
O1385 U1366 2.420 . S
O1385 C1370 1.202 . S
O1386 U1366 2.455 . S
O1386 C1383 1.301 . S
O1387 U1366 2.449 . S
O1387 C1383 1.282 . S
H1388 C1361 0.931 . S
H1389 C1363 0.929 . S
H1390 C1364 0.930 . S
H1391 C1365 0.931 . S
H1392 C1372 0.932 . S
H1393 C1373 0.930 . S
H1394 C1374 0.929 . S
H1395 C1376 0.930 . S
H1396 C1378 0.932 . S
H1397 C1379 0.929 . S
H1398 C1380 0.928 . S
H1399 C1382 0.932 . S
C1400 C1401 1.264 . S
C1400 C1405 1.479 . S
C1400 C1410 1.465 . S
C1401 C1400 1.264 . S
C1401 C1403 1.339 . S
C1401 H1428 0.931 . S
C1402 C1403 1.395 . S
C1402 C1404 1.320 . S
C1403 C1401 1.339 . S
C1403 C1402 1.395 . S
C1403 H1429 0.929 . S
C1404 C1402 1.320 . S
C1404 C1405 1.405 . S
C1404 H1430 0.930 . S
C1405 C1400 1.479 . S
C1405 C1404 1.405 . S
C1405 H1431 0.931 . S
U1406 O1407 2.454 . S
U1406 O1408 2.458 . S
U1406 C1409 2.984 . S
U1406 C1410 2.847 . S
U1406 C1423 2.882 . S
U1406 O1424 2.441 . S
U1406 O1425 2.420 . S
U1406 O1426 2.455 . S
U1406 O1427 2.449 . S
O1407 U1406 2.454 . S
O1407 C1409 1.353 . S
O1408 U1406 2.458 . S
O1408 C1409 1.286 . S
C1409 U1406 2.984 . S
C1409 O1407 1.353 . S
C1409 O1408 1.286 . S
C1409 C1411 1.363 . S
C1410 C1400 1.465 . S
C1410 U1406 2.847 . S
C1410 O1424 1.249 . S
C1410 O1425 1.202 . S
C1411 C1409 1.363 . S
C1411 C1413 1.408 . S
C1411 C1416 1.342 . S
C1412 C1413 1.310 . S
C1412 C1415 1.461 . S
C1412 H1432 0.932 . S
C1413 C1411 1.408 . S
C1413 C1412 1.310 . S
C1413 H1433 0.930 . S
C1414 C1415 1.474 . S
C1414 C1416 1.285 . S
C1414 H1434 0.929 . S
C1415 C1412 1.461 . S
C1415 C1414 1.474 . S
C1416 C1411 1.342 . S
C1416 C1414 1.285 . S
C1416 H1435 0.930 . S
C1417 C1420 1.424 . S
C1417 C1422 1.245 . S
C1417 C1423 1.428 . S
C1418 C1421 1.260 . S
C1418 C1422 1.477 . S
C1418 H1436 0.932 . S
C1419 C1420 1.384 . S
C1419 C1421 1.479 . S
C1419 H1437 0.929 . S
C1420 C1417 1.424 . S
C1420 C1419 1.384 . S
C1420 H1438 0.928 . S
C1421 C1418 1.260 . S
C1421 C1419 1.479 . S
C1422 C1417 1.245 . S
C1422 C1418 1.477 . S
C1422 H1439 0.932 . S
C1423 U1406 2.882 . S
C1423 C1417 1.428 . S
C1423 O1426 1.301 . S
C1423 O1427 1.282 . S
O1424 U1406 2.441 . S
O1424 C1410 1.249 . S
O1425 U1406 2.420 . S
O1425 C1410 1.202 . S
O1426 U1406 2.455 . S
O1426 C1423 1.301 . S
O1427 U1406 2.449 . S
O1427 C1423 1.282 . S
H1428 C1401 0.931 . S
H1429 C1403 0.929 . S
H1430 C1404 0.930 . S
H1431 C1405 0.931 . S
H1432 C1412 0.932 . S
H1433 C1413 0.930 . S
H1434 C1414 0.929 . S
H1435 C1416 0.930 . S
H1436 C1418 0.932 . S
H1437 C1419 0.929 . S
H1438 C1420 0.928 . S
H1439 C1422 0.932 . S
C1440 C1441 1.264 . S
C1440 C1445 1.479 . S
C1440 C1450 1.465 . S
C1441 C1440 1.264 . S
C1441 C1443 1.339 . S
C1441 H1468 0.931 . S
C1442 C1443 1.395 . S
C1442 C1444 1.320 . S
C1443 C1441 1.339 . S
C1443 C1442 1.395 . S
C1443 H1469 0.929 . S
C1444 C1442 1.320 . S
C1444 C1445 1.405 . S
C1444 H1470 0.930 . S
C1445 C1440 1.479 . S
C1445 C1444 1.405 . S
C1445 H1471 0.931 . S
U1446 O1447 2.454 . S
U1446 O1448 2.458 . S
U1446 C1449 2.984 . S
U1446 C1450 2.847 . S
U1446 C1463 2.882 . S
U1446 O1464 2.441 . S
U1446 O1465 2.420 . S
U1446 O1466 2.455 . S
U1446 O1467 2.449 . S
O1447 U1446 2.454 . S
O1447 C1449 1.353 . S
O1448 U1446 2.458 . S
O1448 C1449 1.286 . S
C1449 U1446 2.984 . S
C1449 O1447 1.353 . S
C1449 O1448 1.286 . S
C1449 C1451 1.363 . S
C1450 C1440 1.465 . S
C1450 U1446 2.847 . S
C1450 O1464 1.249 . S
C1450 O1465 1.202 . S
C1451 C1449 1.363 . S
C1451 C1453 1.408 . S
C1451 C1456 1.342 . S
C1452 C1453 1.310 . S
C1452 C1455 1.461 . S
C1452 H1472 0.932 . S
C1453 C1451 1.408 . S
C1453 C1452 1.310 . S
C1453 H1473 0.930 . S
C1454 C1455 1.474 . S
C1454 C1456 1.285 . S
C1454 H1474 0.929 . S
C1455 C1452 1.461 . S
C1455 C1454 1.474 . S
C1456 C1451 1.342 . S
C1456 C1454 1.285 . S
C1456 H1475 0.930 . S
C1457 C1460 1.424 . S
C1457 C1462 1.245 . S
C1457 C1463 1.428 . S
C1458 C1461 1.260 . S
C1458 C1462 1.477 . S
C1458 H1476 0.932 . S
C1459 C1460 1.384 . S
C1459 C1461 1.479 . S
C1459 H1477 0.929 . S
C1460 C1457 1.424 . S
C1460 C1459 1.384 . S
C1460 H1478 0.928 . S
C1461 C1458 1.260 . S
C1461 C1459 1.479 . S
C1462 C1457 1.245 . S
C1462 C1458 1.477 . S
C1462 H1479 0.932 . S
C1463 U1446 2.882 . S
C1463 C1457 1.428 . S
C1463 O1466 1.301 . S
C1463 O1467 1.282 . S
O1464 U1446 2.441 . S
O1464 C1450 1.249 . S
O1465 U1446 2.420 . S
O1465 C1450 1.202 . S
O1466 U1446 2.455 . S
O1466 C1463 1.301 . S
O1467 U1446 2.449 . S
O1467 C1463 1.282 . S
H1468 C1441 0.931 . S
H1469 C1443 0.929 . S
H1470 C1444 0.930 . S
H1471 C1445 0.931 . S
H1472 C1452 0.932 . S
H1473 C1453 0.930 . S
H1474 C1454 0.929 . S
H1475 C1456 0.930 . S
H1476 C1458 0.932 . S
H1477 C1459 0.929 . S
H1478 C1460 0.928 . S
H1479 C1462 0.932 . S
C1480 C1481 1.264 . S
C1480 C1485 1.479 . S
C1480 C1490 1.465 . S
C1481 C1480 1.264 . S
C1481 C1483 1.339 . S
C1481 H1508 0.931 . S
C1482 C1483 1.395 . S
C1482 C1484 1.320 . S
C1483 C1481 1.339 . S
C1483 C1482 1.395 . S
C1483 H1509 0.929 . S
C1484 C1482 1.320 . S
C1484 C1485 1.405 . S
C1484 H1510 0.930 . S
C1485 C1480 1.479 . S
C1485 C1484 1.405 . S
C1485 H1511 0.931 . S
U1486 O1487 2.454 . S
U1486 O1488 2.458 . S
U1486 C1489 2.984 . S
U1486 C1490 2.847 . S
U1486 C1503 2.882 . S
U1486 O1504 2.441 . S
U1486 O1505 2.420 . S
U1486 O1506 2.455 . S
U1486 O1507 2.449 . S
O1487 U1486 2.454 . S
O1487 C1489 1.353 . S
O1488 U1486 2.458 . S
O1488 C1489 1.286 . S
C1489 U1486 2.984 . S
C1489 O1487 1.353 . S
C1489 O1488 1.286 . S
C1489 C1491 1.363 . S
C1490 C1480 1.465 . S
C1490 U1486 2.847 . S
C1490 O1504 1.249 . S
C1490 O1505 1.202 . S
C1491 C1489 1.363 . S
C1491 C1493 1.408 . S
C1491 C1496 1.342 . S
C1492 C1493 1.310 . S
C1492 C1495 1.461 . S
C1492 H1512 0.932 . S
C1493 C1491 1.408 . S
C1493 C1492 1.310 . S
C1493 H1513 0.930 . S
C1494 C1495 1.474 . S
C1494 C1496 1.285 . S
C1494 H1514 0.929 . S
C1495 C1492 1.461 . S
C1495 C1494 1.474 . S
C1496 C1491 1.342 . S
C1496 C1494 1.285 . S
C1496 H1515 0.930 . S
C1497 C1500 1.424 . S
C1497 C1502 1.245 . S
C1497 C1503 1.428 . S
C1498 C1501 1.260 . S
C1498 C1502 1.477 . S
C1498 H1516 0.932 . S
C1499 C1500 1.384 . S
C1499 C1501 1.479 . S
C1499 H1517 0.929 . S
C1500 C1497 1.424 . S
C1500 C1499 1.384 . S
C1500 H1518 0.928 . S
C1501 C1498 1.260 . S
C1501 C1499 1.479 . S
C1502 C1497 1.245 . S
C1502 C1498 1.477 . S
C1502 H1519 0.932 . S
C1503 U1486 2.882 . S
C1503 C1497 1.428 . S
C1503 O1506 1.301 . S
C1503 O1507 1.282 . S
O1504 U1486 2.441 . S
O1504 C1490 1.249 . S
O1505 U1486 2.420 . S
O1505 C1490 1.202 . S
O1506 U1486 2.455 . S
O1506 C1503 1.301 . S
O1507 U1486 2.449 . S
O1507 C1503 1.282 . S
H1508 C1481 0.931 . S
H1509 C1483 0.929 . S
H1510 C1484 0.930 . S
H1511 C1485 0.931 . S
H1512 C1492 0.932 . S
H1513 C1493 0.930 . S
H1514 C1494 0.929 . S
H1515 C1496 0.930 . S
H1516 C1498 0.932 . S
H1517 C1499 0.929 . S
H1518 C1500 0.928 . S
H1519 C1502 0.932 . S
C1520 C1521 1.264 . S
C1520 C1525 1.479 . S
C1520 C1530 1.465 . S
C1521 C1520 1.264 . S
C1521 C1523 1.339 . S
C1521 H1548 0.931 . S
C1522 C1523 1.395 . S
C1522 C1524 1.320 . S
C1523 C1521 1.339 . S
C1523 C1522 1.395 . S
C1523 H1549 0.929 . S
C1524 C1522 1.320 . S
C1524 C1525 1.405 . S
C1524 H1550 0.930 . S
C1525 C1520 1.479 . S
C1525 C1524 1.405 . S
C1525 H1551 0.931 . S
U1526 O1527 2.454 . S
U1526 O1528 2.458 . S
U1526 C1529 2.984 . S
U1526 C1530 2.847 . S
U1526 C1543 2.882 . S
U1526 O1544 2.441 . S
U1526 O1545 2.420 . S
U1526 O1546 2.455 . S
U1526 O1547 2.449 . S
O1527 U1526 2.454 . S
O1527 C1529 1.353 . S
O1528 U1526 2.458 . S
O1528 C1529 1.286 . S
C1529 U1526 2.984 . S
C1529 O1527 1.353 . S
C1529 O1528 1.286 . S
C1529 C1531 1.363 . S
C1530 C1520 1.465 . S
C1530 U1526 2.847 . S
C1530 O1544 1.249 . S
C1530 O1545 1.202 . S
C1531 C1529 1.363 . S
C1531 C1533 1.408 . S
C1531 C1536 1.342 . S
C1532 C1533 1.310 . S
C1532 C1535 1.461 . S
C1532 H1552 0.932 . S
C1533 C1531 1.408 . S
C1533 C1532 1.310 . S
C1533 H1553 0.930 . S
C1534 C1535 1.474 . S
C1534 C1536 1.285 . S
C1534 H1554 0.929 . S
C1535 C1532 1.461 . S
C1535 C1534 1.474 . S
C1536 C1531 1.342 . S
C1536 C1534 1.285 . S
C1536 H1555 0.930 . S
C1537 C1540 1.424 . S
C1537 C1542 1.245 . S
C1537 C1543 1.428 . S
C1538 C1541 1.260 . S
C1538 C1542 1.477 . S
C1538 H1556 0.932 . S
C1539 C1540 1.384 . S
C1539 C1541 1.479 . S
C1539 H1557 0.929 . S
C1540 C1537 1.424 . S
C1540 C1539 1.384 . S
C1540 H1558 0.928 . S
C1541 C1538 1.260 . S
C1541 C1539 1.479 . S
C1542 C1537 1.245 . S
C1542 C1538 1.477 . S
C1542 H1559 0.932 . S
C1543 U1526 2.882 . S
C1543 C1537 1.428 . S
C1543 O1546 1.301 . S
C1543 O1547 1.282 . S
O1544 U1526 2.441 . S
O1544 C1530 1.249 . S
O1545 U1526 2.420 . S
O1545 C1530 1.202 . S
O1546 U1526 2.455 . S
O1546 C1543 1.301 . S
O1547 U1526 2.449 . S
O1547 C1543 1.282 . S
H1548 C1521 0.931 . S
H1549 C1523 0.929 . S
H1550 C1524 0.930 . S
H1551 C1525 0.931 . S
H1552 C1532 0.932 . S
H1553 C1533 0.930 . S
H1554 C1534 0.929 . S
H1555 C1536 0.930 . S
H1556 C1538 0.932 . S
H1557 C1539 0.929 . S
H1558 C1540 0.928 . S
H1559 C1542 0.932 . S
C1560 C1561 1.264 . S
C1560 C1565 1.479 . S
C1560 C1570 1.465 . S
C1561 C1560 1.264 . S
C1561 C1563 1.339 . S
C1561 H1588 0.931 . S
C1562 C1563 1.395 . S
C1562 C1564 1.320 . S
C1563 C1561 1.339 . S
C1563 C1562 1.395 . S
C1563 H1589 0.929 . S
C1564 C1562 1.320 . S
C1564 C1565 1.405 . S
C1564 H1590 0.930 . S
C1565 C1560 1.479 . S
C1565 C1564 1.405 . S
C1565 H1591 0.931 . S
U1566 O1567 2.454 . S
U1566 O1568 2.458 . S
U1566 C1569 2.984 . S
U1566 C1570 2.847 . S
U1566 C1583 2.882 . S
U1566 O1584 2.441 . S
U1566 O1585 2.420 . S
U1566 O1586 2.455 . S
U1566 O1587 2.449 . S
O1567 U1566 2.454 . S
O1567 C1569 1.353 . S
O1568 U1566 2.458 . S
O1568 C1569 1.286 . S
C1569 U1566 2.984 . S
C1569 O1567 1.353 . S
C1569 O1568 1.286 . S
C1569 C1571 1.363 . S
C1570 C1560 1.465 . S
C1570 U1566 2.847 . S
C1570 O1584 1.249 . S
C1570 O1585 1.202 . S
C1571 C1569 1.363 . S
C1571 C1573 1.408 . S
C1571 C1576 1.342 . S
C1572 C1573 1.310 . S
C1572 C1575 1.461 . S
C1572 H1592 0.932 . S
C1573 C1571 1.408 . S
C1573 C1572 1.310 . S
C1573 H1593 0.930 . S
C1574 C1575 1.474 . S
C1574 C1576 1.285 . S
C1574 H1594 0.929 . S
C1575 C1572 1.461 . S
C1575 C1574 1.474 . S
C1576 C1571 1.342 . S
C1576 C1574 1.285 . S
C1576 H1595 0.930 . S
C1577 C1580 1.424 . S
C1577 C1582 1.245 . S
C1577 C1583 1.428 . S
C1578 C1581 1.260 . S
C1578 C1582 1.477 . S
C1578 H1596 0.932 . S
C1579 C1580 1.384 . S
C1579 C1581 1.479 . S
C1579 H1597 0.929 . S
C1580 C1577 1.424 . S
C1580 C1579 1.384 . S
C1580 H1598 0.928 . S
C1581 C1578 1.260 . S
C1581 C1579 1.479 . S
C1582 C1577 1.245 . S
C1582 C1578 1.477 . S
C1582 H1599 0.932 . S
C1583 U1566 2.882 . S
C1583 C1577 1.428 . S
C1583 O1586 1.301 . S
C1583 O1587 1.282 . S
O1584 U1566 2.441 . S
O1584 C1570 1.249 . S
O1585 U1566 2.420 . S
O1585 C1570 1.202 . S
O1586 U1566 2.455 . S
O1586 C1583 1.301 . S
O1587 U1566 2.449 . S
O1587 C1583 1.282 . S
H1588 C1561 0.931 . S
H1589 C1563 0.929 . S
H1590 C1564 0.930 . S
H1591 C1565 0.931 . S
H1592 C1572 0.932 . S
H1593 C1573 0.930 . S
H1594 C1574 0.929 . S
H1595 C1576 0.930 . S
H1596 C1578 0.932 . S
H1597 C1579 0.929 . S
H1598 C1580 0.928 . S
H1599 C1582 0.932 . S
C1600 C1601 1.264 . S
C1600 C1605 1.479 . S
C1600 C1610 1.465 . S
C1601 C1600 1.264 . S
C1601 C1603 1.339 . S
C1601 H1628 0.931 . S
C1602 C1603 1.395 . S
C1602 C1604 1.320 . S
C1603 C1601 1.339 . S
C1603 C1602 1.395 . S
C1603 H1629 0.929 . S
C1604 C1602 1.320 . S
C1604 C1605 1.405 . S
C1604 H1630 0.930 . S
C1605 C1600 1.479 . S
C1605 C1604 1.405 . S
C1605 H1631 0.931 . S
U1606 O1607 2.454 . S
U1606 O1608 2.458 . S
U1606 C1609 2.984 . S
U1606 C1610 2.847 1_455 S
U1606 C1623 2.882 . S
U1606 O1624 2.441 1_455 S
U1606 O1625 2.420 1_455 S
U1606 O1626 2.455 . S
U1606 O1627 2.449 . S
O1607 U1606 2.454 . S
O1607 C1609 1.353 . S
O1608 U1606 2.458 . S
O1608 C1609 1.286 . S
C1609 U1606 2.984 . S
C1609 O1607 1.353 . S
C1609 O1608 1.286 . S
C1609 C1611 1.363 . S
C1610 C1600 1.465 . S
C1610 U1606 2.847 1_655 S
C1610 O1624 1.249 . S
C1610 O1625 1.202 . S
C1611 C1609 1.363 . S
C1611 C1613 1.408 . S
C1611 C1616 1.342 . S
C1612 C1613 1.310 . S
C1612 C1615 1.461 . S
C1612 H1632 0.932 . S
C1613 C1611 1.408 . S
C1613 C1612 1.310 . S
C1613 H1633 0.930 . S
C1614 C1615 1.474 . S
C1614 C1616 1.285 . S
C1614 H1634 0.929 . S
C1615 C1612 1.461 . S
C1615 C1614 1.474 . S
C1616 C1611 1.342 . S
C1616 C1614 1.285 . S
C1616 H1635 0.930 . S
C1617 C1620 1.424 . S
C1617 C1622 1.245 . S
C1617 C1623 1.428 . S
C1618 C1621 1.260 . S
C1618 C1622 1.477 . S
C1618 H1636 0.932 . S
C1619 C1620 1.384 . S
C1619 C1621 1.479 . S
C1619 H1637 0.929 . S
C1620 C1617 1.424 . S
C1620 C1619 1.384 . S
C1620 H1638 0.928 . S
C1621 C1618 1.260 . S
C1621 C1619 1.479 . S
C1622 C1617 1.245 . S
C1622 C1618 1.477 . S
C1622 H1639 0.932 . S
C1623 U1606 2.882 . S
C1623 C1617 1.428 . S
C1623 O1626 1.301 . S
C1623 O1627 1.282 . S
O1624 U1606 2.441 1_655 S
O1624 C1610 1.249 . S
O1625 U1606 2.420 1_655 S
O1625 C1610 1.202 . S
O1626 U1606 2.455 . S
O1626 C1623 1.301 . S
O1627 U1606 2.449 . S
O1627 C1623 1.282 . S
H1628 C1601 0.931 . S
H1629 C1603 0.929 . S
H1630 C1604 0.930 . S
H1631 C1605 0.931 . S
H1632 C1612 0.932 . S
H1633 C1613 0.930 . S
H1634 C1614 0.929 . S
H1635 C1616 0.930 . S
H1636 C1618 0.932 . S
H1637 C1619 0.929 . S
H1638 C1620 0.928 . S
H1639 C1622 0.932 . S
C1640 C1641 1.264 . S
C1640 C1645 1.479 . S
C1640 C1650 1.465 . S
C1641 C1640 1.264 . S
C1641 C1643 1.339 . S
C1641 H1668 0.931 . S
C1642 C1643 1.395 . S
C1642 C1644 1.320 . S
C1643 C1641 1.339 . S
C1643 C1642 1.395 . S
C1643 H1669 0.929 . S
C1644 C1642 1.320 . S
C1644 C1645 1.405 . S
C1644 H1670 0.930 . S
C1645 C1640 1.479 . S
C1645 C1644 1.405 . S
C1645 H1671 0.931 . S
U1646 O1647 2.454 . S
U1646 O1648 2.458 . S
U1646 C1649 2.984 . S
U1646 C1650 2.847 . S
U1646 C1663 2.882 . S
U1646 O1664 2.441 . S
U1646 O1665 2.420 . S
U1646 O1666 2.455 . S
U1646 O1667 2.449 . S
O1647 U1646 2.454 . S
O1647 C1649 1.353 . S
O1648 U1646 2.458 . S
O1648 C1649 1.286 . S
C1649 U1646 2.984 . S
C1649 O1647 1.353 . S
C1649 O1648 1.286 . S
C1649 C1651 1.363 . S
C1650 C1640 1.465 . S
C1650 U1646 2.847 . S
C1650 O1664 1.249 . S
C1650 O1665 1.202 . S
C1651 C1649 1.363 . S
C1651 C1653 1.408 . S
C1651 C1656 1.342 . S
C1652 C1653 1.310 . S
C1652 C1655 1.461 . S
C1652 H1672 0.932 . S
C1653 C1651 1.408 . S
C1653 C1652 1.310 . S
C1653 H1673 0.930 . S
C1654 C1655 1.474 . S
C1654 C1656 1.285 . S
C1654 H1674 0.929 . S
C1655 C1652 1.461 . S
C1655 C1654 1.474 . S
C1656 C1651 1.342 . S
C1656 C1654 1.285 . S
C1656 H1675 0.930 . S
C1657 C1660 1.424 . S
C1657 C1662 1.245 . S
C1657 C1663 1.428 . S
C1658 C1661 1.260 . S
C1658 C1662 1.477 . S
C1658 H1676 0.932 . S
C1659 C1660 1.384 . S
C1659 C1661 1.479 . S
C1659 H1677 0.929 . S
C1660 C1657 1.424 . S
C1660 C1659 1.384 . S
C1660 H1678 0.928 . S
C1661 C1658 1.260 . S
C1661 C1659 1.479 . S
C1662 C1657 1.245 . S
C1662 C1658 1.477 . S
C1662 H1679 0.932 . S
C1663 U1646 2.882 . S
C1663 C1657 1.428 . S
C1663 O1666 1.301 . S
C1663 O1667 1.282 . S
O1664 U1646 2.441 . S
O1664 C1650 1.249 . S
O1665 U1646 2.420 . S
O1665 C1650 1.202 . S
O1666 U1646 2.455 . S
O1666 C1663 1.301 . S
O1667 U1646 2.449 . S
O1667 C1663 1.282 . S
H1668 C1641 0.931 . S
H1669 C1643 0.929 . S
H1670 C1644 0.930 . S
H1671 C1645 0.931 . S
H1672 C1652 0.932 . S
H1673 C1653 0.930 . S
H1674 C1654 0.929 . S
H1675 C1656 0.930 . S
H1676 C1658 0.932 . S
H1677 C1659 0.929 . S
H1678 C1660 0.928 . S
H1679 C1662 0.932 . S
C1680 C1681 1.264 . S
C1680 C1685 1.479 . S
C1680 C1690 1.465 . S
C1681 C1680 1.264 . S
C1681 C1683 1.339 . S
C1681 H1708 0.931 . S
C1682 C1683 1.395 . S
C1682 C1684 1.320 . S
C1683 C1681 1.339 . S
C1683 C1682 1.395 . S
C1683 H1709 0.929 . S
C1684 C1682 1.320 . S
C1684 C1685 1.405 . S
C1684 H1710 0.930 . S
C1685 C1680 1.479 . S
C1685 C1684 1.405 . S
C1685 H1711 0.931 . S
U1686 O1687 2.454 1_554 S
U1686 O1688 2.437 1_554 S
U1686 C1689 2.984 1_554 S
U1686 C1690 2.847 . S
U1686 C1703 2.882 . S
U1686 O1704 2.441 . S
U1686 O1705 2.420 . S
U1686 O1706 2.455 . S
U1686 O1707 2.449 . S
O1687 U1686 2.454 1_556 S
O1687 C1689 1.353 . S
O1688 U1686 2.437 1_556 S
O1688 C1689 1.302 . S
C1689 U1686 2.984 1_556 S
C1689 O1687 1.353 . S
C1689 O1688 1.302 . S
C1689 C1691 1.363 . S
C1690 C1680 1.465 . S
C1690 U1686 2.847 . S
C1690 O1704 1.249 . S
C1690 O1705 1.202 . S
C1691 C1689 1.363 . S
C1691 C1693 1.408 . S
C1691 C1696 1.342 . S
C1692 C1693 1.310 . S
C1692 C1695 1.461 . S
C1692 H1712 0.932 . S
C1693 C1691 1.408 . S
C1693 C1692 1.310 . S
C1693 H1713 0.930 . S
C1694 C1695 1.474 . S
C1694 C1696 1.285 . S
C1694 H1714 0.929 . S
C1695 C1692 1.461 . S
C1695 C1694 1.474 . S
C1696 C1691 1.342 . S
C1696 C1694 1.285 . S
C1696 H1715 0.930 . S
C1697 C1700 1.424 . S
C1697 C1702 1.245 . S
C1697 C1703 1.428 . S
C1698 C1701 1.260 . S
C1698 C1702 1.477 . S
C1698 H1716 0.932 . S
C1699 C1700 1.384 . S
C1699 C1701 1.479 . S
C1699 H1717 0.929 . S
C1700 C1697 1.424 . S
C1700 C1699 1.384 . S
C1700 H1718 0.928 . S
C1701 C1698 1.260 . S
C1701 C1699 1.479 . S
C1702 C1697 1.245 . S
C1702 C1698 1.477 . S
C1702 H1719 0.932 . S
C1703 U1686 2.882 . S
C1703 C1697 1.428 . S
C1703 O1706 1.301 . S
C1703 O1707 1.282 . S
O1704 U1686 2.441 . S
O1704 C1690 1.249 . S
O1705 U1686 2.420 . S
O1705 C1690 1.202 . S
O1706 U1686 2.455 . S
O1706 C1703 1.301 . S
O1707 U1686 2.449 . S
O1707 C1703 1.282 . S
H1708 C1681 0.931 . S
H1709 C1683 0.929 . S
H1710 C1684 0.930 . S
H1711 C1685 0.931 . S
H1712 C1692 0.932 . S
H1713 C1693 0.930 . S
H1714 C1694 0.929 . S
H1715 C1696 0.930 . S
H1716 C1698 0.932 . S
H1717 C1699 0.929 . S
H1718 C1700 0.928 . S
H1719 C1702 0.932 . S
C1720 C1721 1.264 . S
C1720 C1725 1.479 . S
C1720 C1730 1.465 . S
C1721 C1720 1.264 . S
C1721 C1723 1.339 . S
C1721 H1748 0.931 . S
C1722 C1723 1.395 . S
C1722 C1724 1.320 . S
C1723 C1721 1.339 . S
C1723 C1722 1.395 . S
C1723 H1749 0.929 . S
C1724 C1722 1.320 . S
C1724 C1725 1.405 . S
C1724 H1750 0.930 . S
C1725 C1720 1.479 . S
C1725 C1724 1.405 . S
C1725 H1751 0.931 . S
U1726 O1727 2.454 . S
U1726 O1728 2.458 . S
U1726 C1729 2.984 . S
U1726 C1730 2.847 . S
U1726 C1743 2.882 . S
U1726 O1744 2.441 . S
U1726 O1745 2.420 . S
U1726 O1746 2.455 . S
U1726 O1747 2.449 . S
O1727 U1726 2.454 . S
O1727 C1729 1.353 . S
O1728 U1726 2.458 . S
O1728 C1729 1.286 . S
C1729 U1726 2.984 . S
C1729 O1727 1.353 . S
C1729 O1728 1.286 . S
C1729 C1731 1.363 . S
C1730 C1720 1.465 . S
C1730 U1726 2.847 . S
C1730 O1744 1.249 . S
C1730 O1745 1.202 . S
C1731 C1729 1.363 . S
C1731 C1733 1.408 . S
C1731 C1736 1.342 . S
C1732 C1733 1.310 . S
C1732 C1735 1.461 . S
C1732 H1752 0.932 . S
C1733 C1731 1.408 . S
C1733 C1732 1.310 . S
C1733 H1753 0.930 . S
C1734 C1735 1.474 . S
C1734 C1736 1.285 . S
C1734 H1754 0.929 . S
C1735 C1732 1.461 . S
C1735 C1734 1.474 . S
C1736 C1731 1.342 . S
C1736 C1734 1.285 . S
C1736 H1755 0.930 . S
C1737 C1740 1.424 . S
C1737 C1742 1.245 . S
C1737 C1743 1.428 . S
C1738 C1741 1.260 . S
C1738 C1742 1.477 . S
C1738 H1756 0.932 . S
C1739 C1740 1.384 . S
C1739 C1741 1.479 . S
C1739 H1757 0.929 . S
C1740 C1737 1.424 . S
C1740 C1739 1.384 . S
C1740 H1758 0.928 . S
C1741 C1738 1.260 . S
C1741 C1739 1.479 . S
C1742 C1737 1.245 . S
C1742 C1738 1.477 . S
C1742 H1759 0.932 . S
C1743 U1726 2.882 . S
C1743 C1737 1.428 . S
C1743 O1746 1.301 . S
C1743 O1747 1.282 . S
O1744 U1726 2.441 . S
O1744 C1730 1.249 . S
O1745 U1726 2.420 . S
O1745 C1730 1.202 . S
O1746 U1726 2.455 . S
O1746 C1743 1.301 . S
O1747 U1726 2.449 . S
O1747 C1743 1.282 . S
H1748 C1721 0.931 . S
H1749 C1723 0.929 . S
H1750 C1724 0.930 . S
H1751 C1725 0.931 . S
H1752 C1732 0.932 . S
H1753 C1733 0.930 . S
H1754 C1734 0.929 . S
H1755 C1736 0.930 . S
H1756 C1738 0.932 . S
H1757 C1739 0.929 . S
H1758 C1740 0.928 . S
H1759 C1742 0.932 . S
C1760 C1761 1.264 . S
C1760 C1765 1.479 . S
C1760 C1770 1.465 . S
C1761 C1760 1.264 . S
C1761 C1763 1.339 . S
C1761 H1788 0.931 . S
C1762 C1763 1.395 . S
C1762 C1764 1.320 . S
C1763 C1761 1.339 . S
C1763 C1762 1.395 . S
C1763 H1789 0.929 . S
C1764 C1762 1.320 . S
C1764 C1765 1.405 . S
C1764 H1790 0.930 . S
C1765 C1760 1.479 . S
C1765 C1764 1.405 . S
C1765 H1791 0.931 . S
U1766 O1767 2.454 . S
U1766 O1768 2.458 . S
U1766 C1769 2.984 . S
U1766 C1770 2.847 . S
U1766 C1783 2.882 . S
U1766 O1784 2.441 . S
U1766 O1785 2.420 . S
U1766 O1786 2.455 . S
U1766 O1787 2.449 . S
O1767 U1766 2.454 . S
O1767 C1769 1.353 . S
O1768 U1766 2.458 . S
O1768 C1769 1.286 . S
C1769 U1766 2.984 . S
C1769 O1767 1.353 . S
C1769 O1768 1.286 . S
C1769 C1771 1.363 . S
C1770 C1760 1.465 . S
C1770 U1766 2.847 . S
C1770 O1784 1.249 . S
C1770 O1785 1.202 . S
C1771 C1769 1.363 . S
C1771 C1773 1.408 . S
C1771 C1776 1.342 . S
C1772 C1773 1.310 . S
C1772 C1775 1.461 . S
C1772 H1792 0.932 . S
C1773 C1771 1.408 . S
C1773 C1772 1.310 . S
C1773 H1793 0.930 . S
C1774 C1775 1.474 . S
C1774 C1776 1.285 . S
C1774 H1794 0.929 . S
C1775 C1772 1.461 . S
C1775 C1774 1.474 . S
C1776 C1771 1.342 . S
C1776 C1774 1.285 . S
C1776 H1795 0.930 . S
C1777 C1780 1.424 . S
C1777 C1782 1.245 . S
C1777 C1783 1.428 . S
C1778 C1781 1.260 . S
C1778 C1782 1.477 . S
C1778 H1796 0.932 . S
C1779 C1780 1.384 . S
C1779 C1781 1.479 . S
C1779 H1797 0.929 . S
C1780 C1777 1.424 . S
C1780 C1779 1.384 . S
C1780 H1798 0.928 . S
C1781 C1778 1.260 . S
C1781 C1779 1.479 . S
C1782 C1777 1.245 . S
C1782 C1778 1.477 . S
C1782 H1799 0.932 . S
C1783 U1766 2.882 . S
C1783 C1777 1.428 . S
C1783 O1786 1.301 . S
C1783 O1787 1.282 . S
O1784 U1766 2.441 . S
O1784 C1770 1.249 . S
O1785 U1766 2.420 . S
O1785 C1770 1.202 . S
O1786 U1766 2.455 . S
O1786 C1783 1.301 . S
O1787 U1766 2.449 . S
O1787 C1783 1.282 . S
H1788 C1761 0.931 . S
H1789 C1763 0.929 . S
H1790 C1764 0.930 . S
H1791 C1765 0.931 . S
H1792 C1772 0.932 . S
H1793 C1773 0.930 . S
H1794 C1774 0.929 . S
H1795 C1776 0.930 . S
H1796 C1778 0.932 . S
H1797 C1779 0.929 . S
H1798 C1780 0.928 . S
H1799 C1782 0.932 . S
C1800 C1801 1.264 . S
C1800 C1805 1.479 . S
C1800 C1810 1.465 . S
C1801 C1800 1.264 . S
C1801 C1803 1.339 . S
C1801 H1828 0.931 . S
C1802 C1803 1.395 . S
C1802 C1804 1.320 . S
C1803 C1801 1.339 . S
C1803 C1802 1.395 . S
C1803 H1829 0.929 . S
C1804 C1802 1.320 . S
C1804 C1805 1.405 . S
C1804 H1830 0.930 . S
C1805 C1800 1.479 . S
C1805 C1804 1.405 . S
C1805 H1831 0.931 . S
U1806 O1807 2.454 . S
U1806 O1808 2.458 . S
U1806 C1809 2.984 . S
U1806 C1810 2.847 . S
U1806 C1823 2.882 . S
U1806 O1824 2.441 . S
U1806 O1825 2.420 . S
U1806 O1826 2.455 . S
U1806 O1827 2.449 . S
O1807 U1806 2.454 . S
O1807 C1809 1.353 . S
O1808 U1806 2.458 . S
O1808 C1809 1.286 . S
C1809 U1806 2.984 . S
C1809 O1807 1.353 . S
C1809 O1808 1.286 . S
C1809 C1811 1.363 . S
C1810 C1800 1.465 . S
C1810 U1806 2.847 . S
C1810 O1824 1.249 . S
C1810 O1825 1.202 . S
C1811 C1809 1.363 . S
C1811 C1813 1.408 . S
C1811 C1816 1.342 . S
C1812 C1813 1.310 . S
C1812 C1815 1.461 . S
C1812 H1832 0.932 . S
C1813 C1811 1.408 . S
C1813 C1812 1.310 . S
C1813 H1833 0.930 . S
C1814 C1815 1.474 . S
C1814 C1816 1.285 . S
C1814 H1834 0.929 . S
C1815 C1812 1.461 . S
C1815 C1814 1.474 . S
C1816 C1811 1.342 . S
C1816 C1814 1.285 . S
C1816 H1835 0.930 . S
C1817 C1820 1.424 . S
C1817 C1822 1.245 . S
C1817 C1823 1.428 . S
C1818 C1821 1.260 . S
C1818 C1822 1.477 . S
C1818 H1836 0.932 . S
C1819 C1820 1.384 . S
C1819 C1821 1.479 . S
C1819 H1837 0.929 . S
C1820 C1817 1.424 . S
C1820 C1819 1.384 . S
C1820 H1838 0.928 . S
C1821 C1818 1.260 . S
C1821 C1819 1.479 . S
C1822 C1817 1.245 . S
C1822 C1818 1.477 . S
C1822 H1839 0.932 . S
C1823 U1806 2.882 . S
C1823 C1817 1.428 . S
C1823 O1826 1.301 . S
C1823 O1827 1.282 . S
O1824 U1806 2.441 . S
O1824 C1810 1.249 . S
O1825 U1806 2.420 . S
O1825 C1810 1.202 . S
O1826 U1806 2.455 . S
O1826 C1823 1.301 . S
O1827 U1806 2.449 . S
O1827 C1823 1.282 . S
H1828 C1801 0.931 . S
H1829 C1803 0.929 . S
H1830 C1804 0.930 . S
H1831 C1805 0.931 . S
H1832 C1812 0.932 . S
H1833 C1813 0.930 . S
H1834 C1814 0.929 . S
H1835 C1816 0.930 . S
H1836 C1818 0.932 . S
H1837 C1819 0.929 . S
H1838 C1820 0.928 . S
H1839 C1822 0.932 . S
C1840 C1841 1.264 . S
C1840 C1845 1.479 . S
C1840 C1850 1.465 . S
C1841 C1840 1.264 . S
C1841 C1843 1.339 . S
C1841 H1868 0.931 . S
C1842 C1843 1.395 . S
C1842 C1844 1.320 . S
C1843 C1841 1.339 . S
C1843 C1842 1.395 . S
C1843 H1869 0.929 . S
C1844 C1842 1.320 . S
C1844 C1845 1.405 . S
C1844 H1870 0.930 . S
C1845 C1840 1.479 . S
C1845 C1844 1.405 . S
C1845 H1871 0.931 . S
U1846 O1847 2.454 . S
U1846 O1848 2.458 . S
U1846 C1849 2.984 . S
U1846 C1850 2.847 . S
U1846 C1863 2.882 . S
U1846 O1864 2.441 . S
U1846 O1865 2.420 . S
U1846 O1866 2.455 . S
U1846 O1867 2.449 . S
O1847 U1846 2.454 . S
O1847 C1849 1.353 . S
O1848 U1846 2.458 . S
O1848 C1849 1.286 . S
C1849 U1846 2.984 . S
C1849 O1847 1.353 . S
C1849 O1848 1.286 . S
C1849 C1851 1.363 . S
C1850 C1840 1.465 . S
C1850 U1846 2.847 . S
C1850 O1864 1.249 . S
C1850 O1865 1.202 . S
C1851 C1849 1.363 . S
C1851 C1853 1.408 . S
C1851 C1856 1.342 . S
C1852 C1853 1.310 . S
C1852 C1855 1.461 . S
C1852 H1872 0.932 . S
C1853 C1851 1.408 . S
C1853 C1852 1.310 . S
C1853 H1873 0.930 . S
C1854 C1855 1.474 . S
C1854 C1856 1.285 . S
C1854 H1874 0.929 . S
C1855 C1852 1.461 . S
C1855 C1854 1.474 . S
C1856 C1851 1.342 . S
C1856 C1854 1.285 . S
C1856 H1875 0.930 . S
C1857 C1860 1.424 . S
C1857 C1862 1.245 . S
C1857 C1863 1.428 . S
C1858 C1861 1.260 . S
C1858 C1862 1.477 . S
C1858 H1876 0.932 . S
C1859 C1860 1.384 . S
C1859 C1861 1.479 . S
C1859 H1877 0.929 . S
C1860 C1857 1.424 . S
C1860 C1859 1.384 . S
C1860 H1878 0.928 . S
C1861 C1858 1.260 . S
C1861 C1859 1.479 . S
C1862 C1857 1.245 . S
C1862 C1858 1.477 . S
C1862 H1879 0.932 . S
C1863 U1846 2.882 . S
C1863 C1857 1.428 . S
C1863 O1866 1.301 . S
C1863 O1867 1.282 . S
O1864 U1846 2.441 . S
O1864 C1850 1.249 . S
O1865 U1846 2.420 . S
O1865 C1850 1.202 . S
O1866 U1846 2.455 . S
O1866 C1863 1.301 . S
O1867 U1846 2.449 . S
O1867 C1863 1.282 . S
H1868 C1841 0.931 . S
H1869 C1843 0.929 . S
H1870 C1844 0.930 . S
H1871 C1845 0.931 . S
H1872 C1852 0.932 . S
H1873 C1853 0.930 . S
H1874 C1854 0.929 . S
H1875 C1856 0.930 . S
H1876 C1858 0.932 . S
H1877 C1859 0.929 . S
H1878 C1860 0.928 . S
H1879 C1862 0.932 . S
C1880 C1881 1.264 . S
C1880 C1885 1.479 . S
C1880 C1890 1.465 . S
C1881 C1880 1.264 . S
C1881 C1883 1.339 . S
C1881 H1908 0.931 . S
C1882 C1883 1.395 . S
C1882 C1884 1.320 . S
C1883 C1881 1.339 . S
C1883 C1882 1.395 . S
C1883 H1909 0.929 . S
C1884 C1882 1.320 . S
C1884 C1885 1.405 . S
C1884 H1910 0.930 . S
C1885 C1880 1.479 . S
C1885 C1884 1.405 . S
C1885 H1911 0.931 . S
U1886 O1887 2.454 . S
U1886 O1888 2.458 . S
U1886 C1889 2.984 . S
U1886 C1890 2.847 . S
U1886 C1903 2.882 . S
U1886 O1904 2.441 . S
U1886 O1905 2.420 . S
U1886 O1906 2.455 . S
U1886 O1907 2.449 . S
O1887 U1886 2.454 . S
O1887 C1889 1.353 . S
O1888 U1886 2.458 . S
O1888 C1889 1.286 . S
C1889 U1886 2.984 . S
C1889 O1887 1.353 . S
C1889 O1888 1.286 . S
C1889 C1891 1.363 . S
C1890 C1880 1.465 . S
C1890 U1886 2.847 . S
C1890 O1904 1.249 . S
C1890 O1905 1.202 . S
C1891 C1889 1.363 . S
C1891 C1893 1.408 . S
C1891 C1896 1.342 . S
C1892 C1893 1.310 . S
C1892 C1895 1.461 . S
C1892 H1912 0.932 . S
C1893 C1891 1.408 . S
C1893 C1892 1.310 . S
C1893 H1913 0.930 . S
C1894 C1895 1.474 . S
C1894 C1896 1.285 . S
C1894 H1914 0.929 . S
C1895 C1892 1.461 . S
C1895 C1894 1.474 . S
C1896 C1891 1.342 . S
C1896 C1894 1.285 . S
C1896 H1915 0.930 . S
C1897 C1900 1.424 . S
C1897 C1902 1.245 . S
C1897 C1903 1.428 . S
C1898 C1901 1.260 . S
C1898 C1902 1.477 . S
C1898 H1916 0.932 . S
C1899 C1900 1.384 . S
C1899 C1901 1.479 . S
C1899 H1917 0.929 . S
C1900 C1897 1.424 . S
C1900 C1899 1.384 . S
C1900 H1918 0.928 . S
C1901 C1898 1.260 . S
C1901 C1899 1.479 . S
C1902 C1897 1.245 . S
C1902 C1898 1.477 . S
C1902 H1919 0.932 . S
C1903 U1886 2.882 . S
C1903 C1897 1.428 . S
C1903 O1906 1.301 . S
C1903 O1907 1.282 . S
O1904 U1886 2.441 . S
O1904 C1890 1.249 . S
O1905 U1886 2.420 . S
O1905 C1890 1.202 . S
O1906 U1886 2.455 . S
O1906 C1903 1.301 . S
O1907 U1886 2.449 . S
O1907 C1903 1.282 . S
H1908 C1881 0.931 . S
H1909 C1883 0.929 . S
H1910 C1884 0.930 . S
H1911 C1885 0.931 . S
H1912 C1892 0.932 . S
H1913 C1893 0.930 . S
H1914 C1894 0.929 . S
H1915 C1896 0.930 . S
H1916 C1898 0.932 . S
H1917 C1899 0.929 . S
H1918 C1900 0.928 . S
H1919 C1902 0.932 . S
C1920 C1921 1.386 . S
C1920 C1922 1.397 . S
C1920 H1944 0.931 . S
C1921 C1920 1.386 . S
C1921 C1925 1.397 . S
C1922 C1920 1.397 . S
C1922 C1923 1.384 . S
C1922 H1945 0.930 . S
C1923 C1922 1.384 . S
C1923 C1924 1.377 . S
C1923 C1926 1.481 . S
C1924 C1923 1.377 . S
C1924 C1925 1.389 . S
C1924 H1946 0.929 . S
C1925 C1921 1.397 . S
C1925 C1924 1.389 . S
C1925 H1947 0.931 . S
C1926 C1923 1.481 . S
C1926 C1927 1.387 . S
C1926 C1931 1.390 . S
C1927 C1926 1.387 . S
C1927 C1928 1.401 . S
C1927 H1948 0.930 . S
C1928 C1927 1.401 . S
C1928 C1929 1.376 . S
C1928 C1937 1.511 . S
C1929 C1928 1.376 . S
C1929 C1930 1.392 . S
C1929 H1950 0.931 . S
C1930 C1929 1.392 . S
C1930 C1931 1.361 . S
C1930 C1932 1.500 . S
C1931 C1926 1.390 . S
C1931 C1930 1.361 . S
C1931 H1949 0.931 . S
C1932 C1930 1.500 . S
C1932 C1933 1.371 . S
C1932 C1934 1.365 . S
C1933 C1932 1.371 . S
C1933 C1943 1.386 . S
C1933 H1951 0.931 . S
C1934 C1932 1.365 . S
C1934 C1935 1.409 . S
C1934 H1952 0.929 . S
C1935 C1934 1.409 . S
C1935 C1936 1.380 . S
C1935 H1953 0.930 . S
C1936 C1935 1.380 . S
C1936 C1943 1.357 . S
C1937 C1928 1.511 . S
C1937 C1938 1.341 . S
C1937 C1939 1.371 . S
C1938 C1937 1.341 . S
C1938 C1942 1.394 . S
C1938 H1954 0.930 . S
C1939 C1937 1.371 . S
C1939 C1940 1.392 . S
C1939 H1955 0.931 . S
C1940 C1939 1.392 . S
C1940 C1941 1.331 . S
C1940 H1958 0.932 . S
C1941 C1940 1.331 . S
C1941 C1942 1.336 . S
C1942 C1938 1.394 . S
C1942 C1941 1.336 . S
C1942 H1957 0.929 . S
C1943 C1933 1.386 . S
C1943 C1936 1.357 . S
C1943 H1956 0.928 . S
H1944 C1920 0.931 . S
H1945 C1922 0.930 . S
H1946 C1924 0.929 . S
H1947 C1925 0.931 . S
H1948 C1927 0.930 . S
H1949 C1931 0.931 . S
H1950 C1929 0.931 . S
H1951 C1933 0.931 . S
H1952 C1934 0.929 . S
H1953 C1935 0.930 . S
H1954 C1938 0.930 . S
H1955 C1939 0.931 . S
H1956 C1943 0.928 . S
H1957 C1942 0.929 . S
H1958 C1940 0.932 . S
C1959 C1960 1.386 . S
C1959 C1961 1.397 . S
C1959 H1983 0.931 . S
C1960 C1959 1.386 . S
C1960 C1964 1.397 . S
C1961 C1959 1.397 . S
C1961 C1962 1.384 . S
C1961 H1984 0.930 . S
C1962 C1961 1.384 . S
C1962 C1963 1.377 . S
C1962 C1965 1.481 . S
C1963 C1962 1.377 . S
C1963 C1964 1.389 . S
C1963 H1985 0.929 . S
C1964 C1960 1.397 . S
C1964 C1963 1.389 . S
C1964 H1986 0.931 . S
C1965 C1962 1.481 . S
C1965 C1966 1.387 . S
C1965 C1970 1.390 . S
C1966 C1965 1.387 . S
C1966 C1967 1.401 . S
C1966 H1987 0.930 . S
C1967 C1966 1.401 . S
C1967 C1968 1.376 . S
C1967 C1976 1.511 . S
C1968 C1967 1.376 . S
C1968 C1969 1.392 . S
C1968 H1989 0.931 . S
C1969 C1968 1.392 . S
C1969 C1970 1.361 . S
C1969 C1971 1.500 . S
C1970 C1965 1.390 . S
C1970 C1969 1.361 . S
C1970 H1988 0.931 . S
C1971 C1969 1.500 . S
C1971 C1972 1.371 . S
C1971 C1973 1.365 . S
C1972 C1971 1.371 . S
C1972 C1982 1.386 . S
C1972 H1990 0.931 . S
C1973 C1971 1.365 . S
C1973 C1974 1.409 . S
C1973 H1991 0.929 . S
C1974 C1973 1.409 . S
C1974 C1975 1.380 . S
C1974 H1992 0.930 . S
C1975 C1974 1.380 . S
C1975 C1982 1.357 . S
C1976 C1967 1.511 . S
C1976 C1977 1.341 . S
C1976 C1978 1.371 . S
C1977 C1976 1.341 . S
C1977 C1981 1.394 . S
C1977 H1993 0.930 . S
C1978 C1976 1.371 . S
C1978 C1979 1.392 . S
C1978 H1994 0.931 . S
C1979 C1978 1.392 . S
C1979 C1980 1.331 . S
C1979 H1997 0.932 . S
C1980 C1979 1.331 . S
C1980 C1981 1.336 . S
C1981 C1977 1.394 . S
C1981 C1980 1.336 . S
C1981 H1996 0.929 . S
C1982 C1972 1.386 . S
C1982 C1975 1.357 . S
C1982 H1995 0.928 . S
H1983 C1959 0.931 . S
H1984 C1961 0.930 . S
H1985 C1963 0.929 . S
H1986 C1964 0.931 . S
H1987 C1966 0.930 . S
H1988 C1970 0.931 . S
H1989 C1968 0.931 . S
H1990 C1972 0.931 . S
H1991 C1973 0.929 . S
H1992 C1974 0.930 . S
H1993 C1977 0.930 . S
H1994 C1978 0.931 . S
H1995 C1982 0.928 . S
H1996 C1981 0.929 . S
H1997 C1979 0.932 . S
C1998 C1999 1.386 . S
C1998 C2000 1.397 . S
C1998 H2022 0.931 . S
C1999 C1998 1.386 . S
C1999 C2003 1.397 . S
C2000 C1998 1.397 . S
C2000 C2001 1.384 . S
C2000 H2023 0.930 . S
C2001 C2000 1.384 . S
C2001 C2002 1.377 . S
C2001 C2004 1.481 . S
C2002 C2001 1.377 . S
C2002 C2003 1.389 . S
C2002 H2024 0.929 . S
C2003 C1999 1.397 . S
C2003 C2002 1.389 . S
C2003 H2025 0.931 . S
C2004 C2001 1.481 . S
C2004 C2005 1.387 . S
C2004 C2009 1.390 . S
C2005 C2004 1.387 . S
C2005 C2006 1.401 . S
C2005 H2026 0.930 . S
C2006 C2005 1.401 . S
C2006 C2007 1.376 . S
C2006 C2015 1.511 . S
C2007 C2006 1.376 . S
C2007 C2008 1.392 . S
C2007 H2028 0.931 . S
C2008 C2007 1.392 . S
C2008 C2009 1.361 . S
C2008 C2010 1.500 . S
C2009 C2004 1.390 . S
C2009 C2008 1.361 . S
C2009 H2027 0.931 . S
C2010 C2008 1.500 . S
C2010 C2011 1.371 . S
C2010 C2012 1.365 . S
C2011 C2010 1.371 . S
C2011 C2021 1.386 . S
C2011 H2029 0.931 . S
C2012 C2010 1.365 . S
C2012 C2013 1.409 . S
C2012 H2030 0.929 . S
C2013 C2012 1.409 . S
C2013 C2014 1.380 . S
C2013 H2031 0.930 . S
C2014 C2013 1.380 . S
C2014 C2021 1.357 . S
C2015 C2006 1.511 . S
C2015 C2016 1.341 . S
C2015 C2017 1.371 . S
C2016 C2015 1.341 . S
C2016 C2020 1.394 . S
C2016 H2032 0.930 . S
C2017 C2015 1.371 . S
C2017 C2018 1.392 . S
C2017 H2033 0.931 . S
C2018 C2017 1.392 . S
C2018 C2019 1.331 . S
C2018 H2036 0.932 . S
C2019 C2018 1.331 . S
C2019 C2020 1.336 . S
C2020 C2016 1.394 . S
C2020 C2019 1.336 . S
C2020 H2035 0.929 . S
C2021 C2011 1.386 . S
C2021 C2014 1.357 . S
C2021 H2034 0.928 . S
H2022 C1998 0.931 . S
H2023 C2000 0.930 . S
H2024 C2002 0.929 . S
H2025 C2003 0.931 . S
H2026 C2005 0.930 . S
H2027 C2009 0.931 . S
H2028 C2007 0.931 . S
H2029 C2011 0.931 . S
H2030 C2012 0.929 . S
H2031 C2013 0.930 . S
H2032 C2016 0.930 . S
H2033 C2017 0.931 . S
H2034 C2021 0.928 . S
H2035 C2020 0.929 . S
H2036 C2018 0.932 . S
C2037 C2038 1.386 . S
C2037 C2039 1.397 . S
C2037 H2061 0.931 . S
C2038 C2037 1.386 . S
C2038 C2042 1.397 . S
C2039 C2037 1.397 . S
C2039 C2040 1.384 . S
C2039 H2062 0.930 . S
C2040 C2039 1.384 . S
C2040 C2041 1.377 . S
C2040 C2043 1.481 . S
C2041 C2040 1.377 . S
C2041 C2042 1.389 . S
C2041 H2063 0.929 . S
C2042 C2038 1.397 . S
C2042 C2041 1.389 . S
C2042 H2064 0.931 . S
C2043 C2040 1.481 . S
C2043 C2044 1.387 . S
C2043 C2048 1.390 . S
C2044 C2043 1.387 . S
C2044 C2045 1.401 . S
C2044 H2065 0.930 . S
C2045 C2044 1.401 . S
C2045 C2046 1.376 . S
C2045 C2054 1.511 . S
C2046 C2045 1.376 . S
C2046 C2047 1.392 . S
C2046 H2067 0.931 . S
C2047 C2046 1.392 . S
C2047 C2048 1.361 . S
C2047 C2049 1.500 . S
C2048 C2043 1.390 . S
C2048 C2047 1.361 . S
C2048 H2066 0.931 . S
C2049 C2047 1.500 . S
C2049 C2050 1.371 . S
C2049 C2051 1.365 . S
C2050 C2049 1.371 . S
C2050 C2060 1.386 . S
C2050 H2068 0.931 . S
C2051 C2049 1.365 . S
C2051 C2052 1.409 . S
C2051 H2069 0.929 . S
C2052 C2051 1.409 . S
C2052 C2053 1.380 . S
C2052 H2070 0.930 . S
C2053 C2052 1.380 . S
C2053 C2060 1.357 . S
C2054 C2045 1.511 . S
C2054 C2055 1.341 . S
C2054 C2056 1.371 . S
C2055 C2054 1.341 . S
C2055 C2059 1.394 . S
C2055 H2071 0.930 . S
C2056 C2054 1.371 . S
C2056 C2057 1.392 . S
C2056 H2072 0.931 . S
C2057 C2056 1.392 . S
C2057 C2058 1.331 . S
C2057 H2075 0.932 . S
C2058 C2057 1.331 . S
C2058 C2059 1.336 . S
C2059 C2055 1.394 . S
C2059 C2058 1.336 . S
C2059 H2074 0.929 . S
C2060 C2050 1.386 . S
C2060 C2053 1.357 . S
C2060 H2073 0.928 . S
H2061 C2037 0.931 . S
H2062 C2039 0.930 . S
H2063 C2041 0.929 . S
H2064 C2042 0.931 . S
H2065 C2044 0.930 . S
H2066 C2048 0.931 . S
H2067 C2046 0.931 . S
H2068 C2050 0.931 . S
H2069 C2051 0.929 . S
H2070 C2052 0.930 . S
H2071 C2055 0.930 . S
H2072 C2056 0.931 . S
H2073 C2060 0.928 . S
H2074 C2059 0.929 . S
H2075 C2057 0.932 . S
C2076 C2077 1.386 . S
C2076 C2078 1.397 . S
C2076 H2100 0.931 . S
C2077 C2076 1.386 . S
C2077 C2081 1.397 . S
C2078 C2076 1.397 . S
C2078 C2079 1.384 . S
C2078 H2101 0.930 . S
C2079 C2078 1.384 . S
C2079 C2080 1.377 . S
C2079 C2082 1.481 . S
C2080 C2079 1.377 . S
C2080 C2081 1.389 . S
C2080 H2102 0.929 . S
C2081 C2077 1.397 . S
C2081 C2080 1.389 . S
C2081 H2103 0.931 . S
C2082 C2079 1.481 . S
C2082 C2083 1.387 . S
C2082 C2087 1.390 . S
C2083 C2082 1.387 . S
C2083 C2084 1.401 . S
C2083 H2104 0.930 . S
C2084 C2083 1.401 . S
C2084 C2085 1.376 . S
C2084 C2093 1.511 . S
C2085 C2084 1.376 . S
C2085 C2086 1.392 . S
C2085 H2106 0.931 . S
C2086 C2085 1.392 . S
C2086 C2087 1.361 . S
C2086 C2088 1.500 . S
C2087 C2082 1.390 . S
C2087 C2086 1.361 . S
C2087 H2105 0.931 . S
C2088 C2086 1.500 . S
C2088 C2089 1.371 . S
C2088 C2090 1.365 . S
C2089 C2088 1.371 . S
C2089 C2099 1.386 . S
C2089 H2107 0.931 . S
C2090 C2088 1.365 . S
C2090 C2091 1.409 . S
C2090 H2108 0.929 . S
C2091 C2090 1.409 . S
C2091 C2092 1.380 . S
C2091 H2109 0.930 . S
C2092 C2091 1.380 . S
C2092 C2099 1.357 . S
C2093 C2084 1.511 . S
C2093 C2094 1.341 . S
C2093 C2095 1.371 . S
C2094 C2093 1.341 . S
C2094 C2098 1.394 . S
C2094 H2110 0.930 . S
C2095 C2093 1.371 . S
C2095 C2096 1.392 . S
C2095 H2111 0.931 . S
C2096 C2095 1.392 . S
C2096 C2097 1.331 . S
C2096 H2114 0.932 . S
C2097 C2096 1.331 . S
C2097 C2098 1.336 . S
C2098 C2094 1.394 . S
C2098 C2097 1.336 . S
C2098 H2113 0.929 . S
C2099 C2089 1.386 . S
C2099 C2092 1.357 . S
C2099 H2112 0.928 . S
H2100 C2076 0.931 . S
H2101 C2078 0.930 . S
H2102 C2080 0.929 . S
H2103 C2081 0.931 . S
H2104 C2083 0.930 . S
H2105 C2087 0.931 . S
H2106 C2085 0.931 . S
H2107 C2089 0.931 . S
H2108 C2090 0.929 . S
H2109 C2091 0.930 . S
H2110 C2094 0.930 . S
H2111 C2095 0.931 . S
H2112 C2099 0.928 . S
H2113 C2098 0.929 . S
H2114 C2096 0.932 . S
C2115 C2116 1.386 . S
C2115 C2117 1.397 . S
C2115 H2139 0.931 . S
C2116 C2115 1.386 . S
C2116 C2120 1.397 . S
C2117 C2115 1.397 . S
C2117 C2118 1.384 . S
C2117 H2140 0.930 . S
C2118 C2117 1.384 . S
C2118 C2119 1.377 . S
C2118 C2121 1.481 . S
C2119 C2118 1.377 . S
C2119 C2120 1.389 . S
C2119 H2141 0.929 . S
C2120 C2116 1.397 . S
C2120 C2119 1.389 . S
C2120 H2142 0.931 . S
C2121 C2118 1.481 . S
C2121 C2122 1.387 . S
C2121 C2126 1.390 . S
C2122 C2121 1.387 . S
C2122 C2123 1.401 . S
C2122 H2143 0.930 . S
C2123 C2122 1.401 . S
C2123 C2124 1.376 . S
C2123 C2132 1.511 . S
C2124 C2123 1.376 . S
C2124 C2125 1.392 . S
C2124 H2145 0.931 . S
C2125 C2124 1.392 . S
C2125 C2126 1.361 . S
C2125 C2127 1.500 . S
C2126 C2121 1.390 . S
C2126 C2125 1.361 . S
C2126 H2144 0.931 . S
C2127 C2125 1.500 . S
C2127 C2128 1.371 . S
C2127 C2129 1.365 . S
C2128 C2127 1.371 . S
C2128 C2138 1.386 . S
C2128 H2146 0.931 . S
C2129 C2127 1.365 . S
C2129 C2130 1.409 . S
C2129 H2147 0.929 . S
C2130 C2129 1.409 . S
C2130 C2131 1.380 . S
C2130 H2148 0.930 . S
C2131 C2130 1.380 . S
C2131 C2138 1.357 . S
C2132 C2123 1.511 . S
C2132 C2133 1.341 . S
C2132 C2134 1.371 . S
C2133 C2132 1.341 . S
C2133 C2137 1.394 . S
C2133 H2149 0.930 . S
C2134 C2132 1.371 . S
C2134 C2135 1.392 . S
C2134 H2150 0.931 . S
C2135 C2134 1.392 . S
C2135 C2136 1.331 . S
C2135 H2153 0.932 . S
C2136 C2135 1.331 . S
C2136 C2137 1.336 . S
C2137 C2133 1.394 . S
C2137 C2136 1.336 . S
C2137 H2152 0.929 . S
C2138 C2128 1.386 . S
C2138 C2131 1.357 . S
C2138 H2151 0.928 . S
H2139 C2115 0.931 . S
H2140 C2117 0.930 . S
H2141 C2119 0.929 . S
H2142 C2120 0.931 . S
H2143 C2122 0.930 . S
H2144 C2126 0.931 . S
H2145 C2124 0.931 . S
H2146 C2128 0.931 . S
H2147 C2129 0.929 . S
H2148 C2130 0.930 . S
H2149 C2133 0.930 . S
H2150 C2134 0.931 . S
H2151 C2138 0.928 . S
H2152 C2137 0.929 . S
H2153 C2135 0.932 . S
C2154 C2155 1.386 . S
C2154 C2156 1.397 . S
C2154 H2178 0.931 . S
C2155 C2154 1.386 . S
C2155 C2159 1.397 . S
C2156 C2154 1.397 . S
C2156 C2157 1.384 . S
C2156 H2179 0.930 . S
C2157 C2156 1.384 . S
C2157 C2158 1.377 . S
C2157 C2160 1.481 . S
C2158 C2157 1.377 . S
C2158 C2159 1.389 . S
C2158 H2180 0.929 . S
C2159 C2155 1.397 . S
C2159 C2158 1.389 . S
C2159 H2181 0.931 . S
C2160 C2157 1.481 . S
C2160 C2161 1.387 . S
C2160 C2165 1.390 . S
C2161 C2160 1.387 . S
C2161 C2162 1.401 . S
C2161 H2182 0.930 . S
C2162 C2161 1.401 . S
C2162 C2163 1.376 . S
C2162 C2171 1.511 . S
C2163 C2162 1.376 . S
C2163 C2164 1.392 . S
C2163 H2184 0.931 . S
C2164 C2163 1.392 . S
C2164 C2165 1.361 . S
C2164 C2166 1.500 . S
C2165 C2160 1.390 . S
C2165 C2164 1.361 . S
C2165 H2183 0.931 . S
C2166 C2164 1.500 . S
C2166 C2167 1.371 . S
C2166 C2168 1.365 . S
C2167 C2166 1.371 . S
C2167 C2177 1.386 . S
C2167 H2185 0.931 . S
C2168 C2166 1.365 . S
C2168 C2169 1.409 . S
C2168 H2186 0.929 . S
C2169 C2168 1.409 . S
C2169 C2170 1.380 . S
C2169 H2187 0.930 . S
C2170 C2169 1.380 . S
C2170 C2177 1.357 . S
C2171 C2162 1.511 . S
C2171 C2172 1.341 . S
C2171 C2173 1.371 . S
C2172 C2171 1.341 . S
C2172 C2176 1.394 . S
C2172 H2188 0.930 . S
C2173 C2171 1.371 . S
C2173 C2174 1.392 . S
C2173 H2189 0.931 . S
C2174 C2173 1.392 . S
C2174 C2175 1.331 . S
C2174 H2192 0.932 . S
C2175 C2174 1.331 . S
C2175 C2176 1.336 . S
C2176 C2172 1.394 . S
C2176 C2175 1.336 . S
C2176 H2191 0.929 . S
C2177 C2167 1.386 . S
C2177 C2170 1.357 . S
C2177 H2190 0.928 . S
H2178 C2154 0.931 . S
H2179 C2156 0.930 . S
H2180 C2158 0.929 . S
H2181 C2159 0.931 . S
H2182 C2161 0.930 . S
H2183 C2165 0.931 . S
H2184 C2163 0.931 . S
H2185 C2167 0.931 . S
H2186 C2168 0.929 . S
H2187 C2169 0.930 . S
H2188 C2172 0.930 . S
H2189 C2173 0.931 . S
H2190 C2177 0.928 . S
H2191 C2176 0.929 . S
H2192 C2174 0.932 . S
C2193 C2194 1.386 . S
C2193 C2195 1.397 . S
C2193 H2217 0.931 . S
C2194 C2193 1.386 . S
C2194 C2198 1.397 . S
C2195 C2193 1.397 . S
C2195 C2196 1.384 . S
C2195 H2218 0.930 . S
C2196 C2195 1.384 . S
C2196 C2197 1.377 . S
C2196 C2199 1.481 . S
C2197 C2196 1.377 . S
C2197 C2198 1.389 . S
C2197 H2219 0.929 . S
C2198 C2194 1.397 . S
C2198 C2197 1.389 . S
C2198 H2220 0.931 . S
C2199 C2196 1.481 . S
C2199 C2200 1.387 . S
C2199 C2204 1.390 . S
C2200 C2199 1.387 . S
C2200 C2201 1.401 . S
C2200 H2221 0.930 . S
C2201 C2200 1.401 . S
C2201 C2202 1.376 . S
C2201 C2210 1.511 . S
C2202 C2201 1.376 . S
C2202 C2203 1.392 . S
C2202 H2223 0.931 . S
C2203 C2202 1.392 . S
C2203 C2204 1.361 . S
C2203 C2205 1.500 . S
C2204 C2199 1.390 . S
C2204 C2203 1.361 . S
C2204 H2222 0.931 . S
C2205 C2203 1.500 . S
C2205 C2206 1.371 . S
C2205 C2207 1.365 . S
C2206 C2205 1.371 . S
C2206 C2216 1.386 . S
C2206 H2224 0.931 . S
C2207 C2205 1.365 . S
C2207 C2208 1.409 . S
C2207 H2225 0.929 . S
C2208 C2207 1.409 . S
C2208 C2209 1.380 . S
C2208 H2226 0.930 . S
C2209 C2208 1.380 . S
C2209 C2216 1.357 . S
C2210 C2201 1.511 . S
C2210 C2211 1.341 . S
C2210 C2212 1.371 . S
C2211 C2210 1.341 . S
C2211 C2215 1.394 . S
C2211 H2227 0.930 . S
C2212 C2210 1.371 . S
C2212 C2213 1.392 . S
C2212 H2228 0.931 . S
C2213 C2212 1.392 . S
C2213 C2214 1.331 . S
C2213 H2231 0.932 . S
C2214 C2213 1.331 . S
C2214 C2215 1.336 . S
C2215 C2211 1.394 . S
C2215 C2214 1.336 . S
C2215 H2230 0.929 . S
C2216 C2206 1.386 . S
C2216 C2209 1.357 . S
C2216 H2229 0.928 . S
H2217 C2193 0.931 . S
H2218 C2195 0.930 . S
H2219 C2197 0.929 . S
H2220 C2198 0.931 . S
H2221 C2200 0.930 . S
H2222 C2204 0.931 . S
H2223 C2202 0.931 . S
H2224 C2206 0.931 . S
H2225 C2207 0.929 . S
H2226 C2208 0.930 . S
H2227 C2211 0.930 . S
H2228 C2212 0.931 . S
H2229 C2216 0.928 . S
H2230 C2215 0.929 . S
H2231 C2213 0.932 . S
C2232 C2233 1.386 . S
C2232 C2234 1.397 . S
C2232 H2256 0.931 . S
C2233 C2232 1.386 . S
C2233 C2237 1.397 . S
C2234 C2232 1.397 . S
C2234 C2235 1.384 . S
C2234 H2257 0.930 . S
C2235 C2234 1.384 . S
C2235 C2236 1.377 . S
C2235 C2238 1.481 . S
C2236 C2235 1.377 . S
C2236 C2237 1.389 . S
C2236 H2258 0.929 . S
C2237 C2233 1.397 . S
C2237 C2236 1.389 . S
C2237 H2259 0.931 . S
C2238 C2235 1.481 . S
C2238 C2239 1.387 . S
C2238 C2243 1.390 . S
C2239 C2238 1.387 . S
C2239 C2240 1.401 . S
C2239 H2260 0.930 . S
C2240 C2239 1.401 . S
C2240 C2241 1.376 . S
C2240 C2249 1.511 . S
C2241 C2240 1.376 . S
C2241 C2242 1.392 . S
C2241 H2262 0.931 . S
C2242 C2241 1.392 . S
C2242 C2243 1.361 . S
C2242 C2244 1.500 . S
C2243 C2238 1.390 . S
C2243 C2242 1.361 . S
C2243 H2261 0.931 . S
C2244 C2242 1.500 . S
C2244 C2245 1.371 . S
C2244 C2246 1.365 . S
C2245 C2244 1.371 . S
C2245 C2255 1.386 . S
C2245 H2263 0.931 . S
C2246 C2244 1.365 . S
C2246 C2247 1.409 . S
C2246 H2264 0.929 . S
C2247 C2246 1.409 . S
C2247 C2248 1.380 . S
C2247 H2265 0.930 . S
C2248 C2247 1.380 . S
C2248 C2255 1.357 . S
C2249 C2240 1.511 . S
C2249 C2250 1.341 . S
C2249 C2251 1.371 . S
C2250 C2249 1.341 . S
C2250 C2254 1.394 . S
C2250 H2266 0.930 . S
C2251 C2249 1.371 . S
C2251 C2252 1.392 . S
C2251 H2267 0.931 . S
C2252 C2251 1.392 . S
C2252 C2253 1.331 . S
C2252 H2270 0.932 . S
C2253 C2252 1.331 . S
C2253 C2254 1.336 . S
C2254 C2250 1.394 . S
C2254 C2253 1.336 . S
C2254 H2269 0.929 . S
C2255 C2245 1.386 . S
C2255 C2248 1.357 . S
C2255 H2268 0.928 . S
H2256 C2232 0.931 . S
H2257 C2234 0.930 . S
H2258 C2236 0.929 . S
H2259 C2237 0.931 . S
H2260 C2239 0.930 . S
H2261 C2243 0.931 . S
H2262 C2241 0.931 . S
H2263 C2245 0.931 . S
H2264 C2246 0.929 . S
H2265 C2247 0.930 . S
H2266 C2250 0.930 . S
H2267 C2251 0.931 . S
H2268 C2255 0.928 . S
H2269 C2254 0.929 . S
H2270 C2252 0.932 . S
C2271 C2272 1.386 . S
C2271 C2273 1.397 . S
C2271 H2295 0.931 . S
C2272 C2271 1.386 . S
C2272 C2276 1.397 . S
C2273 C2271 1.397 . S
C2273 C2274 1.384 . S
C2273 H2296 0.930 . S
C2274 C2273 1.384 . S
C2274 C2275 1.377 . S
C2274 C2277 1.481 . S
C2275 C2274 1.377 . S
C2275 C2276 1.389 . S
C2275 H2297 0.929 . S
C2276 C2272 1.397 . S
C2276 C2275 1.389 . S
C2276 H2298 0.931 . S
C2277 C2274 1.481 . S
C2277 C2278 1.387 . S
C2277 C2282 1.390 . S
C2278 C2277 1.387 . S
C2278 C2279 1.401 . S
C2278 H2299 0.930 . S
C2279 C2278 1.401 . S
C2279 C2280 1.376 . S
C2279 C2288 1.511 . S
C2280 C2279 1.376 . S
C2280 C2281 1.392 . S
C2280 H2301 0.931 . S
C2281 C2280 1.392 . S
C2281 C2282 1.361 . S
C2281 C2283 1.500 . S
C2282 C2277 1.390 . S
C2282 C2281 1.361 . S
C2282 H2300 0.931 . S
C2283 C2281 1.500 . S
C2283 C2284 1.371 . S
C2283 C2285 1.365 . S
C2284 C2283 1.371 . S
C2284 C2294 1.386 . S
C2284 H2302 0.931 . S
C2285 C2283 1.365 . S
C2285 C2286 1.409 . S
C2285 H2303 0.929 . S
C2286 C2285 1.409 . S
C2286 C2287 1.380 . S
C2286 H2304 0.930 . S
C2287 C2286 1.380 . S
C2287 C2294 1.357 . S
C2288 C2279 1.511 . S
C2288 C2289 1.341 . S
C2288 C2290 1.371 . S
C2289 C2288 1.341 . S
C2289 C2293 1.394 . S
C2289 H2305 0.930 . S
C2290 C2288 1.371 . S
C2290 C2291 1.392 . S
C2290 H2306 0.931 . S
C2291 C2290 1.392 . S
C2291 C2292 1.331 . S
C2291 H2309 0.932 . S
C2292 C2291 1.331 . S
C2292 C2293 1.336 . S
C2293 C2289 1.394 . S
C2293 C2292 1.336 . S
C2293 H2308 0.929 . S
C2294 C2284 1.386 . S
C2294 C2287 1.357 . S
C2294 H2307 0.928 . S
H2295 C2271 0.931 . S
H2296 C2273 0.930 . S
H2297 C2275 0.929 . S
H2298 C2276 0.931 . S
H2299 C2278 0.930 . S
H2300 C2282 0.931 . S
H2301 C2280 0.931 . S
H2302 C2284 0.931 . S
H2303 C2285 0.929 . S
H2304 C2286 0.930 . S
H2305 C2289 0.930 . S
H2306 C2290 0.931 . S
H2307 C2294 0.928 . S
H2308 C2293 0.929 . S
H2309 C2291 0.932 . S
C2310 C2311 1.386 . S
C2310 C2312 1.397 . S
C2310 H2334 0.931 . S
C2311 C2310 1.386 . S
C2311 C2315 1.397 . S
C2312 C2310 1.397 . S
C2312 C2313 1.384 . S
C2312 H2335 0.930 . S
C2313 C2312 1.384 . S
C2313 C2314 1.377 . S
C2313 C2316 1.481 . S
C2314 C2313 1.377 . S
C2314 C2315 1.389 . S
C2314 H2336 0.929 . S
C2315 C2311 1.397 . S
C2315 C2314 1.389 . S
C2315 H2337 0.931 . S
C2316 C2313 1.481 . S
C2316 C2317 1.387 . S
C2316 C2321 1.390 . S
C2317 C2316 1.387 . S
C2317 C2318 1.401 . S
C2317 H2338 0.930 . S
C2318 C2317 1.401 . S
C2318 C2319 1.376 . S
C2318 C2327 1.511 . S
C2319 C2318 1.376 . S
C2319 C2320 1.392 . S
C2319 H2340 0.931 . S
C2320 C2319 1.392 . S
C2320 C2321 1.361 . S
C2320 C2322 1.500 . S
C2321 C2316 1.390 . S
C2321 C2320 1.361 . S
C2321 H2339 0.931 . S
C2322 C2320 1.500 . S
C2322 C2323 1.371 . S
C2322 C2324 1.365 . S
C2323 C2322 1.371 . S
C2323 C2333 1.386 . S
C2323 H2341 0.931 . S
C2324 C2322 1.365 . S
C2324 C2325 1.409 . S
C2324 H2342 0.929 . S
C2325 C2324 1.409 . S
C2325 C2326 1.380 . S
C2325 H2343 0.930 . S
C2326 C2325 1.380 . S
C2326 C2333 1.357 . S
C2327 C2318 1.511 . S
C2327 C2328 1.341 . S
C2327 C2329 1.371 . S
C2328 C2327 1.341 . S
C2328 C2332 1.394 . S
C2328 H2344 0.930 . S
C2329 C2327 1.371 . S
C2329 C2330 1.392 . S
C2329 H2345 0.931 . S
C2330 C2329 1.392 . S
C2330 C2331 1.331 . S
C2330 H2348 0.932 . S
C2331 C2330 1.331 . S
C2331 C2332 1.336 . S
C2332 C2328 1.394 . S
C2332 C2331 1.336 . S
C2332 H2347 0.929 . S
C2333 C2323 1.386 . S
C2333 C2326 1.357 . S
C2333 H2346 0.928 . S
H2334 C2310 0.931 . S
H2335 C2312 0.930 . S
H2336 C2314 0.929 . S
H2337 C2315 0.931 . S
H2338 C2317 0.930 . S
H2339 C2321 0.931 . S
H2340 C2319 0.931 . S
H2341 C2323 0.931 . S
H2342 C2324 0.929 . S
H2343 C2325 0.930 . S
H2344 C2328 0.930 . S
H2345 C2329 0.931 . S
H2346 C2333 0.928 . S
H2347 C2332 0.929 . S
H2348 C2330 0.932 . S
C2349 C2350 1.386 . S
C2349 C2351 1.397 . S
C2349 H2373 0.931 . S
C2350 C2349 1.386 . S
C2350 C2354 1.397 . S
C2351 C2349 1.397 . S
C2351 C2352 1.384 . S
C2351 H2374 0.930 . S
C2352 C2351 1.384 . S
C2352 C2353 1.377 . S
C2352 C2355 1.481 . S
C2353 C2352 1.377 . S
C2353 C2354 1.389 . S
C2353 H2375 0.929 . S
C2354 C2350 1.397 . S
C2354 C2353 1.389 . S
C2354 H2376 0.931 . S
C2355 C2352 1.481 . S
C2355 C2356 1.387 . S
C2355 C2360 1.390 . S
C2356 C2355 1.387 . S
C2356 C2357 1.401 . S
C2356 H2377 0.930 . S
C2357 C2356 1.401 . S
C2357 C2358 1.376 . S
C2357 C2366 1.511 . S
C2358 C2357 1.376 . S
C2358 C2359 1.392 . S
C2358 H2379 0.931 . S
C2359 C2358 1.392 . S
C2359 C2360 1.361 . S
C2359 C2361 1.500 . S
C2360 C2355 1.390 . S
C2360 C2359 1.361 . S
C2360 H2378 0.931 . S
C2361 C2359 1.500 . S
C2361 C2362 1.371 . S
C2361 C2363 1.365 . S
C2362 C2361 1.371 . S
C2362 C2372 1.386 . S
C2362 H2380 0.931 . S
C2363 C2361 1.365 . S
C2363 C2364 1.409 . S
C2363 H2381 0.929 . S
C2364 C2363 1.409 . S
C2364 C2365 1.380 . S
C2364 H2382 0.930 . S
C2365 C2364 1.380 . S
C2365 C2372 1.357 . S
C2366 C2357 1.511 . S
C2366 C2367 1.341 . S
C2366 C2368 1.371 . S
C2367 C2366 1.341 . S
C2367 C2371 1.394 . S
C2367 H2383 0.930 . S
C2368 C2366 1.371 . S
C2368 C2369 1.392 . S
C2368 H2384 0.931 . S
C2369 C2368 1.392 . S
C2369 C2370 1.331 . S
C2369 H2387 0.932 . S
C2370 C2369 1.331 . S
C2370 C2371 1.336 . S
C2371 C2367 1.394 . S
C2371 C2370 1.336 . S
C2371 H2386 0.929 . S
C2372 C2362 1.386 . S
C2372 C2365 1.357 . S
C2372 H2385 0.928 . S
H2373 C2349 0.931 . S
H2374 C2351 0.930 . S
H2375 C2353 0.929 . S
H2376 C2354 0.931 . S
H2377 C2356 0.930 . S
H2378 C2360 0.931 . S
H2379 C2358 0.931 . S
H2380 C2362 0.931 . S
H2381 C2363 0.929 . S
H2382 C2364 0.930 . S
H2383 C2367 0.930 . S
H2384 C2368 0.931 . S
H2385 C2372 0.928 . S
H2386 C2371 0.929 . S
H2387 C2369 0.932 . S
C2388 C2389 1.386 . S
C2388 C2390 1.397 . S
C2388 H2412 0.931 . S
C2389 C2388 1.386 . S
C2389 C2393 1.397 . S
C2390 C2388 1.397 . S
C2390 C2391 1.384 . S
C2390 H2413 0.930 . S
C2391 C2390 1.384 . S
C2391 C2392 1.377 . S
C2391 C2394 1.481 . S
C2392 C2391 1.377 . S
C2392 C2393 1.389 . S
C2392 H2414 0.929 . S
C2393 C2389 1.397 . S
C2393 C2392 1.389 . S
C2393 H2415 0.931 . S
C2394 C2391 1.481 . S
C2394 C2395 1.387 . S
C2394 C2399 1.390 . S
C2395 C2394 1.387 . S
C2395 C2396 1.401 . S
C2395 H2416 0.930 . S
C2396 C2395 1.401 . S
C2396 C2397 1.376 . S
C2396 C2405 1.511 . S
C2397 C2396 1.376 . S
C2397 C2398 1.392 . S
C2397 H2418 0.931 . S
C2398 C2397 1.392 . S
C2398 C2399 1.361 . S
C2398 C2400 1.500 . S
C2399 C2394 1.390 . S
C2399 C2398 1.361 . S
C2399 H2417 0.931 . S
C2400 C2398 1.500 . S
C2400 C2401 1.371 . S
C2400 C2402 1.365 . S
C2401 C2400 1.371 . S
C2401 C2411 1.386 . S
C2401 H2419 0.931 . S
C2402 C2400 1.365 . S
C2402 C2403 1.409 . S
C2402 H2420 0.929 . S
C2403 C2402 1.409 . S
C2403 C2404 1.380 . S
C2403 H2421 0.930 . S
C2404 C2403 1.380 . S
C2404 C2411 1.357 . S
C2405 C2396 1.511 . S
C2405 C2406 1.341 . S
C2405 C2407 1.371 . S
C2406 C2405 1.341 . S
C2406 C2410 1.394 . S
C2406 H2422 0.930 . S
C2407 C2405 1.371 . S
C2407 C2408 1.392 . S
C2407 H2423 0.931 . S
C2408 C2407 1.392 . S
C2408 C2409 1.331 . S
C2408 H2426 0.932 . S
C2409 C2408 1.331 . S
C2409 C2410 1.336 . S
C2410 C2406 1.394 . S
C2410 C2409 1.336 . S
C2410 H2425 0.929 . S
C2411 C2401 1.386 . S
C2411 C2404 1.357 . S
C2411 H2424 0.928 . S
H2412 C2388 0.931 . S
H2413 C2390 0.930 . S
H2414 C2392 0.929 . S
H2415 C2393 0.931 . S
H2416 C2395 0.930 . S
H2417 C2399 0.931 . S
H2418 C2397 0.931 . S
H2419 C2401 0.931 . S
H2420 C2402 0.929 . S
H2421 C2403 0.930 . S
H2422 C2406 0.930 . S
H2423 C2407 0.931 . S
H2424 C2411 0.928 . S
H2425 C2410 0.929 . S
H2426 C2408 0.932 . S
C2427 C2428 1.386 . S
C2427 C2429 1.397 . S
C2427 H2451 0.931 . S
C2428 C2427 1.386 . S
C2428 C2432 1.397 . S
C2429 C2427 1.397 . S
C2429 C2430 1.384 . S
C2429 H2452 0.930 . S
C2430 C2429 1.384 . S
C2430 C2431 1.377 . S
C2430 C2433 1.481 . S
C2431 C2430 1.377 . S
C2431 C2432 1.389 . S
C2431 H2453 0.929 . S
C2432 C2428 1.397 . S
C2432 C2431 1.389 . S
C2432 H2454 0.931 . S
C2433 C2430 1.481 . S
C2433 C2434 1.387 . S
C2433 C2438 1.390 . S
C2434 C2433 1.387 . S
C2434 C2435 1.401 . S
C2434 H2455 0.930 . S
C2435 C2434 1.401 . S
C2435 C2436 1.376 . S
C2435 C2444 1.511 . S
C2436 C2435 1.376 . S
C2436 C2437 1.392 . S
C2436 H2457 0.931 . S
C2437 C2436 1.392 . S
C2437 C2438 1.361 . S
C2437 C2439 1.500 . S
C2438 C2433 1.390 . S
C2438 C2437 1.361 . S
C2438 H2456 0.931 . S
C2439 C2437 1.500 . S
C2439 C2440 1.371 . S
C2439 C2441 1.365 . S
C2440 C2439 1.371 . S
C2440 C2450 1.386 . S
C2440 H2458 0.931 . S
C2441 C2439 1.365 . S
C2441 C2442 1.409 . S
C2441 H2459 0.929 . S
C2442 C2441 1.409 . S
C2442 C2443 1.380 . S
C2442 H2460 0.930 . S
C2443 C2442 1.380 . S
C2443 C2450 1.357 . S
C2444 C2435 1.511 . S
C2444 C2445 1.341 . S
C2444 C2446 1.371 . S
C2445 C2444 1.341 . S
C2445 C2449 1.394 . S
C2445 H2461 0.930 . S
C2446 C2444 1.371 . S
C2446 C2447 1.392 . S
C2446 H2462 0.931 . S
C2447 C2446 1.392 . S
C2447 C2448 1.331 . S
C2447 H2465 0.932 . S
C2448 C2447 1.331 . S
C2448 C2449 1.336 . S
C2449 C2445 1.394 . S
C2449 C2448 1.336 . S
C2449 H2464 0.929 . S
C2450 C2440 1.386 . S
C2450 C2443 1.357 . S
C2450 H2463 0.928 . S
H2451 C2427 0.931 . S
H2452 C2429 0.930 . S
H2453 C2431 0.929 . S
H2454 C2432 0.931 . S
H2455 C2434 0.930 . S
H2456 C2438 0.931 . S
H2457 C2436 0.931 . S
H2458 C2440 0.931 . S
H2459 C2441 0.929 . S
H2460 C2442 0.930 . S
H2461 C2445 0.930 . S
H2462 C2446 0.931 . S
H2463 C2450 0.928 . S
H2464 C2449 0.929 . S
H2465 C2447 0.932 . S
C2466 C2467 1.386 . S
C2466 C2468 1.397 . S
C2466 H2490 0.931 . S
C2467 C2466 1.386 . S
C2467 C2471 1.397 . S
C2468 C2466 1.397 . S
C2468 C2469 1.384 . S
C2468 H2491 0.930 . S
C2469 C2468 1.384 . S
C2469 C2470 1.377 . S
C2469 C2472 1.481 . S
C2470 C2469 1.377 . S
C2470 C2471 1.389 . S
C2470 H2492 0.929 . S
C2471 C2467 1.397 . S
C2471 C2470 1.389 . S
C2471 H2493 0.931 . S
C2472 C2469 1.481 . S
C2472 C2473 1.387 . S
C2472 C2477 1.390 . S
C2473 C2472 1.387 . S
C2473 C2474 1.401 . S
C2473 H2494 0.930 . S
C2474 C2473 1.401 . S
C2474 C2475 1.376 . S
C2474 C2483 1.511 . S
C2475 C2474 1.376 . S
C2475 C2476 1.392 . S
C2475 H2496 0.931 . S
C2476 C2475 1.392 . S
C2476 C2477 1.361 . S
C2476 C2478 1.500 . S
C2477 C2472 1.390 . S
C2477 C2476 1.361 . S
C2477 H2495 0.931 . S
C2478 C2476 1.500 . S
C2478 C2479 1.371 . S
C2478 C2480 1.365 . S
C2479 C2478 1.371 . S
C2479 C2489 1.386 . S
C2479 H2497 0.931 . S
C2480 C2478 1.365 . S
C2480 C2481 1.409 . S
C2480 H2498 0.929 . S
C2481 C2480 1.409 . S
C2481 C2482 1.380 . S
C2481 H2499 0.930 . S
C2482 C2481 1.380 . S
C2482 C2489 1.357 . S
C2483 C2474 1.511 . S
C2483 C2484 1.341 . S
C2483 C2485 1.371 . S
C2484 C2483 1.341 . S
C2484 C2488 1.394 . S
C2484 H2500 0.930 . S
C2485 C2483 1.371 . S
C2485 C2486 1.392 . S
C2485 H2501 0.931 . S
C2486 C2485 1.392 . S
C2486 C2487 1.331 . S
C2486 H2504 0.932 . S
C2487 C2486 1.331 . S
C2487 C2488 1.336 . S
C2488 C2484 1.394 . S
C2488 C2487 1.336 . S
C2488 H2503 0.929 . S
C2489 C2479 1.386 . S
C2489 C2482 1.357 . S
C2489 H2502 0.928 . S
H2490 C2466 0.931 . S
H2491 C2468 0.930 . S
H2492 C2470 0.929 . S
H2493 C2471 0.931 . S
H2494 C2473 0.930 . S
H2495 C2477 0.931 . S
H2496 C2475 0.931 . S
H2497 C2479 0.931 . S
H2498 C2480 0.929 . S
H2499 C2481 0.930 . S
H2500 C2484 0.930 . S
H2501 C2485 0.931 . S
H2502 C2489 0.928 . S
H2503 C2488 0.929 . S
H2504 C2486 0.932 . S
C2505 C2506 1.386 . S
C2505 C2507 1.397 . S
C2505 H2529 0.931 . S
C2506 C2505 1.386 . S
C2506 C2510 1.397 . S
C2507 C2505 1.397 . S
C2507 C2508 1.384 . S
C2507 H2530 0.930 . S
C2508 C2507 1.384 . S
C2508 C2509 1.377 . S
C2508 C2511 1.481 . S
C2509 C2508 1.377 . S
C2509 C2510 1.389 . S
C2509 H2531 0.929 . S
C2510 C2506 1.397 . S
C2510 C2509 1.389 . S
C2510 H2532 0.931 . S
C2511 C2508 1.481 . S
C2511 C2512 1.387 . S
C2511 C2516 1.390 . S
C2512 C2511 1.387 . S
C2512 C2513 1.401 . S
C2512 H2533 0.930 . S
C2513 C2512 1.401 . S
C2513 C2514 1.376 . S
C2513 C2522 1.511 . S
C2514 C2513 1.376 . S
C2514 C2515 1.392 . S
C2514 H2535 0.931 . S
C2515 C2514 1.392 . S
C2515 C2516 1.361 . S
C2515 C2517 1.500 . S
C2516 C2511 1.390 . S
C2516 C2515 1.361 . S
C2516 H2534 0.931 . S
C2517 C2515 1.500 . S
C2517 C2518 1.371 . S
C2517 C2519 1.365 . S
C2518 C2517 1.371 . S
C2518 C2528 1.386 . S
C2518 H2536 0.931 . S
C2519 C2517 1.365 . S
C2519 C2520 1.409 . S
C2519 H2537 0.929 . S
C2520 C2519 1.409 . S
C2520 C2521 1.380 . S
C2520 H2538 0.930 . S
C2521 C2520 1.380 . S
C2521 C2528 1.357 . S
C2522 C2513 1.511 . S
C2522 C2523 1.341 . S
C2522 C2524 1.371 . S
C2523 C2522 1.341 . S
C2523 C2527 1.394 . S
C2523 H2539 0.930 . S
C2524 C2522 1.371 . S
C2524 C2525 1.392 . S
C2524 H2540 0.931 . S
C2525 C2524 1.392 . S
C2525 C2526 1.331 . S
C2525 H2543 0.932 . S
C2526 C2525 1.331 . S
C2526 C2527 1.336 . S
C2527 C2523 1.394 . S
C2527 C2526 1.336 . S
C2527 H2542 0.929 . S
C2528 C2518 1.386 . S
C2528 C2521 1.357 . S
C2528 H2541 0.928 . S
H2529 C2505 0.931 . S
H2530 C2507 0.930 . S
H2531 C2509 0.929 . S
H2532 C2510 0.931 . S
H2533 C2512 0.930 . S
H2534 C2516 0.931 . S
H2535 C2514 0.931 . S
H2536 C2518 0.931 . S
H2537 C2519 0.929 . S
H2538 C2520 0.930 . S
H2539 C2523 0.930 . S
H2540 C2524 0.931 . S
H2541 C2528 0.928 . S
H2542 C2527 0.929 . S
H2543 C2525 0.932 . S
C2544 C2545 1.386 . S
C2544 C2546 1.397 . S
C2544 H2568 0.931 . S
C2545 C2544 1.386 . S
C2545 C2549 1.397 . S
C2546 C2544 1.397 . S
C2546 C2547 1.384 . S
C2546 H2569 0.930 . S
C2547 C2546 1.384 . S
C2547 C2548 1.377 . S
C2547 C2550 1.481 . S
C2548 C2547 1.377 . S
C2548 C2549 1.389 . S
C2548 H2570 0.929 . S
C2549 C2545 1.397 . S
C2549 C2548 1.389 . S
C2549 H2571 0.931 . S
C2550 C2547 1.481 . S
C2550 C2551 1.387 . S
C2550 C2555 1.390 . S
C2551 C2550 1.387 . S
C2551 C2552 1.401 . S
C2551 H2572 0.930 . S
C2552 C2551 1.401 . S
C2552 C2553 1.376 . S
C2552 C2561 1.511 . S
C2553 C2552 1.376 . S
C2553 C2554 1.392 . S
C2553 H2574 0.931 . S
C2554 C2553 1.392 . S
C2554 C2555 1.361 . S
C2554 C2556 1.500 . S
C2555 C2550 1.390 . S
C2555 C2554 1.361 . S
C2555 H2573 0.931 . S
C2556 C2554 1.500 . S
C2556 C2557 1.371 . S
C2556 C2558 1.365 . S
C2557 C2556 1.371 . S
C2557 C2567 1.386 . S
C2557 H2575 0.931 . S
C2558 C2556 1.365 . S
C2558 C2559 1.409 . S
C2558 H2576 0.929 . S
C2559 C2558 1.409 . S
C2559 C2560 1.380 . S
C2559 H2577 0.930 . S
C2560 C2559 1.380 . S
C2560 C2567 1.357 . S
C2561 C2552 1.511 . S
C2561 C2562 1.341 . S
C2561 C2563 1.371 . S
C2562 C2561 1.341 . S
C2562 C2566 1.394 . S
C2562 H2578 0.930 . S
C2563 C2561 1.371 . S
C2563 C2564 1.392 . S
C2563 H2579 0.931 . S
C2564 C2563 1.392 . S
C2564 C2565 1.331 . S
C2564 H2582 0.932 . S
C2565 C2564 1.331 . S
C2565 C2566 1.336 . S
C2566 C2562 1.394 . S
C2566 C2565 1.336 . S
C2566 H2581 0.929 . S
C2567 C2557 1.386 . S
C2567 C2560 1.357 . S
C2567 H2580 0.928 . S
H2568 C2544 0.931 . S
H2569 C2546 0.930 . S
H2570 C2548 0.929 . S
H2571 C2549 0.931 . S
H2572 C2551 0.930 . S
H2573 C2555 0.931 . S
H2574 C2553 0.931 . S
H2575 C2557 0.931 . S
H2576 C2558 0.929 . S
H2577 C2559 0.930 . S
H2578 C2562 0.930 . S
H2579 C2563 0.931 . S
H2580 C2567 0.928 . S
H2581 C2566 0.929 . S
H2582 C2564 0.932 . S
C2583 C2584 1.386 . S
C2583 C2585 1.397 . S
C2583 H2607 0.931 . S
C2584 C2583 1.386 . S
C2584 C2588 1.397 . S
C2585 C2583 1.397 . S
C2585 C2586 1.384 . S
C2585 H2608 0.930 . S
C2586 C2585 1.384 . S
C2586 C2587 1.377 . S
C2586 C2589 1.481 . S
C2587 C2586 1.377 . S
C2587 C2588 1.389 . S
C2587 H2609 0.929 . S
C2588 C2584 1.397 . S
C2588 C2587 1.389 . S
C2588 H2610 0.931 . S
C2589 C2586 1.481 . S
C2589 C2590 1.387 . S
C2589 C2594 1.390 . S
C2590 C2589 1.387 . S
C2590 C2591 1.401 . S
C2590 H2611 0.930 . S
C2591 C2590 1.401 . S
C2591 C2592 1.376 . S
C2591 C2600 1.511 . S
C2592 C2591 1.376 . S
C2592 C2593 1.392 . S
C2592 H2613 0.931 . S
C2593 C2592 1.392 . S
C2593 C2594 1.361 . S
C2593 C2595 1.500 . S
C2594 C2589 1.390 . S
C2594 C2593 1.361 . S
C2594 H2612 0.931 . S
C2595 C2593 1.500 . S
C2595 C2596 1.371 . S
C2595 C2597 1.365 . S
C2596 C2595 1.371 . S
C2596 C2606 1.386 . S
C2596 H2614 0.931 . S
C2597 C2595 1.365 . S
C2597 C2598 1.409 . S
C2597 H2615 0.929 . S
C2598 C2597 1.409 . S
C2598 C2599 1.380 . S
C2598 H2616 0.930 . S
C2599 C2598 1.380 . S
C2599 C2606 1.357 . S
C2600 C2591 1.511 . S
C2600 C2601 1.341 . S
C2600 C2602 1.371 . S
C2601 C2600 1.341 . S
C2601 C2605 1.394 . S
C2601 H2617 0.930 . S
C2602 C2600 1.371 . S
C2602 C2603 1.392 . S
C2602 H2618 0.931 . S
C2603 C2602 1.392 . S
C2603 C2604 1.331 . S
C2603 H2621 0.932 . S
C2604 C2603 1.331 . S
C2604 C2605 1.336 . S
C2605 C2601 1.394 . S
C2605 C2604 1.336 . S
C2605 H2620 0.929 . S
C2606 C2596 1.386 . S
C2606 C2599 1.357 . S
C2606 H2619 0.928 . S
H2607 C2583 0.931 . S
H2608 C2585 0.930 . S
H2609 C2587 0.929 . S
H2610 C2588 0.931 . S
H2611 C2590 0.930 . S
H2612 C2594 0.931 . S
H2613 C2592 0.931 . S
H2614 C2596 0.931 . S
H2615 C2597 0.929 . S
H2616 C2598 0.930 . S
H2617 C2601 0.930 . S
H2618 C2602 0.931 . S
H2619 C2606 0.928 . S
H2620 C2605 0.929 . S
H2621 C2603 0.932 . S
C2622 C2623 1.386 . S
C2622 C2624 1.397 . S
C2622 H2646 0.931 . S
C2623 C2622 1.386 . S
C2623 C2627 1.397 . S
C2624 C2622 1.397 . S
C2624 C2625 1.384 . S
C2624 H2647 0.930 . S
C2625 C2624 1.384 . S
C2625 C2626 1.377 . S
C2625 C2628 1.481 . S
C2626 C2625 1.377 . S
C2626 C2627 1.389 . S
C2626 H2648 0.929 . S
C2627 C2623 1.397 . S
C2627 C2626 1.389 . S
C2627 H2649 0.931 . S
C2628 C2625 1.481 . S
C2628 C2629 1.387 . S
C2628 C2633 1.390 . S
C2629 C2628 1.387 . S
C2629 C2630 1.401 . S
C2629 H2650 0.930 . S
C2630 C2629 1.401 . S
C2630 C2631 1.376 . S
C2630 C2639 1.511 . S
C2631 C2630 1.376 . S
C2631 C2632 1.392 . S
C2631 H2652 0.931 . S
C2632 C2631 1.392 . S
C2632 C2633 1.361 . S
C2632 C2634 1.500 . S
C2633 C2628 1.390 . S
C2633 C2632 1.361 . S
C2633 H2651 0.931 . S
C2634 C2632 1.500 . S
C2634 C2635 1.371 . S
C2634 C2636 1.365 . S
C2635 C2634 1.371 . S
C2635 C2645 1.386 . S
C2635 H2653 0.931 . S
C2636 C2634 1.365 . S
C2636 C2637 1.409 . S
C2636 H2654 0.929 . S
C2637 C2636 1.409 . S
C2637 C2638 1.380 . S
C2637 H2655 0.930 . S
C2638 C2637 1.380 . S
C2638 C2645 1.357 . S
C2639 C2630 1.511 . S
C2639 C2640 1.341 . S
C2639 C2641 1.371 . S
C2640 C2639 1.341 . S
C2640 C2644 1.394 . S
C2640 H2656 0.930 . S
C2641 C2639 1.371 . S
C2641 C2642 1.392 . S
C2641 H2657 0.931 . S
C2642 C2641 1.392 . S
C2642 C2643 1.331 . S
C2642 H2660 0.932 . S
C2643 C2642 1.331 . S
C2643 C2644 1.336 . S
C2644 C2640 1.394 . S
C2644 C2643 1.336 . S
C2644 H2659 0.929 . S
C2645 C2635 1.386 . S
C2645 C2638 1.357 . S
C2645 H2658 0.928 . S
H2646 C2622 0.931 . S
H2647 C2624 0.930 . S
H2648 C2626 0.929 . S
H2649 C2627 0.931 . S
H2650 C2629 0.930 . S
H2651 C2633 0.931 . S
H2652 C2631 0.931 . S
H2653 C2635 0.931 . S
H2654 C2636 0.929 . S
H2655 C2637 0.930 . S
H2656 C2640 0.930 . S
H2657 C2641 0.931 . S
H2658 C2645 0.928 . S
H2659 C2644 0.929 . S
H2660 C2642 0.932 . S
C2661 C2662 1.386 . S
C2661 C2663 1.397 . S
C2661 H2685 0.931 . S
C2662 C2661 1.386 . S
C2662 C2666 1.397 . S
C2663 C2661 1.397 . S
C2663 C2664 1.384 . S
C2663 H2686 0.930 . S
C2664 C2663 1.384 . S
C2664 C2665 1.377 . S
C2664 C2667 1.481 . S
C2665 C2664 1.377 . S
C2665 C2666 1.389 . S
C2665 H2687 0.929 . S
C2666 C2662 1.397 . S
C2666 C2665 1.389 . S
C2666 H2688 0.931 . S
C2667 C2664 1.481 . S
C2667 C2668 1.387 . S
C2667 C2672 1.390 . S
C2668 C2667 1.387 . S
C2668 C2669 1.401 . S
C2668 H2689 0.930 . S
C2669 C2668 1.401 . S
C2669 C2670 1.376 . S
C2669 C2678 1.511 . S
C2670 C2669 1.376 . S
C2670 C2671 1.392 . S
C2670 H2691 0.931 . S
C2671 C2670 1.392 . S
C2671 C2672 1.361 . S
C2671 C2673 1.500 . S
C2672 C2667 1.390 . S
C2672 C2671 1.361 . S
C2672 H2690 0.931 . S
C2673 C2671 1.500 . S
C2673 C2674 1.371 . S
C2673 C2675 1.365 . S
C2674 C2673 1.371 . S
C2674 C2684 1.386 . S
C2674 H2692 0.931 . S
C2675 C2673 1.365 . S
C2675 C2676 1.409 . S
C2675 H2693 0.929 . S
C2676 C2675 1.409 . S
C2676 C2677 1.380 . S
C2676 H2694 0.930 . S
C2677 C2676 1.380 . S
C2677 C2684 1.357 . S
C2678 C2669 1.511 . S
C2678 C2679 1.341 . S
C2678 C2680 1.371 . S
C2679 C2678 1.341 . S
C2679 C2683 1.394 . S
C2679 H2695 0.930 . S
C2680 C2678 1.371 . S
C2680 C2681 1.392 . S
C2680 H2696 0.931 . S
C2681 C2680 1.392 . S
C2681 C2682 1.331 . S
C2681 H2699 0.932 . S
C2682 C2681 1.331 . S
C2682 C2683 1.336 . S
C2683 C2679 1.394 . S
C2683 C2682 1.336 . S
C2683 H2698 0.929 . S
C2684 C2674 1.386 . S
C2684 C2677 1.357 . S
C2684 H2697 0.928 . S
H2685 C2661 0.931 . S
H2686 C2663 0.930 . S
H2687 C2665 0.929 . S
H2688 C2666 0.931 . S
H2689 C2668 0.930 . S
H2690 C2672 0.931 . S
H2691 C2670 0.931 . S
H2692 C2674 0.931 . S
H2693 C2675 0.929 . S
H2694 C2676 0.930 . S
H2695 C2679 0.930 . S
H2696 C2680 0.931 . S
H2697 C2684 0.928 . S
H2698 C2683 0.929 . S
H2699 C2681 0.932 . S
C2700 C2701 1.386 . S
C2700 C2702 1.397 . S
C2700 H2724 0.931 . S
C2701 C2700 1.386 . S
C2701 C2705 1.397 . S
C2702 C2700 1.397 . S
C2702 C2703 1.384 . S
C2702 H2725 0.930 . S
C2703 C2702 1.384 . S
C2703 C2704 1.377 . S
C2703 C2706 1.481 . S
C2704 C2703 1.377 . S
C2704 C2705 1.389 . S
C2704 H2726 0.929 . S
C2705 C2701 1.397 . S
C2705 C2704 1.389 . S
C2705 H2727 0.931 . S
C2706 C2703 1.481 . S
C2706 C2707 1.387 . S
C2706 C2711 1.390 . S
C2707 C2706 1.387 . S
C2707 C2708 1.401 . S
C2707 H2728 0.930 . S
C2708 C2707 1.401 . S
C2708 C2709 1.376 . S
C2708 C2717 1.511 . S
C2709 C2708 1.376 . S
C2709 C2710 1.392 . S
C2709 H2730 0.931 . S
C2710 C2709 1.392 . S
C2710 C2711 1.361 . S
C2710 C2712 1.500 . S
C2711 C2706 1.390 . S
C2711 C2710 1.361 . S
C2711 H2729 0.931 . S
C2712 C2710 1.500 . S
C2712 C2713 1.371 . S
C2712 C2714 1.365 . S
C2713 C2712 1.371 . S
C2713 C2723 1.386 . S
C2713 H2731 0.931 . S
C2714 C2712 1.365 . S
C2714 C2715 1.409 . S
C2714 H2732 0.929 . S
C2715 C2714 1.409 . S
C2715 C2716 1.380 . S
C2715 H2733 0.930 . S
C2716 C2715 1.380 . S
C2716 C2723 1.357 . S
C2717 C2708 1.511 . S
C2717 C2718 1.341 . S
C2717 C2719 1.371 . S
C2718 C2717 1.341 . S
C2718 C2722 1.394 . S
C2718 H2734 0.930 . S
C2719 C2717 1.371 . S
C2719 C2720 1.392 . S
C2719 H2735 0.931 . S
C2720 C2719 1.392 . S
C2720 C2721 1.331 . S
C2720 H2738 0.932 . S
C2721 C2720 1.331 . S
C2721 C2722 1.336 . S
C2722 C2718 1.394 . S
C2722 C2721 1.336 . S
C2722 H2737 0.929 . S
C2723 C2713 1.386 . S
C2723 C2716 1.357 . S
C2723 H2736 0.928 . S
H2724 C2700 0.931 . S
H2725 C2702 0.930 . S
H2726 C2704 0.929 . S
H2727 C2705 0.931 . S
H2728 C2707 0.930 . S
H2729 C2711 0.931 . S
H2730 C2709 0.931 . S
H2731 C2713 0.931 . S
H2732 C2714 0.929 . S
H2733 C2715 0.930 . S
H2734 C2718 0.930 . S
H2735 C2719 0.931 . S
H2736 C2723 0.928 . S
H2737 C2722 0.929 . S
H2738 C2720 0.932 . S
C2739 C2740 1.386 . S
C2739 C2741 1.397 . S
C2739 H2763 0.931 . S
C2740 C2739 1.386 . S
C2740 C2744 1.397 . S
C2741 C2739 1.397 . S
C2741 C2742 1.384 . S
C2741 H2764 0.930 . S
C2742 C2741 1.384 . S
C2742 C2743 1.377 . S
C2742 C2745 1.481 . S
C2743 C2742 1.377 . S
C2743 C2744 1.389 . S
C2743 H2765 0.929 . S
C2744 C2740 1.397 . S
C2744 C2743 1.389 . S
C2744 H2766 0.931 . S
C2745 C2742 1.481 . S
C2745 C2746 1.387 . S
C2745 C2750 1.390 . S
C2746 C2745 1.387 . S
C2746 C2747 1.401 . S
C2746 H2767 0.930 . S
C2747 C2746 1.401 . S
C2747 C2748 1.376 . S
C2747 C2756 1.511 . S
C2748 C2747 1.376 . S
C2748 C2749 1.392 . S
C2748 H2769 0.931 . S
C2749 C2748 1.392 . S
C2749 C2750 1.361 . S
C2749 C2751 1.500 . S
C2750 C2745 1.390 . S
C2750 C2749 1.361 . S
C2750 H2768 0.931 . S
C2751 C2749 1.500 . S
C2751 C2752 1.371 . S
C2751 C2753 1.365 . S
C2752 C2751 1.371 . S
C2752 C2762 1.386 . S
C2752 H2770 0.931 . S
C2753 C2751 1.365 . S
C2753 C2754 1.409 . S
C2753 H2771 0.929 . S
C2754 C2753 1.409 . S
C2754 C2755 1.380 . S
C2754 H2772 0.930 . S
C2755 C2754 1.380 . S
C2755 C2762 1.357 . S
C2756 C2747 1.511 . S
C2756 C2757 1.341 . S
C2756 C2758 1.371 . S
C2757 C2756 1.341 . S
C2757 C2761 1.394 . S
C2757 H2773 0.930 . S
C2758 C2756 1.371 . S
C2758 C2759 1.392 . S
C2758 H2774 0.931 . S
C2759 C2758 1.392 . S
C2759 C2760 1.331 . S
C2759 H2777 0.932 . S
C2760 C2759 1.331 . S
C2760 C2761 1.336 . S
C2761 C2757 1.394 . S
C2761 C2760 1.336 . S
C2761 H2776 0.929 . S
C2762 C2752 1.386 . S
C2762 C2755 1.357 . S
C2762 H2775 0.928 . S
H2763 C2739 0.931 . S
H2764 C2741 0.930 . S
H2765 C2743 0.929 . S
H2766 C2744 0.931 . S
H2767 C2746 0.930 . S
H2768 C2750 0.931 . S
H2769 C2748 0.931 . S
H2770 C2752 0.931 . S
H2771 C2753 0.929 . S
H2772 C2754 0.930 . S
H2773 C2757 0.930 . S
H2774 C2758 0.931 . S
H2775 C2762 0.928 . S
H2776 C2761 0.929 . S
H2777 C2759 0.932 . S
C2778 C2779 1.386 . S
C2778 C2780 1.397 . S
C2778 H2802 0.931 . S
C2779 C2778 1.386 . S
C2779 C2783 1.397 . S
C2780 C2778 1.397 . S
C2780 C2781 1.384 . S
C2780 H2803 0.930 . S
C2781 C2780 1.384 . S
C2781 C2782 1.377 . S
C2781 C2784 1.481 . S
C2782 C2781 1.377 . S
C2782 C2783 1.389 . S
C2782 H2804 0.929 . S
C2783 C2779 1.397 . S
C2783 C2782 1.389 . S
C2783 H2805 0.931 . S
C2784 C2781 1.481 . S
C2784 C2785 1.387 . S
C2784 C2789 1.390 . S
C2785 C2784 1.387 . S
C2785 C2786 1.401 . S
C2785 H2806 0.930 . S
C2786 C2785 1.401 . S
C2786 C2787 1.376 . S
C2786 C2795 1.511 . S
C2787 C2786 1.376 . S
C2787 C2788 1.392 . S
C2787 H2808 0.931 . S
C2788 C2787 1.392 . S
C2788 C2789 1.361 . S
C2788 C2790 1.500 . S
C2789 C2784 1.390 . S
C2789 C2788 1.361 . S
C2789 H2807 0.931 . S
C2790 C2788 1.500 . S
C2790 C2791 1.371 . S
C2790 C2792 1.365 . S
C2791 C2790 1.371 . S
C2791 C2801 1.386 . S
C2791 H2809 0.931 . S
C2792 C2790 1.365 . S
C2792 C2793 1.409 . S
C2792 H2810 0.929 . S
C2793 C2792 1.409 . S
C2793 C2794 1.380 . S
C2793 H2811 0.930 . S
C2794 C2793 1.380 . S
C2794 C2801 1.357 . S
C2795 C2786 1.511 . S
C2795 C2796 1.341 . S
C2795 C2797 1.371 . S
C2796 C2795 1.341 . S
C2796 C2800 1.394 . S
C2796 H2812 0.930 . S
C2797 C2795 1.371 . S
C2797 C2798 1.392 . S
C2797 H2813 0.931 . S
C2798 C2797 1.392 . S
C2798 C2799 1.331 . S
C2798 H2816 0.932 . S
C2799 C2798 1.331 . S
C2799 C2800 1.336 . S
C2800 C2796 1.394 . S
C2800 C2799 1.336 . S
C2800 H2815 0.929 . S
C2801 C2791 1.386 . S
C2801 C2794 1.357 . S
C2801 H2814 0.928 . S
H2802 C2778 0.931 . S
H2803 C2780 0.930 . S
H2804 C2782 0.929 . S
H2805 C2783 0.931 . S
H2806 C2785 0.930 . S
H2807 C2789 0.931 . S
H2808 C2787 0.931 . S
H2809 C2791 0.931 . S
H2810 C2792 0.929 . S
H2811 C2793 0.930 . S
H2812 C2796 0.930 . S
H2813 C2797 0.931 . S
H2814 C2801 0.928 . S
H2815 C2800 0.929 . S
H2816 C2798 0.932 . S
C2817 C2818 1.386 . S
C2817 C2819 1.397 . S
C2817 H2841 0.931 . S
C2818 C2817 1.386 . S
C2818 C2822 1.397 . S
C2819 C2817 1.397 . S
C2819 C2820 1.384 . S
C2819 H2842 0.930 . S
C2820 C2819 1.384 . S
C2820 C2821 1.377 . S
C2820 C2823 1.481 . S
C2821 C2820 1.377 . S
C2821 C2822 1.389 . S
C2821 H2843 0.929 . S
C2822 C2818 1.397 . S
C2822 C2821 1.389 . S
C2822 H2844 0.931 . S
C2823 C2820 1.481 . S
C2823 C2824 1.387 . S
C2823 C2828 1.390 . S
C2824 C2823 1.387 . S
C2824 C2825 1.401 . S
C2824 H2845 0.930 . S
C2825 C2824 1.401 . S
C2825 C2826 1.376 . S
C2825 C2834 1.511 . S
C2826 C2825 1.376 . S
C2826 C2827 1.392 . S
C2826 H2847 0.931 . S
C2827 C2826 1.392 . S
C2827 C2828 1.361 . S
C2827 C2829 1.500 . S
C2828 C2823 1.390 . S
C2828 C2827 1.361 . S
C2828 H2846 0.931 . S
C2829 C2827 1.500 . S
C2829 C2830 1.371 . S
C2829 C2831 1.365 . S
C2830 C2829 1.371 . S
C2830 C2840 1.386 . S
C2830 H2848 0.931 . S
C2831 C2829 1.365 . S
C2831 C2832 1.409 . S
C2831 H2849 0.929 . S
C2832 C2831 1.409 . S
C2832 C2833 1.380 . S
C2832 H2850 0.930 . S
C2833 C2832 1.380 . S
C2833 C2840 1.357 . S
C2834 C2825 1.511 . S
C2834 C2835 1.341 . S
C2834 C2836 1.371 . S
C2835 C2834 1.341 . S
C2835 C2839 1.394 . S
C2835 H2851 0.930 . S
C2836 C2834 1.371 . S
C2836 C2837 1.392 . S
C2836 H2852 0.931 . S
C2837 C2836 1.392 . S
C2837 C2838 1.331 . S
C2837 H2855 0.932 . S
C2838 C2837 1.331 . S
C2838 C2839 1.336 . S
C2839 C2835 1.394 . S
C2839 C2838 1.336 . S
C2839 H2854 0.929 . S
C2840 C2830 1.386 . S
C2840 C2833 1.357 . S
C2840 H2853 0.928 . S
H2841 C2817 0.931 . S
H2842 C2819 0.930 . S
H2843 C2821 0.929 . S
H2844 C2822 0.931 . S
H2845 C2824 0.930 . S
H2846 C2828 0.931 . S
H2847 C2826 0.931 . S
H2848 C2830 0.931 . S
H2849 C2831 0.929 . S
H2850 C2832 0.930 . S
H2851 C2835 0.930 . S
H2852 C2836 0.931 . S
H2853 C2840 0.928 . S
H2854 C2839 0.929 . S
H2855 C2837 0.932 . S
C2856 C2857 1.386 . S
C2856 C2858 1.397 . S
C2856 H2880 0.931 . S
C2857 C2856 1.386 . S
C2857 C2861 1.397 . S
C2858 C2856 1.397 . S
C2858 C2859 1.384 . S
C2858 H2881 0.930 . S
C2859 C2858 1.384 . S
C2859 C2860 1.377 . S
C2859 C2862 1.481 . S
C2860 C2859 1.377 . S
C2860 C2861 1.389 . S
C2860 H2882 0.929 . S
C2861 C2857 1.397 . S
C2861 C2860 1.389 . S
C2861 H2883 0.931 . S
C2862 C2859 1.481 . S
C2862 C2863 1.387 . S
C2862 C2867 1.390 . S
C2863 C2862 1.387 . S
C2863 C2864 1.401 . S
C2863 H2884 0.930 . S
C2864 C2863 1.401 . S
C2864 C2865 1.376 . S
C2864 C2873 1.511 . S
C2865 C2864 1.376 . S
C2865 C2866 1.392 . S
C2865 H2886 0.931 . S
C2866 C2865 1.392 . S
C2866 C2867 1.361 . S
C2866 C2868 1.500 . S
C2867 C2862 1.390 . S
C2867 C2866 1.361 . S
C2867 H2885 0.931 . S
C2868 C2866 1.500 . S
C2868 C2869 1.371 . S
C2868 C2870 1.365 . S
C2869 C2868 1.371 . S
C2869 C2879 1.386 . S
C2869 H2887 0.931 . S
C2870 C2868 1.365 . S
C2870 C2871 1.409 . S
C2870 H2888 0.929 . S
C2871 C2870 1.409 . S
C2871 C2872 1.380 . S
C2871 H2889 0.930 . S
C2872 C2871 1.380 . S
C2872 C2879 1.357 . S
C2873 C2864 1.511 . S
C2873 C2874 1.341 . S
C2873 C2875 1.371 . S
C2874 C2873 1.341 . S
C2874 C2878 1.394 . S
C2874 H2890 0.930 . S
C2875 C2873 1.371 . S
C2875 C2876 1.392 . S
C2875 H2891 0.931 . S
C2876 C2875 1.392 . S
C2876 C2877 1.331 . S
C2876 H2894 0.932 . S
C2877 C2876 1.331 . S
C2877 C2878 1.336 . S
C2878 C2874 1.394 . S
C2878 C2877 1.336 . S
C2878 H2893 0.929 . S
C2879 C2869 1.386 . S
C2879 C2872 1.357 . S
C2879 H2892 0.928 . S
H2880 C2856 0.931 . S
H2881 C2858 0.930 . S
H2882 C2860 0.929 . S
H2883 C2861 0.931 . S
H2884 C2863 0.930 . S
H2885 C2867 0.931 . S
H2886 C2865 0.931 . S
H2887 C2869 0.931 . S
H2888 C2870 0.929 . S
H2889 C2871 0.930 . S
H2890 C2874 0.930 . S
H2891 C2875 0.931 . S
H2892 C2879 0.928 . S
H2893 C2878 0.929 . S
H2894 C2876 0.932 . S
C2895 C2896 1.386 . S
C2895 C2897 1.397 . S
C2895 H2919 0.931 . S
C2896 C2895 1.386 . S
C2896 C2900 1.397 . S
C2897 C2895 1.397 . S
C2897 C2898 1.384 . S
C2897 H2920 0.930 . S
C2898 C2897 1.384 . S
C2898 C2899 1.377 . S
C2898 C2901 1.481 . S
C2899 C2898 1.377 . S
C2899 C2900 1.389 . S
C2899 H2921 0.929 . S
C2900 C2896 1.397 . S
C2900 C2899 1.389 . S
C2900 H2922 0.931 . S
C2901 C2898 1.481 . S
C2901 C2902 1.387 . S
C2901 C2906 1.390 . S
C2902 C2901 1.387 . S
C2902 C2903 1.401 . S
C2902 H2923 0.930 . S
C2903 C2902 1.401 . S
C2903 C2904 1.376 . S
C2903 C2912 1.511 . S
C2904 C2903 1.376 . S
C2904 C2905 1.392 . S
C2904 H2925 0.931 . S
C2905 C2904 1.392 . S
C2905 C2906 1.361 . S
C2905 C2907 1.500 . S
C2906 C2901 1.390 . S
C2906 C2905 1.361 . S
C2906 H2924 0.931 . S
C2907 C2905 1.500 . S
C2907 C2908 1.371 . S
C2907 C2909 1.365 . S
C2908 C2907 1.371 . S
C2908 C2918 1.386 . S
C2908 H2926 0.931 . S
C2909 C2907 1.365 . S
C2909 C2910 1.409 . S
C2909 H2927 0.929 . S
C2910 C2909 1.409 . S
C2910 C2911 1.380 . S
C2910 H2928 0.930 . S
C2911 C2910 1.380 . S
C2911 C2918 1.357 . S
C2912 C2903 1.511 . S
C2912 C2913 1.341 . S
C2912 C2914 1.371 . S
C2913 C2912 1.341 . S
C2913 C2917 1.394 . S
C2913 H2929 0.930 . S
C2914 C2912 1.371 . S
C2914 C2915 1.392 . S
C2914 H2930 0.931 . S
C2915 C2914 1.392 . S
C2915 C2916 1.331 . S
C2915 H2933 0.932 . S
C2916 C2915 1.331 . S
C2916 C2917 1.336 . S
C2917 C2913 1.394 . S
C2917 C2916 1.336 . S
C2917 H2932 0.929 . S
C2918 C2908 1.386 . S
C2918 C2911 1.357 . S
C2918 H2931 0.928 . S
H2919 C2895 0.931 . S
H2920 C2897 0.930 . S
H2921 C2899 0.929 . S
H2922 C2900 0.931 . S
H2923 C2902 0.930 . S
H2924 C2906 0.931 . S
H2925 C2904 0.931 . S
H2926 C2908 0.931 . S
H2927 C2909 0.929 . S
H2928 C2910 0.930 . S
H2929 C2913 0.930 . S
H2930 C2914 0.931 . S
H2931 C2918 0.928 . S
H2932 C2917 0.929 . S
H2933 C2915 0.932 . S
C2934 C2935 1.386 . S
C2934 C2936 1.397 . S
C2934 H2958 0.931 . S
C2935 C2934 1.386 . S
C2935 C2939 1.397 . S
C2936 C2934 1.397 . S
C2936 C2937 1.384 . S
C2936 H2959 0.930 . S
C2937 C2936 1.384 . S
C2937 C2938 1.377 . S
C2937 C2940 1.481 . S
C2938 C2937 1.377 . S
C2938 C2939 1.389 . S
C2938 H2960 0.929 . S
C2939 C2935 1.397 . S
C2939 C2938 1.389 . S
C2939 H2961 0.931 . S
C2940 C2937 1.481 . S
C2940 C2941 1.387 . S
C2940 C2945 1.390 . S
C2941 C2940 1.387 . S
C2941 C2942 1.401 . S
C2941 H2962 0.930 . S
C2942 C2941 1.401 . S
C2942 C2943 1.376 . S
C2942 C2951 1.511 . S
C2943 C2942 1.376 . S
C2943 C2944 1.392 . S
C2943 H2964 0.931 . S
C2944 C2943 1.392 . S
C2944 C2945 1.361 . S
C2944 C2946 1.500 . S
C2945 C2940 1.390 . S
C2945 C2944 1.361 . S
C2945 H2963 0.931 . S
C2946 C2944 1.500 . S
C2946 C2947 1.371 . S
C2946 C2948 1.365 . S
C2947 C2946 1.371 . S
C2947 C2957 1.386 . S
C2947 H2965 0.931 . S
C2948 C2946 1.365 . S
C2948 C2949 1.409 . S
C2948 H2966 0.929 . S
C2949 C2948 1.409 . S
C2949 C2950 1.380 . S
C2949 H2967 0.930 . S
C2950 C2949 1.380 . S
C2950 C2957 1.357 . S
C2951 C2942 1.511 . S
C2951 C2952 1.341 . S
C2951 C2953 1.371 . S
C2952 C2951 1.341 . S
C2952 C2956 1.394 . S
C2952 H2968 0.930 . S
C2953 C2951 1.371 . S
C2953 C2954 1.392 . S
C2953 H2969 0.931 . S
C2954 C2953 1.392 . S
C2954 C2955 1.331 . S
C2954 H2972 0.932 . S
C2955 C2954 1.331 . S
C2955 C2956 1.336 . S
C2956 C2952 1.394 . S
C2956 C2955 1.336 . S
C2956 H2971 0.929 . S
C2957 C2947 1.386 . S
C2957 C2950 1.357 . S
C2957 H2970 0.928 . S
H2958 C2934 0.931 . S
H2959 C2936 0.930 . S
H2960 C2938 0.929 . S
H2961 C2939 0.931 . S
H2962 C2941 0.930 . S
H2963 C2945 0.931 . S
H2964 C2943 0.931 . S
H2965 C2947 0.931 . S
H2966 C2948 0.929 . S
H2967 C2949 0.930 . S
H2968 C2952 0.930 . S
H2969 C2953 0.931 . S
H2970 C2957 0.928 . S
H2971 C2956 0.929 . S
H2972 C2954 0.932 . S
C2973 C2974 1.386 . S
C2973 C2975 1.397 . S
C2973 H2997 0.931 . S
C2974 C2973 1.386 . S
C2974 C2978 1.397 . S
C2975 C2973 1.397 . S
C2975 C2976 1.384 . S
C2975 H2998 0.930 . S
C2976 C2975 1.384 . S
C2976 C2977 1.377 . S
C2976 C2979 1.481 . S
C2977 C2976 1.377 . S
C2977 C2978 1.389 . S
C2977 H2999 0.929 . S
C2978 C2974 1.397 . S
C2978 C2977 1.389 . S
C2978 H3000 0.931 . S
C2979 C2976 1.481 . S
C2979 C2980 1.387 . S
C2979 C2984 1.390 . S
C2980 C2979 1.387 . S
C2980 C2981 1.401 . S
C2980 H3001 0.930 . S
C2981 C2980 1.401 . S
C2981 C2982 1.376 . S
C2981 C2990 1.511 . S
C2982 C2981 1.376 . S
C2982 C2983 1.392 . S
C2982 H3003 0.931 . S
C2983 C2982 1.392 . S
C2983 C2984 1.361 . S
C2983 C2985 1.500 . S
C2984 C2979 1.390 . S
C2984 C2983 1.361 . S
C2984 H3002 0.931 . S
C2985 C2983 1.500 . S
C2985 C2986 1.371 . S
C2985 C2987 1.365 . S
C2986 C2985 1.371 . S
C2986 C2996 1.386 . S
C2986 H3004 0.931 . S
C2987 C2985 1.365 . S
C2987 C2988 1.409 . S
C2987 H3005 0.929 . S
C2988 C2987 1.409 . S
C2988 C2989 1.380 . S
C2988 H3006 0.930 . S
C2989 C2988 1.380 . S
C2989 C2996 1.357 . S
C2990 C2981 1.511 . S
C2990 C2991 1.341 . S
C2990 C2992 1.371 . S
C2991 C2990 1.341 . S
C2991 C2995 1.394 . S
C2991 H3007 0.930 . S
C2992 C2990 1.371 . S
C2992 C2993 1.392 . S
C2992 H3008 0.931 . S
C2993 C2992 1.392 . S
C2993 C2994 1.331 . S
C2993 H3011 0.932 . S
C2994 C2993 1.331 . S
C2994 C2995 1.336 . S
C2995 C2991 1.394 . S
C2995 C2994 1.336 . S
C2995 H3010 0.929 . S
C2996 C2986 1.386 . S
C2996 C2989 1.357 . S
C2996 H3009 0.928 . S
H2997 C2973 0.931 . S
H2998 C2975 0.930 . S
H2999 C2977 0.929 . S
H3000 C2978 0.931 . S
H3001 C2980 0.930 . S
H3002 C2984 0.931 . S
H3003 C2982 0.931 . S
H3004 C2986 0.931 . S
H3005 C2987 0.929 . S
H3006 C2988 0.930 . S
H3007 C2991 0.930 . S
H3008 C2992 0.931 . S
H3009 C2996 0.928 . S
H3010 C2995 0.929 . S
H3011 C2993 0.932 . S
C3012 C3013 1.386 . S
C3012 C3014 1.397 . S
C3012 H3036 0.931 . S
C3013 C3012 1.386 . S
C3013 C3017 1.397 . S
C3014 C3012 1.397 . S
C3014 C3015 1.384 . S
C3014 H3037 0.930 . S
C3015 C3014 1.384 . S
C3015 C3016 1.377 . S
C3015 C3018 1.481 . S
C3016 C3015 1.377 . S
C3016 C3017 1.389 . S
C3016 H3038 0.929 . S
C3017 C3013 1.397 . S
C3017 C3016 1.389 . S
C3017 H3039 0.931 . S
C3018 C3015 1.481 . S
C3018 C3019 1.387 . S
C3018 C3023 1.390 . S
C3019 C3018 1.387 . S
C3019 C3020 1.401 . S
C3019 H3040 0.930 . S
C3020 C3019 1.401 . S
C3020 C3021 1.376 . S
C3020 C3029 1.511 . S
C3021 C3020 1.376 . S
C3021 C3022 1.392 . S
C3021 H3042 0.931 . S
C3022 C3021 1.392 . S
C3022 C3023 1.361 . S
C3022 C3024 1.500 . S
C3023 C3018 1.390 . S
C3023 C3022 1.361 . S
C3023 H3041 0.931 . S
C3024 C3022 1.500 . S
C3024 C3025 1.371 . S
C3024 C3026 1.365 . S
C3025 C3024 1.371 . S
C3025 C3035 1.386 . S
C3025 H3043 0.931 . S
C3026 C3024 1.365 . S
C3026 C3027 1.409 . S
C3026 H3044 0.929 . S
C3027 C3026 1.409 . S
C3027 C3028 1.380 . S
C3027 H3045 0.930 . S
C3028 C3027 1.380 . S
C3028 C3035 1.357 . S
C3029 C3020 1.511 . S
C3029 C3030 1.341 . S
C3029 C3031 1.371 . S
C3030 C3029 1.341 . S
C3030 C3034 1.394 . S
C3030 H3046 0.930 . S
C3031 C3029 1.371 . S
C3031 C3032 1.392 . S
C3031 H3047 0.931 . S
C3032 C3031 1.392 . S
C3032 C3033 1.331 . S
C3032 H3050 0.932 . S
C3033 C3032 1.331 . S
C3033 C3034 1.336 . S
C3034 C3030 1.394 . S
C3034 C3033 1.336 . S
C3034 H3049 0.929 . S
C3035 C3025 1.386 . S
C3035 C3028 1.357 . S
C3035 H3048 0.928 . S
H3036 C3012 0.931 . S
H3037 C3014 0.930 . S
H3038 C3016 0.929 . S
H3039 C3017 0.931 . S
H3040 C3019 0.930 . S
H3041 C3023 0.931 . S
H3042 C3021 0.931 . S
H3043 C3025 0.931 . S
H3044 C3026 0.929 . S
H3045 C3027 0.930 . S
H3046 C3030 0.930 . S
H3047 C3031 0.931 . S
H3048 C3035 0.928 . S
H3049 C3034 0.929 . S
H3050 C3032 0.932 . S
C3051 C3052 1.386 . S
C3051 C3053 1.397 . S
C3051 H3075 0.931 . S
C3052 C3051 1.386 . S
C3052 C3056 1.397 . S
C3053 C3051 1.397 . S
C3053 C3054 1.384 . S
C3053 H3076 0.930 . S
C3054 C3053 1.384 . S
C3054 C3055 1.377 . S
C3054 C3057 1.481 . S
C3055 C3054 1.377 . S
C3055 C3056 1.389 . S
C3055 H3077 0.929 . S
C3056 C3052 1.397 . S
C3056 C3055 1.389 . S
C3056 H3078 0.931 . S
C3057 C3054 1.481 . S
C3057 C3058 1.387 . S
C3057 C3062 1.390 . S
C3058 C3057 1.387 . S
C3058 C3059 1.401 . S
C3058 H3079 0.930 . S
C3059 C3058 1.401 . S
C3059 C3060 1.376 . S
C3059 C3068 1.511 . S
C3060 C3059 1.376 . S
C3060 C3061 1.392 . S
C3060 H3081 0.931 . S
C3061 C3060 1.392 . S
C3061 C3062 1.361 . S
C3061 C3063 1.500 . S
C3062 C3057 1.390 . S
C3062 C3061 1.361 . S
C3062 H3080 0.931 . S
C3063 C3061 1.500 . S
C3063 C3064 1.371 . S
C3063 C3065 1.365 . S
C3064 C3063 1.371 . S
C3064 C3074 1.386 . S
C3064 H3082 0.931 . S
C3065 C3063 1.365 . S
C3065 C3066 1.409 . S
C3065 H3083 0.929 . S
C3066 C3065 1.409 . S
C3066 C3067 1.380 . S
C3066 H3084 0.930 . S
C3067 C3066 1.380 . S
C3067 C3074 1.357 . S
C3068 C3059 1.511 . S
C3068 C3069 1.341 . S
C3068 C3070 1.371 . S
C3069 C3068 1.341 . S
C3069 C3073 1.394 . S
C3069 H3085 0.930 . S
C3070 C3068 1.371 . S
C3070 C3071 1.392 . S
C3070 H3086 0.931 . S
C3071 C3070 1.392 . S
C3071 C3072 1.331 . S
C3071 H3089 0.932 . S
C3072 C3071 1.331 . S
C3072 C3073 1.336 . S
C3073 C3069 1.394 . S
C3073 C3072 1.336 . S
C3073 H3088 0.929 . S
C3074 C3064 1.386 . S
C3074 C3067 1.357 . S
C3074 H3087 0.928 . S
H3075 C3051 0.931 . S
H3076 C3053 0.930 . S
H3077 C3055 0.929 . S
H3078 C3056 0.931 . S
H3079 C3058 0.930 . S
H3080 C3062 0.931 . S
H3081 C3060 0.931 . S
H3082 C3064 0.931 . S
H3083 C3065 0.929 . S
H3084 C3066 0.930 . S
H3085 C3069 0.930 . S
H3086 C3070 0.931 . S
H3087 C3074 0.928 . S
H3088 C3073 0.929 . S
H3089 C3071 0.932 . S
C3090 C3091 1.386 . S
C3090 C3092 1.397 . S
C3090 H3114 0.931 . S
C3091 C3090 1.386 . S
C3091 C3095 1.397 . S
C3092 C3090 1.397 . S
C3092 C3093 1.384 . S
C3092 H3115 0.930 . S
C3093 C3092 1.384 . S
C3093 C3094 1.377 . S
C3093 C3096 1.481 . S
C3094 C3093 1.377 . S
C3094 C3095 1.389 . S
C3094 H3116 0.929 . S
C3095 C3091 1.397 . S
C3095 C3094 1.389 . S
C3095 H3117 0.931 . S
C3096 C3093 1.481 . S
C3096 C3097 1.387 . S
C3096 C3101 1.390 . S
C3097 C3096 1.387 . S
C3097 C3098 1.401 . S
C3097 H3118 0.930 . S
C3098 C3097 1.401 . S
C3098 C3099 1.376 . S
C3098 C3107 1.511 . S
C3099 C3098 1.376 . S
C3099 C3100 1.392 . S
C3099 H3120 0.931 . S
C3100 C3099 1.392 . S
C3100 C3101 1.361 . S
C3100 C3102 1.500 . S
C3101 C3096 1.390 . S
C3101 C3100 1.361 . S
C3101 H3119 0.931 . S
C3102 C3100 1.500 . S
C3102 C3103 1.371 . S
C3102 C3104 1.365 . S
C3103 C3102 1.371 . S
C3103 C3113 1.386 . S
C3103 H3121 0.931 . S
C3104 C3102 1.365 . S
C3104 C3105 1.409 . S
C3104 H3122 0.929 . S
C3105 C3104 1.409 . S
C3105 C3106 1.380 . S
C3105 H3123 0.930 . S
C3106 C3105 1.380 . S
C3106 C3113 1.357 . S
C3107 C3098 1.511 . S
C3107 C3108 1.341 . S
C3107 C3109 1.371 . S
C3108 C3107 1.341 . S
C3108 C3112 1.394 . S
C3108 H3124 0.930 . S
C3109 C3107 1.371 . S
C3109 C3110 1.392 . S
C3109 H3125 0.931 . S
C3110 C3109 1.392 . S
C3110 C3111 1.331 . S
C3110 H3128 0.932 . S
C3111 C3110 1.331 . S
C3111 C3112 1.336 . S
C3112 C3108 1.394 . S
C3112 C3111 1.336 . S
C3112 H3127 0.929 . S
C3113 C3103 1.386 . S
C3113 C3106 1.357 . S
C3113 H3126 0.928 . S
H3114 C3090 0.931 . S
H3115 C3092 0.930 . S
H3116 C3094 0.929 . S
H3117 C3095 0.931 . S
H3118 C3097 0.930 . S
H3119 C3101 0.931 . S
H3120 C3099 0.931 . S
H3121 C3103 0.931 . S
H3122 C3104 0.929 . S
H3123 C3105 0.930 . S
H3124 C3108 0.930 . S
H3125 C3109 0.931 . S
H3126 C3113 0.928 . S
H3127 C3112 0.929 . S
H3128 C3110 0.932 . S
C3129 C3130 1.386 . S
C3129 C3131 1.397 . S
C3129 H3153 0.931 . S
C3130 C3129 1.386 . S
C3130 C3134 1.397 . S
C3131 C3129 1.397 . S
C3131 C3132 1.384 . S
C3131 H3154 0.930 . S
C3132 C3131 1.384 . S
C3132 C3133 1.377 . S
C3132 C3135 1.481 . S
C3133 C3132 1.377 . S
C3133 C3134 1.389 . S
C3133 H3155 0.929 . S
C3134 C3130 1.397 . S
C3134 C3133 1.389 . S
C3134 H3156 0.931 . S
C3135 C3132 1.481 . S
C3135 C3136 1.387 . S
C3135 C3140 1.390 . S
C3136 C3135 1.387 . S
C3136 C3137 1.401 . S
C3136 H3157 0.930 . S
C3137 C3136 1.401 . S
C3137 C3138 1.376 . S
C3137 C3146 1.511 . S
C3138 C3137 1.376 . S
C3138 C3139 1.392 . S
C3138 H3159 0.931 . S
C3139 C3138 1.392 . S
C3139 C3140 1.361 . S
C3139 C3141 1.500 . S
C3140 C3135 1.390 . S
C3140 C3139 1.361 . S
C3140 H3158 0.931 . S
C3141 C3139 1.500 . S
C3141 C3142 1.371 . S
C3141 C3143 1.365 . S
C3142 C3141 1.371 . S
C3142 C3152 1.386 . S
C3142 H3160 0.931 . S
C3143 C3141 1.365 . S
C3143 C3144 1.409 . S
C3143 H3161 0.929 . S
C3144 C3143 1.409 . S
C3144 C3145 1.380 . S
C3144 H3162 0.930 . S
C3145 C3144 1.380 . S
C3145 C3152 1.357 . S
C3146 C3137 1.511 . S
C3146 C3147 1.341 . S
C3146 C3148 1.371 . S
C3147 C3146 1.341 . S
C3147 C3151 1.394 . S
C3147 H3163 0.930 . S
C3148 C3146 1.371 . S
C3148 C3149 1.392 . S
C3148 H3164 0.931 . S
C3149 C3148 1.392 . S
C3149 C3150 1.331 . S
C3149 H3167 0.932 . S
C3150 C3149 1.331 . S
C3150 C3151 1.336 . S
C3151 C3147 1.394 . S
C3151 C3150 1.336 . S
C3151 H3166 0.929 . S
C3152 C3142 1.386 . S
C3152 C3145 1.357 . S
C3152 H3165 0.928 . S
H3153 C3129 0.931 . S
H3154 C3131 0.930 . S
H3155 C3133 0.929 . S
H3156 C3134 0.931 . S
H3157 C3136 0.930 . S
H3158 C3140 0.931 . S
H3159 C3138 0.931 . S
H3160 C3142 0.931 . S
H3161 C3143 0.929 . S
H3162 C3144 0.930 . S
H3163 C3147 0.930 . S
H3164 C3148 0.931 . S
H3165 C3152 0.928 . S
H3166 C3151 0.929 . S
H3167 C3149 0.932 . S
C3168 C3169 1.386 . S
C3168 C3170 1.397 . S
C3168 H3192 0.931 . S
C3169 C3168 1.386 . S
C3169 C3173 1.397 . S
C3170 C3168 1.397 . S
C3170 C3171 1.384 . S
C3170 H3193 0.930 . S
C3171 C3170 1.384 . S
C3171 C3172 1.377 . S
C3171 C3174 1.481 . S
C3172 C3171 1.377 . S
C3172 C3173 1.389 . S
C3172 H3194 0.929 . S
C3173 C3169 1.397 . S
C3173 C3172 1.389 . S
C3173 H3195 0.931 . S
C3174 C3171 1.481 . S
C3174 C3175 1.387 . S
C3174 C3179 1.390 . S
C3175 C3174 1.387 . S
C3175 C3176 1.401 . S
C3175 H3196 0.930 . S
C3176 C3175 1.401 . S
C3176 C3177 1.376 . S
C3176 C3185 1.511 . S
C3177 C3176 1.376 . S
C3177 C3178 1.392 . S
C3177 H3198 0.931 . S
C3178 C3177 1.392 . S
C3178 C3179 1.361 . S
C3178 C3180 1.500 . S
C3179 C3174 1.390 . S
C3179 C3178 1.361 . S
C3179 H3197 0.931 . S
C3180 C3178 1.500 . S
C3180 C3181 1.371 . S
C3180 C3182 1.365 . S
C3181 C3180 1.371 . S
C3181 C3191 1.386 . S
C3181 H3199 0.931 . S
C3182 C3180 1.365 . S
C3182 C3183 1.409 . S
C3182 H3200 0.929 . S
C3183 C3182 1.409 . S
C3183 C3184 1.380 . S
C3183 H3201 0.930 . S
C3184 C3183 1.380 . S
C3184 C3191 1.357 . S
C3185 C3176 1.511 . S
C3185 C3186 1.341 . S
C3185 C3187 1.371 . S
C3186 C3185 1.341 . S
C3186 C3190 1.394 . S
C3186 H3202 0.930 . S
C3187 C3185 1.371 . S
C3187 C3188 1.392 . S
C3187 H3203 0.931 . S
C3188 C3187 1.392 . S
C3188 C3189 1.331 . S
C3188 H3206 0.932 . S
C3189 C3188 1.331 . S
C3189 C3190 1.336 . S
C3190 C3186 1.394 . S
C3190 C3189 1.336 . S
C3190 H3205 0.929 . S
C3191 C3181 1.386 . S
C3191 C3184 1.357 . S
C3191 H3204 0.928 . S
H3192 C3168 0.931 . S
H3193 C3170 0.930 . S
H3194 C3172 0.929 . S
H3195 C3173 0.931 . S
H3196 C3175 0.930 . S
H3197 C3179 0.931 . S
H3198 C3177 0.931 . S
H3199 C3181 0.931 . S
H3200 C3182 0.929 . S
H3201 C3183 0.930 . S
H3202 C3186 0.930 . S
H3203 C3187 0.931 . S
H3204 C3191 0.928 . S
H3205 C3190 0.929 . S
H3206 C3188 0.932 . S
C3207 C3208 1.386 . S
C3207 C3209 1.397 . S
C3207 H3231 0.931 . S
C3208 C3207 1.386 . S
C3208 C3212 1.397 . S
C3209 C3207 1.397 . S
C3209 C3210 1.384 . S
C3209 H3232 0.930 . S
C3210 C3209 1.384 . S
C3210 C3211 1.377 . S
C3210 C3213 1.481 . S
C3211 C3210 1.377 . S
C3211 C3212 1.389 . S
C3211 H3233 0.929 . S
C3212 C3208 1.397 . S
C3212 C3211 1.389 . S
C3212 H3234 0.931 . S
C3213 C3210 1.481 . S
C3213 C3214 1.387 . S
C3213 C3218 1.390 . S
C3214 C3213 1.387 . S
C3214 C3215 1.401 . S
C3214 H3235 0.930 . S
C3215 C3214 1.401 . S
C3215 C3216 1.376 . S
C3215 C3224 1.511 . S
C3216 C3215 1.376 . S
C3216 C3217 1.392 . S
C3216 H3237 0.931 . S
C3217 C3216 1.392 . S
C3217 C3218 1.361 . S
C3217 C3219 1.500 . S
C3218 C3213 1.390 . S
C3218 C3217 1.361 . S
C3218 H3236 0.931 . S
C3219 C3217 1.500 . S
C3219 C3220 1.371 . S
C3219 C3221 1.365 . S
C3220 C3219 1.371 . S
C3220 C3230 1.386 . S
C3220 H3238 0.931 . S
C3221 C3219 1.365 . S
C3221 C3222 1.409 . S
C3221 H3239 0.929 . S
C3222 C3221 1.409 . S
C3222 C3223 1.380 . S
C3222 H3240 0.930 . S
C3223 C3222 1.380 . S
C3223 C3230 1.357 . S
C3224 C3215 1.511 . S
C3224 C3225 1.341 . S
C3224 C3226 1.371 . S
C3225 C3224 1.341 . S
C3225 C3229 1.394 . S
C3225 H3241 0.930 . S
C3226 C3224 1.371 . S
C3226 C3227 1.392 . S
C3226 H3242 0.931 . S
C3227 C3226 1.392 . S
C3227 C3228 1.331 . S
C3227 H3245 0.932 . S
C3228 C3227 1.331 . S
C3228 C3229 1.336 . S
C3229 C3225 1.394 . S
C3229 C3228 1.336 . S
C3229 H3244 0.929 . S
C3230 C3220 1.386 . S
C3230 C3223 1.357 . S
C3230 H3243 0.928 . S
H3231 C3207 0.931 . S
H3232 C3209 0.930 . S
H3233 C3211 0.929 . S
H3234 C3212 0.931 . S
H3235 C3214 0.930 . S
H3236 C3218 0.931 . S
H3237 C3216 0.931 . S
H3238 C3220 0.931 . S
H3239 C3221 0.929 . S
H3240 C3222 0.930 . S
H3241 C3225 0.930 . S
H3242 C3226 0.931 . S
H3243 C3230 0.928 . S
H3244 C3229 0.929 . S
H3245 C3227 0.932 . S
C3246 C3247 1.386 . S
C3246 C3248 1.397 . S
C3246 H3270 0.931 . S
C3247 C3246 1.386 . S
C3247 C3251 1.397 . S
C3248 C3246 1.397 . S
C3248 C3249 1.384 . S
C3248 H3271 0.930 . S
C3249 C3248 1.384 . S
C3249 C3250 1.377 . S
C3249 C3252 1.481 . S
C3250 C3249 1.377 . S
C3250 C3251 1.389 . S
C3250 H3272 0.929 . S
C3251 C3247 1.397 . S
C3251 C3250 1.389 . S
C3251 H3273 0.931 . S
C3252 C3249 1.481 . S
C3252 C3253 1.387 . S
C3252 C3257 1.390 . S
C3253 C3252 1.387 . S
C3253 C3254 1.401 . S
C3253 H3274 0.930 . S
C3254 C3253 1.401 . S
C3254 C3255 1.376 . S
C3254 C3263 1.511 . S
C3255 C3254 1.376 . S
C3255 C3256 1.392 . S
C3255 H3276 0.931 . S
C3256 C3255 1.392 . S
C3256 C3257 1.361 . S
C3256 C3258 1.500 . S
C3257 C3252 1.390 . S
C3257 C3256 1.361 . S
C3257 H3275 0.931 . S
C3258 C3256 1.500 . S
C3258 C3259 1.371 . S
C3258 C3260 1.365 . S
C3259 C3258 1.371 . S
C3259 C3269 1.386 . S
C3259 H3277 0.931 . S
C3260 C3258 1.365 . S
C3260 C3261 1.409 . S
C3260 H3278 0.929 . S
C3261 C3260 1.409 . S
C3261 C3262 1.380 . S
C3261 H3279 0.930 . S
C3262 C3261 1.380 . S
C3262 C3269 1.357 . S
C3263 C3254 1.511 . S
C3263 C3264 1.341 . S
C3263 C3265 1.371 . S
C3264 C3263 1.341 . S
C3264 C3268 1.394 . S
C3264 H3280 0.930 . S
C3265 C3263 1.371 . S
C3265 C3266 1.392 . S
C3265 H3281 0.931 . S
C3266 C3265 1.392 . S
C3266 C3267 1.331 . S
C3266 H3284 0.932 . S
C3267 C3266 1.331 . S
C3267 C3268 1.336 . S
C3268 C3264 1.394 . S
C3268 C3267 1.336 . S
C3268 H3283 0.929 . S
C3269 C3259 1.386 . S
C3269 C3262 1.357 . S
C3269 H3282 0.928 . S
H3270 C3246 0.931 . S
H3271 C3248 0.930 . S
H3272 C3250 0.929 . S
H3273 C3251 0.931 . S
H3274 C3253 0.930 . S
H3275 C3257 0.931 . S
H3276 C3255 0.931 . S
H3277 C3259 0.931 . S
H3278 C3260 0.929 . S
H3279 C3261 0.930 . S
H3280 C3264 0.930 . S
H3281 C3265 0.931 . S
H3282 C3269 0.928 . S
H3283 C3268 0.929 . S
H3284 C3266 0.932 . S
C3285 C3286 1.386 . S
C3285 C3287 1.397 . S
C3285 H3309 0.931 . S
C3286 C3285 1.386 . S
C3286 C3290 1.397 . S
C3287 C3285 1.397 . S
C3287 C3288 1.384 . S
C3287 H3310 0.930 . S
C3288 C3287 1.384 . S
C3288 C3289 1.377 . S
C3288 C3291 1.481 . S
C3289 C3288 1.377 . S
C3289 C3290 1.389 . S
C3289 H3311 0.929 . S
C3290 C3286 1.397 . S
C3290 C3289 1.389 . S
C3290 H3312 0.931 . S
C3291 C3288 1.481 . S
C3291 C3292 1.387 . S
C3291 C3296 1.390 . S
C3292 C3291 1.387 . S
C3292 C3293 1.401 . S
C3292 H3313 0.930 . S
C3293 C3292 1.401 . S
C3293 C3294 1.376 . S
C3293 C3302 1.511 . S
C3294 C3293 1.376 . S
C3294 C3295 1.392 . S
C3294 H3315 0.931 . S
C3295 C3294 1.392 . S
C3295 C3296 1.361 . S
C3295 C3297 1.500 . S
C3296 C3291 1.390 . S
C3296 C3295 1.361 . S
C3296 H3314 0.931 . S
C3297 C3295 1.500 . S
C3297 C3298 1.371 . S
C3297 C3299 1.365 . S
C3298 C3297 1.371 . S
C3298 C3308 1.386 . S
C3298 H3316 0.931 . S
C3299 C3297 1.365 . S
C3299 C3300 1.409 . S
C3299 H3317 0.929 . S
C3300 C3299 1.409 . S
C3300 C3301 1.380 . S
C3300 H3318 0.930 . S
C3301 C3300 1.380 . S
C3301 C3308 1.357 . S
C3302 C3293 1.511 . S
C3302 C3303 1.341 . S
C3302 C3304 1.371 . S
C3303 C3302 1.341 . S
C3303 C3307 1.394 . S
C3303 H3319 0.930 . S
C3304 C3302 1.371 . S
C3304 C3305 1.392 . S
C3304 H3320 0.931 . S
C3305 C3304 1.392 . S
C3305 C3306 1.331 . S
C3305 H3323 0.932 . S
C3306 C3305 1.331 . S
C3306 C3307 1.336 . S
C3307 C3303 1.394 . S
C3307 C3306 1.336 . S
C3307 H3322 0.929 . S
C3308 C3298 1.386 . S
C3308 C3301 1.357 . S
C3308 H3321 0.928 . S
H3309 C3285 0.931 . S
H3310 C3287 0.930 . S
H3311 C3289 0.929 . S
H3312 C3290 0.931 . S
H3313 C3292 0.930 . S
H3314 C3296 0.931 . S
H3315 C3294 0.931 . S
H3316 C3298 0.931 . S
H3317 C3299 0.929 . S
H3318 C3300 0.930 . S
H3319 C3303 0.930 . S
H3320 C3304 0.931 . S
H3321 C3308 0.928 . S
H3322 C3307 0.929 . S
H3323 C3305 0.932 . S
C3324 C3325 1.386 . S
C3324 C3326 1.397 . S
C3324 H3348 0.931 . S
C3325 C3324 1.386 . S
C3325 C3329 1.397 . S
C3326 C3324 1.397 . S
C3326 C3327 1.384 . S
C3326 H3349 0.930 . S
C3327 C3326 1.384 . S
C3327 C3328 1.377 . S
C3327 C3330 1.481 . S
C3328 C3327 1.377 . S
C3328 C3329 1.389 . S
C3328 H3350 0.929 . S
C3329 C3325 1.397 . S
C3329 C3328 1.389 . S
C3329 H3351 0.931 . S
C3330 C3327 1.481 . S
C3330 C3331 1.387 . S
C3330 C3335 1.390 . S
C3331 C3330 1.387 . S
C3331 C3332 1.401 . S
C3331 H3352 0.930 . S
C3332 C3331 1.401 . S
C3332 C3333 1.376 . S
C3332 C3341 1.511 . S
C3333 C3332 1.376 . S
C3333 C3334 1.392 . S
C3333 H3354 0.931 . S
C3334 C3333 1.392 . S
C3334 C3335 1.361 . S
C3334 C3336 1.500 . S
C3335 C3330 1.390 . S
C3335 C3334 1.361 . S
C3335 H3353 0.931 . S
C3336 C3334 1.500 . S
C3336 C3337 1.371 . S
C3336 C3338 1.365 . S
C3337 C3336 1.371 . S
C3337 C3347 1.386 . S
C3337 H3355 0.931 . S
C3338 C3336 1.365 . S
C3338 C3339 1.409 . S
C3338 H3356 0.929 . S
C3339 C3338 1.409 . S
C3339 C3340 1.380 . S
C3339 H3357 0.930 . S
C3340 C3339 1.380 . S
C3340 C3347 1.357 . S
C3341 C3332 1.511 . S
C3341 C3342 1.341 . S
C3341 C3343 1.371 . S
C3342 C3341 1.341 . S
C3342 C3346 1.394 . S
C3342 H3358 0.930 . S
C3343 C3341 1.371 . S
C3343 C3344 1.392 . S
C3343 H3359 0.931 . S
C3344 C3343 1.392 . S
C3344 C3345 1.331 . S
C3344 H3362 0.932 . S
C3345 C3344 1.331 . S
C3345 C3346 1.336 . S
C3346 C3342 1.394 . S
C3346 C3345 1.336 . S
C3346 H3361 0.929 . S
C3347 C3337 1.386 . S
C3347 C3340 1.357 . S
C3347 H3360 0.928 . S
H3348 C3324 0.931 . S
H3349 C3326 0.930 . S
H3350 C3328 0.929 . S
H3351 C3329 0.931 . S
H3352 C3331 0.930 . S
H3353 C3335 0.931 . S
H3354 C3333 0.931 . S
H3355 C3337 0.931 . S
H3356 C3338 0.929 . S
H3357 C3339 0.930 . S
H3358 C3342 0.930 . S
H3359 C3343 0.931 . S
H3360 C3347 0.928 . S
H3361 C3346 0.929 . S
H3362 C3344 0.932 . S
C3363 C3364 1.386 . S
C3363 C3365 1.397 . S
C3363 H3387 0.931 . S
C3364 C3363 1.386 . S
C3364 C3368 1.397 . S
C3365 C3363 1.397 . S
C3365 C3366 1.384 . S
C3365 H3388 0.930 . S
C3366 C3365 1.384 . S
C3366 C3367 1.377 . S
C3366 C3369 1.481 . S
C3367 C3366 1.377 . S
C3367 C3368 1.389 . S
C3367 H3389 0.929 . S
C3368 C3364 1.397 . S
C3368 C3367 1.389 . S
C3368 H3390 0.931 . S
C3369 C3366 1.481 . S
C3369 C3370 1.387 . S
C3369 C3374 1.390 . S
C3370 C3369 1.387 . S
C3370 C3371 1.401 . S
C3370 H3391 0.930 . S
C3371 C3370 1.401 . S
C3371 C3372 1.376 . S
C3371 C3380 1.511 . S
C3372 C3371 1.376 . S
C3372 C3373 1.392 . S
C3372 H3393 0.931 . S
C3373 C3372 1.392 . S
C3373 C3374 1.361 . S
C3373 C3375 1.500 . S
C3374 C3369 1.390 . S
C3374 C3373 1.361 . S
C3374 H3392 0.931 . S
C3375 C3373 1.500 . S
C3375 C3376 1.371 . S
C3375 C3377 1.365 . S
C3376 C3375 1.371 . S
C3376 C3386 1.386 . S
C3376 H3394 0.931 . S
C3377 C3375 1.365 . S
C3377 C3378 1.409 . S
C3377 H3395 0.929 . S
C3378 C3377 1.409 . S
C3378 C3379 1.380 . S
C3378 H3396 0.930 . S
C3379 C3378 1.380 . S
C3379 C3386 1.357 . S
C3380 C3371 1.511 . S
C3380 C3381 1.341 . S
C3380 C3382 1.371 . S
C3381 C3380 1.341 . S
C3381 C3385 1.394 . S
C3381 H3397 0.930 . S
C3382 C3380 1.371 . S
C3382 C3383 1.392 . S
C3382 H3398 0.931 . S
C3383 C3382 1.392 . S
C3383 C3384 1.331 . S
C3383 H3401 0.932 . S
C3384 C3383 1.331 . S
C3384 C3385 1.336 . S
C3385 C3381 1.394 . S
C3385 C3384 1.336 . S
C3385 H3400 0.929 . S
C3386 C3376 1.386 . S
C3386 C3379 1.357 . S
C3386 H3399 0.928 . S
H3387 C3363 0.931 . S
H3388 C3365 0.930 . S
H3389 C3367 0.929 . S
H3390 C3368 0.931 . S
H3391 C3370 0.930 . S
H3392 C3374 0.931 . S
H3393 C3372 0.931 . S
H3394 C3376 0.931 . S
H3395 C3377 0.929 . S
H3396 C3378 0.930 . S
H3397 C3381 0.930 . S
H3398 C3382 0.931 . S
H3399 C3386 0.928 . S
H3400 C3385 0.929 . S
H3401 C3383 0.932 . S
C3402 C3403 1.386 . S
C3402 C3404 1.397 . S
C3402 H3426 0.931 . S
C3403 C3402 1.386 . S
C3403 C3407 1.397 . S
C3404 C3402 1.397 . S
C3404 C3405 1.384 . S
C3404 H3427 0.930 . S
C3405 C3404 1.384 . S
C3405 C3406 1.377 . S
C3405 C3408 1.481 . S
C3406 C3405 1.377 . S
C3406 C3407 1.389 . S
C3406 H3428 0.929 . S
C3407 C3403 1.397 . S
C3407 C3406 1.389 . S
C3407 H3429 0.931 . S
C3408 C3405 1.481 . S
C3408 C3409 1.387 . S
C3408 C3413 1.390 . S
C3409 C3408 1.387 . S
C3409 C3410 1.401 . S
C3409 H3430 0.930 . S
C3410 C3409 1.401 . S
C3410 C3411 1.376 . S
C3410 C3419 1.511 . S
C3411 C3410 1.376 . S
C3411 C3412 1.392 . S
C3411 H3432 0.931 . S
C3412 C3411 1.392 . S
C3412 C3413 1.361 . S
C3412 C3414 1.500 . S
C3413 C3408 1.390 . S
C3413 C3412 1.361 . S
C3413 H3431 0.931 . S
C3414 C3412 1.500 . S
C3414 C3415 1.371 . S
C3414 C3416 1.365 . S
C3415 C3414 1.371 . S
C3415 C3425 1.386 . S
C3415 H3433 0.931 . S
C3416 C3414 1.365 . S
C3416 C3417 1.409 . S
C3416 H3434 0.929 . S
C3417 C3416 1.409 . S
C3417 C3418 1.380 . S
C3417 H3435 0.930 . S
C3418 C3417 1.380 . S
C3418 C3425 1.357 . S
C3419 C3410 1.511 . S
C3419 C3420 1.341 . S
C3419 C3421 1.371 . S
C3420 C3419 1.341 . S
C3420 C3424 1.394 . S
C3420 H3436 0.930 . S
C3421 C3419 1.371 . S
C3421 C3422 1.392 . S
C3421 H3437 0.931 . S
C3422 C3421 1.392 . S
C3422 C3423 1.331 . S
C3422 H3440 0.932 . S
C3423 C3422 1.331 . S
C3423 C3424 1.336 . S
C3424 C3420 1.394 . S
C3424 C3423 1.336 . S
C3424 H3439 0.929 . S
C3425 C3415 1.386 . S
C3425 C3418 1.357 . S
C3425 H3438 0.928 . S
H3426 C3402 0.931 . S
H3427 C3404 0.930 . S
H3428 C3406 0.929 . S
H3429 C3407 0.931 . S
H3430 C3409 0.930 . S
H3431 C3413 0.931 . S
H3432 C3411 0.931 . S
H3433 C3415 0.931 . S
H3434 C3416 0.929 . S
H3435 C3417 0.930 . S
H3436 C3420 0.930 . S
H3437 C3421 0.931 . S
H3438 C3425 0.928 . S
H3439 C3424 0.929 . S
H3440 C3422 0.932 . S
C3441 C3442 1.386 . S
C3441 C3443 1.397 . S
C3441 H3465 0.931 . S
C3442 C3441 1.386 . S
C3442 C3446 1.397 . S
C3443 C3441 1.397 . S
C3443 C3444 1.384 . S
C3443 H3466 0.930 . S
C3444 C3443 1.384 . S
C3444 C3445 1.377 . S
C3444 C3447 1.481 . S
C3445 C3444 1.377 . S
C3445 C3446 1.389 . S
C3445 H3467 0.929 . S
C3446 C3442 1.397 . S
C3446 C3445 1.389 . S
C3446 H3468 0.931 . S
C3447 C3444 1.481 . S
C3447 C3448 1.387 . S
C3447 C3452 1.390 . S
C3448 C3447 1.387 . S
C3448 C3449 1.401 . S
C3448 H3469 0.930 . S
C3449 C3448 1.401 . S
C3449 C3450 1.376 . S
C3449 C3458 1.511 . S
C3450 C3449 1.376 . S
C3450 C3451 1.392 . S
C3450 H3471 0.931 . S
C3451 C3450 1.392 . S
C3451 C3452 1.361 . S
C3451 C3453 1.500 . S
C3452 C3447 1.390 . S
C3452 C3451 1.361 . S
C3452 H3470 0.931 . S
C3453 C3451 1.500 . S
C3453 C3454 1.371 . S
C3453 C3455 1.365 . S
C3454 C3453 1.371 . S
C3454 C3464 1.386 . S
C3454 H3472 0.931 . S
C3455 C3453 1.365 . S
C3455 C3456 1.409 . S
C3455 H3473 0.929 . S
C3456 C3455 1.409 . S
C3456 C3457 1.380 . S
C3456 H3474 0.930 . S
C3457 C3456 1.380 . S
C3457 C3464 1.357 . S
C3458 C3449 1.511 . S
C3458 C3459 1.341 . S
C3458 C3460 1.371 . S
C3459 C3458 1.341 . S
C3459 C3463 1.394 . S
C3459 H3475 0.930 . S
C3460 C3458 1.371 . S
C3460 C3461 1.392 . S
C3460 H3476 0.931 . S
C3461 C3460 1.392 . S
C3461 C3462 1.331 . S
C3461 H3479 0.932 . S
C3462 C3461 1.331 . S
C3462 C3463 1.336 . S
C3463 C3459 1.394 . S
C3463 C3462 1.336 . S
C3463 H3478 0.929 . S
C3464 C3454 1.386 . S
C3464 C3457 1.357 . S
C3464 H3477 0.928 . S
H3465 C3441 0.931 . S
H3466 C3443 0.930 . S
H3467 C3445 0.929 . S
H3468 C3446 0.931 . S
H3469 C3448 0.930 . S
H3470 C3452 0.931 . S
H3471 C3450 0.931 . S
H3472 C3454 0.931 . S
H3473 C3455 0.929 . S
H3474 C3456 0.930 . S
H3475 C3459 0.930 . S
H3476 C3460 0.931 . S
H3477 C3464 0.928 . S
H3478 C3463 0.929 . S
H3479 C3461 0.932 . S
C3480 C3481 1.386 . S
C3480 C3482 1.397 . S
C3480 H3504 0.931 . S
C3481 C3480 1.386 . S
C3481 C3485 1.397 . S
C3482 C3480 1.397 . S
C3482 C3483 1.384 . S
C3482 H3505 0.930 . S
C3483 C3482 1.384 . S
C3483 C3484 1.377 . S
C3483 C3486 1.481 . S
C3484 C3483 1.377 . S
C3484 C3485 1.389 . S
C3484 H3506 0.929 . S
C3485 C3481 1.397 . S
C3485 C3484 1.389 . S
C3485 H3507 0.931 . S
C3486 C3483 1.481 . S
C3486 C3487 1.387 . S
C3486 C3491 1.390 . S
C3487 C3486 1.387 . S
C3487 C3488 1.401 . S
C3487 H3508 0.930 . S
C3488 C3487 1.401 . S
C3488 C3489 1.376 . S
C3488 C3497 1.511 . S
C3489 C3488 1.376 . S
C3489 C3490 1.392 . S
C3489 H3510 0.931 . S
C3490 C3489 1.392 . S
C3490 C3491 1.361 . S
C3490 C3492 1.500 . S
C3491 C3486 1.390 . S
C3491 C3490 1.361 . S
C3491 H3509 0.931 . S
C3492 C3490 1.500 . S
C3492 C3493 1.371 . S
C3492 C3494 1.365 . S
C3493 C3492 1.371 . S
C3493 C3503 1.386 . S
C3493 H3511 0.931 . S
C3494 C3492 1.365 . S
C3494 C3495 1.409 . S
C3494 H3512 0.929 . S
C3495 C3494 1.409 . S
C3495 C3496 1.380 . S
C3495 H3513 0.930 . S
C3496 C3495 1.380 . S
C3496 C3503 1.357 . S
C3497 C3488 1.511 . S
C3497 C3498 1.341 . S
C3497 C3499 1.371 . S
C3498 C3497 1.341 . S
C3498 C3502 1.394 . S
C3498 H3514 0.930 . S
C3499 C3497 1.371 . S
C3499 C3500 1.392 . S
C3499 H3515 0.931 . S
C3500 C3499 1.392 . S
C3500 C3501 1.331 . S
C3500 H3518 0.932 . S
C3501 C3500 1.331 . S
C3501 C3502 1.336 . S
C3502 C3498 1.394 . S
C3502 C3501 1.336 . S
C3502 H3517 0.929 . S
C3503 C3493 1.386 . S
C3503 C3496 1.357 . S
C3503 H3516 0.928 . S
H3504 C3480 0.931 . S
H3505 C3482 0.930 . S
H3506 C3484 0.929 . S
H3507 C3485 0.931 . S
H3508 C3487 0.930 . S
H3509 C3491 0.931 . S
H3510 C3489 0.931 . S
H3511 C3493 0.931 . S
H3512 C3494 0.929 . S
H3513 C3495 0.930 . S
H3514 C3498 0.930 . S
H3515 C3499 0.931 . S
H3516 C3503 0.928 . S
H3517 C3502 0.929 . S
H3518 C3500 0.932 . S
C3519 C3520 1.386 . S
C3519 C3521 1.397 . S
C3519 H3543 0.931 . S
C3520 C3519 1.386 . S
C3520 C3524 1.397 . S
C3521 C3519 1.397 . S
C3521 C3522 1.384 . S
C3521 H3544 0.930 . S
C3522 C3521 1.384 . S
C3522 C3523 1.377 . S
C3522 C3525 1.481 . S
C3523 C3522 1.377 . S
C3523 C3524 1.389 . S
C3523 H3545 0.929 . S
C3524 C3520 1.397 . S
C3524 C3523 1.389 . S
C3524 H3546 0.931 . S
C3525 C3522 1.481 . S
C3525 C3526 1.387 . S
C3525 C3530 1.390 . S
C3526 C3525 1.387 . S
C3526 C3527 1.401 . S
C3526 H3547 0.930 . S
C3527 C3526 1.401 . S
C3527 C3528 1.376 . S
C3527 C3536 1.511 . S
C3528 C3527 1.376 . S
C3528 C3529 1.392 . S
C3528 H3549 0.931 . S
C3529 C3528 1.392 . S
C3529 C3530 1.361 . S
C3529 C3531 1.500 . S
C3530 C3525 1.390 . S
C3530 C3529 1.361 . S
C3530 H3548 0.931 . S
C3531 C3529 1.500 . S
C3531 C3532 1.371 . S
C3531 C3533 1.365 . S
C3532 C3531 1.371 . S
C3532 C3542 1.386 . S
C3532 H3550 0.931 . S
C3533 C3531 1.365 . S
C3533 C3534 1.409 . S
C3533 H3551 0.929 . S
C3534 C3533 1.409 . S
C3534 C3535 1.380 . S
C3534 H3552 0.930 . S
C3535 C3534 1.380 . S
C3535 C3542 1.357 . S
C3536 C3527 1.511 . S
C3536 C3537 1.341 . S
C3536 C3538 1.371 . S
C3537 C3536 1.341 . S
C3537 C3541 1.394 . S
C3537 H3553 0.930 . S
C3538 C3536 1.371 . S
C3538 C3539 1.392 . S
C3538 H3554 0.931 . S
C3539 C3538 1.392 . S
C3539 C3540 1.331 . S
C3539 H3557 0.932 . S
C3540 C3539 1.331 . S
C3540 C3541 1.336 . S
C3541 C3537 1.394 . S
C3541 C3540 1.336 . S
C3541 H3556 0.929 . S
C3542 C3532 1.386 . S
C3542 C3535 1.357 . S
C3542 H3555 0.928 . S
H3543 C3519 0.931 . S
H3544 C3521 0.930 . S
H3545 C3523 0.929 . S
H3546 C3524 0.931 . S
H3547 C3526 0.930 . S
H3548 C3530 0.931 . S
H3549 C3528 0.931 . S
H3550 C3532 0.931 . S
H3551 C3533 0.929 . S
H3552 C3534 0.930 . S
H3553 C3537 0.930 . S
H3554 C3538 0.931 . S
H3555 C3542 0.928 . S
H3556 C3541 0.929 . S
H3557 C3539 0.932 . S
C3558 C3559 1.386 . S
C3558 C3560 1.397 . S
C3558 H3582 0.931 . S
C3559 C3558 1.386 . S
C3559 C3563 1.397 . S
C3560 C3558 1.397 . S
C3560 C3561 1.384 . S
C3560 H3583 0.930 . S
C3561 C3560 1.384 . S
C3561 C3562 1.377 . S
C3561 C3564 1.481 . S
C3562 C3561 1.377 . S
C3562 C3563 1.389 . S
C3562 H3584 0.929 . S
C3563 C3559 1.397 . S
C3563 C3562 1.389 . S
C3563 H3585 0.931 . S
C3564 C3561 1.481 . S
C3564 C3565 1.387 . S
C3564 C3569 1.390 . S
C3565 C3564 1.387 . S
C3565 C3566 1.401 . S
C3565 H3586 0.930 . S
C3566 C3565 1.401 . S
C3566 C3567 1.376 . S
C3566 C3575 1.511 . S
C3567 C3566 1.376 . S
C3567 C3568 1.392 . S
C3567 H3588 0.931 . S
C3568 C3567 1.392 . S
C3568 C3569 1.361 . S
C3568 C3570 1.500 . S
C3569 C3564 1.390 . S
C3569 C3568 1.361 . S
C3569 H3587 0.931 . S
C3570 C3568 1.500 . S
C3570 C3571 1.371 . S
C3570 C3572 1.365 . S
C3571 C3570 1.371 . S
C3571 C3581 1.386 . S
C3571 H3589 0.931 . S
C3572 C3570 1.365 . S
C3572 C3573 1.409 . S
C3572 H3590 0.929 . S
C3573 C3572 1.409 . S
C3573 C3574 1.380 . S
C3573 H3591 0.930 . S
C3574 C3573 1.380 . S
C3574 C3581 1.357 . S
C3575 C3566 1.511 . S
C3575 C3576 1.341 . S
C3575 C3577 1.371 . S
C3576 C3575 1.341 . S
C3576 C3580 1.394 . S
C3576 H3592 0.930 . S
C3577 C3575 1.371 . S
C3577 C3578 1.392 . S
C3577 H3593 0.931 . S
C3578 C3577 1.392 . S
C3578 C3579 1.331 . S
C3578 H3596 0.932 . S
C3579 C3578 1.331 . S
C3579 C3580 1.336 . S
C3580 C3576 1.394 . S
C3580 C3579 1.336 . S
C3580 H3595 0.929 . S
C3581 C3571 1.386 . S
C3581 C3574 1.357 . S
C3581 H3594 0.928 . S
H3582 C3558 0.931 . S
H3583 C3560 0.930 . S
H3584 C3562 0.929 . S
H3585 C3563 0.931 . S
H3586 C3565 0.930 . S
H3587 C3569 0.931 . S
H3588 C3567 0.931 . S
H3589 C3571 0.931 . S
H3590 C3572 0.929 . S
H3591 C3573 0.930 . S
H3592 C3576 0.930 . S
H3593 C3577 0.931 . S
H3594 C3581 0.928 . S
H3595 C3580 0.929 . S
H3596 C3578 0.932 . S
C3597 C3598 1.386 . S
C3597 C3599 1.397 . S
C3597 H3621 0.931 . S
C3598 C3597 1.386 . S
C3598 C3602 1.397 . S
C3599 C3597 1.397 . S
C3599 C3600 1.384 . S
C3599 H3622 0.930 . S
C3600 C3599 1.384 . S
C3600 C3601 1.377 . S
C3600 C3603 1.481 . S
C3601 C3600 1.377 . S
C3601 C3602 1.389 . S
C3601 H3623 0.929 . S
C3602 C3598 1.397 . S
C3602 C3601 1.389 . S
C3602 H3624 0.931 . S
C3603 C3600 1.481 . S
C3603 C3604 1.387 . S
C3603 C3608 1.390 . S
C3604 C3603 1.387 . S
C3604 C3605 1.401 . S
C3604 H3625 0.930 . S
C3605 C3604 1.401 . S
C3605 C3606 1.376 . S
C3605 C3614 1.511 . S
C3606 C3605 1.376 . S
C3606 C3607 1.392 . S
C3606 H3627 0.931 . S
C3607 C3606 1.392 . S
C3607 C3608 1.361 . S
C3607 C3609 1.500 . S
C3608 C3603 1.390 . S
C3608 C3607 1.361 . S
C3608 H3626 0.931 . S
C3609 C3607 1.500 . S
C3609 C3610 1.371 . S
C3609 C3611 1.365 . S
C3610 C3609 1.371 . S
C3610 C3620 1.386 . S
C3610 H3628 0.931 . S
C3611 C3609 1.365 . S
C3611 C3612 1.409 . S
C3611 H3629 0.929 . S
C3612 C3611 1.409 . S
C3612 C3613 1.380 . S
C3612 H3630 0.930 . S
C3613 C3612 1.380 . S
C3613 C3620 1.357 . S
C3614 C3605 1.511 . S
C3614 C3615 1.341 . S
C3614 C3616 1.371 . S
C3615 C3614 1.341 . S
C3615 C3619 1.394 . S
C3615 H3631 0.930 . S
C3616 C3614 1.371 . S
C3616 C3617 1.392 . S
C3616 H3632 0.931 . S
C3617 C3616 1.392 . S
C3617 C3618 1.331 . S
C3617 H3635 0.932 . S
C3618 C3617 1.331 . S
C3618 C3619 1.336 . S
C3619 C3615 1.394 . S
C3619 C3618 1.336 . S
C3619 H3634 0.929 . S
C3620 C3610 1.386 . S
C3620 C3613 1.357 . S
C3620 H3633 0.928 . S
H3621 C3597 0.931 . S
H3622 C3599 0.930 . S
H3623 C3601 0.929 . S
H3624 C3602 0.931 . S
H3625 C3604 0.930 . S
H3626 C3608 0.931 . S
H3627 C3606 0.931 . S
H3628 C3610 0.931 . S
H3629 C3611 0.929 . S
H3630 C3612 0.930 . S
H3631 C3615 0.930 . S
H3632 C3616 0.931 . S
H3633 C3620 0.928 . S
H3634 C3619 0.929 . S
H3635 C3617 0.932 . S
C3636 C3637 1.386 . S
C3636 C3638 1.397 . S
C3636 H3660 0.931 . S
C3637 C3636 1.386 . S
C3637 C3641 1.397 . S
C3638 C3636 1.397 . S
C3638 C3639 1.384 . S
C3638 H3661 0.930 . S
C3639 C3638 1.384 . S
C3639 C3640 1.377 . S
C3639 C3642 1.481 . S
C3640 C3639 1.377 . S
C3640 C3641 1.389 . S
C3640 H3662 0.929 . S
C3641 C3637 1.397 . S
C3641 C3640 1.389 . S
C3641 H3663 0.931 . S
C3642 C3639 1.481 . S
C3642 C3643 1.387 . S
C3642 C3647 1.390 . S
C3643 C3642 1.387 . S
C3643 C3644 1.401 . S
C3643 H3664 0.930 . S
C3644 C3643 1.401 . S
C3644 C3645 1.376 . S
C3644 C3653 1.511 . S
C3645 C3644 1.376 . S
C3645 C3646 1.392 . S
C3645 H3666 0.931 . S
C3646 C3645 1.392 . S
C3646 C3647 1.361 . S
C3646 C3648 1.500 . S
C3647 C3642 1.390 . S
C3647 C3646 1.361 . S
C3647 H3665 0.931 . S
C3648 C3646 1.500 . S
C3648 C3649 1.371 . S
C3648 C3650 1.365 . S
C3649 C3648 1.371 . S
C3649 C3659 1.386 . S
C3649 H3667 0.931 . S
C3650 C3648 1.365 . S
C3650 C3651 1.409 . S
C3650 H3668 0.929 . S
C3651 C3650 1.409 . S
C3651 C3652 1.380 . S
C3651 H3669 0.930 . S
C3652 C3651 1.380 . S
C3652 C3659 1.357 . S
C3653 C3644 1.511 . S
C3653 C3654 1.341 . S
C3653 C3655 1.371 . S
C3654 C3653 1.341 . S
C3654 C3658 1.394 . S
C3654 H3670 0.930 . S
C3655 C3653 1.371 . S
C3655 C3656 1.392 . S
C3655 H3671 0.931 . S
C3656 C3655 1.392 . S
C3656 C3657 1.331 . S
C3656 H3674 0.932 . S
C3657 C3656 1.331 . S
C3657 C3658 1.336 . S
C3658 C3654 1.394 . S
C3658 C3657 1.336 . S
C3658 H3673 0.929 . S
C3659 C3649 1.386 . S
C3659 C3652 1.357 . S
C3659 H3672 0.928 . S
H3660 C3636 0.931 . S
H3661 C3638 0.930 . S
H3662 C3640 0.929 . S
H3663 C3641 0.931 . S
H3664 C3643 0.930 . S
H3665 C3647 0.931 . S
H3666 C3645 0.931 . S
H3667 C3649 0.931 . S
H3668 C3650 0.929 . S
H3669 C3651 0.930 . S
H3670 C3654 0.930 . S
H3671 C3655 0.931 . S
H3672 C3659 0.928 . S
H3673 C3658 0.929 . S
H3674 C3656 0.932 . S
C3675 C3676 1.386 . S
C3675 C3677 1.397 . S
C3675 H3699 0.931 . S
C3676 C3675 1.386 . S
C3676 C3680 1.397 . S
C3677 C3675 1.397 . S
C3677 C3678 1.384 . S
C3677 H3700 0.930 . S
C3678 C3677 1.384 . S
C3678 C3679 1.377 . S
C3678 C3681 1.481 . S
C3679 C3678 1.377 . S
C3679 C3680 1.389 . S
C3679 H3701 0.929 . S
C3680 C3676 1.397 . S
C3680 C3679 1.389 . S
C3680 H3702 0.931 . S
C3681 C3678 1.481 . S
C3681 C3682 1.387 . S
C3681 C3686 1.390 . S
C3682 C3681 1.387 . S
C3682 C3683 1.401 . S
C3682 H3703 0.930 . S
C3683 C3682 1.401 . S
C3683 C3684 1.376 . S
C3683 C3692 1.511 . S
C3684 C3683 1.376 . S
C3684 C3685 1.392 . S
C3684 H3705 0.931 . S
C3685 C3684 1.392 . S
C3685 C3686 1.361 . S
C3685 C3687 1.500 . S
C3686 C3681 1.390 . S
C3686 C3685 1.361 . S
C3686 H3704 0.931 . S
C3687 C3685 1.500 . S
C3687 C3688 1.371 . S
C3687 C3689 1.365 . S
C3688 C3687 1.371 . S
C3688 C3698 1.386 . S
C3688 H3706 0.931 . S
C3689 C3687 1.365 . S
C3689 C3690 1.409 . S
C3689 H3707 0.929 . S
C3690 C3689 1.409 . S
C3690 C3691 1.380 . S
C3690 H3708 0.930 . S
C3691 C3690 1.380 . S
C3691 C3698 1.357 . S
C3692 C3683 1.511 . S
C3692 C3693 1.341 . S
C3692 C3694 1.371 . S
C3693 C3692 1.341 . S
C3693 C3697 1.394 . S
C3693 H3709 0.930 . S
C3694 C3692 1.371 . S
C3694 C3695 1.392 . S
C3694 H3710 0.931 . S
C3695 C3694 1.392 . S
C3695 C3696 1.331 . S
C3695 H3713 0.932 . S
C3696 C3695 1.331 . S
C3696 C3697 1.336 . S
C3697 C3693 1.394 . S
C3697 C3696 1.336 . S
C3697 H3712 0.929 . S
C3698 C3688 1.386 . S
C3698 C3691 1.357 . S
C3698 H3711 0.928 . S
H3699 C3675 0.931 . S
H3700 C3677 0.930 . S
H3701 C3679 0.929 . S
H3702 C3680 0.931 . S
H3703 C3682 0.930 . S
H3704 C3686 0.931 . S
H3705 C3684 0.931 . S
H3706 C3688 0.931 . S
H3707 C3689 0.929 . S
H3708 C3690 0.930 . S
H3709 C3693 0.930 . S
H3710 C3694 0.931 . S
H3711 C3698 0.928 . S
H3712 C3697 0.929 . S
H3713 C3695 0.932 . S
C3714 C3715 1.386 . S
C3714 C3716 1.397 . S
C3714 H3738 0.931 . S
C3715 C3714 1.386 . S
C3715 C3719 1.397 . S
C3716 C3714 1.397 . S
C3716 C3717 1.384 . S
C3716 H3739 0.930 . S
C3717 C3716 1.384 . S
C3717 C3718 1.377 . S
C3717 C3720 1.481 . S
C3718 C3717 1.377 . S
C3718 C3719 1.389 . S
C3718 H3740 0.929 . S
C3719 C3715 1.397 . S
C3719 C3718 1.389 . S
C3719 H3741 0.931 . S
C3720 C3717 1.481 . S
C3720 C3721 1.387 . S
C3720 C3725 1.390 . S
C3721 C3720 1.387 . S
C3721 C3722 1.401 . S
C3721 H3742 0.930 . S
C3722 C3721 1.401 . S
C3722 C3723 1.376 . S
C3722 C3731 1.511 . S
C3723 C3722 1.376 . S
C3723 C3724 1.392 . S
C3723 H3744 0.931 . S
C3724 C3723 1.392 . S
C3724 C3725 1.361 . S
C3724 C3726 1.500 . S
C3725 C3720 1.390 . S
C3725 C3724 1.361 . S
C3725 H3743 0.931 . S
C3726 C3724 1.500 . S
C3726 C3727 1.371 . S
C3726 C3728 1.365 . S
C3727 C3726 1.371 . S
C3727 C3737 1.386 . S
C3727 H3745 0.931 . S
C3728 C3726 1.365 . S
C3728 C3729 1.409 . S
C3728 H3746 0.929 . S
C3729 C3728 1.409 . S
C3729 C3730 1.380 . S
C3729 H3747 0.930 . S
C3730 C3729 1.380 . S
C3730 C3737 1.357 . S
C3731 C3722 1.511 . S
C3731 C3732 1.341 . S
C3731 C3733 1.371 . S
C3732 C3731 1.341 . S
C3732 C3736 1.394 . S
C3732 H3748 0.930 . S
C3733 C3731 1.371 . S
C3733 C3734 1.392 . S
C3733 H3749 0.931 . S
C3734 C3733 1.392 . S
C3734 C3735 1.331 . S
C3734 H3752 0.932 . S
C3735 C3734 1.331 . S
C3735 C3736 1.336 . S
C3736 C3732 1.394 . S
C3736 C3735 1.336 . S
C3736 H3751 0.929 . S
C3737 C3727 1.386 . S
C3737 C3730 1.357 . S
C3737 H3750 0.928 . S
H3738 C3714 0.931 . S
H3739 C3716 0.930 . S
H3740 C3718 0.929 . S
H3741 C3719 0.931 . S
H3742 C3721 0.930 . S
H3743 C3725 0.931 . S
H3744 C3723 0.931 . S
H3745 C3727 0.931 . S
H3746 C3728 0.929 . S
H3747 C3729 0.930 . S
H3748 C3732 0.930 . S
H3749 C3733 0.931 . S
H3750 C3737 0.928 . S
H3751 C3736 0.929 . S
H3752 C3734 0.932 . S
C3753 C3754 1.386 . S
C3753 C3755 1.397 . S
C3753 H3777 0.931 . S
C3754 C3753 1.386 . S
C3754 C3758 1.397 . S
C3755 C3753 1.397 . S
C3755 C3756 1.384 . S
C3755 H3778 0.930 . S
C3756 C3755 1.384 . S
C3756 C3757 1.377 . S
C3756 C3759 1.481 . S
C3757 C3756 1.377 . S
C3757 C3758 1.389 . S
C3757 H3779 0.929 . S
C3758 C3754 1.397 . S
C3758 C3757 1.389 . S
C3758 H3780 0.931 . S
C3759 C3756 1.481 . S
C3759 C3760 1.387 . S
C3759 C3764 1.390 . S
C3760 C3759 1.387 . S
C3760 C3761 1.401 . S
C3760 H3781 0.930 . S
C3761 C3760 1.401 . S
C3761 C3762 1.376 . S
C3761 C3770 1.511 . S
C3762 C3761 1.376 . S
C3762 C3763 1.392 . S
C3762 H3783 0.931 . S
C3763 C3762 1.392 . S
C3763 C3764 1.361 . S
C3763 C3765 1.500 . S
C3764 C3759 1.390 . S
C3764 C3763 1.361 . S
C3764 H3782 0.931 . S
C3765 C3763 1.500 . S
C3765 C3766 1.371 . S
C3765 C3767 1.365 . S
C3766 C3765 1.371 . S
C3766 C3776 1.386 . S
C3766 H3784 0.931 . S
C3767 C3765 1.365 . S
C3767 C3768 1.409 . S
C3767 H3785 0.929 . S
C3768 C3767 1.409 . S
C3768 C3769 1.380 . S
C3768 H3786 0.930 . S
C3769 C3768 1.380 . S
C3769 C3776 1.357 . S
C3770 C3761 1.511 . S
C3770 C3771 1.341 . S
C3770 C3772 1.371 . S
C3771 C3770 1.341 . S
C3771 C3775 1.394 . S
C3771 H3787 0.930 . S
C3772 C3770 1.371 . S
C3772 C3773 1.392 . S
C3772 H3788 0.931 . S
C3773 C3772 1.392 . S
C3773 C3774 1.331 . S
C3773 H3791 0.932 . S
C3774 C3773 1.331 . S
C3774 C3775 1.336 . S
C3775 C3771 1.394 . S
C3775 C3774 1.336 . S
C3775 H3790 0.929 . S
C3776 C3766 1.386 . S
C3776 C3769 1.357 . S
C3776 H3789 0.928 . S
H3777 C3753 0.931 . S
H3778 C3755 0.930 . S
H3779 C3757 0.929 . S
H3780 C3758 0.931 . S
H3781 C3760 0.930 . S
H3782 C3764 0.931 . S
H3783 C3762 0.931 . S
H3784 C3766 0.931 . S
H3785 C3767 0.929 . S
H3786 C3768 0.930 . S
H3787 C3771 0.930 . S
H3788 C3772 0.931 . S
H3789 C3776 0.928 . S
H3790 C3775 0.929 . S
H3791 C3773 0.932 . S
C3792 C3793 1.349 . S
C3792 C3794 1.327 . S
C3792 H3817 0.950 . S
C3793 C3792 1.349 . S
C3793 C3809 1.349 . S
C3794 C3792 1.327 . S
C3794 C3813 1.429 . S
C3794 H3818 0.950 . S
C3795 C3812 1.574 . S
C3795 C3814 1.368 . S
C3795 H3819 0.949 . S
H3796 C3800 0.949 . S
C3797 C3798 1.349 . S
C3797 C3799 1.327 . S
C3797 H3820 0.950 . S
C3798 C3797 1.349 . S
C3798 C3810 1.349 . S
C3799 C3797 1.327 . S
C3799 C3815 1.429 . S
C3799 H3821 0.950 . S
C3800 H3796 0.949 . S
C3800 C3808 1.574 . S
C3800 C3816 1.368 . S
H3801 C3809 0.950 . S
H3802 C3807 0.950 . S
H3803 C3808 0.949 . S
H3804 C3810 0.950 . S
H3805 C3811 0.950 . S
H3806 C3812 0.949 . S
C3807 H3802 0.950 . S
C3807 C3809 1.327 . S
C3807 C3813 1.429 . S
C3808 C3800 1.574 . S
C3808 H3803 0.949 . S
C3808 C3814 1.368 . S
C3809 C3793 1.349 . S
C3809 H3801 0.950 . S
C3809 C3807 1.327 . S
C3810 C3798 1.349 . S
C3810 H3804 0.950 . S
C3810 C3811 1.327 . S
C3811 H3805 0.950 . S
C3811 C3810 1.327 . S
C3811 C3815 1.429 . S
C3812 C3795 1.574 . S
C3812 H3806 0.949 . S
C3812 C3816 1.368 . S
C3813 C3794 1.429 . S
C3813 C3807 1.429 . S
C3813 C3814 1.523 . S
C3814 C3795 1.368 . S
C3814 C3808 1.368 . S
C3814 C3813 1.523 . S
C3815 C3799 1.429 . S
C3815 C3811 1.429 . S
C3815 C3816 1.523 . S
C3816 C3800 1.368 . S
C3816 C3812 1.368 . S
C3816 C3815 1.523 . S
H3817 C3792 0.950 . S
H3818 C3794 0.950 . S
H3819 C3795 0.949 . S
H3820 C3797 0.950 . S
H3821 C3799 0.950 . S
C3822 C3823 1.349 . S
C3822 C3824 1.327 . S
C3822 H3847 0.950 . S
C3823 C3822 1.349 . S
C3823 C3839 1.349 . S
C3824 C3822 1.327 . S
C3824 C3843 1.429 . S
C3824 H3848 0.950 . S
C3825 C3842 1.574 . S
C3825 C3844 1.368 . S
C3825 H3849 0.949 . S
H3826 C3830 0.949 . S
C3827 C3828 1.349 . S
C3827 C3829 1.327 . S
C3827 H3850 0.950 . S
C3828 C3827 1.349 . S
C3828 C3840 1.349 . S
C3829 C3827 1.327 . S
C3829 C3845 1.429 . S
C3829 H3851 0.950 . S
C3830 H3826 0.949 . S
C3830 C3838 1.574 . S
C3830 C3846 1.368 . S
H3831 C3839 0.950 . S
H3832 C3837 0.950 . S
H3833 C3838 0.949 . S
H3834 C3840 0.950 . S
H3835 C3841 0.950 . S
H3836 C3842 0.949 . S
C3837 H3832 0.950 . S
C3837 C3839 1.327 . S
C3837 C3843 1.429 . S
C3838 C3830 1.574 . S
C3838 H3833 0.949 . S
C3838 C3844 1.368 . S
C3839 C3823 1.349 . S
C3839 H3831 0.950 . S
C3839 C3837 1.327 . S
C3840 C3828 1.349 . S
C3840 H3834 0.950 . S
C3840 C3841 1.327 . S
C3841 H3835 0.950 . S
C3841 C3840 1.327 . S
C3841 C3845 1.429 . S
C3842 C3825 1.574 . S
C3842 H3836 0.949 . S
C3842 C3846 1.368 . S
C3843 C3824 1.429 . S
C3843 C3837 1.429 . S
C3843 C3844 1.523 . S
C3844 C3825 1.368 . S
C3844 C3838 1.368 . S
C3844 C3843 1.523 . S
C3845 C3829 1.429 . S
C3845 C3841 1.429 . S
C3845 C3846 1.523 . S
C3846 C3830 1.368 . S
C3846 C3842 1.368 . S
C3846 C3845 1.523 . S
H3847 C3822 0.950 . S
H3848 C3824 0.950 . S
H3849 C3825 0.949 . S
H3850 C3827 0.950 . S
H3851 C3829 0.950 . S
C3852 C3853 1.349 . S
C3852 C3854 1.327 . S
C3852 H3877 0.950 . S
C3853 C3852 1.349 . S
C3853 C3869 1.349 . S
C3854 C3852 1.327 . S
C3854 C3873 1.429 . S
C3854 H3878 0.950 . S
C3855 C3872 1.574 . S
C3855 C3874 1.368 . S
C3855 H3879 0.949 . S
H3856 C3860 0.949 . S
C3857 C3858 1.349 . S
C3857 C3859 1.327 . S
C3857 H3880 0.950 . S
C3858 C3857 1.349 . S
C3858 C3870 1.349 . S
C3859 C3857 1.327 . S
C3859 C3875 1.429 . S
C3859 H3881 0.950 . S
C3860 H3856 0.949 . S
C3860 C3868 1.574 . S
C3860 C3876 1.368 . S
H3861 C3869 0.950 . S
H3862 C3867 0.950 . S
H3863 C3868 0.949 . S
H3864 C3870 0.950 . S
H3865 C3871 0.950 . S
H3866 C3872 0.949 . S
C3867 H3862 0.950 . S
C3867 C3869 1.327 . S
C3867 C3873 1.429 . S
C3868 C3860 1.574 . S
C3868 H3863 0.949 . S
C3868 C3874 1.368 . S
C3869 C3853 1.349 . S
C3869 H3861 0.950 . S
C3869 C3867 1.327 . S
C3870 C3858 1.349 . S
C3870 H3864 0.950 . S
C3870 C3871 1.327 . S
C3871 H3865 0.950 . S
C3871 C3870 1.327 . S
C3871 C3875 1.429 . S
C3872 C3855 1.574 . S
C3872 H3866 0.949 . S
C3872 C3876 1.368 . S
C3873 C3854 1.429 . S
C3873 C3867 1.429 . S
C3873 C3874 1.523 . S
C3874 C3855 1.368 . S
C3874 C3868 1.368 . S
C3874 C3873 1.523 . S
C3875 C3859 1.429 . S
C3875 C3871 1.429 . S
C3875 C3876 1.523 . S
C3876 C3860 1.368 . S
C3876 C3872 1.368 . S
C3876 C3875 1.523 . S
H3877 C3852 0.950 . S
H3878 C3854 0.950 . S
H3879 C3855 0.949 . S
H3880 C3857 0.950 . S
H3881 C3859 0.950 . S
C3882 C3883 1.349 . S
C3882 C3884 1.327 . S
C3882 H3907 0.950 . S
C3883 C3882 1.349 . S
C3883 C3899 1.349 . S
C3884 C3882 1.327 . S
C3884 C3903 1.429 . S
C3884 H3908 0.950 . S
C3885 C3902 1.574 . S
C3885 C3904 1.368 . S
C3885 H3909 0.949 . S
H3886 C3890 0.949 . S
C3887 C3888 1.349 . S
C3887 C3889 1.327 . S
C3887 H3910 0.950 . S
C3888 C3887 1.349 . S
C3888 C3900 1.349 . S
C3889 C3887 1.327 . S
C3889 C3905 1.429 . S
C3889 H3911 0.950 . S
C3890 H3886 0.949 . S
C3890 C3898 1.574 . S
C3890 C3906 1.368 . S
H3891 C3899 0.950 . S
H3892 C3897 0.950 . S
H3893 C3898 0.949 . S
H3894 C3900 0.950 . S
H3895 C3901 0.950 . S
H3896 C3902 0.949 . S
C3897 H3892 0.950 . S
C3897 C3899 1.327 . S
C3897 C3903 1.429 . S
C3898 C3890 1.574 . S
C3898 H3893 0.949 . S
C3898 C3904 1.368 . S
C3899 C3883 1.349 . S
C3899 H3891 0.950 . S
C3899 C3897 1.327 . S
C3900 C3888 1.349 . S
C3900 H3894 0.950 . S
C3900 C3901 1.327 . S
C3901 H3895 0.950 . S
C3901 C3900 1.327 . S
C3901 C3905 1.429 . S
C3902 C3885 1.574 . S
C3902 H3896 0.949 . S
C3902 C3906 1.368 . S
C3903 C3884 1.429 . S
C3903 C3897 1.429 . S
C3903 C3904 1.523 . S
C3904 C3885 1.368 . S
C3904 C3898 1.368 . S
C3904 C3903 1.523 . S
C3905 C3889 1.429 . S
C3905 C3901 1.429 . S
C3905 C3906 1.523 . S
C3906 C3890 1.368 . S
C3906 C3902 1.368 . S
C3906 C3905 1.523 . S
H3907 C3882 0.950 . S
H3908 C3884 0.950 . S
H3909 C3885 0.949 . S
H3910 C3887 0.950 . S
H3911 C3889 0.950 . S
C3912 C3913 1.349 . S
C3912 C3914 1.327 . S
C3912 H3937 0.950 . S
C3913 C3912 1.349 . S
C3913 C3929 1.349 . S
C3914 C3912 1.327 . S
C3914 C3933 1.429 . S
C3914 H3938 0.950 . S
C3915 C3932 1.574 . S
C3915 C3934 1.368 . S
C3915 H3939 0.949 . S
H3916 C3920 0.949 . S
C3917 C3918 1.349 . S
C3917 C3919 1.327 . S
C3917 H3940 0.950 . S
C3918 C3917 1.349 . S
C3918 C3930 1.349 . S
C3919 C3917 1.327 . S
C3919 C3935 1.429 . S
C3919 H3941 0.950 . S
C3920 H3916 0.949 . S
C3920 C3928 1.574 . S
C3920 C3936 1.368 . S
H3921 C3929 0.950 . S
H3922 C3927 0.950 . S
H3923 C3928 0.949 . S
H3924 C3930 0.950 . S
H3925 C3931 0.950 . S
H3926 C3932 0.949 . S
C3927 H3922 0.950 . S
C3927 C3929 1.327 . S
C3927 C3933 1.429 . S
C3928 C3920 1.574 . S
C3928 H3923 0.949 . S
C3928 C3934 1.368 . S
C3929 C3913 1.349 . S
C3929 H3921 0.950 . S
C3929 C3927 1.327 . S
C3930 C3918 1.349 . S
C3930 H3924 0.950 . S
C3930 C3931 1.327 . S
C3931 H3925 0.950 . S
C3931 C3930 1.327 . S
C3931 C3935 1.429 . S
C3932 C3915 1.574 . S
C3932 H3926 0.949 . S
C3932 C3936 1.368 . S
C3933 C3914 1.429 . S
C3933 C3927 1.429 . S
C3933 C3934 1.523 . S
C3934 C3915 1.368 . S
C3934 C3928 1.368 . S
C3934 C3933 1.523 . S
C3935 C3919 1.429 . S
C3935 C3931 1.429 . S
C3935 C3936 1.523 . S
C3936 C3920 1.368 . S
C3936 C3932 1.368 . S
C3936 C3935 1.523 . S
H3937 C3912 0.950 . S
H3938 C3914 0.950 . S
H3939 C3915 0.949 . S
H3940 C3917 0.950 . S
H3941 C3919 0.950 . S
C3942 C3943 1.349 . S
C3942 C3944 1.327 . S
C3942 H3967 0.950 . S
C3943 C3942 1.349 . S
C3943 C3959 1.349 . S
C3944 C3942 1.327 . S
C3944 C3963 1.429 . S
C3944 H3968 0.950 . S
C3945 C3962 1.574 . S
C3945 C3964 1.368 . S
C3945 H3969 0.949 . S
H3946 C3950 0.949 . S
C3947 C3948 1.349 . S
C3947 C3949 1.327 . S
C3947 H3970 0.950 . S
C3948 C3947 1.349 . S
C3948 C3960 1.349 . S
C3949 C3947 1.327 . S
C3949 C3965 1.429 . S
C3949 H3971 0.950 . S
C3950 H3946 0.949 . S
C3950 C3958 1.574 . S
C3950 C3966 1.368 . S
H3951 C3959 0.950 . S
H3952 C3957 0.950 . S
H3953 C3958 0.949 . S
H3954 C3960 0.950 . S
H3955 C3961 0.950 . S
H3956 C3962 0.949 . S
C3957 H3952 0.950 . S
C3957 C3959 1.327 . S
C3957 C3963 1.429 . S
C3958 C3950 1.574 . S
C3958 H3953 0.949 . S
C3958 C3964 1.368 . S
C3959 C3943 1.349 . S
C3959 H3951 0.950 . S
C3959 C3957 1.327 . S
C3960 C3948 1.349 . S
C3960 H3954 0.950 . S
C3960 C3961 1.327 . S
C3961 H3955 0.950 . S
C3961 C3960 1.327 . S
C3961 C3965 1.429 . S
C3962 C3945 1.574 . S
C3962 H3956 0.949 . S
C3962 C3966 1.368 . S
C3963 C3944 1.429 . S
C3963 C3957 1.429 . S
C3963 C3964 1.523 . S
C3964 C3945 1.368 . S
C3964 C3958 1.368 . S
C3964 C3963 1.523 . S
C3965 C3949 1.429 . S
C3965 C3961 1.429 . S
C3965 C3966 1.523 . S
C3966 C3950 1.368 . S
C3966 C3962 1.368 . S
C3966 C3965 1.523 . S
H3967 C3942 0.950 . S
H3968 C3944 0.950 . S
H3969 C3945 0.949 . S
H3970 C3947 0.950 . S
H3971 C3949 0.950 . S
C3972 C3973 1.349 . S
C3972 C3974 1.327 . S
C3972 H3997 0.950 . S
C3973 C3972 1.349 . S
C3973 C3989 1.349 . S
C3974 C3972 1.327 . S
C3974 C3993 1.429 . S
C3974 H3998 0.950 . S
C3975 C3992 1.574 . S
C3975 C3994 1.368 . S
C3975 H3999 0.949 . S
H3976 C3980 0.949 . S
C3977 C3978 1.349 . S
C3977 C3979 1.327 . S
C3977 H4000 0.950 . S
C3978 C3977 1.349 . S
C3978 C3990 1.349 . S
C3979 C3977 1.327 . S
C3979 C3995 1.429 . S
C3979 H4001 0.950 . S
C3980 H3976 0.949 . S
C3980 C3988 1.574 . S
C3980 C3996 1.368 . S
H3981 C3989 0.950 . S
H3982 C3987 0.950 . S
H3983 C3988 0.949 . S
H3984 C3990 0.950 . S
H3985 C3991 0.950 . S
H3986 C3992 0.949 . S
C3987 H3982 0.950 . S
C3987 C3989 1.327 . S
C3987 C3993 1.429 . S
C3988 C3980 1.574 . S
C3988 H3983 0.949 . S
C3988 C3994 1.368 . S
C3989 C3973 1.349 . S
C3989 H3981 0.950 . S
C3989 C3987 1.327 . S
C3990 C3978 1.349 . S
C3990 H3984 0.950 . S
C3990 C3991 1.327 . S
C3991 H3985 0.950 . S
C3991 C3990 1.327 . S
C3991 C3995 1.429 . S
C3992 C3975 1.574 . S
C3992 H3986 0.949 . S
C3992 C3996 1.368 . S
C3993 C3974 1.429 . S
C3993 C3987 1.429 . S
C3993 C3994 1.523 . S
C3994 C3975 1.368 . S
C3994 C3988 1.368 . S
C3994 C3993 1.523 . S
C3995 C3979 1.429 . S
C3995 C3991 1.429 . S
C3995 C3996 1.523 . S
C3996 C3980 1.368 . S
C3996 C3992 1.368 . S
C3996 C3995 1.523 . S
H3997 C3972 0.950 . S
H3998 C3974 0.950 . S
H3999 C3975 0.949 . S
H4000 C3977 0.950 . S
H4001 C3979 0.950 . S
C4002 C4003 1.349 . S
C4002 C4004 1.327 . S
C4002 H4027 0.950 . S
C4003 C4002 1.349 . S
C4003 C4019 1.349 . S
C4004 C4002 1.327 . S
C4004 C4023 1.429 . S
C4004 H4028 0.950 . S
C4005 C4022 1.574 . S
C4005 C4024 1.368 . S
C4005 H4029 0.949 . S
H4006 C4010 0.949 . S
C4007 C4008 1.349 . S
C4007 C4009 1.327 . S
C4007 H4030 0.950 . S
C4008 C4007 1.349 . S
C4008 C4020 1.349 . S
C4009 C4007 1.327 . S
C4009 C4025 1.429 . S
C4009 H4031 0.950 . S
C4010 H4006 0.949 . S
C4010 C4018 1.574 . S
C4010 C4026 1.368 . S
H4011 C4019 0.950 . S
H4012 C4017 0.950 . S
H4013 C4018 0.949 . S
H4014 C4020 0.950 . S
H4015 C4021 0.950 . S
H4016 C4022 0.949 . S
C4017 H4012 0.950 . S
C4017 C4019 1.327 . S
C4017 C4023 1.429 . S
C4018 C4010 1.574 . S
C4018 H4013 0.949 . S
C4018 C4024 1.368 . S
C4019 C4003 1.349 . S
C4019 H4011 0.950 . S
C4019 C4017 1.327 . S
C4020 C4008 1.349 . S
C4020 H4014 0.950 . S
C4020 C4021 1.327 . S
C4021 H4015 0.950 . S
C4021 C4020 1.327 . S
C4021 C4025 1.429 . S
C4022 C4005 1.574 . S
C4022 H4016 0.949 . S
C4022 C4026 1.368 . S
C4023 C4004 1.429 . S
C4023 C4017 1.429 . S
C4023 C4024 1.523 . S
C4024 C4005 1.368 . S
C4024 C4018 1.368 . S
C4024 C4023 1.523 . S
C4025 C4009 1.429 . S
C4025 C4021 1.429 . S
C4025 C4026 1.523 . S
C4026 C4010 1.368 . S
C4026 C4022 1.368 . S
C4026 C4025 1.523 . S
H4027 C4002 0.950 . S
H4028 C4004 0.950 . S
H4029 C4005 0.949 . S
H4030 C4007 0.950 . S
H4031 C4009 0.950 . S
C4032 C4033 1.349 . S
C4032 C4034 1.327 . S
C4032 H4057 0.950 . S
C4033 C4032 1.349 . S
C4033 C4049 1.349 . S
C4034 C4032 1.327 . S
C4034 C4053 1.429 . S
C4034 H4058 0.950 . S
C4035 C4052 1.574 . S
C4035 C4054 1.368 . S
C4035 H4059 0.949 . S
H4036 C4040 0.949 . S
C4037 C4038 1.349 . S
C4037 C4039 1.327 . S
C4037 H4060 0.950 . S
C4038 C4037 1.349 . S
C4038 C4050 1.349 . S
C4039 C4037 1.327 . S
C4039 C4055 1.429 . S
C4039 H4061 0.950 . S
C4040 H4036 0.949 . S
C4040 C4048 1.574 . S
C4040 C4056 1.368 . S
H4041 C4049 0.950 . S
H4042 C4047 0.950 . S
H4043 C4048 0.949 . S
H4044 C4050 0.950 . S
H4045 C4051 0.950 . S
H4046 C4052 0.949 . S
C4047 H4042 0.950 . S
C4047 C4049 1.327 . S
C4047 C4053 1.429 . S
C4048 C4040 1.574 . S
C4048 H4043 0.949 . S
C4048 C4054 1.368 . S
C4049 C4033 1.349 . S
C4049 H4041 0.950 . S
C4049 C4047 1.327 . S
C4050 C4038 1.349 . S
C4050 H4044 0.950 . S
C4050 C4051 1.327 . S
C4051 H4045 0.950 . S
C4051 C4050 1.327 . S
C4051 C4055 1.429 . S
C4052 C4035 1.574 . S
C4052 H4046 0.949 . S
C4052 C4056 1.368 . S
C4053 C4034 1.429 . S
C4053 C4047 1.429 . S
C4053 C4054 1.523 . S
C4054 C4035 1.368 . S
C4054 C4048 1.368 . S
C4054 C4053 1.523 . S
C4055 C4039 1.429 . S
C4055 C4051 1.429 . S
C4055 C4056 1.523 . S
C4056 C4040 1.368 . S
C4056 C4052 1.368 . S
C4056 C4055 1.523 . S
H4057 C4032 0.950 . S
H4058 C4034 0.950 . S
H4059 C4035 0.949 . S
H4060 C4037 0.950 . S
H4061 C4039 0.950 . S
C4062 C4063 1.349 . S
C4062 C4064 1.327 . S
C4062 H4087 0.950 . S
C4063 C4062 1.349 . S
C4063 C4079 1.349 . S
C4064 C4062 1.327 . S
C4064 C4083 1.429 . S
C4064 H4088 0.950 . S
C4065 C4082 1.574 . S
C4065 C4084 1.368 . S
C4065 H4089 0.949 . S
H4066 C4070 0.949 . S
C4067 C4068 1.349 . S
C4067 C4069 1.327 . S
C4067 H4090 0.950 . S
C4068 C4067 1.349 . S
C4068 C4080 1.349 . S
C4069 C4067 1.327 . S
C4069 C4085 1.429 . S
C4069 H4091 0.950 . S
C4070 H4066 0.949 . S
C4070 C4078 1.574 . S
C4070 C4086 1.368 . S
H4071 C4079 0.950 . S
H4072 C4077 0.950 . S
H4073 C4078 0.949 . S
H4074 C4080 0.950 . S
H4075 C4081 0.950 . S
H4076 C4082 0.949 . S
C4077 H4072 0.950 . S
C4077 C4079 1.327 . S
C4077 C4083 1.429 . S
C4078 C4070 1.574 . S
C4078 H4073 0.949 . S
C4078 C4084 1.368 . S
C4079 C4063 1.349 . S
C4079 H4071 0.950 . S
C4079 C4077 1.327 . S
C4080 C4068 1.349 . S
C4080 H4074 0.950 . S
C4080 C4081 1.327 . S
C4081 H4075 0.950 . S
C4081 C4080 1.327 . S
C4081 C4085 1.429 . S
C4082 C4065 1.574 . S
C4082 H4076 0.949 . S
C4082 C4086 1.368 . S
C4083 C4064 1.429 . S
C4083 C4077 1.429 . S
C4083 C4084 1.523 . S
C4084 C4065 1.368 . S
C4084 C4078 1.368 . S
C4084 C4083 1.523 . S
C4085 C4069 1.429 . S
C4085 C4081 1.429 . S
C4085 C4086 1.523 . S
C4086 C4070 1.368 . S
C4086 C4082 1.368 . S
C4086 C4085 1.523 . S
H4087 C4062 0.950 . S
H4088 C4064 0.950 . S
H4089 C4065 0.949 . S
H4090 C4067 0.950 . S
H4091 C4069 0.950 . S
C4092 C4093 1.349 . S
C4092 C4094 1.327 . S
C4092 H4117 0.950 . S
C4093 C4092 1.349 . S
C4093 C4109 1.349 . S
C4094 C4092 1.327 . S
C4094 C4113 1.429 . S
C4094 H4118 0.950 . S
C4095 C4112 1.574 . S
C4095 C4114 1.368 . S
C4095 H4119 0.949 . S
H4096 C4100 0.949 . S
C4097 C4098 1.349 . S
C4097 C4099 1.327 . S
C4097 H4120 0.950 . S
C4098 C4097 1.349 . S
C4098 C4110 1.349 . S
C4099 C4097 1.327 . S
C4099 C4115 1.429 . S
C4099 H4121 0.950 . S
C4100 H4096 0.949 . S
C4100 C4108 1.574 . S
C4100 C4116 1.368 . S
H4101 C4109 0.950 . S
H4102 C4107 0.950 . S
H4103 C4108 0.949 . S
H4104 C4110 0.950 . S
H4105 C4111 0.950 . S
H4106 C4112 0.949 . S
C4107 H4102 0.950 . S
C4107 C4109 1.327 . S
C4107 C4113 1.429 . S
C4108 C4100 1.574 . S
C4108 H4103 0.949 . S
C4108 C4114 1.368 . S
C4109 C4093 1.349 . S
C4109 H4101 0.950 . S
C4109 C4107 1.327 . S
C4110 C4098 1.349 . S
C4110 H4104 0.950 . S
C4110 C4111 1.327 . S
C4111 H4105 0.950 . S
C4111 C4110 1.327 . S
C4111 C4115 1.429 . S
C4112 C4095 1.574 . S
C4112 H4106 0.949 . S
C4112 C4116 1.368 . S
C4113 C4094 1.429 . S
C4113 C4107 1.429 . S
C4113 C4114 1.523 . S
C4114 C4095 1.368 . S
C4114 C4108 1.368 . S
C4114 C4113 1.523 . S
C4115 C4099 1.429 . S
C4115 C4111 1.429 . S
C4115 C4116 1.523 . S
C4116 C4100 1.368 . S
C4116 C4112 1.368 . S
C4116 C4115 1.523 . S
H4117 C4092 0.950 . S
H4118 C4094 0.950 . S
H4119 C4095 0.949 . S
H4120 C4097 0.950 . S
H4121 C4099 0.950 . S
C4122 C4123 1.349 . S
C4122 C4124 1.327 . S
C4122 H4147 0.950 . S
C4123 C4122 1.349 . S
C4123 C4139 1.349 . S
C4124 C4122 1.327 . S
C4124 C4143 1.429 . S
C4124 H4148 0.950 . S
C4125 C4142 1.574 . S
C4125 C4144 1.368 . S
C4125 H4149 0.949 . S
H4126 C4130 0.949 . S
C4127 C4128 1.349 . S
C4127 C4129 1.327 . S
C4127 H4150 0.950 . S
C4128 C4127 1.349 . S
C4128 C4140 1.349 . S
C4129 C4127 1.327 . S
C4129 C4145 1.429 . S
C4129 H4151 0.950 . S
C4130 H4126 0.949 . S
C4130 C4138 1.574 . S
C4130 C4146 1.368 . S
H4131 C4139 0.950 . S
H4132 C4137 0.950 . S
H4133 C4138 0.949 . S
H4134 C4140 0.950 . S
H4135 C4141 0.950 . S
H4136 C4142 0.949 . S
C4137 H4132 0.950 . S
C4137 C4139 1.327 . S
C4137 C4143 1.429 . S
C4138 C4130 1.574 . S
C4138 H4133 0.949 . S
C4138 C4144 1.368 . S
C4139 C4123 1.349 . S
C4139 H4131 0.950 . S
C4139 C4137 1.327 . S
C4140 C4128 1.349 . S
C4140 H4134 0.950 . S
C4140 C4141 1.327 . S
C4141 H4135 0.950 . S
C4141 C4140 1.327 . S
C4141 C4145 1.429 . S
C4142 C4125 1.574 . S
C4142 H4136 0.949 . S
C4142 C4146 1.368 . S
C4143 C4124 1.429 . S
C4143 C4137 1.429 . S
C4143 C4144 1.523 . S
C4144 C4125 1.368 . S
C4144 C4138 1.368 . S
C4144 C4143 1.523 . S
C4145 C4129 1.429 . S
C4145 C4141 1.429 . S
C4145 C4146 1.523 . S
C4146 C4130 1.368 . S
C4146 C4142 1.368 . S
C4146 C4145 1.523 . S
H4147 C4122 0.950 . S
H4148 C4124 0.950 . S
H4149 C4125 0.949 . S
H4150 C4127 0.950 . S
H4151 C4129 0.950 . S
C4152 C4153 1.349 . S
C4152 C4154 1.327 . S
C4152 H4177 0.950 . S
C4153 C4152 1.349 . S
C4153 C4169 1.349 . S
C4154 C4152 1.327 . S
C4154 C4173 1.429 . S
C4154 H4178 0.950 . S
C4155 C4172 1.574 . S
C4155 C4174 1.368 . S
C4155 H4179 0.949 . S
H4156 C4160 0.949 . S
C4157 C4158 1.349 . S
C4157 C4159 1.327 . S
C4157 H4180 0.950 . S
C4158 C4157 1.349 . S
C4158 C4170 1.349 . S
C4159 C4157 1.327 . S
C4159 C4175 1.429 . S
C4159 H4181 0.950 . S
C4160 H4156 0.949 . S
C4160 C4168 1.574 . S
C4160 C4176 1.368 . S
H4161 C4169 0.950 . S
H4162 C4167 0.950 . S
H4163 C4168 0.949 . S
H4164 C4170 0.950 . S
H4165 C4171 0.950 . S
H4166 C4172 0.949 . S
C4167 H4162 0.950 . S
C4167 C4169 1.327 . S
C4167 C4173 1.429 . S
C4168 C4160 1.574 . S
C4168 H4163 0.949 . S
C4168 C4174 1.368 . S
C4169 C4153 1.349 . S
C4169 H4161 0.950 . S
C4169 C4167 1.327 . S
C4170 C4158 1.349 . S
C4170 H4164 0.950 . S
C4170 C4171 1.327 . S
C4171 H4165 0.950 . S
C4171 C4170 1.327 . S
C4171 C4175 1.429 . S
C4172 C4155 1.574 . S
C4172 H4166 0.949 . S
C4172 C4176 1.368 . S
C4173 C4154 1.429 . S
C4173 C4167 1.429 . S
C4173 C4174 1.523 . S
C4174 C4155 1.368 . S
C4174 C4168 1.368 . S
C4174 C4173 1.523 . S
C4175 C4159 1.429 . S
C4175 C4171 1.429 . S
C4175 C4176 1.523 . S
C4176 C4160 1.368 . S
C4176 C4172 1.368 . S
C4176 C4175 1.523 . S
H4177 C4152 0.950 . S
H4178 C4154 0.950 . S
H4179 C4155 0.949 . S
H4180 C4157 0.950 . S
H4181 C4159 0.950 . S
C4182 C4183 1.349 . S
C4182 C4184 1.327 . S
C4182 H4207 0.950 . S
C4183 C4182 1.349 . S
C4183 C4199 1.349 . S
C4184 C4182 1.327 . S
C4184 C4203 1.429 . S
C4184 H4208 0.950 . S
C4185 C4202 1.574 . S
C4185 C4204 1.368 . S
C4185 H4209 0.949 . S
H4186 C4190 0.949 . S
C4187 C4188 1.349 . S
C4187 C4189 1.327 . S
C4187 H4210 0.950 . S
C4188 C4187 1.349 . S
C4188 C4200 1.349 . S
C4189 C4187 1.327 . S
C4189 C4205 1.429 . S
C4189 H4211 0.950 . S
C4190 H4186 0.949 . S
C4190 C4198 1.574 . S
C4190 C4206 1.368 . S
H4191 C4199 0.950 . S
H4192 C4197 0.950 . S
H4193 C4198 0.949 . S
H4194 C4200 0.950 . S
H4195 C4201 0.950 . S
H4196 C4202 0.949 . S
C4197 H4192 0.950 . S
C4197 C4199 1.327 . S
C4197 C4203 1.429 . S
C4198 C4190 1.574 . S
C4198 H4193 0.949 . S
C4198 C4204 1.368 . S
C4199 C4183 1.349 . S
C4199 H4191 0.950 . S
C4199 C4197 1.327 . S
C4200 C4188 1.349 . S
C4200 H4194 0.950 . S
C4200 C4201 1.327 . S
C4201 H4195 0.950 . S
C4201 C4200 1.327 . S
C4201 C4205 1.429 . S
C4202 C4185 1.574 . S
C4202 H4196 0.949 . S
C4202 C4206 1.368 . S
C4203 C4184 1.429 . S
C4203 C4197 1.429 . S
C4203 C4204 1.523 . S
C4204 C4185 1.368 . S
C4204 C4198 1.368 . S
C4204 C4203 1.523 . S
C4205 C4189 1.429 . S
C4205 C4201 1.429 . S
C4205 C4206 1.523 . S
C4206 C4190 1.368 . S
C4206 C4202 1.368 . S
C4206 C4205 1.523 . S
H4207 C4182 0.950 . S
H4208 C4184 0.950 . S
H4209 C4185 0.949 . S
H4210 C4187 0.950 . S
H4211 C4189 0.950 . S
C4212 C4213 1.349 . S
C4212 C4214 1.327 . S
C4212 H4237 0.950 . S
C4213 C4212 1.349 . S
C4213 C4229 1.349 . S
C4214 C4212 1.327 . S
C4214 C4233 1.429 . S
C4214 H4238 0.950 . S
C4215 C4232 1.574 . S
C4215 C4234 1.368 . S
C4215 H4239 0.949 . S
H4216 C4220 0.949 . S
C4217 C4218 1.349 . S
C4217 C4219 1.327 . S
C4217 H4240 0.950 . S
C4218 C4217 1.349 . S
C4218 C4230 1.349 . S
C4219 C4217 1.327 . S
C4219 C4235 1.429 . S
C4219 H4241 0.950 . S
C4220 H4216 0.949 . S
C4220 C4228 1.574 . S
C4220 C4236 1.368 . S
H4221 C4229 0.950 . S
H4222 C4227 0.950 . S
H4223 C4228 0.949 . S
H4224 C4230 0.950 . S
H4225 C4231 0.950 . S
H4226 C4232 0.949 . S
C4227 H4222 0.950 . S
C4227 C4229 1.327 . S
C4227 C4233 1.429 . S
C4228 C4220 1.574 . S
C4228 H4223 0.949 . S
C4228 C4234 1.368 . S
C4229 C4213 1.349 . S
C4229 H4221 0.950 . S
C4229 C4227 1.327 . S
C4230 C4218 1.349 . S
C4230 H4224 0.950 . S
C4230 C4231 1.327 . S
C4231 H4225 0.950 . S
C4231 C4230 1.327 . S
C4231 C4235 1.429 . S
C4232 C4215 1.574 . S
C4232 H4226 0.949 . S
C4232 C4236 1.368 . S
C4233 C4214 1.429 . S
C4233 C4227 1.429 . S
C4233 C4234 1.523 . S
C4234 C4215 1.368 . S
C4234 C4228 1.368 . S
C4234 C4233 1.523 . S
C4235 C4219 1.429 . S
C4235 C4231 1.429 . S
C4235 C4236 1.523 . S
C4236 C4220 1.368 . S
C4236 C4232 1.368 . S
C4236 C4235 1.523 . S
H4237 C4212 0.950 . S
H4238 C4214 0.950 . S
H4239 C4215 0.949 . S
H4240 C4217 0.950 . S
H4241 C4219 0.950 . S
C4242 C4243 1.349 . S
C4242 C4244 1.327 . S
C4242 H4267 0.950 . S
C4243 C4242 1.349 . S
C4243 C4259 1.349 . S
C4244 C4242 1.327 . S
C4244 C4263 1.429 . S
C4244 H4268 0.950 . S
C4245 C4262 1.574 . S
C4245 C4264 1.368 . S
C4245 H4269 0.949 . S
H4246 C4250 0.949 . S
C4247 C4248 1.349 . S
C4247 C4249 1.327 . S
C4247 H4270 0.950 . S
C4248 C4247 1.349 . S
C4248 C4260 1.349 . S
C4249 C4247 1.327 . S
C4249 C4265 1.429 . S
C4249 H4271 0.950 . S
C4250 H4246 0.949 . S
C4250 C4258 1.574 . S
C4250 C4266 1.368 . S
H4251 C4259 0.950 . S
H4252 C4257 0.950 . S
H4253 C4258 0.949 . S
H4254 C4260 0.950 . S
H4255 C4261 0.950 . S
H4256 C4262 0.949 . S
C4257 H4252 0.950 . S
C4257 C4259 1.327 . S
C4257 C4263 1.429 . S
C4258 C4250 1.574 . S
C4258 H4253 0.949 . S
C4258 C4264 1.368 . S
C4259 C4243 1.349 . S
C4259 H4251 0.950 . S
C4259 C4257 1.327 . S
C4260 C4248 1.349 . S
C4260 H4254 0.950 . S
C4260 C4261 1.327 . S
C4261 H4255 0.950 . S
C4261 C4260 1.327 . S
C4261 C4265 1.429 . S
C4262 C4245 1.574 . S
C4262 H4256 0.949 . S
C4262 C4266 1.368 . S
C4263 C4244 1.429 . S
C4263 C4257 1.429 . S
C4263 C4264 1.523 . S
C4264 C4245 1.368 . S
C4264 C4258 1.368 . S
C4264 C4263 1.523 . S
C4265 C4249 1.429 . S
C4265 C4261 1.429 . S
C4265 C4266 1.523 . S
C4266 C4250 1.368 . S
C4266 C4262 1.368 . S
C4266 C4265 1.523 . S
H4267 C4242 0.950 . S
H4268 C4244 0.950 . S
H4269 C4245 0.949 . S
H4270 C4247 0.950 . S
H4271 C4249 0.950 . S
C4272 C4273 1.349 . S
C4272 C4274 1.327 . S
C4272 H4297 0.950 . S
C4273 C4272 1.349 . S
C4273 C4289 1.349 . S
C4274 C4272 1.327 . S
C4274 C4293 1.429 . S
C4274 H4298 0.950 . S
C4275 C4292 1.574 . S
C4275 C4294 1.368 . S
C4275 H4299 0.949 . S
H4276 C4280 0.949 . S
C4277 C4278 1.349 . S
C4277 C4279 1.327 . S
C4277 H4300 0.950 . S
C4278 C4277 1.349 . S
C4278 C4290 1.349 . S
C4279 C4277 1.327 . S
C4279 C4295 1.429 . S
C4279 H4301 0.950 . S
C4280 H4276 0.949 . S
C4280 C4288 1.574 . S
C4280 C4296 1.368 . S
H4281 C4289 0.950 . S
H4282 C4287 0.950 . S
H4283 C4288 0.949 . S
H4284 C4290 0.950 . S
H4285 C4291 0.950 . S
H4286 C4292 0.949 . S
C4287 H4282 0.950 . S
C4287 C4289 1.327 . S
C4287 C4293 1.429 . S
C4288 C4280 1.574 . S
C4288 H4283 0.949 . S
C4288 C4294 1.368 . S
C4289 C4273 1.349 . S
C4289 H4281 0.950 . S
C4289 C4287 1.327 . S
C4290 C4278 1.349 . S
C4290 H4284 0.950 . S
C4290 C4291 1.327 . S
C4291 H4285 0.950 . S
C4291 C4290 1.327 . S
C4291 C4295 1.429 . S
C4292 C4275 1.574 . S
C4292 H4286 0.949 . S
C4292 C4296 1.368 . S
C4293 C4274 1.429 . S
C4293 C4287 1.429 . S
C4293 C4294 1.523 . S
C4294 C4275 1.368 . S
C4294 C4288 1.368 . S
C4294 C4293 1.523 . S
C4295 C4279 1.429 . S
C4295 C4291 1.429 . S
C4295 C4296 1.523 . S
C4296 C4280 1.368 . S
C4296 C4292 1.368 . S
C4296 C4295 1.523 . S
H4297 C4272 0.950 . S
H4298 C4274 0.950 . S
H4299 C4275 0.949 . S
H4300 C4277 0.950 . S
H4301 C4279 0.950 . S
C4302 C4303 1.349 . S
C4302 C4304 1.327 . S
C4302 H4327 0.950 . S
C4303 C4302 1.349 . S
C4303 C4319 1.349 . S
C4304 C4302 1.327 . S
C4304 C4323 1.429 . S
C4304 H4328 0.950 . S
C4305 C4322 1.574 . S
C4305 C4324 1.368 . S
C4305 H4329 0.949 . S
H4306 C4310 0.949 . S
C4307 C4308 1.349 . S
C4307 C4309 1.327 . S
C4307 H4330 0.950 . S
C4308 C4307 1.349 . S
C4308 C4320 1.349 . S
C4309 C4307 1.327 . S
C4309 C4325 1.429 . S
C4309 H4331 0.950 . S
C4310 H4306 0.949 . S
C4310 C4318 1.574 . S
C4310 C4326 1.368 . S
H4311 C4319 0.950 . S
H4312 C4317 0.950 . S
H4313 C4318 0.949 . S
H4314 C4320 0.950 . S
H4315 C4321 0.950 . S
H4316 C4322 0.949 . S
C4317 H4312 0.950 . S
C4317 C4319 1.327 . S
C4317 C4323 1.429 . S
C4318 C4310 1.574 . S
C4318 H4313 0.949 . S
C4318 C4324 1.368 . S
C4319 C4303 1.349 . S
C4319 H4311 0.950 . S
C4319 C4317 1.327 . S
C4320 C4308 1.349 . S
C4320 H4314 0.950 . S
C4320 C4321 1.327 . S
C4321 H4315 0.950 . S
C4321 C4320 1.327 . S
C4321 C4325 1.429 . S
C4322 C4305 1.574 . S
C4322 H4316 0.949 . S
C4322 C4326 1.368 . S
C4323 C4304 1.429 . S
C4323 C4317 1.429 . S
C4323 C4324 1.523 . S
C4324 C4305 1.368 . S
C4324 C4318 1.368 . S
C4324 C4323 1.523 . S
C4325 C4309 1.429 . S
C4325 C4321 1.429 . S
C4325 C4326 1.523 . S
C4326 C4310 1.368 . S
C4326 C4322 1.368 . S
C4326 C4325 1.523 . S
H4327 C4302 0.950 . S
H4328 C4304 0.950 . S
H4329 C4305 0.949 . S
H4330 C4307 0.950 . S
H4331 C4309 0.950 . S
C4332 C4333 1.349 . S
C4332 C4334 1.327 . S
C4332 H4357 0.950 . S
C4333 C4332 1.349 . S
C4333 C4349 1.349 . S
C4334 C4332 1.327 . S
C4334 C4353 1.429 . S
C4334 H4358 0.950 . S
C4335 C4352 1.574 . S
C4335 C4354 1.368 . S
C4335 H4359 0.949 . S
H4336 C4340 0.949 . S
C4337 C4338 1.349 . S
C4337 C4339 1.327 . S
C4337 H4360 0.950 . S
C4338 C4337 1.349 . S
C4338 C4350 1.349 . S
C4339 C4337 1.327 . S
C4339 C4355 1.429 . S
C4339 H4361 0.950 . S
C4340 H4336 0.949 . S
C4340 C4348 1.574 . S
C4340 C4356 1.368 . S
H4341 C4349 0.950 . S
H4342 C4347 0.950 . S
H4343 C4348 0.949 . S
H4344 C4350 0.950 . S
H4345 C4351 0.950 . S
H4346 C4352 0.949 . S
C4347 H4342 0.950 . S
C4347 C4349 1.327 . S
C4347 C4353 1.429 . S
C4348 C4340 1.574 . S
C4348 H4343 0.949 . S
C4348 C4354 1.368 . S
C4349 C4333 1.349 . S
C4349 H4341 0.950 . S
C4349 C4347 1.327 . S
C4350 C4338 1.349 . S
C4350 H4344 0.950 . S
C4350 C4351 1.327 . S
C4351 H4345 0.950 . S
C4351 C4350 1.327 . S
C4351 C4355 1.429 . S
C4352 C4335 1.574 . S
C4352 H4346 0.949 . S
C4352 C4356 1.368 . S
C4353 C4334 1.429 . S
C4353 C4347 1.429 . S
C4353 C4354 1.523 . S
C4354 C4335 1.368 . S
C4354 C4348 1.368 . S
C4354 C4353 1.523 . S
C4355 C4339 1.429 . S
C4355 C4351 1.429 . S
C4355 C4356 1.523 . S
C4356 C4340 1.368 . S
C4356 C4352 1.368 . S
C4356 C4355 1.523 . S
H4357 C4332 0.950 . S
H4358 C4334 0.950 . S
H4359 C4335 0.949 . S
H4360 C4337 0.950 . S
H4361 C4339 0.950 . S
C4362 C4363 1.349 . S
C4362 C4364 1.327 . S
C4362 H4387 0.950 . S
C4363 C4362 1.349 . S
C4363 C4379 1.349 . S
C4364 C4362 1.327 . S
C4364 C4383 1.429 . S
C4364 H4388 0.950 . S
C4365 C4382 1.574 . S
C4365 C4384 1.368 . S
C4365 H4389 0.949 . S
H4366 C4370 0.949 . S
C4367 C4368 1.349 . S
C4367 C4369 1.327 . S
C4367 H4390 0.950 . S
C4368 C4367 1.349 . S
C4368 C4380 1.349 . S
C4369 C4367 1.327 . S
C4369 C4385 1.429 . S
C4369 H4391 0.950 . S
C4370 H4366 0.949 . S
C4370 C4378 1.574 . S
C4370 C4386 1.368 . S
H4371 C4379 0.950 . S
H4372 C4377 0.950 . S
H4373 C4378 0.949 . S
H4374 C4380 0.950 . S
H4375 C4381 0.950 . S
H4376 C4382 0.949 . S
C4377 H4372 0.950 . S
C4377 C4379 1.327 . S
C4377 C4383 1.429 . S
C4378 C4370 1.574 . S
C4378 H4373 0.949 . S
C4378 C4384 1.368 . S
C4379 C4363 1.349 . S
C4379 H4371 0.950 . S
C4379 C4377 1.327 . S
C4380 C4368 1.349 . S
C4380 H4374 0.950 . S
C4380 C4381 1.327 . S
C4381 H4375 0.950 . S
C4381 C4380 1.327 . S
C4381 C4385 1.429 . S
C4382 C4365 1.574 . S
C4382 H4376 0.949 . S
C4382 C4386 1.368 . S
C4383 C4364 1.429 . S
C4383 C4377 1.429 . S
C4383 C4384 1.523 . S
C4384 C4365 1.368 . S
C4384 C4378 1.368 . S
C4384 C4383 1.523 . S
C4385 C4369 1.429 . S
C4385 C4381 1.429 . S
C4385 C4386 1.523 . S
C4386 C4370 1.368 . S
C4386 C4382 1.368 . S
C4386 C4385 1.523 . S
H4387 C4362 0.950 . S
H4388 C4364 0.950 . S
H4389 C4365 0.949 . S
H4390 C4367 0.950 . S
H4391 C4369 0.950 . S
C4392 C4393 1.349 . S
C4392 C4394 1.327 . S
C4392 H4417 0.950 . S
C4393 C4392 1.349 . S
C4393 C4409 1.349 . S
C4394 C4392 1.327 . S
C4394 C4413 1.429 . S
C4394 H4418 0.950 . S
C4395 C4412 1.574 . S
C4395 C4414 1.368 . S
C4395 H4419 0.949 . S
H4396 C4400 0.949 . S
C4397 C4398 1.349 . S
C4397 C4399 1.327 . S
C4397 H4420 0.950 . S
C4398 C4397 1.349 . S
C4398 C4410 1.349 . S
C4399 C4397 1.327 . S
C4399 C4415 1.429 . S
C4399 H4421 0.950 . S
C4400 H4396 0.949 . S
C4400 C4408 1.574 . S
C4400 C4416 1.368 . S
H4401 C4409 0.950 . S
H4402 C4407 0.950 . S
H4403 C4408 0.949 . S
H4404 C4410 0.950 . S
H4405 C4411 0.950 . S
H4406 C4412 0.949 . S
C4407 H4402 0.950 . S
C4407 C4409 1.327 . S
C4407 C4413 1.429 . S
C4408 C4400 1.574 . S
C4408 H4403 0.949 . S
C4408 C4414 1.368 . S
C4409 C4393 1.349 . S
C4409 H4401 0.950 . S
C4409 C4407 1.327 . S
C4410 C4398 1.349 . S
C4410 H4404 0.950 . S
C4410 C4411 1.327 . S
C4411 H4405 0.950 . S
C4411 C4410 1.327 . S
C4411 C4415 1.429 . S
C4412 C4395 1.574 . S
C4412 H4406 0.949 . S
C4412 C4416 1.368 . S
C4413 C4394 1.429 . S
C4413 C4407 1.429 . S
C4413 C4414 1.523 . S
C4414 C4395 1.368 . S
C4414 C4408 1.368 . S
C4414 C4413 1.523 . S
C4415 C4399 1.429 . S
C4415 C4411 1.429 . S
C4415 C4416 1.523 . S
C4416 C4400 1.368 . S
C4416 C4412 1.368 . S
C4416 C4415 1.523 . S
H4417 C4392 0.950 . S
H4418 C4394 0.950 . S
H4419 C4395 0.949 . S
H4420 C4397 0.950 . S
H4421 C4399 0.950 . S
C4422 C4423 1.349 . S
C4422 C4424 1.327 . S
C4422 H4447 0.950 . S
C4423 C4422 1.349 . S
C4423 C4439 1.349 . S
C4424 C4422 1.327 . S
C4424 C4443 1.429 . S
C4424 H4448 0.950 . S
C4425 C4442 1.574 . S
C4425 C4444 1.368 . S
C4425 H4449 0.949 . S
H4426 C4430 0.949 . S
C4427 C4428 1.349 . S
C4427 C4429 1.327 . S
C4427 H4450 0.950 . S
C4428 C4427 1.349 . S
C4428 C4440 1.349 . S
C4429 C4427 1.327 . S
C4429 C4445 1.429 . S
C4429 H4451 0.950 . S
C4430 H4426 0.949 . S
C4430 C4438 1.574 . S
C4430 C4446 1.368 . S
H4431 C4439 0.950 . S
H4432 C4437 0.950 . S
H4433 C4438 0.949 . S
H4434 C4440 0.950 . S
H4435 C4441 0.950 . S
H4436 C4442 0.949 . S
C4437 H4432 0.950 . S
C4437 C4439 1.327 . S
C4437 C4443 1.429 . S
C4438 C4430 1.574 . S
C4438 H4433 0.949 . S
C4438 C4444 1.368 . S
C4439 C4423 1.349 . S
C4439 H4431 0.950 . S
C4439 C4437 1.327 . S
C4440 C4428 1.349 . S
C4440 H4434 0.950 . S
C4440 C4441 1.327 . S
C4441 H4435 0.950 . S
C4441 C4440 1.327 . S
C4441 C4445 1.429 . S
C4442 C4425 1.574 . S
C4442 H4436 0.949 . S
C4442 C4446 1.368 . S
C4443 C4424 1.429 . S
C4443 C4437 1.429 . S
C4443 C4444 1.523 . S
C4444 C4425 1.368 . S
C4444 C4438 1.368 . S
C4444 C4443 1.523 . S
C4445 C4429 1.429 . S
C4445 C4441 1.429 . S
C4445 C4446 1.523 . S
C4446 C4430 1.368 . S
C4446 C4442 1.368 . S
C4446 C4445 1.523 . S
H4447 C4422 0.950 . S
H4448 C4424 0.950 . S
H4449 C4425 0.949 . S
H4450 C4427 0.950 . S
H4451 C4429 0.950 . S
C4452 C4453 1.349 . S
C4452 C4454 1.327 . S
C4452 H4477 0.950 . S
C4453 C4452 1.349 . S
C4453 C4469 1.349 . S
C4454 C4452 1.327 . S
C4454 C4473 1.429 . S
C4454 H4478 0.950 . S
C4455 C4472 1.574 . S
C4455 C4474 1.368 . S
C4455 H4479 0.949 . S
H4456 C4460 0.949 . S
C4457 C4458 1.349 . S
C4457 C4459 1.327 . S
C4457 H4480 0.950 . S
C4458 C4457 1.349 . S
C4458 C4470 1.349 . S
C4459 C4457 1.327 . S
C4459 C4475 1.429 . S
C4459 H4481 0.950 . S
C4460 H4456 0.949 . S
C4460 C4468 1.574 . S
C4460 C4476 1.368 . S
H4461 C4469 0.950 . S
H4462 C4467 0.950 . S
H4463 C4468 0.949 . S
H4464 C4470 0.950 . S
H4465 C4471 0.950 . S
H4466 C4472 0.949 . S
C4467 H4462 0.950 . S
C4467 C4469 1.327 . S
C4467 C4473 1.429 . S
C4468 C4460 1.574 . S
C4468 H4463 0.949 . S
C4468 C4474 1.368 . S
C4469 C4453 1.349 . S
C4469 H4461 0.950 . S
C4469 C4467 1.327 . S
C4470 C4458 1.349 . S
C4470 H4464 0.950 . S
C4470 C4471 1.327 . S
C4471 H4465 0.950 . S
C4471 C4470 1.327 . S
C4471 C4475 1.429 . S
C4472 C4455 1.574 . S
C4472 H4466 0.949 . S
C4472 C4476 1.368 . S
C4473 C4454 1.429 . S
C4473 C4467 1.429 . S
C4473 C4474 1.523 . S
C4474 C4455 1.368 . S
C4474 C4468 1.368 . S
C4474 C4473 1.523 . S
C4475 C4459 1.429 . S
C4475 C4471 1.429 . S
C4475 C4476 1.523 . S
C4476 C4460 1.368 . S
C4476 C4472 1.368 . S
C4476 C4475 1.523 . S
H4477 C4452 0.950 . S
H4478 C4454 0.950 . S
H4479 C4455 0.949 . S
H4480 C4457 0.950 . S
H4481 C4459 0.950 . S
C4482 C4483 1.349 . S
C4482 C4484 1.327 . S
C4482 H4507 0.950 . S
C4483 C4482 1.349 . S
C4483 C4499 1.349 . S
C4484 C4482 1.327 . S
C4484 C4503 1.429 . S
C4484 H4508 0.950 . S
C4485 C4502 1.574 . S
C4485 C4504 1.368 . S
C4485 H4509 0.949 . S
H4486 C4490 0.949 . S
C4487 C4488 1.349 . S
C4487 C4489 1.327 . S
C4487 H4510 0.950 . S
C4488 C4487 1.349 . S
C4488 C4500 1.349 . S
C4489 C4487 1.327 . S
C4489 C4505 1.429 . S
C4489 H4511 0.950 . S
C4490 H4486 0.949 . S
C4490 C4498 1.574 . S
C4490 C4506 1.368 . S
H4491 C4499 0.950 . S
H4492 C4497 0.950 . S
H4493 C4498 0.949 . S
H4494 C4500 0.950 . S
H4495 C4501 0.950 . S
H4496 C4502 0.949 . S
C4497 H4492 0.950 . S
C4497 C4499 1.327 . S
C4497 C4503 1.429 . S
C4498 C4490 1.574 . S
C4498 H4493 0.949 . S
C4498 C4504 1.368 . S
C4499 C4483 1.349 . S
C4499 H4491 0.950 . S
C4499 C4497 1.327 . S
C4500 C4488 1.349 . S
C4500 H4494 0.950 . S
C4500 C4501 1.327 . S
C4501 H4495 0.950 . S
C4501 C4500 1.327 . S
C4501 C4505 1.429 . S
C4502 C4485 1.574 . S
C4502 H4496 0.949 . S
C4502 C4506 1.368 . S
C4503 C4484 1.429 . S
C4503 C4497 1.429 . S
C4503 C4504 1.523 . S
C4504 C4485 1.368 . S
C4504 C4498 1.368 . S
C4504 C4503 1.523 . S
C4505 C4489 1.429 . S
C4505 C4501 1.429 . S
C4505 C4506 1.523 . S
C4506 C4490 1.368 . S
C4506 C4502 1.368 . S
C4506 C4505 1.523 . S
H4507 C4482 0.950 . S
H4508 C4484 0.950 . S
H4509 C4485 0.949 . S
H4510 C4487 0.950 . S
H4511 C4489 0.950 . S
C4512 C4513 1.349 . S
C4512 C4514 1.327 . S
C4512 H4537 0.950 . S
C4513 C4512 1.349 . S
C4513 C4529 1.349 . S
C4514 C4512 1.327 . S
C4514 C4533 1.429 . S
C4514 H4538 0.950 . S
C4515 C4532 1.574 . S
C4515 C4534 1.368 . S
C4515 H4539 0.949 . S
H4516 C4520 0.949 . S
C4517 C4518 1.349 . S
C4517 C4519 1.327 . S
C4517 H4540 0.950 . S
C4518 C4517 1.349 . S
C4518 C4530 1.349 . S
C4519 C4517 1.327 . S
C4519 C4535 1.429 . S
C4519 H4541 0.950 . S
C4520 H4516 0.949 . S
C4520 C4528 1.574 . S
C4520 C4536 1.368 . S
H4521 C4529 0.950 . S
H4522 C4527 0.950 . S
H4523 C4528 0.949 . S
H4524 C4530 0.950 . S
H4525 C4531 0.950 . S
H4526 C4532 0.949 . S
C4527 H4522 0.950 . S
C4527 C4529 1.327 . S
C4527 C4533 1.429 . S
C4528 C4520 1.574 . S
C4528 H4523 0.949 . S
C4528 C4534 1.368 . S
C4529 C4513 1.349 . S
C4529 H4521 0.950 . S
C4529 C4527 1.327 . S
C4530 C4518 1.349 . S
C4530 H4524 0.950 . S
C4530 C4531 1.327 . S
C4531 H4525 0.950 . S
C4531 C4530 1.327 . S
C4531 C4535 1.429 . S
C4532 C4515 1.574 . S
C4532 H4526 0.949 . S
C4532 C4536 1.368 . S
C4533 C4514 1.429 . S
C4533 C4527 1.429 . S
C4533 C4534 1.523 . S
C4534 C4515 1.368 . S
C4534 C4528 1.368 . S
C4534 C4533 1.523 . S
C4535 C4519 1.429 . S
C4535 C4531 1.429 . S
C4535 C4536 1.523 . S
C4536 C4520 1.368 . S
C4536 C4532 1.368 . S
C4536 C4535 1.523 . S
H4537 C4512 0.950 . S
H4538 C4514 0.950 . S
H4539 C4515 0.949 . S
H4540 C4517 0.950 . S
H4541 C4519 0.950 . S
C4542 C4543 1.349 . S
C4542 C4544 1.327 . S
C4542 H4567 0.950 . S
C4543 C4542 1.349 . S
C4543 C4559 1.349 . S
C4544 C4542 1.327 . S
C4544 C4563 1.429 . S
C4544 H4568 0.950 . S
C4545 C4562 1.574 . S
C4545 C4564 1.368 . S
C4545 H4569 0.949 . S
H4546 C4550 0.949 . S
C4547 C4548 1.349 . S
C4547 C4549 1.327 . S
C4547 H4570 0.950 . S
C4548 C4547 1.349 . S
C4548 C4560 1.349 . S
C4549 C4547 1.327 . S
C4549 C4565 1.429 . S
C4549 H4571 0.950 . S
C4550 H4546 0.949 . S
C4550 C4558 1.574 . S
C4550 C4566 1.368 . S
H4551 C4559 0.950 . S
H4552 C4557 0.950 . S
H4553 C4558 0.949 . S
H4554 C4560 0.950 . S
H4555 C4561 0.950 . S
H4556 C4562 0.949 . S
C4557 H4552 0.950 . S
C4557 C4559 1.327 . S
C4557 C4563 1.429 . S
C4558 C4550 1.574 . S
C4558 H4553 0.949 . S
C4558 C4564 1.368 . S
C4559 C4543 1.349 . S
C4559 H4551 0.950 . S
C4559 C4557 1.327 . S
C4560 C4548 1.349 . S
C4560 H4554 0.950 . S
C4560 C4561 1.327 . S
C4561 H4555 0.950 . S
C4561 C4560 1.327 . S
C4561 C4565 1.429 . S
C4562 C4545 1.574 . S
C4562 H4556 0.949 . S
C4562 C4566 1.368 . S
C4563 C4544 1.429 . S
C4563 C4557 1.429 . S
C4563 C4564 1.523 . S
C4564 C4545 1.368 . S
C4564 C4558 1.368 . S
C4564 C4563 1.523 . S
C4565 C4549 1.429 . S
C4565 C4561 1.429 . S
C4565 C4566 1.523 . S
C4566 C4550 1.368 . S
C4566 C4562 1.368 . S
C4566 C4565 1.523 . S
H4567 C4542 0.950 . S
H4568 C4544 0.950 . S
H4569 C4545 0.949 . S
H4570 C4547 0.950 . S
H4571 C4549 0.950 . S
C4572 C4573 1.349 . S
C4572 C4574 1.327 . S
C4572 H4597 0.950 . S
C4573 C4572 1.349 . S
C4573 C4589 1.349 . S
C4574 C4572 1.327 . S
C4574 C4593 1.429 . S
C4574 H4598 0.950 . S
C4575 C4592 1.574 . S
C4575 C4594 1.368 . S
C4575 H4599 0.949 . S
H4576 C4580 0.949 . S
C4577 C4578 1.349 . S
C4577 C4579 1.327 . S
C4577 H4600 0.950 . S
C4578 C4577 1.349 . S
C4578 C4590 1.349 . S
C4579 C4577 1.327 . S
C4579 C4595 1.429 . S
C4579 H4601 0.950 . S
C4580 H4576 0.949 . S
C4580 C4588 1.574 . S
C4580 C4596 1.368 . S
H4581 C4589 0.950 . S
H4582 C4587 0.950 . S
H4583 C4588 0.949 . S
H4584 C4590 0.950 . S
H4585 C4591 0.950 . S
H4586 C4592 0.949 . S
C4587 H4582 0.950 . S
C4587 C4589 1.327 . S
C4587 C4593 1.429 . S
C4588 C4580 1.574 . S
C4588 H4583 0.949 . S
C4588 C4594 1.368 . S
C4589 C4573 1.349 . S
C4589 H4581 0.950 . S
C4589 C4587 1.327 . S
C4590 C4578 1.349 . S
C4590 H4584 0.950 . S
C4590 C4591 1.327 . S
C4591 H4585 0.950 . S
C4591 C4590 1.327 . S
C4591 C4595 1.429 . S
C4592 C4575 1.574 . S
C4592 H4586 0.949 . S
C4592 C4596 1.368 . S
C4593 C4574 1.429 . S
C4593 C4587 1.429 . S
C4593 C4594 1.523 . S
C4594 C4575 1.368 . S
C4594 C4588 1.368 . S
C4594 C4593 1.523 . S
C4595 C4579 1.429 . S
C4595 C4591 1.429 . S
C4595 C4596 1.523 . S
C4596 C4580 1.368 . S
C4596 C4592 1.368 . S
C4596 C4595 1.523 . S
H4597 C4572 0.950 . S
H4598 C4574 0.950 . S
H4599 C4575 0.949 . S
H4600 C4577 0.950 . S
H4601 C4579 0.950 . S
C4602 C4603 1.349 . S
C4602 C4604 1.327 . S
C4602 H4627 0.950 . S
C4603 C4602 1.349 . S
C4603 C4619 1.349 . S
C4604 C4602 1.327 . S
C4604 C4623 1.429 . S
C4604 H4628 0.950 . S
C4605 C4622 1.574 . S
C4605 C4624 1.368 . S
C4605 H4629 0.949 . S
H4606 C4610 0.949 . S
C4607 C4608 1.349 . S
C4607 C4609 1.327 . S
C4607 H4630 0.950 . S
C4608 C4607 1.349 . S
C4608 C4620 1.349 . S
C4609 C4607 1.327 . S
C4609 C4625 1.429 . S
C4609 H4631 0.950 . S
C4610 H4606 0.949 . S
C4610 C4618 1.574 . S
C4610 C4626 1.368 . S
H4611 C4619 0.950 . S
H4612 C4617 0.950 . S
H4613 C4618 0.949 . S
H4614 C4620 0.950 . S
H4615 C4621 0.950 . S
H4616 C4622 0.949 . S
C4617 H4612 0.950 . S
C4617 C4619 1.327 . S
C4617 C4623 1.429 . S
C4618 C4610 1.574 . S
C4618 H4613 0.949 . S
C4618 C4624 1.368 . S
C4619 C4603 1.349 . S
C4619 H4611 0.950 . S
C4619 C4617 1.327 . S
C4620 C4608 1.349 . S
C4620 H4614 0.950 . S
C4620 C4621 1.327 . S
C4621 H4615 0.950 . S
C4621 C4620 1.327 . S
C4621 C4625 1.429 . S
C4622 C4605 1.574 . S
C4622 H4616 0.949 . S
C4622 C4626 1.368 . S
C4623 C4604 1.429 . S
C4623 C4617 1.429 . S
C4623 C4624 1.523 . S
C4624 C4605 1.368 . S
C4624 C4618 1.368 . S
C4624 C4623 1.523 . S
C4625 C4609 1.429 . S
C4625 C4621 1.429 . S
C4625 C4626 1.523 . S
C4626 C4610 1.368 . S
C4626 C4622 1.368 . S
C4626 C4625 1.523 . S
H4627 C4602 0.950 . S
H4628 C4604 0.950 . S
H4629 C4605 0.949 . S
H4630 C4607 0.950 . S
H4631 C4609 0.950 . S
C4632 C4633 1.349 . S
C4632 C4634 1.327 . S
C4632 H4657 0.950 . S
C4633 C4632 1.349 . S
C4633 C4649 1.349 . S
C4634 C4632 1.327 . S
C4634 C4653 1.429 . S
C4634 H4658 0.950 . S
C4635 C4652 1.574 . S
C4635 C4654 1.368 . S
C4635 H4659 0.949 . S
H4636 C4640 0.949 . S
C4637 C4638 1.349 . S
C4637 C4639 1.327 . S
C4637 H4660 0.950 . S
C4638 C4637 1.349 . S
C4638 C4650 1.349 . S
C4639 C4637 1.327 . S
C4639 C4655 1.429 . S
C4639 H4661 0.950 . S
C4640 H4636 0.949 . S
C4640 C4648 1.574 . S
C4640 C4656 1.368 . S
H4641 C4649 0.950 . S
H4642 C4647 0.950 . S
H4643 C4648 0.949 . S
H4644 C4650 0.950 . S
H4645 C4651 0.950 . S
H4646 C4652 0.949 . S
C4647 H4642 0.950 . S
C4647 C4649 1.327 . S
C4647 C4653 1.429 . S
C4648 C4640 1.574 . S
C4648 H4643 0.949 . S
C4648 C4654 1.368 . S
C4649 C4633 1.349 . S
C4649 H4641 0.950 . S
C4649 C4647 1.327 . S
C4650 C4638 1.349 . S
C4650 H4644 0.950 . S
C4650 C4651 1.327 . S
C4651 H4645 0.950 . S
C4651 C4650 1.327 . S
C4651 C4655 1.429 . S
C4652 C4635 1.574 . S
C4652 H4646 0.949 . S
C4652 C4656 1.368 . S
C4653 C4634 1.429 . S
C4653 C4647 1.429 . S
C4653 C4654 1.523 . S
C4654 C4635 1.368 . S
C4654 C4648 1.368 . S
C4654 C4653 1.523 . S
C4655 C4639 1.429 . S
C4655 C4651 1.429 . S
C4655 C4656 1.523 . S
C4656 C4640 1.368 . S
C4656 C4652 1.368 . S
C4656 C4655 1.523 . S
H4657 C4632 0.950 . S
H4658 C4634 0.950 . S
H4659 C4635 0.949 . S
H4660 C4637 0.950 . S
H4661 C4639 0.950 . S
C4662 C4663 1.349 . S
C4662 C4664 1.327 . S
C4662 H4687 0.950 . S
C4663 C4662 1.349 . S
C4663 C4679 1.349 . S
C4664 C4662 1.327 . S
C4664 C4683 1.429 . S
C4664 H4688 0.950 . S
C4665 C4682 1.574 . S
C4665 C4684 1.368 . S
C4665 H4689 0.949 . S
H4666 C4670 0.949 . S
C4667 C4668 1.349 . S
C4667 C4669 1.327 . S
C4667 H4690 0.950 . S
C4668 C4667 1.349 . S
C4668 C4680 1.349 . S
C4669 C4667 1.327 . S
C4669 C4685 1.429 . S
C4669 H4691 0.950 . S
C4670 H4666 0.949 . S
C4670 C4678 1.574 . S
C4670 C4686 1.368 . S
H4671 C4679 0.950 . S
H4672 C4677 0.950 . S
H4673 C4678 0.949 . S
H4674 C4680 0.950 . S
H4675 C4681 0.950 . S
H4676 C4682 0.949 . S
C4677 H4672 0.950 . S
C4677 C4679 1.327 . S
C4677 C4683 1.429 . S
C4678 C4670 1.574 . S
C4678 H4673 0.949 . S
C4678 C4684 1.368 . S
C4679 C4663 1.349 . S
C4679 H4671 0.950 . S
C4679 C4677 1.327 . S
C4680 C4668 1.349 . S
C4680 H4674 0.950 . S
C4680 C4681 1.327 . S
C4681 H4675 0.950 . S
C4681 C4680 1.327 . S
C4681 C4685 1.429 . S
C4682 C4665 1.574 . S
C4682 H4676 0.949 . S
C4682 C4686 1.368 . S
C4683 C4664 1.429 . S
C4683 C4677 1.429 . S
C4683 C4684 1.523 . S
C4684 C4665 1.368 . S
C4684 C4678 1.368 . S
C4684 C4683 1.523 . S
C4685 C4669 1.429 . S
C4685 C4681 1.429 . S
C4685 C4686 1.523 . S
C4686 C4670 1.368 . S
C4686 C4682 1.368 . S
C4686 C4685 1.523 . S
H4687 C4662 0.950 . S
H4688 C4664 0.950 . S
H4689 C4665 0.949 . S
H4690 C4667 0.950 . S
H4691 C4669 0.950 . S
C4692 C4693 1.349 . S
C4692 C4694 1.327 . S
C4692 H4717 0.950 . S
C4693 C4692 1.349 . S
C4693 C4709 1.349 . S
C4694 C4692 1.327 . S
C4694 C4713 1.429 . S
C4694 H4718 0.950 . S
C4695 C4712 1.574 . S
C4695 C4714 1.368 . S
C4695 H4719 0.949 . S
H4696 C4700 0.949 . S
C4697 C4698 1.349 . S
C4697 C4699 1.327 . S
C4697 H4720 0.950 . S
C4698 C4697 1.349 . S
C4698 C4710 1.349 . S
C4699 C4697 1.327 . S
C4699 C4715 1.429 . S
C4699 H4721 0.950 . S
C4700 H4696 0.949 . S
C4700 C4708 1.574 . S
C4700 C4716 1.368 . S
H4701 C4709 0.950 . S
H4702 C4707 0.950 . S
H4703 C4708 0.949 . S
H4704 C4710 0.950 . S
H4705 C4711 0.950 . S
H4706 C4712 0.949 . S
C4707 H4702 0.950 . S
C4707 C4709 1.327 . S
C4707 C4713 1.429 . S
C4708 C4700 1.574 . S
C4708 H4703 0.949 . S
C4708 C4714 1.368 . S
C4709 C4693 1.349 . S
C4709 H4701 0.950 . S
C4709 C4707 1.327 . S
C4710 C4698 1.349 . S
C4710 H4704 0.950 . S
C4710 C4711 1.327 . S
C4711 H4705 0.950 . S
C4711 C4710 1.327 . S
C4711 C4715 1.429 . S
C4712 C4695 1.574 . S
C4712 H4706 0.949 . S
C4712 C4716 1.368 . S
C4713 C4694 1.429 . S
C4713 C4707 1.429 . S
C4713 C4714 1.523 . S
C4714 C4695 1.368 . S
C4714 C4708 1.368 . S
C4714 C4713 1.523 . S
C4715 C4699 1.429 . S
C4715 C4711 1.429 . S
C4715 C4716 1.523 . S
C4716 C4700 1.368 . S
C4716 C4712 1.368 . S
C4716 C4715 1.523 . S
H4717 C4692 0.950 . S
H4718 C4694 0.950 . S
H4719 C4695 0.949 . S
H4720 C4697 0.950 . S
H4721 C4699 0.950 . S
C4722 C4723 1.349 . S
C4722 C4724 1.327 . S
C4722 H4747 0.950 . S
C4723 C4722 1.349 . S
C4723 C4739 1.349 . S
C4724 C4722 1.327 . S
C4724 C4743 1.429 . S
C4724 H4748 0.950 . S
C4725 C4742 1.574 . S
C4725 C4744 1.368 . S
C4725 H4749 0.949 . S
H4726 C4730 0.949 . S
C4727 C4728 1.349 . S
C4727 C4729 1.327 . S
C4727 H4750 0.950 . S
C4728 C4727 1.349 . S
C4728 C4740 1.349 . S
C4729 C4727 1.327 . S
C4729 C4745 1.429 . S
C4729 H4751 0.950 . S
C4730 H4726 0.949 . S
C4730 C4738 1.574 . S
C4730 C4746 1.368 . S
H4731 C4739 0.950 . S
H4732 C4737 0.950 . S
H4733 C4738 0.949 . S
H4734 C4740 0.950 . S
H4735 C4741 0.950 . S
H4736 C4742 0.949 . S
C4737 H4732 0.950 . S
C4737 C4739 1.327 . S
C4737 C4743 1.429 . S
C4738 C4730 1.574 . S
C4738 H4733 0.949 . S
C4738 C4744 1.368 . S
C4739 C4723 1.349 . S
C4739 H4731 0.950 . S
C4739 C4737 1.327 . S
C4740 C4728 1.349 . S
C4740 H4734 0.950 . S
C4740 C4741 1.327 . S
C4741 H4735 0.950 . S
C4741 C4740 1.327 . S
C4741 C4745 1.429 . S
C4742 C4725 1.574 . S
C4742 H4736 0.949 . S
C4742 C4746 1.368 . S
C4743 C4724 1.429 . S
C4743 C4737 1.429 . S
C4743 C4744 1.523 . S
C4744 C4725 1.368 . S
C4744 C4738 1.368 . S
C4744 C4743 1.523 . S
C4745 C4729 1.429 . S
C4745 C4741 1.429 . S
C4745 C4746 1.523 . S
C4746 C4730 1.368 . S
C4746 C4742 1.368 . S
C4746 C4745 1.523 . S
H4747 C4722 0.950 . S
H4748 C4724 0.950 . S
H4749 C4725 0.949 . S
H4750 C4727 0.950 . S
H4751 C4729 0.950 . S
C4752 C4753 1.349 . S
C4752 C4754 1.327 . S
C4752 H4777 0.950 . S
C4753 C4752 1.349 . S
C4753 C4769 1.349 . S
C4754 C4752 1.327 . S
C4754 C4773 1.429 . S
C4754 H4778 0.950 . S
C4755 C4772 1.574 . S
C4755 C4774 1.368 . S
C4755 H4779 0.949 . S
H4756 C4760 0.949 . S
C4757 C4758 1.349 . S
C4757 C4759 1.327 . S
C4757 H4780 0.950 . S
C4758 C4757 1.349 . S
C4758 C4770 1.349 . S
C4759 C4757 1.327 . S
C4759 C4775 1.429 . S
C4759 H4781 0.950 . S
C4760 H4756 0.949 . S
C4760 C4768 1.574 . S
C4760 C4776 1.368 . S
H4761 C4769 0.950 . S
H4762 C4767 0.950 . S
H4763 C4768 0.949 . S
H4764 C4770 0.950 . S
H4765 C4771 0.950 . S
H4766 C4772 0.949 . S
C4767 H4762 0.950 . S
C4767 C4769 1.327 . S
C4767 C4773 1.429 . S
C4768 C4760 1.574 . S
C4768 H4763 0.949 . S
C4768 C4774 1.368 . S
C4769 C4753 1.349 . S
C4769 H4761 0.950 . S
C4769 C4767 1.327 . S
C4770 C4758 1.349 . S
C4770 H4764 0.950 . S
C4770 C4771 1.327 . S
C4771 H4765 0.950 . S
C4771 C4770 1.327 . S
C4771 C4775 1.429 . S
C4772 C4755 1.574 . S
C4772 H4766 0.949 . S
C4772 C4776 1.368 . S
C4773 C4754 1.429 . S
C4773 C4767 1.429 . S
C4773 C4774 1.523 . S
C4774 C4755 1.368 . S
C4774 C4768 1.368 . S
C4774 C4773 1.523 . S
C4775 C4759 1.429 . S
C4775 C4771 1.429 . S
C4775 C4776 1.523 . S
C4776 C4760 1.368 . S
C4776 C4772 1.368 . S
C4776 C4775 1.523 . S
H4777 C4752 0.950 . S
H4778 C4754 0.950 . S
H4779 C4755 0.949 . S
H4780 C4757 0.950 . S
H4781 C4759 0.950 . S
C4782 C4783 1.349 . S
C4782 C4784 1.327 . S
C4782 H4807 0.950 . S
C4783 C4782 1.349 . S
C4783 C4799 1.349 . S
C4784 C4782 1.327 . S
C4784 C4803 1.429 . S
C4784 H4808 0.950 . S
C4785 C4802 1.574 . S
C4785 C4804 1.368 . S
C4785 H4809 0.949 . S
H4786 C4790 0.949 . S
C4787 C4788 1.349 . S
C4787 C4789 1.327 . S
C4787 H4810 0.950 . S
C4788 C4787 1.349 . S
C4788 C4800 1.349 . S
C4789 C4787 1.327 . S
C4789 C4805 1.429 . S
C4789 H4811 0.950 . S
C4790 H4786 0.949 . S
C4790 C4798 1.574 . S
C4790 C4806 1.368 . S
H4791 C4799 0.950 . S
H4792 C4797 0.950 . S
H4793 C4798 0.949 . S
H4794 C4800 0.950 . S
H4795 C4801 0.950 . S
H4796 C4802 0.949 . S
C4797 H4792 0.950 . S
C4797 C4799 1.327 . S
C4797 C4803 1.429 . S
C4798 C4790 1.574 . S
C4798 H4793 0.949 . S
C4798 C4804 1.368 . S
C4799 C4783 1.349 . S
C4799 H4791 0.950 . S
C4799 C4797 1.327 . S
C4800 C4788 1.349 . S
C4800 H4794 0.950 . S
C4800 C4801 1.327 . S
C4801 H4795 0.950 . S
C4801 C4800 1.327 . S
C4801 C4805 1.429 . S
C4802 C4785 1.574 . S
C4802 H4796 0.949 . S
C4802 C4806 1.368 . S
C4803 C4784 1.429 . S
C4803 C4797 1.429 . S
C4803 C4804 1.523 . S
C4804 C4785 1.368 . S
C4804 C4798 1.368 . S
C4804 C4803 1.523 . S
C4805 C4789 1.429 . S
C4805 C4801 1.429 . S
C4805 C4806 1.523 . S
C4806 C4790 1.368 . S
C4806 C4802 1.368 . S
C4806 C4805 1.523 . S
H4807 C4782 0.950 . S
H4808 C4784 0.950 . S
H4809 C4785 0.949 . S
H4810 C4787 0.950 . S
H4811 C4789 0.950 . S
C4812 C4813 1.349 . S
C4812 C4814 1.327 . S
C4812 H4837 0.950 . S
C4813 C4812 1.349 . S
C4813 C4829 1.349 . S
C4814 C4812 1.327 . S
C4814 C4833 1.429 . S
C4814 H4838 0.950 . S
C4815 C4832 1.574 . S
C4815 C4834 1.368 . S
C4815 H4839 0.949 . S
H4816 C4820 0.949 . S
C4817 C4818 1.349 . S
C4817 C4819 1.327 . S
C4817 H4840 0.950 . S
C4818 C4817 1.349 . S
C4818 C4830 1.349 . S
C4819 C4817 1.327 . S
C4819 C4835 1.429 . S
C4819 H4841 0.950 . S
C4820 H4816 0.949 . S
C4820 C4828 1.574 . S
C4820 C4836 1.368 . S
H4821 C4829 0.950 . S
H4822 C4827 0.950 . S
H4823 C4828 0.949 . S
H4824 C4830 0.950 . S
H4825 C4831 0.950 . S
H4826 C4832 0.949 . S
C4827 H4822 0.950 . S
C4827 C4829 1.327 . S
C4827 C4833 1.429 . S
C4828 C4820 1.574 . S
C4828 H4823 0.949 . S
C4828 C4834 1.368 . S
C4829 C4813 1.349 . S
C4829 H4821 0.950 . S
C4829 C4827 1.327 . S
C4830 C4818 1.349 . S
C4830 H4824 0.950 . S
C4830 C4831 1.327 . S
C4831 H4825 0.950 . S
C4831 C4830 1.327 . S
C4831 C4835 1.429 . S
C4832 C4815 1.574 . S
C4832 H4826 0.949 . S
C4832 C4836 1.368 . S
C4833 C4814 1.429 . S
C4833 C4827 1.429 . S
C4833 C4834 1.523 . S
C4834 C4815 1.368 . S
C4834 C4828 1.368 . S
C4834 C4833 1.523 . S
C4835 C4819 1.429 . S
C4835 C4831 1.429 . S
C4835 C4836 1.523 . S
C4836 C4820 1.368 . S
C4836 C4832 1.368 . S
C4836 C4835 1.523 . S
H4837 C4812 0.950 . S
H4838 C4814 0.950 . S
H4839 C4815 0.949 . S
H4840 C4817 0.950 . S
H4841 C4819 0.950 . S
C4842 C4843 1.349 . S
C4842 C4844 1.327 . S
C4842 H4867 0.950 . S
C4843 C4842 1.349 . S
C4843 C4859 1.349 . S
C4844 C4842 1.327 . S
C4844 C4863 1.429 . S
C4844 H4868 0.950 . S
C4845 C4862 1.574 . S
C4845 C4864 1.368 . S
C4845 H4869 0.949 . S
H4846 C4850 0.949 . S
C4847 C4848 1.349 . S
C4847 C4849 1.327 . S
C4847 H4870 0.950 . S
C4848 C4847 1.349 . S
C4848 C4860 1.349 . S
C4849 C4847 1.327 . S
C4849 C4865 1.429 . S
C4849 H4871 0.950 . S
C4850 H4846 0.949 . S
C4850 C4858 1.574 . S
C4850 C4866 1.368 . S
H4851 C4859 0.950 . S
H4852 C4857 0.950 . S
H4853 C4858 0.949 . S
H4854 C4860 0.950 . S
H4855 C4861 0.950 . S
H4856 C4862 0.949 . S
C4857 H4852 0.950 . S
C4857 C4859 1.327 . S
C4857 C4863 1.429 . S
C4858 C4850 1.574 . S
C4858 H4853 0.949 . S
C4858 C4864 1.368 . S
C4859 C4843 1.349 . S
C4859 H4851 0.950 . S
C4859 C4857 1.327 . S
C4860 C4848 1.349 . S
C4860 H4854 0.950 . S
C4860 C4861 1.327 . S
C4861 H4855 0.950 . S
C4861 C4860 1.327 . S
C4861 C4865 1.429 . S
C4862 C4845 1.574 . S
C4862 H4856 0.949 . S
C4862 C4866 1.368 . S
C4863 C4844 1.429 . S
C4863 C4857 1.429 . S
C4863 C4864 1.523 . S
C4864 C4845 1.368 . S
C4864 C4858 1.368 . S
C4864 C4863 1.523 . S
C4865 C4849 1.429 . S
C4865 C4861 1.429 . S
C4865 C4866 1.523 . S
C4866 C4850 1.368 . S
C4866 C4862 1.368 . S
C4866 C4865 1.523 . S
H4867 C4842 0.950 . S
H4868 C4844 0.950 . S
H4869 C4845 0.949 . S
H4870 C4847 0.950 . S
H4871 C4849 0.950 . S
C4872 C4873 1.349 . S
C4872 C4874 1.327 . S
C4872 H4897 0.950 . S
C4873 C4872 1.349 . S
C4873 C4889 1.349 . S
C4874 C4872 1.327 . S
C4874 C4893 1.429 . S
C4874 H4898 0.950 . S
C4875 C4892 1.574 . S
C4875 C4894 1.368 . S
C4875 H4899 0.949 . S
H4876 C4880 0.949 . S
C4877 C4878 1.349 . S
C4877 C4879 1.327 . S
C4877 H4900 0.950 . S
C4878 C4877 1.349 . S
C4878 C4890 1.349 . S
C4879 C4877 1.327 . S
C4879 C4895 1.429 . S
C4879 H4901 0.950 . S
C4880 H4876 0.949 . S
C4880 C4888 1.574 . S
C4880 C4896 1.368 . S
H4881 C4889 0.950 . S
H4882 C4887 0.950 . S
H4883 C4888 0.949 . S
H4884 C4890 0.950 . S
H4885 C4891 0.950 . S
H4886 C4892 0.949 . S
C4887 H4882 0.950 . S
C4887 C4889 1.327 . S
C4887 C4893 1.429 . S
C4888 C4880 1.574 . S
C4888 H4883 0.949 . S
C4888 C4894 1.368 . S
C4889 C4873 1.349 . S
C4889 H4881 0.950 . S
C4889 C4887 1.327 . S
C4890 C4878 1.349 . S
C4890 H4884 0.950 . S
C4890 C4891 1.327 . S
C4891 H4885 0.950 . S
C4891 C4890 1.327 . S
C4891 C4895 1.429 . S
C4892 C4875 1.574 . S
C4892 H4886 0.949 . S
C4892 C4896 1.368 . S
C4893 C4874 1.429 . S
C4893 C4887 1.429 . S
C4893 C4894 1.523 . S
C4894 C4875 1.368 . S
C4894 C4888 1.368 . S
C4894 C4893 1.523 . S
C4895 C4879 1.429 . S
C4895 C4891 1.429 . S
C4895 C4896 1.523 . S
C4896 C4880 1.368 . S
C4896 C4892 1.368 . S
C4896 C4895 1.523 . S
H4897 C4872 0.950 . S
H4898 C4874 0.950 . S
H4899 C4875 0.949 . S
H4900 C4877 0.950 . S
H4901 C4879 0.950 . S
C4902 C4903 1.349 . S
C4902 C4904 1.327 . S
C4902 H4927 0.950 . S
C4903 C4902 1.349 . S
C4903 C4919 1.349 . S
C4904 C4902 1.327 . S
C4904 C4923 1.429 . S
C4904 H4928 0.950 . S
C4905 C4922 1.574 . S
C4905 C4924 1.368 . S
C4905 H4929 0.949 . S
H4906 C4910 0.949 . S
C4907 C4908 1.349 . S
C4907 C4909 1.327 . S
C4907 H4930 0.950 . S
C4908 C4907 1.349 . S
C4908 C4920 1.349 . S
C4909 C4907 1.327 . S
C4909 C4925 1.429 . S
C4909 H4931 0.950 . S
C4910 H4906 0.949 . S
C4910 C4918 1.574 . S
C4910 C4926 1.368 . S
H4911 C4919 0.950 . S
H4912 C4917 0.950 . S
H4913 C4918 0.949 . S
H4914 C4920 0.950 . S
H4915 C4921 0.950 . S
H4916 C4922 0.949 . S
C4917 H4912 0.950 . S
C4917 C4919 1.327 . S
C4917 C4923 1.429 . S
C4918 C4910 1.574 . S
C4918 H4913 0.949 . S
C4918 C4924 1.368 . S
C4919 C4903 1.349 . S
C4919 H4911 0.950 . S
C4919 C4917 1.327 . S
C4920 C4908 1.349 . S
C4920 H4914 0.950 . S
C4920 C4921 1.327 . S
C4921 H4915 0.950 . S
C4921 C4920 1.327 . S
C4921 C4925 1.429 . S
C4922 C4905 1.574 . S
C4922 H4916 0.949 . S
C4922 C4926 1.368 . S
C4923 C4904 1.429 . S
C4923 C4917 1.429 . S
C4923 C4924 1.523 . S
C4924 C4905 1.368 . S
C4924 C4918 1.368 . S
C4924 C4923 1.523 . S
C4925 C4909 1.429 . S
C4925 C4921 1.429 . S
C4925 C4926 1.523 . S
C4926 C4910 1.368 . S
C4926 C4922 1.368 . S
C4926 C4925 1.523 . S
H4927 C4902 0.950 . S
H4928 C4904 0.950 . S
H4929 C4905 0.949 . S
H4930 C4907 0.950 . S
H4931 C4909 0.950 . S
C4932 C4933 1.349 . S
C4932 C4934 1.327 . S
C4932 H4957 0.950 . S
C4933 C4932 1.349 . S
C4933 C4949 1.349 . S
C4934 C4932 1.327 . S
C4934 C4953 1.429 . S
C4934 H4958 0.950 . S
C4935 C4952 1.574 . S
C4935 C4954 1.368 . S
C4935 H4959 0.949 . S
H4936 C4940 0.949 . S
C4937 C4938 1.349 . S
C4937 C4939 1.327 . S
C4937 H4960 0.950 . S
C4938 C4937 1.349 . S
C4938 C4950 1.349 . S
C4939 C4937 1.327 . S
C4939 C4955 1.429 . S
C4939 H4961 0.950 . S
C4940 H4936 0.949 . S
C4940 C4948 1.574 . S
C4940 C4956 1.368 . S
H4941 C4949 0.950 . S
H4942 C4947 0.950 . S
H4943 C4948 0.949 . S
H4944 C4950 0.950 . S
H4945 C4951 0.950 . S
H4946 C4952 0.949 . S
C4947 H4942 0.950 . S
C4947 C4949 1.327 . S
C4947 C4953 1.429 . S
C4948 C4940 1.574 . S
C4948 H4943 0.949 . S
C4948 C4954 1.368 . S
C4949 C4933 1.349 . S
C4949 H4941 0.950 . S
C4949 C4947 1.327 . S
C4950 C4938 1.349 . S
C4950 H4944 0.950 . S
C4950 C4951 1.327 . S
C4951 H4945 0.950 . S
C4951 C4950 1.327 . S
C4951 C4955 1.429 . S
C4952 C4935 1.574 . S
C4952 H4946 0.949 . S
C4952 C4956 1.368 . S
C4953 C4934 1.429 . S
C4953 C4947 1.429 . S
C4953 C4954 1.523 . S
C4954 C4935 1.368 . S
C4954 C4948 1.368 . S
C4954 C4953 1.523 . S
C4955 C4939 1.429 . S
C4955 C4951 1.429 . S
C4955 C4956 1.523 . S
C4956 C4940 1.368 . S
C4956 C4952 1.368 . S
C4956 C4955 1.523 . S
H4957 C4932 0.950 . S
H4958 C4934 0.950 . S
H4959 C4935 0.949 . S
H4960 C4937 0.950 . S
H4961 C4939 0.950 . S
C4962 C4963 1.349 . S
C4962 C4964 1.327 . S
C4962 H4987 0.950 . S
C4963 C4962 1.349 . S
C4963 C4979 1.349 . S
C4964 C4962 1.327 . S
C4964 C4983 1.429 . S
C4964 H4988 0.950 . S
C4965 C4982 1.574 . S
C4965 C4984 1.368 . S
C4965 H4989 0.949 . S
H4966 C4970 0.949 . S
C4967 C4968 1.349 . S
C4967 C4969 1.327 . S
C4967 H4990 0.950 . S
C4968 C4967 1.349 . S
C4968 C4980 1.349 . S
C4969 C4967 1.327 . S
C4969 C4985 1.429 . S
C4969 H4991 0.950 . S
C4970 H4966 0.949 . S
C4970 C4978 1.574 . S
C4970 C4986 1.368 . S
H4971 C4979 0.950 . S
H4972 C4977 0.950 . S
H4973 C4978 0.949 . S
H4974 C4980 0.950 . S
H4975 C4981 0.950 . S
H4976 C4982 0.949 . S
C4977 H4972 0.950 . S
C4977 C4979 1.327 . S
C4977 C4983 1.429 . S
C4978 C4970 1.574 . S
C4978 H4973 0.949 . S
C4978 C4984 1.368 . S
C4979 C4963 1.349 . S
C4979 H4971 0.950 . S
C4979 C4977 1.327 . S
C4980 C4968 1.349 . S
C4980 H4974 0.950 . S
C4980 C4981 1.327 . S
C4981 H4975 0.950 . S
C4981 C4980 1.327 . S
C4981 C4985 1.429 . S
C4982 C4965 1.574 . S
C4982 H4976 0.949 . S
C4982 C4986 1.368 . S
C4983 C4964 1.429 . S
C4983 C4977 1.429 . S
C4983 C4984 1.523 . S
C4984 C4965 1.368 . S
C4984 C4978 1.368 . S
C4984 C4983 1.523 . S
C4985 C4969 1.429 . S
C4985 C4981 1.429 . S
C4985 C4986 1.523 . S
C4986 C4970 1.368 . S
C4986 C4982 1.368 . S
C4986 C4985 1.523 . S
H4987 C4962 0.950 . S
H4988 C4964 0.950 . S
H4989 C4965 0.949 . S
H4990 C4967 0.950 . S
H4991 C4969 0.950 . S
C4992 C4993 1.349 . S
C4992 C4994 1.327 . S
C4992 H5017 0.950 . S
C4993 C4992 1.349 . S
C4993 C5009 1.349 . S
C4994 C4992 1.327 . S
C4994 C5013 1.429 . S
C4994 H5018 0.950 . S
C4995 C5012 1.574 . S
C4995 C5014 1.368 . S
C4995 H5019 0.949 . S
H4996 C5000 0.949 . S
C4997 C4998 1.349 . S
C4997 C4999 1.327 . S
C4997 H5020 0.950 . S
C4998 C4997 1.349 . S
C4998 C5010 1.349 . S
C4999 C4997 1.327 . S
C4999 C5015 1.429 . S
C4999 H5021 0.950 . S
C5000 H4996 0.949 . S
C5000 C5008 1.574 . S
C5000 C5016 1.368 . S
H5001 C5009 0.950 . S
H5002 C5007 0.950 . S
H5003 C5008 0.949 . S
H5004 C5010 0.950 . S
H5005 C5011 0.950 . S
H5006 C5012 0.949 . S
C5007 H5002 0.950 . S
C5007 C5009 1.327 . S
C5007 C5013 1.429 . S
C5008 C5000 1.574 . S
C5008 H5003 0.949 . S
C5008 C5014 1.368 . S
C5009 C4993 1.349 . S
C5009 H5001 0.950 . S
C5009 C5007 1.327 . S
C5010 C4998 1.349 . S
C5010 H5004 0.950 . S
C5010 C5011 1.327 . S
C5011 H5005 0.950 . S
C5011 C5010 1.327 . S
C5011 C5015 1.429 . S
C5012 C4995 1.574 . S
C5012 H5006 0.949 . S
C5012 C5016 1.368 . S
C5013 C4994 1.429 . S
C5013 C5007 1.429 . S
C5013 C5014 1.523 . S
C5014 C4995 1.368 . S
C5014 C5008 1.368 . S
C5014 C5013 1.523 . S
C5015 C4999 1.429 . S
C5015 C5011 1.429 . S
C5015 C5016 1.523 . S
C5016 C5000 1.368 . S
C5016 C5012 1.368 . S
C5016 C5015 1.523 . S
H5017 C4992 0.950 . S
H5018 C4994 0.950 . S
H5019 C4995 0.949 . S
H5020 C4997 0.950 . S
H5021 C4999 0.950 . S
C5022 C5023 1.349 . S
C5022 C5024 1.327 . S
C5022 H5047 0.950 . S
C5023 C5022 1.349 . S
C5023 C5039 1.349 . S
C5024 C5022 1.327 . S
C5024 C5043 1.429 . S
C5024 H5048 0.950 . S
C5025 C5042 1.574 . S
C5025 C5044 1.368 . S
C5025 H5049 0.949 . S
H5026 C5030 0.949 . S
C5027 C5028 1.349 . S
C5027 C5029 1.327 . S
C5027 H5050 0.950 . S
C5028 C5027 1.349 . S
C5028 C5040 1.349 . S
C5029 C5027 1.327 . S
C5029 C5045 1.429 . S
C5029 H5051 0.950 . S
C5030 H5026 0.949 . S
C5030 C5038 1.574 . S
C5030 C5046 1.368 . S
H5031 C5039 0.950 . S
H5032 C5037 0.950 . S
H5033 C5038 0.949 . S
H5034 C5040 0.950 . S
H5035 C5041 0.950 . S
H5036 C5042 0.949 . S
C5037 H5032 0.950 . S
C5037 C5039 1.327 . S
C5037 C5043 1.429 . S
C5038 C5030 1.574 . S
C5038 H5033 0.949 . S
C5038 C5044 1.368 . S
C5039 C5023 1.349 . S
C5039 H5031 0.950 . S
C5039 C5037 1.327 . S
C5040 C5028 1.349 . S
C5040 H5034 0.950 . S
C5040 C5041 1.327 . S
C5041 H5035 0.950 . S
C5041 C5040 1.327 . S
C5041 C5045 1.429 . S
C5042 C5025 1.574 . S
C5042 H5036 0.949 . S
C5042 C5046 1.368 . S
C5043 C5024 1.429 . S
C5043 C5037 1.429 . S
C5043 C5044 1.523 . S
C5044 C5025 1.368 . S
C5044 C5038 1.368 . S
C5044 C5043 1.523 . S
C5045 C5029 1.429 . S
C5045 C5041 1.429 . S
C5045 C5046 1.523 . S
C5046 C5030 1.368 . S
C5046 C5042 1.368 . S
C5046 C5045 1.523 . S
H5047 C5022 0.950 . S
H5048 C5024 0.950 . S
H5049 C5025 0.949 . S
H5050 C5027 0.950 . S
H5051 C5029 0.950 . S
C5052 C5053 1.349 . S
C5052 C5054 1.327 . S
C5052 H5077 0.950 . S
C5053 C5052 1.349 . S
C5053 C5069 1.349 . S
C5054 C5052 1.327 . S
C5054 C5073 1.429 . S
C5054 H5078 0.950 . S
C5055 C5072 1.574 . S
C5055 C5074 1.368 . S
C5055 H5079 0.949 . S
H5056 C5060 0.949 . S
C5057 C5058 1.349 . S
C5057 C5059 1.327 . S
C5057 H5080 0.950 . S
C5058 C5057 1.349 . S
C5058 C5070 1.349 . S
C5059 C5057 1.327 . S
C5059 C5075 1.429 . S
C5059 H5081 0.950 . S
C5060 H5056 0.949 . S
C5060 C5068 1.574 . S
C5060 C5076 1.368 . S
H5061 C5069 0.950 . S
H5062 C5067 0.950 . S
H5063 C5068 0.949 . S
H5064 C5070 0.950 . S
H5065 C5071 0.950 . S
H5066 C5072 0.949 . S
C5067 H5062 0.950 . S
C5067 C5069 1.327 . S
C5067 C5073 1.429 . S
C5068 C5060 1.574 . S
C5068 H5063 0.949 . S
C5068 C5074 1.368 . S
C5069 C5053 1.349 . S
C5069 H5061 0.950 . S
C5069 C5067 1.327 . S
C5070 C5058 1.349 . S
C5070 H5064 0.950 . S
C5070 C5071 1.327 . S
C5071 H5065 0.950 . S
C5071 C5070 1.327 . S
C5071 C5075 1.429 . S
C5072 C5055 1.574 . S
C5072 H5066 0.949 . S
C5072 C5076 1.368 . S
C5073 C5054 1.429 . S
C5073 C5067 1.429 . S
C5073 C5074 1.523 . S
C5074 C5055 1.368 . S
C5074 C5068 1.368 . S
C5074 C5073 1.523 . S
C5075 C5059 1.429 . S
C5075 C5071 1.429 . S
C5075 C5076 1.523 . S
C5076 C5060 1.368 . S
C5076 C5072 1.368 . S
C5076 C5075 1.523 . S
H5077 C5052 0.950 . S
H5078 C5054 0.950 . S
H5079 C5055 0.949 . S
H5080 C5057 0.950 . S
H5081 C5059 0.950 . S
C5082 C5083 1.349 . S
C5082 C5084 1.327 . S
C5082 H5107 0.950 . S
C5083 C5082 1.349 . S
C5083 C5099 1.349 . S
C5084 C5082 1.327 . S
C5084 C5103 1.429 . S
C5084 H5108 0.950 . S
C5085 C5102 1.574 . S
C5085 C5104 1.368 . S
C5085 H5109 0.949 . S
H5086 C5090 0.949 . S
C5087 C5088 1.349 . S
C5087 C5089 1.327 . S
C5087 H5110 0.950 . S
C5088 C5087 1.349 . S
C5088 C5100 1.349 . S
C5089 C5087 1.327 . S
C5089 C5105 1.429 . S
C5089 H5111 0.950 . S
C5090 H5086 0.949 . S
C5090 C5098 1.574 . S
C5090 C5106 1.368 . S
H5091 C5099 0.950 . S
H5092 C5097 0.950 . S
H5093 C5098 0.949 . S
H5094 C5100 0.950 . S
H5095 C5101 0.950 . S
H5096 C5102 0.949 . S
C5097 H5092 0.950 . S
C5097 C5099 1.327 . S
C5097 C5103 1.429 . S
C5098 C5090 1.574 . S
C5098 H5093 0.949 . S
C5098 C5104 1.368 . S
C5099 C5083 1.349 . S
C5099 H5091 0.950 . S
C5099 C5097 1.327 . S
C5100 C5088 1.349 . S
C5100 H5094 0.950 . S
C5100 C5101 1.327 . S
C5101 H5095 0.950 . S
C5101 C5100 1.327 . S
C5101 C5105 1.429 . S
C5102 C5085 1.574 . S
C5102 H5096 0.949 . S
C5102 C5106 1.368 . S
C5103 C5084 1.429 . S
C5103 C5097 1.429 . S
C5103 C5104 1.523 . S
C5104 C5085 1.368 . S
C5104 C5098 1.368 . S
C5104 C5103 1.523 . S
C5105 C5089 1.429 . S
C5105 C5101 1.429 . S
C5105 C5106 1.523 . S
C5106 C5090 1.368 . S
C5106 C5102 1.368 . S
C5106 C5105 1.523 . S
H5107 C5082 0.950 . S
H5108 C5084 0.950 . S
H5109 C5085 0.949 . S
H5110 C5087 0.950 . S
H5111 C5089 0.950 . S
C5112 C5113 1.349 . S
C5112 C5114 1.327 . S
C5112 H5137 0.950 . S
C5113 C5112 1.349 . S
C5113 C5129 1.349 . S
C5114 C5112 1.327 . S
C5114 C5133 1.429 . S
C5114 H5138 0.950 . S
C5115 C5132 1.574 . S
C5115 C5134 1.368 . S
C5115 H5139 0.949 . S
H5116 C5120 0.949 . S
C5117 C5118 1.349 . S
C5117 C5119 1.327 . S
C5117 H5140 0.950 . S
C5118 C5117 1.349 . S
C5118 C5130 1.349 . S
C5119 C5117 1.327 . S
C5119 C5135 1.429 . S
C5119 H5141 0.950 . S
C5120 H5116 0.949 . S
C5120 C5128 1.574 . S
C5120 C5136 1.368 . S
H5121 C5129 0.950 . S
H5122 C5127 0.950 . S
H5123 C5128 0.949 . S
H5124 C5130 0.950 . S
H5125 C5131 0.950 . S
H5126 C5132 0.949 . S
C5127 H5122 0.950 . S
C5127 C5129 1.327 . S
C5127 C5133 1.429 . S
C5128 C5120 1.574 . S
C5128 H5123 0.949 . S
C5128 C5134 1.368 . S
C5129 C5113 1.349 . S
C5129 H5121 0.950 . S
C5129 C5127 1.327 . S
C5130 C5118 1.349 . S
C5130 H5124 0.950 . S
C5130 C5131 1.327 . S
C5131 H5125 0.950 . S
C5131 C5130 1.327 . S
C5131 C5135 1.429 . S
C5132 C5115 1.574 . S
C5132 H5126 0.949 . S
C5132 C5136 1.368 . S
C5133 C5114 1.429 . S
C5133 C5127 1.429 . S
C5133 C5134 1.523 . S
C5134 C5115 1.368 . S
C5134 C5128 1.368 . S
C5134 C5133 1.523 . S
C5135 C5119 1.429 . S
C5135 C5131 1.429 . S
C5135 C5136 1.523 . S
C5136 C5120 1.368 . S
C5136 C5132 1.368 . S
C5136 C5135 1.523 . S
H5137 C5112 0.950 . S
H5138 C5114 0.950 . S
H5139 C5115 0.949 . S
H5140 C5117 0.950 . S
H5141 C5119 0.950 . S
C5142 C5143 1.349 . S
C5142 C5144 1.327 . S
C5142 H5167 0.950 . S
C5143 C5142 1.349 . S
C5143 C5159 1.349 . S
C5144 C5142 1.327 . S
C5144 C5163 1.429 . S
C5144 H5168 0.950 . S
C5145 C5162 1.574 . S
C5145 C5164 1.368 . S
C5145 H5169 0.949 . S
H5146 C5150 0.949 . S
C5147 C5148 1.349 . S
C5147 C5149 1.327 . S
C5147 H5170 0.950 . S
C5148 C5147 1.349 . S
C5148 C5160 1.349 . S
C5149 C5147 1.327 . S
C5149 C5165 1.429 . S
C5149 H5171 0.950 . S
C5150 H5146 0.949 . S
C5150 C5158 1.574 . S
C5150 C5166 1.368 . S
H5151 C5159 0.950 . S
H5152 C5157 0.950 . S
H5153 C5158 0.949 . S
H5154 C5160 0.950 . S
H5155 C5161 0.950 . S
H5156 C5162 0.949 . S
C5157 H5152 0.950 . S
C5157 C5159 1.327 . S
C5157 C5163 1.429 . S
C5158 C5150 1.574 . S
C5158 H5153 0.949 . S
C5158 C5164 1.368 . S
C5159 C5143 1.349 . S
C5159 H5151 0.950 . S
C5159 C5157 1.327 . S
C5160 C5148 1.349 . S
C5160 H5154 0.950 . S
C5160 C5161 1.327 . S
C5161 H5155 0.950 . S
C5161 C5160 1.327 . S
C5161 C5165 1.429 . S
C5162 C5145 1.574 . S
C5162 H5156 0.949 . S
C5162 C5166 1.368 . S
C5163 C5144 1.429 . S
C5163 C5157 1.429 . S
C5163 C5164 1.523 . S
C5164 C5145 1.368 . S
C5164 C5158 1.368 . S
C5164 C5163 1.523 . S
C5165 C5149 1.429 . S
C5165 C5161 1.429 . S
C5165 C5166 1.523 . S
C5166 C5150 1.368 . S
C5166 C5162 1.368 . S
C5166 C5165 1.523 . S
H5167 C5142 0.950 . S
H5168 C5144 0.950 . S
H5169 C5145 0.949 . S
H5170 C5147 0.950 . S
H5171 C5149 0.950 . S
C5172 C5173 1.349 . S
C5172 C5174 1.327 . S
C5172 H5197 0.950 . S
C5173 C5172 1.349 . S
C5173 C5189 1.349 . S
C5174 C5172 1.327 . S
C5174 C5193 1.429 . S
C5174 H5198 0.950 . S
C5175 C5192 1.574 . S
C5175 C5194 1.368 . S
C5175 H5199 0.949 . S
H5176 C5180 0.949 . S
C5177 C5178 1.349 . S
C5177 C5179 1.327 . S
C5177 H5200 0.950 . S
C5178 C5177 1.349 . S
C5178 C5190 1.349 . S
C5179 C5177 1.327 . S
C5179 C5195 1.429 . S
C5179 H5201 0.950 . S
C5180 H5176 0.949 . S
C5180 C5188 1.574 . S
C5180 C5196 1.368 . S
H5181 C5189 0.950 . S
H5182 C5187 0.950 . S
H5183 C5188 0.949 . S
H5184 C5190 0.950 . S
H5185 C5191 0.950 . S
H5186 C5192 0.949 . S
C5187 H5182 0.950 . S
C5187 C5189 1.327 . S
C5187 C5193 1.429 . S
C5188 C5180 1.574 . S
C5188 H5183 0.949 . S
C5188 C5194 1.368 . S
C5189 C5173 1.349 . S
C5189 H5181 0.950 . S
C5189 C5187 1.327 . S
C5190 C5178 1.349 . S
C5190 H5184 0.950 . S
C5190 C5191 1.327 . S
C5191 H5185 0.950 . S
C5191 C5190 1.327 . S
C5191 C5195 1.429 . S
C5192 C5175 1.574 . S
C5192 H5186 0.949 . S
C5192 C5196 1.368 . S
C5193 C5174 1.429 . S
C5193 C5187 1.429 . S
C5193 C5194 1.523 . S
C5194 C5175 1.368 . S
C5194 C5188 1.368 . S
C5194 C5193 1.523 . S
C5195 C5179 1.429 . S
C5195 C5191 1.429 . S
C5195 C5196 1.523 . S
C5196 C5180 1.368 . S
C5196 C5192 1.368 . S
C5196 C5195 1.523 . S
H5197 C5172 0.950 . S
H5198 C5174 0.950 . S
H5199 C5175 0.949 . S
H5200 C5177 0.950 . S
H5201 C5179 0.950 . S
C5202 C5203 1.349 . S
C5202 C5204 1.327 . S
C5202 H5227 0.950 . S
C5203 C5202 1.349 . S
C5203 C5219 1.349 . S
C5204 C5202 1.327 . S
C5204 C5223 1.429 . S
C5204 H5228 0.950 . S
C5205 C5222 1.574 . S
C5205 C5224 1.368 . S
C5205 H5229 0.949 . S
H5206 C5210 0.949 . S
C5207 C5208 1.349 . S
C5207 C5209 1.327 . S
C5207 H5230 0.950 . S
C5208 C5207 1.349 . S
C5208 C5220 1.349 . S
C5209 C5207 1.327 . S
C5209 C5225 1.429 . S
C5209 H5231 0.950 . S
C5210 H5206 0.949 . S
C5210 C5218 1.574 . S
C5210 C5226 1.368 . S
H5211 C5219 0.950 . S
H5212 C5217 0.950 . S
H5213 C5218 0.949 . S
H5214 C5220 0.950 . S
H5215 C5221 0.950 . S
H5216 C5222 0.949 . S
C5217 H5212 0.950 . S
C5217 C5219 1.327 . S
C5217 C5223 1.429 . S
C5218 C5210 1.574 . S
C5218 H5213 0.949 . S
C5218 C5224 1.368 . S
C5219 C5203 1.349 . S
C5219 H5211 0.950 . S
C5219 C5217 1.327 . S
C5220 C5208 1.349 . S
C5220 H5214 0.950 . S
C5220 C5221 1.327 . S
C5221 H5215 0.950 . S
C5221 C5220 1.327 . S
C5221 C5225 1.429 . S
C5222 C5205 1.574 . S
C5222 H5216 0.949 . S
C5222 C5226 1.368 . S
C5223 C5204 1.429 . S
C5223 C5217 1.429 . S
C5223 C5224 1.523 . S
C5224 C5205 1.368 . S
C5224 C5218 1.368 . S
C5224 C5223 1.523 . S
C5225 C5209 1.429 . S
C5225 C5221 1.429 . S
C5225 C5226 1.523 . S
C5226 C5210 1.368 . S
C5226 C5222 1.368 . S
C5226 C5225 1.523 . S
H5227 C5202 0.950 . S
H5228 C5204 0.950 . S
H5229 C5205 0.949 . S
H5230 C5207 0.950 . S
H5231 C5209 0.950 . S
C5232 C5233 1.349 . S
C5232 C5234 1.327 . S
C5232 H5257 0.950 . S
C5233 C5232 1.349 . S
C5233 C5249 1.349 . S
C5234 C5232 1.327 . S
C5234 C5253 1.429 . S
C5234 H5258 0.950 . S
C5235 C5252 1.574 . S
C5235 C5254 1.368 . S
C5235 H5259 0.949 . S
H5236 C5240 0.949 . S
C5237 C5238 1.349 . S
C5237 C5239 1.327 . S
C5237 H5260 0.950 . S
C5238 C5237 1.349 . S
C5238 C5250 1.349 . S
C5239 C5237 1.327 . S
C5239 C5255 1.429 . S
C5239 H5261 0.950 . S
C5240 H5236 0.949 . S
C5240 C5248 1.574 . S
C5240 C5256 1.368 . S
H5241 C5249 0.950 . S
H5242 C5247 0.950 . S
H5243 C5248 0.949 . S
H5244 C5250 0.950 . S
H5245 C5251 0.950 . S
H5246 C5252 0.949 . S
C5247 H5242 0.950 . S
C5247 C5249 1.327 . S
C5247 C5253 1.429 . S
C5248 C5240 1.574 . S
C5248 H5243 0.949 . S
C5248 C5254 1.368 . S
C5249 C5233 1.349 . S
C5249 H5241 0.950 . S
C5249 C5247 1.327 . S
C5250 C5238 1.349 . S
C5250 H5244 0.950 . S
C5250 C5251 1.327 . S
C5251 H5245 0.950 . S
C5251 C5250 1.327 . S
C5251 C5255 1.429 . S
C5252 C5235 1.574 . S
C5252 H5246 0.949 . S
C5252 C5256 1.368 . S
C5253 C5234 1.429 . S
C5253 C5247 1.429 . S
C5253 C5254 1.523 . S
C5254 C5235 1.368 . S
C5254 C5248 1.368 . S
C5254 C5253 1.523 . S
C5255 C5239 1.429 . S
C5255 C5251 1.429 . S
C5255 C5256 1.523 . S
C5256 C5240 1.368 . S
C5256 C5252 1.368 . S
C5256 C5255 1.523 . S
H5257 C5232 0.950 . S
H5258 C5234 0.950 . S
H5259 C5235 0.949 . S
H5260 C5237 0.950 . S
H5261 C5239 0.950 . S
C5262 C5263 1.349 . S
C5262 C5264 1.327 . S
C5262 H5287 0.950 . S
C5263 C5262 1.349 . S
C5263 C5279 1.349 . S
C5264 C5262 1.327 . S
C5264 C5283 1.429 . S
C5264 H5288 0.950 . S
C5265 C5282 1.574 . S
C5265 C5284 1.368 . S
C5265 H5289 0.949 . S
H5266 C5270 0.949 . S
C5267 C5268 1.349 . S
C5267 C5269 1.327 . S
C5267 H5290 0.950 . S
C5268 C5267 1.349 . S
C5268 C5280 1.349 . S
C5269 C5267 1.327 . S
C5269 C5285 1.429 . S
C5269 H5291 0.950 . S
C5270 H5266 0.949 . S
C5270 C5278 1.574 . S
C5270 C5286 1.368 . S
H5271 C5279 0.950 . S
H5272 C5277 0.950 . S
H5273 C5278 0.949 . S
H5274 C5280 0.950 . S
H5275 C5281 0.950 . S
H5276 C5282 0.949 . S
C5277 H5272 0.950 . S
C5277 C5279 1.327 . S
C5277 C5283 1.429 . S
C5278 C5270 1.574 . S
C5278 H5273 0.949 . S
C5278 C5284 1.368 . S
C5279 C5263 1.349 . S
C5279 H5271 0.950 . S
C5279 C5277 1.327 . S
C5280 C5268 1.349 . S
C5280 H5274 0.950 . S
C5280 C5281 1.327 . S
C5281 H5275 0.950 . S
C5281 C5280 1.327 . S
C5281 C5285 1.429 . S
C5282 C5265 1.574 . S
C5282 H5276 0.949 . S
C5282 C5286 1.368 . S
C5283 C5264 1.429 . S
C5283 C5277 1.429 . S
C5283 C5284 1.523 . S
C5284 C5265 1.368 . S
C5284 C5278 1.368 . S
C5284 C5283 1.523 . S
C5285 C5269 1.429 . S
C5285 C5281 1.429 . S
C5285 C5286 1.523 . S
C5286 C5270 1.368 . S
C5286 C5282 1.368 . S
C5286 C5285 1.523 . S
H5287 C5262 0.950 . S
H5288 C5264 0.950 . S
H5289 C5265 0.949 . S
H5290 C5267 0.950 . S
H5291 C5269 0.950 . S
C5292 C5293 1.349 . S
C5292 C5294 1.327 . S
C5292 H5317 0.950 . S
C5293 C5292 1.349 . S
C5293 C5309 1.349 . S
C5294 C5292 1.327 . S
C5294 C5313 1.429 . S
C5294 H5318 0.950 . S
C5295 C5312 1.574 . S
C5295 C5314 1.368 . S
C5295 H5319 0.949 . S
H5296 C5300 0.949 . S
C5297 C5298 1.349 . S
C5297 C5299 1.327 . S
C5297 H5320 0.950 . S
C5298 C5297 1.349 . S
C5298 C5310 1.349 . S
C5299 C5297 1.327 . S
C5299 C5315 1.429 . S
C5299 H5321 0.950 . S
C5300 H5296 0.949 . S
C5300 C5308 1.574 . S
C5300 C5316 1.368 . S
H5301 C5309 0.950 . S
H5302 C5307 0.950 . S
H5303 C5308 0.949 . S
H5304 C5310 0.950 . S
H5305 C5311 0.950 . S
H5306 C5312 0.949 . S
C5307 H5302 0.950 . S
C5307 C5309 1.327 . S
C5307 C5313 1.429 . S
C5308 C5300 1.574 . S
C5308 H5303 0.949 . S
C5308 C5314 1.368 . S
C5309 C5293 1.349 . S
C5309 H5301 0.950 . S
C5309 C5307 1.327 . S
C5310 C5298 1.349 . S
C5310 H5304 0.950 . S
C5310 C5311 1.327 . S
C5311 H5305 0.950 . S
C5311 C5310 1.327 . S
C5311 C5315 1.429 . S
C5312 C5295 1.574 . S
C5312 H5306 0.949 . S
C5312 C5316 1.368 . S
C5313 C5294 1.429 . S
C5313 C5307 1.429 . S
C5313 C5314 1.523 . S
C5314 C5295 1.368 . S
C5314 C5308 1.368 . S
C5314 C5313 1.523 . S
C5315 C5299 1.429 . S
C5315 C5311 1.429 . S
C5315 C5316 1.523 . S
C5316 C5300 1.368 . S
C5316 C5312 1.368 . S
C5316 C5315 1.523 . S
H5317 C5292 0.950 . S
H5318 C5294 0.950 . S
H5319 C5295 0.949 . S
H5320 C5297 0.950 . S
H5321 C5299 0.950 . S
C5322 C5323 1.349 . S
C5322 C5324 1.327 . S
C5322 H5347 0.950 . S
C5323 C5322 1.349 . S
C5323 C5339 1.349 . S
C5324 C5322 1.327 . S
C5324 C5343 1.429 . S
C5324 H5348 0.950 . S
C5325 C5342 1.574 . S
C5325 C5344 1.368 . S
C5325 H5349 0.949 . S
H5326 C5330 0.949 . S
C5327 C5328 1.349 . S
C5327 C5329 1.327 . S
C5327 H5350 0.950 . S
C5328 C5327 1.349 . S
C5328 C5340 1.349 . S
C5329 C5327 1.327 . S
C5329 C5345 1.429 . S
C5329 H5351 0.950 . S
C5330 H5326 0.949 . S
C5330 C5338 1.574 . S
C5330 C5346 1.368 . S
H5331 C5339 0.950 . S
H5332 C5337 0.950 . S
H5333 C5338 0.949 . S
H5334 C5340 0.950 . S
H5335 C5341 0.950 . S
H5336 C5342 0.949 . S
C5337 H5332 0.950 . S
C5337 C5339 1.327 . S
C5337 C5343 1.429 . S
C5338 C5330 1.574 . S
C5338 H5333 0.949 . S
C5338 C5344 1.368 . S
C5339 C5323 1.349 . S
C5339 H5331 0.950 . S
C5339 C5337 1.327 . S
C5340 C5328 1.349 . S
C5340 H5334 0.950 . S
C5340 C5341 1.327 . S
C5341 H5335 0.950 . S
C5341 C5340 1.327 . S
C5341 C5345 1.429 . S
C5342 C5325 1.574 . S
C5342 H5336 0.949 . S
C5342 C5346 1.368 . S
C5343 C5324 1.429 . S
C5343 C5337 1.429 . S
C5343 C5344 1.523 . S
C5344 C5325 1.368 . S
C5344 C5338 1.368 . S
C5344 C5343 1.523 . S
C5345 C5329 1.429 . S
C5345 C5341 1.429 . S
C5345 C5346 1.523 . S
C5346 C5330 1.368 . S
C5346 C5342 1.368 . S
C5346 C5345 1.523 . S
H5347 C5322 0.950 . S
H5348 C5324 0.950 . S
H5349 C5325 0.949 . S
H5350 C5327 0.950 . S
H5351 C5329 0.950 . S
C5352 C5353 1.349 . S
C5352 C5354 1.327 . S
C5352 H5377 0.950 . S
C5353 C5352 1.349 . S
C5353 C5369 1.349 . S
C5354 C5352 1.327 . S
C5354 C5373 1.429 . S
C5354 H5378 0.950 . S
C5355 C5372 1.574 . S
C5355 C5374 1.368 . S
C5355 H5379 0.949 . S
H5356 C5360 0.949 . S
C5357 C5358 1.349 . S
C5357 C5359 1.327 . S
C5357 H5380 0.950 . S
C5358 C5357 1.349 . S
C5358 C5370 1.349 . S
C5359 C5357 1.327 . S
C5359 C5375 1.429 . S
C5359 H5381 0.950 . S
C5360 H5356 0.949 . S
C5360 C5368 1.574 . S
C5360 C5376 1.368 . S
H5361 C5369 0.950 . S
H5362 C5367 0.950 . S
H5363 C5368 0.949 . S
H5364 C5370 0.950 . S
H5365 C5371 0.950 . S
H5366 C5372 0.949 . S
C5367 H5362 0.950 . S
C5367 C5369 1.327 . S
C5367 C5373 1.429 . S
C5368 C5360 1.574 . S
C5368 H5363 0.949 . S
C5368 C5374 1.368 . S
C5369 C5353 1.349 . S
C5369 H5361 0.950 . S
C5369 C5367 1.327 . S
C5370 C5358 1.349 . S
C5370 H5364 0.950 . S
C5370 C5371 1.327 . S
C5371 H5365 0.950 . S
C5371 C5370 1.327 . S
C5371 C5375 1.429 . S
C5372 C5355 1.574 . S
C5372 H5366 0.949 . S
C5372 C5376 1.368 . S
C5373 C5354 1.429 . S
C5373 C5367 1.429 . S
C5373 C5374 1.523 . S
C5374 C5355 1.368 . S
C5374 C5368 1.368 . S
C5374 C5373 1.523 . S
C5375 C5359 1.429 . S
C5375 C5371 1.429 . S
C5375 C5376 1.523 . S
C5376 C5360 1.368 . S
C5376 C5372 1.368 . S
C5376 C5375 1.523 . S
H5377 C5352 0.950 . S
H5378 C5354 0.950 . S
H5379 C5355 0.949 . S
H5380 C5357 0.950 . S
H5381 C5359 0.950 . S
C5382 C5383 1.349 . S
C5382 C5384 1.327 . S
C5382 H5407 0.950 . S
C5383 C5382 1.349 . S
C5383 C5399 1.349 . S
C5384 C5382 1.327 . S
C5384 C5403 1.429 . S
C5384 H5408 0.950 . S
C5385 C5402 1.574 . S
C5385 C5404 1.368 . S
C5385 H5409 0.949 . S
H5386 C5390 0.949 . S
C5387 C5388 1.349 . S
C5387 C5389 1.327 . S
C5387 H5410 0.950 . S
C5388 C5387 1.349 . S
C5388 C5400 1.349 . S
C5389 C5387 1.327 . S
C5389 C5405 1.429 . S
C5389 H5411 0.950 . S
C5390 H5386 0.949 . S
C5390 C5398 1.574 . S
C5390 C5406 1.368 . S
H5391 C5399 0.950 . S
H5392 C5397 0.950 . S
H5393 C5398 0.949 . S
H5394 C5400 0.950 . S
H5395 C5401 0.950 . S
H5396 C5402 0.949 . S
C5397 H5392 0.950 . S
C5397 C5399 1.327 . S
C5397 C5403 1.429 . S
C5398 C5390 1.574 . S
C5398 H5393 0.949 . S
C5398 C5404 1.368 . S
C5399 C5383 1.349 . S
C5399 H5391 0.950 . S
C5399 C5397 1.327 . S
C5400 C5388 1.349 . S
C5400 H5394 0.950 . S
C5400 C5401 1.327 . S
C5401 H5395 0.950 . S
C5401 C5400 1.327 . S
C5401 C5405 1.429 . S
C5402 C5385 1.574 . S
C5402 H5396 0.949 . S
C5402 C5406 1.368 . S
C5403 C5384 1.429 . S
C5403 C5397 1.429 . S
C5403 C5404 1.523 . S
C5404 C5385 1.368 . S
C5404 C5398 1.368 . S
C5404 C5403 1.523 . S
C5405 C5389 1.429 . S
C5405 C5401 1.429 . S
C5405 C5406 1.523 . S
C5406 C5390 1.368 . S
C5406 C5402 1.368 . S
C5406 C5405 1.523 . S
H5407 C5382 0.950 . S
H5408 C5384 0.950 . S
H5409 C5385 0.949 . S
H5410 C5387 0.950 . S
H5411 C5389 0.950 . S
C5412 C5413 1.349 . S
C5412 C5414 1.327 . S
C5412 H5437 0.950 . S
C5413 C5412 1.349 . S
C5413 C5429 1.349 . S
C5414 C5412 1.327 . S
C5414 C5433 1.429 . S
C5414 H5438 0.950 . S
C5415 C5432 1.574 . S
C5415 C5434 1.368 . S
C5415 H5439 0.949 . S
H5416 C5420 0.949 . S
C5417 C5418 1.349 . S
C5417 C5419 1.327 . S
C5417 H5440 0.950 . S
C5418 C5417 1.349 . S
C5418 C5430 1.349 . S
C5419 C5417 1.327 . S
C5419 C5435 1.429 . S
C5419 H5441 0.950 . S
C5420 H5416 0.949 . S
C5420 C5428 1.574 . S
C5420 C5436 1.368 . S
H5421 C5429 0.950 . S
H5422 C5427 0.950 . S
H5423 C5428 0.949 . S
H5424 C5430 0.950 . S
H5425 C5431 0.950 . S
H5426 C5432 0.949 . S
C5427 H5422 0.950 . S
C5427 C5429 1.327 . S
C5427 C5433 1.429 . S
C5428 C5420 1.574 . S
C5428 H5423 0.949 . S
C5428 C5434 1.368 . S
C5429 C5413 1.349 . S
C5429 H5421 0.950 . S
C5429 C5427 1.327 . S
C5430 C5418 1.349 . S
C5430 H5424 0.950 . S
C5430 C5431 1.327 . S
C5431 H5425 0.950 . S
C5431 C5430 1.327 . S
C5431 C5435 1.429 . S
C5432 C5415 1.574 . S
C5432 H5426 0.949 . S
C5432 C5436 1.368 . S
C5433 C5414 1.429 . S
C5433 C5427 1.429 . S
C5433 C5434 1.523 . S
C5434 C5415 1.368 . S
C5434 C5428 1.368 . S
C5434 C5433 1.523 . S
C5435 C5419 1.429 . S
C5435 C5431 1.429 . S
C5435 C5436 1.523 . S
C5436 C5420 1.368 . S
C5436 C5432 1.368 . S
C5436 C5435 1.523 . S
H5437 C5412 0.950 . S
H5438 C5414 0.950 . S
H5439 C5415 0.949 . S
H5440 C5417 0.950 . S
H5441 C5419 0.950 . S
C5442 C5443 1.349 . S
C5442 C5444 1.327 . S
C5442 H5467 0.950 . S
C5443 C5442 1.349 . S
C5443 C5459 1.349 . S
C5444 C5442 1.327 . S
C5444 C5463 1.429 . S
C5444 H5468 0.950 . S
C5445 C5462 1.574 . S
C5445 C5464 1.368 . S
C5445 H5469 0.949 . S
H5446 C5450 0.949 . S
C5447 C5448 1.349 . S
C5447 C5449 1.327 . S
C5447 H5470 0.950 . S
C5448 C5447 1.349 . S
C5448 C5460 1.349 . S
C5449 C5447 1.327 . S
C5449 C5465 1.429 . S
C5449 H5471 0.950 . S
C5450 H5446 0.949 . S
C5450 C5458 1.574 . S
C5450 C5466 1.368 . S
H5451 C5459 0.950 . S
H5452 C5457 0.950 . S
H5453 C5458 0.949 . S
H5454 C5460 0.950 . S
H5455 C5461 0.950 . S
H5456 C5462 0.949 . S
C5457 H5452 0.950 . S
C5457 C5459 1.327 . S
C5457 C5463 1.429 . S
C5458 C5450 1.574 . S
C5458 H5453 0.949 . S
C5458 C5464 1.368 . S
C5459 C5443 1.349 . S
C5459 H5451 0.950 . S
C5459 C5457 1.327 . S
C5460 C5448 1.349 . S
C5460 H5454 0.950 . S
C5460 C5461 1.327 . S
C5461 H5455 0.950 . S
C5461 C5460 1.327 . S
C5461 C5465 1.429 . S
C5462 C5445 1.574 . S
C5462 H5456 0.949 . S
C5462 C5466 1.368 . S
C5463 C5444 1.429 . S
C5463 C5457 1.429 . S
C5463 C5464 1.523 . S
C5464 C5445 1.368 . S
C5464 C5458 1.368 . S
C5464 C5463 1.523 . S
C5465 C5449 1.429 . S
C5465 C5461 1.429 . S
C5465 C5466 1.523 . S
C5466 C5450 1.368 . S
C5466 C5462 1.368 . S
C5466 C5465 1.523 . S
H5467 C5442 0.950 . S
H5468 C5444 0.950 . S
H5469 C5445 0.949 . S
H5470 C5447 0.950 . S
H5471 C5449 0.950 . S
C5472 C5473 1.349 . S
C5472 C5474 1.327 . S
C5472 H5497 0.950 . S
C5473 C5472 1.349 . S
C5473 C5489 1.349 . S
C5474 C5472 1.327 . S
C5474 C5493 1.429 . S
C5474 H5498 0.950 . S
C5475 C5492 1.574 . S
C5475 C5494 1.368 . S
C5475 H5499 0.949 . S
H5476 C5480 0.949 . S
C5477 C5478 1.349 . S
C5477 C5479 1.327 . S
C5477 H5500 0.950 . S
C5478 C5477 1.349 . S
C5478 C5490 1.349 . S
C5479 C5477 1.327 . S
C5479 C5495 1.429 . S
C5479 H5501 0.950 . S
C5480 H5476 0.949 . S
C5480 C5488 1.574 . S
C5480 C5496 1.368 . S
H5481 C5489 0.950 . S
H5482 C5487 0.950 . S
H5483 C5488 0.949 . S
H5484 C5490 0.950 . S
H5485 C5491 0.950 . S
H5486 C5492 0.949 . S
C5487 H5482 0.950 . S
C5487 C5489 1.327 . S
C5487 C5493 1.429 . S
C5488 C5480 1.574 . S
C5488 H5483 0.949 . S
C5488 C5494 1.368 . S
C5489 C5473 1.349 . S
C5489 H5481 0.950 . S
C5489 C5487 1.327 . S
C5490 C5478 1.349 . S
C5490 H5484 0.950 . S
C5490 C5491 1.327 . S
C5491 H5485 0.950 . S
C5491 C5490 1.327 . S
C5491 C5495 1.429 . S
C5492 C5475 1.574 . S
C5492 H5486 0.949 . S
C5492 C5496 1.368 . S
C5493 C5474 1.429 . S
C5493 C5487 1.429 . S
C5493 C5494 1.523 . S
C5494 C5475 1.368 . S
C5494 C5488 1.368 . S
C5494 C5493 1.523 . S
C5495 C5479 1.429 . S
C5495 C5491 1.429 . S
C5495 C5496 1.523 . S
C5496 C5480 1.368 . S
C5496 C5492 1.368 . S
C5496 C5495 1.523 . S
H5497 C5472 0.950 . S
H5498 C5474 0.950 . S
H5499 C5475 0.949 . S
H5500 C5477 0.950 . S
H5501 C5479 0.950 . S
C5502 C5503 1.349 . S
C5502 C5504 1.327 . S
C5502 H5527 0.950 . S
C5503 C5502 1.349 . S
C5503 C5519 1.349 . S
C5504 C5502 1.327 . S
C5504 C5523 1.429 . S
C5504 H5528 0.950 . S
C5505 C5522 1.574 . S
C5505 C5524 1.368 . S
C5505 H5529 0.949 . S
H5506 C5510 0.949 . S
C5507 C5508 1.349 . S
C5507 C5509 1.327 . S
C5507 H5530 0.950 . S
C5508 C5507 1.349 . S
C5508 C5520 1.349 . S
C5509 C5507 1.327 . S
C5509 C5525 1.429 . S
C5509 H5531 0.950 . S
C5510 H5506 0.949 . S
C5510 C5518 1.574 . S
C5510 C5526 1.368 . S
H5511 C5519 0.950 . S
H5512 C5517 0.950 . S
H5513 C5518 0.949 . S
H5514 C5520 0.950 . S
H5515 C5521 0.950 . S
H5516 C5522 0.949 . S
C5517 H5512 0.950 . S
C5517 C5519 1.327 . S
C5517 C5523 1.429 . S
C5518 C5510 1.574 . S
C5518 H5513 0.949 . S
C5518 C5524 1.368 . S
C5519 C5503 1.349 . S
C5519 H5511 0.950 . S
C5519 C5517 1.327 . S
C5520 C5508 1.349 . S
C5520 H5514 0.950 . S
C5520 C5521 1.327 . S
C5521 H5515 0.950 . S
C5521 C5520 1.327 . S
C5521 C5525 1.429 . S
C5522 C5505 1.574 . S
C5522 H5516 0.949 . S
C5522 C5526 1.368 . S
C5523 C5504 1.429 . S
C5523 C5517 1.429 . S
C5523 C5524 1.523 . S
C5524 C5505 1.368 . S
C5524 C5518 1.368 . S
C5524 C5523 1.523 . S
C5525 C5509 1.429 . S
C5525 C5521 1.429 . S
C5525 C5526 1.523 . S
C5526 C5510 1.368 . S
C5526 C5522 1.368 . S
C5526 C5525 1.523 . S
H5527 C5502 0.950 . S
H5528 C5504 0.950 . S
H5529 C5505 0.949 . S
H5530 C5507 0.950 . S
H5531 C5509 0.950 . S
C5532 C5533 1.349 . S
C5532 C5534 1.327 . S
C5532 H5557 0.950 . S
C5533 C5532 1.349 . S
C5533 C5549 1.349 . S
C5534 C5532 1.327 . S
C5534 C5553 1.429 . S
C5534 H5558 0.950 . S
C5535 C5552 1.574 . S
C5535 C5554 1.368 . S
C5535 H5559 0.949 . S
H5536 C5540 0.949 . S
C5537 C5538 1.349 . S
C5537 C5539 1.327 . S
C5537 H5560 0.950 . S
C5538 C5537 1.349 . S
C5538 C5550 1.349 . S
C5539 C5537 1.327 . S
C5539 C5555 1.429 . S
C5539 H5561 0.950 . S
C5540 H5536 0.949 . S
C5540 C5548 1.574 . S
C5540 C5556 1.368 . S
H5541 C5549 0.950 . S
H5542 C5547 0.950 . S
H5543 C5548 0.949 . S
H5544 C5550 0.950 . S
H5545 C5551 0.950 . S
H5546 C5552 0.949 . S
C5547 H5542 0.950 . S
C5547 C5549 1.327 . S
C5547 C5553 1.429 . S
C5548 C5540 1.574 . S
C5548 H5543 0.949 . S
C5548 C5554 1.368 . S
C5549 C5533 1.349 . S
C5549 H5541 0.950 . S
C5549 C5547 1.327 . S
C5550 C5538 1.349 . S
C5550 H5544 0.950 . S
C5550 C5551 1.327 . S
C5551 H5545 0.950 . S
C5551 C5550 1.327 . S
C5551 C5555 1.429 . S
C5552 C5535 1.574 . S
C5552 H5546 0.949 . S
C5552 C5556 1.368 . S
C5553 C5534 1.429 . S
C5553 C5547 1.429 . S
C5553 C5554 1.523 . S
C5554 C5535 1.368 . S
C5554 C5548 1.368 . S
C5554 C5553 1.523 . S
C5555 C5539 1.429 . S
C5555 C5551 1.429 . S
C5555 C5556 1.523 . S
C5556 C5540 1.368 . S
C5556 C5552 1.368 . S
C5556 C5555 1.523 . S
H5557 C5532 0.950 . S
H5558 C5534 0.950 . S
H5559 C5535 0.949 . S
H5560 C5537 0.950 . S
H5561 C5539 0.950 . S
C5562 C5563 1.349 . S
C5562 C5564 1.327 . S
C5562 H5587 0.950 . S
C5563 C5562 1.349 . S
C5563 C5579 1.349 . S
C5564 C5562 1.327 . S
C5564 C5583 1.429 . S
C5564 H5588 0.950 . S
C5565 C5582 1.574 . S
C5565 C5584 1.368 . S
C5565 H5589 0.949 . S
H5566 C5570 0.949 . S
C5567 C5568 1.349 . S
C5567 C5569 1.327 . S
C5567 H5590 0.950 . S
C5568 C5567 1.349 . S
C5568 C5580 1.349 . S
C5569 C5567 1.327 . S
C5569 C5585 1.429 . S
C5569 H5591 0.950 . S
C5570 H5566 0.949 . S
C5570 C5578 1.574 . S
C5570 C5586 1.368 . S
H5571 C5579 0.950 . S
H5572 C5577 0.950 . S
H5573 C5578 0.949 . S
H5574 C5580 0.950 . S
H5575 C5581 0.950 . S
H5576 C5582 0.949 . S
C5577 H5572 0.950 . S
C5577 C5579 1.327 . S
C5577 C5583 1.429 . S
C5578 C5570 1.574 . S
C5578 H5573 0.949 . S
C5578 C5584 1.368 . S
C5579 C5563 1.349 . S
C5579 H5571 0.950 . S
C5579 C5577 1.327 . S
C5580 C5568 1.349 . S
C5580 H5574 0.950 . S
C5580 C5581 1.327 . S
C5581 H5575 0.950 . S
C5581 C5580 1.327 . S
C5581 C5585 1.429 . S
C5582 C5565 1.574 . S
C5582 H5576 0.949 . S
C5582 C5586 1.368 . S
C5583 C5564 1.429 . S
C5583 C5577 1.429 . S
C5583 C5584 1.523 . S
C5584 C5565 1.368 . S
C5584 C5578 1.368 . S
C5584 C5583 1.523 . S
C5585 C5569 1.429 . S
C5585 C5581 1.429 . S
C5585 C5586 1.523 . S
C5586 C5570 1.368 . S
C5586 C5582 1.368 . S
C5586 C5585 1.523 . S
H5587 C5562 0.950 . S
H5588 C5564 0.950 . S
H5589 C5565 0.949 . S
H5590 C5567 0.950 . S
H5591 C5569 0.950 . S
C5592 C5593 1.349 . S
C5592 C5594 1.327 . S
C5592 H5617 0.950 . S
C5593 C5592 1.349 . S
C5593 C5609 1.349 . S
C5594 C5592 1.327 . S
C5594 C5613 1.429 . S
C5594 H5618 0.950 . S
C5595 C5612 1.574 . S
C5595 C5614 1.368 . S
C5595 H5619 0.949 . S
H5596 C5600 0.949 . S
C5597 C5598 1.349 . S
C5597 C5599 1.327 . S
C5597 H5620 0.950 . S
C5598 C5597 1.349 . S
C5598 C5610 1.349 . S
C5599 C5597 1.327 . S
C5599 C5615 1.429 . S
C5599 H5621 0.950 . S
C5600 H5596 0.949 . S
C5600 C5608 1.574 . S
C5600 C5616 1.368 . S
H5601 C5609 0.950 . S
H5602 C5607 0.950 . S
H5603 C5608 0.949 . S
H5604 C5610 0.950 . S
H5605 C5611 0.950 . S
H5606 C5612 0.949 . S
C5607 H5602 0.950 . S
C5607 C5609 1.327 . S
C5607 C5613 1.429 . S
C5608 C5600 1.574 . S
C5608 H5603 0.949 . S
C5608 C5614 1.368 . S
C5609 C5593 1.349 . S
C5609 H5601 0.950 . S
C5609 C5607 1.327 . S
C5610 C5598 1.349 . S
C5610 H5604 0.950 . S
C5610 C5611 1.327 . S
C5611 H5605 0.950 . S
C5611 C5610 1.327 . S
C5611 C5615 1.429 . S
C5612 C5595 1.574 . S
C5612 H5606 0.949 . S
C5612 C5616 1.368 . S
C5613 C5594 1.429 . S
C5613 C5607 1.429 . S
C5613 C5614 1.523 . S
C5614 C5595 1.368 . S
C5614 C5608 1.368 . S
C5614 C5613 1.523 . S
C5615 C5599 1.429 . S
C5615 C5611 1.429 . S
C5615 C5616 1.523 . S
C5616 C5600 1.368 . S
C5616 C5612 1.368 . S
C5616 C5615 1.523 . S
H5617 C5592 0.950 . S
H5618 C5594 0.950 . S
H5619 C5595 0.949 . S
H5620 C5597 0.950 . S
H5621 C5599 0.950 . S
C5622 C5623 1.349 . S
C5622 C5624 1.327 . S
C5622 H5647 0.950 . S
C5623 C5622 1.349 . S
C5623 C5639 1.349 . S
C5624 C5622 1.327 . S
C5624 C5643 1.429 . S
C5624 H5648 0.950 . S
C5625 C5642 1.574 . S
C5625 C5644 1.368 . S
C5625 H5649 0.949 . S
H5626 C5630 0.949 . S
C5627 C5628 1.349 . S
C5627 C5629 1.327 . S
C5627 H5650 0.950 . S
C5628 C5627 1.349 . S
C5628 C5640 1.349 . S
C5629 C5627 1.327 . S
C5629 C5645 1.429 . S
C5629 H5651 0.950 . S
C5630 H5626 0.949 . S
C5630 C5638 1.574 . S
C5630 C5646 1.368 . S
H5631 C5639 0.950 . S
H5632 C5637 0.950 . S
H5633 C5638 0.949 . S
H5634 C5640 0.950 . S
H5635 C5641 0.950 . S
H5636 C5642 0.949 . S
C5637 H5632 0.950 . S
C5637 C5639 1.327 . S
C5637 C5643 1.429 . S
C5638 C5630 1.574 . S
C5638 H5633 0.949 . S
C5638 C5644 1.368 . S
C5639 C5623 1.349 . S
C5639 H5631 0.950 . S
C5639 C5637 1.327 . S
C5640 C5628 1.349 . S
C5640 H5634 0.950 . S
C5640 C5641 1.327 . S
C5641 H5635 0.950 . S
C5641 C5640 1.327 . S
C5641 C5645 1.429 . S
C5642 C5625 1.574 . S
C5642 H5636 0.949 . S
C5642 C5646 1.368 . S
C5643 C5624 1.429 . S
C5643 C5637 1.429 . S
C5643 C5644 1.523 . S
C5644 C5625 1.368 . S
C5644 C5638 1.368 . S
C5644 C5643 1.523 . S
C5645 C5629 1.429 . S
C5645 C5641 1.429 . S
C5645 C5646 1.523 . S
C5646 C5630 1.368 . S
C5646 C5642 1.368 . S
C5646 C5645 1.523 . S
H5647 C5622 0.950 . S
H5648 C5624 0.950 . S
H5649 C5625 0.949 . S
H5650 C5627 0.950 . S
H5651 C5629 0.950 . S
C5652 C5653 1.349 . S
C5652 C5654 1.327 . S
C5652 H5677 0.950 . S
C5653 C5652 1.349 . S
C5653 C5669 1.349 . S
C5654 C5652 1.327 . S
C5654 C5673 1.429 . S
C5654 H5678 0.950 . S
C5655 C5672 1.574 . S
C5655 C5674 1.368 . S
C5655 H5679 0.949 . S
H5656 C5660 0.949 . S
C5657 C5658 1.349 . S
C5657 C5659 1.327 . S
C5657 H5680 0.950 . S
C5658 C5657 1.349 . S
C5658 C5670 1.349 . S
C5659 C5657 1.327 . S
C5659 C5675 1.429 . S
C5659 H5681 0.950 . S
C5660 H5656 0.949 . S
C5660 C5668 1.574 . S
C5660 C5676 1.368 . S
H5661 C5669 0.950 . S
H5662 C5667 0.950 . S
H5663 C5668 0.949 . S
H5664 C5670 0.950 . S
H5665 C5671 0.950 . S
H5666 C5672 0.949 . S
C5667 H5662 0.950 . S
C5667 C5669 1.327 . S
C5667 C5673 1.429 . S
C5668 C5660 1.574 . S
C5668 H5663 0.949 . S
C5668 C5674 1.368 . S
C5669 C5653 1.349 . S
C5669 H5661 0.950 . S
C5669 C5667 1.327 . S
C5670 C5658 1.349 . S
C5670 H5664 0.950 . S
C5670 C5671 1.327 . S
C5671 H5665 0.950 . S
C5671 C5670 1.327 . S
C5671 C5675 1.429 . S
C5672 C5655 1.574 . S
C5672 H5666 0.949 . S
C5672 C5676 1.368 . S
C5673 C5654 1.429 . S
C5673 C5667 1.429 . S
C5673 C5674 1.523 . S
C5674 C5655 1.368 . S
C5674 C5668 1.368 . S
C5674 C5673 1.523 . S
C5675 C5659 1.429 . S
C5675 C5671 1.429 . S
C5675 C5676 1.523 . S
C5676 C5660 1.368 . S
C5676 C5672 1.368 . S
C5676 C5675 1.523 . S
H5677 C5652 0.950 . S
H5678 C5654 0.950 . S
H5679 C5655 0.949 . S
H5680 C5657 0.950 . S
H5681 C5659 0.950 . S
C5682 C5683 1.349 . S
C5682 C5684 1.327 . S
C5682 H5707 0.950 . S
C5683 C5682 1.349 . S
C5683 C5699 1.349 . S
C5684 C5682 1.327 . S
C5684 C5703 1.429 . S
C5684 H5708 0.950 . S
C5685 C5702 1.574 . S
C5685 C5704 1.368 . S
C5685 H5709 0.949 . S
H5686 C5690 0.949 . S
C5687 C5688 1.349 . S
C5687 C5689 1.327 . S
C5687 H5710 0.950 . S
C5688 C5687 1.349 . S
C5688 C5700 1.349 . S
C5689 C5687 1.327 . S
C5689 C5705 1.429 . S
C5689 H5711 0.950 . S
C5690 H5686 0.949 . S
C5690 C5698 1.574 . S
C5690 C5706 1.368 . S
H5691 C5699 0.950 . S
H5692 C5697 0.950 . S
H5693 C5698 0.949 . S
H5694 C5700 0.950 . S
H5695 C5701 0.950 . S
H5696 C5702 0.949 . S
C5697 H5692 0.950 . S
C5697 C5699 1.327 . S
C5697 C5703 1.429 . S
C5698 C5690 1.574 . S
C5698 H5693 0.949 . S
C5698 C5704 1.368 . S
C5699 C5683 1.349 . S
C5699 H5691 0.950 . S
C5699 C5697 1.327 . S
C5700 C5688 1.349 . S
C5700 H5694 0.950 . S
C5700 C5701 1.327 . S
C5701 H5695 0.950 . S
C5701 C5700 1.327 . S
C5701 C5705 1.429 . S
C5702 C5685 1.574 . S
C5702 H5696 0.949 . S
C5702 C5706 1.368 . S
C5703 C5684 1.429 . S
C5703 C5697 1.429 . S
C5703 C5704 1.523 . S
C5704 C5685 1.368 . S
C5704 C5698 1.368 . S
C5704 C5703 1.523 . S
C5705 C5689 1.429 . S
C5705 C5701 1.429 . S
C5705 C5706 1.523 . S
C5706 C5690 1.368 . S
C5706 C5702 1.368 . S
C5706 C5705 1.523 . S
H5707 C5682 0.950 . S
H5708 C5684 0.950 . S
H5709 C5685 0.949 . S
H5710 C5687 0.950 . S
H5711 C5689 0.950 . S
C5712 C5713 1.349 . S
C5712 C5714 1.327 . S
C5712 H5737 0.950 . S
C5713 C5712 1.349 . S
C5713 C5729 1.349 . S
C5714 C5712 1.327 . S
C5714 C5733 1.429 . S
C5714 H5738 0.950 . S
C5715 C5732 1.574 . S
C5715 C5734 1.368 . S
C5715 H5739 0.949 . S
H5716 C5720 0.949 . S
C5717 C5718 1.349 . S
C5717 C5719 1.327 . S
C5717 H5740 0.950 . S
C5718 C5717 1.349 . S
C5718 C5730 1.349 . S
C5719 C5717 1.327 . S
C5719 C5735 1.429 . S
C5719 H5741 0.950 . S
C5720 H5716 0.949 . S
C5720 C5728 1.574 . S
C5720 C5736 1.368 . S
H5721 C5729 0.950 . S
H5722 C5727 0.950 . S
H5723 C5728 0.949 . S
H5724 C5730 0.950 . S
H5725 C5731 0.950 . S
H5726 C5732 0.949 . S
C5727 H5722 0.950 . S
C5727 C5729 1.327 . S
C5727 C5733 1.429 . S
C5728 C5720 1.574 . S
C5728 H5723 0.949 . S
C5728 C5734 1.368 . S
C5729 C5713 1.349 . S
C5729 H5721 0.950 . S
C5729 C5727 1.327 . S
C5730 C5718 1.349 . S
C5730 H5724 0.950 . S
C5730 C5731 1.327 . S
C5731 H5725 0.950 . S
C5731 C5730 1.327 . S
C5731 C5735 1.429 . S
C5732 C5715 1.574 . S
C5732 H5726 0.949 . S
C5732 C5736 1.368 . S
C5733 C5714 1.429 . S
C5733 C5727 1.429 . S
C5733 C5734 1.523 . S
C5734 C5715 1.368 . S
C5734 C5728 1.368 . S
C5734 C5733 1.523 . S
C5735 C5719 1.429 . S
C5735 C5731 1.429 . S
C5735 C5736 1.523 . S
C5736 C5720 1.368 . S
C5736 C5732 1.368 . S
C5736 C5735 1.523 . S
H5737 C5712 0.950 . S
H5738 C5714 0.950 . S
H5739 C5715 0.949 . S
H5740 C5717 0.950 . S
H5741 C5719 0.950 . S
C5742 C5743 1.349 . S
C5742 C5744 1.327 . S
C5742 H5767 0.950 . S
C5743 C5742 1.349 . S
C5743 C5759 1.349 . S
C5744 C5742 1.327 . S
C5744 C5763 1.429 . S
C5744 H5768 0.950 . S
C5745 C5762 1.574 . S
C5745 C5764 1.368 . S
C5745 H5769 0.949 . S
H5746 C5750 0.949 . S
C5747 C5748 1.349 . S
C5747 C5749 1.327 . S
C5747 H5770 0.950 . S
C5748 C5747 1.349 . S
C5748 C5760 1.349 . S
C5749 C5747 1.327 . S
C5749 C5765 1.429 . S
C5749 H5771 0.950 . S
C5750 H5746 0.949 . S
C5750 C5758 1.574 . S
C5750 C5766 1.368 . S
H5751 C5759 0.950 . S
H5752 C5757 0.950 . S
H5753 C5758 0.949 . S
H5754 C5760 0.950 . S
H5755 C5761 0.950 . S
H5756 C5762 0.949 . S
C5757 H5752 0.950 . S
C5757 C5759 1.327 . S
C5757 C5763 1.429 . S
C5758 C5750 1.574 . S
C5758 H5753 0.949 . S
C5758 C5764 1.368 . S
C5759 C5743 1.349 . S
C5759 H5751 0.950 . S
C5759 C5757 1.327 . S
C5760 C5748 1.349 . S
C5760 H5754 0.950 . S
C5760 C5761 1.327 . S
C5761 H5755 0.950 . S
C5761 C5760 1.327 . S
C5761 C5765 1.429 . S
C5762 C5745 1.574 . S
C5762 H5756 0.949 . S
C5762 C5766 1.368 . S
C5763 C5744 1.429 . S
C5763 C5757 1.429 . S
C5763 C5764 1.523 . S
C5764 C5745 1.368 . S
C5764 C5758 1.368 . S
C5764 C5763 1.523 . S
C5765 C5749 1.429 . S
C5765 C5761 1.429 . S
C5765 C5766 1.523 . S
C5766 C5750 1.368 . S
C5766 C5762 1.368 . S
C5766 C5765 1.523 . S
H5767 C5742 0.950 . S
H5768 C5744 0.950 . S
H5769 C5745 0.949 . S
H5770 C5747 0.950 . S
H5771 C5749 0.950 . S
C5772 C5773 1.349 . S
C5772 C5774 1.327 . S
C5772 H5797 0.950 . S
C5773 C5772 1.349 . S
C5773 C5789 1.349 . S
C5774 C5772 1.327 . S
C5774 C5793 1.429 . S
C5774 H5798 0.950 . S
C5775 C5792 1.574 . S
C5775 C5794 1.368 . S
C5775 H5799 0.949 . S
H5776 C5780 0.949 . S
C5777 C5778 1.349 . S
C5777 C5779 1.327 . S
C5777 H5800 0.950 . S
C5778 C5777 1.349 . S
C5778 C5790 1.349 . S
C5779 C5777 1.327 . S
C5779 C5795 1.429 . S
C5779 H5801 0.950 . S
C5780 H5776 0.949 . S
C5780 C5788 1.574 . S
C5780 C5796 1.368 . S
H5781 C5789 0.950 . S
H5782 C5787 0.950 . S
H5783 C5788 0.949 . S
H5784 C5790 0.950 . S
H5785 C5791 0.950 . S
H5786 C5792 0.949 . S
C5787 H5782 0.950 . S
C5787 C5789 1.327 . S
C5787 C5793 1.429 . S
C5788 C5780 1.574 . S
C5788 H5783 0.949 . S
C5788 C5794 1.368 . S
C5789 C5773 1.349 . S
C5789 H5781 0.950 . S
C5789 C5787 1.327 . S
C5790 C5778 1.349 . S
C5790 H5784 0.950 . S
C5790 C5791 1.327 . S
C5791 H5785 0.950 . S
C5791 C5790 1.327 . S
C5791 C5795 1.429 . S
C5792 C5775 1.574 . S
C5792 H5786 0.949 . S
C5792 C5796 1.368 . S
C5793 C5774 1.429 . S
C5793 C5787 1.429 . S
C5793 C5794 1.523 . S
C5794 C5775 1.368 . S
C5794 C5788 1.368 . S
C5794 C5793 1.523 . S
C5795 C5779 1.429 . S
C5795 C5791 1.429 . S
C5795 C5796 1.523 . S
C5796 C5780 1.368 . S
C5796 C5792 1.368 . S
C5796 C5795 1.523 . S
H5797 C5772 0.950 . S
H5798 C5774 0.950 . S
H5799 C5775 0.949 . S
H5800 C5777 0.950 . S
H5801 C5779 0.950 . S
C5802 C5803 1.349 . S
C5802 C5804 1.327 . S
C5802 H5827 0.950 . S
C5803 C5802 1.349 . S
C5803 C5819 1.349 . S
C5804 C5802 1.327 . S
C5804 C5823 1.429 . S
C5804 H5828 0.950 . S
C5805 C5822 1.574 . S
C5805 C5824 1.368 . S
C5805 H5829 0.949 . S
H5806 C5810 0.949 . S
C5807 C5808 1.349 . S
C5807 C5809 1.327 . S
C5807 H5830 0.950 . S
C5808 C5807 1.349 . S
C5808 C5820 1.349 . S
C5809 C5807 1.327 . S
C5809 C5825 1.429 . S
C5809 H5831 0.950 . S
C5810 H5806 0.949 . S
C5810 C5818 1.574 . S
C5810 C5826 1.368 . S
H5811 C5819 0.950 . S
H5812 C5817 0.950 . S
H5813 C5818 0.949 . S
H5814 C5820 0.950 . S
H5815 C5821 0.950 . S
H5816 C5822 0.949 . S
C5817 H5812 0.950 . S
C5817 C5819 1.327 . S
C5817 C5823 1.429 . S
C5818 C5810 1.574 . S
C5818 H5813 0.949 . S
C5818 C5824 1.368 . S
C5819 C5803 1.349 . S
C5819 H5811 0.950 . S
C5819 C5817 1.327 . S
C5820 C5808 1.349 . S
C5820 H5814 0.950 . S
C5820 C5821 1.327 . S
C5821 H5815 0.950 . S
C5821 C5820 1.327 . S
C5821 C5825 1.429 . S
C5822 C5805 1.574 . S
C5822 H5816 0.949 . S
C5822 C5826 1.368 . S
C5823 C5804 1.429 . S
C5823 C5817 1.429 . S
C5823 C5824 1.523 . S
C5824 C5805 1.368 . S
C5824 C5818 1.368 . S
C5824 C5823 1.523 . S
C5825 C5809 1.429 . S
C5825 C5821 1.429 . S
C5825 C5826 1.523 . S
C5826 C5810 1.368 . S
C5826 C5822 1.368 . S
C5826 C5825 1.523 . S
H5827 C5802 0.950 . S
H5828 C5804 0.950 . S
H5829 C5805 0.949 . S
H5830 C5807 0.950 . S
H5831 C5809 0.950 . S
C5832 C5833 1.349 . S
C5832 C5834 1.327 . S
C5832 H5857 0.950 . S
C5833 C5832 1.349 . S
C5833 C5849 1.349 . S
C5834 C5832 1.327 . S
C5834 C5853 1.429 . S
C5834 H5858 0.950 . S
C5835 C5852 1.574 . S
C5835 C5854 1.368 . S
C5835 H5859 0.949 . S
H5836 C5840 0.949 . S
C5837 C5838 1.349 . S
C5837 C5839 1.327 . S
C5837 H5860 0.950 . S
C5838 C5837 1.349 . S
C5838 C5850 1.349 . S
C5839 C5837 1.327 . S
C5839 C5855 1.429 . S
C5839 H5861 0.950 . S
C5840 H5836 0.949 . S
C5840 C5848 1.574 . S
C5840 C5856 1.368 . S
H5841 C5849 0.950 . S
H5842 C5847 0.950 . S
H5843 C5848 0.949 . S
H5844 C5850 0.950 . S
H5845 C5851 0.950 . S
H5846 C5852 0.949 . S
C5847 H5842 0.950 . S
C5847 C5849 1.327 . S
C5847 C5853 1.429 . S
C5848 C5840 1.574 . S
C5848 H5843 0.949 . S
C5848 C5854 1.368 . S
C5849 C5833 1.349 . S
C5849 H5841 0.950 . S
C5849 C5847 1.327 . S
C5850 C5838 1.349 . S
C5850 H5844 0.950 . S
C5850 C5851 1.327 . S
C5851 H5845 0.950 . S
C5851 C5850 1.327 . S
C5851 C5855 1.429 . S
C5852 C5835 1.574 . S
C5852 H5846 0.949 . S
C5852 C5856 1.368 . S
C5853 C5834 1.429 . S
C5853 C5847 1.429 . S
C5853 C5854 1.523 . S
C5854 C5835 1.368 . S
C5854 C5848 1.368 . S
C5854 C5853 1.523 . S
C5855 C5839 1.429 . S
C5855 C5851 1.429 . S
C5855 C5856 1.523 . S
C5856 C5840 1.368 . S
C5856 C5852 1.368 . S
C5856 C5855 1.523 . S
H5857 C5832 0.950 . S
H5858 C5834 0.950 . S
H5859 C5835 0.949 . S
H5860 C5837 0.950 . S
H5861 C5839 0.950 . S
C5862 C5863 1.349 . S
C5862 C5864 1.327 . S
C5862 H5887 0.950 . S
C5863 C5862 1.349 . S
C5863 C5879 1.349 . S
C5864 C5862 1.327 . S
C5864 C5883 1.429 . S
C5864 H5888 0.950 . S
C5865 C5882 1.574 . S
C5865 C5884 1.368 . S
C5865 H5889 0.949 . S
H5866 C5870 0.949 . S
C5867 C5868 1.349 . S
C5867 C5869 1.327 . S
C5867 H5890 0.950 . S
C5868 C5867 1.349 . S
C5868 C5880 1.349 . S
C5869 C5867 1.327 . S
C5869 C5885 1.429 . S
C5869 H5891 0.950 . S
C5870 H5866 0.949 . S
C5870 C5878 1.574 . S
C5870 C5886 1.368 . S
H5871 C5879 0.950 . S
H5872 C5877 0.950 . S
H5873 C5878 0.949 . S
H5874 C5880 0.950 . S
H5875 C5881 0.950 . S
H5876 C5882 0.949 . S
C5877 H5872 0.950 . S
C5877 C5879 1.327 . S
C5877 C5883 1.429 . S
C5878 C5870 1.574 . S
C5878 H5873 0.949 . S
C5878 C5884 1.368 . S
C5879 C5863 1.349 . S
C5879 H5871 0.950 . S
C5879 C5877 1.327 . S
C5880 C5868 1.349 . S
C5880 H5874 0.950 . S
C5880 C5881 1.327 . S
C5881 H5875 0.950 . S
C5881 C5880 1.327 . S
C5881 C5885 1.429 . S
C5882 C5865 1.574 . S
C5882 H5876 0.949 . S
C5882 C5886 1.368 . S
C5883 C5864 1.429 . S
C5883 C5877 1.429 . S
C5883 C5884 1.523 . S
C5884 C5865 1.368 . S
C5884 C5878 1.368 . S
C5884 C5883 1.523 . S
C5885 C5869 1.429 . S
C5885 C5881 1.429 . S
C5885 C5886 1.523 . S
C5886 C5870 1.368 . S
C5886 C5882 1.368 . S
C5886 C5885 1.523 . S
H5887 C5862 0.950 . S
H5888 C5864 0.950 . S
H5889 C5865 0.949 . S
H5890 C5867 0.950 . S
H5891 C5869 0.950 . S
C5892 C5893 1.349 . S
C5892 C5894 1.327 . S
C5892 H5917 0.950 . S
C5893 C5892 1.349 . S
C5893 C5909 1.349 . S
C5894 C5892 1.327 . S
C5894 C5913 1.429 . S
C5894 H5918 0.950 . S
C5895 C5912 1.574 . S
C5895 C5914 1.368 . S
C5895 H5919 0.949 . S
H5896 C5900 0.949 . S
C5897 C5898 1.349 . S
C5897 C5899 1.327 . S
C5897 H5920 0.950 . S
C5898 C5897 1.349 . S
C5898 C5910 1.349 . S
C5899 C5897 1.327 . S
C5899 C5915 1.429 . S
C5899 H5921 0.950 . S
C5900 H5896 0.949 . S
C5900 C5908 1.574 . S
C5900 C5916 1.368 . S
H5901 C5909 0.950 . S
H5902 C5907 0.950 . S
H5903 C5908 0.949 . S
H5904 C5910 0.950 . S
H5905 C5911 0.950 . S
H5906 C5912 0.949 . S
C5907 H5902 0.950 . S
C5907 C5909 1.327 . S
C5907 C5913 1.429 . S
C5908 C5900 1.574 . S
C5908 H5903 0.949 . S
C5908 C5914 1.368 . S
C5909 C5893 1.349 . S
C5909 H5901 0.950 . S
C5909 C5907 1.327 . S
C5910 C5898 1.349 . S
C5910 H5904 0.950 . S
C5910 C5911 1.327 . S
C5911 H5905 0.950 . S
C5911 C5910 1.327 . S
C5911 C5915 1.429 . S
C5912 C5895 1.574 . S
C5912 H5906 0.949 . S
C5912 C5916 1.368 . S
C5913 C5894 1.429 . S
C5913 C5907 1.429 . S
C5913 C5914 1.523 . S
C5914 C5895 1.368 . S
C5914 C5908 1.368 . S
C5914 C5913 1.523 . S
C5915 C5899 1.429 . S
C5915 C5911 1.429 . S
C5915 C5916 1.523 . S
C5916 C5900 1.368 . S
C5916 C5912 1.368 . S
C5916 C5915 1.523 . S
H5917 C5892 0.950 . S
H5918 C5894 0.950 . S
H5919 C5895 0.949 . S
H5920 C5897 0.950 . S
H5921 C5899 0.950 . S
C5922 C5923 1.349 . S
C5922 C5924 1.327 . S
C5922 H5947 0.950 . S
C5923 C5922 1.349 . S
C5923 C5939 1.349 . S
C5924 C5922 1.327 . S
C5924 C5943 1.429 . S
C5924 H5948 0.950 . S
C5925 C5942 1.574 . S
C5925 C5944 1.368 . S
C5925 H5949 0.949 . S
H5926 C5930 0.949 . S
C5927 C5928 1.349 . S
C5927 C5929 1.327 . S
C5927 H5950 0.950 . S
C5928 C5927 1.349 . S
C5928 C5940 1.349 . S
C5929 C5927 1.327 . S
C5929 C5945 1.429 . S
C5929 H5951 0.950 . S
C5930 H5926 0.949 . S
C5930 C5938 1.574 . S
C5930 C5946 1.368 . S
H5931 C5939 0.950 . S
H5932 C5937 0.950 . S
H5933 C5938 0.949 . S
H5934 C5940 0.950 . S
H5935 C5941 0.950 . S
H5936 C5942 0.949 . S
C5937 H5932 0.950 . S
C5937 C5939 1.327 . S
C5937 C5943 1.429 . S
C5938 C5930 1.574 . S
C5938 H5933 0.949 . S
C5938 C5944 1.368 . S
C5939 C5923 1.349 . S
C5939 H5931 0.950 . S
C5939 C5937 1.327 . S
C5940 C5928 1.349 . S
C5940 H5934 0.950 . S
C5940 C5941 1.327 . S
C5941 H5935 0.950 . S
C5941 C5940 1.327 . S
C5941 C5945 1.429 . S
C5942 C5925 1.574 . S
C5942 H5936 0.949 . S
C5942 C5946 1.368 . S
C5943 C5924 1.429 . S
C5943 C5937 1.429 . S
C5943 C5944 1.523 . S
C5944 C5925 1.368 . S
C5944 C5938 1.368 . S
C5944 C5943 1.523 . S
C5945 C5929 1.429 . S
C5945 C5941 1.429 . S
C5945 C5946 1.523 . S
C5946 C5930 1.368 . S
C5946 C5942 1.368 . S
C5946 C5945 1.523 . S
H5947 C5922 0.950 . S
H5948 C5924 0.950 . S
H5949 C5925 0.949 . S
H5950 C5927 0.950 . S
H5951 C5929 0.950 . S
C5952 C5953 1.349 . S
C5952 C5954 1.327 . S
C5952 H5977 0.950 . S
C5953 C5952 1.349 . S
C5953 C5969 1.349 . S
C5954 C5952 1.327 . S
C5954 C5973 1.429 . S
C5954 H5978 0.950 . S
C5955 C5972 1.574 . S
C5955 C5974 1.368 . S
C5955 H5979 0.949 . S
H5956 C5960 0.949 . S
C5957 C5958 1.349 . S
C5957 C5959 1.327 . S
C5957 H5980 0.950 . S
C5958 C5957 1.349 . S
C5958 C5970 1.349 . S
C5959 C5957 1.327 . S
C5959 C5975 1.429 . S
C5959 H5981 0.950 . S
C5960 H5956 0.949 . S
C5960 C5968 1.574 . S
C5960 C5976 1.368 . S
H5961 C5969 0.950 . S
H5962 C5967 0.950 . S
H5963 C5968 0.949 . S
H5964 C5970 0.950 . S
H5965 C5971 0.950 . S
H5966 C5972 0.949 . S
C5967 H5962 0.950 . S
C5967 C5969 1.327 . S
C5967 C5973 1.429 . S
C5968 C5960 1.574 . S
C5968 H5963 0.949 . S
C5968 C5974 1.368 . S
C5969 C5953 1.349 . S
C5969 H5961 0.950 . S
C5969 C5967 1.327 . S
C5970 C5958 1.349 . S
C5970 H5964 0.950 . S
C5970 C5971 1.327 . S
C5971 H5965 0.950 . S
C5971 C5970 1.327 . S
C5971 C5975 1.429 . S
C5972 C5955 1.574 . S
C5972 H5966 0.949 . S
C5972 C5976 1.368 . S
C5973 C5954 1.429 . S
C5973 C5967 1.429 . S
C5973 C5974 1.523 . S
C5974 C5955 1.368 . S
C5974 C5968 1.368 . S
C5974 C5973 1.523 . S
C5975 C5959 1.429 . S
C5975 C5971 1.429 . S
C5975 C5976 1.523 . S
C5976 C5960 1.368 . S
C5976 C5972 1.368 . S
C5976 C5975 1.523 . S
H5977 C5952 0.950 . S
H5978 C5954 0.950 . S
H5979 C5955 0.949 . S
H5980 C5957 0.950 . S
H5981 C5959 0.950 . S
C5982 C5983 1.349 . S
C5982 C5984 1.327 . S
C5982 H6007 0.950 . S
C5983 C5982 1.349 . S
C5983 C5999 1.349 . S
C5984 C5982 1.327 . S
C5984 C6003 1.429 . S
C5984 H6008 0.950 . S
C5985 C6002 1.574 . S
C5985 C6004 1.368 . S
C5985 H6009 0.949 . S
H5986 C5990 0.949 . S
C5987 C5988 1.349 . S
C5987 C5989 1.327 . S
C5987 H6010 0.950 . S
C5988 C5987 1.349 . S
C5988 C6000 1.349 . S
C5989 C5987 1.327 . S
C5989 C6005 1.429 . S
C5989 H6011 0.950 . S
C5990 H5986 0.949 . S
C5990 C5998 1.574 . S
C5990 C6006 1.368 . S
H5991 C5999 0.950 . S
H5992 C5997 0.950 . S
H5993 C5998 0.949 . S
H5994 C6000 0.950 . S
H5995 C6001 0.950 . S
H5996 C6002 0.949 . S
C5997 H5992 0.950 . S
C5997 C5999 1.327 . S
C5997 C6003 1.429 . S
C5998 C5990 1.574 . S
C5998 H5993 0.949 . S
C5998 C6004 1.368 . S
C5999 C5983 1.349 . S
C5999 H5991 0.950 . S
C5999 C5997 1.327 . S
C6000 C5988 1.349 . S
C6000 H5994 0.950 . S
C6000 C6001 1.327 . S
C6001 H5995 0.950 . S
C6001 C6000 1.327 . S
C6001 C6005 1.429 . S
C6002 C5985 1.574 . S
C6002 H5996 0.949 . S
C6002 C6006 1.368 . S
C6003 C5984 1.429 . S
C6003 C5997 1.429 . S
C6003 C6004 1.523 . S
C6004 C5985 1.368 . S
C6004 C5998 1.368 . S
C6004 C6003 1.523 . S
C6005 C5989 1.429 . S
C6005 C6001 1.429 . S
C6005 C6006 1.523 . S
C6006 C5990 1.368 . S
C6006 C6002 1.368 . S
C6006 C6005 1.523 . S
H6007 C5982 0.950 . S
H6008 C5984 0.950 . S
H6009 C5985 0.949 . S
H6010 C5987 0.950 . S
H6011 C5989 0.950 . S
C6012 C6013 1.349 . S
C6012 C6014 1.327 . S
C6012 H6037 0.950 . S
C6013 C6012 1.349 . S
C6013 C6029 1.349 . S
C6014 C6012 1.327 . S
C6014 C6033 1.429 . S
C6014 H6038 0.950 . S
C6015 C6032 1.574 . S
C6015 C6034 1.368 . S
C6015 H6039 0.949 . S
H6016 C6020 0.949 . S
C6017 C6018 1.349 . S
C6017 C6019 1.327 . S
C6017 H6040 0.950 . S
C6018 C6017 1.349 . S
C6018 C6030 1.349 . S
C6019 C6017 1.327 . S
C6019 C6035 1.429 . S
C6019 H6041 0.950 . S
C6020 H6016 0.949 . S
C6020 C6028 1.574 . S
C6020 C6036 1.368 . S
H6021 C6029 0.950 . S
H6022 C6027 0.950 . S
H6023 C6028 0.949 . S
H6024 C6030 0.950 . S
H6025 C6031 0.950 . S
H6026 C6032 0.949 . S
C6027 H6022 0.950 . S
C6027 C6029 1.327 . S
C6027 C6033 1.429 . S
C6028 C6020 1.574 . S
C6028 H6023 0.949 . S
C6028 C6034 1.368 . S
C6029 C6013 1.349 . S
C6029 H6021 0.950 . S
C6029 C6027 1.327 . S
C6030 C6018 1.349 . S
C6030 H6024 0.950 . S
C6030 C6031 1.327 . S
C6031 H6025 0.950 . S
C6031 C6030 1.327 . S
C6031 C6035 1.429 . S
C6032 C6015 1.574 . S
C6032 H6026 0.949 . S
C6032 C6036 1.368 . S
C6033 C6014 1.429 . S
C6033 C6027 1.429 . S
C6033 C6034 1.523 . S
C6034 C6015 1.368 . S
C6034 C6028 1.368 . S
C6034 C6033 1.523 . S
C6035 C6019 1.429 . S
C6035 C6031 1.429 . S
C6035 C6036 1.523 . S
C6036 C6020 1.368 . S
C6036 C6032 1.368 . S
C6036 C6035 1.523 . S
H6037 C6012 0.950 . S
H6038 C6014 0.950 . S
H6039 C6015 0.949 . S
H6040 C6017 0.950 . S
H6041 C6019 0.950 . S
C6042 C6043 1.349 . S
C6042 C6044 1.327 . S
C6042 H6067 0.950 . S
C6043 C6042 1.349 . S
C6043 C6059 1.349 . S
C6044 C6042 1.327 . S
C6044 C6063 1.429 . S
C6044 H6068 0.950 . S
C6045 C6062 1.574 . S
C6045 C6064 1.368 . S
C6045 H6069 0.949 . S
H6046 C6050 0.949 . S
C6047 C6048 1.349 . S
C6047 C6049 1.327 . S
C6047 H6070 0.950 . S
C6048 C6047 1.349 . S
C6048 C6060 1.349 . S
C6049 C6047 1.327 . S
C6049 C6065 1.429 . S
C6049 H6071 0.950 . S
C6050 H6046 0.949 . S
C6050 C6058 1.574 . S
C6050 C6066 1.368 . S
H6051 C6059 0.950 . S
H6052 C6057 0.950 . S
H6053 C6058 0.949 . S
H6054 C6060 0.950 . S
H6055 C6061 0.950 . S
H6056 C6062 0.949 . S
C6057 H6052 0.950 . S
C6057 C6059 1.327 . S
C6057 C6063 1.429 . S
C6058 C6050 1.574 . S
C6058 H6053 0.949 . S
C6058 C6064 1.368 . S
C6059 C6043 1.349 . S
C6059 H6051 0.950 . S
C6059 C6057 1.327 . S
C6060 C6048 1.349 . S
C6060 H6054 0.950 . S
C6060 C6061 1.327 . S
C6061 H6055 0.950 . S
C6061 C6060 1.327 . S
C6061 C6065 1.429 . S
C6062 C6045 1.574 . S
C6062 H6056 0.949 . S
C6062 C6066 1.368 . S
C6063 C6044 1.429 . S
C6063 C6057 1.429 . S
C6063 C6064 1.523 . S
C6064 C6045 1.368 . S
C6064 C6058 1.368 . S
C6064 C6063 1.523 . S
C6065 C6049 1.429 . S
C6065 C6061 1.429 . S
C6065 C6066 1.523 . S
C6066 C6050 1.368 . S
C6066 C6062 1.368 . S
C6066 C6065 1.523 . S
H6067 C6042 0.950 . S
H6068 C6044 0.950 . S
H6069 C6045 0.949 . S
H6070 C6047 0.950 . S
H6071 C6049 0.950 . S
C6072 C6073 1.349 . S
C6072 C6074 1.327 . S
C6072 H6097 0.950 . S
C6073 C6072 1.349 . S
C6073 C6089 1.349 . S
C6074 C6072 1.327 . S
C6074 C6093 1.429 . S
C6074 H6098 0.950 . S
C6075 C6092 1.574 . S
C6075 C6094 1.368 . S
C6075 H6099 0.949 . S
H6076 C6080 0.949 . S
C6077 C6078 1.349 . S
C6077 C6079 1.327 . S
C6077 H6100 0.950 . S
C6078 C6077 1.349 . S
C6078 C6090 1.349 . S
C6079 C6077 1.327 . S
C6079 C6095 1.429 . S
C6079 H6101 0.950 . S
C6080 H6076 0.949 . S
C6080 C6088 1.574 . S
C6080 C6096 1.368 . S
H6081 C6089 0.950 . S
H6082 C6087 0.950 . S
H6083 C6088 0.949 . S
H6084 C6090 0.950 . S
H6085 C6091 0.950 . S
H6086 C6092 0.949 . S
C6087 H6082 0.950 . S
C6087 C6089 1.327 . S
C6087 C6093 1.429 . S
C6088 C6080 1.574 . S
C6088 H6083 0.949 . S
C6088 C6094 1.368 . S
C6089 C6073 1.349 . S
C6089 H6081 0.950 . S
C6089 C6087 1.327 . S
C6090 C6078 1.349 . S
C6090 H6084 0.950 . S
C6090 C6091 1.327 . S
C6091 H6085 0.950 . S
C6091 C6090 1.327 . S
C6091 C6095 1.429 . S
C6092 C6075 1.574 . S
C6092 H6086 0.949 . S
C6092 C6096 1.368 . S
C6093 C6074 1.429 . S
C6093 C6087 1.429 . S
C6093 C6094 1.523 . S
C6094 C6075 1.368 . S
C6094 C6088 1.368 . S
C6094 C6093 1.523 . S
C6095 C6079 1.429 . S
C6095 C6091 1.429 . S
C6095 C6096 1.523 . S
C6096 C6080 1.368 . S
C6096 C6092 1.368 . S
C6096 C6095 1.523 . S
H6097 C6072 0.950 . S
H6098 C6074 0.950 . S
H6099 C6075 0.949 . S
H6100 C6077 0.950 . S
H6101 C6079 0.950 . S
C6102 C6103 1.349 . S
C6102 C6104 1.327 . S
C6102 H6127 0.950 . S
C6103 C6102 1.349 . S
C6103 C6119 1.349 . S
C6104 C6102 1.327 . S
C6104 C6123 1.429 . S
C6104 H6128 0.950 . S
C6105 C6122 1.574 . S
C6105 C6124 1.368 . S
C6105 H6129 0.949 . S
H6106 C6110 0.949 . S
C6107 C6108 1.349 . S
C6107 C6109 1.327 . S
C6107 H6130 0.950 . S
C6108 C6107 1.349 . S
C6108 C6120 1.349 . S
C6109 C6107 1.327 . S
C6109 C6125 1.429 . S
C6109 H6131 0.950 . S
C6110 H6106 0.949 . S
C6110 C6118 1.574 . S
C6110 C6126 1.368 . S
H6111 C6119 0.950 . S
H6112 C6117 0.950 . S
H6113 C6118 0.949 . S
H6114 C6120 0.950 . S
H6115 C6121 0.950 . S
H6116 C6122 0.949 . S
C6117 H6112 0.950 . S
C6117 C6119 1.327 . S
C6117 C6123 1.429 . S
C6118 C6110 1.574 . S
C6118 H6113 0.949 . S
C6118 C6124 1.368 . S
C6119 C6103 1.349 . S
C6119 H6111 0.950 . S
C6119 C6117 1.327 . S
C6120 C6108 1.349 . S
C6120 H6114 0.950 . S
C6120 C6121 1.327 . S
C6121 H6115 0.950 . S
C6121 C6120 1.327 . S
C6121 C6125 1.429 . S
C6122 C6105 1.574 . S
C6122 H6116 0.949 . S
C6122 C6126 1.368 . S
C6123 C6104 1.429 . S
C6123 C6117 1.429 . S
C6123 C6124 1.523 . S
C6124 C6105 1.368 . S
C6124 C6118 1.368 . S
C6124 C6123 1.523 . S
C6125 C6109 1.429 . S
C6125 C6121 1.429 . S
C6125 C6126 1.523 . S
C6126 C6110 1.368 . S
C6126 C6122 1.368 . S
C6126 C6125 1.523 . S
H6127 C6102 0.950 . S
H6128 C6104 0.950 . S
H6129 C6105 0.949 . S
H6130 C6107 0.950 . S
H6131 C6109 0.950 . S
C6132 C6133 1.349 . S
C6132 C6134 1.327 . S
C6132 H6157 0.950 . S
C6133 C6132 1.349 . S
C6133 C6149 1.349 . S
C6134 C6132 1.327 . S
C6134 C6153 1.429 . S
C6134 H6158 0.950 . S
C6135 C6152 1.574 . S
C6135 C6154 1.368 . S
C6135 H6159 0.949 . S
H6136 C6140 0.949 . S
C6137 C6138 1.349 . S
C6137 C6139 1.327 . S
C6137 H6160 0.950 . S
C6138 C6137 1.349 . S
C6138 C6150 1.349 . S
C6139 C6137 1.327 . S
C6139 C6155 1.429 . S
C6139 H6161 0.950 . S
C6140 H6136 0.949 . S
C6140 C6148 1.574 . S
C6140 C6156 1.368 . S
H6141 C6149 0.950 . S
H6142 C6147 0.950 . S
H6143 C6148 0.949 . S
H6144 C6150 0.950 . S
H6145 C6151 0.950 . S
H6146 C6152 0.949 . S
C6147 H6142 0.950 . S
C6147 C6149 1.327 . S
C6147 C6153 1.429 . S
C6148 C6140 1.574 . S
C6148 H6143 0.949 . S
C6148 C6154 1.368 . S
C6149 C6133 1.349 . S
C6149 H6141 0.950 . S
C6149 C6147 1.327 . S
C6150 C6138 1.349 . S
C6150 H6144 0.950 . S
C6150 C6151 1.327 . S
C6151 H6145 0.950 . S
C6151 C6150 1.327 . S
C6151 C6155 1.429 . S
C6152 C6135 1.574 . S
C6152 H6146 0.949 . S
C6152 C6156 1.368 . S
C6153 C6134 1.429 . S
C6153 C6147 1.429 . S
C6153 C6154 1.523 . S
C6154 C6135 1.368 . S
C6154 C6148 1.368 . S
C6154 C6153 1.523 . S
C6155 C6139 1.429 . S
C6155 C6151 1.429 . S
C6155 C6156 1.523 . S
C6156 C6140 1.368 . S
C6156 C6152 1.368 . S
C6156 C6155 1.523 . S
H6157 C6132 0.950 . S
H6158 C6134 0.950 . S
H6159 C6135 0.949 . S
H6160 C6137 0.950 . S
H6161 C6139 0.950 . S
C6162 C6163 1.349 . S
C6162 C6164 1.327 . S
C6162 H6187 0.950 . S
C6163 C6162 1.349 . S
C6163 C6179 1.349 . S
C6164 C6162 1.327 . S
C6164 C6183 1.429 . S
C6164 H6188 0.950 . S
C6165 C6182 1.574 . S
C6165 C6184 1.368 . S
C6165 H6189 0.949 . S
H6166 C6170 0.949 . S
C6167 C6168 1.349 . S
C6167 C6169 1.327 . S
C6167 H6190 0.950 . S
C6168 C6167 1.349 . S
C6168 C6180 1.349 . S
C6169 C6167 1.327 . S
C6169 C6185 1.429 . S
C6169 H6191 0.950 . S
C6170 H6166 0.949 . S
C6170 C6178 1.574 . S
C6170 C6186 1.368 . S
H6171 C6179 0.950 . S
H6172 C6177 0.950 . S
H6173 C6178 0.949 . S
H6174 C6180 0.950 . S
H6175 C6181 0.950 . S
H6176 C6182 0.949 . S
C6177 H6172 0.950 . S
C6177 C6179 1.327 . S
C6177 C6183 1.429 . S
C6178 C6170 1.574 . S
C6178 H6173 0.949 . S
C6178 C6184 1.368 . S
C6179 C6163 1.349 . S
C6179 H6171 0.950 . S
C6179 C6177 1.327 . S
C6180 C6168 1.349 . S
C6180 H6174 0.950 . S
C6180 C6181 1.327 . S
C6181 H6175 0.950 . S
C6181 C6180 1.327 . S
C6181 C6185 1.429 . S
C6182 C6165 1.574 . S
C6182 H6176 0.949 . S
C6182 C6186 1.368 . S
C6183 C6164 1.429 . S
C6183 C6177 1.429 . S
C6183 C6184 1.523 . S
C6184 C6165 1.368 . S
C6184 C6178 1.368 . S
C6184 C6183 1.523 . S
C6185 C6169 1.429 . S
C6185 C6181 1.429 . S
C6185 C6186 1.523 . S
C6186 C6170 1.368 . S
C6186 C6182 1.368 . S
C6186 C6185 1.523 . S
H6187 C6162 0.950 . S
H6188 C6164 0.950 . S
H6189 C6165 0.949 . S
H6190 C6167 0.950 . S
H6191 C6169 0.950 . S
C6192 C6193 1.349 . S
C6192 C6194 1.327 . S
C6192 H6217 0.950 . S
C6193 C6192 1.349 . S
C6193 C6209 1.349 . S
C6194 C6192 1.327 . S
C6194 C6213 1.429 . S
C6194 H6218 0.950 . S
C6195 C6212 1.574 . S
C6195 C6214 1.368 . S
C6195 H6219 0.949 . S
H6196 C6200 0.949 . S
C6197 C6198 1.349 . S
C6197 C6199 1.327 . S
C6197 H6220 0.950 . S
C6198 C6197 1.349 . S
C6198 C6210 1.349 . S
C6199 C6197 1.327 . S
C6199 C6215 1.429 . S
C6199 H6221 0.950 . S
C6200 H6196 0.949 . S
C6200 C6208 1.574 . S
C6200 C6216 1.368 . S
H6201 C6209 0.950 . S
H6202 C6207 0.950 . S
H6203 C6208 0.949 . S
H6204 C6210 0.950 . S
H6205 C6211 0.950 . S
H6206 C6212 0.949 . S
C6207 H6202 0.950 . S
C6207 C6209 1.327 . S
C6207 C6213 1.429 . S
C6208 C6200 1.574 . S
C6208 H6203 0.949 . S
C6208 C6214 1.368 . S
C6209 C6193 1.349 . S
C6209 H6201 0.950 . S
C6209 C6207 1.327 . S
C6210 C6198 1.349 . S
C6210 H6204 0.950 . S
C6210 C6211 1.327 . S
C6211 H6205 0.950 . S
C6211 C6210 1.327 . S
C6211 C6215 1.429 . S
C6212 C6195 1.574 . S
C6212 H6206 0.949 . S
C6212 C6216 1.368 . S
C6213 C6194 1.429 . S
C6213 C6207 1.429 . S
C6213 C6214 1.523 . S
C6214 C6195 1.368 . S
C6214 C6208 1.368 . S
C6214 C6213 1.523 . S
C6215 C6199 1.429 . S
C6215 C6211 1.429 . S
C6215 C6216 1.523 . S
C6216 C6200 1.368 . S
C6216 C6212 1.368 . S
C6216 C6215 1.523 . S
H6217 C6192 0.950 . S
H6218 C6194 0.950 . S
H6219 C6195 0.949 . S
H6220 C6197 0.950 . S
H6221 C6199 0.950 . S
C6222 C6223 1.349 . S
C6222 C6224 1.327 . S
C6222 H6247 0.950 . S
C6223 C6222 1.349 . S
C6223 C6239 1.349 . S
C6224 C6222 1.327 . S
C6224 C6243 1.429 . S
C6224 H6248 0.950 . S
C6225 C6242 1.574 . S
C6225 C6244 1.368 . S
C6225 H6249 0.949 . S
H6226 C6230 0.949 . S
C6227 C6228 1.349 . S
C6227 C6229 1.327 . S
C6227 H6250 0.950 . S
C6228 C6227 1.349 . S
C6228 C6240 1.349 . S
C6229 C6227 1.327 . S
C6229 C6245 1.429 . S
C6229 H6251 0.950 . S
C6230 H6226 0.949 . S
C6230 C6238 1.574 . S
C6230 C6246 1.368 . S
H6231 C6239 0.950 . S
H6232 C6237 0.950 . S
H6233 C6238 0.949 . S
H6234 C6240 0.950 . S
H6235 C6241 0.950 . S
H6236 C6242 0.949 . S
C6237 H6232 0.950 . S
C6237 C6239 1.327 . S
C6237 C6243 1.429 . S
C6238 C6230 1.574 . S
C6238 H6233 0.949 . S
C6238 C6244 1.368 . S
C6239 C6223 1.349 . S
C6239 H6231 0.950 . S
C6239 C6237 1.327 . S
C6240 C6228 1.349 . S
C6240 H6234 0.950 . S
C6240 C6241 1.327 . S
C6241 H6235 0.950 . S
C6241 C6240 1.327 . S
C6241 C6245 1.429 . S
C6242 C6225 1.574 . S
C6242 H6236 0.949 . S
C6242 C6246 1.368 . S
C6243 C6224 1.429 . S
C6243 C6237 1.429 . S
C6243 C6244 1.523 . S
C6244 C6225 1.368 . S
C6244 C6238 1.368 . S
C6244 C6243 1.523 . S
C6245 C6229 1.429 . S
C6245 C6241 1.429 . S
C6245 C6246 1.523 . S
C6246 C6230 1.368 . S
C6246 C6242 1.368 . S
C6246 C6245 1.523 . S
H6247 C6222 0.950 . S
H6248 C6224 0.950 . S
H6249 C6225 0.949 . S
H6250 C6227 0.950 . S
H6251 C6229 0.950 . S
C6252 C6253 1.349 . S
C6252 C6254 1.327 . S
C6252 H6277 0.950 . S
C6253 C6252 1.349 . S
C6253 C6269 1.349 . S
C6254 C6252 1.327 . S
C6254 C6273 1.429 . S
C6254 H6278 0.950 . S
C6255 C6272 1.574 . S
C6255 C6274 1.368 . S
C6255 H6279 0.949 . S
H6256 C6260 0.949 . S
C6257 C6258 1.349 . S
C6257 C6259 1.327 . S
C6257 H6280 0.950 . S
C6258 C6257 1.349 . S
C6258 C6270 1.349 . S
C6259 C6257 1.327 . S
C6259 C6275 1.429 . S
C6259 H6281 0.950 . S
C6260 H6256 0.949 . S
C6260 C6268 1.574 . S
C6260 C6276 1.368 . S
H6261 C6269 0.950 . S
H6262 C6267 0.950 . S
H6263 C6268 0.949 . S
H6264 C6270 0.950 . S
H6265 C6271 0.950 . S
H6266 C6272 0.949 . S
C6267 H6262 0.950 . S
C6267 C6269 1.327 . S
C6267 C6273 1.429 . S
C6268 C6260 1.574 . S
C6268 H6263 0.949 . S
C6268 C6274 1.368 . S
C6269 C6253 1.349 . S
C6269 H6261 0.950 . S
C6269 C6267 1.327 . S
C6270 C6258 1.349 . S
C6270 H6264 0.950 . S
C6270 C6271 1.327 . S
C6271 H6265 0.950 . S
C6271 C6270 1.327 . S
C6271 C6275 1.429 . S
C6272 C6255 1.574 . S
C6272 H6266 0.949 . S
C6272 C6276 1.368 . S
C6273 C6254 1.429 . S
C6273 C6267 1.429 . S
C6273 C6274 1.523 . S
C6274 C6255 1.368 . S
C6274 C6268 1.368 . S
C6274 C6273 1.523 . S
C6275 C6259 1.429 . S
C6275 C6271 1.429 . S
C6275 C6276 1.523 . S
C6276 C6260 1.368 . S
C6276 C6272 1.368 . S
C6276 C6275 1.523 . S
H6277 C6252 0.950 . S
H6278 C6254 0.950 . S
H6279 C6255 0.949 . S
H6280 C6257 0.950 . S
H6281 C6259 0.950 . S
C6282 C6283 1.349 . S
C6282 C6284 1.327 . S
C6282 H6307 0.950 . S
C6283 C6282 1.349 . S
C6283 C6299 1.349 . S
C6284 C6282 1.327 . S
C6284 C6303 1.429 . S
C6284 H6308 0.950 . S
C6285 C6302 1.574 . S
C6285 C6304 1.368 . S
C6285 H6309 0.949 . S
H6286 C6290 0.949 . S
C6287 C6288 1.349 . S
C6287 C6289 1.327 . S
C6287 H6310 0.950 . S
C6288 C6287 1.349 . S
C6288 C6300 1.349 . S
C6289 C6287 1.327 . S
C6289 C6305 1.429 . S
C6289 H6311 0.950 . S
C6290 H6286 0.949 . S
C6290 C6298 1.574 . S
C6290 C6306 1.368 . S
H6291 C6299 0.950 . S
H6292 C6297 0.950 . S
H6293 C6298 0.949 . S
H6294 C6300 0.950 . S
H6295 C6301 0.950 . S
H6296 C6302 0.949 . S
C6297 H6292 0.950 . S
C6297 C6299 1.327 . S
C6297 C6303 1.429 . S
C6298 C6290 1.574 . S
C6298 H6293 0.949 . S
C6298 C6304 1.368 . S
C6299 C6283 1.349 . S
C6299 H6291 0.950 . S
C6299 C6297 1.327 . S
C6300 C6288 1.349 . S
C6300 H6294 0.950 . S
C6300 C6301 1.327 . S
C6301 H6295 0.950 . S
C6301 C6300 1.327 . S
C6301 C6305 1.429 . S
C6302 C6285 1.574 . S
C6302 H6296 0.949 . S
C6302 C6306 1.368 . S
C6303 C6284 1.429 . S
C6303 C6297 1.429 . S
C6303 C6304 1.523 . S
C6304 C6285 1.368 . S
C6304 C6298 1.368 . S
C6304 C6303 1.523 . S
C6305 C6289 1.429 . S
C6305 C6301 1.429 . S
C6305 C6306 1.523 . S
C6306 C6290 1.368 . S
C6306 C6302 1.368 . S
C6306 C6305 1.523 . S
H6307 C6282 0.950 . S
H6308 C6284 0.950 . S
H6309 C6285 0.949 . S
H6310 C6287 0.950 . S
H6311 C6289 0.950 . S
C6312 C6313 1.349 . S
C6312 C6314 1.327 . S
C6312 H6337 0.950 . S
C6313 C6312 1.349 . S
C6313 C6329 1.349 . S
C6314 C6312 1.327 . S
C6314 C6333 1.429 . S
C6314 H6338 0.950 . S
C6315 C6332 1.574 . S
C6315 C6334 1.368 . S
C6315 H6339 0.949 . S
H6316 C6320 0.949 . S
C6317 C6318 1.349 . S
C6317 C6319 1.327 . S
C6317 H6340 0.950 . S
C6318 C6317 1.349 . S
C6318 C6330 1.349 . S
C6319 C6317 1.327 . S
C6319 C6335 1.429 . S
C6319 H6341 0.950 . S
C6320 H6316 0.949 . S
C6320 C6328 1.574 . S
C6320 C6336 1.368 . S
H6321 C6329 0.950 . S
H6322 C6327 0.950 . S
H6323 C6328 0.949 . S
H6324 C6330 0.950 . S
H6325 C6331 0.950 . S
H6326 C6332 0.949 . S
C6327 H6322 0.950 . S
C6327 C6329 1.327 . S
C6327 C6333 1.429 . S
C6328 C6320 1.574 . S
C6328 H6323 0.949 . S
C6328 C6334 1.368 . S
C6329 C6313 1.349 . S
C6329 H6321 0.950 . S
C6329 C6327 1.327 . S
C6330 C6318 1.349 . S
C6330 H6324 0.950 . S
C6330 C6331 1.327 . S
C6331 H6325 0.950 . S
C6331 C6330 1.327 . S
C6331 C6335 1.429 . S
C6332 C6315 1.574 . S
C6332 H6326 0.949 . S
C6332 C6336 1.368 . S
C6333 C6314 1.429 . S
C6333 C6327 1.429 . S
C6333 C6334 1.523 . S
C6334 C6315 1.368 . S
C6334 C6328 1.368 . S
C6334 C6333 1.523 . S
C6335 C6319 1.429 . S
C6335 C6331 1.429 . S
C6335 C6336 1.523 . S
C6336 C6320 1.368 . S
C6336 C6332 1.368 . S
C6336 C6335 1.523 . S
H6337 C6312 0.950 . S
H6338 C6314 0.950 . S
H6339 C6315 0.949 . S
H6340 C6317 0.950 . S
H6341 C6319 0.950 . S
C6342 C6343 1.349 . S
C6342 C6344 1.327 . S
C6342 H6367 0.950 . S
C6343 C6342 1.349 . S
C6343 C6359 1.349 . S
C6344 C6342 1.327 . S
C6344 C6363 1.429 . S
C6344 H6368 0.950 . S
C6345 C6362 1.574 . S
C6345 C6364 1.368 . S
C6345 H6369 0.949 . S
H6346 C6350 0.949 . S
C6347 C6348 1.349 . S
C6347 C6349 1.327 . S
C6347 H6370 0.950 . S
C6348 C6347 1.349 . S
C6348 C6360 1.349 . S
C6349 C6347 1.327 . S
C6349 C6365 1.429 . S
C6349 H6371 0.950 . S
C6350 H6346 0.949 . S
C6350 C6358 1.574 . S
C6350 C6366 1.368 . S
H6351 C6359 0.950 . S
H6352 C6357 0.950 . S
H6353 C6358 0.949 . S
H6354 C6360 0.950 . S
H6355 C6361 0.950 . S
H6356 C6362 0.949 . S
C6357 H6352 0.950 . S
C6357 C6359 1.327 . S
C6357 C6363 1.429 . S
C6358 C6350 1.574 . S
C6358 H6353 0.949 . S
C6358 C6364 1.368 . S
C6359 C6343 1.349 . S
C6359 H6351 0.950 . S
C6359 C6357 1.327 . S
C6360 C6348 1.349 . S
C6360 H6354 0.950 . S
C6360 C6361 1.327 . S
C6361 H6355 0.950 . S
C6361 C6360 1.327 . S
C6361 C6365 1.429 . S
C6362 C6345 1.574 . S
C6362 H6356 0.949 . S
C6362 C6366 1.368 . S
C6363 C6344 1.429 . S
C6363 C6357 1.429 . S
C6363 C6364 1.523 . S
C6364 C6345 1.368 . S
C6364 C6358 1.368 . S
C6364 C6363 1.523 . S
C6365 C6349 1.429 . S
C6365 C6361 1.429 . S
C6365 C6366 1.523 . S
C6366 C6350 1.368 . S
C6366 C6362 1.368 . S
C6366 C6365 1.523 . S
H6367 C6342 0.950 . S
H6368 C6344 0.950 . S
H6369 C6345 0.949 . S
H6370 C6347 0.950 . S
H6371 C6349 0.950 . S
C6372 C6373 1.349 . S
C6372 C6374 1.327 . S
C6372 H6397 0.950 . S
C6373 C6372 1.349 . S
C6373 C6389 1.349 . S
C6374 C6372 1.327 . S
C6374 C6393 1.429 . S
C6374 H6398 0.950 . S
C6375 C6392 1.574 . S
C6375 C6394 1.368 . S
C6375 H6399 0.949 . S
H6376 C6380 0.949 . S
C6377 C6378 1.349 . S
C6377 C6379 1.327 . S
C6377 H6400 0.950 . S
C6378 C6377 1.349 . S
C6378 C6390 1.349 . S
C6379 C6377 1.327 . S
C6379 C6395 1.429 . S
C6379 H6401 0.950 . S
C6380 H6376 0.949 . S
C6380 C6388 1.574 . S
C6380 C6396 1.368 . S
H6381 C6389 0.950 . S
H6382 C6387 0.950 . S
H6383 C6388 0.949 . S
H6384 C6390 0.950 . S
H6385 C6391 0.950 . S
H6386 C6392 0.949 . S
C6387 H6382 0.950 . S
C6387 C6389 1.327 . S
C6387 C6393 1.429 . S
C6388 C6380 1.574 . S
C6388 H6383 0.949 . S
C6388 C6394 1.368 . S
C6389 C6373 1.349 . S
C6389 H6381 0.950 . S
C6389 C6387 1.327 . S
C6390 C6378 1.349 . S
C6390 H6384 0.950 . S
C6390 C6391 1.327 . S
C6391 H6385 0.950 . S
C6391 C6390 1.327 . S
C6391 C6395 1.429 . S
C6392 C6375 1.574 . S
C6392 H6386 0.949 . S
C6392 C6396 1.368 . S
C6393 C6374 1.429 . S
C6393 C6387 1.429 . S
C6393 C6394 1.523 . S
C6394 C6375 1.368 . S
C6394 C6388 1.368 . S
C6394 C6393 1.523 . S
C6395 C6379 1.429 . S
C6395 C6391 1.429 . S
C6395 C6396 1.523 . S
C6396 C6380 1.368 . S
C6396 C6392 1.368 . S
C6396 C6395 1.523 . S
H6397 C6372 0.950 . S
H6398 C6374 0.950 . S
H6399 C6375 0.949 . S
H6400 C6377 0.950 . S
H6401 C6379 0.950 . S
C6402 C6403 1.349 . S
C6402 C6404 1.327 . S
C6402 H6427 0.950 . S
C6403 C6402 1.349 . S
C6403 C6419 1.349 . S
C6404 C6402 1.327 . S
C6404 C6423 1.429 . S
C6404 H6428 0.950 . S
C6405 C6422 1.574 . S
C6405 C6424 1.368 . S
C6405 H6429 0.949 . S
H6406 C6410 0.949 . S
C6407 C6408 1.349 . S
C6407 C6409 1.327 . S
C6407 H6430 0.950 . S
C6408 C6407 1.349 . S
C6408 C6420 1.349 . S
C6409 C6407 1.327 . S
C6409 C6425 1.429 . S
C6409 H6431 0.950 . S
C6410 H6406 0.949 . S
C6410 C6418 1.574 . S
C6410 C6426 1.368 . S
H6411 C6419 0.950 . S
H6412 C6417 0.950 . S
H6413 C6418 0.949 . S
H6414 C6420 0.950 . S
H6415 C6421 0.950 . S
H6416 C6422 0.949 . S
C6417 H6412 0.950 . S
C6417 C6419 1.327 . S
C6417 C6423 1.429 . S
C6418 C6410 1.574 . S
C6418 H6413 0.949 . S
C6418 C6424 1.368 . S
C6419 C6403 1.349 . S
C6419 H6411 0.950 . S
C6419 C6417 1.327 . S
C6420 C6408 1.349 . S
C6420 H6414 0.950 . S
C6420 C6421 1.327 . S
C6421 H6415 0.950 . S
C6421 C6420 1.327 . S
C6421 C6425 1.429 . S
C6422 C6405 1.574 . S
C6422 H6416 0.949 . S
C6422 C6426 1.368 . S
C6423 C6404 1.429 . S
C6423 C6417 1.429 . S
C6423 C6424 1.523 . S
C6424 C6405 1.368 . S
C6424 C6418 1.368 . S
C6424 C6423 1.523 . S
C6425 C6409 1.429 . S
C6425 C6421 1.429 . S
C6425 C6426 1.523 . S
C6426 C6410 1.368 . S
C6426 C6422 1.368 . S
C6426 C6425 1.523 . S
H6427 C6402 0.950 . S
H6428 C6404 0.950 . S
H6429 C6405 0.949 . S
H6430 C6407 0.950 . S
H6431 C6409 0.950 . S
C6432 C6433 1.349 . S
C6432 C6434 1.327 . S
C6432 H6457 0.950 . S
C6433 C6432 1.349 . S
C6433 C6449 1.349 . S
C6434 C6432 1.327 . S
C6434 C6453 1.429 . S
C6434 H6458 0.950 . S
C6435 C6452 1.574 . S
C6435 C6454 1.368 . S
C6435 H6459 0.949 . S
H6436 C6440 0.949 . S
C6437 C6438 1.349 . S
C6437 C6439 1.327 . S
C6437 H6460 0.950 . S
C6438 C6437 1.349 . S
C6438 C6450 1.349 . S
C6439 C6437 1.327 . S
C6439 C6455 1.429 . S
C6439 H6461 0.950 . S
C6440 H6436 0.949 . S
C6440 C6448 1.574 . S
C6440 C6456 1.368 . S
H6441 C6449 0.950 . S
H6442 C6447 0.950 . S
H6443 C6448 0.949 . S
H6444 C6450 0.950 . S
H6445 C6451 0.950 . S
H6446 C6452 0.949 . S
C6447 H6442 0.950 . S
C6447 C6449 1.327 . S
C6447 C6453 1.429 . S
C6448 C6440 1.574 . S
C6448 H6443 0.949 . S
C6448 C6454 1.368 . S
C6449 C6433 1.349 . S
C6449 H6441 0.950 . S
C6449 C6447 1.327 . S
C6450 C6438 1.349 . S
C6450 H6444 0.950 . S
C6450 C6451 1.327 . S
C6451 H6445 0.950 . S
C6451 C6450 1.327 . S
C6451 C6455 1.429 . S
C6452 C6435 1.574 . S
C6452 H6446 0.949 . S
C6452 C6456 1.368 . S
C6453 C6434 1.429 . S
C6453 C6447 1.429 . S
C6453 C6454 1.523 . S
C6454 C6435 1.368 . S
C6454 C6448 1.368 . S
C6454 C6453 1.523 . S
C6455 C6439 1.429 . S
C6455 C6451 1.429 . S
C6455 C6456 1.523 . S
C6456 C6440 1.368 . S
C6456 C6452 1.368 . S
C6456 C6455 1.523 . S
H6457 C6432 0.950 . S
H6458 C6434 0.950 . S
H6459 C6435 0.949 . S
H6460 C6437 0.950 . S
H6461 C6439 0.950 . S
C6462 C6463 1.349 . S
C6462 C6464 1.327 . S
C6462 H6487 0.950 . S
C6463 C6462 1.349 . S
C6463 C6479 1.349 . S
C6464 C6462 1.327 . S
C6464 C6483 1.429 . S
C6464 H6488 0.950 . S
C6465 C6482 1.574 . S
C6465 C6484 1.368 . S
C6465 H6489 0.949 . S
H6466 C6470 0.949 . S
C6467 C6468 1.349 . S
C6467 C6469 1.327 . S
C6467 H6490 0.950 . S
C6468 C6467 1.349 . S
C6468 C6480 1.349 . S
C6469 C6467 1.327 . S
C6469 C6485 1.429 . S
C6469 H6491 0.950 . S
C6470 H6466 0.949 . S
C6470 C6478 1.574 . S
C6470 C6486 1.368 . S
H6471 C6479 0.950 . S
H6472 C6477 0.950 . S
H6473 C6478 0.949 . S
H6474 C6480 0.950 . S
H6475 C6481 0.950 . S
H6476 C6482 0.949 . S
C6477 H6472 0.950 . S
C6477 C6479 1.327 . S
C6477 C6483 1.429 . S
C6478 C6470 1.574 . S
C6478 H6473 0.949 . S
C6478 C6484 1.368 . S
C6479 C6463 1.349 . S
C6479 H6471 0.950 . S
C6479 C6477 1.327 . S
C6480 C6468 1.349 . S
C6480 H6474 0.950 . S
C6480 C6481 1.327 . S
C6481 H6475 0.950 . S
C6481 C6480 1.327 . S
C6481 C6485 1.429 . S
C6482 C6465 1.574 . S
C6482 H6476 0.949 . S
C6482 C6486 1.368 . S
C6483 C6464 1.429 . S
C6483 C6477 1.429 . S
C6483 C6484 1.523 . S
C6484 C6465 1.368 . S
C6484 C6478 1.368 . S
C6484 C6483 1.523 . S
C6485 C6469 1.429 . S
C6485 C6481 1.429 . S
C6485 C6486 1.523 . S
C6486 C6470 1.368 . S
C6486 C6482 1.368 . S
C6486 C6485 1.523 . S
H6487 C6462 0.950 . S
H6488 C6464 0.950 . S
H6489 C6465 0.949 . S
H6490 C6467 0.950 . S
H6491 C6469 0.950 . S
C6492 C6493 1.349 . S
C6492 C6494 1.327 . S
C6492 H6517 0.950 . S
C6493 C6492 1.349 . S
C6493 C6509 1.349 . S
C6494 C6492 1.327 . S
C6494 C6513 1.429 . S
C6494 H6518 0.950 . S
C6495 C6512 1.574 . S
C6495 C6514 1.368 . S
C6495 H6519 0.949 . S
H6496 C6500 0.949 . S
C6497 C6498 1.349 . S
C6497 C6499 1.327 . S
C6497 H6520 0.950 . S
C6498 C6497 1.349 . S
C6498 C6510 1.349 . S
C6499 C6497 1.327 . S
C6499 C6515 1.429 . S
C6499 H6521 0.950 . S
C6500 H6496 0.949 . S
C6500 C6508 1.574 . S
C6500 C6516 1.368 . S
H6501 C6509 0.950 . S
H6502 C6507 0.950 . S
H6503 C6508 0.949 . S
H6504 C6510 0.950 . S
H6505 C6511 0.950 . S
H6506 C6512 0.949 . S
C6507 H6502 0.950 . S
C6507 C6509 1.327 . S
C6507 C6513 1.429 . S
C6508 C6500 1.574 . S
C6508 H6503 0.949 . S
C6508 C6514 1.368 . S
C6509 C6493 1.349 . S
C6509 H6501 0.950 . S
C6509 C6507 1.327 . S
C6510 C6498 1.349 . S
C6510 H6504 0.950 . S
C6510 C6511 1.327 . S
C6511 H6505 0.950 . S
C6511 C6510 1.327 . S
C6511 C6515 1.429 . S
C6512 C6495 1.574 . S
C6512 H6506 0.949 . S
C6512 C6516 1.368 . S
C6513 C6494 1.429 . S
C6513 C6507 1.429 . S
C6513 C6514 1.523 . S
C6514 C6495 1.368 . S
C6514 C6508 1.368 . S
C6514 C6513 1.523 . S
C6515 C6499 1.429 . S
C6515 C6511 1.429 . S
C6515 C6516 1.523 . S
C6516 C6500 1.368 . S
C6516 C6512 1.368 . S
C6516 C6515 1.523 . S
H6517 C6492 0.950 . S
H6518 C6494 0.950 . S
H6519 C6495 0.949 . S
H6520 C6497 0.950 . S
H6521 C6499 0.950 . S
C6522 C6523 1.349 . S
C6522 C6524 1.327 . S
C6522 H6547 0.950 . S
C6523 C6522 1.349 . S
C6523 C6539 1.349 . S
C6524 C6522 1.327 . S
C6524 C6543 1.429 . S
C6524 H6548 0.950 . S
C6525 C6542 1.574 . S
C6525 C6544 1.368 . S
C6525 H6549 0.949 . S
H6526 C6530 0.949 . S
C6527 C6528 1.349 . S
C6527 C6529 1.327 . S
C6527 H6550 0.950 . S
C6528 C6527 1.349 . S
C6528 C6540 1.349 . S
C6529 C6527 1.327 . S
C6529 C6545 1.429 . S
C6529 H6551 0.950 . S
C6530 H6526 0.949 . S
C6530 C6538 1.574 . S
C6530 C6546 1.368 . S
H6531 C6539 0.950 . S
H6532 C6537 0.950 . S
H6533 C6538 0.949 . S
H6534 C6540 0.950 . S
H6535 C6541 0.950 . S
H6536 C6542 0.949 . S
C6537 H6532 0.950 . S
C6537 C6539 1.327 . S
C6537 C6543 1.429 . S
C6538 C6530 1.574 . S
C6538 H6533 0.949 . S
C6538 C6544 1.368 . S
C6539 C6523 1.349 . S
C6539 H6531 0.950 . S
C6539 C6537 1.327 . S
C6540 C6528 1.349 . S
C6540 H6534 0.950 . S
C6540 C6541 1.327 . S
C6541 H6535 0.950 . S
C6541 C6540 1.327 . S
C6541 C6545 1.429 . S
C6542 C6525 1.574 . S
C6542 H6536 0.949 . S
C6542 C6546 1.368 . S
C6543 C6524 1.429 . S
C6543 C6537 1.429 . S
C6543 C6544 1.523 . S
C6544 C6525 1.368 . S
C6544 C6538 1.368 . S
C6544 C6543 1.523 . S
C6545 C6529 1.429 . S
C6545 C6541 1.429 . S
C6545 C6546 1.523 . S
C6546 C6530 1.368 . S
C6546 C6542 1.368 . S
C6546 C6545 1.523 . S
H6547 C6522 0.950 . S
H6548 C6524 0.950 . S
H6549 C6525 0.949 . S
H6550 C6527 0.950 . S
H6551 C6529 0.950 . S
C6552 C6553 1.349 . S
C6552 C6554 1.327 . S
C6552 H6577 0.950 . S
C6553 C6552 1.349 . S
C6553 C6569 1.349 . S
C6554 C6552 1.327 . S
C6554 C6573 1.429 . S
C6554 H6578 0.950 . S
C6555 C6572 1.574 . S
C6555 C6574 1.368 . S
C6555 H6579 0.949 . S
H6556 C6560 0.949 . S
C6557 C6558 1.349 . S
C6557 C6559 1.327 . S
C6557 H6580 0.950 . S
C6558 C6557 1.349 . S
C6558 C6570 1.349 . S
C6559 C6557 1.327 . S
C6559 C6575 1.429 . S
C6559 H6581 0.950 . S
C6560 H6556 0.949 . S
C6560 C6568 1.574 . S
C6560 C6576 1.368 . S
H6561 C6569 0.950 . S
H6562 C6567 0.950 . S
H6563 C6568 0.949 . S
H6564 C6570 0.950 . S
H6565 C6571 0.950 . S
H6566 C6572 0.949 . S
C6567 H6562 0.950 . S
C6567 C6569 1.327 . S
C6567 C6573 1.429 . S
C6568 C6560 1.574 . S
C6568 H6563 0.949 . S
C6568 C6574 1.368 . S
C6569 C6553 1.349 . S
C6569 H6561 0.950 . S
C6569 C6567 1.327 . S
C6570 C6558 1.349 . S
C6570 H6564 0.950 . S
C6570 C6571 1.327 . S
C6571 H6565 0.950 . S
C6571 C6570 1.327 . S
C6571 C6575 1.429 . S
C6572 C6555 1.574 . S
C6572 H6566 0.949 . S
C6572 C6576 1.368 . S
C6573 C6554 1.429 . S
C6573 C6567 1.429 . S
C6573 C6574 1.523 . S
C6574 C6555 1.368 . S
C6574 C6568 1.368 . S
C6574 C6573 1.523 . S
C6575 C6559 1.429 . S
C6575 C6571 1.429 . S
C6575 C6576 1.523 . S
C6576 C6560 1.368 . S
C6576 C6572 1.368 . S
C6576 C6575 1.523 . S
H6577 C6552 0.950 . S
H6578 C6554 0.950 . S
H6579 C6555 0.949 . S
H6580 C6557 0.950 . S
H6581 C6559 0.950 . S
C6582 C6583 1.349 . S
C6582 C6584 1.327 . S
C6582 H6607 0.950 . S
C6583 C6582 1.349 . S
C6583 C6599 1.349 . S
C6584 C6582 1.327 . S
C6584 C6603 1.429 . S
C6584 H6608 0.950 . S
C6585 C6602 1.574 . S
C6585 C6604 1.368 . S
C6585 H6609 0.949 . S
H6586 C6590 0.949 . S
C6587 C6588 1.349 . S
C6587 C6589 1.327 . S
C6587 H6610 0.950 . S
C6588 C6587 1.349 . S
C6588 C6600 1.349 . S
C6589 C6587 1.327 . S
C6589 C6605 1.429 . S
C6589 H6611 0.950 . S
C6590 H6586 0.949 . S
C6590 C6598 1.574 . S
C6590 C6606 1.368 . S
H6591 C6599 0.950 . S
H6592 C6597 0.950 . S
H6593 C6598 0.949 . S
H6594 C6600 0.950 . S
H6595 C6601 0.950 . S
H6596 C6602 0.949 . S
C6597 H6592 0.950 . S
C6597 C6599 1.327 . S
C6597 C6603 1.429 . S
C6598 C6590 1.574 . S
C6598 H6593 0.949 . S
C6598 C6604 1.368 . S
C6599 C6583 1.349 . S
C6599 H6591 0.950 . S
C6599 C6597 1.327 . S
C6600 C6588 1.349 . S
C6600 H6594 0.950 . S
C6600 C6601 1.327 . S
C6601 H6595 0.950 . S
C6601 C6600 1.327 . S
C6601 C6605 1.429 . S
C6602 C6585 1.574 . S
C6602 H6596 0.949 . S
C6602 C6606 1.368 . S
C6603 C6584 1.429 . S
C6603 C6597 1.429 . S
C6603 C6604 1.523 . S
C6604 C6585 1.368 . S
C6604 C6598 1.368 . S
C6604 C6603 1.523 . S
C6605 C6589 1.429 . S
C6605 C6601 1.429 . S
C6605 C6606 1.523 . S
C6606 C6590 1.368 . S
C6606 C6602 1.368 . S
C6606 C6605 1.523 . S
H6607 C6582 0.950 . S
H6608 C6584 0.950 . S
H6609 C6585 0.949 . S
H6610 C6587 0.950 . S
H6611 C6589 0.950 . S
C6612 C6613 1.349 . S
C6612 C6614 1.327 . S
C6612 H6637 0.950 . S
C6613 C6612 1.349 . S
C6613 C6629 1.349 . S
C6614 C6612 1.327 . S
C6614 C6633 1.429 . S
C6614 H6638 0.950 . S
C6615 C6632 1.574 . S
C6615 C6634 1.368 . S
C6615 H6639 0.949 . S
H6616 C6620 0.949 . S
C6617 C6618 1.349 . S
C6617 C6619 1.327 . S
C6617 H6640 0.950 . S
C6618 C6617 1.349 . S
C6618 C6630 1.349 . S
C6619 C6617 1.327 . S
C6619 C6635 1.429 . S
C6619 H6641 0.950 . S
C6620 H6616 0.949 . S
C6620 C6628 1.574 . S
C6620 C6636 1.368 . S
H6621 C6629 0.950 . S
H6622 C6627 0.950 . S
H6623 C6628 0.949 . S
H6624 C6630 0.950 . S
H6625 C6631 0.950 . S
H6626 C6632 0.949 . S
C6627 H6622 0.950 . S
C6627 C6629 1.327 . S
C6627 C6633 1.429 . S
C6628 C6620 1.574 . S
C6628 H6623 0.949 . S
C6628 C6634 1.368 . S
C6629 C6613 1.349 . S
C6629 H6621 0.950 . S
C6629 C6627 1.327 . S
C6630 C6618 1.349 . S
C6630 H6624 0.950 . S
C6630 C6631 1.327 . S
C6631 H6625 0.950 . S
C6631 C6630 1.327 . S
C6631 C6635 1.429 . S
C6632 C6615 1.574 . S
C6632 H6626 0.949 . S
C6632 C6636 1.368 . S
C6633 C6614 1.429 . S
C6633 C6627 1.429 . S
C6633 C6634 1.523 . S
C6634 C6615 1.368 . S
C6634 C6628 1.368 . S
C6634 C6633 1.523 . S
C6635 C6619 1.429 . S
C6635 C6631 1.429 . S
C6635 C6636 1.523 . S
C6636 C6620 1.368 . S
C6636 C6632 1.368 . S
C6636 C6635 1.523 . S
H6637 C6612 0.950 . S
H6638 C6614 0.950 . S
H6639 C6615 0.949 . S
H6640 C6617 0.950 . S
H6641 C6619 0.950 . S
C6642 C6643 1.349 . S
C6642 C6644 1.327 . S
C6642 H6667 0.950 . S
C6643 C6642 1.349 . S
C6643 C6659 1.349 . S
C6644 C6642 1.327 . S
C6644 C6663 1.429 . S
C6644 H6668 0.950 . S
C6645 C6662 1.574 . S
C6645 C6664 1.368 . S
C6645 H6669 0.949 . S
H6646 C6650 0.949 . S
C6647 C6648 1.349 . S
C6647 C6649 1.327 . S
C6647 H6670 0.950 . S
C6648 C6647 1.349 . S
C6648 C6660 1.349 . S
C6649 C6647 1.327 . S
C6649 C6665 1.429 . S
C6649 H6671 0.950 . S
C6650 H6646 0.949 . S
C6650 C6658 1.574 . S
C6650 C6666 1.368 . S
H6651 C6659 0.950 . S
H6652 C6657 0.950 . S
H6653 C6658 0.949 . S
H6654 C6660 0.950 . S
H6655 C6661 0.950 . S
H6656 C6662 0.949 . S
C6657 H6652 0.950 . S
C6657 C6659 1.327 . S
C6657 C6663 1.429 . S
C6658 C6650 1.574 . S
C6658 H6653 0.949 . S
C6658 C6664 1.368 . S
C6659 C6643 1.349 . S
C6659 H6651 0.950 . S
C6659 C6657 1.327 . S
C6660 C6648 1.349 . S
C6660 H6654 0.950 . S
C6660 C6661 1.327 . S
C6661 H6655 0.950 . S
C6661 C6660 1.327 . S
C6661 C6665 1.429 . S
C6662 C6645 1.574 . S
C6662 H6656 0.949 . S
C6662 C6666 1.368 . S
C6663 C6644 1.429 . S
C6663 C6657 1.429 . S
C6663 C6664 1.523 . S
C6664 C6645 1.368 . S
C6664 C6658 1.368 . S
C6664 C6663 1.523 . S
C6665 C6649 1.429 . S
C6665 C6661 1.429 . S
C6665 C6666 1.523 . S
C6666 C6650 1.368 . S
C6666 C6662 1.368 . S
C6666 C6665 1.523 . S
H6667 C6642 0.950 . S
H6668 C6644 0.950 . S
H6669 C6645 0.949 . S
H6670 C6647 0.950 . S
H6671 C6649 0.950 . S
C6672 C6673 1.349 . S
C6672 C6674 1.327 . S
C6672 H6697 0.950 . S
C6673 C6672 1.349 . S
C6673 C6689 1.349 . S
C6674 C6672 1.327 . S
C6674 C6693 1.429 . S
C6674 H6698 0.950 . S
C6675 C6692 1.574 . S
C6675 C6694 1.368 . S
C6675 H6699 0.949 . S
H6676 C6680 0.949 . S
C6677 C6678 1.349 . S
C6677 C6679 1.327 . S
C6677 H6700 0.950 . S
C6678 C6677 1.349 . S
C6678 C6690 1.349 . S
C6679 C6677 1.327 . S
C6679 C6695 1.429 . S
C6679 H6701 0.950 . S
C6680 H6676 0.949 . S
C6680 C6688 1.574 . S
C6680 C6696 1.368 . S
H6681 C6689 0.950 . S
H6682 C6687 0.950 . S
H6683 C6688 0.949 . S
H6684 C6690 0.950 . S
H6685 C6691 0.950 . S
H6686 C6692 0.949 . S
C6687 H6682 0.950 . S
C6687 C6689 1.327 . S
C6687 C6693 1.429 . S
C6688 C6680 1.574 . S
C6688 H6683 0.949 . S
C6688 C6694 1.368 . S
C6689 C6673 1.349 . S
C6689 H6681 0.950 . S
C6689 C6687 1.327 . S
C6690 C6678 1.349 . S
C6690 H6684 0.950 . S
C6690 C6691 1.327 . S
C6691 H6685 0.950 . S
C6691 C6690 1.327 . S
C6691 C6695 1.429 . S
C6692 C6675 1.574 . S
C6692 H6686 0.949 . S
C6692 C6696 1.368 . S
C6693 C6674 1.429 . S
C6693 C6687 1.429 . S
C6693 C6694 1.523 . S
C6694 C6675 1.368 . S
C6694 C6688 1.368 . S
C6694 C6693 1.523 . S
C6695 C6679 1.429 . S
C6695 C6691 1.429 . S
C6695 C6696 1.523 . S
C6696 C6680 1.368 . S
C6696 C6692 1.368 . S
C6696 C6695 1.523 . S
H6697 C6672 0.950 . S
H6698 C6674 0.950 . S
H6699 C6675 0.949 . S
H6700 C6677 0.950 . S
H6701 C6679 0.950 . S
C6702 C6703 1.349 . S
C6702 C6704 1.327 . S
C6702 H6727 0.950 . S
C6703 C6702 1.349 . S
C6703 C6719 1.349 . S
C6704 C6702 1.327 . S
C6704 C6723 1.429 . S
C6704 H6728 0.950 . S
C6705 C6722 1.574 . S
C6705 C6724 1.368 . S
C6705 H6729 0.949 . S
H6706 C6710 0.949 . S
C6707 C6708 1.349 . S
C6707 C6709 1.327 . S
C6707 H6730 0.950 . S
C6708 C6707 1.349 . S
C6708 C6720 1.349 . S
C6709 C6707 1.327 . S
C6709 C6725 1.429 . S
C6709 H6731 0.950 . S
C6710 H6706 0.949 . S
C6710 C6718 1.574 . S
C6710 C6726 1.368 . S
H6711 C6719 0.950 . S
H6712 C6717 0.950 . S
H6713 C6718 0.949 . S
H6714 C6720 0.950 . S
H6715 C6721 0.950 . S
H6716 C6722 0.949 . S
C6717 H6712 0.950 . S
C6717 C6719 1.327 . S
C6717 C6723 1.429 . S
C6718 C6710 1.574 . S
C6718 H6713 0.949 . S
C6718 C6724 1.368 . S
C6719 C6703 1.349 . S
C6719 H6711 0.950 . S
C6719 C6717 1.327 . S
C6720 C6708 1.349 . S
C6720 H6714 0.950 . S
C6720 C6721 1.327 . S
C6721 H6715 0.950 . S
C6721 C6720 1.327 . S
C6721 C6725 1.429 . S
C6722 C6705 1.574 . S
C6722 H6716 0.949 . S
C6722 C6726 1.368 . S
C6723 C6704 1.429 . S
C6723 C6717 1.429 . S
C6723 C6724 1.523 . S
C6724 C6705 1.368 . S
C6724 C6718 1.368 . S
C6724 C6723 1.523 . S
C6725 C6709 1.429 . S
C6725 C6721 1.429 . S
C6725 C6726 1.523 . S
C6726 C6710 1.368 . S
C6726 C6722 1.368 . S
C6726 C6725 1.523 . S
H6727 C6702 0.950 . S
H6728 C6704 0.950 . S
H6729 C6705 0.949 . S
H6730 C6707 0.950 . S
H6731 C6709 0.950 . S
C6732 C6733 1.349 . S
C6732 C6734 1.327 . S
C6732 H6757 0.950 . S
C6733 C6732 1.349 . S
C6733 C6749 1.349 . S
C6734 C6732 1.327 . S
C6734 C6753 1.429 . S
C6734 H6758 0.950 . S
C6735 C6752 1.574 . S
C6735 C6754 1.368 . S
C6735 H6759 0.949 . S
H6736 C6740 0.949 . S
C6737 C6738 1.349 . S
C6737 C6739 1.327 . S
C6737 H6760 0.950 . S
C6738 C6737 1.349 . S
C6738 C6750 1.349 . S
C6739 C6737 1.327 . S
C6739 C6755 1.429 . S
C6739 H6761 0.950 . S
C6740 H6736 0.949 . S
C6740 C6748 1.574 . S
C6740 C6756 1.368 . S
H6741 C6749 0.950 . S
H6742 C6747 0.950 . S
H6743 C6748 0.949 . S
H6744 C6750 0.950 . S
H6745 C6751 0.950 . S
H6746 C6752 0.949 . S
C6747 H6742 0.950 . S
C6747 C6749 1.327 . S
C6747 C6753 1.429 . S
C6748 C6740 1.574 . S
C6748 H6743 0.949 . S
C6748 C6754 1.368 . S
C6749 C6733 1.349 . S
C6749 H6741 0.950 . S
C6749 C6747 1.327 . S
C6750 C6738 1.349 . S
C6750 H6744 0.950 . S
C6750 C6751 1.327 . S
C6751 H6745 0.950 . S
C6751 C6750 1.327 . S
C6751 C6755 1.429 . S
C6752 C6735 1.574 . S
C6752 H6746 0.949 . S
C6752 C6756 1.368 . S
C6753 C6734 1.429 . S
C6753 C6747 1.429 . S
C6753 C6754 1.523 . S
C6754 C6735 1.368 . S
C6754 C6748 1.368 . S
C6754 C6753 1.523 . S
C6755 C6739 1.429 . S
C6755 C6751 1.429 . S
C6755 C6756 1.523 . S
C6756 C6740 1.368 . S
C6756 C6752 1.368 . S
C6756 C6755 1.523 . S
H6757 C6732 0.950 . S
H6758 C6734 0.950 . S
H6759 C6735 0.949 . S
H6760 C6737 0.950 . S
H6761 C6739 0.950 . S
C6762 C6763 1.349 . S
C6762 C6764 1.327 . S
C6762 H6787 0.950 . S
C6763 C6762 1.349 . S
C6763 C6779 1.349 . S
C6764 C6762 1.327 . S
C6764 C6783 1.429 . S
C6764 H6788 0.950 . S
C6765 C6782 1.574 . S
C6765 C6784 1.368 . S
C6765 H6789 0.949 . S
H6766 C6770 0.949 . S
C6767 C6768 1.349 . S
C6767 C6769 1.327 . S
C6767 H6790 0.950 . S
C6768 C6767 1.349 . S
C6768 C6780 1.349 . S
C6769 C6767 1.327 . S
C6769 C6785 1.429 . S
C6769 H6791 0.950 . S
C6770 H6766 0.949 . S
C6770 C6778 1.574 . S
C6770 C6786 1.368 . S
H6771 C6779 0.950 . S
H6772 C6777 0.950 . S
H6773 C6778 0.949 . S
H6774 C6780 0.950 . S
H6775 C6781 0.950 . S
H6776 C6782 0.949 . S
C6777 H6772 0.950 . S
C6777 C6779 1.327 . S
C6777 C6783 1.429 . S
C6778 C6770 1.574 . S
C6778 H6773 0.949 . S
C6778 C6784 1.368 . S
C6779 C6763 1.349 . S
C6779 H6771 0.950 . S
C6779 C6777 1.327 . S
C6780 C6768 1.349 . S
C6780 H6774 0.950 . S
C6780 C6781 1.327 . S
C6781 H6775 0.950 . S
C6781 C6780 1.327 . S
C6781 C6785 1.429 . S
C6782 C6765 1.574 . S
C6782 H6776 0.949 . S
C6782 C6786 1.368 . S
C6783 C6764 1.429 . S
C6783 C6777 1.429 . S
C6783 C6784 1.523 . S
C6784 C6765 1.368 . S
C6784 C6778 1.368 . S
C6784 C6783 1.523 . S
C6785 C6769 1.429 . S
C6785 C6781 1.429 . S
C6785 C6786 1.523 . S
C6786 C6770 1.368 . S
C6786 C6782 1.368 . S
C6786 C6785 1.523 . S
H6787 C6762 0.950 . S
H6788 C6764 0.950 . S
H6789 C6765 0.949 . S
H6790 C6767 0.950 . S
H6791 C6769 0.950 . S
C6792 C6793 1.349 . S
C6792 C6794 1.327 . S
C6792 H6817 0.950 . S
C6793 C6792 1.349 . S
C6793 C6809 1.349 . S
C6794 C6792 1.327 . S
C6794 C6813 1.429 . S
C6794 H6818 0.950 . S
C6795 C6812 1.574 . S
C6795 C6814 1.368 . S
C6795 H6819 0.949 . S
H6796 C6800 0.949 . S
C6797 C6798 1.349 . S
C6797 C6799 1.327 . S
C6797 H6820 0.950 . S
C6798 C6797 1.349 . S
C6798 C6810 1.349 . S
C6799 C6797 1.327 . S
C6799 C6815 1.429 . S
C6799 H6821 0.950 . S
C6800 H6796 0.949 . S
C6800 C6808 1.574 . S
C6800 C6816 1.368 . S
H6801 C6809 0.950 . S
H6802 C6807 0.950 . S
H6803 C6808 0.949 . S
H6804 C6810 0.950 . S
H6805 C6811 0.950 . S
H6806 C6812 0.949 . S
C6807 H6802 0.950 . S
C6807 C6809 1.327 . S
C6807 C6813 1.429 . S
C6808 C6800 1.574 . S
C6808 H6803 0.949 . S
C6808 C6814 1.368 . S
C6809 C6793 1.349 . S
C6809 H6801 0.950 . S
C6809 C6807 1.327 . S
C6810 C6798 1.349 . S
C6810 H6804 0.950 . S
C6810 C6811 1.327 . S
C6811 H6805 0.950 . S
C6811 C6810 1.327 . S
C6811 C6815 1.429 . S
C6812 C6795 1.574 . S
C6812 H6806 0.949 . S
C6812 C6816 1.368 . S
C6813 C6794 1.429 . S
C6813 C6807 1.429 . S
C6813 C6814 1.523 . S
C6814 C6795 1.368 . S
C6814 C6808 1.368 . S
C6814 C6813 1.523 . S
C6815 C6799 1.429 . S
C6815 C6811 1.429 . S
C6815 C6816 1.523 . S
C6816 C6800 1.368 . S
C6816 C6812 1.368 . S
C6816 C6815 1.523 . S
H6817 C6792 0.950 . S
H6818 C6794 0.950 . S
H6819 C6795 0.949 . S
H6820 C6797 0.950 . S
H6821 C6799 0.950 . S
C6822 C6823 1.349 . S
C6822 C6824 1.327 . S
C6822 H6847 0.950 . S
C6823 C6822 1.349 . S
C6823 C6839 1.349 . S
C6824 C6822 1.327 . S
C6824 C6843 1.429 . S
C6824 H6848 0.950 . S
C6825 C6842 1.574 . S
C6825 C6844 1.368 . S
C6825 H6849 0.949 . S
H6826 C6830 0.949 . S
C6827 C6828 1.349 . S
C6827 C6829 1.327 . S
C6827 H6850 0.950 . S
C6828 C6827 1.349 . S
C6828 C6840 1.349 . S
C6829 C6827 1.327 . S
C6829 C6845 1.429 . S
C6829 H6851 0.950 . S
C6830 H6826 0.949 . S
C6830 C6838 1.574 . S
C6830 C6846 1.368 . S
H6831 C6839 0.950 . S
H6832 C6837 0.950 . S
H6833 C6838 0.949 . S
H6834 C6840 0.950 . S
H6835 C6841 0.950 . S
H6836 C6842 0.949 . S
C6837 H6832 0.950 . S
C6837 C6839 1.327 . S
C6837 C6843 1.429 . S
C6838 C6830 1.574 . S
C6838 H6833 0.949 . S
C6838 C6844 1.368 . S
C6839 C6823 1.349 . S
C6839 H6831 0.950 . S
C6839 C6837 1.327 . S
C6840 C6828 1.349 . S
C6840 H6834 0.950 . S
C6840 C6841 1.327 . S
C6841 H6835 0.950 . S
C6841 C6840 1.327 . S
C6841 C6845 1.429 . S
C6842 C6825 1.574 . S
C6842 H6836 0.949 . S
C6842 C6846 1.368 . S
C6843 C6824 1.429 . S
C6843 C6837 1.429 . S
C6843 C6844 1.523 . S
C6844 C6825 1.368 . S
C6844 C6838 1.368 . S
C6844 C6843 1.523 . S
C6845 C6829 1.429 . S
C6845 C6841 1.429 . S
C6845 C6846 1.523 . S
C6846 C6830 1.368 . S
C6846 C6842 1.368 . S
C6846 C6845 1.523 . S
H6847 C6822 0.950 . S
H6848 C6824 0.950 . S
H6849 C6825 0.949 . S
H6850 C6827 0.950 . S
H6851 C6829 0.950 . S
C6852 C6853 1.349 . S
C6852 C6854 1.327 . S
C6852 H6877 0.950 . S
C6853 C6852 1.349 . S
C6853 C6869 1.349 . S
C6854 C6852 1.327 . S
C6854 C6873 1.429 . S
C6854 H6878 0.950 . S
C6855 C6872 1.574 . S
C6855 C6874 1.368 . S
C6855 H6879 0.949 . S
H6856 C6860 0.949 . S
C6857 C6858 1.349 . S
C6857 C6859 1.327 . S
C6857 H6880 0.950 . S
C6858 C6857 1.349 . S
C6858 C6870 1.349 . S
C6859 C6857 1.327 . S
C6859 C6875 1.429 . S
C6859 H6881 0.950 . S
C6860 H6856 0.949 . S
C6860 C6868 1.574 . S
C6860 C6876 1.368 . S
H6861 C6869 0.950 . S
H6862 C6867 0.950 . S
H6863 C6868 0.949 . S
H6864 C6870 0.950 . S
H6865 C6871 0.950 . S
H6866 C6872 0.949 . S
C6867 H6862 0.950 . S
C6867 C6869 1.327 . S
C6867 C6873 1.429 . S
C6868 C6860 1.574 . S
C6868 H6863 0.949 . S
C6868 C6874 1.368 . S
C6869 C6853 1.349 . S
C6869 H6861 0.950 . S
C6869 C6867 1.327 . S
C6870 C6858 1.349 . S
C6870 H6864 0.950 . S
C6870 C6871 1.327 . S
C6871 H6865 0.950 . S
C6871 C6870 1.327 . S
C6871 C6875 1.429 . S
C6872 C6855 1.574 . S
C6872 H6866 0.949 . S
C6872 C6876 1.368 . S
C6873 C6854 1.429 . S
C6873 C6867 1.429 . S
C6873 C6874 1.523 . S
C6874 C6855 1.368 . S
C6874 C6868 1.368 . S
C6874 C6873 1.523 . S
C6875 C6859 1.429 . S
C6875 C6871 1.429 . S
C6875 C6876 1.523 . S
C6876 C6860 1.368 . S
C6876 C6872 1.368 . S
C6876 C6875 1.523 . S
H6877 C6852 0.950 . S
H6878 C6854 0.950 . S
H6879 C6855 0.949 . S
H6880 C6857 0.950 . S
H6881 C6859 0.950 . S
C6882 C6883 1.349 . S
C6882 C6884 1.327 . S
C6882 H6907 0.950 . S
C6883 C6882 1.349 . S
C6883 C6899 1.349 . S
C6884 C6882 1.327 . S
C6884 C6903 1.429 . S
C6884 H6908 0.950 . S
C6885 C6902 1.574 . S
C6885 C6904 1.368 . S
C6885 H6909 0.949 . S
H6886 C6890 0.949 . S
C6887 C6888 1.349 . S
C6887 C6889 1.327 . S
C6887 H6910 0.950 . S
C6888 C6887 1.349 . S
C6888 C6900 1.349 . S
C6889 C6887 1.327 . S
C6889 C6905 1.429 . S
C6889 H6911 0.950 . S
C6890 H6886 0.949 . S
C6890 C6898 1.574 . S
C6890 C6906 1.368 . S
H6891 C6899 0.950 . S
H6892 C6897 0.950 . S
H6893 C6898 0.949 . S
H6894 C6900 0.950 . S
H6895 C6901 0.950 . S
H6896 C6902 0.949 . S
C6897 H6892 0.950 . S
C6897 C6899 1.327 . S
C6897 C6903 1.429 . S
C6898 C6890 1.574 . S
C6898 H6893 0.949 . S
C6898 C6904 1.368 . S
C6899 C6883 1.349 . S
C6899 H6891 0.950 . S
C6899 C6897 1.327 . S
C6900 C6888 1.349 . S
C6900 H6894 0.950 . S
C6900 C6901 1.327 . S
C6901 H6895 0.950 . S
C6901 C6900 1.327 . S
C6901 C6905 1.429 . S
C6902 C6885 1.574 . S
C6902 H6896 0.949 . S
C6902 C6906 1.368 . S
C6903 C6884 1.429 . S
C6903 C6897 1.429 . S
C6903 C6904 1.523 . S
C6904 C6885 1.368 . S
C6904 C6898 1.368 . S
C6904 C6903 1.523 . S
C6905 C6889 1.429 . S
C6905 C6901 1.429 . S
C6905 C6906 1.523 . S
C6906 C6890 1.368 . S
C6906 C6902 1.368 . S
C6906 C6905 1.523 . S
H6907 C6882 0.950 . S
H6908 C6884 0.950 . S
H6909 C6885 0.949 . S
H6910 C6887 0.950 . S
H6911 C6889 0.950 . S
C6912 C6913 1.349 . S
C6912 C6914 1.327 . S
C6912 H6937 0.950 . S
C6913 C6912 1.349 . S
C6913 C6929 1.349 . S
C6914 C6912 1.327 . S
C6914 C6933 1.429 . S
C6914 H6938 0.950 . S
C6915 C6932 1.574 . S
C6915 C6934 1.368 . S
C6915 H6939 0.949 . S
H6916 C6920 0.949 . S
C6917 C6918 1.349 . S
C6917 C6919 1.327 . S
C6917 H6940 0.950 . S
C6918 C6917 1.349 . S
C6918 C6930 1.349 . S
C6919 C6917 1.327 . S
C6919 C6935 1.429 . S
C6919 H6941 0.950 . S
C6920 H6916 0.949 . S
C6920 C6928 1.574 . S
C6920 C6936 1.368 . S
H6921 C6929 0.950 . S
H6922 C6927 0.950 . S
H6923 C6928 0.949 . S
H6924 C6930 0.950 . S
H6925 C6931 0.950 . S
H6926 C6932 0.949 . S
C6927 H6922 0.950 . S
C6927 C6929 1.327 . S
C6927 C6933 1.429 . S
C6928 C6920 1.574 . S
C6928 H6923 0.949 . S
C6928 C6934 1.368 . S
C6929 C6913 1.349 . S
C6929 H6921 0.950 . S
C6929 C6927 1.327 . S
C6930 C6918 1.349 . S
C6930 H6924 0.950 . S
C6930 C6931 1.327 . S
C6931 H6925 0.950 . S
C6931 C6930 1.327 . S
C6931 C6935 1.429 . S
C6932 C6915 1.574 . S
C6932 H6926 0.949 . S
C6932 C6936 1.368 . S
C6933 C6914 1.429 . S
C6933 C6927 1.429 . S
C6933 C6934 1.523 . S
C6934 C6915 1.368 . S
C6934 C6928 1.368 . S
C6934 C6933 1.523 . S
C6935 C6919 1.429 . S
C6935 C6931 1.429 . S
C6935 C6936 1.523 . S
C6936 C6920 1.368 . S
C6936 C6932 1.368 . S
C6936 C6935 1.523 . S
H6937 C6912 0.950 . S
H6938 C6914 0.950 . S
H6939 C6915 0.949 . S
H6940 C6917 0.950 . S
H6941 C6919 0.950 . S
C6942 C6943 1.349 . S
C6942 C6944 1.327 . S
C6942 H6967 0.950 . S
C6943 C6942 1.349 . S
C6943 C6959 1.349 . S
C6944 C6942 1.327 . S
C6944 C6963 1.429 . S
C6944 H6968 0.950 . S
C6945 C6962 1.574 . S
C6945 C6964 1.368 . S
C6945 H6969 0.949 . S
H6946 C6950 0.949 . S
C6947 C6948 1.349 . S
C6947 C6949 1.327 . S
C6947 H6970 0.950 . S
C6948 C6947 1.349 . S
C6948 C6960 1.349 . S
C6949 C6947 1.327 . S
C6949 C6965 1.429 . S
C6949 H6971 0.950 . S
C6950 H6946 0.949 . S
C6950 C6958 1.574 . S
C6950 C6966 1.368 . S
H6951 C6959 0.950 . S
H6952 C6957 0.950 . S
H6953 C6958 0.949 . S
H6954 C6960 0.950 . S
H6955 C6961 0.950 . S
H6956 C6962 0.949 . S
C6957 H6952 0.950 . S
C6957 C6959 1.327 . S
C6957 C6963 1.429 . S
C6958 C6950 1.574 . S
C6958 H6953 0.949 . S
C6958 C6964 1.368 . S
C6959 C6943 1.349 . S
C6959 H6951 0.950 . S
C6959 C6957 1.327 . S
C6960 C6948 1.349 . S
C6960 H6954 0.950 . S
C6960 C6961 1.327 . S
C6961 H6955 0.950 . S
C6961 C6960 1.327 . S
C6961 C6965 1.429 . S
C6962 C6945 1.574 . S
C6962 H6956 0.949 . S
C6962 C6966 1.368 . S
C6963 C6944 1.429 . S
C6963 C6957 1.429 . S
C6963 C6964 1.523 . S
C6964 C6945 1.368 . S
C6964 C6958 1.368 . S
C6964 C6963 1.523 . S
C6965 C6949 1.429 . S
C6965 C6961 1.429 . S
C6965 C6966 1.523 . S
C6966 C6950 1.368 . S
C6966 C6962 1.368 . S
C6966 C6965 1.523 . S
H6967 C6942 0.950 . S
H6968 C6944 0.950 . S
H6969 C6945 0.949 . S
H6970 C6947 0.950 . S
H6971 C6949 0.950 . S
C6972 C6973 1.349 . S
C6972 C6974 1.327 . S
C6972 H6997 0.950 . S
C6973 C6972 1.349 . S
C6973 C6989 1.349 . S
C6974 C6972 1.327 . S
C6974 C6993 1.429 . S
C6974 H6998 0.950 . S
C6975 C6992 1.574 . S
C6975 C6994 1.368 . S
C6975 H6999 0.949 . S
H6976 C6980 0.949 . S
C6977 C6978 1.349 . S
C6977 C6979 1.327 . S
C6977 H7000 0.950 . S
C6978 C6977 1.349 . S
C6978 C6990 1.349 . S
C6979 C6977 1.327 . S
C6979 C6995 1.429 . S
C6979 H7001 0.950 . S
C6980 H6976 0.949 . S
C6980 C6988 1.574 . S
C6980 C6996 1.368 . S
H6981 C6989 0.950 . S
H6982 C6987 0.950 . S
H6983 C6988 0.949 . S
H6984 C6990 0.950 . S
H6985 C6991 0.950 . S
H6986 C6992 0.949 . S
C6987 H6982 0.950 . S
C6987 C6989 1.327 . S
C6987 C6993 1.429 . S
C6988 C6980 1.574 . S
C6988 H6983 0.949 . S
C6988 C6994 1.368 . S
C6989 C6973 1.349 . S
C6989 H6981 0.950 . S
C6989 C6987 1.327 . S
C6990 C6978 1.349 . S
C6990 H6984 0.950 . S
C6990 C6991 1.327 . S
C6991 H6985 0.950 . S
C6991 C6990 1.327 . S
C6991 C6995 1.429 . S
C6992 C6975 1.574 . S
C6992 H6986 0.949 . S
C6992 C6996 1.368 . S
C6993 C6974 1.429 . S
C6993 C6987 1.429 . S
C6993 C6994 1.523 . S
C6994 C6975 1.368 . S
C6994 C6988 1.368 . S
C6994 C6993 1.523 . S
C6995 C6979 1.429 . S
C6995 C6991 1.429 . S
C6995 C6996 1.523 . S
C6996 C6980 1.368 . S
C6996 C6992 1.368 . S
C6996 C6995 1.523 . S
H6997 C6972 0.950 . S
H6998 C6974 0.950 . S
H6999 C6975 0.949 . S
H7000 C6977 0.950 . S
H7001 C6979 0.950 . S
C7002 C7003 1.349 . S
C7002 C7004 1.327 . S
C7002 H7027 0.950 . S
C7003 C7002 1.349 . S
C7003 C7019 1.349 . S
C7004 C7002 1.327 . S
C7004 C7023 1.429 . S
C7004 H7028 0.950 . S
C7005 C7022 1.574 . S
C7005 C7024 1.368 . S
C7005 H7029 0.949 . S
H7006 C7010 0.949 . S
C7007 C7008 1.349 . S
C7007 C7009 1.327 . S
C7007 H7030 0.950 . S
C7008 C7007 1.349 . S
C7008 C7020 1.349 . S
C7009 C7007 1.327 . S
C7009 C7025 1.429 . S
C7009 H7031 0.950 . S
C7010 H7006 0.949 . S
C7010 C7018 1.574 . S
C7010 C7026 1.368 . S
H7011 C7019 0.950 . S
H7012 C7017 0.950 . S
H7013 C7018 0.949 . S
H7014 C7020 0.950 . S
H7015 C7021 0.950 . S
H7016 C7022 0.949 . S
C7017 H7012 0.950 . S
C7017 C7019 1.327 . S
C7017 C7023 1.429 . S
C7018 C7010 1.574 . S
C7018 H7013 0.949 . S
C7018 C7024 1.368 . S
C7019 C7003 1.349 . S
C7019 H7011 0.950 . S
C7019 C7017 1.327 . S
C7020 C7008 1.349 . S
C7020 H7014 0.950 . S
C7020 C7021 1.327 . S
C7021 H7015 0.950 . S
C7021 C7020 1.327 . S
C7021 C7025 1.429 . S
C7022 C7005 1.574 . S
C7022 H7016 0.949 . S
C7022 C7026 1.368 . S
C7023 C7004 1.429 . S
C7023 C7017 1.429 . S
C7023 C7024 1.523 . S
C7024 C7005 1.368 . S
C7024 C7018 1.368 . S
C7024 C7023 1.523 . S
C7025 C7009 1.429 . S
C7025 C7021 1.429 . S
C7025 C7026 1.523 . S
C7026 C7010 1.368 . S
C7026 C7022 1.368 . S
C7026 C7025 1.523 . S
H7027 C7002 0.950 . S
H7028 C7004 0.950 . S
H7029 C7005 0.949 . S
H7030 C7007 0.950 . S
H7031 C7009 0.950 . S
C7032 C7033 1.349 . S
C7032 C7034 1.327 . S
C7032 H7057 0.950 . S
C7033 C7032 1.349 . S
C7033 C7049 1.349 . S
C7034 C7032 1.327 . S
C7034 C7053 1.429 . S
C7034 H7058 0.950 . S
C7035 C7052 1.574 . S
C7035 C7054 1.368 . S
C7035 H7059 0.949 . S
H7036 C7040 0.949 . S
C7037 C7038 1.349 . S
C7037 C7039 1.327 . S
C7037 H7060 0.950 . S
C7038 C7037 1.349 . S
C7038 C7050 1.349 . S
C7039 C7037 1.327 . S
C7039 C7055 1.429 . S
C7039 H7061 0.950 . S
C7040 H7036 0.949 . S
C7040 C7048 1.574 . S
C7040 C7056 1.368 . S
H7041 C7049 0.950 . S
H7042 C7047 0.950 . S
H7043 C7048 0.949 . S
H7044 C7050 0.950 . S
H7045 C7051 0.950 . S
H7046 C7052 0.949 . S
C7047 H7042 0.950 . S
C7047 C7049 1.327 . S
C7047 C7053 1.429 . S
C7048 C7040 1.574 . S
C7048 H7043 0.949 . S
C7048 C7054 1.368 . S
C7049 C7033 1.349 . S
C7049 H7041 0.950 . S
C7049 C7047 1.327 . S
C7050 C7038 1.349 . S
C7050 H7044 0.950 . S
C7050 C7051 1.327 . S
C7051 H7045 0.950 . S
C7051 C7050 1.327 . S
C7051 C7055 1.429 . S
C7052 C7035 1.574 . S
C7052 H7046 0.949 . S
C7052 C7056 1.368 . S
C7053 C7034 1.429 . S
C7053 C7047 1.429 . S
C7053 C7054 1.523 . S
C7054 C7035 1.368 . S
C7054 C7048 1.368 . S
C7054 C7053 1.523 . S
C7055 C7039 1.429 . S
C7055 C7051 1.429 . S
C7055 C7056 1.523 . S
C7056 C7040 1.368 . S
C7056 C7052 1.368 . S
C7056 C7055 1.523 . S
H7057 C7032 0.950 . S
H7058 C7034 0.950 . S
H7059 C7035 0.949 . S
H7060 C7037 0.950 . S
H7061 C7039 0.950 . S
C7062 C7063 1.349 . S
C7062 C7064 1.327 . S
C7062 H7087 0.950 . S
C7063 C7062 1.349 . S
C7063 C7079 1.349 . S
C7064 C7062 1.327 . S
C7064 C7083 1.429 . S
C7064 H7088 0.950 . S
C7065 C7082 1.574 . S
C7065 C7084 1.368 . S
C7065 H7089 0.949 . S
H7066 C7070 0.949 . S
C7067 C7068 1.349 . S
C7067 C7069 1.327 . S
C7067 H7090 0.950 . S
C7068 C7067 1.349 . S
C7068 C7080 1.349 . S
C7069 C7067 1.327 . S
C7069 C7085 1.429 . S
C7069 H7091 0.950 . S
C7070 H7066 0.949 . S
C7070 C7078 1.574 . S
C7070 C7086 1.368 . S
H7071 C7079 0.950 . S
H7072 C7077 0.950 . S
H7073 C7078 0.949 . S
H7074 C7080 0.950 . S
H7075 C7081 0.950 . S
H7076 C7082 0.949 . S
C7077 H7072 0.950 . S
C7077 C7079 1.327 . S
C7077 C7083 1.429 . S
C7078 C7070 1.574 . S
C7078 H7073 0.949 . S
C7078 C7084 1.368 . S
C7079 C7063 1.349 . S
C7079 H7071 0.950 . S
C7079 C7077 1.327 . S
C7080 C7068 1.349 . S
C7080 H7074 0.950 . S
C7080 C7081 1.327 . S
C7081 H7075 0.950 . S
C7081 C7080 1.327 . S
C7081 C7085 1.429 . S
C7082 C7065 1.574 . S
C7082 H7076 0.949 . S
C7082 C7086 1.368 . S
C7083 C7064 1.429 . S
C7083 C7077 1.429 . S
C7083 C7084 1.523 . S
C7084 C7065 1.368 . S
C7084 C7078 1.368 . S
C7084 C7083 1.523 . S
C7085 C7069 1.429 . S
C7085 C7081 1.429 . S
C7085 C7086 1.523 . S
C7086 C7070 1.368 . S
C7086 C7082 1.368 . S
C7086 C7085 1.523 . S
H7087 C7062 0.950 . S
H7088 C7064 0.950 . S
H7089 C7065 0.949 . S
H7090 C7067 0.950 . S
H7091 C7069 0.950 . S
C7092 C7093 1.349 . S
C7092 C7094 1.327 . S
C7092 H7117 0.950 . S
C7093 C7092 1.349 . S
C7093 C7109 1.349 . S
C7094 C7092 1.327 . S
C7094 C7113 1.429 . S
C7094 H7118 0.950 . S
C7095 C7112 1.574 . S
C7095 C7114 1.368 . S
C7095 H7119 0.949 . S
H7096 C7100 0.949 . S
C7097 C7098 1.349 . S
C7097 C7099 1.327 . S
C7097 H7120 0.950 . S
C7098 C7097 1.349 . S
C7098 C7110 1.349 . S
C7099 C7097 1.327 . S
C7099 C7115 1.429 . S
C7099 H7121 0.950 . S
C7100 H7096 0.949 . S
C7100 C7108 1.574 . S
C7100 C7116 1.368 . S
H7101 C7109 0.950 . S
H7102 C7107 0.950 . S
H7103 C7108 0.949 . S
H7104 C7110 0.950 . S
H7105 C7111 0.950 . S
H7106 C7112 0.949 . S
C7107 H7102 0.950 . S
C7107 C7109 1.327 . S
C7107 C7113 1.429 . S
C7108 C7100 1.574 . S
C7108 H7103 0.949 . S
C7108 C7114 1.368 . S
C7109 C7093 1.349 . S
C7109 H7101 0.950 . S
C7109 C7107 1.327 . S
C7110 C7098 1.349 . S
C7110 H7104 0.950 . S
C7110 C7111 1.327 . S
C7111 H7105 0.950 . S
C7111 C7110 1.327 . S
C7111 C7115 1.429 . S
C7112 C7095 1.574 . S
C7112 H7106 0.949 . S
C7112 C7116 1.368 . S
C7113 C7094 1.429 . S
C7113 C7107 1.429 . S
C7113 C7114 1.523 . S
C7114 C7095 1.368 . S
C7114 C7108 1.368 . S
C7114 C7113 1.523 . S
C7115 C7099 1.429 . S
C7115 C7111 1.429 . S
C7115 C7116 1.523 . S
C7116 C7100 1.368 . S
C7116 C7112 1.368 . S
C7116 C7115 1.523 . S
H7117 C7092 0.950 . S
H7118 C7094 0.950 . S
H7119 C7095 0.949 . S
H7120 C7097 0.950 . S
H7121 C7099 0.950 . S
C7122 C7123 1.349 . S
C7122 C7124 1.327 . S
C7122 H7147 0.950 . S
C7123 C7122 1.349 . S
C7123 C7139 1.349 . S
C7124 C7122 1.327 . S
C7124 C7143 1.429 . S
C7124 H7148 0.950 . S
C7125 C7142 1.574 . S
C7125 C7144 1.368 . S
C7125 H7149 0.949 . S
H7126 C7130 0.949 . S
C7127 C7128 1.349 . S
C7127 C7129 1.327 . S
C7127 H7150 0.950 . S
C7128 C7127 1.349 . S
C7128 C7140 1.349 . S
C7129 C7127 1.327 . S
C7129 C7145 1.429 . S
C7129 H7151 0.950 . S
C7130 H7126 0.949 . S
C7130 C7138 1.574 . S
C7130 C7146 1.368 . S
H7131 C7139 0.950 . S
H7132 C7137 0.950 . S
H7133 C7138 0.949 . S
H7134 C7140 0.950 . S
H7135 C7141 0.950 . S
H7136 C7142 0.949 . S
C7137 H7132 0.950 . S
C7137 C7139 1.327 . S
C7137 C7143 1.429 . S
C7138 C7130 1.574 . S
C7138 H7133 0.949 . S
C7138 C7144 1.368 . S
C7139 C7123 1.349 . S
C7139 H7131 0.950 . S
C7139 C7137 1.327 . S
C7140 C7128 1.349 . S
C7140 H7134 0.950 . S
C7140 C7141 1.327 . S
C7141 H7135 0.950 . S
C7141 C7140 1.327 . S
C7141 C7145 1.429 . S
C7142 C7125 1.574 . S
C7142 H7136 0.949 . S
C7142 C7146 1.368 . S
C7143 C7124 1.429 . S
C7143 C7137 1.429 . S
C7143 C7144 1.523 . S
C7144 C7125 1.368 . S
C7144 C7138 1.368 . S
C7144 C7143 1.523 . S
C7145 C7129 1.429 . S
C7145 C7141 1.429 . S
C7145 C7146 1.523 . S
C7146 C7130 1.368 . S
C7146 C7142 1.368 . S
C7146 C7145 1.523 . S
H7147 C7122 0.950 . S
H7148 C7124 0.950 . S
H7149 C7125 0.949 . S
H7150 C7127 0.950 . S
H7151 C7129 0.950 . S
C7152 C7153 1.349 . S
C7152 C7154 1.327 . S
C7152 H7177 0.950 . S
C7153 C7152 1.349 . S
C7153 C7169 1.349 . S
C7154 C7152 1.327 . S
C7154 C7173 1.429 . S
C7154 H7178 0.950 . S
C7155 C7172 1.574 . S
C7155 C7174 1.368 . S
C7155 H7179 0.949 . S
H7156 C7160 0.949 . S
C7157 C7158 1.349 . S
C7157 C7159 1.327 . S
C7157 H7180 0.950 . S
C7158 C7157 1.349 . S
C7158 C7170 1.349 . S
C7159 C7157 1.327 . S
C7159 C7175 1.429 . S
C7159 H7181 0.950 . S
C7160 H7156 0.949 . S
C7160 C7168 1.574 . S
C7160 C7176 1.368 . S
H7161 C7169 0.950 . S
H7162 C7167 0.950 . S
H7163 C7168 0.949 . S
H7164 C7170 0.950 . S
H7165 C7171 0.950 . S
H7166 C7172 0.949 . S
C7167 H7162 0.950 . S
C7167 C7169 1.327 . S
C7167 C7173 1.429 . S
C7168 C7160 1.574 . S
C7168 H7163 0.949 . S
C7168 C7174 1.368 . S
C7169 C7153 1.349 . S
C7169 H7161 0.950 . S
C7169 C7167 1.327 . S
C7170 C7158 1.349 . S
C7170 H7164 0.950 . S
C7170 C7171 1.327 . S
C7171 H7165 0.950 . S
C7171 C7170 1.327 . S
C7171 C7175 1.429 . S
C7172 C7155 1.574 . S
C7172 H7166 0.949 . S
C7172 C7176 1.368 . S
C7173 C7154 1.429 . S
C7173 C7167 1.429 . S
C7173 C7174 1.523 . S
C7174 C7155 1.368 . S
C7174 C7168 1.368 . S
C7174 C7173 1.523 . S
C7175 C7159 1.429 . S
C7175 C7171 1.429 . S
C7175 C7176 1.523 . S
C7176 C7160 1.368 . S
C7176 C7172 1.368 . S
C7176 C7175 1.523 . S
H7177 C7152 0.950 . S
H7178 C7154 0.950 . S
H7179 C7155 0.949 . S
H7180 C7157 0.950 . S
H7181 C7159 0.950 . S
C7182 C7183 1.349 . S
C7182 C7184 1.327 . S
C7182 H7207 0.950 . S
C7183 C7182 1.349 . S
C7183 C7199 1.349 . S
C7184 C7182 1.327 . S
C7184 C7203 1.429 . S
C7184 H7208 0.950 . S
C7185 C7202 1.574 . S
C7185 C7204 1.368 . S
C7185 H7209 0.949 . S
H7186 C7190 0.949 . S
C7187 C7188 1.349 . S
C7187 C7189 1.327 . S
C7187 H7210 0.950 . S
C7188 C7187 1.349 . S
C7188 C7200 1.349 . S
C7189 C7187 1.327 . S
C7189 C7205 1.429 . S
C7189 H7211 0.950 . S
C7190 H7186 0.949 . S
C7190 C7198 1.574 . S
C7190 C7206 1.368 . S
H7191 C7199 0.950 . S
H7192 C7197 0.950 . S
H7193 C7198 0.949 . S
H7194 C7200 0.950 . S
H7195 C7201 0.950 . S
H7196 C7202 0.949 . S
C7197 H7192 0.950 . S
C7197 C7199 1.327 . S
C7197 C7203 1.429 . S
C7198 C7190 1.574 . S
C7198 H7193 0.949 . S
C7198 C7204 1.368 . S
C7199 C7183 1.349 . S
C7199 H7191 0.950 . S
C7199 C7197 1.327 . S
C7200 C7188 1.349 . S
C7200 H7194 0.950 . S
C7200 C7201 1.327 . S
C7201 H7195 0.950 . S
C7201 C7200 1.327 . S
C7201 C7205 1.429 . S
C7202 C7185 1.574 . S
C7202 H7196 0.949 . S
C7202 C7206 1.368 . S
C7203 C7184 1.429 . S
C7203 C7197 1.429 . S
C7203 C7204 1.523 . S
C7204 C7185 1.368 . S
C7204 C7198 1.368 . S
C7204 C7203 1.523 . S
C7205 C7189 1.429 . S
C7205 C7201 1.429 . S
C7205 C7206 1.523 . S
C7206 C7190 1.368 . S
C7206 C7202 1.368 . S
C7206 C7205 1.523 . S
H7207 C7182 0.950 . S
H7208 C7184 0.950 . S
H7209 C7185 0.949 . S
H7210 C7187 0.950 . S
H7211 C7189 0.950 . S
C7212 C7213 1.349 . S
C7212 C7214 1.327 . S
C7212 H7237 0.950 . S
C7213 C7212 1.349 . S
C7213 C7229 1.349 . S
C7214 C7212 1.327 . S
C7214 C7233 1.429 . S
C7214 H7238 0.950 . S
C7215 C7232 1.574 . S
C7215 C7234 1.368 . S
C7215 H7239 0.949 . S
H7216 C7220 0.949 . S
C7217 C7218 1.349 . S
C7217 C7219 1.327 . S
C7217 H7240 0.950 . S
C7218 C7217 1.349 . S
C7218 C7230 1.349 . S
C7219 C7217 1.327 . S
C7219 C7235 1.429 . S
C7219 H7241 0.950 . S
C7220 H7216 0.949 . S
C7220 C7228 1.574 . S
C7220 C7236 1.368 . S
H7221 C7229 0.950 . S
H7222 C7227 0.950 . S
H7223 C7228 0.949 . S
H7224 C7230 0.950 . S
H7225 C7231 0.950 . S
H7226 C7232 0.949 . S
C7227 H7222 0.950 . S
C7227 C7229 1.327 . S
C7227 C7233 1.429 . S
C7228 C7220 1.574 . S
C7228 H7223 0.949 . S
C7228 C7234 1.368 . S
C7229 C7213 1.349 . S
C7229 H7221 0.950 . S
C7229 C7227 1.327 . S
C7230 C7218 1.349 . S
C7230 H7224 0.950 . S
C7230 C7231 1.327 . S
C7231 H7225 0.950 . S
C7231 C7230 1.327 . S
C7231 C7235 1.429 . S
C7232 C7215 1.574 . S
C7232 H7226 0.949 . S
C7232 C7236 1.368 . S
C7233 C7214 1.429 . S
C7233 C7227 1.429 . S
C7233 C7234 1.523 . S
C7234 C7215 1.368 . S
C7234 C7228 1.368 . S
C7234 C7233 1.523 . S
C7235 C7219 1.429 . S
C7235 C7231 1.429 . S
C7235 C7236 1.523 . S
C7236 C7220 1.368 . S
C7236 C7232 1.368 . S
C7236 C7235 1.523 . S
H7237 C7212 0.950 . S
H7238 C7214 0.950 . S
H7239 C7215 0.949 . S
H7240 C7217 0.950 . S
H7241 C7219 0.950 . S
C7242 C7243 1.349 . S
C7242 C7244 1.327 . S
C7242 H7267 0.950 . S
C7243 C7242 1.349 . S
C7243 C7259 1.349 . S
C7244 C7242 1.327 . S
C7244 C7263 1.429 . S
C7244 H7268 0.950 . S
C7245 C7262 1.574 . S
C7245 C7264 1.368 . S
C7245 H7269 0.949 . S
H7246 C7250 0.949 . S
C7247 C7248 1.349 . S
C7247 C7249 1.327 . S
C7247 H7270 0.950 . S
C7248 C7247 1.349 . S
C7248 C7260 1.349 . S
C7249 C7247 1.327 . S
C7249 C7265 1.429 . S
C7249 H7271 0.950 . S
C7250 H7246 0.949 . S
C7250 C7258 1.574 . S
C7250 C7266 1.368 . S
H7251 C7259 0.950 . S
H7252 C7257 0.950 . S
H7253 C7258 0.949 . S
H7254 C7260 0.950 . S
H7255 C7261 0.950 . S
H7256 C7262 0.949 . S
C7257 H7252 0.950 . S
C7257 C7259 1.327 . S
C7257 C7263 1.429 . S
C7258 C7250 1.574 . S
C7258 H7253 0.949 . S
C7258 C7264 1.368 . S
C7259 C7243 1.349 . S
C7259 H7251 0.950 . S
C7259 C7257 1.327 . S
C7260 C7248 1.349 . S
C7260 H7254 0.950 . S
C7260 C7261 1.327 . S
C7261 H7255 0.950 . S
C7261 C7260 1.327 . S
C7261 C7265 1.429 . S
C7262 C7245 1.574 . S
C7262 H7256 0.949 . S
C7262 C7266 1.368 . S
C7263 C7244 1.429 . S
C7263 C7257 1.429 . S
C7263 C7264 1.523 . S
C7264 C7245 1.368 . S
C7264 C7258 1.368 . S
C7264 C7263 1.523 . S
C7265 C7249 1.429 . S
C7265 C7261 1.429 . S
C7265 C7266 1.523 . S
C7266 C7250 1.368 . S
C7266 C7262 1.368 . S
C7266 C7265 1.523 . S
H7267 C7242 0.950 . S
H7268 C7244 0.950 . S
H7269 C7245 0.949 . S
H7270 C7247 0.950 . S
H7271 C7249 0.950 . S
C7272 C7273 1.349 . S
C7272 C7274 1.327 . S
C7272 H7297 0.950 . S
C7273 C7272 1.349 . S
C7273 C7289 1.349 . S
C7274 C7272 1.327 . S
C7274 C7293 1.429 . S
C7274 H7298 0.950 . S
C7275 C7292 1.574 . S
C7275 C7294 1.368 . S
C7275 H7299 0.949 . S
H7276 C7280 0.949 . S
C7277 C7278 1.349 . S
C7277 C7279 1.327 . S
C7277 H7300 0.950 . S
C7278 C7277 1.349 . S
C7278 C7290 1.349 . S
C7279 C7277 1.327 . S
C7279 C7295 1.429 . S
C7279 H7301 0.950 . S
C7280 H7276 0.949 . S
C7280 C7288 1.574 . S
C7280 C7296 1.368 . S
H7281 C7289 0.950 . S
H7282 C7287 0.950 . S
H7283 C7288 0.949 . S
H7284 C7290 0.950 . S
H7285 C7291 0.950 . S
H7286 C7292 0.949 . S
C7287 H7282 0.950 . S
C7287 C7289 1.327 . S
C7287 C7293 1.429 . S
C7288 C7280 1.574 . S
C7288 H7283 0.949 . S
C7288 C7294 1.368 . S
C7289 C7273 1.349 . S
C7289 H7281 0.950 . S
C7289 C7287 1.327 . S
C7290 C7278 1.349 . S
C7290 H7284 0.950 . S
C7290 C7291 1.327 . S
C7291 H7285 0.950 . S
C7291 C7290 1.327 . S
C7291 C7295 1.429 . S
C7292 C7275 1.574 . S
C7292 H7286 0.949 . S
C7292 C7296 1.368 . S
C7293 C7274 1.429 . S
C7293 C7287 1.429 . S
C7293 C7294 1.523 . S
C7294 C7275 1.368 . S
C7294 C7288 1.368 . S
C7294 C7293 1.523 . S
C7295 C7279 1.429 . S
C7295 C7291 1.429 . S
C7295 C7296 1.523 . S
C7296 C7280 1.368 . S
C7296 C7292 1.368 . S
C7296 C7295 1.523 . S
H7297 C7272 0.950 . S
H7298 C7274 0.950 . S
H7299 C7275 0.949 . S
H7300 C7277 0.950 . S
H7301 C7279 0.950 . S
C7302 C7303 1.349 . S
C7302 C7304 1.327 . S
C7302 H7327 0.950 . S
C7303 C7302 1.349 . S
C7303 C7319 1.349 . S
C7304 C7302 1.327 . S
C7304 C7323 1.429 . S
C7304 H7328 0.950 . S
C7305 C7322 1.574 . S
C7305 C7324 1.368 . S
C7305 H7329 0.949 . S
H7306 C7310 0.949 . S
C7307 C7308 1.349 . S
C7307 C7309 1.327 . S
C7307 H7330 0.950 . S
C7308 C7307 1.349 . S
C7308 C7320 1.349 . S
C7309 C7307 1.327 . S
C7309 C7325 1.429 . S
C7309 H7331 0.950 . S
C7310 H7306 0.949 . S
C7310 C7318 1.574 . S
C7310 C7326 1.368 . S
H7311 C7319 0.950 . S
H7312 C7317 0.950 . S
H7313 C7318 0.949 . S
H7314 C7320 0.950 . S
H7315 C7321 0.950 . S
H7316 C7322 0.949 . S
C7317 H7312 0.950 . S
C7317 C7319 1.327 . S
C7317 C7323 1.429 . S
C7318 C7310 1.574 . S
C7318 H7313 0.949 . S
C7318 C7324 1.368 . S
C7319 C7303 1.349 . S
C7319 H7311 0.950 . S
C7319 C7317 1.327 . S
C7320 C7308 1.349 . S
C7320 H7314 0.950 . S
C7320 C7321 1.327 . S
C7321 H7315 0.950 . S
C7321 C7320 1.327 . S
C7321 C7325 1.429 . S
C7322 C7305 1.574 . S
C7322 H7316 0.949 . S
C7322 C7326 1.368 . S
C7323 C7304 1.429 . S
C7323 C7317 1.429 . S
C7323 C7324 1.523 . S
C7324 C7305 1.368 . S
C7324 C7318 1.368 . S
C7324 C7323 1.523 . S
C7325 C7309 1.429 . S
C7325 C7321 1.429 . S
C7325 C7326 1.523 . S
C7326 C7310 1.368 . S
C7326 C7322 1.368 . S
C7326 C7325 1.523 . S
H7327 C7302 0.950 . S
H7328 C7304 0.950 . S
H7329 C7305 0.949 . S
H7330 C7307 0.950 . S
H7331 C7309 0.950 . S
C7332 C7333 1.349 . S
C7332 C7334 1.327 . S
C7332 H7357 0.950 . S
C7333 C7332 1.349 . S
C7333 C7349 1.349 . S
C7334 C7332 1.327 . S
C7334 C7353 1.429 . S
C7334 H7358 0.950 . S
C7335 C7352 1.574 . S
C7335 C7354 1.368 . S
C7335 H7359 0.949 . S
H7336 C7340 0.949 . S
C7337 C7338 1.349 . S
C7337 C7339 1.327 . S
C7337 H7360 0.950 . S
C7338 C7337 1.349 . S
C7338 C7350 1.349 . S
C7339 C7337 1.327 . S
C7339 C7355 1.429 . S
C7339 H7361 0.950 . S
C7340 H7336 0.949 . S
C7340 C7348 1.574 . S
C7340 C7356 1.368 . S
H7341 C7349 0.950 . S
H7342 C7347 0.950 . S
H7343 C7348 0.949 . S
H7344 C7350 0.950 . S
H7345 C7351 0.950 . S
H7346 C7352 0.949 . S
C7347 H7342 0.950 . S
C7347 C7349 1.327 . S
C7347 C7353 1.429 . S
C7348 C7340 1.574 . S
C7348 H7343 0.949 . S
C7348 C7354 1.368 . S
C7349 C7333 1.349 . S
C7349 H7341 0.950 . S
C7349 C7347 1.327 . S
C7350 C7338 1.349 . S
C7350 H7344 0.950 . S
C7350 C7351 1.327 . S
C7351 H7345 0.950 . S
C7351 C7350 1.327 . S
C7351 C7355 1.429 . S
C7352 C7335 1.574 . S
C7352 H7346 0.949 . S
C7352 C7356 1.368 . S
C7353 C7334 1.429 . S
C7353 C7347 1.429 . S
C7353 C7354 1.523 . S
C7354 C7335 1.368 . S
C7354 C7348 1.368 . S
C7354 C7353 1.523 . S
C7355 C7339 1.429 . S
C7355 C7351 1.429 . S
C7355 C7356 1.523 . S
C7356 C7340 1.368 . S
C7356 C7352 1.368 . S
C7356 C7355 1.523 . S
H7357 C7332 0.950 . S
H7358 C7334 0.950 . S
H7359 C7335 0.949 . S
H7360 C7337 0.950 . S
H7361 C7339 0.950 . S
C7362 C7363 1.349 . S
C7362 C7364 1.327 . S
C7362 H7387 0.950 . S
C7363 C7362 1.349 . S
C7363 C7379 1.349 . S
C7364 C7362 1.327 . S
C7364 C7383 1.429 . S
C7364 H7388 0.950 . S
C7365 C7382 1.574 . S
C7365 C7384 1.368 . S
C7365 H7389 0.949 . S
H7366 C7370 0.949 . S
C7367 C7368 1.349 . S
C7367 C7369 1.327 . S
C7367 H7390 0.950 . S
C7368 C7367 1.349 . S
C7368 C7380 1.349 . S
C7369 C7367 1.327 . S
C7369 C7385 1.429 . S
C7369 H7391 0.950 . S
C7370 H7366 0.949 . S
C7370 C7378 1.574 . S
C7370 C7386 1.368 . S
H7371 C7379 0.950 . S
H7372 C7377 0.950 . S
H7373 C7378 0.949 . S
H7374 C7380 0.950 . S
H7375 C7381 0.950 . S
H7376 C7382 0.949 . S
C7377 H7372 0.950 . S
C7377 C7379 1.327 . S
C7377 C7383 1.429 . S
C7378 C7370 1.574 . S
C7378 H7373 0.949 . S
C7378 C7384 1.368 . S
C7379 C7363 1.349 . S
C7379 H7371 0.950 . S
C7379 C7377 1.327 . S
C7380 C7368 1.349 . S
C7380 H7374 0.950 . S
C7380 C7381 1.327 . S
C7381 H7375 0.950 . S
C7381 C7380 1.327 . S
C7381 C7385 1.429 . S
C7382 C7365 1.574 . S
C7382 H7376 0.949 . S
C7382 C7386 1.368 . S
C7383 C7364 1.429 . S
C7383 C7377 1.429 . S
C7383 C7384 1.523 . S
C7384 C7365 1.368 . S
C7384 C7378 1.368 . S
C7384 C7383 1.523 . S
C7385 C7369 1.429 . S
C7385 C7381 1.429 . S
C7385 C7386 1.523 . S
C7386 C7370 1.368 . S
C7386 C7382 1.368 . S
C7386 C7385 1.523 . S
H7387 C7362 0.950 . S
H7388 C7364 0.950 . S
H7389 C7365 0.949 . S
H7390 C7367 0.950 . S
H7391 C7369 0.950 . S
C7392 C7393 1.349 . S
C7392 C7394 1.327 . S
C7392 H7417 0.950 . S
C7393 C7392 1.349 . S
C7393 C7409 1.349 . S
C7394 C7392 1.327 . S
C7394 C7413 1.429 . S
C7394 H7418 0.950 . S
C7395 C7412 1.574 . S
C7395 C7414 1.368 . S
C7395 H7419 0.949 . S
H7396 C7400 0.949 . S
C7397 C7398 1.349 . S
C7397 C7399 1.327 . S
C7397 H7420 0.950 . S
C7398 C7397 1.349 . S
C7398 C7410 1.349 . S
C7399 C7397 1.327 . S
C7399 C7415 1.429 . S
C7399 H7421 0.950 . S
C7400 H7396 0.949 . S
C7400 C7408 1.574 . S
C7400 C7416 1.368 . S
H7401 C7409 0.950 . S
H7402 C7407 0.950 . S
H7403 C7408 0.949 . S
H7404 C7410 0.950 . S
H7405 C7411 0.950 . S
H7406 C7412 0.949 . S
C7407 H7402 0.950 . S
C7407 C7409 1.327 . S
C7407 C7413 1.429 . S
C7408 C7400 1.574 . S
C7408 H7403 0.949 . S
C7408 C7414 1.368 . S
C7409 C7393 1.349 . S
C7409 H7401 0.950 . S
C7409 C7407 1.327 . S
C7410 C7398 1.349 . S
C7410 H7404 0.950 . S
C7410 C7411 1.327 . S
C7411 H7405 0.950 . S
C7411 C7410 1.327 . S
C7411 C7415 1.429 . S
C7412 C7395 1.574 . S
C7412 H7406 0.949 . S
C7412 C7416 1.368 . S
C7413 C7394 1.429 . S
C7413 C7407 1.429 . S
C7413 C7414 1.523 . S
C7414 C7395 1.368 . S
C7414 C7408 1.368 . S
C7414 C7413 1.523 . S
C7415 C7399 1.429 . S
C7415 C7411 1.429 . S
C7415 C7416 1.523 . S
C7416 C7400 1.368 . S
C7416 C7412 1.368 . S
C7416 C7415 1.523 . S
H7417 C7392 0.950 . S
H7418 C7394 0.950 . S
H7419 C7395 0.949 . S
H7420 C7397 0.950 . S
H7421 C7399 0.950 . S
C7422 C7423 1.349 . S
C7422 C7424 1.327 . S
C7422 H7447 0.950 . S
C7423 C7422 1.349 . S
C7423 C7439 1.349 . S
C7424 C7422 1.327 . S
C7424 C7443 1.429 . S
C7424 H7448 0.950 . S
C7425 C7442 1.574 . S
C7425 C7444 1.368 . S
C7425 H7449 0.949 . S
H7426 C7430 0.949 . S
C7427 C7428 1.349 . S
C7427 C7429 1.327 . S
C7427 H7450 0.950 . S
C7428 C7427 1.349 . S
C7428 C7440 1.349 . S
C7429 C7427 1.327 . S
C7429 C7445 1.429 . S
C7429 H7451 0.950 . S
C7430 H7426 0.949 . S
C7430 C7438 1.574 . S
C7430 C7446 1.368 . S
H7431 C7439 0.950 . S
H7432 C7437 0.950 . S
H7433 C7438 0.949 . S
H7434 C7440 0.950 . S
H7435 C7441 0.950 . S
H7436 C7442 0.949 . S
C7437 H7432 0.950 . S
C7437 C7439 1.327 . S
C7437 C7443 1.429 . S
C7438 C7430 1.574 . S
C7438 H7433 0.949 . S
C7438 C7444 1.368 . S
C7439 C7423 1.349 . S
C7439 H7431 0.950 . S
C7439 C7437 1.327 . S
C7440 C7428 1.349 . S
C7440 H7434 0.950 . S
C7440 C7441 1.327 . S
C7441 H7435 0.950 . S
C7441 C7440 1.327 . S
C7441 C7445 1.429 . S
C7442 C7425 1.574 . S
C7442 H7436 0.949 . S
C7442 C7446 1.368 . S
C7443 C7424 1.429 . S
C7443 C7437 1.429 . S
C7443 C7444 1.523 . S
C7444 C7425 1.368 . S
C7444 C7438 1.368 . S
C7444 C7443 1.523 . S
C7445 C7429 1.429 . S
C7445 C7441 1.429 . S
C7445 C7446 1.523 . S
C7446 C7430 1.368 . S
C7446 C7442 1.368 . S
C7446 C7445 1.523 . S
H7447 C7422 0.950 . S
H7448 C7424 0.950 . S
H7449 C7425 0.949 . S
H7450 C7427 0.950 . S
H7451 C7429 0.950 . S
C7452 C7453 1.349 . S
C7452 C7454 1.327 . S
C7452 H7477 0.950 . S
C7453 C7452 1.349 . S
C7453 C7469 1.349 . S
C7454 C7452 1.327 . S
C7454 C7473 1.429 . S
C7454 H7478 0.950 . S
C7455 C7472 1.574 . S
C7455 C7474 1.368 . S
C7455 H7479 0.949 . S
H7456 C7460 0.949 . S
C7457 C7458 1.349 . S
C7457 C7459 1.327 . S
C7457 H7480 0.950 . S
C7458 C7457 1.349 . S
C7458 C7470 1.349 . S
C7459 C7457 1.327 . S
C7459 C7475 1.429 . S
C7459 H7481 0.950 . S
C7460 H7456 0.949 . S
C7460 C7468 1.574 . S
C7460 C7476 1.368 . S
H7461 C7469 0.950 . S
H7462 C7467 0.950 . S
H7463 C7468 0.949 . S
H7464 C7470 0.950 . S
H7465 C7471 0.950 . S
H7466 C7472 0.949 . S
C7467 H7462 0.950 . S
C7467 C7469 1.327 . S
C7467 C7473 1.429 . S
C7468 C7460 1.574 . S
C7468 H7463 0.949 . S
C7468 C7474 1.368 . S
C7469 C7453 1.349 . S
C7469 H7461 0.950 . S
C7469 C7467 1.327 . S
C7470 C7458 1.349 . S
C7470 H7464 0.950 . S
C7470 C7471 1.327 . S
C7471 H7465 0.950 . S
C7471 C7470 1.327 . S
C7471 C7475 1.429 . S
C7472 C7455 1.574 . S
C7472 H7466 0.949 . S
C7472 C7476 1.368 . S
C7473 C7454 1.429 . S
C7473 C7467 1.429 . S
C7473 C7474 1.523 . S
C7474 C7455 1.368 . S
C7474 C7468 1.368 . S
C7474 C7473 1.523 . S
C7475 C7459 1.429 . S
C7475 C7471 1.429 . S
C7475 C7476 1.523 . S
C7476 C7460 1.368 . S
C7476 C7472 1.368 . S
C7476 C7475 1.523 . S
H7477 C7452 0.950 . S
H7478 C7454 0.950 . S
H7479 C7455 0.949 . S
H7480 C7457 0.950 . S
H7481 C7459 0.950 . S
C7482 C7483 1.349 . S
C7482 C7484 1.327 . S
C7482 H7507 0.950 . S
C7483 C7482 1.349 . S
C7483 C7499 1.349 . S
C7484 C7482 1.327 . S
C7484 C7503 1.429 . S
C7484 H7508 0.950 . S
C7485 C7502 1.574 . S
C7485 C7504 1.368 . S
C7485 H7509 0.949 . S
H7486 C7490 0.949 . S
C7487 C7488 1.349 . S
C7487 C7489 1.327 . S
C7487 H7510 0.950 . S
C7488 C7487 1.349 . S
C7488 C7500 1.349 . S
C7489 C7487 1.327 . S
C7489 C7505 1.429 . S
C7489 H7511 0.950 . S
C7490 H7486 0.949 . S
C7490 C7498 1.574 . S
C7490 C7506 1.368 . S
H7491 C7499 0.950 . S
H7492 C7497 0.950 . S
H7493 C7498 0.949 . S
H7494 C7500 0.950 . S
H7495 C7501 0.950 . S
H7496 C7502 0.949 . S
C7497 H7492 0.950 . S
C7497 C7499 1.327 . S
C7497 C7503 1.429 . S
C7498 C7490 1.574 . S
C7498 H7493 0.949 . S
C7498 C7504 1.368 . S
C7499 C7483 1.349 . S
C7499 H7491 0.950 . S
C7499 C7497 1.327 . S
C7500 C7488 1.349 . S
C7500 H7494 0.950 . S
C7500 C7501 1.327 . S
C7501 H7495 0.950 . S
C7501 C7500 1.327 . S
C7501 C7505 1.429 . S
C7502 C7485 1.574 . S
C7502 H7496 0.949 . S
C7502 C7506 1.368 . S
C7503 C7484 1.429 . S
C7503 C7497 1.429 . S
C7503 C7504 1.523 . S
C7504 C7485 1.368 . S
C7504 C7498 1.368 . S
C7504 C7503 1.523 . S
C7505 C7489 1.429 . S
C7505 C7501 1.429 . S
C7505 C7506 1.523 . S
C7506 C7490 1.368 . S
C7506 C7502 1.368 . S
C7506 C7505 1.523 . S
H7507 C7482 0.950 . S
H7508 C7484 0.950 . S
H7509 C7485 0.949 . S
H7510 C7487 0.950 . S
H7511 C7489 0.950 . S
C7512 C7513 1.349 . S
C7512 C7514 1.327 . S
C7512 H7537 0.950 . S
C7513 C7512 1.349 . S
C7513 C7529 1.349 . S
C7514 C7512 1.327 . S
C7514 C7533 1.429 . S
C7514 H7538 0.950 . S
C7515 C7532 1.574 . S
C7515 C7534 1.368 . S
C7515 H7539 0.949 . S
H7516 C7520 0.949 . S
C7517 C7518 1.349 . S
C7517 C7519 1.327 . S
C7517 H7540 0.950 . S
C7518 C7517 1.349 . S
C7518 C7530 1.349 . S
C7519 C7517 1.327 . S
C7519 C7535 1.429 . S
C7519 H7541 0.950 . S
C7520 H7516 0.949 . S
C7520 C7528 1.574 . S
C7520 C7536 1.368 . S
H7521 C7529 0.950 . S
H7522 C7527 0.950 . S
H7523 C7528 0.949 . S
H7524 C7530 0.950 . S
H7525 C7531 0.950 . S
H7526 C7532 0.949 . S
C7527 H7522 0.950 . S
C7527 C7529 1.327 . S
C7527 C7533 1.429 . S
C7528 C7520 1.574 . S
C7528 H7523 0.949 . S
C7528 C7534 1.368 . S
C7529 C7513 1.349 . S
C7529 H7521 0.950 . S
C7529 C7527 1.327 . S
C7530 C7518 1.349 . S
C7530 H7524 0.950 . S
C7530 C7531 1.327 . S
C7531 H7525 0.950 . S
C7531 C7530 1.327 . S
C7531 C7535 1.429 . S
C7532 C7515 1.574 . S
C7532 H7526 0.949 . S
C7532 C7536 1.368 . S
C7533 C7514 1.429 . S
C7533 C7527 1.429 . S
C7533 C7534 1.523 . S
C7534 C7515 1.368 . S
C7534 C7528 1.368 . S
C7534 C7533 1.523 . S
C7535 C7519 1.429 . S
C7535 C7531 1.429 . S
C7535 C7536 1.523 . S
C7536 C7520 1.368 . S
C7536 C7532 1.368 . S
C7536 C7535 1.523 . S
H7537 C7512 0.950 . S
H7538 C7514 0.950 . S
H7539 C7515 0.949 . S
H7540 C7517 0.950 . S
H7541 C7519 0.950 . S
C7542 C7543 1.349 . S
C7542 C7544 1.327 . S
C7542 H7567 0.950 . S
C7543 C7542 1.349 . S
C7543 C7559 1.349 . S
C7544 C7542 1.327 . S
C7544 C7563 1.429 . S
C7544 H7568 0.950 . S
C7545 C7562 1.574 . S
C7545 C7564 1.368 . S
C7545 H7569 0.949 . S
H7546 C7550 0.949 . S
C7547 C7548 1.349 . S
C7547 C7549 1.327 . S
C7547 H7570 0.950 . S
C7548 C7547 1.349 . S
C7548 C7560 1.349 . S
C7549 C7547 1.327 . S
C7549 C7565 1.429 . S
C7549 H7571 0.950 . S
C7550 H7546 0.949 . S
C7550 C7558 1.574 . S
C7550 C7566 1.368 . S
H7551 C7559 0.950 . S
H7552 C7557 0.950 . S
H7553 C7558 0.949 . S
H7554 C7560 0.950 . S
H7555 C7561 0.950 . S
H7556 C7562 0.949 . S
C7557 H7552 0.950 . S
C7557 C7559 1.327 . S
C7557 C7563 1.429 . S
C7558 C7550 1.574 . S
C7558 H7553 0.949 . S
C7558 C7564 1.368 . S
C7559 C7543 1.349 . S
C7559 H7551 0.950 . S
C7559 C7557 1.327 . S
C7560 C7548 1.349 . S
C7560 H7554 0.950 . S
C7560 C7561 1.327 . S
C7561 H7555 0.950 . S
C7561 C7560 1.327 . S
C7561 C7565 1.429 . S
C7562 C7545 1.574 . S
C7562 H7556 0.949 . S
C7562 C7566 1.368 . S
C7563 C7544 1.429 . S
C7563 C7557 1.429 . S
C7563 C7564 1.523 . S
C7564 C7545 1.368 . S
C7564 C7558 1.368 . S
C7564 C7563 1.523 . S
C7565 C7549 1.429 . S
C7565 C7561 1.429 . S
C7565 C7566 1.523 . S
C7566 C7550 1.368 . S
C7566 C7562 1.368 . S
C7566 C7565 1.523 . S
H7567 C7542 0.950 . S
H7568 C7544 0.950 . S
H7569 C7545 0.949 . S
H7570 C7547 0.950 . S
H7571 C7549 0.950 . S
C7572 C7573 1.349 . S
C7572 C7574 1.327 . S
C7572 H7597 0.950 . S
C7573 C7572 1.349 . S
C7573 C7589 1.349 . S
C7574 C7572 1.327 . S
C7574 C7593 1.429 . S
C7574 H7598 0.950 . S
C7575 C7592 1.574 . S
C7575 C7594 1.368 . S
C7575 H7599 0.949 . S
H7576 C7580 0.949 . S
C7577 C7578 1.349 . S
C7577 C7579 1.327 . S
C7577 H7600 0.950 . S
C7578 C7577 1.349 . S
C7578 C7590 1.349 . S
C7579 C7577 1.327 . S
C7579 C7595 1.429 . S
C7579 H7601 0.950 . S
C7580 H7576 0.949 . S
C7580 C7588 1.574 . S
C7580 C7596 1.368 . S
H7581 C7589 0.950 . S
H7582 C7587 0.950 . S
H7583 C7588 0.949 . S
H7584 C7590 0.950 . S
H7585 C7591 0.950 . S
H7586 C7592 0.949 . S
C7587 H7582 0.950 . S
C7587 C7589 1.327 . S
C7587 C7593 1.429 . S
C7588 C7580 1.574 . S
C7588 H7583 0.949 . S
C7588 C7594 1.368 . S
C7589 C7573 1.349 . S
C7589 H7581 0.950 . S
C7589 C7587 1.327 . S
C7590 C7578 1.349 . S
C7590 H7584 0.950 . S
C7590 C7591 1.327 . S
C7591 H7585 0.950 . S
C7591 C7590 1.327 . S
C7591 C7595 1.429 . S
C7592 C7575 1.574 . S
C7592 H7586 0.949 . S
C7592 C7596 1.368 . S
C7593 C7574 1.429 . S
C7593 C7587 1.429 . S
C7593 C7594 1.523 . S
C7594 C7575 1.368 . S
C7594 C7588 1.368 . S
C7594 C7593 1.523 . S
C7595 C7579 1.429 . S
C7595 C7591 1.429 . S
C7595 C7596 1.523 . S
C7596 C7580 1.368 . S
C7596 C7592 1.368 . S
C7596 C7595 1.523 . S
H7597 C7572 0.950 . S
H7598 C7574 0.950 . S
H7599 C7575 0.949 . S
H7600 C7577 0.950 . S
H7601 C7579 0.950 . S
C7602 C7603 1.349 . S
C7602 C7604 1.327 . S
C7602 H7627 0.950 . S
C7603 C7602 1.349 . S
C7603 C7619 1.349 . S
C7604 C7602 1.327 . S
C7604 C7623 1.429 . S
C7604 H7628 0.950 . S
C7605 C7622 1.574 . S
C7605 C7624 1.368 . S
C7605 H7629 0.949 . S
H7606 C7610 0.949 . S
C7607 C7608 1.349 . S
C7607 C7609 1.327 . S
C7607 H7630 0.950 . S
C7608 C7607 1.349 . S
C7608 C7620 1.349 . S
C7609 C7607 1.327 . S
C7609 C7625 1.429 . S
C7609 H7631 0.950 . S
C7610 H7606 0.949 . S
C7610 C7618 1.574 . S
C7610 C7626 1.368 . S
H7611 C7619 0.950 . S
H7612 C7617 0.950 . S
H7613 C7618 0.949 . S
H7614 C7620 0.950 . S
H7615 C7621 0.950 . S
H7616 C7622 0.949 . S
C7617 H7612 0.950 . S
C7617 C7619 1.327 . S
C7617 C7623 1.429 . S
C7618 C7610 1.574 . S
C7618 H7613 0.949 . S
C7618 C7624 1.368 . S
C7619 C7603 1.349 . S
C7619 H7611 0.950 . S
C7619 C7617 1.327 . S
C7620 C7608 1.349 . S
C7620 H7614 0.950 . S
C7620 C7621 1.327 . S
C7621 H7615 0.950 . S
C7621 C7620 1.327 . S
C7621 C7625 1.429 . S
C7622 C7605 1.574 . S
C7622 H7616 0.949 . S
C7622 C7626 1.368 . S
C7623 C7604 1.429 . S
C7623 C7617 1.429 . S
C7623 C7624 1.523 . S
C7624 C7605 1.368 . S
C7624 C7618 1.368 . S
C7624 C7623 1.523 . S
C7625 C7609 1.429 . S
C7625 C7621 1.429 . S
C7625 C7626 1.523 . S
C7626 C7610 1.368 . S
C7626 C7622 1.368 . S
C7626 C7625 1.523 . S
H7627 C7602 0.950 . S
H7628 C7604 0.950 . S
H7629 C7605 0.949 . S
H7630 C7607 0.950 . S
H7631 C7609 0.950 . S
C7632 C7633 1.349 . S
C7632 C7634 1.327 . S
C7632 H7657 0.950 . S
C7633 C7632 1.349 . S
C7633 C7649 1.349 . S
C7634 C7632 1.327 . S
C7634 C7653 1.429 . S
C7634 H7658 0.950 . S
C7635 C7652 1.574 . S
C7635 C7654 1.368 . S
C7635 H7659 0.949 . S
H7636 C7640 0.949 . S
C7637 C7638 1.349 . S
C7637 C7639 1.327 . S
C7637 H7660 0.950 . S
C7638 C7637 1.349 . S
C7638 C7650 1.349 . S
C7639 C7637 1.327 . S
C7639 C7655 1.429 . S
C7639 H7661 0.950 . S
C7640 H7636 0.949 . S
C7640 C7648 1.574 . S
C7640 C7656 1.368 . S
H7641 C7649 0.950 . S
H7642 C7647 0.950 . S
H7643 C7648 0.949 . S
H7644 C7650 0.950 . S
H7645 C7651 0.950 . S
H7646 C7652 0.949 . S
C7647 H7642 0.950 . S
C7647 C7649 1.327 . S
C7647 C7653 1.429 . S
C7648 C7640 1.574 . S
C7648 H7643 0.949 . S
C7648 C7654 1.368 . S
C7649 C7633 1.349 . S
C7649 H7641 0.950 . S
C7649 C7647 1.327 . S
C7650 C7638 1.349 . S
C7650 H7644 0.950 . S
C7650 C7651 1.327 . S
C7651 H7645 0.950 . S
C7651 C7650 1.327 . S
C7651 C7655 1.429 . S
C7652 C7635 1.574 . S
C7652 H7646 0.949 . S
C7652 C7656 1.368 . S
C7653 C7634 1.429 . S
C7653 C7647 1.429 . S
C7653 C7654 1.523 . S
C7654 C7635 1.368 . S
C7654 C7648 1.368 . S
C7654 C7653 1.523 . S
C7655 C7639 1.429 . S
C7655 C7651 1.429 . S
C7655 C7656 1.523 . S
C7656 C7640 1.368 . S
C7656 C7652 1.368 . S
C7656 C7655 1.523 . S
H7657 C7632 0.950 . S
H7658 C7634 0.950 . S
H7659 C7635 0.949 . S
H7660 C7637 0.950 . S
H7661 C7639 0.950 . S
C7662 C7663 1.349 . S
C7662 C7664 1.327 . S
C7662 H7687 0.950 . S
C7663 C7662 1.349 . S
C7663 C7679 1.349 . S
C7664 C7662 1.327 . S
C7664 C7683 1.429 . S
C7664 H7688 0.950 . S
C7665 C7682 1.574 . S
C7665 C7684 1.368 . S
C7665 H7689 0.949 . S
H7666 C7670 0.949 . S
C7667 C7668 1.349 . S
C7667 C7669 1.327 . S
C7667 H7690 0.950 . S
C7668 C7667 1.349 . S
C7668 C7680 1.349 . S
C7669 C7667 1.327 . S
C7669 C7685 1.429 . S
C7669 H7691 0.950 . S
C7670 H7666 0.949 . S
C7670 C7678 1.574 . S
C7670 C7686 1.368 . S
H7671 C7679 0.950 . S
H7672 C7677 0.950 . S
H7673 C7678 0.949 . S
H7674 C7680 0.950 . S
H7675 C7681 0.950 . S
H7676 C7682 0.949 . S
C7677 H7672 0.950 . S
C7677 C7679 1.327 . S
C7677 C7683 1.429 . S
C7678 C7670 1.574 . S
C7678 H7673 0.949 . S
C7678 C7684 1.368 . S
C7679 C7663 1.349 . S
C7679 H7671 0.950 . S
C7679 C7677 1.327 . S
C7680 C7668 1.349 . S
C7680 H7674 0.950 . S
C7680 C7681 1.327 . S
C7681 H7675 0.950 . S
C7681 C7680 1.327 . S
C7681 C7685 1.429 . S
C7682 C7665 1.574 . S
C7682 H7676 0.949 . S
C7682 C7686 1.368 . S
C7683 C7664 1.429 . S
C7683 C7677 1.429 . S
C7683 C7684 1.523 . S
C7684 C7665 1.368 . S
C7684 C7678 1.368 . S
C7684 C7683 1.523 . S
C7685 C7669 1.429 . S
C7685 C7681 1.429 . S
C7685 C7686 1.523 . S
C7686 C7670 1.368 . S
C7686 C7682 1.368 . S
C7686 C7685 1.523 . S
H7687 C7662 0.950 . S
H7688 C7664 0.950 . S
H7689 C7665 0.949 . S
H7690 C7667 0.950 . S
H7691 C7669 0.950 . S
C7692 C7693 1.349 . S
C7692 C7694 1.327 . S
C7692 H7717 0.950 . S
C7693 C7692 1.349 . S
C7693 C7709 1.349 . S
C7694 C7692 1.327 . S
C7694 C7713 1.429 . S
C7694 H7718 0.950 . S
C7695 C7712 1.574 . S
C7695 C7714 1.368 . S
C7695 H7719 0.949 . S
H7696 C7700 0.949 . S
C7697 C7698 1.349 . S
C7697 C7699 1.327 . S
C7697 H7720 0.950 . S
C7698 C7697 1.349 . S
C7698 C7710 1.349 . S
C7699 C7697 1.327 . S
C7699 C7715 1.429 . S
C7699 H7721 0.950 . S
C7700 H7696 0.949 . S
C7700 C7708 1.574 . S
C7700 C7716 1.368 . S
H7701 C7709 0.950 . S
H7702 C7707 0.950 . S
H7703 C7708 0.949 . S
H7704 C7710 0.950 . S
H7705 C7711 0.950 . S
H7706 C7712 0.949 . S
C7707 H7702 0.950 . S
C7707 C7709 1.327 . S
C7707 C7713 1.429 . S
C7708 C7700 1.574 . S
C7708 H7703 0.949 . S
C7708 C7714 1.368 . S
C7709 C7693 1.349 . S
C7709 H7701 0.950 . S
C7709 C7707 1.327 . S
C7710 C7698 1.349 . S
C7710 H7704 0.950 . S
C7710 C7711 1.327 . S
C7711 H7705 0.950 . S
C7711 C7710 1.327 . S
C7711 C7715 1.429 . S
C7712 C7695 1.574 . S
C7712 H7706 0.949 . S
C7712 C7716 1.368 . S
C7713 C7694 1.429 . S
C7713 C7707 1.429 . S
C7713 C7714 1.523 . S
C7714 C7695 1.368 . S
C7714 C7708 1.368 . S
C7714 C7713 1.523 . S
C7715 C7699 1.429 . S
C7715 C7711 1.429 . S
C7715 C7716 1.523 . S
C7716 C7700 1.368 . S
C7716 C7712 1.368 . S
C7716 C7715 1.523 . S
H7717 C7692 0.950 . S
H7718 C7694 0.950 . S
H7719 C7695 0.949 . S
H7720 C7697 0.950 . S
H7721 C7699 0.950 . S
C7722 C7723 1.349 . S
C7722 C7724 1.327 . S
C7722 H7747 0.950 . S
C7723 C7722 1.349 . S
C7723 C7739 1.349 . S
C7724 C7722 1.327 . S
C7724 C7743 1.429 . S
C7724 H7748 0.950 . S
C7725 C7742 1.574 . S
C7725 C7744 1.368 . S
C7725 H7749 0.949 . S
H7726 C7730 0.949 . S
C7727 C7728 1.349 . S
C7727 C7729 1.327 . S
C7727 H7750 0.950 . S
C7728 C7727 1.349 . S
C7728 C7740 1.349 . S
C7729 C7727 1.327 . S
C7729 C7745 1.429 . S
C7729 H7751 0.950 . S
C7730 H7726 0.949 . S
C7730 C7738 1.574 . S
C7730 C7746 1.368 . S
H7731 C7739 0.950 . S
H7732 C7737 0.950 . S
H7733 C7738 0.949 . S
H7734 C7740 0.950 . S
H7735 C7741 0.950 . S
H7736 C7742 0.949 . S
C7737 H7732 0.950 . S
C7737 C7739 1.327 . S
C7737 C7743 1.429 . S
C7738 C7730 1.574 . S
C7738 H7733 0.949 . S
C7738 C7744 1.368 . S
C7739 C7723 1.349 . S
C7739 H7731 0.950 . S
C7739 C7737 1.327 . S
C7740 C7728 1.349 . S
C7740 H7734 0.950 . S
C7740 C7741 1.327 . S
C7741 H7735 0.950 . S
C7741 C7740 1.327 . S
C7741 C7745 1.429 . S
C7742 C7725 1.574 . S
C7742 H7736 0.949 . S
C7742 C7746 1.368 . S
C7743 C7724 1.429 . S
C7743 C7737 1.429 . S
C7743 C7744 1.523 . S
C7744 C7725 1.368 . S
C7744 C7738 1.368 . S
C7744 C7743 1.523 . S
C7745 C7729 1.429 . S
C7745 C7741 1.429 . S
C7745 C7746 1.523 . S
C7746 C7730 1.368 . S
C7746 C7742 1.368 . S
C7746 C7745 1.523 . S
H7747 C7722 0.950 . S
H7748 C7724 0.950 . S
H7749 C7725 0.949 . S
H7750 C7727 0.950 . S
H7751 C7729 0.950 . S
C7752 C7753 1.349 . S
C7752 C7754 1.327 . S
C7752 H7777 0.950 . S
C7753 C7752 1.349 . S
C7753 C7769 1.349 . S
C7754 C7752 1.327 . S
C7754 C7773 1.429 . S
C7754 H7778 0.950 . S
C7755 C7772 1.574 . S
C7755 C7774 1.368 . S
C7755 H7779 0.949 . S
H7756 C7760 0.949 . S
C7757 C7758 1.349 . S
C7757 C7759 1.327 . S
C7757 H7780 0.950 . S
C7758 C7757 1.349 . S
C7758 C7770 1.349 . S
C7759 C7757 1.327 . S
C7759 C7775 1.429 . S
C7759 H7781 0.950 . S
C7760 H7756 0.949 . S
C7760 C7768 1.574 . S
C7760 C7776 1.368 . S
H7761 C7769 0.950 . S
H7762 C7767 0.950 . S
H7763 C7768 0.949 . S
H7764 C7770 0.950 . S
H7765 C7771 0.950 . S
H7766 C7772 0.949 . S
C7767 H7762 0.950 . S
C7767 C7769 1.327 . S
C7767 C7773 1.429 . S
C7768 C7760 1.574 . S
C7768 H7763 0.949 . S
C7768 C7774 1.368 . S
C7769 C7753 1.349 . S
C7769 H7761 0.950 . S
C7769 C7767 1.327 . S
C7770 C7758 1.349 . S
C7770 H7764 0.950 . S
C7770 C7771 1.327 . S
C7771 H7765 0.950 . S
C7771 C7770 1.327 . S
C7771 C7775 1.429 . S
C7772 C7755 1.574 . S
C7772 H7766 0.949 . S
C7772 C7776 1.368 . S
C7773 C7754 1.429 . S
C7773 C7767 1.429 . S
C7773 C7774 1.523 . S
C7774 C7755 1.368 . S
C7774 C7768 1.368 . S
C7774 C7773 1.523 . S
C7775 C7759 1.429 . S
C7775 C7771 1.429 . S
C7775 C7776 1.523 . S
C7776 C7760 1.368 . S
C7776 C7772 1.368 . S
C7776 C7775 1.523 . S
H7777 C7752 0.950 . S
H7778 C7754 0.950 . S
H7779 C7755 0.949 . S
H7780 C7757 0.950 . S
H7781 C7759 0.950 . S
C7782 C7783 1.349 . S
C7782 C7784 1.327 . S
C7782 H7807 0.950 . S
C7783 C7782 1.349 . S
C7783 C7799 1.349 . S
C7784 C7782 1.327 . S
C7784 C7803 1.429 . S
C7784 H7808 0.950 . S
C7785 C7802 1.574 . S
C7785 C7804 1.368 . S
C7785 H7809 0.949 . S
H7786 C7790 0.949 . S
C7787 C7788 1.349 . S
C7787 C7789 1.327 . S
C7787 H7810 0.950 . S
C7788 C7787 1.349 . S
C7788 C7800 1.349 . S
C7789 C7787 1.327 . S
C7789 C7805 1.429 . S
C7789 H7811 0.950 . S
C7790 H7786 0.949 . S
C7790 C7798 1.574 . S
C7790 C7806 1.368 . S
H7791 C7799 0.950 . S
H7792 C7797 0.950 . S
H7793 C7798 0.949 . S
H7794 C7800 0.950 . S
H7795 C7801 0.950 . S
H7796 C7802 0.949 . S
C7797 H7792 0.950 . S
C7797 C7799 1.327 . S
C7797 C7803 1.429 . S
C7798 C7790 1.574 . S
C7798 H7793 0.949 . S
C7798 C7804 1.368 . S
C7799 C7783 1.349 . S
C7799 H7791 0.950 . S
C7799 C7797 1.327 . S
C7800 C7788 1.349 . S
C7800 H7794 0.950 . S
C7800 C7801 1.327 . S
C7801 H7795 0.950 . S
C7801 C7800 1.327 . S
C7801 C7805 1.429 . S
C7802 C7785 1.574 . S
C7802 H7796 0.949 . S
C7802 C7806 1.368 . S
C7803 C7784 1.429 . S
C7803 C7797 1.429 . S
C7803 C7804 1.523 . S
C7804 C7785 1.368 . S
C7804 C7798 1.368 . S
C7804 C7803 1.523 . S
C7805 C7789 1.429 . S
C7805 C7801 1.429 . S
C7805 C7806 1.523 . S
C7806 C7790 1.368 . S
C7806 C7802 1.368 . S
C7806 C7805 1.523 . S
H7807 C7782 0.950 . S
H7808 C7784 0.950 . S
H7809 C7785 0.949 . S
H7810 C7787 0.950 . S
H7811 C7789 0.950 . S
C7812 C7813 1.349 . S
C7812 C7814 1.327 . S
C7812 H7837 0.950 . S
C7813 C7812 1.349 . S
C7813 C7829 1.349 . S
C7814 C7812 1.327 . S
C7814 C7833 1.429 . S
C7814 H7838 0.950 . S
C7815 C7832 1.574 . S
C7815 C7834 1.368 . S
C7815 H7839 0.949 . S
H7816 C7820 0.949 . S
C7817 C7818 1.349 . S
C7817 C7819 1.327 . S
C7817 H7840 0.950 . S
C7818 C7817 1.349 . S
C7818 C7830 1.349 . S
C7819 C7817 1.327 . S
C7819 C7835 1.429 . S
C7819 H7841 0.950 . S
C7820 H7816 0.949 . S
C7820 C7828 1.574 . S
C7820 C7836 1.368 . S
H7821 C7829 0.950 . S
H7822 C7827 0.950 . S
H7823 C7828 0.949 . S
H7824 C7830 0.950 . S
H7825 C7831 0.950 . S
H7826 C7832 0.949 . S
C7827 H7822 0.950 . S
C7827 C7829 1.327 . S
C7827 C7833 1.429 . S
C7828 C7820 1.574 . S
C7828 H7823 0.949 . S
C7828 C7834 1.368 . S
C7829 C7813 1.349 . S
C7829 H7821 0.950 . S
C7829 C7827 1.327 . S
C7830 C7818 1.349 . S
C7830 H7824 0.950 . S
C7830 C7831 1.327 . S
C7831 H7825 0.950 . S
C7831 C7830 1.327 . S
C7831 C7835 1.429 . S
C7832 C7815 1.574 . S
C7832 H7826 0.949 . S
C7832 C7836 1.368 . S
C7833 C7814 1.429 . S
C7833 C7827 1.429 . S
C7833 C7834 1.523 . S
C7834 C7815 1.368 . S
C7834 C7828 1.368 . S
C7834 C7833 1.523 . S
C7835 C7819 1.429 . S
C7835 C7831 1.429 . S
C7835 C7836 1.523 . S
C7836 C7820 1.368 . S
C7836 C7832 1.368 . S
C7836 C7835 1.523 . S
H7837 C7812 0.950 . S
H7838 C7814 0.950 . S
H7839 C7815 0.949 . S
H7840 C7817 0.950 . S
H7841 C7819 0.950 . S
C7842 C7843 1.349 . S
C7842 C7844 1.327 . S
C7842 H7867 0.950 . S
C7843 C7842 1.349 . S
C7843 C7859 1.349 . S
C7844 C7842 1.327 . S
C7844 C7863 1.429 . S
C7844 H7868 0.950 . S
C7845 C7862 1.574 . S
C7845 C7864 1.368 . S
C7845 H7869 0.949 . S
H7846 C7850 0.949 . S
C7847 C7848 1.349 . S
C7847 C7849 1.327 . S
C7847 H7870 0.950 . S
C7848 C7847 1.349 . S
C7848 C7860 1.349 . S
C7849 C7847 1.327 . S
C7849 C7865 1.429 . S
C7849 H7871 0.950 . S
C7850 H7846 0.949 . S
C7850 C7858 1.574 . S
C7850 C7866 1.368 . S
H7851 C7859 0.950 . S
H7852 C7857 0.950 . S
H7853 C7858 0.949 . S
H7854 C7860 0.950 . S
H7855 C7861 0.950 . S
H7856 C7862 0.949 . S
C7857 H7852 0.950 . S
C7857 C7859 1.327 . S
C7857 C7863 1.429 . S
C7858 C7850 1.574 . S
C7858 H7853 0.949 . S
C7858 C7864 1.368 . S
C7859 C7843 1.349 . S
C7859 H7851 0.950 . S
C7859 C7857 1.327 . S
C7860 C7848 1.349 . S
C7860 H7854 0.950 . S
C7860 C7861 1.327 . S
C7861 H7855 0.950 . S
C7861 C7860 1.327 . S
C7861 C7865 1.429 . S
C7862 C7845 1.574 . S
C7862 H7856 0.949 . S
C7862 C7866 1.368 . S
C7863 C7844 1.429 . S
C7863 C7857 1.429 . S
C7863 C7864 1.523 . S
C7864 C7845 1.368 . S
C7864 C7858 1.368 . S
C7864 C7863 1.523 . S
C7865 C7849 1.429 . S
C7865 C7861 1.429 . S
C7865 C7866 1.523 . S
C7866 C7850 1.368 . S
C7866 C7862 1.368 . S
C7866 C7865 1.523 . S
H7867 C7842 0.950 . S
H7868 C7844 0.950 . S
H7869 C7845 0.949 . S
H7870 C7847 0.950 . S
H7871 C7849 0.950 . S
C7872 C7873 1.349 . S
C7872 C7874 1.327 . S
C7872 H7897 0.950 . S
C7873 C7872 1.349 . S
C7873 C7889 1.349 . S
C7874 C7872 1.327 . S
C7874 C7893 1.429 . S
C7874 H7898 0.950 . S
C7875 C7892 1.574 . S
C7875 C7894 1.368 . S
C7875 H7899 0.949 . S
H7876 C7880 0.949 . S
C7877 C7878 1.349 . S
C7877 C7879 1.327 . S
C7877 H7900 0.950 . S
C7878 C7877 1.349 . S
C7878 C7890 1.349 . S
C7879 C7877 1.327 . S
C7879 C7895 1.429 . S
C7879 H7901 0.950 . S
C7880 H7876 0.949 . S
C7880 C7888 1.574 . S
C7880 C7896 1.368 . S
H7881 C7889 0.950 . S
H7882 C7887 0.950 . S
H7883 C7888 0.949 . S
H7884 C7890 0.950 . S
H7885 C7891 0.950 . S
H7886 C7892 0.949 . S
C7887 H7882 0.950 . S
C7887 C7889 1.327 . S
C7887 C7893 1.429 . S
C7888 C7880 1.574 . S
C7888 H7883 0.949 . S
C7888 C7894 1.368 . S
C7889 C7873 1.349 . S
C7889 H7881 0.950 . S
C7889 C7887 1.327 . S
C7890 C7878 1.349 . S
C7890 H7884 0.950 . S
C7890 C7891 1.327 . S
C7891 H7885 0.950 . S
C7891 C7890 1.327 . S
C7891 C7895 1.429 . S
C7892 C7875 1.574 . S
C7892 H7886 0.949 . S
C7892 C7896 1.368 . S
C7893 C7874 1.429 . S
C7893 C7887 1.429 . S
C7893 C7894 1.523 . S
C7894 C7875 1.368 . S
C7894 C7888 1.368 . S
C7894 C7893 1.523 . S
C7895 C7879 1.429 . S
C7895 C7891 1.429 . S
C7895 C7896 1.523 . S
C7896 C7880 1.368 . S
C7896 C7892 1.368 . S
C7896 C7895 1.523 . S
H7897 C7872 0.950 . S
H7898 C7874 0.950 . S
H7899 C7875 0.949 . S
H7900 C7877 0.950 . S
H7901 C7879 0.950 . S
C7902 C7903 1.349 . S
C7902 C7904 1.327 . S
C7902 H7927 0.950 . S
C7903 C7902 1.349 . S
C7903 C7919 1.349 . S
C7904 C7902 1.327 . S
C7904 C7923 1.429 . S
C7904 H7928 0.950 . S
C7905 C7922 1.574 . S
C7905 C7924 1.368 . S
C7905 H7929 0.949 . S
H7906 C7910 0.949 . S
C7907 C7908 1.349 . S
C7907 C7909 1.327 . S
C7907 H7930 0.950 . S
C7908 C7907 1.349 . S
C7908 C7920 1.349 . S
C7909 C7907 1.327 . S
C7909 C7925 1.429 . S
C7909 H7931 0.950 . S
C7910 H7906 0.949 . S
C7910 C7918 1.574 . S
C7910 C7926 1.368 . S
H7911 C7919 0.950 . S
H7912 C7917 0.950 . S
H7913 C7918 0.949 . S
H7914 C7920 0.950 . S
H7915 C7921 0.950 . S
H7916 C7922 0.949 . S
C7917 H7912 0.950 . S
C7917 C7919 1.327 . S
C7917 C7923 1.429 . S
C7918 C7910 1.574 . S
C7918 H7913 0.949 . S
C7918 C7924 1.368 . S
C7919 C7903 1.349 . S
C7919 H7911 0.950 . S
C7919 C7917 1.327 . S
C7920 C7908 1.349 . S
C7920 H7914 0.950 . S
C7920 C7921 1.327 . S
C7921 H7915 0.950 . S
C7921 C7920 1.327 . S
C7921 C7925 1.429 . S
C7922 C7905 1.574 . S
C7922 H7916 0.949 . S
C7922 C7926 1.368 . S
C7923 C7904 1.429 . S
C7923 C7917 1.429 . S
C7923 C7924 1.523 . S
C7924 C7905 1.368 . S
C7924 C7918 1.368 . S
C7924 C7923 1.523 . S
C7925 C7909 1.429 . S
C7925 C7921 1.429 . S
C7925 C7926 1.523 . S
C7926 C7910 1.368 . S
C7926 C7922 1.368 . S
C7926 C7925 1.523 . S
H7927 C7902 0.950 . S
H7928 C7904 0.950 . S
H7929 C7905 0.949 . S
H7930 C7907 0.950 . S
H7931 C7909 0.950 . S
C7932 C7933 1.349 . S
C7932 C7934 1.327 . S
C7932 H7957 0.950 . S
C7933 C7932 1.349 . S
C7933 C7949 1.349 . S
C7934 C7932 1.327 . S
C7934 C7953 1.429 . S
C7934 H7958 0.950 . S
C7935 C7952 1.574 . S
C7935 C7954 1.368 . S
C7935 H7959 0.949 . S
H7936 C7940 0.949 . S
C7937 C7938 1.349 . S
C7937 C7939 1.327 . S
C7937 H7960 0.950 . S
C7938 C7937 1.349 . S
C7938 C7950 1.349 . S
C7939 C7937 1.327 . S
C7939 C7955 1.429 . S
C7939 H7961 0.950 . S
C7940 H7936 0.949 . S
C7940 C7948 1.574 . S
C7940 C7956 1.368 . S
H7941 C7949 0.950 . S
H7942 C7947 0.950 . S
H7943 C7948 0.949 . S
H7944 C7950 0.950 . S
H7945 C7951 0.950 . S
H7946 C7952 0.949 . S
C7947 H7942 0.950 . S
C7947 C7949 1.327 . S
C7947 C7953 1.429 . S
C7948 C7940 1.574 . S
C7948 H7943 0.949 . S
C7948 C7954 1.368 . S
C7949 C7933 1.349 . S
C7949 H7941 0.950 . S
C7949 C7947 1.327 . S
C7950 C7938 1.349 . S
C7950 H7944 0.950 . S
C7950 C7951 1.327 . S
C7951 H7945 0.950 . S
C7951 C7950 1.327 . S
C7951 C7955 1.429 . S
C7952 C7935 1.574 . S
C7952 H7946 0.949 . S
C7952 C7956 1.368 . S
C7953 C7934 1.429 . S
C7953 C7947 1.429 . S
C7953 C7954 1.523 . S
C7954 C7935 1.368 . S
C7954 C7948 1.368 . S
C7954 C7953 1.523 . S
C7955 C7939 1.429 . S
C7955 C7951 1.429 . S
C7955 C7956 1.523 . S
C7956 C7940 1.368 . S
C7956 C7952 1.368 . S
C7956 C7955 1.523 . S
H7957 C7932 0.950 . S
H7958 C7934 0.950 . S
H7959 C7935 0.949 . S
H7960 C7937 0.950 . S
H7961 C7939 0.950 . S
C7962 C7963 1.349 . S
C7962 C7964 1.327 . S
C7962 H7987 0.950 . S
C7963 C7962 1.349 . S
C7963 C7979 1.349 . S
C7964 C7962 1.327 . S
C7964 C7983 1.429 . S
C7964 H7988 0.950 . S
C7965 C7982 1.574 . S
C7965 C7984 1.368 . S
C7965 H7989 0.949 . S
H7966 C7970 0.949 . S
C7967 C7968 1.349 . S
C7967 C7969 1.327 . S
C7967 H7990 0.950 . S
C7968 C7967 1.349 . S
C7968 C7980 1.349 . S
C7969 C7967 1.327 . S
C7969 C7985 1.429 . S
C7969 H7991 0.950 . S
C7970 H7966 0.949 . S
C7970 C7978 1.574 . S
C7970 C7986 1.368 . S
H7971 C7979 0.950 . S
H7972 C7977 0.950 . S
H7973 C7978 0.949 . S
H7974 C7980 0.950 . S
H7975 C7981 0.950 . S
H7976 C7982 0.949 . S
C7977 H7972 0.950 . S
C7977 C7979 1.327 . S
C7977 C7983 1.429 . S
C7978 C7970 1.574 . S
C7978 H7973 0.949 . S
C7978 C7984 1.368 . S
C7979 C7963 1.349 . S
C7979 H7971 0.950 . S
C7979 C7977 1.327 . S
C7980 C7968 1.349 . S
C7980 H7974 0.950 . S
C7980 C7981 1.327 . S
C7981 H7975 0.950 . S
C7981 C7980 1.327 . S
C7981 C7985 1.429 . S
C7982 C7965 1.574 . S
C7982 H7976 0.949 . S
C7982 C7986 1.368 . S
C7983 C7964 1.429 . S
C7983 C7977 1.429 . S
C7983 C7984 1.523 . S
C7984 C7965 1.368 . S
C7984 C7978 1.368 . S
C7984 C7983 1.523 . S
C7985 C7969 1.429 . S
C7985 C7981 1.429 . S
C7985 C7986 1.523 . S
C7986 C7970 1.368 . S
C7986 C7982 1.368 . S
C7986 C7985 1.523 . S
H7987 C7962 0.950 . S
H7988 C7964 0.950 . S
H7989 C7965 0.949 . S
H7990 C7967 0.950 . S
H7991 C7969 0.950 . S
C7992 C7993 1.349 . S
C7992 C7994 1.327 . S
C7992 H8017 0.950 . S
C7993 C7992 1.349 . S
C7993 C8009 1.349 . S
C7994 C7992 1.327 . S
C7994 C8013 1.429 . S
C7994 H8018 0.950 . S
C7995 C8012 1.574 . S
C7995 C8014 1.368 . S
C7995 H8019 0.949 . S
H7996 C8000 0.949 . S
C7997 C7998 1.349 . S
C7997 C7999 1.327 . S
C7997 H8020 0.950 . S
C7998 C7997 1.349 . S
C7998 C8010 1.349 . S
C7999 C7997 1.327 . S
C7999 C8015 1.429 . S
C7999 H8021 0.950 . S
C8000 H7996 0.949 . S
C8000 C8008 1.574 . S
C8000 C8016 1.368 . S
H8001 C8009 0.950 . S
H8002 C8007 0.950 . S
H8003 C8008 0.949 . S
H8004 C8010 0.950 . S
H8005 C8011 0.950 . S
H8006 C8012 0.949 . S
C8007 H8002 0.950 . S
C8007 C8009 1.327 . S
C8007 C8013 1.429 . S
C8008 C8000 1.574 . S
C8008 H8003 0.949 . S
C8008 C8014 1.368 . S
C8009 C7993 1.349 . S
C8009 H8001 0.950 . S
C8009 C8007 1.327 . S
C8010 C7998 1.349 . S
C8010 H8004 0.950 . S
C8010 C8011 1.327 . S
C8011 H8005 0.950 . S
C8011 C8010 1.327 . S
C8011 C8015 1.429 . S
C8012 C7995 1.574 . S
C8012 H8006 0.949 . S
C8012 C8016 1.368 . S
C8013 C7994 1.429 . S
C8013 C8007 1.429 . S
C8013 C8014 1.523 . S
C8014 C7995 1.368 . S
C8014 C8008 1.368 . S
C8014 C8013 1.523 . S
C8015 C7999 1.429 . S
C8015 C8011 1.429 . S
C8015 C8016 1.523 . S
C8016 C8000 1.368 . S
C8016 C8012 1.368 . S
C8016 C8015 1.523 . S
H8017 C7992 0.950 . S
H8018 C7994 0.950 . S
H8019 C7995 0.949 . S
H8020 C7997 0.950 . S
H8021 C7999 0.950 . S
C8022 C8023 1.349 . S
C8022 C8024 1.327 . S
C8022 H8047 0.950 . S
C8023 C8022 1.349 . S
C8023 C8039 1.349 . S
C8024 C8022 1.327 . S
C8024 C8043 1.429 . S
C8024 H8048 0.950 . S
C8025 C8042 1.574 . S
C8025 C8044 1.368 . S
C8025 H8049 0.949 . S
H8026 C8030 0.949 . S
C8027 C8028 1.349 . S
C8027 C8029 1.327 . S
C8027 H8050 0.950 . S
C8028 C8027 1.349 . S
C8028 C8040 1.349 . S
C8029 C8027 1.327 . S
C8029 C8045 1.429 . S
C8029 H8051 0.950 . S
C8030 H8026 0.949 . S
C8030 C8038 1.574 . S
C8030 C8046 1.368 . S
H8031 C8039 0.950 . S
H8032 C8037 0.950 . S
H8033 C8038 0.949 . S
H8034 C8040 0.950 . S
H8035 C8041 0.950 . S
H8036 C8042 0.949 . S
C8037 H8032 0.950 . S
C8037 C8039 1.327 . S
C8037 C8043 1.429 . S
C8038 C8030 1.574 . S
C8038 H8033 0.949 . S
C8038 C8044 1.368 . S
C8039 C8023 1.349 . S
C8039 H8031 0.950 . S
C8039 C8037 1.327 . S
C8040 C8028 1.349 . S
C8040 H8034 0.950 . S
C8040 C8041 1.327 . S
C8041 H8035 0.950 . S
C8041 C8040 1.327 . S
C8041 C8045 1.429 . S
C8042 C8025 1.574 . S
C8042 H8036 0.949 . S
C8042 C8046 1.368 . S
C8043 C8024 1.429 . S
C8043 C8037 1.429 . S
C8043 C8044 1.523 . S
C8044 C8025 1.368 . S
C8044 C8038 1.368 . S
C8044 C8043 1.523 . S
C8045 C8029 1.429 . S
C8045 C8041 1.429 . S
C8045 C8046 1.523 . S
C8046 C8030 1.368 . S
C8046 C8042 1.368 . S
C8046 C8045 1.523 . S
H8047 C8022 0.950 . S
H8048 C8024 0.950 . S
H8049 C8025 0.949 . S
H8050 C8027 0.950 . S
H8051 C8029 0.950 . S
C8052 C8053 1.349 . S
C8052 C8054 1.327 . S
C8052 H8077 0.950 . S
C8053 C8052 1.349 . S
C8053 C8069 1.349 . S
C8054 C8052 1.327 . S
C8054 C8073 1.429 . S
C8054 H8078 0.950 . S
C8055 C8072 1.574 . S
C8055 C8074 1.368 . S
C8055 H8079 0.949 . S
H8056 C8060 0.949 . S
C8057 C8058 1.349 . S
C8057 C8059 1.327 . S
C8057 H8080 0.950 . S
C8058 C8057 1.349 . S
C8058 C8070 1.349 . S
C8059 C8057 1.327 . S
C8059 C8075 1.429 . S
C8059 H8081 0.950 . S
C8060 H8056 0.949 . S
C8060 C8068 1.574 . S
C8060 C8076 1.368 . S
H8061 C8069 0.950 . S
H8062 C8067 0.950 . S
H8063 C8068 0.949 . S
H8064 C8070 0.950 . S
H8065 C8071 0.950 . S
H8066 C8072 0.949 . S
C8067 H8062 0.950 . S
C8067 C8069 1.327 . S
C8067 C8073 1.429 . S
C8068 C8060 1.574 . S
C8068 H8063 0.949 . S
C8068 C8074 1.368 . S
C8069 C8053 1.349 . S
C8069 H8061 0.950 . S
C8069 C8067 1.327 . S
C8070 C8058 1.349 . S
C8070 H8064 0.950 . S
C8070 C8071 1.327 . S
C8071 H8065 0.950 . S
C8071 C8070 1.327 . S
C8071 C8075 1.429 . S
C8072 C8055 1.574 . S
C8072 H8066 0.949 . S
C8072 C8076 1.368 . S
C8073 C8054 1.429 . S
C8073 C8067 1.429 . S
C8073 C8074 1.523 . S
C8074 C8055 1.368 . S
C8074 C8068 1.368 . S
C8074 C8073 1.523 . S
C8075 C8059 1.429 . S
C8075 C8071 1.429 . S
C8075 C8076 1.523 . S
C8076 C8060 1.368 . S
C8076 C8072 1.368 . S
C8076 C8075 1.523 . S
H8077 C8052 0.950 . S
H8078 C8054 0.950 . S
H8079 C8055 0.949 . S
H8080 C8057 0.950 . S
H8081 C8059 0.950 . S
C8082 C8083 1.349 . S
C8082 C8084 1.327 . S
C8082 H8107 0.950 . S
C8083 C8082 1.349 . S
C8083 C8099 1.349 . S
C8084 C8082 1.327 . S
C8084 C8103 1.429 . S
C8084 H8108 0.950 . S
C8085 C8102 1.574 . S
C8085 C8104 1.368 . S
C8085 H8109 0.949 . S
H8086 C8090 0.949 . S
C8087 C8088 1.349 . S
C8087 C8089 1.327 . S
C8087 H8110 0.950 . S
C8088 C8087 1.349 . S
C8088 C8100 1.349 . S
C8089 C8087 1.327 . S
C8089 C8105 1.429 . S
C8089 H8111 0.950 . S
C8090 H8086 0.949 . S
C8090 C8098 1.574 . S
C8090 C8106 1.368 . S
H8091 C8099 0.950 . S
H8092 C8097 0.950 . S
H8093 C8098 0.949 . S
H8094 C8100 0.950 . S
H8095 C8101 0.950 . S
H8096 C8102 0.949 . S
C8097 H8092 0.950 . S
C8097 C8099 1.327 . S
C8097 C8103 1.429 . S
C8098 C8090 1.574 . S
C8098 H8093 0.949 . S
C8098 C8104 1.368 . S
C8099 C8083 1.349 . S
C8099 H8091 0.950 . S
C8099 C8097 1.327 . S
C8100 C8088 1.349 . S
C8100 H8094 0.950 . S
C8100 C8101 1.327 . S
C8101 H8095 0.950 . S
C8101 C8100 1.327 . S
C8101 C8105 1.429 . S
C8102 C8085 1.574 . S
C8102 H8096 0.949 . S
C8102 C8106 1.368 . S
C8103 C8084 1.429 . S
C8103 C8097 1.429 . S
C8103 C8104 1.523 . S
C8104 C8085 1.368 . S
C8104 C8098 1.368 . S
C8104 C8103 1.523 . S
C8105 C8089 1.429 . S
C8105 C8101 1.429 . S
C8105 C8106 1.523 . S
C8106 C8090 1.368 . S
C8106 C8102 1.368 . S
C8106 C8105 1.523 . S
H8107 C8082 0.950 . S
H8108 C8084 0.950 . S
H8109 C8085 0.949 . S
H8110 C8087 0.950 . S
H8111 C8089 0.950 . S
C3793 C1781 1.679 . S
C3798 C1921 1.701 . S
C3823 C981 1.678 . S
C3828 C1960 1.701 . S
C3858 C1999 1.689 . S
C3853 C1861 1.714 . S
C3883 C1061 1.746 . S
C3888 C2038 1.717 . S
C3913 C1901 1.686 . S
C3918 C2077 1.710 . S
C3943 C941 1.669 . S
C3948 C2116 1.692 . S
C3973 C1821 1.737 . S
C3978 C2155 1.709 . S
C4003 C1021 1.723 . S
C4008 C2194 1.698 . S
C4033 C661 1.655 . S
C4038 C2233 1.675 . S
C4063 C1621 1.733 . S
C4068 C2272 1.709 . S
C4093 C741 1.658 . S
C4098 C2311 1.682 . S
C4123 C1581 1.666 . S
C4128 C2350 1.683 . S
C4153 C901 1.714 . S
C4158 C2389 1.686 . S
C4188 C2428 1.694 . S
C4183 C1661 1.721 . S
C4218 C2467 1.710 . S
C4213 C821 1.687 . S
C4243 C1141 1.715 . S
C4248 C2506 1.692 . S
C4278 C2545 1.687 . S
C4273 C781 1.714 . S
C4308 C2584 1.714 . S
C4303 C1701 1.691 . S
C4333 C861 1.722 . S
C4338 C2623 1.699 . S
C4363 C1181 1.654 . S
C4368 C2662 1.677 . S
C4398 C2701 1.681 . S
C4393 C1101 1.660 . S
C4423 C1421 1.658 . S
C4428 C2740 1.674 . S
C4458 C2779 1.673 . S
C4453 C381 1.696 . S
C4488 C2818 1.676 . S
C4483 C1501 1.698 . S
C4518 C2857 1.723 . S
C4513 C461 1.698 . S
C4548 C2896 1.712 . S
C4543 C1541 1.687 . S
C4573 C341 1.663 . S
C4578 C2935 1.679 . S
C4608 C2974 1.685 . S
C4603 C1461 1.707 . S
C4633 C421 1.693 . S
C4638 C3013 1.671 . S
C4668 C3052 1.683 . S
C4663 C61 1.656 . S
C4698 C3091 1.741 . S
C4693 C1261 1.714 . S
C4723 C141 1.671 . S
C4728 C3130 1.688 . S
C4758 C3169 1.697 . S
C4753 C1221 1.726 . S
C4788 C3208 1.675 . S
C4783 C301 1.697 . S
C4813 C1301 1.736 . S
C4818 C3247 1.705 . S
C4848 C3286 1.707 . S
C4843 C221 1.690 . S
C4878 C3325 1.696 . S
C4873 C541 1.719 . S
C4903 C181 1.723 . S
C4908 C3364 1.692 . S
C4938 C3403 1.696 . S
C4933 C1341 1.680 . S
C4963 C261 1.732 . S
C4968 C3442 1.710 . S
C4998 C3481 1.697 . S
C4993 C581 1.680 . S
C5023 C501 1.647 . S
C5028 C3520 1.674 . S
C5053 C701 1.733 . S
C5058 C3559 1.710 . S
C5088 C3598 1.682 . S
C5083 C621 1.664 . S
C5113 C1741 1.710 . S
C5118 C3637 1.682 . S
C5143 C101 1.707 . S
C5148 C3676 1.734 . S
C5178 C3715 1.705 . S
C5173 C21 1.735 . S
C5208 C3754 1.686 . S
C5203 C1381 1.707 . S
C5233 C1335 2.018 . S
C5238 C1936 2.015 . S
C5263 C535 1.561 . S
C5268 C1975 1.548 . S
C5293 C1362 2.124 . S
C5298 C2019 2.071 . S
C5328 C2058 1.536 . S
C5323 C1295 1.557 . S
C5353 C575 2.035 . S
C5358 C2097 2.041 . S
C5383 C1215 1.540 . S
C5388 C2136 1.522 . S
C5418 C2170 2.080 . S
C5413 C495 2.084 . S
C5443 C1242 1.550 . S
C5448 C2209 1.563 . S
C5473 C1255 2.054 . S
C5478 C2248 2.051 . S
C5508 C2287 1.527 . S
C5503 C562 1.514 . S
C5533 C1202 2.062 . S
C5538 C2331 2.010 . S
C5568 C2370 1.532 . S
C5563 C482 1.521 . S
C5593 C522 2.132 . S
C5598 C2404 2.070 . S
C5623 C1375 1.561 . S
C5628 C2448 1.543 . S
C5658 C2487 2.027 . S
C5653 C1282 2.079 . S
C5688 C2521 1.520 . S
C5683 C1322 1.509 . S
C5713 C455 2.015 . S
C5718 C2365 2.011 . S
C5743 C1415 2.010 . S
C5748 C2560 2.005 . S
C5773 C1455 1.544 . S
C5778 C2599 1.527 . S
C5808 C2643 1.998 . S
C5803 C1482 2.047 . S
C5838 C2409 1.550 . S
C5833 C442 1.546 . S
C5863 C362 2.062 . S
C5868 C2292 2.014 . S
C5893 C1495 1.532 . S
C5898 C2677 1.513 . S
C5928 C2721 1.506 . S
C5923 C1402 1.502 . S
C5958 C2755 1.546 . S
C5953 C1695 1.556 . S
C5983 C1135 2.032 . S
C5988 C2794 2.014 . S
C6018 C2838 1.531 . S
C6013 C1722 1.550 . S
C6048 C2872 2.003 . S
C6043 C1655 2.022 . S
C6073 C1175 1.561 . S
C6078 C2916 1.556 . S
C6103 C1562 1.967 . S
C6108 C2955 1.981 . S
C6133 C1095 1.544 . S
C6138 C2994 1.539 . S
C6168 C3028 1.991 . S
C6163 C1615 2.009 . S
C6198 C3072 1.540 . S
C6193 C1602 1.560 . S
C6223 C1162 2.030 . S
C6228 C3106 2.054 . S
C6258 C3145 1.516 . S
C6253 C1575 1.530 . S
C6283 C1082 2.006 . S
C6288 C3189 2.027 . S
C6318 C3228 1.519 . S
C6313 C1122 1.537 . S
C6343 C1735 2.059 . S
C6348 C3267 2.035 . S
C6378 C3301 1.535 . S
C6373 C1642 1.560 . S
C6403 C1682 1.988 . S
C6408 C3340 2.012 . S
C6433 C1042 1.585 . S
C6438 C3184 1.563 . S
C6463 C1775 1.557 . S
C6468 C3379 1.549 . S
C6493 C1815 2.072 . S
C6498 C3423 2.047 . S
C6528 C3462 1.539 . S
C6523 C1842 1.557 . S
C6553 C1055 2.043 . S
C6558 C3223 2.026 . S
C6583 C975 1.563 . S
C6588 C3111 1.557 . S
C6618 C3501 2.043 . S
C6613 C1855 2.068 . S
C6643 C1762 2.003 . S
C6648 C3535 2.028 . S
C6678 C2131 2.023 . S
C6673 C215 2.027 . S
C6708 C2175 1.566 . S
C6703 C255 1.585 . S
C6738 C2214 2.062 . S
C6733 C282 2.115 . S
C6768 C2092 1.517 . S
C6763 C175 1.533 . S
C6798 C2053 2.068 . S
C6793 C135 2.071 . S
C6823 C15 1.540 . S
C6828 C1941 1.523 . S
C6853 C55 2.047 . S
C6858 C1980 2.052 . S
C6883 C82 1.551 . S
C6888 C2014 1.562 . S
C6913 C95 2.030 . S
C6918 C2716 2.027 . S
C6943 C122 1.530 . S
C6948 C3574 1.543 . S
C6973 C2 2.089 . S
C6978 C2682 2.035 . S
C7003 C42 1.504 . S
C7008 C3618 1.514 . S
C7033 C242 2.131 . S
C7038 C3652 2.068 . S
C7068 C2565 1.529 . S
C7063 C295 1.547 . S
C7093 C162 2.081 . S
C7098 C2604 2.030 . S
C7123 C202 1.523 . S
C7128 C2638 1.534 . S
C7158 C3613 2.004 . S
C7153 C1535 2.006 . S
C7183 C335 2.021 . S
C7188 C2443 2.015 . S
C7213 C375 1.538 . S
C7218 C2482 1.520 . S
C7243 C402 2.034 . S
C7248 C2526 1.986 . S
C7278 C3657 1.543 . S
C7273 C1522 1.538 . S
C7308 C3579 2.021 . S
C7303 C1442 2.070 . S
C7338 C2326 1.497 . S
C7333 C415 1.515 . S
C7363 C322 1.519 . S
C7368 C2253 1.522 . S
C7393 C815 1.552 . S
C7398 C2950 1.543 . S
C7423 C855 2.026 . S
C7428 C2989 2.008 . S
C7453 C882 1.553 . S
C7458 C3033 1.534 . S
C7483 C775 2.027 . S
C7488 C2911 2.008 . S
C7518 C2877 1.557 . S
C7513 C735 1.561 . S
C7548 C2760 1.980 . S
C7543 C602 1.966 . S
C7578 C2799 1.538 . S
C7573 C655 1.544 . S
C7603 C695 2.010 . S
C7608 C2833 1.992 . S
C7638 C3540 1.540 . S
C7633 C682 1.560 . S
C7663 C722 2.030 . S
C7668 C3691 2.054 . S
C7693 C615 1.529 . S
C7698 C3496 1.516 . S
C7728 C3735 2.027 . S
C7723 C642 2.007 . S
C7753 C842 1.551 . S
C7758 C3774 1.532 . S
C7788 C3384 2.035 . S
C7783 C895 2.059 . S
C7813 C762 1.547 . S
C7818 C3418 1.522 . S
C7843 C802 1.988 . S
C7848 C3457 2.012 . S
C7873 C1895 1.560 . S
C7878 C3730 1.552 . S
C7908 C3262 1.554 . S
C7903 C935 1.561 . S
C7933 C962 2.015 . S
C7938 C3306 2.033 . S
C7963 C1002 1.554 . S
C7968 C3345 1.535 . S
C7993 C1882 1.988 . S
C7998 C3769 2.013 . S
C8023 C1802 1.588 . S
C8028 C3696 1.568 . S
C8058 C3150 2.035 . S
C8053 C1015 2.062 . S
C8088 C3067 2.035 . S
C8083 C922 2.010 . S
