# Generated by pormake.
# Topology ssb, (4,4)-cn, num edge types: 1
# Building blocks:
#     Node 0, Type 0, BuildingBlock: GIZVER_clean_linker_0, # of connection points: 4
#     Node 1, Type 0, BuildingBlock: GIZVER_clean_linker_0, # of connection points: 4
#     Node 2, Type 0, BuildingBlock: GIZVER_clean_linker_0, # of connection points: 4
#     Node 3, Type 0, BuildingBlock: GIZVER_clean_linker_0, # of connection points: 4
#     Node 4, Type 0, BuildingBlock: GIZVER_clean_linker_0, # of connection points: 4
#     Node 5, Type 0, BuildingBlock: GIZVER_clean_linker_0, # of connection points: 4
#     Node 6, Type 0, BuildingBlock: GIZVER_clean_linker_0, # of connection points: 4
#     Node 7, Type 0, BuildingBlock: GIZVER_clean_linker_0, # of connection points: 4
#     Node 8, Type 1, BuildingBlock: KOZSID_clean_sbu_0, # of connection points: 4
#     Node 9, Type 1, BuildingBlock: KOZSID_clean_sbu_0, # of connection points: 4
#     Node 10, Type 1, BuildingBlock: KOZSID_clean_sbu_0, # of connection points: 4
#     Node 11, Type 1, BuildingBlock: KOZSID_clean_sbu_0, # of connection points: 4
#     Node 12, Type 1, BuildingBlock: KOZSID_clean_sbu_0, # of connection points: 4
#     Node 13, Type 1, BuildingBlock: KOZSID_clean_sbu_0, # of connection points: 4
#     Node 14, Type 1, BuildingBlock: KOZSID_clean_sbu_0, # of connection points: 4
#     Node 15, Type 1, BuildingBlock: KOZSID_clean_sbu_0, # of connection points: 4
#     Edge 16, Type (0, 1), BuildingBlock: ZUJKAS_clean_linker_0, # of connection points: 2
#     Edge 17, Type (0, 1), BuildingBlock: ZUJKAS_clean_linker_0, # of connection points: 2
#     Edge 18, Type (0, 1), BuildingBlock: ZUJKAS_clean_linker_0, # of connection points: 2
#     Edge 19, Type (0, 1), BuildingBlock: ZUJKAS_clean_linker_0, # of connection points: 2
#     Edge 20, Type (0, 1), BuildingBlock: ZUJKAS_clean_linker_0, # of connection points: 2
#     Edge 21, Type (0, 1), BuildingBlock: ZUJKAS_clean_linker_0, # of connection points: 2
#     Edge 22, Type (0, 1), BuildingBlock: ZUJKAS_clean_linker_0, # of connection points: 2
#     Edge 23, Type (0, 1), BuildingBlock: ZUJKAS_clean_linker_0, # of connection points: 2
#     Edge 24, Type (0, 1), BuildingBlock: ZUJKAS_clean_linker_0, # of connection points: 2
#     Edge 25, Type (0, 1), BuildingBlock: ZUJKAS_clean_linker_0, # of connection points: 2
#     Edge 26, Type (0, 1), BuildingBlock: ZUJKAS_clean_linker_0, # of connection points: 2
#     Edge 27, Type (0, 1), BuildingBlock: ZUJKAS_clean_linker_0, # of connection points: 2
#     Edge 28, Type (0, 1), BuildingBlock: ZUJKAS_clean_linker_0, # of connection points: 2
#     Edge 29, Type (0, 1), BuildingBlock: ZUJKAS_clean_linker_0, # of connection points: 2
#     Edge 30, Type (0, 1), BuildingBlock: ZUJKAS_clean_linker_0, # of connection points: 2
#     Edge 31, Type (0, 1), BuildingBlock: ZUJKAS_clean_linker_0, # of connection points: 2
#     Edge 32, Type (0, 1), BuildingBlock: ZUJKAS_clean_linker_0, # of connection points: 2
#     Edge 33, Type (0, 1), BuildingBlock: ZUJKAS_clean_linker_0, # of connection points: 2
#     Edge 34, Type (0, 1), BuildingBlock: ZUJKAS_clean_linker_0, # of connection points: 2
#     Edge 35, Type (0, 1), BuildingBlock: ZUJKAS_clean_linker_0, # of connection points: 2
#     Edge 36, Type (0, 1), BuildingBlock: ZUJKAS_clean_linker_0, # of connection points: 2
#     Edge 37, Type (0, 1), BuildingBlock: ZUJKAS_clean_linker_0, # of connection points: 2
#     Edge 38, Type (0, 1), BuildingBlock: ZUJKAS_clean_linker_0, # of connection points: 2
#     Edge 39, Type (0, 1), BuildingBlock: ZUJKAS_clean_linker_0, # of connection points: 2
#     Edge 40, Type (0, 1), BuildingBlock: ZUJKAS_clean_linker_0, # of connection points: 2
#     Edge 41, Type (0, 1), BuildingBlock: ZUJKAS_clean_linker_0, # of connection points: 2
#     Edge 42, Type (0, 1), BuildingBlock: ZUJKAS_clean_linker_0, # of connection points: 2
#     Edge 43, Type (0, 1), BuildingBlock: ZUJKAS_clean_linker_0, # of connection points: 2
#     Edge 44, Type (0, 1), BuildingBlock: ZUJKAS_clean_linker_0, # of connection points: 2
#     Edge 45, Type (0, 1), BuildingBlock: ZUJKAS_clean_linker_0, # of connection points: 2
#     Edge 46, Type (0, 1), BuildingBlock: ZUJKAS_clean_linker_0, # of connection points: 2
#     Edge 47, Type (0, 1), BuildingBlock: ZUJKAS_clean_linker_0, # of connection points: 2
# Relax obj value: 0.002
# Max RMSD: 0.042
# Mean RMSD: 0.021
data_MOF--net-ssb--node1-KOZSID_clean_sbu_0--node2-GIZVER_clean_linker_0--edge1-ZUJKAS_clean_linker_0
_symmetry_space_group_name_H-M    P1
_symmetry_Int_Tables_number       1
_symmetry_cell_setting            triclinic
loop_
_symmetry_equiv_pos_as_xyz
'x, y, z'
_cell_length_a     69.351081
_cell_length_b     68.988299
_cell_length_c     50.954484
_cell_angle_alpha  92.248982
_cell_angle_beta   94.0738
_cell_angle_gamma 89.989042
loop_
_atom_site_label
_atom_site_type_symbol
_atom_site_fract_x
_atom_site_fract_y
_atom_site_fract_z
_atom_type_partial_charge
H0 H 0.25845 0.20711 0.28383 0.0
H1 H 0.21706 0.25363 0.28551 0.0
H2 H 0.22805 0.21903 0.35324 0.0
H3 H 0.24371 0.21984 0.24282 0.0
H4 H 0.22539 0.2378 0.24357 0.0
H5 H 0.2785 0.22931 0.24851 0.0
H6 H 0.29028 0.28478 0.21748 0.0
H7 H 0.23323 0.27183 0.23963 0.0
C8 C 0.24858 0.21607 0.29453 0.0
C9 C 0.24507 0.21175 0.32059 0.0
C10 C 0.23871 0.23141 0.28182 0.0
C11 C 0.22521 0.24234 0.29549 0.0
C12 C 0.22134 0.23803 0.32136 0.0
C13 C 0.23162 0.22299 0.33378 0.0
C14 C 0.23991 0.23392 0.25253 0.0
C15 C 0.25444 0.24913 0.24598 0.0
C16 C 0.27385 0.24381 0.24362 0.0
C17 C 0.28694 0.25664 0.23343 0.0
C18 C 0.28054 0.2752 0.22654 0.0
C19 C 0.26129 0.28094 0.22876 0.0
C20 C 0.24827 0.26781 0.2386 0.0
H21 H 0.80319 0.24917 0.27025 0.0
H22 H 0.7557 0.20882 0.2674 0.0
H23 H 0.78986 0.22035 0.34006 0.0
H24 H 0.78927 0.23581 0.228 0.0
H25 H 0.77105 0.21746 0.22678 0.0
H26 H 0.78062 0.27033 0.23167 0.0
H27 H 0.72166 0.2847 0.20843 0.0
H28 H 0.73667 0.22605 0.22648 0.0
C29 C 0.79414 0.2394 0.28017 0.0
C30 C 0.79805 0.23637 0.30715 0.0
C31 C 0.77882 0.22954 0.26578 0.0
C32 C 0.76733 0.21663 0.27857 0.0
C33 C 0.77109 0.21339 0.30547 0.0
C34 C 0.78634 0.22346 0.31959 0.0
C35 C 0.77557 0.23164 0.23646 0.0
C36 C 0.76028 0.24662 0.2301 0.0
C37 C 0.76558 0.26612 0.22801 0.0
C38 C 0.75172 0.28001 0.22026 0.0
C39 C 0.73231 0.27428 0.21554 0.0
C40 C 0.72672 0.25489 0.21773 0.0
C41 C 0.74079 0.24111 0.22513 0.0
H42 H 0.77008 0.73566 0.30736 0.0
H43 H 0.7251 0.77873 0.30803 0.0
H44 H 0.78281 0.7933 0.33882 0.0
H45 H 0.73555 0.72641 0.3061 0.0
H46 H 0.71708 0.74425 0.30351 0.0
H47 H 0.75029 0.71321 0.26689 0.0
H48 H 0.71819 0.72187 0.19295 0.0
H49 H 0.70705 0.75791 0.26087 0.0
C50 C 0.76561 0.75054 0.31093 0.0
C51 C 0.77882 0.76397 0.32343 0.0
C52 C 0.74619 0.75574 0.30517 0.0
C53 C 0.74017 0.7748 0.31152 0.0
C54 C 0.7534 0.78854 0.32338 0.0
C55 C 0.77269 0.783 0.32887 0.0
C56 C 0.73144 0.74019 0.29652 0.0
C57 C 0.72939 0.73645 0.26697 0.0
C58 C 0.73979 0.72134 0.25503 0.0
C59 C 0.73601 0.71612 0.22814 0.0
C60 C 0.72193 0.72647 0.21326 0.0
C61 C 0.71136 0.74148 0.22483 0.0
C62 C 0.71538 0.74659 0.25163 0.0
H63 H 0.19691 0.75505 0.24061 0.0
H64 H 0.24798 0.79047 0.24044 0.0
H65 H 0.21625 0.78933 0.30976 0.0
H66 H 0.21107 0.75993 0.19987 0.0
H67 H 0.22711 0.78 0.19835 0.0
H68 H 0.22393 0.72716 0.20799 0.0
H69 H 0.28227 0.71689 0.18802 0.0
H70 H 0.26214 0.77535 0.20008 0.0
C71 C 0.20745 0.7647 0.25097 0.0
C72 C 0.20476 0.77121 0.27697 0.0
C73 C 0.2231 0.77157 0.23773 0.0
C74 C 0.23623 0.7848 0.25082 0.0
C75 C 0.23391 0.79121 0.27685 0.0
C76 C 0.21833 0.78411 0.28982 0.0
C77 C 0.22476 0.76648 0.20891 0.0
C78 C 0.24132 0.75274 0.2048 0.0
C79 C 0.23813 0.73265 0.20451 0.0
C80 C 0.25294 0.71965 0.19872 0.0
C81 C 0.27119 0.72693 0.19383 0.0
C82 C 0.27477 0.747 0.19422 0.0
C83 C 0.25972 0.75984 0.19995 0.0
H84 H 0.29185 0.76207 0.76014 0.0
H85 H 0.24902 0.71672 0.7581 0.0
H86 H 0.28575 0.72866 0.82844 0.0
H87 H 0.2796 0.74521 0.71802 0.0
H88 H 0.25957 0.72907 0.71725 0.0
H89 H 0.2747 0.78011 0.7148 0.0
H90 H 0.21695 0.799 0.69287 0.0
H91 H 0.22644 0.74171 0.7214 0.0
C92 C 0.28428 0.75109 0.7701 0.0
C93 C 0.29016 0.74705 0.79627 0.0
C94 C 0.26937 0.74034 0.75619 0.0
C95 C 0.26012 0.72546 0.76894 0.0
C96 C 0.26569 0.72139 0.79532 0.0
C97 C 0.28059 0.73243 0.80871 0.0
C98 C 0.26562 0.74274 0.72683 0.0
C99 C 0.25202 0.75931 0.72004 0.0
C100 C 0.25924 0.77751 0.71344 0.0
C101 C 0.24657 0.79207 0.70404 0.0
C102 C 0.22663 0.78825 0.70144 0.0
C103 C 0.21922 0.7701 0.70733 0.0
C104 C 0.23199 0.75586 0.71716 0.0
H105 H 0.26863 0.22654 0.83559 0.0
H106 H 0.22743 0.2729 0.82671 0.0
H107 H 0.28737 0.28583 0.84733 0.0
H108 H 0.23396 0.21979 0.83451 0.0
H109 H 0.21691 0.23923 0.83404 0.0
H110 H 0.24797 0.2082 0.79302 0.0
H111 H 0.21325 0.21795 0.72148 0.0
H112 H 0.20227 0.25047 0.7925 0.0
C113 C 0.26545 0.24193 0.83547 0.0
C114 C 0.28041 0.25549 0.84135 0.0
C115 C 0.24633 0.24816 0.82993 0.0
C116 C 0.24222 0.26809 0.83045 0.0
C117 C 0.25698 0.28179 0.83654 0.0
C118 C 0.27605 0.27536 0.84152 0.0
C119 C 0.23009 0.23366 0.82504 0.0
C120 C 0.22566 0.22979 0.79591 0.0
C121 C 0.23644 0.21589 0.7824 0.0
C122 C 0.23215 0.21162 0.75547 0.0
C123 C 0.21718 0.22174 0.74201 0.0
C124 C 0.20632 0.23576 0.75511 0.0
C125 C 0.21066 0.23976 0.78214 0.0
H126 H 0.71181 0.25066 0.77836 0.0
H127 H 0.75342 0.29694 0.77798 0.0
H128 H 0.7237 0.28753 0.84757 0.0
H129 H 0.71979 0.26484 0.73693 0.0
H130 H 0.73742 0.28347 0.73673 0.0
H131 H 0.72933 0.23026 0.73792 0.0
H132 H 0.78432 0.21777 0.70722 0.0
H133 H 0.77136 0.27585 0.7338 0.0
C134 C 0.72009 0.26228 0.78873 0.0
C135 C 0.71662 0.26738 0.81497 0.0
C136 C 0.73344 0.27278 0.77526 0.0
C137 C 0.74359 0.28841 0.78851 0.0
C138 C 0.74039 0.29364 0.81484 0.0
C139 C 0.72705 0.28287 0.82784 0.0
C140 C 0.73426 0.26951 0.74579 0.0
C141 C 0.74908 0.25455 0.73815 0.0
C142 C 0.7437 0.23489 0.73378 0.0
C143 C 0.75645 0.22145 0.7228 0.0
C144 C 0.77468 0.22789 0.71647 0.0
C145 C 0.78014 0.24745 0.72002 0.0
C146 C 0.7675 0.26062 0.73164 0.0
H147 H 0.74938 0.70479 0.75599 0.0
H148 H 0.70616 0.74965 0.75122 0.0
H149 H 0.71499 0.71734 0.82145 0.0
H150 H 0.73745 0.7167 0.71335 0.0
H151 H 0.71931 0.73501 0.71104 0.0
H152 H 0.77102 0.72552 0.71403 0.0
H153 H 0.78552 0.78565 0.70647 0.0
H154 H 0.72811 0.76981 0.72372 0.0
C155 C 0.73856 0.71357 0.76515 0.0
C156 C 0.7334 0.70945 0.79047 0.0
C157 C 0.72882 0.72808 0.75084 0.0
C158 C 0.71409 0.7388 0.76238 0.0
C159 C 0.70928 0.7352 0.78808 0.0
C160 C 0.7191 0.72062 0.80196 0.0
C161 C 0.7328 0.7307 0.72246 0.0
C162 C 0.74805 0.746 0.71999 0.0
C163 C 0.76711 0.74073 0.715 0.0
C164 C 0.78084 0.75495 0.71012 0.0
C165 C 0.77542 0.77458 0.71135 0.0
C166 C 0.75648 0.78001 0.71626 0.0
C167 C 0.74289 0.76568 0.72066 0.0
C168 C 0.03256 0.28932 0.5724 0.0
C169 C 0.0392 0.30723 0.58265 0.0
C170 C 0.02958 0.32093 0.56828 0.0
C171 C 0.01763 0.31066 0.5502 0.0
N172 N 0.01889 0.29119 0.55227 0.0
Co173 Co 0.00442 0.27083 0.52948 0.0
N174 N 0.99067 0.29101 0.50785 0.0
C175 C 0.99274 0.31049 0.51088 0.0
C176 C 0.98106 0.32064 0.49349 0.0
C177 C 0.97072 0.30685 0.47861 0.0
C178 C 0.9767 0.28902 0.48789 0.0
N179 N 0.9901 0.25046 0.50651 0.0
C180 C 0.97636 0.25232 0.48646 0.0
C181 C 0.96981 0.23437 0.47617 0.0
C182 C 0.97972 0.22069 0.49022 0.0
C183 C 0.99165 0.23098 0.50826 0.0
N184 N 0.018 0.25064 0.55129 0.0
C185 C 0.01583 0.23116 0.54834 0.0
C186 C 0.02724 0.221 0.56599 0.0
C187 C 0.03742 0.23477 0.58109 0.0
C188 C 0.03156 0.25263 0.57175 0.0
N189 N 0.98306 0.27155 0.5536 0.0
C190 C 0.9517 0.27249 0.58611 0.0
C191 C 0.95897 0.25491 0.57656 0.0
C192 C 0.97455 0.25476 0.56061 0.0
C193 C 0.96064 0.2896 0.57951 0.0
C194 C 0.97612 0.2888 0.56331 0.0
N195 N 0.02582 0.27013 0.50535 0.0
C196 C 0.04901 0.25197 0.48093 0.0
C197 C 0.05722 0.26903 0.47281 0.0
C198 C 0.04918 0.28666 0.48092 0.0
C199 C 0.03363 0.28687 0.497 0.0
C200 C 0.03349 0.25284 0.497 0.0
H201 H 0.02832 0.30078 0.50262 0.0
H202 H 0.02803 0.2393 0.50249 0.0
H203 H 0.97935 0.24088 0.55405 0.0
H204 H 0.98208 0.30236 0.55868 0.0
C205 C 0.00535 0.31883 0.53075 0.0
C206 C 0.03988 0.27099 0.58229 0.0
C207 C 0.96843 0.27066 0.47734 0.0
C208 C 0.00361 0.22281 0.52805 0.0
H209 H 0.05001 0.31007 0.59873 0.0
H210 H 0.03123 0.33652 0.57056 0.0
H211 H 0.97998 0.33622 0.49207 0.0
H212 H 0.95986 0.30959 0.46289 0.0
H213 H 0.95872 0.23142 0.4605 0.0
H214 H 0.97806 0.2051 0.488 0.0
H215 H 0.02831 0.20541 0.56738 0.0
H216 H 0.04818 0.23194 0.5969 0.0
H217 H 0.95273 0.24123 0.58147 0.0
H218 H 0.95544 0.30361 0.58626 0.0
H219 H 0.05442 0.2379 0.47481 0.0
H220 H 0.05508 0.30032 0.47536 0.0
C221 C 0.71522 0.03504 0.55992 0.0
C222 C 0.69751 0.04203 0.56711 0.0
C223 C 0.68365 0.03104 0.55322 0.0
C224 C 0.69364 0.01802 0.53841 0.0
N225 N 0.71307 0.01988 0.54214 0.0
Co226 Co 0.73298 0.00431 0.52378 0.0
N227 N 0.71255 0.98835 0.503 0.0
C228 C 0.6932 0.98975 0.50454 0.0
C229 C 0.6828 0.97644 0.48864 0.0
C230 C 0.6963 0.96574 0.47636 0.0
C231 C 0.71423 0.97321 0.48545 0.0
N232 N 0.75289 0.98907 0.50495 0.0
C233 C 0.75075 0.97408 0.4869 0.0
C234 C 0.76844 0.96779 0.47866 0.0
C235 C 0.78227 0.97902 0.49218 0.0
C236 C 0.77231 0.99154 0.50776 0.0
N237 N 0.75345 0.01993 0.54502 0.0
C238 C 0.77283 0.01794 0.54435 0.0
C239 C 0.78325 0.03067 0.56112 0.0
C240 C 0.76976 0.0415 0.57322 0.0
C241 C 0.75179 0.03473 0.56309 0.0
N242 N 0.73374 0.98499 0.55172 0.0
C243 C 0.73493 0.95612 0.58933 0.0
C244 C 0.75178 0.96234 0.57885 0.0
C245 C 0.7509 0.97677 0.56042 0.0
C246 C 0.7175 0.96492 0.58129 0.0
C247 C 0.71721 0.97915 0.56246 0.0
N248 N 0.73223 0.02364 0.49585 0.0
C249 C 0.74882 0.04596 0.46976 0.0
C250 C 0.73133 0.05235 0.45789 0.0
C251 C 0.71426 0.04391 0.46506 0.0
C252 C 0.71505 0.02964 0.48387 0.0
C253 C 0.74894 0.03173 0.48845 0.0
H254 H 0.70156 0.0238 0.48852 0.0
H255 H 0.76275 0.02772 0.49685 0.0
H256 H 0.76429 0.98088 0.55335 0.0
H257 H 0.70343 0.98501 0.55666 0.0
C258 C 0.68522 0.00377 0.52104 0.0
C259 C 0.73364 0.04333 0.57055 0.0
C260 C 0.73241 0.96508 0.47734 0.0
C261 C 0.78079 0.00484 0.52653 0.0
H262 H 0.69488 0.05388 0.58095 0.0
H263 H 0.66813 0.03241 0.55381 0.0
H264 H 0.66726 0.97464 0.48642 0.0
H265 H 0.69329 0.95366 0.46247 0.0
H266 H 0.77107 0.9561 0.46457 0.0
H267 H 0.79777 0.97792 0.4912 0.0
H268 H 0.79881 0.03218 0.56379 0.0
H269 H 0.77281 0.05329 0.58756 0.0
H270 H 0.76566 0.95609 0.58485 0.0
H271 H 0.70407 0.96045 0.58891 0.0
H272 H 0.76245 0.05224 0.46519 0.0
H273 H 0.70035 0.04822 0.45618 0.0
C274 C 0.03002 0.76302 0.54708 0.0
C275 C 0.03584 0.78151 0.55606 0.0
C276 C 0.02461 0.79422 0.54201 0.0
C277 C 0.01263 0.78283 0.52534 0.0
N278 N 0.01539 0.76357 0.528 0.0
Co279 Co 0.00152 0.74188 0.50705 0.0
N280 N 0.98499 0.76065 0.4864 0.0
C281 C 0.98548 0.78025 0.48894 0.0
C282 C 0.97211 0.78923 0.47249 0.0
C283 C 0.96227 0.77451 0.45885 0.0
C284 C 0.97022 0.75732 0.46788 0.0
N285 N 0.98792 0.72021 0.4857 0.0
C286 C 0.97305 0.72074 0.46693 0.0
C287 C 0.96773 0.70226 0.45732 0.0
C288 C 0.9796 0.6896 0.47051 0.0
C289 C 0.99143 0.70099 0.48739 0.0
N290 N 0.01774 0.72311 0.52815 0.0
C291 C 0.01698 0.70351 0.52593 0.0
C292 C 0.02982 0.6945 0.54312 0.0
C293 C 0.03944 0.70921 0.55715 0.0
C294 C 0.03187 0.7264 0.54761 0.0
N295 N 0.98162 0.74115 0.53324 0.0
C296 C 0.95177 0.74008 0.56813 0.0
C297 C 0.95978 0.72299 0.55808 0.0
C298 C 0.97458 0.72385 0.54091 0.0
C299 C 0.9593 0.75772 0.56085 0.0
C300 C 0.97408 0.75792 0.54356 0.0
N301 N 0.02141 0.74259 0.48072 0.0
C302 C 0.04492 0.7263 0.45465 0.0
C303 C 0.04978 0.74369 0.4435 0.0
C304 C 0.04009 0.76049 0.45133 0.0
C305 C 0.0262 0.75964 0.46983 0.0
C306 C 0.03081 0.72608 0.47294 0.0
H307 H 0.01955 0.77301 0.47497 0.0
H308 H 0.02785 0.71235 0.48059 0.0
H309 H 0.97998 0.7103 0.5339 0.0
H310 H 0.97898 0.77183 0.53854 0.0
C311 C 0.99857 0.78979 0.50712 0.0
C312 C 0.03905 0.74545 0.55709 0.0
C313 C 0.96293 0.73825 0.45861 0.0
C314 C 0.00479 0.69402 0.50655 0.0
H315 H 0.04713 0.78539 0.57112 0.0
H316 H 0.02515 0.80991 0.54368 0.0
H317 H 0.96968 0.80465 0.47083 0.0
H318 H 0.95044 0.77622 0.44409 0.0
H319 H 0.95616 0.69829 0.44273 0.0
H320 H 0.97925 0.67392 0.46861 0.0
H321 H 0.03216 0.67908 0.54491 0.0
H322 H 0.05092 0.7075 0.57241 0.0
H323 H 0.95469 0.70894 0.56346 0.0
H324 H 0.9535 0.77138 0.56789 0.0
H325 H 0.05214 0.71289 0.44964 0.0
H326 H 0.04301 0.77432 0.44305 0.0
C327 C 0.29174 0.97197 0.55197 0.0
C328 C 0.30957 0.96571 0.56253 0.0
C329 C 0.32324 0.97687 0.55239 0.0
C330 C 0.31307 0.98937 0.53643 0.0
N331 N 0.29367 0.98696 0.53579 0.0
Co332 Co 0.27357 0.00248 0.51547 0.0
N333 N 0.29378 0.01849 0.49988 0.0
C334 C 0.31318 0.0166 0.50385 0.0
C335 C 0.32344 0.02945 0.49042 0.0
C336 C 0.30981 0.04027 0.47708 0.0
C337 C 0.29193 0.03343 0.48325 0.0
N338 N 0.25344 0.01818 0.49544 0.0
C339 C 0.25535 0.0333 0.47949 0.0
C340 C 0.23749 0.04043 0.47036 0.0
C341 C 0.22382 0.02941 0.48071 0.0
C342 C 0.23402 0.0163 0.49565 0.0
N343 N 0.25334 0.9863 0.53075 0.0
C344 C 0.23395 0.98773 0.52596 0.0
C345 C 0.22367 0.97418 0.53813 0.0
C346 C 0.23726 0.96336 0.55148 0.0
C347 C 0.25516 0.97106 0.54688 0.0
N348 N 0.27309 0.02144 0.54575 0.0
C349 C 0.27225 0.04943 0.58747 0.0
C350 C 0.25519 0.0412 0.57577 0.0
C351 C 0.25594 0.02734 0.55518 0.0
C352 C 0.28976 0.04316 0.57822 0.0
C353 C 0.28985 0.02926 0.55756 0.0
N354 N 0.27409 0.98349 0.48526 0.0
C355 C 0.25714 0.96272 0.452 0.0
C356 C 0.27447 0.95437 0.44499 0.0
C357 C 0.29169 0.96137 0.45777 0.0
C358 C 0.29117 0.97585 0.47765 0.0
C359 C 0.25728 0.97715 0.47194 0.0
H360 H 0.30476 0.98039 0.48686 0.0
H361 H 0.24357 0.98277 0.47641 0.0
H362 H 0.24242 0.02178 0.54705 0.0
H363 H 0.30366 0.02517 0.55141 0.0
C364 C 0.32131 0.00309 0.5211 0.0
C365 C 0.27344 0.96315 0.55792 0.0
C366 C 0.27366 0.04165 0.47281 0.0
C367 C 0.2258 0.00192 0.50985 0.0
H368 H 0.31243 0.9542 0.57609 0.0
H369 H 0.33877 0.97588 0.55605 0.0
H370 H 0.33898 0.03091 0.49053 0.0
H371 H 0.3127 0.05195 0.46432 0.0
H372 H 0.2346 0.05245 0.45764 0.0
H373 H 0.20828 0.03083 0.47777 0.0
H374 H 0.20814 0.97229 0.53721 0.0
H375 H 0.23426 0.95106 0.56309 0.0
H376 H 0.24122 0.04573 0.582 0.0
H377 H 0.3034 0.0489 0.5869 0.0
H378 H 0.24343 0.9581 0.44221 0.0
H379 H 0.3055 0.95533 0.45303 0.0
C380 C 0.53142 0.78874 0.05058 0.0
C381 C 0.53786 0.80637 0.06203 0.0
C382 C 0.52738 0.82044 0.04948 0.0
C383 C 0.51513 0.81064 0.03127 0.0
N384 N 0.51706 0.79114 0.03151 0.0
Co385 Co 0.50186 0.77141 0.0086 0.0
N386 N 0.48792 0.79218 0.98832 0.0
C387 C 0.49089 0.81154 0.9913 0.0
C388 C 0.47935 0.82218 0.97434 0.0
C389 C 0.46828 0.80883 0.95965 0.0
C390 C 0.47371 0.79076 0.96864 0.0
N391 N 0.48605 0.75168 0.98646 0.0
C392 C 0.4715 0.75414 0.96768 0.0
C393 C 0.46367 0.73652 0.95806 0.0
C394 C 0.47353 0.72241 0.97138 0.0
C395 C 0.48671 0.73218 0.98833 0.0
N396 N 0.51645 0.75063 0.02809 0.0
C397 C 0.51453 0.73123 0.02376 0.0
C398 C 0.52723 0.72058 0.03912 0.0
C399 C 0.53815 0.73395 0.05395 0.0
C400 C 0.53135 0.75208 0.04683 0.0
N401 N 0.48157 0.77179 0.03435 0.0
C402 C 0.45013 0.77164 0.06679 0.0
C403 C 0.46022 0.75461 0.06105 0.0
C404 C 0.4757 0.75501 0.04495 0.0
C405 C 0.45666 0.78889 0.05687 0.0
C406 C 0.47233 0.78866 0.04103 0.0
N407 N 0.52203 0.771 0.98271 0.0
C408 C 0.5405 0.75349 0.95095 0.0
C409 C 0.55076 0.77024 0.94614 0.0
C410 C 0.54641 0.7874 0.95992 0.0
C411 C 0.532 0.78749 0.9778 0.0
C412 C 0.52644 0.75415 0.96928 0.0
H413 H 0.5292 0.8011 0.98741 0.0
H414 H 0.51942 0.74079 0.97232 0.0
H415 H 0.48248 0.74146 0.04108 0.0
H416 H 0.47644 0.80229 0.03399 0.0
C417 C 0.50324 0.81933 0.01187 0.0
C418 C 0.53986 0.7702 0.0579 0.0
C419 C 0.46442 0.77278 0.95857 0.0
C420 C 0.50035 0.72347 0.00553 0.0
H421 H 0.54924 0.80881 0.07747 0.0
H422 H 0.52897 0.83599 0.05264 0.0
H423 H 0.47865 0.83781 0.9733 0.0
H424 H 0.45719 0.81204 0.94442 0.0
H425 H 0.45199 0.73413 0.94303 0.0
H426 H 0.47137 0.70689 0.96897 0.0
H427 H 0.52849 0.70494 0.03939 0.0
H428 H 0.54991 0.73073 0.0682 0.0
H429 H 0.45616 0.74092 0.0688 0.0
H430 H 0.44938 0.80251 0.0606 0.0
H431 H 0.54356 0.7398 0.94096 0.0
H432 H 0.55392 0.80077 0.95668 0.0
C433 C 0.22212 0.52946 0.05321 0.0
C434 C 0.20425 0.53554 0.061 0.0
C435 C 0.19064 0.52599 0.04471 0.0
C436 C 0.20094 0.5147 0.02798 0.0
N437 N 0.22033 0.51633 0.03269 0.0
Co438 Co 0.24072 0.50284 0.01275 0.0
N439 N 0.22067 0.4892 0.98834 0.0
C440 C 0.20124 0.49085 0.98857 0.0
C441 C 0.19122 0.47935 0.96975 0.0
C442 C 0.20506 0.4696 0.95686 0.0
C443 C 0.22277 0.47579 0.96862 0.0
N444 N 0.26112 0.48941 0.99278 0.0
C445 C 0.25932 0.47603 0.97258 0.0
C446 C 0.27718 0.47022 0.96443 0.0
C447 C 0.2908 0.4801 0.98029 0.0
C448 C 0.28052 0.49136 0.99709 0.0
N449 N 0.26079 0.51638 0.03724 0.0
C450 C 0.28023 0.51469 0.03703 0.0
C451 C 0.29025 0.52585 0.05624 0.0
C452 C 0.27642 0.53535 0.06942 0.0
C453 C 0.25869 0.52943 0.05738 0.0
N454 N 0.24055 0.48074 0.03692 0.0
C455 C 0.2405 0.44926 0.0711 0.0
C456 C 0.2578 0.45732 0.06397 0.0
C457 C 0.25749 0.47283 0.04704 0.0
C458 C 0.22321 0.45726 0.06064 0.0
C459 C 0.22356 0.47285 0.04381 0.0
N460 N 0.24092 0.52494 0.98854 0.0
C461 C 0.25853 0.54846 0.96527 0.0
C462 C 0.24139 0.55604 0.9537 0.0
C463 C 0.22398 0.54781 0.96017 0.0
C464 C 0.22408 0.53247 0.97746 0.0
C465 C 0.25797 0.53311 0.98239 0.0
H466 H 0.21032 0.52693 0.9815 0.0
H467 H 0.27157 0.52816 0.99045 0.0
H468 H 0.27119 0.4781 0.04232 0.0
H469 H 0.20988 0.47828 0.03662 0.0
C470 C 0.19284 0.50278 0.00734 0.0
C471 C 0.24034 0.53709 0.06533 0.0
C472 C 0.24113 0.46787 0.96115 0.0
C473 C 0.28865 0.50308 0.01794 0.0
H474 H 0.20136 0.54598 0.07665 0.0
H475 H 0.17509 0.5273 0.04483 0.0
H476 H 0.1757 0.47794 0.96618 0.0
H477 H 0.20242 0.4589 0.94089 0.0
H478 H 0.28003 0.45966 0.94891 0.0
H479 H 0.30635 0.47892 0.98 0.0
H480 H 0.30577 0.52714 0.05994 0.0
H481 H 0.27905 0.54568 0.08584 0.0
H482 H 0.27162 0.4515 0.07109 0.0
H483 H 0.20939 0.45172 0.06568 0.0
H484 H 0.27243 0.55448 0.96146 0.0
H485 H 0.21026 0.55295 0.95166 0.0
C486 C 0.474 0.25437 0.98999 0.0
C487 C 0.46688 0.27238 0.98285 0.0
C488 C 0.47785 0.28596 0.99719 0.0
C489 C 0.49089 0.27555 0.01236 0.0
N490 N 0.48909 0.2561 0.00842 0.0
Co491 Co 0.50427 0.23561 0.02775 0.0
N492 N 0.51965 0.25568 0.04993 0.0
C493 C 0.51815 0.27518 0.04861 0.0
C494 C 0.53116 0.28525 0.06543 0.0
C495 C 0.54176 0.27138 0.07817 0.0
C496 C 0.53448 0.25355 0.06845 0.0
N497 N 0.51922 0.21512 0.04732 0.0
C498 C 0.53382 0.21683 0.06644 0.0
C499 C 0.54004 0.19885 0.07493 0.0
C500 C 0.52922 0.18527 0.06035 0.0
C501 C 0.517 0.19567 0.04398 0.0
N502 N 0.48908 0.21556 0.00535 0.0
C503 C 0.49119 0.19607 0.00582 0.0
C504 C 0.47877 0.18603 0.98811 0.0
C505 C 0.46792 0.19989 0.97574 0.0
C506 C 0.4743 0.21767 0.9868 0.0
N507 N 0.52414 0.23581 1.00139 0.0
C508 C 0.55368 0.2363 0.96586 0.0
C509 C 0.54665 0.21882 0.97444 0.0
C510 C 0.53202 0.2189 0.99199 0.0
C511 C 0.5454 0.25351 0.97511 0.0
C512 C 0.53078 0.25293 0.99259 0.0
N513 N 0.48442 0.23543 0.05411 0.0
C514 C 0.46163 0.21808 0.07848 0.0
C515 C 0.45487 0.23542 0.08957 0.0
C516 C 0.4635 0.25271 0.08302 0.0
C517 C 0.4781 0.25239 0.06546 0.0
C518 C 0.47629 0.21841 0.061 0.0
H519 H 0.48393 0.26609 0.06124 0.0
H520 H 0.48062 0.20472 0.05305 0.0
H521 H 0.52742 0.2051 0.9978 0.0
H522 H 0.52526 0.26657 0.99893 0.0
C523 C 0.50458 0.28362 0.03104 0.0
C524 C 0.46545 0.23606 0.97951 0.0
C525 C 0.54258 0.23505 0.07674 0.0
C526 C 0.50406 0.18761 0.0243 0.0
H527 H 0.45478 0.27546 0.96907 0.0
H528 H 0.47623 0.30156 0.997 0.0
H529 H 0.53292 0.30082 0.06785 0.0
H530 H 0.5537 0.27415 0.09267 0.0
H531 H 0.5514 0.19586 0.08989 0.0
H532 H 0.53039 0.16965 0.06123 0.0
H533 H 0.47746 0.17046 0.98501 0.0
H534 H 0.45638 0.19721 0.96058 0.0
H535 H 0.55233 0.20505 0.96757 0.0
H536 H 0.55043 0.26748 0.96939 0.0
H537 H 0.45534 0.20428 0.08272 0.0
H538 H 0.45907 0.26653 0.09143 0.0
C539 C 0.75198 0.53547 0.06069 0.0
C540 C 0.73406 0.54194 0.06787 0.0
C541 C 0.72049 0.53091 0.05351 0.0
C542 C 0.73082 0.5184 0.03841 0.0
N543 N 0.7502 0.52072 0.04223 0.0
Co544 Co 0.77052 0.50548 0.02421 0.0
N545 N 0.75044 0.48997 0.00206 0.0
C546 C 0.73103 0.49201 0.00195 0.0
C547 C 0.72089 0.47935 0.98477 0.0
C548 C 0.73462 0.46852 0.97317 0.0
C549 C 0.75244 0.47526 0.98395 0.0
N550 N 0.79082 0.48986 0.00672 0.0
C551 C 0.78901 0.4748 0.9887 0.0
C552 C 0.8069 0.46776 0.9823 0.0
C553 C 0.8205 0.47859 0.99695 0.0
C554 C 0.81021 0.49158 0.01138 0.0
N555 N 0.79058 0.52138 0.04583 0.0
C556 C 0.80999 0.51993 0.04513 0.0
C557 C 0.82009 0.5331 0.0616 0.0
C558 C 0.80632 0.54376 0.07341 0.0
C559 C 0.78854 0.53644 0.06339 0.0
N560 N 0.77054 0.48609 0.05201 0.0
C561 C 0.77093 0.45659 0.08881 0.0
C562 C 0.78802 0.4657 0.08303 0.0
C563 C 0.78749 0.48029 0.06479 0.0
C564 C 0.75356 0.46298 0.07651 0.0
C565 C 0.75369 0.47766 0.0584 0.0
N566 N 0.77056 0.52487 0.9964 0.0
C567 C 0.78794 0.54489 0.96803 0.0
C568 C 0.7708 0.55361 0.95863 0.0
C569 C 0.75349 0.54743 0.96803 0.0
C570 C 0.75369 0.5331 0.98664 0.0
C571 C 0.7875 0.5307 0.9868 0.0
H572 H 0.74001 0.52901 0.99293 0.0
H573 H 0.80109 0.52485 0.9934 0.0
H574 H 0.80104 0.48647 0.06114 0.0
H575 H 0.74001 0.48169 0.04952 0.0
C576 C 0.72273 0.50514 0.01934 0.0
C577 C 0.77018 0.54427 0.07132 0.0
C578 C 0.77076 0.46674 0.97698 0.0
C579 C 0.81831 0.50581 0.02909 0.0
H580 H 0.73107 0.55364 0.08175 0.0
H581 H 0.70494 0.53214 0.05366 0.0
H582 H 0.70536 0.47789 0.98148 0.0
H583 H 0.73179 0.45677 0.95871 0.0
H584 H 0.80982 0.45602 0.96844 0.0
H585 H 0.83605 0.47717 0.99703 0.0
H586 H 0.83562 0.53476 0.06466 0.0
H587 H 0.80905 0.55559 0.08778 0.0
H588 H 0.80182 0.46154 0.09245 0.0
H589 H 0.73992 0.45631 0.08017 0.0
H590 H 0.80173 0.54929 0.96143 0.0
H591 H 0.73979 0.55355 0.96096 0.0
H592 H 0.22054 0.25115 0.37272 0.0
H593 H 0.19199 0.26007 0.39612 0.0
H594 H 0.15642 0.25445 0.32332 0.0
H595 H 0.18481 0.24506 0.29988 0.0
H596 H 0.16257 0.28917 0.39008 0.0
H597 H 0.13408 0.21418 0.37122 0.0
H598 H 0.15869 0.22065 0.36603 0.0
H599 H 0.13941 0.22689 0.34247 0.0
C600 C 0.20667 0.25207 0.36163 0.0
C601 C 0.20492 0.24721 0.33448 0.0
C602 C 0.19039 0.25724 0.37501 0.0
C603 C 0.17204 0.25757 0.36154 0.0
C604 C 0.17042 0.254 0.33415 0.0
H605 H 0.06439 0.29182 0.43146 0.0
H606 H 0.09206 0.29022 0.40414 0.0
C607 C 0.1867 0.24884 0.32073 0.0
C608 C 0.15456 0.26016 0.37651 0.0
H609 H 0.1148 0.23606 0.39439 0.0
C610 C 0.15204 0.27763 0.39092 0.0
C611 C 0.14101 0.24494 0.37788 0.0
C612 C 0.14342 0.22553 0.36379 0.0
C613 C 0.1363 0.2803 0.40664 0.0
C614 C 0.12267 0.26514 0.4078 0.0
C615 C 0.12519 0.2477 0.39334 0.0
C616 C 0.10612 0.26667 0.42474 0.0
C617 C 0.13467 0.29908 0.42251 0.0
C618 C 0.10468 0.2538 0.44516 0.0
C619 C 0.08893 0.25467 0.46082 0.0
C620 C 0.07414 0.26837 0.45628 0.0
C621 C 0.07564 0.28128 0.43578 0.0
C622 C 0.09145 0.2804 0.42012 0.0
H623 H 0.14839 0.3075 0.42389 0.0
H624 H 0.12319 0.30814 0.41292 0.0
H625 H 0.13062 0.2963 0.44272 0.0
H626 H 0.11584 0.24309 0.44907 0.0
H627 H 0.08844 0.2447 0.47665 0.0
H628 H 0.76167 0.17676 0.28639 0.0
H629 H 0.74904 0.15022 0.31059 0.0
H630 H 0.74454 0.18884 0.37849 0.0
H631 H 0.7571 0.21552 0.35435 0.0
H632 H 0.76654 0.15628 0.3886 0.0
H633 H 0.69636 0.13549 0.33602 0.0
H634 H 0.71589 0.13736 0.31489 0.0
H635 H 0.7078 0.15866 0.33232 0.0
C636 C 0.75742 0.17976 0.30618 0.0
C637 C 0.76046 0.19822 0.31852 0.0
C638 C 0.75018 0.16457 0.31999 0.0
C639 C 0.74572 0.1676 0.34627 0.0
C640 C 0.74785 0.18623 0.35819 0.0
H641 H 0.70629 0.08305 0.454 0.0
H642 H 0.70812 0.11086 0.42578 0.0
C643 C 0.7551 0.20141 0.34443 0.0
C644 C 0.74125 0.15093 0.36227 0.0
H645 H 0.71035 0.11272 0.36613 0.0
C646 C 0.75414 0.14688 0.38384 0.0
C647 C 0.72504 0.13872 0.35604 0.0
C648 C 0.71036 0.14283 0.3337 0.0
C649 C 0.75156 0.13068 0.39894 0.0
C650 C 0.73578 0.11809 0.39214 0.0
C651 C 0.72254 0.12236 0.37107 0.0
C652 C 0.73316 0.10029 0.40672 0.0
C653 C 0.76579 0.12706 0.42203 0.0
C654 C 0.74631 0.08497 0.4047 0.0
C655 C 0.74526 0.06906 0.42063 0.0
C656 C 0.73104 0.06819 0.43892 0.0
C657 C 0.71733 0.0832 0.44 0.0
C658 C 0.71837 0.09912 0.42398 0.0
H659 H 0.77478 0.14007 0.42783 0.0
H660 H 0.75815 0.12267 0.43929 0.0
H661 H 0.77558 0.11505 0.41663 0.0
H662 H 0.7577 0.08558 0.39126 0.0
H663 H 0.7558 0.05757 0.41893 0.0
H664 H 0.79549 0.771 0.3727 0.0
H665 H 0.82768 0.76178 0.3903 0.0
H666 H 0.83841 0.73326 0.31597 0.0
H667 H 0.80594 0.74261 0.29798 0.0
H668 H 0.84391 0.72112 0.39095 0.0
H669 H 0.8844 0.77401 0.33554 0.0
H670 H 0.85921 0.77755 0.34131 0.0
H671 H 0.866 0.75903 0.31813 0.0
C672 C 0.80473 0.7629 0.35997 0.0
C673 C 0.79831 0.75777 0.33382 0.0
C674 C 0.82306 0.75753 0.37014 0.0
C675 C 0.83543 0.747 0.35438 0.0
C676 C 0.82907 0.74154 0.32835 0.0
H677 H 0.95764 0.72817 0.40622 0.0
H678 H 0.92698 0.72725 0.37868 0.0
C679 C 0.81056 0.7468 0.31815 0.0
C680 C 0.855 0.74205 0.36561 0.0
H681 H 0.90202 0.75707 0.36831 0.0
C682 C 0.85669 0.72873 0.38575 0.0
C683 C 0.87161 0.75195 0.35867 0.0
C684 C 0.8704 0.76651 0.3373 0.0
C685 C 0.8745 0.72551 0.39975 0.0
C686 C 0.89092 0.73628 0.3939 0.0
C687 C 0.88941 0.7489 0.37288 0.0
C688 C 0.90936 0.73577 0.41057 0.0
C689 C 0.87548 0.71075 0.42088 0.0
C690 C 0.90964 0.74103 0.43753 0.0
C691 C 0.92702 0.74144 0.45315 0.0
C692 C 0.94444 0.73678 0.44206 0.0
C693 C 0.94427 0.73161 0.41513 0.0
C694 C 0.92683 0.73113 0.39947 0.0
H695 H 0.86407 0.69949 0.41696 0.0
H696 H 0.88979 0.70351 0.42247 0.0
H697 H 0.8731 0.71814 0.44012 0.0
H698 H 0.89644 0.74519 0.44639 0.0
H699 H 0.92694 0.74569 0.47385 0.0
H700 H 0.24929 0.79387 0.32783 0.0
H701 H 0.26267 0.82293 0.35137 0.0
H702 H 0.26003 0.85317 0.27873 0.0
H703 H 0.24589 0.82443 0.2552 0.0
H704 H 0.29389 0.84894 0.34769 0.0
H705 H 0.2222 0.88285 0.32388 0.0
H706 H 0.22643 0.8573 0.31818 0.0
H707 H 0.23502 0.87456 0.29618 0.0
C708 C 0.25181 0.80663 0.3168 0.0
C709 C 0.24616 0.80698 0.28977 0.0
C710 C 0.2596 0.82316 0.33023 0.0
C711 C 0.26193 0.84029 0.31685 0.0
C712 C 0.25802 0.84016 0.28945 0.0
H713 H 0.29898 0.94826 0.40542 0.0
H714 H 0.29815 0.92131 0.37242 0.0
C715 C 0.25011 0.82365 0.276 0.0
C716 C 0.26603 0.85867 0.33217 0.0
H717 H 0.24451 0.90083 0.35155 0.0
C718 C 0.28326 0.86045 0.3483 0.0
C719 C 0.25196 0.8735 0.33311 0.0
C720 C 0.23279 0.872 0.31711 0.0
C721 C 0.28657 0.87649 0.36591 0.0
C722 C 0.27232 0.89109 0.36714 0.0
C723 C 0.25541 0.8896 0.35039 0.0
C724 C 0.27363 0.90707 0.38739 0.0
C725 C 0.30478 0.87728 0.38396 0.0
C726 C 0.26005 0.908 0.40649 0.0
C727 C 0.26045 0.92329 0.42521 0.0
C728 C 0.27441 0.93804 0.42515 0.0
C729 C 0.28816 0.93701 0.4061 0.0
C730 C 0.28772 0.92164 0.38728 0.0
H731 H 0.31295 0.86344 0.38325 0.0
H732 H 0.31426 0.88905 0.37804 0.0
H733 H 0.30128 0.8806 0.40459 0.0
H734 H 0.24909 0.89684 0.4069 0.0
H735 H 0.24988 0.92347 0.43989 0.0
H736 H 0.18734 0.79226 0.71606 0.0
H737 H 0.15431 0.78705 0.69669 0.0
H738 H 0.17179 0.73283 0.66066 0.0
H739 H 0.20467 0.73785 0.68017 0.0
H740 H 0.14466 0.78543 0.64507 0.0
H741 H 0.12078 0.71744 0.68688 0.0
H742 H 0.14157 0.73099 0.7008 0.0
H743 H 0.14361 0.71463 0.67273 0.0
C744 C 0.18401 0.77903 0.70448 0.0
C745 C 0.1986 0.76545 0.6997 0.0
C746 C 0.16514 0.77606 0.69342 0.0
C747 C 0.16048 0.75945 0.6774 0.0
C748 C 0.17486 0.74551 0.67348 0.0
H749 H 0.07624 0.74948 0.54509 0.0
H750 H 0.10512 0.7531 0.5757 0.0
C751 C 0.19369 0.74841 0.68465 0.0
C752 C 0.14131 0.75775 0.66244 0.0
H753 H 0.10326 0.72695 0.64694 0.0
C754 C 0.13551 0.77274 0.64576 0.0
C755 C 0.12923 0.74131 0.66349 0.0
C756 C 0.13401 0.72528 0.68215 0.0
C757 C 0.11835 0.77143 0.62945 0.0
C758 C 0.10686 0.75447 0.62933 0.0
C759 C 0.11223 0.73981 0.64674 0.0
C760 C 0.08947 0.7516 0.61087 0.0
C761 C 0.11268 0.78825 0.61249 0.0
C762 C 0.07119 0.74893 0.62045 0.0
C763 C 0.05476 0.74672 0.60296 0.0
C764 C 0.05646 0.74703 0.57572 0.0
C765 C 0.07472 0.7493 0.56609 0.0
C766 C 0.09113 0.75147 0.58354 0.0
H767 H 0.11962 0.80198 0.62041 0.0
H768 H 0.11749 0.78532 0.59241 0.0
H769 H 0.09676 0.7903 0.61089 0.0
H770 H 0.0696 0.74888 0.64145 0.0
H771 H 0.04073 0.74496 0.61064 0.0
H772 H 0.24514 0.21109 0.70601 0.0
H773 H 0.25595 0.18281 0.68054 0.0
H774 H 0.25209 0.14748 0.74788 0.0
H775 H 0.24091 0.17558 0.77342 0.0
H776 H 0.28688 0.1417 0.71336 0.0
H777 H 0.2133 0.13832 0.66194 0.0
H778 H 0.22528 0.16153 0.66373 0.0
H779 H 0.21825 0.15109 0.69332 0.0
C780 C 0.24681 0.19735 0.7155 0.0
C781 C 0.24195 0.19551 0.74162 0.0
C782 C 0.25307 0.18127 0.70097 0.0
C783 C 0.25462 0.16312 0.71234 0.0
C784 C 0.251 0.16144 0.73887 0.0
H785 H 0.24889 0.05135 0.62862 0.0
H786 H 0.246 0.07814 0.66097 0.0
C787 C 0.24469 0.17752 0.75343 0.0
C788 C 0.25807 0.14561 0.69579 0.0
H789 H 0.23644 0.11628 0.64689 0.0
C790 C 0.2759 0.13607 0.69883 0.0
C791 C 0.24356 0.13825 0.67719 0.0
C792 C 0.22394 0.14768 0.67384 0.0
C793 C 0.27974 0.11947 0.68321 0.0
C794 C 0.26537 0.11241 0.66413 0.0
C795 C 0.24743 0.12178 0.66151 0.0
C796 C 0.26858 0.09548 0.64628 0.0
C797 C 0.29899 0.10948 0.68735 0.0
C798 C 0.28227 0.09638 0.6274 0.0
C799 C 0.28384 0.08117 0.60873 0.0
C800 C 0.27166 0.06485 0.60857 0.0
C801 C 0.25829 0.06383 0.62797 0.0
C802 C 0.25671 0.07904 0.64658 0.0
H803 H 0.30654 0.11385 0.70665 0.0
H804 H 0.29717 0.09347 0.68627 0.0
H805 H 0.30834 0.11347 0.67161 0.0
H806 H 0.29127 0.10913 0.62651 0.0
H807 H 0.29408 0.08256 0.59383 0.0
H808 H 0.80852 0.27228 0.74217 0.0
H809 H 0.83834 0.28208 0.72256 0.0
H810 H 0.82161 0.24727 0.6525 0.0
H811 H 0.79194 0.23792 0.67146 0.0
H812 H 0.86804 0.25788 0.70516 0.0
H813 H 0.83502 0.29899 0.62262 0.0
H814 H 0.8219 0.29299 0.65059 0.0
H815 H 0.8243 0.27542 0.62394 0.0
C816 C 0.81117 0.26694 0.72248 0.0
C817 C 0.79797 0.25419 0.70847 0.0
C818 C 0.82819 0.27248 0.71135 0.0
C819 C 0.83207 0.26561 0.68592 0.0
C820 C 0.81879 0.25305 0.67193 0.0
H821 H 0.91853 0.25109 0.57807 0.0
H822 H 0.89045 0.25165 0.60454 0.0
C823 C 0.80193 0.24751 0.68297 0.0
C824 C 0.85029 0.27061 0.67404 0.0
H825 H 0.86719 0.28671 0.6174 0.0
C826 C 0.86795 0.26457 0.68625 0.0
C827 C 0.85014 0.27939 0.64938 0.0
C828 C 0.83183 0.28725 0.636 0.0
C829 C 0.88528 0.26599 0.67366 0.0
C830 C 0.88489 0.27374 0.64835 0.0
C831 C 0.8674 0.28062 0.63672 0.0
C832 C 0.90215 0.27356 0.63277 0.0
C833 C 0.90373 0.25829 0.68683 0.0
C834 C 0.91799 0.2858 0.63981 0.0
C835 C 0.93409 0.28553 0.62467 0.0
C836 C 0.93465 0.27293 0.60232 0.0
C837 C 0.91869 0.26075 0.59536 0.0
C838 C 0.90259 0.26113 0.61037 0.0
H839 H 0.90118 0.25069 0.7051 0.0
H840 H 0.91083 0.24811 0.67313 0.0
H841 H 0.91387 0.27051 0.692 0.0
H842 H 0.91784 0.29562 0.65691 0.0
H843 H 0.9462 0.29502 0.63062 0.0
H844 H 0.77239 0.81252 0.74129 0.0
H845 H 0.76571 0.84629 0.73042 0.0
H846 H 0.72181 0.82668 0.67097 0.0
H847 H 0.72777 0.79321 0.68283 0.0
H848 H 0.77245 0.86121 0.68766 0.0
H849 H 0.69488 0.87273 0.69786 0.0
H850 H 0.70743 0.85207 0.7114 0.0
H851 H 0.69774 0.85133 0.67753 0.0
C852 C 0.7609 0.81558 0.72652 0.0
C853 C 0.75047 0.80038 0.71301 0.0
C854 C 0.75711 0.83483 0.72026 0.0
C855 C 0.74304 0.83916 0.70009 0.0
C856 C 0.73223 0.82391 0.68722 0.0
H857 H 0.75229 0.92117 0.58312 0.0
H858 H 0.75413 0.89466 0.6135 0.0
C859 C 0.73573 0.80473 0.69386 0.0
C860 C 0.74156 0.85905 0.68988 0.0
H861 H 0.70916 0.89188 0.66457 0.0
C862 C 0.7586 0.86808 0.68321 0.0
C863 C 0.72361 0.86841 0.68448 0.0
C864 C 0.70495 0.86068 0.69352 0.0
C865 C 0.75807 0.88542 0.66975 0.0
C866 C 0.73998 0.89357 0.66176 0.0
C867 C 0.72302 0.88537 0.67007 0.0
C868 C 0.73836 0.90971 0.64331 0.0
C869 C 0.77697 0.89465 0.66399 0.0
C870 C 0.72804 0.92665 0.64934 0.0
C871 C 0.72663 0.94171 0.63166 0.0
C872 C 0.73563 0.94007 0.60781 0.0
C873 C 0.74557 0.92296 0.60162 0.0
C874 C 0.74673 0.90786 0.61905 0.0
H875 H 0.7886 0.89126 0.67924 0.0
H876 H 0.78147 0.88871 0.64481 0.0
H877 H 0.7757 0.91065 0.66304 0.0
H878 H 0.72128 0.9283 0.66781 0.0
H879 H 0.71887 0.95478 0.63684 0.0
H880 H 0.81603 0.77233 0.72314 0.0
H881 H 0.84606 0.76713 0.70137 0.0
H882 H 0.81931 0.72002 0.65398 0.0
H883 H 0.78904 0.72557 0.67488 0.0
H884 H 0.87086 0.73537 0.6944 0.0
H885 H 0.83529 0.7576 0.5992 0.0
H886 H 0.82427 0.76126 0.63003 0.0
H887 H 0.82368 0.73773 0.61352 0.0
C888 C 0.81657 0.76077 0.70819 0.0
C889 C 0.80002 0.74953 0.70055 0.0
C890 C 0.83378 0.75776 0.69587 0.0
C891 C 0.83478 0.74348 0.67565 0.0
C892 C 0.81872 0.73139 0.66917 0.0
H893 H 0.92029 0.71592 0.56323 0.0
H894 H 0.89279 0.71567 0.5907 0.0
C895 C 0.80149 0.73443 0.68142 0.0
C896 C 0.85222 0.74199 0.66035 0.0
H897 H 0.86748 0.74651 0.59858 0.0
C898 C 0.87014 0.73779 0.67345 0.0
C899 C 0.85127 0.7453 0.63304 0.0
C900 C 0.83265 0.7509 0.61811 0.0
C901 C 0.88709 0.7365 0.65987 0.0
C902 C 0.88611 0.73976 0.63256 0.0
C903 C 0.86818 0.74392 0.61948 0.0
C904 C 0.90347 0.7392 0.61709 0.0
C905 C 0.90586 0.73135 0.67476 0.0
C906 C 0.91861 0.75255 0.62274 0.0
C907 C 0.93441 0.7527 0.60711 0.0
C908 C 0.93536 0.73951 0.58544 0.0
C909 C 0.9202 0.72607 0.57998 0.0
C910 C 0.9044 0.72598 0.59557 0.0
H911 H 0.90338 0.72451 0.69361 0.0
H912 H 0.91451 0.72131 0.66275 0.0
H913 H 0.91446 0.74476 0.67939 0.0
H914 H 0.91804 0.76313 0.63895 0.0
H915 H 0.94589 0.76315 0.61199 0.0
H916 H 0.23505 0.82895 0.71637 0.0
H917 H 0.24239 0.85866 0.69423 0.0
H918 H 0.28058 0.8265 0.64549 0.0
H919 H 0.2737 0.79683 0.66826 0.0
H920 H 0.29495 0.86237 0.65856 0.0
H921 H 0.21811 0.86897 0.6223 0.0
H922 H 0.22125 0.8691 0.65753 0.0
H923 H 0.22739 0.84775 0.63842 0.0
C924 C 0.24528 0.82831 0.70125 0.0
C925 C 0.25374 0.81054 0.69399 0.0
C926 C 0.24932 0.84525 0.6884 0.0
C927 C 0.26157 0.84477 0.66755 0.0
C928 C 0.27093 0.82727 0.66132 0.0
H929 H 0.28677 0.92656 0.54744 0.0
H930 H 0.28523 0.898 0.57468 0.0
C931 C 0.26709 0.81032 0.67444 0.0
C932 C 0.26395 0.86226 0.65165 0.0
H933 H 0.23856 0.89557 0.61507 0.0
C934 C 0.28262 0.86956 0.64897 0.0
C935 C 0.24789 0.87163 0.63884 0.0
C936 C 0.22756 0.86386 0.63915 0.0
C937 C 0.28557 0.88614 0.63442 0.0
C938 C 0.26948 0.89567 0.62216 0.0
C939 C 0.25087 0.88835 0.62469 0.0
C940 C 0.27158 0.91317 0.60636 0.0
C941 C 0.30585 0.89359 0.63258 0.0
C942 C 0.26437 0.93115 0.61506 0.0
C943 C 0.26539 0.94746 0.59963 0.0
C944 C 0.27334 0.94601 0.57503 0.0
C945 C 0.28067 0.92804 0.5664 0.0
C946 C 0.27983 0.91178 0.58195 0.0
H947 H 0.31635 0.88677 0.64689 0.0
H948 H 0.31042 0.89033 0.61245 0.0
H949 H 0.30639 0.90958 0.63611 0.0
H950 H 0.25787 0.93255 0.63374 0.0
H951 H 0.25968 0.96116 0.6067 0.0
H952 H 0.1693 0.23968 0.76993 0.0
H953 H 0.14074 0.24932 0.74229 0.0
H954 H 0.17705 0.26174 0.67972 0.0
H955 H 0.20555 0.25197 0.7071 0.0
H956 H 0.12961 0.28309 0.71433 0.0
H957 H 0.14025 0.21931 0.64708 0.0
H958 H 0.15291 0.22215 0.67917 0.0
H959 H 0.16088 0.23509 0.65193 0.0
C960 C 0.17121 0.24489 0.7505 0.0
C961 C 0.1896 0.24487 0.74053 0.0
C962 C 0.15489 0.25031 0.7347 0.0
C963 C 0.15675 0.25581 0.70876 0.0
C964 C 0.17526 0.25711 0.69947 0.0
H965 H 0.07753 0.27677 0.57355 0.0
H966 H 0.10578 0.27469 0.60528 0.0
C967 C 0.19152 0.25159 0.71515 0.0
C968 C 0.13934 0.25893 0.69077 0.0
H969 H 0.11591 0.24153 0.63345 0.0
C970 C 0.12656 0.274 0.69668 0.0
C971 C 0.13533 0.24693 0.66785 0.0
C972 C 0.14794 0.22984 0.66118 0.0
C973 C 0.11009 0.27769 0.67987 0.0
C974 C 0.10626 0.26583 0.6568 0.0
C975 C 0.11898 0.25069 0.65104 0.0
C976 C 0.08906 0.26864 0.63833 0.0
C977 C 0.09716 0.29446 0.68662 0.0
C978 C 0.07034 0.26594 0.64641 0.0
C979 C 0.05427 0.2671 0.62832 0.0
C980 C 0.05674 0.2709 0.60192 0.0
C981 C 0.0754 0.27389 0.59389 0.0
C982 C 0.09145 0.2727 0.61195 0.0
H983 H 0.10448 0.30486 0.70127 0.0
H984 H 0.0924 0.30235 0.66872 0.0
H985 H 0.08408 0.28884 0.69516 0.0
H986 H 0.06819 0.26241 0.66652 0.0
H987 H 0.03994 0.26467 0.63475 0.0
H988 H 0.77674 0.18787 0.73004 0.0
H989 H 0.7703 0.15637 0.70731 0.0
H990 H 0.71631 0.17794 0.67294 0.0
H991 H 0.72274 0.20962 0.69547 0.0
H992 H 0.71652 0.1367 0.6903 0.0
H993 H 0.77445 0.1545 0.62503 0.0
H994 H 0.78105 0.15653 0.6598 0.0
H995 H 0.76329 0.17265 0.64545 0.0
C996 C 0.7633 0.18579 0.71807 0.0
C997 C 0.75034 0.20131 0.71437 0.0
C998 C 0.75967 0.1678 0.70506 0.0
C999 C 0.743 0.16493 0.68809 0.0
C1000 C 0.7293 0.17988 0.68591 0.0
H1001 H 0.72795 0.08064 0.55664 0.0
H1002 H 0.72902 0.11005 0.5856 0.0
C1003 C 0.73293 0.19794 0.69893 0.0
C1004 C 0.74084 0.14706 0.67087 0.0
H1005 H 0.76058 0.12324 0.61919 0.0
C1006 C 0.72613 0.13372 0.67475 0.0
C1007 C 0.75323 0.14335 0.65036 0.0
C1008 C 0.76882 0.15754 0.64465 0.0
C1009 C 0.72373 0.11657 0.65891 0.0
C1010 C 0.73644 0.11266 0.6388 0.0
C1011 C 0.75093 0.12618 0.6347 0.0
C1012 C 0.73493 0.09473 0.62156 0.0
C1013 C 0.70745 0.10291 0.66353 0.0
C1014 C 0.73804 0.07637 0.6321 0.0
C1015 C 0.7375 0.05964 0.61556 0.0
C1016 C 0.7339 0.06102 0.58825 0.0
C1017 C 0.73072 0.07932 0.57768 0.0
C1018 C 0.73133 0.09604 0.59419 0.0
H1019 H 0.69636 0.11006 0.67527 0.0
H1020 H 0.70036 0.09722 0.64455 0.0
H1021 H 0.71335 0.0904 0.67452 0.0
H1022 H 0.74121 0.07502 0.65307 0.0
H1023 H 0.74005 0.04562 0.62402 0.0
H1024 H 0.8 0.25331 0.35665 0.0
H1025 H 0.82907 0.2632 0.3839 0.0
H1026 H 0.86406 0.24864 0.31933 0.0
H1027 H 0.83502 0.23878 0.29194 0.0
H1028 H 0.85855 0.23804 0.39714 0.0
H1029 H 0.88702 0.30066 0.34661 0.0
H1030 H 0.86254 0.29188 0.34013 0.0
H1031 H 0.88218 0.2795 0.32552 0.0
C1032 C 0.81387 0.25251 0.34813 0.0
C1033 C 0.81523 0.24522 0.32217 0.0
C1034 C 0.83045 0.2582 0.3637 0.0
C1035 C 0.84874 0.2568 0.35362 0.0
C1036 C 0.85009 0.25025 0.32737 0.0
H1037 H 0.96644 0.26168 0.42462 0.0
H1038 H 0.93723 0.25929 0.39427 0.0
C1039 C 0.83347 0.2446 0.31172 0.0
C1040 C 0.86641 0.2603 0.37139 0.0
H1041 H 0.90796 0.28714 0.38022 0.0
C1042 C 0.86927 0.2489 0.39355 0.0
C1043 C 0.88047 0.27434 0.36655 0.0
C1044 C 0.87788 0.28743 0.34354 0.0
C1045 C 0.88589 0.25094 0.4108 0.0
C1046 C 0.89992 0.26501 0.40604 0.0
C1047 C 0.89714 0.2764 0.38385 0.0
C1048 C 0.91765 0.26787 0.42384 0.0
C1049 C 0.88852 0.23765 0.43363 0.0
C1050 C 0.91633 0.27391 0.4503 0.0
C1051 C 0.93292 0.27521 0.46754 0.0
C1052 C 0.95106 0.27059 0.45852 0.0
C1053 C 0.95251 0.26523 0.43189 0.0
C1054 C 0.9359 0.2639 0.41463 0.0
H1055 H 0.87896 0.22471 0.43085 0.0
H1056 H 0.90375 0.2327 0.43637 0.0
H1057 H 0.88488 0.24564 0.45194 0.0
H1058 H 0.90241 0.27734 0.45769 0.0
H1059 H 0.93158 0.27947 0.48802 0.0
H1060 H 0.77011 0.82365 0.31643 0.0
H1061 H 0.76398 0.85452 0.33971 0.0
H1062 H 0.71717 0.82817 0.37692 0.0
H1063 H 0.72306 0.79728 0.35331 0.0
H1064 H 0.7092 0.86631 0.36364 0.0
H1065 H 0.78121 0.8611 0.41763 0.0
H1066 H 0.78218 0.86074 0.38251 0.0
H1067 H 0.77052 0.8412 0.39766 0.0
C1068 C 0.75828 0.82455 0.32921 0.0
C1069 C 0.74715 0.80801 0.33318 0.0
C1070 C 0.75488 0.84215 0.34264 0.0
C1071 C 0.74046 0.84354 0.36063 0.0
C1072 C 0.72847 0.82741 0.3633 0.0
H1073 H 0.74024 0.92824 0.4918 0.0
H1074 H 0.74094 0.89871 0.46331 0.0
C1075 C 0.73177 0.8098 0.34968 0.0
C1076 C 0.7387 0.86137 0.37777 0.0
H1077 H 0.76393 0.89029 0.42422 0.0
C1078 C 0.72115 0.87156 0.3769 0.0
C1079 C 0.75418 0.86804 0.39548 0.0
C1080 C 0.77302 0.85712 0.39865 0.0
C1081 C 0.71877 0.88839 0.39291 0.0
C1082 C 0.73449 0.89542 0.40994 0.0
C1083 C 0.75193 0.88505 0.41103 0.0
C1084 C 0.73317 0.91327 0.42719 0.0
C1085 C 0.69932 0.89822 0.39184 0.0
C1086 C 0.72868 0.93133 0.41643 0.0
C1087 C 0.72818 0.94814 0.43274 0.0
C1088 C 0.73234 0.94718 0.46001 0.0
C1089 C 0.73691 0.92922 0.4708 0.0
C1090 C 0.73733 0.91242 0.45454 0.0
H1091 H 0.6876 0.88823 0.38379 0.0
H1092 H 0.69579 0.90377 0.41168 0.0
H1093 H 0.69959 0.91069 0.37877 0.0
H1094 H 0.7259 0.9325 0.39537 0.0
H1095 H 0.7248 0.96193 0.42406 0.0
H1096 H 0.18242 0.79518 0.30584 0.0
H1097 H 0.15501 0.78671 0.33042 0.0
H1098 H 0.15873 0.72724 0.30183 0.0
H1099 H 0.18696 0.73552 0.2779 0.0
H1100 H 0.11982 0.77206 0.31437 0.0
H1101 H 0.15936 0.72109 0.38084 0.0
H1102 H 0.17166 0.7369 0.36009 0.0
H1103 H 0.15994 0.71524 0.34624 0.0
C1104 C 0.17763 0.78021 0.30501 0.0
C1105 C 0.18718 0.76593 0.29034 0.0
C1106 C 0.1618 0.77543 0.3189 0.0
C1107 C 0.15499 0.75627 0.31841 0.0
C1108 C 0.16399 0.74204 0.30301 0.0
H1109 H 0.05755 0.71644 0.4047 0.0
H1110 H 0.08241 0.71781 0.37297 0.0
C1111 C 0.17999 0.74682 0.28911 0.0
C1112 C 0.13855 0.75156 0.33429 0.0
H1113 H 0.12644 0.72641 0.3873 0.0
C1114 C 0.12123 0.76194 0.33015 0.0
C1115 C 0.14039 0.73837 0.35495 0.0
C1116 C 0.15886 0.72735 0.36104 0.0
C1117 C 0.10595 0.75987 0.34648 0.0
C1118 C 0.10801 0.74712 0.36749 0.0
C1119 C 0.12497 0.73617 0.3711 0.0
C1120 C 0.0932 0.74601 0.38694 0.0
C1121 C 0.08779 0.77159 0.34153 0.0
C1122 C 0.09127 0.76131 0.40548 0.0
C1123 C 0.07731 0.76049 0.42389 0.0
C1124 C 0.06487 0.74436 0.42405 0.0
C1125 C 0.06699 0.72897 0.40545 0.0
C1126 C 0.0811 0.72976 0.38716 0.0
H1127 H 0.08701 0.77808 0.32186 0.0
H1128 H 0.07479 0.76241 0.34301 0.0
H1129 H 0.08746 0.78352 0.35676 0.0
H1130 H 0.10066 0.77388 0.40578 0.0
H1131 H 0.07645 0.77243 0.43819 0.0
H1132 H 0.2614 0.20961 0.37081 0.0
H1133 H 0.26964 0.18038 0.39483 0.0
H1134 H 0.25499 0.14511 0.3245 0.0
H1135 H 0.24692 0.17439 0.30029 0.0
H1136 H 0.24408 0.15212 0.40344 0.0
H1137 H 0.3047 0.11965 0.35173 0.0
H1138 H 0.29698 0.14439 0.3474 0.0
H1139 H 0.28377 0.1247 0.33033 0.0
C1140 C 0.26033 0.19565 0.36031 0.0
C1141 C 0.25353 0.19435 0.33361 0.0
C1142 C 0.26501 0.17893 0.37408 0.0
C1143 C 0.26306 0.16046 0.36154 0.0
C1144 C 0.25703 0.15915 0.33456 0.0
H1145 H 0.26416 0.04296 0.41994 0.0
H1146 H 0.26216 0.07171 0.39277 0.0
C1147 C 0.25242 0.17593 0.3207 0.0
C1148 C 0.26562 0.14272 0.37732 0.0
H1149 H 0.29034 0.09991 0.3824 0.0
C1150 C 0.25432 0.14079 0.39891 0.0
C1151 C 0.27884 0.12779 0.37137 0.0
C1152 C 0.2919 0.12926 0.3491 0.0
C1153 C 0.25568 0.12438 0.41446 0.0
C1154 C 0.26896 0.10951 0.40862 0.0
C1155 C 0.2802 0.11132 0.38694 0.0
C1156 C 0.27123 0.09197 0.42477 0.0
C1157 C 0.24254 0.12291 0.43668 0.0
C1158 C 0.27738 0.0937 0.45167 0.0
C1159 C 0.2785 0.07732 0.46713 0.0
C1160 C 0.2736 0.0589 0.45596 0.0
C1161 C 0.26797 0.05705 0.42894 0.0
C1162 C 0.26686 0.07344 0.41346 0.0
H1163 H 0.23001 0.13289 0.43443 0.0
H1164 H 0.23704 0.10787 0.43782 0.0
H1165 H 0.25078 0.12687 0.45559 0.0
H1166 H 0.28115 0.10777 0.46076 0.0
H1167 H 0.28293 0.07905 0.48791 0.0
H1168 H 0.67216 0.738 0.76701 0.0
H1169 H 0.64377 0.74822 0.79022 0.0
H1170 H 0.68074 0.76389 0.85938 0.0
H1171 H 0.7091 0.75353 0.8364 0.0
H1172 H 0.63773 0.72924 0.84239 0.0
H1173 H 0.63957 0.80994 0.84819 0.0
H1174 H 0.64986 0.79589 0.82193 0.0
H1175 H 0.66212 0.79733 0.85413 0.0
C1176 C 0.67424 0.7442 0.78688 0.0
C1177 C 0.69279 0.74503 0.79993 0.0
C1178 C 0.65805 0.74992 0.80013 0.0
C1179 C 0.66021 0.75689 0.82643 0.0
C1180 C 0.67881 0.75876 0.839 0.0
H1181 H 0.58729 0.78536 0.953 0.0
H1182 H 0.61311 0.78253 0.92266 0.0
C1183 C 0.69496 0.75281 0.82589 0.0
C1184 C 0.64307 0.75992 0.84184 0.0
H1185 H 0.61733 0.79454 0.87381 0.0
C1186 C 0.63309 0.74351 0.84906 0.0
C1187 C 0.63735 0.77852 0.85078 0.0
C1188 C 0.64766 0.79652 0.84333 0.0
C1189 C 0.61778 0.74515 0.8656 0.0
C1190 C 0.61186 0.76381 0.87446 0.0
C1191 C 0.62178 0.78026 0.86695 0.0
C1192 C 0.59581 0.76646 0.89213 0.0
C1193 C 0.60868 0.7268 0.87428 0.0
C1194 C 0.57735 0.75879 0.88486 0.0
C1195 C 0.56268 0.76017 0.9023 0.0
C1196 C 0.56605 0.76964 0.92714 0.0
C1197 C 0.58427 0.77804 0.93396 0.0
C1198 C 0.59903 0.77641 0.91664 0.0
H1199 H 0.6184 0.71411 0.87219 0.0
H1200 H 0.605 0.72828 0.89512 0.0
H1201 H 0.5952 0.7237 0.86177 0.0
H1202 H 0.57432 0.75157 0.86577 0.0
H1203 H 0.54867 0.75386 0.89635 0.0
H1204 H 0.25472 0.72027 0.84576 0.0
H1205 H 0.24794 0.69157 0.8703 0.0
H1206 H 0.25222 0.65539 0.80009 0.0
H1207 H 0.25927 0.68411 0.77536 0.0
H1208 H 0.22073 0.64544 0.83436 0.0
H1209 H 0.2933 0.65271 0.88753 0.0
H1210 H 0.27865 0.6742 0.88798 0.0
H1211 H 0.28691 0.66484 0.85738 0.0
C1212 C 0.25398 0.70624 0.83542 0.0
C1213 C 0.25775 0.7045 0.80862 0.0
C1214 C 0.25012 0.68984 0.8495 0.0
C1215 C 0.24991 0.67129 0.83716 0.0
C1216 C 0.25239 0.66957 0.81003 0.0
H1217 H 0.26738 0.56244 0.91659 0.0
H1218 H 0.26868 0.5897 0.88756 0.0
C1219 C 0.2563 0.68602 0.79588 0.0
C1220 C 0.24845 0.65374 0.85305 0.0
H1221 H 0.2724 0.62896 0.90218 0.0
C1222 C 0.23202 0.64179 0.84916 0.0
C1223 C 0.26331 0.64884 0.87213 0.0
C1224 C 0.28164 0.66068 0.87646 0.0
C1225 C 0.2299 0.62532 0.86425 0.0
C1226 C 0.24453 0.62076 0.88387 0.0
C1227 C 0.26111 0.63251 0.88732 0.0
C1228 C 0.2431 0.60379 0.90093 0.0
C1229 C 0.21214 0.61279 0.85885 0.0
C1230 C 0.22835 0.60263 0.91833 0.0
C1231 C 0.22765 0.5871 0.93523 0.0
C1232 C 0.24175 0.57238 0.9352 0.0
C1233 C 0.25643 0.57359 0.91756 0.0
C1234 C 0.25713 0.58913 0.90076 0.0
H1235 H 0.20475 0.61539 0.83924 0.0
H1236 H 0.21589 0.59717 0.85981 0.0
H1237 H 0.20179 0.6162 0.87402 0.0
H1238 H 0.21759 0.61397 0.91928 0.0
H1239 H 0.21632 0.58692 0.94877 0.0
H1240 H 0.31447 0.26848 0.82465 0.0
H1241 H 0.34717 0.26201 0.84361 0.0
H1242 H 0.32377 0.22303 0.8975 0.0
H1243 H 0.29115 0.22913 0.87817 0.0
H1244 H 0.35986 0.27105 0.89288 0.0
H1245 H 0.36919 0.19204 0.87536 0.0
H1246 H 0.34996 0.20545 0.85867 0.0
H1247 H 0.34766 0.19762 0.89161 0.0
C1248 C 0.31639 0.25821 0.84016 0.0
C1249 C 0.30029 0.24926 0.84989 0.0
C1250 C 0.33505 0.25453 0.851 0.0
C1251 C 0.338 0.24188 0.87184 0.0
C1252 C 0.32197 0.23244 0.881 0.0
H1253 H 0.43 0.22389 0.9916 0.0
H1254 H 0.39948 0.22465 0.96395 0.0
C1255 C 0.30331 0.23597 0.86998 0.0
C1256 C 0.35751 0.24012 0.88565 0.0
H1257 H 0.39141 0.20752 0.90794 0.0
C1258 C 0.36685 0.25716 0.89584 0.0
C1259 C 0.36664 0.222 0.88964 0.0
C1260 C 0.35793 0.20326 0.87801 0.0
C1261 C 0.38477 0.25655 0.91042 0.0
C1262 C 0.39363 0.23843 0.91488 0.0
C1263 C 0.38449 0.22138 0.90452 0.0
C1264 C 0.41223 0.23699 0.93083 0.0
C1265 C 0.39391 0.27523 0.92158 0.0
C1266 C 0.42946 0.24343 0.92114 0.0
C1267 C 0.44684 0.2429 0.93681 0.0
C1268 C 0.44716 0.23607 0.96243 0.0
C1269 C 0.42999 0.22929 0.97191 0.0
C1270 C 0.41265 0.22968 0.95618 0.0
H1271 H 0.38386 0.28772 0.91973 0.0
H1272 H 0.39871 0.27383 0.94268 0.0
H1273 H 0.40687 0.27841 0.91089 0.0
H1274 H 0.42942 0.24898 0.90155 0.0
H1275 H 0.46 0.24802 0.9291 0.0
H1276 H 0.75617 0.29821 0.86549 0.0
H1277 H 0.76456 0.32867 0.88987 0.0
H1278 H 0.75236 0.36018 0.81922 0.0
H1279 H 0.74347 0.32978 0.79481 0.0
H1280 H 0.79128 0.35889 0.88371 0.0
H1281 H 0.71524 0.38433 0.87077 0.0
H1282 H 0.72204 0.35954 0.86357 0.0
H1283 H 0.7264 0.37804 0.84084 0.0
C1284 C 0.75547 0.31161 0.85506 0.0
C1285 C 0.74897 0.31157 0.82825 0.0
C1286 C 0.76032 0.329 0.86902 0.0
C1287 C 0.7587 0.34676 0.85652 0.0
C1288 C 0.75337 0.34668 0.82939 0.0
H1289 H 0.76285 0.46568 0.92374 0.0
H1290 H 0.76146 0.43705 0.89334 0.0
C1291 C 0.74853 0.32926 0.81537 0.0
C1292 C 0.76155 0.36529 0.87231 0.0
H1293 H 0.73761 0.40553 0.89388 0.0
C1294 C 0.77958 0.36914 0.88586 0.0
C1295 C 0.74626 0.37864 0.87518 0.0
C1296 C 0.72633 0.37494 0.86204 0.0
C1297 C 0.78274 0.38599 0.90208 0.0
C1298 C 0.76735 0.39918 0.90528 0.0
C1299 C 0.74942 0.39546 0.89141 0.0
C1300 C 0.76928 0.41663 0.92348 0.0
C1301 C 0.80261 0.38962 0.9154 0.0
C1302 C 0.77403 0.4147 0.95054 0.0
C1303 C 0.77484 0.43103 0.96783 0.0
C1304 C 0.77077 0.44953 0.95838 0.0
C1305 C 0.7661 0.45152 0.93137 0.0
C1306 C 0.76529 0.4352 0.91407 0.0
H1307 H 0.8139 0.38159 0.90502 0.0
H1308 H 0.80626 0.40531 0.91634 0.0
H1309 H 0.80298 0.38452 0.93581 0.0
H1310 H 0.7767 0.40052 0.95841 0.0
H1311 H 0.77832 0.4292 0.98865 0.0
H1312 H 0.6935 0.2721 0.23245 0.0
H1313 H 0.66052 0.26574 0.2137 0.0
H1314 H 0.68151 0.21902 0.16474 0.0
H1315 H 0.71442 0.22508 0.18385 0.0
H1316 H 0.64901 0.26986 0.16334 0.0
H1317 H 0.63368 0.19442 0.18892 0.0
H1318 H 0.65366 0.20826 0.20468 0.0
H1319 H 0.65577 0.19636 0.17293 0.0
C1320 C 0.69098 0.2602 0.2181 0.0
C1321 C 0.7065 0.24905 0.20963 0.0
C1322 C 0.67215 0.25658 0.2074 0.0
C1323 C 0.66846 0.24179 0.18796 0.0
C1324 C 0.68387 0.23019 0.18017 0.0
H1325 H 0.57844 0.22392 0.06412 0.0
H1326 H 0.60852 0.22474 0.09284 0.0
C1327 C 0.7027 0.23368 0.19106 0.0
C1328 C 0.64898 0.2399 0.17391 0.0
H1329 H 0.61295 0.20757 0.15419 0.0
C1330 C 0.64104 0.25629 0.16168 0.0
C1331 C 0.63856 0.22219 0.17166 0.0
C1332 C 0.64576 0.20437 0.18547 0.0
C1333 C 0.62326 0.25531 0.14673 0.0
C1334 C 0.61319 0.2375 0.14387 0.0
C1335 C 0.62086 0.22117 0.15638 0.0
C1336 C 0.59487 0.23565 0.1273 0.0
C1337 C 0.61544 0.27317 0.13356 0.0
C1338 C 0.57735 0.24135 0.13738 0.0
C1339 C 0.56024 0.24084 0.12107 0.0
C1340 C 0.56052 0.23474 0.09449 0.0
C1341 C 0.57799 0.22868 0.08458 0.0
C1342 C 0.59507 0.22911 0.10091 0.0
H1343 H 0.62534 0.28581 0.13705 0.0
H1344 H 0.61303 0.27014 0.11201 0.0
H1345 H 0.60126 0.27705 0.1411 0.0
H1346 H 0.57699 0.24648 0.1577 0.0
H1347 H 0.54684 0.24549 0.12904 0.0
H1348 H 0.75049 0.71233 0.17958 0.0
H1349 H 0.7596 0.68233 0.15639 0.0
H1350 H 0.75063 0.65019 0.22537 0.0
H1351 H 0.74108 0.68009 0.24853 0.0
H1352 H 0.78806 0.65328 0.16715 0.0
H1353 H 0.71321 0.62449 0.16769 0.0
H1354 H 0.71913 0.64959 0.17574 0.0
H1355 H 0.72463 0.63142 0.19943 0.0
C1356 C 0.75065 0.6989 0.18992 0.0
C1357 C 0.74488 0.6986 0.21584 0.0
C1358 C 0.75591 0.68177 0.17666 0.0
C1359 C 0.75544 0.66395 0.18896 0.0
C1360 C 0.75079 0.66373 0.21534 0.0
H1361 H 0.76284 0.54523 0.12321 0.0
H1362 H 0.76089 0.5739 0.15314 0.0
C1363 C 0.74555 0.68089 0.22867 0.0
C1364 C 0.75875 0.64559 0.17362 0.0
H1365 H 0.73605 0.6043 0.1483 0.0
C1366 C 0.77673 0.64252 0.1631 0.0
C1367 C 0.74393 0.63158 0.16828 0.0
C1368 C 0.72407 0.63441 0.17815 0.0
C1369 C 0.78032 0.62578 0.14753 0.0
C1370 C 0.76539 0.61191 0.14184 0.0
C1371 C 0.7475 0.61488 0.15267 0.0
C1372 C 0.76774 0.59448 0.12414 0.0
C1373 C 0.80015 0.62299 0.1376 0.0
C1374 C 0.77215 0.59647 0.09787 0.0
C1375 C 0.77332 0.58012 0.08087 0.0
C1376 C 0.76992 0.56153 0.08979 0.0
C1377 C 0.76558 0.55947 0.11602 0.0
C1378 C 0.76445 0.57581 0.13304 0.0
H1379 H 0.81128 0.63149 0.14989 0.0
H1380 H 0.80438 0.60746 0.13735 0.0
H1381 H 0.80005 0.62808 0.11721 0.0
H1382 H 0.77427 0.61071 0.09031 0.0
H1383 H 0.77651 0.58199 0.06062 0.0
H1384 H 0.31095 0.73244 0.20665 0.0
H1385 H 0.34104 0.74072 0.18774 0.0
H1386 H 0.31196 0.78645 0.14532 0.0
H1387 H 0.28149 0.77751 0.16299 0.0
H1388 H 0.33152 0.76466 0.11335 0.0
H1389 H 0.38005 0.78308 0.20143 0.0
H1390 H 0.36939 0.7596 0.20365 0.0
H1391 H 0.35422 0.78081 0.20289 0.0
C1392 C 0.31095 0.74437 0.19344 0.0
C1393 C 0.2937 0.7542 0.18623 0.0
C1394 C 0.32828 0.74928 0.18292 0.0
C1395 C 0.3289 0.76439 0.16533 0.0
C1396 C 0.31189 0.77479 0.15896 0.0
H1397 H 0.43815 0.79896 0.10302 0.0
H1398 H 0.40851 0.79876 0.12637 0.0
C1399 C 0.29448 0.76977 0.16929 0.0
C1400 C 0.34675 0.768 0.15163 0.0
H1401 H 0.3956 0.77458 0.16169 0.0
C1402 C 0.34548 0.76709 0.12397 0.0
C1403 C 0.36498 0.77144 0.16537 0.0
C1404 C 0.36722 0.774 0.19497 0.0
C1405 C 0.36195 0.7688 0.10973 0.0
C1406 C 0.38035 0.77092 0.12349 0.0
C1407 C 0.38156 0.77262 0.15112 0.0
C1408 C 0.39847 0.77098 0.10953 0.0
C1409 C 0.35942 0.7684 0.08005 0.0
C1410 C 0.40289 0.75529 0.09265 0.0
C1411 C 0.41964 0.75549 0.07897 0.0
C1412 C 0.4326 0.77125 0.08216 0.0
C1413 C 0.42838 0.78674 0.09967 0.0
C1414 C 0.4115 0.78658 0.11322 0.0
H1415 H 0.34465 0.77304 0.07308 0.0
H1416 H 0.37009 0.77797 0.07166 0.0
H1417 H 0.3615 0.75336 0.07227 0.0
H1418 H 0.39331 0.74287 0.08995 0.0
H1419 H 0.42221 0.74339 0.06549 0.0
H1420 H 0.27881 0.31631 0.23718 0.0
H1421 H 0.2723 0.34571 0.21278 0.0
H1422 H 0.2235 0.31759 0.17002 0.0
H1423 H 0.22991 0.28811 0.19457 0.0
H1424 H 0.27401 0.34701 0.15937 0.0
H1425 H 0.20158 0.3711 0.18698 0.0
H1426 H 0.21597 0.35399 0.2058 0.0
H1427 H 0.20268 0.34616 0.17568 0.0
C1428 C 0.26642 0.31653 0.22299 0.0
C1429 C 0.25488 0.29985 0.21784 0.0
C1430 C 0.26274 0.33335 0.209 0.0
C1431 C 0.24736 0.33398 0.18956 0.0
C1432 C 0.23523 0.31766 0.18522 0.0
H1433 H 0.21646 0.41735 0.06831 0.0
H1434 H 0.21762 0.38965 0.09707 0.0
C1435 C 0.23888 0.30079 0.19932 0.0
C1436 C 0.24534 0.35097 0.1723 0.0
H1437 H 0.21458 0.38697 0.15156 0.0
C1438 C 0.26104 0.3558 0.15781 0.0
C1439 C 0.22835 0.36236 0.16997 0.0
C1440 C 0.21122 0.3583 0.18559 0.0
C1441 C 0.26022 0.37152 0.14103 0.0
C1442 C 0.24335 0.38309 0.13895 0.0
C1443 C 0.22753 0.37816 0.15319 0.0
C1444 C 0.24202 0.40041 0.12225 0.0
C1445 C 0.27733 0.37534 0.12524 0.0
C1446 C 0.25506 0.41593 0.1271 0.0
C1447 C 0.25443 0.43179 0.11073 0.0
C1448 C 0.24062 0.43263 0.08915 0.0
C1449 C 0.2272 0.41731 0.0848 0.0
C1450 C 0.22788 0.4014 0.10119 0.0
H1451 H 0.28664 0.36232 0.12342 0.0
H1452 H 0.27259 0.37996 0.10517 0.0
H1453 H 0.28627 0.38714 0.13529 0.0
H1454 H 0.26581 0.41576 0.14359 0.0
H1455 H 0.26472 0.44348 0.1151 0.0
H1456 H 0.29684 0.22211 0.20969 0.0
H1457 H 0.32733 0.21412 0.19054 0.0
H1458 H 0.35123 0.26909 0.22015 0.0
H1459 H 0.32108 0.27683 0.2402 0.0
H1460 H 0.34097 0.23434 0.15206 0.0
H1461 H 0.39666 0.23379 0.23525 0.0
H1462 H 0.37113 0.23256 0.2399 0.0
H1463 H 0.38254 0.25556 0.23567 0.0
C1464 C 0.30882 0.23218 0.213 0.0
C1465 C 0.30649 0.25014 0.22644 0.0
C1466 C 0.32621 0.22766 0.20183 0.0
C1467 C 0.34166 0.24094 0.20399 0.0
C1468 C 0.33971 0.25843 0.21859 0.0
H1469 H 0.42484 0.26114 0.09104 0.0
H1470 H 0.39798 0.26121 0.1195 0.0
C1471 C 0.32236 0.26293 0.22984 0.0
C1472 C 0.35878 0.23764 0.18838 0.0
H1473 H 0.40819 0.23807 0.19231 0.0
C1474 C 0.35566 0.23489 0.16095 0.0
C1475 C 0.37796 0.23819 0.19991 0.0
C1476 C 0.38229 0.23999 0.22933 0.0
C1477 C 0.37114 0.2334 0.14468 0.0
C1478 C 0.3903 0.23509 0.15606 0.0
C1479 C 0.39348 0.23705 0.18357 0.0
C1480 C 0.40713 0.23536 0.13959 0.0
C1481 C 0.3668 0.23007 0.1154 0.0
C1482 C 0.42156 0.22115 0.14199 0.0
C1483 C 0.43713 0.22119 0.1259 0.0
C1484 C 0.43863 0.23555 0.10725 0.0
C1485 C 0.42429 0.24996 0.10532 0.0
C1486 C 0.40877 0.2499 0.12138 0.0
H1487 H 0.35223 0.22356 0.1108 0.0
H1488 H 0.3671 0.24418 0.10572 0.0
H1489 H 0.37772 0.22041 0.10682 0.0
H1490 H 0.42066 0.20988 0.15607 0.0
H1491 H 0.44804 0.21004 0.1282 0.0
H1492 H 0.78276 0.29067 0.19393 0.0
H1493 H 0.78939 0.32255 0.17735 0.0
H1494 H 0.73989 0.34604 0.21413 0.0
H1495 H 0.73353 0.31432 0.23158 0.0
H1496 H 0.76304 0.34003 0.14284 0.0
H1497 H 0.78034 0.38866 0.23067 0.0
H1498 H 0.78135 0.36254 0.23192 0.0
H1499 H 0.75851 0.37486 0.23199 0.0
C1500 C 0.77367 0.30275 0.19929 0.0
C1501 C 0.75758 0.29994 0.21404 0.0
C1502 C 0.77741 0.32094 0.18963 0.0
C1503 C 0.76521 0.33669 0.19463 0.0
C1504 C 0.74969 0.33418 0.2104 0.0
H1505 H 0.74561 0.44854 0.12602 0.0
H1506 H 0.74501 0.41974 0.1526 0.0
C1507 C 0.74595 0.31599 0.22012 0.0
C1508 C 0.76732 0.35494 0.18073 0.0
H1509 H 0.77353 0.40393 0.1898 0.0
C1510 C 0.76554 0.35397 0.1531 0.0
C1511 C 0.77035 0.37312 0.1942 0.0
C1512 C 0.77292 0.37491 0.22383 0.0
C1513 C 0.76639 0.37072 0.13854 0.0
C1514 C 0.76945 0.38891 0.15196 0.0
C1515 C 0.77123 0.38993 0.1796 0.0
C1516 C 0.77067 0.40697 0.13744 0.0
C1517 C 0.76349 0.36886 0.10889 0.0
C1518 C 0.78551 0.40948 0.12057 0.0
C1519 C 0.7858 0.42578 0.10521 0.0
C1520 C 0.7713 0.43998 0.10656 0.0
C1521 C 0.75681 0.43773 0.12421 0.0
C1522 C 0.75653 0.42138 0.13956 0.0
H1523 H 0.7567 0.35479 0.10213 0.0
H1524 H 0.75429 0.3808 0.10105 0.0
H1525 H 0.77773 0.36974 0.10036 0.0
H1526 H 0.79669 0.39861 0.11891 0.0
H1527 H 0.79707 0.42694 0.09169 0.0
H1528 H 0.71003 0.75413 0.1745 0.0
H1529 H 0.68131 0.76309 0.14691 0.0
H1530 H 0.64603 0.75589 0.21225 0.0
H1531 H 0.67469 0.74714 0.23995 0.0
H1532 H 0.65104 0.73917 0.13405 0.0
H1533 H 0.62473 0.80594 0.18373 0.0
H1534 H 0.64873 0.79649 0.19091 0.0
H1535 H 0.62835 0.78624 0.20549 0.0
C1536 C 0.69619 0.75484 0.1831 0.0
C1537 C 0.69463 0.74998 0.20942 0.0
C1538 C 0.6798 0.75996 0.16733 0.0
C1539 C 0.66151 0.76035 0.17754 0.0
C1540 C 0.66002 0.75616 0.20408 0.0
H1541 H 0.54317 0.76182 0.10983 0.0
H1542 H 0.57302 0.76022 0.13885 0.0
C1543 C 0.67644 0.75116 0.21991 0.0
C1544 C 0.64386 0.76321 0.15979 0.0
H1545 H 0.60258 0.79006 0.15171 0.0
C1546 C 0.64056 0.75044 0.13777 0.0
C1547 C 0.63011 0.77783 0.16474 0.0
C1548 C 0.63322 0.79252 0.18736 0.0
C1549 C 0.62374 0.75163 0.12089 0.0
C1550 C 0.60992 0.76611 0.12598 0.0
C1551 C 0.61321 0.77895 0.1479 0.0
C1552 C 0.59189 0.76795 0.10882 0.0
C1553 C 0.62063 0.73705 0.09811 0.0
C1554 C 0.59263 0.7731 0.08252 0.0
C1555 C 0.57566 0.77402 0.06606 0.0
C1556 C 0.55775 0.76981 0.07569 0.0
C1557 C 0.55692 0.76504 0.1021 0.0
C1558 C 0.57389 0.76417 0.1186 0.0
H1559 H 0.63048 0.72441 0.10021 0.0
H1560 H 0.60546 0.73171 0.09634 0.0
H1561 H 0.62342 0.74411 0.07956 0.0
H1562 H 0.60635 0.7763 0.07471 0.0
H1563 H 0.57651 0.77783 0.04575 0.0
H1564 H 0.22258 0.70245 0.16998 0.0
H1565 H 0.21923 0.66829 0.15621 0.0
H1566 H 0.27121 0.65511 0.20374 0.0
H1567 H 0.27481 0.68947 0.21723 0.0
H1568 H 0.27353 0.64253 0.15452 0.0
H1569 H 0.20341 0.61849 0.18687 0.0
H1570 H 0.20072 0.64037 0.16915 0.0
H1571 H 0.21522 0.64049 0.19994 0.0
C1572 C 0.23294 0.69218 0.17818 0.0
C1573 C 0.24898 0.6986 0.19462 0.0
C1574 C 0.23097 0.67261 0.17037 0.0
C1575 C 0.24485 0.65906 0.17917 0.0
C1576 C 0.2603 0.6653 0.19678 0.0
H1577 H 0.23651 0.53774 0.11821 0.0
H1578 H 0.23816 0.56635 0.14882 0.0
C1579 C 0.26236 0.6849 0.20443 0.0
C1580 C 0.2447 0.63917 0.16703 0.0
H1581 H 0.21541 0.60029 0.14968 0.0
C1582 C 0.26094 0.63316 0.15391 0.0
C1583 C 0.22839 0.6268 0.16643 0.0
C1584 C 0.21105 0.63179 0.18161 0.0
C1585 C 0.26092 0.61563 0.13907 0.0
C1586 C 0.24405 0.60402 0.13679 0.0
C1587 C 0.22821 0.60942 0.15109 0.0
C1588 C 0.24234 0.58679 0.11855 0.0
C1589 C 0.27888 0.60986 0.12563 0.0
C1590 C 0.24373 0.58894 0.09145 0.0
C1591 C 0.24283 0.57274 0.07416 0.0
C1592 C 0.24033 0.55421 0.0837 0.0
C1593 C 0.23845 0.55201 0.11064 0.0
C1594 C 0.23938 0.56826 0.128 0.0
H1595 H 0.29199 0.6169 0.13557 0.0
H1596 H 0.28094 0.59389 0.12527 0.0
H1597 H 0.27749 0.61457 0.10501 0.0
H1598 H 0.24563 0.60317 0.08372 0.0
H1599 H 0.24424 0.57461 0.05337 0.0
H1600 H 0.29516 0.76099 0.84732 0.0
H1601 H 0.32564 0.76998 0.87181 0.0
H1602 H 0.35556 0.76242 0.80078 0.0
H1603 H 0.32519 0.75289 0.77629 0.0
H1604 H 0.37143 0.74134 0.84157 0.0
H1605 H 0.36073 0.81742 0.87621 0.0
H1606 H 0.34143 0.8016 0.88349 0.0
H1607 H 0.34561 0.8059 0.84975 0.0
C1608 C 0.30818 0.7616 0.83682 0.0
C1609 C 0.30776 0.75618 0.80988 0.0
C1610 C 0.32556 0.76691 0.8508 0.0
C1611 C 0.34287 0.76705 0.83809 0.0
C1612 C 0.34236 0.76253 0.81093 0.0
H1613 H 0.4631 0.77144 0.90504 0.0
H1614 H 0.43416 0.7713 0.87416 0.0
C1615 C 0.32495 0.75723 0.79692 0.0
C1616 C 0.36165 0.76971 0.85369 0.0
H1617 H 0.38663 0.80012 0.89846 0.0
C1618 C 0.37489 0.75431 0.85371 0.0
C1619 C 0.36607 0.78658 0.86966 0.0
C1620 C 0.35279 0.8039 0.86964 0.0
C1621 C 0.39211 0.75502 0.86995 0.0
C1622 C 0.39637 0.77174 0.8863 0.0
C1623 C 0.38332 0.78731 0.88593 0.0
C1624 C 0.41394 0.77297 0.90466 0.0
C1625 C 0.40522 0.73755 0.87027 0.0
C1626 C 0.41216 0.77451 0.93195 0.0
C1627 C 0.42863 0.77469 0.94947 0.0
C1628 C 0.44706 0.77344 0.93991 0.0
C1629 C 0.44893 0.77235 0.91267 0.0
C1630 C 0.43246 0.77218 0.89514 0.0
H1631 H 0.39779 0.72439 0.86124 0.0
H1632 H 0.41788 0.74051 0.85887 0.0
H1633 H 0.41064 0.73444 0.8907 0.0
H1634 H 0.39802 0.77517 0.9397 0.0
H1635 H 0.427 0.77556 0.97047 0.0
H1636 H 0.27592 0.31322 0.81945 0.0
H1637 H 0.27177 0.34729 0.83342 0.0
H1638 H 0.22409 0.33127 0.87808 0.0
H1639 H 0.22804 0.29732 0.86407 0.0
H1640 H 0.21846 0.36672 0.85326 0.0
H1641 H 0.29006 0.36306 0.9095 0.0
H1642 H 0.29023 0.35772 0.87473 0.0
H1643 H 0.27782 0.34177 0.89497 0.0
C1644 C 0.26436 0.31705 0.83191 0.0
C1645 C 0.25242 0.30261 0.84089 0.0
C1646 C 0.26204 0.33647 0.83989 0.0
C1647 C 0.24789 0.3417 0.8572 0.0
C1648 C 0.23513 0.32751 0.86475 0.0
H1649 H 0.24539 0.43118 0.97717 0.0
H1650 H 0.24658 0.40128 0.9496 0.0
C1651 C 0.23736 0.30812 0.85666 0.0
C1652 C 0.24741 0.36147 0.86947 0.0
H1653 H 0.27313 0.39245 0.91257 0.0
C1654 C 0.23045 0.37247 0.86604 0.0
C1655 C 0.26302 0.36875 0.88642 0.0
C1656 C 0.28127 0.3572 0.89188 0.0
C1657 C 0.22857 0.39048 0.87945 0.0
C1658 C 0.24418 0.3977 0.89642 0.0
C1659 C 0.26125 0.38687 0.89943 0.0
C1660 C 0.24274 0.41581 0.91268 0.0
C1661 C 0.20968 0.40127 0.8762 0.0
C1662 C 0.24025 0.43383 0.90101 0.0
C1663 C 0.23952 0.45085 0.91676 0.0
C1664 C 0.24136 0.44997 0.94427 0.0
C1665 C 0.24388 0.43202 0.95593 0.0
C1666 C 0.24458 0.41504 0.94024 0.0
H1667 H 0.19789 0.39193 0.86677 0.0
H1668 H 0.20526 0.40697 0.89554 0.0
H1669 H 0.21149 0.41379 0.86357 0.0
H1670 H 0.23918 0.43475 0.87979 0.0
H1671 H 0.2377 0.46468 0.90755 0.0
H1672 H 0.67993 0.25869 0.79415 0.0
H1673 H 0.65209 0.24969 0.81812 0.0
H1674 H 0.68871 0.24775 0.88992 0.0
H1675 H 0.7167 0.25642 0.86608 0.0
H1676 H 0.64488 0.21732 0.85429 0.0
H1677 H 0.64698 0.29141 0.90165 0.0
H1678 H 0.65923 0.28538 0.87232 0.0
H1679 H 0.66932 0.27812 0.90383 0.0
C1680 C 0.6822 0.25578 0.81487 0.0
C1681 C 0.70054 0.25844 0.82824 0.0
C1682 C 0.66623 0.25075 0.82856 0.0
C1683 C 0.66831 0.24836 0.85583 0.0
C1684 C 0.68677 0.24979 0.86892 0.0
H1685 H 0.58595 0.21319 0.96601 0.0
H1686 H 0.61299 0.21498 0.93788 0.0
C1687 C 0.70273 0.25476 0.85527 0.0
C1688 C 0.65104 0.24597 0.87098 0.0
H1689 H 0.62414 0.2695 0.9159 0.0
C1690 C 0.64031 0.22869 0.86778 0.0
C1691 C 0.64499 0.26096 0.88826 0.0
C1692 C 0.65559 0.2801 0.89168 0.0
C1693 C 0.62384 0.22588 0.88183 0.0
C1694 C 0.61807 0.24072 0.89957 0.0
C1695 C 0.62865 0.25811 0.9024 0.0
C1696 C 0.60106 0.23866 0.91538 0.0
C1697 C 0.61258 0.20721 0.87735 0.0
C1698 C 0.58542 0.25146 0.91222 0.0
C1699 C 0.56988 0.25044 0.92818 0.0
C1700 C 0.56974 0.23669 0.94788 0.0
C1701 C 0.58538 0.22374 0.95079 0.0
C1702 C 0.60089 0.22474 0.93473 0.0
H1703 H 0.61619 0.19928 0.85894 0.0
H1704 H 0.61609 0.19769 0.89407 0.0
H1705 H 0.59678 0.21005 0.87632 0.0
H1706 H 0.58528 0.26234 0.89743 0.0
H1707 H 0.55799 0.26045 0.92509 0.0
H1708 H 0.77144 0.69909 0.79984 0.0
H1709 H 0.78399 0.67112 0.82436 0.0
H1710 H 0.72563 0.65348 0.8359 0.0
H1711 H 0.71312 0.68114 0.81162 0.0
H1712 H 0.77538 0.66339 0.87851 0.0
H1713 H 0.75228 0.60346 0.80765 0.0
H1714 H 0.75505 0.62817 0.79795 0.0
H1715 H 0.73362 0.62095 0.81295 0.0
C1716 C 0.76137 0.68909 0.80743 0.0
C1717 C 0.74135 0.69231 0.80407 0.0
C1718 C 0.76851 0.67319 0.8214 0.0
C1719 C 0.7557 0.66017 0.83163 0.0
C1720 C 0.73573 0.66322 0.82783 0.0
H1721 H 0.75077 0.58763 0.95952 0.0
H1722 H 0.75061 0.61332 0.92782 0.0
C1723 C 0.72863 0.67911 0.81419 0.0
C1724 C 0.76283 0.64399 0.84782 0.0
H1725 H 0.75824 0.59506 0.85289 0.0
C1726 C 0.77202 0.64839 0.87274 0.0
C1727 C 0.75858 0.62446 0.84012 0.0
C1728 C 0.7495 0.61891 0.81309 0.0
C1729 C 0.77592 0.63385 0.89086 0.0
C1730 C 0.77031 0.61452 0.88386 0.0
C1731 C 0.76233 0.60994 0.8583 0.0
C1732 C 0.77113 0.59918 0.90339 0.0
C1733 C 0.78552 0.63935 0.91761 0.0
C1734 C 0.78243 0.58254 0.89982 0.0
C1735 C 0.78246 0.56776 0.91786 0.0
C1736 C 0.77098 0.56929 0.93953 0.0
C1737 C 0.75962 0.58596 0.94291 0.0
C1738 C 0.7597 0.60074 0.925 0.0
H1739 H 0.79382 0.6531 0.91726 0.0
H1740 H 0.77426 0.64149 0.93187 0.0
H1741 H 0.79542 0.62773 0.92475 0.0
H1742 H 0.79117 0.581 0.88308 0.0
H1743 H 0.79121 0.555 0.91461 0.0
loop_
_geom_bond_atom_site_label_1
_geom_bond_atom_site_label_2
_geom_bond_distance
_geom_bond_site_symmetry_2
_ccdc_geom_bond_type
H0 C8 0.930 . S
H1 C11 0.930 . S
H2 C13 0.930 . S
H3 C14 0.970 . S
H4 C14 0.970 . S
H5 C16 0.930 . S
H6 C18 0.930 . S
H7 C20 0.930 . S
C8 H0 0.930 . S
C8 C9 1.382 . S
C8 C10 1.426 . S
C9 C8 1.382 . S
C9 C13 1.389 . S
C10 C8 1.426 . S
C10 C11 1.375 . S
C10 C14 1.532 . S
C11 H1 0.930 . S
C11 C10 1.375 . S
C11 C12 1.416 . S
C12 C11 1.416 . S
C12 C13 1.371 . S
C13 H2 0.930 . S
C13 C9 1.389 . S
C13 C12 1.371 . S
C14 H3 0.970 . S
C14 H4 0.970 . S
C14 C10 1.532 . S
C14 C15 1.499 . S
C15 C14 1.499 . S
C15 C16 1.370 . S
C15 C20 1.415 . S
C16 H5 0.930 . S
C16 C15 1.370 . S
C16 C17 1.407 . S
C17 C16 1.407 . S
C17 C18 1.365 . S
C18 H6 0.930 . S
C18 C17 1.365 . S
C18 C19 1.393 . S
C19 C18 1.393 . S
C19 C20 1.387 . S
C20 H7 0.930 . S
C20 C15 1.415 . S
C20 C19 1.387 . S
H21 C29 0.930 . S
H22 C32 0.930 . S
H23 C34 0.930 . S
H24 C35 0.970 . S
H25 C35 0.970 . S
H26 C37 0.930 . S
H27 C39 0.930 . S
H28 C41 0.930 . S
C29 H21 0.930 . S
C29 C30 1.382 . S
C29 C31 1.426 . S
C30 C29 1.382 . S
C30 C34 1.389 . S
C31 C29 1.426 . S
C31 C32 1.375 . S
C31 C35 1.532 . S
C32 H22 0.930 . S
C32 C31 1.375 . S
C32 C33 1.416 . S
C33 C32 1.416 . S
C33 C34 1.371 . S
C34 H23 0.930 . S
C34 C30 1.389 . S
C34 C33 1.371 . S
C35 H24 0.970 . S
C35 H25 0.970 . S
C35 C31 1.532 . S
C35 C36 1.499 . S
C36 C35 1.499 . S
C36 C37 1.370 . S
C36 C41 1.415 . S
C37 H26 0.930 . S
C37 C36 1.370 . S
C37 C38 1.407 . S
C38 C37 1.407 . S
C38 C39 1.365 . S
C39 H27 0.930 . S
C39 C38 1.365 . S
C39 C40 1.393 . S
C40 C39 1.393 . S
C40 C41 1.387 . S
C41 H28 0.930 . S
C41 C36 1.415 . S
C41 C40 1.387 . S
H42 C50 0.930 . S
H43 C53 0.930 . S
H44 C55 0.930 . S
H45 C56 0.970 . S
H46 C56 0.970 . S
H47 C58 0.930 . S
H48 C60 0.930 . S
H49 C62 0.930 . S
C50 H42 0.930 . S
C50 C51 1.382 . S
C50 C52 1.426 . S
C51 C50 1.382 . S
C51 C55 1.389 . S
C52 C50 1.426 . S
C52 C53 1.375 . S
C52 C56 1.532 . S
C53 H43 0.930 . S
C53 C52 1.375 . S
C53 C54 1.416 . S
C54 C53 1.416 . S
C54 C55 1.371 . S
C55 H44 0.930 . S
C55 C51 1.389 . S
C55 C54 1.371 . S
C56 H45 0.970 . S
C56 H46 0.970 . S
C56 C52 1.532 . S
C56 C57 1.499 . S
C57 C56 1.499 . S
C57 C58 1.370 . S
C57 C62 1.415 . S
C58 H47 0.930 . S
C58 C57 1.370 . S
C58 C59 1.407 . S
C59 C58 1.407 . S
C59 C60 1.365 . S
C60 H48 0.930 . S
C60 C59 1.365 . S
C60 C61 1.393 . S
C61 C60 1.393 . S
C61 C62 1.387 . S
C62 H49 0.930 . S
C62 C57 1.415 . S
C62 C61 1.387 . S
H63 C71 0.930 . S
H64 C74 0.930 . S
H65 C76 0.930 . S
H66 C77 0.970 . S
H67 C77 0.970 . S
H68 C79 0.930 . S
H69 C81 0.930 . S
H70 C83 0.930 . S
C71 H63 0.930 . S
C71 C72 1.382 . S
C71 C73 1.426 . S
C72 C71 1.382 . S
C72 C76 1.389 . S
C73 C71 1.426 . S
C73 C74 1.375 . S
C73 C77 1.532 . S
C74 H64 0.930 . S
C74 C73 1.375 . S
C74 C75 1.416 . S
C75 C74 1.416 . S
C75 C76 1.371 . S
C76 H65 0.930 . S
C76 C72 1.389 . S
C76 C75 1.371 . S
C77 H66 0.970 . S
C77 H67 0.970 . S
C77 C73 1.532 . S
C77 C78 1.499 . S
C78 C77 1.499 . S
C78 C79 1.370 . S
C78 C83 1.415 . S
C79 H68 0.930 . S
C79 C78 1.370 . S
C79 C80 1.407 . S
C80 C79 1.407 . S
C80 C81 1.365 . S
C81 H69 0.930 . S
C81 C80 1.365 . S
C81 C82 1.393 . S
C82 C81 1.393 . S
C82 C83 1.387 . S
C83 H70 0.930 . S
C83 C78 1.415 . S
C83 C82 1.387 . S
H84 C92 0.930 . S
H85 C95 0.930 . S
H86 C97 0.930 . S
H87 C98 0.970 . S
H88 C98 0.970 . S
H89 C100 0.930 . S
H90 C102 0.930 . S
H91 C104 0.930 . S
C92 H84 0.930 . S
C92 C93 1.382 . S
C92 C94 1.426 . S
C93 C92 1.382 . S
C93 C97 1.389 . S
C94 C92 1.426 . S
C94 C95 1.375 . S
C94 C98 1.532 . S
C95 H85 0.930 . S
C95 C94 1.375 . S
C95 C96 1.416 . S
C96 C95 1.416 . S
C96 C97 1.371 . S
C97 H86 0.930 . S
C97 C93 1.389 . S
C97 C96 1.371 . S
C98 H87 0.970 . S
C98 H88 0.970 . S
C98 C94 1.532 . S
C98 C99 1.499 . S
C99 C98 1.499 . S
C99 C100 1.370 . S
C99 C104 1.415 . S
C100 H89 0.930 . S
C100 C99 1.370 . S
C100 C101 1.407 . S
C101 C100 1.407 . S
C101 C102 1.365 . S
C102 H90 0.930 . S
C102 C101 1.365 . S
C102 C103 1.393 . S
C103 C102 1.393 . S
C103 C104 1.387 . S
C104 H91 0.930 . S
C104 C99 1.415 . S
C104 C103 1.387 . S
H105 C113 0.930 . S
H106 C116 0.930 . S
H107 C118 0.930 . S
H108 C119 0.970 . S
H109 C119 0.970 . S
H110 C121 0.930 . S
H111 C123 0.930 . S
H112 C125 0.930 . S
C113 H105 0.930 . S
C113 C114 1.382 . S
C113 C115 1.426 . S
C114 C113 1.382 . S
C114 C118 1.389 . S
C115 C113 1.426 . S
C115 C116 1.375 . S
C115 C119 1.532 . S
C116 H106 0.930 . S
C116 C115 1.375 . S
C116 C117 1.416 . S
C117 C116 1.416 . S
C117 C118 1.371 . S
C118 H107 0.930 . S
C118 C114 1.389 . S
C118 C117 1.371 . S
C119 H108 0.970 . S
C119 H109 0.970 . S
C119 C115 1.532 . S
C119 C120 1.499 . S
C120 C119 1.499 . S
C120 C121 1.370 . S
C120 C125 1.415 . S
C121 H110 0.930 . S
C121 C120 1.370 . S
C121 C122 1.407 . S
C122 C121 1.407 . S
C122 C123 1.365 . S
C123 H111 0.930 . S
C123 C122 1.365 . S
C123 C124 1.393 . S
C124 C123 1.393 . S
C124 C125 1.387 . S
C125 H112 0.930 . S
C125 C120 1.415 . S
C125 C124 1.387 . S
H126 C134 0.930 . S
H127 C137 0.930 . S
H128 C139 0.930 . S
H129 C140 0.970 . S
H130 C140 0.970 . S
H131 C142 0.930 . S
H132 C144 0.930 . S
H133 C146 0.930 . S
C134 H126 0.930 . S
C134 C135 1.382 . S
C134 C136 1.426 . S
C135 C134 1.382 . S
C135 C139 1.389 . S
C136 C134 1.426 . S
C136 C137 1.375 . S
C136 C140 1.532 . S
C137 H127 0.930 . S
C137 C136 1.375 . S
C137 C138 1.416 . S
C138 C137 1.416 . S
C138 C139 1.371 . S
C139 H128 0.930 . S
C139 C135 1.389 . S
C139 C138 1.371 . S
C140 H129 0.970 . S
C140 H130 0.970 . S
C140 C136 1.532 . S
C140 C141 1.499 . S
C141 C140 1.499 . S
C141 C142 1.370 . S
C141 C146 1.415 . S
C142 H131 0.930 . S
C142 C141 1.370 . S
C142 C143 1.407 . S
C143 C142 1.407 . S
C143 C144 1.365 . S
C144 H132 0.930 . S
C144 C143 1.365 . S
C144 C145 1.393 . S
C145 C144 1.393 . S
C145 C146 1.387 . S
C146 H133 0.930 . S
C146 C141 1.415 . S
C146 C145 1.387 . S
H147 C155 0.930 . S
H148 C158 0.930 . S
H149 C160 0.930 . S
H150 C161 0.970 . S
H151 C161 0.970 . S
H152 C163 0.930 . S
H153 C165 0.930 . S
H154 C167 0.930 . S
C155 H147 0.930 . S
C155 C156 1.382 . S
C155 C157 1.426 . S
C156 C155 1.382 . S
C156 C160 1.389 . S
C157 C155 1.426 . S
C157 C158 1.375 . S
C157 C161 1.532 . S
C158 H148 0.930 . S
C158 C157 1.375 . S
C158 C159 1.416 . S
C159 C158 1.416 . S
C159 C160 1.371 . S
C160 H149 0.930 . S
C160 C156 1.389 . S
C160 C159 1.371 . S
C161 H150 0.970 . S
C161 H151 0.970 . S
C161 C157 1.532 . S
C161 C162 1.499 . S
C162 C161 1.499 . S
C162 C163 1.370 . S
C162 C167 1.415 . S
C163 H152 0.930 . S
C163 C162 1.370 . S
C163 C164 1.407 . S
C164 C163 1.407 . S
C164 C165 1.365 . S
C165 H153 0.930 . S
C165 C164 1.365 . S
C165 C166 1.393 . S
C166 C165 1.393 . S
C166 C167 1.387 . S
C167 H154 0.930 . S
C167 C162 1.415 . S
C167 C166 1.387 . S
C168 C169 1.443 . S
C168 N172 1.376 . S
C168 C206 1.389 . S
C169 C168 1.443 . S
C169 C170 1.340 . S
C169 H209 0.951 . S
C170 C169 1.340 . S
C170 C171 1.439 . S
C170 H210 0.950 . S
C171 C170 1.439 . S
C171 N172 1.374 . S
C171 C205 1.395 . S
N172 C168 1.376 . S
N172 C171 1.374 . S
N172 Co173 2.008 . S
Co173 N172 2.008 . S
Co173 N174 1.995 1_455 S
Co173 N179 2.008 1_455 S
Co173 N184 1.995 . S
Co173 N189 2.282 1_455 S
Co173 N195 2.282 . S
N174 Co173 1.995 1_655 S
N174 C175 1.376 . S
N174 C178 1.383 . S
C175 N174 1.376 . S
C175 C176 1.446 . S
C175 C205 1.391 1_655 S
C176 C175 1.446 . S
C176 C177 1.339 . S
C176 H211 0.949 . S
C177 C176 1.339 . S
C177 C178 1.439 . S
C177 H212 0.950 . S
C178 N174 1.383 . S
C178 C177 1.439 . S
C178 C207 1.392 . S
N179 Co173 2.008 1_655 S
N179 C180 1.376 . S
N179 C183 1.374 . S
C180 N179 1.376 . S
C180 C181 1.443 . S
C180 C207 1.389 . S
C181 C180 1.443 . S
C181 C182 1.340 . S
C181 H213 0.951 . S
C182 C181 1.340 . S
C182 C183 1.439 . S
C182 H214 0.950 . S
C183 N179 1.374 . S
C183 C182 1.439 . S
C183 C208 1.400 . S
N184 Co173 1.995 . S
N184 C185 1.376 . S
N184 C188 1.383 . S
C185 N184 1.376 . S
C185 C186 1.446 . S
C185 C208 1.386 1_455 S
C186 C185 1.446 . S
C186 C187 1.339 . S
C186 H215 0.949 . S
C187 C186 1.339 . S
C187 C188 1.439 . S
C187 H216 0.950 . S
C188 N184 1.383 . S
C188 C187 1.439 . S
C188 C206 1.392 . S
N189 Co173 2.282 1_655 S
N189 C192 1.332 . S
N189 C194 1.332 . S
C190 C191 1.386 . S
C190 C193 1.388 . S
C191 C190 1.386 . S
C191 C192 1.382 . S
C191 H217 0.950 . S
C192 N189 1.332 . S
C192 C191 1.382 . S
C192 H203 0.952 . S
C193 C190 1.388 . S
C193 C194 1.382 . S
C193 H218 0.950 . S
C194 N189 1.332 . S
C194 C193 1.382 . S
C194 H204 0.948 . S
N195 Co173 2.282 . S
N195 C199 1.332 . S
N195 C200 1.332 . S
C196 C197 1.388 . S
C196 C200 1.382 . S
C196 H219 0.950 . S
C197 C196 1.388 . S
C197 C198 1.386 . S
C198 C197 1.386 . S
C198 C199 1.382 . S
C198 H220 0.950 . S
C199 N195 1.332 . S
C199 C198 1.382 . S
C199 H201 0.952 . S
C200 N195 1.332 . S
C200 C196 1.382 . S
C200 H202 0.948 . S
H201 C199 0.952 . S
H202 C200 0.948 . S
H203 C192 0.952 . S
H204 C194 0.948 . S
C205 C171 1.395 . S
C205 C175 1.391 1_455 S
C206 C168 1.389 . S
C206 C188 1.392 . S
C207 C178 1.392 . S
C207 C180 1.389 . S
C208 C183 1.400 . S
C208 C185 1.386 1_655 S
H209 C169 0.951 . S
H210 C170 0.950 . S
H211 C176 0.949 . S
H212 C177 0.950 . S
H213 C181 0.951 . S
H214 C182 0.950 . S
H215 C186 0.949 . S
H216 C187 0.950 . S
H217 C191 0.950 . S
H218 C193 0.950 . S
H219 C196 0.950 . S
H220 C198 0.950 . S
C221 C222 1.443 . S
C221 N225 1.376 . S
C221 C259 1.389 . S
C222 C221 1.443 . S
C222 C223 1.340 . S
C222 H262 0.951 . S
C223 C222 1.340 . S
C223 C224 1.439 . S
C223 H263 0.950 . S
C224 C223 1.439 . S
C224 N225 1.374 . S
C224 C258 1.395 . S
N225 C221 1.376 . S
N225 C224 1.374 . S
N225 Co226 2.008 . S
Co226 N225 2.008 . S
Co226 N227 1.995 1_545 S
Co226 N232 2.008 1_545 S
Co226 N237 1.995 . S
Co226 N242 2.282 1_545 S
Co226 N248 2.282 . S
N227 Co226 1.995 1_565 S
N227 C228 1.376 . S
N227 C231 1.383 . S
C228 N227 1.376 . S
C228 C229 1.446 . S
C228 C258 1.391 1_565 S
C229 C228 1.446 . S
C229 C230 1.339 . S
C229 H264 0.949 . S
C230 C229 1.339 . S
C230 C231 1.439 . S
C230 H265 0.950 . S
C231 N227 1.383 . S
C231 C230 1.439 . S
C231 C260 1.392 . S
N232 Co226 2.008 1_565 S
N232 C233 1.376 . S
N232 C236 1.374 . S
C233 N232 1.376 . S
C233 C234 1.443 . S
C233 C260 1.389 . S
C234 C233 1.443 . S
C234 C235 1.340 . S
C234 H266 0.951 . S
C235 C234 1.340 . S
C235 C236 1.439 . S
C235 H267 0.950 . S
C236 N232 1.374 . S
C236 C235 1.439 . S
C236 C261 1.357 1_565 S
N237 Co226 1.995 . S
N237 C238 1.376 . S
N237 C241 1.383 . S
C238 N237 1.376 . S
C238 C239 1.446 . S
C238 C261 1.433 . S
C239 C238 1.446 . S
C239 C240 1.339 . S
C239 H268 0.949 . S
C240 C239 1.339 . S
C240 C241 1.439 . S
C240 H269 0.950 . S
C241 N237 1.383 . S
C241 C240 1.439 . S
C241 C259 1.392 . S
N242 Co226 2.282 1_565 S
N242 C245 1.332 . S
N242 C247 1.332 . S
C243 C244 1.386 . S
C243 C246 1.388 . S
C244 C243 1.386 . S
C244 C245 1.382 . S
C244 H270 0.950 . S
C245 N242 1.332 . S
C245 C244 1.382 . S
C245 H256 0.952 . S
C246 C243 1.388 . S
C246 C247 1.382 . S
C246 H271 0.950 . S
C247 N242 1.332 . S
C247 C246 1.382 . S
C247 H257 0.948 . S
N248 Co226 2.282 . S
N248 C252 1.332 . S
N248 C253 1.332 . S
C249 C250 1.388 . S
C249 C253 1.382 . S
C249 H272 0.950 . S
C250 C249 1.388 . S
C250 C251 1.386 . S
C251 C250 1.386 . S
C251 C252 1.382 . S
C251 H273 0.950 . S
C252 N248 1.332 . S
C252 C251 1.382 . S
C252 H254 0.952 . S
C253 N248 1.332 . S
C253 C249 1.382 . S
C253 H255 0.948 . S
H254 C252 0.952 . S
H255 C253 0.948 . S
H256 C245 0.952 . S
H257 C247 0.948 . S
C258 C224 1.395 . S
C258 C228 1.391 1_545 S
C259 C221 1.389 . S
C259 C241 1.392 . S
C260 C231 1.392 . S
C260 C233 1.389 . S
C261 C236 1.357 1_545 S
C261 C238 1.433 . S
H262 C222 0.951 . S
H263 C223 0.950 . S
H264 C229 0.949 . S
H265 C230 0.950 . S
H266 C234 0.951 . S
H267 C235 0.950 . S
H268 C239 0.949 . S
H269 C240 0.950 . S
H270 C244 0.950 . S
H271 C246 0.950 . S
H272 C249 0.950 . S
H273 C251 0.950 . S
C274 C275 1.443 . S
C274 N278 1.376 . S
C274 C312 1.389 . S
C275 C274 1.443 . S
C275 C276 1.340 . S
C275 H315 0.951 . S
C276 C275 1.340 . S
C276 C277 1.439 . S
C276 H316 0.950 . S
C277 C276 1.439 . S
C277 N278 1.374 . S
C277 C311 1.395 . S
N278 C274 1.376 . S
N278 C277 1.374 . S
N278 Co279 2.035 . S
Co279 N278 2.035 . S
Co279 N280 1.972 1_455 S
Co279 N285 1.982 1_455 S
Co279 N290 2.018 . S
Co279 N295 2.248 1_455 S
Co279 N301 2.317 . S
N280 Co279 1.972 1_655 S
N280 C281 1.376 . S
N280 C284 1.383 . S
C281 N280 1.376 . S
C281 C282 1.446 . S
C281 C311 1.391 1_655 S
C282 C281 1.446 . S
C282 C283 1.339 . S
C282 H317 0.949 . S
C283 C282 1.339 . S
C283 C284 1.439 . S
C283 H318 0.950 . S
C284 N280 1.383 . S
C284 C283 1.439 . S
C284 C313 1.392 . S
N285 Co279 1.982 1_655 S
N285 C286 1.376 . S
N285 C289 1.374 . S
C286 N285 1.376 . S
C286 C287 1.443 . S
C286 C313 1.389 . S
C287 C286 1.443 . S
C287 C288 1.340 . S
C287 H319 0.951 . S
C288 C287 1.340 . S
C288 C289 1.439 . S
C288 H320 0.950 . S
C289 N285 1.374 . S
C289 C288 1.439 . S
C289 C314 1.395 . S
N290 Co279 2.018 . S
N290 C291 1.376 . S
N290 C294 1.383 . S
C291 N290 1.376 . S
C291 C292 1.446 . S
C291 C314 1.391 1_455 S
C292 C291 1.446 . S
C292 C293 1.339 . S
C292 H321 0.949 . S
C293 C292 1.339 . S
C293 C294 1.439 . S
C293 H322 0.950 . S
C294 N290 1.383 . S
C294 C293 1.439 . S
C294 C312 1.392 . S
N295 Co279 2.248 1_655 S
N295 C298 1.332 . S
N295 C300 1.332 . S
C296 C297 1.386 . S
C296 C299 1.388 . S
C297 C296 1.386 . S
C297 C298 1.382 . S
C297 H323 0.950 . S
C298 N295 1.332 . S
C298 C297 1.382 . S
C298 H309 0.952 . S
C299 C296 1.388 . S
C299 C300 1.382 . S
C299 H324 0.950 . S
C300 N295 1.332 . S
C300 C299 1.382 . S
C300 H310 0.948 . S
N301 Co279 2.317 . S
N301 C305 1.332 . S
N301 C306 1.332 . S
C302 C303 1.388 . S
C302 C306 1.382 . S
C302 H325 0.950 . S
C303 C302 1.388 . S
C303 C304 1.386 . S
C304 C303 1.386 . S
C304 C305 1.382 . S
C304 H326 0.950 . S
C305 N301 1.332 . S
C305 C304 1.382 . S
C305 H307 0.952 . S
C306 N301 1.332 . S
C306 C302 1.382 . S
C306 H308 0.948 . S
H307 C305 0.952 . S
H308 C306 0.948 . S
H309 C298 0.952 . S
H310 C300 0.948 . S
C311 C277 1.395 . S
C311 C281 1.391 1_455 S
C312 C274 1.389 . S
C312 C294 1.392 . S
C313 C284 1.392 . S
C313 C286 1.389 . S
C314 C289 1.395 . S
C314 C291 1.391 1_655 S
H315 C275 0.951 . S
H316 C276 0.950 . S
H317 C282 0.949 . S
H318 C283 0.950 . S
H319 C287 0.951 . S
H320 C288 0.950 . S
H321 C292 0.949 . S
H322 C293 0.950 . S
H323 C297 0.950 . S
H324 C299 0.950 . S
H325 C302 0.950 . S
H326 C304 0.950 . S
C327 C328 1.443 . S
C327 N331 1.376 . S
C327 C365 1.389 . S
C328 C327 1.443 . S
C328 C329 1.340 . S
C328 H368 0.951 . S
C329 C328 1.340 . S
C329 C330 1.439 . S
C329 H369 0.950 . S
C330 C329 1.439 . S
C330 N331 1.374 . S
C330 C364 1.417 . S
N331 C327 1.376 . S
N331 C330 1.374 . S
N331 Co332 2.008 1_565 S
Co332 N331 2.008 1_545 S
Co332 N333 1.995 . S
Co332 N338 2.008 . S
Co332 N343 1.995 1_545 S
Co332 N348 2.282 . S
Co332 N354 2.282 1_545 S
N333 Co332 1.995 . S
N333 C334 1.376 . S
N333 C337 1.383 . S
C334 N333 1.376 . S
C334 C335 1.446 . S
C334 C364 1.368 1_545 S
C335 C334 1.446 . S
C335 C336 1.339 . S
C335 H370 0.949 . S
C336 C335 1.339 . S
C336 C337 1.439 . S
C336 H371 0.950 . S
C337 N333 1.383 . S
C337 C336 1.439 . S
C337 C366 1.392 . S
N338 Co332 2.008 . S
N338 C339 1.376 . S
N338 C342 1.374 . S
C339 N338 1.376 . S
C339 C340 1.443 . S
C339 C366 1.389 . S
C340 C339 1.443 . S
C340 C341 1.340 . S
C340 H372 0.951 . S
C341 C340 1.340 . S
C341 C342 1.439 . S
C341 H373 0.950 . S
C342 N338 1.374 . S
C342 C341 1.439 . S
C342 C367 1.395 . S
N343 Co332 1.995 1_565 S
N343 C344 1.376 . S
N343 C347 1.383 . S
C344 N343 1.376 . S
C344 C345 1.446 . S
C344 C367 1.391 1_565 S
C345 C344 1.446 . S
C345 C346 1.339 . S
C345 H374 0.949 . S
C346 C345 1.339 . S
C346 C347 1.439 . S
C346 H375 0.950 . S
C347 N343 1.383 . S
C347 C346 1.439 . S
C347 C365 1.392 . S
N348 Co332 2.282 . S
N348 C351 1.332 . S
N348 C353 1.332 . S
C349 C350 1.386 . S
C349 C352 1.388 . S
C350 C349 1.386 . S
C350 C351 1.382 . S
C350 H376 0.950 . S
C351 N348 1.332 . S
C351 C350 1.382 . S
C351 H362 0.952 . S
C352 C349 1.388 . S
C352 C353 1.382 . S
C352 H377 0.950 . S
C353 N348 1.332 . S
C353 C352 1.382 . S
C353 H363 0.948 . S
N354 Co332 2.282 1_565 S
N354 C358 1.332 . S
N354 C359 1.332 . S
C355 C356 1.388 . S
C355 C359 1.382 . S
C355 H378 0.950 . S
C356 C355 1.388 . S
C356 C357 1.386 . S
C357 C356 1.386 . S
C357 C358 1.382 . S
C357 H379 0.950 . S
C358 N354 1.332 . S
C358 C357 1.382 . S
C358 H360 0.952 . S
C359 N354 1.332 . S
C359 C355 1.382 . S
C359 H361 0.948 . S
H360 C358 0.952 . S
H361 C359 0.948 . S
H362 C351 0.952 . S
H363 C353 0.948 . S
C364 C330 1.417 . S
C364 C334 1.368 1_565 S
C365 C327 1.389 . S
C365 C347 1.392 . S
C366 C337 1.392 . S
C366 C339 1.389 . S
C367 C342 1.395 . S
C367 C344 1.391 1_545 S
H368 C328 0.951 . S
H369 C329 0.950 . S
H370 C335 0.949 . S
H371 C336 0.950 . S
H372 C340 0.951 . S
H373 C341 0.950 . S
H374 C345 0.949 . S
H375 C346 0.950 . S
H376 C350 0.950 . S
H377 C352 0.950 . S
H378 C355 0.950 . S
H379 C357 0.950 . S
C380 C381 1.443 . S
C380 N384 1.376 . S
C380 C418 1.389 . S
C381 C380 1.443 . S
C381 C382 1.340 . S
C381 H421 0.951 . S
C382 C381 1.340 . S
C382 C383 1.439 . S
C382 H422 0.950 . S
C383 C382 1.439 . S
C383 N384 1.374 . S
C383 C417 1.397 . S
N384 C380 1.376 . S
N384 C383 1.374 . S
N384 Co385 2.008 . S
Co385 N384 2.008 . S
Co385 N386 1.995 1_554 S
Co385 N391 2.008 1_554 S
Co385 N396 1.995 . S
Co385 N401 2.282 . S
Co385 N407 2.282 1_554 S
N386 Co385 1.995 1_556 S
N386 C387 1.376 . S
N386 C390 1.383 . S
C387 N386 1.376 . S
C387 C388 1.446 . S
C387 C417 1.389 1_556 S
C388 C387 1.446 . S
C388 C389 1.339 . S
C388 H423 0.949 . S
C389 C388 1.339 . S
C389 C390 1.439 . S
C389 H424 0.950 . S
C390 N386 1.383 . S
C390 C389 1.439 . S
C390 C419 1.392 . S
N391 Co385 2.008 1_556 S
N391 C392 1.376 . S
N391 C395 1.374 . S
C392 N391 1.376 . S
C392 C393 1.443 . S
C392 C419 1.389 . S
C393 C392 1.443 . S
C393 C394 1.340 . S
C393 H425 0.951 . S
C394 C393 1.340 . S
C394 C395 1.439 . S
C394 H426 0.950 . S
C395 N391 1.374 . S
C395 C394 1.439 . S
C395 C420 1.395 1_556 S
N396 Co385 1.995 . S
N396 C397 1.376 . S
N396 C400 1.383 . S
C397 N396 1.376 . S
C397 C398 1.446 . S
C397 C420 1.391 . S
C398 C397 1.446 . S
C398 C399 1.339 . S
C398 H427 0.949 . S
C399 C398 1.339 . S
C399 C400 1.439 . S
C399 H428 0.950 . S
C400 N396 1.383 . S
C400 C399 1.439 . S
C400 C418 1.392 . S
N401 Co385 2.282 . S
N401 C404 1.332 . S
N401 C406 1.332 . S
C402 C403 1.386 . S
C402 C405 1.388 . S
C403 C402 1.386 . S
C403 C404 1.382 . S
C403 H429 0.950 . S
C404 N401 1.332 . S
C404 C403 1.382 . S
C404 H415 0.952 . S
C405 C402 1.388 . S
C405 C406 1.382 . S
C405 H430 0.950 . S
C406 N401 1.332 . S
C406 C405 1.382 . S
C406 H416 0.948 . S
N407 Co385 2.282 1_556 S
N407 C411 1.332 . S
N407 C412 1.332 . S
C408 C409 1.388 . S
C408 C412 1.382 . S
C408 H431 0.950 . S
C409 C408 1.388 . S
C409 C410 1.386 . S
C410 C409 1.386 . S
C410 C411 1.382 . S
C410 H432 0.950 . S
C411 N407 1.332 . S
C411 C410 1.382 . S
C411 H413 0.952 . S
C412 N407 1.332 . S
C412 C408 1.382 . S
C412 H414 0.948 . S
H413 C411 0.952 . S
H414 C412 0.948 . S
H415 C404 0.952 . S
H416 C406 0.948 . S
C417 C383 1.397 . S
C417 C387 1.389 1_554 S
C418 C380 1.389 . S
C418 C400 1.392 . S
C419 C390 1.392 . S
C419 C392 1.389 . S
C420 C395 1.395 1_554 S
C420 C397 1.391 . S
H421 C381 0.951 . S
H422 C382 0.950 . S
H423 C388 0.949 . S
H424 C389 0.950 . S
H425 C393 0.951 . S
H426 C394 0.950 . S
H427 C398 0.949 . S
H428 C399 0.950 . S
H429 C403 0.950 . S
H430 C405 0.950 . S
H431 C408 0.950 . S
H432 C410 0.950 . S
C433 C434 1.443 . S
C433 N437 1.376 . S
C433 C471 1.389 . S
C434 C433 1.443 . S
C434 C435 1.340 . S
C434 H474 0.951 . S
C435 C434 1.340 . S
C435 C436 1.439 . S
C435 H475 0.950 . S
C436 C435 1.439 . S
C436 N437 1.374 . S
C436 C470 1.395 . S
N437 C433 1.376 . S
N437 C436 1.374 . S
N437 Co438 2.008 . S
Co438 N437 2.008 . S
Co438 N439 1.995 1_554 S
Co438 N444 2.008 . S
Co438 N449 1.995 . S
Co438 N454 2.282 . S
Co438 N460 2.282 1_554 S
N439 Co438 1.995 1_556 S
N439 C440 1.376 . S
N439 C443 1.383 . S
C440 N439 1.376 . S
C440 C441 1.446 . S
C440 C470 1.391 1_556 S
C441 C440 1.446 . S
C441 C442 1.339 . S
C441 H476 0.949 . S
C442 C441 1.339 . S
C442 C443 1.439 . S
C442 H477 0.950 . S
C443 N439 1.383 . S
C443 C442 1.439 . S
C443 C472 1.392 . S
N444 Co438 2.008 . S
N444 C445 1.376 1_554 S
N444 C448 1.374 . S
C445 N444 1.376 1_556 S
C445 C446 1.443 . S
C445 C472 1.389 . S
C446 C445 1.443 . S
C446 C447 1.340 1_556 S
C446 H478 0.951 . S
C447 C446 1.340 1_554 S
C447 C448 1.439 . S
C447 H479 0.950 . S
C448 N444 1.374 . S
C448 C447 1.439 . S
C448 C473 1.395 . S
N449 Co438 1.995 . S
N449 C450 1.376 . S
N449 C453 1.383 . S
C450 N449 1.376 . S
C450 C451 1.446 . S
C450 C473 1.391 . S
C451 C450 1.446 . S
C451 C452 1.339 . S
C451 H480 0.949 . S
C452 C451 1.339 . S
C452 C453 1.439 . S
C452 H481 0.950 . S
C453 N449 1.383 . S
C453 C452 1.439 . S
C453 C471 1.392 . S
N454 Co438 2.282 . S
N454 C457 1.332 . S
N454 C459 1.332 . S
C455 C456 1.386 . S
C455 C458 1.388 . S
C456 C455 1.386 . S
C456 C457 1.382 . S
C456 H482 0.950 . S
C457 N454 1.332 . S
C457 C456 1.382 . S
C457 H468 0.952 . S
C458 C455 1.388 . S
C458 C459 1.382 . S
C458 H483 0.950 . S
C459 N454 1.332 . S
C459 C458 1.382 . S
C459 H469 0.948 . S
N460 Co438 2.282 1_556 S
N460 C464 1.332 . S
N460 C465 1.332 . S
C461 C462 1.388 . S
C461 C465 1.382 . S
C461 H484 0.950 . S
C462 C461 1.388 . S
C462 C463 1.386 . S
C463 C462 1.386 . S
C463 C464 1.382 . S
C463 H485 0.950 . S
C464 N460 1.332 . S
C464 C463 1.382 . S
C464 H466 0.952 . S
C465 N460 1.332 . S
C465 C461 1.382 . S
C465 H467 0.948 . S
H466 C464 0.952 . S
H467 C465 0.948 . S
H468 C457 0.952 . S
H469 C459 0.948 . S
C470 C436 1.395 . S
C470 C440 1.391 1_554 S
C471 C433 1.389 . S
C471 C453 1.392 . S
C472 C443 1.392 . S
C472 C445 1.389 . S
C473 C448 1.395 . S
C473 C450 1.391 . S
H474 C434 0.951 . S
H475 C435 0.950 . S
H476 C441 0.949 . S
H477 C442 0.950 . S
H478 C446 0.951 . S
H479 C447 0.950 . S
H480 C451 0.949 . S
H481 C452 0.950 . S
H482 C456 0.950 . S
H483 C458 0.950 . S
H484 C461 0.950 . S
H485 C463 0.950 . S
C486 C487 1.444 1_554 S
C486 N490 1.374 . S
C486 C524 1.390 1_554 S
C487 C486 1.444 1_556 S
C487 C488 1.340 1_556 S
C487 H527 0.951 . S
C488 C487 1.340 1_554 S
C488 C489 1.439 . S
C488 H528 0.950 . S
C489 C488 1.439 . S
C489 N490 1.374 . S
C489 C523 1.395 . S
N490 C486 1.374 . S
N490 C489 1.374 . S
N490 Co491 2.008 . S
Co491 N490 2.008 . S
Co491 N492 1.995 . S
Co491 N497 2.008 . S
Co491 N502 1.995 . S
Co491 N507 2.279 1_554 S
Co491 N513 2.282 . S
N492 Co491 1.995 . S
N492 C493 1.376 . S
N492 C496 1.383 . S
C493 N492 1.376 . S
C493 C494 1.446 . S
C493 C523 1.391 . S
C494 C493 1.446 . S
C494 C495 1.339 . S
C494 H529 0.949 . S
C495 C494 1.339 . S
C495 C496 1.439 . S
C495 H530 0.950 . S
C496 N492 1.383 . S
C496 C495 1.439 . S
C496 C525 1.392 . S
N497 Co491 2.008 . S
N497 C498 1.376 . S
N497 C501 1.374 . S
C498 N497 1.376 . S
C498 C499 1.443 . S
C498 C525 1.389 . S
C499 C498 1.443 . S
C499 C500 1.340 . S
C499 H531 0.951 . S
C500 C499 1.340 . S
C500 C501 1.439 . S
C500 H532 0.950 . S
C501 N497 1.374 . S
C501 C500 1.439 . S
C501 C526 1.395 . S
N502 Co491 1.995 . S
N502 C503 1.376 . S
N502 C506 1.383 1_554 S
C503 N502 1.376 . S
C503 C504 1.446 1_554 S
C503 C526 1.391 . S
C504 C503 1.446 1_556 S
C504 C505 1.339 . S
C504 H533 0.949 . S
C505 C504 1.339 . S
C505 C506 1.439 . S
C505 H534 0.950 . S
C506 N502 1.383 1_556 S
C506 C505 1.439 . S
C506 C524 1.392 . S
N507 Co491 2.279 1_556 S
N507 C510 1.335 . S
N507 C512 1.333 . S
C508 C509 1.386 . S
C508 C511 1.388 . S
C509 C508 1.386 . S
C509 C510 1.382 . S
C509 H535 0.950 . S
C510 N507 1.335 . S
C510 C509 1.382 . S
C510 H521 0.952 . S
C511 C508 1.388 . S
C511 C512 1.382 . S
C511 H536 0.950 . S
C512 N507 1.333 . S
C512 C511 1.382 . S
C512 H522 0.948 1_556 S
N513 Co491 2.282 . S
N513 C517 1.332 . S
N513 C518 1.332 . S
C514 C515 1.388 . S
C514 C518 1.382 . S
C514 H537 0.950 . S
C515 C514 1.388 . S
C515 C516 1.386 . S
C516 C515 1.386 . S
C516 C517 1.382 . S
C516 H538 0.950 . S
C517 N513 1.332 . S
C517 C516 1.382 . S
C517 H519 0.952 . S
C518 N513 1.332 . S
C518 C514 1.382 . S
C518 H520 0.948 . S
H519 C517 0.952 . S
H520 C518 0.948 . S
H521 C510 0.952 . S
H522 C512 0.948 1_554 S
C523 C489 1.395 . S
C523 C493 1.391 . S
C524 C486 1.390 1_556 S
C524 C506 1.392 . S
C525 C496 1.392 . S
C525 C498 1.389 . S
C526 C501 1.395 . S
C526 C503 1.391 . S
H527 C487 0.951 . S
H528 C488 0.950 . S
H529 C494 0.949 . S
H530 C495 0.950 . S
H531 C499 0.951 . S
H532 C500 0.950 . S
H533 C504 0.949 . S
H534 C505 0.950 . S
H535 C509 0.950 . S
H536 C511 0.950 . S
H537 C514 0.950 . S
H538 C516 0.950 . S
C539 C540 1.443 . S
C539 N543 1.376 . S
C539 C577 1.389 . S
C540 C539 1.443 . S
C540 C541 1.340 . S
C540 H580 0.951 . S
C541 C540 1.340 . S
C541 C542 1.439 . S
C541 H581 0.950 . S
C542 C541 1.439 . S
C542 N543 1.374 . S
C542 C576 1.395 . S
N543 C539 1.376 . S
N543 C542 1.374 . S
N543 Co544 2.008 . S
Co544 N543 2.008 . S
Co544 N545 1.995 1_554 S
Co544 N550 2.008 1_554 S
Co544 N555 1.995 . S
Co544 N560 2.282 . S
Co544 N566 2.282 1_554 S
N545 Co544 1.995 1_556 S
N545 C546 1.376 . S
N545 C549 1.383 . S
C546 N545 1.376 . S
C546 C547 1.446 . S
C546 C576 1.391 1_556 S
C547 C546 1.446 . S
C547 C548 1.339 . S
C547 H582 0.949 . S
C548 C547 1.339 . S
C548 C549 1.439 . S
C548 H583 0.950 . S
C549 N545 1.383 . S
C549 C548 1.439 . S
C549 C578 1.392 . S
N550 Co544 2.008 1_556 S
N550 C551 1.376 . S
N550 C554 1.374 1_556 S
C551 N550 1.376 . S
C551 C552 1.443 . S
C551 C578 1.389 . S
C552 C551 1.443 . S
C552 C553 1.340 . S
C552 H584 0.951 . S
C553 C552 1.340 . S
C553 C554 1.439 1_556 S
C553 H585 0.950 . S
C554 N550 1.374 1_554 S
C554 C553 1.439 1_554 S
C554 C579 1.395 . S
N555 Co544 1.995 . S
N555 C556 1.376 . S
N555 C559 1.383 . S
C556 N555 1.376 . S
C556 C557 1.446 . S
C556 C579 1.391 . S
C557 C556 1.446 . S
C557 C558 1.339 . S
C557 H586 0.949 . S
C558 C557 1.339 . S
C558 C559 1.439 . S
C558 H587 0.950 . S
C559 N555 1.383 . S
C559 C558 1.439 . S
C559 C577 1.392 . S
N560 Co544 2.282 . S
N560 C563 1.332 . S
N560 C565 1.332 . S
C561 C562 1.386 . S
C561 C564 1.388 . S
C562 C561 1.386 . S
C562 C563 1.382 . S
C562 H588 0.950 . S
C563 N560 1.332 . S
C563 C562 1.382 . S
C563 H574 0.952 . S
C564 C561 1.388 . S
C564 C565 1.382 . S
C564 H589 0.950 . S
C565 N560 1.332 . S
C565 C564 1.382 . S
C565 H575 0.948 . S
N566 Co544 2.282 1_556 S
N566 C570 1.332 . S
N566 C571 1.332 . S
C567 C568 1.388 . S
C567 C571 1.382 . S
C567 H590 0.950 . S
C568 C567 1.388 . S
C568 C569 1.386 . S
C569 C568 1.386 . S
C569 C570 1.382 . S
C569 H591 0.950 . S
C570 N566 1.332 . S
C570 C569 1.382 . S
C570 H572 0.952 . S
C571 N566 1.332 . S
C571 C567 1.382 . S
C571 H573 0.948 . S
H572 C570 0.952 . S
H573 C571 0.948 . S
H574 C563 0.952 . S
H575 C565 0.948 . S
C576 C542 1.395 . S
C576 C546 1.391 1_554 S
C577 C539 1.389 . S
C577 C559 1.392 . S
C578 C549 1.392 . S
C578 C551 1.389 . S
C579 C554 1.395 . S
C579 C556 1.391 . S
H580 C540 0.951 . S
H581 C541 0.950 . S
H582 C547 0.949 . S
H583 C548 0.950 . S
H584 C552 0.951 . S
H585 C553 0.950 . S
H586 C557 0.949 . S
H587 C558 0.950 . S
H588 C562 0.950 . S
H589 C564 0.950 . S
H590 C567 0.950 . S
H591 C569 0.950 . S
H592 C600 0.929 . S
H593 C602 0.930 . S
H594 C604 0.930 . S
H595 C607 0.929 . S
H596 C610 0.930 . S
H597 C612 0.960 . S
H598 C612 0.960 . S
H599 C612 0.960 . S
C600 H592 0.929 . S
C600 C601 1.377 . S
C600 C602 1.384 . S
C601 C600 1.377 . S
C601 C607 1.390 . S
C602 H593 0.930 . S
C602 C600 1.384 . S
C602 C603 1.372 . S
C603 C602 1.372 . S
C603 C604 1.400 . S
C603 C608 1.490 . S
C604 H594 0.930 . S
C604 C603 1.400 . S
C604 C607 1.386 . S
H605 C621 0.930 . S
H606 C622 0.931 . S
C607 H595 0.929 . S
C607 C601 1.390 . S
C607 C604 1.386 . S
C608 C603 1.490 . S
C608 C610 1.395 . S
C608 C611 1.403 . S
H609 C615 0.930 . S
C610 H596 0.930 . S
C610 C608 1.395 . S
C610 C613 1.403 . S
C611 C608 1.403 . S
C611 C612 1.524 . S
C611 C615 1.400 . S
C612 H597 0.960 . S
C612 H598 0.960 . S
C612 H599 0.960 . S
C612 C611 1.524 . S
C613 C610 1.403 . S
C613 C614 1.392 . S
C613 C617 1.495 . S
C614 C613 1.392 . S
C614 C615 1.385 . S
C614 C616 1.478 . S
C615 H609 0.930 . S
C615 C611 1.400 . S
C615 C614 1.385 . S
C616 C614 1.478 . S
C616 C618 1.381 . S
C616 C622 1.383 . S
C617 C613 1.495 . S
C617 H623 0.959 . S
C617 H624 0.961 . S
C617 H625 0.960 . S
C618 C616 1.381 . S
C618 C619 1.394 . S
C618 H626 0.930 . S
C619 C618 1.394 . S
C619 C620 1.383 . S
C619 H627 0.929 . S
C620 C619 1.383 . S
C620 C621 1.377 . S
C621 H605 0.930 . S
C621 C620 1.377 . S
C621 C622 1.379 . S
C622 H606 0.931 . S
C622 C616 1.383 . S
C622 C621 1.379 . S
H623 C617 0.959 . S
H624 C617 0.961 . S
H625 C617 0.960 . S
H626 C618 0.930 . S
H627 C619 0.929 . S
H628 C636 0.929 . S
H629 C638 0.930 . S
H630 C640 0.930 . S
H631 C643 0.929 . S
H632 C646 0.930 . S
H633 C648 0.960 . S
H634 C648 0.960 . S
H635 C648 0.960 . S
C636 H628 0.929 . S
C636 C637 1.377 . S
C636 C638 1.384 . S
C637 C636 1.377 . S
C637 C643 1.390 . S
C638 H629 0.930 . S
C638 C636 1.384 . S
C638 C639 1.372 . S
C639 C638 1.372 . S
C639 C640 1.400 . S
C639 C644 1.490 . S
C640 H630 0.930 . S
C640 C639 1.400 . S
C640 C643 1.386 . S
H641 C657 0.930 . S
H642 C658 0.931 . S
C643 H631 0.929 . S
C643 C637 1.390 . S
C643 C640 1.386 . S
C644 C639 1.490 . S
C644 C646 1.395 . S
C644 C647 1.403 . S
H645 C651 0.930 . S
C646 H632 0.930 . S
C646 C644 1.395 . S
C646 C649 1.403 . S
C647 C644 1.403 . S
C647 C648 1.524 . S
C647 C651 1.400 . S
C648 H633 0.960 . S
C648 H634 0.960 . S
C648 H635 0.960 . S
C648 C647 1.524 . S
C649 C646 1.403 . S
C649 C650 1.392 . S
C649 C653 1.495 . S
C650 C649 1.392 . S
C650 C651 1.385 . S
C650 C652 1.478 . S
C651 H645 0.930 . S
C651 C647 1.400 . S
C651 C650 1.385 . S
C652 C650 1.478 . S
C652 C654 1.381 . S
C652 C658 1.383 . S
C653 C649 1.495 . S
C653 H659 0.959 . S
C653 H660 0.961 . S
C653 H661 0.960 . S
C654 C652 1.381 . S
C654 C655 1.394 . S
C654 H662 0.930 . S
C655 C654 1.394 . S
C655 C656 1.383 . S
C655 H663 0.929 . S
C656 C655 1.383 . S
C656 C657 1.377 . S
C657 H641 0.930 . S
C657 C656 1.377 . S
C657 C658 1.379 . S
C658 H642 0.931 . S
C658 C652 1.383 . S
C658 C657 1.379 . S
H659 C653 0.959 . S
H660 C653 0.961 . S
H661 C653 0.960 . S
H662 C654 0.930 . S
H663 C655 0.929 . S
H664 C672 0.929 . S
H665 C674 0.930 . S
H666 C676 0.930 . S
H667 C679 0.929 . S
H668 C682 0.930 . S
H669 C684 0.960 . S
H670 C684 0.960 . S
H671 C684 0.960 . S
C672 H664 0.929 . S
C672 C673 1.377 . S
C672 C674 1.384 . S
C673 C672 1.377 . S
C673 C679 1.390 . S
C674 H665 0.930 . S
C674 C672 1.384 . S
C674 C675 1.372 . S
C675 C674 1.372 . S
C675 C676 1.400 . S
C675 C680 1.490 . S
C676 H666 0.930 . S
C676 C675 1.400 . S
C676 C679 1.386 . S
H677 C693 0.930 . S
H678 C694 0.931 . S
C679 H667 0.929 . S
C679 C673 1.390 . S
C679 C676 1.386 . S
C680 C675 1.490 . S
C680 C682 1.395 . S
C680 C683 1.403 . S
H681 C687 0.930 . S
C682 H668 0.930 . S
C682 C680 1.395 . S
C682 C685 1.403 . S
C683 C680 1.403 . S
C683 C684 1.524 . S
C683 C687 1.400 . S
C684 H669 0.960 . S
C684 H670 0.960 . S
C684 H671 0.960 . S
C684 C683 1.524 . S
C685 C682 1.403 . S
C685 C686 1.392 . S
C685 C689 1.495 . S
C686 C685 1.392 . S
C686 C687 1.385 . S
C686 C688 1.478 . S
C687 H681 0.930 . S
C687 C683 1.400 . S
C687 C686 1.385 . S
C688 C686 1.478 . S
C688 C690 1.381 . S
C688 C694 1.383 . S
C689 C685 1.495 . S
C689 H695 0.959 . S
C689 H696 0.961 . S
C689 H697 0.960 . S
C690 C688 1.381 . S
C690 C691 1.394 . S
C690 H698 0.930 . S
C691 C690 1.394 . S
C691 C692 1.383 . S
C691 H699 0.929 . S
C692 C691 1.383 . S
C692 C693 1.377 . S
C693 H677 0.930 . S
C693 C692 1.377 . S
C693 C694 1.379 . S
C694 H678 0.931 . S
C694 C688 1.383 . S
C694 C693 1.379 . S
H695 C689 0.959 . S
H696 C689 0.961 . S
H697 C689 0.960 . S
H698 C690 0.930 . S
H699 C691 0.929 . S
H700 C708 0.929 . S
H701 C710 0.930 . S
H702 C712 0.930 . S
H703 C715 0.929 . S
H704 C718 0.930 . S
H705 C720 0.960 . S
H706 C720 0.960 . S
H707 C720 0.960 . S
C708 H700 0.929 . S
C708 C709 1.377 . S
C708 C710 1.384 . S
C709 C708 1.377 . S
C709 C715 1.390 . S
C710 H701 0.930 . S
C710 C708 1.384 . S
C710 C711 1.372 . S
C711 C710 1.372 . S
C711 C712 1.400 . S
C711 C716 1.490 . S
C712 H702 0.930 . S
C712 C711 1.400 . S
C712 C715 1.386 . S
H713 C729 0.930 . S
H714 C730 0.931 . S
C715 H703 0.929 . S
C715 C709 1.390 . S
C715 C712 1.386 . S
C716 C711 1.490 . S
C716 C718 1.395 . S
C716 C719 1.403 . S
H717 C723 0.930 . S
C718 H704 0.930 . S
C718 C716 1.395 . S
C718 C721 1.403 . S
C719 C716 1.403 . S
C719 C720 1.524 . S
C719 C723 1.400 . S
C720 H705 0.960 . S
C720 H706 0.960 . S
C720 H707 0.960 . S
C720 C719 1.524 . S
C721 C718 1.403 . S
C721 C722 1.392 . S
C721 C725 1.495 . S
C722 C721 1.392 . S
C722 C723 1.385 . S
C722 C724 1.478 . S
C723 H717 0.930 . S
C723 C719 1.400 . S
C723 C722 1.385 . S
C724 C722 1.478 . S
C724 C726 1.381 . S
C724 C730 1.383 . S
C725 C721 1.495 . S
C725 H731 0.959 . S
C725 H732 0.961 . S
C725 H733 0.960 . S
C726 C724 1.381 . S
C726 C727 1.394 . S
C726 H734 0.930 . S
C727 C726 1.394 . S
C727 C728 1.383 . S
C727 H735 0.929 . S
C728 C727 1.383 . S
C728 C729 1.377 . S
C729 H713 0.930 . S
C729 C728 1.377 . S
C729 C730 1.379 . S
C730 H714 0.931 . S
C730 C724 1.383 . S
C730 C729 1.379 . S
H731 C725 0.959 . S
H732 C725 0.961 . S
H733 C725 0.960 . S
H734 C726 0.930 . S
H735 C727 0.929 . S
H736 C744 0.929 . S
H737 C746 0.930 . S
H738 C748 0.930 . S
H739 C751 0.929 . S
H740 C754 0.930 . S
H741 C756 0.960 . S
H742 C756 0.960 . S
H743 C756 0.960 . S
C744 H736 0.929 . S
C744 C745 1.377 . S
C744 C746 1.384 . S
C745 C744 1.377 . S
C745 C751 1.390 . S
C746 H737 0.930 . S
C746 C744 1.384 . S
C746 C747 1.372 . S
C747 C746 1.372 . S
C747 C748 1.400 . S
C747 C752 1.490 . S
C748 H738 0.930 . S
C748 C747 1.400 . S
C748 C751 1.386 . S
H749 C765 0.930 . S
H750 C766 0.931 . S
C751 H739 0.929 . S
C751 C745 1.390 . S
C751 C748 1.386 . S
C752 C747 1.490 . S
C752 C754 1.395 . S
C752 C755 1.403 . S
H753 C759 0.930 . S
C754 H740 0.930 . S
C754 C752 1.395 . S
C754 C757 1.403 . S
C755 C752 1.403 . S
C755 C756 1.524 . S
C755 C759 1.400 . S
C756 H741 0.960 . S
C756 H742 0.960 . S
C756 H743 0.960 . S
C756 C755 1.524 . S
C757 C754 1.403 . S
C757 C758 1.392 . S
C757 C761 1.495 . S
C758 C757 1.392 . S
C758 C759 1.385 . S
C758 C760 1.478 . S
C759 H753 0.930 . S
C759 C755 1.400 . S
C759 C758 1.385 . S
C760 C758 1.478 . S
C760 C762 1.381 . S
C760 C766 1.383 . S
C761 C757 1.495 . S
C761 H767 0.959 . S
C761 H768 0.961 . S
C761 H769 0.960 . S
C762 C760 1.381 . S
C762 C763 1.394 . S
C762 H770 0.930 . S
C763 C762 1.394 . S
C763 C764 1.383 . S
C763 H771 0.929 . S
C764 C763 1.383 . S
C764 C765 1.377 . S
C765 H749 0.930 . S
C765 C764 1.377 . S
C765 C766 1.379 . S
C766 H750 0.931 . S
C766 C760 1.383 . S
C766 C765 1.379 . S
H767 C761 0.959 . S
H768 C761 0.961 . S
H769 C761 0.960 . S
H770 C762 0.930 . S
H771 C763 0.929 . S
H772 C780 0.929 . S
H773 C782 0.930 . S
H774 C784 0.930 . S
H775 C787 0.929 . S
H776 C790 0.930 . S
H777 C792 0.960 . S
H778 C792 0.960 . S
H779 C792 0.960 . S
C780 H772 0.929 . S
C780 C781 1.377 . S
C780 C782 1.384 . S
C781 C780 1.377 . S
C781 C787 1.390 . S
C782 H773 0.930 . S
C782 C780 1.384 . S
C782 C783 1.372 . S
C783 C782 1.372 . S
C783 C784 1.400 . S
C783 C788 1.490 . S
C784 H774 0.930 . S
C784 C783 1.400 . S
C784 C787 1.386 . S
H785 C801 0.930 . S
H786 C802 0.931 . S
C787 H775 0.929 . S
C787 C781 1.390 . S
C787 C784 1.386 . S
C788 C783 1.490 . S
C788 C790 1.395 . S
C788 C791 1.403 . S
H789 C795 0.930 . S
C790 H776 0.930 . S
C790 C788 1.395 . S
C790 C793 1.403 . S
C791 C788 1.403 . S
C791 C792 1.524 . S
C791 C795 1.400 . S
C792 H777 0.960 . S
C792 H778 0.960 . S
C792 H779 0.960 . S
C792 C791 1.524 . S
C793 C790 1.403 . S
C793 C794 1.392 . S
C793 C797 1.495 . S
C794 C793 1.392 . S
C794 C795 1.385 . S
C794 C796 1.478 . S
C795 H789 0.930 . S
C795 C791 1.400 . S
C795 C794 1.385 . S
C796 C794 1.478 . S
C796 C798 1.381 . S
C796 C802 1.383 . S
C797 C793 1.495 . S
C797 H803 0.959 . S
C797 H804 0.961 . S
C797 H805 0.960 . S
C798 C796 1.381 . S
C798 C799 1.394 . S
C798 H806 0.930 . S
C799 C798 1.394 . S
C799 C800 1.383 . S
C799 H807 0.929 . S
C800 C799 1.383 . S
C800 C801 1.377 . S
C801 H785 0.930 . S
C801 C800 1.377 . S
C801 C802 1.379 . S
C802 H786 0.931 . S
C802 C796 1.383 . S
C802 C801 1.379 . S
H803 C797 0.959 . S
H804 C797 0.961 . S
H805 C797 0.960 . S
H806 C798 0.930 . S
H807 C799 0.929 . S
H808 C816 0.929 . S
H809 C818 0.930 . S
H810 C820 0.930 . S
H811 C823 0.929 . S
H812 C826 0.930 . S
H813 C828 0.960 . S
H814 C828 0.960 . S
H815 C828 0.960 . S
C816 H808 0.929 . S
C816 C817 1.377 . S
C816 C818 1.384 . S
C817 C816 1.377 . S
C817 C823 1.390 . S
C818 H809 0.930 . S
C818 C816 1.384 . S
C818 C819 1.372 . S
C819 C818 1.372 . S
C819 C820 1.400 . S
C819 C824 1.490 . S
C820 H810 0.930 . S
C820 C819 1.400 . S
C820 C823 1.386 . S
H821 C837 0.930 . S
H822 C838 0.931 . S
C823 H811 0.929 . S
C823 C817 1.390 . S
C823 C820 1.386 . S
C824 C819 1.490 . S
C824 C826 1.395 . S
C824 C827 1.403 . S
H825 C831 0.930 . S
C826 H812 0.930 . S
C826 C824 1.395 . S
C826 C829 1.403 . S
C827 C824 1.403 . S
C827 C828 1.524 . S
C827 C831 1.400 . S
C828 H813 0.960 . S
C828 H814 0.960 . S
C828 H815 0.960 . S
C828 C827 1.524 . S
C829 C826 1.403 . S
C829 C830 1.392 . S
C829 C833 1.495 . S
C830 C829 1.392 . S
C830 C831 1.385 . S
C830 C832 1.478 . S
C831 H825 0.930 . S
C831 C827 1.400 . S
C831 C830 1.385 . S
C832 C830 1.478 . S
C832 C834 1.381 . S
C832 C838 1.383 . S
C833 C829 1.495 . S
C833 H839 0.959 . S
C833 H840 0.961 . S
C833 H841 0.960 . S
C834 C832 1.381 . S
C834 C835 1.394 . S
C834 H842 0.930 . S
C835 C834 1.394 . S
C835 C836 1.383 . S
C835 H843 0.929 . S
C836 C835 1.383 . S
C836 C837 1.377 . S
C837 H821 0.930 . S
C837 C836 1.377 . S
C837 C838 1.379 . S
C838 H822 0.931 . S
C838 C832 1.383 . S
C838 C837 1.379 . S
H839 C833 0.959 . S
H840 C833 0.961 . S
H841 C833 0.960 . S
H842 C834 0.930 . S
H843 C835 0.929 . S
H844 C852 0.929 . S
H845 C854 0.930 . S
H846 C856 0.930 . S
H847 C859 0.929 . S
H848 C862 0.930 . S
H849 C864 0.960 . S
H850 C864 0.960 . S
H851 C864 0.960 . S
C852 H844 0.929 . S
C852 C853 1.377 . S
C852 C854 1.384 . S
C853 C852 1.377 . S
C853 C859 1.390 . S
C854 H845 0.930 . S
C854 C852 1.384 . S
C854 C855 1.372 . S
C855 C854 1.372 . S
C855 C856 1.400 . S
C855 C860 1.490 . S
C856 H846 0.930 . S
C856 C855 1.400 . S
C856 C859 1.386 . S
H857 C873 0.930 . S
H858 C874 0.931 . S
C859 H847 0.929 . S
C859 C853 1.390 . S
C859 C856 1.386 . S
C860 C855 1.490 . S
C860 C862 1.395 . S
C860 C863 1.403 . S
H861 C867 0.930 . S
C862 H848 0.930 . S
C862 C860 1.395 . S
C862 C865 1.403 . S
C863 C860 1.403 . S
C863 C864 1.524 . S
C863 C867 1.400 . S
C864 H849 0.960 . S
C864 H850 0.960 . S
C864 H851 0.960 . S
C864 C863 1.524 . S
C865 C862 1.403 . S
C865 C866 1.392 . S
C865 C869 1.495 . S
C866 C865 1.392 . S
C866 C867 1.385 . S
C866 C868 1.478 . S
C867 H861 0.930 . S
C867 C863 1.400 . S
C867 C866 1.385 . S
C868 C866 1.478 . S
C868 C870 1.381 . S
C868 C874 1.383 . S
C869 C865 1.495 . S
C869 H875 0.959 . S
C869 H876 0.961 . S
C869 H877 0.960 . S
C870 C868 1.381 . S
C870 C871 1.394 . S
C870 H878 0.930 . S
C871 C870 1.394 . S
C871 C872 1.383 . S
C871 H879 0.929 . S
C872 C871 1.383 . S
C872 C873 1.377 . S
C873 H857 0.930 . S
C873 C872 1.377 . S
C873 C874 1.379 . S
C874 H858 0.931 . S
C874 C868 1.383 . S
C874 C873 1.379 . S
H875 C869 0.959 . S
H876 C869 0.961 . S
H877 C869 0.960 . S
H878 C870 0.930 . S
H879 C871 0.929 . S
H880 C888 0.929 . S
H881 C890 0.930 . S
H882 C892 0.930 . S
H883 C895 0.929 . S
H884 C898 0.930 . S
H885 C900 0.960 . S
H886 C900 0.960 . S
H887 C900 0.960 . S
C888 H880 0.929 . S
C888 C889 1.377 . S
C888 C890 1.384 . S
C889 C888 1.377 . S
C889 C895 1.390 . S
C890 H881 0.930 . S
C890 C888 1.384 . S
C890 C891 1.372 . S
C891 C890 1.372 . S
C891 C892 1.400 . S
C891 C896 1.490 . S
C892 H882 0.930 . S
C892 C891 1.400 . S
C892 C895 1.386 . S
H893 C909 0.930 . S
H894 C910 0.931 . S
C895 H883 0.929 . S
C895 C889 1.390 . S
C895 C892 1.386 . S
C896 C891 1.490 . S
C896 C898 1.395 . S
C896 C899 1.403 . S
H897 C903 0.930 . S
C898 H884 0.930 . S
C898 C896 1.395 . S
C898 C901 1.403 . S
C899 C896 1.403 . S
C899 C900 1.524 . S
C899 C903 1.400 . S
C900 H885 0.960 . S
C900 H886 0.960 . S
C900 H887 0.960 . S
C900 C899 1.524 . S
C901 C898 1.403 . S
C901 C902 1.392 . S
C901 C905 1.495 . S
C902 C901 1.392 . S
C902 C903 1.385 . S
C902 C904 1.478 . S
C903 H897 0.930 . S
C903 C899 1.400 . S
C903 C902 1.385 . S
C904 C902 1.478 . S
C904 C906 1.381 . S
C904 C910 1.383 . S
C905 C901 1.495 . S
C905 H911 0.959 . S
C905 H912 0.961 . S
C905 H913 0.960 . S
C906 C904 1.381 . S
C906 C907 1.394 . S
C906 H914 0.930 . S
C907 C906 1.394 . S
C907 C908 1.383 . S
C907 H915 0.929 . S
C908 C907 1.383 . S
C908 C909 1.377 . S
C909 H893 0.930 . S
C909 C908 1.377 . S
C909 C910 1.379 . S
C910 H894 0.931 . S
C910 C904 1.383 . S
C910 C909 1.379 . S
H911 C905 0.959 . S
H912 C905 0.961 . S
H913 C905 0.960 . S
H914 C906 0.930 . S
H915 C907 0.929 . S
H916 C924 0.929 . S
H917 C926 0.930 . S
H918 C928 0.930 . S
H919 C931 0.929 . S
H920 C934 0.930 . S
H921 C936 0.960 . S
H922 C936 0.960 . S
H923 C936 0.960 . S
C924 H916 0.929 . S
C924 C925 1.377 . S
C924 C926 1.384 . S
C925 C924 1.377 . S
C925 C931 1.390 . S
C926 H917 0.930 . S
C926 C924 1.384 . S
C926 C927 1.372 . S
C927 C926 1.372 . S
C927 C928 1.400 . S
C927 C932 1.490 . S
C928 H918 0.930 . S
C928 C927 1.400 . S
C928 C931 1.386 . S
H929 C945 0.930 . S
H930 C946 0.931 . S
C931 H919 0.929 . S
C931 C925 1.390 . S
C931 C928 1.386 . S
C932 C927 1.490 . S
C932 C934 1.395 . S
C932 C935 1.403 . S
H933 C939 0.930 . S
C934 H920 0.930 . S
C934 C932 1.395 . S
C934 C937 1.403 . S
C935 C932 1.403 . S
C935 C936 1.524 . S
C935 C939 1.400 . S
C936 H921 0.960 . S
C936 H922 0.960 . S
C936 H923 0.960 . S
C936 C935 1.524 . S
C937 C934 1.403 . S
C937 C938 1.392 . S
C937 C941 1.495 . S
C938 C937 1.392 . S
C938 C939 1.385 . S
C938 C940 1.478 . S
C939 H933 0.930 . S
C939 C935 1.400 . S
C939 C938 1.385 . S
C940 C938 1.478 . S
C940 C942 1.381 . S
C940 C946 1.383 . S
C941 C937 1.495 . S
C941 H947 0.959 . S
C941 H948 0.961 . S
C941 H949 0.960 . S
C942 C940 1.381 . S
C942 C943 1.394 . S
C942 H950 0.930 . S
C943 C942 1.394 . S
C943 C944 1.383 . S
C943 H951 0.929 . S
C944 C943 1.383 . S
C944 C945 1.377 . S
C945 H929 0.930 . S
C945 C944 1.377 . S
C945 C946 1.379 . S
C946 H930 0.931 . S
C946 C940 1.383 . S
C946 C945 1.379 . S
H947 C941 0.959 . S
H948 C941 0.961 . S
H949 C941 0.960 . S
H950 C942 0.930 . S
H951 C943 0.929 . S
H952 C960 0.929 . S
H953 C962 0.930 . S
H954 C964 0.930 . S
H955 C967 0.929 . S
H956 C970 0.930 . S
H957 C972 0.960 . S
H958 C972 0.960 . S
H959 C972 0.960 . S
C960 H952 0.929 . S
C960 C961 1.377 . S
C960 C962 1.384 . S
C961 C960 1.377 . S
C961 C967 1.390 . S
C962 H953 0.930 . S
C962 C960 1.384 . S
C962 C963 1.372 . S
C963 C962 1.372 . S
C963 C964 1.400 . S
C963 C968 1.490 . S
C964 H954 0.930 . S
C964 C963 1.400 . S
C964 C967 1.386 . S
H965 C981 0.930 . S
H966 C982 0.931 . S
C967 H955 0.929 . S
C967 C961 1.390 . S
C967 C964 1.386 . S
C968 C963 1.490 . S
C968 C970 1.395 . S
C968 C971 1.403 . S
H969 C975 0.930 . S
C970 H956 0.930 . S
C970 C968 1.395 . S
C970 C973 1.403 . S
C971 C968 1.403 . S
C971 C972 1.524 . S
C971 C975 1.400 . S
C972 H957 0.960 . S
C972 H958 0.960 . S
C972 H959 0.960 . S
C972 C971 1.524 . S
C973 C970 1.403 . S
C973 C974 1.392 . S
C973 C977 1.495 . S
C974 C973 1.392 . S
C974 C975 1.385 . S
C974 C976 1.478 . S
C975 H969 0.930 . S
C975 C971 1.400 . S
C975 C974 1.385 . S
C976 C974 1.478 . S
C976 C978 1.381 . S
C976 C982 1.383 . S
C977 C973 1.495 . S
C977 H983 0.959 . S
C977 H984 0.961 . S
C977 H985 0.960 . S
C978 C976 1.381 . S
C978 C979 1.394 . S
C978 H986 0.930 . S
C979 C978 1.394 . S
C979 C980 1.383 . S
C979 H987 0.929 . S
C980 C979 1.383 . S
C980 C981 1.377 . S
C981 H965 0.930 . S
C981 C980 1.377 . S
C981 C982 1.379 . S
C982 H966 0.931 . S
C982 C976 1.383 . S
C982 C981 1.379 . S
H983 C977 0.959 . S
H984 C977 0.961 . S
H985 C977 0.960 . S
H986 C978 0.930 . S
H987 C979 0.929 . S
H988 C996 0.929 . S
H989 C998 0.930 . S
H990 C1000 0.930 . S
H991 C1003 0.929 . S
H992 C1006 0.930 . S
H993 C1008 0.960 . S
H994 C1008 0.960 . S
H995 C1008 0.960 . S
C996 H988 0.929 . S
C996 C997 1.377 . S
C996 C998 1.384 . S
C997 C996 1.377 . S
C997 C1003 1.390 . S
C998 H989 0.930 . S
C998 C996 1.384 . S
C998 C999 1.372 . S
C999 C998 1.372 . S
C999 C1000 1.400 . S
C999 C1004 1.490 . S
C1000 H990 0.930 . S
C1000 C999 1.400 . S
C1000 C1003 1.386 . S
H1001 C1017 0.930 . S
H1002 C1018 0.931 . S
C1003 H991 0.929 . S
C1003 C997 1.390 . S
C1003 C1000 1.386 . S
C1004 C999 1.490 . S
C1004 C1006 1.395 . S
C1004 C1007 1.403 . S
H1005 C1011 0.930 . S
C1006 H992 0.930 . S
C1006 C1004 1.395 . S
C1006 C1009 1.403 . S
C1007 C1004 1.403 . S
C1007 C1008 1.524 . S
C1007 C1011 1.400 . S
C1008 H993 0.960 . S
C1008 H994 0.960 . S
C1008 H995 0.960 . S
C1008 C1007 1.524 . S
C1009 C1006 1.403 . S
C1009 C1010 1.392 . S
C1009 C1013 1.495 . S
C1010 C1009 1.392 . S
C1010 C1011 1.385 . S
C1010 C1012 1.478 . S
C1011 H1005 0.930 . S
C1011 C1007 1.400 . S
C1011 C1010 1.385 . S
C1012 C1010 1.478 . S
C1012 C1014 1.381 . S
C1012 C1018 1.383 . S
C1013 C1009 1.495 . S
C1013 H1019 0.959 . S
C1013 H1020 0.961 . S
C1013 H1021 0.960 . S
C1014 C1012 1.381 . S
C1014 C1015 1.394 . S
C1014 H1022 0.930 . S
C1015 C1014 1.394 . S
C1015 C1016 1.383 . S
C1015 H1023 0.929 . S
C1016 C1015 1.383 . S
C1016 C1017 1.377 . S
C1017 H1001 0.930 . S
C1017 C1016 1.377 . S
C1017 C1018 1.379 . S
C1018 H1002 0.931 . S
C1018 C1012 1.383 . S
C1018 C1017 1.379 . S
H1019 C1013 0.959 . S
H1020 C1013 0.961 . S
H1021 C1013 0.960 . S
H1022 C1014 0.930 . S
H1023 C1015 0.929 . S
H1024 C1032 0.929 . S
H1025 C1034 0.930 . S
H1026 C1036 0.930 . S
H1027 C1039 0.929 . S
H1028 C1042 0.930 . S
H1029 C1044 0.960 . S
H1030 C1044 0.960 . S
H1031 C1044 0.960 . S
C1032 H1024 0.929 . S
C1032 C1033 1.377 . S
C1032 C1034 1.384 . S
C1033 C1032 1.377 . S
C1033 C1039 1.390 . S
C1034 H1025 0.930 . S
C1034 C1032 1.384 . S
C1034 C1035 1.372 . S
C1035 C1034 1.372 . S
C1035 C1036 1.400 . S
C1035 C1040 1.490 . S
C1036 H1026 0.930 . S
C1036 C1035 1.400 . S
C1036 C1039 1.386 . S
H1037 C1053 0.930 . S
H1038 C1054 0.931 . S
C1039 H1027 0.929 . S
C1039 C1033 1.390 . S
C1039 C1036 1.386 . S
C1040 C1035 1.490 . S
C1040 C1042 1.395 . S
C1040 C1043 1.403 . S
H1041 C1047 0.930 . S
C1042 H1028 0.930 . S
C1042 C1040 1.395 . S
C1042 C1045 1.403 . S
C1043 C1040 1.403 . S
C1043 C1044 1.524 . S
C1043 C1047 1.400 . S
C1044 H1029 0.960 . S
C1044 H1030 0.960 . S
C1044 H1031 0.960 . S
C1044 C1043 1.524 . S
C1045 C1042 1.403 . S
C1045 C1046 1.392 . S
C1045 C1049 1.495 . S
C1046 C1045 1.392 . S
C1046 C1047 1.385 . S
C1046 C1048 1.478 . S
C1047 H1041 0.930 . S
C1047 C1043 1.400 . S
C1047 C1046 1.385 . S
C1048 C1046 1.478 . S
C1048 C1050 1.381 . S
C1048 C1054 1.383 . S
C1049 C1045 1.495 . S
C1049 H1055 0.959 . S
C1049 H1056 0.961 . S
C1049 H1057 0.960 . S
C1050 C1048 1.381 . S
C1050 C1051 1.394 . S
C1050 H1058 0.930 . S
C1051 C1050 1.394 . S
C1051 C1052 1.383 . S
C1051 H1059 0.929 . S
C1052 C1051 1.383 . S
C1052 C1053 1.377 . S
C1053 H1037 0.930 . S
C1053 C1052 1.377 . S
C1053 C1054 1.379 . S
C1054 H1038 0.931 . S
C1054 C1048 1.383 . S
C1054 C1053 1.379 . S
H1055 C1049 0.959 . S
H1056 C1049 0.961 . S
H1057 C1049 0.960 . S
H1058 C1050 0.930 . S
H1059 C1051 0.929 . S
H1060 C1068 0.929 . S
H1061 C1070 0.930 . S
H1062 C1072 0.930 . S
H1063 C1075 0.929 . S
H1064 C1078 0.930 . S
H1065 C1080 0.960 . S
H1066 C1080 0.960 . S
H1067 C1080 0.960 . S
C1068 H1060 0.929 . S
C1068 C1069 1.377 . S
C1068 C1070 1.384 . S
C1069 C1068 1.377 . S
C1069 C1075 1.390 . S
C1070 H1061 0.930 . S
C1070 C1068 1.384 . S
C1070 C1071 1.372 . S
C1071 C1070 1.372 . S
C1071 C1072 1.400 . S
C1071 C1076 1.490 . S
C1072 H1062 0.930 . S
C1072 C1071 1.400 . S
C1072 C1075 1.386 . S
H1073 C1089 0.930 . S
H1074 C1090 0.931 . S
C1075 H1063 0.929 . S
C1075 C1069 1.390 . S
C1075 C1072 1.386 . S
C1076 C1071 1.490 . S
C1076 C1078 1.395 . S
C1076 C1079 1.403 . S
H1077 C1083 0.930 . S
C1078 H1064 0.930 . S
C1078 C1076 1.395 . S
C1078 C1081 1.403 . S
C1079 C1076 1.403 . S
C1079 C1080 1.524 . S
C1079 C1083 1.400 . S
C1080 H1065 0.960 . S
C1080 H1066 0.960 . S
C1080 H1067 0.960 . S
C1080 C1079 1.524 . S
C1081 C1078 1.403 . S
C1081 C1082 1.392 . S
C1081 C1085 1.495 . S
C1082 C1081 1.392 . S
C1082 C1083 1.385 . S
C1082 C1084 1.478 . S
C1083 H1077 0.930 . S
C1083 C1079 1.400 . S
C1083 C1082 1.385 . S
C1084 C1082 1.478 . S
C1084 C1086 1.381 . S
C1084 C1090 1.383 . S
C1085 C1081 1.495 . S
C1085 H1091 0.959 . S
C1085 H1092 0.961 . S
C1085 H1093 0.960 . S
C1086 C1084 1.381 . S
C1086 C1087 1.394 . S
C1086 H1094 0.930 . S
C1087 C1086 1.394 . S
C1087 C1088 1.383 . S
C1087 H1095 0.929 . S
C1088 C1087 1.383 . S
C1088 C1089 1.377 . S
C1089 H1073 0.930 . S
C1089 C1088 1.377 . S
C1089 C1090 1.379 . S
C1090 H1074 0.931 . S
C1090 C1084 1.383 . S
C1090 C1089 1.379 . S
H1091 C1085 0.959 . S
H1092 C1085 0.961 . S
H1093 C1085 0.960 . S
H1094 C1086 0.930 . S
H1095 C1087 0.929 . S
H1096 C1104 0.929 . S
H1097 C1106 0.930 . S
H1098 C1108 0.930 . S
H1099 C1111 0.929 . S
H1100 C1114 0.930 . S
H1101 C1116 0.960 . S
H1102 C1116 0.960 . S
H1103 C1116 0.960 . S
C1104 H1096 0.929 . S
C1104 C1105 1.377 . S
C1104 C1106 1.384 . S
C1105 C1104 1.377 . S
C1105 C1111 1.390 . S
C1106 H1097 0.930 . S
C1106 C1104 1.384 . S
C1106 C1107 1.372 . S
C1107 C1106 1.372 . S
C1107 C1108 1.400 . S
C1107 C1112 1.490 . S
C1108 H1098 0.930 . S
C1108 C1107 1.400 . S
C1108 C1111 1.386 . S
H1109 C1125 0.930 . S
H1110 C1126 0.931 . S
C1111 H1099 0.929 . S
C1111 C1105 1.390 . S
C1111 C1108 1.386 . S
C1112 C1107 1.490 . S
C1112 C1114 1.395 . S
C1112 C1115 1.403 . S
H1113 C1119 0.930 . S
C1114 H1100 0.930 . S
C1114 C1112 1.395 . S
C1114 C1117 1.403 . S
C1115 C1112 1.403 . S
C1115 C1116 1.524 . S
C1115 C1119 1.400 . S
C1116 H1101 0.960 . S
C1116 H1102 0.960 . S
C1116 H1103 0.960 . S
C1116 C1115 1.524 . S
C1117 C1114 1.403 . S
C1117 C1118 1.392 . S
C1117 C1121 1.495 . S
C1118 C1117 1.392 . S
C1118 C1119 1.385 . S
C1118 C1120 1.478 . S
C1119 H1113 0.930 . S
C1119 C1115 1.400 . S
C1119 C1118 1.385 . S
C1120 C1118 1.478 . S
C1120 C1122 1.381 . S
C1120 C1126 1.383 . S
C1121 C1117 1.495 . S
C1121 H1127 0.959 . S
C1121 H1128 0.961 . S
C1121 H1129 0.960 . S
C1122 C1120 1.381 . S
C1122 C1123 1.394 . S
C1122 H1130 0.930 . S
C1123 C1122 1.394 . S
C1123 C1124 1.383 . S
C1123 H1131 0.929 . S
C1124 C1123 1.383 . S
C1124 C1125 1.377 . S
C1125 H1109 0.930 . S
C1125 C1124 1.377 . S
C1125 C1126 1.379 . S
C1126 H1110 0.931 . S
C1126 C1120 1.383 . S
C1126 C1125 1.379 . S
H1127 C1121 0.959 . S
H1128 C1121 0.961 . S
H1129 C1121 0.960 . S
H1130 C1122 0.930 . S
H1131 C1123 0.929 . S
H1132 C1140 0.929 . S
H1133 C1142 0.930 . S
H1134 C1144 0.930 . S
H1135 C1147 0.929 . S
H1136 C1150 0.930 . S
H1137 C1152 0.960 . S
H1138 C1152 0.960 . S
H1139 C1152 0.960 . S
C1140 H1132 0.929 . S
C1140 C1141 1.377 . S
C1140 C1142 1.384 . S
C1141 C1140 1.377 . S
C1141 C1147 1.390 . S
C1142 H1133 0.930 . S
C1142 C1140 1.384 . S
C1142 C1143 1.372 . S
C1143 C1142 1.372 . S
C1143 C1144 1.400 . S
C1143 C1148 1.490 . S
C1144 H1134 0.930 . S
C1144 C1143 1.400 . S
C1144 C1147 1.386 . S
H1145 C1161 0.930 . S
H1146 C1162 0.931 . S
C1147 H1135 0.929 . S
C1147 C1141 1.390 . S
C1147 C1144 1.386 . S
C1148 C1143 1.490 . S
C1148 C1150 1.395 . S
C1148 C1151 1.403 . S
H1149 C1155 0.930 . S
C1150 H1136 0.930 . S
C1150 C1148 1.395 . S
C1150 C1153 1.403 . S
C1151 C1148 1.403 . S
C1151 C1152 1.524 . S
C1151 C1155 1.400 . S
C1152 H1137 0.960 . S
C1152 H1138 0.960 . S
C1152 H1139 0.960 . S
C1152 C1151 1.524 . S
C1153 C1150 1.403 . S
C1153 C1154 1.392 . S
C1153 C1157 1.495 . S
C1154 C1153 1.392 . S
C1154 C1155 1.385 . S
C1154 C1156 1.478 . S
C1155 H1149 0.930 . S
C1155 C1151 1.400 . S
C1155 C1154 1.385 . S
C1156 C1154 1.478 . S
C1156 C1158 1.381 . S
C1156 C1162 1.383 . S
C1157 C1153 1.495 . S
C1157 H1163 0.959 . S
C1157 H1164 0.961 . S
C1157 H1165 0.960 . S
C1158 C1156 1.381 . S
C1158 C1159 1.394 . S
C1158 H1166 0.930 . S
C1159 C1158 1.394 . S
C1159 C1160 1.383 . S
C1159 H1167 0.929 . S
C1160 C1159 1.383 . S
C1160 C1161 1.377 . S
C1161 H1145 0.930 . S
C1161 C1160 1.377 . S
C1161 C1162 1.379 . S
C1162 H1146 0.931 . S
C1162 C1156 1.383 . S
C1162 C1161 1.379 . S
H1163 C1157 0.959 . S
H1164 C1157 0.961 . S
H1165 C1157 0.960 . S
H1166 C1158 0.930 . S
H1167 C1159 0.929 . S
H1168 C1176 0.929 . S
H1169 C1178 0.930 . S
H1170 C1180 0.930 . S
H1171 C1183 0.929 . S
H1172 C1186 0.930 . S
H1173 C1188 0.960 . S
H1174 C1188 0.960 . S
H1175 C1188 0.960 . S
C1176 H1168 0.929 . S
C1176 C1177 1.377 . S
C1176 C1178 1.384 . S
C1177 C1176 1.377 . S
C1177 C1183 1.390 . S
C1178 H1169 0.930 . S
C1178 C1176 1.384 . S
C1178 C1179 1.372 . S
C1179 C1178 1.372 . S
C1179 C1180 1.400 . S
C1179 C1184 1.490 . S
C1180 H1170 0.930 . S
C1180 C1179 1.400 . S
C1180 C1183 1.386 . S
H1181 C1197 0.930 . S
H1182 C1198 0.931 . S
C1183 H1171 0.929 . S
C1183 C1177 1.390 . S
C1183 C1180 1.386 . S
C1184 C1179 1.490 . S
C1184 C1186 1.395 . S
C1184 C1187 1.403 . S
H1185 C1191 0.930 . S
C1186 H1172 0.930 . S
C1186 C1184 1.395 . S
C1186 C1189 1.403 . S
C1187 C1184 1.403 . S
C1187 C1188 1.524 . S
C1187 C1191 1.400 . S
C1188 H1173 0.960 . S
C1188 H1174 0.960 . S
C1188 H1175 0.960 . S
C1188 C1187 1.524 . S
C1189 C1186 1.403 . S
C1189 C1190 1.392 . S
C1189 C1193 1.495 . S
C1190 C1189 1.392 . S
C1190 C1191 1.385 . S
C1190 C1192 1.478 . S
C1191 H1185 0.930 . S
C1191 C1187 1.400 . S
C1191 C1190 1.385 . S
C1192 C1190 1.478 . S
C1192 C1194 1.381 . S
C1192 C1198 1.383 . S
C1193 C1189 1.495 . S
C1193 H1199 0.959 . S
C1193 H1200 0.961 . S
C1193 H1201 0.960 . S
C1194 C1192 1.381 . S
C1194 C1195 1.394 . S
C1194 H1202 0.930 . S
C1195 C1194 1.394 . S
C1195 C1196 1.383 . S
C1195 H1203 0.929 . S
C1196 C1195 1.383 . S
C1196 C1197 1.377 . S
C1197 H1181 0.930 . S
C1197 C1196 1.377 . S
C1197 C1198 1.379 . S
C1198 H1182 0.931 . S
C1198 C1192 1.383 . S
C1198 C1197 1.379 . S
H1199 C1193 0.959 . S
H1200 C1193 0.961 . S
H1201 C1193 0.960 . S
H1202 C1194 0.930 . S
H1203 C1195 0.929 . S
H1204 C1212 0.929 . S
H1205 C1214 0.930 . S
H1206 C1216 0.930 . S
H1207 C1219 0.929 . S
H1208 C1222 0.930 . S
H1209 C1224 0.960 . S
H1210 C1224 0.960 . S
H1211 C1224 0.960 . S
C1212 H1204 0.929 . S
C1212 C1213 1.377 . S
C1212 C1214 1.384 . S
C1213 C1212 1.377 . S
C1213 C1219 1.390 . S
C1214 H1205 0.930 . S
C1214 C1212 1.384 . S
C1214 C1215 1.372 . S
C1215 C1214 1.372 . S
C1215 C1216 1.400 . S
C1215 C1220 1.490 . S
C1216 H1206 0.930 . S
C1216 C1215 1.400 . S
C1216 C1219 1.386 . S
H1217 C1233 0.930 . S
H1218 C1234 0.931 . S
C1219 H1207 0.929 . S
C1219 C1213 1.390 . S
C1219 C1216 1.386 . S
C1220 C1215 1.490 . S
C1220 C1222 1.395 . S
C1220 C1223 1.403 . S
H1221 C1227 0.930 . S
C1222 H1208 0.930 . S
C1222 C1220 1.395 . S
C1222 C1225 1.403 . S
C1223 C1220 1.403 . S
C1223 C1224 1.524 . S
C1223 C1227 1.400 . S
C1224 H1209 0.960 . S
C1224 H1210 0.960 . S
C1224 H1211 0.960 . S
C1224 C1223 1.524 . S
C1225 C1222 1.403 . S
C1225 C1226 1.392 . S
C1225 C1229 1.495 . S
C1226 C1225 1.392 . S
C1226 C1227 1.385 . S
C1226 C1228 1.478 . S
C1227 H1221 0.930 . S
C1227 C1223 1.400 . S
C1227 C1226 1.385 . S
C1228 C1226 1.478 . S
C1228 C1230 1.381 . S
C1228 C1234 1.383 . S
C1229 C1225 1.495 . S
C1229 H1235 0.959 . S
C1229 H1236 0.961 . S
C1229 H1237 0.960 . S
C1230 C1228 1.381 . S
C1230 C1231 1.394 . S
C1230 H1238 0.930 . S
C1231 C1230 1.394 . S
C1231 C1232 1.383 . S
C1231 H1239 0.929 . S
C1232 C1231 1.383 . S
C1232 C1233 1.377 . S
C1233 H1217 0.930 . S
C1233 C1232 1.377 . S
C1233 C1234 1.379 . S
C1234 H1218 0.931 . S
C1234 C1228 1.383 . S
C1234 C1233 1.379 . S
H1235 C1229 0.959 . S
H1236 C1229 0.961 . S
H1237 C1229 0.960 . S
H1238 C1230 0.930 . S
H1239 C1231 0.929 . S
H1240 C1248 0.929 . S
H1241 C1250 0.930 . S
H1242 C1252 0.930 . S
H1243 C1255 0.929 . S
H1244 C1258 0.930 . S
H1245 C1260 0.960 . S
H1246 C1260 0.960 . S
H1247 C1260 0.960 . S
C1248 H1240 0.929 . S
C1248 C1249 1.377 . S
C1248 C1250 1.384 . S
C1249 C1248 1.377 . S
C1249 C1255 1.390 . S
C1250 H1241 0.930 . S
C1250 C1248 1.384 . S
C1250 C1251 1.372 . S
C1251 C1250 1.372 . S
C1251 C1252 1.400 . S
C1251 C1256 1.490 . S
C1252 H1242 0.930 . S
C1252 C1251 1.400 . S
C1252 C1255 1.386 . S
H1253 C1269 0.930 . S
H1254 C1270 0.931 . S
C1255 H1243 0.929 . S
C1255 C1249 1.390 . S
C1255 C1252 1.386 . S
C1256 C1251 1.490 . S
C1256 C1258 1.395 . S
C1256 C1259 1.403 . S
H1257 C1263 0.930 . S
C1258 H1244 0.930 . S
C1258 C1256 1.395 . S
C1258 C1261 1.403 . S
C1259 C1256 1.403 . S
C1259 C1260 1.524 . S
C1259 C1263 1.400 . S
C1260 H1245 0.960 . S
C1260 H1246 0.960 . S
C1260 H1247 0.960 . S
C1260 C1259 1.524 . S
C1261 C1258 1.403 . S
C1261 C1262 1.392 . S
C1261 C1265 1.495 . S
C1262 C1261 1.392 . S
C1262 C1263 1.385 . S
C1262 C1264 1.478 . S
C1263 H1257 0.930 . S
C1263 C1259 1.400 . S
C1263 C1262 1.385 . S
C1264 C1262 1.478 . S
C1264 C1266 1.381 . S
C1264 C1270 1.383 . S
C1265 C1261 1.495 . S
C1265 H1271 0.959 . S
C1265 H1272 0.961 . S
C1265 H1273 0.960 . S
C1266 C1264 1.381 . S
C1266 C1267 1.394 . S
C1266 H1274 0.930 . S
C1267 C1266 1.394 . S
C1267 C1268 1.383 . S
C1267 H1275 0.929 . S
C1268 C1267 1.383 . S
C1268 C1269 1.377 . S
C1269 H1253 0.930 . S
C1269 C1268 1.377 . S
C1269 C1270 1.379 . S
C1270 H1254 0.931 . S
C1270 C1264 1.383 . S
C1270 C1269 1.379 . S
H1271 C1265 0.959 . S
H1272 C1265 0.961 . S
H1273 C1265 0.960 . S
H1274 C1266 0.930 . S
H1275 C1267 0.929 . S
H1276 C1284 0.929 . S
H1277 C1286 0.930 . S
H1278 C1288 0.930 . S
H1279 C1291 0.929 . S
H1280 C1294 0.930 . S
H1281 C1296 0.960 . S
H1282 C1296 0.960 . S
H1283 C1296 0.960 . S
C1284 H1276 0.929 . S
C1284 C1285 1.377 . S
C1284 C1286 1.384 . S
C1285 C1284 1.377 . S
C1285 C1291 1.390 . S
C1286 H1277 0.930 . S
C1286 C1284 1.384 . S
C1286 C1287 1.372 . S
C1287 C1286 1.372 . S
C1287 C1288 1.400 . S
C1287 C1292 1.490 . S
C1288 H1278 0.930 . S
C1288 C1287 1.400 . S
C1288 C1291 1.386 . S
H1289 C1305 0.930 . S
H1290 C1306 0.931 . S
C1291 H1279 0.929 . S
C1291 C1285 1.390 . S
C1291 C1288 1.386 . S
C1292 C1287 1.490 . S
C1292 C1294 1.395 . S
C1292 C1295 1.403 . S
H1293 C1299 0.930 . S
C1294 H1280 0.930 . S
C1294 C1292 1.395 . S
C1294 C1297 1.403 . S
C1295 C1292 1.403 . S
C1295 C1296 1.524 . S
C1295 C1299 1.400 . S
C1296 H1281 0.960 . S
C1296 H1282 0.960 . S
C1296 H1283 0.960 . S
C1296 C1295 1.524 . S
C1297 C1294 1.403 . S
C1297 C1298 1.392 . S
C1297 C1301 1.495 . S
C1298 C1297 1.392 . S
C1298 C1299 1.385 . S
C1298 C1300 1.478 . S
C1299 H1293 0.930 . S
C1299 C1295 1.400 . S
C1299 C1298 1.385 . S
C1300 C1298 1.478 . S
C1300 C1302 1.381 . S
C1300 C1306 1.383 . S
C1301 C1297 1.495 . S
C1301 H1307 0.959 . S
C1301 H1308 0.961 . S
C1301 H1309 0.960 . S
C1302 C1300 1.381 . S
C1302 C1303 1.394 . S
C1302 H1310 0.930 . S
C1303 C1302 1.394 . S
C1303 C1304 1.383 . S
C1303 H1311 0.929 . S
C1304 C1303 1.383 . S
C1304 C1305 1.377 . S
C1305 H1289 0.930 . S
C1305 C1304 1.377 . S
C1305 C1306 1.379 . S
C1306 H1290 0.931 . S
C1306 C1300 1.383 . S
C1306 C1305 1.379 . S
H1307 C1301 0.959 . S
H1308 C1301 0.961 . S
H1309 C1301 0.960 . S
H1310 C1302 0.930 . S
H1311 C1303 0.929 . S
H1312 C1320 0.929 . S
H1313 C1322 0.930 . S
H1314 C1324 0.930 . S
H1315 C1327 0.929 . S
H1316 C1330 0.930 . S
H1317 C1332 0.960 . S
H1318 C1332 0.960 . S
H1319 C1332 0.960 . S
C1320 H1312 0.929 . S
C1320 C1321 1.377 . S
C1320 C1322 1.384 . S
C1321 C1320 1.377 . S
C1321 C1327 1.390 . S
C1322 H1313 0.930 . S
C1322 C1320 1.384 . S
C1322 C1323 1.372 . S
C1323 C1322 1.372 . S
C1323 C1324 1.400 . S
C1323 C1328 1.490 . S
C1324 H1314 0.930 . S
C1324 C1323 1.400 . S
C1324 C1327 1.386 . S
H1325 C1341 0.930 . S
H1326 C1342 0.931 . S
C1327 H1315 0.929 . S
C1327 C1321 1.390 . S
C1327 C1324 1.386 . S
C1328 C1323 1.490 . S
C1328 C1330 1.395 . S
C1328 C1331 1.403 . S
H1329 C1335 0.930 . S
C1330 H1316 0.930 . S
C1330 C1328 1.395 . S
C1330 C1333 1.403 . S
C1331 C1328 1.403 . S
C1331 C1332 1.524 . S
C1331 C1335 1.400 . S
C1332 H1317 0.960 . S
C1332 H1318 0.960 . S
C1332 H1319 0.960 . S
C1332 C1331 1.524 . S
C1333 C1330 1.403 . S
C1333 C1334 1.392 . S
C1333 C1337 1.495 . S
C1334 C1333 1.392 . S
C1334 C1335 1.385 . S
C1334 C1336 1.478 . S
C1335 H1329 0.930 . S
C1335 C1331 1.400 . S
C1335 C1334 1.385 . S
C1336 C1334 1.478 . S
C1336 C1338 1.381 . S
C1336 C1342 1.383 . S
C1337 C1333 1.495 . S
C1337 H1343 0.959 . S
C1337 H1344 0.961 . S
C1337 H1345 0.960 . S
C1338 C1336 1.381 . S
C1338 C1339 1.394 . S
C1338 H1346 0.930 . S
C1339 C1338 1.394 . S
C1339 C1340 1.383 . S
C1339 H1347 0.929 . S
C1340 C1339 1.383 . S
C1340 C1341 1.377 . S
C1341 H1325 0.930 . S
C1341 C1340 1.377 . S
C1341 C1342 1.379 . S
C1342 H1326 0.931 . S
C1342 C1336 1.383 . S
C1342 C1341 1.379 . S
H1343 C1337 0.959 . S
H1344 C1337 0.961 . S
H1345 C1337 0.960 . S
H1346 C1338 0.930 . S
H1347 C1339 0.929 . S
H1348 C1356 0.929 . S
H1349 C1358 0.930 . S
H1350 C1360 0.930 . S
H1351 C1363 0.929 . S
H1352 C1366 0.930 . S
H1353 C1368 0.960 . S
H1354 C1368 0.960 . S
H1355 C1368 0.960 . S
C1356 H1348 0.929 . S
C1356 C1357 1.377 . S
C1356 C1358 1.384 . S
C1357 C1356 1.377 . S
C1357 C1363 1.390 . S
C1358 H1349 0.930 . S
C1358 C1356 1.384 . S
C1358 C1359 1.372 . S
C1359 C1358 1.372 . S
C1359 C1360 1.400 . S
C1359 C1364 1.490 . S
C1360 H1350 0.930 . S
C1360 C1359 1.400 . S
C1360 C1363 1.386 . S
H1361 C1377 0.930 . S
H1362 C1378 0.931 . S
C1363 H1351 0.929 . S
C1363 C1357 1.390 . S
C1363 C1360 1.386 . S
C1364 C1359 1.490 . S
C1364 C1366 1.395 . S
C1364 C1367 1.403 . S
H1365 C1371 0.930 . S
C1366 H1352 0.930 . S
C1366 C1364 1.395 . S
C1366 C1369 1.403 . S
C1367 C1364 1.403 . S
C1367 C1368 1.524 . S
C1367 C1371 1.400 . S
C1368 H1353 0.960 . S
C1368 H1354 0.960 . S
C1368 H1355 0.960 . S
C1368 C1367 1.524 . S
C1369 C1366 1.403 . S
C1369 C1370 1.392 . S
C1369 C1373 1.495 . S
C1370 C1369 1.392 . S
C1370 C1371 1.385 . S
C1370 C1372 1.478 . S
C1371 H1365 0.930 . S
C1371 C1367 1.400 . S
C1371 C1370 1.385 . S
C1372 C1370 1.478 . S
C1372 C1374 1.381 . S
C1372 C1378 1.383 . S
C1373 C1369 1.495 . S
C1373 H1379 0.959 . S
C1373 H1380 0.961 . S
C1373 H1381 0.960 . S
C1374 C1372 1.381 . S
C1374 C1375 1.394 . S
C1374 H1382 0.930 . S
C1375 C1374 1.394 . S
C1375 C1376 1.383 . S
C1375 H1383 0.929 . S
C1376 C1375 1.383 . S
C1376 C1377 1.377 . S
C1377 H1361 0.930 . S
C1377 C1376 1.377 . S
C1377 C1378 1.379 . S
C1378 H1362 0.931 . S
C1378 C1372 1.383 . S
C1378 C1377 1.379 . S
H1379 C1373 0.959 . S
H1380 C1373 0.961 . S
H1381 C1373 0.960 . S
H1382 C1374 0.930 . S
H1383 C1375 0.929 . S
H1384 C1392 0.929 . S
H1385 C1394 0.930 . S
H1386 C1396 0.930 . S
H1387 C1399 0.929 . S
H1388 C1402 0.930 . S
H1389 C1404 0.960 . S
H1390 C1404 0.960 . S
H1391 C1404 0.960 . S
C1392 H1384 0.929 . S
C1392 C1393 1.377 . S
C1392 C1394 1.384 . S
C1393 C1392 1.377 . S
C1393 C1399 1.390 . S
C1394 H1385 0.930 . S
C1394 C1392 1.384 . S
C1394 C1395 1.372 . S
C1395 C1394 1.372 . S
C1395 C1396 1.400 . S
C1395 C1400 1.490 . S
C1396 H1386 0.930 . S
C1396 C1395 1.400 . S
C1396 C1399 1.386 . S
H1397 C1413 0.930 . S
H1398 C1414 0.931 . S
C1399 H1387 0.929 . S
C1399 C1393 1.390 . S
C1399 C1396 1.386 . S
C1400 C1395 1.490 . S
C1400 C1402 1.395 . S
C1400 C1403 1.403 . S
H1401 C1407 0.930 . S
C1402 H1388 0.930 . S
C1402 C1400 1.395 . S
C1402 C1405 1.403 . S
C1403 C1400 1.403 . S
C1403 C1404 1.524 . S
C1403 C1407 1.400 . S
C1404 H1389 0.960 . S
C1404 H1390 0.960 . S
C1404 H1391 0.960 . S
C1404 C1403 1.524 . S
C1405 C1402 1.403 . S
C1405 C1406 1.392 . S
C1405 C1409 1.495 . S
C1406 C1405 1.392 . S
C1406 C1407 1.385 . S
C1406 C1408 1.478 . S
C1407 H1401 0.930 . S
C1407 C1403 1.400 . S
C1407 C1406 1.385 . S
C1408 C1406 1.478 . S
C1408 C1410 1.381 . S
C1408 C1414 1.383 . S
C1409 C1405 1.495 . S
C1409 H1415 0.959 . S
C1409 H1416 0.961 . S
C1409 H1417 0.960 . S
C1410 C1408 1.381 . S
C1410 C1411 1.394 . S
C1410 H1418 0.930 . S
C1411 C1410 1.394 . S
C1411 C1412 1.383 . S
C1411 H1419 0.929 . S
C1412 C1411 1.383 . S
C1412 C1413 1.377 . S
C1413 H1397 0.930 . S
C1413 C1412 1.377 . S
C1413 C1414 1.379 . S
C1414 H1398 0.931 . S
C1414 C1408 1.383 . S
C1414 C1413 1.379 . S
H1415 C1409 0.959 . S
H1416 C1409 0.961 . S
H1417 C1409 0.960 . S
H1418 C1410 0.930 . S
H1419 C1411 0.929 . S
H1420 C1428 0.929 . S
H1421 C1430 0.930 . S
H1422 C1432 0.930 . S
H1423 C1435 0.929 . S
H1424 C1438 0.930 . S
H1425 C1440 0.960 . S
H1426 C1440 0.960 . S
H1427 C1440 0.960 . S
C1428 H1420 0.929 . S
C1428 C1429 1.377 . S
C1428 C1430 1.384 . S
C1429 C1428 1.377 . S
C1429 C1435 1.390 . S
C1430 H1421 0.930 . S
C1430 C1428 1.384 . S
C1430 C1431 1.372 . S
C1431 C1430 1.372 . S
C1431 C1432 1.400 . S
C1431 C1436 1.490 . S
C1432 H1422 0.930 . S
C1432 C1431 1.400 . S
C1432 C1435 1.386 . S
H1433 C1449 0.930 . S
H1434 C1450 0.931 . S
C1435 H1423 0.929 . S
C1435 C1429 1.390 . S
C1435 C1432 1.386 . S
C1436 C1431 1.490 . S
C1436 C1438 1.395 . S
C1436 C1439 1.403 . S
H1437 C1443 0.930 . S
C1438 H1424 0.930 . S
C1438 C1436 1.395 . S
C1438 C1441 1.403 . S
C1439 C1436 1.403 . S
C1439 C1440 1.524 . S
C1439 C1443 1.400 . S
C1440 H1425 0.960 . S
C1440 H1426 0.960 . S
C1440 H1427 0.960 . S
C1440 C1439 1.524 . S
C1441 C1438 1.403 . S
C1441 C1442 1.392 . S
C1441 C1445 1.495 . S
C1442 C1441 1.392 . S
C1442 C1443 1.385 . S
C1442 C1444 1.478 . S
C1443 H1437 0.930 . S
C1443 C1439 1.400 . S
C1443 C1442 1.385 . S
C1444 C1442 1.478 . S
C1444 C1446 1.381 . S
C1444 C1450 1.383 . S
C1445 C1441 1.495 . S
C1445 H1451 0.959 . S
C1445 H1452 0.961 . S
C1445 H1453 0.960 . S
C1446 C1444 1.381 . S
C1446 C1447 1.394 . S
C1446 H1454 0.930 . S
C1447 C1446 1.394 . S
C1447 C1448 1.383 . S
C1447 H1455 0.929 . S
C1448 C1447 1.383 . S
C1448 C1449 1.377 . S
C1449 H1433 0.930 . S
C1449 C1448 1.377 . S
C1449 C1450 1.379 . S
C1450 H1434 0.931 . S
C1450 C1444 1.383 . S
C1450 C1449 1.379 . S
H1451 C1445 0.959 . S
H1452 C1445 0.961 . S
H1453 C1445 0.960 . S
H1454 C1446 0.930 . S
H1455 C1447 0.929 . S
H1456 C1464 0.929 . S
H1457 C1466 0.930 . S
H1458 C1468 0.930 . S
H1459 C1471 0.929 . S
H1460 C1474 0.930 . S
H1461 C1476 0.960 . S
H1462 C1476 0.960 . S
H1463 C1476 0.960 . S
C1464 H1456 0.929 . S
C1464 C1465 1.377 . S
C1464 C1466 1.384 . S
C1465 C1464 1.377 . S
C1465 C1471 1.390 . S
C1466 H1457 0.930 . S
C1466 C1464 1.384 . S
C1466 C1467 1.372 . S
C1467 C1466 1.372 . S
C1467 C1468 1.400 . S
C1467 C1472 1.490 . S
C1468 H1458 0.930 . S
C1468 C1467 1.400 . S
C1468 C1471 1.386 . S
H1469 C1485 0.930 . S
H1470 C1486 0.931 . S
C1471 H1459 0.929 . S
C1471 C1465 1.390 . S
C1471 C1468 1.386 . S
C1472 C1467 1.490 . S
C1472 C1474 1.395 . S
C1472 C1475 1.403 . S
H1473 C1479 0.930 . S
C1474 H1460 0.930 . S
C1474 C1472 1.395 . S
C1474 C1477 1.403 . S
C1475 C1472 1.403 . S
C1475 C1476 1.524 . S
C1475 C1479 1.400 . S
C1476 H1461 0.960 . S
C1476 H1462 0.960 . S
C1476 H1463 0.960 . S
C1476 C1475 1.524 . S
C1477 C1474 1.403 . S
C1477 C1478 1.392 . S
C1477 C1481 1.495 . S
C1478 C1477 1.392 . S
C1478 C1479 1.385 . S
C1478 C1480 1.478 . S
C1479 H1473 0.930 . S
C1479 C1475 1.400 . S
C1479 C1478 1.385 . S
C1480 C1478 1.478 . S
C1480 C1482 1.381 . S
C1480 C1486 1.383 . S
C1481 C1477 1.495 . S
C1481 H1487 0.959 . S
C1481 H1488 0.961 . S
C1481 H1489 0.960 . S
C1482 C1480 1.381 . S
C1482 C1483 1.394 . S
C1482 H1490 0.930 . S
C1483 C1482 1.394 . S
C1483 C1484 1.383 . S
C1483 H1491 0.929 . S
C1484 C1483 1.383 . S
C1484 C1485 1.377 . S
C1485 H1469 0.930 . S
C1485 C1484 1.377 . S
C1485 C1486 1.379 . S
C1486 H1470 0.931 . S
C1486 C1480 1.383 . S
C1486 C1485 1.379 . S
H1487 C1481 0.959 . S
H1488 C1481 0.961 . S
H1489 C1481 0.960 . S
H1490 C1482 0.930 . S
H1491 C1483 0.929 . S
H1492 C1500 0.929 . S
H1493 C1502 0.930 . S
H1494 C1504 0.930 . S
H1495 C1507 0.929 . S
H1496 C1510 0.930 . S
H1497 C1512 0.960 . S
H1498 C1512 0.960 . S
H1499 C1512 0.960 . S
C1500 H1492 0.929 . S
C1500 C1501 1.377 . S
C1500 C1502 1.384 . S
C1501 C1500 1.377 . S
C1501 C1507 1.390 . S
C1502 H1493 0.930 . S
C1502 C1500 1.384 . S
C1502 C1503 1.372 . S
C1503 C1502 1.372 . S
C1503 C1504 1.400 . S
C1503 C1508 1.490 . S
C1504 H1494 0.930 . S
C1504 C1503 1.400 . S
C1504 C1507 1.386 . S
H1505 C1521 0.930 . S
H1506 C1522 0.931 . S
C1507 H1495 0.929 . S
C1507 C1501 1.390 . S
C1507 C1504 1.386 . S
C1508 C1503 1.490 . S
C1508 C1510 1.395 . S
C1508 C1511 1.403 . S
H1509 C1515 0.930 . S
C1510 H1496 0.930 . S
C1510 C1508 1.395 . S
C1510 C1513 1.403 . S
C1511 C1508 1.403 . S
C1511 C1512 1.524 . S
C1511 C1515 1.400 . S
C1512 H1497 0.960 . S
C1512 H1498 0.960 . S
C1512 H1499 0.960 . S
C1512 C1511 1.524 . S
C1513 C1510 1.403 . S
C1513 C1514 1.392 . S
C1513 C1517 1.495 . S
C1514 C1513 1.392 . S
C1514 C1515 1.385 . S
C1514 C1516 1.478 . S
C1515 H1509 0.930 . S
C1515 C1511 1.400 . S
C1515 C1514 1.385 . S
C1516 C1514 1.478 . S
C1516 C1518 1.381 . S
C1516 C1522 1.383 . S
C1517 C1513 1.495 . S
C1517 H1523 0.959 . S
C1517 H1524 0.961 . S
C1517 H1525 0.960 . S
C1518 C1516 1.381 . S
C1518 C1519 1.394 . S
C1518 H1526 0.930 . S
C1519 C1518 1.394 . S
C1519 C1520 1.383 . S
C1519 H1527 0.929 . S
C1520 C1519 1.383 . S
C1520 C1521 1.377 . S
C1521 H1505 0.930 . S
C1521 C1520 1.377 . S
C1521 C1522 1.379 . S
C1522 H1506 0.931 . S
C1522 C1516 1.383 . S
C1522 C1521 1.379 . S
H1523 C1517 0.959 . S
H1524 C1517 0.961 . S
H1525 C1517 0.960 . S
H1526 C1518 0.930 . S
H1527 C1519 0.929 . S
H1528 C1536 0.929 . S
H1529 C1538 0.930 . S
H1530 C1540 0.930 . S
H1531 C1543 0.929 . S
H1532 C1546 0.930 . S
H1533 C1548 0.960 . S
H1534 C1548 0.960 . S
H1535 C1548 0.960 . S
C1536 H1528 0.929 . S
C1536 C1537 1.377 . S
C1536 C1538 1.384 . S
C1537 C1536 1.377 . S
C1537 C1543 1.390 . S
C1538 H1529 0.930 . S
C1538 C1536 1.384 . S
C1538 C1539 1.372 . S
C1539 C1538 1.372 . S
C1539 C1540 1.400 . S
C1539 C1544 1.490 . S
C1540 H1530 0.930 . S
C1540 C1539 1.400 . S
C1540 C1543 1.386 . S
H1541 C1557 0.930 . S
H1542 C1558 0.931 . S
C1543 H1531 0.929 . S
C1543 C1537 1.390 . S
C1543 C1540 1.386 . S
C1544 C1539 1.490 . S
C1544 C1546 1.395 . S
C1544 C1547 1.403 . S
H1545 C1551 0.930 . S
C1546 H1532 0.930 . S
C1546 C1544 1.395 . S
C1546 C1549 1.403 . S
C1547 C1544 1.403 . S
C1547 C1548 1.524 . S
C1547 C1551 1.400 . S
C1548 H1533 0.960 . S
C1548 H1534 0.960 . S
C1548 H1535 0.960 . S
C1548 C1547 1.524 . S
C1549 C1546 1.403 . S
C1549 C1550 1.392 . S
C1549 C1553 1.495 . S
C1550 C1549 1.392 . S
C1550 C1551 1.385 . S
C1550 C1552 1.478 . S
C1551 H1545 0.930 . S
C1551 C1547 1.400 . S
C1551 C1550 1.385 . S
C1552 C1550 1.478 . S
C1552 C1554 1.381 . S
C1552 C1558 1.383 . S
C1553 C1549 1.495 . S
C1553 H1559 0.959 . S
C1553 H1560 0.961 . S
C1553 H1561 0.960 . S
C1554 C1552 1.381 . S
C1554 C1555 1.394 . S
C1554 H1562 0.930 . S
C1555 C1554 1.394 . S
C1555 C1556 1.383 . S
C1555 H1563 0.929 . S
C1556 C1555 1.383 . S
C1556 C1557 1.377 . S
C1557 H1541 0.930 . S
C1557 C1556 1.377 . S
C1557 C1558 1.379 . S
C1558 H1542 0.931 . S
C1558 C1552 1.383 . S
C1558 C1557 1.379 . S
H1559 C1553 0.959 . S
H1560 C1553 0.961 . S
H1561 C1553 0.960 . S
H1562 C1554 0.930 . S
H1563 C1555 0.929 . S
H1564 C1572 0.929 . S
H1565 C1574 0.930 . S
H1566 C1576 0.930 . S
H1567 C1579 0.929 . S
H1568 C1582 0.930 . S
H1569 C1584 0.960 . S
H1570 C1584 0.960 . S
H1571 C1584 0.960 . S
C1572 H1564 0.929 . S
C1572 C1573 1.377 . S
C1572 C1574 1.384 . S
C1573 C1572 1.377 . S
C1573 C1579 1.390 . S
C1574 H1565 0.930 . S
C1574 C1572 1.384 . S
C1574 C1575 1.372 . S
C1575 C1574 1.372 . S
C1575 C1576 1.400 . S
C1575 C1580 1.490 . S
C1576 H1566 0.930 . S
C1576 C1575 1.400 . S
C1576 C1579 1.386 . S
H1577 C1593 0.930 . S
H1578 C1594 0.931 . S
C1579 H1567 0.929 . S
C1579 C1573 1.390 . S
C1579 C1576 1.386 . S
C1580 C1575 1.490 . S
C1580 C1582 1.395 . S
C1580 C1583 1.403 . S
H1581 C1587 0.930 . S
C1582 H1568 0.930 . S
C1582 C1580 1.395 . S
C1582 C1585 1.403 . S
C1583 C1580 1.403 . S
C1583 C1584 1.524 . S
C1583 C1587 1.400 . S
C1584 H1569 0.960 . S
C1584 H1570 0.960 . S
C1584 H1571 0.960 . S
C1584 C1583 1.524 . S
C1585 C1582 1.403 . S
C1585 C1586 1.392 . S
C1585 C1589 1.495 . S
C1586 C1585 1.392 . S
C1586 C1587 1.385 . S
C1586 C1588 1.478 . S
C1587 H1581 0.930 . S
C1587 C1583 1.400 . S
C1587 C1586 1.385 . S
C1588 C1586 1.478 . S
C1588 C1590 1.381 . S
C1588 C1594 1.383 . S
C1589 C1585 1.495 . S
C1589 H1595 0.959 . S
C1589 H1596 0.961 . S
C1589 H1597 0.960 . S
C1590 C1588 1.381 . S
C1590 C1591 1.394 . S
C1590 H1598 0.930 . S
C1591 C1590 1.394 . S
C1591 C1592 1.383 . S
C1591 H1599 0.929 . S
C1592 C1591 1.383 . S
C1592 C1593 1.377 . S
C1593 H1577 0.930 . S
C1593 C1592 1.377 . S
C1593 C1594 1.379 . S
C1594 H1578 0.931 . S
C1594 C1588 1.383 . S
C1594 C1593 1.379 . S
H1595 C1589 0.959 . S
H1596 C1589 0.961 . S
H1597 C1589 0.960 . S
H1598 C1590 0.930 . S
H1599 C1591 0.929 . S
H1600 C1608 0.929 . S
H1601 C1610 0.930 . S
H1602 C1612 0.930 . S
H1603 C1615 0.929 . S
H1604 C1618 0.930 . S
H1605 C1620 0.960 . S
H1606 C1620 0.960 . S
H1607 C1620 0.960 . S
C1608 H1600 0.929 . S
C1608 C1609 1.377 . S
C1608 C1610 1.384 . S
C1609 C1608 1.377 . S
C1609 C1615 1.390 . S
C1610 H1601 0.930 . S
C1610 C1608 1.384 . S
C1610 C1611 1.372 . S
C1611 C1610 1.372 . S
C1611 C1612 1.400 . S
C1611 C1616 1.490 . S
C1612 H1602 0.930 . S
C1612 C1611 1.400 . S
C1612 C1615 1.386 . S
H1613 C1629 0.930 . S
H1614 C1630 0.931 . S
C1615 H1603 0.929 . S
C1615 C1609 1.390 . S
C1615 C1612 1.386 . S
C1616 C1611 1.490 . S
C1616 C1618 1.395 . S
C1616 C1619 1.403 . S
H1617 C1623 0.930 . S
C1618 H1604 0.930 . S
C1618 C1616 1.395 . S
C1618 C1621 1.403 . S
C1619 C1616 1.403 . S
C1619 C1620 1.524 . S
C1619 C1623 1.400 . S
C1620 H1605 0.960 . S
C1620 H1606 0.960 . S
C1620 H1607 0.960 . S
C1620 C1619 1.524 . S
C1621 C1618 1.403 . S
C1621 C1622 1.392 . S
C1621 C1625 1.495 . S
C1622 C1621 1.392 . S
C1622 C1623 1.385 . S
C1622 C1624 1.478 . S
C1623 H1617 0.930 . S
C1623 C1619 1.400 . S
C1623 C1622 1.385 . S
C1624 C1622 1.478 . S
C1624 C1626 1.381 . S
C1624 C1630 1.383 . S
C1625 C1621 1.495 . S
C1625 H1631 0.959 . S
C1625 H1632 0.961 . S
C1625 H1633 0.960 . S
C1626 C1624 1.381 . S
C1626 C1627 1.394 . S
C1626 H1634 0.930 . S
C1627 C1626 1.394 . S
C1627 C1628 1.383 . S
C1627 H1635 0.929 . S
C1628 C1627 1.383 . S
C1628 C1629 1.377 . S
C1629 H1613 0.930 . S
C1629 C1628 1.377 . S
C1629 C1630 1.379 . S
C1630 H1614 0.931 . S
C1630 C1624 1.383 . S
C1630 C1629 1.379 . S
H1631 C1625 0.959 . S
H1632 C1625 0.961 . S
H1633 C1625 0.960 . S
H1634 C1626 0.930 . S
H1635 C1627 0.929 . S
H1636 C1644 0.929 . S
H1637 C1646 0.930 . S
H1638 C1648 0.930 . S
H1639 C1651 0.929 . S
H1640 C1654 0.930 . S
H1641 C1656 0.960 . S
H1642 C1656 0.960 . S
H1643 C1656 0.960 . S
C1644 H1636 0.929 . S
C1644 C1645 1.377 . S
C1644 C1646 1.384 . S
C1645 C1644 1.377 . S
C1645 C1651 1.390 . S
C1646 H1637 0.930 . S
C1646 C1644 1.384 . S
C1646 C1647 1.372 . S
C1647 C1646 1.372 . S
C1647 C1648 1.400 . S
C1647 C1652 1.490 . S
C1648 H1638 0.930 . S
C1648 C1647 1.400 . S
C1648 C1651 1.386 . S
H1649 C1665 0.930 . S
H1650 C1666 0.931 . S
C1651 H1639 0.929 . S
C1651 C1645 1.390 . S
C1651 C1648 1.386 . S
C1652 C1647 1.490 . S
C1652 C1654 1.395 . S
C1652 C1655 1.403 . S
H1653 C1659 0.930 . S
C1654 H1640 0.930 . S
C1654 C1652 1.395 . S
C1654 C1657 1.403 . S
C1655 C1652 1.403 . S
C1655 C1656 1.524 . S
C1655 C1659 1.400 . S
C1656 H1641 0.960 . S
C1656 H1642 0.960 . S
C1656 H1643 0.960 . S
C1656 C1655 1.524 . S
C1657 C1654 1.403 . S
C1657 C1658 1.392 . S
C1657 C1661 1.495 . S
C1658 C1657 1.392 . S
C1658 C1659 1.385 . S
C1658 C1660 1.478 . S
C1659 H1653 0.930 . S
C1659 C1655 1.400 . S
C1659 C1658 1.385 . S
C1660 C1658 1.478 . S
C1660 C1662 1.381 . S
C1660 C1666 1.383 . S
C1661 C1657 1.495 . S
C1661 H1667 0.959 . S
C1661 H1668 0.961 . S
C1661 H1669 0.960 . S
C1662 C1660 1.381 . S
C1662 C1663 1.394 . S
C1662 H1670 0.930 . S
C1663 C1662 1.394 . S
C1663 C1664 1.383 . S
C1663 H1671 0.929 . S
C1664 C1663 1.383 . S
C1664 C1665 1.377 . S
C1665 H1649 0.930 . S
C1665 C1664 1.377 . S
C1665 C1666 1.379 . S
C1666 H1650 0.931 . S
C1666 C1660 1.383 . S
C1666 C1665 1.379 . S
H1667 C1661 0.959 . S
H1668 C1661 0.961 . S
H1669 C1661 0.960 . S
H1670 C1662 0.930 . S
H1671 C1663 0.929 . S
H1672 C1680 0.929 . S
H1673 C1682 0.930 . S
H1674 C1684 0.930 . S
H1675 C1687 0.929 . S
H1676 C1690 0.930 . S
H1677 C1692 0.960 . S
H1678 C1692 0.960 . S
H1679 C1692 0.960 . S
C1680 H1672 0.929 . S
C1680 C1681 1.377 . S
C1680 C1682 1.384 . S
C1681 C1680 1.377 . S
C1681 C1687 1.390 . S
C1682 H1673 0.930 . S
C1682 C1680 1.384 . S
C1682 C1683 1.372 . S
C1683 C1682 1.372 . S
C1683 C1684 1.400 . S
C1683 C1688 1.490 . S
C1684 H1674 0.930 . S
C1684 C1683 1.400 . S
C1684 C1687 1.386 . S
H1685 C1701 0.930 . S
H1686 C1702 0.931 . S
C1687 H1675 0.929 . S
C1687 C1681 1.390 . S
C1687 C1684 1.386 . S
C1688 C1683 1.490 . S
C1688 C1690 1.395 . S
C1688 C1691 1.403 . S
H1689 C1695 0.930 . S
C1690 H1676 0.930 . S
C1690 C1688 1.395 . S
C1690 C1693 1.403 . S
C1691 C1688 1.403 . S
C1691 C1692 1.524 . S
C1691 C1695 1.400 . S
C1692 H1677 0.960 . S
C1692 H1678 0.960 . S
C1692 H1679 0.960 . S
C1692 C1691 1.524 . S
C1693 C1690 1.403 . S
C1693 C1694 1.392 . S
C1693 C1697 1.495 . S
C1694 C1693 1.392 . S
C1694 C1695 1.385 . S
C1694 C1696 1.478 . S
C1695 H1689 0.930 . S
C1695 C1691 1.400 . S
C1695 C1694 1.385 . S
C1696 C1694 1.478 . S
C1696 C1698 1.381 . S
C1696 C1702 1.383 . S
C1697 C1693 1.495 . S
C1697 H1703 0.959 . S
C1697 H1704 0.961 . S
C1697 H1705 0.960 . S
C1698 C1696 1.381 . S
C1698 C1699 1.394 . S
C1698 H1706 0.930 . S
C1699 C1698 1.394 . S
C1699 C1700 1.383 . S
C1699 H1707 0.929 . S
C1700 C1699 1.383 . S
C1700 C1701 1.377 . S
C1701 H1685 0.930 . S
C1701 C1700 1.377 . S
C1701 C1702 1.379 . S
C1702 H1686 0.931 . S
C1702 C1696 1.383 . S
C1702 C1701 1.379 . S
H1703 C1697 0.959 . S
H1704 C1697 0.961 . S
H1705 C1697 0.960 . S
H1706 C1698 0.930 . S
H1707 C1699 0.929 . S
H1708 C1716 0.929 . S
H1709 C1718 0.930 . S
H1710 C1720 0.930 . S
H1711 C1723 0.929 . S
H1712 C1726 0.930 . S
H1713 C1728 0.960 . S
H1714 C1728 0.960 . S
H1715 C1728 0.960 . S
C1716 H1708 0.929 . S
C1716 C1717 1.377 . S
C1716 C1718 1.384 . S
C1717 C1716 1.377 . S
C1717 C1723 1.390 . S
C1718 H1709 0.930 . S
C1718 C1716 1.384 . S
C1718 C1719 1.372 . S
C1719 C1718 1.372 . S
C1719 C1720 1.400 . S
C1719 C1724 1.490 . S
C1720 H1710 0.930 . S
C1720 C1719 1.400 . S
C1720 C1723 1.386 . S
H1721 C1737 0.930 . S
H1722 C1738 0.931 . S
C1723 H1711 0.929 . S
C1723 C1717 1.390 . S
C1723 C1720 1.386 . S
C1724 C1719 1.490 . S
C1724 C1726 1.395 . S
C1724 C1727 1.403 . S
H1725 C1731 0.930 . S
C1726 H1712 0.930 . S
C1726 C1724 1.395 . S
C1726 C1729 1.403 . S
C1727 C1724 1.403 . S
C1727 C1728 1.524 . S
C1727 C1731 1.400 . S
C1728 H1713 0.960 . S
C1728 H1714 0.960 . S
C1728 H1715 0.960 . S
C1728 C1727 1.524 . S
C1729 C1726 1.403 . S
C1729 C1730 1.392 . S
C1729 C1733 1.495 . S
C1730 C1729 1.392 . S
C1730 C1731 1.385 . S
C1730 C1732 1.478 . S
C1731 H1725 0.930 . S
C1731 C1727 1.400 . S
C1731 C1730 1.385 . S
C1732 C1730 1.478 . S
C1732 C1734 1.381 . S
C1732 C1738 1.383 . S
C1733 C1729 1.495 . S
C1733 H1739 0.959 . S
C1733 H1740 0.961 . S
C1733 H1741 0.960 . S
C1734 C1732 1.381 . S
C1734 C1735 1.394 . S
C1734 H1742 0.930 . S
C1735 C1734 1.394 . S
C1735 C1736 1.383 . S
C1735 H1743 0.929 . S
C1736 C1735 1.383 . S
C1736 C1737 1.377 . S
C1737 H1721 0.930 . S
C1737 C1736 1.377 . S
C1737 C1738 1.379 . S
C1738 H1722 0.931 . S
C1738 C1732 1.383 . S
C1738 C1737 1.379 . S
H1739 C1733 0.959 . S
H1740 C1733 0.961 . S
H1741 C1733 0.960 . S
H1742 C1734 0.930 . S
H1743 C1735 0.929 . S
C620 C197 1.497 . S
C601 C12 1.376 . S
C656 C250 1.318 . S
C637 C33 1.218 . S
C692 C313 1.539 . S
C673 C51 1.465 . S
C728 C356 1.283 . S
C709 C75 1.193 . S
C745 C103 1.484 . S
C764 C312 1.548 . S
C800 C349 1.320 . S
C781 C122 1.245 . S
C836 C190 1.481 . S
C817 C145 1.419 . S
C872 C243 1.258 . S
C853 C166 1.201 . S
C908 C296 1.542 . S
C889 C164 1.420 . S
C944 C365 1.821 . S
C925 C101 1.726 . S
C980 C206 1.573 . S
C961 C124 1.496 . S
C1016 C259 1.755 . S
C997 C143 1.645 . S
C1052 C207 1.585 . S
C1033 C30 1.498 . S
C1088 C260 1.813 . S
C1069 C54 1.701 . S
C1124 C303 1.544 . S
C1105 C72 1.443 . S
C1160 C366 1.776 . S
C1141 C9 1.666 . S
C1196 C409 1.488 . S
C1177 C159 1.362 . S
C1213 C96 1.585 . S
C1232 C462 1.696 . S
C1249 C114 1.492 . S
C1268 C524 1.566 . S
C1285 C138 1.574 . S
C1304 C578 1.689 . S
C1321 C40 1.457 . S
C1340 C525 1.518 . S
C1357 C59 1.637 . S
C1376 C577 1.740 . S
C1393 C82 1.438 . S
C1412 C402 1.507 . S
C1448 C455 1.646 . S
C1429 C19 1.562 . S
C1484 C515 1.518 . S
C1465 C17 1.414 . S
C1501 C38 1.304 . S
C1520 C561 1.389 . S
C1537 C61 1.531 . S
C1556 C418 1.605 . S
C1573 C80 1.274 . S
C1592 C471 1.369 . S
C1628 C419 1.564 . S
C1609 C93 1.466 . S
C1664 C472 1.417 . S
C1645 C117 1.328 . S
C1681 C135 1.453 . S
C1700 C508 1.549 . S
C1736 C568 1.332 . S
C1717 C156 1.254 . S
