# Generated by pormake.
# Topology ptr, (4,4)-cn, num edge types: 1
# Building blocks:
#     Node 0, Type 0, BuildingBlock: GALJAG_clean_sbu_0, # of connection points: 4
#     Node 1, Type 0, BuildingBlock: GALJAG_clean_sbu_0, # of connection points: 4
#     Node 2, Type 0, BuildingBlock: GALJAG_clean_sbu_0, # of connection points: 4
#     Node 3, Type 0, BuildingBlock: GALJAG_clean_sbu_0, # of connection points: 4
#     Node 4, Type 0, BuildingBlock: GALJAG_clean_sbu_0, # of connection points: 4
#     Node 5, Type 0, BuildingBlock: GALJAG_clean_sbu_0, # of connection points: 4
#     Node 6, Type 0, BuildingBlock: GALJAG_clean_sbu_0, # of connection points: 4
#     Node 7, Type 0, BuildingBlock: GALJAG_clean_sbu_0, # of connection points: 4
#     Node 8, Type 0, BuildingBlock: GALJAG_clean_sbu_0, # of connection points: 4
#     Node 9, Type 0, BuildingBlock: GALJAG_clean_sbu_0, # of connection points: 4
#     Node 10, Type 0, BuildingBlock: GALJAG_clean_sbu_0, # of connection points: 4
#     Node 11, Type 0, BuildingBlock: GALJAG_clean_sbu_0, # of connection points: 4
#     Node 12, Type 0, BuildingBlock: GALJAG_clean_sbu_0, # of connection points: 4
#     Node 13, Type 0, BuildingBlock: GALJAG_clean_sbu_0, # of connection points: 4
#     Node 14, Type 0, BuildingBlock: GALJAG_clean_sbu_0, # of connection points: 4
#     Node 15, Type 0, BuildingBlock: GALJAG_clean_sbu_0, # of connection points: 4
#     Node 16, Type 0, BuildingBlock: GALJAG_clean_sbu_0, # of connection points: 4
#     Node 17, Type 0, BuildingBlock: GALJAG_clean_sbu_0, # of connection points: 4
#     Node 18, Type 1, BuildingBlock: GIZVER_clean_linker_0, # of connection points: 4
#     Node 19, Type 1, BuildingBlock: GIZVER_clean_linker_0, # of connection points: 4
#     Node 20, Type 1, BuildingBlock: GIZVER_clean_linker_0, # of connection points: 4
#     Node 21, Type 1, BuildingBlock: GIZVER_clean_linker_0, # of connection points: 4
#     Node 22, Type 1, BuildingBlock: GIZVER_clean_linker_0, # of connection points: 4
#     Node 23, Type 1, BuildingBlock: GIZVER_clean_linker_0, # of connection points: 4
#     Node 24, Type 1, BuildingBlock: GIZVER_clean_linker_0, # of connection points: 4
#     Node 25, Type 1, BuildingBlock: GIZVER_clean_linker_0, # of connection points: 4
#     Node 26, Type 1, BuildingBlock: GIZVER_clean_linker_0, # of connection points: 4
#     Node 27, Type 1, BuildingBlock: GIZVER_clean_linker_0, # of connection points: 4
#     Node 28, Type 1, BuildingBlock: GIZVER_clean_linker_0, # of connection points: 4
#     Node 29, Type 1, BuildingBlock: GIZVER_clean_linker_0, # of connection points: 4
#     Node 30, Type 1, BuildingBlock: GIZVER_clean_linker_0, # of connection points: 4
#     Node 31, Type 1, BuildingBlock: GIZVER_clean_linker_0, # of connection points: 4
#     Node 32, Type 1, BuildingBlock: GIZVER_clean_linker_0, # of connection points: 4
#     Node 33, Type 1, BuildingBlock: GIZVER_clean_linker_0, # of connection points: 4
#     Node 34, Type 1, BuildingBlock: GIZVER_clean_linker_0, # of connection points: 4
#     Node 35, Type 1, BuildingBlock: GIZVER_clean_linker_0, # of connection points: 4
#     Edge 36, Type (0, 1), BuildingBlock: KIFKEQ_clean_linker_1, # of connection points: 2
#     Edge 37, Type (0, 1), BuildingBlock: KIFKEQ_clean_linker_1, # of connection points: 2
#     Edge 38, Type (0, 1), BuildingBlock: KIFKEQ_clean_linker_1, # of connection points: 2
#     Edge 39, Type (0, 1), BuildingBlock: KIFKEQ_clean_linker_1, # of connection points: 2
#     Edge 40, Type (0, 1), BuildingBlock: KIFKEQ_clean_linker_1, # of connection points: 2
#     Edge 41, Type (0, 1), BuildingBlock: KIFKEQ_clean_linker_1, # of connection points: 2
#     Edge 42, Type (0, 1), BuildingBlock: KIFKEQ_clean_linker_1, # of connection points: 2
#     Edge 43, Type (0, 1), BuildingBlock: KIFKEQ_clean_linker_1, # of connection points: 2
#     Edge 44, Type (0, 1), BuildingBlock: KIFKEQ_clean_linker_1, # of connection points: 2
#     Edge 45, Type (0, 1), BuildingBlock: KIFKEQ_clean_linker_1, # of connection points: 2
#     Edge 46, Type (0, 1), BuildingBlock: KIFKEQ_clean_linker_1, # of connection points: 2
#     Edge 47, Type (0, 1), BuildingBlock: KIFKEQ_clean_linker_1, # of connection points: 2
#     Edge 48, Type (0, 1), BuildingBlock: KIFKEQ_clean_linker_1, # of connection points: 2
#     Edge 49, Type (0, 1), BuildingBlock: KIFKEQ_clean_linker_1, # of connection points: 2
#     Edge 50, Type (0, 1), BuildingBlock: KIFKEQ_clean_linker_1, # of connection points: 2
#     Edge 51, Type (0, 1), BuildingBlock: KIFKEQ_clean_linker_1, # of connection points: 2
#     Edge 52, Type (0, 1), BuildingBlock: KIFKEQ_clean_linker_1, # of connection points: 2
#     Edge 53, Type (0, 1), BuildingBlock: KIFKEQ_clean_linker_1, # of connection points: 2
#     Edge 54, Type (0, 1), BuildingBlock: KIFKEQ_clean_linker_1, # of connection points: 2
#     Edge 55, Type (0, 1), BuildingBlock: KIFKEQ_clean_linker_1, # of connection points: 2
#     Edge 56, Type (0, 1), BuildingBlock: KIFKEQ_clean_linker_1, # of connection points: 2
#     Edge 57, Type (0, 1), BuildingBlock: KIFKEQ_clean_linker_1, # of connection points: 2
#     Edge 58, Type (0, 1), BuildingBlock: KIFKEQ_clean_linker_1, # of connection points: 2
#     Edge 59, Type (0, 1), BuildingBlock: KIFKEQ_clean_linker_1, # of connection points: 2
#     Edge 60, Type (0, 1), BuildingBlock: KIFKEQ_clean_linker_1, # of connection points: 2
#     Edge 61, Type (0, 1), BuildingBlock: KIFKEQ_clean_linker_1, # of connection points: 2
#     Edge 62, Type (0, 1), BuildingBlock: KIFKEQ_clean_linker_1, # of connection points: 2
#     Edge 63, Type (0, 1), BuildingBlock: KIFKEQ_clean_linker_1, # of connection points: 2
#     Edge 64, Type (0, 1), BuildingBlock: KIFKEQ_clean_linker_1, # of connection points: 2
#     Edge 65, Type (0, 1), BuildingBlock: KIFKEQ_clean_linker_1, # of connection points: 2
#     Edge 66, Type (0, 1), BuildingBlock: KIFKEQ_clean_linker_1, # of connection points: 2
#     Edge 67, Type (0, 1), BuildingBlock: KIFKEQ_clean_linker_1, # of connection points: 2
#     Edge 68, Type (0, 1), BuildingBlock: KIFKEQ_clean_linker_1, # of connection points: 2
#     Edge 69, Type (0, 1), BuildingBlock: KIFKEQ_clean_linker_1, # of connection points: 2
#     Edge 70, Type (0, 1), BuildingBlock: KIFKEQ_clean_linker_1, # of connection points: 2
#     Edge 71, Type (0, 1), BuildingBlock: KIFKEQ_clean_linker_1, # of connection points: 2
#     Edge 72, Type (0, 1), BuildingBlock: KIFKEQ_clean_linker_1, # of connection points: 2
#     Edge 73, Type (0, 1), BuildingBlock: KIFKEQ_clean_linker_1, # of connection points: 2
#     Edge 74, Type (0, 1), BuildingBlock: KIFKEQ_clean_linker_1, # of connection points: 2
#     Edge 75, Type (0, 1), BuildingBlock: KIFKEQ_clean_linker_1, # of connection points: 2
#     Edge 76, Type (0, 1), BuildingBlock: KIFKEQ_clean_linker_1, # of connection points: 2
#     Edge 77, Type (0, 1), BuildingBlock: KIFKEQ_clean_linker_1, # of connection points: 2
#     Edge 78, Type (0, 1), BuildingBlock: KIFKEQ_clean_linker_1, # of connection points: 2
#     Edge 79, Type (0, 1), BuildingBlock: KIFKEQ_clean_linker_1, # of connection points: 2
#     Edge 80, Type (0, 1), BuildingBlock: KIFKEQ_clean_linker_1, # of connection points: 2
#     Edge 81, Type (0, 1), BuildingBlock: KIFKEQ_clean_linker_1, # of connection points: 2
#     Edge 82, Type (0, 1), BuildingBlock: KIFKEQ_clean_linker_1, # of connection points: 2
#     Edge 83, Type (0, 1), BuildingBlock: KIFKEQ_clean_linker_1, # of connection points: 2
#     Edge 84, Type (0, 1), BuildingBlock: KIFKEQ_clean_linker_1, # of connection points: 2
#     Edge 85, Type (0, 1), BuildingBlock: KIFKEQ_clean_linker_1, # of connection points: 2
#     Edge 86, Type (0, 1), BuildingBlock: KIFKEQ_clean_linker_1, # of connection points: 2
#     Edge 87, Type (0, 1), BuildingBlock: KIFKEQ_clean_linker_1, # of connection points: 2
#     Edge 88, Type (0, 1), BuildingBlock: KIFKEQ_clean_linker_1, # of connection points: 2
#     Edge 89, Type (0, 1), BuildingBlock: KIFKEQ_clean_linker_1, # of connection points: 2
#     Edge 90, Type (0, 1), BuildingBlock: KIFKEQ_clean_linker_1, # of connection points: 2
#     Edge 91, Type (0, 1), BuildingBlock: KIFKEQ_clean_linker_1, # of connection points: 2
#     Edge 92, Type (0, 1), BuildingBlock: KIFKEQ_clean_linker_1, # of connection points: 2
#     Edge 93, Type (0, 1), BuildingBlock: KIFKEQ_clean_linker_1, # of connection points: 2
#     Edge 94, Type (0, 1), BuildingBlock: KIFKEQ_clean_linker_1, # of connection points: 2
#     Edge 95, Type (0, 1), BuildingBlock: KIFKEQ_clean_linker_1, # of connection points: 2
#     Edge 96, Type (0, 1), BuildingBlock: KIFKEQ_clean_linker_1, # of connection points: 2
#     Edge 97, Type (0, 1), BuildingBlock: KIFKEQ_clean_linker_1, # of connection points: 2
#     Edge 98, Type (0, 1), BuildingBlock: KIFKEQ_clean_linker_1, # of connection points: 2
#     Edge 99, Type (0, 1), BuildingBlock: KIFKEQ_clean_linker_1, # of connection points: 2
#     Edge 100, Type (0, 1), BuildingBlock: KIFKEQ_clean_linker_1, # of connection points: 2
#     Edge 101, Type (0, 1), BuildingBlock: KIFKEQ_clean_linker_1, # of connection points: 2
#     Edge 102, Type (0, 1), BuildingBlock: KIFKEQ_clean_linker_1, # of connection points: 2
#     Edge 103, Type (0, 1), BuildingBlock: KIFKEQ_clean_linker_1, # of connection points: 2
#     Edge 104, Type (0, 1), BuildingBlock: KIFKEQ_clean_linker_1, # of connection points: 2
#     Edge 105, Type (0, 1), BuildingBlock: KIFKEQ_clean_linker_1, # of connection points: 2
#     Edge 106, Type (0, 1), BuildingBlock: KIFKEQ_clean_linker_1, # of connection points: 2
#     Edge 107, Type (0, 1), BuildingBlock: KIFKEQ_clean_linker_1, # of connection points: 2
# Relax obj value: 0.069
# Max RMSD: 0.094
# Mean RMSD: 0.093
data_MOF--net-ptr--node1-GALJAG_clean_sbu_0--node2-GIZVER_clean_linker_0--edge1-KIFKEQ_clean_linker_1
_symmetry_space_group_name_H-M    P1
_symmetry_Int_Tables_number       1
_symmetry_cell_setting            triclinic
loop_
_symmetry_equiv_pos_as_xyz
'x, y, z'
_cell_length_a     80.085859
_cell_length_b     80.140171
_cell_length_c     52.210339
_cell_angle_alpha  90.291469
_cell_angle_beta   90.28986
_cell_angle_gamma 120.15221
loop_
_atom_site_label
_atom_site_type_symbol
_atom_site_fract_x
_atom_site_fract_y
_atom_site_fract_z
_atom_type_partial_charge
In0 In 0.01255 0.37964 0.0114 0.0
O1 O 1.00074 0.38242 0.0502 0.0
O2 O 0.02485 0.40733 0.0351 0.0
C3 C 0.98194 0.34544 0.99652 0.0
C4 C 0.04241 0.37327 0.02027 0.0
C5 C 0.01157 0.40171 0.97334 0.0
O6 O 0.98384 0.35191 0.0191 0.0
O7 O 0.99549 0.35609 0.98167 0.0
O8 O 0.02402 0.39644 0.97435 0.0
O9 O 0.99941 0.3955 0.99123 0.0
C10 C 0.01282 0.40016 0.05294 0.0
O11 O 0.04436 0.38766 0.00811 0.0
O12 O 0.02547 0.36205 0.02773 0.0
In13 In 0.64652 0.64261 0.01651 0.0
O14 O 0.64054 0.62441 0.05242 0.0
O15 O 0.61771 0.62776 0.03716 0.0
C16 C 0.68295 0.64995 0.00695 0.0
C17 C 0.6509 0.67724 0.03044 0.0
C18 C 0.6258 0.62079 0.97589 0.0
O19 O 0.67265 0.63863 0.0243 0.0
O20 O 0.67497 0.6576 0.99471 0.0
O21 O 0.6301 0.63815 0.97874 0.0
O22 O 0.63216 0.61456 0.99324 0.0
C23 C 0.62317 0.62036 0.05419 0.0
O24 O 0.6456 0.67025 0.0082 0.0
O25 O 0.65417 0.66691 0.04545 0.0
In26 In 0.38261 0.01174 0.01113 0.0
O27 O 0.38782 0.04248 0.01584 0.0
O28 O 0.36829 0.02471 0.98673 0.0
C29 C 0.40363 0.0113 0.05156 0.0
C30 C 0.4049 0.01245 0.97201 0.0
C31 C 0.34706 0.98233 0.02342 0.0
O32 O 0.39739 0.02294 0.05009 0.0
O33 O 0.39911 0.99981 0.03282 0.0
O34 O 0.35624 0.98153 0.00431 0.0
O35 O 0.35579 0.99784 0.03613 0.0
C36 C 0.37644 0.0409 -0.00204 0.0
O37 O 0.38797 0.99855 0.97536 0.0
O38 O 0.41036 0.02607 0.98805 0.0
In39 In 0.01021 0.64029 0.01494 0.0
O40 O 0.02282 0.6353 0.97846 0.0
O41 O 0.99481 0.6134 0.98954 0.0
C42 C 0.04006 0.67583 0.02717 0.0
C43 C 0.98068 0.6467 0.00464 0.0
C44 C 0.01184 0.61853 0.05332 0.0
O45 O 0.03995 0.66677 0.00726 0.0
O46 O 0.02524 0.66694 0.04083 0.0
O47 O 1.0003 0.62493 0.0535 0.0
O48 O 0.02267 0.62333 0.03408 0.0
C49 C 0.00844 0.61884 0.97378 0.0
O50 O 0.97955 0.63488 0.02138 0.0
O51 O 0.9966 0.65515 0.99311 0.0
In52 In 0.3803 0.38197 0.01048 0.0
O53 O 0.3885 0.40396 0.97811 0.0
O54 O 0.40452 0.3896 0.98197 0.0
C55 C 0.34561 0.37774 0.02318 0.0
C56 C 0.37148 0.34491 0.00329 0.0
C57 C 0.40402 0.4047 0.04832 0.0
O58 O 0.35106 0.37938 0.00022 0.0
O59 O 0.35748 0.37805 0.03938 0.0
O60 O 0.39911 0.38712 0.04602 0.0
O61 O 0.39689 0.41072 0.03165 0.0
C62 C 0.40226 0.40199 0.97012 0.0
O63 O 0.38308 0.35564 0.02051 0.0
O64 O 0.36429 0.35283 0.98985 0.0
In65 In 0.6423 0.00942 0.00867 0.0
O66 O 0.63792 0.0191 0.04836 0.0
O67 O 0.61323 0.99776 0.02834 0.0
C68 C 0.67754 0.03974 0.99743 0.0
C69 C 0.64857 0.98015 0.02084 0.0
C70 C 0.62212 0.00896 0.96675 0.0
O71 O 0.66598 0.04125 0.01229 0.0
O72 O 0.67127 0.02306 0.98814 0.0
O73 O 0.62615 0.9959 0.9712 0.0
O74 O 0.62873 0.0225 0.98305 0.0
C75 C 0.61983 0.00814 0.04814 0.0
O76 O 0.63642 0.97844 0.00403 0.0
O77 O 0.65741 0.99651 0.03158 0.0
In78 In 0.68049 0.71413 0.34642 0.0
O79 O 0.67084 0.71718 0.38679 0.0
O80 O 0.68834 0.74267 0.36606 0.0
C81 C 0.65034 0.67892 0.33402 0.0
C82 C 0.71014 0.70812 0.35775 0.0
C83 C 0.68216 0.73517 0.30522 0.0
O84 O 0.64856 0.69086 0.34793 0.0
O85 O 0.66727 0.68481 0.32615 0.0
O86 O 0.69704 0.7365 0.31565 0.0
O87 O 0.66641 0.72281 0.31507 0.0
C88 C 0.67926 0.73534 0.38633 0.0
O89 O 0.71051 0.71813 0.33898 0.0
O90 O 0.69491 0.70119 0.37076 0.0
In91 In 0.31286 0.9744 0.35007 0.0
O92 O 0.30703 0.95641 0.38619 0.0
O93 O 0.28387 0.95892 0.37026 0.0
C94 C 0.34963 0.98255 0.3413 0.0
C95 C 0.3166 0.00883 0.36361 0.0
C96 C 0.29261 0.95216 0.30947 0.0
O97 O 0.33934 0.97116 0.35861 0.0
O98 O 0.34145 0.98982 0.32868 0.0
O99 O 0.29606 0.96925 0.31241 0.0
O100 O 0.29962 0.94647 0.32667 0.0
C101 C 0.2895 0.95187 0.38757 0.0
O102 O 0.31208 1.00205 0.34116 0.0
O103 O 0.31937 0.99838 0.37903 0.0
In104 In 0.05132 0.34499 0.34717 0.0
O105 O 0.05816 0.37618 0.35231 0.0
O106 O 0.03483 0.3578 0.32757 0.0
C107 C 0.07504 0.34742 0.38608 0.0
C108 C 0.07105 0.34455 0.30553 0.0
C109 C 0.01583 0.31514 0.35896 0.0
O110 O 0.06628 0.35681 0.386 0.0
O111 O 0.07188 0.33689 0.3666 0.0
O112 O 0.02367 0.3162 0.33767 0.0
O113 O 0.02588 0.32895 0.37409 0.0
C114 C 0.04476 0.37436 0.3376 0.0
O115 O 0.0602 0.32953 0.31803 0.0
O116 O 0.07168 0.35969 0.31371 0.0
In117 In 0.67874 0.97424 0.34568 0.0
O118 O 0.69178 0.9705 0.30854 0.0
O119 O 0.66452 0.94755 0.32012 0.0
C120 C 0.70888 0.00939 0.3579 0.0
C121 C 0.6488 0.98002 0.33535 0.0
C122 C 0.68002 0.95334 0.38539 0.0
O123 O 0.70862 1.00037 0.33783 0.0
O124 O 0.69405 1.00065 0.37165 0.0
O125 O 0.66911 0.96048 0.38519 0.0
O126 O 0.69042 0.957 0.36585 0.0
C127 C 0.67797 0.95365 0.30405 0.0
O128 O 0.64657 0.96483 0.34557 0.0
O129 O 0.66606 0.9923 0.33031 0.0
In130 In 0.04854 0.71207 0.34434 0.0
O131 O 0.05409 0.7297 0.30768 0.0
O132 O 0.07669 0.72576 0.32215 0.0
C133 C 0.01392 0.70774 0.35786 0.0
C134 C 0.0408 0.67565 0.33355 0.0
C135 C 0.07103 0.73505 0.38283 0.0
O136 O 0.02059 0.71255 0.33557 0.0
O137 O 0.02455 0.70495 0.37305 0.0
O138 O 0.06677 0.71763 0.38052 0.0
O139 O 0.0637 0.74073 0.36595 0.0
C140 C 0.07123 0.73319 0.30525 0.0
O141 O 0.05136 0.68536 0.35218 0.0
O142 O 0.03408 0.68422 0.32064 0.0
In143 In 0.30987 0.34295 0.34436 0.0
O144 O 0.30205 0.31128 0.33972 0.0
O145 O 0.32574 0.32943 0.36394 0.0
C146 C 0.28926 0.34387 0.30383 0.0
C147 C 0.28906 0.34196 0.38572 0.0
C148 C 0.34498 0.37315 0.33231 0.0
O149 O 0.29355 0.3308 0.30647 0.0
O150 O 0.29577 0.35661 0.32123 0.0
O151 O 0.3339 0.37463 0.34812 0.0
O152 O 0.33831 0.35654 0.32254 0.0
C153 C 0.31537 0.31284 0.35433 0.0
O154 O 0.30725 0.35197 0.3853 0.0
O155 O 0.28151 0.33234 0.36557 0.0
In156 In 0.34492 0.04875 0.67957 0.0
O157 O 0.37155 0.04619 0.66941 0.0
O158 O 0.36147 0.04068 0.70765 0.0
C159 C 0.34746 0.07325 0.64241 0.0
C160 C 0.3443 0.07082 0.71834 0.0
C161 C 0.31487 0.01341 0.66663 0.0
O162 O 0.36049 0.06897 0.64601 0.0
O163 O 0.33327 0.06503 0.65727 0.0
O164 O 0.31847 0.01929 0.68954 0.0
O165 O 0.32649 0.02512 0.65061 0.0
C166 C 0.37387 0.04189 0.69187 0.0
O167 O 0.32927 0.0557 0.71078 0.0
O168 O 0.35951 0.07453 0.70662 0.0
In169 In 0.98195 0.30995 0.68208 0.0
O170 O 0.9842 0.33902 0.67265 0.0
O171 O 0.98558 0.33262 0.71168 0.0
C172 C 0.96208 0.28908 0.64039 0.0
C173 C 0.95881 0.28529 0.71827 0.0
C174 C 0.01878 0.31815 0.6744 0.0
O175 O 0.95998 0.30251 0.64953 0.0
O176 O 0.97453 0.28656 0.65183 0.0
O177 O 0.00792 0.30603 0.69074 0.0
O178 O 0.01115 0.32625 0.66231 0.0
C179 C 0.98571 0.34442 0.6957 0.0
O180 O 0.97686 0.29198 0.7183 0.0
O181 O 0.95263 0.29122 0.70028 0.0
In182 In 0.7149 0.67537 0.67627 0.0
O183 O 0.72117 0.70639 0.68137 0.0
O184 O 0.69918 0.68823 0.65482 0.0
C185 C 0.73781 0.67722 0.71596 0.0
C186 C 0.73567 0.67545 0.63557 0.0
C187 C 0.67908 0.64573 0.68721 0.0
O188 O 0.72941 0.68696 0.71544 0.0
O189 O 0.73466 0.66661 0.69658 0.0
O190 O 0.68748 0.64645 0.66653 0.0
O191 O 0.68874 0.65977 0.70219 0.0
C192 C 0.70849 0.70466 0.66538 0.0
O193 O 0.72384 0.66014 0.64683 0.0
O194 O 0.73676 0.69062 0.64453 0.0
In195 In 0.3466 0.30717 0.67837 0.0
O196 O 0.36302 0.30393 0.64473 0.0
O197 O 0.33366 0.28237 0.64936 0.0
C198 C 0.37923 0.34136 0.68875 0.0
C199 C 0.31657 0.313 0.66928 0.0
C200 C 0.34164 0.28502 0.71965 0.0
O201 O 0.36459 0.34026 0.67802 0.0
O202 O 0.37751 0.32528 0.69414 0.0
O203 O 0.34006 0.29993 0.72083 0.0
O204 O 0.34538 0.28122 0.6977 0.0
C205 C 0.34895 0.28823 0.63674 0.0
O206 O 0.31693 0.30346 0.68824 0.0
O207 O 0.33115 0.31934 0.65506 0.0
In208 In 0.71244 0.04759 0.67601 0.0
O209 O 0.72042 0.06866 0.64267 0.0
O210 O 0.73885 0.0574 0.65069 0.0
C211 C 0.67624 0.04069 0.68519 0.0
C212 C 0.70505 0.01155 0.66448 0.0
C213 C 0.73368 0.06961 0.71633 0.0
O214 O 0.68647 0.05145 0.66733 0.0
O215 O 0.68423 0.03345 0.69836 0.0
O216 O 0.73081 0.05284 0.71226 0.0
O217 O 0.72554 0.07504 0.70046 0.0
C218 C 0.7356 0.06841 0.63706 0.0
O219 O 0.71448 0.02066 0.68421 0.0
O220 O 0.69935 0.02062 0.6506 0.0
In221 In 0.97623 0.67724 0.67932 0.0
O222 O 0.96881 0.64568 0.67489 0.0
O223 O 0.99352 0.66438 0.69694 0.0
C224 C 0.95432 0.67779 0.6404 0.0
C225 C 0.95516 0.67699 0.71994 0.0
C226 C 0.01054 0.70776 0.6654 0.0
O227 O 0.95957 0.66535 0.64187 0.0
O228 O 0.96043 0.69015 0.65833 0.0
O229 O 1.00417 0.70583 0.68791 0.0
O230 O 0.99974 0.6943 0.65016 0.0
C231 C 0.98281 0.64758 0.68823 0.0
O232 O 0.97283 0.68936 0.71768 0.0
O233 O 0.94834 0.66467 0.70212 0.0
H234 H 0.15768 0.33006 0.15737 0.0
H235 H 0.1555 0.34181 0.07728 0.0
H236 H 0.12937 0.36073 0.13348 0.0
H237 H 0.16252 0.31107 0.12112 0.0
H238 H 0.16716 0.32064 0.08952 0.0
H239 H 0.18638 0.32968 0.15721 0.0
H240 H 0.24535 0.36203 0.13339 0.0
H241 H 0.19979 0.34343 0.07742 0.0
C242 C 0.15405 0.33692 0.14227 0.0
C243 C 0.14376 0.34629 0.14834 0.0
C244 C 0.15906 0.33587 0.11672 0.0
C245 C 0.15268 0.34347 0.09713 0.0
C246 C 0.14198 0.35251 0.10308 0.0
C247 C 0.13815 0.35435 0.12878 0.0
C248 C 0.1692 0.32477 0.11017 0.0
C249 C 0.19055 0.33603 0.11672 0.0
C250 C 0.19682 0.33691 0.14223 0.0
C251 C 0.21659 0.34666 0.14839 0.0
C252 C 0.23008 0.35536 0.12883 0.0
C253 C 0.22424 0.35415 0.10321 0.0
C254 C 0.20441 0.34461 0.09722 0.0
H255 H 0.6984 0.84068 0.1591 0.0
H256 H 0.67923 0.82193 0.08135 0.0
H257 H 0.66737 0.78045 0.14072 0.0
H258 H 0.71308 0.86283 0.1213 0.0
H259 H 0.7023 0.8555 0.09027 0.0
H260 H 0.6914 0.86517 0.15767 0.0
H261 H 0.66215 0.89422 0.13059 0.0
H262 H 0.68294 0.86848 0.0766 0.0
C263 C 0.69036 0.82929 0.14521 0.0
C264 C 0.68219 0.81004 0.15279 0.0
C265 C 0.68885 0.83378 0.11953 0.0
C266 C 0.67969 0.81864 0.10136 0.0
C267 C 0.67179 0.79929 0.10889 0.0
C268 C 0.67281 0.79524 0.13475 0.0
C269 C 0.69898 0.85464 0.11105 0.0
C270 C 0.6874 0.86448 0.11657 0.0
C271 C 0.68525 0.86911 0.14197 0.0
C272 C 0.67585 0.87955 0.14718 0.0
C273 C 0.66856 0.88533 0.12678 0.0
C274 C 0.6712 0.88157 0.10136 0.0
C275 C 0.68051 0.87102 0.09628 0.0
H276 H 0.18158 0.81562 0.16596 0.0
H277 H 0.17377 0.80512 0.08453 0.0
H278 H 0.12461 0.78362 0.13403 0.0
H279 H 0.20776 0.81663 0.13614 0.0
H280 H 0.20546 0.81864 0.10251 0.0
H281 H 0.21039 0.84342 0.16608 0.0
H282 H 0.24276 0.89991 0.13421 0.0
H283 H 0.2191 0.85013 0.08451 0.0
C284 C 0.17227 0.81041 0.14924 0.0
C285 C 0.1522 0.80029 0.15256 0.0
C286 C 0.18027 0.81297 0.1246 0.0
C287 C 0.16781 0.80431 0.10337 0.0
C288 C 0.14766 0.79372 0.10664 0.0
C289 C 0.14006 0.79241 0.13117 0.0
C290 C 0.20196 0.82246 0.12147 0.0
C291 C 0.21227 0.84421 0.12471 0.0
C292 C 0.21548 0.85252 0.14938 0.0
C293 C 0.22606 0.87262 0.15276 0.0
C294 C 0.23367 0.88446 0.13136 0.0
C295 C 0.23158 0.87652 0.10675 0.0
C296 C 0.22056 0.85636 0.10344 0.0
H297 H 0.36783 0.20797 0.8633 0.0
H298 H 0.37175 0.21358 0.9456 0.0
H299 H 0.34453 0.23887 0.90222 0.0
H300 H 0.39247 0.20434 0.88944 0.0
H301 H 0.39047 0.20244 0.92336 0.0
H302 H 0.3647 0.17762 0.86183 0.0
H303 H 0.34706 0.12145 0.89185 0.0
H304 H 0.37497 0.17108 0.94126 0.0
C305 C 0.36399 0.21223 0.88102 0.0
C306 C 0.35505 0.22345 0.88007 0.0
C307 C 0.36958 0.20804 0.9047 0.0
C308 C 0.36637 0.21556 0.92746 0.0
C309 C 0.35723 0.22663 0.92662 0.0
C310 C 0.35108 0.22986 0.90298 0.0
C311 C 0.38185 0.19855 0.90529 0.0
C312 C 0.37017 0.1768 0.90222 0.0
C313 C 0.36288 0.16845 0.87795 0.0
C314 C 0.35425 0.14841 0.87406 0.0
C315 C 0.35264 0.13675 0.89492 0.0
C316 C 0.36005 0.14474 0.91913 0.0
C317 C 0.36871 0.16479 0.92276 0.0
H318 H 0.86677 0.18359 0.86324 0.0
H319 H 0.86637 0.20095 0.94152 0.0
H320 H 0.89518 0.24356 0.88329 0.0
H321 H 0.85959 0.1609 0.90052 0.0
H322 H 0.85581 0.1676 0.93167 0.0
H323 H 0.83569 0.15867 0.86381 0.0
H324 H 0.77703 0.12872 0.88929 0.0
H325 H 0.82321 0.15419 0.94457 0.0
C326 C 0.8701 0.19475 0.87743 0.0
C327 C 0.88076 0.21415 0.87018 0.0
C328 C 0.86416 0.18977 0.903 0.0
C329 C 0.87003 0.20459 0.92159 0.0
C330 C 0.8812 0.22409 0.91456 0.0
C331 C 0.88603 0.22861 0.88876 0.0
C332 C 0.85348 0.16877 0.91088 0.0
C333 C 0.83203 0.15878 0.90484 0.0
C334 C 0.82544 0.15443 0.87925 0.0
C335 C 0.8056 0.1439 0.8735 0.0
C336 C 0.79232 0.1377 0.89356 0.0
C337 C 0.7985 0.14115 0.91916 0.0
C338 C 0.81838 0.15184 0.92477 0.0
H339 H 0.84822 0.64921 0.85919 0.0
H340 H 0.84883 0.64406 0.94121 0.0
H341 H 0.90217 0.6736 0.90039 0.0
H342 H 0.81949 0.62491 0.88294 0.0
H343 H 0.81931 0.62489 0.91703 0.0
H344 H 0.81528 0.64902 0.85853 0.0
H345 H 0.78547 0.67339 0.89816 0.0
H346 H 0.80942 0.64452 0.94058 0.0
C347 C 0.85622 0.65286 0.8771 0.0
C348 C 0.87652 0.66215 0.87686 0.0
C349 C 0.84609 0.64679 0.90037 0.0
C350 C 0.85649 0.64984 0.92346 0.0
C351 C 0.87675 0.65949 0.92345 0.0
C352 C 0.88653 0.66632 0.9003 0.0
C353 C 0.8243 0.63454 0.90011 0.0
C354 C 0.81461 0.64659 0.89974 0.0
C355 C 0.81081 0.65267 0.87623 0.0
C356 C 0.79987 0.66197 0.87542 0.0
C357 C 0.79387 0.66619 0.89856 0.0
C358 C 0.7969 0.6597 0.92202 0.0
C359 C 0.80744 0.65002 0.92258 0.0
H360 H 0.82534 0.66321 0.48968 0.0
H361 H 0.82437 0.67641 0.4099 0.0
H362 H 0.79741 0.6943 0.46616 0.0
H363 H 0.83117 0.64521 0.4529 0.0
H364 H 0.83644 0.65557 0.42175 0.0
H365 H 0.85405 0.66414 0.4904 0.0
H366 H 0.91355 0.69553 0.4692 0.0
H367 H 0.86949 0.67736 0.41101 0.0
C368 C 0.82208 0.67045 0.47473 0.0
C369 C 0.81165 0.67967 0.48088 0.0
C370 C 0.8276 0.66998 0.44926 0.0
C371 C 0.82137 0.67779 0.42977 0.0
C372 C 0.81048 0.68661 0.43582 0.0
C373 C 0.80633 0.68807 0.46148 0.0
C374 C 0.83803 0.65917 0.44256 0.0
C375 C 0.85923 0.67032 0.44998 0.0
C376 C 0.86485 0.67124 0.4758 0.0
C377 C 0.88443 0.68079 0.48284 0.0
C378 C 0.89845 0.68914 0.46383 0.0
C379 C 0.8933 0.68783 0.43788 0.0
C380 C 0.87361 0.67859 0.43103 0.0
H381 H 0.36099 0.17249 0.49116 0.0
H382 H 0.34621 0.15376 0.41252 0.0
H383 H 0.32944 0.11219 0.4728 0.0
H384 H 0.37959 0.19355 0.45239 0.0
H385 H 0.36855 0.18701 0.42149 0.0
H386 H 0.36343 0.20215 0.48813 0.0
H387 H 0.33504 0.23205 0.4612 0.0
H388 H 0.34734 0.19847 0.40835 0.0
C389 C 0.35358 0.1611 0.47709 0.0
C390 C 0.3443 0.14182 0.48506 0.0
C391 C 0.35386 0.16562 0.45097 0.0
C392 C 0.34532 0.15048 0.43274 0.0
C393 C 0.33634 0.13111 0.44052 0.0
C394 C 0.33561 0.12704 0.46671 0.0
C395 C 0.36537 0.18639 0.4423 0.0
C396 C 0.35543 0.19786 0.44791 0.0
C397 C 0.35616 0.20512 0.47281 0.0
C398 C 0.3489 0.21751 0.47759 0.0
C399 C 0.34034 0.22218 0.45758 0.0
C400 C 0.33973 0.21544 0.43264 0.0
C401 C 0.34726 0.20322 0.4278 0.0
H402 H 0.84677 0.15192 0.49934 0.0
H403 H 0.84178 0.13895 0.41851 0.0
H404 H 0.79103 0.11641 0.46478 0.0
H405 H 0.87392 0.15192 0.47255 0.0
H406 H 0.87277 0.15306 0.43862 0.0
H407 H 0.8759 0.17935 0.50001 0.0
H408 H 0.91063 0.23484 0.466 0.0
H409 H 0.88601 0.18391 0.41867 0.0
C410 C 0.83794 0.14565 0.48239 0.0
C411 C 0.81776 0.1347 0.4848 0.0
C412 C 0.8468 0.14771 0.45843 0.0
C413 C 0.83514 0.1383 0.43679 0.0
C414 C 0.81496 0.12724 0.43899 0.0
C415 C 0.80649 0.12585 0.46289 0.0
C416 C 0.86858 0.15732 0.45673 0.0
C417 C 0.87875 0.17913 0.45889 0.0
C418 C 0.88164 0.18808 0.48309 0.0
C419 C 0.89282 0.20825 0.48577 0.0
C420 C 0.90102 0.21941 0.4639 0.0
C421 C 0.89875 0.21083 0.4397 0.0
C422 C 0.88742 0.19066 0.43722 0.0
H423 H 0.04008 0.53541 0.19217 0.0
H424 H 0.04553 0.54805 0.27314 0.0
H425 H 0.01647 0.56846 0.22408 0.0
H426 H 0.06591 0.53492 0.22012 0.0
H427 H 0.06433 0.53559 0.25409 0.0
H428 H 0.04115 0.50605 0.19493 0.0
H429 H 0.017 0.45244 0.23552 0.0
H430 H 0.04655 0.50602 0.27705 0.0
C431 C 0.03671 0.54129 0.20878 0.0
C432 C 0.02677 0.55142 0.20548 0.0
C433 C 0.04307 0.5395 0.23328 0.0
C434 C 0.03983 0.54849 0.25443 0.0
C435 C 0.03007 0.55884 0.25126 0.0
C436 C 0.02318 0.55974 0.22686 0.0
C437 C 0.0555 0.53033 0.23621 0.0
C438 C 0.04373 0.5085 0.23615 0.0
C439 C 0.03755 0.4982 0.21277 0.0
C440 C 0.02821 0.47793 0.2123 0.0
C441 C 0.02424 0.46807 0.23561 0.0
C442 C 0.0312 0.47801 0.25888 0.0
C443 C 0.04075 0.49826 0.25915 0.0
H444 H 0.53231 0.5194 0.19868 0.0
H445 H 0.53511 0.53328 0.27906 0.0
H446 H 0.56164 0.57845 0.22362 0.0
H447 H 0.52764 0.4955 0.23458 0.0
H448 H 0.52306 0.50042 0.2663 0.0
H449 H 0.5038 0.49179 0.19837 0.0
H450 H 0.4448 0.46177 0.22232 0.0
H451 H 0.49021 0.48767 0.27871 0.0
C452 C 0.53612 0.52991 0.21392 0.0
C453 C 0.54668 0.54962 0.20805 0.0
C454 C 0.53115 0.52379 0.23943 0.0
C455 C 0.53782 0.53776 0.25924 0.0
C456 C 0.54874 0.55752 0.25354 0.0
C457 C 0.55258 0.56325 0.22793 0.0
C458 C 0.52095 0.50247 0.24572 0.0
C459 C 0.49956 0.49213 0.23921 0.0
C460 C 0.49334 0.48763 0.21353 0.0
C461 C 0.4736 0.47705 0.20729 0.0
C462 C 0.46001 0.4708 0.22698 0.0
C463 C 0.46584 0.47432 0.25273 0.0
C464 C 0.48564 0.48519 0.2588 0.0
H465 H 0.51073 0.98237 0.18967 0.0
H466 H 0.5193 0.97955 0.27072 0.0
H467 H 0.56785 0.00444 0.21981 0.0
H468 H 0.48459 0.95774 0.21856 0.0
H469 H 0.48762 0.96021 0.25243 0.0
H470 H 0.48077 0.98228 0.19309 0.0
H471 H 0.45236 0.00765 0.23374 0.0
H472 H 0.47697 0.97906 0.27535 0.0
C473 C 0.5203 0.98589 0.20606 0.0
C474 C 0.54031 0.99507 0.20225 0.0
C475 C 0.51261 0.98052 0.23082 0.0
C476 C 0.52522 0.98419 0.25176 0.0
C477 C 0.54529 0.99291 0.24808 0.0
C478 C 0.55259 0.99859 0.22328 0.0
C479 C 0.49098 0.96857 0.23436 0.0
C480 C 0.48133 0.98067 0.23433 0.0
C481 C 0.47691 0.98636 0.21094 0.0
C482 C 0.46613 0.99582 0.2105 0.0
C483 C 0.46068 1.00036 0.23384 0.0
C484 C 0.46411 0.99404 0.25719 0.0
C485 C 0.47466 0.98438 0.2574 0.0
H486 H 0.49283 0.99968 0.8237 0.0
H487 H 0.48765 0.01045 0.74401 0.0
H488 H 0.46365 0.03006 0.80224 0.0
H489 H 0.49442 0.97908 0.78694 0.0
H490 H 0.49805 0.9881 0.75515 0.0
H491 H 0.52038 0.99618 0.82081 0.0
H492 H 0.57801 0.02428 0.79123 0.0
H493 H 0.53024 0.00962 0.7404 0.0
C494 C 0.48854 0.00631 0.80903 0.0
C495 C 0.47855 0.01584 0.81605 0.0
C496 C 0.49232 0.00468 0.78309 0.0
C497 C 0.48554 0.01234 0.76407 0.0
C498 C 0.47536 0.02176 0.77091 0.0
C499 C 0.4723 0.02367 0.79691 0.0
C500 C 0.50124 0.99261 0.77561 0.0
C501 C 0.52285 1.0029 0.78038 0.0
C502 C 0.5302 1.00303 0.80507 0.0
C503 C 0.55009 0.01054 0.80899 0.0
C504 C 0.56266 0.0187 0.78836 0.0
C505 C 0.55566 0.01834 0.76366 0.0
C506 C 0.53574 0.01049 0.75967 0.0
H507 H 0.02347 0.50352 0.828 0.0
H508 H 0.0115 0.48821 0.74796 0.0
H509 H 0.99334 0.4441 0.80502 0.0
H510 H 0.04227 0.52687 0.79199 0.0
H511 H 0.03305 0.52131 0.76004 0.0
H512 H 0.02119 0.5305 0.82692 0.0
H513 H 0.99287 0.56028 0.79923 0.0
H514 H 0.01319 0.53376 0.74573 0.0
C515 C 0.01661 0.49274 0.81305 0.0
C516 C 0.00738 0.47316 0.81952 0.0
C517 C 0.01757 0.49838 0.78732 0.0
C518 C 0.00998 0.48406 0.76791 0.0
C519 C 1.00108 0.46438 0.77423 0.0
C520 C 0.99948 0.45918 0.80007 0.0
C521 C 0.02868 0.51959 0.78049 0.0
C522 C 0.01744 0.52982 0.78577 0.0
C523 C 0.01523 0.53455 0.81111 0.0
C524 C 1.006 0.54518 0.81613 0.0
C525 C 0.99907 0.55119 0.79556 0.0
C526 C 1.00177 0.54733 0.77019 0.0
C527 C 0.01079 0.53647 0.76534 0.0
H528 H 0.51489 0.48633 0.83379 0.0
H529 H 0.51052 0.47045 0.75404 0.0
H530 H 0.45942 0.44871 0.79955 0.0
H531 H 0.54224 0.48538 0.80871 0.0
H532 H 0.54132 0.48523 0.77467 0.0
H533 H 0.54749 0.51389 0.83381 0.0
H534 H 0.57603 0.56791 0.79412 0.0
H535 H 0.55087 0.51473 0.7515 0.0
C536 C 0.50613 0.47921 0.817 0.0
C537 C 0.48594 0.46805 0.81928 0.0
C538 C 0.51514 0.48041 0.79342 0.0
C539 C 0.50368 0.47023 0.772 0.0
C540 C 0.4835 0.45899 0.77403 0.0
C541 C 0.47485 0.45829 0.79758 0.0
C542 C 0.53691 0.49007 0.79208 0.0
C543 C 0.54675 0.51187 0.79253 0.0
C544 C 0.55135 0.52192 0.81612 0.0
C545 C 0.56226 0.5422 0.81691 0.0
C546 C 0.56765 0.55229 0.79374 0.0
C547 C 0.56406 0.5426 0.77016 0.0
C548 C 0.55335 0.52234 0.7696 0.0
H549 H 0.70547 0.8713 0.52792 0.0
H550 H 0.70739 0.88129 0.60936 0.0
H551 H 0.68084 0.90357 0.55884 0.0
H552 H 0.72978 0.86936 0.55816 0.0
H553 H 0.72578 0.868 0.5918 0.0
H554 H 0.70308 0.84234 0.52911 0.0
H555 H 0.68152 0.78637 0.56171 0.0
H556 H 0.7098 0.83673 0.61003 0.0
C557 C 0.70127 0.87645 0.54447 0.0
C558 C 0.69155 0.88674 0.54073 0.0
C559 C 0.70634 0.87364 0.56929 0.0
C560 C 0.70249 0.88227 0.59034 0.0
C561 C 0.69323 0.89308 0.58668 0.0
C562 C 0.68727 0.89462 0.56194 0.0
C563 C 0.71827 0.86392 0.57288 0.0
C564 C 0.7065 0.84212 0.57022 0.0
C565 C 0.70008 0.83346 0.54588 0.0
C566 C 0.69069 0.81333 0.54279 0.0
C567 C 0.68775 0.80182 0.56427 0.0
C568 C 0.6948 0.8101 0.58847 0.0
C569 C 0.70396 0.83027 0.59145 0.0
H570 H 0.19887 0.85213 0.53382 0.0
H571 H 0.19959 0.86775 0.6132 0.0
H572 H 0.22736 0.91165 0.55629 0.0
H573 H 0.19342 0.82905 0.57129 0.0
H574 H 0.18786 0.83458 0.60208 0.0
H575 H 0.17064 0.82415 0.53318 0.0
H576 H 0.11102 0.79537 0.55386 0.0
H577 H 0.15469 0.82287 0.61228 0.0
C578 C 0.20234 0.86295 0.54854 0.0
C579 C 0.21288 0.88252 0.54195 0.0
C580 C 0.1968 0.85739 0.57409 0.0
C581 C 0.2029 0.8718 0.59331 0.0
C582 C 0.21384 0.89144 0.58692 0.0
C583 C 0.21832 0.89656 0.56119 0.0
C584 C 0.18639 0.83621 0.58117 0.0
C585 C 0.16521 0.82574 0.57347 0.0
C586 C 0.15976 0.82052 0.54764 0.0
C587 C 0.14021 0.81005 0.54043 0.0
C588 C 0.12608 0.80441 0.5593 0.0
C589 C 0.13107 0.80872 0.58525 0.0
C590 C 0.15071 0.81963 0.59225 0.0
H591 H 0.18288 0.31497 0.52701 0.0
H592 H 0.18446 0.3114 0.60924 0.0
H593 H 0.23723 0.33801 0.56685 0.0
H594 H 0.15407 0.29195 0.55161 0.0
H595 H 0.1545 0.29214 0.58571 0.0
H596 H 0.15144 0.31733 0.52754 0.0
H597 H 0.1226 0.34248 0.56777 0.0
H598 H 0.14482 0.31171 0.60943 0.0
C599 C 0.1911 0.31863 0.54475 0.0
C600 C 0.21132 0.32719 0.54403 0.0
C601 C 0.18128 0.31331 0.56831 0.0
C602 C 0.19192 0.31652 0.59121 0.0
C603 C 0.21214 0.32549 0.59069 0.0
C604 C 0.22164 0.33138 0.5672 0.0
C605 C 0.15946 0.30168 0.56867 0.0
C606 C 0.15041 0.31432 0.56867 0.0
C607 C 0.14705 0.32096 0.54533 0.0
C608 C 0.13659 0.33076 0.54477 0.0
C609 C 0.13066 0.33492 0.568 0.0
C610 C 0.13319 0.32784 0.59128 0.0
C611 C 0.14326 0.31767 0.59159 0.0
H612 H 0.99426 0.38707 0.09842 0.0
H613 H 0.03186 0.43935 0.05754 0.0
H614 H 0.99638 0.40631 0.13616 0.0
H615 H 0.03371 0.45856 0.09519 0.0
H616 H 0.01608 0.48407 0.16536 0.0
H617 H 0.01078 0.46547 0.12556 0.0
H618 H 0.02704 0.42834 0.16447 0.0
H619 H 0.03328 0.44716 0.20341 0.0
C620 C 1.00278 0.40265 0.09742 0.0
C621 C 0.01305 0.41171 0.07519 0.0
C622 C 1.00398 0.41364 0.11896 0.0
C623 C 0.0152 0.43389 0.11849 0.0
C624 C 0.02485 0.44299 0.09593 0.0
C625 C 0.02391 0.43198 0.07453 0.0
C626 C 0.01862 0.47201 0.16535 0.0
C627 C 0.0247 0.46691 0.18784 0.0
C628 C 0.01551 0.46135 0.14264 0.0
C629 C 0.01818 0.4453 0.14218 0.0
C630 C 0.02441 0.44035 0.16449 0.0
C631 C 0.02784 0.45112 0.18689 0.0
H632 H 0.58563 0.61038 0.06213 0.0
H633 H 0.63134 0.60216 0.09211 0.0
H634 H 0.56439 0.59042 0.0963 0.0
H635 H 0.61021 0.58244 0.12648 0.0
H636 H 0.56422 0.53654 0.17534 0.0
H637 H 0.58089 0.55157 0.13559 0.0
H638 H 0.56257 0.59371 0.1426 0.0
H639 H 0.54558 0.57842 0.18191 0.0
C640 C 0.59112 0.60427 0.076 0.0
C641 C 0.61019 0.60792 0.07455 0.0
C642 C 0.57897 0.59288 0.09559 0.0
C643 C 0.58559 0.58482 0.1141 0.0
C644 C 0.60456 0.58819 0.11232 0.0
C645 C 0.61673 0.59963 0.09277 0.0
C646 C 0.56331 0.54867 0.16796 0.0
C647 C 0.55367 0.55637 0.18174 0.0
C648 C 0.57306 0.55743 0.14539 0.0
C649 C 0.57326 0.57398 0.13611 0.0
C650 C 0.56263 0.58094 0.14912 0.0
C651 C 0.55298 0.57225 0.17171 0.0
H652 H 0.40894 0.02923 0.09784 0.0
H653 H 0.4239 0.99234 0.05514 0.0
H654 H 0.42589 0.02674 0.13539 0.0
H655 H 0.44107 0.99006 0.09273 0.0
H656 H 0.48411 0.00726 0.16357 0.0
H657 H 0.47066 0.01226 0.12385 0.0
H658 H 0.41742 0.99652 0.16277 0.0
H659 H 0.43022 0.99069 0.20169 0.0
C660 C 0.41602 0.02077 0.0964 0.0
C661 C 0.41495 0.01084 0.07367 0.0
C662 C 0.42569 0.01934 0.11786 0.0
C663 C 0.43473 0.00818 0.1169 0.0
C664 C 0.43433 0.99886 0.09388 0.0
C665 C 0.42439 1.00006 0.0725 0.0
C666 C 0.46951 0.00476 0.16357 0.0
C667 C 0.45845 0.99898 0.18606 0.0
C668 C 0.46186 0.00768 0.1409 0.0
C669 C 0.44315 0.00509 0.14047 0.0
C670 C 0.43206 0.99908 0.16276 0.0
C671 C 0.43951 0.99587 0.18514 0.0
H672 H 0.44225 0.03999 0.96291 0.0
H673 H 0.39616 0.98531 0.93452 0.0
H674 H 0.46306 0.04061 0.92853 0.0
H675 H 0.4168 0.98612 0.89977 0.0
H676 H 0.46136 0.98544 0.84896 0.0
H677 H 0.44546 0.98432 0.8893 0.0
H678 H 0.46495 0.04512 0.88281 0.0
H679 H 0.48125 0.04629 0.84306 0.0
C680 C 0.43656 0.02811 0.94929 0.0
C681 C 0.41752 0.01266 0.95129 0.0
C682 C 0.44848 0.02848 0.92957 0.0
C683 C 0.44163 0.01342 0.91137 0.0
C684 C 0.42266 0.99781 0.91368 0.0
C685 C 0.41075 0.99743 0.93343 0.0
C686 C 0.46273 0.99866 0.85662 0.0
C687 C 0.47245 0.01593 0.84282 0.0
C688 C 0.4534 0.99798 0.87952 0.0
C689 C 0.45368 0.01457 0.8891 0.0
C690 C 0.46449 0.03209 0.87611 0.0
C691 C 0.47377 0.03276 0.85325 0.0
H692 H 0.03725 0.41839 0.93446 0.0
H693 H 0.98543 0.41368 0.96646 0.0
H694 H 0.03644 0.43868 0.90034 0.0
H695 H 0.98474 0.43416 0.93247 0.0
H696 H 0.97707 0.44576 0.84646 0.0
H697 H 0.9785 0.43047 0.88603 0.0
H698 H 0.03983 0.4706 0.89178 0.0
H699 H 0.03838 0.4857 0.85183 0.0
C700 C 0.02576 0.42179 0.93428 0.0
C701 C 0.01133 0.41433 0.953 0.0
C702 C 0.0254 0.43357 0.91489 0.0
C703 C 0.01056 0.43808 0.91376 0.0
C704 C 0.99628 0.43083 0.93273 0.0
C705 C 0.99669 0.41912 0.95218 0.0
C706 C 0.99076 0.45155 0.85651 0.0
C707 C 0.00762 0.46683 0.84607 0.0
C708 C 0.99159 0.44285 0.87921 0.0
C709 C 0.00932 0.44919 0.89188 0.0
C710 C 0.02601 0.46524 0.88223 0.0
C711 C 0.02515 0.47403 0.85957 0.0
H712 H 0.61807 0.63282 0.93096 0.0
H713 H 0.60773 0.58158 0.97124 0.0
H714 H 0.60085 0.61304 0.89349 0.0
H715 H 0.59016 0.56178 0.93382 0.0
H716 H 0.54468 0.5353 0.86424 0.0
H717 H 0.55841 0.55372 0.90415 0.0
H718 H 0.61114 0.59191 0.86477 0.0
H719 H 0.59819 0.57324 0.82568 0.0
C720 C 0.61193 0.61733 0.9319 0.0
C721 C 0.61438 0.60875 0.95388 0.0
C722 C 0.60209 0.60604 0.91051 0.0
C723 C 0.5942 0.58593 0.91089 0.0
C724 C 0.59599 0.57724 0.93319 0.0
C725 C 0.60616 0.58858 0.95445 0.0
C726 C 0.55925 0.54753 0.86417 0.0
C727 C 0.57011 0.55299 0.8415 0.0
C728 C 0.56703 0.55808 0.88695 0.0
C729 C 0.58567 0.57438 0.88728 0.0
C730 C 0.59657 0.57966 0.86483 0.0
C731 C 0.58901 0.56899 0.84236 0.0
H732 H 0.97939 0.58271 0.96078 0.0
H733 H 0.0362 0.62726 0.93792 0.0
H734 H 0.97852 0.56236 0.92524 0.0
H735 H 0.03521 0.6071 0.90212 0.0
H736 H 0.03518 0.56143 0.85174 0.0
H737 H 0.03558 0.57758 0.89174 0.0
H738 H 0.97605 0.56172 0.87889 0.0
H739 H 0.97551 0.5451 0.83941 0.0
C740 C 0.99167 0.58817 0.94811 0.0
C741 C 0.00783 0.60661 0.95206 0.0
C742 C 0.99116 0.57653 0.92773 0.0
C743 C 0.00681 0.58307 0.91086 0.0
C744 C 0.02303 0.60148 0.91498 0.0
C745 C 0.02353 0.61312 0.93535 0.0
C746 C 0.02204 0.56095 0.85784 0.0
C747 C 1.00533 0.55207 0.84238 0.0
C748 C 0.02234 0.57043 0.88057 0.0
C749 C 1.00593 0.57117 0.88835 0.0
C750 C 0.98892 0.56137 0.87357 0.0
C751 C 0.98863 0.55194 0.85085 0.0
H752 H 0.40393 0.4332 0.94651 0.0
H753 H 0.43019 0.39752 0.94712 0.0
H754 H 0.42621 0.45312 0.91312 0.0
H755 H 0.45194 0.41688 0.91327 0.0
H756 H 0.49801 0.46047 0.86469 0.0
H757 H 0.47904 0.4473 0.90332 0.0
H758 H 0.43225 0.45179 0.86894 0.0
H759 H 0.45167 0.46598 0.831 0.0
C760 C 0.41438 0.42954 0.93937 0.0
C761 C 0.41527 0.41376 0.94935 0.0
C762 C 0.42715 0.44095 0.92022 0.0
C763 C 0.44101 0.43673 0.91053 0.0
C764 C 0.4418 0.42088 0.92061 0.0
C765 C 0.42916 0.40961 0.93984 0.0
C766 C 0.48395 0.45928 0.86572 0.0
C767 C 0.47628 0.46406 0.84461 0.0
C768 C 0.47291 0.4514 0.88772 0.0
C769 C 0.4539 0.44801 0.88906 0.0
C770 C 0.4468 0.45416 0.86869 0.0
C771 C 0.4579 0.46217 0.8468 0.0
H772 H 0.61247 0.03586 0.95266 0.0
H773 H 0.6042 0.98004 0.93136 0.0
H774 H 0.59279 0.03458 0.91599 0.0
H775 H 0.58417 0.97853 0.89511 0.0
H776 H 0.54432 0.01983 0.8577 0.0
H777 H 0.56002 0.01815 0.89741 0.0
H778 H 0.58951 0.99446 0.85466 0.0
H779 H 0.57357 0.99566 0.81564 0.0
C780 C 0.60636 0.02327 0.94021 0.0
C781 C 0.61005 0.00814 0.94471 0.0
C782 C 0.59492 0.02245 0.91936 0.0
C783 C 0.58692 0.00647 0.90257 0.0
C784 C 0.59033 0.99118 0.90744 0.0
C785 C 0.6018 0.99202 0.92823 0.0
C786 C 0.55395 0.01402 0.85703 0.0
C787 C 0.55792 0.0081 0.83361 0.0
C788 C 0.56306 0.01321 0.87963 0.0
C789 C 0.5761 0.00626 0.87919 0.0
C790 C 0.57944 0.99971 0.85582 0.0
C791 C 0.57044 1.00059 0.83338 0.0
H792 H 0.58049 0.98951 0.0483 0.0
H793 H 0.63064 0.02538 0.09527 0.0
H794 H 0.55954 0.98816 0.08292 0.0
H795 H 0.60978 0.02348 0.13028 0.0
H796 H 0.56987 0.02876 0.18423 0.0
H797 H 0.58808 0.03331 0.145 0.0
H798 H 0.54879 0.97386 0.12358 0.0
H799 H 0.53029 0.96968 0.16238 0.0
C800 C 0.58704 0.99706 0.06612 0.0
C801 C 0.60722 0.00751 0.06914 0.0
C802 C 0.57501 0.99622 0.08599 0.0
C803 C 0.5829 0.0057 0.10947 0.0
C804 C 0.60314 0.01629 0.11234 0.0
C805 C 0.61517 0.01727 0.09237 0.0
C806 C 0.56491 0.01686 0.17074 0.0
C807 C 0.54871 0.99889 0.17626 0.0
C808 C 0.57544 0.01936 0.14842 0.0
C809 C 0.57016 1.00386 0.13129 0.0
C810 C 0.55324 0.98619 0.13616 0.0
C811 C 0.54258 0.98377 0.15838 0.0
H812 H 0.03091 0.59834 0.05291 0.0
H813 H 0.99444 0.61103 0.09999 0.0
H814 H 0.03253 0.57841 0.08685 0.0
H815 H 0.99668 0.59182 0.13439 0.0
H816 H 0.99266 0.54689 0.18761 0.0
H817 H 0.98753 0.56052 0.14867 0.0
H818 H 0.04692 0.58159 0.1274 0.0
H819 H 0.05165 0.56728 0.16581 0.0
C820 C 0.0233 0.59692 0.0706 0.0
C821 C 0.01261 0.6063 0.07386 0.0
C822 C 0.02429 0.58555 0.09011 0.0
C823 C 0.01476 0.58345 0.11346 0.0
C824 C 1.00391 0.59274 0.11654 0.0
C825 C 1.00276 0.60393 0.09691 0.0
C826 C 1.00442 0.55403 0.17421 0.0
C827 C 0.02253 0.55603 0.17966 0.0
C828 C 1.00159 0.56205 0.15205 0.0
C829 C 0.0169 0.57251 0.13504 0.0
C830 C 0.03471 0.57352 0.13985 0.0
C831 C 0.03746 0.56528 0.16187 0.0
H832 H 0.42193 0.39541 0.08557 0.0
H833 H 0.41469 0.44221 0.05832 0.0
H834 H 0.4414 0.41554 0.12146 0.0
H835 H 0.43433 0.46242 0.09406 0.0
H836 H 0.44461 0.47827 0.18131 0.0
H837 H 0.42982 0.46239 0.1407 0.0
H838 H 0.47244 0.44478 0.13267 0.0
H839 H 0.487 0.46038 0.17363 0.0
C840 C 0.42465 0.41005 0.08712 0.0
C841 C 0.41668 0.41719 0.06925 0.0
C842 C 0.43593 0.42164 0.10756 0.0
C843 C 0.43941 0.44058 0.11059 0.0
C844 C 0.43177 0.44783 0.09237 0.0
C845 C 0.42056 0.43627 0.07188 0.0
C846 C 0.45098 0.47125 0.17064 0.0
C847 C 0.46689 0.47048 0.18066 0.0
C848 C 0.44259 0.46225 0.14733 0.0
C849 C 0.44987 0.45219 0.13359 0.0
C850 C 0.46638 0.45222 0.143 0.0
C851 C 0.47485 0.46134 0.16627 0.0
H852 H 0.69309 0.77408 0.38678 0.0
H853 H 0.66438 0.72346 0.43412 0.0
H854 H 0.69341 0.79406 0.42233 0.0
H855 H 0.66524 0.74348 0.47002 0.0
H856 H 0.65758 0.7813 0.52638 0.0
H857 H 0.65285 0.76298 0.48683 0.0
H858 H 0.70995 0.80589 0.46225 0.0
H859 H 0.71442 0.82428 0.50145 0.0
C860 C 0.68686 0.76723 0.40483 0.0
C861 C 0.6788 0.74722 0.40775 0.0
C862 C 0.6871 0.77869 0.42524 0.0
C863 C 0.67942 0.77043 0.4491 0.0
C864 C 0.67102 0.75032 0.45182 0.0
C865 C 0.67066 0.73884 0.43133 0.0
C866 C 0.66894 0.78695 0.51224 0.0
C867 C 0.68637 0.80419 0.51699 0.0
C868 C 0.66631 0.7764 0.48969 0.0
C869 C 0.68112 0.7828 0.47148 0.0
C870 C 0.69814 0.80059 0.47568 0.0
C871 C 0.70071 0.81119 0.49815 0.0
H872 H 0.29814 0.93481 0.42656 0.0
H873 H 0.25151 0.94054 0.39437 0.0
H874 H 0.27706 0.91517 0.46102 0.0
H875 H 0.23031 0.92064 0.4286 0.0
H876 H 0.21095 0.91006 0.51392 0.0
H877 H 0.22799 0.92478 0.47445 0.0
H878 H 0.24832 0.88405 0.47101 0.0
H879 H 0.23153 0.86959 0.51098 0.0
C880 C 0.28334 0.93173 0.42673 0.0
C881 C 0.27653 0.93934 0.40789 0.0
C882 C 0.2712 0.92033 0.44634 0.0
C883 C 0.25198 0.91632 0.44755 0.0
C884 C 0.24508 0.92362 0.42836 0.0
C885 C 0.25722 0.93499 0.40873 0.0
C886 C 0.2188 0.90406 0.50447 0.0
C887 C 0.22002 0.88876 0.51557 0.0
C888 C 0.22849 0.91242 0.48179 0.0
C889 C 0.23968 0.90571 0.4697 0.0
C890 C 0.24004 0.88971 0.48007 0.0
C891 C 0.23024 0.88127 0.50275 0.0
H892 H 0.07943 0.36453 0.43279 0.0
H893 H 0.09782 0.33104 0.38849 0.0
H894 H 0.09664 0.36229 0.47017 0.0
H895 H 0.11512 0.32889 0.42599 0.0
H896 H 0.15571 0.34355 0.49871 0.0
H897 H 0.14311 0.3496 0.4589 0.0
H898 H 0.08881 0.33221 0.49597 0.0
H899 H 0.10084 0.32552 0.53489 0.0
C900 C 0.08736 0.35692 0.43095 0.0
C901 C 0.08711 0.34779 0.40782 0.0
C902 C 0.09717 0.35562 0.45233 0.0
C903 C 0.1071 0.34532 0.45097 0.0
C904 C 0.10769 0.33701 0.4275 0.0
C905 C 0.09768 0.33814 0.40614 0.0
C906 C 0.14107 0.34096 0.49825 0.0
C907 C 0.12948 0.33449 0.52023 0.0
C908 C 0.13391 0.34448 0.47555 0.0
C909 C 0.11513 0.34174 0.47459 0.0
C910 C 0.10352 0.33497 0.49637 0.0
C911 C 0.11051 0.33123 0.51876 0.0
H912 H 0.0877 0.37187 0.26872 0.0
H913 H 0.08074 0.31739 0.29315 0.0
H914 H 0.10685 0.3721 0.2326 0.0
H915 H 0.1009 0.31804 0.2579 0.0
H916 H 0.11843 0.31477 0.17498 0.0
H917 H 0.10151 0.31417 0.21395 0.0
H918 H 0.13629 0.37641 0.21951 0.0
H919 H 0.1522 0.37681 0.17958 0.0
C920 C 0.09046 0.36003 0.26646 0.0
C921 C 0.08266 0.34458 0.28363 0.0
C922 C 0.10165 0.36023 0.24589 0.0
C923 C 0.10566 0.34516 0.24226 0.0
C924 C 0.09793 0.32977 0.25971 0.0
C925 C 0.08642 0.3294 0.28002 0.0
C926 C 0.12265 0.32823 0.18493 0.0
C927 C 0.1366 0.34582 0.17448 0.0
C928 C 0.11298 0.32794 0.20731 0.0
C929 C 0.11729 0.34527 0.2199 0.0
C930 C 0.13214 0.3628 0.21007 0.0
C931 C 0.1415 0.36308 0.18741 0.0
H932 H 0.71404 0.76719 0.28728 0.0
H933 H 0.65241 0.73196 0.27591 0.0
H934 H 0.71545 0.78885 0.25362 0.0
H935 H 0.65383 0.75309 0.2416 0.0
H936 H 0.65758 0.80015 0.1928 0.0
H937 H 0.65849 0.78404 0.23206 0.0
H938 H 0.71287 0.78984 0.20853 0.0
H939 H 0.7121 0.80656 0.17 0.0
C940 C 0.70082 0.76399 0.2774 0.0
C941 C 0.68312 0.74785 0.28414 0.0
C942 C 0.70161 0.77639 0.25809 0.0
C943 C 0.68475 0.77282 0.2449 0.0
C944 C 0.66706 0.75658 0.25167 0.0
C945 C 0.66625 0.74431 0.27115 0.0
C946 C 0.67 0.79854 0.19666 0.0
C947 C 0.68492 0.80478 0.17881 0.0
C948 C 0.67042 0.78905 0.21885 0.0
C949 C 0.68562 0.78536 0.22334 0.0
C950 C 0.70104 0.79259 0.20595 0.0
C951 C 0.70067 0.8022 0.1839 0.0
H952 H 0.28339 0.96297 0.26455 0.0
H953 H 0.27547 0.91306 0.30593 0.0
H954 H 0.26507 0.94237 0.22849 0.0
H955 H 0.2562 0.89222 0.27058 0.0
H956 H 0.24434 0.86445 0.19036 0.0
H957 H 0.25907 0.88302 0.22933 0.0
H958 H 0.23491 0.91944 0.21237 0.0
H959 H 0.22111 0.90133 0.17266 0.0
C960 C 0.2775 0.94754 0.26602 0.0
C961 C 0.28098 0.93963 0.28791 0.0
C962 C 0.26681 0.93565 0.24545 0.0
C963 C 0.25903 0.91551 0.24649 0.0
C964 C 0.26222 0.90764 0.26876 0.0
C965 C 0.2732 0.91957 0.28912 0.0
C966 C 0.24188 0.87618 0.19533 0.0
C967 C 0.23161 0.88149 0.17861 0.0
C968 C 0.2503 0.88687 0.2177 0.0
C969 C 0.24841 0.90295 0.22402 0.0
C970 C 0.23714 0.9075 0.20788 0.0
C971 C 0.22901 0.89701 0.18529 0.0
H972 H 0.70544 0.963 0.26728 0.0
H973 H 0.64997 0.91696 0.29202 0.0
H974 H 0.7048 0.94284 0.23158 0.0
H975 H 0.64949 0.89671 0.25672 0.0
H976 H 0.64528 0.87861 0.17133 0.0
H977 H 0.64601 0.89561 0.21052 0.0
H978 H 0.7063 0.91369 0.22138 0.0
H979 H 0.70565 0.89707 0.18166 0.0
C980 C 0.69316 0.94856 0.26514 0.0
C981 C 0.6777 0.94162 0.28233 0.0
C982 C 0.69287 0.93694 0.24485 0.0
C983 C 0.67711 0.91813 0.24134 0.0
C984 C 0.66174 0.91118 0.25872 0.0
C985 C 0.66204 0.92278 0.27897 0.0
C986 C 0.65861 0.88598 0.18232 0.0
C987 C 0.67542 0.88658 0.17339 0.0
C988 C 0.65902 0.89566 0.20483 0.0
C989 C 0.67628 0.90619 0.21895 0.0
C990 C 0.69286 0.90596 0.21072 0.0
C991 C 0.69243 0.89621 0.18819 0.0
H992 H 0.06115 0.74352 0.26057 0.0
H993 H 0.11036 0.75024 0.30354 0.0
H994 H 0.08234 0.76238 0.22584 0.0
H995 H 0.13178 0.77002 0.26958 0.0
H996 H 0.16008 0.78194 0.19018 0.0
H997 H 0.14127 0.76737 0.22849 0.0
H998 H 0.10581 0.79263 0.21131 0.0
H999 H 0.12417 0.8063 0.17222 0.0
C1000 C 0.07655 0.74927 0.26269 0.0
C1001 C 0.08409 0.74527 0.2846 0.0
C1002 C 0.08878 0.76027 0.2429 0.0
C1003 C 0.10889 0.76782 0.24477 0.0
C1004 C 0.11639 0.76418 0.26712 0.0
C1005 C 0.10412 0.7529 0.28668 0.0
C1006 C 0.14855 0.78473 0.19501 0.0
C1007 C 0.14355 0.79523 0.17835 0.0
C1008 C 0.13771 0.77638 0.21699 0.0
C1009 C 0.12178 0.77857 0.22299 0.0
C1010 C 0.11762 0.79017 0.20704 0.0
C1011 C 0.12827 0.79823 0.18482 0.0
H1012 H 0.2779 0.37024 0.29529 0.0
H1013 H 0.27283 0.31771 0.26462 0.0
H1014 H 0.25759 0.3705 0.26054 0.0
H1015 H 0.25277 0.31815 0.22954 0.0
H1016 H 0.20527 0.3157 0.17988 0.0
H1017 H 0.22112 0.31463 0.21954 0.0
H1018 H 0.26055 0.37605 0.21471 0.0
H1019 H 0.24443 0.37712 0.17558 0.0
C1020 C 0.27248 0.35877 0.28107 0.0
C1021 C 0.27706 0.34402 0.28258 0.0
C1022 C 0.26086 0.35894 0.26115 0.0
C1023 C 0.25353 0.34434 0.24227 0.0
C1024 C 0.25793 0.32945 0.24397 0.0
C1025 C 0.26959 0.3293 0.26392 0.0
C1026 C 0.21698 0.32902 0.18774 0.0
C1027 C 0.22367 0.34648 0.17464 0.0
C1028 C 0.22622 0.32838 0.21023 0.0
C1029 C 0.24225 0.34521 0.22012 0.0
C1030 C 0.2482 0.36284 0.20774 0.0
C1031 C 0.23902 0.36345 0.18526 0.0
H1032 H 0.30193 0.35644 0.43378 0.0
H1033 H 0.24994 0.32612 0.38789 0.0
H1034 H 0.28251 0.35385 0.47113 0.0
H1035 H 0.23053 0.32366 0.42529 0.0
H1036 H 0.20614 0.34031 0.49741 0.0
H1037 H 0.2247 0.34505 0.45801 0.0
H1038 H 0.2585 0.32426 0.49635 0.0
H1039 H 0.23985 0.31892 0.53493 0.0
C1040 C 0.28638 0.34936 0.43164 0.0
C1041 C 0.27744 0.34133 0.408 0.0
C1042 C 0.27527 0.34786 0.45299 0.0
C1043 C 0.25502 0.3385 0.45108 0.0
C1044 C 0.24611 0.33106 0.42724 0.0
C1045 C 0.25722 0.33235 0.40593 0.0
C1046 C 0.21745 0.33665 0.4973 0.0
C1047 C 0.22179 0.32968 0.51954 0.0
C1048 C 0.22808 0.33941 0.47483 0.0
C1049 C 0.24328 0.33537 0.47435 0.0
C1050 C 0.24723 0.32798 0.49636 0.0
C1051 C 0.23654 0.32501 0.51853 0.0
H1052 H 0.66263 0.94725 0.43193 0.0
H1053 H 0.69848 0.93258 0.38666 0.0
H1054 H 0.66421 0.92838 0.46732 0.0
H1055 H 0.69951 0.91308 0.42167 0.0
H1056 H 0.71741 0.90267 0.50201 0.0
H1057 H 0.71363 0.91702 0.46296 0.0
H1058 H 0.65399 0.8967 0.48198 0.0
H1059 H 0.65809 0.88291 0.52147 0.0
C1060 C 0.67069 0.93982 0.42948 0.0
C1061 C 0.68053 0.94148 0.40662 0.0
C1062 C 0.67146 0.92884 0.44967 0.0
C1063 C 0.68195 0.91911 0.44738 0.0
C1064 C 0.69152 0.92057 0.42427 0.0
C1065 C 0.69088 0.93169 0.40417 0.0
C1066 C 0.70337 0.90086 0.49746 0.0
C1067 C 0.68806 0.89175 0.51474 0.0
C1068 C 0.70118 0.90911 0.47509 0.0
C1069 C 0.68356 0.90828 0.46945 0.0
C1070 C 0.6679 0.89805 0.48602 0.0
C1071 C 0.67016 0.88998 0.50849 0.0
H1072 H 0.08222 0.77289 0.39118 0.0
H1073 H 0.0883 0.72613 0.42141 0.0
H1074 H 0.10216 0.79378 0.42623 0.0
H1075 H 0.10795 0.7469 0.45672 0.0
H1076 H 0.1533 0.79182 0.50884 0.0
H1077 H 0.13894 0.7755 0.46811 0.0
H1078 H 0.09811 0.7957 0.47202 0.0
H1079 H 0.11275 0.81231 0.51224 0.0
C1080 C 0.08785 0.76709 0.4053 0.0
C1081 C 0.08358 0.74783 0.40366 0.0
C1082 C 0.09924 0.77905 0.42539 0.0
C1083 C 0.10664 0.77202 0.44429 0.0
C1084 C 0.10272 0.75286 0.44229 0.0
C1085 C 0.09131 0.7409 0.42219 0.0
C1086 C 0.14162 0.7932 0.50057 0.0
C1087 C 0.13407 0.80324 0.51372 0.0
C1088 C 0.13323 0.78366 0.47744 0.0
C1089 C 0.11723 0.78411 0.46697 0.0
C1090 C 0.11048 0.79514 0.47942 0.0
C1091 C 0.11879 0.80458 0.50254 0.0
H1092 H 0.37544 0.10034 0.74224 0.0
H1093 H 0.3131 0.06978 0.74116 0.0
H1094 H 0.37576 0.12066 0.77711 0.0
H1095 H 0.31332 0.09072 0.7755 0.0
H1096 H 0.3232 0.11376 0.85924 0.0
H1097 H 0.31969 0.09607 0.81977 0.0
H1098 H 0.37029 0.14575 0.78951 0.0
H1099 H 0.37457 0.16293 0.82973 0.0
C1100 C 0.36178 0.09813 0.7493 0.0
C1101 C 0.34424 0.08339 0.73911 0.0
C1102 C 0.36194 0.10994 0.76914 0.0
C1103 C 0.34456 0.10749 0.77913 0.0
C1104 C 0.32699 0.09291 0.76855 0.0
C1105 C 0.32684 0.08092 0.74883 0.0
C1106 C 0.33349 0.12097 0.84407 0.0
C1107 C 0.34939 0.13963 0.84791 0.0
C1108 C 0.33136 0.11087 0.82125 0.0
C1109 C 0.34494 0.11929 0.80154 0.0
C1110 C 0.35986 0.13859 0.80454 0.0
C1111 C 0.36213 0.1486 0.82749 0.0
H1112 H 0.96841 0.27041 0.75912 0.0
H1113 H 0.91987 0.2698 0.72171 0.0
H1114 H 0.94707 0.24974 0.79282 0.0
H1115 H 0.89854 0.24898 0.75515 0.0
H1116 H 0.87699 0.23938 0.83964 0.0
H1117 H 0.89456 0.25408 0.80046 0.0
H1118 H 0.91946 0.21716 0.80253 0.0
H1119 H 0.90191 0.20258 0.84211 0.0
C1120 C 0.95316 0.2657 0.75797 0.0
C1121 C 0.94585 0.27188 0.73793 0.0
C1122 C 0.94091 0.25373 0.77714 0.0
C1123 C 0.92111 0.24775 0.77667 0.0
C1124 C 0.91375 0.2535 0.7562 0.0
C1125 C 0.92597 0.26541 0.73703 0.0
C1126 C 0.88588 0.23412 0.83136 0.0
C1127 C 0.88814 0.21989 0.84384 0.0
C1128 C 0.89591 0.24249 0.8089 0.0
C1129 C 0.90854 0.2369 0.79849 0.0
C1130 C 0.91001 0.22192 0.81026 0.0
C1131 C 0.89981 0.21342 0.8327 0.0
H1132 H 0.76055 0.66084 0.71882 0.0
H1133 H 0.74165 0.69403 0.76279 0.0
H1134 H 0.77777 0.6588 0.7565 0.0
H1135 H 0.75874 0.69188 0.80038 0.0
H1136 H 0.76377 0.65585 0.86552 0.0
H1137 H 0.75136 0.66196 0.82648 0.0
H1138 H 0.80574 0.68002 0.78926 0.0
H1139 H 0.81872 0.67459 0.82916 0.0
C1140 C 0.76025 0.66786 0.73645 0.0
C1141 C 0.74961 0.67744 0.73796 0.0
C1142 C 0.77021 0.6668 0.75792 0.0
C1143 C 0.76948 0.67508 0.78134 0.0
C1144 C 0.7594 0.68523 0.78258 0.0
C1145 C 0.74965 0.68649 0.76107 0.0
C1146 C 0.77336 0.66157 0.84931 0.0
C1147 C 0.79248 0.66522 0.85078 0.0
C1148 C 0.76615 0.66497 0.82686 0.0
C1149 C 0.77768 0.67176 0.805 0.0
C1150 C 0.79659 0.67486 0.80596 0.0
C1151 C 0.80398 0.6717 0.82872 0.0
H1152 H 0.74422 0.64765 0.62211 0.0
H1153 H 0.75456 0.70402 0.60091 0.0
H1154 H 0.76513 0.64869 0.58762 0.0
H1155 H 0.77448 0.70471 0.56551 0.0
H1156 H 0.82051 0.70929 0.514 0.0
H1157 H 0.80378 0.70813 0.5535 0.0
H1158 H 0.76699 0.6464 0.54357 0.0
H1159 H 0.7847 0.64767 0.50508 0.0
C1160 C 0.75081 0.66017 0.60984 0.0
C1161 C 0.74777 0.67575 0.61413 0.0
C1162 C 0.76276 0.66077 0.58998 0.0
C1163 C 0.77166 0.67681 0.57364 0.0
C1164 C 0.76837 0.6923 0.57796 0.0
C1165 C 0.75674 0.69185 0.59811 0.0
C1166 C 0.80918 0.69547 0.52082 0.0
C1167 C 0.80394 0.67855 0.50682 0.0
C1168 C 0.79937 0.69478 0.5432 0.0
C1169 C 0.78372 0.67721 0.55167 0.0
C1170 C 0.77906 0.66017 0.538 0.0
C1171 C 0.78917 0.66085 0.51591 0.0
H1172 H 0.32239 0.08628 0.6343 0.0
H1173 H 0.37459 0.09028 0.60495 0.0
H1174 H 0.32257 0.10665 0.59971 0.0
H1175 H 0.37454 0.11033 0.56986 0.0
H1176 H 0.37598 0.15499 0.51644 0.0
H1177 H 0.37787 0.14129 0.55746 0.0
H1178 H 0.31623 0.10204 0.55437 0.0
H1179 H 0.31438 0.11603 0.51395 0.0
C1180 C 0.33395 0.09156 0.62047 0.0
C1181 C 0.34838 0.08653 0.62218 0.0
C1182 C 0.33403 0.10321 0.60061 0.0
C1183 C 0.3485 0.11004 0.5819 0.0
C1184 C 0.36331 0.10552 0.58411 0.0
C1185 C 0.36326 0.0939 0.60408 0.0
C1186 C 0.3628 0.14385 0.525 0.0
C1187 C 0.34504 0.13652 0.51204 0.0
C1188 C 0.3639 0.13582 0.54828 0.0
C1189 C 0.34724 0.12042 0.55908 0.0
C1190 C 0.32933 0.11397 0.54678 0.0
C1191 C 0.32826 0.12192 0.52356 0.0
H1192 H 0.93035 0.28745 0.61808 0.0
H1193 H 0.96706 0.26241 0.61434 0.0
H1194 H 0.91027 0.26602 0.5835 0.0
H1195 H 0.94755 0.24154 0.57921 0.0
H1196 H 0.90294 0.19603 0.52903 0.0
H1197 H 0.91726 0.21438 0.56826 0.0
H1198 H 0.91091 0.26124 0.53883 0.0
H1199 H 0.89551 0.24238 0.50036 0.0
C1200 C 0.93421 0.27747 0.60971 0.0
C1201 C 0.9503 0.27664 0.61884 0.0
C1202 C 0.92272 0.2652 0.58986 0.0
C1203 C 0.92719 0.25193 0.57857 0.0
C1204 C 0.94337 0.25122 0.58776 0.0
C1205 C 0.95472 0.26335 0.60773 0.0
C1206 C 0.90401 0.20998 0.53127 0.0
C1207 C 0.89824 0.2178 0.51141 0.0
C1208 C 0.91255 0.22067 0.55361 0.0
C1209 C 0.91566 0.2395 0.55654 0.0
C1210 C 0.90876 0.24681 0.53735 0.0
C1211 C 0.90007 0.23605 0.51514 0.0
H1212 H 0.32111 0.25325 0.6182 0.0
H1213 H 0.38002 0.29838 0.60597 0.0
H1214 H 0.32316 0.2354 0.58148 0.0
H1215 H 0.38214 0.28042 0.5694 0.0
H1216 H 0.3661 0.25595 0.48641 0.0
H1217 H 0.3675 0.27245 0.52634 0.0
H1218 H 0.3394 0.21774 0.56542 0.0
H1219 H 0.33787 0.20115 0.52499 0.0
C1220 C 0.33453 0.25931 0.60774 0.0
C1221 C 0.35036 0.2773 0.61479 0.0
C1222 C 0.33576 0.24899 0.58687 0.0
C1223 C 0.35281 0.25649 0.57257 0.0
C1224 C 0.36875 0.27435 0.57992 0.0
C1225 C 0.36754 0.28463 0.60085 0.0
C1226 C 0.3604 0.24748 0.50362 0.0
C1227 C 0.35171 0.22729 0.50268 0.0
C1228 C 0.36133 0.25693 0.52651 0.0
C1229 C 0.35349 0.2464 0.54901 0.0
C1230 C 0.34539 0.22621 0.54829 0.0
C1231 C 0.34463 0.21673 0.5253 0.0
H1232 H 0.76444 0.06482 0.61524 0.0
H1233 H 0.73661 0.09901 0.61283 0.0
H1234 H 0.7858 0.08392 0.5809 0.0
H1235 H 0.75863 0.11888 0.5793 0.0
H1236 H 0.78345 0.13214 0.49771 0.0
H1237 H 0.76459 0.11778 0.53587 0.0
H1238 H 0.81201 0.11354 0.56866 0.0
H1239 H 0.83028 0.12656 0.52956 0.0
C1240 C 0.76305 0.07659 0.60752 0.0
C1241 C 0.74876 0.08033 0.61654 0.0
C1242 C 0.77546 0.08773 0.58799 0.0
C1243 C 0.77408 0.10309 0.57726 0.0
C1244 C 0.75997 0.10702 0.58674 0.0
C1245 C 0.74736 0.09567 0.60602 0.0
C1246 C 0.7899 0.12823 0.51312 0.0
C1247 C 0.80826 0.13018 0.5103 0.0
C1248 C 0.77914 0.12017 0.53522 0.0
C1249 C 0.78658 0.11412 0.55532 0.0
C1250 C 0.80556 0.11751 0.55332 0.0
C1251 C 0.81623 0.12534 0.53103 0.0
H1252 H 0.94231 0.70378 0.63244 0.0
H1253 H 0.93816 0.65182 0.60111 0.0
H1254 H 0.92228 0.70417 0.59727 0.0
H1255 H 0.91835 0.65233 0.56583 0.0
H1256 H 0.87192 0.64991 0.5147 0.0
H1257 H 0.88659 0.64877 0.55539 0.0
H1258 H 0.92655 0.7101 0.55102 0.0
H1259 H 0.91164 0.71124 0.51072 0.0
C1260 C 0.93708 0.69242 0.61806 0.0
C1261 C 0.9419 0.67783 0.61942 0.0
C1262 C 0.92564 0.69266 0.59793 0.0
C1263 C 0.91869 0.67826 0.5788 0.0
C1264 C 0.92322 0.66347 0.58046 0.0
C1265 C 0.93473 0.66327 0.60054 0.0
C1266 C 0.88347 0.6632 0.52285 0.0
C1267 C 0.89072 0.68065 0.50955 0.0
C1268 C 0.89202 0.66252 0.54596 0.0
C1269 C 0.90787 0.6793 0.55625 0.0
C1270 C 0.9143 0.69694 0.5437 0.0
C1271 C 0.90584 0.69759 0.52057 0.0
H1272 H 0.96771 0.69611 0.76565 0.0
H1273 H 0.91589 0.65741 0.72321 0.0
H1274 H 0.94807 0.69397 0.80263 0.0
H1275 H 0.89627 0.65557 0.7601 0.0
H1276 H 0.87029 0.67385 0.82968 0.0
H1277 H 0.88894 0.67891 0.79031 0.0
H1278 H 0.92601 0.66283 0.8301 0.0
H1279 H 0.90713 0.65679 0.86855 0.0
C1280 C 0.95214 0.68734 0.76414 0.0
C1281 C 0.94333 0.67677 0.74169 0.0
C1282 C 0.94092 0.68614 0.78524 0.0
C1283 C 0.92069 0.67462 0.78411 0.0
C1284 C 0.91183 0.66467 0.76133 0.0
C1285 C 0.92307 0.6656 0.74037 0.0
C1286 C 0.88234 0.67129 0.82995 0.0
C1287 C 0.88743 0.66536 0.85256 0.0
C1288 C 0.89303 0.67426 0.80749 0.0
C1289 C 0.90911 0.67161 0.80743 0.0
C1290 C 0.91399 0.66545 0.82983 0.0
C1291 C 0.90318 0.66214 0.85195 0.0
H1292 H 0.34796 0.25462 0.72193 0.0
H1293 H 0.33319 0.28985 0.76873 0.0
H1294 H 0.3499 0.23824 0.76015 0.0
H1295 H 0.33463 0.27315 0.80686 0.0
H1296 H 0.36626 0.26061 0.86929 0.0
H1297 H 0.3609 0.27364 0.83033 0.0
H1298 H 0.33247 0.21671 0.79587 0.0
H1299 H 0.33809 0.20358 0.83534 0.0
C1300 C 0.34483 0.25865 0.74036 0.0
C1301 C 0.34064 0.27367 0.74241 0.0
C1302 C 0.34584 0.24918 0.76223 0.0
C1303 C 0.34265 0.25454 0.78658 0.0
C1304 C 0.33756 0.26895 0.78842 0.0
C1305 C 0.33662 0.27846 0.76659 0.0
C1306 C 0.35869 0.2508 0.8535 0.0
C1307 C 0.35227 0.23101 0.8555 0.0
C1308 C 0.35555 0.25827 0.83118 0.0
C1309 C 0.34591 0.24618 0.81014 0.0
C1310 C 0.33992 0.22641 0.81178 0.0
C1311 C 0.34312 0.21888 0.83429 0.0
H1312 H 0.74219 0.10631 0.72773 0.0
H1313 H 0.75284 0.06118 0.75283 0.0
H1314 H 0.76219 0.12697 0.76289 0.0
H1315 H 0.77255 0.0817 0.7883 0.0
H1316 H 0.81856 0.12737 0.8389 0.0
H1317 H 0.80295 0.11112 0.7987 0.0
H1318 H 0.75995 0.12799 0.80913 0.0
H1319 H 0.77588 0.14465 0.84882 0.0
C1320 C 0.74879 0.10079 0.74079 0.0
C1321 C 0.74586 0.08208 0.73763 0.0
C1322 C 0.76022 0.11262 0.76096 0.0
C1323 C 0.76899 0.10601 0.7784 0.0
C1324 C 0.76625 0.08736 0.77499 0.0
C1325 C 0.75481 0.07553 0.75481 0.0
C1326 C 0.80611 0.12807 0.83219 0.0
C1327 C 0.79839 0.13721 0.84703 0.0
C1328 C 0.79701 0.11853 0.80937 0.0
C1329 C 0.78005 0.11803 0.80088 0.0
C1330 C 0.77302 0.12816 0.81501 0.0
C1331 C 0.78208 0.13763 0.83782 0.0
H1332 H 0.08102 0.3986 0.01436 0.0
H1333 H 0.0407 0.34117 0.04047 0.0
H1334 H 0.10798 0.3945 0.02831 0.0
H1335 H 0.06755 0.33707 0.05429 0.0
H1336 H 0.11863 0.32951 0.0645 0.0
H1337 H 0.09603 0.3348 0.03892 0.0
H1338 H 0.11979 0.39183 0.07202 0.0
H1339 H 0.14236 0.38652 0.09747 0.0
C1340 C 0.07793 0.38502 0.02275 0.0
C1341 C 0.05876 0.37025 0.02648 0.0
C1342 C 0.09335 0.3827 0.03078 0.0
C1343 C 0.0899 0.36546 0.04235 0.0
C1344 C 0.07071 0.35043 0.04513 0.0
C1345 C 0.05532 0.35283 0.03739 0.0
C1346 C 0.11947 0.34342 0.06558 0.0
C1347 C 0.13221 0.35761 0.08297 0.0
C1348 C 0.10639 0.34636 0.05118 0.0
C1349 C 0.10597 0.36363 0.0537 0.0
C1350 C 0.1198 0.37841 0.06954 0.0
C1351 C 0.13271 0.37538 0.08414 0.0
H1352 H 0.65221 0.68982 0.07917 0.0
H1353 H 0.65324 0.70628 0.0003 0.0
H1354 H 0.65436 0.7199 0.09329 0.0
H1355 H 0.65582 0.73678 0.01461 0.0
H1356 H 0.68918 0.79713 0.06497 0.0
H1357 H 0.68221 0.76745 0.04217 0.0
H1358 H 0.63192 0.73491 0.08899 0.0
H1359 H 0.6386 0.76448 0.11136 0.0
C1360 C 0.65294 0.6999 0.06485 0.0
C1361 C 0.65254 0.6957 0.03865 0.0
C1362 C 0.65403 0.71705 0.07293 0.0
C1363 C 0.65506 0.73055 0.05501 0.0
C1364 C 0.65497 0.72656 0.02877 0.0
C1365 C 0.65348 0.70914 0.02064 0.0
C1366 C 0.67619 0.78377 0.06961 0.0
C1367 C 0.66456 0.78307 0.09015 0.0
C1368 C 0.67228 0.76678 0.05668 0.0
C1369 C 0.65676 0.74889 0.06423 0.0
C1370 C 0.64415 0.74849 0.08311 0.0
C1371 C 0.64793 0.76541 0.09581 0.0
H1372 H 0.32598 0.94649 0.00106 0.0
H1373 H 0.32476 0.98195 0.06274 0.0
H1374 H 0.29489 0.91972 0.01508 0.0
H1375 H 0.29411 0.95534 0.07694 0.0
H1376 H 0.23438 0.91038 0.09165 0.0
H1377 H 0.26028 0.9356 0.06647 0.0
H1378 H 0.28279 0.89759 0.0512 0.0
H1379 H 0.25663 0.8723 0.07598 0.0
C1380 C 0.31902 0.9486 0.0175 0.0
C1381 C 0.32784 0.9663 0.03086 0.0
C1382 C 0.30125 0.93326 0.02556 0.0
C1383 C 0.29191 0.93537 0.04706 0.0
C1384 C 0.30064 0.95326 0.06001 0.0
C1385 C 0.31835 0.96851 0.05202 0.0
C1386 C 0.24454 0.90726 0.08222 0.0
C1387 C 0.24357 0.88944 0.08589 0.0
C1388 C 0.25949 0.92174 0.06801 0.0
C1389 C 0.2739 0.91879 0.05731 0.0
C1390 C 0.27194 0.90037 0.0591 0.0
C1391 C 0.25689 0.88582 0.07323 0.0
H1392 H 0.39293 0.07742 0.01837 0.0
H1393 H 0.35221 0.04019 0.96067 0.0
H1394 H 0.3877 0.1037 0.00505 0.0
H1395 H 0.34725 0.06637 0.94708 0.0
H1396 H 0.33063 0.11058 0.93634 0.0
H1397 H 0.33358 0.08592 0.95985 0.0
H1398 H 0.39496 0.12502 0.96844 0.0
H1399 H 0.39183 0.14977 0.94536 0.0
C1400 C 0.38283 0.07484 0.0029 0.0
C1401 C 0.37301 0.05675 0.99052 0.0
C1402 C 0.37987 0.0899 0.99523 0.0
C1403 C 0.36697 0.08715 0.97509 0.0
C1404 C 0.357 0.06894 0.963 0.0
C1405 C 0.35998 0.05394 0.97062 0.0
C1406 C 0.34463 0.11404 0.94394 0.0
C1407 C 0.36101 0.13203 0.93895 0.0
C1408 C 0.34639 0.09988 0.95716 0.0
C1409 C 0.36458 0.10333 0.96553 0.0
C1410 C 0.38072 0.12188 0.96234 0.0
C1411 C 0.37893 0.13611 0.9492 0.0
H1412 H 0.97024 0.33393 0.9475 0.0
H1413 H 0.95549 0.31556 0.02582 0.0
H1414 H 0.94239 0.30392 0.93253 0.0
H1415 H 0.92763 0.28513 0.01065 0.0
H1416 H 0.90112 0.22593 0.95829 0.0
H1417 H 0.9236 0.25537 0.98196 0.0
H1418 H 0.90493 0.28795 0.9366 0.0
H1419 H 0.88228 0.25861 0.91336 0.0
C1420 C 0.96104 0.32346 0.96152 0.0
C1421 C 0.96503 0.3271 0.98782 0.0
C1422 C 0.94502 0.30634 0.95296 0.0
C1423 C 0.93276 0.2923 0.97046 0.0
C1424 C 0.93683 0.29576 0.9968 0.0
C1425 C 0.95271 0.31314 0.00543 0.0
C1426 C 0.90124 0.23922 0.95414 0.0
C1427 C 0.89013 0.24003 0.93376 0.0
C1428 C 0.91419 0.25608 0.96758 0.0
C1429 C 0.91625 0.27396 0.96071 0.0
C1430 C 0.90384 0.2744 0.94198 0.0
C1431 C 0.89084 0.2576 0.92876 0.0
H1432 H 0.70763 0.67472 0.97157 0.0
H1433 H 0.70222 0.63287 0.02758 0.0
H1434 H 0.73836 0.67866 0.95804 0.0
H1435 H 0.73339 0.63706 0.01429 0.0
H1436 H 0.77117 0.62943 0.95056 0.0
H1437 H 0.74563 0.62859 0.97677 0.0
H1438 H 0.77161 0.69037 0.96938 0.0
H1439 H 0.79685 0.69102 0.94263 0.0
C1440 C 0.71316 0.66656 0.98127 0.0
C1441 C 0.70243 0.6534 0.00053 0.0
C1442 C 0.73092 0.66895 0.97368 0.0
C1443 C 0.73846 0.65824 0.98515 0.0
C1444 C 0.72796 0.64544 0.00495 0.0
C1445 C 0.71015 0.64309 0.01261 0.0
C1446 C 0.77184 0.64291 0.95544 0.0
C1447 C 0.7859 0.66027 0.94445 0.0
C1448 C 0.75714 0.64245 0.97039 0.0
C1449 C 0.75629 0.65936 0.97469 0.0
C1450 C 0.77155 0.67701 0.96589 0.0
C1451 C 0.78614 0.67744 0.95083 0.0
H1452 H 0.98071 0.67221 0.97044 0.0
H1453 H 0.94429 0.62897 0.02494 0.0
H1454 H 0.95395 0.67672 0.95815 0.0
H1455 H 0.91738 0.63372 0.01292 0.0
H1456 H 0.90825 0.69013 0.94557 0.0
H1457 H 0.93286 0.68844 0.97141 0.0
H1458 H 0.89632 0.62652 0.97571 0.0
H1459 H 0.87164 0.62838 0.95042 0.0
C1460 C 0.96702 0.66383 0.98004 0.0
C1461 C 0.96459 0.65015 -0.00147 0.0
C1462 C 0.95169 0.66655 0.97319 0.0
C1463 C 0.93348 0.65567 0.98466 0.0
C1464 C 0.93116 0.64227 0.00362 0.0
C1465 C 0.94658 0.63957 0.01053 0.0
C1466 C 0.90521 0.67629 0.95297 0.0
C1467 C 0.8881 0.65939 0.94591 0.0
C1468 C 0.91938 0.67526 0.96748 0.0
C1469 C 0.91679 0.65729 0.97505 0.0
C1470 C 0.89882 0.64061 0.97025 0.0
C1471 C 0.88459 0.64166 0.95585 0.0
H1472 H 0.38759 0.3257 0.02661 0.0
H1473 H 0.34592 0.31903 0.96873 0.0
H1474 H 0.3822 0.29356 0.01596 0.0
H1475 H 0.34074 0.28725 0.95787 0.0
H1476 H 0.32648 0.22777 0.94673 0.0
H1477 H 0.32814 0.25436 0.97187 0.0
H1478 H 0.38991 0.2793 0.97967 0.0
H1479 H 0.38807 0.25247 0.95503 0.0
C1480 C 0.37715 0.3173 0.0118 0.0
C1481 C 0.36725 0.32493 -0.0016 0.0
C1482 C 0.37409 0.29891 0.00567 0.0
C1483 C 0.36099 0.28775 0.98613 0.0
C1484 C 0.35067 0.29523 0.97335 0.0
C1485 C 0.35377 0.31357 0.9794 0.0
C1486 C 0.34026 0.23853 0.95479 0.0
C1487 C 0.35715 0.23814 0.94887 0.0
C1488 C 0.34128 0.25389 0.96889 0.0
C1489 C 0.35923 0.26924 0.9772 0.0
C1490 C 0.37584 0.26774 0.97361 0.0
C1491 C 0.3748 0.25229 0.95959 0.0
H1492 H 0.69186 0.07814 0.0077 0.0
H1493 H 0.70677 0.03843 0.97283 0.0
H1494 H 0.72316 0.10529 0.99503 0.0
H1495 H 0.73795 0.06544 0.96035 0.0
H1496 H 0.79763 0.11564 0.95407 0.0
H1497 H 0.76944 0.09224 0.97819 0.0
H1498 H 0.73767 0.11944 0.95209 0.0
H1499 H 0.76583 0.14274 0.92802 0.0
C1500 C 0.70189 0.0752 0.99756 0.0
C1501 C 0.69682 0.05617 0.9911 0.0
C1502 C 0.71978 0.09073 0.99031 0.0
C1503 C 0.73306 0.0875 0.97681 0.0
C1504 C 0.72817 0.0684 0.97106 0.0
C1505 C 0.71022 0.05294 0.978 0.0
C1506 C 0.78485 0.11703 0.95432 0.0
C1507 C 0.78387 0.13098 0.93925 0.0
C1508 C 0.76865 0.10351 0.96785 0.0
C1509 C 0.75126 0.10385 0.96676 0.0
C1510 C 0.75086 0.11884 0.95342 0.0
C1511 C 0.76697 0.13219 0.93966 0.0
H1512 H 0.67859 0.98261 0.04865 0.0
H1513 H 0.62649 0.94183 0.0084 0.0
H1514 H 0.68379 0.95635 0.06165 0.0
H1515 H 0.63161 0.91543 0.02174 0.0
H1516 H 0.63641 0.8784 0.09063 0.0
H1517 H 0.63097 0.90113 0.06594 0.0
H1518 H 0.69073 0.93084 0.04308 0.0
H1519 H 0.69607 0.90793 0.06763 0.0
C1520 C 0.66832 0.96804 0.04244 0.0
C1521 C 0.65208 0.96426 0.02763 0.0
C1522 C 0.67139 0.95303 0.04969 0.0
C1523 C 0.65816 0.93385 0.04259 0.0
C1524 C 0.64204 0.93008 0.02747 0.0
C1525 C 0.63912 0.94517 0.01985 0.0
C1526 C 0.64816 0.88935 0.07949 0.0
C1527 C 0.66662 0.89139 0.08088 0.0
C1528 C 0.64508 0.90237 0.06542 0.0
C1529 C 0.66049 0.91788 0.05284 0.0
C1530 C 0.67864 0.91911 0.05278 0.0
C1531 C 0.68165 0.90589 0.06655 0.0
H1532 H 0.04175 0.69872 0.06691 0.0
H1533 H 0.07499 0.69666 0.00336 0.0
H1534 H 0.06869 0.7299 0.07995 0.0
H1535 H 0.10209 0.72816 0.01633 0.0
H1536 H 0.11345 0.7905 0.0916 0.0
H1537 H 0.0876 0.76371 0.06749 0.0
H1538 H 0.12546 0.74105 0.05238 0.0
H1539 H 0.15134 0.76797 0.07628 0.0
C1540 C 0.05477 0.70502 0.05558 0.0
C1541 C 0.05627 0.69519 0.03418 0.0
C1542 C 0.07018 0.72301 0.0629 0.0
C1543 C 0.08753 0.73162 0.04907 0.0
C1544 C 0.08895 0.72189 0.02743 0.0
C1545 C 0.07343 0.70389 0.01999 0.0
C1546 C 0.1164 0.7801 0.08243 0.0
C1547 C 0.13435 0.78123 0.08599 0.0
C1548 C 0.10156 0.76467 0.06883 0.0
C1549 C 0.10433 0.75 0.05853 0.0
C1550 C 0.12285 0.75211 0.06003 0.0
C1551 C 0.13773 0.7676 0.07363 0.0
H1552 H 0.31382 0.36861 0.99309 0.0
H1553 H 0.33551 0.38289 0.07075 0.0
H1554 H 0.28293 0.36517 0.00696 0.0
H1555 H 0.30506 0.37975 0.08436 0.0
H1556 H 0.25684 0.38932 0.10042 0.0
H1557 H 0.28596 0.39694 0.07664 0.0
H1558 H 0.25536 0.34172 0.03798 0.0
H1559 H 0.22614 0.33404 0.06196 0.0
C1560 C 0.31203 0.37114 0.01302 0.0
C1561 C 0.32704 0.37599 0.03086 0.0
C1562 C 0.29439 0.36915 0.02092 0.0
C1563 C 0.29169 0.37242 0.04666 0.0
C1564 C 0.30683 0.37747 0.06432 0.0
C1565 C 0.32422 0.37912 0.05655 0.0
C1566 C 0.25616 0.37908 0.08622 0.0
C1567 C 0.23932 0.36101 0.08322 0.0
C1568 C 0.27284 0.38339 0.07274 0.0
C1569 C 0.273 0.36976 0.05588 0.0
C1570 C 0.25562 0.35249 0.05086 0.0
C1571 C 0.23888 0.34814 0.06448 0.0
H1572 H 0.7479 0.7295 0.34325 0.0
H1573 H 0.70877 0.67951 0.38704 0.0
H1574 H 0.77488 0.72502 0.35636 0.0
H1575 H 0.73556 0.6748 0.39951 0.0
H1576 H 0.78441 0.66228 0.40081 0.0
H1577 H 0.761 0.6675 0.37701 0.0
H1578 H 0.78973 0.72669 0.40333 0.0
H1579 H 0.81288 0.72132 0.42758 0.0
C1580 C 0.74504 0.71743 0.35538 0.0
C1581 C 0.72628 0.70489 0.36425 0.0
C1582 C 0.76045 0.7149 0.36285 0.0
C1583 C 0.75724 0.69949 0.37875 0.0
C1584 C 0.73838 0.68665 0.38696 0.0
C1585 C 0.72309 0.68943 0.37999 0.0
C1586 C 0.78614 0.67658 0.40068 0.0
C1587 C 0.80047 0.69144 0.41585 0.0
C1588 C 0.77266 0.67951 0.3873 0.0
C1589 C 0.77352 0.69745 0.38853 0.0
C1590 C 0.78884 0.71277 0.40196 0.0
C1591 C 0.80209 0.70973 0.41574 0.0
H1592 H 0.31598 0.02088 0.41209 0.0
H1593 H 0.32051 0.03834 0.33312 0.0
H1594 H 0.31812 0.05104 0.42576 0.0
H1595 H 0.32308 0.06893 0.34701 0.0
H1596 H 0.35547 0.12866 0.39858 0.0
H1597 H 0.34885 0.099 0.37609 0.0
H1598 H 0.29649 0.06686 0.41928 0.0
H1599 H 0.30279 0.09645 0.44126 0.0
C1600 C 0.31747 0.03119 0.39765 0.0
C1601 C 0.31806 0.02726 0.37155 0.0
C1602 C 0.31855 0.04839 0.40546 0.0
C1603 C 0.32059 0.06222 0.3874 0.0
C1604 C 0.32146 0.05847 0.36127 0.0
C1605 C 0.31996 0.041 0.35338 0.0
C1606 C 0.34215 0.11542 0.40249 0.0
C1607 C 0.32978 0.11483 0.42194 0.0
C1608 C 0.33843 0.09843 0.38973 0.0
C1609 C 0.32237 0.08063 0.39637 0.0
C1610 C 0.30914 0.08036 0.41413 0.0
C1611 C 0.31273 0.0973 0.42663 0.0
H1612 H 0.99423 0.31371 0.39965 0.0
H1613 H 0.99378 0.28046 0.33404 0.0
H1614 H 0.96299 0.28726 0.41255 0.0
H1615 H 0.96225 0.2537 0.34713 0.0
H1616 H 0.92347 0.20556 0.40943 0.0
H1617 H 0.95011 0.23047 0.38465 0.0
H1618 H 0.92852 0.26938 0.39845 0.0
H1619 H 0.90198 0.24452 0.42323 0.0
C1620 C 0.98737 0.30077 0.38787 0.0
C1621 C 0.99648 0.29915 0.36588 0.0
C1622 C 0.96937 0.28566 0.39514 0.0
C1623 C 0.96005 0.26844 0.38072 0.0
C1624 C 0.96908 0.2668 0.35858 0.0
C1625 C 0.98708 0.2821 0.3511 0.0
C1626 C 0.92399 0.21916 0.40625 0.0
C1627 C 0.91079 0.2232 0.41846 0.0
C1628 C 0.93929 0.23346 0.39216 0.0
C1629 C 0.94163 0.25201 0.3901 0.0
C1630 C 0.92731 0.25535 0.40016 0.0
C1631 C 0.91205 0.24109 0.41418 0.0
H1632 H 0.01781 0.37391 0.30516 0.0
H1633 H 0.06379 0.41114 0.35727 0.0
H1634 H 0.01326 0.40068 0.29352 0.0
H1635 H 0.05892 0.438 0.34612 0.0
H1636 H 1.00079 0.44696 0.28116 0.0
H1637 H 1.00274 0.42248 0.30658 0.0
H1638 H 0.06488 0.4585 0.30984 0.0
H1639 H 0.06273 0.48309 0.28518 0.0
C1640 C 0.02678 0.38778 0.31441 0.0
C1641 C 0.04126 0.39044 0.33197 0.0
C1642 C 0.02404 0.40314 0.30795 0.0
C1643 C 0.03565 0.42156 0.31897 0.0
C1644 C 0.04981 0.42408 0.3371 0.0
C1645 C 0.05258 0.40868 0.34353 0.0
C1646 C 0.01476 0.44992 0.28831 0.0
C1647 C 0.03161 0.46686 0.28118 0.0
C1648 C 0.01593 0.43581 0.30253 0.0
C1649 C 0.03401 0.43825 0.30966 0.0
C1650 C 0.0507 0.45608 0.30475 0.0
C1651 C 0.04949 0.47028 0.29071 0.0
H1652 H 0.6119 0.66533 0.34191 0.0
H1653 H 0.65158 0.64908 0.31063 0.0
H1654 H 0.58466 0.63407 0.32857 0.0
H1655 H 0.62444 0.61791 0.29742 0.0
H1656 H 0.57355 0.55852 0.29008 0.0
H1657 H 0.59699 0.58694 0.31457 0.0
H1658 H 0.57103 0.61904 0.28537 0.0
H1659 H 0.54768 0.59065 0.26096 0.0
C1660 C 0.6148 0.65502 0.33239 0.0
C1661 C 0.63387 0.65969 0.32715 0.0
C1662 C 0.59922 0.63715 0.32475 0.0
C1663 C 0.6024 0.62349 0.31206 0.0
C1664 C 0.62151 0.628 0.3075 0.0
C1665 C 0.63706 0.64593 0.31485 0.0
C1666 C 0.57243 0.57144 0.28972 0.0
C1667 C 0.55882 0.57243 0.2737 0.0
C1668 C 0.58598 0.58776 0.30345 0.0
C1669 C 0.58601 0.60529 0.30161 0.0
C1670 C 0.57134 0.60575 0.28728 0.0
C1671 C 0.55795 0.58951 0.27333 0.0
H1672 H 0.36936 0.96619 0.36263 0.0
H1673 H 0.37434 0.00765 0.30624 0.0
H1674 H 0.40088 0.97103 0.34993 0.0
H1675 H 0.40544 0.01223 0.2933 0.0
H1676 H 0.46401 0.0253 0.27799 0.0
H1677 H 0.43874 0.02441 0.30494 0.0
H1678 H 0.41342 0.96272 0.31258 0.0
H1679 H 0.43897 0.9638 0.28618 0.0
C1680 C 0.37727 0.97647 0.34772 0.0
C1681 C 0.36933 0.98646 0.33532 0.0
C1682 C 0.39529 0.9792 0.3404 0.0
C1683 C 0.40577 0.99206 0.32064 0.0
C1684 C 0.39801 1.00249 0.30892 0.0
C1685 C 0.38005 0.99972 0.31616 0.0
C1686 C 0.45345 0.0117 0.28631 0.0
C1687 C 0.45335 0.99461 0.2799 0.0
C1688 C 0.43885 0.01113 0.30149 0.0
C1689 C 0.42374 0.99342 0.31037 0.0
C1690 C 0.42481 0.97662 0.30613 0.0
C1691 C 0.43952 0.97723 0.29107 0.0
H1692 H 0.64903 0.01401 0.33158 0.0
H1693 H 0.61184 0.95242 0.32409 0.0
H1694 H 0.62263 0.01886 0.31809 0.0
H1695 H 0.58584 0.95706 0.30853 0.0
H1696 H 0.53844 0.96634 0.28572 0.0
H1697 H 0.56219 0.9647 0.31306 0.0
H1698 H 0.60668 0.01897 0.28239 0.0
H1699 H 0.58264 0.0215 0.25738 0.0
C1700 C 0.63516 1.00152 0.32691 0.0
C1701 C 0.63247 0.98287 0.32869 0.0
C1702 C 0.62 1.00425 0.31896 0.0
C1703 C 0.60194 0.98841 0.31175 0.0
C1704 C 0.59925 0.96969 0.31428 0.0
C1705 C 0.61425 0.96697 0.32297 0.0
C1706 C 0.55316 0.97829 0.28558 0.0
C1707 C 0.55865 0.99386 0.26884 0.0
C1708 C 0.56695 0.97716 0.30091 0.0
C1709 C 0.58666 0.99136 0.29951 0.0
C1710 C 0.59179 0.00766 0.28428 0.0
C1711 C 0.57795 0.00901 0.2695 0.0
H1712 H 0.0176 0.65217 0.29528 0.0
H1713 H 0.05594 0.65519 0.35588 0.0
H1714 H 0.01336 0.62129 0.28136 0.0
H1715 H 0.05145 0.62391 0.34215 0.0
H1716 H 0.99904 0.56148 0.26709 0.0
H1717 H 0.99989 0.5877 0.29216 0.0
H1718 H 0.06102 0.61155 0.3056 0.0
H1719 H 0.06002 0.58512 0.28091 0.0
C1720 C 0.02493 0.64609 0.30586 0.0
C1721 C 0.03718 0.65617 0.32659 0.0
C1722 C 0.02237 0.62826 0.29802 0.0
C1723 C 0.032 0.62002 0.3107 0.0
C1724 C 0.04392 0.6299 0.33186 0.0
C1725 C 0.04644 0.64777 0.33978 0.0
C1726 C 0.01252 0.57204 0.27606 0.0
C1727 C 0.02949 0.57135 0.2719 0.0
C1728 C 0.01306 0.58715 0.29022 0.0
C1729 C 0.03061 0.60198 0.30042 0.0
C1730 C 0.04725 0.60036 0.29811 0.0
C1731 C 0.04668 0.58516 0.28402 0.0
H1732 H 0.35947 0.41161 0.34227 0.0
H1733 H 0.37378 0.37163 0.30685 0.0
H1734 H 0.39061 0.43866 0.3288 0.0
H1735 H 0.40484 0.39854 0.2937 0.0
H1736 H 0.46484 0.44895 0.28794 0.0
H1737 H 0.43659 0.42558 0.312 0.0
H1738 H 0.40464 0.45228 0.28481 0.0
H1739 H 0.43284 0.47552 0.26067 0.0
C1740 C 0.36934 0.4086 0.33185 0.0
C1741 C 0.36415 0.38952 0.32548 0.0
C1742 C 0.38713 0.42406 0.32414 0.0
C1743 C 0.40021 0.42071 0.31034 0.0
C1744 C 0.3952 0.40158 0.30464 0.0
C1745 C 0.37734 0.38618 0.31197 0.0
C1746 C 0.452 0.45023 0.2879 0.0
C1747 C 0.451 0.46404 0.27254 0.0
C1748 C 0.43577 0.43673 0.3014 0.0
C1749 C 0.41835 0.43698 0.30005 0.0
C1750 C 0.41788 0.45178 0.28633 0.0
C1751 C 0.434 0.46509 0.27255 0.0
H1752 H 0.29087 0.27428 0.34523 0.0
H1753 H 0.34707 0.31469 0.37653 0.0
H1754 H 0.29561 0.24741 0.35743 0.0
H1755 H 0.35186 0.288 0.3884 0.0
H1756 H 0.36185 0.23851 0.39422 0.0
H1757 H 0.3555 0.26067 0.36949 0.0
H1758 H 0.29823 0.23462 0.40125 0.0
H1759 H 0.30471 0.21265 0.42605 0.0
C1760 C 0.3043 0.27742 0.35442 0.0
C1761 C 0.31855 0.29657 0.36009 0.0
C1762 C 0.30701 0.26206 0.36139 0.0
C1763 C 0.32416 0.2656 0.37371 0.0
C1764 C 0.33862 0.2848 0.37858 0.0
C1765 C 0.3358 0.30009 0.372 0.0
C1766 C 0.34764 0.23701 0.39501 0.0
C1767 C 0.33372 0.22385 0.41187 0.0
C1768 C 0.34408 0.24982 0.38113 0.0
C1769 C 0.32645 0.24953 0.3837 0.0
C1770 C 0.3119 0.23514 0.39876 0.0
C1771 C 0.31556 0.22252 0.41289 0.0
H1772 H 0.74442 0.02949 0.3353 0.0
H1773 H 0.7102 0.03277 0.39667 0.0
H1774 H 0.77162 0.06091 0.34854 0.0
H1775 H 0.73716 0.06386 0.40986 0.0
H1776 H 0.78174 0.12442 0.42068 0.0
H1777 H 0.75655 0.09755 0.39591 0.0
H1778 H 0.79413 0.07387 0.38632 0.0
H1779 H 0.81939 0.10092 0.41093 0.0
C1780 C 0.74268 0.03697 0.35148 0.0
C1781 C 0.7252 0.02865 0.365 0.0
C1782 C 0.75824 0.05491 0.35907 0.0
C1783 C 0.75651 0.06496 0.38011 0.0
C1784 C 0.73889 0.05671 0.39327 0.0
C1785 C 0.72346 0.03878 0.38586 0.0
C1786 C 0.78481 0.11379 0.41254 0.0
C1787 C 0.80243 0.11465 0.41787 0.0
C1788 C 0.77035 0.09833 0.39856 0.0
C1789 C 0.77319 0.08336 0.38967 0.0
C1790 C 0.7915 0.08518 0.39289 0.0
C1791 C 0.80601 0.10072 0.40689 0.0
H1792 H 0.98378 0.70345 0.32772 0.0
H1793 H 1.00252 0.70833 0.4065 0.0
H1794 H 0.95325 0.70065 0.34211 0.0
H1795 H 0.97247 0.70603 0.42064 0.0
H1796 H 0.92756 0.72177 0.43711 0.0
H1797 H 0.95656 0.728 0.41409 0.0
H1798 H 0.92367 0.67448 0.37223 0.0
H1799 H 0.8946 0.66794 0.39578 0.0
C1800 C 0.98142 0.70402 0.34804 0.0
C1801 C 0.9955 0.70609 0.36602 0.0
C1802 C 0.96399 0.7024 0.35621 0.0
C1803 C 0.96065 0.70333 0.38243 0.0
C1804 C 0.9748 0.70552 0.40029 0.0
C1805 C 0.99194 0.70671 0.3922 0.0
C1806 C 0.92639 0.71156 0.42252 0.0
C1807 C 0.90887 0.69422 0.41854 0.0
C1808 C 0.94298 0.71512 0.40941 0.0
C1809 C 0.94237 0.70156 0.39175 0.0
C1810 C 0.92449 0.68516 0.38578 0.0
C1811 C 0.90784 0.68148 0.39915 0.0
H1812 H 0.38668 0.04273 0.74024 0.0
H1813 H 0.39831 0.03583 0.66139 0.0
H1814 H 0.41427 0.03994 0.75401 0.0
H1815 H 0.42595 0.03257 0.67544 0.0
H1816 H 0.4528 1.00083 0.72998 0.0
H1817 H 0.42981 0.00695 0.70653 0.0
H1818 H 0.45205 0.0615 0.74611 0.0
H1819 H 0.47522 0.05566 0.76906 0.0
C1820 C 0.39509 0.04052 0.72584 0.0
C1821 C 0.39034 0.03952 0.69973 0.0
C1822 C 0.41097 0.03906 0.73372 0.0
C1823 C 0.42233 0.03624 0.71575 0.0
C1824 C 0.41743 0.03482 0.68963 0.0
C1825 C 0.40168 0.03669 0.68164 0.0
C1826 C 0.45331 0.01447 0.73286 0.0
C1827 C 0.46564 0.02766 0.7516 0.0
C1828 C 0.44009 0.01792 0.71954 0.0
C1829 C 0.43897 0.03453 0.72491 0.0
C1830 C 0.45246 0.04846 0.74191 0.0
C1831 C 0.46573 0.04513 0.75498 0.0
H1832 H 0.98045 0.35455 0.74339 0.0
H1833 H 0.99357 0.37565 0.66592 0.0
H1834 H 0.98188 0.38437 0.75693 0.0
H1835 H 0.9953 0.40587 0.67971 0.0
H1836 H 0.02278 0.46343 0.73452 0.0
H1837 H 0.01759 0.43448 0.71139 0.0
H1838 H 0.9623 0.40122 0.74788 0.0
H1839 H 0.96735 0.43009 0.77067 0.0
C1840 C 0.98366 0.36558 0.72925 0.0
C1841 C 0.98688 0.36275 0.7036 0.0
C1842 C 0.98433 0.38261 0.73696 0.0
C1843 C 0.9885 0.39735 0.7193 0.0
C1844 C 0.992 0.3947 0.69367 0.0
C1845 C 0.99099 0.37744 0.68582 0.0
C1846 C 0.00918 0.45012 0.73674 0.0
C1847 C 0.99555 0.44895 0.7546 0.0
C1848 C 1.00627 0.43353 0.72363 0.0
C1849 C 0.98973 0.41556 0.7283 0.0
C1850 C 0.97534 0.41483 0.74429 0.0
C1851 C 0.97817 0.43136 0.7572 0.0
H1852 H 0.65766 0.61068 0.66288 0.0
H1853 H 0.65647 0.64483 0.72633 0.0
H1854 H 0.62603 0.58393 0.6756 0.0
H1855 H 0.62515 0.61837 0.73891 0.0
H1856 H 0.56514 0.57481 0.75122 0.0
H1857 H 0.59088 0.59936 0.72508 0.0
H1858 H 0.61397 0.56148 0.71335 0.0
H1859 H 0.58814 0.53691 0.73939 0.0
C1860 C 0.65056 0.61253 0.67935 0.0
C1861 C 0.65957 0.62981 0.69369 0.0
C1862 C 0.6325 0.59723 0.68663 0.0
C1863 C 0.623 0.59908 0.70811 0.0
C1864 C 0.63187 0.61658 0.72197 0.0
C1865 C 0.64994 0.6317 0.71492 0.0
C1866 C 0.57529 0.57147 0.74221 0.0
C1867 C 0.57477 0.55405 0.74753 0.0
C1868 C 0.59013 0.58558 0.72745 0.0
C1869 C 0.60472 0.58254 0.7177 0.0
C1870 C 0.60295 0.56427 0.7206 0.0
C1871 C 0.58808 0.55013 0.73541 0.0
H1872 H 0.68305 0.70439 0.63035 0.0
H1873 H 0.72631 0.7412 0.68584 0.0
H1874 H 0.67856 0.73106 0.61786 0.0
H1875 H 0.72148 0.76795 0.67379 0.0
H1876 H 0.66458 0.77687 0.6067 0.0
H1877 H 0.66662 0.7518 0.6305 0.0
H1878 H 0.72839 0.78921 0.63798 0.0
H1879 H 0.72613 0.81438 0.61484 0.0
C1880 C 0.69144 0.71815 0.64012 0.0
C1881 C 0.70511 0.72071 0.65897 0.0
C1882 C 0.68874 0.73344 0.63314 0.0
C1883 C 0.69958 0.7517 0.64491 0.0
C1884 C 0.713 0.75415 0.66418 0.0
C1885 C 0.71573 0.73881 0.67113 0.0
C1886 C 0.67846 0.77991 0.61425 0.0
C1887 C 0.69519 0.79752 0.6089 0.0
C1888 C 0.6797 0.76549 0.62759 0.0
C1889 C 0.69774 0.76828 0.63564 0.0
C1890 C 0.71425 0.78654 0.63218 0.0
C1891 C 0.71297 0.80103 0.61899 0.0
H1892 H 0.29147 0.98229 0.69671 0.0
H1893 H 0.30026 1.00232 0.61862 0.0
H1894 H 0.26356 0.95144 0.68266 0.0
H1895 H 0.2725 0.97193 0.60485 0.0
H1896 H 0.21322 0.92506 0.58884 0.0
H1897 H 0.23589 0.95433 0.61219 0.0
H1898 H 0.25844 0.92271 0.65204 0.0
H1899 H 0.23576 0.89333 0.62842 0.0
C1900 C 0.2874 0.98014 0.67663 0.0
C1901 C 0.29804 0.9947 0.65874 0.0
C1902 C 0.27148 0.96252 0.66863 0.0
C1903 C 0.26573 0.95941 0.64274 0.0
C1904 C 0.27638 0.97404 0.625 0.0
C1905 C 0.29238 0.9914 0.63286 0.0
C1906 C 0.2226 0.92422 0.60317 0.0
C1907 C 0.22288 0.90699 0.60661 0.0
C1908 C 0.23564 0.94099 0.61642 0.0
C1909 C 0.24917 0.94086 0.63352 0.0
C1910 C 0.24816 0.92321 0.63895 0.0
C1911 C 0.23511 0.90637 0.62554 0.0
H1912 H 0.04441 0.34387 0.64058 0.0
H1913 H 0.03742 0.30041 0.69488 0.0
H1914 H 0.07523 0.34773 0.62761 0.0
H1915 H 0.06866 0.30452 0.68221 0.0
H1916 H 0.13352 0.35914 0.6127 0.0
H1917 H 0.10818 0.35854 0.6392 0.0
H1918 H 0.08115 0.29654 0.64476 0.0
H1919 H 0.10677 0.29732 0.61883 0.0
C1920 C 0.04963 0.33536 0.65006 0.0
C1921 C 0.03841 0.32175 0.66863 0.0
C1922 C 0.06743 0.33769 0.64279 0.0
C1923 C 0.07453 0.32647 0.6539 0.0
C1924 C 0.06358 0.31329 0.67312 0.0
C1925 C 0.04572 0.31098 0.68044 0.0
C1926 C 0.12254 0.3455 0.62045 0.0
C1927 C 0.12204 0.32828 0.61363 0.0
C1928 C 0.1079 0.3451 0.63536 0.0
C1929 C 0.09233 0.32744 0.64359 0.0
C1930 C 0.0929 0.31042 0.63885 0.0
C1931 C 0.10765 0.31085 0.62406 0.0
H1932 H 0.31542 0.33673 0.63331 0.0
H1933 H 0.28125 0.29713 0.69273 0.0
H1934 H 0.28862 0.34145 0.62212 0.0
H1935 H 0.25418 0.30197 0.68155 0.0
H1936 H 0.20682 0.29494 0.61922 0.0
H1937 H 0.23172 0.29331 0.64444 0.0
H1938 H 0.26894 0.35491 0.63695 0.0
H1939 H 0.24412 0.35638 0.61133 0.0
C1940 C 0.30221 0.32917 0.64418 0.0
C1941 C 0.30041 0.31648 0.6638 0.0
C1942 C 0.28688 0.33203 0.63795 0.0
C1943 C 0.26927 0.32221 0.65109 0.0
C1944 C 0.26755 0.30973 0.67106 0.0
C1945 C 0.28303 0.30698 0.67746 0.0
C1946 C 0.21998 0.30823 0.62399 0.0
C1947 C 0.22364 0.32576 0.6132 0.0
C1948 C 0.23431 0.3073 0.63833 0.0
C1949 C 0.2525 0.32391 0.64214 0.0
C1950 C 0.25525 0.34178 0.63381 0.0
C1951 C 0.24098 0.34269 0.61941 0.0
H1952 H 0.71845 0.99038 0.68897 0.0
H1953 H 0.68337 0.98858 0.62475 0.0
H1954 H 0.71351 0.95873 0.67643 0.0
H1955 H 0.67861 0.9572 0.6121 0.0
H1956 H 0.72265 0.91866 0.61757 0.0
H1957 H 0.7239 0.9457 0.64101 0.0
H1958 H 0.6634 0.92337 0.62443 0.0
H1959 H 0.66227 0.89646 0.60077 0.0
C1960 C 0.70958 0.98317 0.67228 0.0
C1961 C 0.70135 0.992 0.65777 0.0
C1962 C 0.7068 0.96507 0.66508 0.0
C1963 C 0.69559 0.95537 0.64334 0.0
C1964 C 0.68704 0.96408 0.62922 0.0
C1965 C 0.6899 0.98217 0.63633 0.0
C1966 C 0.70945 0.91913 0.61981 0.0
C1967 C 0.6924 0.90555 0.60717 0.0
C1968 C 0.71017 0.93469 0.63314 0.0
C1969 C 0.69384 0.93693 0.6341 0.0
C1970 C 0.67634 0.92232 0.62352 0.0
C1971 C 0.67564 0.90681 0.61019 0.0
H1972 H 0.02157 0.71971 0.61671 0.0
H1973 H 0.04087 0.73386 0.69533 0.0
H1974 H 0.05153 0.74751 0.60241 0.0
H1975 H 0.07128 0.76167 0.68079 0.0
H1976 H 0.12978 0.78807 0.62762 0.0
H1977 H 0.10068 0.76549 0.65105 0.0
H1978 H 0.06762 0.78513 0.6084 0.0
H1979 H 0.09664 0.8079 0.58544 0.0
C1980 C 0.03225 0.72875 0.63094 0.0
C1981 C 0.02888 0.72463 0.65713 0.0
C1982 C 0.04934 0.74474 0.62276 0.0
C1983 C 0.06362 0.75682 0.64053 0.0
C1984 C 0.06045 0.7526 0.66674 0.0
C1985 C 0.04309 0.73675 0.67501 0.0
C1986 C 0.11648 0.78813 0.62404 0.0
C1987 C 0.11542 0.79957 0.60447 0.0
C1988 C 0.09981 0.77513 0.63734 0.0
C1989 C 0.08188 0.77334 0.63112 0.0
C1990 C 0.08122 0.78603 0.61325 0.0
C1991 C 0.09784 0.79909 0.6002 0.0
H1992 H 0.01413 0.64926 0.71162 0.0
H1993 H 0.95851 0.60916 0.67847 0.0
H1994 H 0.01823 0.62237 0.72479 0.0
H1995 H 0.96261 0.58216 0.69173 0.0
H1996 H 0.96771 0.54607 0.7605 0.0
H1997 H 0.96318 0.56899 0.73501 0.0
H1998 H 0.02206 0.59486 0.70898 0.0
H1999 H 0.02653 0.57186 0.7346 0.0
C2000 C 1.00288 0.6347 0.70687 0.0
C2001 C 0.98594 0.63131 0.69418 0.0
C2002 C 1.0053 0.61928 0.71422 0.0
C2003 C 0.99075 0.60012 0.70926 0.0
C2004 C 0.97403 0.59676 0.6959 0.0
C2005 C 0.97171 0.61221 0.68829 0.0
C2006 C 0.97944 0.55624 0.74861 0.0
C2007 C 0.99745 0.55722 0.74948 0.0
C2008 C 0.97688 0.56937 0.73401 0.0
C2009 C 0.99235 0.58389 0.72023 0.0
C2010 C 0.00995 0.58396 0.71963 0.0
C2011 C 0.01244 0.57066 0.73403 0.0
H2012 H 0.41095 0.34707 0.71573 0.0
H2013 H 0.38672 0.3777 0.67717 0.0
H2014 H 0.43819 0.37761 0.73028 0.0
H2015 H 0.41429 0.40838 0.69112 0.0
H2016 H 0.44876 0.45296 0.7563 0.0
H2017 H 0.42514 0.4256 0.73092 0.0
H2018 H 0.46688 0.4072 0.71931 0.0
H2019 H 0.49028 0.43427 0.74562 0.0
C2020 C 0.41162 0.36036 0.71001 0.0
C2021 C 0.39661 0.35997 0.69552 0.0
C2022 C 0.42734 0.37792 0.71816 0.0
C2023 C 0.42848 0.39553 0.71192 0.0
C2024 C 0.41378 0.39511 0.69657 0.0
C2025 C 0.398 0.37753 0.6885 0.0
C2026 C 0.45301 0.44329 0.74784 0.0
C2027 C 0.47129 0.44565 0.75319 0.0
C2028 C 0.4395 0.42763 0.73315 0.0
C2029 C 0.44397 0.41397 0.72338 0.0
C2030 C 0.46282 0.41723 0.72699 0.0
C2031 C 0.47635 0.43291 0.74174 0.0
H2032 H 0.64835 0.01134 0.71282 0.0
H2033 H 0.65996 0.06206 0.67024 0.0
H2034 H 0.61666 0.00634 0.72435 0.0
H2035 H 0.62826 0.05725 0.68231 0.0
H2036 H 0.58692 0.0533 0.75318 0.0
H2037 H 0.61487 0.05874 0.72791 0.0
H2038 H 0.58405 0.99918 0.70305 0.0
H2039 H 0.55599 0.9939 0.72798 0.0
C2040 C 0.64405 0.02133 0.70577 0.0
C2041 C 0.65663 0.03712 0.69073 0.0
C2042 C 0.62585 0.01838 0.71218 0.0
C2043 C 0.61997 0.03135 0.70407 0.0
C2044 C 0.63243 0.04701 0.68872 0.0
C2045 C 0.65052 0.04974 0.68184 0.0
C2046 C 0.58585 0.04167 0.7413 0.0
C2047 C 0.56931 0.02325 0.74226 0.0
C2048 C 0.60184 0.04473 0.72695 0.0
C2049 C 0.60166 0.02931 0.71378 0.0
C2050 C 0.58457 0.01127 0.71315 0.0
C2051 C 0.56846 0.00831 0.72714 0.0
loop_
_geom_bond_atom_site_label_1
_geom_bond_atom_site_label_2
_geom_bond_distance
_geom_bond_site_symmetry_2
_ccdc_geom_bond_type
In0 O1 2.294 1_455 S
In0 O2 2.326 . S
In0 O6 2.266 1_455 S
In0 O7 2.326 1_454 S
In0 O8 2.266 1_554 S
In0 O9 2.326 1_454 S
In0 O11 2.294 . S
In0 O12 2.326 . S
O1 In0 2.294 1_655 S
O1 C10 1.240 1_655 S
O2 In0 2.326 . S
O2 C10 1.252 . S
C3 O6 1.252 1_556 S
C3 O7 1.260 . S
C4 O11 1.240 . S
C4 O12 1.252 . S
C5 O8 1.252 . S
C5 O9 1.260 1_455 S
O6 In0 2.266 1_655 S
O6 C3 1.252 1_554 S
O7 In0 2.326 1_656 S
O7 C3 1.260 . S
O8 In0 2.266 1_556 S
O8 C5 1.252 . S
O9 In0 2.326 1_656 S
O9 C5 1.260 1_655 S
C10 O1 1.240 1_455 S
C10 O2 1.252 . S
O11 In0 2.294 . S
O11 C4 1.240 . S
O12 In0 2.326 . S
O12 C4 1.252 . S
In13 O14 2.294 . S
In13 O15 2.326 . S
In13 O19 2.266 . S
In13 O20 2.326 1_554 S
In13 O21 2.266 1_554 S
In13 O22 2.326 1_554 S
In13 O24 2.294 . S
In13 O25 2.326 . S
O14 In13 2.294 . S
O14 C23 1.240 . S
O15 In13 2.326 . S
O15 C23 1.252 . S
C16 O19 1.252 1_556 S
C16 O20 1.260 . S
C17 O24 1.240 . S
C17 O25 1.252 . S
C18 O21 1.252 . S
C18 O22 1.260 . S
O19 In13 2.266 . S
O19 C16 1.252 1_554 S
O20 In13 2.326 1_556 S
O20 C16 1.260 . S
O21 In13 2.266 1_556 S
O21 C18 1.252 . S
O22 In13 2.326 1_556 S
O22 C18 1.260 . S
C23 O14 1.240 . S
C23 O15 1.252 . S
O24 In13 2.294 . S
O24 C17 1.240 . S
O25 In13 2.326 . S
O25 C17 1.252 . S
In26 O27 2.294 . S
In26 O28 2.326 1_554 S
In26 O32 2.266 . S
In26 O33 2.326 1_545 S
In26 O34 2.266 1_545 S
In26 O35 2.326 1_545 S
In26 O37 2.294 1_544 S
In26 O38 2.326 1_554 S
O27 In26 2.294 . S
O27 C36 1.240 1_554 S
O28 In26 2.326 1_556 S
O28 C36 1.252 . S
C29 O32 1.252 . S
C29 O33 1.260 1_545 S
C30 O37 1.240 1_545 S
C30 O38 1.252 . S
C31 O34 1.252 . S
C31 O35 1.260 . S
O32 In26 2.266 . S
O32 C29 1.252 . S
O33 In26 2.326 1_565 S
O33 C29 1.260 1_565 S
O34 In26 2.266 1_565 S
O34 C31 1.252 . S
O35 In26 2.326 1_565 S
O35 C31 1.260 . S
C36 O27 1.240 1_556 S
C36 O28 1.252 . S
O37 In26 2.294 1_566 S
O37 C30 1.240 1_565 S
O38 In26 2.326 1_556 S
O38 C30 1.252 . S
In39 O40 2.294 1_554 S
In39 O41 2.326 1_454 S
In39 O45 2.266 . S
In39 O46 2.326 . S
In39 O47 2.266 1_455 S
In39 O48 2.326 . S
In39 O50 2.294 1_455 S
In39 O51 2.326 1_454 S
O40 In39 2.294 1_556 S
O40 C49 1.240 . S
O41 In39 2.326 1_656 S
O41 C49 1.252 1_655 S
C42 O45 1.252 . S
C42 O46 1.260 . S
C43 O50 1.240 1_556 S
C43 O51 1.252 . S
C44 O47 1.252 1_455 S
C44 O48 1.260 . S
O45 In39 2.266 . S
O45 C42 1.252 . S
O46 In39 2.326 . S
O46 C42 1.260 . S
O47 In39 2.266 1_655 S
O47 C44 1.252 1_655 S
O48 In39 2.326 . S
O48 C44 1.260 . S
C49 O40 1.240 . S
C49 O41 1.252 1_455 S
O50 In39 2.294 1_655 S
O50 C43 1.240 1_554 S
O51 In39 2.326 1_656 S
O51 C43 1.252 . S
In52 O53 2.294 1_554 S
In52 O54 2.326 1_554 S
In52 O58 2.266 . S
In52 O59 2.326 . S
In52 O60 2.266 . S
In52 O61 2.326 . S
In52 O63 2.294 . S
In52 O64 2.326 1_554 S
O53 In52 2.294 1_556 S
O53 C62 1.240 . S
O54 In52 2.326 1_556 S
O54 C62 1.252 . S
C55 O58 1.252 . S
C55 O59 1.260 . S
C56 O63 1.240 1_556 S
C56 O64 1.252 . S
C57 O60 1.252 . S
C57 O61 1.260 . S
O58 In52 2.266 . S
O58 C55 1.252 . S
O59 In52 2.326 . S
O59 C55 1.260 . S
O60 In52 2.266 . S
O60 C57 1.252 . S
O61 In52 2.326 . S
O61 C57 1.260 . S
C62 O53 1.240 . S
C62 O54 1.252 . S
O63 In52 2.294 . S
O63 C56 1.240 1_554 S
O64 In52 2.326 1_556 S
O64 C56 1.252 . S
In65 O66 2.294 . S
In65 O67 2.326 1_545 S
In65 O71 2.266 . S
In65 O72 2.326 1_554 S
In65 O73 2.266 1_544 S
In65 O74 2.326 1_554 S
In65 O76 2.294 1_545 S
In65 O77 2.326 1_545 S
O66 In65 2.294 . S
O66 C75 1.240 . S
O67 In65 2.326 1_565 S
O67 C75 1.252 1_565 S
C68 O71 1.252 1_556 S
C68 O72 1.260 . S
C69 O76 1.240 . S
C69 O77 1.252 . S
C70 O73 1.252 1_545 S
C70 O74 1.260 . S
O71 In65 2.266 . S
O71 C68 1.252 1_554 S
O72 In65 2.326 1_556 S
O72 C68 1.260 . S
O73 In65 2.266 1_566 S
O73 C70 1.252 1_565 S
O74 In65 2.326 1_556 S
O74 C70 1.260 . S
C75 O66 1.240 . S
C75 O67 1.252 1_545 S
O76 In65 2.294 1_565 S
O76 C69 1.240 . S
O77 In65 2.326 1_565 S
O77 C69 1.252 . S
In78 O79 2.294 . S
In78 O80 2.326 . S
In78 O84 2.266 . S
In78 O85 2.326 . S
In78 O86 2.266 . S
In78 O87 2.326 . S
In78 O89 2.294 . S
In78 O90 2.326 . S
O79 In78 2.294 . S
O79 C88 1.240 . S
O80 In78 2.326 . S
O80 C88 1.252 . S
C81 O84 1.252 . S
C81 O85 1.260 . S
C82 O89 1.240 . S
C82 O90 1.252 . S
C83 O86 1.252 . S
C83 O87 1.260 . S
O84 In78 2.266 . S
O84 C81 1.252 . S
O85 In78 2.326 . S
O85 C81 1.260 . S
O86 In78 2.266 . S
O86 C83 1.252 . S
O87 In78 2.326 . S
O87 C83 1.260 . S
C88 O79 1.240 . S
C88 O80 1.252 . S
O89 In78 2.294 . S
O89 C82 1.240 . S
O90 In78 2.326 . S
O90 C82 1.252 . S
In91 O92 2.294 . S
In91 O93 2.326 . S
In91 O97 2.266 . S
In91 O98 2.322 1_565 S
In91 O99 2.266 . S
In91 O100 2.326 . S
In91 O102 2.294 1_565 S
In91 O103 2.326 1_565 S
O92 In91 2.294 . S
O92 C101 1.240 . S
O93 In91 2.326 . S
O93 C101 1.252 . S
C94 O97 1.252 . S
C94 O98 1.215 1_565 S
C95 O102 1.240 . S
C95 O103 1.252 . S
C96 O99 1.252 . S
C96 O100 1.260 . S
O97 In91 2.266 . S
O97 C94 1.252 . S
O98 In91 2.322 1_545 S
O98 C94 1.215 1_545 S
O99 In91 2.266 . S
O99 C96 1.252 . S
O100 In91 2.326 . S
O100 C96 1.260 . S
C101 O92 1.240 . S
C101 O93 1.252 . S
O102 In91 2.294 1_545 S
O102 C95 1.240 . S
O103 In91 2.326 1_545 S
O103 C95 1.252 . S
In104 O105 2.294 . S
In104 O106 2.326 . S
In104 O110 2.266 . S
In104 O111 2.326 . S
In104 O112 2.266 . S
In104 O113 2.326 . S
In104 O115 2.294 . S
In104 O116 2.326 . S
O105 In104 2.294 . S
O105 C114 1.240 . S
O106 In104 2.326 . S
O106 C114 1.252 . S
C107 O110 1.252 . S
C107 O111 1.260 . S
C108 O115 1.240 . S
C108 O116 1.252 . S
C109 O112 1.252 1_655 S
C109 O113 1.260 1_655 S
O110 In104 2.266 . S
O110 C107 1.252 . S
O111 In104 2.326 . S
O111 C107 1.260 . S
O112 In104 2.266 . S
O112 C109 1.252 1_455 S
O113 In104 2.326 . S
O113 C109 1.260 1_455 S
C114 O105 1.240 . S
C114 O106 1.252 . S
O115 In104 2.294 . S
O115 C108 1.240 . S
O116 In104 2.326 . S
O116 C108 1.252 . S
In117 O118 2.294 . S
In117 O119 2.326 . S
In117 O123 2.266 1_565 S
In117 O124 2.326 1_565 S
In117 O125 2.266 . S
In117 O126 2.326 . S
In117 O128 2.294 . S
In117 O129 2.342 . S
O118 In117 2.294 . S
O118 C127 1.240 . S
O119 In117 2.326 . S
O119 C127 1.252 . S
C120 O123 1.252 . S
C120 O124 1.260 . S
C121 O128 1.240 . S
C121 O129 1.252 . S
C122 O125 1.252 . S
C122 O126 1.260 . S
O123 In117 2.266 1_545 S
O123 C120 1.252 . S
O124 In117 2.326 1_545 S
O124 C120 1.260 . S
O125 In117 2.266 . S
O125 C122 1.252 . S
O126 In117 2.326 . S
O126 C122 1.260 . S
C127 O118 1.240 . S
C127 O119 1.252 . S
O128 In117 2.294 . S
O128 C121 1.240 . S
O129 In117 2.342 . S
O129 C121 1.252 . S
In130 O131 2.294 . S
In130 O132 2.326 . S
In130 O136 2.329 . S
In130 O137 2.326 . S
In130 O138 2.266 . S
In130 O139 2.326 . S
In130 O141 2.294 . S
In130 O142 2.326 . S
O131 In130 2.294 . S
O131 C140 1.240 . S
O132 In130 2.326 . S
O132 C140 1.252 . S
C133 O136 1.247 1_655 S
C133 O137 1.260 1_655 S
C134 O141 1.240 . S
C134 O142 1.252 . S
C135 O138 1.252 . S
C135 O139 1.260 . S
O136 In130 2.329 . S
O136 C133 1.247 1_455 S
O137 In130 2.326 . S
O137 C133 1.260 1_455 S
O138 In130 2.266 . S
O138 C135 1.252 . S
O139 In130 2.326 . S
O139 C135 1.260 . S
C140 O131 1.240 . S
C140 O132 1.252 . S
O141 In130 2.294 . S
O141 C134 1.240 . S
O142 In130 2.326 . S
O142 C134 1.252 . S
In143 O144 2.294 . S
In143 O145 2.326 . S
In143 O149 2.266 . S
In143 O150 2.326 . S
In143 O151 2.266 . S
In143 O152 2.326 . S
In143 O154 2.294 . S
In143 O155 2.326 . S
O144 In143 2.294 . S
O144 C153 1.240 . S
O145 In143 2.326 . S
O145 C153 1.252 . S
C146 O149 1.252 . S
C146 O150 1.260 . S
C147 O154 1.240 . S
C147 O155 1.252 . S
C148 O151 1.252 . S
C148 O152 1.260 . S
O149 In143 2.266 . S
O149 C146 1.252 . S
O150 In143 2.326 . S
O150 C146 1.260 . S
O151 In143 2.266 . S
O151 C148 1.252 . S
O152 In143 2.326 . S
O152 C148 1.260 . S
C153 O144 1.240 . S
C153 O145 1.252 . S
O154 In143 2.294 . S
O154 C147 1.240 . S
O155 In143 2.326 . S
O155 C147 1.252 . S
In156 O157 2.294 . S
In156 O158 2.326 . S
In156 O162 2.266 . S
In156 O163 2.326 . S
In156 O164 2.266 . S
In156 O165 2.326 . S
In156 O167 2.294 . S
In156 O168 2.326 . S
O157 In156 2.294 . S
O157 C166 1.240 . S
O158 In156 2.326 . S
O158 C166 1.252 . S
C159 O162 1.252 . S
C159 O163 1.260 . S
C160 O167 1.240 . S
C160 O168 1.252 . S
C161 O164 1.252 1_565 S
C161 O165 1.260 1_565 S
O162 In156 2.266 . S
O162 C159 1.252 . S
O163 In156 2.326 . S
O163 C159 1.260 . S
O164 In156 2.266 . S
O164 C161 1.252 1_545 S
O165 In156 2.326 . S
O165 C161 1.260 1_545 S
C166 O157 1.240 . S
C166 O158 1.252 . S
O167 In156 2.294 . S
O167 C160 1.240 . S
O168 In156 2.326 . S
O168 C160 1.252 . S
In169 O170 2.294 . S
In169 O171 2.327 . S
In169 O175 2.266 . S
In169 O176 2.326 . S
In169 O177 2.266 1_655 S
In169 O178 2.326 1_655 S
In169 O180 2.294 . S
In169 O181 2.326 . S
O170 In169 2.294 . S
O170 C179 1.240 . S
O171 In169 2.327 . S
O171 C179 1.267 . S
C172 O175 1.252 . S
C172 O176 1.260 . S
C173 O180 1.240 . S
C173 O181 1.252 . S
C174 O177 1.252 . S
C174 O178 1.260 . S
O175 In169 2.266 . S
O175 C172 1.252 . S
O176 In169 2.326 . S
O176 C172 1.260 . S
O177 In169 2.266 1_455 S
O177 C174 1.252 . S
O178 In169 2.326 1_455 S
O178 C174 1.260 . S
C179 O170 1.240 . S
C179 O171 1.267 . S
O180 In169 2.294 . S
O180 C173 1.240 . S
O181 In169 2.326 . S
O181 C173 1.252 . S
In182 O183 2.294 . S
In182 O184 2.326 . S
In182 O188 2.266 . S
In182 O189 2.326 . S
In182 O190 2.266 . S
In182 O191 2.326 . S
In182 O193 2.294 . S
In182 O194 2.326 . S
O183 In182 2.294 . S
O183 C192 1.240 . S
O184 In182 2.326 . S
O184 C192 1.252 . S
C185 O188 1.252 . S
C185 O189 1.260 . S
C186 O193 1.240 . S
C186 O194 1.252 . S
C187 O190 1.252 . S
C187 O191 1.260 . S
O188 In182 2.266 . S
O188 C185 1.252 . S
O189 In182 2.326 . S
O189 C185 1.260 . S
O190 In182 2.266 . S
O190 C187 1.252 . S
O191 In182 2.326 . S
O191 C187 1.260 . S
C192 O183 1.240 . S
C192 O184 1.252 . S
O193 In182 2.294 . S
O193 C186 1.240 . S
O194 In182 2.326 . S
O194 C186 1.252 . S
In195 O196 2.294 . S
In195 O197 2.326 . S
In195 O201 2.266 . S
In195 O202 2.326 . S
In195 O203 2.266 . S
In195 O204 2.326 . S
In195 O206 2.294 . S
In195 O207 2.326 . S
O196 In195 2.294 . S
O196 C205 1.240 . S
O197 In195 2.326 . S
O197 C205 1.252 . S
C198 O201 1.252 . S
C198 O202 1.260 . S
C199 O206 1.240 . S
C199 O207 1.252 . S
C200 O203 1.252 . S
C200 O204 1.260 . S
O201 In195 2.266 . S
O201 C198 1.252 . S
O202 In195 2.326 . S
O202 C198 1.260 . S
O203 In195 2.266 . S
O203 C200 1.252 . S
O204 In195 2.326 . S
O204 C200 1.260 . S
C205 O196 1.240 . S
C205 O197 1.252 . S
O206 In195 2.294 . S
O206 C199 1.240 . S
O207 In195 2.326 . S
O207 C199 1.252 . S
In208 O209 2.294 . S
In208 O210 2.326 . S
In208 O214 2.266 . S
In208 O215 2.326 . S
In208 O216 2.266 . S
In208 O217 2.326 . S
In208 O219 2.312 . S
In208 O220 2.326 . S
O209 In208 2.294 . S
O209 C218 1.240 . S
O210 In208 2.326 . S
O210 C218 1.252 . S
C211 O214 1.252 . S
C211 O215 1.260 . S
C212 O219 1.238 1_565 S
C212 O220 1.252 1_565 S
C213 O216 1.252 . S
C213 O217 1.260 . S
O214 In208 2.266 . S
O214 C211 1.252 . S
O215 In208 2.326 . S
O215 C211 1.260 . S
O216 In208 2.266 . S
O216 C213 1.252 . S
O217 In208 2.326 . S
O217 C213 1.260 . S
C218 O209 1.240 . S
C218 O210 1.252 . S
O219 In208 2.312 . S
O219 C212 1.238 1_545 S
O220 In208 2.326 . S
O220 C212 1.252 1_545 S
In221 O222 2.294 . S
In221 O223 2.357 . S
In221 O227 2.266 . S
In221 O228 2.326 . S
In221 O229 2.266 1_655 S
In221 O230 2.326 1_655 S
In221 O232 2.294 . S
In221 O233 2.326 . S
O222 In221 2.294 . S
O222 C231 1.240 . S
O223 In221 2.357 . S
O223 C231 1.251 . S
C224 O227 1.252 . S
C224 O228 1.260 . S
C225 O232 1.240 . S
C225 O233 1.252 . S
C226 O229 1.252 . S
C226 O230 1.260 . S
O227 In221 2.266 . S
O227 C224 1.252 . S
O228 In221 2.326 . S
O228 C224 1.260 . S
O229 In221 2.266 1_455 S
O229 C226 1.252 . S
O230 In221 2.326 1_455 S
O230 C226 1.260 . S
C231 O222 1.240 . S
C231 O223 1.251 . S
O232 In221 2.294 . S
O232 C225 1.240 . S
O233 In221 2.326 . S
O233 C225 1.252 . S
H234 C242 0.930 . S
H235 C245 0.930 . S
H236 C247 0.930 . S
H237 C248 0.970 . S
H238 C248 0.970 . S
H239 C250 0.930 . S
H240 C252 0.930 . S
H241 C254 0.930 . S
C242 H234 0.930 . S
C242 C243 1.382 . S
C242 C244 1.426 . S
C243 C242 1.382 . S
C243 C247 1.389 . S
C244 C242 1.426 . S
C244 C245 1.375 . S
C244 C248 1.532 . S
C245 H235 0.930 . S
C245 C244 1.375 . S
C245 C246 1.416 . S
C246 C245 1.416 . S
C246 C247 1.371 . S
C247 H236 0.930 . S
C247 C243 1.389 . S
C247 C246 1.371 . S
C248 H237 0.970 . S
C248 H238 0.970 . S
C248 C244 1.532 . S
C248 C249 1.499 . S
C249 C248 1.499 . S
C249 C250 1.370 . S
C249 C254 1.415 . S
C250 H239 0.930 . S
C250 C249 1.370 . S
C250 C251 1.407 . S
C251 C250 1.407 . S
C251 C252 1.365 . S
C252 H240 0.930 . S
C252 C251 1.365 . S
C252 C253 1.393 . S
C253 C252 1.393 . S
C253 C254 1.387 . S
C254 H241 0.930 . S
C254 C249 1.415 . S
C254 C253 1.387 . S
H255 C263 0.930 . S
H256 C266 0.930 . S
H257 C268 0.930 . S
H258 C269 0.970 . S
H259 C269 0.970 . S
H260 C271 0.930 . S
H261 C273 0.930 . S
H262 C275 0.930 . S
C263 H255 0.930 . S
C263 C264 1.382 . S
C263 C265 1.426 . S
C264 C263 1.382 . S
C264 C268 1.389 . S
C265 C263 1.426 . S
C265 C266 1.375 . S
C265 C269 1.532 . S
C266 H256 0.930 . S
C266 C265 1.375 . S
C266 C267 1.416 . S
C267 C266 1.416 . S
C267 C268 1.371 . S
C268 H257 0.930 . S
C268 C264 1.389 . S
C268 C267 1.371 . S
C269 H258 0.970 . S
C269 H259 0.970 . S
C269 C265 1.532 . S
C269 C270 1.499 . S
C270 C269 1.499 . S
C270 C271 1.370 . S
C270 C275 1.415 . S
C271 H260 0.930 . S
C271 C270 1.370 . S
C271 C272 1.407 . S
C272 C271 1.407 . S
C272 C273 1.365 . S
C273 H261 0.930 . S
C273 C272 1.365 . S
C273 C274 1.393 . S
C274 C273 1.393 . S
C274 C275 1.387 . S
C275 H262 0.930 . S
C275 C270 1.415 . S
C275 C274 1.387 . S
H276 C284 0.930 . S
H277 C287 0.930 . S
H278 C289 0.930 . S
H279 C290 0.970 . S
H280 C290 0.970 . S
H281 C292 0.930 . S
H282 C294 0.930 . S
H283 C296 0.930 . S
C284 H276 0.930 . S
C284 C285 1.382 . S
C284 C286 1.426 . S
C285 C284 1.382 . S
C285 C289 1.389 . S
C286 C284 1.426 . S
C286 C287 1.375 . S
C286 C290 1.532 . S
C287 H277 0.930 . S
C287 C286 1.375 . S
C287 C288 1.416 . S
C288 C287 1.416 . S
C288 C289 1.371 . S
C289 H278 0.930 . S
C289 C285 1.389 . S
C289 C288 1.371 . S
C290 H279 0.970 . S
C290 H280 0.970 . S
C290 C286 1.532 . S
C290 C291 1.499 . S
C291 C290 1.499 . S
C291 C292 1.370 . S
C291 C296 1.415 . S
C292 H281 0.930 . S
C292 C291 1.370 . S
C292 C293 1.407 . S
C293 C292 1.407 . S
C293 C294 1.365 . S
C294 H282 0.930 . S
C294 C293 1.365 . S
C294 C295 1.393 . S
C295 C294 1.393 . S
C295 C296 1.387 . S
C296 H283 0.930 . S
C296 C291 1.415 . S
C296 C295 1.387 . S
H297 C305 0.930 . S
H298 C308 0.930 . S
H299 C310 0.930 . S
H300 C311 0.970 . S
H301 C311 0.970 . S
H302 C313 0.930 . S
H303 C315 0.930 . S
H304 C317 0.930 . S
C305 H297 0.930 . S
C305 C306 1.382 . S
C305 C307 1.426 . S
C306 C305 1.382 . S
C306 C310 1.389 . S
C307 C305 1.426 . S
C307 C308 1.375 . S
C307 C311 1.532 . S
C308 H298 0.930 . S
C308 C307 1.375 . S
C308 C309 1.416 . S
C309 C308 1.416 . S
C309 C310 1.371 . S
C310 H299 0.930 . S
C310 C306 1.389 . S
C310 C309 1.371 . S
C311 H300 0.970 . S
C311 H301 0.970 . S
C311 C307 1.532 . S
C311 C312 1.499 . S
C312 C311 1.499 . S
C312 C313 1.370 . S
C312 C317 1.415 . S
C313 H302 0.930 . S
C313 C312 1.370 . S
C313 C314 1.407 . S
C314 C313 1.407 . S
C314 C315 1.365 . S
C315 H303 0.930 . S
C315 C314 1.365 . S
C315 C316 1.393 . S
C316 C315 1.393 . S
C316 C317 1.387 . S
C317 H304 0.930 . S
C317 C312 1.415 . S
C317 C316 1.387 . S
H318 C326 0.930 . S
H319 C329 0.930 . S
H320 C331 0.930 . S
H321 C332 0.970 . S
H322 C332 0.970 . S
H323 C334 0.930 . S
H324 C336 0.930 . S
H325 C338 0.930 . S
C326 H318 0.930 . S
C326 C327 1.382 . S
C326 C328 1.426 . S
C327 C326 1.382 . S
C327 C331 1.389 . S
C328 C326 1.426 . S
C328 C329 1.375 . S
C328 C332 1.532 . S
C329 H319 0.930 . S
C329 C328 1.375 . S
C329 C330 1.416 . S
C330 C329 1.416 . S
C330 C331 1.371 . S
C331 H320 0.930 . S
C331 C327 1.389 . S
C331 C330 1.371 . S
C332 H321 0.970 . S
C332 H322 0.970 . S
C332 C328 1.532 . S
C332 C333 1.499 . S
C333 C332 1.499 . S
C333 C334 1.370 . S
C333 C338 1.415 . S
C334 H323 0.930 . S
C334 C333 1.370 . S
C334 C335 1.407 . S
C335 C334 1.407 . S
C335 C336 1.365 . S
C336 H324 0.930 . S
C336 C335 1.365 . S
C336 C337 1.393 . S
C337 C336 1.393 . S
C337 C338 1.387 . S
C338 H325 0.930 . S
C338 C333 1.415 . S
C338 C337 1.387 . S
H339 C347 0.930 . S
H340 C350 0.930 . S
H341 C352 0.930 . S
H342 C353 0.970 . S
H343 C353 0.970 . S
H344 C355 0.930 . S
H345 C357 0.930 . S
H346 C359 0.930 . S
C347 H339 0.930 . S
C347 C348 1.382 . S
C347 C349 1.426 . S
C348 C347 1.382 . S
C348 C352 1.389 . S
C349 C347 1.426 . S
C349 C350 1.375 . S
C349 C353 1.532 . S
C350 H340 0.930 . S
C350 C349 1.375 . S
C350 C351 1.416 . S
C351 C350 1.416 . S
C351 C352 1.371 . S
C352 H341 0.930 . S
C352 C348 1.389 . S
C352 C351 1.371 . S
C353 H342 0.970 . S
C353 H343 0.970 . S
C353 C349 1.532 . S
C353 C354 1.499 . S
C354 C353 1.499 . S
C354 C355 1.370 . S
C354 C359 1.415 . S
C355 H344 0.930 . S
C355 C354 1.370 . S
C355 C356 1.407 . S
C356 C355 1.407 . S
C356 C357 1.365 . S
C357 H345 0.930 . S
C357 C356 1.365 . S
C357 C358 1.393 . S
C358 C357 1.393 . S
C358 C359 1.387 . S
C359 H346 0.930 . S
C359 C354 1.415 . S
C359 C358 1.387 . S
H360 C368 0.930 . S
H361 C371 0.930 . S
H362 C373 0.930 . S
H363 C374 0.970 . S
H364 C374 0.970 . S
H365 C376 0.930 . S
H366 C378 0.930 . S
H367 C380 0.930 . S
C368 H360 0.930 . S
C368 C369 1.382 . S
C368 C370 1.426 . S
C369 C368 1.382 . S
C369 C373 1.389 . S
C370 C368 1.426 . S
C370 C371 1.375 . S
C370 C374 1.532 . S
C371 H361 0.930 . S
C371 C370 1.375 . S
C371 C372 1.416 . S
C372 C371 1.416 . S
C372 C373 1.371 . S
C373 H362 0.930 . S
C373 C369 1.389 . S
C373 C372 1.371 . S
C374 H363 0.970 . S
C374 H364 0.970 . S
C374 C370 1.532 . S
C374 C375 1.499 . S
C375 C374 1.499 . S
C375 C376 1.370 . S
C375 C380 1.415 . S
C376 H365 0.930 . S
C376 C375 1.370 . S
C376 C377 1.407 . S
C377 C376 1.407 . S
C377 C378 1.365 . S
C378 H366 0.930 . S
C378 C377 1.365 . S
C378 C379 1.393 . S
C379 C378 1.393 . S
C379 C380 1.387 . S
C380 H367 0.930 . S
C380 C375 1.415 . S
C380 C379 1.387 . S
H381 C389 0.930 . S
H382 C392 0.930 . S
H383 C394 0.930 . S
H384 C395 0.970 . S
H385 C395 0.970 . S
H386 C397 0.930 . S
H387 C399 0.930 . S
H388 C401 0.930 . S
C389 H381 0.930 . S
C389 C390 1.382 . S
C389 C391 1.426 . S
C390 C389 1.382 . S
C390 C394 1.389 . S
C391 C389 1.426 . S
C391 C392 1.375 . S
C391 C395 1.532 . S
C392 H382 0.930 . S
C392 C391 1.375 . S
C392 C393 1.416 . S
C393 C392 1.416 . S
C393 C394 1.371 . S
C394 H383 0.930 . S
C394 C390 1.389 . S
C394 C393 1.371 . S
C395 H384 0.970 . S
C395 H385 0.970 . S
C395 C391 1.532 . S
C395 C396 1.499 . S
C396 C395 1.499 . S
C396 C397 1.370 . S
C396 C401 1.415 . S
C397 H386 0.930 . S
C397 C396 1.370 . S
C397 C398 1.407 . S
C398 C397 1.407 . S
C398 C399 1.365 . S
C399 H387 0.930 . S
C399 C398 1.365 . S
C399 C400 1.393 . S
C400 C399 1.393 . S
C400 C401 1.387 . S
C401 H388 0.930 . S
C401 C396 1.415 . S
C401 C400 1.387 . S
H402 C410 0.930 . S
H403 C413 0.930 . S
H404 C415 0.930 . S
H405 C416 0.970 . S
H406 C416 0.970 . S
H407 C418 0.930 . S
H408 C420 0.930 . S
H409 C422 0.930 . S
C410 H402 0.930 . S
C410 C411 1.382 . S
C410 C412 1.426 . S
C411 C410 1.382 . S
C411 C415 1.389 . S
C412 C410 1.426 . S
C412 C413 1.375 . S
C412 C416 1.532 . S
C413 H403 0.930 . S
C413 C412 1.375 . S
C413 C414 1.416 . S
C414 C413 1.416 . S
C414 C415 1.371 . S
C415 H404 0.930 . S
C415 C411 1.389 . S
C415 C414 1.371 . S
C416 H405 0.970 . S
C416 H406 0.970 . S
C416 C412 1.532 . S
C416 C417 1.499 . S
C417 C416 1.499 . S
C417 C418 1.370 . S
C417 C422 1.415 . S
C418 H407 0.930 . S
C418 C417 1.370 . S
C418 C419 1.407 . S
C419 C418 1.407 . S
C419 C420 1.365 . S
C420 H408 0.930 . S
C420 C419 1.365 . S
C420 C421 1.393 . S
C421 C420 1.393 . S
C421 C422 1.387 . S
C422 H409 0.930 . S
C422 C417 1.415 . S
C422 C421 1.387 . S
H423 C431 0.930 . S
H424 C434 0.930 . S
H425 C436 0.930 . S
H426 C437 0.970 . S
H427 C437 0.970 . S
H428 C439 0.930 . S
H429 C441 0.930 . S
H430 C443 0.930 . S
C431 H423 0.930 . S
C431 C432 1.382 . S
C431 C433 1.426 . S
C432 C431 1.382 . S
C432 C436 1.389 . S
C433 C431 1.426 . S
C433 C434 1.375 . S
C433 C437 1.532 . S
C434 H424 0.930 . S
C434 C433 1.375 . S
C434 C435 1.416 . S
C435 C434 1.416 . S
C435 C436 1.371 . S
C436 H425 0.930 . S
C436 C432 1.389 . S
C436 C435 1.371 . S
C437 H426 0.970 . S
C437 H427 0.970 . S
C437 C433 1.532 . S
C437 C438 1.499 . S
C438 C437 1.499 . S
C438 C439 1.370 . S
C438 C443 1.415 . S
C439 H428 0.930 . S
C439 C438 1.370 . S
C439 C440 1.407 . S
C440 C439 1.407 . S
C440 C441 1.365 . S
C441 H429 0.930 . S
C441 C440 1.365 . S
C441 C442 1.393 . S
C442 C441 1.393 . S
C442 C443 1.387 . S
C443 H430 0.930 . S
C443 C438 1.415 . S
C443 C442 1.387 . S
H444 C452 0.930 . S
H445 C455 0.930 . S
H446 C457 0.930 . S
H447 C458 0.970 . S
H448 C458 0.970 . S
H449 C460 0.930 . S
H450 C462 0.930 . S
H451 C464 0.930 . S
C452 H444 0.930 . S
C452 C453 1.382 . S
C452 C454 1.426 . S
C453 C452 1.382 . S
C453 C457 1.389 . S
C454 C452 1.426 . S
C454 C455 1.375 . S
C454 C458 1.532 . S
C455 H445 0.930 . S
C455 C454 1.375 . S
C455 C456 1.416 . S
C456 C455 1.416 . S
C456 C457 1.371 . S
C457 H446 0.930 . S
C457 C453 1.389 . S
C457 C456 1.371 . S
C458 H447 0.970 . S
C458 H448 0.970 . S
C458 C454 1.532 . S
C458 C459 1.499 . S
C459 C458 1.499 . S
C459 C460 1.370 . S
C459 C464 1.415 . S
C460 H449 0.930 . S
C460 C459 1.370 . S
C460 C461 1.407 . S
C461 C460 1.407 . S
C461 C462 1.365 . S
C462 H450 0.930 . S
C462 C461 1.365 . S
C462 C463 1.393 . S
C463 C462 1.393 . S
C463 C464 1.387 . S
C464 H451 0.930 . S
C464 C459 1.415 . S
C464 C463 1.387 . S
H465 C473 0.930 . S
H466 C476 0.930 . S
H467 C478 0.930 . S
H468 C479 0.970 . S
H469 C479 0.970 . S
H470 C481 0.930 . S
H471 C483 0.930 . S
H472 C485 0.930 . S
C473 H465 0.930 . S
C473 C474 1.382 . S
C473 C475 1.426 . S
C474 C473 1.382 . S
C474 C478 1.389 1_565 S
C475 C473 1.426 . S
C475 C476 1.375 . S
C475 C479 1.532 . S
C476 H466 0.930 . S
C476 C475 1.375 . S
C476 C477 1.416 . S
C477 C476 1.416 . S
C477 C478 1.371 1_565 S
C478 H467 0.930 . S
C478 C474 1.389 1_545 S
C478 C477 1.371 1_545 S
C479 H468 0.970 . S
C479 H469 0.970 . S
C479 C475 1.532 . S
C479 C480 1.499 . S
C480 C479 1.499 . S
C480 C481 1.370 . S
C480 C485 1.415 . S
C481 H470 0.930 . S
C481 C480 1.370 . S
C481 C482 1.443 . S
C482 C481 1.443 . S
C482 C483 1.350 1_565 S
C483 H471 0.930 . S
C483 C482 1.350 1_545 S
C483 C484 1.393 1_545 S
C484 C483 1.393 1_565 S
C484 C485 1.387 . S
C485 H472 0.930 . S
C485 C480 1.415 . S
C485 C484 1.387 . S
H486 C494 0.930 . S
H487 C497 0.917 1_565 S
H488 C499 0.930 . S
H489 C500 0.970 . S
H490 C500 0.970 . S
H491 C502 0.930 . S
H492 C504 0.930 . S
H493 C506 0.930 . S
C494 H486 0.930 . S
C494 C495 1.382 1_565 S
C494 C496 1.426 . S
C495 C494 1.382 1_545 S
C495 C499 1.389 . S
C496 C494 1.426 . S
C496 C497 1.352 1_565 S
C496 C500 1.532 . S
C497 H487 0.917 1_545 S
C497 C496 1.352 1_545 S
C497 C498 1.453 . S
C498 C497 1.453 . S
C498 C499 1.371 . S
C499 H488 0.930 . S
C499 C495 1.389 . S
C499 C498 1.371 . S
C500 H489 0.970 . S
C500 H490 0.970 . S
C500 C496 1.532 . S
C500 C501 1.499 . S
C501 C500 1.499 . S
C501 C502 1.370 . S
C501 C506 1.415 . S
C502 H491 0.930 . S
C502 C501 1.370 . S
C502 C503 1.407 1_565 S
C503 C502 1.407 1_545 S
C503 C504 1.365 . S
C504 H492 0.930 . S
C504 C503 1.365 . S
C504 C505 1.393 . S
C505 C504 1.393 . S
C505 C506 1.387 1_545 S
C506 H493 0.930 . S
C506 C501 1.415 . S
C506 C505 1.387 1_565 S
H507 C515 0.930 . S
H508 C518 0.930 . S
H509 C520 0.930 . S
H510 C521 0.970 . S
H511 C521 0.970 . S
H512 C523 0.930 . S
H513 C525 0.930 . S
H514 C527 0.930 . S
C515 H507 0.930 . S
C515 C516 1.382 . S
C515 C517 1.426 . S
C516 C515 1.382 . S
C516 C520 1.389 1_455 S
C517 C515 1.426 . S
C517 C518 1.375 . S
C517 C521 1.532 . S
C518 H508 0.930 . S
C518 C517 1.375 . S
C518 C519 1.416 . S
C519 C518 1.416 . S
C519 C520 1.371 1_455 S
C520 H509 0.930 . S
C520 C516 1.389 1_655 S
C520 C519 1.371 1_655 S
C521 H510 0.970 . S
C521 H511 0.970 . S
C521 C517 1.532 . S
C521 C522 1.499 . S
C522 C521 1.499 . S
C522 C523 1.370 . S
C522 C527 1.415 . S
C523 H512 0.930 . S
C523 C522 1.370 . S
C523 C524 1.407 . S
C524 C523 1.407 . S
C524 C525 1.365 1_455 S
C525 H513 0.930 . S
C525 C524 1.365 1_655 S
C525 C526 1.393 1_655 S
C526 C525 1.393 1_455 S
C526 C527 1.387 . S
C527 H514 0.930 . S
C527 C522 1.415 . S
C527 C526 1.387 . S
H528 C536 0.930 . S
H529 C539 0.930 . S
H530 C541 0.930 . S
H531 C542 0.970 . S
H532 C542 0.970 . S
H533 C544 0.930 . S
H534 C546 0.930 . S
H535 C548 0.930 . S
C536 H528 0.930 . S
C536 C537 1.382 . S
C536 C538 1.426 . S
C537 C536 1.382 . S
C537 C541 1.389 . S
C538 C536 1.426 . S
C538 C539 1.375 . S
C538 C542 1.532 . S
C539 H529 0.930 . S
C539 C538 1.375 . S
C539 C540 1.416 . S
C540 C539 1.416 . S
C540 C541 1.371 . S
C541 H530 0.930 . S
C541 C537 1.389 . S
C541 C540 1.371 . S
C542 H531 0.970 . S
C542 H532 0.970 . S
C542 C538 1.532 . S
C542 C543 1.499 . S
C543 C542 1.499 . S
C543 C544 1.370 . S
C543 C548 1.415 . S
C544 H533 0.930 . S
C544 C543 1.370 . S
C544 C545 1.407 . S
C545 C544 1.407 . S
C545 C546 1.365 . S
C546 H534 0.930 . S
C546 C545 1.365 . S
C546 C547 1.393 . S
C547 C546 1.393 . S
C547 C548 1.387 . S
C548 H535 0.930 . S
C548 C543 1.415 . S
C548 C547 1.387 . S
H549 C557 0.930 . S
H550 C560 0.930 . S
H551 C562 0.930 . S
H552 C563 0.970 . S
H553 C563 0.970 . S
H554 C565 0.930 . S
H555 C567 0.930 . S
H556 C569 0.930 . S
C557 H549 0.930 . S
C557 C558 1.382 . S
C557 C559 1.426 . S
C558 C557 1.382 . S
C558 C562 1.389 . S
C559 C557 1.426 . S
C559 C560 1.375 . S
C559 C563 1.532 . S
C560 H550 0.930 . S
C560 C559 1.375 . S
C560 C561 1.416 . S
C561 C560 1.416 . S
C561 C562 1.371 . S
C562 H551 0.930 . S
C562 C558 1.389 . S
C562 C561 1.371 . S
C563 H552 0.970 . S
C563 H553 0.970 . S
C563 C559 1.532 . S
C563 C564 1.499 . S
C564 C563 1.499 . S
C564 C565 1.370 . S
C564 C569 1.415 . S
C565 H554 0.930 . S
C565 C564 1.370 . S
C565 C566 1.407 . S
C566 C565 1.407 . S
C566 C567 1.365 . S
C567 H555 0.930 . S
C567 C566 1.365 . S
C567 C568 1.393 . S
C568 C567 1.393 . S
C568 C569 1.387 . S
C569 H556 0.930 . S
C569 C564 1.415 . S
C569 C568 1.387 . S
H570 C578 0.930 . S
H571 C581 0.930 . S
H572 C583 0.930 . S
H573 C584 0.970 . S
H574 C584 0.970 . S
H575 C586 0.930 . S
H576 C588 0.930 . S
H577 C590 0.930 . S
C578 H570 0.930 . S
C578 C579 1.382 . S
C578 C580 1.426 . S
C579 C578 1.382 . S
C579 C583 1.389 . S
C580 C578 1.426 . S
C580 C581 1.375 . S
C580 C584 1.532 . S
C581 H571 0.930 . S
C581 C580 1.375 . S
C581 C582 1.416 . S
C582 C581 1.416 . S
C582 C583 1.371 . S
C583 H572 0.930 . S
C583 C579 1.389 . S
C583 C582 1.371 . S
C584 H573 0.970 . S
C584 H574 0.970 . S
C584 C580 1.532 . S
C584 C585 1.499 . S
C585 C584 1.499 . S
C585 C586 1.370 . S
C585 C590 1.415 . S
C586 H575 0.930 . S
C586 C585 1.370 . S
C586 C587 1.407 . S
C587 C586 1.407 . S
C587 C588 1.365 . S
C588 H576 0.930 . S
C588 C587 1.365 . S
C588 C589 1.393 . S
C589 C588 1.393 . S
C589 C590 1.387 . S
C590 H577 0.930 . S
C590 C585 1.415 . S
C590 C589 1.387 . S
H591 C599 0.930 . S
H592 C602 0.930 . S
H593 C604 0.930 . S
H594 C605 0.970 . S
H595 C605 0.970 . S
H596 C607 0.930 . S
H597 C609 0.930 . S
H598 C611 0.930 . S
C599 H591 0.930 . S
C599 C600 1.382 . S
C599 C601 1.426 . S
C600 C599 1.382 . S
C600 C604 1.389 . S
C601 C599 1.426 . S
C601 C602 1.375 . S
C601 C605 1.532 . S
C602 H592 0.930 . S
C602 C601 1.375 . S
C602 C603 1.416 . S
C603 C602 1.416 . S
C603 C604 1.371 . S
C604 H593 0.930 . S
C604 C600 1.389 . S
C604 C603 1.371 . S
C605 H594 0.970 . S
C605 H595 0.970 . S
C605 C601 1.532 . S
C605 C606 1.499 . S
C606 C605 1.499 . S
C606 C607 1.370 . S
C606 C611 1.415 . S
C607 H596 0.930 . S
C607 C606 1.370 . S
C607 C608 1.407 . S
C608 C607 1.407 . S
C608 C609 1.365 . S
C609 H597 0.930 . S
C609 C608 1.365 . S
C609 C610 1.393 . S
C610 C609 1.393 . S
C610 C611 1.387 . S
C611 H598 0.930 . S
C611 C606 1.415 . S
C611 C610 1.387 . S
H612 C620 0.950 . S
H613 C625 0.950 1_655 S
H614 C622 0.950 . S
H615 C624 0.950 1_655 S
H616 C626 0.959 . S
H617 C628 0.953 1_655 S
H618 C630 0.950 . S
H619 C631 0.950 . S
C620 H612 0.950 . S
C620 C621 1.386 . S
C620 C622 1.391 . S
C621 C620 1.386 . S
C621 C625 1.393 . S
C622 H614 0.950 . S
C622 C620 1.391 . S
C622 C623 1.400 . S
C623 C622 1.400 . S
C623 C624 1.398 . S
C623 C629 1.491 . S
C624 H615 0.950 1_455 S
C624 C623 1.398 . S
C624 C625 1.391 . S
C625 H613 0.950 1_455 S
C625 C621 1.393 . S
C625 C624 1.391 . S
C626 H616 0.959 . S
C626 C627 1.381 1_655 S
C626 C628 1.389 1_655 S
C627 C626 1.381 1_455 S
C627 C631 1.393 . S
C628 H617 0.953 1_455 S
C628 C626 1.389 1_455 S
C628 C629 1.395 . S
C629 C623 1.491 . S
C629 C628 1.395 . S
C629 C630 1.398 . S
C630 H618 0.950 . S
C630 C629 1.398 . S
C630 C631 1.391 . S
C631 H619 0.950 . S
C631 C627 1.393 . S
C631 C630 1.391 . S
H632 C640 0.950 . S
H633 C645 0.950 . S
H634 C642 0.950 . S
H635 C644 0.950 . S
H636 C646 0.950 . S
H637 C648 0.950 . S
H638 C650 0.950 . S
H639 C651 0.950 . S
C640 H632 0.950 . S
C640 C641 1.386 . S
C640 C642 1.391 . S
C641 C640 1.386 . S
C641 C645 1.393 . S
C642 H634 0.950 . S
C642 C640 1.391 . S
C642 C643 1.400 . S
C643 C642 1.400 . S
C643 C644 1.398 . S
C643 C649 1.491 . S
C644 H635 0.950 . S
C644 C643 1.398 . S
C644 C645 1.391 . S
C645 H633 0.950 . S
C645 C641 1.393 . S
C645 C644 1.391 . S
C646 H636 0.950 . S
C646 C647 1.386 . S
C646 C648 1.391 . S
C647 C646 1.386 . S
C647 C651 1.393 . S
C648 H637 0.950 . S
C648 C646 1.391 . S
C648 C649 1.400 . S
C649 C643 1.491 . S
C649 C648 1.400 . S
C649 C650 1.398 . S
C650 H638 0.950 . S
C650 C649 1.398 . S
C650 C651 1.391 . S
C651 H639 0.950 . S
C651 C647 1.393 . S
C651 C650 1.391 . S
H652 C660 0.950 . S
H653 C665 0.950 . S
H654 C662 0.950 . S
H655 C664 0.950 . S
H656 C666 0.950 . S
H657 C668 0.950 . S
H658 C670 0.950 . S
H659 C671 0.950 . S
C660 H652 0.950 . S
C660 C661 1.386 . S
C660 C662 1.391 . S
C661 C660 1.386 . S
C661 C665 1.393 . S
C662 H654 0.950 . S
C662 C660 1.391 . S
C662 C663 1.400 . S
C663 C662 1.400 . S
C663 C664 1.398 . S
C663 C669 1.491 . S
C664 H655 0.950 . S
C664 C663 1.398 . S
C664 C665 1.391 . S
C665 H653 0.950 . S
C665 C661 1.393 . S
C665 C664 1.391 . S
C666 H656 0.950 . S
C666 C667 1.386 . S
C666 C668 1.391 . S
C667 C666 1.386 . S
C667 C671 1.393 . S
C668 H657 0.950 . S
C668 C666 1.391 . S
C668 C669 1.400 . S
C669 C663 1.491 . S
C669 C668 1.400 . S
C669 C670 1.398 . S
C670 H658 0.950 . S
C670 C669 1.398 . S
C670 C671 1.391 . S
C671 H659 0.950 . S
C671 C667 1.393 . S
C671 C670 1.391 . S
H672 C680 0.950 . S
H673 C685 0.950 . S
H674 C682 0.950 . S
H675 C684 0.950 . S
H676 C686 0.950 . S
H677 C688 0.950 . S
H678 C690 0.950 . S
H679 C691 0.950 . S
C680 H672 0.950 . S
C680 C681 1.386 . S
C680 C682 1.391 . S
C681 C680 1.386 . S
C681 C685 1.393 1_545 S
C682 H674 0.950 . S
C682 C680 1.391 . S
C682 C683 1.400 . S
C683 C682 1.400 . S
C683 C684 1.398 1_545 S
C683 C689 1.491 . S
C684 H675 0.950 . S
C684 C683 1.398 1_565 S
C684 C685 1.391 . S
C685 H673 0.950 . S
C685 C681 1.393 1_565 S
C685 C684 1.391 . S
C686 H676 0.950 . S
C686 C687 1.386 1_565 S
C686 C688 1.391 . S
C687 C686 1.386 1_545 S
C687 C691 1.393 . S
C688 H677 0.950 . S
C688 C686 1.391 . S
C688 C689 1.400 1_565 S
C689 C683 1.491 . S
C689 C688 1.400 1_545 S
C689 C690 1.398 . S
C690 H678 0.950 . S
C690 C689 1.398 . S
C690 C691 1.391 . S
C691 H679 0.950 . S
C691 C687 1.393 . S
C691 C690 1.391 . S
H692 C700 0.950 . S
H693 C705 0.950 . S
H694 C702 0.950 . S
H695 C704 0.950 . S
H696 C706 0.950 . S
H697 C708 0.950 . S
H698 C710 0.950 . S
H699 C711 0.950 . S
C700 H692 0.950 . S
C700 C701 1.386 . S
C700 C702 1.391 . S
C701 C700 1.386 . S
C701 C705 1.393 1_455 S
C702 H694 0.950 . S
C702 C700 1.391 . S
C702 C703 1.400 . S
C703 C702 1.400 . S
C703 C704 1.398 1_455 S
C703 C709 1.491 . S
C704 H695 0.950 . S
C704 C703 1.398 1_655 S
C704 C705 1.391 . S
C705 H693 0.950 . S
C705 C701 1.393 1_655 S
C705 C704 1.391 . S
C706 H696 0.950 . S
C706 C707 1.386 1_655 S
C706 C708 1.391 . S
C707 C706 1.386 1_455 S
C707 C711 1.393 . S
C708 H697 0.950 . S
C708 C706 1.391 . S
C708 C709 1.400 1_655 S
C709 C703 1.491 . S
C709 C708 1.400 1_455 S
C709 C710 1.398 . S
C710 H698 0.950 . S
C710 C709 1.398 . S
C710 C711 1.391 . S
C711 H699 0.950 . S
C711 C707 1.393 . S
C711 C710 1.391 . S
H712 C720 0.950 . S
H713 C725 0.950 . S
H714 C722 0.950 . S
H715 C724 0.950 . S
H716 C726 0.950 . S
H717 C728 0.950 . S
H718 C730 0.950 . S
H719 C731 0.950 . S
C720 H712 0.950 . S
C720 C721 1.386 . S
C720 C722 1.391 . S
C721 C720 1.386 . S
C721 C725 1.393 . S
C722 H714 0.950 . S
C722 C720 1.391 . S
C722 C723 1.400 . S
C723 C722 1.400 . S
C723 C724 1.398 . S
C723 C729 1.491 . S
C724 H715 0.950 . S
C724 C723 1.398 . S
C724 C725 1.391 . S
C725 H713 0.950 . S
C725 C721 1.393 . S
C725 C724 1.391 . S
C726 H716 0.950 . S
C726 C727 1.386 . S
C726 C728 1.391 . S
C727 C726 1.386 . S
C727 C731 1.393 . S
C728 H717 0.950 . S
C728 C726 1.391 . S
C728 C729 1.400 . S
C729 C723 1.491 . S
C729 C728 1.400 . S
C729 C730 1.398 . S
C730 H718 0.950 . S
C730 C729 1.398 . S
C730 C731 1.391 . S
C731 H719 0.950 . S
C731 C727 1.393 . S
C731 C730 1.391 . S
H732 C740 0.950 . S
H733 C745 0.970 . S
H734 C742 0.950 . S
H735 C744 0.950 . S
H736 C746 0.958 . S
H737 C748 0.964 . S
H738 C750 0.950 . S
H739 C751 0.950 . S
C740 H732 0.950 . S
C740 C741 1.386 . S
C740 C742 1.391 . S
C741 C740 1.386 . S
C741 C745 1.386 1_455 S
C742 H734 0.950 . S
C742 C740 1.391 . S
C742 C743 1.400 . S
C743 C742 1.400 . S
C743 C744 1.398 1_455 S
C743 C749 1.491 . S
C744 H735 0.950 . S
C744 C743 1.398 1_655 S
C744 C745 1.378 . S
C745 H733 0.970 . S
C745 C741 1.386 1_655 S
C745 C744 1.378 . S
C746 H736 0.958 . S
C746 C747 1.364 1_655 S
C746 C748 1.396 . S
C747 C746 1.364 1_455 S
C747 C751 1.393 . S
C748 H737 0.964 . S
C748 C746 1.396 . S
C748 C749 1.396 1_655 S
C749 C743 1.491 . S
C749 C748 1.396 1_455 S
C749 C750 1.398 . S
C750 H738 0.950 . S
C750 C749 1.398 . S
C750 C751 1.391 . S
C751 H739 0.950 . S
C751 C747 1.393 . S
C751 C750 1.391 . S
H752 C760 0.950 . S
H753 C765 0.950 . S
H754 C762 0.950 . S
H755 C764 0.950 . S
H756 C766 0.950 . S
H757 C768 0.950 . S
H758 C770 0.950 . S
H759 C771 0.950 . S
C760 H752 0.950 . S
C760 C761 1.386 . S
C760 C762 1.391 . S
C761 C760 1.386 . S
C761 C765 1.393 . S
C762 H754 0.950 . S
C762 C760 1.391 . S
C762 C763 1.400 . S
C763 C762 1.400 . S
C763 C764 1.398 . S
C763 C769 1.491 . S
C764 H755 0.950 . S
C764 C763 1.398 . S
C764 C765 1.391 . S
C765 H753 0.950 . S
C765 C761 1.393 . S
C765 C764 1.391 . S
C766 H756 0.950 . S
C766 C767 1.386 . S
C766 C768 1.391 . S
C767 C766 1.386 . S
C767 C771 1.393 . S
C768 H757 0.950 . S
C768 C766 1.391 . S
C768 C769 1.400 . S
C769 C763 1.491 . S
C769 C768 1.400 . S
C769 C770 1.398 . S
C770 H758 0.950 . S
C770 C769 1.398 . S
C770 C771 1.391 . S
C771 H759 0.950 . S
C771 C767 1.393 . S
C771 C770 1.391 . S
H772 C780 0.950 . S
H773 C785 0.943 1_565 S
H774 C782 0.950 . S
H775 C784 0.955 1_565 S
H776 C786 0.950 1_565 S
H777 C788 0.950 1_565 S
H778 C790 0.950 . S
H779 C791 0.950 . S
C780 H772 0.950 . S
C780 C781 1.386 . S
C780 C782 1.391 . S
C781 C780 1.386 . S
C781 C785 1.391 . S
C782 H774 0.950 . S
C782 C780 1.391 . S
C782 C783 1.400 . S
C783 C782 1.400 . S
C783 C784 1.419 . S
C783 C789 1.491 . S
C784 H775 0.955 1_545 S
C784 C783 1.419 . S
C784 C785 1.377 . S
C785 H773 0.943 1_545 S
C785 C781 1.391 . S
C785 C784 1.377 . S
C786 H776 0.950 1_545 S
C786 C787 1.386 . S
C786 C788 1.391 . S
C787 C786 1.386 . S
C787 C791 1.393 . S
C788 H777 0.950 1_545 S
C788 C786 1.391 . S
C788 C789 1.400 . S
C789 C783 1.491 . S
C789 C788 1.400 . S
C789 C790 1.398 . S
C790 H778 0.950 . S
C790 C789 1.398 . S
C790 C791 1.391 . S
C791 H779 0.950 . S
C791 C787 1.393 . S
C791 C790 1.391 . S
H792 C800 0.950 . S
H793 C805 0.950 . S
H794 C802 0.950 . S
H795 C804 0.950 . S
H796 C806 0.950 . S
H797 C808 0.950 . S
H798 C810 0.950 . S
H799 C811 0.950 . S
C800 H792 0.950 . S
C800 C801 1.386 1_565 S
C800 C802 1.391 . S
C801 C800 1.386 1_545 S
C801 C805 1.393 . S
C802 H794 0.950 . S
C802 C800 1.391 . S
C802 C803 1.400 1_565 S
C803 C802 1.400 1_545 S
C803 C804 1.398 . S
C803 C809 1.491 . S
C804 H795 0.950 . S
C804 C803 1.398 . S
C804 C805 1.391 . S
C805 H793 0.950 . S
C805 C801 1.393 . S
C805 C804 1.391 . S
C806 H796 0.950 . S
C806 C807 1.386 . S
C806 C808 1.391 . S
C807 C806 1.386 . S
C807 C811 1.393 1_545 S
C808 H797 0.950 . S
C808 C806 1.391 . S
C808 C809 1.400 . S
C809 C803 1.491 . S
C809 C808 1.400 . S
C809 C810 1.398 1_545 S
C810 H798 0.950 . S
C810 C809 1.398 1_565 S
C810 C811 1.391 . S
C811 H799 0.950 . S
C811 C807 1.393 1_565 S
C811 C810 1.391 . S
H812 C820 0.950 . S
H813 C825 0.950 . S
H814 C822 0.950 . S
H815 C824 0.950 . S
H816 C826 0.950 . S
H817 C828 0.950 . S
H818 C830 0.950 . S
H819 C831 0.950 . S
C820 H812 0.950 . S
C820 C821 1.386 . S
C820 C822 1.391 . S
C821 C820 1.386 . S
C821 C825 1.393 1_455 S
C822 H814 0.950 . S
C822 C820 1.391 . S
C822 C823 1.400 . S
C823 C822 1.400 . S
C823 C824 1.398 1_455 S
C823 C829 1.491 . S
C824 H815 0.950 . S
C824 C823 1.398 1_655 S
C824 C825 1.391 . S
C825 H813 0.950 . S
C825 C821 1.393 1_655 S
C825 C824 1.391 . S
C826 H816 0.950 . S
C826 C827 1.386 1_655 S
C826 C828 1.391 . S
C827 C826 1.386 1_455 S
C827 C831 1.393 . S
C828 H817 0.950 . S
C828 C826 1.391 . S
C828 C829 1.400 1_655 S
C829 C823 1.491 . S
C829 C828 1.400 1_455 S
C829 C830 1.398 . S
C830 H818 0.950 . S
C830 C829 1.398 . S
C830 C831 1.391 . S
C831 H819 0.950 . S
C831 C827 1.393 . S
C831 C830 1.391 . S
H832 C840 0.950 . S
H833 C845 0.950 . S
H834 C842 0.950 . S
H835 C844 0.950 . S
H836 C846 0.950 . S
H837 C848 0.950 . S
H838 C850 0.950 . S
H839 C851 0.950 . S
C840 H832 0.950 . S
C840 C841 1.386 . S
C840 C842 1.391 . S
C841 C840 1.386 . S
C841 C845 1.393 . S
C842 H834 0.950 . S
C842 C840 1.391 . S
C842 C843 1.400 . S
C843 C842 1.400 . S
C843 C844 1.398 . S
C843 C849 1.491 . S
C844 H835 0.950 . S
C844 C843 1.398 . S
C844 C845 1.391 . S
C845 H833 0.950 . S
C845 C841 1.393 . S
C845 C844 1.391 . S
C846 H836 0.950 . S
C846 C847 1.386 . S
C846 C848 1.391 . S
C847 C846 1.386 . S
C847 C851 1.393 . S
C848 H837 0.950 . S
C848 C846 1.391 . S
C848 C849 1.400 . S
C849 C843 1.491 . S
C849 C848 1.400 . S
C849 C850 1.398 . S
C850 H838 0.950 . S
C850 C849 1.398 . S
C850 C851 1.391 . S
C851 H839 0.950 . S
C851 C847 1.393 . S
C851 C850 1.391 . S
H852 C860 0.950 . S
H853 C865 0.950 . S
H854 C862 0.950 . S
H855 C864 0.950 . S
H856 C866 0.950 . S
H857 C868 0.950 . S
H858 C870 0.950 . S
H859 C871 0.950 . S
C860 H852 0.950 . S
C860 C861 1.386 . S
C860 C862 1.391 . S
C861 C860 1.386 . S
C861 C865 1.393 . S
C862 H854 0.950 . S
C862 C860 1.391 . S
C862 C863 1.400 . S
C863 C862 1.400 . S
C863 C864 1.398 . S
C863 C869 1.491 . S
C864 H855 0.950 . S
C864 C863 1.398 . S
C864 C865 1.391 . S
C865 H853 0.950 . S
C865 C861 1.393 . S
C865 C864 1.391 . S
C866 H856 0.950 . S
C866 C867 1.386 . S
C866 C868 1.391 . S
C867 C866 1.386 . S
C867 C871 1.393 . S
C868 H857 0.950 . S
C868 C866 1.391 . S
C868 C869 1.400 . S
C869 C863 1.491 . S
C869 C868 1.400 . S
C869 C870 1.398 . S
C870 H858 0.950 . S
C870 C869 1.398 . S
C870 C871 1.391 . S
C871 H859 0.950 . S
C871 C867 1.393 . S
C871 C870 1.391 . S
H872 C880 0.950 . S
H873 C885 0.950 . S
H874 C882 0.950 . S
H875 C884 0.950 . S
H876 C886 0.950 . S
H877 C888 0.950 . S
H878 C890 0.950 . S
H879 C891 0.950 . S
C880 H872 0.950 . S
C880 C881 1.386 . S
C880 C882 1.391 . S
C881 C880 1.386 . S
C881 C885 1.393 . S
C882 H874 0.950 . S
C882 C880 1.391 . S
C882 C883 1.400 . S
C883 C882 1.400 . S
C883 C884 1.398 . S
C883 C889 1.491 . S
C884 H875 0.950 . S
C884 C883 1.398 . S
C884 C885 1.391 . S
C885 H873 0.950 . S
C885 C881 1.393 . S
C885 C884 1.391 . S
C886 H876 0.950 . S
C886 C887 1.386 . S
C886 C888 1.391 . S
C887 C886 1.386 . S
C887 C891 1.393 . S
C888 H877 0.950 . S
C888 C886 1.391 . S
C888 C889 1.400 . S
C889 C883 1.491 . S
C889 C888 1.400 . S
C889 C890 1.398 . S
C890 H878 0.950 . S
C890 C889 1.398 . S
C890 C891 1.391 . S
C891 H879 0.950 . S
C891 C887 1.393 . S
C891 C890 1.391 . S
H892 C900 0.950 . S
H893 C905 0.950 . S
H894 C902 0.950 . S
H895 C904 0.950 . S
H896 C906 0.950 . S
H897 C908 0.950 . S
H898 C910 0.950 . S
H899 C911 0.950 . S
C900 H892 0.950 . S
C900 C901 1.386 . S
C900 C902 1.391 . S
C901 C900 1.386 . S
C901 C905 1.393 . S
C902 H894 0.950 . S
C902 C900 1.391 . S
C902 C903 1.400 . S
C903 C902 1.400 . S
C903 C904 1.398 . S
C903 C909 1.491 . S
C904 H895 0.950 . S
C904 C903 1.398 . S
C904 C905 1.391 . S
C905 H893 0.950 . S
C905 C901 1.393 . S
C905 C904 1.391 . S
C906 H896 0.950 . S
C906 C907 1.386 . S
C906 C908 1.391 . S
C907 C906 1.386 . S
C907 C911 1.393 . S
C908 H897 0.950 . S
C908 C906 1.391 . S
C908 C909 1.400 . S
C909 C903 1.491 . S
C909 C908 1.400 . S
C909 C910 1.398 . S
C910 H898 0.950 . S
C910 C909 1.398 . S
C910 C911 1.391 . S
C911 H899 0.950 . S
C911 C907 1.393 . S
C911 C910 1.391 . S
H912 C920 0.950 . S
H913 C925 0.950 . S
H914 C922 0.950 . S
H915 C924 0.950 . S
H916 C926 0.950 . S
H917 C928 0.950 . S
H918 C930 0.950 . S
H919 C931 0.950 . S
C920 H912 0.950 . S
C920 C921 1.386 . S
C920 C922 1.391 . S
C921 C920 1.386 . S
C921 C925 1.393 . S
C922 H914 0.950 . S
C922 C920 1.391 . S
C922 C923 1.400 . S
C923 C922 1.400 . S
C923 C924 1.398 . S
C923 C929 1.491 . S
C924 H915 0.950 . S
C924 C923 1.398 . S
C924 C925 1.391 . S
C925 H913 0.950 . S
C925 C921 1.393 . S
C925 C924 1.391 . S
C926 H916 0.950 . S
C926 C927 1.386 . S
C926 C928 1.391 . S
C927 C926 1.386 . S
C927 C931 1.393 . S
C928 H917 0.950 . S
C928 C926 1.391 . S
C928 C929 1.400 . S
C929 C923 1.491 . S
C929 C928 1.400 . S
C929 C930 1.398 . S
C930 H918 0.950 . S
C930 C929 1.398 . S
C930 C931 1.391 . S
C931 H919 0.950 . S
C931 C927 1.393 . S
C931 C930 1.391 . S
H932 C940 0.950 . S
H933 C945 0.950 . S
H934 C942 0.950 . S
H935 C944 0.950 . S
H936 C946 0.950 . S
H937 C948 0.950 . S
H938 C950 0.950 . S
H939 C951 0.950 . S
C940 H932 0.950 . S
C940 C941 1.386 . S
C940 C942 1.391 . S
C941 C940 1.386 . S
C941 C945 1.393 . S
C942 H934 0.950 . S
C942 C940 1.391 . S
C942 C943 1.400 . S
C943 C942 1.400 . S
C943 C944 1.398 . S
C943 C949 1.491 . S
C944 H935 0.950 . S
C944 C943 1.398 . S
C944 C945 1.391 . S
C945 H933 0.950 . S
C945 C941 1.393 . S
C945 C944 1.391 . S
C946 H936 0.950 . S
C946 C947 1.386 . S
C946 C948 1.391 . S
C947 C946 1.386 . S
C947 C951 1.393 . S
C948 H937 0.950 . S
C948 C946 1.391 . S
C948 C949 1.400 . S
C949 C943 1.491 . S
C949 C948 1.400 . S
C949 C950 1.398 . S
C950 H938 0.950 . S
C950 C949 1.398 . S
C950 C951 1.391 . S
C951 H939 0.950 . S
C951 C947 1.393 . S
C951 C950 1.391 . S
H952 C960 0.950 . S
H953 C965 0.950 . S
H954 C962 0.950 . S
H955 C964 0.950 . S
H956 C966 0.950 . S
H957 C968 0.950 . S
H958 C970 0.950 . S
H959 C971 0.950 . S
C960 H952 0.950 . S
C960 C961 1.386 . S
C960 C962 1.391 . S
C961 C960 1.386 . S
C961 C965 1.393 . S
C962 H954 0.950 . S
C962 C960 1.391 . S
C962 C963 1.400 . S
C963 C962 1.400 . S
C963 C964 1.398 . S
C963 C969 1.491 . S
C964 H955 0.950 . S
C964 C963 1.398 . S
C964 C965 1.391 . S
C965 H953 0.950 . S
C965 C961 1.393 . S
C965 C964 1.391 . S
C966 H956 0.950 . S
C966 C967 1.386 . S
C966 C968 1.391 . S
C967 C966 1.386 . S
C967 C971 1.393 . S
C968 H957 0.950 . S
C968 C966 1.391 . S
C968 C969 1.400 . S
C969 C963 1.491 . S
C969 C968 1.400 . S
C969 C970 1.398 . S
C970 H958 0.950 . S
C970 C969 1.398 . S
C970 C971 1.391 . S
C971 H959 0.950 . S
C971 C967 1.393 . S
C971 C970 1.391 . S
H972 C980 0.950 . S
H973 C985 0.950 . S
H974 C982 0.950 . S
H975 C984 0.950 . S
H976 C986 0.950 . S
H977 C988 0.950 . S
H978 C990 0.950 . S
H979 C991 0.950 . S
C980 H972 0.950 . S
C980 C981 1.386 . S
C980 C982 1.391 . S
C981 C980 1.386 . S
C981 C985 1.393 . S
C982 H974 0.950 . S
C982 C980 1.391 . S
C982 C983 1.400 . S
C983 C982 1.400 . S
C983 C984 1.398 . S
C983 C989 1.491 . S
C984 H975 0.950 . S
C984 C983 1.398 . S
C984 C985 1.391 . S
C985 H973 0.950 . S
C985 C981 1.393 . S
C985 C984 1.391 . S
C986 H976 0.950 . S
C986 C987 1.386 . S
C986 C988 1.391 . S
C987 C986 1.386 . S
C987 C991 1.393 . S
C988 H977 0.950 . S
C988 C986 1.391 . S
C988 C989 1.400 . S
C989 C983 1.491 . S
C989 C988 1.400 . S
C989 C990 1.398 . S
C990 H978 0.950 . S
C990 C989 1.398 . S
C990 C991 1.391 . S
C991 H979 0.950 . S
C991 C987 1.393 . S
C991 C990 1.391 . S
H992 C1000 0.950 . S
H993 C1005 0.950 . S
H994 C1002 0.950 . S
H995 C1004 0.950 . S
H996 C1006 0.950 . S
H997 C1008 0.950 . S
H998 C1010 0.950 . S
H999 C1011 0.950 . S
C1000 H992 0.950 . S
C1000 C1001 1.386 . S
C1000 C1002 1.391 . S
C1001 C1000 1.386 . S
C1001 C1005 1.393 . S
C1002 H994 0.950 . S
C1002 C1000 1.391 . S
C1002 C1003 1.400 . S
C1003 C1002 1.400 . S
C1003 C1004 1.398 . S
C1003 C1009 1.491 . S
C1004 H995 0.950 . S
C1004 C1003 1.398 . S
C1004 C1005 1.391 . S
C1005 H993 0.950 . S
C1005 C1001 1.393 . S
C1005 C1004 1.391 . S
C1006 H996 0.950 . S
C1006 C1007 1.386 . S
C1006 C1008 1.391 . S
C1007 C1006 1.386 . S
C1007 C1011 1.393 . S
C1008 H997 0.950 . S
C1008 C1006 1.391 . S
C1008 C1009 1.400 . S
C1009 C1003 1.491 . S
C1009 C1008 1.400 . S
C1009 C1010 1.398 . S
C1010 H998 0.950 . S
C1010 C1009 1.398 . S
C1010 C1011 1.391 . S
C1011 H999 0.950 . S
C1011 C1007 1.393 . S
C1011 C1010 1.391 . S
H1012 C1020 0.950 . S
H1013 C1025 0.950 . S
H1014 C1022 0.950 . S
H1015 C1024 0.950 . S
H1016 C1026 0.950 . S
H1017 C1028 0.950 . S
H1018 C1030 0.950 . S
H1019 C1031 0.950 . S
C1020 H1012 0.950 . S
C1020 C1021 1.386 . S
C1020 C1022 1.391 . S
C1021 C1020 1.386 . S
C1021 C1025 1.393 . S
C1022 H1014 0.950 . S
C1022 C1020 1.391 . S
C1022 C1023 1.400 . S
C1023 C1022 1.400 . S
C1023 C1024 1.398 . S
C1023 C1029 1.491 . S
C1024 H1015 0.950 . S
C1024 C1023 1.398 . S
C1024 C1025 1.391 . S
C1025 H1013 0.950 . S
C1025 C1021 1.393 . S
C1025 C1024 1.391 . S
C1026 H1016 0.950 . S
C1026 C1027 1.386 . S
C1026 C1028 1.391 . S
C1027 C1026 1.386 . S
C1027 C1031 1.393 . S
C1028 H1017 0.950 . S
C1028 C1026 1.391 . S
C1028 C1029 1.400 . S
C1029 C1023 1.491 . S
C1029 C1028 1.400 . S
C1029 C1030 1.398 . S
C1030 H1018 0.950 . S
C1030 C1029 1.398 . S
C1030 C1031 1.391 . S
C1031 H1019 0.950 . S
C1031 C1027 1.393 . S
C1031 C1030 1.391 . S
H1032 C1040 0.950 . S
H1033 C1045 0.950 . S
H1034 C1042 0.950 . S
H1035 C1044 0.950 . S
H1036 C1046 0.950 . S
H1037 C1048 0.950 . S
H1038 C1050 0.950 . S
H1039 C1051 0.950 . S
C1040 H1032 0.950 . S
C1040 C1041 1.386 . S
C1040 C1042 1.391 . S
C1041 C1040 1.386 . S
C1041 C1045 1.393 . S
C1042 H1034 0.950 . S
C1042 C1040 1.391 . S
C1042 C1043 1.400 . S
C1043 C1042 1.400 . S
C1043 C1044 1.398 . S
C1043 C1049 1.491 . S
C1044 H1035 0.950 . S
C1044 C1043 1.398 . S
C1044 C1045 1.391 . S
C1045 H1033 0.950 . S
C1045 C1041 1.393 . S
C1045 C1044 1.391 . S
C1046 H1036 0.950 . S
C1046 C1047 1.386 . S
C1046 C1048 1.391 . S
C1047 C1046 1.386 . S
C1047 C1051 1.393 . S
C1048 H1037 0.950 . S
C1048 C1046 1.391 . S
C1048 C1049 1.400 . S
C1049 C1043 1.491 . S
C1049 C1048 1.400 . S
C1049 C1050 1.398 . S
C1050 H1038 0.950 . S
C1050 C1049 1.398 . S
C1050 C1051 1.391 . S
C1051 H1039 0.950 . S
C1051 C1047 1.393 . S
C1051 C1050 1.391 . S
H1052 C1060 0.950 . S
H1053 C1065 0.950 . S
H1054 C1062 0.950 . S
H1055 C1064 0.950 . S
H1056 C1066 0.950 . S
H1057 C1068 0.950 . S
H1058 C1070 0.950 . S
H1059 C1071 0.950 . S
C1060 H1052 0.950 . S
C1060 C1061 1.386 . S
C1060 C1062 1.391 . S
C1061 C1060 1.386 . S
C1061 C1065 1.393 . S
C1062 H1054 0.950 . S
C1062 C1060 1.391 . S
C1062 C1063 1.400 . S
C1063 C1062 1.400 . S
C1063 C1064 1.398 . S
C1063 C1069 1.491 . S
C1064 H1055 0.950 . S
C1064 C1063 1.398 . S
C1064 C1065 1.391 . S
C1065 H1053 0.950 . S
C1065 C1061 1.393 . S
C1065 C1064 1.391 . S
C1066 H1056 0.950 . S
C1066 C1067 1.386 . S
C1066 C1068 1.391 . S
C1067 C1066 1.386 . S
C1067 C1071 1.393 . S
C1068 H1057 0.950 . S
C1068 C1066 1.391 . S
C1068 C1069 1.400 . S
C1069 C1063 1.491 . S
C1069 C1068 1.400 . S
C1069 C1070 1.398 . S
C1070 H1058 0.950 . S
C1070 C1069 1.398 . S
C1070 C1071 1.391 . S
C1071 H1059 0.950 . S
C1071 C1067 1.393 . S
C1071 C1070 1.391 . S
H1072 C1080 0.950 . S
H1073 C1085 0.950 . S
H1074 C1082 0.950 . S
H1075 C1084 0.950 . S
H1076 C1086 0.950 . S
H1077 C1088 0.950 . S
H1078 C1090 0.950 . S
H1079 C1091 0.950 . S
C1080 H1072 0.950 . S
C1080 C1081 1.386 . S
C1080 C1082 1.391 . S
C1081 C1080 1.386 . S
C1081 C1085 1.393 . S
C1082 H1074 0.950 . S
C1082 C1080 1.391 . S
C1082 C1083 1.400 . S
C1083 C1082 1.400 . S
C1083 C1084 1.398 . S
C1083 C1089 1.491 . S
C1084 H1075 0.950 . S
C1084 C1083 1.398 . S
C1084 C1085 1.391 . S
C1085 H1073 0.950 . S
C1085 C1081 1.393 . S
C1085 C1084 1.391 . S
C1086 H1076 0.950 . S
C1086 C1087 1.386 . S
C1086 C1088 1.391 . S
C1087 C1086 1.386 . S
C1087 C1091 1.393 . S
C1088 H1077 0.950 . S
C1088 C1086 1.391 . S
C1088 C1089 1.400 . S
C1089 C1083 1.491 . S
C1089 C1088 1.400 . S
C1089 C1090 1.398 . S
C1090 H1078 0.950 . S
C1090 C1089 1.398 . S
C1090 C1091 1.391 . S
C1091 H1079 0.950 . S
C1091 C1087 1.393 . S
C1091 C1090 1.391 . S
H1092 C1100 0.950 . S
H1093 C1105 0.950 . S
H1094 C1102 0.950 . S
H1095 C1104 0.950 . S
H1096 C1106 0.950 . S
H1097 C1108 0.950 . S
H1098 C1110 0.950 . S
H1099 C1111 0.950 . S
C1100 H1092 0.950 . S
C1100 C1101 1.386 . S
C1100 C1102 1.391 . S
C1101 C1100 1.386 . S
C1101 C1105 1.393 . S
C1102 H1094 0.950 . S
C1102 C1100 1.391 . S
C1102 C1103 1.400 . S
C1103 C1102 1.400 . S
C1103 C1104 1.398 . S
C1103 C1109 1.491 . S
C1104 H1095 0.950 . S
C1104 C1103 1.398 . S
C1104 C1105 1.391 . S
C1105 H1093 0.950 . S
C1105 C1101 1.393 . S
C1105 C1104 1.391 . S
C1106 H1096 0.950 . S
C1106 C1107 1.386 . S
C1106 C1108 1.391 . S
C1107 C1106 1.386 . S
C1107 C1111 1.393 . S
C1108 H1097 0.950 . S
C1108 C1106 1.391 . S
C1108 C1109 1.400 . S
C1109 C1103 1.491 . S
C1109 C1108 1.400 . S
C1109 C1110 1.398 . S
C1110 H1098 0.950 . S
C1110 C1109 1.398 . S
C1110 C1111 1.391 . S
C1111 H1099 0.950 . S
C1111 C1107 1.393 . S
C1111 C1110 1.391 . S
H1112 C1120 0.950 . S
H1113 C1125 0.950 . S
H1114 C1122 0.950 . S
H1115 C1124 0.950 . S
H1116 C1126 0.950 . S
H1117 C1128 0.950 . S
H1118 C1130 0.950 . S
H1119 C1131 0.950 . S
C1120 H1112 0.950 . S
C1120 C1121 1.386 . S
C1120 C1122 1.391 . S
C1121 C1120 1.386 . S
C1121 C1125 1.393 . S
C1122 H1114 0.950 . S
C1122 C1120 1.391 . S
C1122 C1123 1.400 . S
C1123 C1122 1.400 . S
C1123 C1124 1.398 . S
C1123 C1129 1.491 . S
C1124 H1115 0.950 . S
C1124 C1123 1.398 . S
C1124 C1125 1.391 . S
C1125 H1113 0.950 . S
C1125 C1121 1.393 . S
C1125 C1124 1.391 . S
C1126 H1116 0.950 . S
C1126 C1127 1.386 . S
C1126 C1128 1.391 . S
C1127 C1126 1.386 . S
C1127 C1131 1.393 . S
C1128 H1117 0.950 . S
C1128 C1126 1.391 . S
C1128 C1129 1.400 . S
C1129 C1123 1.491 . S
C1129 C1128 1.400 . S
C1129 C1130 1.398 . S
C1130 H1118 0.950 . S
C1130 C1129 1.398 . S
C1130 C1131 1.391 . S
C1131 H1119 0.950 . S
C1131 C1127 1.393 . S
C1131 C1130 1.391 . S
H1132 C1140 0.950 . S
H1133 C1145 0.950 . S
H1134 C1142 0.950 . S
H1135 C1144 0.950 . S
H1136 C1146 0.950 . S
H1137 C1148 0.950 . S
H1138 C1150 0.950 . S
H1139 C1151 0.950 . S
C1140 H1132 0.950 . S
C1140 C1141 1.386 . S
C1140 C1142 1.391 . S
C1141 C1140 1.386 . S
C1141 C1145 1.393 . S
C1142 H1134 0.950 . S
C1142 C1140 1.391 . S
C1142 C1143 1.400 . S
C1143 C1142 1.400 . S
C1143 C1144 1.398 . S
C1143 C1149 1.491 . S
C1144 H1135 0.950 . S
C1144 C1143 1.398 . S
C1144 C1145 1.391 . S
C1145 H1133 0.950 . S
C1145 C1141 1.393 . S
C1145 C1144 1.391 . S
C1146 H1136 0.950 . S
C1146 C1147 1.386 . S
C1146 C1148 1.391 . S
C1147 C1146 1.386 . S
C1147 C1151 1.393 . S
C1148 H1137 0.950 . S
C1148 C1146 1.391 . S
C1148 C1149 1.400 . S
C1149 C1143 1.491 . S
C1149 C1148 1.400 . S
C1149 C1150 1.398 . S
C1150 H1138 0.950 . S
C1150 C1149 1.398 . S
C1150 C1151 1.391 . S
C1151 H1139 0.950 . S
C1151 C1147 1.393 . S
C1151 C1150 1.391 . S
H1152 C1160 0.950 . S
H1153 C1165 0.950 . S
H1154 C1162 0.950 . S
H1155 C1164 0.950 . S
H1156 C1166 0.950 . S
H1157 C1168 0.950 . S
H1158 C1170 0.950 . S
H1159 C1171 0.950 . S
C1160 H1152 0.950 . S
C1160 C1161 1.386 . S
C1160 C1162 1.391 . S
C1161 C1160 1.386 . S
C1161 C1165 1.393 . S
C1162 H1154 0.950 . S
C1162 C1160 1.391 . S
C1162 C1163 1.400 . S
C1163 C1162 1.400 . S
C1163 C1164 1.398 . S
C1163 C1169 1.491 . S
C1164 H1155 0.950 . S
C1164 C1163 1.398 . S
C1164 C1165 1.391 . S
C1165 H1153 0.950 . S
C1165 C1161 1.393 . S
C1165 C1164 1.391 . S
C1166 H1156 0.950 . S
C1166 C1167 1.386 . S
C1166 C1168 1.391 . S
C1167 C1166 1.386 . S
C1167 C1171 1.393 . S
C1168 H1157 0.950 . S
C1168 C1166 1.391 . S
C1168 C1169 1.400 . S
C1169 C1163 1.491 . S
C1169 C1168 1.400 . S
C1169 C1170 1.398 . S
C1170 H1158 0.950 . S
C1170 C1169 1.398 . S
C1170 C1171 1.391 . S
C1171 H1159 0.950 . S
C1171 C1167 1.393 . S
C1171 C1170 1.391 . S
H1172 C1180 0.950 . S
H1173 C1185 0.950 . S
H1174 C1182 0.950 . S
H1175 C1184 0.950 . S
H1176 C1186 0.950 . S
H1177 C1188 0.950 . S
H1178 C1190 0.950 . S
H1179 C1191 0.950 . S
C1180 H1172 0.950 . S
C1180 C1181 1.386 . S
C1180 C1182 1.391 . S
C1181 C1180 1.386 . S
C1181 C1185 1.393 . S
C1182 H1174 0.950 . S
C1182 C1180 1.391 . S
C1182 C1183 1.400 . S
C1183 C1182 1.400 . S
C1183 C1184 1.398 . S
C1183 C1189 1.491 . S
C1184 H1175 0.950 . S
C1184 C1183 1.398 . S
C1184 C1185 1.391 . S
C1185 H1173 0.950 . S
C1185 C1181 1.393 . S
C1185 C1184 1.391 . S
C1186 H1176 0.950 . S
C1186 C1187 1.386 . S
C1186 C1188 1.391 . S
C1187 C1186 1.386 . S
C1187 C1191 1.393 . S
C1188 H1177 0.950 . S
C1188 C1186 1.391 . S
C1188 C1189 1.400 . S
C1189 C1183 1.491 . S
C1189 C1188 1.400 . S
C1189 C1190 1.398 . S
C1190 H1178 0.950 . S
C1190 C1189 1.398 . S
C1190 C1191 1.391 . S
C1191 H1179 0.950 . S
C1191 C1187 1.393 . S
C1191 C1190 1.391 . S
H1192 C1200 0.950 . S
H1193 C1205 0.950 . S
H1194 C1202 0.950 . S
H1195 C1204 0.950 . S
H1196 C1206 0.950 . S
H1197 C1208 0.950 . S
H1198 C1210 0.950 . S
H1199 C1211 0.950 . S
C1200 H1192 0.950 . S
C1200 C1201 1.386 . S
C1200 C1202 1.391 . S
C1201 C1200 1.386 . S
C1201 C1205 1.393 . S
C1202 H1194 0.950 . S
C1202 C1200 1.391 . S
C1202 C1203 1.400 . S
C1203 C1202 1.400 . S
C1203 C1204 1.398 . S
C1203 C1209 1.491 . S
C1204 H1195 0.950 . S
C1204 C1203 1.398 . S
C1204 C1205 1.391 . S
C1205 H1193 0.950 . S
C1205 C1201 1.393 . S
C1205 C1204 1.391 . S
C1206 H1196 0.950 . S
C1206 C1207 1.386 . S
C1206 C1208 1.391 . S
C1207 C1206 1.386 . S
C1207 C1211 1.393 . S
C1208 H1197 0.950 . S
C1208 C1206 1.391 . S
C1208 C1209 1.400 . S
C1209 C1203 1.491 . S
C1209 C1208 1.400 . S
C1209 C1210 1.398 . S
C1210 H1198 0.950 . S
C1210 C1209 1.398 . S
C1210 C1211 1.391 . S
C1211 H1199 0.950 . S
C1211 C1207 1.393 . S
C1211 C1210 1.391 . S
H1212 C1220 0.950 . S
H1213 C1225 0.950 . S
H1214 C1222 0.950 . S
H1215 C1224 0.950 . S
H1216 C1226 0.950 . S
H1217 C1228 0.950 . S
H1218 C1230 0.950 . S
H1219 C1231 0.950 . S
C1220 H1212 0.950 . S
C1220 C1221 1.386 . S
C1220 C1222 1.391 . S
C1221 C1220 1.386 . S
C1221 C1225 1.393 . S
C1222 H1214 0.950 . S
C1222 C1220 1.391 . S
C1222 C1223 1.400 . S
C1223 C1222 1.400 . S
C1223 C1224 1.398 . S
C1223 C1229 1.491 . S
C1224 H1215 0.950 . S
C1224 C1223 1.398 . S
C1224 C1225 1.391 . S
C1225 H1213 0.950 . S
C1225 C1221 1.393 . S
C1225 C1224 1.391 . S
C1226 H1216 0.950 . S
C1226 C1227 1.386 . S
C1226 C1228 1.391 . S
C1227 C1226 1.386 . S
C1227 C1231 1.393 . S
C1228 H1217 0.950 . S
C1228 C1226 1.391 . S
C1228 C1229 1.400 . S
C1229 C1223 1.491 . S
C1229 C1228 1.400 . S
C1229 C1230 1.398 . S
C1230 H1218 0.950 . S
C1230 C1229 1.398 . S
C1230 C1231 1.391 . S
C1231 H1219 0.950 . S
C1231 C1227 1.393 . S
C1231 C1230 1.391 . S
H1232 C1240 0.950 . S
H1233 C1245 0.950 . S
H1234 C1242 0.950 . S
H1235 C1244 0.950 . S
H1236 C1246 0.950 . S
H1237 C1248 0.950 . S
H1238 C1250 0.950 . S
H1239 C1251 0.950 . S
C1240 H1232 0.950 . S
C1240 C1241 1.386 . S
C1240 C1242 1.391 . S
C1241 C1240 1.386 . S
C1241 C1245 1.393 . S
C1242 H1234 0.950 . S
C1242 C1240 1.391 . S
C1242 C1243 1.400 . S
C1243 C1242 1.400 . S
C1243 C1244 1.398 . S
C1243 C1249 1.491 . S
C1244 H1235 0.950 . S
C1244 C1243 1.398 . S
C1244 C1245 1.391 . S
C1245 H1233 0.950 . S
C1245 C1241 1.393 . S
C1245 C1244 1.391 . S
C1246 H1236 0.950 . S
C1246 C1247 1.386 . S
C1246 C1248 1.391 . S
C1247 C1246 1.386 . S
C1247 C1251 1.393 . S
C1248 H1237 0.950 . S
C1248 C1246 1.391 . S
C1248 C1249 1.400 . S
C1249 C1243 1.491 . S
C1249 C1248 1.400 . S
C1249 C1250 1.398 . S
C1250 H1238 0.950 . S
C1250 C1249 1.398 . S
C1250 C1251 1.391 . S
C1251 H1239 0.950 . S
C1251 C1247 1.393 . S
C1251 C1250 1.391 . S
H1252 C1260 0.950 . S
H1253 C1265 0.950 . S
H1254 C1262 0.950 . S
H1255 C1264 0.950 . S
H1256 C1266 0.950 . S
H1257 C1268 0.950 . S
H1258 C1270 0.950 . S
H1259 C1271 0.950 . S
C1260 H1252 0.950 . S
C1260 C1261 1.386 . S
C1260 C1262 1.391 . S
C1261 C1260 1.386 . S
C1261 C1265 1.393 . S
C1262 H1254 0.950 . S
C1262 C1260 1.391 . S
C1262 C1263 1.400 . S
C1263 C1262 1.400 . S
C1263 C1264 1.398 . S
C1263 C1269 1.491 . S
C1264 H1255 0.950 . S
C1264 C1263 1.398 . S
C1264 C1265 1.391 . S
C1265 H1253 0.950 . S
C1265 C1261 1.393 . S
C1265 C1264 1.391 . S
C1266 H1256 0.950 . S
C1266 C1267 1.386 . S
C1266 C1268 1.391 . S
C1267 C1266 1.386 . S
C1267 C1271 1.393 . S
C1268 H1257 0.950 . S
C1268 C1266 1.391 . S
C1268 C1269 1.400 . S
C1269 C1263 1.491 . S
C1269 C1268 1.400 . S
C1269 C1270 1.398 . S
C1270 H1258 0.950 . S
C1270 C1269 1.398 . S
C1270 C1271 1.391 . S
C1271 H1259 0.950 . S
C1271 C1267 1.393 . S
C1271 C1270 1.391 . S
H1272 C1280 0.950 . S
H1273 C1285 0.950 . S
H1274 C1282 0.950 . S
H1275 C1284 0.950 . S
H1276 C1286 0.950 . S
H1277 C1288 0.950 . S
H1278 C1290 0.950 . S
H1279 C1291 0.950 . S
C1280 H1272 0.950 . S
C1280 C1281 1.386 . S
C1280 C1282 1.391 . S
C1281 C1280 1.386 . S
C1281 C1285 1.393 . S
C1282 H1274 0.950 . S
C1282 C1280 1.391 . S
C1282 C1283 1.400 . S
C1283 C1282 1.400 . S
C1283 C1284 1.398 . S
C1283 C1289 1.491 . S
C1284 H1275 0.950 . S
C1284 C1283 1.398 . S
C1284 C1285 1.391 . S
C1285 H1273 0.950 . S
C1285 C1281 1.393 . S
C1285 C1284 1.391 . S
C1286 H1276 0.950 . S
C1286 C1287 1.386 . S
C1286 C1288 1.391 . S
C1287 C1286 1.386 . S
C1287 C1291 1.393 . S
C1288 H1277 0.950 . S
C1288 C1286 1.391 . S
C1288 C1289 1.400 . S
C1289 C1283 1.491 . S
C1289 C1288 1.400 . S
C1289 C1290 1.398 . S
C1290 H1278 0.950 . S
C1290 C1289 1.398 . S
C1290 C1291 1.391 . S
C1291 H1279 0.950 . S
C1291 C1287 1.393 . S
C1291 C1290 1.391 . S
H1292 C1300 0.950 . S
H1293 C1305 0.950 . S
H1294 C1302 0.950 . S
H1295 C1304 0.950 . S
H1296 C1306 0.950 . S
H1297 C1308 0.950 . S
H1298 C1310 0.950 . S
H1299 C1311 0.950 . S
C1300 H1292 0.950 . S
C1300 C1301 1.386 . S
C1300 C1302 1.391 . S
C1301 C1300 1.386 . S
C1301 C1305 1.393 . S
C1302 H1294 0.950 . S
C1302 C1300 1.391 . S
C1302 C1303 1.400 . S
C1303 C1302 1.400 . S
C1303 C1304 1.398 . S
C1303 C1309 1.491 . S
C1304 H1295 0.950 . S
C1304 C1303 1.398 . S
C1304 C1305 1.391 . S
C1305 H1293 0.950 . S
C1305 C1301 1.393 . S
C1305 C1304 1.391 . S
C1306 H1296 0.950 . S
C1306 C1307 1.386 . S
C1306 C1308 1.391 . S
C1307 C1306 1.386 . S
C1307 C1311 1.393 . S
C1308 H1297 0.950 . S
C1308 C1306 1.391 . S
C1308 C1309 1.400 . S
C1309 C1303 1.491 . S
C1309 C1308 1.400 . S
C1309 C1310 1.398 . S
C1310 H1298 0.950 . S
C1310 C1309 1.398 . S
C1310 C1311 1.391 . S
C1311 H1299 0.950 . S
C1311 C1307 1.393 . S
C1311 C1310 1.391 . S
H1312 C1320 0.950 . S
H1313 C1325 0.950 . S
H1314 C1322 0.950 . S
H1315 C1324 0.950 . S
H1316 C1326 0.950 . S
H1317 C1328 0.950 . S
H1318 C1330 0.950 . S
H1319 C1331 0.950 . S
C1320 H1312 0.950 . S
C1320 C1321 1.386 . S
C1320 C1322 1.391 . S
C1321 C1320 1.386 . S
C1321 C1325 1.393 . S
C1322 H1314 0.950 . S
C1322 C1320 1.391 . S
C1322 C1323 1.400 . S
C1323 C1322 1.400 . S
C1323 C1324 1.398 . S
C1323 C1329 1.491 . S
C1324 H1315 0.950 . S
C1324 C1323 1.398 . S
C1324 C1325 1.391 . S
C1325 H1313 0.950 . S
C1325 C1321 1.393 . S
C1325 C1324 1.391 . S
C1326 H1316 0.950 . S
C1326 C1327 1.386 . S
C1326 C1328 1.391 . S
C1327 C1326 1.386 . S
C1327 C1331 1.393 . S
C1328 H1317 0.950 . S
C1328 C1326 1.391 . S
C1328 C1329 1.400 . S
C1329 C1323 1.491 . S
C1329 C1328 1.400 . S
C1329 C1330 1.398 . S
C1330 H1318 0.950 . S
C1330 C1329 1.398 . S
C1330 C1331 1.391 . S
C1331 H1319 0.950 . S
C1331 C1327 1.393 . S
C1331 C1330 1.391 . S
H1332 C1340 0.950 . S
H1333 C1345 0.950 . S
H1334 C1342 0.950 . S
H1335 C1344 0.950 . S
H1336 C1346 0.950 . S
H1337 C1348 0.950 . S
H1338 C1350 0.950 . S
H1339 C1351 0.950 . S
C1340 H1332 0.950 . S
C1340 C1341 1.386 . S
C1340 C1342 1.391 . S
C1341 C1340 1.386 . S
C1341 C1345 1.393 . S
C1342 H1334 0.950 . S
C1342 C1340 1.391 . S
C1342 C1343 1.400 . S
C1343 C1342 1.400 . S
C1343 C1344 1.398 . S
C1343 C1349 1.491 . S
C1344 H1335 0.950 . S
C1344 C1343 1.398 . S
C1344 C1345 1.391 . S
C1345 H1333 0.950 . S
C1345 C1341 1.393 . S
C1345 C1344 1.391 . S
C1346 H1336 0.950 . S
C1346 C1347 1.386 . S
C1346 C1348 1.391 . S
C1347 C1346 1.386 . S
C1347 C1351 1.393 . S
C1348 H1337 0.950 . S
C1348 C1346 1.391 . S
C1348 C1349 1.400 . S
C1349 C1343 1.491 . S
C1349 C1348 1.400 . S
C1349 C1350 1.398 . S
C1350 H1338 0.950 . S
C1350 C1349 1.398 . S
C1350 C1351 1.391 . S
C1351 H1339 0.950 . S
C1351 C1347 1.393 . S
C1351 C1350 1.391 . S
H1352 C1360 0.950 . S
H1353 C1365 0.950 . S
H1354 C1362 0.950 . S
H1355 C1364 0.950 . S
H1356 C1366 0.950 . S
H1357 C1368 0.950 . S
H1358 C1370 0.950 . S
H1359 C1371 0.950 . S
C1360 H1352 0.950 . S
C1360 C1361 1.386 . S
C1360 C1362 1.391 . S
C1361 C1360 1.386 . S
C1361 C1365 1.393 . S
C1362 H1354 0.950 . S
C1362 C1360 1.391 . S
C1362 C1363 1.400 . S
C1363 C1362 1.400 . S
C1363 C1364 1.398 . S
C1363 C1369 1.491 . S
C1364 H1355 0.950 . S
C1364 C1363 1.398 . S
C1364 C1365 1.391 . S
C1365 H1353 0.950 . S
C1365 C1361 1.393 . S
C1365 C1364 1.391 . S
C1366 H1356 0.950 . S
C1366 C1367 1.386 . S
C1366 C1368 1.391 . S
C1367 C1366 1.386 . S
C1367 C1371 1.393 . S
C1368 H1357 0.950 . S
C1368 C1366 1.391 . S
C1368 C1369 1.400 . S
C1369 C1363 1.491 . S
C1369 C1368 1.400 . S
C1369 C1370 1.398 . S
C1370 H1358 0.950 . S
C1370 C1369 1.398 . S
C1370 C1371 1.391 . S
C1371 H1359 0.950 . S
C1371 C1367 1.393 . S
C1371 C1370 1.391 . S
H1372 C1380 0.950 . S
H1373 C1385 0.950 . S
H1374 C1382 0.950 . S
H1375 C1384 0.950 . S
H1376 C1386 0.950 . S
H1377 C1388 0.950 . S
H1378 C1390 0.950 . S
H1379 C1391 0.950 . S
C1380 H1372 0.950 . S
C1380 C1381 1.386 . S
C1380 C1382 1.391 . S
C1381 C1380 1.386 . S
C1381 C1385 1.393 . S
C1382 H1374 0.950 . S
C1382 C1380 1.391 . S
C1382 C1383 1.400 . S
C1383 C1382 1.400 . S
C1383 C1384 1.398 . S
C1383 C1389 1.491 . S
C1384 H1375 0.950 . S
C1384 C1383 1.398 . S
C1384 C1385 1.391 . S
C1385 H1373 0.950 . S
C1385 C1381 1.393 . S
C1385 C1384 1.391 . S
C1386 H1376 0.950 . S
C1386 C1387 1.386 . S
C1386 C1388 1.391 . S
C1387 C1386 1.386 . S
C1387 C1391 1.393 . S
C1388 H1377 0.950 . S
C1388 C1386 1.391 . S
C1388 C1389 1.400 . S
C1389 C1383 1.491 . S
C1389 C1388 1.400 . S
C1389 C1390 1.398 . S
C1390 H1378 0.950 . S
C1390 C1389 1.398 . S
C1390 C1391 1.391 . S
C1391 H1379 0.950 . S
C1391 C1387 1.393 . S
C1391 C1390 1.391 . S
H1392 C1400 0.950 . S
H1393 C1405 0.950 . S
H1394 C1402 0.950 . S
H1395 C1404 0.950 . S
H1396 C1406 0.950 . S
H1397 C1408 0.950 . S
H1398 C1410 0.950 . S
H1399 C1411 0.950 . S
C1400 H1392 0.950 . S
C1400 C1401 1.386 . S
C1400 C1402 1.391 . S
C1401 C1400 1.386 . S
C1401 C1405 1.393 . S
C1402 H1394 0.950 . S
C1402 C1400 1.391 . S
C1402 C1403 1.400 . S
C1403 C1402 1.400 . S
C1403 C1404 1.398 . S
C1403 C1409 1.491 . S
C1404 H1395 0.950 . S
C1404 C1403 1.398 . S
C1404 C1405 1.391 . S
C1405 H1393 0.950 . S
C1405 C1401 1.393 . S
C1405 C1404 1.391 . S
C1406 H1396 0.950 . S
C1406 C1407 1.386 . S
C1406 C1408 1.391 . S
C1407 C1406 1.386 . S
C1407 C1411 1.393 . S
C1408 H1397 0.950 . S
C1408 C1406 1.391 . S
C1408 C1409 1.400 . S
C1409 C1403 1.491 . S
C1409 C1408 1.400 . S
C1409 C1410 1.398 . S
C1410 H1398 0.950 . S
C1410 C1409 1.398 . S
C1410 C1411 1.391 . S
C1411 H1399 0.950 . S
C1411 C1407 1.393 . S
C1411 C1410 1.391 . S
H1412 C1420 0.950 . S
H1413 C1425 0.931 1_554 S
H1414 C1422 0.950 . S
H1415 C1424 0.950 . S
H1416 C1426 0.950 . S
H1417 C1428 0.950 . S
H1418 C1430 0.950 . S
H1419 C1431 0.950 . S
C1420 H1412 0.950 . S
C1420 C1421 1.386 . S
C1420 C1422 1.391 . S
C1421 C1420 1.386 . S
C1421 C1425 1.393 . S
C1422 H1414 0.950 . S
C1422 C1420 1.391 . S
C1422 C1423 1.400 . S
C1423 C1422 1.400 . S
C1423 C1424 1.398 . S
C1423 C1429 1.491 . S
C1424 H1415 0.950 . S
C1424 C1423 1.398 . S
C1424 C1425 1.391 . S
C1425 H1413 0.931 1_556 S
C1425 C1421 1.393 . S
C1425 C1424 1.391 . S
C1426 H1416 0.950 . S
C1426 C1427 1.386 . S
C1426 C1428 1.391 . S
C1427 C1426 1.386 . S
C1427 C1431 1.393 . S
C1428 H1417 0.950 . S
C1428 C1426 1.391 . S
C1428 C1429 1.400 . S
C1429 C1423 1.491 . S
C1429 C1428 1.400 . S
C1429 C1430 1.398 . S
C1430 H1418 0.950 . S
C1430 C1429 1.398 . S
C1430 C1431 1.391 . S
C1431 H1419 0.950 . S
C1431 C1427 1.393 . S
C1431 C1430 1.391 . S
H1432 C1440 0.950 . S
H1433 C1445 0.950 1_554 S
H1434 C1442 0.950 . S
H1435 C1444 0.950 . S
H1436 C1446 0.950 . S
H1437 C1448 0.950 . S
H1438 C1450 0.950 . S
H1439 C1451 0.950 . S
C1440 H1432 0.950 . S
C1440 C1441 1.386 . S
C1440 C1442 1.391 . S
C1441 C1440 1.386 . S
C1441 C1445 1.393 . S
C1442 H1434 0.950 . S
C1442 C1440 1.391 . S
C1442 C1443 1.400 . S
C1443 C1442 1.400 . S
C1443 C1444 1.398 . S
C1443 C1449 1.491 . S
C1444 H1435 0.950 . S
C1444 C1443 1.398 . S
C1444 C1445 1.391 . S
C1445 H1433 0.950 1_556 S
C1445 C1441 1.393 . S
C1445 C1444 1.391 . S
C1446 H1436 0.950 . S
C1446 C1447 1.386 . S
C1446 C1448 1.391 . S
C1447 C1446 1.386 . S
C1447 C1451 1.393 . S
C1448 H1437 0.950 . S
C1448 C1446 1.391 . S
C1448 C1449 1.400 . S
C1449 C1443 1.491 . S
C1449 C1448 1.400 . S
C1449 C1450 1.398 . S
C1450 H1438 0.950 . S
C1450 C1449 1.398 . S
C1450 C1451 1.391 . S
C1451 H1439 0.950 . S
C1451 C1447 1.393 . S
C1451 C1450 1.391 . S
H1452 C1460 0.950 . S
H1453 C1465 0.950 1_554 S
H1454 C1462 0.950 . S
H1455 C1464 0.950 . S
H1456 C1466 0.950 . S
H1457 C1468 0.950 . S
H1458 C1470 0.950 . S
H1459 C1471 0.950 . S
C1460 H1452 0.950 . S
C1460 C1461 1.386 . S
C1460 C1462 1.391 . S
C1461 C1460 1.386 . S
C1461 C1465 1.393 . S
C1462 H1454 0.950 . S
C1462 C1460 1.391 . S
C1462 C1463 1.400 . S
C1463 C1462 1.400 . S
C1463 C1464 1.398 . S
C1463 C1469 1.491 . S
C1464 H1455 0.950 . S
C1464 C1463 1.398 . S
C1464 C1465 1.391 . S
C1465 H1453 0.950 1_556 S
C1465 C1461 1.393 . S
C1465 C1464 1.391 . S
C1466 H1456 0.950 . S
C1466 C1467 1.386 . S
C1466 C1468 1.391 . S
C1467 C1466 1.386 . S
C1467 C1471 1.393 . S
C1468 H1457 0.950 . S
C1468 C1466 1.391 . S
C1468 C1469 1.400 . S
C1469 C1463 1.491 . S
C1469 C1468 1.400 . S
C1469 C1470 1.398 . S
C1470 H1458 0.950 . S
C1470 C1469 1.398 . S
C1470 C1471 1.391 . S
C1471 H1459 0.950 . S
C1471 C1467 1.393 . S
C1471 C1470 1.391 . S
H1472 C1480 0.950 1_554 S
H1473 C1485 0.950 . S
H1474 C1482 0.950 . S
H1475 C1484 0.950 . S
H1476 C1486 0.950 . S
H1477 C1488 0.950 . S
H1478 C1490 0.950 . S
H1479 C1491 0.950 . S
C1480 H1472 0.950 1_556 S
C1480 C1481 1.386 . S
C1480 C1482 1.391 . S
C1481 C1480 1.386 . S
C1481 C1485 1.393 . S
C1482 H1474 0.950 . S
C1482 C1480 1.391 . S
C1482 C1483 1.400 . S
C1483 C1482 1.400 . S
C1483 C1484 1.398 . S
C1483 C1489 1.491 . S
C1484 H1475 0.950 . S
C1484 C1483 1.398 . S
C1484 C1485 1.391 . S
C1485 H1473 0.950 . S
C1485 C1481 1.393 . S
C1485 C1484 1.391 . S
C1486 H1476 0.950 . S
C1486 C1487 1.386 . S
C1486 C1488 1.391 . S
C1487 C1486 1.386 . S
C1487 C1491 1.393 . S
C1488 H1477 0.950 . S
C1488 C1486 1.391 . S
C1488 C1489 1.400 . S
C1489 C1483 1.491 . S
C1489 C1488 1.400 . S
C1489 C1490 1.398 . S
C1490 H1478 0.950 . S
C1490 C1489 1.398 . S
C1490 C1491 1.391 . S
C1491 H1479 0.950 . S
C1491 C1487 1.393 . S
C1491 C1490 1.391 . S
H1492 C1500 0.950 1_554 S
H1493 C1505 0.950 . S
H1494 C1502 0.950 . S
H1495 C1504 0.950 . S
H1496 C1506 0.950 . S
H1497 C1508 0.950 . S
H1498 C1510 0.950 . S
H1499 C1511 0.950 . S
C1500 H1492 0.950 1_556 S
C1500 C1501 1.386 . S
C1500 C1502 1.391 . S
C1501 C1500 1.386 . S
C1501 C1505 1.393 . S
C1502 H1494 0.950 . S
C1502 C1500 1.391 . S
C1502 C1503 1.400 . S
C1503 C1502 1.400 . S
C1503 C1504 1.398 . S
C1503 C1509 1.491 . S
C1504 H1495 0.950 . S
C1504 C1503 1.398 . S
C1504 C1505 1.391 . S
C1505 H1493 0.950 . S
C1505 C1501 1.393 . S
C1505 C1504 1.391 . S
C1506 H1496 0.950 . S
C1506 C1507 1.386 . S
C1506 C1508 1.391 . S
C1507 C1506 1.386 . S
C1507 C1511 1.393 . S
C1508 H1497 0.950 . S
C1508 C1506 1.391 . S
C1508 C1509 1.400 . S
C1509 C1503 1.491 . S
C1509 C1508 1.400 . S
C1509 C1510 1.398 . S
C1510 H1498 0.950 . S
C1510 C1509 1.398 . S
C1510 C1511 1.391 . S
C1511 H1499 0.950 . S
C1511 C1507 1.393 . S
C1511 C1510 1.391 . S
H1512 C1520 0.950 . S
H1513 C1525 0.950 . S
H1514 C1522 0.950 . S
H1515 C1524 0.950 . S
H1516 C1526 0.950 . S
H1517 C1528 0.950 . S
H1518 C1530 0.950 . S
H1519 C1531 0.950 . S
C1520 H1512 0.950 . S
C1520 C1521 1.386 . S
C1520 C1522 1.391 . S
C1521 C1520 1.386 . S
C1521 C1525 1.393 . S
C1522 H1514 0.950 . S
C1522 C1520 1.391 . S
C1522 C1523 1.400 . S
C1523 C1522 1.400 . S
C1523 C1524 1.398 . S
C1523 C1529 1.491 . S
C1524 H1515 0.950 . S
C1524 C1523 1.398 . S
C1524 C1525 1.391 . S
C1525 H1513 0.950 . S
C1525 C1521 1.393 . S
C1525 C1524 1.391 . S
C1526 H1516 0.950 . S
C1526 C1527 1.386 . S
C1526 C1528 1.391 . S
C1527 C1526 1.386 . S
C1527 C1531 1.393 . S
C1528 H1517 0.950 . S
C1528 C1526 1.391 . S
C1528 C1529 1.400 . S
C1529 C1523 1.491 . S
C1529 C1528 1.400 . S
C1529 C1530 1.398 . S
C1530 H1518 0.950 . S
C1530 C1529 1.398 . S
C1530 C1531 1.391 . S
C1531 H1519 0.950 . S
C1531 C1527 1.393 . S
C1531 C1530 1.391 . S
H1532 C1540 0.950 . S
H1533 C1545 0.950 . S
H1534 C1542 0.950 . S
H1535 C1544 0.950 . S
H1536 C1546 0.950 . S
H1537 C1548 0.950 . S
H1538 C1550 0.950 . S
H1539 C1551 0.950 . S
C1540 H1532 0.950 . S
C1540 C1541 1.386 . S
C1540 C1542 1.391 . S
C1541 C1540 1.386 . S
C1541 C1545 1.393 . S
C1542 H1534 0.950 . S
C1542 C1540 1.391 . S
C1542 C1543 1.400 . S
C1543 C1542 1.400 . S
C1543 C1544 1.398 . S
C1543 C1549 1.491 . S
C1544 H1535 0.950 . S
C1544 C1543 1.398 . S
C1544 C1545 1.391 . S
C1545 H1533 0.950 . S
C1545 C1541 1.393 . S
C1545 C1544 1.391 . S
C1546 H1536 0.950 . S
C1546 C1547 1.386 . S
C1546 C1548 1.391 . S
C1547 C1546 1.386 . S
C1547 C1551 1.393 . S
C1548 H1537 0.950 . S
C1548 C1546 1.391 . S
C1548 C1549 1.400 . S
C1549 C1543 1.491 . S
C1549 C1548 1.400 . S
C1549 C1550 1.398 . S
C1550 H1538 0.950 . S
C1550 C1549 1.398 . S
C1550 C1551 1.391 . S
C1551 H1539 0.950 . S
C1551 C1547 1.393 . S
C1551 C1550 1.391 . S
H1552 C1560 0.950 . S
H1553 C1565 0.950 . S
H1554 C1562 0.950 . S
H1555 C1564 0.950 . S
H1556 C1566 0.950 . S
H1557 C1568 0.950 . S
H1558 C1570 0.950 . S
H1559 C1571 0.950 . S
C1560 H1552 0.950 . S
C1560 C1561 1.386 . S
C1560 C1562 1.391 . S
C1561 C1560 1.386 . S
C1561 C1565 1.393 . S
C1562 H1554 0.950 . S
C1562 C1560 1.391 . S
C1562 C1563 1.400 . S
C1563 C1562 1.400 . S
C1563 C1564 1.398 . S
C1563 C1569 1.491 . S
C1564 H1555 0.950 . S
C1564 C1563 1.398 . S
C1564 C1565 1.391 . S
C1565 H1553 0.950 . S
C1565 C1561 1.393 . S
C1565 C1564 1.391 . S
C1566 H1556 0.950 . S
C1566 C1567 1.386 . S
C1566 C1568 1.391 . S
C1567 C1566 1.386 . S
C1567 C1571 1.393 . S
C1568 H1557 0.950 . S
C1568 C1566 1.391 . S
C1568 C1569 1.400 . S
C1569 C1563 1.491 . S
C1569 C1568 1.400 . S
C1569 C1570 1.398 . S
C1570 H1558 0.950 . S
C1570 C1569 1.398 . S
C1570 C1571 1.391 . S
C1571 H1559 0.950 . S
C1571 C1567 1.393 . S
C1571 C1570 1.391 . S
H1572 C1580 0.950 . S
H1573 C1585 0.950 . S
H1574 C1582 0.950 . S
H1575 C1584 0.950 . S
H1576 C1586 0.950 . S
H1577 C1588 0.950 . S
H1578 C1590 0.950 . S
H1579 C1591 0.950 . S
C1580 H1572 0.950 . S
C1580 C1581 1.386 . S
C1580 C1582 1.391 . S
C1581 C1580 1.386 . S
C1581 C1585 1.393 . S
C1582 H1574 0.950 . S
C1582 C1580 1.391 . S
C1582 C1583 1.400 . S
C1583 C1582 1.400 . S
C1583 C1584 1.398 . S
C1583 C1589 1.491 . S
C1584 H1575 0.950 . S
C1584 C1583 1.398 . S
C1584 C1585 1.391 . S
C1585 H1573 0.950 . S
C1585 C1581 1.393 . S
C1585 C1584 1.391 . S
C1586 H1576 0.950 . S
C1586 C1587 1.386 . S
C1586 C1588 1.391 . S
C1587 C1586 1.386 . S
C1587 C1591 1.393 . S
C1588 H1577 0.950 . S
C1588 C1586 1.391 . S
C1588 C1589 1.400 . S
C1589 C1583 1.491 . S
C1589 C1588 1.400 . S
C1589 C1590 1.398 . S
C1590 H1578 0.950 . S
C1590 C1589 1.398 . S
C1590 C1591 1.391 . S
C1591 H1579 0.950 . S
C1591 C1587 1.393 . S
C1591 C1590 1.391 . S
H1592 C1600 0.950 . S
H1593 C1605 0.950 . S
H1594 C1602 0.950 . S
H1595 C1604 0.950 . S
H1596 C1606 0.950 . S
H1597 C1608 0.950 . S
H1598 C1610 0.950 . S
H1599 C1611 0.950 . S
C1600 H1592 0.950 . S
C1600 C1601 1.386 . S
C1600 C1602 1.391 . S
C1601 C1600 1.386 . S
C1601 C1605 1.393 . S
C1602 H1594 0.950 . S
C1602 C1600 1.391 . S
C1602 C1603 1.400 . S
C1603 C1602 1.400 . S
C1603 C1604 1.398 . S
C1603 C1609 1.491 . S
C1604 H1595 0.950 . S
C1604 C1603 1.398 . S
C1604 C1605 1.391 . S
C1605 H1593 0.950 . S
C1605 C1601 1.393 . S
C1605 C1604 1.391 . S
C1606 H1596 0.950 . S
C1606 C1607 1.386 . S
C1606 C1608 1.391 . S
C1607 C1606 1.386 . S
C1607 C1611 1.393 . S
C1608 H1597 0.950 . S
C1608 C1606 1.391 . S
C1608 C1609 1.400 . S
C1609 C1603 1.491 . S
C1609 C1608 1.400 . S
C1609 C1610 1.398 . S
C1610 H1598 0.950 . S
C1610 C1609 1.398 . S
C1610 C1611 1.391 . S
C1611 H1599 0.950 . S
C1611 C1607 1.393 . S
C1611 C1610 1.391 . S
H1612 C1620 0.950 . S
H1613 C1625 0.950 . S
H1614 C1622 0.950 . S
H1615 C1624 0.950 . S
H1616 C1626 0.950 . S
H1617 C1628 0.950 . S
H1618 C1630 0.950 . S
H1619 C1631 0.950 . S
C1620 H1612 0.950 . S
C1620 C1621 1.386 . S
C1620 C1622 1.391 . S
C1621 C1620 1.386 . S
C1621 C1625 1.393 . S
C1622 H1614 0.950 . S
C1622 C1620 1.391 . S
C1622 C1623 1.400 . S
C1623 C1622 1.400 . S
C1623 C1624 1.398 . S
C1623 C1629 1.491 . S
C1624 H1615 0.950 . S
C1624 C1623 1.398 . S
C1624 C1625 1.391 . S
C1625 H1613 0.950 . S
C1625 C1621 1.393 . S
C1625 C1624 1.391 . S
C1626 H1616 0.950 . S
C1626 C1627 1.386 . S
C1626 C1628 1.391 . S
C1627 C1626 1.386 . S
C1627 C1631 1.393 . S
C1628 H1617 0.950 . S
C1628 C1626 1.391 . S
C1628 C1629 1.400 . S
C1629 C1623 1.491 . S
C1629 C1628 1.400 . S
C1629 C1630 1.398 . S
C1630 H1618 0.950 . S
C1630 C1629 1.398 . S
C1630 C1631 1.391 . S
C1631 H1619 0.950 . S
C1631 C1627 1.393 . S
C1631 C1630 1.391 . S
H1632 C1640 0.950 . S
H1633 C1645 0.950 . S
H1634 C1642 0.950 . S
H1635 C1644 0.950 . S
H1636 C1646 0.950 . S
H1637 C1648 0.950 . S
H1638 C1650 0.950 . S
H1639 C1651 0.950 . S
C1640 H1632 0.950 . S
C1640 C1641 1.386 . S
C1640 C1642 1.391 . S
C1641 C1640 1.386 . S
C1641 C1645 1.393 . S
C1642 H1634 0.950 . S
C1642 C1640 1.391 . S
C1642 C1643 1.400 . S
C1643 C1642 1.400 . S
C1643 C1644 1.398 . S
C1643 C1649 1.491 . S
C1644 H1635 0.950 . S
C1644 C1643 1.398 . S
C1644 C1645 1.391 . S
C1645 H1633 0.950 . S
C1645 C1641 1.393 . S
C1645 C1644 1.391 . S
C1646 H1636 0.950 . S
C1646 C1647 1.386 . S
C1646 C1648 1.391 . S
C1647 C1646 1.386 . S
C1647 C1651 1.393 . S
C1648 H1637 0.950 . S
C1648 C1646 1.391 . S
C1648 C1649 1.400 . S
C1649 C1643 1.491 . S
C1649 C1648 1.400 . S
C1649 C1650 1.398 . S
C1650 H1638 0.950 . S
C1650 C1649 1.398 . S
C1650 C1651 1.391 . S
C1651 H1639 0.950 . S
C1651 C1647 1.393 . S
C1651 C1650 1.391 . S
H1652 C1660 0.950 . S
H1653 C1665 0.950 . S
H1654 C1662 0.950 . S
H1655 C1664 0.950 . S
H1656 C1666 0.950 . S
H1657 C1668 0.950 . S
H1658 C1670 0.950 . S
H1659 C1671 0.950 . S
C1660 H1652 0.950 . S
C1660 C1661 1.386 . S
C1660 C1662 1.391 . S
C1661 C1660 1.386 . S
C1661 C1665 1.393 . S
C1662 H1654 0.950 . S
C1662 C1660 1.391 . S
C1662 C1663 1.400 . S
C1663 C1662 1.400 . S
C1663 C1664 1.398 . S
C1663 C1669 1.491 . S
C1664 H1655 0.950 . S
C1664 C1663 1.398 . S
C1664 C1665 1.391 . S
C1665 H1653 0.950 . S
C1665 C1661 1.393 . S
C1665 C1664 1.391 . S
C1666 H1656 0.950 . S
C1666 C1667 1.386 . S
C1666 C1668 1.391 . S
C1667 C1666 1.386 . S
C1667 C1671 1.393 . S
C1668 H1657 0.950 . S
C1668 C1666 1.391 . S
C1668 C1669 1.400 . S
C1669 C1663 1.491 . S
C1669 C1668 1.400 . S
C1669 C1670 1.398 . S
C1670 H1658 0.950 . S
C1670 C1669 1.398 . S
C1670 C1671 1.391 . S
C1671 H1659 0.950 . S
C1671 C1667 1.393 . S
C1671 C1670 1.391 . S
H1672 C1680 0.950 . S
H1673 C1685 0.950 . S
H1674 C1682 0.950 . S
H1675 C1684 0.950 . S
H1676 C1686 0.950 . S
H1677 C1688 0.950 . S
H1678 C1690 0.950 . S
H1679 C1691 0.950 . S
C1680 H1672 0.950 . S
C1680 C1681 1.386 . S
C1680 C1682 1.391 . S
C1681 C1680 1.386 . S
C1681 C1685 1.393 1_565 S
C1682 H1674 0.950 . S
C1682 C1680 1.391 . S
C1682 C1683 1.400 . S
C1683 C1682 1.400 . S
C1683 C1684 1.398 1_565 S
C1683 C1689 1.491 . S
C1684 H1675 0.950 . S
C1684 C1683 1.398 1_545 S
C1684 C1685 1.391 . S
C1685 H1673 0.950 . S
C1685 C1681 1.393 1_545 S
C1685 C1684 1.391 . S
C1686 H1676 0.950 . S
C1686 C1687 1.386 1_545 S
C1686 C1688 1.391 . S
C1687 C1686 1.386 1_565 S
C1687 C1691 1.393 . S
C1688 H1677 0.950 . S
C1688 C1686 1.391 . S
C1688 C1689 1.400 1_545 S
C1689 C1683 1.491 . S
C1689 C1688 1.400 1_565 S
C1689 C1690 1.398 . S
C1690 H1678 0.950 . S
C1690 C1689 1.398 . S
C1690 C1691 1.391 . S
C1691 H1679 0.950 . S
C1691 C1687 1.393 . S
C1691 C1690 1.391 . S
H1692 C1700 0.950 . S
H1693 C1705 0.950 . S
H1694 C1702 0.950 . S
H1695 C1704 0.950 . S
H1696 C1706 0.950 . S
H1697 C1708 0.950 . S
H1698 C1710 0.950 . S
H1699 C1711 0.950 . S
C1700 H1692 0.950 . S
C1700 C1701 1.386 1_545 S
C1700 C1702 1.391 . S
C1701 C1700 1.386 1_565 S
C1701 C1705 1.393 . S
C1702 H1694 0.950 . S
C1702 C1700 1.391 . S
C1702 C1703 1.400 1_545 S
C1703 C1702 1.400 1_565 S
C1703 C1704 1.398 . S
C1703 C1709 1.491 . S
C1704 H1695 0.950 . S
C1704 C1703 1.398 . S
C1704 C1705 1.391 . S
C1705 H1693 0.950 . S
C1705 C1701 1.393 . S
C1705 C1704 1.391 . S
C1706 H1696 0.950 . S
C1706 C1707 1.386 . S
C1706 C1708 1.391 . S
C1707 C1706 1.386 . S
C1707 C1711 1.393 1_565 S
C1708 H1697 0.950 . S
C1708 C1706 1.391 . S
C1708 C1709 1.400 . S
C1709 C1703 1.491 . S
C1709 C1708 1.400 . S
C1709 C1710 1.398 1_565 S
C1710 H1698 0.950 . S
C1710 C1709 1.398 1_545 S
C1710 C1711 1.391 . S
C1711 H1699 0.950 . S
C1711 C1707 1.393 1_545 S
C1711 C1710 1.391 . S
H1712 C1720 0.950 . S
H1713 C1725 0.950 . S
H1714 C1722 0.950 . S
H1715 C1724 0.950 . S
H1716 C1726 0.950 . S
H1717 C1728 0.950 . S
H1718 C1730 0.950 . S
H1719 C1731 0.950 . S
C1720 H1712 0.950 . S
C1720 C1721 1.386 . S
C1720 C1722 1.391 . S
C1721 C1720 1.386 . S
C1721 C1725 1.393 . S
C1722 H1714 0.950 . S
C1722 C1720 1.391 . S
C1722 C1723 1.400 . S
C1723 C1722 1.400 . S
C1723 C1724 1.398 . S
C1723 C1729 1.491 . S
C1724 H1715 0.950 . S
C1724 C1723 1.398 . S
C1724 C1725 1.391 . S
C1725 H1713 0.950 . S
C1725 C1721 1.393 . S
C1725 C1724 1.391 . S
C1726 H1716 0.950 . S
C1726 C1727 1.386 . S
C1726 C1728 1.391 . S
C1727 C1726 1.386 . S
C1727 C1731 1.393 . S
C1728 H1717 0.950 . S
C1728 C1726 1.391 . S
C1728 C1729 1.400 . S
C1729 C1723 1.491 . S
C1729 C1728 1.400 . S
C1729 C1730 1.398 . S
C1730 H1718 0.950 . S
C1730 C1729 1.398 . S
C1730 C1731 1.391 . S
C1731 H1719 0.950 . S
C1731 C1727 1.393 . S
C1731 C1730 1.391 . S
H1732 C1740 0.950 . S
H1733 C1745 0.950 . S
H1734 C1742 0.950 . S
H1735 C1744 0.950 . S
H1736 C1746 0.950 . S
H1737 C1748 0.950 . S
H1738 C1750 0.950 . S
H1739 C1751 0.950 . S
C1740 H1732 0.950 . S
C1740 C1741 1.386 . S
C1740 C1742 1.391 . S
C1741 C1740 1.386 . S
C1741 C1745 1.393 . S
C1742 H1734 0.950 . S
C1742 C1740 1.391 . S
C1742 C1743 1.400 . S
C1743 C1742 1.400 . S
C1743 C1744 1.398 . S
C1743 C1749 1.491 . S
C1744 H1735 0.950 . S
C1744 C1743 1.398 . S
C1744 C1745 1.391 . S
C1745 H1733 0.950 . S
C1745 C1741 1.393 . S
C1745 C1744 1.391 . S
C1746 H1736 0.950 . S
C1746 C1747 1.386 . S
C1746 C1748 1.391 . S
C1747 C1746 1.386 . S
C1747 C1751 1.393 . S
C1748 H1737 0.950 . S
C1748 C1746 1.391 . S
C1748 C1749 1.400 . S
C1749 C1743 1.491 . S
C1749 C1748 1.400 . S
C1749 C1750 1.398 . S
C1750 H1738 0.950 . S
C1750 C1749 1.398 . S
C1750 C1751 1.391 . S
C1751 H1739 0.950 . S
C1751 C1747 1.393 . S
C1751 C1750 1.391 . S
H1752 C1760 0.950 . S
H1753 C1765 0.950 . S
H1754 C1762 0.950 . S
H1755 C1764 0.950 . S
H1756 C1766 0.950 . S
H1757 C1768 0.950 . S
H1758 C1770 0.950 . S
H1759 C1771 0.950 . S
C1760 H1752 0.950 . S
C1760 C1761 1.386 . S
C1760 C1762 1.391 . S
C1761 C1760 1.386 . S
C1761 C1765 1.393 . S
C1762 H1754 0.950 . S
C1762 C1760 1.391 . S
C1762 C1763 1.400 . S
C1763 C1762 1.400 . S
C1763 C1764 1.398 . S
C1763 C1769 1.491 . S
C1764 H1755 0.950 . S
C1764 C1763 1.398 . S
C1764 C1765 1.391 . S
C1765 H1753 0.950 . S
C1765 C1761 1.393 . S
C1765 C1764 1.391 . S
C1766 H1756 0.950 . S
C1766 C1767 1.386 . S
C1766 C1768 1.391 . S
C1767 C1766 1.386 . S
C1767 C1771 1.393 . S
C1768 H1757 0.950 . S
C1768 C1766 1.391 . S
C1768 C1769 1.400 . S
C1769 C1763 1.491 . S
C1769 C1768 1.400 . S
C1769 C1770 1.398 . S
C1770 H1758 0.950 . S
C1770 C1769 1.398 . S
C1770 C1771 1.391 . S
C1771 H1759 0.950 . S
C1771 C1767 1.393 . S
C1771 C1770 1.391 . S
H1772 C1780 0.950 . S
H1773 C1785 0.950 . S
H1774 C1782 0.950 . S
H1775 C1784 0.950 . S
H1776 C1786 0.950 . S
H1777 C1788 0.950 . S
H1778 C1790 0.950 . S
H1779 C1791 0.950 . S
C1780 H1772 0.950 . S
C1780 C1781 1.386 . S
C1780 C1782 1.391 . S
C1781 C1780 1.386 . S
C1781 C1785 1.393 . S
C1782 H1774 0.950 . S
C1782 C1780 1.391 . S
C1782 C1783 1.400 . S
C1783 C1782 1.400 . S
C1783 C1784 1.398 . S
C1783 C1789 1.491 . S
C1784 H1775 0.950 . S
C1784 C1783 1.398 . S
C1784 C1785 1.391 . S
C1785 H1773 0.950 . S
C1785 C1781 1.393 . S
C1785 C1784 1.391 . S
C1786 H1776 0.950 . S
C1786 C1787 1.386 . S
C1786 C1788 1.391 . S
C1787 C1786 1.386 . S
C1787 C1791 1.393 . S
C1788 H1777 0.950 . S
C1788 C1786 1.391 . S
C1788 C1789 1.400 . S
C1789 C1783 1.491 . S
C1789 C1788 1.400 . S
C1789 C1790 1.398 . S
C1790 H1778 0.950 . S
C1790 C1789 1.398 . S
C1790 C1791 1.391 . S
C1791 H1779 0.950 . S
C1791 C1787 1.393 . S
C1791 C1790 1.391 . S
H1792 C1800 0.950 . S
H1793 C1805 0.950 . S
H1794 C1802 0.950 . S
H1795 C1804 0.950 . S
H1796 C1806 0.950 . S
H1797 C1808 0.950 . S
H1798 C1810 0.950 . S
H1799 C1811 0.950 . S
C1800 H1792 0.950 . S
C1800 C1801 1.386 . S
C1800 C1802 1.391 . S
C1801 C1800 1.386 . S
C1801 C1805 1.393 . S
C1802 H1794 0.950 . S
C1802 C1800 1.391 . S
C1802 C1803 1.400 . S
C1803 C1802 1.400 . S
C1803 C1804 1.398 . S
C1803 C1809 1.491 . S
C1804 H1795 0.950 . S
C1804 C1803 1.398 . S
C1804 C1805 1.391 . S
C1805 H1793 0.950 . S
C1805 C1801 1.393 . S
C1805 C1804 1.391 . S
C1806 H1796 0.950 . S
C1806 C1807 1.386 . S
C1806 C1808 1.391 . S
C1807 C1806 1.386 . S
C1807 C1811 1.393 . S
C1808 H1797 0.950 . S
C1808 C1806 1.391 . S
C1808 C1809 1.400 . S
C1809 C1803 1.491 . S
C1809 C1808 1.400 . S
C1809 C1810 1.398 . S
C1810 H1798 0.950 . S
C1810 C1809 1.398 . S
C1810 C1811 1.391 . S
C1811 H1799 0.950 . S
C1811 C1807 1.393 . S
C1811 C1810 1.391 . S
H1812 C1820 0.950 . S
H1813 C1825 0.950 . S
H1814 C1822 0.950 . S
H1815 C1824 0.950 . S
H1816 C1826 0.950 . S
H1817 C1828 0.950 . S
H1818 C1830 0.950 . S
H1819 C1831 0.950 . S
C1820 H1812 0.950 . S
C1820 C1821 1.386 . S
C1820 C1822 1.391 . S
C1821 C1820 1.386 . S
C1821 C1825 1.393 . S
C1822 H1814 0.950 . S
C1822 C1820 1.391 . S
C1822 C1823 1.400 . S
C1823 C1822 1.400 . S
C1823 C1824 1.398 . S
C1823 C1829 1.491 . S
C1824 H1815 0.950 . S
C1824 C1823 1.398 . S
C1824 C1825 1.391 . S
C1825 H1813 0.950 . S
C1825 C1821 1.393 . S
C1825 C1824 1.391 . S
C1826 H1816 0.950 . S
C1826 C1827 1.386 . S
C1826 C1828 1.391 . S
C1827 C1826 1.386 . S
C1827 C1831 1.393 . S
C1828 H1817 0.950 . S
C1828 C1826 1.391 . S
C1828 C1829 1.400 . S
C1829 C1823 1.491 . S
C1829 C1828 1.400 . S
C1829 C1830 1.398 . S
C1830 H1818 0.950 . S
C1830 C1829 1.398 . S
C1830 C1831 1.391 . S
C1831 H1819 0.950 . S
C1831 C1827 1.393 . S
C1831 C1830 1.391 . S
H1832 C1840 0.950 . S
H1833 C1845 0.942 1_455 S
H1834 C1842 0.950 . S
H1835 C1844 0.950 1_455 S
H1836 C1846 0.964 1_455 S
H1837 C1848 0.937 1_455 S
H1838 C1850 0.950 . S
H1839 C1851 0.950 . S
C1840 H1832 0.950 . S
C1840 C1841 1.386 . S
C1840 C1842 1.391 . S
C1841 C1840 1.386 . S
C1841 C1845 1.385 . S
C1842 H1834 0.950 . S
C1842 C1840 1.391 . S
C1842 C1843 1.400 . S
C1843 C1842 1.400 . S
C1843 C1844 1.398 . S
C1843 C1849 1.491 . S
C1844 H1835 0.950 1_655 S
C1844 C1843 1.398 . S
C1844 C1845 1.408 . S
C1845 H1833 0.942 1_655 S
C1845 C1841 1.385 . S
C1845 C1844 1.408 . S
C1846 H1836 0.964 1_655 S
C1846 C1847 1.400 . S
C1846 C1848 1.395 . S
C1847 C1846 1.400 . S
C1847 C1851 1.393 . S
C1848 H1837 0.937 1_655 S
C1848 C1846 1.395 . S
C1848 C1849 1.387 . S
C1849 C1843 1.491 . S
C1849 C1848 1.387 . S
C1849 C1850 1.398 . S
C1850 H1838 0.950 . S
C1850 C1849 1.398 . S
C1850 C1851 1.391 . S
C1851 H1839 0.950 . S
C1851 C1847 1.393 . S
C1851 C1850 1.391 . S
H1852 C1860 0.950 . S
H1853 C1865 0.950 . S
H1854 C1862 0.950 . S
H1855 C1864 0.950 . S
H1856 C1866 0.950 . S
H1857 C1868 0.950 . S
H1858 C1870 0.950 . S
H1859 C1871 0.950 . S
C1860 H1852 0.950 . S
C1860 C1861 1.386 . S
C1860 C1862 1.391 . S
C1861 C1860 1.386 . S
C1861 C1865 1.393 . S
C1862 H1854 0.950 . S
C1862 C1860 1.391 . S
C1862 C1863 1.400 . S
C1863 C1862 1.400 . S
C1863 C1864 1.398 . S
C1863 C1869 1.491 . S
C1864 H1855 0.950 . S
C1864 C1863 1.398 . S
C1864 C1865 1.391 . S
C1865 H1853 0.950 . S
C1865 C1861 1.393 . S
C1865 C1864 1.391 . S
C1866 H1856 0.950 . S
C1866 C1867 1.386 . S
C1866 C1868 1.391 . S
C1867 C1866 1.386 . S
C1867 C1871 1.393 . S
C1868 H1857 0.950 . S
C1868 C1866 1.391 . S
C1868 C1869 1.400 . S
C1869 C1863 1.491 . S
C1869 C1868 1.400 . S
C1869 C1870 1.398 . S
C1870 H1858 0.950 . S
C1870 C1869 1.398 . S
C1870 C1871 1.391 . S
C1871 H1859 0.950 . S
C1871 C1867 1.393 . S
C1871 C1870 1.391 . S
H1872 C1880 0.950 . S
H1873 C1885 0.950 . S
H1874 C1882 0.950 . S
H1875 C1884 0.950 . S
H1876 C1886 0.950 . S
H1877 C1888 0.950 . S
H1878 C1890 0.950 . S
H1879 C1891 0.950 . S
C1880 H1872 0.950 . S
C1880 C1881 1.386 . S
C1880 C1882 1.391 . S
C1881 C1880 1.386 . S
C1881 C1885 1.393 . S
C1882 H1874 0.950 . S
C1882 C1880 1.391 . S
C1882 C1883 1.400 . S
C1883 C1882 1.400 . S
C1883 C1884 1.398 . S
C1883 C1889 1.491 . S
C1884 H1875 0.950 . S
C1884 C1883 1.398 . S
C1884 C1885 1.391 . S
C1885 H1873 0.950 . S
C1885 C1881 1.393 . S
C1885 C1884 1.391 . S
C1886 H1876 0.950 . S
C1886 C1887 1.386 . S
C1886 C1888 1.391 . S
C1887 C1886 1.386 . S
C1887 C1891 1.393 . S
C1888 H1877 0.950 . S
C1888 C1886 1.391 . S
C1888 C1889 1.400 . S
C1889 C1883 1.491 . S
C1889 C1888 1.400 . S
C1889 C1890 1.398 . S
C1890 H1878 0.950 . S
C1890 C1889 1.398 . S
C1890 C1891 1.391 . S
C1891 H1879 0.950 . S
C1891 C1887 1.393 . S
C1891 C1890 1.391 . S
H1892 C1900 0.950 . S
H1893 C1905 0.950 . S
H1894 C1902 0.950 . S
H1895 C1904 0.950 . S
H1896 C1906 0.950 . S
H1897 C1908 0.950 . S
H1898 C1910 0.950 . S
H1899 C1911 0.950 . S
C1900 H1892 0.950 . S
C1900 C1901 1.386 . S
C1900 C1902 1.391 . S
C1901 C1900 1.386 . S
C1901 C1905 1.393 . S
C1902 H1894 0.950 . S
C1902 C1900 1.391 . S
C1902 C1903 1.400 . S
C1903 C1902 1.400 . S
C1903 C1904 1.398 . S
C1903 C1909 1.491 . S
C1904 H1895 0.950 . S
C1904 C1903 1.398 . S
C1904 C1905 1.391 . S
C1905 H1893 0.950 . S
C1905 C1901 1.393 . S
C1905 C1904 1.391 . S
C1906 H1896 0.950 . S
C1906 C1907 1.386 . S
C1906 C1908 1.391 . S
C1907 C1906 1.386 . S
C1907 C1911 1.393 . S
C1908 H1897 0.950 . S
C1908 C1906 1.391 . S
C1908 C1909 1.400 . S
C1909 C1903 1.491 . S
C1909 C1908 1.400 . S
C1909 C1910 1.398 . S
C1910 H1898 0.950 . S
C1910 C1909 1.398 . S
C1910 C1911 1.391 . S
C1911 H1899 0.950 . S
C1911 C1907 1.393 . S
C1911 C1910 1.391 . S
H1912 C1920 0.950 . S
H1913 C1925 0.950 . S
H1914 C1922 0.950 . S
H1915 C1924 0.950 . S
H1916 C1926 0.950 . S
H1917 C1928 0.950 . S
H1918 C1930 0.950 . S
H1919 C1931 0.950 . S
C1920 H1912 0.950 . S
C1920 C1921 1.386 . S
C1920 C1922 1.391 . S
C1921 C1920 1.386 . S
C1921 C1925 1.393 . S
C1922 H1914 0.950 . S
C1922 C1920 1.391 . S
C1922 C1923 1.400 . S
C1923 C1922 1.400 . S
C1923 C1924 1.398 . S
C1923 C1929 1.491 . S
C1924 H1915 0.950 . S
C1924 C1923 1.398 . S
C1924 C1925 1.391 . S
C1925 H1913 0.950 . S
C1925 C1921 1.393 . S
C1925 C1924 1.391 . S
C1926 H1916 0.950 . S
C1926 C1927 1.386 . S
C1926 C1928 1.391 . S
C1927 C1926 1.386 . S
C1927 C1931 1.393 . S
C1928 H1917 0.950 . S
C1928 C1926 1.391 . S
C1928 C1929 1.400 . S
C1929 C1923 1.491 . S
C1929 C1928 1.400 . S
C1929 C1930 1.398 . S
C1930 H1918 0.950 . S
C1930 C1929 1.398 . S
C1930 C1931 1.391 . S
C1931 H1919 0.950 . S
C1931 C1927 1.393 . S
C1931 C1930 1.391 . S
H1932 C1940 0.950 . S
H1933 C1945 0.950 . S
H1934 C1942 0.950 . S
H1935 C1944 0.950 . S
H1936 C1946 0.950 . S
H1937 C1948 0.950 . S
H1938 C1950 0.950 . S
H1939 C1951 0.950 . S
C1940 H1932 0.950 . S
C1940 C1941 1.386 . S
C1940 C1942 1.391 . S
C1941 C1940 1.386 . S
C1941 C1945 1.393 . S
C1942 H1934 0.950 . S
C1942 C1940 1.391 . S
C1942 C1943 1.400 . S
C1943 C1942 1.400 . S
C1943 C1944 1.398 . S
C1943 C1949 1.491 . S
C1944 H1935 0.950 . S
C1944 C1943 1.398 . S
C1944 C1945 1.391 . S
C1945 H1933 0.950 . S
C1945 C1941 1.393 . S
C1945 C1944 1.391 . S
C1946 H1936 0.950 . S
C1946 C1947 1.386 . S
C1946 C1948 1.391 . S
C1947 C1946 1.386 . S
C1947 C1951 1.393 . S
C1948 H1937 0.950 . S
C1948 C1946 1.391 . S
C1948 C1949 1.400 . S
C1949 C1943 1.491 . S
C1949 C1948 1.400 . S
C1949 C1950 1.398 . S
C1950 H1938 0.950 . S
C1950 C1949 1.398 . S
C1950 C1951 1.391 . S
C1951 H1939 0.950 . S
C1951 C1947 1.393 . S
C1951 C1950 1.391 . S
H1952 C1960 0.950 . S
H1953 C1965 0.950 . S
H1954 C1962 0.950 . S
H1955 C1964 0.950 . S
H1956 C1966 0.950 . S
H1957 C1968 0.950 . S
H1958 C1970 0.950 . S
H1959 C1971 0.950 . S
C1960 H1952 0.950 . S
C1960 C1961 1.386 . S
C1960 C1962 1.391 . S
C1961 C1960 1.386 . S
C1961 C1965 1.393 . S
C1962 H1954 0.950 . S
C1962 C1960 1.391 . S
C1962 C1963 1.400 . S
C1963 C1962 1.400 . S
C1963 C1964 1.398 . S
C1963 C1969 1.491 . S
C1964 H1955 0.950 . S
C1964 C1963 1.398 . S
C1964 C1965 1.391 . S
C1965 H1953 0.950 . S
C1965 C1961 1.393 . S
C1965 C1964 1.391 . S
C1966 H1956 0.950 . S
C1966 C1967 1.386 . S
C1966 C1968 1.391 . S
C1967 C1966 1.386 . S
C1967 C1971 1.393 . S
C1968 H1957 0.950 . S
C1968 C1966 1.391 . S
C1968 C1969 1.400 . S
C1969 C1963 1.491 . S
C1969 C1968 1.400 . S
C1969 C1970 1.398 . S
C1970 H1958 0.950 . S
C1970 C1969 1.398 . S
C1970 C1971 1.391 . S
C1971 H1959 0.950 . S
C1971 C1967 1.393 . S
C1971 C1970 1.391 . S
H1972 C1980 0.950 . S
H1973 C1985 0.950 . S
H1974 C1982 0.950 . S
H1975 C1984 0.950 . S
H1976 C1986 0.950 . S
H1977 C1988 0.950 . S
H1978 C1990 0.950 . S
H1979 C1991 0.950 . S
C1980 H1972 0.950 . S
C1980 C1981 1.386 . S
C1980 C1982 1.391 . S
C1981 C1980 1.386 . S
C1981 C1985 1.393 . S
C1982 H1974 0.950 . S
C1982 C1980 1.391 . S
C1982 C1983 1.400 . S
C1983 C1982 1.400 . S
C1983 C1984 1.398 . S
C1983 C1989 1.491 . S
C1984 H1975 0.950 . S
C1984 C1983 1.398 . S
C1984 C1985 1.391 . S
C1985 H1973 0.950 . S
C1985 C1981 1.393 . S
C1985 C1984 1.391 . S
C1986 H1976 0.950 . S
C1986 C1987 1.386 . S
C1986 C1988 1.391 . S
C1987 C1986 1.386 . S
C1987 C1991 1.393 . S
C1988 H1977 0.950 . S
C1988 C1986 1.391 . S
C1988 C1989 1.400 . S
C1989 C1983 1.491 . S
C1989 C1988 1.400 . S
C1989 C1990 1.398 . S
C1990 H1978 0.950 . S
C1990 C1989 1.398 . S
C1990 C1991 1.391 . S
C1991 H1979 0.950 . S
C1991 C1987 1.393 . S
C1991 C1990 1.391 . S
H1992 C2000 0.950 . S
H1993 C2005 0.950 . S
H1994 C2002 0.950 . S
H1995 C2004 0.950 . S
H1996 C2006 0.950 . S
H1997 C2008 0.950 . S
H1998 C2010 0.950 . S
H1999 C2011 0.950 . S
C2000 H1992 0.950 . S
C2000 C2001 1.386 1_455 S
C2000 C2002 1.391 . S
C2001 C2000 1.386 1_655 S
C2001 C2005 1.393 . S
C2002 H1994 0.950 . S
C2002 C2000 1.391 . S
C2002 C2003 1.400 1_455 S
C2003 C2002 1.400 1_655 S
C2003 C2004 1.398 . S
C2003 C2009 1.491 . S
C2004 H1995 0.950 . S
C2004 C2003 1.398 . S
C2004 C2005 1.391 . S
C2005 H1993 0.950 . S
C2005 C2001 1.393 . S
C2005 C2004 1.391 . S
C2006 H1996 0.950 . S
C2006 C2007 1.418 . S
C2006 C2008 1.391 . S
C2007 C2006 1.418 . S
C2007 C2011 1.387 1_655 S
C2008 H1997 0.950 . S
C2008 C2006 1.391 . S
C2008 C2009 1.400 . S
C2009 C2003 1.491 . S
C2009 C2008 1.400 . S
C2009 C2010 1.398 1_655 S
C2010 H1998 0.950 . S
C2010 C2009 1.398 1_455 S
C2010 C2011 1.391 . S
C2011 H1999 0.950 . S
C2011 C2007 1.387 1_455 S
C2011 C2010 1.391 . S
H2012 C2020 0.950 . S
H2013 C2025 0.950 . S
H2014 C2022 0.950 . S
H2015 C2024 0.950 . S
H2016 C2026 0.950 . S
H2017 C2028 0.950 . S
H2018 C2030 0.950 . S
H2019 C2031 0.950 . S
C2020 H2012 0.950 . S
C2020 C2021 1.386 . S
C2020 C2022 1.391 . S
C2021 C2020 1.386 . S
C2021 C2025 1.393 . S
C2022 H2014 0.950 . S
C2022 C2020 1.391 . S
C2022 C2023 1.400 . S
C2023 C2022 1.400 . S
C2023 C2024 1.398 . S
C2023 C2029 1.491 . S
C2024 H2015 0.950 . S
C2024 C2023 1.398 . S
C2024 C2025 1.391 . S
C2025 H2013 0.950 . S
C2025 C2021 1.393 . S
C2025 C2024 1.391 . S
C2026 H2016 0.950 . S
C2026 C2027 1.386 . S
C2026 C2028 1.391 . S
C2027 C2026 1.386 . S
C2027 C2031 1.393 . S
C2028 H2017 0.950 . S
C2028 C2026 1.391 . S
C2028 C2029 1.400 . S
C2029 C2023 1.491 . S
C2029 C2028 1.400 . S
C2029 C2030 1.398 . S
C2030 H2018 0.950 . S
C2030 C2029 1.398 . S
C2030 C2031 1.391 . S
C2031 H2019 0.950 . S
C2031 C2027 1.393 . S
C2031 C2030 1.391 . S
H2032 C2040 0.950 . S
H2033 C2045 0.950 . S
H2034 C2042 0.950 . S
H2035 C2044 0.950 . S
H2036 C2046 0.950 . S
H2037 C2048 0.950 . S
H2038 C2050 0.950 . S
H2039 C2051 0.950 . S
C2040 H2032 0.950 . S
C2040 C2041 1.386 . S
C2040 C2042 1.391 . S
C2041 C2040 1.386 . S
C2041 C2045 1.393 . S
C2042 H2034 0.950 . S
C2042 C2040 1.391 . S
C2042 C2043 1.400 . S
C2043 C2042 1.400 . S
C2043 C2044 1.398 . S
C2043 C2049 1.491 . S
C2044 H2035 0.950 . S
C2044 C2043 1.398 . S
C2044 C2045 1.391 . S
C2045 H2033 0.950 . S
C2045 C2041 1.393 . S
C2045 C2044 1.391 . S
C2046 H2036 0.950 . S
C2046 C2047 1.386 . S
C2046 C2048 1.391 . S
C2047 C2046 1.386 . S
C2047 C2051 1.393 . S
C2048 H2037 0.950 . S
C2048 C2046 1.391 . S
C2048 C2049 1.400 . S
C2049 C2043 1.491 . S
C2049 C2048 1.400 . S
C2049 C2050 1.398 . S
C2050 H2038 0.950 . S
C2050 C2049 1.398 . S
C2050 C2051 1.391 . S
C2051 H2039 0.950 . S
C2051 C2047 1.393 . S
C2051 C2050 1.391 . S
C621 C10 1.639 . S
C627 C440 1.581 . S
C641 C23 1.623 . S
C647 C453 1.579 . S
C667 C482 1.557 1_545 S
C661 C29 1.629 . S
C681 C30 1.625 . S
C687 C495 1.586 . S
C701 C5 1.645 . S
C707 C516 1.616 . S
C721 C18 1.630 . S
C727 C545 1.581 . S
C741 C49 1.636 . S
C747 C524 1.577 . S
C767 C537 1.578 . S
C761 C62 1.620 . S
C787 C503 1.586 . S
C781 C70 1.625 . S
C801 C75 1.626 . S
C807 C474 1.587 1_545 S
C827 C432 1.596 . S
C821 C44 1.640 . S
C841 C57 1.621 . S
C847 C461 1.567 . S
C861 C88 1.639 . S
C867 C566 1.566 . S
C881 C101 1.627 . S
C887 C579 1.583 . S
C907 C608 1.578 . S
C901 C107 1.627 . S
C921 C108 1.625 . S
C927 C243 1.580 . S
C941 C83 1.644 . S
C947 C264 1.617 . S
C961 C96 1.634 . S
C967 C293 1.584 . S
C981 C127 1.634 . S
C987 C272 1.587 . S
C1001 C140 1.619 . S
C1007 C285 1.566 . S
C1027 C251 1.580 . S
C1021 C146 1.626 . S
C1047 C600 1.572 . S
C1041 C147 1.625 . S
C1067 C558 1.582 . S
C1061 C122 1.632 . S
C1087 C587 1.577 . S
C1081 C135 1.627 . S
C1101 C160 1.637 . S
C1107 C314 1.569 . S
C1121 C173 1.630 . S
C1127 C327 1.598 . S
C1141 C185 1.630 . S
C1147 C356 1.567 . S
C1161 C186 1.630 . S
C1167 C369 1.600 . S
C1187 C390 1.611 . S
C1181 C159 1.640 . S
C1207 C419 1.583 . S
C1201 C172 1.634 . S
C1227 C398 1.587 . S
C1221 C205 1.638 . S
C1247 C411 1.581 . S
C1241 C218 1.626 . S
C1261 C224 1.627 . S
C1267 C377 1.581 . S
C1287 C348 1.565 . S
C1281 C225 1.621 . S
C1301 C200 1.635 . S
C1307 C306 1.598 . S
C1327 C335 1.584 . S
C1321 C213 1.629 . S
C1347 C246 1.380 . S
C1341 C4 1.511 . S
C1361 C17 1.503 . S
C1367 C267 1.393 . S
C1387 C295 1.430 . S
C1381 C31 1.505 . S
C1407 C316 1.423 . S
C1401 C36 1.495 . S
C1427 C330 1.407 . S
C1421 C3 1.520 . S
C1447 C358 1.403 . S
C1441 C16 1.513 . S
C1461 C43 1.514 . S
C1467 C351 1.385 . S
C1481 C56 1.505 . S
C1487 C309 1.363 . S
C1501 C68 1.511 . S
C1507 C337 1.416 . S
C1521 C69 1.493 . S
C1527 C274 1.400 . S
C1547 C288 1.382 . S
C1541 C42 1.517 . S
C1561 C55 1.512 . S
C1567 C253 1.433 . S
C1587 C372 1.399 . S
C1581 C82 1.514 . S
C1601 C95 1.504 . S
C1607 C393 1.391 . S
C1621 C109 1.510 . S
C1627 C421 1.400 . S
C1647 C442 1.404 . S
C1641 C114 1.500 . S
C1661 C81 1.517 . S
C1667 C456 1.401 . S
C1681 C94 1.508 . S
C1687 C484 1.438 . S
C1701 C121 1.517 . S
C1707 C477 1.401 . S
C1721 C134 1.498 . S
C1727 C435 1.374 . S
C1747 C463 1.408 . S
C1741 C148 1.511 . S
C1761 C153 1.499 . S
C1767 C400 1.393 . S
C1781 C120 1.521 . S
C1787 C414 1.370 . S
C1807 C379 1.434 . S
C1801 C133 1.511 . S
C1827 C498 1.404 . S
C1821 C166 1.519 . S
C1841 C179 1.505 . S
C1847 C519 1.389 1_655 S
C1861 C187 1.505 . S
C1867 C547 1.428 . S
C1887 C568 1.400 . S
C1881 C192 1.500 . S
C1907 C582 1.367 . S
C1901 C161 1.516 . S
C1921 C174 1.513 . S
C1927 C610 1.414 . S
C1941 C199 1.513 . S
C1947 C603 1.403 . S
C1961 C212 1.504 . S
C1967 C561 1.375 . S
C1987 C589 1.401 . S
C1981 C226 1.506 . S
C2007 C526 1.385 1_655 S
C2001 C231 1.489 . S
C2027 C540 1.393 . S
C2021 C198 1.516 . S
C2041 C211 1.508 . S
C2047 C505 1.413 . S
