# Generated by pormake.
# Topology anh, (6,3)-cn, num edge types: 1
# Building blocks:
#     Node 0, Type 0, BuildingBlock: MIFKUJ_clean_sbu_0, # of connection points: 6
#     Node 1, Type 0, BuildingBlock: MIFKUJ_clean_sbu_0, # of connection points: 6
#     Node 2, Type 0, BuildingBlock: MIFKUJ_clean_sbu_0, # of connection points: 6
#     Node 3, Type 1, BuildingBlock: PAMTOO_clean_linker_0, # of connection points: 3
#     Node 4, Type 1, BuildingBlock: PAMTOO_clean_linker_0, # of connection points: 3
#     Node 5, Type 1, BuildingBlock: PAMTOO_clean_linker_0, # of connection points: 3
#     Node 6, Type 1, BuildingBlock: PAMTOO_clean_linker_0, # of connection points: 3
#     Node 7, Type 1, BuildingBlock: PAMTOO_clean_linker_0, # of connection points: 3
#     Node 8, Type 1, BuildingBlock: PAMTOO_clean_linker_0, # of connection points: 3
#     Edge 9, Type (0, 1), BuildingBlock: XUDNAN_clean_linker_2, # of connection points: 2
#     Edge 10, Type (0, 1), BuildingBlock: XUDNAN_clean_linker_2, # of connection points: 2
#     Edge 11, Type (0, 1), BuildingBlock: XUDNAN_clean_linker_2, # of connection points: 2
#     Edge 12, Type (0, 1), BuildingBlock: XUDNAN_clean_linker_2, # of connection points: 2
#     Edge 13, Type (0, 1), BuildingBlock: XUDNAN_clean_linker_2, # of connection points: 2
#     Edge 14, Type (0, 1), BuildingBlock: XUDNAN_clean_linker_2, # of connection points: 2
#     Edge 15, Type (0, 1), BuildingBlock: XUDNAN_clean_linker_2, # of connection points: 2
#     Edge 16, Type (0, 1), BuildingBlock: XUDNAN_clean_linker_2, # of connection points: 2
#     Edge 17, Type (0, 1), BuildingBlock: XUDNAN_clean_linker_2, # of connection points: 2
#     Edge 18, Type (0, 1), BuildingBlock: XUDNAN_clean_linker_2, # of connection points: 2
#     Edge 19, Type (0, 1), BuildingBlock: XUDNAN_clean_linker_2, # of connection points: 2
#     Edge 20, Type (0, 1), BuildingBlock: XUDNAN_clean_linker_2, # of connection points: 2
#     Edge 21, Type (0, 1), BuildingBlock: XUDNAN_clean_linker_2, # of connection points: 2
#     Edge 22, Type (0, 1), BuildingBlock: XUDNAN_clean_linker_2, # of connection points: 2
#     Edge 23, Type (0, 1), BuildingBlock: XUDNAN_clean_linker_2, # of connection points: 2
#     Edge 24, Type (0, 1), BuildingBlock: XUDNAN_clean_linker_2, # of connection points: 2
#     Edge 25, Type (0, 1), BuildingBlock: XUDNAN_clean_linker_2, # of connection points: 2
#     Edge 26, Type (0, 1), BuildingBlock: XUDNAN_clean_linker_2, # of connection points: 2
# Relax obj value: 0.082
# Max RMSD: 0.147
# Mean RMSD: 0.110
data_MOF--net-anh--node1-MIFKUJ_clean_sbu_0--node2-PAMTOO_clean_linker_0--edge1-XUDNAN_clean_linker_2
_symmetry_space_group_name_H-M    P1
_symmetry_Int_Tables_number       1
_symmetry_cell_setting            triclinic
loop_
_symmetry_equiv_pos_as_xyz
'x, y, z'
_cell_length_a     32.025658
_cell_length_b     31.837396
_cell_length_c     46.247918
_cell_angle_alpha  88.458024
_cell_angle_beta   93.558887
_cell_angle_gamma 120.2851
loop_
_atom_site_label
_atom_site_type_symbol
_atom_site_fract_x
_atom_site_fract_y
_atom_site_fract_z
_atom_type_partial_charge
Zn0 Zn 0.10741 0.57581 0.16065 0.0
Zn1 Zn 0.95584 0.48688 0.16631 0.0
C2 C 0.18549 0.55886 0.15926 0.0
O3 O 0.20727 0.60148 0.17226 0.0
C4 C 0.86529 0.47872 0.16035 0.0
O5 O 0.86253 0.44852 0.1405 0.0
O6 O 0.14845 0.64656 0.15109 0.0
O7 O 0.04213 0.54389 0.14325 0.0
O8 O 0.97037 0.50524 0.12358 0.0
C9 C 0.17312 0.66096 0.12872 0.0
O10 O 0.16927 0.62879 0.10994 0.0
O11 O 0.14077 0.53922 0.15175 0.0
C12 C 0.90043 0.3898 0.18986 0.0
O13 O 0.90781 0.41246 0.21462 0.0
O14 O 0.9222 0.41403 0.16793 0.0
O15 O 0.014 0.52113 0.19683 0.0
O16 O 0.09432 0.56884 0.20247 0.0
O17 O 0.90474 0.50267 0.17548 0.0
C18 C 0.01506 0.53293 0.12056 0.0
C19 C 0.05286 0.54397 0.21305 0.0
Zn20 Zn 0.63461 0.09136 0.49946 0.0
Zn21 Zn 0.57263 0.94667 0.50016 0.0
C22 C 0.73497 0.15535 0.51 0.0
O23 O 0.71704 0.16846 0.53042 0.0
C24 C 0.4764 0.86385 0.48337 0.0
O25 O 0.49908 0.8541 0.46427 0.0
O26 O 0.62732 0.15052 0.49833 0.0
O27 O 0.59325 0.0528 0.46402 0.0
O28 O 0.58849 0.98078 0.46249 0.0
C29 C 0.63955 0.17609 0.47547 0.0
O30 O 0.65522 0.16223 0.45415 0.0
O31 O 0.70612 0.11909 0.49394 0.0
C32 C 0.62723 0.89668 0.51952 0.0
O33 O 0.64124 0.92236 0.54359 0.0
O34 O 0.6005 0.90276 0.50049 0.0
O35 O 0.58664 0.98368 0.53695 0.0
O36 O 0.61817 0.0636 0.5397 0.0
O37 O 0.50017 0.90141 0.49941 0.0
C38 C 0.58176 0.01352 0.45086 0.0
C39 C 0.60101 0.02215 0.55161 0.0
Zn40 Zn 0.64699 0.5243 0.83687 0.0
Zn41 Zn 0.54338 0.57274 0.83478 0.0
C42 C 0.65059 0.44306 0.85861 0.0
O43 O 0.67953 0.47709 0.87742 0.0
C44 C 0.59489 0.67829 0.82707 0.0
O45 O 0.60849 0.66889 0.80302 0.0
O46 O 0.71749 0.563 0.82843 0.0
O47 O 0.6062 0.538 0.80554 0.0
O48 O 0.55278 0.56156 0.79345 0.0
C49 C 0.73515 0.54524 0.81199 0.0
O50 O 0.70614 0.50341 0.79895 0.0
O51 O 0.6295 0.4538 0.83795 0.0
C52 C 0.45375 0.55469 0.85587 0.0
O53 O 0.4829 0.59641 0.86896 0.0
O54 O 0.47185 0.53465 0.84163 0.0
O55 O 0.58489 0.55235 0.85575 0.0
O56 O 0.64004 0.54199 0.87774 0.0
O57 O 0.56858 0.64342 0.84347 0.0
C58 C 0.58098 0.54652 0.78634 0.0
C59 C 0.60779 0.55354 0.8791 0.0
H60 H 0.60269 0.10097 0.2509 0.0
H61 H 0.46858 0.97248 0.22567 0.0
H62 H 0.5622 0.06115 0.16056 0.0
H63 H 0.45897 0.02094 0.13994 0.0
C64 C 0.44374 0.99418 0.15777 0.0
O65 O 0.47923 0.98592 0.1702 0.0
H66 H 0.43077 0.00975 0.17392 0.0
C67 C 0.57783 0.0772 0.23397 0.0
C68 C 0.58868 0.0879 0.20463 0.0
C69 C 0.53545 0.03496 0.24191 0.0
C70 C 0.502 0.00465 0.22013 0.0
C71 C 0.51159 0.0153 0.19099 0.0
C72 C 0.55508 0.05573 0.18331 0.0
H73 H 0.64306 0.62038 0.58464 0.0
H74 H 0.63201 0.48245 0.57006 0.0
H75 H 0.67076 0.5856 0.50093 0.0
H76 H 0.60764 0.48717 0.47947 0.0
C77 C 0.61191 0.46716 0.49845 0.0
O78 O 0.65226 0.49857 0.51548 0.0
H79 H 0.57861 0.45238 0.51083 0.0
C80 C 0.64731 0.59642 0.57044 0.0
C81 C 0.65851 0.60948 0.54142 0.0
C82 C 0.63822 0.55105 0.58101 0.0
C83 C 0.63994 0.51804 0.56235 0.0
C84 C 0.65168 0.53081 0.53356 0.0
C85 C 0.66165 0.57652 0.52328 0.0
H86 H 0.03147 0.60467 0.91178 0.0
H87 H 0.13655 0.55822 0.91359 0.0
H88 H 0.06667 0.56447 0.83251 0.0
H89 H 0.09704 0.48291 0.83563 0.0
C90 C 0.12243 0.5001 0.85482 0.0
O91 O 0.13252 0.54749 0.85726 0.0
H92 H 0.10517 0.47883 0.87445 0.0
C93 C 0.05243 0.59287 0.9004 0.0
C94 C 0.04546 0.58636 0.87022 0.0
C95 C 0.08451 0.58198 0.91619 0.0
C96 C 0.11114 0.5661 0.9016 0.0
C97 C 0.10485 0.56011 0.87142 0.0
C98 C 0.07147 0.56941 0.85582 0.0
H99 H 0.00718 0.42624 0.41713 0.0
H100 H 0.1398 0.56204 0.43424 0.0
H101 H 0.08107 0.4558 0.50141 0.0
H102 H 0.13813 0.56681 0.52525 0.0
C103 C 0.1494 0.57999 0.503 0.0
O104 O 0.15089 0.54368 0.48814 0.0
H105 H 0.12235 0.58854 0.49242 0.0
C106 C 0.03776 0.45017 0.43148 0.0
C107 C 0.0408 0.43485 0.4599 0.0
C108 C 0.07277 0.49622 0.42182 0.0
C109 C 0.11146 0.52685 0.44116 0.0
C110 C 0.11401 0.51272 0.46982 0.0
C111 C 0.07858 0.46679 0.47929 0.0
H112 H 0.60198 0.96053 0.76414 0.0
H113 H 0.61007 0.09902 0.76856 0.0
H114 H 0.63852 0.03686 0.84564 0.0
H115 H 0.58184 0.08668 0.85574 0.0
C116 C 0.59245 0.11043 0.83631 0.0
O117 O 0.63085 0.11031 0.82441 0.0
H118 H 0.56045 0.09551 0.82055 0.0
C119 C 0.60905 0.99193 0.77671 0.0
C120 C 0.62196 0.99425 0.80644 0.0
C121 C 0.60474 0.02933 0.76282 0.0
C122 C 0.61347 0.06988 0.77894 0.0
C123 C 0.62474 0.07207 0.80886 0.0
C124 C 0.62918 0.03444 0.82259 0.0
H125 H 0.62744 0.54557 0.08553 0.0
H126 H 0.48892 0.53773 0.08148 0.0
H127 H 0.53862 0.49471 0.15893 0.0
H128 H 0.42726 0.43624 0.14975 0.0
C129 C 0.42626 0.46013 0.13209 0.0
O130 O 0.46843 0.50472 0.13421 0.0
H131 H 0.42271 0.44253 0.11087 0.0
C132 C 0.59442 0.5373 0.09558 0.0
C133 C 0.58714 0.51932 0.12394 0.0
C134 C 0.55943 0.54446 0.08006 0.0
C135 C 0.5164 0.53249 0.09309 0.0
C136 C 0.50905 0.51452 0.12146 0.0
C137 C 0.54454 0.50841 0.13697 0.0
H138 H 0.28355 0.59938 0.16121 0.0
H139 H 0.14932 0.46351 0.14386 0.0
H140 H 0.1961 0.42303 0.13494 0.0
H141 H 0.34959 0.58383 0.10609 0.0
H142 H 0.406 0.61211 0.1276 0.0
H143 H 0.36161 0.62981 0.13248 0.0
H144 H 0.36175 0.6098 0.18722 0.0
H145 H 0.40604 0.59196 0.1825 0.0
H146 H 0.34963 0.55008 0.19819 0.0
H147 H 0.2585 0.39745 0.12894 0.0
H148 H 0.33128 0.38982 0.12485 0.0
H149 H 0.42286 0.54325 0.14579 0.0
C150 C 0.26391 0.56108 0.15559 0.0
C151 C 0.21288 0.53448 0.15337 0.0
C152 C 0.18852 0.48455 0.14565 0.0
C153 C 0.21473 0.46126 0.1406 0.0
C154 C 0.26515 0.48861 0.1431 0.0
C155 C 0.2894 0.5375 0.15023 0.0
C156 C 0.34364 0.55903 0.15119 0.0
C157 C 0.36654 0.59852 0.12795 0.0
C158 C 0.36659 0.57886 0.18159 0.0
C159 C 0.34625 0.51445 0.14401 0.0
C160 C 0.30071 0.47417 0.1393 0.0
C161 C 0.29434 0.42885 0.13244 0.0
C162 C 0.33572 0.42483 0.13017 0.0
C163 C 0.38265 0.46581 0.1347 0.0
C164 C 0.38769 0.51108 0.14191 0.0
H165 H 0.80041 0.24413 0.53373 0.0
H166 H 0.78534 0.13885 0.47014 0.0
H167 H 0.86787 0.19624 0.45495 0.0
H168 H 0.85627 0.34476 0.4901 0.0
H169 H 0.89631 0.38614 0.51819 0.0
H170 H 0.83965 0.33425 0.52726 0.0
H171 H 0.88491 0.30592 0.56388 0.0
H172 H 0.94187 0.35796 0.55497 0.0
H173 H 0.93273 0.29753 0.5519 0.0
H174 H 0.94693 0.26828 0.44248 0.0
H175 H 0.01638 0.34987 0.4333 0.0
H176 H 0.98051 0.40872 0.5049 0.0
C177 C 0.81488 0.23251 0.51715 0.0
C178 C 0.78647 0.18674 0.50327 0.0
C179 C 0.80648 0.17352 0.48122 0.0
C180 C 0.8534 0.20586 0.4725 0.0
C181 C 0.87992 0.25116 0.48615 0.0
C182 C 0.86148 0.26441 0.50812 0.0
C183 C 0.89541 0.31685 0.51737 0.0
C184 C 0.87041 0.34727 0.51295 0.0
C185 C 0.91489 0.31972 0.54891 0.0
C186 C 0.93509 0.33163 0.49647 0.0
C187 C 0.92574 0.29296 0.47893 0.0
C188 C 0.95506 0.29854 0.45642 0.0
C189 C 0.99431 0.34496 0.45133 0.0
C190 C 0.00392 0.38524 0.4686 0.0
C191 C 0.97456 0.37823 0.49186 0.0
H192 H 0.64377 0.75991 0.79437 0.0
H193 H 0.56839 0.70892 0.87394 0.0
H194 H 0.57728 0.78964 0.88136 0.0
H195 H 0.7284 0.88745 0.81841 0.0
H196 H 0.72433 0.91081 0.78305 0.0
H197 H 0.71814 0.85142 0.78652 0.0
H198 H 0.63519 0.81378 0.75755 0.0
H199 H 0.64089 0.87278 0.75411 0.0
H200 H 0.58845 0.82355 0.76993 0.0
H201 H 0.58409 0.87247 0.87607 0.0
H202 H 0.58881 0.9489 0.85858 0.0
H203 H 0.66322 0.9462 0.78403 0.0
C204 C 0.63017 0.76599 0.81375 0.0
C205 C 0.60543 0.7281 0.83354 0.0
C206 C 0.58759 0.73744 0.85844 0.0
C207 C 0.59258 0.78326 0.86291 0.0
C208 C 0.61598 0.81948 0.84247 0.0
C209 C 0.63491 0.81139 0.81854 0.0
C210 C 0.65469 0.85459 0.79845 0.0
C211 C 0.70966 0.87742 0.79651 0.0
C212 C 0.62821 0.8403 0.76825 0.0
C213 C 0.64258 0.88769 0.81426 0.0
C214 C 0.62063 0.86719 0.83974 0.0
C215 C 0.6022 0.88935 0.85647 0.0
C216 C 0.60523 0.9329 0.84647 0.0
C217 C 0.62629 0.95353 0.81991 0.0
C218 C 0.64665 0.93128 0.80433 0.0
H219 H 0.77765 0.43231 0.13065 0.0
H220 H 0.85854 0.54034 0.198 0.0
H221 H 0.78969 0.55453 0.20099 0.0
H222 H 0.73127 0.49526 0.0933 0.0
H223 H 0.67316 0.44296 0.08355 0.0
H224 H 0.72525 0.43609 0.0902 0.0
H225 H 0.6804 0.37088 0.12914 0.0
H226 H 0.628 0.37762 0.12261 0.0
H227 H 0.6556 0.38533 0.15871 0.0
H228 H 0.71506 0.56274 0.1927 0.0
H229 H 0.64397 0.5672 0.17199 0.0
H230 H 0.61467 0.45554 0.10945 0.0
C231 C 0.7807 0.45837 0.14644 0.0
C232 C 0.82343 0.48524 0.16409 0.0
C233 C 0.82604 0.51927 0.18429 0.0
C234 C 0.78703 0.52736 0.18624 0.0
C235 C 0.7457 0.50082 0.16803 0.0
C236 C 0.74237 0.4669 0.14858 0.0
C237 C 0.69625 0.44632 0.1295 0.0
C238 C 0.70717 0.45577 0.09725 0.0
C239 C 0.6631 0.39181 0.13535 0.0
C240 C 0.6752 0.47575 0.14016 0.0
C241 C 0.70343 0.50609 0.16293 0.0
C242 C 0.69235 0.53864 0.17518 0.0
C243 C 0.65206 0.54094 0.16339 0.0
C244 C 0.62423 0.5115 0.13936 0.0
C245 C 0.63538 0.47797 0.12804 0.0
H246 H 0.41228 0.78148 0.45192 0.0
H247 H 0.42454 0.86584 0.52753 0.0
H248 H 0.34226 0.80338 0.53987 0.0
H249 H 0.28243 0.73736 0.43449 0.0
H250 H 0.27047 0.6786 0.42272 0.0
H251 H 0.32934 0.73148 0.41874 0.0
H252 H 0.3689 0.68846 0.4476 0.0
H253 H 0.3102 0.6357 0.45199 0.0
H254 H 0.34974 0.66573 0.48338 0.0
H255 H 0.26139 0.72949 0.54622 0.0
H256 H 0.18436 0.6509 0.54419 0.0
H257 H 0.22273 0.61505 0.46387 0.0
C258 C 0.39743 0.78712 0.47086 0.0
C259 C 0.42507 0.82857 0.48881 0.0
C260 C 0.40419 0.83452 0.51339 0.0
C261 C 0.35744 0.79916 0.52065 0.0
C262 C 0.33165 0.75825 0.50293 0.0
C263 C 0.35049 0.75232 0.47829 0.0
C264 C 0.31517 0.70454 0.46321 0.0
C265 C 0.29836 0.71355 0.433 0.0
C266 C 0.33734 0.67168 0.46146 0.0
C267 C 0.27424 0.68396 0.48372 0.0
C268 C 0.28452 0.71566 0.50643 0.0
C269 C 0.25285 0.70441 0.52849 0.0
C270 C 0.20939 0.65964 0.52727 0.0
C271 C 0.19805 0.62641 0.50433 0.0
C272 C 0.23074 0.6392 0.48203 0.0
H273 H 0.60729 0.36867 0.81858 0.0
H274 H 0.68232 0.40703 0.9036 0.0
H275 H 0.67659 0.32686 0.90688 0.0
H276 H 0.52456 0.24251 0.83355 0.0
H277 H 0.52716 0.22191 0.79814 0.0
H278 H 0.53675 0.28219 0.80277 0.0
H279 H 0.61949 0.31859 0.77948 0.0
H280 H 0.61037 0.25845 0.77494 0.0
H281 H 0.66406 0.30421 0.79451 0.0
H282 H 0.66351 0.24278 0.90079 0.0
H283 H 0.64165 0.15953 0.88609 0.0
H284 H 0.57619 0.1762 0.805 0.0
C285 C 0.62222 0.36009 0.83796 0.0
C286 C 0.64514 0.3941 0.86085 0.0
C287 C 0.6646 0.3816 0.88576 0.0
C288 C 0.66158 0.33614 0.88784 0.0
C289 C 0.63916 0.30363 0.86478 0.0
C290 C 0.61977 0.31495 0.84034 0.0
C291 C 0.59799 0.27363 0.81852 0.0
C292 C 0.54337 0.25389 0.81293 0.0
C293 C 0.62457 0.28969 0.79019 0.0
C294 C 0.60775 0.2371 0.83463 0.0
C295 C 0.63169 0.2552 0.86125 0.0
C296 C 0.64458 0.22813 0.88006 0.0
C297 C 0.63207 0.18103 0.8716 0.0
C298 C 0.60668 0.16147 0.84471 0.0
C299 C 0.59512 0.19022 0.82583 0.0
H300 H 0.67389 0.86415 0.55786 0.0
H301 H 0.60554 0.84061 0.47111 0.0
H302 H 0.61666 0.77047 0.4649 0.0
H303 H 0.76222 0.82455 0.54151 0.0
H304 H 0.75632 0.79571 0.57629 0.0
H305 H 0.74953 0.84851 0.57253 0.0
H306 H 0.66503 0.8003 0.59395 0.0
H307 H 0.67149 0.74747 0.59766 0.0
H308 H 0.61978 0.74356 0.5773 0.0
H309 H 0.62387 0.69659 0.4705 0.0
H310 H 0.6276 0.62467 0.48743 0.0
H311 H 0.69621 0.69784 0.56937 0.0
C312 C 0.66237 0.84498 0.53731 0.0
C313 C 0.63892 0.85799 0.515 0.0
C314 C 0.62366 0.83145 0.48857 0.0
C315 C 0.63 0.79161 0.48473 0.0
C316 C 0.65217 0.779 0.50738 0.0
C317 C 0.66857 0.8051 0.53306 0.0
C318 C 0.68753 0.78141 0.55481 0.0
C319 C 0.74216 0.81453 0.56168 0.0
C320 C 0.65925 0.76735 0.58255 0.0
C321 C 0.67715 0.73686 0.53779 0.0
C322 C 0.65734 0.7365 0.51036 0.0
C323 C 0.64054 0.69698 0.49165 0.0
C324 C 0.64313 0.65628 0.50146 0.0
C325 C 0.66249 0.65537 0.52975 0.0
C326 C 0.68096 0.697 0.54769 0.0
H327 H 0.78428 0.49882 0.8005 0.0
H328 H 0.80515 0.63863 0.82572 0.0
H329 H 0.89264 0.66951 0.83496 0.0
H330 H 0.85482 0.49185 0.85508 0.0
H331 H 0.87994 0.46252 0.83532 0.0
H332 H 0.82199 0.45495 0.82368 0.0
H333 H 0.85262 0.48697 0.77269 0.0
H334 H 0.91079 0.49423 0.78409 0.0
H335 H 0.90692 0.54513 0.76918 0.0
H336 H 0.97276 0.67978 0.85063 0.0
H337 H 0.04012 0.66906 0.87077 0.0
H338 H 0.96798 0.52271 0.8357 0.0
C339 C 0.80762 0.53656 0.80678 0.0
C340 C 0.78815 0.56655 0.81214 0.0
C341 C 0.81948 0.61519 0.82134 0.0
C342 C 0.86923 0.63308 0.82651 0.0
C343 C 0.88702 0.60188 0.8223 0.0
C344 C 0.85724 0.55472 0.81237 0.0
C345 C 0.88376 0.52645 0.81364 0.0
C346 C 0.85864 0.48132 0.83309 0.0
C347 C 0.88883 0.51238 0.78307 0.0
C348 C 0.93234 0.5643 0.82715 0.0
C349 C 0.93377 0.60785 0.83148 0.0
C350 C 0.97263 0.64638 0.84664 0.0
C351 C 0.01056 0.63994 0.8581 0.0
C352 C 0.0093 0.59537 0.85433 0.0
C353 C 0.97031 0.5576 0.83807 0.0
H354 H 0.21361 0.72923 0.17175 0.0
H355 H 0.21775 0.70882 0.0798 0.0
H356 H 0.2851 0.79383 0.07647 0.0
H357 H 0.24343 0.85581 0.16939 0.0
H358 H 0.28074 0.87121 0.2026 0.0
H359 H 0.23033 0.8104 0.19698 0.0
H360 H 0.28792 0.77592 0.20654 0.0
H361 H 0.33855 0.83658 0.212 0.0
H362 H 0.34012 0.79736 0.18523 0.0
H363 H 0.35521 0.87951 0.08402 0.0
H364 H 0.42239 0.95934 0.10184 0.0
H365 H 0.37289 0.92216 0.1889 0.0
C366 C 0.22798 0.7429 0.15077 0.0
C367 C 0.21025 0.71269 0.12594 0.0
C368 C 0.2308 0.73152 0.09904 0.0
C369 C 0.26895 0.7797 0.09695 0.0
C370 C 0.28619 0.80826 0.12201 0.0
C371 C 0.26635 0.79051 0.1484 0.0
C372 C 0.2933 0.8274 0.17244 0.0
C373 C 0.25995 0.84208 0.18615 0.0
C374 C 0.31633 0.80816 0.1954 0.0
C375 C 0.33143 0.86882 0.15548 0.0
C376 C 0.32671 0.85719 0.12641 0.0
C377 C 0.3589 0.88922 0.10665 0.0
C378 C 0.39682 0.93435 0.11691 0.0
C379 C 0.4019 0.94691 0.14655 0.0
C380 C 0.36899 0.91359 0.16603 0.0
H381 H 0.61394 0.21804 0.51673 0.0
H382 H 0.66032 0.23652 0.42872 0.0
H383 H 0.65772 0.31263 0.42473 0.0
H384 H 0.53122 0.26284 0.50446 0.0
H385 H 0.54609 0.29307 0.53913 0.0
H386 H 0.55132 0.23985 0.535 0.0
H387 H 0.6411 0.28812 0.55422 0.0
H388 H 0.63618 0.3415 0.55841 0.0
H389 H 0.68238 0.34411 0.53682 0.0
H390 H 0.65121 0.38744 0.43057 0.0
H391 H 0.64026 0.45511 0.4459 0.0
H392 H 0.59801 0.38754 0.52979 0.0
C393 C 0.6234 0.23797 0.49658 0.0
C394 C 0.63727 0.22128 0.47302 0.0
C395 C 0.64958 0.24858 0.44707 0.0
C396 C 0.64821 0.29186 0.44458 0.0
C397 C 0.63448 0.30733 0.46823 0.0
C398 C 0.62228 0.28123 0.49372 0.0
C399 C 0.60912 0.30597 0.516 0.0
C400 C 0.5563 0.27349 0.52411 0.0
C401 C 0.6443 0.3208 0.54295 0.0
C402 C 0.61577 0.35002 0.49903 0.0
C403 C 0.63044 0.35019 0.47152 0.0
C404 C 0.63943 0.38755 0.45199 0.0
C405 C 0.63308 0.42569 0.46081 0.0
C406 C 0.61756 0.42578 0.48877 0.0
C407 C 0.60922 0.3877 0.50814 0.0
H408 H 0.4056 0.59554 0.87859 0.0
H409 H 0.38236 0.47121 0.8287 0.0
H410 H 0.29484 0.44321 0.82298 0.0
H411 H 0.29595 0.53529 0.91651 0.0
H412 H 0.28673 0.58669 0.91464 0.0
H413 H 0.34716 0.59618 0.91513 0.0
H414 H 0.36225 0.64505 0.86737 0.0
H415 H 0.30184 0.63566 0.86672 0.0
H416 H 0.32136 0.61752 0.8361 0.0
H417 H 0.20964 0.43015 0.82184 0.0
H418 H 0.13411 0.43262 0.82626 0.0
H419 H 0.21444 0.56472 0.8776 0.0
C420 C 0.38214 0.56207 0.86675 0.0
C421 C 0.40082 0.53532 0.85431 0.0
C422 C 0.36883 0.49209 0.83864 0.0
C423 C 0.3191 0.476 0.83518 0.0
C424 C 0.30203 0.50359 0.84749 0.0
C425 C 0.33265 0.54565 0.86301 0.0
C426 C 0.30562 0.56927 0.87369 0.0
C427 C 0.30906 0.57198 0.90697 0.0
C428 C 0.32387 0.61986 0.86016 0.0
C429 C 0.25481 0.53356 0.86215 0.0
C430 C 0.25342 0.49614 0.84684 0.0
C431 C 0.21038 0.45935 0.83373 0.0
C432 C 0.16777 0.46107 0.83627 0.0
C433 C 0.16865 0.49939 0.85165 0.0
C434 C 0.21271 0.53548 0.86517 0.0
H435 H 0.85698 0.31664 0.22976 0.0
H436 H 0.84591 0.35342 0.13961 0.0
H437 H 0.76631 0.27911 0.13329 0.0
H438 H 0.79762 0.1827 0.21579 0.0
H439 H 0.76832 0.16776 0.24964 0.0
H440 H 0.82605 0.2226 0.24667 0.0
H441 H 0.78921 0.27281 0.26443 0.0
H442 H 0.73122 0.21829 0.26694 0.0
H443 H 0.73641 0.26833 0.24515 0.0
H444 H 0.68301 0.20963 0.13902 0.0
H445 H 0.60692 0.1398 0.15333 0.0
H446 H 0.67663 0.13857 0.23712 0.0
C447 C 0.83825 0.30833 0.20855 0.0
C448 C 0.85757 0.34088 0.18523 0.0
C449 C 0.83201 0.32896 0.15778 0.0
C450 C 0.78659 0.28692 0.15397 0.0
C451 C 0.76785 0.25637 0.17757 0.0
C452 C 0.79341 0.26555 0.20407 0.0
C453 C 0.76475 0.22627 0.22573 0.0
C454 C 0.79073 0.19816 0.23499 0.0
C455 C 0.75482 0.24773 0.25211 0.0
C456 C 0.71858 0.19478 0.20748 0.0
C457 C 0.72097 0.21324 0.17994 0.0
C458 C 0.68122 0.19354 0.16016 0.0
C459 C 0.63801 0.15326 0.16854 0.0
C460 C 0.63494 0.13181 0.19627 0.0
C461 C 0.67642 0.15329 0.21582 0.0
H462 H -0.0005 0.47751 0.07284 0.0
H463 H 0.07356 0.62619 0.10416 0.0
H464 H 0.10575 0.65542 0.05575 0.0
H465 H 0.09529 0.49333 0.02608 0.0
H466 H 0.05274 0.45264 0.99855 0.0
H467 H 0.03753 0.44359 0.03595 0.0
H468 H 0.95945 0.4468 0.02232 0.0
H469 H 0.97425 0.45555 0.98492 0.0
H470 H 0.96386 0.49869 0.00296 0.0
H471 H 0.12312 0.6683 0.00286 0.0
H472 H 0.12692 0.6637 0.94969 0.0
H473 H 0.04596 0.50643 0.95367 0.0
C474 C 0.02274 0.51615 0.0694 0.0
C475 C 0.03458 0.54984 0.09198 0.0
C476 C 0.0649 0.60006 0.08701 0.0
C477 C 0.08315 0.61687 0.05966 0.0
C478 C 0.07111 0.58274 0.03775 0.0
C479 C 0.04197 0.53338 0.04239 0.0
C480 C 0.03386 0.50435 0.01512 0.0
C481 C 0.05619 0.47154 0.01918 0.0
C482 C 0.97964 0.47462 0.00578 0.0
C483 C 0.06146 0.54513 0.99412 0.0
C484 C 0.0829 0.5901 0.00761 0.0
C485 C 0.10736 0.63332 0.99217 0.0
C486 C 0.10942 0.63046 0.96211 0.0
C487 C 0.08763 0.58478 0.94805 0.0
C488 C 0.06397 0.54168 0.96426 0.0
H489 H 0.58313 0.08178 0.41213 0.0
H490 H 0.53956 0.92893 0.42016 0.0
H491 H 0.51395 0.9164 0.36847 0.0
H492 H 0.48556 0.06423 0.35683 0.0
H493 H 0.52543 0.11888 0.33779 0.0
H494 H 0.53475 0.11505 0.3764 0.0
H495 H 0.62303 0.13645 0.36972 0.0
H496 H 0.6141 0.14023 0.33117 0.0
H497 H 0.63423 0.09993 0.34572 0.0
H498 H 0.50096 0.92135 0.31567 0.0
H499 H 0.5033 0.94424 0.2643 0.0
H500 H 0.55371 0.09347 0.28951 0.0
C501 C 0.56734 0.04553 0.40311 0.0
C502 C 0.56351 0.00642 0.42021 0.0
C503 C 0.54317 0.9596 0.4075 0.0
C504 C 0.52814 0.95194 0.37817 0.0
C505 C 0.5333 0.99135 0.36177 0.0
C506 C 0.55221 0.0372 0.3737 0.0
C507 C 0.55726 0.07394 0.35064 0.0
C508 C 0.52375 0.09421 0.35572 0.0
C509 C 0.61031 0.11504 0.34923 0.0
C510 C 0.54024 0.0419 0.32383 0.0
C511 C 0.52572 0.99422 0.33088 0.0
C512 C 0.51132 0.95836 0.30983 0.0
C513 C 0.51253 0.9717 0.28068 0.0
C514 C 0.52834 0.02058 0.27282 0.0
C515 C 0.54146 0.05583 0.2948 0.0
H516 H 0.65604 0.59635 0.75122 0.0
H517 H 0.50866 0.47594 0.75286 0.0
H518 H 0.50981 0.45936 0.70094 0.0
H519 H 0.63977 0.63934 0.68183 0.0
H520 H 0.69987 0.65837 0.67102 0.0
H521 H 0.68902 0.65762 0.7088 0.0
H522 H 0.72524 0.60172 0.71945 0.0
H523 H 0.73598 0.6021 0.68162 0.0
H524 H 0.70062 0.54515 0.69989 0.0
H525 H 0.52689 0.45649 0.64898 0.0
H526 H 0.55508 0.47345 0.59905 0.0
H527 H 0.6889 0.59962 0.63039 0.0
C528 C 0.62439 0.56618 0.74058 0.0
C529 C 0.58249 0.53675 0.75576 0.0
C530 C 0.54112 0.49838 0.74134 0.0
C531 C 0.54156 0.48867 0.71201 0.0
C532 C 0.58344 0.51828 0.69746 0.0
C533 C 0.62387 0.55673 0.71112 0.0
C534 C 0.66264 0.58547 0.68996 0.0
C535 C 0.67343 0.63832 0.68777 0.0
C536 C 0.70885 0.58347 0.69823 0.0
C537 C 0.63761 0.55734 0.66228 0.0
C538 C 0.59234 0.51818 0.66718 0.0
C539 C 0.56228 0.487 0.64486 0.0
C540 C 0.57858 0.49669 0.61668 0.0
C541 C 0.62403 0.53765 0.61112 0.0
C542 C 0.65402 0.56799 0.63424 0.0
H543 H 0.65004 0.08999 0.59522 0.0
H544 H 0.53197 0.94256 0.57842 0.0
H545 H 0.51498 0.93277 0.63006 0.0
H546 H 0.69269 0.06218 0.66172 0.0
H547 H 0.70939 0.11883 0.67927 0.0
H548 H 0.70968 0.11619 0.64046 0.0
H549 H 0.65167 0.15078 0.63511 0.0
H550 H 0.65084 0.15304 0.67397 0.0
H551 H 0.59484 0.12014 0.65239 0.0
H552 H 0.51179 0.93697 0.68289 0.0
H553 H 0.52835 0.95189 0.7355 0.0
H554 H 0.65036 0.09522 0.71966 0.0
C555 C 0.62034 0.0559 0.60245 0.0
C556 C 0.59217 0.01713 0.58281 0.0
C557 C 0.55415 0.97271 0.59309 0.0
C558 C 0.5439 0.9669 0.62235 0.0
C559 C 0.57221 0.00569 0.64115 0.0
C560 C 0.61004 0.04913 0.63181 0.0
C561 C 0.6372 0.08338 0.65714 0.0
C562 C 0.69038 0.09586 0.6598 0.0
C563 C 0.63339 0.12957 0.65449 0.0
C564 C 0.60908 0.05198 0.68211 0.0
C565 C 0.57125 0.00767 0.6722 0.0
C566 C 0.54115 0.97157 0.69096 0.0
C567 C 0.55086 0.98033 0.72075 0.0
C568 C 0.5906 0.02461 0.7315 0.0
C569 C 0.61933 0.06138 0.71193 0.0
H570 H 0.52772 0.51485 0.91027 0.0
H571 H 0.6765 0.63209 0.90927 0.0
H572 H 0.6732 0.65348 0.95968 0.0
H573 H 0.48403 0.57227 0.96462 0.0
H574 H 0.44791 0.51402 0.9814 0.0
H575 H 0.45679 0.51746 0.94308 0.0
H576 H 0.48916 0.45771 0.94961 0.0
H577 H 0.48139 0.45478 0.98786 0.0
H578 H 0.53997 0.4726 0.97487 0.0
H579 H 0.66073 0.65086 0.01162 0.0
H580 H 0.64004 0.62478 0.06197 0.0
H581 H 0.49993 0.50673 0.03108 0.0
C582 C 0.55858 0.54648 0.92039 0.0
C583 C 0.60203 0.57268 0.90607 0.0
C584 C 0.64276 0.61236 0.92 0.0
C585 C 0.64108 0.62478 0.94853 0.0
C586 C 0.59848 0.59677 0.9628 0.0
C587 C 0.55772 0.55858 0.94917 0.0
C588 C 0.51976 0.52903 0.97072 0.0
C589 C 0.47444 0.53348 0.96459 0.0
C590 C 0.50687 0.47539 0.97076 0.0
C591 C 0.54676 0.55464 0.99874 0.0
C592 C 0.59155 0.59441 0.99353 0.0
C593 C 0.62531 0.62063 0.01598 0.0
C594 C 0.61343 0.60536 0.04447 0.0
C595 C 0.56833 0.56404 0.05028 0.0
C596 C 0.53414 0.53917 0.02717 0.0
H597 H 0.01828 0.46693 0.25009 0.0
H598 H 0.08506 0.62376 0.24646 0.0
H599 H 0.09081 0.62792 0.3 0.0
H600 H 0.95214 0.44717 0.31715 0.0
H601 H 0.96512 0.40083 0.33009 0.0
H602 H 0.9589 0.40938 0.2917 0.0
H603 H 0.04388 0.42066 0.28564 0.0
H604 H 0.05049 0.4125 0.32395 0.0
H605 H 0.09535 0.4667 0.30666 0.0
H606 H 0.09403 0.61565 0.3534 0.0
H607 H 0.09824 0.58859 0.4033 0.0
H608 H 0.03754 0.44042 0.37191 0.0
C609 C 0.03271 0.50183 0.26073 0.0
C610 C 0.05034 0.54499 0.24452 0.0
C611 C 0.07079 0.59038 0.25881 0.0
C612 C 0.07411 0.59304 0.2891 0.0
C613 C 0.05746 0.54997 0.30465 0.0
C614 C 0.03735 0.5052 0.29102 0.0
C615 C 0.02719 0.46518 0.31276 0.0
C616 C 0.97259 0.42847 0.31293 0.0
C617 C 0.05596 0.4398 0.3069 0.0
C618 C 0.04567 0.4946 0.34058 0.0
C619 C 0.06205 0.54323 0.33547 0.0
C620 C 0.08137 0.57763 0.35771 0.0
C621 C 0.08416 0.56192 0.38598 0.0
C622 C 0.06863 0.51233 0.39175 0.0
C623 C 0.04903 0.47842 0.36855 0.0
loop_
_geom_bond_atom_site_label_1
_geom_bond_atom_site_label_2
_geom_bond_distance
_geom_bond_site_symmetry_2
_ccdc_geom_bond_type
Zn0 O6 1.969 . S
Zn0 O7 1.965 . S
Zn0 O11 2.024 . S
Zn0 O16 1.969 . S
Zn1 O8 1.969 . S
Zn1 O14 1.969 . S
Zn1 O15 1.965 . S
Zn1 O17 2.024 . S
C2 O3 1.229 . S
C2 O11 1.058 . S
O3 C2 1.229 . S
C4 O5 1.229 . S
C4 O17 1.058 . S
O5 C4 1.229 . S
O6 Zn0 1.969 . S
O6 C9 1.267 . S
O7 Zn0 1.965 . S
O7 C18 1.260 . S
O8 Zn1 1.969 . S
O8 C18 1.258 1_655 S
C9 O6 1.267 . S
C9 O10 1.228 . S
O10 C9 1.228 . S
O11 Zn0 2.024 . S
O11 C2 1.058 . S
C12 O13 1.228 . S
C12 O14 1.267 . S
O13 C12 1.228 . S
O14 Zn1 1.969 . S
O14 C12 1.267 . S
O15 Zn1 1.965 . S
O15 C19 1.260 1_655 S
O16 Zn0 1.969 . S
O16 C19 1.258 . S
O17 Zn1 2.024 . S
O17 C4 1.058 . S
C18 O7 1.260 . S
C18 O8 1.258 1_455 S
C19 O15 1.260 1_455 S
C19 O16 1.258 . S
Zn20 O26 1.969 . S
Zn20 O27 1.965 . S
Zn20 O31 2.024 . S
Zn20 O36 1.969 . S
Zn21 O28 1.969 . S
Zn21 O34 1.969 . S
Zn21 O35 1.956 1_565 S
Zn21 O37 2.024 . S
C22 O23 1.229 . S
C22 O31 1.058 . S
O23 C22 1.229 . S
C24 O25 1.229 . S
C24 O37 1.058 . S
O25 C24 1.229 . S
O26 Zn20 1.969 . S
O26 C29 1.267 . S
O27 Zn20 1.965 . S
O27 C38 1.260 . S
O28 Zn21 1.969 . S
O28 C38 1.258 1_565 S
C29 O26 1.267 . S
C29 O30 1.228 . S
O30 C29 1.228 . S
O31 Zn20 2.024 . S
O31 C22 1.058 . S
C32 O33 1.228 . S
C32 O34 1.267 . S
O33 C32 1.228 . S
O34 Zn21 1.969 . S
O34 C32 1.267 . S
O35 Zn21 1.956 1_545 S
O35 C39 1.272 . S
O36 Zn20 1.969 . S
O36 C39 1.258 . S
O37 Zn21 2.024 . S
O37 C24 1.058 . S
C38 O27 1.260 . S
C38 O28 1.258 1_545 S
C39 O35 1.272 . S
C39 O36 1.258 . S
Zn40 O46 1.969 . S
Zn40 O47 1.965 . S
Zn40 O51 2.024 . S
Zn40 O56 1.969 . S
Zn41 O48 1.969 . S
Zn41 O54 1.969 . S
Zn41 O55 1.965 . S
Zn41 O57 2.024 . S
C42 O43 1.229 . S
C42 O51 1.058 . S
O43 C42 1.229 . S
C44 O45 1.229 . S
C44 O57 1.058 . S
O45 C44 1.229 . S
O46 Zn40 1.969 . S
O46 C49 1.267 . S
O47 Zn40 1.965 . S
O47 C58 1.260 . S
O48 Zn41 1.969 . S
O48 C58 1.258 . S
C49 O46 1.267 . S
C49 O50 1.228 . S
O50 C49 1.228 . S
O51 Zn40 2.024 . S
O51 C42 1.058 . S
C52 O53 1.228 . S
C52 O54 1.267 . S
O53 C52 1.228 . S
O54 Zn41 1.969 . S
O54 C52 1.267 . S
O55 Zn41 1.965 . S
O55 C59 1.260 . S
O56 Zn40 1.969 . S
O56 C59 1.258 . S
O57 Zn41 2.024 . S
O57 C44 1.058 . S
C58 O47 1.260 . S
C58 O48 1.258 . S
C59 O55 1.260 . S
C59 O56 1.258 . S
H60 C67 0.929 . S
H61 C70 0.930 1_565 S
H62 C72 0.929 . S
H63 C64 0.969 . S
C64 H63 0.969 . S
C64 O65 1.550 . S
C64 H66 0.973 . S
O65 C64 1.550 . S
O65 C71 1.412 1_565 S
H66 C64 0.973 . S
C67 H60 0.929 . S
C67 C68 1.400 . S
C67 C69 1.364 . S
C68 C67 1.400 . S
C68 C72 1.377 . S
C69 C67 1.364 . S
C69 C70 1.374 . S
C70 H61 0.930 1_545 S
C70 C69 1.374 . S
C70 C71 1.383 . S
C71 O65 1.412 1_545 S
C71 C70 1.383 . S
C71 C72 1.394 . S
C72 H62 0.929 . S
C72 C68 1.377 . S
C72 C71 1.394 . S
H73 C80 0.929 . S
H74 C83 0.930 . S
H75 C85 0.929 . S
H76 C77 0.969 . S
C77 H76 0.969 . S
C77 O78 1.550 . S
C77 H79 0.973 . S
O78 C77 1.550 . S
O78 C84 1.412 . S
H79 C77 0.973 . S
C80 H73 0.929 . S
C80 C81 1.400 . S
C80 C82 1.364 . S
C81 C80 1.400 . S
C81 C85 1.377 . S
C82 C80 1.364 . S
C82 C83 1.374 . S
C83 H74 0.930 . S
C83 C82 1.374 . S
C83 C84 1.383 . S
C84 O78 1.412 . S
C84 C83 1.383 . S
C84 C85 1.394 . S
C85 H75 0.929 . S
C85 C81 1.377 . S
C85 C84 1.394 . S
H86 C93 0.929 . S
H87 C96 0.930 . S
H88 C98 0.929 . S
H89 C90 0.969 . S
C90 H89 0.969 . S
C90 O91 1.550 . S
C90 H92 0.973 . S
O91 C90 1.550 . S
O91 C97 1.412 . S
H92 C90 0.973 . S
C93 H86 0.929 . S
C93 C94 1.400 . S
C93 C95 1.364 . S
C94 C93 1.400 . S
C94 C98 1.377 . S
C95 C93 1.364 . S
C95 C96 1.374 . S
C96 H87 0.930 . S
C96 C95 1.374 . S
C96 C97 1.383 . S
C97 O91 1.412 . S
C97 C96 1.383 . S
C97 C98 1.394 . S
C98 H88 0.929 . S
C98 C94 1.377 . S
C98 C97 1.394 . S
H99 C106 0.932 . S
H100 C109 0.930 . S
H101 C111 0.929 . S
H102 C103 0.969 . S
C103 H102 0.969 . S
C103 O104 1.550 . S
C103 H105 0.973 . S
O104 C103 1.550 . S
O104 C110 1.412 . S
H105 C103 0.973 . S
C106 H99 0.932 . S
C106 C107 1.400 . S
C106 C108 1.364 . S
C107 C106 1.400 . S
C107 C111 1.377 . S
C108 C106 1.364 . S
C108 C109 1.374 . S
C109 H100 0.930 . S
C109 C108 1.374 . S
C109 C110 1.383 . S
C110 O104 1.412 . S
C110 C109 1.383 . S
C110 C111 1.394 . S
C111 H101 0.929 . S
C111 C107 1.377 . S
C111 C110 1.394 . S
H112 C119 0.929 . S
H113 C122 0.930 . S
H114 C124 0.929 . S
H115 C116 0.969 . S
C116 H115 0.969 . S
C116 O117 1.550 . S
C116 H118 0.973 . S
O117 C116 1.550 . S
O117 C123 1.412 . S
H118 C116 0.973 . S
C119 H112 0.929 . S
C119 C120 1.400 . S
C119 C121 1.364 1_565 S
C120 C119 1.400 . S
C120 C124 1.377 1_565 S
C121 C119 1.364 1_545 S
C121 C122 1.374 . S
C122 H113 0.930 . S
C122 C121 1.374 . S
C122 C123 1.383 . S
C123 O117 1.412 . S
C123 C122 1.383 . S
C123 C124 1.394 . S
C124 H114 0.929 . S
C124 C120 1.377 1_545 S
C124 C123 1.394 . S
H125 C132 0.929 . S
H126 C135 0.930 . S
H127 C137 0.929 . S
H128 C129 0.969 . S
C129 H128 0.969 . S
C129 O130 1.550 . S
C129 H131 0.973 . S
O130 C129 1.550 . S
O130 C136 1.412 . S
H131 C129 0.973 . S
C132 H125 0.929 . S
C132 C133 1.400 . S
C132 C134 1.364 . S
C133 C132 1.400 . S
C133 C137 1.377 . S
C134 C132 1.364 . S
C134 C135 1.374 . S
C135 H126 0.930 . S
C135 C134 1.374 . S
C135 C136 1.383 . S
C136 O130 1.412 . S
C136 C135 1.383 . S
C136 C137 1.394 . S
C137 H127 0.929 . S
C137 C133 1.377 . S
C137 C136 1.394 . S
H138 C150 0.930 . S
H139 C152 0.930 . S
H140 C153 0.930 . S
H141 C157 0.959 . S
H142 C157 0.959 . S
H143 C157 0.961 . S
H144 C158 0.960 . S
H145 C158 0.961 . S
H146 C158 0.959 . S
H147 C161 0.929 . S
H148 C162 0.931 . S
H149 C164 0.930 . S
C150 H138 0.930 . S
C150 C151 1.399 . S
C150 C155 1.399 . S
C151 C150 1.399 . S
C151 C152 1.376 . S
C152 H139 0.930 . S
C152 C151 1.376 . S
C152 C153 1.388 . S
C153 H140 0.930 . S
C153 C152 1.388 . S
C153 C154 1.390 . S
C154 C153 1.390 . S
C154 C155 1.394 . S
C154 C160 1.465 . S
C155 C150 1.399 . S
C155 C154 1.394 . S
C155 C156 1.516 . S
C156 C155 1.516 . S
C156 C157 1.502 . S
C156 C158 1.561 . S
C156 C159 1.526 . S
C157 H141 0.959 . S
C157 H142 0.959 . S
C157 H143 0.961 . S
C157 C156 1.502 . S
C158 H144 0.960 . S
C158 H145 0.961 . S
C158 H146 0.959 . S
C158 C156 1.561 . S
C159 C156 1.526 . S
C159 C160 1.396 . S
C159 C164 1.390 . S
C160 C154 1.465 . S
C160 C159 1.396 . S
C160 C161 1.399 . S
C161 H147 0.929 . S
C161 C160 1.399 . S
C161 C162 1.385 . S
C162 H148 0.931 . S
C162 C161 1.385 . S
C162 C163 1.389 . S
C163 C162 1.389 . S
C163 C164 1.387 . S
C164 H149 0.930 . S
C164 C159 1.390 . S
C164 C163 1.387 . S
H165 C177 0.930 . S
H166 C179 0.930 . S
H167 C180 0.930 . S
H168 C184 0.959 . S
H169 C184 0.959 . S
H170 C184 0.961 . S
H171 C185 0.960 . S
H172 C185 0.961 . S
H173 C185 0.959 . S
H174 C188 0.929 . S
H175 C189 0.931 . S
H176 C191 0.930 . S
C177 H165 0.930 . S
C177 C178 1.399 . S
C177 C182 1.399 . S
C178 C177 1.399 . S
C178 C179 1.376 . S
C179 H166 0.930 . S
C179 C178 1.376 . S
C179 C180 1.388 . S
C180 H167 0.930 . S
C180 C179 1.388 . S
C180 C181 1.390 . S
C181 C180 1.390 . S
C181 C182 1.394 . S
C181 C187 1.465 . S
C182 C177 1.399 . S
C182 C181 1.394 . S
C182 C183 1.516 . S
C183 C182 1.516 . S
C183 C184 1.502 . S
C183 C185 1.561 . S
C183 C186 1.526 . S
C184 H168 0.959 . S
C184 H169 0.959 . S
C184 H170 0.961 . S
C184 C183 1.502 . S
C185 H171 0.960 . S
C185 H172 0.961 . S
C185 H173 0.959 . S
C185 C183 1.561 . S
C186 C183 1.526 . S
C186 C187 1.396 . S
C186 C191 1.390 . S
C187 C181 1.465 . S
C187 C186 1.396 . S
C187 C188 1.399 . S
C188 H174 0.929 . S
C188 C187 1.399 . S
C188 C189 1.385 . S
C189 H175 0.931 . S
C189 C188 1.385 . S
C189 C190 1.389 . S
C190 C189 1.389 . S
C190 C191 1.387 . S
C191 H176 0.930 . S
C191 C186 1.390 . S
C191 C190 1.387 . S
H192 C204 0.930 . S
H193 C206 0.930 . S
H194 C207 0.930 . S
H195 C211 0.959 . S
H196 C211 0.959 . S
H197 C211 0.961 . S
H198 C212 0.960 . S
H199 C212 0.961 . S
H200 C212 0.959 . S
H201 C215 0.929 . S
H202 C216 0.931 . S
H203 C218 0.930 . S
C204 H192 0.930 . S
C204 C205 1.399 . S
C204 C209 1.399 . S
C205 C204 1.399 . S
C205 C206 1.376 . S
C206 H193 0.930 . S
C206 C205 1.376 . S
C206 C207 1.388 . S
C207 H194 0.930 . S
C207 C206 1.388 . S
C207 C208 1.390 . S
C208 C207 1.390 . S
C208 C209 1.394 . S
C208 C214 1.465 . S
C209 C204 1.399 . S
C209 C208 1.394 . S
C209 C210 1.516 . S
C210 C209 1.516 . S
C210 C211 1.502 . S
C210 C212 1.561 . S
C210 C213 1.526 . S
C211 H195 0.959 . S
C211 H196 0.959 . S
C211 H197 0.961 . S
C211 C210 1.502 . S
C212 H198 0.960 . S
C212 H199 0.961 . S
C212 H200 0.959 . S
C212 C210 1.561 . S
C213 C210 1.526 . S
C213 C214 1.396 . S
C213 C218 1.390 . S
C214 C208 1.465 . S
C214 C213 1.396 . S
C214 C215 1.399 . S
C215 H201 0.929 . S
C215 C214 1.399 . S
C215 C216 1.385 . S
C216 H202 0.931 . S
C216 C215 1.385 . S
C216 C217 1.389 . S
C217 C216 1.389 . S
C217 C218 1.387 . S
C218 H203 0.930 . S
C218 C213 1.390 . S
C218 C217 1.387 . S
H219 C231 0.930 . S
H220 C233 0.930 . S
H221 C234 0.930 . S
H222 C238 0.959 . S
H223 C238 0.959 . S
H224 C238 0.961 . S
H225 C239 0.960 . S
H226 C239 0.961 . S
H227 C239 0.959 . S
H228 C242 0.929 . S
H229 C243 0.931 . S
H230 C245 0.930 . S
C231 H219 0.930 . S
C231 C232 1.399 . S
C231 C236 1.399 . S
C232 C231 1.399 . S
C232 C233 1.376 . S
C233 H220 0.930 . S
C233 C232 1.376 . S
C233 C234 1.388 . S
C234 H221 0.930 . S
C234 C233 1.388 . S
C234 C235 1.390 . S
C235 C234 1.390 . S
C235 C236 1.394 . S
C235 C241 1.465 . S
C236 C231 1.399 . S
C236 C235 1.394 . S
C236 C237 1.516 . S
C237 C236 1.516 . S
C237 C238 1.502 . S
C237 C239 1.561 . S
C237 C240 1.526 . S
C238 H222 0.959 . S
C238 H223 0.959 . S
C238 H224 0.961 . S
C238 C237 1.502 . S
C239 H225 0.960 . S
C239 H226 0.961 . S
C239 H227 0.959 . S
C239 C237 1.561 . S
C240 C237 1.526 . S
C240 C241 1.396 . S
C240 C245 1.390 . S
C241 C235 1.465 . S
C241 C240 1.396 . S
C241 C242 1.399 . S
C242 H228 0.929 . S
C242 C241 1.399 . S
C242 C243 1.385 . S
C243 H229 0.931 . S
C243 C242 1.385 . S
C243 C244 1.389 . S
C244 C243 1.389 . S
C244 C245 1.387 . S
C245 H230 0.930 . S
C245 C240 1.390 . S
C245 C244 1.387 . S
H246 C258 0.930 . S
H247 C260 0.930 . S
H248 C261 0.930 . S
H249 C265 0.959 . S
H250 C265 0.959 . S
H251 C265 0.961 . S
H252 C266 0.960 . S
H253 C266 0.961 . S
H254 C266 0.959 . S
H255 C269 0.929 . S
H256 C270 0.931 . S
H257 C272 0.930 . S
C258 H246 0.930 . S
C258 C259 1.399 . S
C258 C263 1.399 . S
C259 C258 1.399 . S
C259 C260 1.376 . S
C260 H247 0.930 . S
C260 C259 1.376 . S
C260 C261 1.388 . S
C261 H248 0.930 . S
C261 C260 1.388 . S
C261 C262 1.390 . S
C262 C261 1.390 . S
C262 C263 1.394 . S
C262 C268 1.465 . S
C263 C258 1.399 . S
C263 C262 1.394 . S
C263 C264 1.516 . S
C264 C263 1.516 . S
C264 C265 1.502 . S
C264 C266 1.561 . S
C264 C267 1.526 . S
C265 H249 0.959 . S
C265 H250 0.959 . S
C265 H251 0.961 . S
C265 C264 1.502 . S
C266 H252 0.960 . S
C266 H253 0.961 . S
C266 H254 0.959 . S
C266 C264 1.561 . S
C267 C264 1.526 . S
C267 C268 1.396 . S
C267 C272 1.390 . S
C268 C262 1.465 . S
C268 C267 1.396 . S
C268 C269 1.399 . S
C269 H255 0.929 . S
C269 C268 1.399 . S
C269 C270 1.385 . S
C270 H256 0.931 . S
C270 C269 1.385 . S
C270 C271 1.389 . S
C271 C270 1.389 . S
C271 C272 1.387 . S
C272 H257 0.930 . S
C272 C267 1.390 . S
C272 C271 1.387 . S
H273 C285 0.930 . S
H274 C287 0.930 . S
H275 C288 0.930 . S
H276 C292 0.959 . S
H277 C292 0.959 . S
H278 C292 0.961 . S
H279 C293 0.960 . S
H280 C293 0.961 . S
H281 C293 0.959 . S
H282 C296 0.929 . S
H283 C297 0.931 . S
H284 C299 0.930 . S
C285 H273 0.930 . S
C285 C286 1.399 . S
C285 C290 1.399 . S
C286 C285 1.399 . S
C286 C287 1.376 . S
C287 H274 0.930 . S
C287 C286 1.376 . S
C287 C288 1.388 . S
C288 H275 0.930 . S
C288 C287 1.388 . S
C288 C289 1.390 . S
C289 C288 1.390 . S
C289 C290 1.394 . S
C289 C295 1.465 . S
C290 C285 1.399 . S
C290 C289 1.394 . S
C290 C291 1.516 . S
C291 C290 1.516 . S
C291 C292 1.502 . S
C291 C293 1.561 . S
C291 C294 1.526 . S
C292 H276 0.959 . S
C292 H277 0.959 . S
C292 H278 0.961 . S
C292 C291 1.502 . S
C293 H279 0.960 . S
C293 H280 0.961 . S
C293 H281 0.959 . S
C293 C291 1.561 . S
C294 C291 1.526 . S
C294 C295 1.396 . S
C294 C299 1.390 . S
C295 C289 1.465 . S
C295 C294 1.396 . S
C295 C296 1.399 . S
C296 H282 0.929 . S
C296 C295 1.399 . S
C296 C297 1.385 . S
C297 H283 0.931 . S
C297 C296 1.385 . S
C297 C298 1.389 . S
C298 C297 1.389 . S
C298 C299 1.387 . S
C299 H284 0.930 . S
C299 C294 1.390 . S
C299 C298 1.387 . S
H300 C312 0.930 . S
H301 C314 0.930 . S
H302 C315 0.930 . S
H303 C319 0.959 . S
H304 C319 0.959 . S
H305 C319 0.961 . S
H306 C320 0.960 . S
H307 C320 0.961 . S
H308 C320 0.959 . S
H309 C323 0.929 . S
H310 C324 0.931 . S
H311 C326 0.930 . S
C312 H300 0.930 . S
C312 C313 1.399 . S
C312 C317 1.399 . S
C313 C312 1.399 . S
C313 C314 1.376 . S
C314 H301 0.930 . S
C314 C313 1.376 . S
C314 C315 1.388 . S
C315 H302 0.930 . S
C315 C314 1.388 . S
C315 C316 1.390 . S
C316 C315 1.390 . S
C316 C317 1.394 . S
C316 C322 1.465 . S
C317 C312 1.399 . S
C317 C316 1.394 . S
C317 C318 1.516 . S
C318 C317 1.516 . S
C318 C319 1.502 . S
C318 C320 1.561 . S
C318 C321 1.526 . S
C319 H303 0.959 . S
C319 H304 0.959 . S
C319 H305 0.961 . S
C319 C318 1.502 . S
C320 H306 0.960 . S
C320 H307 0.961 . S
C320 H308 0.959 . S
C320 C318 1.561 . S
C321 C318 1.526 . S
C321 C322 1.396 . S
C321 C326 1.390 . S
C322 C316 1.465 . S
C322 C321 1.396 . S
C322 C323 1.399 . S
C323 H309 0.929 . S
C323 C322 1.399 . S
C323 C324 1.385 . S
C324 H310 0.931 . S
C324 C323 1.385 . S
C324 C325 1.389 . S
C325 C324 1.389 . S
C325 C326 1.387 . S
C326 H311 0.930 . S
C326 C321 1.390 . S
C326 C325 1.387 . S
H327 C339 0.930 . S
H328 C341 0.930 . S
H329 C342 0.930 . S
H330 C346 0.959 . S
H331 C346 0.959 . S
H332 C346 0.961 . S
H333 C347 0.960 . S
H334 C347 0.961 . S
H335 C347 0.959 . S
H336 C350 0.929 . S
H337 C351 0.931 . S
H338 C353 0.930 . S
C339 H327 0.930 . S
C339 C340 1.399 . S
C339 C344 1.399 . S
C340 C339 1.399 . S
C340 C341 1.376 . S
C341 H328 0.930 . S
C341 C340 1.376 . S
C341 C342 1.388 . S
C342 H329 0.930 . S
C342 C341 1.388 . S
C342 C343 1.390 . S
C343 C342 1.390 . S
C343 C344 1.394 . S
C343 C349 1.465 . S
C344 C339 1.399 . S
C344 C343 1.394 . S
C344 C345 1.516 . S
C345 C344 1.516 . S
C345 C346 1.502 . S
C345 C347 1.561 . S
C345 C348 1.526 . S
C346 H330 0.959 . S
C346 H331 0.959 . S
C346 H332 0.961 . S
C346 C345 1.502 . S
C347 H333 0.960 . S
C347 H334 0.961 . S
C347 H335 0.959 . S
C347 C345 1.561 . S
C348 C345 1.526 . S
C348 C349 1.396 . S
C348 C353 1.390 . S
C349 C343 1.465 . S
C349 C348 1.396 . S
C349 C350 1.399 . S
C350 H336 0.929 . S
C350 C349 1.399 . S
C350 C351 1.385 1_655 S
C351 H337 0.931 . S
C351 C350 1.385 1_455 S
C351 C352 1.389 . S
C352 C351 1.389 . S
C352 C353 1.387 1_455 S
C353 H338 0.930 . S
C353 C348 1.390 . S
C353 C352 1.387 1_655 S
H354 C366 0.930 . S
H355 C368 0.930 . S
H356 C369 0.930 . S
H357 C373 0.959 . S
H358 C373 0.959 . S
H359 C373 0.961 . S
H360 C374 0.960 . S
H361 C374 0.961 . S
H362 C374 0.959 . S
H363 C377 0.929 . S
H364 C378 0.931 . S
H365 C380 0.930 . S
C366 H354 0.930 . S
C366 C367 1.399 . S
C366 C371 1.399 . S
C367 C366 1.399 . S
C367 C368 1.376 . S
C368 H355 0.930 . S
C368 C367 1.376 . S
C368 C369 1.388 . S
C369 H356 0.930 . S
C369 C368 1.388 . S
C369 C370 1.390 . S
C370 C369 1.390 . S
C370 C371 1.394 . S
C370 C376 1.465 . S
C371 C366 1.399 . S
C371 C370 1.394 . S
C371 C372 1.516 . S
C372 C371 1.516 . S
C372 C373 1.502 . S
C372 C374 1.561 . S
C372 C375 1.526 . S
C373 H357 0.959 . S
C373 H358 0.959 . S
C373 H359 0.961 . S
C373 C372 1.502 . S
C374 H360 0.960 . S
C374 H361 0.961 . S
C374 H362 0.959 . S
C374 C372 1.561 . S
C375 C372 1.526 . S
C375 C376 1.396 . S
C375 C380 1.390 . S
C376 C370 1.465 . S
C376 C375 1.396 . S
C376 C377 1.399 . S
C377 H363 0.929 . S
C377 C376 1.399 . S
C377 C378 1.385 . S
C378 H364 0.931 . S
C378 C377 1.385 . S
C378 C379 1.389 . S
C379 C378 1.389 . S
C379 C380 1.387 . S
C380 H365 0.930 . S
C380 C375 1.390 . S
C380 C379 1.387 . S
H381 C393 0.930 . S
H382 C395 0.930 . S
H383 C396 0.930 . S
H384 C400 0.959 . S
H385 C400 0.959 . S
H386 C400 0.961 . S
H387 C401 0.960 . S
H388 C401 0.961 . S
H389 C401 0.959 . S
H390 C404 0.929 . S
H391 C405 0.931 . S
H392 C407 0.930 . S
C393 H381 0.930 . S
C393 C394 1.399 . S
C393 C398 1.399 . S
C394 C393 1.399 . S
C394 C395 1.376 . S
C395 H382 0.930 . S
C395 C394 1.376 . S
C395 C396 1.388 . S
C396 H383 0.930 . S
C396 C395 1.388 . S
C396 C397 1.390 . S
C397 C396 1.390 . S
C397 C398 1.394 . S
C397 C403 1.465 . S
C398 C393 1.399 . S
C398 C397 1.394 . S
C398 C399 1.516 . S
C399 C398 1.516 . S
C399 C400 1.502 . S
C399 C401 1.561 . S
C399 C402 1.526 . S
C400 H384 0.959 . S
C400 H385 0.959 . S
C400 H386 0.961 . S
C400 C399 1.502 . S
C401 H387 0.960 . S
C401 H388 0.961 . S
C401 H389 0.959 . S
C401 C399 1.561 . S
C402 C399 1.526 . S
C402 C403 1.396 . S
C402 C407 1.390 . S
C403 C397 1.465 . S
C403 C402 1.396 . S
C403 C404 1.399 . S
C404 H390 0.929 . S
C404 C403 1.399 . S
C404 C405 1.385 . S
C405 H391 0.931 . S
C405 C404 1.385 . S
C405 C406 1.389 . S
C406 C405 1.389 . S
C406 C407 1.387 . S
C407 H392 0.930 . S
C407 C402 1.390 . S
C407 C406 1.387 . S
H408 C420 0.930 . S
H409 C422 0.930 . S
H410 C423 0.930 . S
H411 C427 0.959 . S
H412 C427 0.959 . S
H413 C427 0.961 . S
H414 C428 0.960 . S
H415 C428 0.961 . S
H416 C428 0.959 . S
H417 C431 0.929 . S
H418 C432 0.931 . S
H419 C434 0.930 . S
C420 H408 0.930 . S
C420 C421 1.399 . S
C420 C425 1.399 . S
C421 C420 1.399 . S
C421 C422 1.376 . S
C422 H409 0.930 . S
C422 C421 1.376 . S
C422 C423 1.388 . S
C423 H410 0.930 . S
C423 C422 1.388 . S
C423 C424 1.390 . S
C424 C423 1.390 . S
C424 C425 1.394 . S
C424 C430 1.465 . S
C425 C420 1.399 . S
C425 C424 1.394 . S
C425 C426 1.516 . S
C426 C425 1.516 . S
C426 C427 1.502 . S
C426 C428 1.561 . S
C426 C429 1.526 . S
C427 H411 0.959 . S
C427 H412 0.959 . S
C427 H413 0.961 . S
C427 C426 1.502 . S
C428 H414 0.960 . S
C428 H415 0.961 . S
C428 H416 0.959 . S
C428 C426 1.561 . S
C429 C426 1.526 . S
C429 C430 1.396 . S
C429 C434 1.390 . S
C430 C424 1.465 . S
C430 C429 1.396 . S
C430 C431 1.399 . S
C431 H417 0.929 . S
C431 C430 1.399 . S
C431 C432 1.385 . S
C432 H418 0.931 . S
C432 C431 1.385 . S
C432 C433 1.389 . S
C433 C432 1.389 . S
C433 C434 1.387 . S
C434 H419 0.930 . S
C434 C429 1.390 . S
C434 C433 1.387 . S
H435 C447 0.930 . S
H436 C449 0.930 . S
H437 C450 0.930 . S
H438 C454 0.959 . S
H439 C454 0.959 . S
H440 C454 0.961 . S
H441 C455 0.960 . S
H442 C455 0.961 . S
H443 C455 0.959 . S
H444 C458 0.929 . S
H445 C459 0.931 . S
H446 C461 0.930 . S
C447 H435 0.930 . S
C447 C448 1.399 . S
C447 C452 1.399 . S
C448 C447 1.399 . S
C448 C449 1.376 . S
C449 H436 0.930 . S
C449 C448 1.376 . S
C449 C450 1.388 . S
C450 H437 0.930 . S
C450 C449 1.388 . S
C450 C451 1.390 . S
C451 C450 1.390 . S
C451 C452 1.394 . S
C451 C457 1.465 . S
C452 C447 1.399 . S
C452 C451 1.394 . S
C452 C453 1.516 . S
C453 C452 1.516 . S
C453 C454 1.502 . S
C453 C455 1.561 . S
C453 C456 1.526 . S
C454 H438 0.959 . S
C454 H439 0.959 . S
C454 H440 0.961 . S
C454 C453 1.502 . S
C455 H441 0.960 . S
C455 H442 0.961 . S
C455 H443 0.959 . S
C455 C453 1.561 . S
C456 C453 1.526 . S
C456 C457 1.396 . S
C456 C461 1.390 . S
C457 C451 1.465 . S
C457 C456 1.396 . S
C457 C458 1.399 . S
C458 H444 0.929 . S
C458 C457 1.399 . S
C458 C459 1.385 . S
C459 H445 0.931 . S
C459 C458 1.385 . S
C459 C460 1.389 . S
C460 C459 1.389 . S
C460 C461 1.387 . S
C461 H446 0.930 . S
C461 C456 1.390 . S
C461 C460 1.387 . S
H462 C474 0.930 . S
H463 C476 0.930 . S
H464 C477 0.930 . S
H465 C481 0.959 . S
H466 C481 0.964 . S
H467 C481 0.961 . S
H468 C482 0.960 . S
H469 C482 0.961 1_556 S
H470 C482 0.965 . S
H471 C485 0.929 . S
H472 C486 0.931 . S
H473 C488 0.930 . S
C474 H462 0.930 . S
C474 C475 1.399 . S
C474 C479 1.399 . S
C475 C474 1.399 . S
C475 C476 1.376 . S
C476 H463 0.930 . S
C476 C475 1.376 . S
C476 C477 1.388 . S
C477 H464 0.930 . S
C477 C476 1.388 . S
C477 C478 1.390 . S
C478 C477 1.390 . S
C478 C479 1.394 . S
C478 C484 1.499 . S
C479 C474 1.399 . S
C479 C478 1.394 . S
C479 C480 1.516 . S
C480 C479 1.516 . S
C480 C481 1.502 . S
C480 C482 1.561 1_455 S
C480 C483 1.526 1_554 S
C481 H465 0.959 . S
C481 H466 0.964 . S
C481 H467 0.961 . S
C481 C480 1.502 . S
C482 H468 0.960 . S
C482 H469 0.961 1_554 S
C482 H470 0.965 . S
C482 C480 1.561 1_655 S
C483 C480 1.526 1_556 S
C483 C484 1.384 1_556 S
C483 C488 1.390 . S
C484 C478 1.499 . S
C484 C483 1.384 1_554 S
C484 C485 1.379 1_554 S
C485 H471 0.929 . S
C485 C484 1.379 1_556 S
C485 C486 1.385 . S
C486 H472 0.931 . S
C486 C485 1.385 . S
C486 C487 1.389 . S
C487 C486 1.389 . S
C487 C488 1.387 . S
C488 H473 0.930 . S
C488 C483 1.390 . S
C488 C487 1.387 . S
H489 C501 0.930 . S
H490 C503 0.930 . S
H491 C504 0.930 . S
H492 C508 0.959 . S
H493 C508 0.959 . S
H494 C508 0.961 . S
H495 C509 0.960 . S
H496 C509 0.961 . S
H497 C509 0.959 . S
H498 C512 0.929 . S
H499 C513 0.931 . S
H500 C515 0.930 . S
C501 H489 0.930 . S
C501 C502 1.399 . S
C501 C506 1.399 . S
C502 C501 1.399 . S
C502 C503 1.376 1_545 S
C503 H490 0.930 . S
C503 C502 1.376 1_565 S
C503 C504 1.388 . S
C504 H491 0.930 . S
C504 C503 1.388 . S
C504 C505 1.390 1_565 S
C505 C504 1.390 1_545 S
C505 C506 1.394 . S
C505 C511 1.465 . S
C506 C501 1.399 . S
C506 C505 1.394 . S
C506 C507 1.516 . S
C507 C506 1.516 . S
C507 C508 1.502 . S
C507 C509 1.561 . S
C507 C510 1.526 . S
C508 H492 0.959 . S
C508 H493 0.959 . S
C508 H494 0.961 . S
C508 C507 1.502 . S
C509 H495 0.960 . S
C509 H496 0.961 . S
C509 H497 0.959 . S
C509 C507 1.561 . S
C510 C507 1.526 . S
C510 C511 1.396 . S
C510 C515 1.390 . S
C511 C505 1.465 . S
C511 C510 1.396 . S
C511 C512 1.399 1_545 S
C512 H498 0.929 . S
C512 C511 1.399 1_565 S
C512 C513 1.385 . S
C513 H499 0.931 . S
C513 C512 1.385 . S
C513 C514 1.389 1_565 S
C514 C513 1.389 1_545 S
C514 C515 1.387 . S
C515 H500 0.930 . S
C515 C510 1.390 . S
C515 C514 1.387 . S
H516 C528 0.930 . S
H517 C530 0.930 . S
H518 C531 0.930 . S
H519 C535 0.959 . S
H520 C535 0.959 . S
H521 C535 0.961 . S
H522 C536 0.960 . S
H523 C536 0.961 . S
H524 C536 0.959 . S
H525 C539 0.929 . S
H526 C540 0.931 . S
H527 C542 0.930 . S
C528 H516 0.930 . S
C528 C529 1.399 . S
C528 C533 1.399 . S
C529 C528 1.399 . S
C529 C530 1.376 . S
C530 H517 0.930 . S
C530 C529 1.376 . S
C530 C531 1.388 . S
C531 H518 0.930 . S
C531 C530 1.388 . S
C531 C532 1.390 . S
C532 C531 1.390 . S
C532 C533 1.394 . S
C532 C538 1.465 . S
C533 C528 1.399 . S
C533 C532 1.394 . S
C533 C534 1.516 . S
C534 C533 1.516 . S
C534 C535 1.502 . S
C534 C536 1.561 . S
C534 C537 1.526 . S
C535 H519 0.959 . S
C535 H520 0.959 . S
C535 H521 0.961 . S
C535 C534 1.502 . S
C536 H522 0.960 . S
C536 H523 0.961 . S
C536 H524 0.959 . S
C536 C534 1.561 . S
C537 C534 1.526 . S
C537 C538 1.396 . S
C537 C542 1.390 . S
C538 C532 1.465 . S
C538 C537 1.396 . S
C538 C539 1.399 . S
C539 H525 0.929 . S
C539 C538 1.399 . S
C539 C540 1.385 . S
C540 H526 0.931 . S
C540 C539 1.385 . S
C540 C541 1.389 . S
C541 C540 1.389 . S
C541 C542 1.387 . S
C542 H527 0.930 . S
C542 C537 1.390 . S
C542 C541 1.387 . S
H543 C555 0.930 . S
H544 C557 0.930 . S
H545 C558 0.930 . S
H546 C562 0.959 . S
H547 C562 0.959 . S
H548 C562 0.961 . S
H549 C563 0.960 . S
H550 C563 0.961 . S
H551 C563 0.959 . S
H552 C566 0.929 . S
H553 C567 0.931 . S
H554 C569 0.930 . S
C555 H543 0.930 . S
C555 C556 1.399 . S
C555 C560 1.399 . S
C556 C555 1.399 . S
C556 C557 1.376 1_545 S
C557 H544 0.930 . S
C557 C556 1.376 1_565 S
C557 C558 1.388 . S
C558 H545 0.930 . S
C558 C557 1.388 . S
C558 C559 1.390 1_565 S
C559 C558 1.390 1_545 S
C559 C560 1.394 . S
C559 C565 1.465 . S
C560 C555 1.399 . S
C560 C559 1.394 . S
C560 C561 1.516 . S
C561 C560 1.516 . S
C561 C562 1.502 . S
C561 C563 1.561 . S
C561 C564 1.526 . S
C562 H546 0.959 . S
C562 H547 0.959 . S
C562 H548 0.961 . S
C562 C561 1.502 . S
C563 H549 0.960 . S
C563 H550 0.961 . S
C563 H551 0.959 . S
C563 C561 1.561 . S
C564 C561 1.526 . S
C564 C565 1.396 . S
C564 C569 1.390 . S
C565 C559 1.465 . S
C565 C564 1.396 . S
C565 C566 1.399 1_545 S
C566 H552 0.929 . S
C566 C565 1.399 1_565 S
C566 C567 1.385 . S
C567 H553 0.931 . S
C567 C566 1.385 . S
C567 C568 1.389 1_565 S
C568 C567 1.389 1_545 S
C568 C569 1.387 . S
C569 H554 0.930 . S
C569 C564 1.390 . S
C569 C568 1.387 . S
H570 C582 0.930 . S
H571 C584 0.930 . S
H572 C585 0.930 . S
H573 C589 0.959 . S
H574 C589 0.959 . S
H575 C589 0.961 . S
H576 C590 0.960 . S
H577 C590 0.961 . S
H578 C590 0.959 . S
H579 C593 0.929 . S
H580 C594 0.931 . S
H581 C596 0.930 . S
C582 H570 0.930 . S
C582 C583 1.399 . S
C582 C587 1.399 . S
C583 C582 1.399 . S
C583 C584 1.376 . S
C584 H571 0.930 . S
C584 C583 1.376 . S
C584 C585 1.388 . S
C585 H572 0.930 . S
C585 C584 1.388 . S
C585 C586 1.390 . S
C586 C585 1.390 . S
C586 C587 1.394 . S
C586 C592 1.465 1_556 S
C587 C582 1.399 . S
C587 C586 1.394 . S
C587 C588 1.516 . S
C588 C587 1.516 . S
C588 C589 1.502 . S
C588 C590 1.561 . S
C588 C591 1.526 1_556 S
C589 H573 0.959 . S
C589 H574 0.959 . S
C589 H575 0.961 . S
C589 C588 1.502 . S
C590 H576 0.960 . S
C590 H577 0.961 . S
C590 H578 0.959 . S
C590 C588 1.561 . S
C591 C588 1.526 1_554 S
C591 C592 1.396 . S
C591 C596 1.390 . S
C592 C586 1.465 1_554 S
C592 C591 1.396 . S
C592 C593 1.399 . S
C593 H579 0.929 . S
C593 C592 1.399 . S
C593 C594 1.385 . S
C594 H580 0.931 . S
C594 C593 1.385 . S
C594 C595 1.389 . S
C595 C594 1.389 . S
C595 C596 1.387 . S
C596 H581 0.930 . S
C596 C591 1.390 . S
C596 C595 1.387 . S
H597 C609 0.930 . S
H598 C611 0.930 . S
H599 C612 0.930 . S
H600 C616 0.959 . S
H601 C616 0.959 . S
H602 C616 0.961 . S
H603 C617 0.964 . S
H604 C617 0.963 . S
H605 C617 0.943 1_455 S
H606 C620 0.929 . S
H607 C621 0.931 . S
H608 C623 0.940 . S
C609 H597 0.930 . S
C609 C610 1.399 1_655 S
C609 C614 1.399 1_655 S
C610 C609 1.399 1_455 S
C610 C611 1.376 . S
C611 H598 0.930 . S
C611 C610 1.376 . S
C611 C612 1.388 . S
C612 H599 0.930 . S
C612 C611 1.388 . S
C612 C613 1.390 . S
C613 C612 1.390 . S
C613 C614 1.394 . S
C613 C619 1.465 . S
C614 C609 1.399 1_455 S
C614 C613 1.394 . S
C614 C615 1.516 1_455 S
C615 C614 1.516 1_655 S
C615 C616 1.502 . S
C615 C617 1.572 . S
C615 C618 1.526 1_655 S
C616 H600 0.959 . S
C616 H601 0.959 . S
C616 H602 0.961 . S
C616 C615 1.502 . S
C617 H603 0.964 . S
C617 H604 0.963 . S
C617 H605 0.943 1_655 S
C617 C615 1.572 . S
C618 C615 1.526 1_455 S
C618 C619 1.396 . S
C618 C623 1.390 . S
C619 C613 1.465 . S
C619 C618 1.396 . S
C619 C620 1.399 . S
C620 H606 0.929 . S
C620 C619 1.399 . S
C620 C621 1.385 . S
C621 H607 0.931 . S
C621 C620 1.385 . S
C621 C622 1.389 . S
C622 C621 1.389 . S
C622 C623 1.387 . S
C623 H608 0.940 . S
C623 C618 1.390 . S
C623 C622 1.387 . S
C151 C2 1.461 . S
C163 C129 1.405 . S
C178 C22 1.325 . S
C190 C107 1.372 1_655 S
C205 C44 1.285 . S
C217 C120 1.428 . S
C232 C4 1.479 . S
C244 C133 1.526 . S
C271 C103 1.589 . S
C259 C24 1.594 . S
C298 C116 1.554 . S
C286 C42 1.514 . S
C313 C32 1.210 . S
C325 C81 1.272 . S
C340 C49 1.182 . S
C352 C94 1.169 . S
C367 C9 1.293 . S
C379 C64 1.290 . S
C406 C77 1.273 . S
C394 C29 1.239 . S
C433 C90 1.242 . S
C421 C52 1.361 . S
C448 C12 1.182 . S
C460 C68 1.259 . S
C487 C95 1.492 . S
C475 C18 1.493 . S
C502 C38 1.516 . S
C514 C69 1.534 . S
C529 C58 1.511 . S
C541 C82 1.512 . S
C568 C121 1.577 . S
C556 C39 1.583 . S
C595 C134 1.517 . S
C583 C59 1.512 . S
C610 C19 1.494 . S
C622 C108 1.576 . S
