# Generated by pormake.
# Topology pto, (3,4)-cn, num edge types: 1
# Building blocks:
#     Node 0, Type 0, BuildingBlock: WUSLED_clean_sbu_0, # of connection points: 3
#     Node 1, Type 0, BuildingBlock: WUSLED_clean_sbu_0, # of connection points: 3
#     Node 2, Type 0, BuildingBlock: WUSLED_clean_sbu_0, # of connection points: 3
#     Node 3, Type 0, BuildingBlock: WUSLED_clean_sbu_0, # of connection points: 3
#     Node 4, Type 0, BuildingBlock: WUSLED_clean_sbu_0, # of connection points: 3
#     Node 5, Type 0, BuildingBlock: WUSLED_clean_sbu_0, # of connection points: 3
#     Node 6, Type 0, BuildingBlock: WUSLED_clean_sbu_0, # of connection points: 3
#     Node 7, Type 0, BuildingBlock: WUSLED_clean_sbu_0, # of connection points: 3
#     Node 8, Type 1, BuildingBlock: NAHDIM_clean_linker_0, # of connection points: 4
#     Node 9, Type 1, BuildingBlock: NAHDIM_clean_linker_0, # of connection points: 4
#     Node 10, Type 1, BuildingBlock: NAHDIM_clean_linker_0, # of connection points: 4
#     Node 11, Type 1, BuildingBlock: NAHDIM_clean_linker_0, # of connection points: 4
#     Node 12, Type 1, BuildingBlock: NAHDIM_clean_linker_0, # of connection points: 4
#     Node 13, Type 1, BuildingBlock: NAHDIM_clean_linker_0, # of connection points: 4
#     Edge 14, Type (0, 1), BuildingBlock: CIFDUS_clean_linker_0, # of connection points: 2
#     Edge 15, Type (0, 1), BuildingBlock: CIFDUS_clean_linker_0, # of connection points: 2
#     Edge 16, Type (0, 1), BuildingBlock: CIFDUS_clean_linker_0, # of connection points: 2
#     Edge 17, Type (0, 1), BuildingBlock: CIFDUS_clean_linker_0, # of connection points: 2
#     Edge 18, Type (0, 1), BuildingBlock: CIFDUS_clean_linker_0, # of connection points: 2
#     Edge 19, Type (0, 1), BuildingBlock: CIFDUS_clean_linker_0, # of connection points: 2
#     Edge 20, Type (0, 1), BuildingBlock: CIFDUS_clean_linker_0, # of connection points: 2
#     Edge 21, Type (0, 1), BuildingBlock: CIFDUS_clean_linker_0, # of connection points: 2
#     Edge 22, Type (0, 1), BuildingBlock: CIFDUS_clean_linker_0, # of connection points: 2
#     Edge 23, Type (0, 1), BuildingBlock: CIFDUS_clean_linker_0, # of connection points: 2
#     Edge 24, Type (0, 1), BuildingBlock: CIFDUS_clean_linker_0, # of connection points: 2
#     Edge 25, Type (0, 1), BuildingBlock: CIFDUS_clean_linker_0, # of connection points: 2
#     Edge 26, Type (0, 1), BuildingBlock: CIFDUS_clean_linker_0, # of connection points: 2
#     Edge 27, Type (0, 1), BuildingBlock: CIFDUS_clean_linker_0, # of connection points: 2
#     Edge 28, Type (0, 1), BuildingBlock: CIFDUS_clean_linker_0, # of connection points: 2
#     Edge 29, Type (0, 1), BuildingBlock: CIFDUS_clean_linker_0, # of connection points: 2
#     Edge 30, Type (0, 1), BuildingBlock: CIFDUS_clean_linker_0, # of connection points: 2
#     Edge 31, Type (0, 1), BuildingBlock: CIFDUS_clean_linker_0, # of connection points: 2
#     Edge 32, Type (0, 1), BuildingBlock: CIFDUS_clean_linker_0, # of connection points: 2
#     Edge 33, Type (0, 1), BuildingBlock: CIFDUS_clean_linker_0, # of connection points: 2
#     Edge 34, Type (0, 1), BuildingBlock: CIFDUS_clean_linker_0, # of connection points: 2
#     Edge 35, Type (0, 1), BuildingBlock: CIFDUS_clean_linker_0, # of connection points: 2
#     Edge 36, Type (0, 1), BuildingBlock: CIFDUS_clean_linker_0, # of connection points: 2
#     Edge 37, Type (0, 1), BuildingBlock: CIFDUS_clean_linker_0, # of connection points: 2
# Relax obj value: 0.001
# Max RMSD: 0.072
# Mean RMSD: 0.020
data_MOF--net-pto--node1-WUSLED_clean_sbu_0--node2-NAHDIM_clean_linker_0--edge1-CIFDUS_clean_linker_0
_symmetry_space_group_name_H-M    P1
_symmetry_Int_Tables_number       1
_symmetry_cell_setting            triclinic
loop_
_symmetry_equiv_pos_as_xyz
'x, y, z'
_cell_length_a     69.379782
_cell_length_b     66.027829
_cell_length_c     62.415659
_cell_angle_alpha  89.031953
_cell_angle_beta   90.930225
_cell_angle_gamma 90.523206
loop_
_atom_site_label
_atom_site_type_symbol
_atom_site_fract_x
_atom_site_fract_y
_atom_site_fract_z
_atom_type_partial_charge
C0 C 0.25676 0.24316 0.2995 0.0
C1 C 0.24176 0.23203 0.30897 0.0
C2 C 0.26503 0.20946 0.32647 0.0
C3 C 0.24584 0.21532 0.32232 0.0
C4 C 0.28 0.22071 0.31683 0.0
C5 C 0.2759 0.23732 0.3034 0.0
U6 U 0.27111 0.27973 0.25489 0.0
O7 O 0.25431 0.29236 0.22768 0.0
O8 O 0.26746 0.31268 0.25135 0.0
C9 C 0.25561 0.31097 0.2348 0.0
C10 C 0.25232 0.26063 0.28539 0.0
C11 C 0.23731 0.32237 0.23545 0.0
C12 C 0.20653 0.33132 0.21872 0.0
C13 C 0.22357 0.32019 0.21885 0.0
C14 C 0.21659 0.34725 0.25175 0.0
C15 C 0.20287 0.34508 0.2351 0.0
C16 C 0.23364 0.33607 0.25191 0.0
C17 C 0.32054 0.27226 0.22928 0.0
C18 C 0.348 0.26194 0.20859 0.0
C19 C 0.33807 0.29703 0.20768 0.0
C20 C 0.323 0.29221 0.22159 0.0
C21 C 0.35088 0.28197 0.20117 0.0
C22 C 0.33301 0.25717 0.22253 0.0
C23 C 0.30537 0.26683 0.2446 0.0
O24 O 0.2629 0.27695 0.28867 0.0
O25 O 0.25002 0.25648 0.26499 0.0
O26 O 0.28929 0.25959 0.23621 0.0
O27 O 0.30252 0.27977 0.26 0.0
H28 H 0.22689 0.23624 0.30599 0.0
H29 H 0.23394 0.20685 0.32918 0.0
H30 H 0.29495 0.21686 0.31987 0.0
H31 H 0.28769 0.24567 0.29613 0.0
H32 H 0.19616 0.32905 0.20581 0.0
H33 H 0.22603 0.3099 0.20586 0.0
H34 H 0.21434 0.35789 0.26447 0.0
H35 H 0.244 0.33833 0.26484 0.0
H36 H 0.35733 0.24989 0.20361 0.0
H37 H 0.33996 0.31263 0.20245 0.0
H38 H 0.31345 0.30408 0.22656 0.0
H39 H 0.33124 0.24167 0.22818 0.0
C40 C 0.25179 0.77496 0.71008 0.0
C41 C 0.27102 0.78126 0.70766 0.0
C42 C 0.26078 0.80918 0.6842 0.0
C43 C 0.27548 0.7981 0.69475 0.0
C44 C 0.24152 0.80279 0.68674 0.0
C45 C 0.23709 0.78582 0.69953 0.0
U46 U 0.26196 0.74288 0.75986 0.0
O47 O 0.24216 0.72932 0.78344 0.0
O48 O 0.2614 0.70993 0.76539 0.0
C49 C 0.24685 0.71073 0.77858 0.0
C50 C 0.24688 0.75756 0.72412 0.0
C51 C 0.23057 0.69701 0.77375 0.0
C52 C 0.2073 0.67176 0.78583 0.0
C53 C 0.22256 0.68514 0.79021 0.0
C54 C 0.20779 0.68211 0.74842 0.0
C55 C 0.1998 0.66997 0.76485 0.0
C56 C 0.22299 0.69555 0.75285 0.0
C57 C 0.30557 0.76019 0.79525 0.0
C58 C 0.31933 0.77641 0.82677 0.0
C59 C 0.33382 0.74596 0.8135 0.0
C60 C 0.31979 0.74516 0.79712 0.0
C61 C 0.33397 0.76185 0.82824 0.0
C62 C 0.30537 0.77563 0.81042 0.0
C63 C 0.2922 0.76138 0.77653 0.0
O64 O 0.25936 0.74267 0.72472 0.0
O65 O 0.24065 0.76228 0.74315 0.0
O66 O 0.27436 0.76659 0.78041 0.0
O67 O 0.2934 0.74721 0.76206 0.0
H68 H 0.28262 0.77321 0.71579 0.0
H69 H 0.29048 0.80234 0.69293 0.0
H70 H 0.2298 0.8111 0.67916 0.0
H71 H 0.22215 0.7813 0.70138 0.0
H72 H 0.20132 0.66292 0.79894 0.0
H73 H 0.22815 0.68618 0.80647 0.0
H74 H 0.20257 0.68096 0.73204 0.0
H75 H 0.22895 0.70467 0.73992 0.0
H76 H 0.31883 0.78866 0.83806 0.0
H77 H 0.34498 0.7346 0.81408 0.0
H78 H 0.32048 0.73313 0.78559 0.0
H79 H 0.29469 0.7875 0.8093 0.0
C80 C 0.73003 0.76184 0.22362 0.0
C81 C 0.71927 0.77745 0.21396 0.0
C82 C 0.69977 0.75282 0.1944 0.0
C83 C 0.70433 0.77301 0.19946 0.0
C84 C 0.711 0.73721 0.20368 0.0
C85 C 0.72603 0.74168 0.21812 0.0
U86 U 0.77773 0.75248 0.25427 0.0
O87 O 0.79898 0.77476 0.26623 0.0
O88 O 0.78404 0.75446 0.28879 0.0
C89 C 0.79527 0.77046 0.28639 0.0
C90 C 0.74471 0.76691 0.24003 0.0
C91 C 0.79031 0.78791 0.29953 0.0
C92 C 0.80002 0.8147 0.32377 0.0
C93 C 0.8047 0.79812 0.31121 0.0
C94 C 0.76648 0.81098 0.31304 0.0
C95 C 0.78083 0.82131 0.32489 0.0
C96 C 0.77119 0.79453 0.30042 0.0
C97 C 0.80962 0.70761 0.2401 0.0
C98 C 0.83276 0.68433 0.22558 0.0
C99 C 0.83368 0.69174 0.26346 0.0
C100 C 0.81814 0.70492 0.26049 0.0
C101 C 0.84107 0.6811 0.24607 0.0
C102 C 0.81717 0.69741 0.22266 0.0
C103 C 0.79251 0.72039 0.23677 0.0
O104 O 0.74623 0.75415 0.25635 0.0
O105 O 0.76145 0.77329 0.23287 0.0
O106 O 0.79579 0.73893 0.22966 0.0
O107 O 0.77961 0.71942 0.25197 0.0
H108 H 0.72222 0.79311 0.21792 0.0
H109 H 0.69624 0.78543 0.19233 0.0
H110 H 0.7078 0.72148 0.20033 0.0
H111 H 0.73423 0.72938 0.22534 0.0
H112 H 0.81148 0.82244 0.33242 0.0
H113 H 0.81957 0.79329 0.31059 0.0
H114 H 0.75152 0.8154 0.31375 0.0
H115 H 0.75987 0.78687 0.29144 0.0
H116 H 0.83827 0.6767 0.21176 0.0
H117 H 0.83956 0.68948 0.27949 0.0
H118 H 0.81256 0.71271 0.27418 0.0
H119 H 0.81085 0.6994 0.20678 0.0
C120 C 0.73905 0.22533 0.72383 0.0
C121 C 0.75706 0.21801 0.71772 0.0
C122 C 0.74145 0.19662 0.69094 0.0
C123 C 0.75824 0.20373 0.70146 0.0
C124 C 0.7235 0.20428 0.69699 0.0
C125 C 0.72234 0.21843 0.7133 0.0
U126 U 0.75758 0.2703 0.75671 0.0
O127 O 0.74133 0.29599 0.76919 0.0
O128 O 0.75663 0.27533 0.79136 0.0
C129 C 0.74443 0.29038 0.78924 0.0
C130 C 0.73726 0.24006 0.74113 0.0
C131 C 0.72722 0.28898 0.80274 0.0
C132 C 0.70406 0.30541 0.82534 0.0
C133 C 0.71995 0.30654 0.81184 0.0
C134 C 0.70238 0.2691 0.82061 0.0
C135 C 0.69519 0.28663 0.83011 0.0
C136 C 0.71817 0.27027 0.80699 0.0
C137 C 0.80624 0.29549 0.7446 0.0
C138 C 0.84018 0.30305 0.75118 0.0
C139 C 0.81685 0.33011 0.75118 0.0
C140 C 0.80206 0.31613 0.74688 0.0
C141 C 0.83605 0.32369 0.7535 0.0
C142 C 0.82543 0.28912 0.74668 0.0
C143 C 0.79096 0.28031 0.74021 0.0
O144 O 0.7494 0.23806 0.75742 0.0
O145 O 0.73482 0.25898 0.73489 0.0
O146 O 0.77441 0.28721 0.73268 0.0
O147 O 0.78895 0.26602 0.75494 0.0
H148 H 0.77018 0.22323 0.72558 0.0
H149 H 0.77228 0.19806 0.69735 0.0
H150 H 0.71031 0.19951 0.68897 0.0
H151 H 0.70833 0.22402 0.71769 0.0
H152 H 0.69874 0.31926 0.83204 0.0
H153 H 0.72666 0.32113 0.80862 0.0
H154 H 0.69613 0.25435 0.8241 0.0
H155 H 0.72349 0.25652 0.80003 0.0
H156 H 0.85485 0.29768 0.75268 0.0
H157 H 0.81322 0.34589 0.75311 0.0
H158 H 0.78737 0.32149 0.74549 0.0
H159 H 0.829 0.2733 0.74492 0.0
C160 C 0.80317 0.70732 0.78388 0.0
C161 C 0.80196 0.68669 0.77887 0.0
C162 C 0.83662 0.68315 0.78421 0.0
C163 C 0.8185 0.67475 0.77892 0.0
C164 C 0.83788 0.70388 0.78891 0.0
C165 C 0.82135 0.71586 0.78871 0.0
U166 U 0.7696 0.75063 0.76552 0.0
O167 O 0.7379 0.75064 0.76218 0.0
O168 O 0.75245 0.77137 0.78447 0.0
C169 C 0.73594 0.76371 0.77763 0.0
C170 C 0.78527 0.71925 0.78514 0.0
C171 C 0.72199 0.75801 0.79431 0.0
C172 C 0.68868 0.75354 0.80511 0.0
C173 C 0.7022 0.75851 0.78943 0.0
C174 C 0.71461 0.74753 0.83083 0.0
C175 C 0.69475 0.74814 0.82602 0.0
C176 C 0.72811 0.7523 0.8151 0.0
C177 C 0.7833 0.78679 0.72016 0.0
C178 C 0.76086 0.81196 0.70618 0.0
C179 C 0.79431 0.81319 0.69561 0.0
C180 C 0.79808 0.79602 0.70836 0.0
C181 C 0.77567 0.82139 0.69441 0.0
C182 C 0.76466 0.79485 0.71901 0.0
C183 C 0.78759 0.76914 0.73403 0.0
O184 O 0.78699 0.73788 0.79211 0.0
O185 O 0.77307 0.71759 0.7689 0.0
O186 O 0.7763 0.75326 0.73126 0.0
O187 O 0.7908 0.77325 0.75431 0.0
H188 H 0.78812 0.67969 0.77528 0.0
H189 H 0.81701 0.65878 0.7755 0.0
H190 H 0.85167 0.71082 0.79284 0.0
H191 H 0.82283 0.73171 0.79264 0.0
H192 H 0.67348 0.75427 0.80097 0.0
H193 H 0.69718 0.76286 0.77349 0.0
H194 H 0.71971 0.74316 0.84673 0.0
H195 H 0.74332 0.7516 0.81923 0.0
H196 H 0.74642 0.81806 0.70583 0.0
H197 H 0.80597 0.82 0.68658 0.0
H198 H 0.81255 0.79 0.70911 0.0
H199 H 0.75311 0.788 0.72818 0.0
C200 C 0.72765 0.25798 0.21606 0.0
C201 C 0.73309 0.26016 0.19453 0.0
C202 C 0.70011 0.26848 0.184 0.0
C203 C 0.71944 0.26529 0.17867 0.0
C204 C 0.6947 0.26634 0.20553 0.0
C205 C 0.70831 0.26104 0.22137 0.0
U206 U 0.77345 0.2682 0.24934 0.0
O207 O 0.77932 0.26341 0.28382 0.0
O208 O 0.79662 0.2478 0.26013 0.0
C209 C 0.7925 0.24967 0.2805 0.0
C210 C 0.74176 0.2523 0.23312 0.0
C211 C 0.79122 0.23078 0.29358 0.0
C212 C 0.78738 0.21452 0.32858 0.0
C213 C 0.78688 0.23187 0.31544 0.0
C214 C 0.79639 0.19452 0.29823 0.0
C215 C 0.79243 0.19571 0.3202 0.0
C216 C 0.79579 0.21186 0.28506 0.0
C217 C 0.80335 0.31633 0.23943 0.0
C218 C 0.81664 0.34659 0.25614 0.0
C219 C 0.83764 0.32422 0.23718 0.0
C220 C 0.8219 0.31165 0.2323 0.0
C221 C 0.83521 0.34177 0.24926 0.0
C222 C 0.80088 0.33407 0.25118 0.0
C223 C 0.78654 0.30305 0.23455 0.0
O224 O 0.75912 0.24742 0.2269 0.0
O225 O 0.74197 0.26373 0.25018 0.0
O226 O 0.77344 0.30154 0.2495 0.0
O227 O 0.79023 0.28561 0.22566 0.0
H228 H 0.74788 0.25795 0.18986 0.0
H229 H 0.72408 0.26705 0.16225 0.0
H230 H 0.67987 0.26851 0.21009 0.0
H231 H 0.70372 0.25931 0.23781 0.0
H232 H 0.78451 0.216 0.34548 0.0
H233 H 0.78357 0.24627 0.32252 0.0
H234 H 0.80016 0.1802 0.29127 0.0
H235 H 0.79931 0.21045 0.26831 0.0
H236 H 0.81425 0.36015 0.26521 0.0
H237 H 0.85179 0.31999 0.23181 0.0
H238 H 0.82436 0.29821 0.22307 0.0
H239 H 0.78673 0.33825 0.25662 0.0
C240 C 0.24933 0.2361 0.71184 0.0
C241 C 0.26022 0.23801 0.69308 0.0
C242 C 0.25872 0.20153 0.68803 0.0
C243 C 0.26491 0.22093 0.68138 0.0
C244 C 0.24756 0.19964 0.70658 0.0
C245 C 0.24287 0.21673 0.7183 0.0
U246 U 0.26059 0.27526 0.75508 0.0
O247 O 0.25618 0.30828 0.7546 0.0
O248 O 0.24197 0.2891 0.77882 0.0
C249 C 0.24339 0.30723 0.76989 0.0
C250 C 0.24431 0.25424 0.72426 0.0
C251 C 0.22508 0.31772 0.76524 0.0
C252 C 0.2075 0.34923 0.76068 0.0
C253 C 0.22469 0.33896 0.76513 0.0
C254 C 0.19079 0.31713 0.75651 0.0
C255 C 0.19035 0.33842 0.75641 0.0
C256 C 0.20801 0.30687 0.76076 0.0
C257 C 0.30794 0.27106 0.78714 0.0
C258 C 0.31963 0.29693 0.81146 0.0
C259 C 0.33608 0.26479 0.80981 0.0
C260 C 0.32283 0.25831 0.79422 0.0
C261 C 0.33468 0.2842 0.81858 0.0
C262 C 0.30632 0.29039 0.7959 0.0
C263 C 0.29428 0.26395 0.77061 0.0
O264 O 0.24056 0.25118 0.74466 0.0
O265 O 0.25482 0.27062 0.72078 0.0
O266 O 0.29223 0.27588 0.75366 0.0
O267 O 0.27784 0.2567 0.77772 0.0
H268 H 0.26515 0.25272 0.68738 0.0
H269 H 0.27324 0.22297 0.66696 0.0
H270 H 0.24268 0.1849 0.71225 0.0
H271 H 0.23423 0.21473 0.7325 0.0
H272 H 0.20757 0.36563 0.76085 0.0
H273 H 0.2377 0.34761 0.76851 0.0
H274 H 0.17786 0.3084 0.753 0.0
H275 H 0.20798 0.29047 0.76051 0.0
H276 H 0.31803 0.31187 0.81807 0.0
H277 H 0.34762 0.25472 0.81475 0.0
H278 H 0.32428 0.24334 0.7876 0.0
H279 H 0.29481 0.30039 0.79069 0.0
C280 C 0.21205 0.73945 0.24613 0.0
C281 C 0.19236 0.74394 0.24452 0.0
C282 C 0.18491 0.70896 0.23556 0.0
C283 C 0.17892 0.72887 0.23922 0.0
C284 C 0.20466 0.70446 0.23725 0.0
C285 C 0.21814 0.71959 0.24237 0.0
U286 U 0.26011 0.7676 0.23905 0.0
O287 O 0.26618 0.80034 0.2383 0.0
O288 O 0.27965 0.78102 0.26314 0.0
C289 C 0.27653 0.7996 0.25612 0.0
C290 C 0.22586 0.75572 0.25163 0.0
C291 C 0.27103 0.81404 0.27253 0.0
C292 C 0.24768 0.82671 0.29747 0.0
C293 C 0.25281 0.81285 0.2819 0.0
C294 C 0.27899 0.84301 0.29452 0.0
C295 C 0.26071 0.84197 0.30396 0.0
C296 C 0.28408 0.82916 0.27892 0.0
C297 C 0.29638 0.75061 0.1983 0.0
C298 C 0.32511 0.77069 0.19108 0.0
C299 C 0.32011 0.73861 0.17343 0.0
C300 C 0.30269 0.73593 0.18413 0.0
C301 C 0.33148 0.75609 0.17669 0.0
C302 C 0.30773 0.76796 0.20182 0.0
C303 C 0.27787 0.74788 0.20912 0.0
O304 O 0.24196 0.7501 0.26134 0.0
O305 O 0.22849 0.76964 0.23664 0.0
O306 O 0.26513 0.76209 0.20498 0.0
O307 O 0.27908 0.74286 0.22956 0.0
H308 H 0.18737 0.75915 0.24737 0.0
H309 H 0.16379 0.73275 0.23822 0.0
H310 H 0.20972 0.68931 0.23428 0.0
H311 H 0.23328 0.71578 0.24332 0.0
H312 H 0.2336 0.82532 0.30461 0.0
H313 H 0.24258 0.80118 0.27718 0.0
H314 H 0.28927 0.85471 0.29897 0.0
H315 H 0.2982 0.83029 0.2718 0.0
H316 H 0.33365 0.78417 0.19418 0.0
H317 H 0.32451 0.72719 0.1623 0.0
H318 H 0.29406 0.72246 0.18123 0.0
H319 H 0.3031 0.77941 0.21281 0.0
C320 C 0.94977 0.38796 0.26821 0.0
C321 C 0.93429 0.40407 0.26387 0.0
C322 C 0.95461 0.4314 0.24856 0.0
C323 C 0.96434 0.43661 0.26767 0.0
C324 C 0.98022 0.44997 0.26735 0.0
C325 C 0.98633 0.45847 0.24762 0.0
C326 C 0.976 0.45398 0.22852 0.0
C327 C 0.96025 0.44053 0.22929 0.0
C328 C 0.99077 0.45468 0.28802 0.0
C329 C 0.98195 0.46298 0.20723 0.0
C330 C 0.08989 0.3896 0.21069 0.0
C331 C 0.10522 0.4065 0.21127 0.0
C332 C 0.08765 0.43256 0.23066 0.0
C333 C 0.07549 0.4386 0.21347 0.0
C334 C 0.06007 0.45177 0.21664 0.0
C335 C 0.05653 0.45895 0.23743 0.0
C336 C 0.06899 0.45334 0.25466 0.0
C337 C 0.08451 0.44038 0.25097 0.0
C338 C 0.04723 0.4576 0.19782 0.0
C339 C 0.0656 0.4606 0.27706 0.0
C340 C 0.09171 0.59217 0.23635 0.0
C341 C 0.07957 0.58817 0.2186 0.0
C342 C 0.06258 0.57668 0.22098 0.0
C343 C 0.05754 0.56911 0.24149 0.0
C344 C 0.06961 0.57324 0.2594 0.0
C345 C 0.08657 0.58465 0.25655 0.0
C346 C 0.05001 0.57251 0.20156 0.0
C347 C 0.0646 0.56552 0.28153 0.0
C348 C 0.91999 0.59291 0.29443 0.0
C349 C 0.92978 0.60971 0.28112 0.0
C350 C 0.95367 0.59124 0.26022 0.0
C351 C 0.95828 0.58485 0.2397 0.0
C352 C 0.975 0.57365 0.23612 0.0
C353 C 0.98733 0.5685 0.25361 0.0
C354 C 0.98283 0.57494 0.27443 0.0
C355 C 0.96613 0.58633 0.27753 0.0
C356 C 0.9795 0.56731 0.21365 0.0
C357 C 0.99568 0.56971 0.29344 0.0
C358 C 0.0043 0.47082 0.24664 0.0
C359 C 0.02157 0.46059 0.24364 0.0
C360 C 0.03902 0.47108 0.24132 0.0
C361 C 0.03934 0.49249 0.24203 0.0
C362 C 0.05652 0.5036 0.23924 0.0
C363 C 0.05668 0.52466 0.23995 0.0
C364 C 0.03964 0.53544 0.24344 0.0
C365 C 0.03965 0.55685 0.2442 0.0
C366 C 0.02243 0.56708 0.24751 0.0
C367 C 0.00503 0.55654 0.25014 0.0
C368 C 0.00473 0.53511 0.2495 0.0
C369 C 0.98751 0.52399 0.25214 0.0
C370 C 0.98732 0.50293 0.25121 0.0
C371 C 0.00437 0.49218 0.24781 0.0
C372 C 0.02195 0.50306 0.2454 0.0
C373 C 0.02211 0.52455 0.24614 0.0
C374 C 0.12645 0.59652 0.20319 0.0
C375 C 0.11615 0.61217 0.2167 0.0
O376 O 0.94002 0.41748 0.2478 0.0
O377 O 0.9371 0.60189 0.26246 0.0
O378 O 0.10847 0.60298 0.23484 0.0
O379 O 0.10224 0.41907 0.2285 0.0
H380 H 0.93175 0.41257 0.27879 0.0
H381 H 0.96332 0.39494 0.27431 0.0
H382 H 0.95301 0.37978 0.25329 0.0
H383 H 0.94475 0.37683 0.28051 0.0
H384 H 0.95986 0.43012 0.28283 0.0
H385 H 0.95252 0.43664 0.21467 0.0
H386 H 0.00572 0.44889 0.28739 0.0
H387 H 0.98361 0.44781 0.30221 0.0
H388 H 0.99174 0.47134 0.29006 0.0
H389 H 0.97191 0.45869 0.19398 0.0
H390 H 0.99663 0.45775 0.20336 0.0
H391 H 0.98254 0.47975 0.20815 0.0
H392 H 0.10439 0.41552 0.19609 0.0
H393 H 0.09254 0.37929 0.19718 0.0
H394 H 0.07528 0.39605 0.20837 0.0
H395 H 0.09015 0.38065 0.22594 0.0
H396 H 0.07772 0.43299 0.19755 0.0
H397 H 0.09397 0.4358 0.26412 0.0
H398 H 0.033 0.44998 0.19955 0.0
H399 H 0.0534 0.45317 0.18229 0.0
H400 H 0.04477 0.4742 0.19748 0.0
H401 H 0.07631 0.45446 0.28883 0.0
H402 H 0.05092 0.45602 0.2822 0.0
H403 H 0.06638 0.47739 0.27726 0.0
H404 H 0.1044 0.61923 0.20687 0.0
H405 H 0.08322 0.5938 0.20281 0.0
H406 H 0.09597 0.58779 0.27016 0.0
H407 H 0.04813 0.55591 0.19969 0.0
H408 H 0.05614 0.57901 0.18659 0.0
H409 H 0.0355 0.57902 0.20381 0.0
H410 H 0.07517 0.57059 0.29392 0.0
H411 H 0.06411 0.54871 0.28168 0.0
H412 H 0.05006 0.57088 0.28582 0.0
H413 H 0.94171 0.61654 0.2908 0.0
H414 H 0.91379 0.59932 0.30913 0.0
H415 H 0.93052 0.58115 0.29945 0.0
H416 H 0.90828 0.58548 0.285 0.0
H417 H 0.94867 0.58872 0.22642 0.0
H418 H 0.96296 0.59119 0.29353 0.0
H419 H 0.97931 0.55052 0.21284 0.0
H420 H 0.99421 0.57259 0.20935 0.0
H421 H 0.96901 0.57342 0.20162 0.0
H422 H 0.98967 0.57487 0.30879 0.0
H423 H 0.01007 0.57688 0.2913 0.0
H424 H 0.99779 0.55307 0.29448 0.0
H425 H 0.02138 0.44419 0.24275 0.0
H426 H 0.07006 0.49611 0.23648 0.0
H427 H 0.07034 0.5324 0.2377 0.0
H428 H 0.02256 0.5835 0.24803 0.0
H429 H 0.97396 0.53146 0.25486 0.0
H430 H 0.97365 0.49517 0.25324 0.0
H431 H 0.13804 0.58891 0.21272 0.0
H432 H 0.13289 0.604 0.18889 0.0
H433 H 0.11615 0.58474 0.19754 0.0
C434 C 0.08763 0.38949 0.70315 0.0
C435 C 0.09997 0.4047 0.71584 0.0
C436 C 0.07579 0.42402 0.73544 0.0
C437 C 0.06764 0.43411 0.71748 0.0
C438 C 0.05187 0.44709 0.71965 0.0
C439 C 0.04439 0.45045 0.74023 0.0
C440 C 0.05288 0.44076 0.75839 0.0
C441 C 0.06839 0.42758 0.7557 0.0
C442 C 0.04303 0.45701 0.69991 0.0
C443 C 0.04542 0.44411 0.78061 0.0
C444 C 0.90221 0.43154 0.78335 0.0
C445 C 0.91198 0.41473 0.7709 0.0
C446 C 0.93838 0.43266 0.75224 0.0
C447 C 0.94997 0.43618 0.77056 0.0
C448 C 0.96759 0.44672 0.76898 0.0
C449 C 0.97384 0.45379 0.74871 0.0
C450 C 0.96233 0.45014 0.73024 0.0
C451 C 0.94473 0.43965 0.73229 0.0
C452 C 0.97952 0.45039 0.789 0.0
C453 C 0.9686 0.4574 0.70838 0.0
C454 C 0.94609 0.58553 0.76131 0.0
C455 C 0.95741 0.57887 0.77894 0.0
C456 C 0.9743 0.56777 0.77594 0.0
C457 C 0.98009 0.56333 0.75492 0.0
C458 C 0.96907 0.57048 0.73715 0.0
C459 C 0.95221 0.58149 0.74061 0.0
C460 C 0.98582 0.56048 0.79524 0.0
C461 C 0.97495 0.56618 0.71452 0.0
C462 C 0.1212 0.58526 0.70906 0.0
C463 C 0.11125 0.60134 0.72238 0.0
C464 C 0.08569 0.58221 0.74116 0.0
C465 C 0.07978 0.57476 0.76112 0.0
C466 C 0.06235 0.56399 0.76333 0.0
C467 C 0.05059 0.56044 0.74503 0.0
C468 C 0.05643 0.56792 0.72475 0.0
C469 C 0.07386 0.57878 0.72301 0.0
C470 C 0.05648 0.55637 0.78522 0.0
C471 C 0.04423 0.56438 0.7049 0.0
C472 C 0.02722 0.46347 0.74272 0.0
C473 C 0.0092 0.45391 0.74419 0.0
C474 C 0.99241 0.46506 0.74687 0.0
C475 C 0.99351 0.48642 0.74806 0.0
C476 C 0.97692 0.4981 0.75086 0.0
C477 C 0.97813 0.5191 0.75203 0.0
C478 C 0.99597 0.52926 0.75043 0.0
C479 C 0.99732 0.55061 0.7516 0.0
C480 C 0.01527 0.56023 0.74987 0.0
C481 C 0.03208 0.5491 0.74706 0.0
C482 C 0.03104 0.52771 0.74601 0.0
C483 C 0.04765 0.51601 0.7434 0.0
C484 C 0.04647 0.49497 0.74246 0.0
C485 C 0.02861 0.48483 0.74383 0.0
C486 C 0.01167 0.49633 0.74647 0.0
C487 C 0.01289 0.51778 0.74763 0.0
C488 C 0.90994 0.57977 0.79078 0.0
C489 C 0.91948 0.59929 0.78223 0.0
O490 O 0.09049 0.41058 0.73408 0.0
O491 O 0.10283 0.59244 0.74026 0.0
O492 O 0.92918 0.59559 0.76344 0.0
O493 O 0.92104 0.4228 0.75299 0.0
H494 H 0.1029 0.41821 0.70546 0.0
H495 H 0.07404 0.39653 0.69731 0.0
H496 H 0.08382 0.37611 0.71332 0.0
H497 H 0.0956 0.3843 0.68898 0.0
H498 H 0.07325 0.4318 0.70167 0.0
H499 H 0.07478 0.41984 0.76949 0.0
H500 H 0.02734 0.45354 0.69905 0.0
H501 H 0.04977 0.45193 0.68493 0.0
H502 H 0.04469 0.4737 0.70088 0.0
H503 H 0.05485 0.4372 0.79324 0.0
H504 H 0.03078 0.43733 0.78193 0.0
H505 H 0.04421 0.46058 0.78359 0.0
H506 H 0.92279 0.4071 0.78156 0.0
H507 H 0.8916 0.43973 0.77297 0.0
H508 H 0.91303 0.44268 0.78925 0.0
H509 H 0.89466 0.42498 0.79745 0.0
H510 H 0.94542 0.43091 0.78617 0.0
H511 H 0.93577 0.43689 0.71824 0.0
H512 H 0.98208 0.46689 0.79087 0.0
H513 H 0.99379 0.44313 0.78753 0.0
H514 H 0.97249 0.44432 0.80365 0.0
H515 H 0.95822 0.45298 0.69551 0.0
H516 H 0.98295 0.45106 0.70479 0.0
H517 H 0.97011 0.47416 0.70821 0.0
H518 H 0.92983 0.60514 0.79449 0.0
H519 H 0.95315 0.58205 0.79511 0.0
H520 H 0.94352 0.58677 0.72708 0.0
H521 H 0.98635 0.54367 0.79543 0.0
H522 H 0.97964 0.5655 0.81055 0.0
H523 H 0.00089 0.5662 0.79421 0.0
H524 H 0.96516 0.57334 0.70239 0.0
H525 H 0.97494 0.54957 0.71205 0.0
H526 H 0.98986 0.57184 0.71187 0.0
H527 H 0.1 0.60891 0.71227 0.0
H528 H 0.12827 0.5925 0.695 0.0
H529 H 0.11056 0.574 0.70304 0.0
H530 H 0.13224 0.57707 0.71886 0.0
H531 H 0.08892 0.57745 0.77504 0.0
H532 H 0.07807 0.58439 0.7074 0.0
H533 H 0.05522 0.5396 0.7852 0.0
H534 H 0.0421 0.56243 0.78914 0.0
H535 H 0.06698 0.56082 0.79796 0.0
H536 H 0.05105 0.57056 0.69017 0.0
H537 H 0.02998 0.57163 0.70667 0.0
H538 H 0.04163 0.54789 0.70294 0.0
H539 H 0.00824 0.43753 0.74335 0.0
H540 H 0.96279 0.49113 0.75218 0.0
H541 H 0.96486 0.52727 0.7542 0.0
H542 H 0.01618 0.57661 0.75073 0.0
H543 H 0.06178 0.52299 0.74212 0.0
H544 H 0.05975 0.48675 0.74056 0.0
H545 H 0.89987 0.57336 0.77858 0.0
H546 H 0.9018 0.58291 0.80554 0.0
H547 H 0.92092 0.56818 0.7949 0.0
C548 C 0.27884 0.08044 0.64605 0.0
C549 C 0.2732 0.09595 0.62852 0.0
C550 C 0.25953 0.07362 0.60071 0.0
C551 C 0.27711 0.06548 0.59413 0.0
C552 C 0.27745 0.04982 0.57919 0.0
C553 C 0.25991 0.04215 0.57062 0.0
C554 C 0.24223 0.05056 0.57688 0.0
C555 C 0.2423 0.06626 0.59178 0.0
C556 C 0.29656 0.04129 0.57271 0.0
C557 C 0.22326 0.04276 0.56802 0.0
C558 C 0.28809 0.88938 0.57806 0.0
C559 C 0.27784 0.89845 0.59724 0.0
C560 C 0.26231 0.92888 0.58158 0.0
C561 C 0.24466 0.93736 0.57535 0.0
C562 C 0.24371 0.95677 0.56585 0.0
C563 C 0.26091 0.96791 0.56234 0.0
C564 C 0.27883 0.95954 0.56877 0.0
C565 C 0.27936 0.94018 0.57841 0.0
C566 C 0.22434 0.96533 0.55941 0.0
C567 C 0.29746 0.97103 0.56528 0.0
C568 C 0.26037 0.94665 0.42035 0.0
C569 C 0.24293 0.95509 0.42699 0.0
C570 C 0.24291 0.97219 0.44007 0.0
C571 C 0.26064 0.98104 0.44666 0.0
C572 C 0.27817 0.97285 0.43967 0.0
C573 C 0.27778 0.95579 0.42655 0.0
C574 C 0.22396 0.98068 0.44711 0.0
C575 C 0.29732 0.98196 0.44634 0.0
C576 C 0.29036 0.13401 0.43725 0.0
C577 C 0.28022 0.1239 0.41813 0.0
C578 C 0.26431 0.09395 0.43442 0.0
C579 C 0.24653 0.08543 0.43995 0.0
C580 C 0.24529 0.06625 0.44995 0.0
C581 C 0.26236 0.0554 0.4547 0.0
C582 C 0.28044 0.06387 0.44913 0.0
C583 C 0.28125 0.08299 0.43896 0.0
C584 C 0.22577 0.05758 0.45548 0.0
C585 C 0.29893 0.05269 0.45398 0.0
C586 C 0.26002 0.02483 0.55572 0.0
C587 C 0.25997 0.00526 0.56465 0.0
C588 C 0.26025 0.9882 0.55169 0.0
C589 C 0.26039 0.99064 0.52913 0.0
C590 C 0.26059 0.97382 0.51562 0.0
C591 C 0.26068 0.97635 0.49345 0.0
C592 C 0.26071 0.9958 0.48391 0.0
C593 C 0.26083 0.99851 0.46138 0.0
C594 C 0.26117 0.01805 0.45243 0.0
C595 C 0.26137 0.03514 0.46538 0.0
C596 C 0.26103 0.03274 0.48796 0.0
C597 C 0.26113 0.04957 0.50149 0.0
C598 C 0.26074 0.04704 0.52368 0.0
C599 C 0.26037 0.02758 0.5332 0.0
C600 C 0.26044 0.0104 0.51987 0.0
C601 C 0.26069 0.01299 0.49723 0.0
C602 C 0.23966 0.90388 0.42134 0.0
C603 C 0.24607 0.91703 0.4022 0.0
O604 O 0.2584 0.08833 0.61569 0.0
O605 O 0.26438 0.1127 0.42493 0.0
O606 O 0.26118 0.92974 0.4082 0.0
O607 O 0.26213 0.90981 0.59032 0.0
H608 H 0.28595 0.09953 0.6185 0.0
H609 H 0.28429 0.06638 0.63889 0.0
H610 H 0.2662 0.07642 0.65603 0.0
H611 H 0.29046 0.08672 0.65653 0.0
H612 H 0.29063 0.07108 0.60064 0.0
H613 H 0.22882 0.07267 0.59682 0.0
H614 H 0.29739 0.02514 0.57785 0.0
H615 H 0.30899 0.04961 0.5799 0.0
H616 H 0.29777 0.04189 0.55499 0.0
H617 H 0.21075 0.05096 0.57444 0.0
H618 H 0.22166 0.02639 0.57201 0.0
H619 H 0.22303 0.04437 0.55028 0.0
H620 H 0.28819 0.90828 0.60618 0.0
H621 H 0.30038 0.87992 0.58371 0.0
H622 H 0.29386 0.90152 0.5674 0.0
H623 H 0.27797 0.87988 0.56848 0.0
H624 H 0.23157 0.92863 0.57789 0.0
H625 H 0.29318 0.93404 0.58323 0.0
H626 H 0.22366 0.96769 0.54176 0.0
H627 H 0.22244 0.98033 0.56685 0.0
H628 H 0.21222 0.95521 0.56421 0.0
H629 H 0.31029 0.96214 0.57041 0.0
H630 H 0.29733 0.9853 0.57444 0.0
H631 H 0.29882 0.97522 0.54806 0.0
H632 H 0.23372 0.92624 0.39617 0.0
H633 H 0.22928 0.9484 0.42223 0.0
H634 H 0.29115 0.94929 0.42129 0.0
H635 H 0.22302 0.97949 0.46483 0.0
H636 H 0.21138 0.97263 0.43989 0.0
H637 H 0.22313 0.997 0.44261 0.0
H638 H 0.30969 0.97375 0.43963 0.0
H639 H 0.2987 0.98171 0.46409 0.0
H640 H 0.29806 0.99804 0.4409 0.0
H641 H 0.29057 0.11378 0.41021 0.0
H642 H 0.30282 0.14328 0.43168 0.0
H643 H 0.29587 0.12246 0.44885 0.0
H644 H 0.28025 0.14392 0.44576 0.0
H645 H 0.23353 0.09391 0.43638 0.0
H646 H 0.29518 0.08919 0.43477 0.0
H647 H 0.22486 0.05532 0.4731 0.0
H648 H 0.22383 0.04252 0.44804 0.0
H649 H 0.21381 0.06757 0.44999 0.0
H650 H 0.31191 0.06171 0.44956 0.0
H651 H 0.29897 0.03831 0.44503 0.0
H652 H 0.29987 0.04874 0.47133 0.0
H653 H 0.25986 0.00327 0.58194 0.0
H654 H 0.26063 0.95848 0.52203 0.0
H655 H 0.26078 0.96283 0.48388 0.0
H656 H 0.26138 0.02 0.43513 0.0
H657 H 0.26145 0.0649 0.49507 0.0
H658 H 0.26078 0.06053 0.53329 0.0
H659 H 0.22778 0.89348 0.41641 0.0
H660 H 0.23431 0.91344 0.43438 0.0
H661 H 0.2519 0.89476 0.42779 0.0
C662 C 0.4497 0.76209 0.13938 0.0
C663 C 0.43517 0.75709 0.1214 0.0
C664 C 0.45607 0.73938 0.09632 0.0
C665 C 0.46606 0.75665 0.08875 0.0
C666 C 0.48179 0.75482 0.07507 0.0
C667 C 0.4877 0.73538 0.06881 0.0
C668 C 0.47745 0.71801 0.076 0.0
C669 C 0.4617 0.72027 0.08958 0.0
C670 C 0.49229 0.77368 0.0675 0.0
C671 C 0.48333 0.69707 0.06954 0.0
C672 C 0.60245 0.6989 0.13351 0.0
C673 C 0.6156 0.70981 0.11734 0.0
C674 C 0.59134 0.72686 0.09409 0.0
C675 C 0.58358 0.70928 0.08471 0.0
C676 C 0.56703 0.71025 0.07145 0.0
C677 C 0.55841 0.72923 0.06695 0.0
C678 C 0.56675 0.74703 0.07553 0.0
C679 C 0.58304 0.74557 0.08907 0.0
C680 C 0.55848 0.69093 0.06267 0.0
C681 C 0.55817 0.76759 0.07084 0.0
C682 C 0.58749 0.72573 0.92555 0.0
C683 C 0.57614 0.70857 0.9306 0.0
C684 C 0.55954 0.71025 0.94299 0.0
C685 C 0.55398 0.72947 0.9503 0.0
C686 C 0.56516 0.7468 0.94499 0.0
C687 C 0.58184 0.74466 0.9328 0.0
C688 C 0.54796 0.69144 0.94841 0.0
C689 C 0.55954 0.76756 0.95231 0.0
C690 C 0.40732 0.76014 0.94063 0.0
C691 C 0.41729 0.75751 0.91912 0.0
C692 C 0.44725 0.74033 0.93055 0.0
C693 C 0.45602 0.72144 0.93288 0.0
C694 C 0.47373 0.71924 0.94385 0.0
C695 C 0.4831 0.73651 0.95239 0.0
C696 C 0.47461 0.7558 0.94958 0.0
C697 C 0.45671 0.75751 0.93889 0.0
C698 C 0.48235 0.69843 0.9465 0.0
C699 C 0.48439 0.77463 0.95804 0.0
C700 C 0.50505 0.73323 0.05541 0.0
C701 C 0.52293 0.7317 0.0659 0.0
C702 C 0.54001 0.73038 0.05444 0.0
C703 C 0.53931 0.73056 0.03176 0.0
C704 C 0.55618 0.72946 0.01968 0.0
C705 C 0.55531 0.72956 0.99738 0.0
C706 C 0.53755 0.73106 0.98628 0.0
C707 C 0.53653 0.73134 0.9636 0.0
C708 C 0.51864 0.7331 0.9531 0.0
C709 C 0.50158 0.73438 0.96462 0.0
C710 C 0.50229 0.73384 0.9873 0.0
C711 C 0.4854 0.73479 0.99941 0.0
C712 C 0.48626 0.7346 0.0217 0.0
C713 C 0.50403 0.73326 0.03277 0.0
C714 C 0.52123 0.73199 0.02091 0.0
C715 C 0.52036 0.7323 0.99814 0.0
C716 C 0.6229 0.69517 0.92155 0.0
C717 C 0.61182 0.70789 0.90471 0.0
O718 O 0.44117 0.74034 0.11021 0.0
O719 O 0.42976 0.74119 0.92031 0.0
O720 O 0.60396 0.72481 0.914 0.0
O721 O 0.60646 0.72656 0.10828 0.0
H722 H 0.43381 0.77032 0.11023 0.0
H723 H 0.464 0.76601 0.13269 0.0
H724 H 0.45145 0.74892 0.15054 0.0
H725 H 0.44472 0.7753 0.14853 0.0
H726 H 0.46183 0.7716 0.09353 0.0
H727 H 0.45388 0.70704 0.09534 0.0
H728 H 0.50742 0.77336 0.07354 0.0
H729 H 0.48544 0.78776 0.07304 0.0
H730 H 0.49269 0.77411 0.04972 0.0
H731 H 0.47367 0.68509 0.07619 0.0
H732 H 0.4983 0.69411 0.07522 0.0
H733 H 0.48315 0.69607 0.0518 0.0
H734 H 0.61942 0.69915 0.10449 0.0
H735 H 0.61021 0.68604 0.14135 0.0
H736 H 0.58937 0.69268 0.12549 0.0
H737 H 0.5978 0.70948 0.14604 0.0
H738 H 0.5901 0.69471 0.08791 0.0
H739 H 0.58921 0.75908 0.09616 0.0
H740 H 0.54312 0.6895 0.06728 0.0
H741 H 0.5663 0.67727 0.06855 0.0
H742 H 0.5589 0.69142 0.04491 0.0
H743 H 0.56782 0.7801 0.07619 0.0
H744 H 0.54428 0.76879 0.07926 0.0
H745 H 0.55515 0.76951 0.0534 0.0
H746 H 0.60011 0.69839 0.89762 0.0
H747 H 0.58013 0.69378 0.92512 0.0
H748 H 0.5906 0.75783 0.92884 0.0
H749 H 0.54642 0.68995 0.96605 0.0
H750 H 0.55468 0.67746 0.94242 0.0
H751 H 0.53326 0.69275 0.94127 0.0
H752 H 0.56915 0.77967 0.94586 0.0
H753 H 0.56012 0.76797 0.97008 0.0
H754 H 0.54447 0.77082 0.94715 0.0
H755 H 0.4255 0.77155 0.91502 0.0
H756 H 0.3972 0.77308 0.93964 0.0
H757 H 0.41811 0.76329 0.95349 0.0
H758 H 0.39918 0.74617 0.94512 0.0
H759 H 0.44873 0.70828 0.92634 0.0
H760 H 0.45032 0.77232 0.93723 0.0
H761 H 0.48575 0.69525 0.96367 0.0
H762 H 0.49606 0.69787 0.93763 0.0
H763 H 0.47256 0.68635 0.94042 0.0
H764 H 0.4771 0.7887 0.95241 0.0
H765 H 0.49966 0.77525 0.95298 0.0
H766 H 0.48435 0.77418 0.97582 0.0
H767 H 0.52359 0.73171 0.08329 0.0
H768 H 0.57025 0.72845 0.02735 0.0
H769 H 0.56877 0.72855 0.98894 0.0
H770 H 0.51799 0.73345 0.93572 0.0
H771 H 0.47131 0.73576 0.99179 0.0
H772 H 0.47281 0.73549 0.03017 0.0
H773 H 0.62966 0.68199 0.9139 0.0
H774 H 0.61305 0.6893 0.93407 0.0
H775 H 0.63431 0.70437 0.92954 0.0
C776 C 0.72291 0.12523 0.58051 0.0
C777 C 0.72741 0.11229 0.60059 0.0
C778 C 0.74745 0.08455 0.58758 0.0
C779 C 0.76602 0.0765 0.58766 0.0
C780 C 0.76998 0.05844 0.57704 0.0
C781 C 0.75493 0.04817 0.56606 0.0
C782 C 0.73609 0.0562 0.56585 0.0
C783 C 0.73254 0.0743 0.57652 0.0
C784 C 0.79023 0.05032 0.57751 0.0
C785 C 0.71967 0.04558 0.55435 0.0
C786 C 0.72821 0.92901 0.63874 0.0
C787 C 0.73731 0.91502 0.62239 0.0
C788 C 0.75437 0.93986 0.59938 0.0
C789 C 0.73789 0.94798 0.5891 0.0
C790 C 0.73938 0.96478 0.57509 0.0
C791 C 0.75768 0.97359 0.57119 0.0
C792 C 0.77431 0.9652 0.58113 0.0
C793 C 0.77242 0.94839 0.59503 0.0
C794 C 0.72138 0.9733 0.56463 0.0
C795 C 0.79405 0.97418 0.57726 0.0
C796 C 0.77203 0.93234 0.43401 0.0
C797 C 0.75475 0.94315 0.43585 0.0
C798 C 0.75432 0.96151 0.44686 0.0
C799 C 0.77152 0.96939 0.45606 0.0
C800 C 0.78898 0.95875 0.45399 0.0
C801 C 0.78897 0.94033 0.44305 0.0
C802 C 0.73545 0.97249 0.44874 0.0
C803 C 0.80761 0.96684 0.46342 0.0
C804 C 0.80267 0.12095 0.43302 0.0
C805 C 0.79549 0.11008 0.41281 0.0
C806 C 0.77814 0.08061 0.42818 0.0
C807 C 0.75989 0.07235 0.43207 0.0
C808 C 0.75766 0.05424 0.44392 0.0
C809 C 0.77416 0.04421 0.45222 0.0
C810 C 0.79272 0.05221 0.448 0.0
C811 C 0.79455 0.07024 0.43593 0.0
C812 C 0.73766 0.04596 0.44783 0.0
C813 C 0.81062 0.04182 0.45654 0.0
C814 C 0.75869 0.02887 0.55501 0.0
C815 C 0.75741 0.01084 0.56698 0.0
C816 C 0.75935 0.99202 0.55734 0.0
C817 C 0.76248 0.99103 0.53504 0.0
C818 C 0.76386 0.97236 0.52469 0.0
C819 C 0.76666 0.97157 0.50268 0.0
C820 C 0.76841 0.98941 0.49021 0.0
C821 C 0.77116 0.98878 0.4678 0.0
C822 C 0.77301 0.00683 0.45595 0.0
C823 C 0.77203 0.02565 0.4658 0.0
C824 C 0.76903 0.0266 0.48813 0.0
C825 C 0.76773 0.04527 0.49852 0.0
C826 C 0.76438 0.04606 0.52041 0.0
C827 C 0.76243 0.02822 0.53282 0.0
C828 C 0.76413 0.00922 0.52277 0.0
C829 C 0.76725 0.00841 0.50036 0.0
C830 C 0.74599 0.89246 0.4313 0.0
C831 C 0.75809 0.9035 0.41427 0.0
O832 O 0.74465 0.10212 0.59826 0.0
O833 O 0.77914 0.09858 0.41718 0.0
O834 O 0.77308 0.91425 0.42389 0.0
O835 O 0.7536 0.92408 0.6137 0.0
H836 H 0.71546 0.10116 0.60291 0.0
H837 H 0.72102 0.11551 0.56629 0.0
H838 H 0.73481 0.13617 0.57725 0.0
H839 H 0.70934 0.13373 0.58262 0.0
H840 H 0.77747 0.08446 0.59614 0.0
H841 H 0.71808 0.08023 0.57602 0.0
H842 H 0.79037 0.03518 0.58553 0.0
H843 H 0.8005 0.06046 0.5861 0.0
H844 H 0.79527 0.04836 0.56088 0.0
H845 H 0.7057 0.05339 0.55626 0.0
H846 H 0.71822 0.02979 0.56056 0.0
H847 H 0.72279 0.04481 0.537 0.0
H848 H 0.72665 0.91174 0.60938 0.0
H849 H 0.72341 0.94334 0.63093 0.0
H850 H 0.7154 0.92154 0.64599 0.0
H851 H 0.73877 0.93277 0.65168 0.0
H852 H 0.7238 0.94149 0.59201 0.0
H853 H 0.78506 0.94199 0.6029 0.0
H854 H 0.72298 0.97385 0.54696 0.0
H855 H 0.71926 0.98906 0.56998 0.0
H856 H 0.7083 0.96422 0.56855 0.0
H857 H 0.8056 0.96575 0.58601 0.0
H858 H 0.79442 0.99019 0.58243 0.0
H859 H 0.79712 0.97414 0.55986 0.0
H860 H 0.74869 0.9141 0.40493 0.0
H861 H 0.74147 0.93739 0.42891 0.0
H862 H 0.80225 0.932 0.44154 0.0
H863 H 0.73229 0.9749 0.4659 0.0
H864 H 0.72319 0.96407 0.44132 0.0
H865 H 0.73657 0.98764 0.44084 0.0
H866 H 0.82009 0.95711 0.45983 0.0
H867 H 0.80636 0.96789 0.48108 0.0
H868 H 0.81045 0.98236 0.45703 0.0
H869 H 0.80705 0.10007 0.40703 0.0
H870 H 0.81546 0.13054 0.42929 0.0
H871 H 0.80696 0.10987 0.44573 0.0
H872 H 0.79119 0.13067 0.43944 0.0
H873 H 0.74732 0.08031 0.42594 0.0
H874 H 0.80884 0.07616 0.43287 0.0
H875 H 0.73468 0.04616 0.46525 0.0
H876 H 0.73669 0.02996 0.44269 0.0
H877 H 0.72637 0.05485 0.43916 0.0
H878 H 0.82403 0.05013 0.4522 0.0
H879 H 0.81129 0.02627 0.45011 0.0
H880 H 0.81 0.0404 0.47427 0.0
H881 H 0.75457 0.01146 0.58401 0.0
H882 H 0.76265 0.95814 0.53348 0.0
H883 H 0.76748 0.95676 0.49557 0.0
H884 H 0.77512 0.00624 0.43878 0.0
H885 H 0.76914 0.05951 0.48981 0.0
H886 H 0.76337 0.06086 0.5275 0.0
H887 H 0.7551 0.88208 0.44123 0.0
H888 H 0.73426 0.88354 0.4235 0.0
H889 H 0.73926 0.90343 0.4421 0.0
C890 C 0.44408 0.33585 0.13257 0.0
C891 C 0.43081 0.32254 0.11865 0.0
C892 C 0.45438 0.30413 0.09719 0.0
C893 C 0.46073 0.32085 0.08483 0.0
C894 C 0.47605 0.31898 0.07055 0.0
C895 C 0.48483 0.2999 0.0681 0.0
C896 C 0.47798 0.28291 0.07991 0.0
C897 C 0.46292 0.2853 0.09438 0.0
C898 C 0.48311 0.33748 0.0584 0.0
C899 C 0.48679 0.26228 0.07753 0.0
C900 C 0.63123 0.32401 0.08532 0.0
C901 C 0.61956 0.31434 0.10357 0.0
C902 C 0.59153 0.29832 0.08562 0.0
C903 C 0.58272 0.27978 0.08086 0.0
C904 C 0.56486 0.2789 0.07001 0.0
C905 C 0.55569 0.29709 0.0635 0.0
C906 C 0.5645 0.31594 0.0682 0.0
C907 C 0.58227 0.31639 0.07929 0.0
C908 C 0.55576 0.25854 0.06549 0.0
C909 C 0.55512 0.33562 0.06141 0.0
C910 C 0.58099 0.27917 0.92365 0.0
C911 C 0.56975 0.26252 0.93061 0.0
C912 C 0.55328 0.26532 0.94295 0.0
C913 C 0.54767 0.28515 0.94819 0.0
C914 C 0.55859 0.30196 0.94073 0.0
C915 C 0.57517 0.29872 0.92867 0.0
C916 C 0.54194 0.24704 0.95059 0.0
C917 C 0.55284 0.32333 0.94571 0.0
C918 C 0.40067 0.31291 0.93296 0.0
C919 C 0.41142 0.30472 0.91371 0.0
C920 C 0.44073 0.28998 0.93046 0.0
C921 C 0.44952 0.2718 0.93666 0.0
C922 C 0.46736 0.27162 0.94759 0.0
C923 C 0.47674 0.29017 0.95228 0.0
C924 C 0.46806 0.30867 0.9459 0.0
C925 C 0.45012 0.30842 0.93512 0.0
C926 C 0.47617 0.25162 0.95419 0.0
C927 C 0.47774 0.32871 0.95056 0.0
C928 C 0.50183 0.29791 0.05411 0.0
C929 C 0.5201 0.29823 0.0639 0.0
C930 C 0.53682 0.29645 0.05191 0.0
C931 C 0.53539 0.29435 0.02942 0.0
C932 C 0.55191 0.29252 0.01687 0.0
C933 C 0.55037 0.29037 0.99477 0.0
C934 C 0.53227 0.29026 0.9843 0.0
C935 C 0.53057 0.28819 0.96181 0.0
C936 C 0.51234 0.28835 0.95192 0.0
C937 C 0.49561 0.29022 0.96391 0.0
C938 C 0.497 0.29198 0.98645 0.0
C939 C 0.48046 0.29345 0.99906 0.0
C940 C 0.48198 0.29524 0.02123 0.0
C941 C 0.5001 0.29579 0.03163 0.0
C942 C 0.51697 0.2941 0.01925 0.0
C943 C 0.51541 0.29215 0.99665 0.0
C944 C 0.61658 0.24919 0.9254 0.0
C945 C 0.60609 0.2593 0.90624 0.0
O946 O 0.44042 0.30541 0.1122 0.0
O947 O 0.4233 0.28888 0.92018 0.0
O948 O 0.59751 0.27715 0.91236 0.0
O949 O 0.60889 0.29796 0.09615 0.0
H950 H 0.42592 0.33143 0.10429 0.0
H951 H 0.45653 0.34162 0.12332 0.0
H952 H 0.44973 0.32712 0.14665 0.0
H953 H 0.43605 0.34914 0.13832 0.0
H954 H 0.45407 0.33547 0.08641 0.0
H955 H 0.45786 0.27245 0.10381 0.0
H956 H 0.49885 0.33957 0.06119 0.0
H957 H 0.47564 0.35148 0.06314 0.0
H958 H 0.48074 0.33536 0.04095 0.0
H959 H 0.47844 0.25021 0.08595 0.0
H960 H 0.50171 0.26246 0.08424 0.0
H961 H 0.48767 0.25848 0.06031 0.0
H962 H 0.60973 0.32591 0.10999 0.0
H963 H 0.64013 0.3368 0.09145 0.0
H964 H 0.6215 0.33002 0.07251 0.0
H965 H 0.64085 0.31272 0.0781 0.0
H966 H 0.58991 0.26592 0.08579 0.0
H967 H 0.58877 0.33092 0.08276 0.0
H968 H 0.54099 0.25785 0.07209 0.0
H969 H 0.56428 0.24582 0.0725 0.0
H970 H 0.55443 0.25649 0.04791 0.0
H971 H 0.56423 0.34902 0.06534 0.0
H972 H 0.54109 0.33703 0.06954 0.0
H973 H 0.55215 0.33569 0.04388 0.0
H974 H 0.59485 0.24869 0.90001 0.0
H975 H 0.57377 0.24726 0.92672 0.0
H976 H 0.58379 0.3115 0.92318 0.0
H977 H 0.54049 0.24734 0.96827 0.0
H978 H 0.54877 0.23256 0.94621 0.0
H979 H 0.52719 0.24747 0.94343 0.0
H980 H 0.56202 0.33481 0.93745 0.0
H981 H 0.55404 0.32568 0.96326 0.0
H982 H 0.53756 0.32582 0.94087 0.0
H983 H 0.42023 0.31708 0.90634 0.0
H984 H 0.39105 0.3255 0.92776 0.0
H985 H 0.41101 0.31885 0.94511 0.0
H986 H 0.39186 0.30074 0.94061 0.0
H987 H 0.44222 0.25766 0.93301 0.0
H988 H 0.44361 0.32267 0.93048 0.0
H989 H 0.47928 0.25137 0.9717 0.0
H990 H 0.49007 0.24978 0.94592 0.0
H991 H 0.46662 0.23856 0.95027 0.0
H992 H 0.46954 0.34176 0.94377 0.0
H993 H 0.49247 0.32901 0.94385 0.0
H994 H 0.47925 0.33055 0.96816 0.0
H995 H 0.52133 0.2999 0.08114 0.0
H996 H 0.56624 0.29265 0.024 0.0
H997 H 0.5636 0.28889 0.98598 0.0
H998 H 0.51115 0.28681 0.93467 0.0
H999 H 0.46613 0.2932 0.99194 0.0
H1000 H 0.46876 0.29627 0.03011 0.0
H1001 H 0.62747 0.25965 0.93249 0.0
H1002 H 0.62392 0.23524 0.92024 0.0
H1003 H 0.60627 0.24479 0.93809 0.0
H1004 H 0.18575 0.36357 0.20057 0.0
H1005 H 0.17952 0.35389 0.26866 0.0
H1006 H 0.14948 0.37297 0.26765 0.0
H1007 H 0.12412 0.39111 0.24702 0.0
H1008 H 0.1302 0.39985 0.17883 0.0
H1009 H 0.16098 0.3822 0.18023 0.0
C1010 C 0.17776 0.36551 0.21518 0.0
C1011 C 0.18485 0.35718 0.23463 0.0
C1012 C 0.16044 0.37633 0.21446 0.0
C1013 C 0.1745 0.36024 0.25348 0.0
C1014 C 0.15725 0.37106 0.2529 0.0
C1015 C 0.13237 0.38942 0.23256 0.0
C1016 C 0.12508 0.39715 0.21291 0.0
C1017 C 0.15 0.37906 0.23345 0.0
C1018 C 0.13568 0.39439 0.1942 0.0
C1019 C 0.15322 0.38421 0.19497 0.0
H1020 H 0.16897 0.67508 0.73756 0.0
H1021 H 0.195 0.63155 0.78129 0.0
H1022 H 0.16946 0.60713 0.77306 0.0
H1023 H 0.14032 0.59757 0.75243 0.0
H1024 H 0.11526 0.64047 0.70745 0.0
H1025 H 0.1399 0.66557 0.71701 0.0
C1026 C 0.16917 0.6602 0.74519 0.0
C1027 C 0.18395 0.65524 0.76004 0.0
C1028 C 0.15459 0.64607 0.74014 0.0
C1029 C 0.1837 0.63596 0.77002 0.0
C1030 C 0.16916 0.6219 0.76522 0.0
C1031 C 0.1402 0.61248 0.74488 0.0
C1032 C 0.12588 0.61721 0.72941 0.0
C1033 C 0.15459 0.62674 0.75022 0.0
C1034 C 0.12601 0.63652 0.71955 0.0
C1035 C 0.14013 0.65085 0.72496 0.0
H1036 H 0.87294 0.68434 0.27218 0.0
H1037 H 0.84476 0.64413 0.22747 0.0
H1038 H 0.87014 0.61927 0.23331 0.0
H1039 H 0.89971 0.60823 0.25218 0.0
H1040 H 0.92706 0.64764 0.29814 0.0
H1041 H 0.90258 0.67338 0.29092 0.0
C1042 C 0.87226 0.6701 0.26381 0.0
C1043 C 0.85691 0.66621 0.24937 0.0
C1044 C 0.88678 0.65567 0.26749 0.0
C1045 C 0.85651 0.64774 0.23842 0.0
C1046 C 0.87096 0.63341 0.24186 0.0
C1047 C 0.90038 0.62254 0.26045 0.0
C1048 C 0.9153 0.62611 0.2755 0.0
C1049 C 0.8861 0.63715 0.25645 0.0
C1050 C 0.91585 0.64462 0.28632 0.0
C1051 C 0.90182 0.6593 0.28226 0.0
H1052 H 0.84258 0.36083 0.7352 0.0
H1053 H 0.86465 0.31943 0.78365 0.0
H1054 H 0.89025 0.34357 0.79283 0.0
H1055 H 0.90593 0.37677 0.78771 0.0
H1056 H 0.8842 0.41814 0.73909 0.0
H1057 H 0.85884 0.39377 0.72942 0.0
C1058 C 0.85296 0.35716 0.74782 0.0
C1059 C 0.8517 0.33838 0.75874 0.0
C1060 C 0.8677 0.37109 0.75296 0.0
C1061 C 0.86541 0.3337 0.77487 0.0
C1062 C 0.88 0.34753 0.78019 0.0
C1063 C 0.89575 0.38035 0.77486 0.0
C1064 C 0.89705 0.39914 0.764 0.0
C1065 C 0.88126 0.36628 0.76939 0.0
C1066 C 0.8836 0.40368 0.74754 0.0
C1067 C 0.86908 0.3898 0.74207 0.0
H1068 H 0.24724 0.19826 0.36364 0.0
H1069 H 0.29288 0.18083 0.32168 0.0
H1070 H 0.30128 0.15287 0.34598 0.0
H1071 H 0.29625 0.1338 0.37959 0.0
H1072 H 0.2501 0.15048 0.42105 0.0
H1073 H 0.24111 0.17809 0.39631 0.0
C1074 C 0.25884 0.18818 0.35961 0.0
C1075 C 0.26948 0.19182 0.34087 0.0
C1076 C 0.26349 0.17195 0.37355 0.0
C1077 C 0.28466 0.1787 0.33616 0.0
C1078 C 0.28941 0.16259 0.34998 0.0
C1079 C 0.28408 0.14334 0.38306 0.0
C1080 C 0.27375 0.13999 0.40202 0.0
C1081 C 0.27902 0.15916 0.36879 0.0
C1082 C 0.25816 0.15265 0.40645 0.0
C1083 C 0.25307 0.16846 0.39236 0.0
H1084 H 0.35087 0.73215 0.85306 0.0
H1085 H 0.35306 0.79644 0.83941 0.0
H1086 H 0.37901 0.80052 0.86579 0.0
H1087 H 0.40096 0.78604 0.89297 0.0
H1088 H 0.39897 0.72194 0.90712 0.0
H1089 H 0.37328 0.71753 0.88019 0.0
C1090 C 0.35714 0.74702 0.85576 0.0
C1091 C 0.34989 0.76397 0.84436 0.0
C1092 C 0.37219 0.74928 0.87094 0.0
C1093 C 0.35807 0.78317 0.84821 0.0
C1094 C 0.37303 0.78552 0.86319 0.0
C1095 C 0.39505 0.77107 0.88994 0.0
C1096 C 0.4022 0.75429 0.90162 0.0
C1097 C 0.38017 0.76871 0.87467 0.0
C1098 C 0.39404 0.73504 0.89798 0.0
C1099 C 0.37928 0.73253 0.88267 0.0
H1100 H 0.79524 0.83081 0.36456 0.0
H1101 H 0.7547 0.8512 0.31577 0.0
H1102 H 0.74459 0.8785 0.33874 0.0
H1103 H 0.74636 0.89592 0.37317 0.0
H1104 H 0.78744 0.87634 0.4216 0.0
H1105 H 0.79848 0.84961 0.39813 0.0
C1106 C 0.78442 0.8414 0.35878 0.0
C1107 C 0.77564 0.83874 0.33849 0.0
C1108 C 0.77877 0.85725 0.372 0.0
C1109 C 0.76145 0.85254 0.33146 0.0
C1110 C 0.75572 0.86828 0.34453 0.0
C1111 C 0.75791 0.88596 0.37846 0.0
C1112 C 0.76617 0.8882 0.39903 0.0
C1113 C 0.76414 0.87065 0.36491 0.0
C1114 C 0.78097 0.87502 0.40577 0.0
C1115 C 0.78723 0.85971 0.39239 0.0
H1116 H 0.66311 0.26236 0.82778 0.0
H1117 H 0.6907 0.30768 0.86714 0.0
H1118 H 0.66489 0.30448 0.89305 0.0
H1119 H 0.63536 0.28745 0.90565 0.0
H1120 H 0.60899 0.24062 0.86746 0.0
H1121 H 0.63347 0.24566 0.84013 0.0
C1122 C 0.66358 0.27147 0.84208 0.0
C1123 C 0.67893 0.28522 0.84542 0.0
C1124 C 0.64888 0.26925 0.85719 0.0
C1125 C 0.679 0.29716 0.8639 0.0
C1126 C 0.66429 0.29524 0.87886 0.0
C1127 C 0.63492 0.2785 0.89124 0.0
C1128 C 0.62033 0.26376 0.88855 0.0
C1129 C 0.64927 0.28118 0.87579 0.0
C1130 C 0.61998 0.25215 0.86986 0.0
C1131 C 0.63402 0.25497 0.85426 0.0
H1132 H 0.24399 0.8213 0.64621 0.0
H1133 H 0.28842 0.83814 0.69195 0.0
H1134 H 0.29734 0.86709 0.66938 0.0
H1135 H 0.29303 0.88733 0.63631 0.0
H1136 H 0.24793 0.8714 0.59118 0.0
H1137 H 0.23853 0.84261 0.61405 0.0
C1138 C 0.25544 0.83144 0.65143 0.0
C1139 C 0.2656 0.82734 0.67073 0.0
C1140 C 0.26035 0.84829 0.6385 0.0
C1141 C 0.28059 0.84059 0.677 0.0
C1142 C 0.28562 0.85728 0.66417 0.0
C1143 C 0.28101 0.87768 0.63162 0.0
C1144 C 0.2711 0.88157 0.61216 0.0
C1145 C 0.2757 0.8612 0.64484 0.0
C1146 C 0.25568 0.86879 0.60616 0.0
C1147 C 0.25035 0.85231 0.6192 0.0
H1148 H 0.69672 0.72384 0.16365 0.0
H1149 H 0.66452 0.77098 0.19366 0.0
H1150 H 0.63634 0.76278 0.17159 0.0
H1151 H 0.62023 0.74125 0.14495 0.0
H1152 H 0.6517 0.69309 0.11605 0.0
H1153 H 0.68066 0.7025 0.13662 0.0
C1154 C 0.68352 0.73226 0.16544 0.0
C1155 C 0.68284 0.74805 0.1803 0.0
C1156 C 0.66719 0.72726 0.15291 0.0
C1157 C 0.66564 0.75897 0.18214 0.0
C1158 C 0.64942 0.7542 0.16963 0.0
C1159 C 0.63351 0.73299 0.14299 0.0
C1160 C 0.6339 0.71667 0.1288 0.0
C1161 C 0.64998 0.73829 0.15508 0.0
C1162 C 0.65111 0.70586 0.12667 0.0
C1163 C 0.66764 0.71119 0.13849 0.0
H1164 H 0.71709 0.16477 0.68369 0.0
H1165 H 0.7683 0.19407 0.65929 0.0
H1166 H 0.76933 0.16977 0.63027 0.0
H1167 H 0.75471 0.14114 0.6107 0.0
H1168 H 0.70245 0.11339 0.63415 0.0
H1169 H 0.70274 0.1362 0.66451 0.0
C1170 C 0.72841 0.16599 0.67194 0.0
C1171 C 0.74253 0.18135 0.67368 0.0
C1172 C 0.72871 0.15222 0.65506 0.0
C1173 C 0.75734 0.18231 0.65854 0.0
C1174 C 0.75787 0.16849 0.64182 0.0
C1175 C 0.74348 0.14005 0.62256 0.0
C1176 C 0.72861 0.12556 0.62018 0.0
C1177 C 0.74352 0.1535 0.6398 0.0
C1178 C 0.7141 0.12433 0.63563 0.0
C1179 C 0.71422 0.13742 0.65297 0.0
H1180 H 0.35162 0.30797 0.16659 0.0
H1181 H 0.38764 0.26762 0.20444 0.0
H1182 H 0.41499 0.27576 0.18176 0.0
H1183 H 0.42904 0.29494 0.15172 0.0
H1184 H 0.39362 0.33637 0.1147 0.0
H1185 H 0.36577 0.32736 0.13659 0.0
C1186 C 0.36548 0.30107 0.16998 0.0
C1187 C 0.36748 0.28711 0.18718 0.0
C1188 C 0.38129 0.306 0.157 0.0
C1189 C 0.38554 0.27814 0.19112 0.0
C1190 C 0.40126 0.28288 0.17824 0.0
C1191 C 0.41516 0.30186 0.14836 0.0
C1192 C 0.41333 0.31611 0.13145 0.0
C1193 C 0.39932 0.2968 0.16117 0.0
C1194 C 0.39535 0.32519 0.12746 0.0
C1195 C 0.37945 0.3201 0.14002 0.0
H1196 H 0.84775 0.65415 0.75648 0.0
H1197 H 0.8643 0.68273 0.81574 0.0
H1198 H 0.89185 0.66017 0.81968 0.0
H1199 H 0.91032 0.63116 0.80729 0.0
H1200 H 0.8937 0.60221 0.74832 0.0
H1201 H 0.86706 0.62596 0.74331 0.0
C1202 C 0.8574 0.65542 0.77024 0.0
C1203 C 0.85395 0.67009 0.7858 0.0
C1204 C 0.87319 0.64231 0.77247 0.0
C1205 C 0.86673 0.67173 0.80341 0.0
C1206 C 0.88243 0.65875 0.80575 0.0
C1207 C 0.90102 0.63026 0.79319 0.0
C1208 C 0.90414 0.61514 0.77805 0.0
C1209 C 0.8857 0.64387 0.79049 0.0
C1210 C 0.89176 0.61391 0.76004 0.0
C1211 C 0.87648 0.62741 0.75723 0.0
H1212 H 0.86456 0.35396 0.22349 0.0
H1213 H 0.84371 0.35874 0.28794 0.0
H1214 H 0.8719 0.37921 0.29779 0.0
H1215 H 0.90317 0.39461 0.28849 0.0
H1216 H 0.92431 0.38918 0.22427 0.0
H1217 H 0.89542 0.37 0.21397 0.0
C1218 C 0.86623 0.35942 0.23971 0.0
C1219 C 0.85207 0.35478 0.25496 0.0
C1220 C 0.88252 0.37109 0.2453 0.0
C1221 C 0.85429 0.36226 0.27583 0.0
C1222 C 0.87046 0.37387 0.28151 0.0
C1223 C 0.90129 0.38945 0.27217 0.0
C1224 C 0.91568 0.39364 0.25707 0.0
C1225 C 0.88473 0.37827 0.26642 0.0
C1226 C 0.91327 0.38648 0.23608 0.0
C1227 C 0.89681 0.37542 0.23022 0.0
H1228 H 0.18477 0.3708 0.72957 0.0
H1229 H 0.15486 0.33028 0.77286 0.0
H1230 H 0.12454 0.34763 0.76484 0.0
H1231 H 0.10641 0.37397 0.74502 0.0
H1232 H 0.13611 0.41371 0.70079 0.0
H1233 H 0.16666 0.39725 0.70989 0.0
C1234 C 0.17164 0.36591 0.73738 0.0
C1235 C 0.17205 0.34928 0.75178 0.0
C1236 C 0.15423 0.37585 0.73256 0.0
C1237 C 0.15487 0.34292 0.76156 0.0
C1238 C 0.13756 0.35288 0.75705 0.0
C1239 C 0.11961 0.37906 0.73747 0.0
C1240 C 0.11901 0.39511 0.72235 0.0
C1241 C 0.13705 0.36929 0.7425 0.0
C1242 C 0.1362 0.40149 0.71258 0.0
C1243 C 0.15366 0.39204 0.71773 0.0
H1244 H 0.18228 0.67059 0.25194 0.0
H1245 H 0.15538 0.71167 0.20633 0.0
H1246 H 0.13167 0.68561 0.19678 0.0
H1247 H 0.11883 0.65099 0.20103 0.0
H1248 H 0.14542 0.60995 0.24688 0.0
H1249 H 0.1691 0.63606 0.2566 0.0
C1250 C 0.17128 0.67376 0.23983 0.0
C1251 C 0.17059 0.69301 0.22984 0.0
C1252 C 0.15764 0.65873 0.23449 0.0
C1253 C 0.15611 0.69703 0.21438 0.0
C1254 C 0.1426 0.68211 0.20885 0.0
C1255 C 0.12972 0.64784 0.21327 0.0
C1256 C 0.13026 0.62865 0.22337 0.0
C1257 C 0.14323 0.66292 0.2188 0.0
C1258 C 0.14461 0.62468 0.23902 0.0
C1259 C 0.15816 0.63958 0.24454 0.0
H1260 H 0.74501 0.8286 0.66766 0.0
H1261 H 0.79758 0.85589 0.6918 0.0
H1262 H 0.79085 0.88681 0.67108 0.0
H1263 H 0.76942 0.90659 0.64712 0.0
H1264 H 0.71671 0.87946 0.62325 0.0
H1265 H 0.72397 0.84808 0.64302 0.0
C1266 C 0.75495 0.84135 0.66844 0.0
C1267 C 0.77175 0.83994 0.68129 0.0
C1268 C 0.75096 0.85911 0.65653 0.0
C1269 C 0.78464 0.85649 0.68188 0.0
C1270 C 0.78075 0.87422 0.67012 0.0
C1271 C 0.75969 0.89368 0.64601 0.0
C1272 C 0.74274 0.8952 0.6334 0.0
C1273 C 0.76392 0.87574 0.65748 0.0
C1274 C 0.73001 0.87853 0.63254 0.0
C1275 C 0.73411 0.86063 0.6439 0.0
H1276 H 0.67313 0.29802 0.18542 0.0
H1277 H 0.69483 0.25156 0.14471 0.0
H1278 H 0.67152 0.26114 0.11661 0.0
H1279 H 0.64523 0.28307 0.10342 0.0
H1280 H 0.62425 0.33017 0.14375 0.0
H1281 H 0.64678 0.31982 0.1723 0.0
C1282 C 0.67262 0.28988 0.17047 0.0
C1283 C 0.68568 0.27411 0.16715 0.0
C1284 C 0.65927 0.29556 0.15434 0.0
C1285 C 0.68505 0.26389 0.14757 0.0
C1286 C 0.67167 0.2693 0.13154 0.0
C1287 C 0.64557 0.29099 0.11851 0.0
C1288 C 0.63301 0.30728 0.12151 0.0
C1289 C 0.65878 0.28516 0.13471 0.0
C1290 C 0.63367 0.31751 0.14109 0.0
C1291 C 0.64659 0.31163 0.15739 0.0
H1292 H 0.2361 0.16887 0.67809 0.0
H1293 H 0.29358 0.19324 0.67056 0.0
H1294 H 0.30272 0.16335 0.65077 0.0
H1295 H 0.29473 0.1298 0.63648 0.0
H1296 H 0.23765 0.10487 0.64494 0.0
H1297 H 0.22807 0.13533 0.66367 0.0
C1298 C 0.25066 0.16758 0.67224 0.0
C1299 C 0.26411 0.18332 0.67581 0.0
C1300 C 0.25589 0.15026 0.661 0.0
C1301 C 0.28285 0.18151 0.66782 0.0
C1302 C 0.28814 0.16436 0.6566 0.0
C1303 C 0.28013 0.13118 0.6422 0.0
C1304 C 0.2668 0.11532 0.63888 0.0
C1305 C 0.2748 0.14862 0.65315 0.0
C1306 C 0.24805 0.11707 0.64686 0.0
C1307 C 0.24261 0.13442 0.65768 0.0
H1308 H 0.35946 0.72837 0.16959 0.0
H1309 H 0.34464 0.79091 0.15752 0.0
H1310 H 0.37496 0.79644 0.13891 0.0
H1311 H 0.40598 0.78372 0.12659 0.0
H1312 H 0.42111 0.72139 0.13906 0.0
H1313 H 0.3903 0.71549 0.15673 0.0
C1314 C 0.36278 0.74315 0.16268 0.0
C1315 C 0.34981 0.75921 0.16501 0.0
C1316 C 0.38026 0.74624 0.15198 0.0
C1317 C 0.35447 0.77835 0.15623 0.0
C1318 C 0.37176 0.78151 0.14547 0.0
C1319 C 0.40238 0.76878 0.13293 0.0
C1320 C 0.41558 0.7529 0.13103 0.0
C1321 C 0.38479 0.76559 0.14332 0.0
C1322 C 0.41099 0.73374 0.13985 0.0
C1323 C 0.39344 0.7304 0.15007 0.0
H1324 H 0.76852 0.18288 0.35202 0.0
H1325 H 0.82154 0.16821 0.32083 0.0
H1326 H 0.82656 0.13987 0.34586 0.0
H1327 H 0.81687 0.12042 0.37787 0.0
H1328 H 0.7641 0.13517 0.4094 0.0
H1329 H 0.75806 0.16239 0.38311 0.0
C1330 C 0.78116 0.17346 0.35071 0.0
C1331 C 0.79464 0.17769 0.3346 0.0
C1332 C 0.78403 0.15724 0.36526 0.0
C1333 C 0.81082 0.16517 0.33292 0.0
C1334 C 0.81378 0.14903 0.34732 0.0
C1335 C 0.80392 0.12943 0.37879 0.0
C1336 C 0.79085 0.12566 0.39541 0.0
C1337 C 0.80059 0.14507 0.36369 0.0
C1338 C 0.77425 0.13764 0.3966 0.0
C1339 C 0.77084 0.15324 0.38164 0.0
H1340 H 0.34899 0.2629 0.85293 0.0
H1341 H 0.35253 0.32119 0.82086 0.0
H1342 H 0.37651 0.33253 0.84726 0.0
H1343 H 0.39674 0.32577 0.87931 0.0
H1344 H 0.39288 0.26764 0.91157 0.0
H1345 H 0.36894 0.25628 0.88514 0.0
C1346 C 0.35512 0.27804 0.85162 0.0
C1347 C 0.349 0.29116 0.83491 0.0
C1348 C 0.36895 0.28443 0.86682 0.0
C1349 C 0.35683 0.31085 0.83368 0.0
C1350 C 0.37063 0.31731 0.8487 0.0
C1351 C 0.39077 0.31055 0.88039 0.0
C1352 C 0.39699 0.29739 0.89701 0.0
C1353 C 0.37684 0.30421 0.86528 0.0
C1354 C 0.38872 0.27789 0.89862 0.0
C1355 C 0.37495 0.27143 0.88358 0.0
H1356 H 0.28275 0.85575 0.33728 0.0
H1357 H 0.22632 0.86134 0.30779 0.0
H1358 H 0.21705 0.8852 0.33518 0.0
H1359 H 0.22484 0.90424 0.36778 0.0
H1360 H 0.28114 0.89848 0.3974 0.0
H1361 H 0.29069 0.87514 0.36957 0.0
C1362 C 0.2685 0.86236 0.33671 0.0
C1363 C 0.25525 0.85673 0.3205 0.0
C1364 C 0.26327 0.87612 0.35248 0.0
C1365 C 0.23672 0.86519 0.32023 0.0
C1366 C 0.23144 0.87893 0.33582 0.0
C1367 C 0.23927 0.89805 0.36795 0.0
C1368 C 0.25241 0.90347 0.38432 0.0
C1369 C 0.24458 0.88447 0.35204 0.0
C1370 C 0.27091 0.89491 0.3847 0.0
C1371 C 0.27634 0.88148 0.36886 0.0
H1372 H 0.66313 0.72369 0.82262 0.0
H1373 H 0.69434 0.76158 0.86711 0.0
H1374 H 0.67112 0.7532 0.89501 0.0
H1375 H 0.64217 0.73466 0.90694 0.0
H1376 H 0.61169 0.69579 0.86281 0.0
H1377 H 0.63416 0.70524 0.83451 0.0
C1378 C 0.66473 0.73023 0.83837 0.0
C1379 C 0.68043 0.74322 0.8428 0.0
C1380 C 0.65142 0.72522 0.85438 0.0
C1381 C 0.68249 0.75138 0.86338 0.0
C1382 C 0.66917 0.74667 0.8793 0.0
C1383 C 0.64045 0.72833 0.89109 0.0
C1384 C 0.62525 0.7146 0.88697 0.0
C1385 C 0.65363 0.73353 0.87502 0.0
C1386 C 0.6232 0.70646 0.86637 0.0
C1387 C 0.63607 0.71181 0.85021 0.0
loop_
_geom_bond_atom_site_label_1
_geom_bond_atom_site_label_2
_geom_bond_distance
_geom_bond_site_symmetry_2
_ccdc_geom_bond_type
C0 C1 1.264 . S
C0 C5 1.479 . S
C0 C10 1.465 . S
C1 C0 1.264 . S
C1 C3 1.339 . S
C1 H28 0.931 . S
C2 C3 1.395 . S
C2 C4 1.320 . S
C3 C1 1.339 . S
C3 C2 1.395 . S
C3 H29 0.929 . S
C4 C2 1.320 . S
C4 C5 1.405 . S
C4 H30 0.930 . S
C5 C0 1.479 . S
C5 C4 1.405 . S
C5 H31 0.931 . S
U6 O7 2.454 . S
U6 O8 2.458 . S
U6 C9 2.984 . S
U6 C10 2.847 . S
U6 C23 2.882 . S
U6 O24 2.441 . S
U6 O25 2.420 . S
U6 O26 2.455 . S
U6 O27 2.449 . S
O7 U6 2.454 . S
O7 C9 1.353 . S
O8 U6 2.458 . S
O8 C9 1.286 . S
C9 U6 2.984 . S
C9 O7 1.353 . S
C9 O8 1.286 . S
C9 C11 1.363 . S
C10 C0 1.465 . S
C10 U6 2.847 . S
C10 O24 1.249 . S
C10 O25 1.202 . S
C11 C9 1.363 . S
C11 C13 1.408 . S
C11 C16 1.342 . S
C12 C13 1.310 . S
C12 C15 1.461 . S
C12 H32 0.932 . S
C13 C11 1.408 . S
C13 C12 1.310 . S
C13 H33 0.930 . S
C14 C15 1.474 . S
C14 C16 1.285 . S
C14 H34 0.929 . S
C15 C12 1.461 . S
C15 C14 1.474 . S
C16 C11 1.342 . S
C16 C14 1.285 . S
C16 H35 0.930 . S
C17 C20 1.424 . S
C17 C22 1.245 . S
C17 C23 1.428 . S
C18 C21 1.260 . S
C18 C22 1.477 . S
C18 H36 0.932 . S
C19 C20 1.384 . S
C19 C21 1.479 . S
C19 H37 0.929 . S
C20 C17 1.424 . S
C20 C19 1.384 . S
C20 H38 0.928 . S
C21 C18 1.260 . S
C21 C19 1.479 . S
C22 C17 1.245 . S
C22 C18 1.477 . S
C22 H39 0.932 . S
C23 U6 2.882 . S
C23 C17 1.428 . S
C23 O26 1.301 . S
C23 O27 1.282 . S
O24 U6 2.441 . S
O24 C10 1.249 . S
O25 U6 2.420 . S
O25 C10 1.202 . S
O26 U6 2.455 . S
O26 C23 1.301 . S
O27 U6 2.449 . S
O27 C23 1.282 . S
H28 C1 0.931 . S
H29 C3 0.929 . S
H30 C4 0.930 . S
H31 C5 0.931 . S
H32 C12 0.932 . S
H33 C13 0.930 . S
H34 C14 0.929 . S
H35 C16 0.930 . S
H36 C18 0.932 . S
H37 C19 0.929 . S
H38 C20 0.928 . S
H39 C22 0.932 . S
C40 C41 1.264 . S
C40 C45 1.479 . S
C40 C50 1.465 . S
C41 C40 1.264 . S
C41 C43 1.339 . S
C41 H68 0.931 . S
C42 C43 1.395 . S
C42 C44 1.320 . S
C43 C41 1.339 . S
C43 C42 1.395 . S
C43 H69 0.929 . S
C44 C42 1.320 . S
C44 C45 1.405 . S
C44 H70 0.930 . S
C45 C40 1.479 . S
C45 C44 1.405 . S
C45 H71 0.931 . S
U46 O47 2.454 . S
U46 O48 2.458 . S
U46 C49 2.984 . S
U46 C50 2.847 . S
U46 C63 2.882 . S
U46 O64 2.441 . S
U46 O65 2.420 . S
U46 O66 2.455 . S
U46 O67 2.449 . S
O47 U46 2.454 . S
O47 C49 1.353 . S
O48 U46 2.458 . S
O48 C49 1.286 . S
C49 U46 2.984 . S
C49 O47 1.353 . S
C49 O48 1.286 . S
C49 C51 1.363 . S
C50 C40 1.465 . S
C50 U46 2.847 . S
C50 O64 1.249 . S
C50 O65 1.202 . S
C51 C49 1.363 . S
C51 C53 1.408 . S
C51 C56 1.342 . S
C52 C53 1.310 . S
C52 C55 1.461 . S
C52 H72 0.932 . S
C53 C51 1.408 . S
C53 C52 1.310 . S
C53 H73 0.930 . S
C54 C55 1.474 . S
C54 C56 1.285 . S
C54 H74 0.929 . S
C55 C52 1.461 . S
C55 C54 1.474 . S
C56 C51 1.342 . S
C56 C54 1.285 . S
C56 H75 0.930 . S
C57 C60 1.424 . S
C57 C62 1.245 . S
C57 C63 1.428 . S
C58 C61 1.260 . S
C58 C62 1.477 . S
C58 H76 0.932 . S
C59 C60 1.384 . S
C59 C61 1.479 . S
C59 H77 0.929 . S
C60 C57 1.424 . S
C60 C59 1.384 . S
C60 H78 0.928 . S
C61 C58 1.260 . S
C61 C59 1.479 . S
C62 C57 1.245 . S
C62 C58 1.477 . S
C62 H79 0.932 . S
C63 U46 2.882 . S
C63 C57 1.428 . S
C63 O66 1.301 . S
C63 O67 1.282 . S
O64 U46 2.441 . S
O64 C50 1.249 . S
O65 U46 2.420 . S
O65 C50 1.202 . S
O66 U46 2.455 . S
O66 C63 1.301 . S
O67 U46 2.449 . S
O67 C63 1.282 . S
H68 C41 0.931 . S
H69 C43 0.929 . S
H70 C44 0.930 . S
H71 C45 0.931 . S
H72 C52 0.932 . S
H73 C53 0.930 . S
H74 C54 0.929 . S
H75 C56 0.930 . S
H76 C58 0.932 . S
H77 C59 0.929 . S
H78 C60 0.928 . S
H79 C62 0.932 . S
C80 C81 1.264 . S
C80 C85 1.479 . S
C80 C90 1.465 . S
C81 C80 1.264 . S
C81 C83 1.339 . S
C81 H108 0.931 . S
C82 C83 1.395 . S
C82 C84 1.320 . S
C83 C81 1.339 . S
C83 C82 1.395 . S
C83 H109 0.929 . S
C84 C82 1.320 . S
C84 C85 1.405 . S
C84 H110 0.930 . S
C85 C80 1.479 . S
C85 C84 1.405 . S
C85 H111 0.931 . S
U86 O87 2.454 . S
U86 O88 2.458 . S
U86 C89 2.984 . S
U86 C90 2.847 . S
U86 C103 2.882 . S
U86 O104 2.441 . S
U86 O105 2.420 . S
U86 O106 2.455 . S
U86 O107 2.449 . S
O87 U86 2.454 . S
O87 C89 1.353 . S
O88 U86 2.458 . S
O88 C89 1.286 . S
C89 U86 2.984 . S
C89 O87 1.353 . S
C89 O88 1.286 . S
C89 C91 1.363 . S
C90 C80 1.465 . S
C90 U86 2.847 . S
C90 O104 1.249 . S
C90 O105 1.202 . S
C91 C89 1.363 . S
C91 C93 1.408 . S
C91 C96 1.342 . S
C92 C93 1.310 . S
C92 C95 1.461 . S
C92 H112 0.932 . S
C93 C91 1.408 . S
C93 C92 1.310 . S
C93 H113 0.930 . S
C94 C95 1.474 . S
C94 C96 1.285 . S
C94 H114 0.929 . S
C95 C92 1.461 . S
C95 C94 1.474 . S
C96 C91 1.342 . S
C96 C94 1.285 . S
C96 H115 0.930 . S
C97 C100 1.424 . S
C97 C102 1.245 . S
C97 C103 1.428 . S
C98 C101 1.260 . S
C98 C102 1.477 . S
C98 H116 0.932 . S
C99 C100 1.384 . S
C99 C101 1.479 . S
C99 H117 0.929 . S
C100 C97 1.424 . S
C100 C99 1.384 . S
C100 H118 0.928 . S
C101 C98 1.260 . S
C101 C99 1.479 . S
C102 C97 1.245 . S
C102 C98 1.477 . S
C102 H119 0.932 . S
C103 U86 2.882 . S
C103 C97 1.428 . S
C103 O106 1.301 . S
C103 O107 1.282 . S
O104 U86 2.441 . S
O104 C90 1.249 . S
O105 U86 2.420 . S
O105 C90 1.202 . S
O106 U86 2.455 . S
O106 C103 1.301 . S
O107 U86 2.449 . S
O107 C103 1.282 . S
H108 C81 0.931 . S
H109 C83 0.929 . S
H110 C84 0.930 . S
H111 C85 0.931 . S
H112 C92 0.932 . S
H113 C93 0.930 . S
H114 C94 0.929 . S
H115 C96 0.930 . S
H116 C98 0.932 . S
H117 C99 0.929 . S
H118 C100 0.928 . S
H119 C102 0.932 . S
C120 C121 1.264 . S
C120 C125 1.479 . S
C120 C130 1.465 . S
C121 C120 1.264 . S
C121 C123 1.339 . S
C121 H148 0.931 . S
C122 C123 1.395 . S
C122 C124 1.320 . S
C123 C121 1.339 . S
C123 C122 1.395 . S
C123 H149 0.929 . S
C124 C122 1.320 . S
C124 C125 1.405 . S
C124 H150 0.930 . S
C125 C120 1.479 . S
C125 C124 1.405 . S
C125 H151 0.931 . S
U126 O127 2.454 . S
U126 O128 2.458 . S
U126 C129 2.984 . S
U126 C130 2.847 . S
U126 C143 2.882 . S
U126 O144 2.441 . S
U126 O145 2.420 . S
U126 O146 2.455 . S
U126 O147 2.449 . S
O127 U126 2.454 . S
O127 C129 1.353 . S
O128 U126 2.458 . S
O128 C129 1.286 . S
C129 U126 2.984 . S
C129 O127 1.353 . S
C129 O128 1.286 . S
C129 C131 1.363 . S
C130 C120 1.465 . S
C130 U126 2.847 . S
C130 O144 1.249 . S
C130 O145 1.202 . S
C131 C129 1.363 . S
C131 C133 1.408 . S
C131 C136 1.342 . S
C132 C133 1.310 . S
C132 C135 1.461 . S
C132 H152 0.932 . S
C133 C131 1.408 . S
C133 C132 1.310 . S
C133 H153 0.930 . S
C134 C135 1.474 . S
C134 C136 1.285 . S
C134 H154 0.929 . S
C135 C132 1.461 . S
C135 C134 1.474 . S
C136 C131 1.342 . S
C136 C134 1.285 . S
C136 H155 0.930 . S
C137 C140 1.424 . S
C137 C142 1.245 . S
C137 C143 1.428 . S
C138 C141 1.260 . S
C138 C142 1.477 . S
C138 H156 0.932 . S
C139 C140 1.384 . S
C139 C141 1.479 . S
C139 H157 0.929 . S
C140 C137 1.424 . S
C140 C139 1.384 . S
C140 H158 0.928 . S
C141 C138 1.260 . S
C141 C139 1.479 . S
C142 C137 1.245 . S
C142 C138 1.477 . S
C142 H159 0.932 . S
C143 U126 2.882 . S
C143 C137 1.428 . S
C143 O146 1.301 . S
C143 O147 1.282 . S
O144 U126 2.441 . S
O144 C130 1.249 . S
O145 U126 2.420 . S
O145 C130 1.202 . S
O146 U126 2.455 . S
O146 C143 1.301 . S
O147 U126 2.449 . S
O147 C143 1.282 . S
H148 C121 0.931 . S
H149 C123 0.929 . S
H150 C124 0.930 . S
H151 C125 0.931 . S
H152 C132 0.932 . S
H153 C133 0.930 . S
H154 C134 0.929 . S
H155 C136 0.930 . S
H156 C138 0.932 . S
H157 C139 0.929 . S
H158 C140 0.928 . S
H159 C142 0.932 . S
C160 C161 1.264 . S
C160 C165 1.479 . S
C160 C170 1.465 . S
C161 C160 1.264 . S
C161 C163 1.339 . S
C161 H188 0.931 . S
C162 C163 1.395 . S
C162 C164 1.320 . S
C163 C161 1.339 . S
C163 C162 1.395 . S
C163 H189 0.929 . S
C164 C162 1.320 . S
C164 C165 1.405 . S
C164 H190 0.930 . S
C165 C160 1.479 . S
C165 C164 1.405 . S
C165 H191 0.931 . S
U166 O167 2.454 . S
U166 O168 2.458 . S
U166 C169 2.984 . S
U166 C170 2.847 . S
U166 C183 2.882 . S
U166 O184 2.441 . S
U166 O185 2.420 . S
U166 O186 2.455 . S
U166 O187 2.449 . S
O167 U166 2.454 . S
O167 C169 1.353 . S
O168 U166 2.458 . S
O168 C169 1.286 . S
C169 U166 2.984 . S
C169 O167 1.353 . S
C169 O168 1.286 . S
C169 C171 1.363 . S
C170 C160 1.465 . S
C170 U166 2.847 . S
C170 O184 1.249 . S
C170 O185 1.202 . S
C171 C169 1.363 . S
C171 C173 1.408 . S
C171 C176 1.342 . S
C172 C173 1.310 . S
C172 C175 1.461 . S
C172 H192 0.932 . S
C173 C171 1.408 . S
C173 C172 1.310 . S
C173 H193 0.930 . S
C174 C175 1.474 . S
C174 C176 1.285 . S
C174 H194 0.929 . S
C175 C172 1.461 . S
C175 C174 1.474 . S
C176 C171 1.342 . S
C176 C174 1.285 . S
C176 H195 0.930 . S
C177 C180 1.424 . S
C177 C182 1.245 . S
C177 C183 1.428 . S
C178 C181 1.260 . S
C178 C182 1.477 . S
C178 H196 0.932 . S
C179 C180 1.384 . S
C179 C181 1.479 . S
C179 H197 0.929 . S
C180 C177 1.424 . S
C180 C179 1.384 . S
C180 H198 0.928 . S
C181 C178 1.260 . S
C181 C179 1.479 . S
C182 C177 1.245 . S
C182 C178 1.477 . S
C182 H199 0.932 . S
C183 U166 2.882 . S
C183 C177 1.428 . S
C183 O186 1.301 . S
C183 O187 1.282 . S
O184 U166 2.441 . S
O184 C170 1.249 . S
O185 U166 2.420 . S
O185 C170 1.202 . S
O186 U166 2.455 . S
O186 C183 1.301 . S
O187 U166 2.449 . S
O187 C183 1.282 . S
H188 C161 0.931 . S
H189 C163 0.929 . S
H190 C164 0.930 . S
H191 C165 0.931 . S
H192 C172 0.932 . S
H193 C173 0.930 . S
H194 C174 0.929 . S
H195 C176 0.930 . S
H196 C178 0.932 . S
H197 C179 0.929 . S
H198 C180 0.928 . S
H199 C182 0.932 . S
C200 C201 1.264 . S
C200 C205 1.479 . S
C200 C210 1.465 . S
C201 C200 1.264 . S
C201 C203 1.339 . S
C201 H228 0.931 . S
C202 C203 1.395 . S
C202 C204 1.320 . S
C203 C201 1.339 . S
C203 C202 1.395 . S
C203 H229 0.929 . S
C204 C202 1.320 . S
C204 C205 1.405 . S
C204 H230 0.930 . S
C205 C200 1.479 . S
C205 C204 1.405 . S
C205 H231 0.931 . S
U206 O207 2.454 . S
U206 O208 2.458 . S
U206 C209 2.984 . S
U206 C210 2.847 . S
U206 C223 2.882 . S
U206 O224 2.441 . S
U206 O225 2.420 . S
U206 O226 2.455 . S
U206 O227 2.449 . S
O207 U206 2.454 . S
O207 C209 1.353 . S
O208 U206 2.458 . S
O208 C209 1.286 . S
C209 U206 2.984 . S
C209 O207 1.353 . S
C209 O208 1.286 . S
C209 C211 1.363 . S
C210 C200 1.465 . S
C210 U206 2.847 . S
C210 O224 1.249 . S
C210 O225 1.202 . S
C211 C209 1.363 . S
C211 C213 1.408 . S
C211 C216 1.342 . S
C212 C213 1.310 . S
C212 C215 1.461 . S
C212 H232 0.932 . S
C213 C211 1.408 . S
C213 C212 1.310 . S
C213 H233 0.930 . S
C214 C215 1.474 . S
C214 C216 1.285 . S
C214 H234 0.929 . S
C215 C212 1.461 . S
C215 C214 1.474 . S
C216 C211 1.342 . S
C216 C214 1.285 . S
C216 H235 0.930 . S
C217 C220 1.424 . S
C217 C222 1.245 . S
C217 C223 1.428 . S
C218 C221 1.260 . S
C218 C222 1.477 . S
C218 H236 0.932 . S
C219 C220 1.384 . S
C219 C221 1.479 . S
C219 H237 0.929 . S
C220 C217 1.424 . S
C220 C219 1.384 . S
C220 H238 0.928 . S
C221 C218 1.260 . S
C221 C219 1.479 . S
C222 C217 1.245 . S
C222 C218 1.477 . S
C222 H239 0.932 . S
C223 U206 2.882 . S
C223 C217 1.428 . S
C223 O226 1.301 . S
C223 O227 1.282 . S
O224 U206 2.441 . S
O224 C210 1.249 . S
O225 U206 2.420 . S
O225 C210 1.202 . S
O226 U206 2.455 . S
O226 C223 1.301 . S
O227 U206 2.449 . S
O227 C223 1.282 . S
H228 C201 0.931 . S
H229 C203 0.929 . S
H230 C204 0.930 . S
H231 C205 0.931 . S
H232 C212 0.932 . S
H233 C213 0.930 . S
H234 C214 0.929 . S
H235 C216 0.930 . S
H236 C218 0.932 . S
H237 C219 0.929 . S
H238 C220 0.928 . S
H239 C222 0.932 . S
C240 C241 1.264 . S
C240 C245 1.479 . S
C240 C250 1.465 . S
C241 C240 1.264 . S
C241 C243 1.339 . S
C241 H268 0.931 . S
C242 C243 1.395 . S
C242 C244 1.320 . S
C243 C241 1.339 . S
C243 C242 1.395 . S
C243 H269 0.929 . S
C244 C242 1.320 . S
C244 C245 1.405 . S
C244 H270 0.930 . S
C245 C240 1.479 . S
C245 C244 1.405 . S
C245 H271 0.931 . S
U246 O247 2.454 . S
U246 O248 2.458 . S
U246 C249 2.984 . S
U246 C250 2.847 . S
U246 C263 2.882 . S
U246 O264 2.441 . S
U246 O265 2.420 . S
U246 O266 2.455 . S
U246 O267 2.449 . S
O247 U246 2.454 . S
O247 C249 1.353 . S
O248 U246 2.458 . S
O248 C249 1.286 . S
C249 U246 2.984 . S
C249 O247 1.353 . S
C249 O248 1.286 . S
C249 C251 1.363 . S
C250 C240 1.465 . S
C250 U246 2.847 . S
C250 O264 1.249 . S
C250 O265 1.202 . S
C251 C249 1.363 . S
C251 C253 1.408 . S
C251 C256 1.342 . S
C252 C253 1.310 . S
C252 C255 1.461 . S
C252 H272 0.932 . S
C253 C251 1.408 . S
C253 C252 1.310 . S
C253 H273 0.930 . S
C254 C255 1.474 . S
C254 C256 1.285 . S
C254 H274 0.929 . S
C255 C252 1.461 . S
C255 C254 1.474 . S
C256 C251 1.342 . S
C256 C254 1.285 . S
C256 H275 0.930 . S
C257 C260 1.424 . S
C257 C262 1.245 . S
C257 C263 1.428 . S
C258 C261 1.260 . S
C258 C262 1.477 . S
C258 H276 0.932 . S
C259 C260 1.384 . S
C259 C261 1.479 . S
C259 H277 0.929 . S
C260 C257 1.424 . S
C260 C259 1.384 . S
C260 H278 0.928 . S
C261 C258 1.260 . S
C261 C259 1.479 . S
C262 C257 1.245 . S
C262 C258 1.477 . S
C262 H279 0.932 . S
C263 U246 2.882 . S
C263 C257 1.428 . S
C263 O266 1.301 . S
C263 O267 1.282 . S
O264 U246 2.441 . S
O264 C250 1.249 . S
O265 U246 2.420 . S
O265 C250 1.202 . S
O266 U246 2.455 . S
O266 C263 1.301 . S
O267 U246 2.449 . S
O267 C263 1.282 . S
H268 C241 0.931 . S
H269 C243 0.929 . S
H270 C244 0.930 . S
H271 C245 0.931 . S
H272 C252 0.932 . S
H273 C253 0.930 . S
H274 C254 0.929 . S
H275 C256 0.930 . S
H276 C258 0.932 . S
H277 C259 0.929 . S
H278 C260 0.928 . S
H279 C262 0.932 . S
C280 C281 1.264 . S
C280 C285 1.479 . S
C280 C290 1.465 . S
C281 C280 1.264 . S
C281 C283 1.339 . S
C281 H308 0.931 . S
C282 C283 1.395 . S
C282 C284 1.320 . S
C283 C281 1.339 . S
C283 C282 1.395 . S
C283 H309 0.929 . S
C284 C282 1.320 . S
C284 C285 1.405 . S
C284 H310 0.930 . S
C285 C280 1.479 . S
C285 C284 1.405 . S
C285 H311 0.931 . S
U286 O287 2.454 . S
U286 O288 2.458 . S
U286 C289 2.984 . S
U286 C290 2.847 . S
U286 C303 2.882 . S
U286 O304 2.441 . S
U286 O305 2.420 . S
U286 O306 2.455 . S
U286 O307 2.449 . S
O287 U286 2.454 . S
O287 C289 1.353 . S
O288 U286 2.458 . S
O288 C289 1.286 . S
C289 U286 2.984 . S
C289 O287 1.353 . S
C289 O288 1.286 . S
C289 C291 1.363 . S
C290 C280 1.465 . S
C290 U286 2.847 . S
C290 O304 1.249 . S
C290 O305 1.202 . S
C291 C289 1.363 . S
C291 C293 1.408 . S
C291 C296 1.342 . S
C292 C293 1.310 . S
C292 C295 1.461 . S
C292 H312 0.932 . S
C293 C291 1.408 . S
C293 C292 1.310 . S
C293 H313 0.930 . S
C294 C295 1.474 . S
C294 C296 1.285 . S
C294 H314 0.929 . S
C295 C292 1.461 . S
C295 C294 1.474 . S
C296 C291 1.342 . S
C296 C294 1.285 . S
C296 H315 0.930 . S
C297 C300 1.424 . S
C297 C302 1.245 . S
C297 C303 1.428 . S
C298 C301 1.260 . S
C298 C302 1.477 . S
C298 H316 0.932 . S
C299 C300 1.384 . S
C299 C301 1.479 . S
C299 H317 0.929 . S
C300 C297 1.424 . S
C300 C299 1.384 . S
C300 H318 0.928 . S
C301 C298 1.260 . S
C301 C299 1.479 . S
C302 C297 1.245 . S
C302 C298 1.477 . S
C302 H319 0.932 . S
C303 U286 2.882 . S
C303 C297 1.428 . S
C303 O306 1.301 . S
C303 O307 1.282 . S
O304 U286 2.441 . S
O304 C290 1.249 . S
O305 U286 2.420 . S
O305 C290 1.202 . S
O306 U286 2.455 . S
O306 C303 1.301 . S
O307 U286 2.449 . S
O307 C303 1.282 . S
H308 C281 0.931 . S
H309 C283 0.929 . S
H310 C284 0.930 . S
H311 C285 0.931 . S
H312 C292 0.932 . S
H313 C293 0.930 . S
H314 C294 0.929 . S
H315 C296 0.930 . S
H316 C298 0.932 . S
H317 C299 0.929 . S
H318 C300 0.928 . S
H319 C302 0.932 . S
C320 C321 1.560 . S
C320 H381 0.959 . S
C320 H382 0.959 . S
C320 H383 0.960 . S
C321 C320 1.560 . S
C321 O376 1.426 . S
C321 H380 0.980 . S
C322 C323 1.407 . S
C322 C327 1.418 . S
C322 O376 1.334 . S
C323 C322 1.407 . S
C323 C324 1.360 . S
C323 H384 0.929 . S
C324 C323 1.360 . S
C324 C325 1.401 . S
C324 C328 1.527 . S
C325 C324 1.401 . S
C325 C326 1.405 . S
C325 C358 1.587 . S
C326 C325 1.405 . S
C326 C327 1.332 . S
C326 C329 1.496 . S
C327 C322 1.418 . S
C327 C326 1.332 . S
C327 H385 0.929 . S
C328 C324 1.527 . S
C328 H386 0.959 . S
C328 H387 0.961 . S
C328 H388 0.961 . S
C329 C326 1.496 . S
C329 H389 0.960 . S
C329 H390 0.960 1_655 S
C329 H391 0.961 . S
C330 C331 1.517 . S
C330 H393 0.961 . S
C330 H394 0.960 . S
C330 H395 0.959 . S
C331 C330 1.517 . S
C331 O379 1.468 . S
C331 H392 0.980 . S
C332 C333 1.349 . S
C332 C337 1.367 . S
C332 O379 1.408 . S
C333 C332 1.349 . S
C333 C334 1.407 . S
C333 H396 0.930 . S
C334 C333 1.407 . S
C334 C335 1.449 . S
C334 C338 1.535 . S
C335 C334 1.449 . S
C335 C336 1.384 . S
C335 C360 1.553 . S
C336 C335 1.384 . S
C336 C337 1.364 . S
C336 C339 1.450 . S
C337 C332 1.367 . S
C337 C336 1.364 . S
C337 H397 0.931 . S
C338 C334 1.535 . S
C338 H398 0.959 . S
C338 H399 0.961 . S
C338 H400 0.959 . S
C339 C336 1.450 . S
C339 H401 0.960 . S
C339 H402 0.960 . S
C339 H403 0.960 . S
C340 C341 1.309 . S
C340 C345 1.304 . S
C340 O378 1.435 . S
C341 C340 1.309 . S
C341 C342 1.476 . S
C341 H405 0.930 . S
C342 C341 1.476 . S
C342 C343 1.400 . S
C342 C346 1.567 . S
C343 C342 1.400 . S
C343 C344 1.373 . S
C343 C365 1.432 . S
C344 C343 1.373 . S
C344 C345 1.339 . S
C344 C347 1.530 . S
C345 C340 1.304 . S
C345 C344 1.339 . S
C345 H406 0.930 . S
C346 C342 1.567 . S
C346 H407 0.961 . S
C346 H408 0.960 . S
C346 H409 0.958 . S
C347 C344 1.530 . S
C347 H410 0.961 . S
C347 H411 0.960 . S
C347 H412 0.960 . S
C348 C349 1.530 . S
C348 H414 0.961 . S
C348 H415 0.961 . S
C348 H416 0.959 . S
C349 C348 1.530 . S
C349 O377 1.412 . S
C349 H413 0.980 . S
C350 C351 1.288 . S
C350 C355 1.377 . S
C350 O377 1.393 . S
C351 C350 1.288 . S
C351 C352 1.369 . S
C351 H417 0.932 . S
C352 C351 1.369 . S
C352 C353 1.398 . S
C352 C356 1.527 . S
C353 C352 1.398 . S
C353 C354 1.380 . S
C353 C367 1.497 . S
C354 C353 1.380 . S
C354 C355 1.383 . S
C354 C357 1.603 . S
C355 C350 1.377 . S
C355 C354 1.383 . S
C355 H418 0.929 . S
C356 C352 1.527 . S
C356 H419 0.961 . S
C356 H420 0.959 . S
C356 H421 0.959 . S
C357 C354 1.603 . S
C357 H422 0.960 . S
C357 H423 0.962 . S
C357 H424 0.961 . S
C358 C325 1.587 . S
C358 C359 1.360 1_655 S
C358 C371 1.412 . S
C359 C358 1.360 1_455 S
C359 C360 1.365 . S
C359 H425 0.929 . S
C360 C335 1.553 . S
C360 C359 1.365 . S
C360 C361 1.404 . S
C361 C360 1.404 . S
C361 C362 1.395 . S
C361 C372 1.451 . S
C362 C361 1.395 . S
C362 C363 1.322 . S
C362 H426 0.930 . S
C363 C362 1.322 . S
C363 C364 1.459 . S
C363 H427 0.929 . S
C364 C363 1.459 . S
C364 C365 1.445 . S
C364 C373 1.395 . S
C365 C343 1.432 . S
C365 C364 1.445 . S
C365 C366 1.370 . S
C366 C365 1.370 . S
C366 C367 1.438 1_455 S
C366 H428 0.930 . S
C367 C353 1.497 . S
C367 C366 1.438 1_655 S
C367 C368 1.360 . S
C368 C367 1.360 . S
C368 C369 1.401 . S
C368 C373 1.446 1_655 S
C369 C368 1.401 . S
C369 C370 1.347 . S
C369 H429 0.929 . S
C370 C369 1.347 . S
C370 C371 1.455 . S
C370 H430 0.930 . S
C371 C358 1.412 . S
C371 C370 1.455 . S
C371 C372 1.331 1_655 S
C372 C361 1.451 . S
C372 C371 1.331 1_455 S
C372 C373 1.497 . S
C373 C364 1.395 . S
C373 C368 1.446 1_455 S
C373 C372 1.497 . S
C374 C375 1.582 . S
C374 H431 0.962 . S
C374 H432 0.959 . S
C374 H433 0.958 . S
C375 C374 1.582 . S
C375 O378 1.458 . S
C375 H404 0.980 . S
O376 C321 1.426 . S
O376 C322 1.334 . S
O377 C349 1.412 . S
O377 C350 1.393 . S
O378 C340 1.435 . S
O378 C375 1.458 . S
O379 C331 1.468 . S
O379 C332 1.408 . S
H380 C321 0.980 . S
H381 C320 0.959 . S
H382 C320 0.959 . S
H383 C320 0.960 . S
H384 C323 0.929 . S
H385 C327 0.929 . S
H386 C328 0.959 . S
H387 C328 0.961 . S
H388 C328 0.961 . S
H389 C329 0.960 . S
H390 C329 0.960 1_455 S
H391 C329 0.961 . S
H392 C331 0.980 . S
H393 C330 0.961 . S
H394 C330 0.960 . S
H395 C330 0.959 . S
H396 C333 0.930 . S
H397 C337 0.931 . S
H398 C338 0.959 . S
H399 C338 0.961 . S
H400 C338 0.959 . S
H401 C339 0.960 . S
H402 C339 0.960 . S
H403 C339 0.960 . S
H404 C375 0.980 . S
H405 C341 0.930 . S
H406 C345 0.930 . S
H407 C346 0.961 . S
H408 C346 0.960 . S
H409 C346 0.958 . S
H410 C347 0.961 . S
H411 C347 0.960 . S
H412 C347 0.960 . S
H413 C349 0.980 . S
H414 C348 0.961 . S
H415 C348 0.961 . S
H416 C348 0.959 . S
H417 C351 0.932 . S
H418 C355 0.929 . S
H419 C356 0.961 . S
H420 C356 0.959 . S
H421 C356 0.959 . S
H422 C357 0.960 . S
H423 C357 0.962 . S
H424 C357 0.961 . S
H425 C359 0.929 . S
H426 C362 0.930 . S
H427 C363 0.929 . S
H428 C366 0.930 . S
H429 C369 0.929 . S
H430 C370 0.930 . S
H431 C374 0.962 . S
H432 C374 0.959 . S
H433 C374 0.958 . S
C434 C435 1.560 . S
C434 H495 0.959 . S
C434 H496 0.959 . S
C434 H497 0.960 . S
C435 C434 1.560 . S
C435 O490 1.426 . S
C435 H494 0.980 . S
C436 C437 1.407 . S
C436 C441 1.418 . S
C436 O490 1.334 . S
C437 C436 1.407 . S
C437 C438 1.360 . S
C437 H498 0.929 . S
C438 C437 1.360 . S
C438 C439 1.401 . S
C438 C442 1.527 . S
C439 C438 1.401 . S
C439 C440 1.405 . S
C439 C472 1.587 . S
C440 C439 1.405 . S
C440 C441 1.332 . S
C440 C443 1.496 . S
C441 C436 1.418 . S
C441 C440 1.332 . S
C441 H499 0.929 . S
C442 C438 1.527 . S
C442 H500 0.959 . S
C442 H501 0.961 . S
C442 H502 0.961 . S
C443 C440 1.496 . S
C443 H503 0.960 . S
C443 H504 0.960 . S
C443 H505 0.961 . S
C444 C445 1.517 . S
C444 H507 0.961 . S
C444 H508 0.960 . S
C444 H509 0.959 . S
C445 C444 1.517 . S
C445 O493 1.468 . S
C445 H506 0.980 . S
C446 C447 1.349 . S
C446 C451 1.367 . S
C446 O493 1.408 . S
C447 C446 1.349 . S
C447 C448 1.407 . S
C447 H510 0.930 . S
C448 C447 1.407 . S
C448 C449 1.449 . S
C448 C452 1.535 . S
C449 C448 1.449 . S
C449 C450 1.384 . S
C449 C474 1.553 . S
C450 C449 1.384 . S
C450 C451 1.364 . S
C450 C453 1.450 . S
C451 C446 1.367 . S
C451 C450 1.364 . S
C451 H511 0.931 . S
C452 C448 1.535 . S
C452 H512 0.959 . S
C452 H513 0.961 . S
C452 H514 0.959 . S
C453 C450 1.450 . S
C453 H515 0.960 . S
C453 H516 0.960 . S
C453 H517 0.960 . S
C454 C455 1.309 . S
C454 C459 1.304 . S
C454 O492 1.435 . S
C455 C454 1.309 . S
C455 C456 1.476 . S
C455 H519 0.930 . S
C456 C455 1.476 . S
C456 C457 1.400 . S
C456 C460 1.567 . S
C457 C456 1.400 . S
C457 C458 1.373 . S
C457 C479 1.432 . S
C458 C457 1.373 . S
C458 C459 1.339 . S
C458 C461 1.530 . S
C459 C454 1.304 . S
C459 C458 1.339 . S
C459 H520 0.930 . S
C460 C456 1.567 . S
C460 H521 0.961 . S
C460 H522 0.960 . S
C460 H523 0.958 . S
C461 C458 1.530 . S
C461 H524 0.961 . S
C461 H525 0.960 . S
C461 H526 0.960 . S
C462 C463 1.530 . S
C462 H528 0.961 . S
C462 H529 0.961 . S
C462 H530 0.959 . S
C463 C462 1.530 . S
C463 O491 1.412 . S
C463 H527 0.980 . S
C464 C465 1.288 . S
C464 C469 1.377 . S
C464 O491 1.393 . S
C465 C464 1.288 . S
C465 C466 1.369 . S
C465 H531 0.932 . S
C466 C465 1.369 . S
C466 C467 1.398 . S
C466 C470 1.527 . S
C467 C466 1.398 . S
C467 C468 1.380 . S
C467 C481 1.497 . S
C468 C467 1.380 . S
C468 C469 1.383 . S
C468 C471 1.603 . S
C469 C464 1.377 . S
C469 C468 1.383 . S
C469 H532 0.929 . S
C470 C466 1.527 . S
C470 H533 0.961 . S
C470 H534 0.959 . S
C470 H535 0.959 . S
C471 C468 1.603 . S
C471 H536 0.960 . S
C471 H537 0.962 . S
C471 H538 0.961 . S
C472 C439 1.587 . S
C472 C473 1.360 . S
C472 C485 1.412 . S
C473 C472 1.360 . S
C473 C474 1.365 1_455 S
C473 H539 0.929 . S
C474 C449 1.553 . S
C474 C473 1.365 1_655 S
C474 C475 1.404 . S
C475 C474 1.404 . S
C475 C476 1.395 . S
C475 C486 1.451 1_655 S
C476 C475 1.395 . S
C476 C477 1.322 . S
C476 H540 0.930 . S
C477 C476 1.322 . S
C477 C478 1.459 . S
C477 H541 0.929 . S
C478 C477 1.459 . S
C478 C479 1.445 . S
C478 C487 1.395 1_655 S
C479 C457 1.432 . S
C479 C478 1.445 . S
C479 C480 1.370 1_655 S
C480 C479 1.370 1_455 S
C480 C481 1.438 . S
C480 H542 0.930 . S
C481 C467 1.497 . S
C481 C480 1.438 . S
C481 C482 1.360 . S
C482 C481 1.360 . S
C482 C483 1.401 . S
C482 C487 1.446 . S
C483 C482 1.401 . S
C483 C484 1.347 . S
C483 H543 0.929 . S
C484 C483 1.347 . S
C484 C485 1.455 . S
C484 H544 0.930 . S
C485 C472 1.412 . S
C485 C484 1.455 . S
C485 C486 1.331 . S
C486 C475 1.451 1_455 S
C486 C485 1.331 . S
C486 C487 1.497 . S
C487 C478 1.395 1_455 S
C487 C482 1.446 . S
C487 C486 1.497 . S
C488 C489 1.582 . S
C488 H545 0.962 . S
C488 H546 0.959 . S
C488 H547 0.958 . S
C489 C488 1.582 . S
C489 O492 1.458 . S
C489 H518 0.980 . S
O490 C435 1.426 . S
O490 C436 1.334 . S
O491 C463 1.412 . S
O491 C464 1.393 . S
O492 C454 1.435 . S
O492 C489 1.458 . S
O493 C445 1.468 . S
O493 C446 1.408 . S
H494 C435 0.980 . S
H495 C434 0.959 . S
H496 C434 0.959 . S
H497 C434 0.960 . S
H498 C437 0.929 . S
H499 C441 0.929 . S
H500 C442 0.959 . S
H501 C442 0.961 . S
H502 C442 0.961 . S
H503 C443 0.960 . S
H504 C443 0.960 . S
H505 C443 0.961 . S
H506 C445 0.980 . S
H507 C444 0.961 . S
H508 C444 0.960 . S
H509 C444 0.959 . S
H510 C447 0.930 . S
H511 C451 0.931 . S
H512 C452 0.959 . S
H513 C452 0.961 . S
H514 C452 0.959 . S
H515 C453 0.960 . S
H516 C453 0.960 . S
H517 C453 0.960 . S
H518 C489 0.980 . S
H519 C455 0.930 . S
H520 C459 0.930 . S
H521 C460 0.961 . S
H522 C460 0.960 . S
H523 C460 0.958 . S
H524 C461 0.961 . S
H525 C461 0.960 . S
H526 C461 0.960 . S
H527 C463 0.980 . S
H528 C462 0.961 . S
H529 C462 0.961 . S
H530 C462 0.959 . S
H531 C465 0.932 . S
H532 C469 0.929 . S
H533 C470 0.961 . S
H534 C470 0.959 . S
H535 C470 0.959 . S
H536 C471 0.960 . S
H537 C471 0.962 . S
H538 C471 0.961 . S
H539 C473 0.929 . S
H540 C476 0.930 . S
H541 C477 0.929 . S
H542 C480 0.930 . S
H543 C483 0.929 . S
H544 C484 0.930 . S
H545 C488 0.962 . S
H546 C488 0.959 . S
H547 C488 0.958 . S
C548 C549 1.560 . S
C548 H609 0.959 . S
C548 H610 0.959 . S
C548 H611 0.960 . S
C549 C548 1.560 . S
C549 O604 1.426 . S
C549 H608 0.980 . S
C550 C551 1.407 . S
C550 C555 1.418 . S
C550 O604 1.334 . S
C551 C550 1.407 . S
C551 C552 1.360 . S
C551 H612 0.929 . S
C552 C551 1.360 . S
C552 C553 1.401 . S
C552 C556 1.527 . S
C553 C552 1.401 . S
C553 C554 1.405 . S
C553 C586 1.587 . S
C554 C553 1.405 . S
C554 C555 1.332 . S
C554 C557 1.496 . S
C555 C550 1.418 . S
C555 C554 1.332 . S
C555 H613 0.929 . S
C556 C552 1.527 . S
C556 H614 0.959 . S
C556 H615 0.961 . S
C556 H616 0.961 . S
C557 C554 1.496 . S
C557 H617 0.960 . S
C557 H618 0.960 . S
C557 H619 0.961 . S
C558 C559 1.517 . S
C558 H621 0.961 . S
C558 H622 0.960 . S
C558 H623 0.959 . S
C559 C558 1.517 . S
C559 O607 1.468 . S
C559 H620 0.980 . S
C560 C561 1.349 . S
C560 C565 1.367 . S
C560 O607 1.408 . S
C561 C560 1.349 . S
C561 C562 1.407 . S
C561 H624 0.930 . S
C562 C561 1.407 . S
C562 C563 1.449 . S
C562 C566 1.535 . S
C563 C562 1.449 . S
C563 C564 1.384 . S
C563 C588 1.553 . S
C564 C563 1.384 . S
C564 C565 1.364 . S
C564 C567 1.450 . S
C565 C560 1.367 . S
C565 C564 1.364 . S
C565 H625 0.931 . S
C566 C562 1.535 . S
C566 H626 0.959 . S
C566 H627 0.961 . S
C566 H628 0.959 . S
C567 C564 1.450 . S
C567 H629 0.960 . S
C567 H630 0.960 . S
C567 H631 0.960 . S
C568 C569 1.309 . S
C568 C573 1.304 . S
C568 O606 1.435 . S
C569 C568 1.309 . S
C569 C570 1.476 . S
C569 H633 0.930 . S
C570 C569 1.476 . S
C570 C571 1.400 . S
C570 C574 1.567 . S
C571 C570 1.400 . S
C571 C572 1.373 . S
C571 C593 1.432 . S
C572 C571 1.373 . S
C572 C573 1.339 . S
C572 C575 1.530 . S
C573 C568 1.304 . S
C573 C572 1.339 . S
C573 H634 0.930 . S
C574 C570 1.567 . S
C574 H635 0.961 . S
C574 H636 0.960 . S
C574 H637 0.958 . S
C575 C572 1.530 . S
C575 H638 0.961 . S
C575 H639 0.960 . S
C575 H640 0.960 . S
C576 C577 1.530 . S
C576 H642 0.961 . S
C576 H643 0.961 . S
C576 H644 0.959 . S
C577 C576 1.530 . S
C577 O605 1.412 . S
C577 H641 0.980 . S
C578 C579 1.288 . S
C578 C583 1.377 . S
C578 O605 1.393 . S
C579 C578 1.288 . S
C579 C580 1.369 . S
C579 H645 0.932 . S
C580 C579 1.369 . S
C580 C581 1.398 . S
C580 C584 1.527 . S
C581 C580 1.398 . S
C581 C582 1.380 . S
C581 C595 1.497 . S
C582 C581 1.380 . S
C582 C583 1.383 . S
C582 C585 1.603 . S
C583 C578 1.377 . S
C583 C582 1.383 . S
C583 H646 0.929 . S
C584 C580 1.527 . S
C584 H647 0.961 . S
C584 H648 0.959 . S
C584 H649 0.959 . S
C585 C582 1.603 . S
C585 H650 0.960 . S
C585 H651 0.962 . S
C585 H652 0.961 . S
C586 C553 1.587 . S
C586 C587 1.360 . S
C586 C599 1.412 . S
C587 C586 1.360 . S
C587 C588 1.365 1_545 S
C587 H653 0.929 . S
C588 C563 1.553 . S
C588 C587 1.365 1_565 S
C588 C589 1.404 . S
C589 C588 1.404 . S
C589 C590 1.395 . S
C589 C600 1.451 1_565 S
C590 C589 1.395 . S
C590 C591 1.322 . S
C590 H654 0.930 . S
C591 C590 1.322 . S
C591 C592 1.459 . S
C591 H655 0.929 . S
C592 C591 1.459 . S
C592 C593 1.445 . S
C592 C601 1.395 1_565 S
C593 C571 1.432 . S
C593 C592 1.445 . S
C593 C594 1.370 1_565 S
C594 C593 1.370 1_545 S
C594 C595 1.438 . S
C594 H656 0.930 . S
C595 C581 1.497 . S
C595 C594 1.438 . S
C595 C596 1.360 . S
C596 C595 1.360 . S
C596 C597 1.401 . S
C596 C601 1.446 . S
C597 C596 1.401 . S
C597 C598 1.347 . S
C597 H657 0.929 . S
C598 C597 1.347 . S
C598 C599 1.455 . S
C598 H658 0.930 . S
C599 C586 1.412 . S
C599 C598 1.455 . S
C599 C600 1.331 . S
C600 C589 1.451 1_545 S
C600 C599 1.331 . S
C600 C601 1.497 . S
C601 C592 1.395 1_545 S
C601 C596 1.446 . S
C601 C600 1.497 . S
C602 C603 1.582 . S
C602 H659 0.962 . S
C602 H660 0.959 . S
C602 H661 0.958 . S
C603 C602 1.582 . S
C603 O606 1.458 . S
C603 H632 0.980 . S
O604 C549 1.426 . S
O604 C550 1.334 . S
O605 C577 1.412 . S
O605 C578 1.393 . S
O606 C568 1.435 . S
O606 C603 1.458 . S
O607 C559 1.468 . S
O607 C560 1.408 . S
H608 C549 0.980 . S
H609 C548 0.959 . S
H610 C548 0.959 . S
H611 C548 0.960 . S
H612 C551 0.929 . S
H613 C555 0.929 . S
H614 C556 0.959 . S
H615 C556 0.961 . S
H616 C556 0.961 . S
H617 C557 0.960 . S
H618 C557 0.960 . S
H619 C557 0.961 . S
H620 C559 0.980 . S
H621 C558 0.961 . S
H622 C558 0.960 . S
H623 C558 0.959 . S
H624 C561 0.930 . S
H625 C565 0.931 . S
H626 C566 0.959 . S
H627 C566 0.961 . S
H628 C566 0.959 . S
H629 C567 0.960 . S
H630 C567 0.960 . S
H631 C567 0.960 . S
H632 C603 0.980 . S
H633 C569 0.930 . S
H634 C573 0.930 . S
H635 C574 0.961 . S
H636 C574 0.960 . S
H637 C574 0.958 . S
H638 C575 0.961 . S
H639 C575 0.960 . S
H640 C575 0.960 . S
H641 C577 0.980 . S
H642 C576 0.961 . S
H643 C576 0.961 . S
H644 C576 0.959 . S
H645 C579 0.932 . S
H646 C583 0.929 . S
H647 C584 0.961 . S
H648 C584 0.959 . S
H649 C584 0.959 . S
H650 C585 0.960 . S
H651 C585 0.962 . S
H652 C585 0.961 . S
H653 C587 0.929 . S
H654 C590 0.930 . S
H655 C591 0.929 . S
H656 C594 0.930 . S
H657 C597 0.929 . S
H658 C598 0.930 . S
H659 C602 0.962 . S
H660 C602 0.959 . S
H661 C602 0.958 . S
C662 C663 1.560 . S
C662 H723 0.959 . S
C662 H724 0.959 . S
C662 H725 0.960 . S
C663 C662 1.560 . S
C663 O718 1.426 . S
C663 H722 0.980 . S
C664 C665 1.407 . S
C664 C669 1.418 . S
C664 O718 1.334 . S
C665 C664 1.407 . S
C665 C666 1.360 . S
C665 H726 0.929 . S
C666 C665 1.360 . S
C666 C667 1.401 . S
C666 C670 1.527 . S
C667 C666 1.401 . S
C667 C668 1.405 . S
C667 C700 1.587 . S
C668 C667 1.405 . S
C668 C669 1.332 . S
C668 C671 1.496 . S
C669 C664 1.418 . S
C669 C668 1.332 . S
C669 H727 0.929 . S
C670 C666 1.527 . S
C670 H728 0.959 . S
C670 H729 0.961 . S
C670 H730 0.961 . S
C671 C668 1.496 . S
C671 H731 0.960 . S
C671 H732 0.960 . S
C671 H733 0.961 . S
C672 C673 1.517 . S
C672 H735 0.961 . S
C672 H736 0.960 . S
C672 H737 0.959 . S
C673 C672 1.517 . S
C673 O721 1.468 . S
C673 H734 0.980 . S
C674 C675 1.349 . S
C674 C679 1.367 . S
C674 O721 1.408 . S
C675 C674 1.349 . S
C675 C676 1.407 . S
C675 H738 0.930 . S
C676 C675 1.407 . S
C676 C677 1.449 . S
C676 C680 1.535 . S
C677 C676 1.449 . S
C677 C678 1.384 . S
C677 C702 1.553 . S
C678 C677 1.384 . S
C678 C679 1.364 . S
C678 C681 1.450 . S
C679 C674 1.367 . S
C679 C678 1.364 . S
C679 H739 0.931 . S
C680 C676 1.535 . S
C680 H740 0.959 . S
C680 H741 0.961 . S
C680 H742 0.959 . S
C681 C678 1.450 . S
C681 H743 0.960 . S
C681 H744 0.960 . S
C681 H745 0.960 . S
C682 C683 1.309 . S
C682 C687 1.304 . S
C682 O720 1.435 . S
C683 C682 1.309 . S
C683 C684 1.476 . S
C683 H747 0.930 . S
C684 C683 1.476 . S
C684 C685 1.400 . S
C684 C688 1.567 . S
C685 C684 1.400 . S
C685 C686 1.373 . S
C685 C707 1.432 . S
C686 C685 1.373 . S
C686 C687 1.339 . S
C686 C689 1.530 . S
C687 C682 1.304 . S
C687 C686 1.339 . S
C687 H748 0.930 . S
C688 C684 1.567 . S
C688 H749 0.961 . S
C688 H750 0.960 . S
C688 H751 0.958 . S
C689 C686 1.530 . S
C689 H752 0.961 . S
C689 H753 0.960 . S
C689 H754 0.960 . S
C690 C691 1.530 . S
C690 H756 0.961 . S
C690 H757 0.961 . S
C690 H758 0.959 . S
C691 C690 1.530 . S
C691 O719 1.412 . S
C691 H755 0.980 . S
C692 C693 1.288 . S
C692 C697 1.377 . S
C692 O719 1.393 . S
C693 C692 1.288 . S
C693 C694 1.369 . S
C693 H759 0.932 . S
C694 C693 1.369 . S
C694 C695 1.398 . S
C694 C698 1.527 . S
C695 C694 1.398 . S
C695 C696 1.380 . S
C695 C709 1.497 . S
C696 C695 1.380 . S
C696 C697 1.383 . S
C696 C699 1.603 . S
C697 C692 1.377 . S
C697 C696 1.383 . S
C697 H760 0.929 . S
C698 C694 1.527 . S
C698 H761 0.961 . S
C698 H762 0.959 . S
C698 H763 0.959 . S
C699 C696 1.603 . S
C699 H764 0.960 . S
C699 H765 0.962 . S
C699 H766 0.961 . S
C700 C667 1.587 . S
C700 C701 1.360 . S
C700 C713 1.412 . S
C701 C700 1.360 . S
C701 C702 1.365 . S
C701 H767 0.929 . S
C702 C677 1.553 . S
C702 C701 1.365 . S
C702 C703 1.404 . S
C703 C702 1.404 . S
C703 C704 1.395 . S
C703 C714 1.451 . S
C704 C703 1.395 . S
C704 C705 1.317 . S
C704 H768 0.930 . S
C705 C704 1.317 . S
C705 C706 1.461 1_554 S
C705 H769 0.931 1_554 S
C706 C705 1.461 1_556 S
C706 C707 1.445 . S
C706 C715 1.395 . S
C707 C685 1.432 . S
C707 C706 1.445 . S
C707 C708 1.370 . S
C708 C707 1.370 . S
C708 C709 1.438 . S
C708 H770 0.930 . S
C709 C695 1.497 . S
C709 C708 1.438 . S
C709 C710 1.360 . S
C710 C709 1.360 . S
C710 C711 1.401 . S
C710 C715 1.446 . S
C711 C710 1.401 . S
C711 C712 1.347 1_556 S
C711 H771 0.929 . S
C712 C711 1.347 1_554 S
C712 C713 1.455 . S
C712 H772 0.930 . S
C713 C700 1.412 . S
C713 C712 1.455 . S
C713 C714 1.331 . S
C714 C703 1.451 . S
C714 C713 1.331 . S
C714 C715 1.497 1_554 S
C715 C706 1.395 . S
C715 C710 1.446 . S
C715 C714 1.497 1_556 S
C716 C717 1.582 . S
C716 H773 0.962 . S
C716 H774 0.959 . S
C716 H775 0.958 . S
C717 C716 1.582 . S
C717 O720 1.458 . S
C717 H746 0.980 . S
O718 C663 1.426 . S
O718 C664 1.334 . S
O719 C691 1.412 . S
O719 C692 1.393 . S
O720 C682 1.435 . S
O720 C717 1.458 . S
O721 C673 1.468 . S
O721 C674 1.408 . S
H722 C663 0.980 . S
H723 C662 0.959 . S
H724 C662 0.959 . S
H725 C662 0.960 . S
H726 C665 0.929 . S
H727 C669 0.929 . S
H728 C670 0.959 . S
H729 C670 0.961 . S
H730 C670 0.961 . S
H731 C671 0.960 . S
H732 C671 0.960 . S
H733 C671 0.961 . S
H734 C673 0.980 . S
H735 C672 0.961 . S
H736 C672 0.960 . S
H737 C672 0.959 . S
H738 C675 0.930 . S
H739 C679 0.931 . S
H740 C680 0.959 . S
H741 C680 0.961 . S
H742 C680 0.959 . S
H743 C681 0.960 . S
H744 C681 0.960 . S
H745 C681 0.960 . S
H746 C717 0.980 . S
H747 C683 0.930 . S
H748 C687 0.930 . S
H749 C688 0.961 . S
H750 C688 0.960 . S
H751 C688 0.958 . S
H752 C689 0.961 . S
H753 C689 0.960 . S
H754 C689 0.960 . S
H755 C691 0.980 . S
H756 C690 0.961 . S
H757 C690 0.961 . S
H758 C690 0.959 . S
H759 C693 0.932 . S
H760 C697 0.929 . S
H761 C698 0.961 . S
H762 C698 0.959 . S
H763 C698 0.959 . S
H764 C699 0.960 . S
H765 C699 0.962 . S
H766 C699 0.961 . S
H767 C701 0.929 . S
H768 C704 0.930 . S
H769 C705 0.931 1_556 S
H770 C708 0.930 . S
H771 C711 0.929 . S
H772 C712 0.930 . S
H773 C716 0.962 . S
H774 C716 0.959 . S
H775 C716 0.958 . S
C776 C777 1.560 . S
C776 H837 0.959 . S
C776 H838 0.959 . S
C776 H839 0.960 . S
C777 C776 1.560 . S
C777 O832 1.426 . S
C777 H836 0.980 . S
C778 C779 1.407 . S
C778 C783 1.418 . S
C778 O832 1.334 . S
C779 C778 1.407 . S
C779 C780 1.360 . S
C779 H840 0.929 . S
C780 C779 1.360 . S
C780 C781 1.401 . S
C780 C784 1.527 . S
C781 C780 1.401 . S
C781 C782 1.405 . S
C781 C814 1.587 . S
C782 C781 1.405 . S
C782 C783 1.332 . S
C782 C785 1.496 . S
C783 C778 1.418 . S
C783 C782 1.332 . S
C783 H841 0.929 . S
C784 C780 1.527 . S
C784 H842 0.959 . S
C784 H843 0.961 . S
C784 H844 0.961 . S
C785 C782 1.496 . S
C785 H845 0.960 . S
C785 H846 0.960 . S
C785 H847 0.961 . S
C786 C787 1.517 . S
C786 H849 0.961 . S
C786 H850 0.960 . S
C786 H851 0.959 . S
C787 C786 1.517 . S
C787 O835 1.468 . S
C787 H848 0.980 . S
C788 C789 1.349 . S
C788 C793 1.367 . S
C788 O835 1.408 . S
C789 C788 1.349 . S
C789 C790 1.407 . S
C789 H852 0.930 . S
C790 C789 1.407 . S
C790 C791 1.449 . S
C790 C794 1.535 . S
C791 C790 1.449 . S
C791 C792 1.384 . S
C791 C816 1.553 . S
C792 C791 1.384 . S
C792 C793 1.364 . S
C792 C795 1.450 . S
C793 C788 1.367 . S
C793 C792 1.364 . S
C793 H853 0.931 . S
C794 C790 1.535 . S
C794 H854 0.959 . S
C794 H855 0.961 . S
C794 H856 0.959 . S
C795 C792 1.450 . S
C795 H857 0.960 . S
C795 H858 0.960 . S
C795 H859 0.960 . S
C796 C797 1.309 . S
C796 C801 1.304 . S
C796 O834 1.435 . S
C797 C796 1.309 . S
C797 C798 1.476 . S
C797 H861 0.930 . S
C798 C797 1.476 . S
C798 C799 1.400 . S
C798 C802 1.567 . S
C799 C798 1.400 . S
C799 C800 1.373 . S
C799 C821 1.432 . S
C800 C799 1.373 . S
C800 C801 1.339 . S
C800 C803 1.530 . S
C801 C796 1.304 . S
C801 C800 1.339 . S
C801 H862 0.930 . S
C802 C798 1.567 . S
C802 H863 0.961 . S
C802 H864 0.960 . S
C802 H865 0.958 . S
C803 C800 1.530 . S
C803 H866 0.961 . S
C803 H867 0.960 . S
C803 H868 0.960 . S
C804 C805 1.530 . S
C804 H870 0.961 . S
C804 H871 0.961 . S
C804 H872 0.959 . S
C805 C804 1.530 . S
C805 O833 1.412 . S
C805 H869 0.980 . S
C806 C807 1.288 . S
C806 C811 1.377 . S
C806 O833 1.393 . S
C807 C806 1.288 . S
C807 C808 1.369 . S
C807 H873 0.932 . S
C808 C807 1.369 . S
C808 C809 1.398 . S
C808 C812 1.527 . S
C809 C808 1.398 . S
C809 C810 1.380 . S
C809 C823 1.497 . S
C810 C809 1.380 . S
C810 C811 1.383 . S
C810 C813 1.603 . S
C811 C806 1.377 . S
C811 C810 1.383 . S
C811 H874 0.929 . S
C812 C808 1.527 . S
C812 H875 0.961 . S
C812 H876 0.959 . S
C812 H877 0.959 . S
C813 C810 1.603 . S
C813 H878 0.960 . S
C813 H879 0.962 . S
C813 H880 0.961 . S
C814 C781 1.587 . S
C814 C815 1.360 . S
C814 C827 1.412 . S
C815 C814 1.360 . S
C815 C816 1.365 1_545 S
C815 H881 0.929 . S
C816 C791 1.553 . S
C816 C815 1.365 1_565 S
C816 C817 1.404 . S
C817 C816 1.404 . S
C817 C818 1.395 . S
C817 C828 1.451 1_565 S
C818 C817 1.395 . S
C818 C819 1.322 . S
C818 H882 0.930 . S
C819 C818 1.322 . S
C819 C820 1.459 . S
C819 H883 0.929 . S
C820 C819 1.459 . S
C820 C821 1.445 . S
C820 C829 1.395 1_565 S
C821 C799 1.432 . S
C821 C820 1.445 . S
C821 C822 1.370 1_565 S
C822 C821 1.370 1_545 S
C822 C823 1.438 . S
C822 H884 0.930 . S
C823 C809 1.497 . S
C823 C822 1.438 . S
C823 C824 1.360 . S
C824 C823 1.360 . S
C824 C825 1.401 . S
C824 C829 1.446 . S
C825 C824 1.401 . S
C825 C826 1.347 . S
C825 H885 0.929 . S
C826 C825 1.347 . S
C826 C827 1.455 . S
C826 H886 0.930 . S
C827 C814 1.412 . S
C827 C826 1.455 . S
C827 C828 1.331 . S
C828 C817 1.451 1_545 S
C828 C827 1.331 . S
C828 C829 1.497 . S
C829 C820 1.395 1_545 S
C829 C824 1.446 . S
C829 C828 1.497 . S
C830 C831 1.582 . S
C830 H887 0.962 . S
C830 H888 0.959 . S
C830 H889 0.958 . S
C831 C830 1.582 . S
C831 O834 1.458 . S
C831 H860 0.980 . S
O832 C777 1.426 . S
O832 C778 1.334 . S
O833 C805 1.412 . S
O833 C806 1.393 . S
O834 C796 1.435 . S
O834 C831 1.458 . S
O835 C787 1.468 . S
O835 C788 1.408 . S
H836 C777 0.980 . S
H837 C776 0.959 . S
H838 C776 0.959 . S
H839 C776 0.960 . S
H840 C779 0.929 . S
H841 C783 0.929 . S
H842 C784 0.959 . S
H843 C784 0.961 . S
H844 C784 0.961 . S
H845 C785 0.960 . S
H846 C785 0.960 . S
H847 C785 0.961 . S
H848 C787 0.980 . S
H849 C786 0.961 . S
H850 C786 0.960 . S
H851 C786 0.959 . S
H852 C789 0.930 . S
H853 C793 0.931 . S
H854 C794 0.959 . S
H855 C794 0.961 . S
H856 C794 0.959 . S
H857 C795 0.960 . S
H858 C795 0.960 . S
H859 C795 0.960 . S
H860 C831 0.980 . S
H861 C797 0.930 . S
H862 C801 0.930 . S
H863 C802 0.961 . S
H864 C802 0.960 . S
H865 C802 0.958 . S
H866 C803 0.961 . S
H867 C803 0.960 . S
H868 C803 0.960 . S
H869 C805 0.980 . S
H870 C804 0.961 . S
H871 C804 0.961 . S
H872 C804 0.959 . S
H873 C807 0.932 . S
H874 C811 0.929 . S
H875 C812 0.961 . S
H876 C812 0.959 . S
H877 C812 0.959 . S
H878 C813 0.960 . S
H879 C813 0.962 . S
H880 C813 0.961 . S
H881 C815 0.929 . S
H882 C818 0.930 . S
H883 C819 0.929 . S
H884 C822 0.930 . S
H885 C825 0.929 . S
H886 C826 0.930 . S
H887 C830 0.962 . S
H888 C830 0.959 . S
H889 C830 0.958 . S
C890 C891 1.560 . S
C890 H951 0.959 . S
C890 H952 0.959 . S
C890 H953 0.960 . S
C891 C890 1.560 . S
C891 O946 1.426 . S
C891 H950 0.980 . S
C892 C893 1.407 . S
C892 C897 1.418 . S
C892 O946 1.334 . S
C893 C892 1.407 . S
C893 C894 1.360 . S
C893 H954 0.929 . S
C894 C893 1.360 . S
C894 C895 1.401 . S
C894 C898 1.527 . S
C895 C894 1.401 . S
C895 C896 1.405 . S
C895 C928 1.587 . S
C896 C895 1.405 . S
C896 C897 1.332 . S
C896 C899 1.496 . S
C897 C892 1.418 . S
C897 C896 1.332 . S
C897 H955 0.929 . S
C898 C894 1.527 . S
C898 H956 0.959 . S
C898 H957 0.961 . S
C898 H958 0.961 . S
C899 C896 1.496 . S
C899 H959 0.960 . S
C899 H960 0.960 . S
C899 H961 0.961 . S
C900 C901 1.517 . S
C900 H963 0.961 . S
C900 H964 0.960 . S
C900 H965 0.959 . S
C901 C900 1.517 . S
C901 O949 1.468 . S
C901 H962 0.980 . S
C902 C903 1.349 . S
C902 C907 1.367 . S
C902 O949 1.408 . S
C903 C902 1.349 . S
C903 C904 1.407 . S
C903 H966 0.930 . S
C904 C903 1.407 . S
C904 C905 1.449 . S
C904 C908 1.535 . S
C905 C904 1.449 . S
C905 C906 1.384 . S
C905 C930 1.553 . S
C906 C905 1.384 . S
C906 C907 1.364 . S
C906 C909 1.450 . S
C907 C902 1.367 . S
C907 C906 1.364 . S
C907 H967 0.931 . S
C908 C904 1.535 . S
C908 H968 0.959 . S
C908 H969 0.961 . S
C908 H970 0.959 . S
C909 C906 1.450 . S
C909 H971 0.960 . S
C909 H972 0.960 . S
C909 H973 0.960 . S
C910 C911 1.309 . S
C910 C915 1.304 . S
C910 O948 1.435 . S
C911 C910 1.309 . S
C911 C912 1.476 . S
C911 H975 0.930 . S
C912 C911 1.476 . S
C912 C913 1.400 . S
C912 C916 1.567 . S
C913 C912 1.400 . S
C913 C914 1.373 . S
C913 C935 1.432 . S
C914 C913 1.373 . S
C914 C915 1.339 . S
C914 C917 1.530 . S
C915 C910 1.304 . S
C915 C914 1.339 . S
C915 H976 0.930 . S
C916 C912 1.567 . S
C916 H977 0.961 . S
C916 H978 0.960 . S
C916 H979 0.958 . S
C917 C914 1.530 . S
C917 H980 0.961 . S
C917 H981 0.960 . S
C917 H982 0.960 . S
C918 C919 1.530 . S
C918 H984 0.961 . S
C918 H985 0.961 . S
C918 H986 0.959 . S
C919 C918 1.530 . S
C919 O947 1.412 . S
C919 H983 0.980 . S
C920 C921 1.288 . S
C920 C925 1.377 . S
C920 O947 1.393 . S
C921 C920 1.288 . S
C921 C922 1.369 . S
C921 H987 0.932 . S
C922 C921 1.369 . S
C922 C923 1.398 . S
C922 C926 1.527 . S
C923 C922 1.398 . S
C923 C924 1.380 . S
C923 C937 1.497 . S
C924 C923 1.380 . S
C924 C925 1.383 . S
C924 C927 1.603 . S
C925 C920 1.377 . S
C925 C924 1.383 . S
C925 H988 0.929 . S
C926 C922 1.527 . S
C926 H989 0.961 . S
C926 H990 0.959 . S
C926 H991 0.959 . S
C927 C924 1.603 . S
C927 H992 0.960 . S
C927 H993 0.962 . S
C927 H994 0.961 . S
C928 C895 1.587 . S
C928 C929 1.360 . S
C928 C941 1.412 . S
C929 C928 1.360 . S
C929 C930 1.365 . S
C929 H995 0.929 . S
C930 C905 1.553 . S
C930 C929 1.365 . S
C930 C931 1.404 . S
C931 C930 1.404 . S
C931 C932 1.395 . S
C931 C942 1.451 . S
C932 C931 1.395 . S
C932 C933 1.322 1_554 S
C932 H996 0.930 . S
C933 C932 1.322 1_556 S
C933 C934 1.459 . S
C933 H997 0.929 . S
C934 C933 1.459 . S
C934 C935 1.445 . S
C934 C943 1.395 . S
C935 C913 1.432 . S
C935 C934 1.445 . S
C935 C936 1.370 . S
C936 C935 1.370 . S
C936 C937 1.438 . S
C936 H998 0.930 . S
C937 C923 1.497 . S
C937 C936 1.438 . S
C937 C938 1.360 . S
C938 C937 1.360 . S
C938 C939 1.403 1_556 S
C938 C943 1.446 . S
C939 C938 1.403 1_554 S
C939 C940 1.343 . S
C939 H999 0.931 1_554 S
C940 C939 1.343 . S
C940 C941 1.455 . S
C940 H1000 0.930 . S
C941 C928 1.412 . S
C941 C940 1.455 . S
C941 C942 1.331 . S
C942 C931 1.451 . S
C942 C941 1.331 . S
C942 C943 1.497 1_554 S
C943 C934 1.395 . S
C943 C938 1.446 . S
C943 C942 1.497 1_556 S
C944 C945 1.582 . S
C944 H1001 0.962 . S
C944 H1002 0.959 . S
C944 H1003 0.958 . S
C945 C944 1.582 . S
C945 O948 1.458 . S
C945 H974 0.980 . S
O946 C891 1.426 . S
O946 C892 1.334 . S
O947 C919 1.412 . S
O947 C920 1.393 . S
O948 C910 1.435 . S
O948 C945 1.458 . S
O949 C901 1.468 . S
O949 C902 1.408 . S
H950 C891 0.980 . S
H951 C890 0.959 . S
H952 C890 0.959 . S
H953 C890 0.960 . S
H954 C893 0.929 . S
H955 C897 0.929 . S
H956 C898 0.959 . S
H957 C898 0.961 . S
H958 C898 0.961 . S
H959 C899 0.960 . S
H960 C899 0.960 . S
H961 C899 0.961 . S
H962 C901 0.980 . S
H963 C900 0.961 . S
H964 C900 0.960 . S
H965 C900 0.959 . S
H966 C903 0.930 . S
H967 C907 0.931 . S
H968 C908 0.959 . S
H969 C908 0.961 . S
H970 C908 0.959 . S
H971 C909 0.960 . S
H972 C909 0.960 . S
H973 C909 0.960 . S
H974 C945 0.980 . S
H975 C911 0.930 . S
H976 C915 0.930 . S
H977 C916 0.961 . S
H978 C916 0.960 . S
H979 C916 0.958 . S
H980 C917 0.961 . S
H981 C917 0.960 . S
H982 C917 0.960 . S
H983 C919 0.980 . S
H984 C918 0.961 . S
H985 C918 0.961 . S
H986 C918 0.959 . S
H987 C921 0.932 . S
H988 C925 0.929 . S
H989 C926 0.961 . S
H990 C926 0.959 . S
H991 C926 0.959 . S
H992 C927 0.960 . S
H993 C927 0.962 . S
H994 C927 0.961 . S
H995 C929 0.929 . S
H996 C932 0.930 . S
H997 C933 0.929 . S
H998 C936 0.930 . S
H999 C939 0.931 1_556 S
H1000 C940 0.930 . S
H1001 C944 0.962 . S
H1002 C944 0.959 . S
H1003 C944 0.958 . S
H1004 C1010 0.930 . S
H1005 C1013 0.930 . S
H1006 C1014 0.930 . S
H1007 C1015 0.930 . S
H1008 C1018 0.930 . S
H1009 C1019 0.930 . S
C1010 H1004 0.930 . S
C1010 C1011 1.355 . S
C1010 C1012 1.415 . S
C1011 C1010 1.355 . S
C1011 C1013 1.419 . S
C1012 C1010 1.415 . S
C1012 C1017 1.425 . S
C1012 C1019 1.409 . S
C1013 H1005 0.930 . S
C1013 C1011 1.419 . S
C1013 C1014 1.362 . S
C1014 H1006 0.930 . S
C1014 C1013 1.362 . S
C1014 C1017 1.409 . S
C1015 H1007 0.930 . S
C1015 C1016 1.355 . S
C1015 C1017 1.415 . S
C1016 C1015 1.355 . S
C1016 C1018 1.419 . S
C1017 C1012 1.425 . S
C1017 C1014 1.409 . S
C1017 C1015 1.415 . S
C1018 H1008 0.930 . S
C1018 C1016 1.419 . S
C1018 C1019 1.362 . S
C1019 H1009 0.930 . S
C1019 C1012 1.409 . S
C1019 C1018 1.362 . S
H1020 C1026 0.930 . S
H1021 C1029 0.930 . S
H1022 C1030 0.930 . S
H1023 C1031 0.930 . S
H1024 C1034 0.930 . S
H1025 C1035 0.930 . S
C1026 H1020 0.930 . S
C1026 C1027 1.355 . S
C1026 C1028 1.415 . S
C1027 C1026 1.355 . S
C1027 C1029 1.419 . S
C1028 C1026 1.415 . S
C1028 C1033 1.425 . S
C1028 C1035 1.409 . S
C1029 H1021 0.930 . S
C1029 C1027 1.419 . S
C1029 C1030 1.362 . S
C1030 H1022 0.930 . S
C1030 C1029 1.362 . S
C1030 C1033 1.409 . S
C1031 H1023 0.930 . S
C1031 C1032 1.355 . S
C1031 C1033 1.415 . S
C1032 C1031 1.355 . S
C1032 C1034 1.419 . S
C1033 C1028 1.425 . S
C1033 C1030 1.409 . S
C1033 C1031 1.415 . S
C1034 H1024 0.930 . S
C1034 C1032 1.419 . S
C1034 C1035 1.362 . S
C1035 H1025 0.930 . S
C1035 C1028 1.409 . S
C1035 C1034 1.362 . S
H1036 C1042 0.930 . S
H1037 C1045 0.930 . S
H1038 C1046 0.930 . S
H1039 C1047 0.930 . S
H1040 C1050 0.930 . S
H1041 C1051 0.930 . S
C1042 H1036 0.930 . S
C1042 C1043 1.355 . S
C1042 C1044 1.415 . S
C1043 C1042 1.355 . S
C1043 C1045 1.419 . S
C1044 C1042 1.415 . S
C1044 C1049 1.425 . S
C1044 C1051 1.409 . S
C1045 H1037 0.930 . S
C1045 C1043 1.419 . S
C1045 C1046 1.362 . S
C1046 H1038 0.930 . S
C1046 C1045 1.362 . S
C1046 C1049 1.409 . S
C1047 H1039 0.930 . S
C1047 C1048 1.355 . S
C1047 C1049 1.415 . S
C1048 C1047 1.355 . S
C1048 C1050 1.419 . S
C1049 C1044 1.425 . S
C1049 C1046 1.409 . S
C1049 C1047 1.415 . S
C1050 H1040 0.930 . S
C1050 C1048 1.419 . S
C1050 C1051 1.362 . S
C1051 H1041 0.930 . S
C1051 C1044 1.409 . S
C1051 C1050 1.362 . S
H1052 C1058 0.930 . S
H1053 C1061 0.930 . S
H1054 C1062 0.930 . S
H1055 C1063 0.930 . S
H1056 C1066 0.930 . S
H1057 C1067 0.930 . S
C1058 H1052 0.930 . S
C1058 C1059 1.355 . S
C1058 C1060 1.415 . S
C1059 C1058 1.355 . S
C1059 C1061 1.419 . S
C1060 C1058 1.415 . S
C1060 C1065 1.425 . S
C1060 C1067 1.409 . S
C1061 H1053 0.930 . S
C1061 C1059 1.419 . S
C1061 C1062 1.362 . S
C1062 H1054 0.930 . S
C1062 C1061 1.362 . S
C1062 C1065 1.409 . S
C1063 H1055 0.930 . S
C1063 C1064 1.355 . S
C1063 C1065 1.415 . S
C1064 C1063 1.355 . S
C1064 C1066 1.419 . S
C1065 C1060 1.425 . S
C1065 C1062 1.409 . S
C1065 C1063 1.415 . S
C1066 H1056 0.930 . S
C1066 C1064 1.419 . S
C1066 C1067 1.362 . S
C1067 H1057 0.930 . S
C1067 C1060 1.409 . S
C1067 C1066 1.362 . S
H1068 C1074 0.930 . S
H1069 C1077 0.930 . S
H1070 C1078 0.930 . S
H1071 C1079 0.930 . S
H1072 C1082 0.930 . S
H1073 C1083 0.930 . S
C1074 H1068 0.930 . S
C1074 C1075 1.355 . S
C1074 C1076 1.415 . S
C1075 C1074 1.355 . S
C1075 C1077 1.419 . S
C1076 C1074 1.415 . S
C1076 C1081 1.425 . S
C1076 C1083 1.409 . S
C1077 H1069 0.930 . S
C1077 C1075 1.419 . S
C1077 C1078 1.362 . S
C1078 H1070 0.930 . S
C1078 C1077 1.362 . S
C1078 C1081 1.409 . S
C1079 H1071 0.930 . S
C1079 C1080 1.355 . S
C1079 C1081 1.415 . S
C1080 C1079 1.355 . S
C1080 C1082 1.419 . S
C1081 C1076 1.425 . S
C1081 C1078 1.409 . S
C1081 C1079 1.415 . S
C1082 H1072 0.930 . S
C1082 C1080 1.419 . S
C1082 C1083 1.362 . S
C1083 H1073 0.930 . S
C1083 C1076 1.409 . S
C1083 C1082 1.362 . S
H1084 C1090 0.930 . S
H1085 C1093 0.930 . S
H1086 C1094 0.930 . S
H1087 C1095 0.930 . S
H1088 C1098 0.930 . S
H1089 C1099 0.930 . S
C1090 H1084 0.930 . S
C1090 C1091 1.355 . S
C1090 C1092 1.415 . S
C1091 C1090 1.355 . S
C1091 C1093 1.419 . S
C1092 C1090 1.415 . S
C1092 C1097 1.425 . S
C1092 C1099 1.409 . S
C1093 H1085 0.930 . S
C1093 C1091 1.419 . S
C1093 C1094 1.362 . S
C1094 H1086 0.930 . S
C1094 C1093 1.362 . S
C1094 C1097 1.409 . S
C1095 H1087 0.930 . S
C1095 C1096 1.355 . S
C1095 C1097 1.415 . S
C1096 C1095 1.355 . S
C1096 C1098 1.419 . S
C1097 C1092 1.425 . S
C1097 C1094 1.409 . S
C1097 C1095 1.415 . S
C1098 H1088 0.930 . S
C1098 C1096 1.419 . S
C1098 C1099 1.362 . S
C1099 H1089 0.930 . S
C1099 C1092 1.409 . S
C1099 C1098 1.362 . S
H1100 C1106 0.930 . S
H1101 C1109 0.930 . S
H1102 C1110 0.930 . S
H1103 C1111 0.930 . S
H1104 C1114 0.930 . S
H1105 C1115 0.930 . S
C1106 H1100 0.930 . S
C1106 C1107 1.355 . S
C1106 C1108 1.415 . S
C1107 C1106 1.355 . S
C1107 C1109 1.419 . S
C1108 C1106 1.415 . S
C1108 C1113 1.425 . S
C1108 C1115 1.409 . S
C1109 H1101 0.930 . S
C1109 C1107 1.419 . S
C1109 C1110 1.362 . S
C1110 H1102 0.930 . S
C1110 C1109 1.362 . S
C1110 C1113 1.409 . S
C1111 H1103 0.930 . S
C1111 C1112 1.355 . S
C1111 C1113 1.415 . S
C1112 C1111 1.355 . S
C1112 C1114 1.419 . S
C1113 C1108 1.425 . S
C1113 C1110 1.409 . S
C1113 C1111 1.415 . S
C1114 H1104 0.930 . S
C1114 C1112 1.419 . S
C1114 C1115 1.362 . S
C1115 H1105 0.930 . S
C1115 C1108 1.409 . S
C1115 C1114 1.362 . S
H1116 C1122 0.930 . S
H1117 C1125 0.930 . S
H1118 C1126 0.930 . S
H1119 C1127 0.930 . S
H1120 C1130 0.930 . S
H1121 C1131 0.930 . S
C1122 H1116 0.930 . S
C1122 C1123 1.355 . S
C1122 C1124 1.415 . S
C1123 C1122 1.355 . S
C1123 C1125 1.419 . S
C1124 C1122 1.415 . S
C1124 C1129 1.425 . S
C1124 C1131 1.409 . S
C1125 H1117 0.930 . S
C1125 C1123 1.419 . S
C1125 C1126 1.362 . S
C1126 H1118 0.930 . S
C1126 C1125 1.362 . S
C1126 C1129 1.409 . S
C1127 H1119 0.930 . S
C1127 C1128 1.355 . S
C1127 C1129 1.415 . S
C1128 C1127 1.355 . S
C1128 C1130 1.419 . S
C1129 C1124 1.425 . S
C1129 C1126 1.409 . S
C1129 C1127 1.415 . S
C1130 H1120 0.930 . S
C1130 C1128 1.419 . S
C1130 C1131 1.362 . S
C1131 H1121 0.930 . S
C1131 C1124 1.409 . S
C1131 C1130 1.362 . S
H1132 C1138 0.930 . S
H1133 C1141 0.930 . S
H1134 C1142 0.930 . S
H1135 C1143 0.930 . S
H1136 C1146 0.930 . S
H1137 C1147 0.930 . S
C1138 H1132 0.930 . S
C1138 C1139 1.355 . S
C1138 C1140 1.415 . S
C1139 C1138 1.355 . S
C1139 C1141 1.419 . S
C1140 C1138 1.415 . S
C1140 C1145 1.425 . S
C1140 C1147 1.409 . S
C1141 H1133 0.930 . S
C1141 C1139 1.419 . S
C1141 C1142 1.362 . S
C1142 H1134 0.930 . S
C1142 C1141 1.362 . S
C1142 C1145 1.409 . S
C1143 H1135 0.930 . S
C1143 C1144 1.355 . S
C1143 C1145 1.415 . S
C1144 C1143 1.355 . S
C1144 C1146 1.419 . S
C1145 C1140 1.425 . S
C1145 C1142 1.409 . S
C1145 C1143 1.415 . S
C1146 H1136 0.930 . S
C1146 C1144 1.419 . S
C1146 C1147 1.362 . S
C1147 H1137 0.930 . S
C1147 C1140 1.409 . S
C1147 C1146 1.362 . S
H1148 C1154 0.930 . S
H1149 C1157 0.930 . S
H1150 C1158 0.930 . S
H1151 C1159 0.930 . S
H1152 C1162 0.930 . S
H1153 C1163 0.930 . S
C1154 H1148 0.930 . S
C1154 C1155 1.355 . S
C1154 C1156 1.415 . S
C1155 C1154 1.355 . S
C1155 C1157 1.419 . S
C1156 C1154 1.415 . S
C1156 C1161 1.425 . S
C1156 C1163 1.409 . S
C1157 H1149 0.930 . S
C1157 C1155 1.419 . S
C1157 C1158 1.362 . S
C1158 H1150 0.930 . S
C1158 C1157 1.362 . S
C1158 C1161 1.409 . S
C1159 H1151 0.930 . S
C1159 C1160 1.355 . S
C1159 C1161 1.415 . S
C1160 C1159 1.355 . S
C1160 C1162 1.419 . S
C1161 C1156 1.425 . S
C1161 C1158 1.409 . S
C1161 C1159 1.415 . S
C1162 H1152 0.930 . S
C1162 C1160 1.419 . S
C1162 C1163 1.362 . S
C1163 H1153 0.930 . S
C1163 C1156 1.409 . S
C1163 C1162 1.362 . S
H1164 C1170 0.930 . S
H1165 C1173 0.930 . S
H1166 C1174 0.930 . S
H1167 C1175 0.930 . S
H1168 C1178 0.930 . S
H1169 C1179 0.930 . S
C1170 H1164 0.930 . S
C1170 C1171 1.355 . S
C1170 C1172 1.415 . S
C1171 C1170 1.355 . S
C1171 C1173 1.419 . S
C1172 C1170 1.415 . S
C1172 C1177 1.425 . S
C1172 C1179 1.409 . S
C1173 H1165 0.930 . S
C1173 C1171 1.419 . S
C1173 C1174 1.362 . S
C1174 H1166 0.930 . S
C1174 C1173 1.362 . S
C1174 C1177 1.409 . S
C1175 H1167 0.930 . S
C1175 C1176 1.355 . S
C1175 C1177 1.415 . S
C1176 C1175 1.355 . S
C1176 C1178 1.419 . S
C1177 C1172 1.425 . S
C1177 C1174 1.409 . S
C1177 C1175 1.415 . S
C1178 H1168 0.930 . S
C1178 C1176 1.419 . S
C1178 C1179 1.362 . S
C1179 H1169 0.930 . S
C1179 C1172 1.409 . S
C1179 C1178 1.362 . S
H1180 C1186 0.930 . S
H1181 C1189 0.930 . S
H1182 C1190 0.930 . S
H1183 C1191 0.930 . S
H1184 C1194 0.930 . S
H1185 C1195 0.930 . S
C1186 H1180 0.930 . S
C1186 C1187 1.355 . S
C1186 C1188 1.415 . S
C1187 C1186 1.355 . S
C1187 C1189 1.419 . S
C1188 C1186 1.415 . S
C1188 C1193 1.425 . S
C1188 C1195 1.409 . S
C1189 H1181 0.930 . S
C1189 C1187 1.419 . S
C1189 C1190 1.362 . S
C1190 H1182 0.930 . S
C1190 C1189 1.362 . S
C1190 C1193 1.409 . S
C1191 H1183 0.930 . S
C1191 C1192 1.355 . S
C1191 C1193 1.415 . S
C1192 C1191 1.355 . S
C1192 C1194 1.419 . S
C1193 C1188 1.425 . S
C1193 C1190 1.409 . S
C1193 C1191 1.415 . S
C1194 H1184 0.930 . S
C1194 C1192 1.419 . S
C1194 C1195 1.362 . S
C1195 H1185 0.930 . S
C1195 C1188 1.409 . S
C1195 C1194 1.362 . S
H1196 C1202 0.930 . S
H1197 C1205 0.930 . S
H1198 C1206 0.930 . S
H1199 C1207 0.930 . S
H1200 C1210 0.930 . S
H1201 C1211 0.930 . S
C1202 H1196 0.930 . S
C1202 C1203 1.355 . S
C1202 C1204 1.415 . S
C1203 C1202 1.355 . S
C1203 C1205 1.419 . S
C1204 C1202 1.415 . S
C1204 C1209 1.425 . S
C1204 C1211 1.409 . S
C1205 H1197 0.930 . S
C1205 C1203 1.419 . S
C1205 C1206 1.362 . S
C1206 H1198 0.930 . S
C1206 C1205 1.362 . S
C1206 C1209 1.409 . S
C1207 H1199 0.930 . S
C1207 C1208 1.355 . S
C1207 C1209 1.415 . S
C1208 C1207 1.355 . S
C1208 C1210 1.419 . S
C1209 C1204 1.425 . S
C1209 C1206 1.409 . S
C1209 C1207 1.415 . S
C1210 H1200 0.930 . S
C1210 C1208 1.419 . S
C1210 C1211 1.362 . S
C1211 H1201 0.930 . S
C1211 C1204 1.409 . S
C1211 C1210 1.362 . S
H1212 C1218 0.930 . S
H1213 C1221 0.930 . S
H1214 C1222 0.930 . S
H1215 C1223 0.930 . S
H1216 C1226 0.930 . S
H1217 C1227 0.930 . S
C1218 H1212 0.930 . S
C1218 C1219 1.355 . S
C1218 C1220 1.415 . S
C1219 C1218 1.355 . S
C1219 C1221 1.419 . S
C1220 C1218 1.415 . S
C1220 C1225 1.425 . S
C1220 C1227 1.409 . S
C1221 H1213 0.930 . S
C1221 C1219 1.419 . S
C1221 C1222 1.362 . S
C1222 H1214 0.930 . S
C1222 C1221 1.362 . S
C1222 C1225 1.409 . S
C1223 H1215 0.930 . S
C1223 C1224 1.355 . S
C1223 C1225 1.415 . S
C1224 C1223 1.355 . S
C1224 C1226 1.419 . S
C1225 C1220 1.425 . S
C1225 C1222 1.409 . S
C1225 C1223 1.415 . S
C1226 H1216 0.930 . S
C1226 C1224 1.419 . S
C1226 C1227 1.362 . S
C1227 H1217 0.930 . S
C1227 C1220 1.409 . S
C1227 C1226 1.362 . S
H1228 C1234 0.930 . S
H1229 C1237 0.930 . S
H1230 C1238 0.930 . S
H1231 C1239 0.930 . S
H1232 C1242 0.930 . S
H1233 C1243 0.930 . S
C1234 H1228 0.930 . S
C1234 C1235 1.355 . S
C1234 C1236 1.415 . S
C1235 C1234 1.355 . S
C1235 C1237 1.419 . S
C1236 C1234 1.415 . S
C1236 C1241 1.425 . S
C1236 C1243 1.409 . S
C1237 H1229 0.930 . S
C1237 C1235 1.419 . S
C1237 C1238 1.362 . S
C1238 H1230 0.930 . S
C1238 C1237 1.362 . S
C1238 C1241 1.409 . S
C1239 H1231 0.930 . S
C1239 C1240 1.355 . S
C1239 C1241 1.415 . S
C1240 C1239 1.355 . S
C1240 C1242 1.419 . S
C1241 C1236 1.425 . S
C1241 C1238 1.409 . S
C1241 C1239 1.415 . S
C1242 H1232 0.930 . S
C1242 C1240 1.419 . S
C1242 C1243 1.362 . S
C1243 H1233 0.930 . S
C1243 C1236 1.409 . S
C1243 C1242 1.362 . S
H1244 C1250 0.930 . S
H1245 C1253 0.930 . S
H1246 C1254 0.930 . S
H1247 C1255 0.930 . S
H1248 C1258 0.930 . S
H1249 C1259 0.930 . S
C1250 H1244 0.930 . S
C1250 C1251 1.355 . S
C1250 C1252 1.415 . S
C1251 C1250 1.355 . S
C1251 C1253 1.419 . S
C1252 C1250 1.415 . S
C1252 C1257 1.425 . S
C1252 C1259 1.409 . S
C1253 H1245 0.930 . S
C1253 C1251 1.419 . S
C1253 C1254 1.362 . S
C1254 H1246 0.930 . S
C1254 C1253 1.362 . S
C1254 C1257 1.409 . S
C1255 H1247 0.930 . S
C1255 C1256 1.355 . S
C1255 C1257 1.415 . S
C1256 C1255 1.355 . S
C1256 C1258 1.419 . S
C1257 C1252 1.425 . S
C1257 C1254 1.409 . S
C1257 C1255 1.415 . S
C1258 H1248 0.930 . S
C1258 C1256 1.419 . S
C1258 C1259 1.362 . S
C1259 H1249 0.930 . S
C1259 C1252 1.409 . S
C1259 C1258 1.362 . S
H1260 C1266 0.930 . S
H1261 C1269 0.930 . S
H1262 C1270 0.930 . S
H1263 C1271 0.930 . S
H1264 C1274 0.930 . S
H1265 C1275 0.930 . S
C1266 H1260 0.930 . S
C1266 C1267 1.355 . S
C1266 C1268 1.415 . S
C1267 C1266 1.355 . S
C1267 C1269 1.419 . S
C1268 C1266 1.415 . S
C1268 C1273 1.425 . S
C1268 C1275 1.409 . S
C1269 H1261 0.930 . S
C1269 C1267 1.419 . S
C1269 C1270 1.362 . S
C1270 H1262 0.930 . S
C1270 C1269 1.362 . S
C1270 C1273 1.409 . S
C1271 H1263 0.930 . S
C1271 C1272 1.355 . S
C1271 C1273 1.415 . S
C1272 C1271 1.355 . S
C1272 C1274 1.419 . S
C1273 C1268 1.425 . S
C1273 C1270 1.409 . S
C1273 C1271 1.415 . S
C1274 H1264 0.930 . S
C1274 C1272 1.419 . S
C1274 C1275 1.362 . S
C1275 H1265 0.930 . S
C1275 C1268 1.409 . S
C1275 C1274 1.362 . S
H1276 C1282 0.930 . S
H1277 C1285 0.930 . S
H1278 C1286 0.930 . S
H1279 C1287 0.930 . S
H1280 C1290 0.930 . S
H1281 C1291 0.930 . S
C1282 H1276 0.930 . S
C1282 C1283 1.355 . S
C1282 C1284 1.415 . S
C1283 C1282 1.355 . S
C1283 C1285 1.419 . S
C1284 C1282 1.415 . S
C1284 C1289 1.425 . S
C1284 C1291 1.409 . S
C1285 H1277 0.930 . S
C1285 C1283 1.419 . S
C1285 C1286 1.362 . S
C1286 H1278 0.930 . S
C1286 C1285 1.362 . S
C1286 C1289 1.409 . S
C1287 H1279 0.930 . S
C1287 C1288 1.355 . S
C1287 C1289 1.415 . S
C1288 C1287 1.355 . S
C1288 C1290 1.419 . S
C1289 C1284 1.425 . S
C1289 C1286 1.409 . S
C1289 C1287 1.415 . S
C1290 H1280 0.930 . S
C1290 C1288 1.419 . S
C1290 C1291 1.362 . S
C1291 H1281 0.930 . S
C1291 C1284 1.409 . S
C1291 C1290 1.362 . S
H1292 C1298 0.930 . S
H1293 C1301 0.930 . S
H1294 C1302 0.930 . S
H1295 C1303 0.930 . S
H1296 C1306 0.930 . S
H1297 C1307 0.930 . S
C1298 H1292 0.930 . S
C1298 C1299 1.355 . S
C1298 C1300 1.415 . S
C1299 C1298 1.355 . S
C1299 C1301 1.419 . S
C1300 C1298 1.415 . S
C1300 C1305 1.425 . S
C1300 C1307 1.409 . S
C1301 H1293 0.930 . S
C1301 C1299 1.419 . S
C1301 C1302 1.362 . S
C1302 H1294 0.930 . S
C1302 C1301 1.362 . S
C1302 C1305 1.409 . S
C1303 H1295 0.930 . S
C1303 C1304 1.355 . S
C1303 C1305 1.415 . S
C1304 C1303 1.355 . S
C1304 C1306 1.419 . S
C1305 C1300 1.425 . S
C1305 C1302 1.409 . S
C1305 C1303 1.415 . S
C1306 H1296 0.930 . S
C1306 C1304 1.419 . S
C1306 C1307 1.362 . S
C1307 H1297 0.930 . S
C1307 C1300 1.409 . S
C1307 C1306 1.362 . S
H1308 C1314 0.930 . S
H1309 C1317 0.930 . S
H1310 C1318 0.930 . S
H1311 C1319 0.930 . S
H1312 C1322 0.930 . S
H1313 C1323 0.930 . S
C1314 H1308 0.930 . S
C1314 C1315 1.355 . S
C1314 C1316 1.415 . S
C1315 C1314 1.355 . S
C1315 C1317 1.419 . S
C1316 C1314 1.415 . S
C1316 C1321 1.425 . S
C1316 C1323 1.409 . S
C1317 H1309 0.930 . S
C1317 C1315 1.419 . S
C1317 C1318 1.362 . S
C1318 H1310 0.930 . S
C1318 C1317 1.362 . S
C1318 C1321 1.409 . S
C1319 H1311 0.930 . S
C1319 C1320 1.355 . S
C1319 C1321 1.415 . S
C1320 C1319 1.355 . S
C1320 C1322 1.419 . S
C1321 C1316 1.425 . S
C1321 C1318 1.409 . S
C1321 C1319 1.415 . S
C1322 H1312 0.930 . S
C1322 C1320 1.419 . S
C1322 C1323 1.362 . S
C1323 H1313 0.930 . S
C1323 C1316 1.409 . S
C1323 C1322 1.362 . S
H1324 C1330 0.930 . S
H1325 C1333 0.930 . S
H1326 C1334 0.930 . S
H1327 C1335 0.930 . S
H1328 C1338 0.930 . S
H1329 C1339 0.930 . S
C1330 H1324 0.930 . S
C1330 C1331 1.355 . S
C1330 C1332 1.415 . S
C1331 C1330 1.355 . S
C1331 C1333 1.419 . S
C1332 C1330 1.415 . S
C1332 C1337 1.425 . S
C1332 C1339 1.409 . S
C1333 H1325 0.930 . S
C1333 C1331 1.419 . S
C1333 C1334 1.362 . S
C1334 H1326 0.930 . S
C1334 C1333 1.362 . S
C1334 C1337 1.409 . S
C1335 H1327 0.930 . S
C1335 C1336 1.355 . S
C1335 C1337 1.415 . S
C1336 C1335 1.355 . S
C1336 C1338 1.419 . S
C1337 C1332 1.425 . S
C1337 C1334 1.409 . S
C1337 C1335 1.415 . S
C1338 H1328 0.930 . S
C1338 C1336 1.419 . S
C1338 C1339 1.362 . S
C1339 H1329 0.930 . S
C1339 C1332 1.409 . S
C1339 C1338 1.362 . S
H1340 C1346 0.930 . S
H1341 C1349 0.930 . S
H1342 C1350 0.930 . S
H1343 C1351 0.930 . S
H1344 C1354 0.930 . S
H1345 C1355 0.930 . S
C1346 H1340 0.930 . S
C1346 C1347 1.355 . S
C1346 C1348 1.415 . S
C1347 C1346 1.355 . S
C1347 C1349 1.419 . S
C1348 C1346 1.415 . S
C1348 C1353 1.425 . S
C1348 C1355 1.409 . S
C1349 H1341 0.930 . S
C1349 C1347 1.419 . S
C1349 C1350 1.362 . S
C1350 H1342 0.930 . S
C1350 C1349 1.362 . S
C1350 C1353 1.409 . S
C1351 H1343 0.930 . S
C1351 C1352 1.355 . S
C1351 C1353 1.415 . S
C1352 C1351 1.355 . S
C1352 C1354 1.419 . S
C1353 C1348 1.425 . S
C1353 C1350 1.409 . S
C1353 C1351 1.415 . S
C1354 H1344 0.930 . S
C1354 C1352 1.419 . S
C1354 C1355 1.362 . S
C1355 H1345 0.930 . S
C1355 C1348 1.409 . S
C1355 C1354 1.362 . S
H1356 C1362 0.930 . S
H1357 C1365 0.930 . S
H1358 C1366 0.930 . S
H1359 C1367 0.930 . S
H1360 C1370 0.930 . S
H1361 C1371 0.930 . S
C1362 H1356 0.930 . S
C1362 C1363 1.355 . S
C1362 C1364 1.415 . S
C1363 C1362 1.355 . S
C1363 C1365 1.419 . S
C1364 C1362 1.415 . S
C1364 C1369 1.425 . S
C1364 C1371 1.409 . S
C1365 H1357 0.930 . S
C1365 C1363 1.419 . S
C1365 C1366 1.362 . S
C1366 H1358 0.930 . S
C1366 C1365 1.362 . S
C1366 C1369 1.409 . S
C1367 H1359 0.930 . S
C1367 C1368 1.355 . S
C1367 C1369 1.415 . S
C1368 C1367 1.355 . S
C1368 C1370 1.419 . S
C1369 C1364 1.425 . S
C1369 C1366 1.409 . S
C1369 C1367 1.415 . S
C1370 H1360 0.930 . S
C1370 C1368 1.419 . S
C1370 C1371 1.362 . S
C1371 H1361 0.930 . S
C1371 C1364 1.409 . S
C1371 C1370 1.362 . S
H1372 C1378 0.930 . S
H1373 C1381 0.930 . S
H1374 C1382 0.930 . S
H1375 C1383 0.930 . S
H1376 C1386 0.930 . S
H1377 C1387 0.930 . S
C1378 H1372 0.930 . S
C1378 C1379 1.355 . S
C1378 C1380 1.415 . S
C1379 C1378 1.355 . S
C1379 C1381 1.419 . S
C1380 C1378 1.415 . S
C1380 C1385 1.425 . S
C1380 C1387 1.409 . S
C1381 H1373 0.930 . S
C1381 C1379 1.419 . S
C1381 C1382 1.362 . S
C1382 H1374 0.930 . S
C1382 C1381 1.362 . S
C1382 C1385 1.409 . S
C1383 H1375 0.930 . S
C1383 C1384 1.355 . S
C1383 C1385 1.415 . S
C1384 C1383 1.355 . S
C1384 C1386 1.419 . S
C1385 C1380 1.425 . S
C1385 C1382 1.409 . S
C1385 C1383 1.415 . S
C1386 H1376 0.930 . S
C1386 C1384 1.419 . S
C1386 C1387 1.362 . S
C1387 H1377 0.930 . S
C1387 C1380 1.409 . S
C1387 C1386 1.362 . S
C1016 C331 0.854 . S
C1011 C15 1.595 . S
C1032 C463 1.206 . S
C1027 C55 1.501 . S
C1048 C349 1.228 . S
C1043 C101 1.519 . S
C1064 C445 0.825 . S
C1059 C141 1.556 . S
C1080 C577 1.289 . S
C1075 C2 1.523 . S
C1096 C691 1.365 . S
C1091 C61 1.528 . S
C1107 C95 1.601 . S
C1112 C831 1.313 . S
C1128 C945 1.078 . S
C1123 C135 1.536 . S
C1144 C559 1.011 . S
C1139 C42 1.449 . S
C1155 C82 1.591 . S
C1160 C673 0.883 . S
C1176 C777 1.138 . S
C1171 C122 1.571 . S
C1192 C891 1.004 . S
C1187 C21 1.384 . S
C1203 C162 1.486 . S
C1208 C489 1.205 . S
C1224 C321 1.168 . S
C1219 C221 1.444 . S
C1235 C255 1.371 . S
C1240 C435 0.958 . S
C1251 C282 1.542 . S
C1256 C375 1.211 . S
C1272 C787 1.012 . S
C1267 C181 1.572 . S
C1288 C901 1.087 . S
C1283 C202 1.603 . S
C1304 C549 1.071 . S
C1299 C242 1.342 . S
C1315 C301 1.542 . S
C1320 C663 1.215 . S
C1336 C805 1.285 . S
C1331 C215 1.458 . S
C1352 C919 1.087 . S
C1347 C261 1.503 . S
C1368 C603 1.101 . S
C1363 C295 1.547 . S
C1379 C175 1.639 . S
C1384 C717 1.087 . S
