# Generated by pormake.
# Topology pyr, (3,6)-cn, num edge types: 1
# Building blocks:
#     Node 0, Type 0, BuildingBlock: BELTOD_clean_linker_0, # of connection points: 3
#     Node 1, Type 0, BuildingBlock: BELTOD_clean_linker_0, # of connection points: 3
#     Node 2, Type 0, BuildingBlock: BELTOD_clean_linker_0, # of connection points: 3
#     Node 3, Type 0, BuildingBlock: BELTOD_clean_linker_0, # of connection points: 3
#     Node 4, Type 0, BuildingBlock: BELTOD_clean_linker_0, # of connection points: 3
#     Node 5, Type 0, BuildingBlock: BELTOD_clean_linker_0, # of connection points: 3
#     Node 6, Type 0, BuildingBlock: BELTOD_clean_linker_0, # of connection points: 3
#     Node 7, Type 0, BuildingBlock: BELTOD_clean_linker_0, # of connection points: 3
#     Node 8, Type 1, BuildingBlock: INOVEN_clean_sbu_0, # of connection points: 6
#     Node 9, Type 1, BuildingBlock: INOVEN_clean_sbu_0, # of connection points: 6
#     Node 10, Type 1, BuildingBlock: INOVEN_clean_sbu_0, # of connection points: 6
#     Node 11, Type 1, BuildingBlock: INOVEN_clean_sbu_0, # of connection points: 6
#     Edge 12, Type (0, 1), BuildingBlock: XIVTED_clean_linker_0, # of connection points: 2
#     Edge 13, Type (0, 1), BuildingBlock: XIVTED_clean_linker_0, # of connection points: 2
#     Edge 14, Type (0, 1), BuildingBlock: XIVTED_clean_linker_0, # of connection points: 2
#     Edge 15, Type (0, 1), BuildingBlock: XIVTED_clean_linker_0, # of connection points: 2
#     Edge 16, Type (0, 1), BuildingBlock: XIVTED_clean_linker_0, # of connection points: 2
#     Edge 17, Type (0, 1), BuildingBlock: XIVTED_clean_linker_0, # of connection points: 2
#     Edge 18, Type (0, 1), BuildingBlock: XIVTED_clean_linker_0, # of connection points: 2
#     Edge 19, Type (0, 1), BuildingBlock: XIVTED_clean_linker_0, # of connection points: 2
#     Edge 20, Type (0, 1), BuildingBlock: XIVTED_clean_linker_0, # of connection points: 2
#     Edge 21, Type (0, 1), BuildingBlock: XIVTED_clean_linker_0, # of connection points: 2
#     Edge 22, Type (0, 1), BuildingBlock: XIVTED_clean_linker_0, # of connection points: 2
#     Edge 23, Type (0, 1), BuildingBlock: XIVTED_clean_linker_0, # of connection points: 2
#     Edge 24, Type (0, 1), BuildingBlock: XIVTED_clean_linker_0, # of connection points: 2
#     Edge 25, Type (0, 1), BuildingBlock: XIVTED_clean_linker_0, # of connection points: 2
#     Edge 26, Type (0, 1), BuildingBlock: XIVTED_clean_linker_0, # of connection points: 2
#     Edge 27, Type (0, 1), BuildingBlock: XIVTED_clean_linker_0, # of connection points: 2
#     Edge 28, Type (0, 1), BuildingBlock: XIVTED_clean_linker_0, # of connection points: 2
#     Edge 29, Type (0, 1), BuildingBlock: XIVTED_clean_linker_0, # of connection points: 2
#     Edge 30, Type (0, 1), BuildingBlock: XIVTED_clean_linker_0, # of connection points: 2
#     Edge 31, Type (0, 1), BuildingBlock: XIVTED_clean_linker_0, # of connection points: 2
#     Edge 32, Type (0, 1), BuildingBlock: XIVTED_clean_linker_0, # of connection points: 2
#     Edge 33, Type (0, 1), BuildingBlock: XIVTED_clean_linker_0, # of connection points: 2
#     Edge 34, Type (0, 1), BuildingBlock: XIVTED_clean_linker_0, # of connection points: 2
#     Edge 35, Type (0, 1), BuildingBlock: XIVTED_clean_linker_0, # of connection points: 2
# Relax obj value: 0.102
# Max RMSD: 0.129
# Mean RMSD: 0.060
data_MOF--net-pyr--node1-INOVEN_clean_sbu_0--node2-BELTOD_clean_linker_0--edge1-XIVTED_clean_linker_0
_symmetry_space_group_name_H-M    P1
_symmetry_Int_Tables_number       1
_symmetry_cell_setting            triclinic
loop_
_symmetry_equiv_pos_as_xyz
'x, y, z'
_cell_length_a     44.62504
_cell_length_b     45.920874
_cell_length_c     40.07553
_cell_angle_alpha  90.757394
_cell_angle_beta   88.642287
_cell_angle_gamma 101.16019
loop_
_atom_site_label
_atom_site_type_symbol
_atom_site_fract_x
_atom_site_fract_y
_atom_site_fract_z
_atom_type_partial_charge
P0 P 0.35092 0.32442 0.25977 0.0
H1 H 0.41038 0.31728 0.23206 0.0
H2 H 0.42825 0.27506 0.20598 0.0
H3 H 0.33683 0.22272 0.21481 0.0
H4 H 0.31911 0.26515 0.23954 0.0
H5 H 0.3431 0.38545 0.26698 0.0
H6 H 0.31033 0.41318 0.23791 0.0
H7 H 0.29189 0.34301 0.16396 0.0
H8 H 0.32536 0.3159 0.19265 0.0
H9 H 0.34939 0.29799 0.32605 0.0
H10 H 0.28423 0.3152 0.25461 0.0
O11 O 0.37961 0.34384 0.28153 0.0
H12 H 0.30729 0.27219 0.36158 0.0
H13 H 0.24272 0.28923 0.28904 0.0
C14 C 0.3636 0.29417 0.23834 0.0
C15 C 0.39422 0.29674 0.22815 0.0
C16 C 0.40441 0.27251 0.21346 0.0
C17 C 0.38406 0.24532 0.20863 0.0
C18 C 0.35313 0.2433 0.21788 0.0
C19 C 0.34299 0.26755 0.23238 0.0
C20 C 0.33685 0.34876 0.23186 0.0
C21 C 0.33306 0.37666 0.24371 0.0
C22 C 0.31399 0.3923 0.22729 0.0
C23 C 0.29804 0.38006 0.19895 0.0
C24 C 0.30396 0.35321 0.18556 0.0
C25 C 0.3232 0.33764 0.20195 0.0
C26 C 0.32005 0.3091 0.28801 0.0
C27 C 0.32608 0.2967 0.31829 0.0
C28 C 0.30202 0.28175 0.3384 0.0
C29 C 0.27156 0.27879 0.32828 0.0
C30 C 0.26576 0.29168 0.29809 0.0
C31 C 0.2897 0.30657 0.27818 0.0
P32 P 0.31507 0.91171 0.58455 0.0
H33 H 0.37085 0.91627 0.62197 0.0
H34 H 0.38321 0.92947 0.68017 0.0
H35 H 0.29291 0.94867 0.69645 0.0
H36 H 0.28087 0.93584 0.63868 0.0
H37 H 0.33811 0.87132 0.53762 0.0
H38 H 0.34076 0.81885 0.54106 0.0
H39 H 0.29033 0.81309 0.63508 0.0
H40 H 0.28928 0.86584 0.63218 0.0
H41 H 0.29823 0.96477 0.55849 0.0
H42 H 0.2519 0.87775 0.58968 0.0
O43 O 0.34179 0.92796 0.55731 0.0
H44 H 0.24904 0.97998 0.55375 0.0
H45 H 0.20289 0.89305 0.58608 0.0
C46 C 0.32516 0.92545 0.62581 0.0
C47 C 0.35397 0.92386 0.63798 0.0
C48 C 0.36088 0.93114 0.67126 0.0
C49 C 0.33901 0.94011 0.69288 0.0
C50 C 0.3104 0.94228 0.68032 0.0
C51 C 0.30348 0.93487 0.64715 0.0
C52 C 0.31389 0.87244 0.58486 0.0
C53 C 0.32752 0.85867 0.55885 0.0
C54 C 0.32872 0.82856 0.56072 0.0
C55 C 0.31595 0.81174 0.58851 0.0
C56 C 0.30096 0.82547 0.61368 0.0
C57 C 0.30019 0.8556 0.61198 0.0
C58 C 0.27878 0.92008 0.57406 0.0
C59 C 0.27747 0.94875 0.56366 0.0
C60 C 0.24936 0.95752 0.56143 0.0
C61 C 0.2221 0.93781 0.57 0.0
C62 C 0.22344 0.90867 0.57909 0.0
C63 C 0.25158 0.89991 0.5812 0.0
P64 P 0.66507 0.33272 0.86167 0.0
H65 H 0.72325 0.37089 0.84377 0.0
H66 H 0.76479 0.39916 0.87644 0.0
H67 H 0.71359 0.37226 0.9673 0.0
H68 H 0.67168 0.34439 0.93434 0.0
H69 H 0.68018 0.27834 0.88639 0.0
H70 H 0.65174 0.23621 0.91756 0.0
H71 H 0.57381 0.27918 0.92437 0.0
H72 H 0.60268 0.32153 0.89305 0.0
H73 H 0.67608 0.39534 0.84065 0.0
H74 H 0.606 0.31717 0.82822 0.0
O75 O 0.68363 0.31634 0.83256 0.0
H76 H 0.6513 0.42149 0.80013 0.0
H77 H 0.5804 0.34385 0.78854 0.0
C78 C 0.69429 0.35548 0.88651 0.0
C79 C 0.72073 0.37136 0.87071 0.0
C80 C 0.74449 0.38759 0.88943 0.0
C81 C 0.74257 0.38794 0.92451 0.0
C82 C 0.71588 0.37224 0.94034 0.0
C83 C 0.69184 0.35638 0.92149 0.0
C84 C 0.64335 0.30279 0.88655 0.0
C85 C 0.65696 0.27876 0.89459 0.0
C86 C 0.6407 0.25471 0.91271 0.0
C87 C 0.61032 0.25406 0.92336 0.0
C88 C 0.59697 0.27865 0.91609 0.0
C89 C 0.61346 0.30293 0.89816 0.0
C90 C 0.64262 0.35433 0.83844 0.0
C91 C 0.65495 0.38392 0.83003 0.0
C92 C 0.64086 0.3989 0.80655 0.0
C93 C 0.6139 0.38475 0.79108 0.0
C94 C 0.60098 0.35547 0.80028 0.0
C95 C 0.61548 0.34027 0.82326 0.0
P96 P 0.80539 0.69786 0.35131 0.0
H97 H 0.83335 0.75512 0.32335 0.0
H98 H 0.86177 0.801 0.34717 0.0
H99 H 0.8575 0.75891 0.44357 0.0
H100 H 0.83081 0.71251 0.41874 0.0
H101 H 0.8271 0.70496 0.28224 0.0
H102 H 0.85541 0.67684 0.24533 0.0
H103 H 0.86438 0.61848 0.32659 0.0
H104 H 0.83591 0.64704 0.36365 0.0
H105 H 0.77381 0.71224 0.41268 0.0
H106 H 0.77711 0.63425 0.3528 0.0
O107 O 0.78197 0.71034 0.32554 0.0
H108 H 0.73367 0.6837 0.44789 0.0
H109 H 0.73709 0.60541 0.38814 0.0
C110 C 0.8291 0.73056 0.36942 0.0
C111 C 0.83874 0.75571 0.34959 0.0
C112 C 0.85479 0.78217 0.36344 0.0
C113 C 0.86152 0.78429 0.39768 0.0
C114 C 0.85295 0.75846 0.41715 0.0
C115 C 0.8373 0.73181 0.40305 0.0
C116 C 0.82859 0.67767 0.32553 0.0
C117 C 0.83518 0.68616 0.29224 0.0
C118 C 0.85161 0.67013 0.27113 0.0
C119 C 0.86201 0.64515 0.28279 0.0
C120 C 0.85627 0.63726 0.31657 0.0
C121 C 0.84004 0.6536 0.33784 0.0
C122 C 0.77993 0.67519 0.38102 0.0
C123 C 0.76686 0.68869 0.40784 0.0
C124 C 0.74361 0.6723 0.42793 0.0
C125 C 0.73218 0.64208 0.42117 0.0
C126 C 0.74524 0.6286 0.39418 0.0
C127 C 0.76862 0.64503 0.3742 0.0
P128 P 0.69229 0.79145 0.89421 0.0
H129 H 0.67458 0.79958 0.96329 0.0
H130 H 0.63761 0.8269 0.98792 0.0
H131 H 0.59946 0.83297 0.89076 0.0
H132 H 0.63598 0.80497 0.86642 0.0
H133 H 0.73376 0.75823 0.862 0.0
H134 H 0.75002 0.7128 0.8766 0.0
H135 H 0.68052 0.69737 0.95474 0.0
H136 H 0.66388 0.74317 0.93943 0.0
H137 H 0.70803 0.84976 0.86547 0.0
H138 H 0.68378 0.75966 0.8291 0.0
O139 O 0.72162 0.81197 0.91406 0.0
H140 H 0.72125 0.867 0.80897 0.0
H141 H 0.69768 0.77679 0.77201 0.0
C142 C 0.6584 0.80078 0.913 0.0
C143 C 0.65753 0.80582 0.9475 0.0
C144 C 0.63657 0.82166 0.96148 0.0
C145 C 0.61622 0.83275 0.94109 0.0
C146 C 0.61494 0.82482 0.90708 0.0
C147 C 0.63593 0.80887 0.89311 0.0
C148 C 0.69704 0.75376 0.89897 0.0
C149 C 0.72093 0.74442 0.88118 0.0
C150 C 0.73031 0.71833 0.88967 0.0
C151 C 0.71651 0.70136 0.91679 0.0
C152 C 0.69159 0.71001 0.93371 0.0
C153 C 0.68195 0.73609 0.92486 0.0
C154 C 0.69619 0.80339 0.85153 0.0
C155 C 0.70519 0.83372 0.84516 0.0
C156 C 0.71241 0.84357 0.81274 0.0
C157 C 0.71078 0.82318 0.78605 0.0
C158 C 0.69949 0.79292 0.79219 0.0
C159 C 0.69178 0.78312 0.82477 0.0
P160 P 0.85395 0.29847 0.36827 0.0
H161 H 0.85722 0.36273 0.36923 0.0
H162 H 0.82414 0.39355 0.39567 0.0
H163 H 0.77377 0.3164 0.44673 0.0
H164 H 0.80686 0.28606 0.42061 0.0
H165 H 0.86187 0.23912 0.34799 0.0
H166 H 0.86986 0.19612 0.37929 0.0
H167 H 0.87099 0.24709 0.47099 0.0
H168 H 0.86474 0.29028 0.43926 0.0
H169 H 0.84997 0.31367 0.29754 0.0
H170 H 0.79799 0.25427 0.36963 0.0
O171 O 0.88641 0.31746 0.35164 0.0
H172 H 0.81011 0.29765 0.25622 0.0
H173 H 0.75833 0.2385 0.32891 0.0
C174 C 0.83498 0.32227 0.39357 0.0
C175 C 0.83968 0.35271 0.38697 0.0
C176 C 0.82061 0.37023 0.40186 0.0
C177 C 0.79638 0.35742 0.42335 0.0
C178 C 0.79258 0.32711 0.43087 0.0
C179 C 0.81153 0.30968 0.41588 0.0
C180 C 0.86182 0.2676 0.39142 0.0
C181 C 0.86391 0.24099 0.37484 0.0
C182 C 0.86817 0.21632 0.39283 0.0
C183 C 0.87055 0.21789 0.42779 0.0
C184 C 0.86938 0.24501 0.44412 0.0
C185 C 0.86551 0.26973 0.42602 0.0
C186 C 0.82707 0.2848 0.33641 0.0
C187 C 0.83022 0.29695 0.30432 0.0
C188 C 0.80745 0.2879 0.28084 0.0
C189 C 0.78105 0.26708 0.28954 0.0
C190 C 0.77821 0.25493 0.32169 0.0
C191 C 0.80099 0.26372 0.34488 0.0
P192 P 0.34729 0.68444 0.22548 0.0
H193 H 0.31937 0.68744 0.16117 0.0
H194 H 0.26883 0.66714 0.13947 0.0
H195 H 0.23907 0.63274 0.23702 0.0
H196 H 0.28974 0.65354 0.25874 0.0
H197 H 0.4067 0.72282 0.2342 0.0
H198 H 0.42735 0.77417 0.21907 0.0
H199 H 0.33741 0.78495 0.19037 0.0
H200 H 0.31673 0.73396 0.20717 0.0
H201 H 0.33982 0.62363 0.24794 0.0
H202 H 0.37134 0.71051 0.29047 0.0
O203 O 0.369 0.66989 0.19794 0.0
H204 H 0.35525 0.60082 0.29767 0.0
H205 H 0.38785 0.68782 0.34016 0.0
C206 C 0.30847 0.67205 0.21157 0.0
C207 C 0.30186 0.67589 0.17804 0.0
C208 C 0.27289 0.66429 0.16566 0.0
C209 C 0.24986 0.64818 0.18644 0.0
C210 C 0.25638 0.64474 0.22024 0.0
C211 C 0.28535 0.65675 0.23274 0.0
C212 C 0.36016 0.72432 0.2219 0.0
C213 C 0.39125 0.73646 0.22553 0.0
C214 C 0.40312 0.76582 0.21632 0.0
C215 C 0.38426 0.78377 0.20268 0.0
C216 C 0.35273 0.772 0.20077 0.0
C217 C 0.34083 0.74261 0.2103 0.0
C218 C 0.35435 0.6688 0.2653 0.0
C219 C 0.34978 0.63785 0.2682 0.0
C220 C 0.35899 0.6248 0.29661 0.0
C221 C 0.37335 0.64238 0.32292 0.0
C222 C 0.37681 0.6735 0.32056 0.0
C223 C 0.36745 0.68657 0.29199 0.0
P224 P 0.16689 0.34945 0.75707 0.0
H225 H 0.18641 0.30592 0.71272 0.0
H226 H 0.15926 0.26364 0.68087 0.0
H227 H 0.07313 0.28352 0.71584 0.0
H228 H 0.10058 0.3264 0.74729 0.0
H229 H 0.21777 0.3962 0.7758 0.0
H230 H 0.26107 0.42452 0.7445 0.0
H231 H 0.22326 0.38382 0.65288 0.0
H232 H 0.17919 0.35736 0.68417 0.0
H233 H 0.1288 0.33207 0.8162 0.0
H234 H 0.15373 0.41032 0.75581 0.0
O235 O 0.18652 0.33287 0.7834 0.0
H236 H 0.10284 0.35954 0.85642 0.0
H237 H 0.12716 0.43796 0.79558 0.0
C238 C 0.14561 0.31971 0.73195 0.0
C239 C 0.16167 0.30152 0.71313 0.0
C240 C 0.14611 0.27732 0.6949 0.0
C241 C 0.11401 0.27025 0.69565 0.0
C242 C 0.09787 0.28834 0.71482 0.0
C243 C 0.11355 0.31296 0.73268 0.0
C244 C 0.19544 0.37419 0.73254 0.0
C245 C 0.21855 0.39385 0.74888 0.0
C246 C 0.24358 0.40977 0.73087 0.0
C247 C 0.24635 0.40608 0.69602 0.0
C248 C 0.22218 0.38748 0.67957 0.0
C249 C 0.19691 0.37194 0.6976 0.0
C250 C 0.14344 0.36913 0.78311 0.0
C251 C 0.12822 0.3551 0.8113 0.0
C252 C 0.11323 0.37089 0.83429 0.0
C253 C 0.113 0.4012 0.82961 0.0
C254 C 0.1273 0.41486 0.80048 0.0
C255 C 0.14233 0.39898 0.77748 0.0
Gd256 Gd -0.0011 0.04683 0.50469 0.0
Gd257 Gd 0.97207 1.02012 0.5692 0.0
C258 C 0.01536 0.08576 0.57038 0.0
C259 C 0.01343 0.07076 0.44727 0.0
C260 C 0.0384 0.09502 0.43744 0.0
C261 C 0.06091 0.10647 0.46053 0.0
C262 C 0.04042 0.10639 0.40505 0.0
C263 C 0.08816 0.13965 0.41849 0.0
C264 C 0.06511 0.12869 0.39564 0.0
C265 C 0.08566 0.1285 0.4511 0.0
C266 C 0.03839 1.02438 0.54138 0.0
C267 C 0.95681 0.98014 0.50476 0.0
C268 C 0.95582 0.99755 0.62687 0.0
C269 C 0.92943 0.97499 0.6376 0.0
C270 C 0.91195 0.98078 0.66552 0.0
C271 C 0.91952 0.94928 0.61828 0.0
C272 C 0.87426 0.93622 0.65393 0.0
C273 C 0.89225 0.92989 0.62659 0.0
C274 C 0.88455 0.96162 0.67358 0.0
C275 C 0.93512 0.04746 0.53301 0.0
O276 O 0.01219 0.08689 0.53775 0.0
O277 O 0.00532 0.06095 0.58712 0.0
O278 O 0.02211 0.04659 0.45678 0.0
O279 O 0.99234 0.07831 0.467 0.0
O280 O 0.04567 0.04835 0.524 0.0
O281 O 0.01081 1.01228 0.53731 0.0
O282 O 0.95979 0.97967 0.53733 0.0
O283 O 0.96624 1.00486 0.48758 0.0
O284 O 0.94905 1.02246 0.617 0.0
O285 O 0.97637 0.9885 0.60761 0.0
O286 O 0.92525 1.02308 0.54916 0.0
O287 O 0.96293 0.05604 0.53813 0.0
H288 H 0.05954 0.09811 0.48577 0.0
H289 H 0.02318 0.09778 0.38698 0.0
H290 H 0.06661 0.13681 0.37028 0.0
H291 H 0.10285 0.13682 0.46932 0.0
H292 H 0.91909 1.0006 0.68055 0.0
H293 H 0.93236 0.94454 0.59627 0.0
H294 H 0.88475 0.9105 0.61104 0.0
H295 H 0.87131 0.96673 0.69511 0.0
Gd296 Gd 0.51805 0.03766 0.09384 0.0
Gd297 Gd 0.45494 1.01901 0.05912 0.0
C298 C 0.46164 0.06939 0.11494 0.0
C299 C 0.56806 0.06346 0.12116 0.0
C300 C 0.58375 0.09296 0.13298 0.0
C301 C 0.58584 0.09874 0.1674 0.0
C302 C 0.59901 0.1145 0.11059 0.0
C303 C 0.6197 0.14613 0.15704 0.0
C304 C 0.61683 0.14084 0.12254 0.0
C305 C 0.60351 0.12506 0.1793 0.0
C306 C 0.48424 0.98442 0.11225 0.0
C307 C 0.51419 0.99354 1.03216 0.0
C308 C 0.40294 0.99113 1.03851 0.0
C309 C 0.39046 0.98645 1.00475 0.0
C310 C 0.39484 1.00983 0.98178 0.0
C311 C 0.37655 0.95787 0.99428 0.0
C312 C 0.37296 0.97582 0.93789 0.0
C313 C 0.3679 0.95257 0.96109 0.0
C314 C 0.38608 1.00458 0.94874 0.0
C315 C 0.49001 0.06656 1.02683 0.0
O316 O 0.49159 0.07205 0.1117 0.0
O317 O 0.44243 0.0471 0.10134 0.0
O318 O 0.5439 0.05049 0.1384 0.0
O319 O 0.56537 0.05933 0.08883 0.0
O320 O 0.51375 0.99028 0.10965 0.0
O321 O 0.47372 1.00758 0.10687 0.0
O322 O 0.48407 0.98884 1.03565 0.0
O323 O 0.53225 1.01517 0.04817 0.0
O324 O 0.40724 1.01839 0.05022 0.0
O325 O 0.42567 0.97774 0.04439 0.0
O326 O 0.46295 0.0538 1.01763 0.0
O327 O 0.49632 0.05264 0.05153 0.0
H328 H 0.57466 0.08241 0.18524 0.0
H329 H 0.59795 0.1107 0.08388 0.0
H330 H 0.6289 0.15677 0.1048 0.0
H331 H 0.60565 0.1282 0.20604 0.0
H332 H 0.40586 1.03205 0.98904 0.0
H333 H 0.37315 0.93951 1.01155 0.0
H334 H 0.35758 0.93022 0.9535 0.0
H335 H 0.39068 1.02288 0.93139 0.0
Gd336 Gd 0.49708 0.49124 0.53511 0.0
Gd337 Gd 0.48857 0.53841 0.58444 0.0
C338 C 0.5227 0.48934 0.61024 0.0
C339 C 0.5184 0.45455 0.49592 0.0
C340 C 0.54755 0.44455 0.49234 0.0
C341 C 0.55328 0.42814 0.46404 0.0
C342 C 0.57057 0.45307 0.51575 0.0
C343 C 0.60523 0.42947 0.48203 0.0
C344 C 0.59915 0.44542 0.51075 0.0
C345 C 0.58192 0.42067 0.45887 0.0
C346 C 0.44129 0.48206 0.56572 0.0
C347 C 0.46341 0.54116 0.50862 0.0
C348 C 0.46722 0.57458 0.62417 0.0
C349 C 0.44464 0.59368 0.62185 0.0
C350 C 0.4462 0.61798 0.64357 0.0
C351 C 0.42183 0.58817 0.5978 0.0
C352 C 0.40263 0.63171 0.61681 0.0
C353 C 0.40097 0.60707 0.59527 0.0
C354 C 0.42536 0.63687 0.64111 0.0
C355 C 0.54464 0.54755 0.5541 0.0
O356 O 0.52741 0.484 0.57816 0.0
O357 O 0.50462 0.50759 0.61967 0.0
O358 O 0.50206 0.44624 0.52289 0.0
O359 O 0.51965 0.48245 0.48885 0.0
O360 O 0.44571 0.47521 0.53474 0.0
O361 O 0.46654 0.49163 0.57913 0.0
O362 O 0.46152 0.54952 0.54026 0.0
O363 O 0.47865 0.5203 0.49973 0.0
O364 O 0.4922 0.58243 0.60612 0.0
O365 O 0.45634 0.54604 0.62303 0.0
O366 O 0.53992 0.55375 0.58527 0.0
O367 O 0.51945 0.53804 0.54038 0.0
H368 H 0.53579 0.42158 0.44564 0.0
H369 H 0.56669 0.46617 0.53748 0.0
H370 H 0.61676 0.45275 0.52882 0.0
H371 H 0.58587 0.40806 0.43671 0.0
H372 H 0.46377 0.62255 0.66218 0.0
H373 H 0.42022 0.56936 0.5809 0.0
H374 H 0.38359 0.6024 0.5765 0.0
H375 H 0.42759 0.65596 0.65766 0.0
Gd376 Gd 0.99415 0.49207 0.07834 0.0
Gd377 Gd 0.98899 0.54917 0.04641 0.0
C378 C 0.0495 0.55011 0.08597 0.0
C379 C 0.0139 0.4459 0.09766 0.0
C380 C 0.0442 0.44058 0.10644 0.0
C381 C 0.04671 0.42079 0.13204 0.0
C382 C 0.0708 0.45593 0.09031 0.0
C383 C 0.10214 0.43178 0.12554 0.0
C384 C 0.09952 0.45146 0.09969 0.0
C385 C 0.07543 0.41644 0.14156 0.0
C386 C 0.9619 0.52555 0.11528 0.0
C387 C 0.93343 0.49095 1.0389 0.0
C388 C 0.96982 0.59568 1.02713 0.0
C389 C 0.94047 0.60128 1.01542 0.0
C390 C 0.92244 0.58143 0.99359 0.0
C391 C 0.9295 0.62596 1.02786 0.0
C392 C 0.88251 0.61077 0.99717 0.0
C393 C 0.90081 0.6307 1.01881 0.0
C394 C 0.89371 0.58615 0.9845 0.0
C395 C 0.02137 0.51566 1.00961 0.0
O396 O 0.04118 0.52082 0.08578 0.0
O397 O 0.03132 0.56707 0.0747 0.0
O398 O 0.00196 0.46308 0.1182 0.0
O399 O 0.0103 0.45166 0.06628 0.0
O400 O 0.95495 0.49678 0.11339 0.0
O401 O 0.9862 0.53501 0.09872 0.0
O402 O 0.94225 0.52019 1.03762 0.0
O403 O 0.9511 0.47405 0.0514 0.0
O404 O 0.98459 0.58015 1.00737 0.0
O405 O 0.96991 0.58803 0.05841 0.0
O406 O 0.02848 0.54441 1.01183 0.0
O407 O -0.00307 0.50627 1.02594 0.0
H408 H 0.02645 0.40885 0.14482 0.0
H409 H 0.06943 0.47157 0.07067 0.0
H410 H 0.1197 0.46383 0.08717 0.0
H411 H 0.07673 0.40091 0.16134 0.0
H412 H 0.93038 0.56209 0.98384 0.0
H413 H 0.94304 0.64147 0.04482 0.0
H414 H 0.89309 0.65017 1.02853 0.0
H415 H 0.88009 0.57028 0.96799 0.0
H416 H 0.27053 0.22624 0.3606 0.0
H417 H 0.08963 0.19067 0.38339 0.0
H418 H 0.21381 0.28975 0.33952 0.0
H419 H 0.14814 0.13935 0.43013 0.0
H420 H 0.13492 0.22664 0.36554 0.0
H421 H 0.22624 0.19391 0.38608 0.0
C422 C 0.24893 0.23366 0.36182 0.0
C423 C 0.24589 0.26069 0.34757 0.0
C424 C 0.13784 0.20762 0.37991 0.0
C425 C 0.19492 0.2234 0.37598 0.0
C426 C 0.11203 0.18701 0.38987 0.0
C427 C 0.11521 0.16203 0.40819 0.0
C428 C 0.16702 0.20296 0.38795 0.0
C429 C 0.14472 0.15846 0.41626 0.0
C430 C 0.22358 0.21507 0.37616 0.0
C431 C 0.21712 0.26885 0.3495 0.0
N432 N 0.16951 0.17858 0.40586 0.0
N433 N 0.1927 0.25015 0.36307 0.0
H434 H 0.36706 0.90803 0.7352 0.0
H435 H 0.34658 1.00916 0.89523 0.0
H436 H 0.32489 0.98496 0.73238 0.0
H437 H 0.3844 0.92961 0.89895 0.0
H438 H 0.33895 1.001 0.83541 0.0
H439 H 0.37488 0.91635 0.79496 0.0
C440 C 0.35973 0.92686 0.74709 0.0
C441 C 0.34531 0.94585 0.72878 0.0
C442 C 0.3488 0.98526 0.84932 0.0
C443 C 0.35377 0.95525 0.79728 0.0
C444 C 0.35323 0.98994 0.88345 0.0
C445 C 0.36616 0.97004 0.9021 0.0
C446 C 0.35749 0.96055 0.83364 0.0
C447 C 0.37402 0.94532 0.88563 0.0
C448 C 0.36396 0.93145 0.78127 0.0
C449 C 0.33581 0.96959 0.74562 0.0
N450 N 0.36968 0.94135 0.85231 0.0
N451 N 0.3402 0.97361 0.77891 0.0
H452 H 0.55418 0.39083 0.78549 0.0
H453 H 0.57389 0.46405 0.60464 0.0
H454 H 0.64223 0.41329 0.73582 0.0
H455 H 0.50397 0.47933 0.67524 0.0
H456 H 0.59639 0.43859 0.64851 0.0
H457 H 0.53221 0.41628 0.74128 0.0
C458 C 0.56885 0.40104 0.76523 0.0
C459 C 0.60012 0.40008 0.76445 0.0
C460 C 0.57615 0.4476 0.65432 0.0
C461 C 0.57506 0.42883 0.71352 0.0
C462 C 0.56325 0.46205 0.62929 0.0
C463 C 0.53708 0.47403 0.63627 0.0
C464 C 0.56237 0.44445 0.68635 0.0
C465 C 0.52429 0.47071 0.66874 0.0
C466 C 0.55635 0.41565 0.7401 0.0
C467 C 0.61808 0.41377 0.73758 0.0
N468 N 0.53687 0.45607 0.69241 0.0
N469 N 0.60529 0.42736 0.71309 0.0
H470 H 0.85462 0.58435 0.27775 0.0
H471 H 0.97689 0.58562 0.12705 0.0
H472 H 0.90562 0.66478 0.23411 0.0
H473 H 0.91423 0.50685 0.15905 0.0
H474 H 0.95335 0.61479 0.16817 0.0
H475 H 0.879 0.55537 0.23731 0.0
C476 C 0.87116 0.59595 0.2599 0.0
C477 C 0.87796 0.62714 0.25942 0.0
C478 C 0.94468 0.59113 0.16616 0.0
C479 C 0.9059 0.59395 0.21265 0.0
C480 C 0.95808 0.57448 0.1426 0.0
C481 C 0.94744 0.54375 0.13947 0.0
C482 C 0.92059 0.57696 0.18704 0.0
C483 C 0.92315 0.53048 0.16054 0.0
C484 C 0.8849 0.57936 0.2366 0.0
C485 C 0.89933 0.64084 0.23527 0.0
N486 N 0.91065 0.5471 0.18344 0.0
N487 N 0.9125 0.62421 0.21298 0.0
H488 H 0.35517 0.20259 0.16527 0.0
H489 H 0.49272 0.11441 0.15343 0.0
H490 H 0.43803 0.22751 0.22098 0.0
H491 H 0.4031 0.07976 0.11509 0.0
H492 H 0.47361 0.15671 0.17708 0.0
H493 H 0.37297 0.15842 0.14493 0.0
C494 C 0.37704 0.19876 0.17337 0.0
C495 C 0.39509 0.2189 0.19494 0.0
C496 C 0.45806 0.13976 0.1637 0.0
C497 C 0.41577 0.16842 0.17135 0.0
C498 C 0.46895 0.11556 0.15018 0.0
C499 C 0.4495 0.09349 0.13215 0.0
C500 C 0.42757 0.14214 0.15891 0.0
C501 C 0.4189 0.09618 0.12886 0.0
C502 C 0.38722 0.17354 0.16165 0.0
C503 C 0.42351 0.21294 0.20401 0.0
N504 N 0.40894 0.12019 0.14188 0.0
N505 N 0.43296 0.18829 0.19215 0.0
H506 H 0.1657 0.90824 0.54985 0.0
H507 H 0.0921 0.05144 0.56644 0.0
H508 H 0.21133 0.99084 0.59382 0.0
H509 H 0.03801 0.96477 0.5466 0.0
H510 H 0.13516 1.02854 0.5798 0.0
H511 H 0.11795 0.92711 0.5508 0.0
C512 C 0.16563 0.93023 0.55993 0.0
C513 C 0.19267 0.94822 0.57121 0.0
C514 C 0.1138 1.01437 0.57303 0.0
C515 C 0.1383 0.96987 0.57228 0.0
C516 C 0.08925 1.02746 0.56545 0.0
C517 C 0.06177 1.00989 0.5552 0.0
C518 C 0.11104 0.98351 0.56961 0.0
C519 C 0.05899 0.97897 0.55442 0.0
C520 C 0.13839 0.94095 0.56049 0.0
C521 C 0.19127 0.97653 0.58396 0.0
N522 N 0.08362 0.9667 0.56094 0.0
N523 N 0.16464 0.98654 0.58388 0.0
H524 H 0.76854 0.3683 0.97925 0.0
H525 H 0.89468 0.51681 1.00197 0.0
H526 H 0.77661 0.44384 0.91455 0.0
H527 H 0.9037 0.43267 1.04315 0.0
H528 H 0.84715 0.49261 0.97603 0.0
H529 H 0.81362 0.39381 1.00919 0.0
C530 C 0.77959 0.39038 0.97157 0.0
C531 C 0.76879 0.4039 0.94426 0.0
C532 C 0.8595 0.47946 0.9908 0.0
C533 C 0.82046 0.43324 0.97844 0.0
C534 C 0.88667 0.49329 1.00573 0.0
C535 C 0.90351 0.4768 1.02464 0.0
C536 C 0.8487 0.44888 0.99509 0.0
C537 C 0.8917 0.44632 1.02866 0.0
C538 C 0.80545 0.40483 0.98852 0.0
C539 C 0.78428 0.43244 0.93522 0.0
N540 N 0.86507 0.43339 1.01406 0.0
N541 N 0.80922 0.44615 0.95227 0.0
H542 H 0.68283 0.60146 0.39884 0.0
H543 H 0.59865 0.57796 0.57863 0.0
H544 H 0.72074 0.64446 0.48898 0.0
H545 H 0.55695 0.54212 0.48716 0.0
H546 H 0.6453 0.59891 0.54693 0.0
H547 H 0.63862 0.57606 0.43137 0.0
C548 C 0.68209 0.60535 0.42553 0.0
C549 C 0.70572 0.62527 0.44107 0.0
C550 C 0.62602 0.58636 0.53377 0.0
C551 C 0.65466 0.59633 0.4786 0.0
C552 C 0.59938 0.57432 0.55188 0.0
C553 C 0.57378 0.5584 0.5355 0.0
C554 C 0.6272 0.58242 0.49893 0.0
C555 C 0.57609 0.55433 0.5008 0.0
C556 C 0.65665 0.59096 0.44408 0.0
C557 C 0.70302 0.62966 0.47574 0.0
N558 N 0.60224 0.56633 0.48369 0.0
N559 N 0.67803 0.61539 0.49325 0.0
H560 H 0.28138 0.38591 0.13388 0.0
H561 H 0.12243 0.42971 0.18907 0.0
H562 H 0.25529 0.4023 0.2358 0.0
H563 H 0.15117 0.42415 0.08602 0.0
H564 H 0.17195 0.42083 0.20622 0.0
H565 H 0.23496 0.40138 0.1152 0.0
C566 C 0.26609 0.39304 0.15228 0.0
C567 C 0.27232 0.39284 0.18646 0.0
C568 C 0.16755 0.42167 0.17983 0.0
C569 C 0.21916 0.41035 0.16533 0.0
C570 C 0.13919 0.42654 0.17005 0.0
C571 C 0.1326 0.42743 0.13608 0.0
C572 C 0.18952 0.4174 0.1555 0.0
C573 C 0.15538 0.42374 0.11248 0.0
C574 C 0.23965 0.40191 0.14161 0.0
C575 C 0.25177 0.40249 0.20918 0.0
N576 N 0.18277 0.41866 0.12263 0.0
N577 N 0.22607 0.4106 0.19823 0.0
H578 H 0.62962 0.22029 0.97197 0.0
H579 H 0.47421 0.09852 0.97586 0.0
H580 H 0.55049 0.22656 0.91473 0.0
H581 H 0.54701 0.09752 0.04435 0.0
H582 H 0.50296 0.14453 0.95208 0.0
H583 H 0.60096 0.17492 0.99777 0.0
C584 C 0.60622 0.21218 0.96479 0.0
C585 C 0.59255 0.22739 0.94097 0.0
C586 C 0.51276 0.13434 0.9723 0.0
C587 C 0.55951 0.17522 0.97055 0.0
C588 C 0.49636 0.10796 0.98585 0.0
C589 C 0.50826 0.09408 1.01208 0.0
C590 C 0.54151 0.14708 0.98487 0.0
C591 C 0.53705 0.10742 1.02406 0.0
C592 C 0.58983 0.18629 0.97967 0.0
C593 C 0.56198 0.21589 0.93313 0.0
N594 N 0.55273 0.13313 1.01032 0.0
N595 N 0.54664 0.19051 0.94768 0.0
H596 H 0.90146 0.79431 0.45036 0.0
H597 H 0.93383 0.9718 0.44111 0.0
H598 H 0.85653 0.84128 0.38022 0.0
H599 H 0.94857 0.9238 0.52918 0.0
H600 H 0.91118 0.92437 0.41429 0.0
H601 H 0.92447 0.84177 0.47566 0.0
C602 C 0.89621 0.81443 0.44025 0.0
C603 C 0.87673 0.81336 0.41295 0.0
C604 C 0.91939 0.92432 0.4395 0.0
C605 C 0.90393 0.86827 0.44163 0.0
C606 C 0.9324 0.95137 0.45478 0.0
C607 C 0.94307 0.95191 0.48752 0.0
C608 C 0.91752 0.89756 0.45685 0.0
C609 C 0.94053 0.92463 0.504 0.0
C610 C 0.90959 0.84164 0.45468 0.0
C611 C 0.8717 0.84065 0.40074 0.0
N612 N 0.92822 0.89869 0.48848 0.0
N613 N 0.88522 0.86686 0.41505 0.0
H614 H 0.31544 0.76818 0.54042 0.0
H615 H 0.37413 0.6588 0.6661 0.0
H616 H 0.32755 0.78489 0.64607 0.0
H617 H 0.38395 0.65306 0.55891 0.0
H618 H 0.34579 0.69874 0.65947 0.0
H619 H 0.32979 0.71984 0.54735 0.0
C620 C 0.32087 0.76166 0.56508 0.0
C621 C 0.3206 0.78085 0.59263 0.0
C622 C 0.35387 0.68852 0.63739 0.0
C623 C 0.33658 0.7255 0.60072 0.0
C624 C 0.37015 0.66582 0.64116 0.0
C625 C 0.38188 0.65296 0.61303 0.0
C626 C 0.34933 0.69847 0.60528 0.0
C627 C 0.37533 0.66236 0.58128 0.0
C628 C 0.32889 0.73401 0.56902 0.0
C629 C 0.32714 0.77086 0.62412 0.0
N630 N 0.35978 0.68482 0.57826 0.0
N631 N 0.3351 0.74401 0.62723 0.0
H632 H 0.74985 0.79726 0.74757 0.0
H633 H 0.81958 0.95234 0.6676 0.0
H634 H 0.70553 0.87285 0.75118 0.0
H635 H 0.86181 0.87561 0.65866 0.0
H636 H 0.77262 0.92059 0.68802 0.0
H637 H 0.78467 0.82156 0.70406 0.0
C638 C 0.74678 0.81856 0.73844 0.0
C639 C 0.72522 0.83339 0.75353 0.0
C640 C 0.79196 0.91055 0.68118 0.0
C641 C 0.76554 0.86167 0.70447 0.0
C642 C 0.81882 0.92871 0.66974 0.0
C643 C 0.84472 0.91661 0.66217 0.0
C644 C 0.79115 0.8801 0.68559 0.0
C645 C 0.84236 0.88581 0.66453 0.0
C646 C 0.76689 0.83257 0.71378 0.0
C647 C 0.72237 0.861 0.74077 0.0
N648 N 0.81619 0.86865 0.67664 0.0
N649 N 0.74274 0.87453 0.71747 0.0
H650 H 0.71978 0.26244 0.30029 0.0
H651 H 0.67776 0.16849 0.13404 0.0
H652 H 0.78625 0.24997 0.22422 0.0
H653 H 0.61183 0.18222 0.21025 0.0
H654 H 0.71636 0.2053 0.16165 0.0
H655 H 0.67894 0.24005 0.26318 0.0
C656 C 0.72572 0.25519 0.27559 0.0
C657 C 0.75638 0.25756 0.26545 0.0
C658 C 0.69334 0.2006 0.17207 0.0
C659 C 0.70981 0.23179 0.22285 0.0
C660 C 0.67121 0.17973 0.15617 0.0
C661 C 0.64162 0.17197 0.17014 0.0
C662 C 0.68586 0.21369 0.20222 0.0
C663 C 0.63453 0.18707 0.19903 0.0
C664 C 0.70241 0.2425 0.25436 0.0
C665 C 0.76286 0.24841 0.233 0.0
N666 N 0.65658 0.20693 0.21433 0.0
N667 N 0.73975 0.23549 0.21299 0.0
H668 H 0.37407 0.65778 0.39018 0.0
H669 H 0.46098 0.52786 0.44186 0.0
H670 H 0.40193 0.59452 0.32132 0.0
H671 H 0.4327 0.58813 0.51424 0.0
H672 H 0.43888 0.55249 0.39796 0.0
H673 H 0.39515 0.63356 0.43606 0.0
C674 C 0.38463 0.63889 0.3846 0.0
C675 C 0.3859 0.62815 0.35163 0.0
C676 C 0.43739 0.5604 0.4234 0.0
C677 C 0.41003 0.60018 0.40425 0.0
C678 C 0.45006 0.54627 0.44865 0.0
C679 C 0.44884 0.55584 0.48202 0.0
C680 C 0.42327 0.58454 0.43121 0.0
C681 C 0.43424 0.5799 0.48895 0.0
C682 C 0.39653 0.62497 0.4109 0.0
C683 C 0.39973 0.60338 0.34622 0.0
N684 N 0.42211 0.59344 0.46379 0.0
N685 N 0.41117 0.59038 0.37209 0.0
H686 H 0.13324 0.45898 0.85041 0.0
H687 H 0.00286 0.45681 0.99277 0.0
H688 H 0.0611 0.38324 0.86893 0.0
H689 H 0.07132 0.53406 0.96894 0.0
H690 H 0.02479 0.42886 0.94901 0.0
H691 H 0.11136 0.48639 0.89427 0.0
C692 C 0.11263 0.44812 0.86339 0.0
C693 C 0.09908 0.41861 0.85566 0.0
C694 C 0.03507 0.4519 0.95337 0.0
C695 C 0.07406 0.44997 0.90677 0.0
C696 C 0.02261 0.46784 0.97845 0.0
C697 C 0.03524 0.49785 0.98449 0.0
C698 C 0.06044 0.46602 0.93418 0.0
C699 C 0.06079 0.511 0.96511 0.0
C700 C 0.10026 0.46378 0.88873 0.0
C701 C 0.07269 0.40574 0.87412 0.0
N702 N 0.07248 0.49507 0.94087 0.0
N703 N 0.06112 0.42143 0.89872 0.0
H704 H 0.63948 0.88047 0.97963 0.0
H705 H 0.48577 0.94371 0.99824 0.0
H706 H 0.55668 0.83863 0.93108 0.0
H707 H 0.57503 0.99308 1.02351 0.0
H708 H 0.50992 0.9044 0.97426 0.0
H709 H 0.61453 0.92052 0.99839 0.0
C710 C 0.61583 0.87949 0.97331 0.0
C711 C 0.59999 0.85594 0.95413 0.0
C712 C 0.52416 0.92401 0.98476 0.0
C713 C 0.57137 0.90229 0.97501 0.0
C714 C 0.51043 0.94651 0.99838 0.0
C715 C 0.52837 0.97168 1.0132 0.0
C716 C 0.55597 0.92663 0.98627 0.0
C717 C 0.5602 0.97406 1.01259 0.0
C718 C 0.60171 0.90261 0.98368 0.0
C719 C 0.56966 0.85635 0.9459 0.0
N720 N 0.5729 0.95171 0.99969 0.0
N721 N 0.55622 0.87913 0.95655 0.0
H722 H 0.90582 0.21697 0.48265 0.0
H723 H 0.89091 0.04153 0.48549 0.0
H724 H 0.84567 0.15877 0.41689 0.0
H725 H 0.93822 0.10217 0.55847 0.0
H726 H 0.86967 0.08261 0.46248 0.0
H727 H 0.91426 0.17407 0.51297 0.0
C728 C 0.89403 0.1952 0.47477 0.0
C729 C 0.87503 0.19163 0.44703 0.0
C730 C 0.88417 0.08671 0.48399 0.0
C731 C 0.88525 0.14192 0.48143 0.0
C732 C 0.896 0.06327 0.49721 0.0
C733 C 0.91623 0.06873 0.52373 0.0
C734 C 0.89292 0.11549 0.49751 0.0
C735 C 0.92272 0.09723 0.53786 0.0
C736 C 0.89899 0.17057 0.49207 0.0
C737 C 0.86097 0.16262 0.43772 0.0
N738 N 0.91135 0.11957 0.52439 0.0
N739 N 0.86657 0.13884 0.45471 0.0
H740 H 0.2147 0.67261 0.14343 0.0
H741 H 0.08968 0.52338 0.11974 0.0
H742 H 0.21611 0.59216 0.1972 0.0
H743 H 0.07773 0.60891 0.08504 0.0
H744 H 0.1379 0.5472 0.14473 0.0
H745 H 0.16635 0.64882 0.11867 0.0
C746 C 0.20485 0.64993 0.15004 0.0
C747 C 0.21958 0.6344 0.17248 0.0
C748 C 0.12472 0.56075 0.13165 0.0
C749 C 0.16409 0.60688 0.14401 0.0
C750 C 0.0972 0.54714 0.11721 0.0
C751 C 0.07946 0.56412 0.10021 0.0
C752 C 0.13488 0.59159 0.12889 0.0
C753 C 0.0905 0.59487 0.09793 0.0
C754 C 0.17716 0.63638 0.13597 0.0
C755 C 0.20548 0.60512 0.18031 0.0
N756 N 0.11746 0.60755 0.11199 0.0
N757 N 0.17869 0.59228 0.16597 0.0
H758 H 0.30565 0.41735 0.71796 0.0
H759 H 0.3841 0.46349 0.54065 0.0
H760 H 0.25305 0.42662 0.63092 0.0
H761 H 0.43161 0.48107 0.63338 0.0
H762 H 0.3361 0.44724 0.57234 0.0
H763 H 0.35212 0.43827 0.68678 0.0
C764 C 0.30363 0.42411 0.69247 0.0
C765 C 0.27496 0.42015 0.67732 0.0
C766 C 0.357 0.45481 0.58574 0.0
C767 C 0.32883 0.4435 0.64092 0.0
C768 C 0.38439 0.46401 0.56767 0.0
C769 C 0.41188 0.47353 0.58441 0.0
C770 C 0.35717 0.45473 0.62082 0.0
C771 C 0.41095 0.47388 0.61946 0.0
C772 C 0.33038 0.43589 0.67456 0.0
C773 C 0.27443 0.42869 0.64373 0.0
N774 N 0.38414 0.46439 0.63646 0.0
N775 N 0.30089 0.43974 0.62667 0.0
H776 H 0.7402 0.65878 0.88196 0.0
H777 H 0.83889 0.62941 1.03682 0.0
H778 H 0.72793 0.69124 0.98192 0.0
H779 H 0.85702 0.60442 0.93523 0.0
H780 H 0.79168 0.64339 1.01905 0.0
H781 H 0.77568 0.62934 0.90314 0.0
C782 C 0.74451 0.65925 0.90847 0.0
C783 C 0.73146 0.67788 0.9301 0.0
C784 C 0.8058 0.63454 1.00069 0.0
C785 C 0.7722 0.64447 0.95446 0.0
C786 C 0.83286 0.62674 1.01078 0.0
C787 C 0.85221 0.61621 0.98737 0.0
C788 C 0.79804 0.63195 0.96688 0.0
C789 C 0.84284 0.61247 0.95413 0.0
C790 C 0.76479 0.64248 0.92054 0.0
C791 C 0.73742 0.67723 0.9643 0.0
N792 N 0.81661 0.62067 0.94481 0.0
N793 N 0.75775 0.66121 0.97532 0.0
H794 H 0.43906 0.80043 0.16904 0.0
H795 H 0.4235 0.96863 0.13319 0.0
H796 H 0.36048 0.83549 0.20294 0.0
H797 H 0.50551 0.9334 0.11687 0.0
H798 H 0.39762 0.91977 0.15465 0.0
H799 H 0.46148 0.84862 0.14615 0.0
C800 C 0.42656 0.81831 0.1721 0.0
C801 C 0.39789 0.81368 0.18858 0.0
C802 C 0.42126 0.92282 0.14627 0.0
C803 C 0.4235 0.86952 0.16132 0.0
C804 C 0.43596 0.95063 0.13393 0.0
C805 C 0.46676 0.95514 0.12342 0.0
C806 C 0.43745 0.8994 0.14775 0.0
C807 C 0.48183 0.93106 0.1249 0.0
C808 C 0.43935 0.84593 0.15866 0.0
C809 C 0.38256 0.83781 0.19045 0.0
N810 N 0.4671 0.90442 0.13679 0.0
N811 N 0.39556 0.86465 0.1771 0.0
H812 H 0.06642 0.22688 0.71746 0.0
H813 H 0.05025 0.13649 0.54437 0.0
H814 H 0.12485 0.25295 0.63143 0.0
H815 H 0.01386 0.09755 0.63781 0.0
H816 H 0.07333 0.18169 0.57446 0.0
H817 H 0.04209 0.18201 0.68715 0.0
C818 C 0.07394 0.22331 0.6921 0.0
C819 C 0.09778 0.24371 0.67701 0.0
C820 C 0.06034 0.16324 0.5884 0.0
C821 C 0.07005 0.19236 0.64217 0.0
C822 C 0.04708 0.13741 0.57122 0.0
C823 C 0.03009 0.11307 0.58855 0.0
C824 C 0.05629 0.16506 0.62319 0.0
C825 C 0.02688 0.11564 0.6234 0.0
C826 C 0.06021 0.19758 0.67491 0.0
C827 C 0.10677 0.23773 0.64417 0.0
N828 N 0.03969 0.14119 0.63952 0.0
N829 N 0.09287 0.21272 0.62786 0.0
H830 H 0.77052 0.39579 0.38725 0.0
H831 H 0.64183 0.40842 0.52612 0.0
H832 H 0.76815 0.35706 0.48507 0.0
H833 H 0.63862 0.4353 0.4237 0.0
H834 H 0.69196 0.39586 0.51434 0.0
H835 H 0.72666 0.41762 0.40347 0.0
C836 C 0.76118 0.39238 0.4124 0.0
C837 C 0.77292 0.37441 0.43479 0.0
C838 C 0.68033 0.40463 0.49451 0.0
C839 C 0.72218 0.3988 0.45325 0.0
C840 C 0.6518 0.41187 0.50123 0.0
C841 C 0.63596 0.42261 0.47574 0.0
C842 C 0.69314 0.40836 0.46212 0.0
C843 C 0.64981 0.42655 0.44391 0.0
C844 C 0.7359 0.4046 0.42153 0.0
C845 C 0.75953 0.37041 0.46688 0.0
N846 N 0.67756 0.41935 0.43799 0.0
N847 N 0.73469 0.3823 0.47508 0.0
loop_
_geom_bond_atom_site_label_1
_geom_bond_atom_site_label_2
_geom_bond_distance
_geom_bond_site_symmetry_2
_ccdc_geom_bond_type
P0 O11 1.490 . S
P0 C14 1.812 . S
P0 C20 1.803 . S
P0 C26 1.819 . S
H1 C15 0.941 . S
H2 C16 0.939 . S
H3 C18 0.940 . S
H4 C19 0.940 . S
H5 C21 0.939 . S
H6 C22 0.942 . S
H7 C24 0.940 . S
H8 C25 0.939 . S
H9 C27 0.941 . S
H10 C31 0.939 . S
O11 P0 1.490 . S
H12 C28 0.939 . S
H13 C30 0.940 . S
C14 P0 1.812 . S
C14 C15 1.389 . S
C14 C19 1.391 . S
C15 H1 0.941 . S
C15 C14 1.389 . S
C15 C16 1.397 . S
C16 H2 0.939 . S
C16 C15 1.397 . S
C16 C17 1.378 . S
C17 C16 1.378 . S
C17 C18 1.378 . S
C18 H3 0.940 . S
C18 C17 1.378 . S
C18 C19 1.396 . S
C19 H4 0.940 . S
C19 C14 1.391 . S
C19 C18 1.396 . S
C20 P0 1.803 . S
C20 C21 1.378 . S
C20 C25 1.400 . S
C21 H5 0.939 . S
C21 C20 1.378 . S
C21 C22 1.361 . S
C22 H6 0.942 . S
C22 C21 1.361 . S
C22 C23 1.369 . S
C23 C22 1.369 . S
C23 C24 1.404 . S
C24 H7 0.940 . S
C24 C23 1.404 . S
C24 C25 1.389 . S
C25 H8 0.939 . S
C25 C20 1.400 . S
C25 C24 1.389 . S
C26 P0 1.819 . S
C26 C27 1.391 . S
C26 C31 1.391 . S
C27 H9 0.941 . S
C27 C26 1.391 . S
C27 C28 1.396 . S
C28 H12 0.939 . S
C28 C27 1.396 . S
C28 C29 1.397 . S
C29 C28 1.397 . S
C29 C30 1.385 . S
C30 H13 0.940 . S
C30 C29 1.385 . S
C30 C31 1.388 . S
C31 H10 0.939 . S
C31 C26 1.391 . S
C31 C30 1.388 . S
P32 O43 1.490 . S
P32 C46 1.812 . S
P32 C52 1.803 . S
P32 C58 1.819 . S
H33 C47 0.941 . S
H34 C48 0.939 . S
H35 C50 0.940 . S
H36 C51 0.940 . S
H37 C53 0.939 . S
H38 C54 0.942 . S
H39 C56 0.940 . S
H40 C57 0.939 . S
H41 C59 0.941 . S
H42 C63 0.939 . S
O43 P32 1.490 . S
H44 C60 0.939 . S
H45 C62 0.940 . S
C46 P32 1.812 . S
C46 C47 1.389 . S
C46 C51 1.391 . S
C47 H33 0.941 . S
C47 C46 1.389 . S
C47 C48 1.397 . S
C48 H34 0.939 . S
C48 C47 1.397 . S
C48 C49 1.378 . S
C49 C48 1.378 . S
C49 C50 1.378 . S
C50 H35 0.940 . S
C50 C49 1.378 . S
C50 C51 1.396 . S
C51 H36 0.940 . S
C51 C46 1.391 . S
C51 C50 1.396 . S
C52 P32 1.803 . S
C52 C53 1.378 . S
C52 C57 1.400 . S
C53 H37 0.939 . S
C53 C52 1.378 . S
C53 C54 1.361 . S
C54 H38 0.942 . S
C54 C53 1.361 . S
C54 C55 1.369 . S
C55 C54 1.369 . S
C55 C56 1.404 . S
C56 H39 0.940 . S
C56 C55 1.404 . S
C56 C57 1.389 . S
C57 H40 0.939 . S
C57 C52 1.400 . S
C57 C56 1.389 . S
C58 P32 1.819 . S
C58 C59 1.391 . S
C58 C63 1.391 . S
C59 H41 0.941 . S
C59 C58 1.391 . S
C59 C60 1.396 . S
C60 H44 0.939 . S
C60 C59 1.396 . S
C60 C61 1.397 . S
C61 C60 1.397 . S
C61 C62 1.385 . S
C62 H45 0.940 . S
C62 C61 1.385 . S
C62 C63 1.388 . S
C63 H42 0.939 . S
C63 C58 1.391 . S
C63 C62 1.388 . S
P64 O75 1.490 . S
P64 C78 1.812 . S
P64 C84 1.803 . S
P64 C90 1.819 . S
H65 C79 0.941 . S
H66 C80 0.939 . S
H67 C82 0.940 . S
H68 C83 0.940 . S
H69 C85 0.939 . S
H70 C86 0.942 . S
H71 C88 0.940 . S
H72 C89 0.939 . S
H73 C91 0.941 . S
H74 C95 0.939 . S
O75 P64 1.490 . S
H76 C92 0.939 . S
H77 C94 0.940 . S
C78 P64 1.812 . S
C78 C79 1.389 . S
C78 C83 1.391 . S
C79 H65 0.941 . S
C79 C78 1.389 . S
C79 C80 1.397 . S
C80 H66 0.939 . S
C80 C79 1.397 . S
C80 C81 1.378 . S
C81 C80 1.378 . S
C81 C82 1.378 . S
C82 H67 0.940 . S
C82 C81 1.378 . S
C82 C83 1.396 . S
C83 H68 0.940 . S
C83 C78 1.391 . S
C83 C82 1.396 . S
C84 P64 1.803 . S
C84 C85 1.378 . S
C84 C89 1.400 . S
C85 H69 0.939 . S
C85 C84 1.378 . S
C85 C86 1.361 . S
C86 H70 0.942 . S
C86 C85 1.361 . S
C86 C87 1.369 . S
C87 C86 1.369 . S
C87 C88 1.404 . S
C88 H71 0.940 . S
C88 C87 1.404 . S
C88 C89 1.389 . S
C89 H72 0.939 . S
C89 C84 1.400 . S
C89 C88 1.389 . S
C90 P64 1.819 . S
C90 C91 1.391 . S
C90 C95 1.391 . S
C91 H73 0.941 . S
C91 C90 1.391 . S
C91 C92 1.396 . S
C92 H76 0.939 . S
C92 C91 1.396 . S
C92 C93 1.397 . S
C93 C92 1.397 . S
C93 C94 1.385 . S
C94 H77 0.940 . S
C94 C93 1.385 . S
C94 C95 1.388 . S
C95 H74 0.939 . S
C95 C90 1.391 . S
C95 C94 1.388 . S
P96 O107 1.490 . S
P96 C110 1.812 . S
P96 C116 1.803 . S
P96 C122 1.819 . S
H97 C111 0.941 . S
H98 C112 0.939 . S
H99 C114 0.940 . S
H100 C115 0.940 . S
H101 C117 0.939 . S
H102 C118 0.942 . S
H103 C120 0.940 . S
H104 C121 0.939 . S
H105 C123 0.941 . S
H106 C127 0.939 . S
O107 P96 1.490 . S
H108 C124 0.939 . S
H109 C126 0.940 . S
C110 P96 1.812 . S
C110 C111 1.389 . S
C110 C115 1.391 . S
C111 H97 0.941 . S
C111 C110 1.389 . S
C111 C112 1.397 . S
C112 H98 0.939 . S
C112 C111 1.397 . S
C112 C113 1.378 . S
C113 C112 1.378 . S
C113 C114 1.378 . S
C114 H99 0.940 . S
C114 C113 1.378 . S
C114 C115 1.396 . S
C115 H100 0.940 . S
C115 C110 1.391 . S
C115 C114 1.396 . S
C116 P96 1.803 . S
C116 C117 1.378 . S
C116 C121 1.400 . S
C117 H101 0.939 . S
C117 C116 1.378 . S
C117 C118 1.361 . S
C118 H102 0.942 . S
C118 C117 1.361 . S
C118 C119 1.369 . S
C119 C118 1.369 . S
C119 C120 1.404 . S
C120 H103 0.940 . S
C120 C119 1.404 . S
C120 C121 1.389 . S
C121 H104 0.939 . S
C121 C116 1.400 . S
C121 C120 1.389 . S
C122 P96 1.819 . S
C122 C123 1.391 . S
C122 C127 1.391 . S
C123 H105 0.941 . S
C123 C122 1.391 . S
C123 C124 1.396 . S
C124 H108 0.939 . S
C124 C123 1.396 . S
C124 C125 1.397 . S
C125 C124 1.397 . S
C125 C126 1.385 . S
C126 H109 0.940 . S
C126 C125 1.385 . S
C126 C127 1.388 . S
C127 H106 0.939 . S
C127 C122 1.391 . S
C127 C126 1.388 . S
P128 O139 1.490 . S
P128 C142 1.812 . S
P128 C148 1.803 . S
P128 C154 1.819 . S
H129 C143 0.941 . S
H130 C144 0.939 . S
H131 C146 0.940 . S
H132 C147 0.940 . S
H133 C149 0.939 . S
H134 C150 0.942 . S
H135 C152 0.940 . S
H136 C153 0.939 . S
H137 C155 0.941 . S
H138 C159 0.939 . S
O139 P128 1.490 . S
H140 C156 0.939 . S
H141 C158 0.940 . S
C142 P128 1.812 . S
C142 C143 1.389 . S
C142 C147 1.391 . S
C143 H129 0.941 . S
C143 C142 1.389 . S
C143 C144 1.397 . S
C144 H130 0.939 . S
C144 C143 1.397 . S
C144 C145 1.378 . S
C145 C144 1.378 . S
C145 C146 1.378 . S
C146 H131 0.940 . S
C146 C145 1.378 . S
C146 C147 1.396 . S
C147 H132 0.940 . S
C147 C142 1.391 . S
C147 C146 1.396 . S
C148 P128 1.803 . S
C148 C149 1.378 . S
C148 C153 1.400 . S
C149 H133 0.939 . S
C149 C148 1.378 . S
C149 C150 1.361 . S
C150 H134 0.942 . S
C150 C149 1.361 . S
C150 C151 1.369 . S
C151 C150 1.369 . S
C151 C152 1.404 . S
C152 H135 0.940 . S
C152 C151 1.404 . S
C152 C153 1.389 . S
C153 H136 0.939 . S
C153 C148 1.400 . S
C153 C152 1.389 . S
C154 P128 1.819 . S
C154 C155 1.391 . S
C154 C159 1.391 . S
C155 H137 0.941 . S
C155 C154 1.391 . S
C155 C156 1.396 . S
C156 H140 0.939 . S
C156 C155 1.396 . S
C156 C157 1.397 . S
C157 C156 1.397 . S
C157 C158 1.385 . S
C158 H141 0.940 . S
C158 C157 1.385 . S
C158 C159 1.388 . S
C159 H138 0.939 . S
C159 C154 1.391 . S
C159 C158 1.388 . S
P160 O171 1.490 . S
P160 C174 1.812 . S
P160 C180 1.803 . S
P160 C186 1.819 . S
H161 C175 0.941 . S
H162 C176 0.939 . S
H163 C178 0.940 . S
H164 C179 0.940 . S
H165 C181 0.939 . S
H166 C182 0.942 . S
H167 C184 0.940 . S
H168 C185 0.939 . S
H169 C187 0.941 . S
H170 C191 0.939 . S
O171 P160 1.490 . S
H172 C188 0.939 . S
H173 C190 0.940 . S
C174 P160 1.812 . S
C174 C175 1.389 . S
C174 C179 1.391 . S
C175 H161 0.941 . S
C175 C174 1.389 . S
C175 C176 1.397 . S
C176 H162 0.939 . S
C176 C175 1.397 . S
C176 C177 1.378 . S
C177 C176 1.378 . S
C177 C178 1.378 . S
C178 H163 0.940 . S
C178 C177 1.378 . S
C178 C179 1.396 . S
C179 H164 0.940 . S
C179 C174 1.391 . S
C179 C178 1.396 . S
C180 P160 1.803 . S
C180 C181 1.378 . S
C180 C185 1.400 . S
C181 H165 0.939 . S
C181 C180 1.378 . S
C181 C182 1.361 . S
C182 H166 0.942 . S
C182 C181 1.361 . S
C182 C183 1.369 . S
C183 C182 1.369 . S
C183 C184 1.404 . S
C184 H167 0.940 . S
C184 C183 1.404 . S
C184 C185 1.389 . S
C185 H168 0.939 . S
C185 C180 1.400 . S
C185 C184 1.389 . S
C186 P160 1.819 . S
C186 C187 1.391 . S
C186 C191 1.391 . S
C187 H169 0.941 . S
C187 C186 1.391 . S
C187 C188 1.396 . S
C188 H172 0.939 . S
C188 C187 1.396 . S
C188 C189 1.397 . S
C189 C188 1.397 . S
C189 C190 1.385 . S
C190 H173 0.940 . S
C190 C189 1.385 . S
C190 C191 1.388 . S
C191 H170 0.939 . S
C191 C186 1.391 . S
C191 C190 1.388 . S
P192 O203 1.490 . S
P192 C206 1.812 . S
P192 C212 1.803 . S
P192 C218 1.819 . S
H193 C207 0.941 . S
H194 C208 0.939 . S
H195 C210 0.940 . S
H196 C211 0.940 . S
H197 C213 0.939 . S
H198 C214 0.942 . S
H199 C216 0.940 . S
H200 C217 0.939 . S
H201 C219 0.941 . S
H202 C223 0.939 . S
O203 P192 1.490 . S
H204 C220 0.939 . S
H205 C222 0.940 . S
C206 P192 1.812 . S
C206 C207 1.389 . S
C206 C211 1.391 . S
C207 H193 0.941 . S
C207 C206 1.389 . S
C207 C208 1.397 . S
C208 H194 0.939 . S
C208 C207 1.397 . S
C208 C209 1.378 . S
C209 C208 1.378 . S
C209 C210 1.378 . S
C210 H195 0.940 . S
C210 C209 1.378 . S
C210 C211 1.396 . S
C211 H196 0.940 . S
C211 C206 1.391 . S
C211 C210 1.396 . S
C212 P192 1.803 . S
C212 C213 1.378 . S
C212 C217 1.400 . S
C213 H197 0.939 . S
C213 C212 1.378 . S
C213 C214 1.361 . S
C214 H198 0.942 . S
C214 C213 1.361 . S
C214 C215 1.369 . S
C215 C214 1.369 . S
C215 C216 1.404 . S
C216 H199 0.940 . S
C216 C215 1.404 . S
C216 C217 1.389 . S
C217 H200 0.939 . S
C217 C212 1.400 . S
C217 C216 1.389 . S
C218 P192 1.819 . S
C218 C219 1.391 . S
C218 C223 1.391 . S
C219 H201 0.941 . S
C219 C218 1.391 . S
C219 C220 1.396 . S
C220 H204 0.939 . S
C220 C219 1.396 . S
C220 C221 1.397 . S
C221 C220 1.397 . S
C221 C222 1.385 . S
C222 H205 0.940 . S
C222 C221 1.385 . S
C222 C223 1.388 . S
C223 H202 0.939 . S
C223 C218 1.391 . S
C223 C222 1.388 . S
P224 O235 1.490 . S
P224 C238 1.812 . S
P224 C244 1.803 . S
P224 C250 1.819 . S
H225 C239 0.941 . S
H226 C240 0.939 . S
H227 C242 0.940 . S
H228 C243 0.940 . S
H229 C245 0.939 . S
H230 C246 0.942 . S
H231 C248 0.940 . S
H232 C249 0.939 . S
H233 C251 0.941 . S
H234 C255 0.939 . S
O235 P224 1.490 . S
H236 C252 0.939 . S
H237 C254 0.940 . S
C238 P224 1.812 . S
C238 C239 1.389 . S
C238 C243 1.391 . S
C239 H225 0.941 . S
C239 C238 1.389 . S
C239 C240 1.397 . S
C240 H226 0.939 . S
C240 C239 1.397 . S
C240 C241 1.378 . S
C241 C240 1.378 . S
C241 C242 1.378 . S
C242 H227 0.940 . S
C242 C241 1.378 . S
C242 C243 1.396 . S
C243 H228 0.940 . S
C243 C238 1.391 . S
C243 C242 1.396 . S
C244 P224 1.803 . S
C244 C245 1.378 . S
C244 C249 1.400 . S
C245 H229 0.939 . S
C245 C244 1.378 . S
C245 C246 1.361 . S
C246 H230 0.942 . S
C246 C245 1.361 . S
C246 C247 1.369 . S
C247 C246 1.369 . S
C247 C248 1.404 . S
C248 H231 0.940 . S
C248 C247 1.404 . S
C248 C249 1.389 . S
C249 H232 0.939 . S
C249 C244 1.400 . S
C249 C248 1.389 . S
C250 P224 1.819 . S
C250 C251 1.391 . S
C250 C255 1.391 . S
C251 H233 0.941 . S
C251 C250 1.391 . S
C251 C252 1.396 . S
C252 H236 0.939 . S
C252 C251 1.396 . S
C252 C253 1.397 . S
C253 C252 1.397 . S
C253 C254 1.385 . S
C254 H237 0.940 . S
C254 C253 1.385 . S
C254 C255 1.388 . S
C255 H234 0.939 . S
C255 C250 1.391 . S
C255 C254 1.388 . S
Gd256 C259 2.818 . S
Gd256 O276 2.377 . S
Gd256 O278 2.448 . S
Gd256 O279 2.506 . S
Gd256 O280 2.435 1_545 S
Gd256 O281 2.717 1_545 S
Gd256 O283 2.395 1_445 S
Gd256 O287 2.327 1_455 S
Gd257 C268 2.818 . S
Gd257 O277 2.395 1_665 S
Gd257 O281 2.327 1_655 S
Gd257 O282 2.377 . S
Gd257 O284 2.448 . S
Gd257 O285 2.506 . S
Gd257 O286 2.435 1_565 S
Gd257 O287 2.717 1_565 S
C258 O276 1.240 . S
C258 O277 1.240 . S
C259 Gd256 2.818 . S
C259 C260 1.510 . S
C259 O278 1.249 . S
C259 O279 1.252 . S
C260 C259 1.510 . S
C260 C261 1.404 . S
C260 C262 1.352 . S
C261 C260 1.404 . S
C261 C265 1.389 . S
C261 H288 0.930 . S
C262 C260 1.352 . S
C262 C264 1.374 . S
C262 H289 0.931 . S
C263 C264 1.359 . S
C263 C265 1.364 . S
C264 C262 1.374 . S
C264 C263 1.359 . S
C264 H290 0.931 . S
C265 C261 1.389 . S
C265 C263 1.364 . S
C265 H291 0.931 . S
C266 O280 1.256 . S
C266 O281 1.257 . S
C267 O282 1.240 . S
C267 O283 1.240 . S
C268 Gd257 2.818 . S
C268 C269 1.510 . S
C268 O284 1.249 . S
C268 O285 1.252 . S
C269 C268 1.510 . S
C269 C270 1.404 . S
C269 C271 1.352 . S
C270 C269 1.404 . S
C270 C274 1.389 . S
C270 H292 0.930 . S
C271 C269 1.352 . S
C271 C273 1.374 . S
C271 H293 0.931 . S
C272 C273 1.359 . S
C272 C274 1.364 . S
C273 C271 1.374 . S
C273 C272 1.359 . S
C273 H294 0.931 . S
C274 C270 1.389 . S
C274 C272 1.364 . S
C274 H295 0.931 . S
C275 O286 1.256 . S
C275 O287 1.257 . S
O276 Gd256 2.377 . S
O276 C258 1.240 . S
O277 Gd257 2.395 1_445 S
O277 C258 1.240 . S
O278 Gd256 2.448 . S
O278 C259 1.249 . S
O279 Gd256 2.506 . S
O279 C259 1.252 . S
O280 Gd256 2.435 1_565 S
O280 C266 1.256 . S
O281 Gd256 2.717 1_565 S
O281 Gd257 2.327 1_455 S
O281 C266 1.257 . S
O282 Gd257 2.377 . S
O282 C267 1.240 . S
O283 Gd256 2.395 1_665 S
O283 C267 1.240 . S
O284 Gd257 2.448 . S
O284 C268 1.249 . S
O285 Gd257 2.506 . S
O285 C268 1.252 . S
O286 Gd257 2.435 1_545 S
O286 C275 1.256 . S
O287 Gd256 2.327 1_655 S
O287 Gd257 2.717 1_545 S
O287 C275 1.257 . S
H288 C261 0.930 . S
H289 C262 0.931 . S
H290 C264 0.931 . S
H291 C265 0.931 . S
H292 C270 0.930 . S
H293 C271 0.931 . S
H294 C273 0.931 . S
H295 C274 0.931 . S
Gd296 C299 2.818 . S
Gd296 O316 2.377 . S
Gd296 O318 2.448 . S
Gd296 O319 2.506 . S
Gd296 O320 2.435 1_545 S
Gd296 O321 2.717 1_545 S
Gd296 O323 2.395 1_544 S
Gd296 O327 2.327 1_554 S
Gd297 C308 2.818 1_545 S
Gd297 O317 2.395 1_556 S
Gd297 O321 2.327 1_546 S
Gd297 O322 2.377 1_545 S
Gd297 O324 2.446 1_545 S
Gd297 O325 2.506 1_545 S
Gd297 O326 2.435 . S
Gd297 O327 2.717 . S
C298 O316 1.240 . S
C298 O317 1.240 . S
C299 Gd296 2.818 . S
C299 C300 1.510 . S
C299 O318 1.249 . S
C299 O319 1.252 . S
C300 C299 1.510 . S
C300 C301 1.404 . S
C300 C302 1.352 . S
C301 C300 1.404 . S
C301 C305 1.389 . S
C301 H328 0.930 . S
C302 C300 1.352 . S
C302 C304 1.374 . S
C302 H329 0.931 . S
C303 C304 1.359 . S
C303 C305 1.364 . S
C304 C302 1.374 . S
C304 C303 1.359 . S
C304 H330 0.931 . S
C305 C301 1.389 . S
C305 C303 1.364 . S
C305 H331 0.931 . S
C306 O320 1.256 . S
C306 O321 1.257 . S
C307 O322 1.240 . S
C307 O323 1.240 . S
C308 Gd297 2.818 1_565 S
C308 C309 1.510 . S
C308 O324 1.282 . S
C308 O325 1.252 . S
C309 C308 1.510 . S
C309 C310 1.404 . S
C309 C311 1.352 . S
C310 C309 1.404 . S
C310 C314 1.389 . S
C310 H332 0.930 . S
C311 C309 1.352 . S
C311 C313 1.374 . S
C311 H333 0.931 . S
C312 C313 1.359 . S
C312 C314 1.364 . S
C313 C311 1.374 . S
C313 C312 1.359 . S
C313 H334 0.931 . S
C314 C310 1.389 . S
C314 C312 1.364 . S
C314 H335 0.931 . S
C315 O326 1.256 . S
C315 O327 1.257 . S
O316 Gd296 2.377 . S
O316 C298 1.240 . S
O317 Gd297 2.395 1_554 S
O317 C298 1.240 . S
O318 Gd296 2.448 . S
O318 C299 1.249 . S
O319 Gd296 2.506 . S
O319 C299 1.252 . S
O320 Gd296 2.435 1_565 S
O320 C306 1.256 . S
O321 Gd296 2.717 1_565 S
O321 Gd297 2.327 1_564 S
O321 C306 1.257 . S
O322 Gd297 2.377 1_565 S
O322 C307 1.240 . S
O323 Gd296 2.395 1_566 S
O323 C307 1.240 . S
O324 Gd297 2.446 1_565 S
O324 C308 1.282 . S
O325 Gd297 2.506 1_565 S
O325 C308 1.252 . S
O326 Gd297 2.435 . S
O326 C315 1.256 . S
O327 Gd296 2.327 1_556 S
O327 Gd297 2.717 . S
O327 C315 1.257 . S
H328 C301 0.930 . S
H329 C302 0.931 . S
H330 C304 0.931 . S
H331 C305 0.931 . S
H332 C310 0.930 . S
H333 C311 0.931 . S
H334 C313 0.931 . S
H335 C314 0.931 . S
Gd336 C339 2.818 . S
Gd336 O356 2.377 . S
Gd336 O358 2.448 . S
Gd336 O359 2.506 . S
Gd336 O360 2.435 . S
Gd336 O361 2.717 . S
Gd336 O363 2.395 . S
Gd336 O367 2.327 . S
Gd337 C348 2.818 . S
Gd337 O357 2.395 . S
Gd337 O361 2.327 . S
Gd337 O362 2.377 . S
Gd337 O364 2.448 . S
Gd337 O365 2.506 . S
Gd337 O366 2.435 . S
Gd337 O367 2.717 . S
C338 O356 1.240 . S
C338 O357 1.240 . S
C339 Gd336 2.818 . S
C339 C340 1.510 . S
C339 O358 1.249 . S
C339 O359 1.252 . S
C340 C339 1.510 . S
C340 C341 1.404 . S
C340 C342 1.352 . S
C341 C340 1.404 . S
C341 C345 1.389 . S
C341 H368 0.930 . S
C342 C340 1.352 . S
C342 C344 1.374 . S
C342 H369 0.931 . S
C343 C344 1.359 . S
C343 C345 1.364 . S
C344 C342 1.374 . S
C344 C343 1.359 . S
C344 H370 0.931 . S
C345 C341 1.389 . S
C345 C343 1.364 . S
C345 H371 0.931 . S
C346 O360 1.256 . S
C346 O361 1.257 . S
C347 O362 1.240 . S
C347 O363 1.240 . S
C348 Gd337 2.818 . S
C348 C349 1.510 . S
C348 O364 1.249 . S
C348 O365 1.252 . S
C349 C348 1.510 . S
C349 C350 1.404 . S
C349 C351 1.352 . S
C350 C349 1.404 . S
C350 C354 1.389 . S
C350 H372 0.930 . S
C351 C349 1.352 . S
C351 C353 1.374 . S
C351 H373 0.931 . S
C352 C353 1.359 . S
C352 C354 1.364 . S
C353 C351 1.374 . S
C353 C352 1.359 . S
C353 H374 0.931 . S
C354 C350 1.389 . S
C354 C352 1.364 . S
C354 H375 0.931 . S
C355 O366 1.256 . S
C355 O367 1.257 . S
O356 Gd336 2.377 . S
O356 C338 1.240 . S
O357 Gd337 2.395 . S
O357 C338 1.240 . S
O358 Gd336 2.448 . S
O358 C339 1.249 . S
O359 Gd336 2.506 . S
O359 C339 1.252 . S
O360 Gd336 2.435 . S
O360 C346 1.256 . S
O361 Gd336 2.717 . S
O361 Gd337 2.327 . S
O361 C346 1.257 . S
O362 Gd337 2.377 . S
O362 C347 1.240 . S
O363 Gd336 2.395 . S
O363 C347 1.240 . S
O364 Gd337 2.448 . S
O364 C348 1.249 . S
O365 Gd337 2.506 . S
O365 C348 1.252 . S
O366 Gd337 2.435 . S
O366 C355 1.256 . S
O367 Gd336 2.327 . S
O367 Gd337 2.717 . S
O367 C355 1.257 . S
H368 C341 0.930 . S
H369 C342 0.931 . S
H370 C344 0.931 . S
H371 C345 0.931 . S
H372 C350 0.930 . S
H373 C351 0.931 . S
H374 C353 0.931 . S
H375 C354 0.931 . S
Gd376 C379 2.818 . S
Gd376 O396 2.377 . S
Gd376 O398 2.448 . S
Gd376 O399 2.506 . S
Gd376 O400 2.435 1_455 S
Gd376 O401 2.717 1_455 S
Gd376 O403 2.395 1_455 S
Gd376 O407 2.327 1_554 S
Gd377 C388 2.818 . S
Gd377 O397 2.395 1_656 S
Gd377 O401 2.327 1_556 S
Gd377 O402 2.377 . S
Gd377 O404 2.448 . S
Gd377 O405 2.506 . S
Gd377 O406 2.435 1_655 S
Gd377 O407 2.717 1_655 S
C378 O396 1.240 . S
C378 O397 1.240 . S
C379 Gd376 2.818 . S
C379 C380 1.510 . S
C379 O398 1.249 . S
C379 O399 1.252 . S
C380 C379 1.510 . S
C380 C381 1.404 . S
C380 C382 1.352 . S
C381 C380 1.404 . S
C381 C385 1.389 . S
C381 H408 0.930 . S
C382 C380 1.352 . S
C382 C384 1.374 . S
C382 H409 0.931 . S
C383 C384 1.359 . S
C383 C385 1.364 . S
C384 C382 1.374 . S
C384 C383 1.359 . S
C384 H410 0.931 . S
C385 C381 1.389 . S
C385 C383 1.364 . S
C385 H411 0.931 . S
C386 O400 1.256 . S
C386 O401 1.257 . S
C387 O402 1.240 . S
C387 O403 1.240 1_556 S
C388 Gd377 2.818 . S
C388 C389 1.510 . S
C388 O404 1.249 . S
C388 O405 1.252 . S
C389 C388 1.510 . S
C389 C390 1.404 . S
C389 C391 1.352 . S
C390 C389 1.404 . S
C390 C394 1.389 . S
C390 H412 0.930 . S
C391 C389 1.352 . S
C391 C393 1.374 . S
C391 H413 0.931 . S
C392 C393 1.359 . S
C392 C394 1.364 . S
C393 C391 1.374 . S
C393 C392 1.359 . S
C393 H414 0.931 . S
C394 C390 1.389 . S
C394 C392 1.364 . S
C394 H415 0.931 . S
C395 O406 1.256 . S
C395 O407 1.257 . S
O396 Gd376 2.377 . S
O396 C378 1.240 . S
O397 Gd377 2.395 1_454 S
O397 C378 1.240 . S
O398 Gd376 2.448 . S
O398 C379 1.249 . S
O399 Gd376 2.506 . S
O399 C379 1.252 . S
O400 Gd376 2.435 1_655 S
O400 C386 1.256 . S
O401 Gd376 2.717 1_655 S
O401 Gd377 2.327 1_554 S
O401 C386 1.257 . S
O402 Gd377 2.377 . S
O402 C387 1.240 . S
O403 Gd376 2.395 1_655 S
O403 C387 1.240 1_554 S
O404 Gd377 2.448 . S
O404 C388 1.249 . S
O405 Gd377 2.506 . S
O405 C388 1.252 . S
O406 Gd377 2.435 1_455 S
O406 C395 1.256 . S
O407 Gd376 2.327 1_556 S
O407 Gd377 2.717 1_455 S
O407 C395 1.257 . S
H408 C381 0.930 . S
H409 C382 0.931 . S
H410 C384 0.931 . S
H411 C385 0.931 . S
H412 C390 0.930 . S
H413 C391 0.931 . S
H414 C393 0.931 . S
H415 C394 0.931 . S
H416 C422 0.930 . S
H417 C426 0.930 . S
H418 C431 0.929 . S
H419 C429 0.929 . S
H420 C424 0.929 . S
H421 C430 0.929 . S
C422 H416 0.930 . S
C422 C423 1.367 . S
C422 C430 1.378 . S
C423 C422 1.367 . S
C423 C431 1.433 . S
C424 H420 0.929 . S
C424 C426 1.378 . S
C424 C428 1.350 . S
C425 C428 1.463 . S
C425 C430 1.350 . S
C425 N433 1.427 . S
C426 H417 0.930 . S
C426 C424 1.378 . S
C426 C427 1.367 . S
C427 C426 1.367 . S
C427 C429 1.433 . S
C428 C424 1.350 . S
C428 C425 1.463 . S
C428 N432 1.427 . S
C429 H419 0.929 . S
C429 C427 1.433 . S
C429 N432 1.384 . S
C430 H421 0.929 . S
C430 C422 1.378 . S
C430 C425 1.350 . S
C431 H418 0.929 . S
C431 C423 1.433 . S
C431 N433 1.384 . S
N432 C428 1.427 . S
N432 C429 1.384 . S
N433 C425 1.427 . S
N433 C431 1.384 . S
H434 C440 0.930 . S
H435 C444 0.930 . S
H436 C449 0.929 . S
H437 C447 0.929 . S
H438 C442 0.929 . S
H439 C448 0.929 . S
C440 H434 0.930 . S
C440 C441 1.367 . S
C440 C448 1.378 . S
C441 C440 1.367 . S
C441 C449 1.433 . S
C442 H438 0.929 . S
C442 C444 1.378 . S
C442 C446 1.350 . S
C443 C446 1.463 . S
C443 C448 1.350 . S
C443 N451 1.427 . S
C444 H435 0.930 . S
C444 C442 1.378 . S
C444 C445 1.367 . S
C445 C444 1.367 . S
C445 C447 1.433 . S
C446 C442 1.350 . S
C446 C443 1.463 . S
C446 N450 1.427 . S
C447 H437 0.929 . S
C447 C445 1.433 . S
C447 N450 1.384 . S
C448 H439 0.929 . S
C448 C440 1.378 . S
C448 C443 1.350 . S
C449 H436 0.929 . S
C449 C441 1.433 . S
C449 N451 1.384 . S
N450 C446 1.427 . S
N450 C447 1.384 . S
N451 C443 1.427 . S
N451 C449 1.384 . S
H452 C458 0.930 . S
H453 C462 0.930 . S
H454 C467 0.929 . S
H455 C465 0.929 . S
H456 C460 0.929 . S
H457 C466 0.929 . S
C458 H452 0.930 . S
C458 C459 1.367 . S
C458 C466 1.378 . S
C459 C458 1.367 . S
C459 C467 1.433 . S
C460 H456 0.929 . S
C460 C462 1.378 . S
C460 C464 1.350 . S
C461 C464 1.463 . S
C461 C466 1.350 . S
C461 N469 1.427 . S
C462 H453 0.930 . S
C462 C460 1.378 . S
C462 C463 1.367 . S
C463 C462 1.367 . S
C463 C465 1.433 . S
C464 C460 1.350 . S
C464 C461 1.463 . S
C464 N468 1.427 . S
C465 H455 0.929 . S
C465 C463 1.433 . S
C465 N468 1.384 . S
C466 H457 0.929 . S
C466 C458 1.378 . S
C466 C461 1.350 . S
C467 H454 0.929 . S
C467 C459 1.433 . S
C467 N469 1.384 . S
N468 C464 1.427 . S
N468 C465 1.384 . S
N469 C461 1.427 . S
N469 C467 1.384 . S
H470 C476 0.930 . S
H471 C480 0.930 . S
H472 C485 0.929 . S
H473 C483 0.929 . S
H474 C478 0.929 . S
H475 C484 0.929 . S
C476 H470 0.930 . S
C476 C477 1.367 . S
C476 C484 1.378 . S
C477 C476 1.367 . S
C477 C485 1.433 . S
C478 H474 0.929 . S
C478 C480 1.378 . S
C478 C482 1.350 . S
C479 C482 1.463 . S
C479 C484 1.350 . S
C479 N487 1.427 . S
C480 H471 0.930 . S
C480 C478 1.378 . S
C480 C481 1.367 . S
C481 C480 1.367 . S
C481 C483 1.433 . S
C482 C478 1.350 . S
C482 C479 1.463 . S
C482 N486 1.427 . S
C483 H473 0.929 . S
C483 C481 1.433 . S
C483 N486 1.384 . S
C484 H475 0.929 . S
C484 C476 1.378 . S
C484 C479 1.350 . S
C485 H472 0.929 . S
C485 C477 1.433 . S
C485 N487 1.384 . S
N486 C482 1.427 . S
N486 C483 1.384 . S
N487 C479 1.427 . S
N487 C485 1.384 . S
H488 C494 0.930 . S
H489 C498 0.930 . S
H490 C503 0.929 . S
H491 C501 0.929 . S
H492 C496 0.929 . S
H493 C502 0.929 . S
C494 H488 0.930 . S
C494 C495 1.367 . S
C494 C502 1.378 . S
C495 C494 1.367 . S
C495 C503 1.433 . S
C496 H492 0.929 . S
C496 C498 1.378 . S
C496 C500 1.350 . S
C497 C500 1.463 . S
C497 C502 1.350 . S
C497 N505 1.427 . S
C498 H489 0.930 . S
C498 C496 1.378 . S
C498 C499 1.367 . S
C499 C498 1.367 . S
C499 C501 1.433 . S
C500 C496 1.350 . S
C500 C497 1.463 . S
C500 N504 1.427 . S
C501 H491 0.929 . S
C501 C499 1.433 . S
C501 N504 1.384 . S
C502 H493 0.929 . S
C502 C494 1.378 . S
C502 C497 1.350 . S
C503 H490 0.929 . S
C503 C495 1.433 . S
C503 N505 1.384 . S
N504 C500 1.427 . S
N504 C501 1.384 . S
N505 C497 1.427 . S
N505 C503 1.384 . S
H506 C512 0.930 . S
H507 C516 0.930 . S
H508 C521 0.929 . S
H509 C519 0.929 . S
H510 C514 0.929 . S
H511 C520 0.929 . S
C512 H506 0.930 . S
C512 C513 1.367 . S
C512 C520 1.378 . S
C513 C512 1.367 . S
C513 C521 1.433 . S
C514 H510 0.929 . S
C514 C516 1.378 . S
C514 C518 1.350 . S
C515 C518 1.463 . S
C515 C520 1.350 . S
C515 N523 1.427 . S
C516 H507 0.930 . S
C516 C514 1.378 . S
C516 C517 1.367 . S
C517 C516 1.367 . S
C517 C519 1.433 . S
C518 C514 1.350 . S
C518 C515 1.463 . S
C518 N522 1.427 . S
C519 H509 0.929 . S
C519 C517 1.433 . S
C519 N522 1.384 . S
C520 H511 0.929 . S
C520 C512 1.378 . S
C520 C515 1.350 . S
C521 H508 0.929 . S
C521 C513 1.433 . S
C521 N523 1.384 . S
N522 C518 1.427 . S
N522 C519 1.384 . S
N523 C515 1.427 . S
N523 C521 1.384 . S
H524 C530 0.930 . S
H525 C534 0.930 . S
H526 C539 0.929 . S
H527 C537 0.929 1_554 S
H528 C532 0.929 . S
H529 C538 0.929 . S
C530 H524 0.930 . S
C530 C531 1.367 . S
C530 C538 1.378 . S
C531 C530 1.367 . S
C531 C539 1.433 . S
C532 H528 0.929 . S
C532 C534 1.378 . S
C532 C536 1.350 . S
C533 C536 1.463 . S
C533 C538 1.350 . S
C533 N541 1.427 . S
C534 H525 0.930 . S
C534 C532 1.378 . S
C534 C535 1.367 . S
C535 C534 1.367 . S
C535 C537 1.433 . S
C536 C532 1.350 . S
C536 C533 1.463 . S
C536 N540 1.427 . S
C537 H527 0.929 1_556 S
C537 C535 1.433 . S
C537 N540 1.384 . S
C538 H529 0.929 . S
C538 C530 1.378 . S
C538 C533 1.350 . S
C539 H526 0.929 . S
C539 C531 1.433 . S
C539 N541 1.384 . S
N540 C536 1.427 . S
N540 C537 1.384 . S
N541 C533 1.427 . S
N541 C539 1.384 . S
H542 C548 0.930 . S
H543 C552 0.930 . S
H544 C557 0.929 . S
H545 C555 0.929 . S
H546 C550 0.929 . S
H547 C556 0.929 . S
C548 H542 0.930 . S
C548 C549 1.367 . S
C548 C556 1.378 . S
C549 C548 1.367 . S
C549 C557 1.433 . S
C550 H546 0.929 . S
C550 C552 1.378 . S
C550 C554 1.350 . S
C551 C554 1.463 . S
C551 C556 1.350 . S
C551 N559 1.427 . S
C552 H543 0.930 . S
C552 C550 1.378 . S
C552 C553 1.367 . S
C553 C552 1.367 . S
C553 C555 1.433 . S
C554 C550 1.350 . S
C554 C551 1.463 . S
C554 N558 1.427 . S
C555 H545 0.929 . S
C555 C553 1.433 . S
C555 N558 1.384 . S
C556 H547 0.929 . S
C556 C548 1.378 . S
C556 C551 1.350 . S
C557 H544 0.929 . S
C557 C549 1.433 . S
C557 N559 1.384 . S
N558 C554 1.427 . S
N558 C555 1.384 . S
N559 C551 1.427 . S
N559 C557 1.384 . S
H560 C566 0.930 . S
H561 C570 0.930 . S
H562 C575 0.929 . S
H563 C573 0.929 . S
H564 C568 0.929 . S
H565 C574 0.929 . S
C566 H560 0.930 . S
C566 C567 1.367 . S
C566 C574 1.378 . S
C567 C566 1.367 . S
C567 C575 1.433 . S
C568 H564 0.929 . S
C568 C570 1.378 . S
C568 C572 1.350 . S
C569 C572 1.463 . S
C569 C574 1.350 . S
C569 N577 1.427 . S
C570 H561 0.930 . S
C570 C568 1.378 . S
C570 C571 1.367 . S
C571 C570 1.367 . S
C571 C573 1.433 . S
C572 C568 1.350 . S
C572 C569 1.463 . S
C572 N576 1.427 . S
C573 H563 0.929 . S
C573 C571 1.433 . S
C573 N576 1.384 . S
C574 H565 0.929 . S
C574 C566 1.378 . S
C574 C569 1.350 . S
C575 H562 0.929 . S
C575 C567 1.433 . S
C575 N577 1.384 . S
N576 C572 1.427 . S
N576 C573 1.384 . S
N577 C569 1.427 . S
N577 C575 1.384 . S
H578 C584 0.930 . S
H579 C588 0.930 . S
H580 C593 0.929 . S
H581 C591 0.929 . S
H582 C586 0.929 . S
H583 C592 0.929 . S
C584 H578 0.930 . S
C584 C585 1.367 . S
C584 C592 1.378 . S
C585 C584 1.367 . S
C585 C593 1.433 . S
C586 H582 0.929 . S
C586 C588 1.378 . S
C586 C590 1.350 . S
C587 C590 1.463 . S
C587 C592 1.350 . S
C587 N595 1.427 . S
C588 H579 0.930 . S
C588 C586 1.378 . S
C588 C589 1.367 . S
C589 C588 1.367 . S
C589 C591 1.433 . S
C590 C586 1.350 . S
C590 C587 1.463 . S
C590 N594 1.427 . S
C591 H581 0.929 . S
C591 C589 1.433 . S
C591 N594 1.384 . S
C592 H583 0.929 . S
C592 C584 1.378 . S
C592 C587 1.350 . S
C593 H580 0.929 . S
C593 C585 1.433 . S
C593 N595 1.384 . S
N594 C590 1.427 . S
N594 C591 1.384 . S
N595 C587 1.427 . S
N595 C593 1.384 . S
H596 C602 0.930 . S
H597 C606 0.930 . S
H598 C611 0.929 . S
H599 C609 0.929 . S
H600 C604 0.929 . S
H601 C610 0.929 . S
C602 H596 0.930 . S
C602 C603 1.367 . S
C602 C610 1.378 . S
C603 C602 1.367 . S
C603 C611 1.433 . S
C604 H600 0.929 . S
C604 C606 1.378 . S
C604 C608 1.350 . S
C605 C608 1.463 . S
C605 C610 1.350 . S
C605 N613 1.427 . S
C606 H597 0.930 . S
C606 C604 1.378 . S
C606 C607 1.367 . S
C607 C606 1.367 . S
C607 C609 1.433 . S
C608 C604 1.350 . S
C608 C605 1.463 . S
C608 N612 1.427 . S
C609 H599 0.929 . S
C609 C607 1.433 . S
C609 N612 1.384 . S
C610 H601 0.929 . S
C610 C602 1.378 . S
C610 C605 1.350 . S
C611 H598 0.929 . S
C611 C603 1.433 . S
C611 N613 1.384 . S
N612 C608 1.427 . S
N612 C609 1.384 . S
N613 C605 1.427 . S
N613 C611 1.384 . S
H614 C620 0.930 . S
H615 C624 0.930 . S
H616 C629 0.929 . S
H617 C627 0.929 . S
H618 C622 0.929 . S
H619 C628 0.929 . S
C620 H614 0.930 . S
C620 C621 1.367 . S
C620 C628 1.378 . S
C621 C620 1.367 . S
C621 C629 1.433 . S
C622 H618 0.929 . S
C622 C624 1.378 . S
C622 C626 1.350 . S
C623 C626 1.463 . S
C623 C628 1.350 . S
C623 N631 1.427 . S
C624 H615 0.930 . S
C624 C622 1.378 . S
C624 C625 1.367 . S
C625 C624 1.367 . S
C625 C627 1.433 . S
C626 C622 1.350 . S
C626 C623 1.463 . S
C626 N630 1.427 . S
C627 H617 0.929 . S
C627 C625 1.433 . S
C627 N630 1.384 . S
C628 H619 0.929 . S
C628 C620 1.378 . S
C628 C623 1.350 . S
C629 H616 0.929 . S
C629 C621 1.433 . S
C629 N631 1.384 . S
N630 C626 1.427 . S
N630 C627 1.384 . S
N631 C623 1.427 . S
N631 C629 1.384 . S
H632 C638 0.930 . S
H633 C642 0.930 . S
H634 C647 0.929 . S
H635 C645 0.929 . S
H636 C640 0.929 . S
H637 C646 0.929 . S
C638 H632 0.930 . S
C638 C639 1.367 . S
C638 C646 1.378 . S
C639 C638 1.367 . S
C639 C647 1.433 . S
C640 H636 0.929 . S
C640 C642 1.378 . S
C640 C644 1.350 . S
C641 C644 1.463 . S
C641 C646 1.350 . S
C641 N649 1.427 . S
C642 H633 0.930 . S
C642 C640 1.378 . S
C642 C643 1.367 . S
C643 C642 1.367 . S
C643 C645 1.433 . S
C644 C640 1.350 . S
C644 C641 1.463 . S
C644 N648 1.427 . S
C645 H635 0.929 . S
C645 C643 1.433 . S
C645 N648 1.384 . S
C646 H637 0.929 . S
C646 C638 1.378 . S
C646 C641 1.350 . S
C647 H634 0.929 . S
C647 C639 1.433 . S
C647 N649 1.384 . S
N648 C644 1.427 . S
N648 C645 1.384 . S
N649 C641 1.427 . S
N649 C647 1.384 . S
H650 C656 0.930 . S
H651 C660 0.930 . S
H652 C665 0.929 . S
H653 C663 0.929 . S
H654 C658 0.929 . S
H655 C664 0.929 . S
C656 H650 0.930 . S
C656 C657 1.367 . S
C656 C664 1.378 . S
C657 C656 1.367 . S
C657 C665 1.433 . S
C658 H654 0.929 . S
C658 C660 1.378 . S
C658 C662 1.350 . S
C659 C662 1.463 . S
C659 C664 1.350 . S
C659 N667 1.427 . S
C660 H651 0.930 . S
C660 C658 1.378 . S
C660 C661 1.367 . S
C661 C660 1.367 . S
C661 C663 1.433 . S
C662 C658 1.350 . S
C662 C659 1.463 . S
C662 N666 1.427 . S
C663 H653 0.929 . S
C663 C661 1.433 . S
C663 N666 1.384 . S
C664 H655 0.929 . S
C664 C656 1.378 . S
C664 C659 1.350 . S
C665 H652 0.929 . S
C665 C657 1.433 . S
C665 N667 1.384 . S
N666 C662 1.427 . S
N666 C663 1.384 . S
N667 C659 1.427 . S
N667 C665 1.384 . S
H668 C674 0.930 . S
H669 C678 0.930 . S
H670 C683 0.929 . S
H671 C681 0.929 . S
H672 C676 0.929 . S
H673 C682 0.929 . S
C674 H668 0.930 . S
C674 C675 1.367 . S
C674 C682 1.378 . S
C675 C674 1.367 . S
C675 C683 1.433 . S
C676 H672 0.929 . S
C676 C678 1.378 . S
C676 C680 1.350 . S
C677 C680 1.463 . S
C677 C682 1.350 . S
C677 N685 1.427 . S
C678 H669 0.930 . S
C678 C676 1.378 . S
C678 C679 1.367 . S
C679 C678 1.367 . S
C679 C681 1.433 . S
C680 C676 1.350 . S
C680 C677 1.463 . S
C680 N684 1.427 . S
C681 H671 0.929 . S
C681 C679 1.433 . S
C681 N684 1.384 . S
C682 H673 0.929 . S
C682 C674 1.378 . S
C682 C677 1.350 . S
C683 H670 0.929 . S
C683 C675 1.433 . S
C683 N685 1.384 . S
N684 C680 1.427 . S
N684 C681 1.384 . S
N685 C677 1.427 . S
N685 C683 1.384 . S
H686 C692 0.930 . S
H687 C696 0.930 . S
H688 C701 0.929 . S
H689 C699 0.929 . S
H690 C694 0.929 . S
H691 C700 0.929 . S
C692 H686 0.930 . S
C692 C693 1.367 . S
C692 C700 1.378 . S
C693 C692 1.367 . S
C693 C701 1.433 . S
C694 H690 0.929 . S
C694 C696 1.378 . S
C694 C698 1.350 . S
C695 C698 1.463 . S
C695 C700 1.350 . S
C695 N703 1.427 . S
C696 H687 0.930 . S
C696 C694 1.378 . S
C696 C697 1.367 . S
C697 C696 1.367 . S
C697 C699 1.433 . S
C698 C694 1.350 . S
C698 C695 1.463 . S
C698 N702 1.427 . S
C699 H689 0.929 . S
C699 C697 1.433 . S
C699 N702 1.384 . S
C700 H691 0.929 . S
C700 C692 1.378 . S
C700 C695 1.350 . S
C701 H688 0.929 . S
C701 C693 1.433 . S
C701 N703 1.384 . S
N702 C698 1.427 . S
N702 C699 1.384 . S
N703 C695 1.427 . S
N703 C701 1.384 . S
H704 C710 0.930 . S
H705 C714 0.930 . S
H706 C719 0.929 . S
H707 C717 0.929 . S
H708 C712 0.929 . S
H709 C718 0.929 . S
C710 H704 0.930 . S
C710 C711 1.367 . S
C710 C718 1.378 . S
C711 C710 1.367 . S
C711 C719 1.433 . S
C712 H708 0.929 . S
C712 C714 1.378 . S
C712 C716 1.350 . S
C713 C716 1.463 . S
C713 C718 1.350 . S
C713 N721 1.427 . S
C714 H705 0.930 . S
C714 C712 1.378 . S
C714 C715 1.367 . S
C715 C714 1.367 . S
C715 C717 1.433 . S
C716 C712 1.350 . S
C716 C713 1.463 . S
C716 N720 1.427 . S
C717 H707 0.929 . S
C717 C715 1.433 . S
C717 N720 1.384 . S
C718 H709 0.929 . S
C718 C710 1.378 . S
C718 C713 1.350 . S
C719 H706 0.929 . S
C719 C711 1.433 . S
C719 N721 1.384 . S
N720 C716 1.427 . S
N720 C717 1.384 . S
N721 C713 1.427 . S
N721 C719 1.384 . S
H722 C728 0.930 . S
H723 C732 0.930 . S
H724 C737 0.929 . S
H725 C735 0.929 . S
H726 C730 0.929 . S
H727 C736 0.929 . S
C728 H722 0.930 . S
C728 C729 1.367 . S
C728 C736 1.378 . S
C729 C728 1.367 . S
C729 C737 1.433 . S
C730 H726 0.929 . S
C730 C732 1.378 . S
C730 C734 1.350 . S
C731 C734 1.463 . S
C731 C736 1.350 . S
C731 N739 1.427 . S
C732 H723 0.930 . S
C732 C730 1.378 . S
C732 C733 1.367 . S
C733 C732 1.367 . S
C733 C735 1.433 . S
C734 C730 1.350 . S
C734 C731 1.463 . S
C734 N738 1.427 . S
C735 H725 0.929 . S
C735 C733 1.433 . S
C735 N738 1.384 . S
C736 H727 0.929 . S
C736 C728 1.378 . S
C736 C731 1.350 . S
C737 H724 0.929 . S
C737 C729 1.433 . S
C737 N739 1.384 . S
N738 C734 1.427 . S
N738 C735 1.384 . S
N739 C731 1.427 . S
N739 C737 1.384 . S
H740 C746 0.930 . S
H741 C750 0.930 . S
H742 C755 0.929 . S
H743 C753 0.929 . S
H744 C748 0.929 . S
H745 C754 0.929 . S
C746 H740 0.930 . S
C746 C747 1.367 . S
C746 C754 1.378 . S
C747 C746 1.367 . S
C747 C755 1.433 . S
C748 H744 0.929 . S
C748 C750 1.378 . S
C748 C752 1.350 . S
C749 C752 1.463 . S
C749 C754 1.350 . S
C749 N757 1.427 . S
C750 H741 0.930 . S
C750 C748 1.378 . S
C750 C751 1.367 . S
C751 C750 1.367 . S
C751 C753 1.433 . S
C752 C748 1.350 . S
C752 C749 1.463 . S
C752 N756 1.427 . S
C753 H743 0.929 . S
C753 C751 1.433 . S
C753 N756 1.384 . S
C754 H745 0.929 . S
C754 C746 1.378 . S
C754 C749 1.350 . S
C755 H742 0.929 . S
C755 C747 1.433 . S
C755 N757 1.384 . S
N756 C752 1.427 . S
N756 C753 1.384 . S
N757 C749 1.427 . S
N757 C755 1.384 . S
H758 C764 0.930 . S
H759 C768 0.930 . S
H760 C773 0.929 . S
H761 C771 0.929 . S
H762 C766 0.929 . S
H763 C772 0.929 . S
C764 H758 0.930 . S
C764 C765 1.367 . S
C764 C772 1.378 . S
C765 C764 1.367 . S
C765 C773 1.433 . S
C766 H762 0.929 . S
C766 C768 1.378 . S
C766 C770 1.350 . S
C767 C770 1.463 . S
C767 C772 1.350 . S
C767 N775 1.427 . S
C768 H759 0.930 . S
C768 C766 1.378 . S
C768 C769 1.367 . S
C769 C768 1.367 . S
C769 C771 1.433 . S
C770 C766 1.350 . S
C770 C767 1.463 . S
C770 N774 1.427 . S
C771 H761 0.929 . S
C771 C769 1.433 . S
C771 N774 1.384 . S
C772 H763 0.929 . S
C772 C764 1.378 . S
C772 C767 1.350 . S
C773 H760 0.929 . S
C773 C765 1.433 . S
C773 N775 1.384 . S
N774 C770 1.427 . S
N774 C771 1.384 . S
N775 C767 1.427 . S
N775 C773 1.384 . S
H776 C782 0.930 . S
H777 C786 0.930 . S
H778 C791 0.929 . S
H779 C789 0.929 . S
H780 C784 0.929 . S
H781 C790 0.929 . S
C782 H776 0.930 . S
C782 C783 1.367 . S
C782 C790 1.378 . S
C783 C782 1.367 . S
C783 C791 1.433 . S
C784 H780 0.929 . S
C784 C786 1.378 . S
C784 C788 1.350 . S
C785 C788 1.463 . S
C785 C790 1.350 . S
C785 N793 1.427 . S
C786 H777 0.930 . S
C786 C784 1.378 . S
C786 C787 1.367 . S
C787 C786 1.367 . S
C787 C789 1.433 . S
C788 C784 1.350 . S
C788 C785 1.463 . S
C788 N792 1.427 . S
C789 H779 0.929 . S
C789 C787 1.433 . S
C789 N792 1.384 . S
C790 H781 0.929 . S
C790 C782 1.378 . S
C790 C785 1.350 . S
C791 H778 0.929 . S
C791 C783 1.433 . S
C791 N793 1.384 . S
N792 C788 1.427 . S
N792 C789 1.384 . S
N793 C785 1.427 . S
N793 C791 1.384 . S
H794 C800 0.930 . S
H795 C804 0.930 . S
H796 C809 0.929 . S
H797 C807 0.929 . S
H798 C802 0.929 . S
H799 C808 0.929 . S
C800 H794 0.930 . S
C800 C801 1.367 . S
C800 C808 1.378 . S
C801 C800 1.367 . S
C801 C809 1.433 . S
C802 H798 0.929 . S
C802 C804 1.378 . S
C802 C806 1.350 . S
C803 C806 1.463 . S
C803 C808 1.350 . S
C803 N811 1.427 . S
C804 H795 0.930 . S
C804 C802 1.378 . S
C804 C805 1.367 . S
C805 C804 1.367 . S
C805 C807 1.433 . S
C806 C802 1.350 . S
C806 C803 1.463 . S
C806 N810 1.427 . S
C807 H797 0.929 . S
C807 C805 1.433 . S
C807 N810 1.384 . S
C808 H799 0.929 . S
C808 C800 1.378 . S
C808 C803 1.350 . S
C809 H796 0.929 . S
C809 C801 1.433 . S
C809 N811 1.384 . S
N810 C806 1.427 . S
N810 C807 1.384 . S
N811 C803 1.427 . S
N811 C809 1.384 . S
H812 C818 0.930 . S
H813 C822 0.930 . S
H814 C827 0.929 . S
H815 C825 0.929 . S
H816 C820 0.929 . S
H817 C826 0.929 . S
C818 H812 0.930 . S
C818 C819 1.367 . S
C818 C826 1.378 . S
C819 C818 1.367 . S
C819 C827 1.433 . S
C820 H816 0.929 . S
C820 C822 1.378 . S
C820 C824 1.350 . S
C821 C824 1.463 . S
C821 C826 1.350 . S
C821 N829 1.427 . S
C822 H813 0.930 . S
C822 C820 1.378 . S
C822 C823 1.367 . S
C823 C822 1.367 . S
C823 C825 1.433 . S
C824 C820 1.350 . S
C824 C821 1.463 . S
C824 N828 1.427 . S
C825 H815 0.929 . S
C825 C823 1.433 . S
C825 N828 1.384 . S
C826 H817 0.929 . S
C826 C818 1.378 . S
C826 C821 1.350 . S
C827 H814 0.929 . S
C827 C819 1.433 . S
C827 N829 1.384 . S
N828 C824 1.427 . S
N828 C825 1.384 . S
N829 C821 1.427 . S
N829 C827 1.384 . S
H830 C836 0.930 . S
H831 C840 0.930 . S
H832 C845 0.929 . S
H833 C843 0.929 . S
H834 C838 0.929 . S
H835 C844 0.929 . S
C836 H830 0.930 . S
C836 C837 1.367 . S
C836 C844 1.378 . S
C837 C836 1.367 . S
C837 C845 1.433 . S
C838 H834 0.929 . S
C838 C840 1.378 . S
C838 C842 1.350 . S
C839 C842 1.463 . S
C839 C844 1.350 . S
C839 N847 1.427 . S
C840 H831 0.930 . S
C840 C838 1.378 . S
C840 C841 1.367 . S
C841 C840 1.367 . S
C841 C843 1.433 . S
C842 C838 1.350 . S
C842 C839 1.463 . S
C842 N846 1.427 . S
C843 H833 0.929 . S
C843 C841 1.433 . S
C843 N846 1.384 . S
C844 H835 0.929 . S
C844 C836 1.378 . S
C844 C839 1.350 . S
C845 H832 0.929 . S
C845 C837 1.433 . S
C845 N847 1.384 . S
N846 C842 1.427 . S
N846 C843 1.384 . S
N847 C839 1.427 . S
N847 C845 1.384 . S
C423 C29 1.229 . S
C427 C263 1.235 . S
C441 C49 0.928 . S
C445 C312 0.942 . S
C463 C338 2.489 . S
C459 C93 2.480 . S
C477 C119 2.296 . S
C481 C386 2.288 . S
C499 C298 2.314 . S
C495 C17 2.288 . S
C517 C266 0.895 . S
C513 C61 0.899 . S
C535 C387 1.887 . S
C531 C81 1.903 . S
C553 C355 1.633 . S
C549 C125 1.621 . S
C567 C23 1.628 . S
C571 C383 1.634 . S
C589 C315 2.290 . S
C585 C87 2.324 . S
C603 C113 2.322 . S
C607 C267 2.355 . S
C621 C55 0.875 . S
C625 C352 0.900 . S
C643 C272 1.208 . S
C639 C157 1.060 . S
C657 C189 1.001 . S
C661 C303 0.999 . S
C675 C221 2.436 . S
C679 C347 2.442 . S
C693 C253 2.364 . S
C697 C395 2.371 . S
C711 C145 2.143 . S
C715 C307 2.396 . S
C733 C275 0.854 . S
C729 C183 0.857 . S
C751 C378 1.926 . S
C747 C209 1.907 . S
C769 C346 1.594 . S
C765 C247 1.573 . S
C783 C151 1.486 . S
C787 C392 1.646 . S
C805 C306 2.287 . S
C801 C215 2.312 . S
C823 C258 2.317 . S
C819 C241 2.270 . S
C837 C177 0.879 . S
C841 C343 0.890 . S
