# Generated by pormake.
# Topology dag, (6,3)-cn, num edge types: 1
# Building blocks:
#     Node 0, Type 0, BuildingBlock: IZENUY_clean_sbu_0, # of connection points: 6
#     Node 1, Type 0, BuildingBlock: IZENUY_clean_sbu_0, # of connection points: 6
#     Node 2, Type 0, BuildingBlock: IZENUY_clean_sbu_0, # of connection points: 6
#     Node 3, Type 0, BuildingBlock: IZENUY_clean_sbu_0, # of connection points: 6
#     Node 4, Type 1, BuildingBlock: VETTIZ_charged_linker_0, # of connection points: 3
#     Node 5, Type 1, BuildingBlock: VETTIZ_charged_linker_0, # of connection points: 3
#     Node 6, Type 1, BuildingBlock: VETTIZ_charged_linker_0, # of connection points: 3
#     Node 7, Type 1, BuildingBlock: VETTIZ_charged_linker_0, # of connection points: 3
#     Node 8, Type 1, BuildingBlock: VETTIZ_charged_linker_0, # of connection points: 3
#     Node 9, Type 1, BuildingBlock: VETTIZ_charged_linker_0, # of connection points: 3
#     Node 10, Type 1, BuildingBlock: VETTIZ_charged_linker_0, # of connection points: 3
#     Node 11, Type 1, BuildingBlock: VETTIZ_charged_linker_0, # of connection points: 3
#     Edge 12, Type (0, 1), BuildingBlock: OJICUG_clean_linker_0, # of connection points: 2
#     Edge 13, Type (0, 1), BuildingBlock: OJICUG_clean_linker_0, # of connection points: 2
#     Edge 14, Type (0, 1), BuildingBlock: OJICUG_clean_linker_0, # of connection points: 2
#     Edge 15, Type (0, 1), BuildingBlock: OJICUG_clean_linker_0, # of connection points: 2
#     Edge 16, Type (0, 1), BuildingBlock: OJICUG_clean_linker_0, # of connection points: 2
#     Edge 17, Type (0, 1), BuildingBlock: OJICUG_clean_linker_0, # of connection points: 2
#     Edge 18, Type (0, 1), BuildingBlock: OJICUG_clean_linker_0, # of connection points: 2
#     Edge 19, Type (0, 1), BuildingBlock: OJICUG_clean_linker_0, # of connection points: 2
#     Edge 20, Type (0, 1), BuildingBlock: OJICUG_clean_linker_0, # of connection points: 2
#     Edge 21, Type (0, 1), BuildingBlock: OJICUG_clean_linker_0, # of connection points: 2
#     Edge 22, Type (0, 1), BuildingBlock: OJICUG_clean_linker_0, # of connection points: 2
#     Edge 23, Type (0, 1), BuildingBlock: OJICUG_clean_linker_0, # of connection points: 2
#     Edge 24, Type (0, 1), BuildingBlock: OJICUG_clean_linker_0, # of connection points: 2
#     Edge 25, Type (0, 1), BuildingBlock: OJICUG_clean_linker_0, # of connection points: 2
#     Edge 26, Type (0, 1), BuildingBlock: OJICUG_clean_linker_0, # of connection points: 2
#     Edge 27, Type (0, 1), BuildingBlock: OJICUG_clean_linker_0, # of connection points: 2
#     Edge 28, Type (0, 1), BuildingBlock: OJICUG_clean_linker_0, # of connection points: 2
#     Edge 29, Type (0, 1), BuildingBlock: OJICUG_clean_linker_0, # of connection points: 2
#     Edge 30, Type (0, 1), BuildingBlock: OJICUG_clean_linker_0, # of connection points: 2
#     Edge 31, Type (0, 1), BuildingBlock: OJICUG_clean_linker_0, # of connection points: 2
#     Edge 32, Type (0, 1), BuildingBlock: OJICUG_clean_linker_0, # of connection points: 2
#     Edge 33, Type (0, 1), BuildingBlock: OJICUG_clean_linker_0, # of connection points: 2
#     Edge 34, Type (0, 1), BuildingBlock: OJICUG_clean_linker_0, # of connection points: 2
#     Edge 35, Type (0, 1), BuildingBlock: OJICUG_clean_linker_0, # of connection points: 2
# Relax obj value: 0.264
# Max RMSD: 0.202
# Mean RMSD: 0.161
data_MOF--net-dag--node1-IZENUY_clean_sbu_0--node2-VETTIZ_charged_linker_0--edge1-OJICUG_clean_linker_0
_symmetry_space_group_name_H-M    P1
_symmetry_Int_Tables_number       1
_symmetry_cell_setting            triclinic
loop_
_symmetry_equiv_pos_as_xyz
'x, y, z'
_cell_length_a     37.158147
_cell_length_b     37.177697
_cell_length_c     32.16018
_cell_angle_alpha  93.103139
_cell_angle_beta   86.865625
_cell_angle_gamma 87.65406
loop_
_atom_site_label
_atom_site_type_symbol
_atom_site_fract_x
_atom_site_fract_y
_atom_site_fract_z
_atom_type_partial_charge
Fe0 Fe 0.23279 0.8272 0.07265 0.0
Fe1 Fe 0.15774 0.84724 0.04651 0.0
O2 O 0.18739 0.81579 0.06744 0.0
Fe3 Fe 0.17193 0.77373 0.08301 0.0
O4 O 0.18622 0.7819 0.13576 0.0
O5 O 0.23981 0.80041 0.11782 0.0
O6 O 0.21893 0.86527 0.10908 0.0
C7 C 0.19809 0.89062 0.09896 0.0
C8 C 0.24063 0.75743 0.04109 0.0
O9 O 0.18009 0.88692 0.0669 0.0
C10 C 0.1354 0.78113 0.01192 0.0
O11 O 0.23486 0.8561 0.02764 0.0
O12 O 0.1847 0.84528 0.99777 0.0
O13 O 0.21471 0.7489 0.06567 0.0
O14 O 0.24821 0.78994 0.03716 0.0
C15 C 0.11549 0.8247 0.11154 0.0
O16 O 0.12949 0.81404 0.02255 0.0
O17 O 0.15614 0.76153 0.03165 0.0
C18 C 0.21644 0.85597 0.99555 0.0
O19 O 0.12958 0.85062 0.09398 0.0
O20 O 0.12673 0.79228 0.10252 0.0
C21 C 0.21793 0.78861 0.14474 0.0
Fe22 Fe 0.71765 0.66728 0.51946 0.0
Fe23 Fe 0.66738 0.72332 0.57084 0.0
O24 O 0.67582 0.67968 0.54654 0.0
Fe25 Fe 0.64195 0.64808 0.54944 0.0
O26 O 0.67286 0.60831 0.5464 0.0
O27 O 0.72631 0.63006 0.55254 0.0
O28 O 0.74466 0.69494 0.5546 0.0
C29 C 0.73674 0.70787 0.59147 0.0
C30 C 0.66522 0.63784 0.46806 0.0
O31 O 0.70469 0.71699 0.60346 0.0
C32 C 0.6021 0.71268 0.53956 0.0
O33 O 0.71196 0.70306 0.4846 0.0
O34 O 0.69513 0.74641 0.53173 0.0
O35 O 0.63901 0.64667 0.49365 0.0
O36 O 0.69748 0.63773 0.47948 0.0
C37 C 0.63756 0.6764 0.62907 0.0
O38 O 0.62888 0.73235 0.53962 0.0
O39 O 0.60416 0.68145 0.55304 0.0
C40 C 0.7063 0.73604 0.49483 0.0
O41 O 0.63854 0.70758 0.61461 0.0
O42 O 0.64381 0.64847 0.60534 0.0
C43 C 0.70501 0.60492 0.55685 0.0
Fe44 Fe 0.82798 0.22817 0.01352 0.0
Fe45 Fe 0.84431 0.15118 0.03702 0.0
O46 O 0.81393 0.18343 0.01863 0.0
Fe47 Fe 0.77021 0.17079 0.00537 0.0
O48 O 0.77749 0.18491 0.95248 0.0
O49 O 0.80069 0.23687 0.96901 0.0
O50 O 0.86469 0.21309 0.97609 0.0
C51 C 0.88855 0.18966 0.98356 0.0
C52 C 0.75916 0.24046 0.04665 0.0
O53 O 0.88485 0.17101 0.01507 0.0
C54 C 0.77799 0.13336 0.07542 0.0
O55 O 0.85775 0.22772 0.05792 0.0
O56 O 0.8459 0.17682 0.0861 0.0
O57 O 0.74838 0.21464 0.02369 0.0
O58 O 0.79221 0.24591 0.04977 0.0
C59 C 0.81658 0.11168 0.97349 0.0
O60 O 0.80991 0.12477 0.06221 0.0
O61 O 0.75902 0.15581 0.05731 0.0
C62 C 0.85723 0.20826 0.08922 0.0
O63 O 0.84414 0.12421 0.98899 0.0
O64 O 0.78516 0.12458 0.98502 0.0
C65 C 0.78608 0.21605 0.94308 0.0
Fe66 Fe 0.35918 0.3536 0.53511 0.0
Fe67 Fe 0.28332 0.33374 0.56363 0.0
O68 O 0.32548 0.32172 0.53728 0.0
Fe69 Fe 0.33457 0.27828 0.51299 0.0
O70 O 0.37257 0.26976 0.54513 0.0
O71 O 0.39735 0.32047 0.53138 0.0
O72 O 0.36164 0.3544 0.59089 0.0
C73 C 0.33512 0.36261 0.61626 0.0
C74 C 0.36354 0.32577 0.4553 0.0
O75 O 0.303 0.36311 0.60424 0.0
C76 C 0.26528 0.29241 0.49146 0.0
O77 O 0.32801 0.39329 0.53851 0.0
O78 O 0.27515 0.37092 0.53026 0.0
O79 O 0.36347 0.29454 0.4697 0.0
O80 O 0.35756 0.35363 0.47924 0.0
C81 C 0.29452 0.26489 0.58796 0.0
O82 O 0.25695 0.30602 0.52795 0.0
O83 O 0.29757 0.28401 0.4798 0.0
C84 C 0.29617 0.39641 0.52699 0.0
O85 O 0.28844 0.29779 0.59845 0.0
O86 O 0.30678 0.25484 0.5514 0.0
C87 C 0.3993 0.28946 0.54546 0.0
C88 C 0.15882 0.03976 0.22281 0.0
C89 C 0.14527 0.01896 0.1899 0.0
C90 C 0.11118 0.02843 0.17563 0.0
C91 C 0.10596 0.0807 0.22392 0.0
C92 C 0.13878 0.07069 0.23913 0.0
C93 C 0.14997 0.09761 0.27211 0.0
H94 H 0.12408 0.26082 0.37574 0.0
C95 C 0.09343 0.11564 0.24478 0.0
C96 C 0.11892 0.12575 0.27314 0.0
H97 H 0.20904 0.17957 0.38643 0.0
H98 H 0.18079 0.13913 0.33856 0.0
H99 H 0.12053 0.25067 0.27741 0.0
H100 H 0.05603 0.20228 0.37351 0.0
H101 H 0.02784 0.21927 0.33608 0.0
H102 H 0.05387 0.24987 0.36619 0.0
H103 H 0.08643 0.27634 0.30936 0.0
H104 H 0.07562 0.25057 0.26291 0.0
C105 C 0.18616 0.11285 0.25644 0.0
C106 C 0.15152 0.07859 0.31378 0.0
C107 C 0.9792 0.17681 0.19981 0.0
C108 C 0.96227 0.21088 0.20883 0.0
C109 C 0.9773 0.2353 0.23727 0.0
C110 C 0.00884 0.22535 0.25706 0.0
C111 C 0.0256 0.19092 0.24755 0.0
C112 C 0.01073 0.16757 0.21901 0.0
C113 C 0.0329 0.13318 0.21009 0.0
C114 C 0.06326 0.13901 0.23884 0.0
C115 C 0.05891 0.1727 0.26103 0.0
C116 C 0.04628 0.13121 0.16333 0.0
C117 C 0.00969 0.1015 0.22313 0.0
C118 C 0.13606 0.23408 0.368 0.0
C119 C 0.16871 0.2231 0.38451 0.0
C120 C 0.18392 0.18837 0.37376 0.0
C121 C 0.16756 0.16503 0.34588 0.0
C122 C 0.13582 0.17667 0.32807 0.0
C123 C 0.12007 0.21036 0.33969 0.0
C124 C 0.0863 0.21772 0.31704 0.0
C125 C 0.08459 0.18295 0.29014 0.0
C126 C 0.11401 0.15928 0.29653 0.0
C127 C 0.09215 0.25067 0.2904 0.0
C128 C 0.05415 0.22281 0.34971 0.0
H129 H 0.06591 0.06491 0.17985 0.0
H130 H 0.18496 0.03296 0.2343 0.0
H131 H 0.13268 0.05611 0.31496 0.0
H132 H 0.14279 0.09676 0.34118 0.0
H133 H 0.17904 0.06706 0.31802 0.0
H134 H 0.18604 0.11748 0.22255 0.0
H135 H 0.20919 0.09375 0.26104 0.0
H136 H 0.19149 0.1393 0.27152 0.0
H137 H 0.96852 0.15792 0.17726 0.0
H138 H 0.96462 0.26185 0.24421 0.0
H139 H 0.01916 0.24487 0.27863 0.0
H140 H 0.04779 0.15854 0.15097 0.0
H141 H 0.02791 0.1157 0.14378 0.0
H142 H 0.07403 0.11937 0.15793 0.0
H143 H 0.99295 0.10909 0.25229 0.0
H144 H 0.02602 0.07737 0.23034 0.0
H145 H 0.9911 0.09385 0.19855 0.0
H146 H 0.10004 0.01234 0.15073 0.0
C147 C 0.09143 0.059 0.19255 0.0
C148 C 0.36979 0.46692 0.7832 0.0
C149 C 0.38862 0.44548 0.75106 0.0
C150 C 0.42517 0.45195 0.74112 0.0
C151 C 0.42202 0.50342 0.79055 0.0
C152 C 0.38711 0.49555 0.80268 0.0
C153 C 0.37079 0.52224 0.836 0.0
H154 H 0.3792 0.68239 0.94362 0.0
C155 C 0.43068 0.53743 0.81274 0.0
C156 C 0.4011 0.54827 0.84012 0.0
H157 H 0.29364 0.60693 0.94902 0.0
H158 H 0.3296 0.56441 0.90331 0.0
H159 H 0.44841 0.62173 0.94364 0.0
H160 H 0.39194 0.67532 0.84964 0.0
H161 H 0.43702 0.66993 0.8307 0.0
H162 H 0.42582 0.69715 0.87817 0.0
H163 H 0.45002 0.66921 0.93635 0.0
H164 H 0.48046 0.6371 0.90695 0.0
C165 C 0.36361 0.50211 0.87639 0.0
C166 C 0.33668 0.54042 0.81914 0.0
C167 C 0.54026 0.60276 0.76213 0.0
C168 C 0.552 0.63776 0.7705 0.0
C169 C 0.53447 0.65944 0.80346 0.0
C170 C 0.50494 0.6468 0.82672 0.0
C171 C 0.49237 0.61242 0.81633 0.0
C172 C 0.51046 0.59084 0.78499 0.0
C173 C 0.49233 0.55605 0.77629 0.0
C174 C 0.46 0.56037 0.80733 0.0
C175 C 0.46012 0.5934 0.83065 0.0
C176 C 0.51841 0.52445 0.78628 0.0
C177 C 0.48115 0.55523 0.73045 0.0
C178 C 0.36816 0.65668 0.93506 0.0
C179 C 0.33333 0.64822 0.94974 0.0
C180 C 0.32043 0.61412 0.93845 0.0
C181 C 0.34123 0.58956 0.91153 0.0
C182 C 0.3751 0.59934 0.89531 0.0
C183 C 0.38835 0.63212 0.90779 0.0
C184 C 0.42432 0.63851 0.88635 0.0
C185 C 0.43073 0.60388 0.85938 0.0
C186 C 0.40163 0.58122 0.86445 0.0
C187 C 0.45246 0.64209 0.91989 0.0
C188 C 0.41992 0.67203 0.85999 0.0
H189 H 0.46943 0.48474 0.75095 0.0
H190 H 0.34191 0.4622 0.79204 0.0
H191 H 0.34179 0.54685 0.786 0.0
H192 H 0.32828 0.56634 0.83579 0.0
H193 H 0.31363 0.52234 0.82063 0.0
H194 H 0.38298 0.47864 0.87797 0.0
H195 H 0.33598 0.49175 0.8781 0.0
H196 H 0.36752 0.51915 0.90493 0.0
H197 H 0.55259 0.58567 0.73646 0.0
H198 H 0.54314 0.68642 0.81063 0.0
H199 H 0.49232 0.66471 0.851 0.0
H200 H 0.5367 0.5328 0.81097 0.0
H201 H 0.53558 0.51464 0.75828 0.0
H202 H 0.50405 0.50159 0.79899 0.0
H203 H 0.47089 0.58238 0.72237 0.0
H204 H 0.45899 0.5373 0.72417 0.0
H205 H 0.50447 0.54705 0.7084 0.0
H206 H 0.44036 0.4361 0.71635 0.0
C207 C 0.44198 0.48057 0.76088 0.0
C208 C 0.75769 0.85959 0.35959 0.0
C209 C 0.77097 0.82821 0.37714 0.0
C210 C 0.80598 0.8143 0.36506 0.0
C211 C 0.81377 0.86164 0.3172 0.0
C212 C 0.77953 0.87576 0.32939 0.0
C213 C 0.76951 0.90814 0.3054 0.0
H214 H 0.81891 0.02382 0.15773 0.0
C215 C 0.82914 0.88358 0.28437 0.0
C216 C 0.80339 0.91102 0.27716 0.0
H217 H 0.71725 0.02588 0.22939 0.0
H218 H 0.73753 0.97293 0.26496 0.0
H219 H 0.86791 0.00963 0.23035 0.0
H220 H 0.82429 0.93935 0.13754 0.0
H221 H 0.86852 0.92268 0.14294 0.0
H222 H 0.86101 0.96779 0.12623 0.0
H223 H 0.88675 0.00473 0.17772 0.0
H224 H 0.90176 0.97603 0.21748 0.0
C225 C 0.76321 0.94114 0.33668 0.0
C226 C 0.73636 0.89927 0.28024 0.0
C227 C 0.95559 0.85166 0.21937 0.0
C228 C 0.97723 0.86838 0.18947 0.0
C229 C 0.96329 0.89915 0.17109 0.0
C230 C 0.92861 0.9134 0.18246 0.0
C231 C 0.90737 0.89688 0.21274 0.0
C232 C 0.92086 0.86661 0.23077 0.0
C233 C 0.89441 0.85345 0.26311 0.0
C234 C 0.86295 0.8808 0.26124 0.0
C235 C 0.87077 0.90589 0.23152 0.0
C236 C 0.91181 0.85602 0.30585 0.0
C237 C 0.88426 0.81495 0.24851 0.0
C238 C 0.80102 0.01278 0.1811 0.0
C239 C 0.76669 0.02871 0.19112 0.0
C240 C 0.7439 0.01377 0.22141 0.0
C241 C 0.75579 0.9832 0.2419 0.0
C242 C 0.79064 0.96761 0.23161 0.0
C243 C 0.81234 0.98254 0.20141 0.0
C244 C 0.84829 0.963 0.19363 0.0
C245 C 0.84502 0.93366 0.22417 0.0
C246 C 0.81135 0.93629 0.2466 0.0
C247 C 0.87792 0.98954 0.205 0.0
C248 C 0.85108 0.9475 0.1477 0.0
H249 H 0.85373 0.81868 0.32736 0.0
H250 H 0.73065 0.87048 0.36811 0.0
H251 H 0.73853 0.87084 0.26733 0.0
H252 H 0.73396 0.91572 0.25292 0.0
H253 H 0.71102 0.90282 0.30028 0.0
H254 H 0.78425 0.94137 0.36 0.0
H255 H 0.7365 0.9405 0.35388 0.0
H256 H 0.76497 0.96703 0.32167 0.0
H257 H 0.96571 0.82807 0.2341 0.0
H258 H 0.97929 0.91216 0.14755 0.0
H259 H 0.91981 0.93685 0.1672 0.0
H260 H 0.92952 0.87939 0.30808 0.0
H261 H 0.92864 0.83135 0.31057 0.0
H262 H 0.89178 0.86082 0.33245 0.0
H263 H 0.883 0.81239 0.21399 0.0
H264 H 0.85723 0.80796 0.26068 0.0
H265 H 0.90453 0.79439 0.25742 0.0
H266 H 0.81656 0.79013 0.37834 0.0
C267 C 0.82746 0.83086 0.33538 0.0
C268 C 0.70835 0.26344 0.77173 0.0
C269 C 0.73989 0.27477 0.7901 0.0
C270 C 0.75915 0.30248 0.772 0.0
C271 C 0.71452 0.30885 0.72058 0.0
C272 C 0.69635 0.28066 0.73691 0.0
C273 C 0.66331 0.27235 0.71353 0.0
H274 H 0.55266 0.31649 0.56148 0.0
C275 C 0.69474 0.32178 0.68539 0.0
C276 C 0.665 0.30003 0.68041 0.0
H277 H 0.53838 0.2329 0.64848 0.0
H278 H 0.5955 0.24656 0.67763 0.0
H279 H 0.57732 0.37371 0.62707 0.0
H280 H 0.6355 0.30015 0.53758 0.0
H281 H 0.66089 0.33892 0.53985 0.0
H282 H 0.61531 0.34189 0.52292 0.0
H283 H 0.57828 0.37874 0.57185 0.0
H284 H 0.61176 0.39782 0.60366 0.0
C285 C 0.62975 0.27911 0.74406 0.0
C286 C 0.66805 0.23333 0.69418 0.0
C287 C 0.72849 0.43842 0.61995 0.0
C288 C 0.71427 0.4569 0.58704 0.0
C289 C 0.68851 0.44023 0.56278 0.0
C290 C 0.6755 0.40682 0.57254 0.0
C291 C 0.68813 0.38977 0.60712 0.0
C292 C 0.71532 0.40468 0.62909 0.0
C293 C 0.72689 0.38112 0.66309 0.0
C294 C 0.70027 0.35112 0.65959 0.0
C295 C 0.67733 0.35684 0.62724 0.0
C296 C 0.72139 0.40328 0.70527 0.0
C297 C 0.76639 0.36707 0.65224 0.0
C298 C 0.56208 0.30034 0.58607 0.0
C299 C 0.54105 0.27326 0.60227 0.0
C300 C 0.55401 0.25395 0.63541 0.0
C301 C 0.58716 0.26195 0.65227 0.0
C302 C 0.60735 0.28984 0.63617 0.0
C303 C 0.59467 0.30819 0.60335 0.0
C304 C 0.61822 0.3381 0.59108 0.0
C305 C 0.64748 0.33479 0.62179 0.0
C306 C 0.64114 0.30656 0.64826 0.0
C307 C 0.59546 0.37408 0.59841 0.0
C308 C 0.63318 0.32971 0.54544 0.0
H309 H 0.76225 0.34072 0.72571 0.0
H310 H 0.69279 0.24231 0.78473 0.0
H311 H 0.6963 0.22754 0.68159 0.0
H312 H 0.65114 0.22842 0.66748 0.0
H313 H 0.66191 0.21346 0.71788 0.0
H314 H 0.63295 0.30315 0.76548 0.0
H315 H 0.62559 0.25566 0.76349 0.0
H316 H 0.60482 0.2851 0.72815 0.0
H317 H 0.74877 0.45035 0.63862 0.0
H318 H 0.67694 0.45393 0.53743 0.0
H319 H 0.65508 0.39622 0.55365 0.0
H320 H 0.69429 0.41737 0.70802 0.0
H321 H 0.74195 0.42402 0.70801 0.0
H322 H 0.72266 0.38656 0.73247 0.0
H323 H 0.77421 0.36888 0.61855 0.0
H324 H 0.77047 0.33811 0.65803 0.0
H325 H 0.78574 0.38283 0.67013 0.0
H326 H 0.78401 0.31116 0.7846 0.0
C327 C 0.74664 0.31954 0.73753 0.0
C328 C 0.6304 0.5292 0.30461 0.0
C329 C 0.61124 0.55172 0.33557 0.0
C330 C 0.57426 0.54632 0.34425 0.0
C331 C 0.57726 0.49433 0.29556 0.0
C332 C 0.61281 0.50086 0.28489 0.0
C333 C 0.62934 0.47322 0.25273 0.0
H334 H 0.61489 0.31681 0.13835 0.0
C335 C 0.56803 0.46068 0.27299 0.0
C336 C 0.59815 0.44849 0.24715 0.0
H337 H 0.7071 0.38418 0.14529 0.0
H338 H 0.67241 0.42729 0.19069 0.0
H339 H 0.59996 0.31858 0.23001 0.0
H340 H 0.54991 0.38227 0.14002 0.0
H341 H 0.516 0.36586 0.17384 0.0
H342 H 0.54627 0.33444 0.14328 0.0
H343 H 0.56194 0.30307 0.20339 0.0
H344 H 0.55655 0.32991 0.252 0.0
C345 C 0.66182 0.45385 0.27171 0.0
C346 C 0.63908 0.49267 0.2125 0.0
C347 C 0.45461 0.39946 0.31859 0.0
C348 C 0.44233 0.36476 0.30976 0.0
C349 C 0.45928 0.34324 0.27631 0.0
C350 C 0.48921 0.35548 0.25349 0.0
C351 C 0.50275 0.3892 0.26487 0.0
C352 C 0.4849 0.41092 0.29627 0.0
C353 C 0.50422 0.44478 0.3062 0.0
C354 C 0.5373 0.43935 0.27642 0.0
C355 C 0.53626 0.40683 0.25229 0.0
C356 C 0.51397 0.4448 0.35254 0.0
C357 C 0.47987 0.47749 0.29551 0.0
C358 C 0.6278 0.34076 0.14955 0.0
C359 C 0.66394 0.34686 0.13757 0.0
C360 C 0.67917 0.37883 0.1529 0.0
C361 C 0.65907 0.40382 0.17983 0.0
C362 C 0.62351 0.39662 0.19254 0.0
C363 C 0.60839 0.36557 0.17735 0.0
C364 C 0.57123 0.36101 0.19671 0.0
C365 C 0.56615 0.39509 0.22493 0.0
C366 C 0.59688 0.41582 0.22237 0.0
C367 C 0.57214 0.32635 0.22165 0.0
C368 C 0.54424 0.36064 0.16176 0.0
H369 H 0.52933 0.51479 0.33314 0.0
H370 H 0.65867 0.53294 0.29672 0.0
H371 H 0.61888 0.51486 0.208 0.0
H372 H 0.6388 0.47481 0.18395 0.0
H373 H 0.66589 0.50471 0.21394 0.0
H374 H 0.65614 0.45039 0.30556 0.0
H375 H 0.68648 0.4696 0.26838 0.0
H376 H 0.66779 0.42627 0.258 0.0
H377 H 0.44266 0.4164 0.34461 0.0
H378 H 0.4501 0.31652 0.26876 0.0
H379 H 0.50151 0.33766 0.22893 0.0
H380 H 0.52282 0.41723 0.36072 0.0
H381 H 0.49035 0.45376 0.37378 0.0
H382 H 0.53663 0.46177 0.35989 0.0
H383 H 0.46191 0.4701 0.27012 0.0
H384 H 0.49562 0.49971 0.28343 0.0
H385 H 0.46239 0.48791 0.32302 0.0
H386 H 0.55879 0.56288 0.36817 0.0
C387 C 0.55718 0.51801 0.32422 0.0
C388 C 0.20474 0.17399 0.72202 0.0
C389 C 0.23875 0.16398 0.70275 0.0
C390 C 0.25621 0.13146 0.71266 0.0
C391 C 0.2071 0.12121 0.76303 0.0
C392 C 0.18954 0.15246 0.75194 0.0
C393 C 0.15413 0.16029 0.77617 0.0
H394 H 0.03811 0.11899 0.93343 0.0
C395 C 0.18494 0.10647 0.79716 0.0
C396 C 0.15394 0.12945 0.805 0.0
H397 H 0.02271 0.20133 0.8452 0.0
H398 H 0.08148 0.18488 0.81169 0.0
H399 H 0.06105 0.06051 0.86792 0.0
H400 H 0.12261 0.12846 0.94604 0.0
H401 H 0.14385 0.0853 0.94475 0.0
H402 H 0.09755 0.09176 0.96465 0.0
H403 H 0.0689 0.05034 0.92058 0.0
H404 H 0.09919 0.03366 0.87738 0.0
C405 C 0.1235 0.1581 0.74538 0.0
C406 C 0.15568 0.19728 0.80042 0.0
C407 C 0.22553 0.99115 0.86423 0.0
C408 C 0.20988 0.97293 0.89738 0.0
C409 C 0.17852 0.98769 0.91934 0.0
C410 C 0.16217 0.01981 0.90811 0.0
C411 C 0.17721 0.03746 0.87431 0.0
C412 C 0.20862 0.02358 0.85323 0.0
C413 C 0.22067 0.04715 0.81878 0.0
C414 C 0.19049 0.07637 0.82189 0.0
C415 C 0.1653 0.07032 0.85452 0.0
C416 C 0.22159 0.02455 0.77687 0.0
C417 C 0.25742 0.06233 0.82956 0.0
C418 C 0.04701 0.13347 0.90668 0.0
C419 C 0.02532 0.16129 0.89179 0.0
C420 C 0.03881 0.17988 0.85753 0.0
C421 C 0.07281 0.17003 0.83786 0.0
C422 C 0.09344 0.14119 0.85243 0.0
C423 C 0.08022 0.12347 0.88623 0.0
C424 C 0.1041 0.09189 0.89595 0.0
C425 C 0.13416 0.09351 0.86246 0.0
C426 C 0.12819 0.12266 0.83749 0.0
C427 C 0.08239 0.05722 0.89055 0.0
C428 C 0.11769 0.09934 0.94023 0.0
H429 H 0.25531 0.08582 0.74965 0.0
H430 H 0.19039 0.1985 0.71434 0.0
H431 H 0.18214 0.19982 0.81468 0.0
H432 H 0.13518 0.20124 0.82655 0.0
H433 H 0.15233 0.21975 0.77936 0.0
H434 H 0.1311 0.13881 0.71835 0.0
H435 H 0.1173 0.18478 0.73287 0.0
H436 H 0.0985 0.14774 0.7596 0.0
H437 H 0.24985 0.98026 0.84719 0.0
H438 H 0.1664 0.97397 0.94516 0.0
H439 H 0.13821 0.02937 0.92603 0.0
H440 H 0.19783 0.00733 0.77568 0.0
H441 H 0.24628 0.00654 0.7728 0.0
H442 H 0.22016 0.04127 0.74965 0.0
H443 H 0.25848 0.06809 0.86378 0.0
H444 H 0.26236 0.08833 0.81575 0.0
H445 H 0.28002 0.04276 0.81952 0.0
H446 H 0.28242 0.12324 0.69804 0.0
C447 C 0.24056 0.11001 0.74282 0.0
C448 C 0.26404 0.71305 0.31722 0.0
C449 C 0.27463 0.74523 0.29983 0.0
C450 C 0.30161 0.76496 0.31878 0.0
C451 C 0.30885 0.71946 0.36906 0.0
C452 C 0.28133 0.70083 0.35185 0.0
C453 C 0.27396 0.6669 0.37384 0.0
H454 H 0.3211 0.55211 0.52017 0.0
C455 C 0.32221 0.69908 0.4036 0.0
C456 C 0.3014 0.66852 0.40716 0.0
H457 H 0.23812 0.53896 0.43217 0.0
H458 H 0.24999 0.59767 0.40635 0.0
H459 H 0.3778 0.58167 0.45644 0.0
H460 H 0.30203 0.63347 0.54844 0.0
H461 H 0.33944 0.66083 0.54748 0.0
H462 H 0.34469 0.61474 0.56221 0.0
H463 H 0.38219 0.57994 0.51161 0.0
H464 H 0.40055 0.61564 0.48274 0.0
C465 C 0.28187 0.63431 0.34212 0.0
C466 C 0.23477 0.67003 0.39299 0.0
C467 C 0.43693 0.73486 0.47234 0.0
C468 C 0.45548 0.72029 0.50503 0.0
C469 C 0.43961 0.69297 0.52758 0.0
C470 C 0.40695 0.67899 0.51651 0.0
C471 C 0.38984 0.69216 0.48227 0.0
C472 C 0.40391 0.72065 0.46187 0.0
C473 C 0.38027 0.73246 0.42801 0.0
C474 C 0.35121 0.70472 0.42992 0.0
C475 C 0.35751 0.68087 0.46126 0.0
C476 C 0.40295 0.72891 0.38605 0.0
C477 C 0.3648 0.77123 0.44019 0.0
C478 C 0.30474 0.56209 0.49605 0.0
C479 C 0.27839 0.54088 0.47851 0.0
C480 C 0.25867 0.55467 0.44616 0.0
C481 C 0.26563 0.58875 0.43124 0.0
C482 C 0.29288 0.6091 0.4485 0.0
C483 C 0.31157 0.59568 0.48067 0.0
C484 C 0.34061 0.61978 0.49438 0.0
C485 C 0.33643 0.65013 0.46518 0.0
C486 C 0.30853 0.64384 0.43826 0.0
C487 C 0.37731 0.59838 0.48627 0.0
C488 C 0.3316 0.63281 0.54057 0.0
H489 H 0.33937 0.76823 0.36567 0.0
H490 H 0.24356 0.69709 0.30346 0.0
H491 H 0.22795 0.69793 0.40615 0.0
H492 H 0.23039 0.65257 0.41932 0.0
H493 H 0.21521 0.66356 0.36906 0.0
H494 H 0.30554 0.639 0.32069 0.0
H495 H 0.25847 0.62966 0.32274 0.0
H496 H 0.28909 0.60918 0.35703 0.0
H497 H 0.44821 0.75627 0.45493 0.0
H498 H 0.45336 0.68103 0.55265 0.0
H499 H 0.39695 0.65753 0.53421 0.0
H500 H 0.41802 0.70234 0.38247 0.0
H501 H 0.42292 0.7503 0.38448 0.0
H502 H 0.38646 0.73036 0.35868 0.0
H503 H 0.36533 0.77781 0.47431 0.0
H504 H 0.33601 0.77477 0.43332 0.0
H505 H 0.3805 0.79169 0.42407 0.0
H506 H 0.30973 0.79025 0.30682 0.0
C507 C 0.31872 0.75226 0.35316 0.0
C508 C 0.8407 0.9488 0.87178 0.0
C509 C 0.85487 0.97042 0.90352 0.0
C510 C 0.88406 0.95686 0.92497 0.0
C511 C 0.88587 0.90132 0.88201 0.0
C512 C 0.85687 0.91445 0.86131 0.0
C513 C 0.84695 0.88849 0.82671 0.0
H514 H 0.87362 0.72699 0.71922 0.0
C515 C 0.8974 0.86551 0.86255 0.0
C516 C 0.87492 0.85785 0.82999 0.0
H517 H 0.79382 0.81211 0.70318 0.0
H518 H 0.81875 0.84932 0.75697 0.0
H519 H 0.94167 0.78238 0.73091 0.0
H520 H 0.87051 0.73382 0.82058 0.0
H521 H 0.9154 0.72909 0.83533 0.0
H522 H 0.90309 0.70765 0.78695 0.0
H523 H 0.94447 0.73492 0.73883 0.0
H524 H 0.96705 0.76682 0.77142 0.0
C525 C 0.85183 0.90716 0.78488 0.0
C526 C 0.80813 0.87669 0.83729 0.0
C527 C 0.00462 0.79854 0.91691 0.0
C528 C 0.02361 0.76609 0.90463 0.0
C529 C 0.01137 0.74394 0.87192 0.0
C530 C 0.98054 0.75461 0.8512 0.0
C531 C 0.96218 0.78782 0.86331 0.0
C532 C 0.97435 0.80892 0.89594 0.0
C533 C 0.95281 0.84378 0.90417 0.0
C534 C 0.92553 0.8405 0.87108 0.0
C535 C 0.9309 0.80772 0.84714 0.0
C536 C 0.97831 0.87519 0.89683 0.0
C537 C 0.93472 0.84397 0.9488 0.0
C538 C 0.86211 0.75388 0.72716 0.0
C539 C 0.83194 0.767 0.70717 0.0
C540 C 0.81721 0.80183 0.71825 0.0
C541 C 0.83157 0.82324 0.74966 0.0
C542 C 0.861 0.80966 0.77044 0.0
C543 C 0.87628 0.77579 0.75878 0.0
C544 C 0.90773 0.76641 0.78455 0.0
C545 C 0.90801 0.79981 0.81407 0.0
C546 C 0.88042 0.82491 0.80554 0.0
C547 C 0.94217 0.76211 0.75512 0.0
C548 C 0.89907 0.73232 0.80805 0.0
H549 H 0.92182 0.91388 0.93194 0.0
H550 H 0.81848 0.95886 0.85461 0.0
H551 H 0.80368 0.87351 0.87137 0.0
H552 H 0.80253 0.85017 0.82254 0.0
H553 H 0.78774 0.89707 0.82825 0.0
H554 H 0.87352 0.9269 0.78607 0.0
H555 H 0.82664 0.92201 0.7775 0.0
H556 H 0.8606 0.88809 0.75835 0.0
H557 H 0.01387 0.81613 0.94175 0.0
H558 H 0.02601 0.71889 0.86197 0.0
H559 H 0.97246 0.73692 0.82626 0.0
H560 H 0.00037 0.86708 0.87294 0.0
H561 H 0.99109 0.88382 0.92594 0.0
H562 H 0.96456 0.89885 0.88427 0.0
H563 H 0.92623 0.81654 0.95609 0.0
H564 H 0.90972 0.86119 0.95289 0.0
H565 H 0.95362 0.85272 0.97257 0.0
H566 H 0.8952 0.97323 0.94964 0.0
C567 C 0.89949 0.92243 0.91457 0.0
C568 C 0.19212 0.92706 0.16715 0.0
C569 C 0.19397 0.92538 0.12331 0.0
H570 H 0.17485 0.95876 0.22323 0.0
C571 C 0.1852 0.95649 0.10244 0.0
H572 H 0.19849 0.9033 0.18386 0.0
C573 C 0.17173 0.98771 0.12466 0.0
C574 C 0.16669 0.98851 0.16822 0.0
H575 H 0.18673 0.95601 0.06865 0.0
H576 H 0.16337 0.01069 0.1076 0.0
C577 C 0.17849 0.9586 0.18957 0.0
C578 C 0.62988 0.63942 0.69075 0.0
C579 C 0.62165 0.67143 0.67131 0.0
H580 H 0.61498 0.60424 0.73861 0.0
C581 C 0.59449 0.6955 0.68969 0.0
H582 H 0.65108 0.62063 0.67755 0.0
C583 C 0.57349 0.6859 0.72454 0.0
C584 C 0.57959 0.65224 0.74155 0.0
H585 H 0.58757 0.72033 0.67527 0.0
H586 H 0.55077 0.70353 0.736 0.0
C587 C 0.6092 0.63001 0.72565 0.0
C588 C 0.74221 0.08367 0.10228 0.0
C589 C 0.76287 0.11379 0.11023 0.0
H590 H 0.72634 0.03249 0.12337 0.0
C591 C 0.77721 0.11915 0.1494 0.0
H592 H 0.73171 0.07867 0.07182 0.0
C593 C 0.77388 0.09308 0.17885 0.0
C594 C 0.75646 0.06113 0.16932 0.0
H595 H 0.79381 0.14189 0.15576 0.0
H596 H 0.78817 0.0961 0.20723 0.0
C597 C 0.73907 0.05736 0.13173 0.0
C598 C 0.4394 0.26883 0.59992 0.0
C599 C 0.43443 0.27574 0.55812 0.0
H600 H 0.47751 0.26274 0.64705 0.0
C601 C 0.46449 0.27579 0.5299 0.0
H602 H 0.41644 0.26917 0.62224 0.0
C603 C 0.49923 0.27139 0.54372 0.0
C604 C 0.50465 0.268 0.58634 0.0
H605 H 0.46114 0.28108 0.49749 0.0
H606 H 0.52195 0.27288 0.52139 0.0
C607 C 0.47434 0.26511 0.61403 0.0
C608 C 0.67673 0.59008 0.41053 0.0
C609 C 0.65673 0.62072 0.42761 0.0
H610 H 0.6777 0.54376 0.36788 0.0
C611 C 0.62507 0.63179 0.40914 0.0
H612 H 0.70117 0.58094 0.42437 0.0
C613 C 0.61193 0.61095 0.37645 0.0
C614 C 0.62985 0.57824 0.36208 0.0
H615 H 0.60943 0.65564 0.42145 0.0
H616 H 0.58662 0.61942 0.36405 0.0
C617 C 0.66328 0.56886 0.3781 0.0
C618 C 0.93579 0.14805 0.94916 0.0
C619 C 0.92163 0.18346 0.95642 0.0
H620 H 0.97809 0.1132 0.92111 0.0
C621 C 0.94013 0.21185 0.93929 0.0
H622 H 0.92171 0.12563 0.96148 0.0
C623 C 0.97358 0.20489 0.91724 0.0
C624 C 0.98846 0.16937 0.91143 0.0
H625 H 0.92957 0.23942 0.94451 0.0
H626 H 0.98828 0.22736 0.90615 0.0
C627 C 0.96838 0.14102 0.92636 0.0
C628 C 0.28219 0.46094 0.54604 0.0
C629 C 0.28268 0.43211 0.51611 0.0
H630 H 0.27848 0.5181 0.55792 0.0
C631 C 0.2763 0.43886 0.47462 0.0
H632 H 0.28718 0.45616 0.57822 0.0
C633 C 0.27216 0.47443 0.46263 0.0
C634 C 0.27424 0.50358 0.49212 0.0
H635 H 0.27712 0.41686 0.45102 0.0
H636 H 0.26996 0.47904 0.4299 0.0
C637 C 0.27751 0.49632 0.53428 0.0
C638 C 0.08518 0.74387 0.98899 0.0
C639 C 0.11385 0.76586 0.9789 0.0
H640 H 0.03328 0.72622 0.97213 0.0
C641 C 0.11582 0.78106 0.9399 0.0
H642 H 0.08275 0.73266 0.01937 0.0
C643 C 0.08797 0.77702 0.91286 0.0
C644 C 0.05753 0.75809 0.92467 0.0
H645 H 0.1374 0.79865 0.9319 0.0
H646 H 0.08854 0.79164 0.88459 0.0
C647 C 0.05695 0.74019 0.96205 0.0
C648 C 0.79678 0.05072 0.94832 0.0
C649 C 0.82207 0.07783 0.9473 0.0
H650 H 0.78752 0.99461 0.93472 0.0
C651 C 0.85578 0.07036 0.92591 0.0
H652 H 0.77066 0.05573 0.96472 0.0
C653 C 0.86537 0.03574 0.90933 0.0
C654 C 0.84134 0.00793 0.91334 0.0
H655 H 0.8756 0.09086 0.92402 0.0
H656 H 0.89231 0.03025 0.89515 0.0
C657 C 0.80641 0.01584 0.93134 0.0
C658 C 0.4037 0.30675 0.39223 0.0
C659 C 0.37746 0.33087 0.41234 0.0
H660 H 0.44514 0.29874 0.34328 0.0
C661 C 0.36789 0.36276 0.39336 0.0
H662 H 0.41148 0.28193 0.4062 0.0
C663 C 0.38667 0.37211 0.35712 0.0
C664 C 0.41567 0.34996 0.33948 0.0
H665 H 0.34722 0.38151 0.40787 0.0
H666 H 0.38014 0.39788 0.34454 0.0
C667 C 0.42282 0.31631 0.35607 0.0
C668 C 0.20681 0.87779 0.92489 0.0
C669 C 0.22621 0.87928 0.96122 0.0
H670 H 0.18746 0.90713 0.87452 0.0
C671 C 0.24876 0.90824 0.96828 0.0
H672 H 0.1895 0.85565 0.91839 0.0
C673 C 0.24758 0.93766 0.94299 0.0
C674 C 0.22437 0.93809 0.91008 0.0
H675 H 0.26412 0.91015 0.99593 0.0
H676 H 0.26161 0.9616 0.95197 0.0
C677 C 0.20587 0.90707 0.89951 0.0
C678 C 0.55617 0.72729 0.48915 0.0
C679 C 0.56628 0.72715 0.53051 0.0
H680 H 0.51236 0.72573 0.44848 0.0
C681 C 0.53971 0.73188 0.56321 0.0
H682 H 0.57635 0.7229 0.46355 0.0
C683 C 0.50327 0.73362 0.55475 0.0
C684 C 0.49283 0.73003 0.51342 0.0
H685 H 0.54705 0.73137 0.59535 0.0
H686 H 0.48323 0.73493 0.58062 0.0
C687 C 0.51959 0.72886 0.48061 0.0
C688 C 0.32301 0.40861 0.6756 0.0
C689 C 0.34319 0.3785 0.65746 0.0
H690 H 0.32187 0.45385 0.71984 0.0
C691 C 0.37482 0.3669 0.67567 0.0
H692 H 0.29858 0.41811 0.66201 0.0
C693 C 0.3879 0.38695 0.70901 0.0
C694 C 0.36986 0.41929 0.72437 0.0
H695 H 0.39058 0.34339 0.66256 0.0
H696 H 0.41333 0.37834 0.72102 0.0
C697 C 0.33635 0.42899 0.70878 0.0
C698 C 0.07578 0.86836 0.15589 0.0
C699 C 0.08239 0.83305 0.13851 0.0
H700 H 0.03745 0.90685 0.18633 0.0
C701 C 0.05556 0.80777 0.1435 0.0
H702 H 0.09614 0.88831 0.15326 0.0
C703 C 0.02169 0.81856 0.16262 0.0
C704 C 0.0144 0.85467 0.1769 0.0
H705 H 0.05995 0.78037 0.13047 0.0
H706 H 0.00062 0.79929 0.16391 0.0
C707 C 0.0422 0.87903 0.17484 0.0
C708 C 0.72561 0.5431 0.5323 0.0
C709 C 0.7186 0.56876 0.5656 0.0
H710 H 0.73092 0.48698 0.5132 0.0
C711 C 0.71643 0.55763 0.60656 0.0
H712 H 0.72677 0.55127 0.50043 0.0
C713 C 0.71863 0.52087 0.61395 0.0
C714 C 0.7225 0.4949 0.58035 0.0
H715 H 0.71025 0.57711 0.63253 0.0
H716 H 0.71412 0.51276 0.6456 0.0
C717 C 0.72772 0.50642 0.53962 0.0
C718 C 0.87385 0.19797 0.16177 0.0
C719 C 0.87804 0.21776 0.1259 0.0
H720 H 0.8975 0.18101 0.21708 0.0
C721 C 0.9062 0.24186 0.12309 0.0
H722 H 0.85218 0.17952 0.16513 0.0
C723 C 0.93204 0.24288 0.15325 0.0
C724 C 0.92979 0.22002 0.18655 0.0
H725 H 0.91011 0.25749 0.09587 0.0
H726 H 0.95542 0.25895 0.14849 0.0
C727 C 0.89958 0.19898 0.19171 0.0
C728 C 0.26797 0.78272 0.19311 0.0
C729 C 0.23142 0.7788 0.18539 0.0
H730 H 0.3102 0.77456 0.23435 0.0
C731 C 0.20872 0.76443 0.21616 0.0
H732 H 0.28635 0.79352 0.17013 0.0
C733 C 0.22248 0.75383 0.25356 0.0
C734 C 0.2592 0.75739 0.26093 0.0
H735 H 0.18041 0.76112 0.21126 0.0
H736 H 0.20434 0.74298 0.27674 0.0
C737 C 0.28167 0.77205 0.23022 0.0
C738 C 0.75626 0.71669 0.6637 0.0
C739 C 0.76505 0.71607 0.6206 0.0
H740 H 0.77148 0.73271 0.72496 0.0
C741 C 0.79916 0.72704 0.60652 0.0
H742 H 0.73032 0.70801 0.67545 0.0
C743 C 0.82278 0.74127 0.63513 0.0
C744 C 0.81265 0.74401 0.67794 0.0
H745 H 0.80651 0.72691 0.57345 0.0
H746 H 0.84784 0.7521 0.62373 0.0
C747 C 0.77984 0.7305 0.69207 0.0
C748 C 0.70369 0.25637 0.09184 0.0
C749 C 0.73288 0.26717 0.06687 0.0
H750 H 0.65991 0.27286 0.13522 0.0
C751 C 0.73805 0.30397 0.06291 0.0
H752 H 0.69949 0.228 0.09541 0.0
C753 C 0.71469 0.32978 0.08429 0.0
C754 C 0.68637 0.31931 0.11124 0.0
H755 H 0.76026 0.31276 0.04325 0.0
H756 H 0.71921 0.35795 0.07996 0.0
C757 C 0.68091 0.28219 0.11433 0.0
C758 C 0.2846 0.20089 0.60662 0.0
C759 C 0.28341 0.23804 0.61797 0.0
H760 H 0.27134 0.148 0.6248 0.0
C761 C 0.26989 0.24989 0.65829 0.0
H762 H 0.29502 0.19088 0.57587 0.0
C763 C 0.25643 0.22555 0.68592 0.0
C764 C 0.25622 0.18869 0.6741 0.0
H765 H 0.26898 0.2782 0.66841 0.0
H766 H 0.24568 0.23568 0.71652 0.0
C767 C 0.27118 0.17636 0.63458 0.0
C768 C 0.72519 0.74984 0.42211 0.0
C769 C 0.71731 0.76223 0.46387 0.0
H770 H 0.74803 0.76144 0.36208 0.0
C771 C 0.72287 0.79854 0.47554 0.0
H772 H 0.72073 0.72225 0.41175 0.0
C773 C 0.73831 0.8212 0.44655 0.0
C774 C 0.7483 0.80773 0.40572 0.0
H775 H 0.71696 0.80891 0.50741 0.0
H776 H 0.74423 0.8485 0.45657 0.0
C777 C 0.74065 0.77227 0.39349 0.0
C778 C 0.76082 0.20785 0.87218 0.0
C779 C 0.77524 0.23026 0.90317 0.0
H780 H 0.73886 0.20407 0.81188 0.0
C781 C 0.77816 0.26708 0.89641 0.0
H782 H 0.75825 0.17934 0.87637 0.0
C783 C 0.76662 0.28127 0.8599 0.0
C784 C 0.7522 0.25902 0.8288 0.0
H785 H 0.78879 0.28527 0.91969 0.0
H786 H 0.76844 0.30997 0.85649 0.0
C787 C 0.74947 0.22208 0.83534 0.0
C788 C 0.24677 0.27446 0.42052 0.0
C789 C 0.23717 0.28148 0.46316 0.0
H790 H 0.23196 0.25077 0.36218 0.0
C791 C 0.20214 0.2742 0.47838 0.0
H792 H 0.27334 0.28029 0.40768 0.0
C793 C 0.17829 0.25739 0.45195 0.0
C794 C 0.18927 0.24798 0.41019 0.0
H795 H 0.19402 0.27938 0.51109 0.0
H796 H 0.15228 0.24975 0.46467 0.0
C797 C 0.2231 0.25778 0.39438 0.0
C798 C 0.28769 0.73827 0.98532 0.0
C799 C 0.26406 0.72907 0.01826 0.0
H800 H 0.3272 0.72006 0.93749 0.0
C801 C 0.26329 0.6929 0.02882 0.0
H802 H 0.28864 0.76581 0.97601 0.0
C803 C 0.28603 0.66655 0.00699 0.0
C804 C 0.30971 0.67588 0.97405 0.0
H805 H 0.24543 0.68501 0.05416 0.0
H806 H 0.28528 0.63898 0.01616 0.0
C807 C 0.31005 0.71202 0.96338 0.0
loop_
_geom_bond_atom_site_label_1
_geom_bond_atom_site_label_2
_geom_bond_distance
_geom_bond_site_symmetry_2
_ccdc_geom_bond_type
Fe0 O2 1.918 . S
Fe0 O5 1.997 . S
Fe0 O6 2.002 . S
Fe0 O11 1.976 . S
Fe0 O14 1.996 . S
Fe1 O2 1.918 . S
Fe1 O9 1.997 . S
Fe1 O12 1.996 . S
Fe1 O16 1.976 . S
Fe1 O19 2.002 . S
O2 Fe0 1.918 . S
O2 Fe1 1.918 . S
O2 Fe3 1.918 . S
Fe3 O2 1.918 . S
Fe3 O4 2.002 . S
Fe3 O13 1.976 . S
Fe3 O17 1.996 . S
Fe3 O20 1.997 . S
O4 Fe3 2.002 . S
O4 C21 1.295 . S
O5 Fe0 1.997 . S
O5 C21 1.235 . S
O6 Fe0 2.002 . S
O6 C7 1.295 . S
C7 O6 1.295 . S
C7 O9 1.235 . S
C8 O13 1.287 . S
C8 O14 1.255 . S
O9 Fe1 1.997 . S
O9 C7 1.235 . S
C10 O16 1.287 . S
C10 O17 1.255 . S
O11 Fe0 1.976 . S
O11 C18 1.287 . S
O12 Fe1 1.996 . S
O12 C18 1.255 . S
O13 Fe3 1.976 . S
O13 C8 1.287 . S
O14 Fe0 1.996 . S
O14 C8 1.255 . S
C15 O19 1.295 . S
C15 O20 1.235 . S
O16 Fe1 1.976 . S
O16 C10 1.287 . S
O17 Fe3 1.996 . S
O17 C10 1.255 . S
C18 O11 1.287 . S
C18 O12 1.255 . S
O19 Fe1 2.002 . S
O19 C15 1.295 . S
O20 Fe3 1.997 . S
O20 C15 1.235 . S
C21 O4 1.295 . S
C21 O5 1.235 . S
Fe22 O24 1.918 . S
Fe22 O27 1.997 . S
Fe22 O28 2.002 . S
Fe22 O33 1.976 . S
Fe22 O36 1.996 . S
Fe23 O24 1.918 . S
Fe23 O31 1.997 . S
Fe23 O34 1.996 . S
Fe23 O38 1.976 . S
Fe23 O41 2.002 . S
O24 Fe22 1.918 . S
O24 Fe23 1.918 . S
O24 Fe25 1.918 . S
Fe25 O24 1.918 . S
Fe25 O26 2.002 . S
Fe25 O35 1.976 . S
Fe25 O39 1.996 . S
Fe25 O42 1.997 . S
O26 Fe25 2.002 . S
O26 C43 1.295 . S
O27 Fe22 1.997 . S
O27 C43 1.235 . S
O28 Fe22 2.002 . S
O28 C29 1.295 . S
C29 O28 1.295 . S
C29 O31 1.235 . S
C30 O35 1.287 . S
C30 O36 1.255 . S
O31 Fe23 1.997 . S
O31 C29 1.235 . S
C32 O38 1.287 . S
C32 O39 1.255 . S
O33 Fe22 1.976 . S
O33 C40 1.287 . S
O34 Fe23 1.996 . S
O34 C40 1.255 . S
O35 Fe25 1.976 . S
O35 C30 1.287 . S
O36 Fe22 1.996 . S
O36 C30 1.255 . S
C37 O41 1.295 . S
C37 O42 1.235 . S
O38 Fe23 1.976 . S
O38 C32 1.287 . S
O39 Fe25 1.996 . S
O39 C32 1.255 . S
C40 O33 1.287 . S
C40 O34 1.255 . S
O41 Fe23 2.002 . S
O41 C37 1.295 . S
O42 Fe25 1.997 . S
O42 C37 1.235 . S
C43 O26 1.295 . S
C43 O27 1.235 . S
Fe44 O46 1.918 . S
Fe44 O49 1.997 1_554 S
Fe44 O50 2.003 1_554 S
Fe44 O55 1.975 . S
Fe44 O58 1.995 . S
Fe45 O46 1.918 . S
Fe45 O53 1.997 1_554 S
Fe45 O56 1.996 . S
Fe45 O60 1.976 . S
Fe45 O63 2.002 1_554 S
O46 Fe44 1.918 . S
O46 Fe45 1.918 . S
O46 Fe47 1.919 . S
Fe47 O46 1.919 . S
Fe47 O48 1.998 1_554 S
Fe47 O57 1.978 . S
Fe47 O61 2.000 . S
Fe47 O64 1.994 1_554 S
O48 Fe47 1.998 1_556 S
O48 C65 1.295 . S
O49 Fe44 1.997 1_556 S
O49 C65 1.235 . S
O50 Fe44 2.003 1_556 S
O50 C51 1.295 . S
C51 O50 1.295 . S
C51 O53 1.235 . S
C52 O57 1.287 . S
C52 O58 1.255 . S
O53 Fe45 1.997 1_556 S
O53 C51 1.235 . S
C54 O60 1.287 . S
C54 O61 1.255 . S
O55 Fe44 1.975 . S
O55 C62 1.287 . S
O56 Fe45 1.996 . S
O56 C62 1.255 . S
O57 Fe47 1.978 . S
O57 C52 1.287 . S
O58 Fe44 1.995 . S
O58 C52 1.255 . S
C59 O63 1.295 . S
C59 O64 1.235 . S
O60 Fe45 1.976 . S
O60 C54 1.287 . S
O61 Fe47 2.000 . S
O61 C54 1.255 . S
C62 O55 1.287 . S
C62 O56 1.255 . S
O63 Fe45 2.002 1_556 S
O63 C59 1.295 . S
O64 Fe47 1.994 1_556 S
O64 C59 1.235 . S
C65 O48 1.295 . S
C65 O49 1.235 . S
Fe66 O68 1.918 . S
Fe66 O71 1.997 . S
Fe66 O72 2.002 . S
Fe66 O77 1.976 . S
Fe66 O80 1.996 . S
Fe67 O68 1.918 . S
Fe67 O75 1.997 . S
Fe67 O78 1.996 . S
Fe67 O82 1.976 . S
Fe67 O85 2.002 . S
O68 Fe66 1.918 . S
O68 Fe67 1.918 . S
O68 Fe69 1.918 . S
Fe69 O68 1.918 . S
Fe69 O70 2.002 . S
Fe69 O79 1.976 . S
Fe69 O83 1.996 . S
Fe69 O86 1.997 . S
O70 Fe69 2.002 . S
O70 C87 1.295 . S
O71 Fe66 1.997 . S
O71 C87 1.235 . S
O72 Fe66 2.002 . S
O72 C73 1.295 . S
C73 O72 1.295 . S
C73 O75 1.235 . S
C74 O79 1.287 . S
C74 O80 1.255 . S
O75 Fe67 1.997 . S
O75 C73 1.235 . S
C76 O82 1.287 . S
C76 O83 1.255 . S
O77 Fe66 1.976 . S
O77 C84 1.287 . S
O78 Fe67 1.996 . S
O78 C84 1.255 . S
O79 Fe69 1.976 . S
O79 C74 1.287 . S
O80 Fe66 1.996 . S
O80 C74 1.255 . S
C81 O85 1.295 . S
C81 O86 1.235 . S
O82 Fe67 1.976 . S
O82 C76 1.287 . S
O83 Fe69 1.996 . S
O83 C76 1.255 . S
C84 O77 1.287 . S
C84 O78 1.255 . S
O85 Fe67 2.002 . S
O85 C81 1.295 . S
O86 Fe69 1.997 . S
O86 C81 1.235 . S
C87 O70 1.295 . S
C87 O71 1.235 . S
C88 C89 1.391 . S
C88 C92 1.391 . S
C88 H130 0.948 . S
C89 C88 1.391 . S
C89 C90 1.391 . S
C90 C89 1.391 . S
C90 H146 0.947 . S
C90 C147 1.392 . S
C91 C92 1.391 . S
C91 C95 1.397 . S
C91 C147 1.419 . S
C92 C88 1.391 . S
C92 C91 1.391 . S
C92 C93 1.399 . S
C93 C92 1.399 . S
C93 C96 1.396 . S
C93 C105 1.453 . S
C93 C106 1.684 . S
H94 C118 0.948 . S
C95 C91 1.397 . S
C95 C96 1.394 . S
C95 C114 1.723 . S
C96 C93 1.396 . S
C96 C95 1.394 . S
C96 C126 1.723 . S
H97 C120 0.947 . S
H98 C121 0.948 . S
H99 C127 0.982 . S
H100 C128 0.979 . S
H101 C128 0.980 . S
H102 C128 0.983 . S
H103 C127 0.979 . S
H104 C127 0.977 . S
C105 C93 1.453 . S
C105 H134 0.982 . S
C105 H135 0.979 . S
C105 H136 0.977 . S
C106 C93 1.684 . S
C106 H131 0.979 . S
C106 H132 0.980 . S
C106 H133 0.983 . S
C107 C108 1.391 1_455 S
C107 C112 1.391 . S
C107 H137 0.948 1_455 S
C108 C107 1.391 1_655 S
C108 C109 1.391 1_655 S
C109 C108 1.391 1_455 S
C109 C110 1.392 . S
C109 H138 0.947 1_455 S
C110 C109 1.392 . S
C110 C111 1.419 . S
C110 H139 0.948 . S
C111 C110 1.419 . S
C111 C112 1.391 . S
C111 C115 1.397 . S
C112 C107 1.391 . S
C112 C111 1.391 . S
C112 C113 1.399 . S
C113 C112 1.399 . S
C113 C114 1.396 . S
C113 C116 1.453 . S
C113 C117 1.684 . S
C114 C95 1.723 . S
C114 C113 1.396 . S
C114 C115 1.394 . S
C115 C111 1.397 . S
C115 C114 1.394 . S
C115 C125 1.723 . S
C116 C113 1.453 . S
C116 H140 0.982 . S
C116 H141 0.979 . S
C116 H142 0.977 . S
C117 C113 1.684 . S
C117 H143 0.979 . S
C117 H144 0.980 . S
C117 H145 0.983 . S
C118 H94 0.948 . S
C118 C119 1.391 . S
C118 C123 1.391 . S
C119 C118 1.391 . S
C119 C120 1.391 . S
C120 H97 0.947 . S
C120 C119 1.391 . S
C120 C121 1.392 . S
C121 H98 0.948 . S
C121 C120 1.392 . S
C121 C122 1.419 . S
C122 C121 1.419 . S
C122 C123 1.391 . S
C122 C126 1.397 . S
C123 C118 1.391 . S
C123 C122 1.391 . S
C123 C124 1.399 . S
C124 C123 1.399 . S
C124 C125 1.396 . S
C124 C127 1.453 . S
C124 C128 1.684 . S
C125 C115 1.723 . S
C125 C124 1.396 . S
C125 C126 1.394 . S
C126 C96 1.723 . S
C126 C122 1.397 . S
C126 C125 1.394 . S
C127 H99 0.982 . S
C127 H103 0.979 . S
C127 H104 0.977 . S
C127 C124 1.453 . S
C128 H100 0.979 . S
C128 H101 0.980 . S
C128 H102 0.983 . S
C128 C124 1.684 . S
H129 C147 0.948 . S
H130 C88 0.948 . S
H131 C106 0.979 . S
H132 C106 0.980 . S
H133 C106 0.983 . S
H134 C105 0.982 . S
H135 C105 0.979 . S
H136 C105 0.977 . S
H137 C107 0.948 1_655 S
H138 C109 0.947 1_655 S
H139 C110 0.948 . S
H140 C116 0.982 . S
H141 C116 0.979 . S
H142 C116 0.977 . S
H143 C117 0.979 . S
H144 C117 0.980 . S
H145 C117 0.983 . S
H146 C90 0.947 . S
C147 C90 1.392 . S
C147 C91 1.419 . S
C147 H129 0.948 . S
C148 C149 1.391 . S
C148 C152 1.391 . S
C148 H190 0.948 . S
C149 C148 1.391 . S
C149 C150 1.391 . S
C150 C149 1.391 . S
C150 H206 0.947 . S
C150 C207 1.392 . S
C151 C152 1.391 . S
C151 C155 1.397 . S
C151 C207 1.419 . S
C152 C148 1.391 . S
C152 C151 1.391 . S
C152 C153 1.399 . S
C153 C152 1.399 . S
C153 C156 1.396 . S
C153 C165 1.453 . S
C153 C166 1.684 . S
H154 C178 0.948 . S
C155 C151 1.397 . S
C155 C156 1.394 . S
C155 C174 1.723 . S
C156 C153 1.396 . S
C156 C155 1.394 . S
C156 C186 1.723 . S
H157 C180 0.947 . S
H158 C181 0.948 . S
H159 C187 0.982 . S
H160 C188 0.979 . S
H161 C188 0.980 . S
H162 C188 0.983 . S
H163 C187 0.979 . S
H164 C187 0.977 . S
C165 C153 1.453 . S
C165 H194 0.982 . S
C165 H195 0.979 . S
C165 H196 0.977 . S
C166 C153 1.684 . S
C166 H191 0.979 . S
C166 H192 0.980 . S
C166 H193 0.983 . S
C167 C168 1.391 . S
C167 C172 1.391 . S
C167 H197 0.948 . S
C168 C167 1.391 . S
C168 C169 1.391 . S
C169 C168 1.391 . S
C169 C170 1.392 . S
C169 H198 0.947 . S
C170 C169 1.392 . S
C170 C171 1.419 . S
C170 H199 0.948 . S
C171 C170 1.419 . S
C171 C172 1.391 . S
C171 C175 1.397 . S
C172 C167 1.391 . S
C172 C171 1.391 . S
C172 C173 1.399 . S
C173 C172 1.399 . S
C173 C174 1.396 . S
C173 C176 1.453 . S
C173 C177 1.684 . S
C174 C155 1.723 . S
C174 C173 1.396 . S
C174 C175 1.394 . S
C175 C171 1.397 . S
C175 C174 1.394 . S
C175 C185 1.723 . S
C176 C173 1.453 . S
C176 H200 0.982 . S
C176 H201 0.979 . S
C176 H202 0.977 . S
C177 C173 1.684 . S
C177 H203 0.979 . S
C177 H204 0.980 . S
C177 H205 0.983 . S
C178 H154 0.948 . S
C178 C179 1.391 . S
C178 C183 1.391 . S
C179 C178 1.391 . S
C179 C180 1.391 . S
C180 H157 0.947 . S
C180 C179 1.391 . S
C180 C181 1.392 . S
C181 H158 0.948 . S
C181 C180 1.392 . S
C181 C182 1.419 . S
C182 C181 1.419 . S
C182 C183 1.391 . S
C182 C186 1.397 . S
C183 C178 1.391 . S
C183 C182 1.391 . S
C183 C184 1.399 . S
C184 C183 1.399 . S
C184 C185 1.396 . S
C184 C187 1.453 . S
C184 C188 1.684 . S
C185 C175 1.723 . S
C185 C184 1.396 . S
C185 C186 1.394 . S
C186 C156 1.723 . S
C186 C182 1.397 . S
C186 C185 1.394 . S
C187 H159 0.982 . S
C187 H163 0.979 . S
C187 H164 0.977 . S
C187 C184 1.453 . S
C188 H160 0.979 . S
C188 H161 0.980 . S
C188 H162 0.983 . S
C188 C184 1.684 . S
H189 C207 0.948 . S
H190 C148 0.948 . S
H191 C166 0.979 . S
H192 C166 0.980 . S
H193 C166 0.983 . S
H194 C165 0.982 . S
H195 C165 0.979 . S
H196 C165 0.977 . S
H197 C167 0.948 . S
H198 C169 0.947 . S
H199 C170 0.948 . S
H200 C176 0.982 . S
H201 C176 0.979 . S
H202 C176 0.977 . S
H203 C177 0.979 . S
H204 C177 0.980 . S
H205 C177 0.983 . S
H206 C150 0.947 . S
C207 C150 1.392 . S
C207 C151 1.419 . S
C207 H189 0.948 . S
C208 C209 1.391 . S
C208 C212 1.391 . S
C208 H250 0.948 . S
C209 C208 1.391 . S
C209 C210 1.391 . S
C210 C209 1.391 . S
C210 H266 0.947 . S
C210 C267 1.392 . S
C211 C212 1.391 . S
C211 C215 1.397 . S
C211 C267 1.419 . S
C212 C208 1.391 . S
C212 C211 1.391 . S
C212 C213 1.399 . S
C213 C212 1.399 . S
C213 C216 1.396 . S
C213 C225 1.453 . S
C213 C226 1.684 . S
H214 C238 0.948 1_545 S
C215 C211 1.397 . S
C215 C216 1.394 . S
C215 C234 1.723 . S
C216 C213 1.396 . S
C216 C215 1.394 . S
C216 C246 1.723 . S
H217 C240 0.947 1_545 S
H218 C241 0.948 . S
H219 C247 0.982 . S
H220 C248 0.979 . S
H221 C248 0.980 . S
H222 C248 0.983 . S
H223 C247 0.979 . S
H224 C247 0.977 . S
C225 C213 1.453 . S
C225 H254 0.982 . S
C225 H255 0.979 . S
C225 H256 0.977 . S
C226 C213 1.684 . S
C226 H251 0.979 . S
C226 H252 0.980 . S
C226 H253 0.983 . S
C227 C228 1.391 . S
C227 C232 1.391 . S
C227 H257 0.948 . S
C228 C227 1.391 . S
C228 C229 1.391 . S
C229 C228 1.391 . S
C229 C230 1.392 . S
C229 H258 0.947 . S
C230 C229 1.392 . S
C230 C231 1.419 . S
C230 H259 0.948 . S
C231 C230 1.419 . S
C231 C232 1.391 . S
C231 C235 1.397 . S
C232 C227 1.391 . S
C232 C231 1.391 . S
C232 C233 1.399 . S
C233 C232 1.399 . S
C233 C234 1.396 . S
C233 C236 1.453 . S
C233 C237 1.684 . S
C234 C215 1.723 . S
C234 C233 1.396 . S
C234 C235 1.394 . S
C235 C231 1.397 . S
C235 C234 1.394 . S
C235 C245 1.723 . S
C236 C233 1.453 . S
C236 H260 0.982 . S
C236 H261 0.979 . S
C236 H262 0.977 . S
C237 C233 1.684 . S
C237 H263 0.979 . S
C237 H264 0.980 . S
C237 H265 0.983 . S
C238 H214 0.948 1_565 S
C238 C239 1.391 1_565 S
C238 C243 1.391 . S
C239 C238 1.391 1_545 S
C239 C240 1.391 1_545 S
C240 H217 0.947 1_565 S
C240 C239 1.391 1_565 S
C240 C241 1.392 . S
C241 H218 0.948 . S
C241 C240 1.392 . S
C241 C242 1.419 . S
C242 C241 1.419 . S
C242 C243 1.391 . S
C242 C246 1.397 . S
C243 C238 1.391 . S
C243 C242 1.391 . S
C243 C244 1.399 . S
C244 C243 1.399 . S
C244 C245 1.396 . S
C244 C247 1.453 . S
C244 C248 1.684 . S
C245 C235 1.723 . S
C245 C244 1.396 . S
C245 C246 1.394 . S
C246 C216 1.723 . S
C246 C242 1.397 . S
C246 C245 1.394 . S
C247 H219 0.982 . S
C247 H223 0.979 . S
C247 H224 0.977 . S
C247 C244 1.453 . S
C248 H220 0.979 . S
C248 H221 0.980 . S
C248 H222 0.983 . S
C248 C244 1.684 . S
H249 C267 0.948 . S
H250 C208 0.948 . S
H251 C226 0.979 . S
H252 C226 0.980 . S
H253 C226 0.983 . S
H254 C225 0.982 . S
H255 C225 0.979 . S
H256 C225 0.977 . S
H257 C227 0.948 . S
H258 C229 0.947 . S
H259 C230 0.948 . S
H260 C236 0.982 . S
H261 C236 0.979 . S
H262 C236 0.977 . S
H263 C237 0.979 . S
H264 C237 0.980 . S
H265 C237 0.983 . S
H266 C210 0.947 . S
C267 C210 1.392 . S
C267 C211 1.419 . S
C267 H249 0.948 . S
C268 C269 1.391 . S
C268 C272 1.391 . S
C268 H310 0.948 . S
C269 C268 1.391 . S
C269 C270 1.391 . S
C270 C269 1.391 . S
C270 H326 0.947 . S
C270 C327 1.392 . S
C271 C272 1.391 . S
C271 C275 1.397 . S
C271 C327 1.419 . S
C272 C268 1.391 . S
C272 C271 1.391 . S
C272 C273 1.399 . S
C273 C272 1.399 . S
C273 C276 1.396 . S
C273 C285 1.453 . S
C273 C286 1.684 . S
H274 C298 0.948 . S
C275 C271 1.397 . S
C275 C276 1.394 . S
C275 C294 1.723 . S
C276 C273 1.396 . S
C276 C275 1.394 . S
C276 C306 1.723 . S
H277 C300 0.947 . S
H278 C301 0.948 . S
H279 C307 0.982 . S
H280 C308 0.979 . S
H281 C308 0.980 . S
H282 C308 0.983 . S
H283 C307 0.979 . S
H284 C307 0.977 . S
C285 C273 1.453 . S
C285 H314 0.982 . S
C285 H315 0.979 . S
C285 H316 0.977 . S
C286 C273 1.684 . S
C286 H311 0.979 . S
C286 H312 0.980 . S
C286 H313 0.983 . S
C287 C288 1.391 . S
C287 C292 1.391 . S
C287 H317 0.948 . S
C288 C287 1.391 . S
C288 C289 1.391 . S
C289 C288 1.391 . S
C289 C290 1.392 . S
C289 H318 0.947 . S
C290 C289 1.392 . S
C290 C291 1.419 . S
C290 H319 0.948 . S
C291 C290 1.419 . S
C291 C292 1.391 . S
C291 C295 1.397 . S
C292 C287 1.391 . S
C292 C291 1.391 . S
C292 C293 1.399 . S
C293 C292 1.399 . S
C293 C294 1.396 . S
C293 C296 1.453 . S
C293 C297 1.684 . S
C294 C275 1.723 . S
C294 C293 1.396 . S
C294 C295 1.394 . S
C295 C291 1.397 . S
C295 C294 1.394 . S
C295 C305 1.723 . S
C296 C293 1.453 . S
C296 H320 0.982 . S
C296 H321 0.979 . S
C296 H322 0.977 . S
C297 C293 1.684 . S
C297 H323 0.979 . S
C297 H324 0.980 . S
C297 H325 0.983 . S
C298 H274 0.948 . S
C298 C299 1.391 . S
C298 C303 1.391 . S
C299 C298 1.391 . S
C299 C300 1.391 . S
C300 H277 0.947 . S
C300 C299 1.391 . S
C300 C301 1.392 . S
C301 H278 0.948 . S
C301 C300 1.392 . S
C301 C302 1.419 . S
C302 C301 1.419 . S
C302 C303 1.391 . S
C302 C306 1.397 . S
C303 C298 1.391 . S
C303 C302 1.391 . S
C303 C304 1.399 . S
C304 C303 1.399 . S
C304 C305 1.396 . S
C304 C307 1.453 . S
C304 C308 1.684 . S
C305 C295 1.723 . S
C305 C304 1.396 . S
C305 C306 1.394 . S
C306 C276 1.723 . S
C306 C302 1.397 . S
C306 C305 1.394 . S
C307 H279 0.982 . S
C307 H283 0.979 . S
C307 H284 0.977 . S
C307 C304 1.453 . S
C308 H280 0.979 . S
C308 H281 0.980 . S
C308 H282 0.983 . S
C308 C304 1.684 . S
H309 C327 0.948 . S
H310 C268 0.948 . S
H311 C286 0.979 . S
H312 C286 0.980 . S
H313 C286 0.983 . S
H314 C285 0.982 . S
H315 C285 0.979 . S
H316 C285 0.977 . S
H317 C287 0.948 . S
H318 C289 0.947 . S
H319 C290 0.948 . S
H320 C296 0.982 . S
H321 C296 0.979 . S
H322 C296 0.977 . S
H323 C297 0.979 . S
H324 C297 0.980 . S
H325 C297 0.983 . S
H326 C270 0.947 . S
C327 C270 1.392 . S
C327 C271 1.419 . S
C327 H309 0.948 . S
C328 C329 1.391 . S
C328 C332 1.391 . S
C328 H370 0.948 . S
C329 C328 1.391 . S
C329 C330 1.391 . S
C330 C329 1.391 . S
C330 H386 0.947 . S
C330 C387 1.392 . S
C331 C332 1.391 . S
C331 C335 1.397 . S
C331 C387 1.419 . S
C332 C328 1.391 . S
C332 C331 1.391 . S
C332 C333 1.399 . S
C333 C332 1.399 . S
C333 C336 1.396 . S
C333 C345 1.453 . S
C333 C346 1.684 . S
H334 C358 0.948 . S
C335 C331 1.397 . S
C335 C336 1.394 . S
C335 C354 1.723 . S
C336 C333 1.396 . S
C336 C335 1.394 . S
C336 C366 1.723 . S
H337 C360 0.947 . S
H338 C361 0.948 . S
H339 C367 0.982 . S
H340 C368 0.979 . S
H341 C368 0.980 . S
H342 C368 0.983 . S
H343 C367 0.979 . S
H344 C367 0.977 . S
C345 C333 1.453 . S
C345 H374 0.982 . S
C345 H375 0.979 . S
C345 H376 0.977 . S
C346 C333 1.684 . S
C346 H371 0.979 . S
C346 H372 0.980 . S
C346 H373 0.983 . S
C347 C348 1.391 . S
C347 C352 1.391 . S
C347 H377 0.948 . S
C348 C347 1.391 . S
C348 C349 1.391 . S
C349 C348 1.391 . S
C349 C350 1.392 . S
C349 H378 0.947 . S
C350 C349 1.392 . S
C350 C351 1.419 . S
C350 H379 0.948 . S
C351 C350 1.419 . S
C351 C352 1.391 . S
C351 C355 1.397 . S
C352 C347 1.391 . S
C352 C351 1.391 . S
C352 C353 1.399 . S
C353 C352 1.399 . S
C353 C354 1.396 . S
C353 C356 1.453 . S
C353 C357 1.684 . S
C354 C335 1.723 . S
C354 C353 1.396 . S
C354 C355 1.394 . S
C355 C351 1.397 . S
C355 C354 1.394 . S
C355 C365 1.723 . S
C356 C353 1.453 . S
C356 H380 0.982 . S
C356 H381 0.979 . S
C356 H382 0.977 . S
C357 C353 1.684 . S
C357 H383 0.979 . S
C357 H384 0.980 . S
C357 H385 0.983 . S
C358 H334 0.948 . S
C358 C359 1.391 . S
C358 C363 1.391 . S
C359 C358 1.391 . S
C359 C360 1.391 . S
C360 H337 0.947 . S
C360 C359 1.391 . S
C360 C361 1.392 . S
C361 H338 0.948 . S
C361 C360 1.392 . S
C361 C362 1.419 . S
C362 C361 1.419 . S
C362 C363 1.391 . S
C362 C366 1.397 . S
C363 C358 1.391 . S
C363 C362 1.391 . S
C363 C364 1.399 . S
C364 C363 1.399 . S
C364 C365 1.396 . S
C364 C367 1.453 . S
C364 C368 1.684 . S
C365 C355 1.723 . S
C365 C364 1.396 . S
C365 C366 1.394 . S
C366 C336 1.723 . S
C366 C362 1.397 . S
C366 C365 1.394 . S
C367 H339 0.982 . S
C367 H343 0.979 . S
C367 H344 0.977 . S
C367 C364 1.453 . S
C368 H340 0.979 . S
C368 H341 0.980 . S
C368 H342 0.983 . S
C368 C364 1.684 . S
H369 C387 0.948 . S
H370 C328 0.948 . S
H371 C346 0.979 . S
H372 C346 0.980 . S
H373 C346 0.983 . S
H374 C345 0.982 . S
H375 C345 0.979 . S
H376 C345 0.977 . S
H377 C347 0.948 . S
H378 C349 0.947 . S
H379 C350 0.948 . S
H380 C356 0.982 . S
H381 C356 0.979 . S
H382 C356 0.977 . S
H383 C357 0.979 . S
H384 C357 0.980 . S
H385 C357 0.983 . S
H386 C330 0.947 . S
C387 C330 1.392 . S
C387 C331 1.419 . S
C387 H369 0.948 . S
C388 C389 1.391 . S
C388 C392 1.391 . S
C388 H430 0.948 . S
C389 C388 1.391 . S
C389 C390 1.391 . S
C390 C389 1.391 . S
C390 H446 0.947 . S
C390 C447 1.392 . S
C391 C392 1.391 . S
C391 C395 1.397 . S
C391 C447 1.419 . S
C392 C388 1.391 . S
C392 C391 1.391 . S
C392 C393 1.399 . S
C393 C392 1.399 . S
C393 C396 1.396 . S
C393 C405 1.453 . S
C393 C406 1.684 . S
H394 C418 0.948 . S
C395 C391 1.397 . S
C395 C396 1.394 . S
C395 C414 1.723 . S
C396 C393 1.396 . S
C396 C395 1.394 . S
C396 C426 1.723 . S
H397 C420 0.947 . S
H398 C421 0.948 . S
H399 C427 0.982 . S
H400 C428 0.979 . S
H401 C428 0.980 . S
H402 C428 0.983 . S
H403 C427 0.979 . S
H404 C427 0.977 . S
C405 C393 1.453 . S
C405 H434 0.982 . S
C405 H435 0.979 . S
C405 H436 0.977 . S
C406 C393 1.684 . S
C406 H431 0.979 . S
C406 H432 0.980 . S
C406 H433 0.983 . S
C407 C408 1.391 1_545 S
C407 C412 1.391 . S
C407 H437 0.948 . S
C408 C407 1.391 1_565 S
C408 C409 1.391 1_565 S
C409 C408 1.391 1_545 S
C409 C410 1.392 . S
C409 H438 0.947 1_545 S
C410 C409 1.392 . S
C410 C411 1.419 . S
C410 H439 0.948 . S
C411 C410 1.419 . S
C411 C412 1.391 . S
C411 C415 1.397 . S
C412 C407 1.391 . S
C412 C411 1.391 . S
C412 C413 1.399 . S
C413 C412 1.399 . S
C413 C414 1.396 . S
C413 C416 1.453 . S
C413 C417 1.684 . S
C414 C395 1.723 . S
C414 C413 1.396 . S
C414 C415 1.394 . S
C415 C411 1.397 . S
C415 C414 1.394 . S
C415 C425 1.723 . S
C416 C413 1.453 . S
C416 H440 0.982 . S
C416 H441 0.979 . S
C416 H442 0.977 . S
C417 C413 1.684 . S
C417 H443 0.979 . S
C417 H444 0.980 . S
C417 H445 0.983 . S
C418 H394 0.948 . S
C418 C419 1.391 . S
C418 C423 1.391 . S
C419 C418 1.391 . S
C419 C420 1.391 . S
C420 H397 0.947 . S
C420 C419 1.391 . S
C420 C421 1.392 . S
C421 H398 0.948 . S
C421 C420 1.392 . S
C421 C422 1.419 . S
C422 C421 1.419 . S
C422 C423 1.391 . S
C422 C426 1.397 . S
C423 C418 1.391 . S
C423 C422 1.391 . S
C423 C424 1.399 . S
C424 C423 1.399 . S
C424 C425 1.396 . S
C424 C427 1.453 . S
C424 C428 1.684 . S
C425 C415 1.723 . S
C425 C424 1.396 . S
C425 C426 1.394 . S
C426 C396 1.723 . S
C426 C422 1.397 . S
C426 C425 1.394 . S
C427 H399 0.982 . S
C427 H403 0.979 . S
C427 H404 0.977 . S
C427 C424 1.453 . S
C428 H400 0.979 . S
C428 H401 0.980 . S
C428 H402 0.983 . S
C428 C424 1.684 . S
H429 C447 0.948 . S
H430 C388 0.948 . S
H431 C406 0.979 . S
H432 C406 0.980 . S
H433 C406 0.983 . S
H434 C405 0.982 . S
H435 C405 0.979 . S
H436 C405 0.977 . S
H437 C407 0.948 . S
H438 C409 0.947 1_565 S
H439 C410 0.948 . S
H440 C416 0.982 . S
H441 C416 0.979 . S
H442 C416 0.977 . S
H443 C417 0.979 . S
H444 C417 0.980 . S
H445 C417 0.983 . S
H446 C390 0.947 . S
C447 C390 1.392 . S
C447 C391 1.419 . S
C447 H429 0.948 . S
C448 C449 1.391 . S
C448 C452 1.391 . S
C448 H490 0.948 . S
C449 C448 1.391 . S
C449 C450 1.391 . S
C450 C449 1.391 . S
C450 H506 0.947 . S
C450 C507 1.392 . S
C451 C452 1.391 . S
C451 C455 1.397 . S
C451 C507 1.419 . S
C452 C448 1.391 . S
C452 C451 1.391 . S
C452 C453 1.399 . S
C453 C452 1.399 . S
C453 C456 1.396 . S
C453 C465 1.453 . S
C453 C466 1.684 . S
H454 C478 0.948 . S
C455 C451 1.397 . S
C455 C456 1.394 . S
C455 C474 1.723 . S
C456 C453 1.396 . S
C456 C455 1.394 . S
C456 C486 1.723 . S
H457 C480 0.947 . S
H458 C481 0.948 . S
H459 C487 0.982 . S
H460 C488 0.979 . S
H461 C488 0.980 . S
H462 C488 0.983 . S
H463 C487 0.979 . S
H464 C487 0.977 . S
C465 C453 1.453 . S
C465 H494 0.982 . S
C465 H495 0.979 . S
C465 H496 0.977 . S
C466 C453 1.684 . S
C466 H491 0.979 . S
C466 H492 0.980 . S
C466 H493 0.983 . S
C467 C468 1.391 . S
C467 C472 1.391 . S
C467 H497 0.948 . S
C468 C467 1.391 . S
C468 C469 1.391 . S
C469 C468 1.391 . S
C469 C470 1.392 . S
C469 H498 0.947 . S
C470 C469 1.392 . S
C470 C471 1.419 . S
C470 H499 0.948 . S
C471 C470 1.419 . S
C471 C472 1.391 . S
C471 C475 1.397 . S
C472 C467 1.391 . S
C472 C471 1.391 . S
C472 C473 1.399 . S
C473 C472 1.399 . S
C473 C474 1.396 . S
C473 C476 1.453 . S
C473 C477 1.684 . S
C474 C455 1.723 . S
C474 C473 1.396 . S
C474 C475 1.394 . S
C475 C471 1.397 . S
C475 C474 1.394 . S
C475 C485 1.723 . S
C476 C473 1.453 . S
C476 H500 0.982 . S
C476 H501 0.979 . S
C476 H502 0.977 . S
C477 C473 1.684 . S
C477 H503 0.979 . S
C477 H504 0.980 . S
C477 H505 0.983 . S
C478 H454 0.948 . S
C478 C479 1.391 . S
C478 C483 1.391 . S
C479 C478 1.391 . S
C479 C480 1.391 . S
C480 H457 0.947 . S
C480 C479 1.391 . S
C480 C481 1.392 . S
C481 H458 0.948 . S
C481 C480 1.392 . S
C481 C482 1.419 . S
C482 C481 1.419 . S
C482 C483 1.391 . S
C482 C486 1.397 . S
C483 C478 1.391 . S
C483 C482 1.391 . S
C483 C484 1.399 . S
C484 C483 1.399 . S
C484 C485 1.396 . S
C484 C487 1.453 . S
C484 C488 1.684 . S
C485 C475 1.723 . S
C485 C484 1.396 . S
C485 C486 1.394 . S
C486 C456 1.723 . S
C486 C482 1.397 . S
C486 C485 1.394 . S
C487 H459 0.982 . S
C487 H463 0.979 . S
C487 H464 0.977 . S
C487 C484 1.453 . S
C488 H460 0.979 . S
C488 H461 0.980 . S
C488 H462 0.983 . S
C488 C484 1.684 . S
H489 C507 0.948 . S
H490 C448 0.948 . S
H491 C466 0.979 . S
H492 C466 0.980 . S
H493 C466 0.983 . S
H494 C465 0.982 . S
H495 C465 0.979 . S
H496 C465 0.977 . S
H497 C467 0.948 . S
H498 C469 0.947 . S
H499 C470 0.948 . S
H500 C476 0.982 . S
H501 C476 0.979 . S
H502 C476 0.977 . S
H503 C477 0.979 . S
H504 C477 0.980 . S
H505 C477 0.983 . S
H506 C450 0.947 . S
C507 C450 1.392 . S
C507 C451 1.419 . S
C507 H489 0.948 . S
C508 C509 1.391 . S
C508 C512 1.391 . S
C508 H550 0.948 . S
C509 C508 1.391 . S
C509 C510 1.391 . S
C510 C509 1.391 . S
C510 H566 0.947 . S
C510 C567 1.392 . S
C511 C512 1.391 . S
C511 C515 1.397 . S
C511 C567 1.419 . S
C512 C508 1.391 . S
C512 C511 1.391 . S
C512 C513 1.399 . S
C513 C512 1.399 . S
C513 C516 1.396 . S
C513 C525 1.453 . S
C513 C526 1.684 . S
H514 C538 0.948 . S
C515 C511 1.397 . S
C515 C516 1.394 . S
C515 C534 1.723 . S
C516 C513 1.396 . S
C516 C515 1.394 . S
C516 C546 1.723 . S
H517 C540 0.947 . S
H518 C541 0.948 . S
H519 C547 0.982 . S
H520 C548 0.979 . S
H521 C548 0.980 . S
H522 C548 0.983 . S
H523 C547 0.979 . S
H524 C547 0.977 . S
C525 C513 1.453 . S
C525 H554 0.982 . S
C525 H555 0.979 . S
C525 H556 0.977 . S
C526 C513 1.684 . S
C526 H551 0.979 . S
C526 H552 0.980 . S
C526 H553 0.983 . S
C527 C528 1.391 1_655 S
C527 C532 1.391 . S
C527 H557 0.948 1_655 S
C528 C527 1.391 1_455 S
C528 C529 1.391 1_455 S
C529 C528 1.391 1_655 S
C529 C530 1.392 . S
C529 H558 0.947 1_655 S
C530 C529 1.392 . S
C530 C531 1.419 . S
C530 H559 0.948 . S
C531 C530 1.419 . S
C531 C532 1.391 . S
C531 C535 1.397 . S
C532 C527 1.391 . S
C532 C531 1.391 . S
C532 C533 1.399 . S
C533 C532 1.399 . S
C533 C534 1.396 . S
C533 C536 1.453 . S
C533 C537 1.684 . S
C534 C515 1.723 . S
C534 C533 1.396 . S
C534 C535 1.394 . S
C535 C531 1.397 . S
C535 C534 1.394 . S
C535 C545 1.723 . S
C536 C533 1.453 . S
C536 H560 0.982 . S
C536 H561 0.979 . S
C536 H562 0.977 . S
C537 C533 1.684 . S
C537 H563 0.979 . S
C537 H564 0.980 . S
C537 H565 0.983 . S
C538 H514 0.948 . S
C538 C539 1.391 . S
C538 C543 1.391 . S
C539 C538 1.391 . S
C539 C540 1.391 . S
C540 H517 0.947 . S
C540 C539 1.391 . S
C540 C541 1.392 . S
C541 H518 0.948 . S
C541 C540 1.392 . S
C541 C542 1.419 . S
C542 C541 1.419 . S
C542 C543 1.391 . S
C542 C546 1.397 . S
C543 C538 1.391 . S
C543 C542 1.391 . S
C543 C544 1.399 . S
C544 C543 1.399 . S
C544 C545 1.396 . S
C544 C547 1.453 . S
C544 C548 1.684 . S
C545 C535 1.723 . S
C545 C544 1.396 . S
C545 C546 1.394 . S
C546 C516 1.723 . S
C546 C542 1.397 . S
C546 C545 1.394 . S
C547 H519 0.982 . S
C547 H523 0.979 . S
C547 H524 0.977 . S
C547 C544 1.453 . S
C548 H520 0.979 . S
C548 H521 0.980 . S
C548 H522 0.983 . S
C548 C544 1.684 . S
H549 C567 0.948 . S
H550 C508 0.948 . S
H551 C526 0.979 . S
H552 C526 0.980 . S
H553 C526 0.983 . S
H554 C525 0.982 . S
H555 C525 0.979 . S
H556 C525 0.977 . S
H557 C527 0.948 1_455 S
H558 C529 0.947 1_455 S
H559 C530 0.948 . S
H560 C536 0.982 . S
H561 C536 0.979 . S
H562 C536 0.977 . S
H563 C537 0.979 . S
H564 C537 0.980 . S
H565 C537 0.983 . S
H566 C510 0.947 . S
C567 C510 1.392 . S
C567 C511 1.419 . S
C567 H549 0.948 . S
C568 C569 1.387 . S
C568 H572 0.950 . S
C568 C577 1.390 . S
C569 C568 1.387 . S
C569 C571 1.387 . S
H570 C577 0.950 1_545 S
C571 C569 1.387 . S
C571 C573 1.390 . S
C571 H575 0.950 . S
H572 C568 0.950 . S
C573 C571 1.390 . S
C573 C574 1.387 1_565 S
C573 H576 0.950 1_565 S
C574 C573 1.387 1_545 S
C574 C577 1.387 1_545 S
H575 C571 0.950 . S
H576 C573 0.950 1_545 S
C577 C568 1.390 . S
C577 H570 0.950 1_565 S
C577 C574 1.387 1_565 S
C578 C579 1.387 . S
C578 H582 0.950 . S
C578 C587 1.390 . S
C579 C578 1.387 . S
C579 C581 1.387 . S
H580 C587 0.950 . S
C581 C579 1.387 . S
C581 C583 1.390 . S
C581 H585 0.950 . S
H582 C578 0.950 . S
C583 C581 1.390 . S
C583 C584 1.387 . S
C583 H586 0.950 . S
C584 C583 1.387 . S
C584 C587 1.387 . S
H585 C581 0.950 . S
H586 C583 0.950 . S
C587 C578 1.390 . S
C587 H580 0.950 . S
C587 C584 1.387 . S
C588 C589 1.387 . S
C588 H592 0.950 . S
C588 C597 1.390 . S
C589 C588 1.387 . S
C589 C591 1.387 . S
H590 C597 0.950 1_565 S
C591 C589 1.387 . S
C591 C593 1.390 . S
C591 H595 0.950 . S
H592 C588 0.950 . S
C593 C591 1.390 . S
C593 C594 1.387 . S
C593 H596 0.950 . S
C594 C593 1.387 . S
C594 C597 1.387 . S
H595 C591 0.950 . S
H596 C593 0.950 . S
C597 C588 1.390 . S
C597 H590 0.950 1_545 S
C597 C594 1.387 . S
C598 C599 1.387 . S
C598 H602 0.950 . S
C598 C607 1.390 . S
C599 C598 1.387 . S
C599 C601 1.387 . S
H600 C607 0.950 . S
C601 C599 1.387 . S
C601 C603 1.390 . S
C601 H605 0.950 . S
H602 C598 0.950 . S
C603 C601 1.390 . S
C603 C604 1.387 . S
C603 H606 0.950 . S
C604 C603 1.387 . S
C604 C607 1.387 . S
H605 C601 0.950 . S
H606 C603 0.950 . S
C607 C598 1.390 . S
C607 H600 0.950 . S
C607 C604 1.387 . S
C608 C609 1.387 . S
C608 H612 0.950 . S
C608 C617 1.390 . S
C609 C608 1.387 . S
C609 C611 1.387 . S
H610 C617 0.950 . S
C611 C609 1.387 . S
C611 C613 1.390 . S
C611 H615 0.950 . S
H612 C608 0.950 . S
C613 C611 1.390 . S
C613 C614 1.387 . S
C613 H616 0.950 . S
C614 C613 1.387 . S
C614 C617 1.387 . S
H615 C611 0.950 . S
H616 C613 0.950 . S
C617 C608 1.390 . S
C617 H610 0.950 . S
C617 C614 1.387 . S
C618 C619 1.387 . S
C618 H622 0.950 . S
C618 C627 1.390 . S
C619 C618 1.387 . S
C619 C621 1.387 . S
H620 C627 0.950 1_455 S
C621 C619 1.387 . S
C621 C623 1.390 . S
C621 H625 0.950 . S
H622 C618 0.950 . S
C623 C621 1.390 . S
C623 C624 1.387 1_655 S
C623 H626 0.950 1_655 S
C624 C623 1.387 1_455 S
C624 C627 1.387 1_455 S
H625 C621 0.950 . S
H626 C623 0.950 1_455 S
C627 C618 1.390 . S
C627 H620 0.950 1_655 S
C627 C624 1.387 1_655 S
C628 C629 1.387 . S
C628 H632 0.950 . S
C628 C637 1.390 . S
C629 C628 1.387 . S
C629 C631 1.387 . S
H630 C637 0.950 . S
C631 C629 1.387 . S
C631 C633 1.390 . S
C631 H635 0.950 . S
H632 C628 0.950 . S
C633 C631 1.390 . S
C633 C634 1.387 . S
C633 H636 0.950 . S
C634 C633 1.387 . S
C634 C637 1.387 . S
H635 C631 0.950 . S
H636 C633 0.950 . S
C637 C628 1.390 . S
C637 H630 0.950 . S
C637 C634 1.387 . S
C638 C639 1.387 . S
C638 H642 0.950 1_556 S
C638 C647 1.390 . S
C639 C638 1.387 . S
C639 C641 1.387 . S
H640 C647 0.950 . S
C641 C639 1.387 . S
C641 C643 1.390 . S
C641 H645 0.950 . S
H642 C638 0.950 1_554 S
C643 C641 1.390 . S
C643 C644 1.387 . S
C643 H646 0.950 . S
C644 C643 1.387 . S
C644 C647 1.387 . S
H645 C641 0.950 . S
H646 C643 0.950 . S
C647 C638 1.390 . S
C647 H640 0.950 . S
C647 C644 1.387 . S
C648 C649 1.387 . S
C648 H652 0.950 . S
C648 C657 1.390 1_545 S
C649 C648 1.387 . S
C649 C651 1.387 . S
H650 C657 0.950 . S
C651 C649 1.387 . S
C651 C653 1.390 . S
C651 H655 0.950 . S
H652 C648 0.950 . S
C653 C651 1.390 . S
C653 C654 1.387 1_545 S
C653 H656 0.950 1_545 S
C654 C653 1.387 1_565 S
C654 C657 1.387 . S
H655 C651 0.950 . S
H656 C653 0.950 1_565 S
C657 C648 1.390 1_565 S
C657 H650 0.950 . S
C657 C654 1.387 . S
C658 C659 1.387 . S
C658 H662 0.950 . S
C658 C667 1.390 . S
C659 C658 1.387 . S
C659 C661 1.387 . S
H660 C667 0.950 . S
C661 C659 1.387 . S
C661 C663 1.390 . S
C661 H665 0.950 . S
H662 C658 0.950 . S
C663 C661 1.390 . S
C663 C664 1.387 . S
C663 H666 0.950 . S
C664 C663 1.387 . S
C664 C667 1.387 . S
H665 C661 0.950 . S
H666 C663 0.950 . S
C667 C658 1.390 . S
C667 H660 0.950 . S
C667 C664 1.387 . S
C668 C669 1.387 . S
C668 H672 0.950 . S
C668 C677 1.390 . S
C669 C668 1.387 . S
C669 C671 1.387 . S
H670 C677 0.950 . S
C671 C669 1.387 . S
C671 C673 1.390 . S
C671 H675 0.950 1_556 S
H672 C668 0.950 . S
C673 C671 1.390 . S
C673 C674 1.387 . S
C673 H676 0.950 1_565 S
C674 C673 1.387 . S
C674 C677 1.387 . S
H675 C671 0.950 1_554 S
H676 C673 0.950 1_545 S
C677 C668 1.390 . S
C677 H670 0.950 . S
C677 C674 1.387 . S
C678 C679 1.387 . S
C678 H682 0.950 . S
C678 C687 1.390 . S
C679 C678 1.387 . S
C679 C681 1.387 . S
H680 C687 0.950 . S
C681 C679 1.387 . S
C681 C683 1.390 . S
C681 H685 0.950 . S
H682 C678 0.950 . S
C683 C681 1.390 . S
C683 C684 1.387 . S
C683 H686 0.950 . S
C684 C683 1.387 . S
C684 C687 1.387 . S
H685 C681 0.950 . S
H686 C683 0.950 . S
C687 C678 1.390 . S
C687 H680 0.950 . S
C687 C684 1.387 . S
C688 C689 1.387 . S
C688 H692 0.950 . S
C688 C697 1.390 . S
C689 C688 1.387 . S
C689 C691 1.387 . S
H690 C697 0.950 . S
C691 C689 1.387 . S
C691 C693 1.390 . S
C691 H695 0.950 . S
H692 C688 0.950 . S
C693 C691 1.390 . S
C693 C694 1.387 . S
C693 H696 0.950 . S
C694 C693 1.387 . S
C694 C697 1.387 . S
H695 C691 0.950 . S
H696 C693 0.950 . S
C697 C688 1.390 . S
C697 H690 0.950 . S
C697 C694 1.387 . S
C698 C699 1.387 . S
C698 H702 0.950 . S
C698 C707 1.390 . S
C699 C698 1.387 . S
C699 C701 1.387 . S
H700 C707 0.950 1_655 S
C701 C699 1.387 . S
C701 C703 1.390 . S
C701 H705 0.950 . S
H702 C698 0.950 . S
C703 C701 1.390 . S
C703 C704 1.387 1_455 S
C703 H706 0.950 1_455 S
C704 C703 1.387 1_655 S
C704 C707 1.387 1_655 S
H705 C701 0.950 . S
H706 C703 0.950 1_655 S
C707 C698 1.390 . S
C707 H700 0.950 1_455 S
C707 C704 1.387 1_455 S
C708 C709 1.387 . S
C708 H712 0.950 . S
C708 C717 1.390 . S
C709 C708 1.387 . S
C709 C711 1.387 . S
H710 C717 0.950 . S
C711 C709 1.387 . S
C711 C713 1.390 . S
C711 H715 0.950 . S
H712 C708 0.950 . S
C713 C711 1.390 . S
C713 C714 1.387 . S
C713 H716 0.950 . S
C714 C713 1.387 . S
C714 C717 1.387 . S
H715 C711 0.950 . S
H716 C713 0.950 . S
C717 C708 1.390 . S
C717 H710 0.950 . S
C717 C714 1.387 . S
C718 C719 1.387 . S
C718 H722 0.950 . S
C718 C727 1.390 . S
C719 C718 1.387 . S
C719 C721 1.387 . S
H720 C727 0.950 . S
C721 C719 1.387 . S
C721 C723 1.390 . S
C721 H725 0.950 . S
H722 C718 0.950 . S
C723 C721 1.390 . S
C723 C724 1.387 . S
C723 H726 0.950 . S
C724 C723 1.387 . S
C724 C727 1.387 . S
H725 C721 0.950 . S
H726 C723 0.950 . S
C727 C718 1.390 . S
C727 H720 0.950 . S
C727 C724 1.387 . S
C728 C729 1.387 . S
C728 H732 0.950 . S
C728 C737 1.390 . S
C729 C728 1.387 . S
C729 C731 1.387 . S
H730 C737 0.950 . S
C731 C729 1.387 . S
C731 C733 1.390 . S
C731 H735 0.950 . S
H732 C728 0.950 . S
C733 C731 1.390 . S
C733 C734 1.387 . S
C733 H736 0.950 . S
C734 C733 1.387 . S
C734 C737 1.387 . S
H735 C731 0.950 . S
H736 C733 0.950 . S
C737 C728 1.390 . S
C737 H730 0.950 . S
C737 C734 1.387 . S
C738 C739 1.387 . S
C738 H742 0.950 . S
C738 C747 1.390 . S
C739 C738 1.387 . S
C739 C741 1.387 . S
H740 C747 0.950 . S
C741 C739 1.387 . S
C741 C743 1.390 . S
C741 H745 0.950 . S
H742 C738 0.950 . S
C743 C741 1.390 . S
C743 C744 1.387 . S
C743 H746 0.950 . S
C744 C743 1.387 . S
C744 C747 1.387 . S
H745 C741 0.950 . S
H746 C743 0.950 . S
C747 C738 1.390 . S
C747 H740 0.950 . S
C747 C744 1.387 . S
C748 C749 1.387 . S
C748 H752 0.950 . S
C748 C757 1.390 . S
C749 C748 1.387 . S
C749 C751 1.387 . S
H750 C757 0.950 . S
C751 C749 1.387 . S
C751 C753 1.390 . S
C751 H755 0.970 . S
H752 C748 0.950 . S
C753 C751 1.390 . S
C753 C754 1.387 . S
C753 H756 0.950 . S
C754 C753 1.387 . S
C754 C757 1.387 . S
H755 C751 0.970 . S
H756 C753 0.950 . S
C757 C748 1.390 . S
C757 H750 0.950 . S
C757 C754 1.387 . S
C758 C759 1.387 . S
C758 H762 0.950 . S
C758 C767 1.390 . S
C759 C758 1.387 . S
C759 C761 1.387 . S
H760 C767 0.950 . S
C761 C759 1.387 . S
C761 C763 1.390 . S
C761 H765 0.950 . S
H762 C758 0.950 . S
C763 C761 1.390 . S
C763 C764 1.387 . S
C763 H766 0.950 . S
C764 C763 1.387 . S
C764 C767 1.387 . S
H765 C761 0.950 . S
H766 C763 0.950 . S
C767 C758 1.390 . S
C767 H760 0.950 . S
C767 C764 1.387 . S
C768 C769 1.387 . S
C768 H772 0.950 . S
C768 C777 1.390 . S
C769 C768 1.387 . S
C769 C771 1.387 . S
H770 C777 0.950 . S
C771 C769 1.387 . S
C771 C773 1.390 . S
C771 H775 0.950 . S
H772 C768 0.950 . S
C773 C771 1.390 . S
C773 C774 1.387 . S
C773 H776 0.950 . S
C774 C773 1.387 . S
C774 C777 1.387 . S
H775 C771 0.950 . S
H776 C773 0.950 . S
C777 C768 1.390 . S
C777 H770 0.950 . S
C777 C774 1.387 . S
C778 C779 1.387 . S
C778 H782 0.950 . S
C778 C787 1.390 . S
C779 C778 1.387 . S
C779 C781 1.387 . S
H780 C787 0.950 . S
C781 C779 1.387 . S
C781 C783 1.390 . S
C781 H785 0.950 . S
H782 C778 0.950 . S
C783 C781 1.390 . S
C783 C784 1.387 . S
C783 H786 0.950 . S
C784 C783 1.387 . S
C784 C787 1.387 . S
H785 C781 0.950 . S
H786 C783 0.950 . S
C787 C778 1.390 . S
C787 H780 0.950 . S
C787 C784 1.387 . S
C788 C789 1.387 . S
C788 H792 0.950 . S
C788 C797 1.390 . S
C789 C788 1.387 . S
C789 C791 1.387 . S
H790 C797 0.950 . S
C791 C789 1.387 . S
C791 C793 1.390 . S
C791 H795 0.950 . S
H792 C788 0.950 . S
C793 C791 1.390 . S
C793 C794 1.387 . S
C793 H796 0.950 . S
C794 C793 1.387 . S
C794 C797 1.387 . S
H795 C791 0.950 . S
H796 C793 0.950 . S
C797 C788 1.390 . S
C797 H790 0.950 . S
C797 C794 1.387 . S
C798 C799 1.387 . S
C798 H802 0.950 . S
C798 C807 1.390 . S
C799 C798 1.387 . S
C799 C801 1.387 . S
H800 C807 0.950 1_556 S
C801 C799 1.387 . S
C801 C803 1.390 . S
C801 H805 0.950 . S
H802 C798 0.950 . S
C803 C801 1.390 . S
C803 C804 1.387 . S
C803 H806 0.950 . S
C804 C803 1.387 . S
C804 C807 1.387 . S
H805 C801 0.950 . S
H806 C803 0.950 . S
C807 C798 1.390 . S
C807 H800 0.950 1_554 S
C807 C804 1.387 . S
C569 C7 1.431 . S
C574 C89 1.337 . S
C579 C37 1.799 . S
C584 C168 1.632 . S
C589 C54 1.669 . S
C594 C239 1.578 . S
C604 C299 1.847 . S
C599 C87 1.855 . S
C614 C329 1.553 . S
C609 C30 1.751 . S
C619 C51 1.450 . S
C624 C419 1.450 . S
C629 C84 1.864 . S
C634 C479 1.825 . S
C639 C10 1.695 1_556 S
C644 C528 1.605 . S
C649 C59 1.460 . S
C654 C509 1.363 . S
C664 C348 1.703 . S
C659 C74 1.757 . S
C674 C408 1.371 . S
C669 C18 1.704 1_556 S
C679 C32 1.879 . S
C684 C468 1.686 . S
C694 C149 1.493 . S
C689 C73 1.805 . S
C699 C15 1.442 . S
C704 C228 1.337 . S
C714 C288 1.710 . S
C709 C43 1.869 . S
C724 C108 1.590 . S
C719 C62 1.678 . S
C734 C449 1.778 . S
C729 C21 1.855 . S
C744 C539 1.196 . S
C739 C29 1.289 . S
C749 C52 1.477 . S
C754 C359 1.448 . S
C764 C389 1.280 . S
C759 C81 1.285 . S
C774 C209 1.173 . S
C769 C40 1.257 . S
C779 C65 1.815 . S
C784 C269 1.743 . S
C794 C119 1.155 . S
C789 C76 1.252 . S
C804 C179 1.396 1_554 S
C799 C8 1.518 . S
