# Generated by pormake.
# Topology pth, (4,4)-cn, num edge types: 1
# Building blocks:
#     Node 0, Type 0, BuildingBlock: QUQFOY_clean_sbu_3, # of connection points: 4
#     Node 1, Type 0, BuildingBlock: QUQFOY_clean_sbu_3, # of connection points: 4
#     Node 2, Type 0, BuildingBlock: QUQFOY_clean_sbu_3, # of connection points: 4
#     Node 3, Type 1, BuildingBlock: AZAVOO_clean_linker_0, # of connection points: 4
#     Node 4, Type 1, BuildingBlock: AZAVOO_clean_linker_0, # of connection points: 4
#     Node 5, Type 1, BuildingBlock: AZAVOO_clean_linker_0, # of connection points: 4
#     Edge 6, Type (0, 1), BuildingBlock: EZIPEK_clean_linker_0, # of connection points: 2
#     Edge 7, Type (0, 1), BuildingBlock: EZIPEK_clean_linker_0, # of connection points: 2
#     Edge 8, Type (0, 1), BuildingBlock: EZIPEK_clean_linker_0, # of connection points: 2
#     Edge 9, Type (0, 1), BuildingBlock: EZIPEK_clean_linker_0, # of connection points: 2
#     Edge 10, Type (0, 1), BuildingBlock: EZIPEK_clean_linker_0, # of connection points: 2
#     Edge 11, Type (0, 1), BuildingBlock: EZIPEK_clean_linker_0, # of connection points: 2
#     Edge 12, Type (0, 1), BuildingBlock: EZIPEK_clean_linker_0, # of connection points: 2
#     Edge 13, Type (0, 1), BuildingBlock: EZIPEK_clean_linker_0, # of connection points: 2
#     Edge 14, Type (0, 1), BuildingBlock: EZIPEK_clean_linker_0, # of connection points: 2
#     Edge 15, Type (0, 1), BuildingBlock: EZIPEK_clean_linker_0, # of connection points: 2
#     Edge 16, Type (0, 1), BuildingBlock: EZIPEK_clean_linker_0, # of connection points: 2
#     Edge 17, Type (0, 1), BuildingBlock: EZIPEK_clean_linker_0, # of connection points: 2
# Relax obj value: 0.124
# Max RMSD: 0.224
# Mean RMSD: 0.148
data_MOF--net-pth--node1-QUQFOY_clean_sbu_3--node2-AZAVOO_clean_linker_0--edge1-EZIPEK_clean_linker_0
_symmetry_space_group_name_H-M    P1
_symmetry_Int_Tables_number       1
_symmetry_cell_setting            triclinic
loop_
_symmetry_equiv_pos_as_xyz
'x, y, z'
_cell_length_a     20.511764
_cell_length_b     20.603297
_cell_length_c     56.556117
_cell_angle_alpha  92.73262
_cell_angle_beta   89.347647
_cell_angle_gamma 120.87564
loop_
_atom_site_label
_atom_site_type_symbol
_atom_site_fract_x
_atom_site_fract_y
_atom_site_fract_z
_atom_type_partial_charge
C0 C 0.03669 0.12235 0.12765 0.0
O1 O -0.00253 0.1268 0.11131 0.0
Cd2 Cd 0.00509 0.09556 0.07024 0.0
O3 O 0.08111 0.09751 0.12327 0.0
Cd4 Cd 0.12214 0.0473 0.08986 0.0
C5 C 0.1979 0.21029 0.06246 0.0
O6 O 0.00579 0.98026 0.06632 0.0
O7 O 0.10845 -0.00412 0.04964 0.0
O8 O 0.10323 0.94677 0.1139 0.0
C9 C 0.03772 0.9705 0.04824 0.0
O10 O 0.12999 0.19227 0.05765 0.0
C11 C 0.17184 0.96318 0.11382 0.0
O12 O 0.21279 0.17105 0.07567 0.0
O13 O 0.21899 0.01893 0.10205 0.0
C14 C 0.20583 0.13377 0.42311 0.0
O15 O 0.22027 0.15679 0.40221 0.0
Cd16 Cd 0.1182 0.1254 0.37499 0.0
O17 O 0.13804 0.09815 0.43054 0.0
Cd18 Cd 0.00644 0.0517 0.41871 0.0
C19 C 0.01657 0.93128 0.37886 0.0
O20 O 0.03524 0.15826 0.39542 0.0
O21 O 0.91982 0.06399 0.39184 0.0
O22 O 0.98725 0.09435 0.4576 0.0
C23 C 0.96907 0.13105 0.38685 0.0
O24 O 0.0586 0.98874 0.36685 0.0
C25 C 0.93063 0.03055 0.4624 0.0
O26 O 0.99131 0.93787 0.39888 0.0
O27 O 0.9101 0.97628 0.44706 0.0
C28 C 0.93106 0.1663 0.72903 0.0
O29 O 0.92877 0.19852 0.74845 0.0
Cd30 Cd 0.01718 0.23397 0.78067 0.0
O31 O 0.98072 0.1472 0.72581 0.0
Cd32 Cd 0.08203 0.15006 0.75032 0.0
C33 C 0.96304 0.05579 0.79476 0.0
O34 O 0.14165 0.28269 0.76438 0.0
O35 O 0.18017 0.21553 0.78091 0.0
O36 O 0.15443 0.16351 0.71459 0.0
C37 C 0.18947 0.2801 0.77765 0.0
O38 O 0.96949 0.11845 0.8017 0.0
C39 C 0.16863 0.11221 0.71911 0.0
O40 O -0.00668 0.04949 0.77569 0.0
O41 O 0.1393 0.07551 0.73752 0.0
H42 H 0.09094 0.40112 0.10032 0.0
H43 H 0.17782 0.02532 0.27178 0.0
H44 H 0.91346 0.35717 0.21748 0.0
H45 H 0.91365 0.25245 0.19552 0.0
H46 H 0.11158 0.29597 0.23535 0.0
H47 H 0.11404 0.40451 0.25627 0.0
H48 H 0.97079 0.46969 0.18616 0.0
H49 H 0.00069 0.43558 0.14714 0.0
H50 H 0.2227 0.49559 0.17358 0.0
H51 H 0.19057 0.52592 0.21275 0.0
H52 H -0.0073 0.63128 0.20313 0.0
H53 H 0.04087 0.72663 0.173 0.0
H54 H 0.26823 0.77252 0.18533 0.0
H55 H 0.2199 0.67732 0.21579 0.0
H56 H 0.94949 0.65198 0.25325 0.0
H57 H 0.96633 0.77845 0.25808 0.0
H58 H 0.20885 0.87529 0.2659 0.0
H59 H 0.19127 0.74861 0.26043 0.0
H60 H 0.89632 0.51607 0.29275 0.0
H61 H 0.87328 0.58621 0.32497 0.0
H62 H 0.11486 0.74051 0.33299 0.0
H63 H 0.13779 0.66801 0.30201 0.0
H64 H 0.88538 0.35434 0.27138 0.0
H65 H 0.85797 0.25978 0.30093 0.0
H66 H 0.07527 0.41063 0.33475 0.0
H67 H 0.10319 0.50445 0.30513 0.0
O68 O 0.08048 0.41564 0.11578 0.0
O69 O 0.19274 0.44447 0.13055 0.0
O70 O 0.04443 0.92187 0.26601 0.0
O71 O 0.16972 0.97484 0.26945 0.0
C72 C 0.03056 0.46683 0.24381 0.0
C73 C 0.06008 0.5198 0.2259 0.0
C74 C 0.07407 0.5934 0.23048 0.0
C75 C 0.05863 0.61472 0.25285 0.0
C76 C 0.03216 0.56302 0.27119 0.0
C77 C 0.01814 0.48881 0.26669 0.0
C78 C 0.0147 0.38921 0.238 0.0
C79 C 0.95525 0.34243 0.22208 0.0
C80 C 0.95532 0.28257 0.2096 0.0
C81 C 0.01378 0.26756 0.21337 0.0
C82 C 0.0668 0.30755 0.23187 0.0
C83 C 0.06793 0.369 0.24392 0.0
C84 C 0.07812 0.49903 0.20227 0.0
C85 C 0.02548 0.47454 0.1835 0.0
C86 C 0.04284 0.45539 0.16124 0.0
C87 C 0.11375 0.46185 0.15732 0.0
C88 C 0.1671 0.48866 0.17609 0.0
C89 C 0.14903 0.50615 0.19846 0.0
C90 C 0.10301 0.64797 0.21154 0.0
C91 C 0.05277 0.66165 0.19923 0.0
C92 C 0.08012 0.71562 0.18213 0.0
C93 C 0.15787 0.75621 0.17715 0.0
C94 C 0.20809 0.74144 0.18907 0.0
C95 C 0.18067 0.6875 0.2063 0.0
C96 C 0.06906 0.6913 0.25675 0.0
C97 C 0.00612 0.70062 0.25609 0.0
C98 C 0.01596 0.77288 0.25883 0.0
C99 C 0.08889 0.83694 0.26264 0.0
C100 C 0.15188 0.82719 0.26316 0.0
C101 C 0.14204 0.75497 0.26011 0.0
C102 C 0.01868 0.58813 0.29477 0.0
C103 C 0.94425 0.56283 0.30224 0.0
C104 C 0.93113 0.603 0.32045 0.0
C105 C 0.99235 0.6699 0.33068 0.0
C106 C 0.06688 0.68982 0.32498 0.0
C107 C 0.07997 0.64851 0.30736 0.0
C108 C -0.00365 0.43608 0.28612 0.0
C109 C 0.92652 0.36733 0.28537 0.0
C110 C 0.91086 0.3137 0.30215 0.0
C111 C 0.96482 0.32863 0.31985 0.0
C112 C 0.03309 0.39857 0.3212 0.0
C113 C 0.04883 0.45195 0.30441 0.0
C114 C 0.1317 0.44033 0.13379 0.0
C115 C 0.09935 0.9136 0.2661 0.0
H116 H 0.62053 -0.00072 0.42534 0.0
H117 H 0.15787 0.18403 0.5811 0.0
H118 H 0.60938 0.95875 0.5769 0.0
H119 H 0.69962 0.93045 0.55679 0.0
H120 H 0.82787 0.16037 0.53484 0.0
H121 H 0.74163 0.18997 0.55642 0.0
H122 H 0.51319 0.96362 0.52282 0.0
H123 H 0.54522 0.95538 0.48138 0.0
H124 H 0.69909 0.19786 0.48383 0.0
H125 H 0.6645 0.20546 0.52501 0.0
H126 H 0.3771 0.99126 0.52856 0.0
H127 H 0.31766 0.01309 0.49471 0.0
H128 H 0.48546 0.25163 0.50068 0.0
H129 H 0.544 0.22987 0.53483 0.0
H130 H 0.3233 0.97676 0.5752 0.0
H131 H 0.20771 0.98384 0.57526 0.0
H132 H 0.34468 0.22777 0.58433 0.0
H133 H 0.45974 0.21968 0.58412 0.0
H134 H 0.396 0.96433 0.61792 0.0
H135 H 0.31571 0.96324 0.65064 0.0
H136 H 0.45802 0.20569 0.66061 0.0
H137 H 0.53869 0.20663 0.62796 0.0
H138 H 0.53876 0.9927 0.63149 0.0
H139 H 0.62047 0.00943 0.66554 0.0
H140 H 0.80204 0.21349 0.63688 0.0
H141 H 0.71893 0.2003 0.60409 0.0
O142 O 0.60861 0.00386 0.44172 0.0
O143 O 0.69298 0.1274 0.44465 0.0
O144 O 0.13475 0.05395 0.57691 0.0
O145 O 0.20255 0.17953 0.58138 0.0
C146 C 0.60167 0.08534 0.57138 0.0
C147 C 0.56331 0.08988 0.5515 0.0
C148 C 0.49919 0.09672 0.55467 0.0
C149 C 0.46942 0.09352 0.57734 0.0
C150 C 0.50681 0.08815 0.59731 0.0
C151 C 0.57504 0.08716 0.59448 0.0
C152 C 0.66778 0.07572 0.56734 0.0
C153 C 0.65923 0.00394 0.56882 0.0
C154 C 0.71042 0.98777 0.55732 0.0
C155 C 0.76818 0.04262 0.54358 0.0
C156 C 0.78247 0.11693 0.54492 0.0
C157 C 0.73321 0.13372 0.55713 0.0
C158 C 0.58783 0.08486 0.52701 0.0
C159 C 0.55426 0.01474 0.5144 0.0
C160 C 0.57239 0.01031 0.49072 0.0
C161 C 0.62517 0.0759 0.47934 0.0
C162 C 0.65872 0.14616 0.49211 0.0
C163 C 0.63952 0.15064 0.51566 0.0
C164 C 0.46411 0.10916 0.53408 0.0
C165 C 0.40077 0.04811 0.52255 0.0
C166 C 0.36736 0.06049 0.50331 0.0
C167 C 0.39741 0.1339 0.49543 0.0
C168 C 0.4618 0.19476 0.50667 0.0
C169 C 0.49481 0.18243 0.52604 0.0
C170 C 0.39954 0.09764 0.57988 0.0
C171 C 0.32801 0.03152 0.57748 0.0
C172 C 0.26221 0.03581 0.57736 0.0
C173 C 0.26698 0.10646 0.57968 0.0
C174 C 0.33896 0.17252 0.58246 0.0
C175 C 0.40471 0.1681 0.58251 0.0
C176 C 0.47355 0.08546 0.62083 0.0
C177 C 0.4117 0.01675 0.62783 0.0
C178 C 0.36579 0.01616 0.64633 0.0
C179 C 0.38099 0.08442 0.65784 0.0
C180 C 0.44586 0.15255 0.65193 0.0
C181 C 0.49201 0.15306 0.63348 0.0
C182 C 0.62268 0.0954 0.61528 0.0
C183 C 0.59559 0.04175 0.63279 0.0
C184 C 0.64235 0.05083 0.65204 0.0
C185 C 0.71742 0.11241 0.6536 0.0
C186 C 0.74444 0.16548 0.63596 0.0
C187 C 0.69714 0.15771 0.61723 0.0
C188 C 0.6445 0.07093 0.45421 0.0
C189 C 0.19731 0.11141 0.57923 0.0
H190 H 0.65684 0.76715 0.07969 0.0
H191 H 0.1587 0.17306 0.89584 0.0
H192 H 0.67458 0.82493 0.95758 0.0
H193 H 0.79018 0.89826 0.9818 0.0
H194 H 0.89359 0.7892 0.94336 0.0
H195 H 0.77468 0.70967 0.92085 0.0
H196 H 0.54132 0.71495 0.98228 0.0
H197 H 0.57622 0.74596 0.02431 0.0
H198 H 0.7258 0.65662 0.01665 0.0
H199 H 0.69245 0.62844 0.9744 0.0
H200 H 0.38916 0.5582 0.96286 0.0
H201 H 0.316 0.4715 -0.00583 0.0
H202 H 0.48776 0.41122 4e-05 0.0
H203 H 0.55893 0.4951 0.96816 0.0
H204 H 0.36281 0.54971 0.91096 0.0
H205 H 0.24029 0.43351 0.903 0.0
H206 H 0.34753 0.30123 0.91003 0.0
H207 H 0.46918 0.41778 0.91865 0.0
H208 H 0.49065 0.67257 0.873 0.0
H209 H 0.41117 0.61073 0.83725 0.0
H210 H 0.45155 0.4258 0.84168 0.0
H211 H 0.534 0.48934 0.87642 0.0
H212 H 0.64255 0.81451 0.89843 0.0
H213 H 0.72956 0.89933 0.86889 0.0
H214 H 0.78312 0.72956 0.84599 0.0
H215 H 0.6949 0.64399 0.87535 0.0
O216 O 0.64386 0.75453 0.06304 0.0
O217 O 0.72221 0.71056 0.05791 0.0
O218 O 0.15382 0.29042 0.89597 0.0
O219 O 0.20606 0.2197 0.89947 0.0
C220 C 0.63846 0.69551 0.93176 0.0
C221 C 0.59202 0.64999 0.94999 0.0
C222 C 0.52294 0.58321 0.94431 0.0
C223 C 0.49841 0.56242 0.9206 0.0
C224 C 0.54399 0.6082 0.90228 0.0
C225 C 0.61419 0.67479 0.90786 0.0
C226 C 0.71529 0.76007 0.93813 0.0
C227 C 0.72276 0.81813 0.95393 0.0
C228 C 0.78852 0.85975 0.96776 0.0
C229 C 0.8487 0.84632 0.96499 0.0
C230 C 0.84656 0.79844 0.94612 0.0
C231 C 0.77914 0.75383 0.93311 0.0
C232 C 0.61546 0.67076 0.97529 0.0
C233 C 0.58238 0.70307 0.98968 0.0
C234 C 0.60223 0.72047 0.01367 0.0
C235 C 0.65466 0.7047 0.02375 0.0
C236 C 0.68649 0.67089 0.00931 0.0
C237 C 0.66754 0.65468 0.98523 0.0
C238 C 0.47888 0.53235 0.96331 0.0
C239 C 0.41069 0.52609 0.97091 0.0
C240 C 0.36964 0.47754 0.98881 0.0
C241 C 0.39718 0.43586 -0.00062 0.0
C242 C 0.46629 0.44361 0.99213 0.0
C243 C 0.50648 0.49097 0.97399 0.0
C244 C 0.42473 0.49198 0.91512 0.0
C245 C 0.35961 0.49554 0.91073 0.0
C246 C 0.28979 0.42911 0.90623 0.0
C247 C 0.28428 0.35809 0.9056 0.0
C248 C 0.34983 0.35494 0.91019 0.0
C249 C 0.41937 0.42135 0.91506 0.0
C250 C 0.51683 0.5846 0.87746 0.0
C251 C 0.48513 0.62048 0.86559 0.0
C252 C 0.43966 0.58517 0.84535 0.0
C253 C 0.42411 0.51292 0.83739 0.0
C254 C 0.46218 0.48106 0.84784 0.0
C255 C 0.50915 0.51725 0.86759 0.0
C256 C 0.66239 0.72322 0.8889 0.0
C257 C 0.67233 0.79529 0.88684 0.0
C258 C 0.72178 0.84346 0.87009 0.0
C259 C 0.76235 0.82034 0.85537 0.0
C260 C 0.7519 0.74793 0.85721 0.0
C261 C 0.70166 0.69933 0.87382 0.0
C262 C 0.67576 0.72326 0.04924 0.0
C263 C 0.21068 0.28758 0.90008 0.0
C264 C 0.96915 0.11484 0.16558 0.0
C265 C 0.03558 0.1525 0.15177 0.0
C266 C 0.09401 0.25723 0.18162 0.0
C267 C 0.02662 0.22135 0.19491 0.0
N268 N 0.90916 0.10888 0.20344 0.0
N269 N 0.16668 0.25183 0.14811 0.0
C270 C 0.96692 0.1476 0.18808 0.0
C271 C 0.10033 0.22088 0.16045 0.0
N272 N 0.90789 0.04864 0.15695 0.0
N273 N 0.14858 0.32876 0.18893 0.0
H274 H 0.17167 0.23104 0.13146 0.0
H275 H 0.21862 0.29546 0.1548 0.0
H276 H 0.19846 0.36327 0.17994 0.0
H277 H 0.19846 0.36327 0.17994 0.0
H278 H 0.85479 0.02269 0.16479 0.0
H279 H 0.90919 0.02095 0.14117 0.0
H280 H 0.86645 0.05255 0.20057 0.0
H281 H 0.90803 0.13165 0.22023 0.0
C282 C 0.80849 -0.00198 0.48199 0.0
C283 C 0.88653 0.02176 0.48407 0.0
C284 C 0.88394 0.0465 0.52682 0.0
C285 C 0.80566 0.02163 0.52468 0.0
N286 N 0.68893 0.95423 0.50156 0.0
N287 N -0.00535 0.0523 0.50872 0.0
C288 C 0.76639 0.99028 0.50276 0.0
C289 C 0.92317 0.04098 0.50662 0.0
N290 N 0.77574 0.98877 0.46018 0.0
N291 N 0.9209 0.07709 0.54801 0.0
H292 H 0.02429 0.04751 0.49428 0.0
H293 H 0.02198 0.05987 0.5249 0.0
H294 H 0.8925 0.07759 0.56339 0.0
H295 H 0.97966 0.10469 0.55015 0.0
H296 H 0.72151 0.98001 0.45779 0.0
H297 H 0.80475 -0.00285 0.44433 0.0
H298 H 0.65737 0.92247 0.48663 0.0
H299 H 0.65524 0.94968 0.51599 0.0
C300 C 0.8425 0.93264 0.80035 0.0
C301 C 0.91616 0.98876 0.80875 0.0
C302 C 0.89151 0.93008 0.84703 0.0
C303 C 0.81789 0.87389 0.83863 0.0
N304 N 0.72763 0.81205 0.80641 0.0
N305 N 0.0171 0.03371 0.83772 0.0
C306 C 0.79495 0.87193 0.81492 0.0
C307 C 0.94261 0.98519 0.83141 0.0
N308 N 0.81649 0.93978 0.77903 0.0
N309 N 0.91159 0.93178 0.87014 0.0
H310 H 0.05585 0.07451 0.82657 0.0
H311 H 0.04228 0.0299 0.85304 0.0
H312 H 0.87715 0.89009 0.88176 0.0
H313 H 0.9605 0.97624 0.87824 0.0
H314 H 0.76042 0.90615 0.77313 0.0
H315 H 0.84986 0.98282 0.76769 0.0
H316 H 0.71123 0.80288 0.78864 0.0
H317 H 0.6902 0.76795 0.81684 0.0
C318 C 0.17331 0.84489 0.11931 0.0
C319 C 0.19445 0.91911 0.12767 0.0
C320 C 0.21189 0.89168 0.16785 0.0
C321 C 0.18549 0.81581 0.15982 0.0
N322 N 0.16102 0.7246 0.12784 0.0
N323 N 0.25439 0.02037 0.15747 0.0
C324 C 0.17334 0.79408 0.13539 0.0
C325 C 0.22141 0.94507 0.15115 0.0
N326 N 0.14996 0.82247 0.09629 0.0
N327 N 0.22284 0.91119 0.19155 0.0
H328 H 0.2611 0.0603 0.1455 0.0
H329 H 0.28098 0.04423 0.17378 0.0
H330 H 0.21798 0.87389 0.20424 0.0
H331 H 0.23295 0.96293 0.19885 0.0
H332 H 0.12526 0.76679 0.08959 0.0
H333 H 0.15324 0.86003 0.08391 0.0
H334 H 0.15722 0.70695 0.1101 0.0
H335 H 0.16079 0.68659 0.13945 0.0
C336 C 0.31267 0.11515 0.43479 0.0
C337 C 0.26748 0.14809 0.43958 0.0
C338 C 0.31311 0.17832 0.48065 0.0
C339 C 0.35925 0.14663 0.47577 0.0
N340 N 0.41839 0.10293 0.44735 0.0
N341 N 0.24073 0.22939 0.46458 0.0
C342 C 0.36427 0.12118 0.45248 0.0
C343 C 0.27312 0.18583 0.46175 0.0
N344 N 0.30284 0.07389 0.41408 0.0
N345 N 0.30417 0.1974 0.50345 0.0
H346 H 0.21211 0.237 0.45084 0.0
H347 H 0.24883 0.26389 0.47967 0.0
H348 H 0.33234 0.19269 0.5179 0.0
H349 H 0.26426 0.21234 0.50828 0.0
H350 H 0.32771 0.04121 0.41091 0.0
H351 H 0.26533 0.06748 0.40065 0.0
H352 H 0.42965 0.09096 0.43021 0.0
H353 H 0.45692 0.10666 0.46003 0.0
C354 C 0.22984 0.36049 0.81507 0.0
C355 C 0.24654 0.34752 0.79158 0.0
C356 C 0.37801 0.45248 0.79672 0.0
C357 C 0.36132 0.46522 0.82029 0.0
N358 N 0.26814 0.4445 0.85008 0.0
N359 N 0.3301 0.38781 0.75822 0.0
C360 C 0.28603 0.42357 0.82884 0.0
C361 C 0.31867 0.396 0.78178 0.0
N362 N 0.16123 0.3107 0.82454 0.0
N363 N 0.45106 0.49291 0.78899 0.0
H364 H 0.28807 0.34591 0.74698 0.0
H365 H 0.37898 0.4254 0.7494 0.0
H366 H 0.49468 0.5374 0.79914 0.0
H367 H 0.46934 0.48076 0.77306 0.0
H368 H 0.14921 0.31115 0.84246 0.0
H369 H 0.11743 0.26532 0.81475 0.0
H370 H 0.21279 0.42159 0.85609 0.0
H371 H 0.30774 0.48969 0.86091 0.0
C372 C 0.83567 0.07911 0.69767 0.0
C373 C 0.87523 0.15118 0.70991 0.0
C374 C 0.79887 0.19016 0.68852 0.0
C375 C 0.76831 0.12307 0.6738 0.0
N376 N 0.77011 0.01002 0.66147 0.0
N377 N 0.90636 0.28172 0.7125 0.0
C378 C 0.79012 0.06913 0.67753 0.0
C379 C 0.86008 0.2086 0.70416 0.0
N380 N 0.83853 0.01917 0.70578 0.0
N381 N 0.76846 0.23557 0.68798 0.0
H382 H 0.95513 0.29922 0.72271 0.0
H383 H 0.90132 0.3265 0.70696 0.0
H384 H 0.72175 0.22261 0.67731 0.0
H385 H 0.78438 0.28144 0.69997 0.0
H386 H 0.80489 0.96405 0.69866 0.0
H387 H 0.86767 0.02262 0.72121 0.0
H388 H 0.79123 0.97369 0.66227 0.0
H389 H 0.73863 0.0017 0.6461 0.0
C390 C 0.94434 0.85905 0.02308 0.0
C391 C -0.0041 0.93798 0.02564 0.0
C392 C 0.96078 0.95541 0.98612 0.0
C393 C 0.9087 0.87638 0.98367 0.0
N394 N 0.86508 0.75074 -0.00307 0.0
N395 N 0.0632 0.06074 0.0088 0.0
C396 C 0.9051 0.82745 0.00121 0.0
C397 C 0.00764 0.98598 0.0068 0.0
N398 N 0.93111 0.81445 0.04183 0.0
N399 N 0.96359 0.00115 0.9689 0.0
H400 H 0.09536 0.08602 0.0242 0.0
H401 H 0.08061 0.0971 -0.00511 0.0
H402 H 0.93385 0.97976 0.95284 0.0
H403 H -0.00706 0.05997 0.97068 0.0
H404 H 0.88669 0.75846 0.04219 0.0
H405 H 0.96145 0.83472 0.05781 0.0
H406 H 0.8685 0.71306 0.00775 0.0
H407 H 0.83306 0.72422 0.98162 0.0
C408 C 0.95561 0.82939 0.34716 0.0
C409 C -0.00381 0.85552 0.36894 0.0
C410 C 0.0077 0.74294 0.36886 0.0
C411 C 0.98042 0.72492 0.34514 0.0
N412 N 0.93271 0.75444 0.31078 0.0
N413 N 0.06515 0.84018 0.4004 0.0
C414 C 0.95426 0.76823 0.33412 0.0
C415 C 0.02236 0.8125 0.38003 0.0
N416 N 0.91772 0.86273 0.33908 0.0
N417 N 0.01967 0.69339 0.38057 0.0
H418 H 0.07758 0.89112 0.40909 0.0
H419 H 0.09307 0.81552 0.40777 0.0
H420 H 0.00875 0.6418 0.37272 0.0
H421 H 0.03313 0.69987 0.39856 0.0
H422 H 0.88077 0.84129 0.32451 0.0
H423 H 0.91718 0.90744 0.34838 0.0
H424 H 0.92292 0.79058 0.30117 0.0
H425 H 0.92967 0.70993 0.30039 0.0
C426 C 0.28897 0.10953 0.71352 0.0
C427 C 0.2199 0.09831 0.70395 0.0
C428 C 0.25753 0.07975 0.66417 0.0
C429 C 0.32412 0.08592 0.67392 0.0
N430 N 0.3969 0.09254 0.708 0.0
N431 N 0.13093 0.05699 0.67124 0.0
C432 C 0.33781 0.0963 0.69868 0.0
C433 C 0.20194 0.07873 0.67957 0.0
N434 N 0.31008 0.13694 0.73638 0.0
N435 N 0.24877 0.07787 0.64018 0.0
H436 H 0.08832 0.05446 0.68211 0.0
H437 H 0.11191 0.03455 0.65412 0.0
H438 H 0.28817 0.07845 0.62827 0.0
H439 H 0.20582 0.08216 0.63213 0.0
H440 H 0.36351 0.15421 0.74347 0.0
H441 H 0.27687 0.14883 0.74779 0.0
H442 H 0.40505 0.09161 0.7261 0.0
H443 H 0.43419 0.08375 0.69755 0.0
C444 C 0.2888 0.34667 0.05513 0.0
C445 C 0.25882 0.26915 0.04864 0.0
C446 C 0.31668 0.30113 0.00978 0.0
C447 C 0.35062 0.37898 0.01665 0.0
N448 N 0.38138 0.47702 0.04705 0.0
N449 N 0.25864 0.17302 0.02244 0.0
C450 C 0.34045 0.40226 0.03974 0.0
C451 C 0.27778 0.2466 0.02685 0.0
N452 N 0.26667 0.36681 0.07571 0.0
N453 N 0.31798 0.27907 0.98665 0.0
H454 H 0.22995 0.13111 0.03455 0.0
H455 H 0.27764 0.15509 0.00781 0.0
H456 H 0.34416 0.31717 0.97331 0.0
H457 H 0.28676 0.22296 0.9802 0.0
H458 H 0.2796 0.42182 0.08016 0.0
H459 H 0.23168 0.32732 0.08783 0.0
H460 H 0.38183 0.49665 0.06439 0.0
H461 H 0.41989 0.51906 0.03619 0.0
C462 C 0.9697 0.1633 0.34494 0.0
C463 C 0.95422 0.17188 0.36899 0.0
C464 C 0.92763 0.27078 0.35933 0.0
C465 C 0.95325 0.26931 0.33603 0.0
N466 N 0.00223 0.2178 0.30643 0.0
N467 N 0.91941 0.23278 0.39978 0.0
C468 C 0.97436 0.21586 0.32865 0.0
C469 C 0.93262 0.22485 0.37636 0.0
N470 N 0.97968 0.10467 0.33775 0.0
N471 N 0.89805 0.3157 0.36497 0.0
H472 H 0.91939 0.19767 0.41249 0.0
H473 H 0.91202 0.27605 0.40688 0.0
H474 H 0.89433 0.35032 0.35284 0.0
H475 H 0.87191 0.31456 0.38095 0.0
H476 H 0.98368 0.09054 0.32009 0.0
H477 H 0.97769 0.06584 0.34935 0.0
H478 H 0.02719 0.18676 0.30089 0.0
H479 H 0.00475 0.25417 0.29376 0.0
loop_
_geom_bond_atom_site_label_1
_geom_bond_atom_site_label_2
_geom_bond_distance
_geom_bond_site_symmetry_2
_ccdc_geom_bond_type
C0 O1 1.306 . S
C0 O3 1.160 . S
O1 C0 1.306 . S
O1 Cd2 2.228 . S
Cd2 O1 2.228 . S
Cd2 O6 2.273 1_455 S
Cd2 O10 2.277 . S
O3 C0 1.160 . S
O3 Cd4 2.203 . S
Cd4 O3 2.203 . S
Cd4 O6 2.411 1_455 S
Cd4 O7 2.333 1_545 S
Cd4 O8 2.352 1_545 S
Cd4 O12 2.277 . S
Cd4 O13 2.356 . S
C5 O10 1.209 . S
C5 O12 1.226 . S
O6 Cd2 2.273 1_655 S
O6 Cd4 2.411 1_655 S
O6 C9 1.320 1_545 S
O7 Cd4 2.333 1_565 S
O7 C9 1.214 1_455 S
O8 Cd4 2.352 1_565 S
O8 C11 1.258 . S
C9 O6 1.320 1_565 S
C9 O7 1.214 1_655 S
O10 Cd2 2.277 . S
O10 C5 1.209 . S
C11 O8 1.258 . S
C11 O13 1.282 1_565 S
O12 Cd4 2.277 . S
O12 C5 1.226 . S
O13 Cd4 2.356 . S
O13 C11 1.282 1_545 S
C14 O15 1.306 . S
C14 O17 1.160 . S
O15 C14 1.306 . S
O15 Cd16 2.228 . S
Cd16 O15 2.228 . S
Cd16 O20 2.273 . S
Cd16 O24 2.277 1_545 S
O17 C14 1.160 . S
O17 Cd18 2.203 . S
Cd18 O17 2.203 . S
Cd18 O20 2.411 . S
Cd18 O21 2.333 1_455 S
Cd18 O22 2.352 1_455 S
Cd18 O26 2.277 1_445 S
Cd18 O27 2.356 1_445 S
C19 O24 1.209 . S
C19 O26 1.226 1_455 S
O20 Cd16 2.273 . S
O20 Cd18 2.411 . S
O20 C23 1.320 . S
O21 Cd18 2.333 1_655 S
O21 C23 1.214 1_655 S
O22 Cd18 2.352 1_655 S
O22 C25 1.258 . S
C23 O20 1.320 . S
C23 O21 1.214 1_455 S
O24 Cd16 2.277 1_565 S
O24 C19 1.209 . S
C25 O22 1.258 . S
C25 O27 1.282 1_545 S
O26 Cd18 2.277 1_665 S
O26 C19 1.226 1_655 S
O27 Cd18 2.356 1_665 S
O27 C25 1.282 1_565 S
C28 O29 1.306 . S
C28 O31 1.160 . S
O29 C28 1.306 . S
O29 Cd30 2.228 . S
Cd30 O29 2.228 . S
Cd30 O34 2.273 . S
Cd30 O38 2.277 . S
O31 C28 1.160 . S
O31 Cd32 2.203 . S
Cd32 O31 2.203 . S
Cd32 O34 2.411 . S
Cd32 O35 2.333 . S
Cd32 O36 2.352 . S
Cd32 O40 2.277 . S
Cd32 O41 2.356 . S
C33 O38 1.209 . S
C33 O40 1.226 . S
O34 Cd30 2.273 . S
O34 Cd32 2.411 . S
O34 C37 1.320 . S
O35 Cd32 2.333 . S
O35 C37 1.214 . S
O36 Cd32 2.352 . S
O36 C39 1.258 . S
C37 O34 1.320 . S
C37 O35 1.214 . S
O38 Cd30 2.277 . S
O38 C33 1.209 . S
C39 O36 1.258 . S
C39 O41 1.282 . S
O40 Cd32 2.277 . S
O40 C33 1.226 . S
O41 Cd32 2.356 . S
O41 C39 1.282 . S
H42 O68 0.856 . S
H43 O71 0.854 . S
H44 C79 0.930 . S
H45 C80 0.930 . S
H46 C82 0.930 . S
H47 C83 0.930 . S
H48 C85 0.931 1_655 S
H49 C86 0.930 1_655 S
H50 C88 0.930 . S
H51 C89 0.929 . S
H52 C91 0.930 1_655 S
H53 C92 0.931 1_655 S
H54 C94 0.930 . S
H55 C95 0.929 . S
H56 C97 0.931 1_655 S
H57 C98 0.930 1_655 S
H58 C100 0.930 . S
H59 C101 0.932 . S
H60 C103 0.930 . S
H61 C104 0.929 . S
H62 C106 0.931 . S
H63 C107 0.930 . S
H64 C109 0.929 . S
H65 C110 0.931 1_655 S
H66 C112 0.930 . S
H67 C113 0.929 . S
O68 H42 0.856 . S
O68 C114 1.300 . S
O69 C114 1.209 . S
O70 C115 1.199 . S
O71 H43 0.854 . S
O71 C115 1.297 1_545 S
C72 C73 1.404 . S
C72 C77 1.397 . S
C72 C78 1.492 . S
C73 C72 1.404 . S
C73 C74 1.396 . S
C73 C84 1.492 . S
C74 C73 1.396 . S
C74 C75 1.397 . S
C74 C90 1.509 . S
C75 C74 1.397 . S
C75 C76 1.412 . S
C75 C96 1.485 . S
C76 C75 1.412 . S
C76 C77 1.388 . S
C76 C102 1.490 . S
C77 C72 1.397 . S
C77 C76 1.388 . S
C77 C108 1.519 . S
C78 C72 1.492 . S
C78 C79 1.363 1_455 S
C78 C83 1.390 . S
C79 H44 0.930 . S
C79 C78 1.363 1_655 S
C79 C80 1.372 . S
C80 H45 0.930 . S
C80 C79 1.372 . S
C80 C81 1.383 1_655 S
C81 C80 1.383 1_455 S
C81 C82 1.395 . S
C82 H46 0.930 . S
C82 C81 1.395 . S
C82 C83 1.362 . S
C83 H47 0.930 . S
C83 C78 1.390 . S
C83 C82 1.362 . S
C84 C73 1.492 . S
C84 C85 1.377 . S
C84 C89 1.397 . S
C85 H48 0.931 1_455 S
C85 C84 1.377 . S
C85 C86 1.376 . S
C86 H49 0.930 1_455 S
C86 C85 1.376 . S
C86 C87 1.376 . S
C87 C86 1.376 . S
C87 C88 1.378 . S
C87 C114 1.486 . S
C88 H50 0.930 . S
C88 C87 1.378 . S
C88 C89 1.376 . S
C89 H51 0.929 . S
C89 C84 1.397 . S
C89 C88 1.376 . S
C90 C74 1.509 . S
C90 C91 1.391 . S
C90 C95 1.386 . S
C91 H52 0.930 1_455 S
C91 C90 1.391 . S
C91 C92 1.375 . S
C92 H53 0.931 1_455 S
C92 C91 1.375 . S
C92 C93 1.375 . S
C93 C92 1.375 . S
C93 C94 1.361 . S
C94 H54 0.930 . S
C94 C93 1.361 . S
C94 C95 1.399 . S
C95 H55 0.929 . S
C95 C90 1.386 . S
C95 C94 1.399 . S
C96 C75 1.485 . S
C96 C97 1.394 . S
C96 C101 1.360 . S
C97 H56 0.931 1_455 S
C97 C96 1.394 . S
C97 C98 1.372 . S
C98 H57 0.930 1_455 S
C98 C97 1.372 . S
C98 C99 1.397 . S
C99 C98 1.397 . S
C99 C100 1.390 . S
C99 C115 1.476 . S
C100 H58 0.930 . S
C100 C99 1.390 . S
C100 C101 1.366 . S
C101 H59 0.932 . S
C101 C96 1.360 . S
C101 C100 1.366 . S
C102 C76 1.490 . S
C102 C103 1.380 1_455 S
C102 C107 1.386 . S
C103 H60 0.930 . S
C103 C102 1.380 1_655 S
C103 C104 1.381 . S
C104 H61 0.929 . S
C104 C103 1.381 . S
C104 C105 1.371 1_655 S
C105 C104 1.371 1_455 S
C105 C106 1.380 . S
C106 H62 0.931 . S
C106 C105 1.380 . S
C106 C107 1.387 . S
C107 H63 0.930 . S
C107 C102 1.386 . S
C107 C106 1.387 . S
C108 C77 1.519 . S
C108 C109 1.377 1_455 S
C108 C113 1.361 . S
C109 H64 0.929 . S
C109 C108 1.377 1_655 S
C109 C110 1.386 1_655 S
C110 H65 0.931 1_455 S
C110 C109 1.386 1_455 S
C110 C111 1.363 . S
C111 C110 1.363 . S
C111 C112 1.385 . S
C112 H66 0.930 . S
C112 C111 1.385 . S
C112 C113 1.396 . S
C113 H67 0.929 . S
C113 C108 1.361 . S
C113 C112 1.396 . S
C114 O68 1.300 . S
C114 O69 1.209 . S
C114 C87 1.486 . S
C115 O70 1.199 . S
C115 O71 1.297 1_565 S
C115 C99 1.476 . S
H116 O142 0.856 . S
H117 O145 0.854 . S
H118 C153 0.930 1_565 S
H119 C154 0.930 1_565 S
H120 C156 0.930 . S
H121 C157 0.930 . S
H122 C159 0.931 1_565 S
H123 C160 0.930 1_565 S
H124 C162 0.930 . S
H125 C163 0.929 . S
H126 C165 0.924 1_565 S
H127 C166 0.931 . S
H128 C168 0.930 . S
H129 C169 0.929 . S
H130 C171 0.931 . S
H131 C172 0.930 . S
H132 C174 0.930 . S
H133 C175 0.932 . S
H134 C177 0.930 1_565 S
H135 C178 0.929 1_565 S
H136 C180 0.931 . S
H137 C181 0.930 . S
H138 C183 0.929 . S
H139 C184 0.931 . S
H140 C186 0.930 . S
H141 C187 0.929 . S
O142 H116 0.856 . S
O142 C188 1.300 . S
O143 C188 1.209 . S
O144 C189 1.199 . S
O145 H117 0.854 . S
O145 C189 1.297 . S
C146 C147 1.404 . S
C146 C151 1.397 . S
C146 C152 1.492 . S
C147 C146 1.404 . S
C147 C148 1.396 . S
C147 C158 1.492 . S
C148 C147 1.396 . S
C148 C149 1.397 . S
C148 C164 1.509 . S
C149 C148 1.397 . S
C149 C150 1.412 . S
C149 C170 1.485 . S
C150 C149 1.412 . S
C150 C151 1.388 . S
C150 C176 1.490 . S
C151 C146 1.397 . S
C151 C150 1.388 . S
C151 C182 1.519 . S
C152 C146 1.492 . S
C152 C153 1.363 . S
C152 C157 1.390 . S
C153 H118 0.930 1_545 S
C153 C152 1.363 . S
C153 C154 1.372 . S
C154 H119 0.930 1_545 S
C154 C153 1.372 . S
C154 C155 1.383 . S
C155 C154 1.383 . S
C155 C156 1.395 . S
C156 H120 0.930 . S
C156 C155 1.395 . S
C156 C157 1.362 . S
C157 H121 0.930 . S
C157 C152 1.390 . S
C157 C156 1.362 . S
C158 C147 1.492 . S
C158 C159 1.377 . S
C158 C163 1.397 . S
C159 H122 0.931 1_545 S
C159 C158 1.377 . S
C159 C160 1.376 . S
C160 H123 0.930 1_545 S
C160 C159 1.376 . S
C160 C161 1.376 . S
C161 C160 1.376 . S
C161 C162 1.378 . S
C161 C188 1.486 . S
C162 H124 0.930 . S
C162 C161 1.378 . S
C162 C163 1.376 . S
C163 H125 0.929 . S
C163 C158 1.397 . S
C163 C162 1.376 . S
C164 C148 1.509 . S
C164 C165 1.391 . S
C164 C169 1.386 . S
C165 H126 0.924 1_545 S
C165 C164 1.391 . S
C165 C166 1.375 . S
C166 H127 0.931 . S
C166 C165 1.375 . S
C166 C167 1.375 . S
C167 C166 1.375 . S
C167 C168 1.361 . S
C168 H128 0.930 . S
C168 C167 1.361 . S
C168 C169 1.399 . S
C169 H129 0.929 . S
C169 C164 1.386 . S
C169 C168 1.399 . S
C170 C149 1.485 . S
C170 C171 1.394 . S
C170 C175 1.360 . S
C171 H130 0.931 . S
C171 C170 1.394 . S
C171 C172 1.372 . S
C172 H131 0.930 . S
C172 C171 1.372 . S
C172 C173 1.397 . S
C173 C172 1.397 . S
C173 C174 1.390 . S
C173 C189 1.476 . S
C174 H132 0.930 . S
C174 C173 1.390 . S
C174 C175 1.366 . S
C175 H133 0.932 . S
C175 C170 1.360 . S
C175 C174 1.366 . S
C176 C150 1.490 . S
C176 C177 1.380 . S
C176 C181 1.386 . S
C177 H134 0.930 1_545 S
C177 C176 1.380 . S
C177 C178 1.381 . S
C178 H135 0.929 1_545 S
C178 C177 1.381 . S
C178 C179 1.371 . S
C179 C178 1.371 . S
C179 C180 1.380 . S
C180 H136 0.931 . S
C180 C179 1.380 . S
C180 C181 1.387 . S
C181 H137 0.930 . S
C181 C176 1.386 . S
C181 C180 1.387 . S
C182 C151 1.519 . S
C182 C183 1.377 . S
C182 C187 1.361 . S
C183 H138 0.929 . S
C183 C182 1.377 . S
C183 C184 1.386 . S
C184 H139 0.931 . S
C184 C183 1.386 . S
C184 C185 1.363 . S
C185 C184 1.363 . S
C185 C186 1.385 . S
C186 H140 0.930 . S
C186 C185 1.385 . S
C186 C187 1.396 . S
C187 H141 0.929 . S
C187 C182 1.361 . S
C187 C186 1.396 . S
C188 O142 1.300 . S
C188 O143 1.209 . S
C188 C161 1.486 . S
C189 O144 1.199 . S
C189 O145 1.297 . S
C189 C173 1.476 . S
H190 O216 0.856 . S
H191 O219 0.854 . S
H192 C227 0.930 . S
H193 C228 0.930 . S
H194 C230 0.930 . S
H195 C231 0.930 . S
H196 C233 0.931 . S
H197 C234 0.930 . S
H198 C236 0.930 . S
H199 C237 0.929 . S
H200 C239 0.930 . S
H201 C240 0.921 1_554 S
H202 C242 0.930 . S
H203 C243 0.929 . S
H204 C245 0.931 . S
H205 C246 0.930 . S
H206 C248 0.930 . S
H207 C249 0.932 . S
H208 C251 0.930 . S
H209 C252 0.929 . S
H210 C254 0.931 . S
H211 C255 0.930 . S
H212 C257 0.929 . S
H213 C258 0.931 . S
H214 C260 0.930 . S
H215 C261 0.929 . S
O216 H190 0.856 . S
O216 C262 1.300 . S
O217 C262 1.209 . S
O218 C263 1.199 . S
O219 H191 0.854 . S
O219 C263 1.297 . S
C220 C221 1.404 . S
C220 C225 1.397 . S
C220 C226 1.492 . S
C221 C220 1.404 . S
C221 C222 1.396 . S
C221 C232 1.492 . S
C222 C221 1.396 . S
C222 C223 1.397 . S
C222 C238 1.509 . S
C223 C222 1.397 . S
C223 C224 1.412 . S
C223 C244 1.485 . S
C224 C223 1.412 . S
C224 C225 1.388 . S
C224 C250 1.490 . S
C225 C220 1.397 . S
C225 C224 1.388 . S
C225 C256 1.519 . S
C226 C220 1.492 . S
C226 C227 1.363 . S
C226 C231 1.390 . S
C227 H192 0.930 . S
C227 C226 1.363 . S
C227 C228 1.372 . S
C228 H193 0.930 . S
C228 C227 1.372 . S
C228 C229 1.383 . S
C229 C228 1.383 . S
C229 C230 1.395 . S
C230 H194 0.930 . S
C230 C229 1.395 . S
C230 C231 1.362 . S
C231 H195 0.930 . S
C231 C226 1.390 . S
C231 C230 1.362 . S
C232 C221 1.492 . S
C232 C233 1.377 1_556 S
C232 C237 1.397 . S
C233 H196 0.931 . S
C233 C232 1.377 1_554 S
C233 C234 1.376 . S
C234 H197 0.930 . S
C234 C233 1.376 . S
C234 C235 1.376 . S
C235 C234 1.376 . S
C235 C236 1.378 . S
C235 C262 1.486 . S
C236 H198 0.930 . S
C236 C235 1.378 . S
C236 C237 1.376 1_554 S
C237 H199 0.929 . S
C237 C232 1.397 . S
C237 C236 1.376 1_556 S
C238 C222 1.509 . S
C238 C239 1.391 . S
C238 C243 1.386 . S
C239 H200 0.930 . S
C239 C238 1.391 . S
C239 C240 1.403 . S
C240 H201 0.921 1_556 S
C240 C239 1.403 . S
C240 C241 1.358 1_556 S
C241 C240 1.358 1_554 S
C241 C242 1.361 . S
C242 H202 0.930 . S
C242 C241 1.361 . S
C242 C243 1.399 1_554 S
C243 H203 0.929 . S
C243 C238 1.386 . S
C243 C242 1.399 1_556 S
C244 C223 1.485 . S
C244 C245 1.394 . S
C244 C249 1.360 . S
C245 H204 0.931 . S
C245 C244 1.394 . S
C245 C246 1.372 . S
C246 H205 0.930 . S
C246 C245 1.372 . S
C246 C247 1.397 . S
C247 C246 1.397 . S
C247 C248 1.390 . S
C247 C263 1.476 . S
C248 H206 0.930 . S
C248 C247 1.390 . S
C248 C249 1.366 . S
C249 H207 0.932 . S
C249 C244 1.360 . S
C249 C248 1.366 . S
C250 C224 1.490 . S
C250 C251 1.380 . S
C250 C255 1.386 . S
C251 H208 0.930 . S
C251 C250 1.380 . S
C251 C252 1.381 . S
C252 H209 0.929 . S
C252 C251 1.381 . S
C252 C253 1.371 . S
C253 C252 1.371 . S
C253 C254 1.380 . S
C254 H210 0.931 . S
C254 C253 1.380 . S
C254 C255 1.387 . S
C255 H211 0.930 . S
C255 C250 1.386 . S
C255 C254 1.387 . S
C256 C225 1.519 . S
C256 C257 1.377 . S
C256 C261 1.361 . S
C257 H212 0.929 . S
C257 C256 1.377 . S
C257 C258 1.386 . S
C258 H213 0.931 . S
C258 C257 1.386 . S
C258 C259 1.363 . S
C259 C258 1.363 . S
C259 C260 1.385 . S
C260 H214 0.930 . S
C260 C259 1.385 . S
C260 C261 1.396 . S
C261 H215 0.929 . S
C261 C256 1.361 . S
C261 C260 1.396 . S
C262 O216 1.300 . S
C262 O217 1.209 . S
C262 C235 1.486 . S
C263 O218 1.199 . S
C263 O219 1.297 . S
C263 C247 1.476 . S
C264 C265 1.359 1_655 S
C264 C270 1.381 . S
C264 N272 1.357 . S
C265 C264 1.359 1_455 S
C265 C271 1.363 . S
C266 C267 1.363 . S
C266 C271 1.379 . S
C266 N273 1.356 . S
C267 C266 1.363 . S
C267 C270 1.363 1_455 S
N268 C270 1.356 . S
N268 H280 0.984 . S
N268 H281 0.985 . S
N269 C271 1.356 . S
N269 H274 0.984 . S
N269 H275 0.985 . S
C270 C264 1.381 . S
C270 C267 1.363 1_655 S
C270 N268 1.356 . S
C271 C265 1.363 . S
C271 C266 1.379 . S
C271 N269 1.356 . S
N272 C264 1.357 . S
N272 H278 0.984 . S
N272 H279 0.984 . S
N273 C266 1.356 . S
N273 H276 0.984 . S
N273 H277 0.985 . S
H274 N269 0.984 . S
H275 N269 0.985 . S
H276 N273 0.984 . S
H277 N273 0.985 . S
H278 N272 0.984 . S
H279 N272 0.984 . S
H280 N268 0.984 . S
H281 N268 0.985 . S
C282 C283 1.363 1_565 S
C282 C288 1.379 . S
C282 N290 1.356 . S
C283 C282 1.363 1_545 S
C283 C289 1.363 . S
C284 C285 1.363 . S
C284 C289 1.379 . S
C284 N291 1.356 . S
C285 C284 1.363 . S
C285 C288 1.363 1_545 S
N286 C288 1.356 . S
N286 H298 0.984 . S
N286 H299 0.985 . S
N287 C289 1.356 . S
N287 H292 0.984 . S
N287 H293 0.985 1_655 S
C288 C282 1.379 . S
C288 C285 1.363 1_565 S
C288 N286 1.356 . S
C289 C283 1.363 . S
C289 C284 1.379 . S
C289 N287 1.356 . S
N290 C282 1.356 . S
N290 H296 0.984 . S
N290 H297 0.984 . S
N291 C284 1.356 . S
N291 H294 0.984 . S
N291 H295 0.985 . S
H292 N287 0.984 . S
H293 N287 0.985 1_455 S
H294 N291 0.984 . S
H295 N291 0.985 . S
H296 N290 0.984 . S
H297 N290 0.984 . S
H298 N286 0.984 . S
H299 N286 0.985 . S
C300 C301 1.363 . S
C300 C306 1.379 . S
C300 N308 1.356 . S
C301 C300 1.363 . S
C301 C307 1.363 . S
C302 C303 1.363 . S
C302 C307 1.379 . S
C302 N309 1.356 . S
C303 C302 1.363 . S
C303 C306 1.363 . S
N304 C306 1.356 . S
N304 H316 0.984 . S
N304 H317 0.985 . S
N305 C307 1.356 1_445 S
N305 H310 0.984 . S
N305 H311 0.985 . S
C306 C300 1.379 . S
C306 C303 1.363 . S
C306 N304 1.356 . S
C307 C301 1.363 . S
C307 C302 1.379 . S
C307 N305 1.356 1_665 S
N308 C300 1.356 . S
N308 H314 0.984 . S
N308 H315 0.984 . S
N309 C302 1.356 . S
N309 H312 0.984 . S
N309 H313 0.985 . S
H310 N305 0.984 . S
H311 N305 0.985 . S
H312 N309 0.984 . S
H313 N309 0.985 . S
H314 N308 0.984 . S
H315 N308 0.984 . S
H316 N304 0.984 . S
H317 N304 0.985 . S
C318 C319 1.363 . S
C318 C324 1.379 . S
C318 N326 1.356 1_455 S
C319 C318 1.363 . S
C319 C325 1.363 . S
C320 C321 1.363 . S
C320 C325 1.379 . S
C320 N327 1.356 . S
C321 C320 1.363 . S
C321 C324 1.363 . S
N322 C324 1.356 . S
N322 H334 0.984 1_455 S
N322 H335 0.985 . S
N323 C325 1.356 1_545 S
N323 H328 0.984 . S
N323 H329 0.985 . S
C324 C318 1.379 . S
C324 C321 1.363 . S
C324 N322 1.356 . S
C325 C319 1.363 . S
C325 C320 1.379 . S
C325 N323 1.356 1_565 S
N326 C318 1.356 1_655 S
N326 H332 0.984 . S
N326 H333 0.984 . S
N327 C320 1.356 . S
N327 H330 0.984 . S
N327 H331 0.985 . S
H328 N323 0.984 . S
H329 N323 0.985 . S
H330 N327 0.984 . S
H331 N327 0.985 . S
H332 N326 0.984 . S
H333 N326 0.984 . S
H334 N322 0.984 1_655 S
H335 N322 0.985 . S
C336 C337 1.363 . S
C336 C342 1.379 . S
C336 N344 1.356 . S
C337 C336 1.363 . S
C337 C343 1.363 . S
C338 C339 1.363 . S
C338 C343 1.379 . S
C338 N345 1.356 . S
C339 C338 1.363 . S
C339 C342 1.363 . S
N340 C342 1.356 . S
N340 H352 0.984 . S
N340 H353 0.985 . S
N341 C343 1.356 . S
N341 H346 0.984 . S
N341 H347 0.985 . S
C342 C336 1.379 . S
C342 C339 1.363 . S
C342 N340 1.356 . S
C343 C337 1.363 . S
C343 C338 1.379 . S
C343 N341 1.356 . S
N344 C336 1.356 . S
N344 H350 0.985 1_545 S
N344 H351 0.984 1_545 S
N345 C338 1.356 . S
N345 H348 0.984 . S
N345 H349 0.985 . S
H346 N341 0.984 . S
H347 N341 0.985 . S
H348 N345 0.984 . S
H349 N345 0.985 . S
H350 N344 0.985 1_565 S
H351 N344 0.984 1_565 S
H352 N340 0.984 . S
H353 N340 0.985 . S
C354 C355 1.363 . S
C354 C360 1.379 . S
C354 N362 1.356 . S
C355 C354 1.363 . S
C355 C361 1.363 . S
C356 C357 1.363 . S
C356 C361 1.379 . S
C356 N363 1.356 . S
C357 C356 1.363 . S
C357 C360 1.363 . S
N358 C360 1.356 . S
N358 H370 0.984 . S
N358 H371 0.985 . S
N359 C361 1.356 . S
N359 H364 0.984 . S
N359 H365 0.985 . S
C360 C354 1.379 . S
C360 C357 1.363 . S
C360 N358 1.356 . S
C361 C355 1.363 . S
C361 C356 1.379 . S
C361 N359 1.356 . S
N362 C354 1.356 . S
N362 H368 0.984 . S
N362 H369 0.984 . S
N363 C356 1.356 . S
N363 H366 0.984 . S
N363 H367 0.985 . S
H364 N359 0.984 . S
H365 N359 0.985 . S
H366 N363 0.984 . S
H367 N363 0.985 . S
H368 N362 0.984 . S
H369 N362 0.984 . S
H370 N358 0.984 . S
H371 N358 0.985 . S
C372 C373 1.363 . S
C372 C378 1.379 . S
C372 N380 1.356 . S
C373 C372 1.363 . S
C373 C379 1.363 . S
C374 C375 1.363 . S
C374 C379 1.379 . S
C374 N381 1.356 . S
C375 C374 1.363 . S
C375 C378 1.363 . S
N376 C378 1.356 . S
N376 H388 0.984 . S
N376 H389 0.985 . S
N377 C379 1.356 . S
N377 H382 0.984 . S
N377 H383 0.985 . S
C378 C372 1.379 . S
C378 C375 1.363 . S
C378 N376 1.356 . S
C379 C373 1.363 . S
C379 C374 1.379 . S
C379 N377 1.356 . S
N380 C372 1.356 . S
N380 H386 0.984 1_545 S
N380 H387 0.984 . S
N381 C374 1.356 . S
N381 H384 0.984 . S
N381 H385 0.985 . S
H382 N377 0.984 . S
H383 N377 0.985 . S
H384 N381 0.984 . S
H385 N381 0.985 . S
H386 N380 0.984 1_565 S
H387 N380 0.984 . S
H388 N376 0.984 . S
H389 N376 0.985 . S
C390 C391 1.363 . S
C390 C396 1.379 . S
C390 N398 1.356 . S
C391 C390 1.363 . S
C391 C397 1.363 1_565 S
C392 C393 1.372 1_545 S
C392 C397 1.356 1_556 S
C392 N399 1.376 . S
C393 C392 1.372 1_565 S
C393 C396 1.363 1_556 S
N394 C396 1.356 1_556 S
N394 H406 0.984 . S
N394 H407 0.985 . S
N395 C397 1.356 . S
N395 H400 0.984 1_655 S
N395 H401 0.985 1_655 S
C396 C390 1.379 . S
C396 C393 1.363 1_554 S
C396 N394 1.356 1_554 S
C397 C391 1.363 1_545 S
C397 C392 1.356 1_554 S
C397 N395 1.356 . S
N398 C390 1.356 . S
N398 H404 0.984 . S
N398 H405 0.984 . S
N399 C392 1.376 . S
N399 H402 0.984 . S
N399 H403 0.985 . S
H400 N395 0.984 1_455 S
H401 N395 0.985 1_455 S
H402 N399 0.984 . S
H403 N399 0.985 . S
H404 N398 0.984 . S
H405 N398 0.984 . S
H406 N394 0.984 . S
H407 N394 0.985 . S
C408 C409 1.363 . S
C408 C414 1.379 . S
C408 N416 1.356 . S
C409 C408 1.363 . S
C409 C415 1.363 . S
C410 C411 1.363 . S
C410 C415 1.379 . S
C410 N417 1.356 . S
C411 C410 1.363 . S
C411 C414 1.363 . S
N412 C414 1.356 1_655 S
N412 H424 0.984 . S
N412 H425 0.985 . S
N413 C415 1.356 . S
N413 H418 0.984 . S
N413 H419 0.985 . S
C414 C408 1.379 . S
C414 C411 1.363 . S
C414 N412 1.356 1_455 S
C415 C409 1.363 . S
C415 C410 1.379 . S
C415 N413 1.356 . S
N416 C408 1.356 . S
N416 H422 0.984 1_455 S
N416 H423 0.984 . S
N417 C410 1.356 . S
N417 H420 0.984 . S
N417 H421 0.985 . S
H418 N413 0.984 . S
H419 N413 0.985 . S
H420 N417 0.984 . S
H421 N417 0.985 . S
H422 N416 0.984 1_655 S
H423 N416 0.984 . S
H424 N412 0.984 . S
H425 N412 0.985 . S
C426 C427 1.363 . S
C426 C432 1.379 . S
C426 N434 1.356 . S
C427 C426 1.363 . S
C427 C433 1.363 . S
C428 C429 1.363 . S
C428 C433 1.379 . S
C428 N435 1.356 . S
C429 C428 1.363 . S
C429 C432 1.363 . S
N430 C432 1.356 . S
N430 H442 0.984 1_545 S
N430 H443 0.985 . S
N431 C433 1.356 . S
N431 H436 0.984 . S
N431 H437 0.985 . S
C432 C426 1.379 . S
C432 C429 1.363 . S
C432 N430 1.356 . S
C433 C427 1.363 . S
C433 C428 1.379 . S
C433 N431 1.356 . S
N434 C426 1.356 . S
N434 H440 0.984 1_545 S
N434 H441 0.984 . S
N435 C428 1.356 . S
N435 H438 0.984 . S
N435 H439 0.985 . S
H436 N431 0.984 . S
H437 N431 0.985 . S
H438 N435 0.984 . S
H439 N435 0.985 . S
H440 N434 0.984 1_565 S
H441 N434 0.984 . S
H442 N430 0.984 1_565 S
H443 N430 0.985 . S
C444 C445 1.363 . S
C444 C450 1.379 . S
C444 N452 1.356 . S
C445 C444 1.363 . S
C445 C451 1.363 . S
C446 C447 1.363 . S
C446 C451 1.379 . S
C446 N453 1.356 1_554 S
C447 C446 1.363 . S
C447 C450 1.363 . S
N448 C450 1.356 . S
N448 H460 0.984 . S
N448 H461 0.985 . S
N449 C451 1.356 . S
N449 H454 0.984 . S
N449 H455 0.985 . S
C450 C444 1.379 . S
C450 C447 1.363 . S
C450 N448 1.356 . S
C451 C445 1.363 . S
C451 C446 1.379 . S
C451 N449 1.356 . S
N452 C444 1.356 . S
N452 H458 0.984 . S
N452 H459 0.984 . S
N453 C446 1.356 1_556 S
N453 H456 0.984 . S
N453 H457 0.985 . S
H454 N449 0.984 . S
H455 N449 0.985 . S
H456 N453 0.984 . S
H457 N453 0.985 . S
H458 N452 0.984 . S
H459 N452 0.984 . S
H460 N448 0.984 . S
H461 N448 0.985 . S
C462 C463 1.363 . S
C462 C468 1.379 . S
C462 N470 1.356 . S
C463 C462 1.363 . S
C463 C469 1.363 . S
C464 C465 1.363 . S
C464 C469 1.379 . S
C464 N471 1.356 1_455 S
C465 C464 1.363 . S
C465 C468 1.363 . S
N466 C468 1.356 . S
N466 H478 0.984 . S
N466 H479 0.985 . S
N467 C469 1.356 1_655 S
N467 H472 0.984 . S
N467 H473 0.985 . S
C468 C462 1.379 . S
C468 C465 1.363 . S
C468 N466 1.356 . S
C469 C463 1.363 . S
C469 C464 1.379 . S
C469 N467 1.356 1_455 S
N470 C462 1.356 . S
N470 H476 0.984 . S
N470 H477 0.984 . S
N471 C464 1.356 1_655 S
N471 H474 0.984 1_655 S
N471 H475 0.985 . S
H472 N467 0.984 . S
H473 N467 0.985 . S
H474 N471 0.984 1_455 S
H475 N471 0.985 . S
H476 N470 0.984 . S
H477 N470 0.984 . S
H478 N466 0.984 . S
H479 N466 0.985 . S
C267 C81 1.493 . S
C265 C0 1.662 . S
C283 C25 1.606 . S
C285 C155 1.462 . S
C301 C33 2.052 1_665 S
C303 C259 2.053 . S
C319 C11 0.929 . S
C321 C93 0.926 . S
C339 C167 0.954 . S
C337 C14 0.960 . S
C355 C37 1.777 . S
C357 C253 1.580 . S
C375 C185 2.046 . S
C373 C28 2.053 1_655 S
C391 C9 1.706 . S
C393 C229 1.532 . S
C411 C105 1.607 . S
C409 C19 1.798 . S
C429 C179 1.510 . S
C427 C39 1.665 . S
C447 C241 0.949 . S
C445 C5 0.949 . S
C463 C23 2.141 . S
C465 C111 2.138 . S
