# Generated by pormake.
# Topology zzz, (3,6)-cn, num edge types: 1
# Building blocks:
#     Node 0, Type 0, BuildingBlock: BETDIP_clean_linker_0, # of connection points: 3
#     Node 1, Type 0, BuildingBlock: BETDIP_clean_linker_0, # of connection points: 3
#     Node 2, Type 0, BuildingBlock: BETDIP_clean_linker_0, # of connection points: 3
#     Node 3, Type 0, BuildingBlock: BETDIP_clean_linker_0, # of connection points: 3
#     Node 4, Type 0, BuildingBlock: BETDIP_clean_linker_0, # of connection points: 3
#     Node 5, Type 0, BuildingBlock: BETDIP_clean_linker_0, # of connection points: 3
#     Node 6, Type 0, BuildingBlock: BETDIP_clean_linker_0, # of connection points: 3
#     Node 7, Type 0, BuildingBlock: BETDIP_clean_linker_0, # of connection points: 3
#     Node 8, Type 1, BuildingBlock: PAMTUU_clean_sbu_0, # of connection points: 6
#     Node 9, Type 1, BuildingBlock: PAMTUU_clean_sbu_0, # of connection points: 6
#     Node 10, Type 1, BuildingBlock: PAMTUU_clean_sbu_0, # of connection points: 6
#     Node 11, Type 1, BuildingBlock: PAMTUU_clean_sbu_0, # of connection points: 6
#     Edge 12, Type (0, 1), BuildingBlock: UVAHIK_clean_linker_0, # of connection points: 2
#     Edge 13, Type (0, 1), BuildingBlock: UVAHIK_clean_linker_0, # of connection points: 2
#     Edge 14, Type (0, 1), BuildingBlock: UVAHIK_clean_linker_0, # of connection points: 2
#     Edge 15, Type (0, 1), BuildingBlock: UVAHIK_clean_linker_0, # of connection points: 2
#     Edge 16, Type (0, 1), BuildingBlock: UVAHIK_clean_linker_0, # of connection points: 2
#     Edge 17, Type (0, 1), BuildingBlock: UVAHIK_clean_linker_0, # of connection points: 2
#     Edge 18, Type (0, 1), BuildingBlock: UVAHIK_clean_linker_0, # of connection points: 2
#     Edge 19, Type (0, 1), BuildingBlock: UVAHIK_clean_linker_0, # of connection points: 2
#     Edge 20, Type (0, 1), BuildingBlock: UVAHIK_clean_linker_0, # of connection points: 2
#     Edge 21, Type (0, 1), BuildingBlock: UVAHIK_clean_linker_0, # of connection points: 2
#     Edge 22, Type (0, 1), BuildingBlock: UVAHIK_clean_linker_0, # of connection points: 2
#     Edge 23, Type (0, 1), BuildingBlock: UVAHIK_clean_linker_0, # of connection points: 2
#     Edge 24, Type (0, 1), BuildingBlock: UVAHIK_clean_linker_0, # of connection points: 2
#     Edge 25, Type (0, 1), BuildingBlock: UVAHIK_clean_linker_0, # of connection points: 2
#     Edge 26, Type (0, 1), BuildingBlock: UVAHIK_clean_linker_0, # of connection points: 2
#     Edge 27, Type (0, 1), BuildingBlock: UVAHIK_clean_linker_0, # of connection points: 2
#     Edge 28, Type (0, 1), BuildingBlock: UVAHIK_clean_linker_0, # of connection points: 2
#     Edge 29, Type (0, 1), BuildingBlock: UVAHIK_clean_linker_0, # of connection points: 2
#     Edge 30, Type (0, 1), BuildingBlock: UVAHIK_clean_linker_0, # of connection points: 2
#     Edge 31, Type (0, 1), BuildingBlock: UVAHIK_clean_linker_0, # of connection points: 2
#     Edge 32, Type (0, 1), BuildingBlock: UVAHIK_clean_linker_0, # of connection points: 2
#     Edge 33, Type (0, 1), BuildingBlock: UVAHIK_clean_linker_0, # of connection points: 2
#     Edge 34, Type (0, 1), BuildingBlock: UVAHIK_clean_linker_0, # of connection points: 2
#     Edge 35, Type (0, 1), BuildingBlock: UVAHIK_clean_linker_0, # of connection points: 2
# Relax obj value: 0.184
# Max RMSD: 0.203
# Mean RMSD: 0.120
data_MOF--net-zzz--node1-PAMTUU_clean_sbu_0--node2-BETDIP_clean_linker_0--edge1-UVAHIK_clean_linker_0
_symmetry_space_group_name_H-M    P1
_symmetry_Int_Tables_number       1
_symmetry_cell_setting            triclinic
loop_
_symmetry_equiv_pos_as_xyz
'x, y, z'
_cell_length_a     66.213836
_cell_length_b     69.904725
_cell_length_c     19.536128
_cell_angle_alpha  99.203849
_cell_angle_beta   89.97759
_cell_angle_gamma 91.516219
loop_
_atom_site_label
_atom_site_type_symbol
_atom_site_fract_x
_atom_site_fract_y
_atom_site_fract_z
_atom_type_partial_charge
H0 H 0.77984 0.51883 0.47055 0.0
H1 H 0.76253 0.51876 0.25789 0.0
H2 H 0.82527 0.51831 0.31226 0.0
H3 H 0.74267 0.54926 0.36735 0.0
C4 C 0.73597 0.53473 0.36269 0.0
C5 C 0.78399 0.51864 0.41682 0.0
C6 C 0.80462 0.51896 0.3978 0.0
C7 C 0.76878 0.51909 0.36624 0.0
C8 C 0.77422 0.5188 0.2968 0.0
C9 C 0.79448 0.51845 0.27711 0.0
C10 C 0.80954 0.51878 0.32777 0.0
N11 N 0.74795 0.52008 0.38403 0.0
H12 H 1.00573 0.74516 0.46699 0.0
H13 H 1.00281 0.74023 0.24414 0.0
H14 H 1.00804 0.79632 0.37086 0.0
H15 H 0.97578 0.71461 0.2838 0.0
C16 C 0.98932 0.70826 0.30096 0.0
C17 C 1.00545 0.75187 0.42072 0.0
C18 C 1.00681 0.77213 0.42621 0.0
C19 C 1.00353 0.7403 0.35504 0.0
C20 C 1.00361 0.7491 0.29497 0.0
C21 C 1.00516 0.76932 0.3005 0.0
C22 C 1.00657 0.78066 0.36623 0.0
N23 N 1.00241 0.71981 0.34942 0.0
H24 H 0.79298 0.00225 0.45937 0.0
H25 H 0.79854 0.96434 0.26317 0.0
H26 H 0.74348 0.96422 0.37854 0.0
H27 H 0.83165 0.96146 0.33444 0.0
C28 C 0.8342 0.97662 0.32956 0.0
C29 C 0.78673 0.99103 0.41981 0.0
C30 C 0.76687 0.98363 0.42674 0.0
C31 C 0.79863 0.9834 0.36209 0.0
C32 C 0.79002 0.96939 0.30965 0.0
C33 C 0.77023 0.9624 0.31563 0.0
C34 C 0.75904 0.96923 0.37485 0.0
N35 N 0.81901 0.99 0.35522 0.0
H36 H 0.55936 0.76992 0.2693 0.0
H37 H 0.53476 0.75625 0.06183 0.0
H38 H 0.52948 0.7148 0.20053 0.0
H39 H 0.56347 0.77595 0.04532 0.0
C40 C 0.55948 0.78807 0.08467 0.0
C41 C 0.55106 0.76016 0.22986 0.0
C42 C 0.54446 0.74178 0.24307 0.0
C43 C 0.54746 0.76567 0.16464 0.0
C44 C 0.53742 0.75248 0.11265 0.0
C45 C 0.53071 0.7343 0.12611 0.0
C46 C 0.53394 0.72923 0.19144 0.0
N47 N 0.55394 0.78439 0.15193 0.0
H48 H 0.28576 0.49343 0.15049 0.0
H49 H 0.30034 0.52427 0.35453 0.0
H50 H 0.2413 0.52843 0.26959 0.0
H51 H 0.33137 0.52835 0.25208 0.0
C52 C 0.33238 0.51372 0.2639 0.0
C53 C 0.28133 0.50288 0.19723 0.0
C54 C 0.26182 0.5108 0.20215 0.0
C55 C 0.29546 0.50809 0.25184 0.0
C56 C 0.28974 0.52056 0.3119 0.0
C57 C 0.27019 0.52756 0.31847 0.0
C58 C 0.25641 0.52277 0.26382 0.0
N59 N 0.3154 0.50083 0.24757 0.0
H60 H 0.06462 0.25663 0.11867 0.0
H61 H 0.03964 0.25918 0.32339 0.0
H62 H 0.03231 0.20724 0.17416 0.0
H63 H 0.05839 0.29128 0.14833 0.0
C64 C 0.06235 0.29422 0.20303 0.0
C65 C 0.05573 0.25008 0.15577 0.0
C66 C 0.04826 0.23089 0.13817 0.0
C67 C 0.05221 0.26039 0.22272 0.0
C68 C 0.04183 0.25128 0.2716 0.0
C69 C 0.03421 0.23224 0.25426 0.0
C70 C 0.03731 0.22229 0.18719 0.0
N71 N 0.05977 0.27953 0.24492 0.0
H72 H 0.27961 0.00911 0.12905 0.0
H73 H 0.26328 0.98665 0.31537 0.0
H74 H 0.32474 0.98496 0.24716 0.0
H75 H 0.23521 0.97459 0.19749 0.0
C76 C 0.23266 0.98959 0.21998 0.0
C77 C 0.28392 0.00254 0.17329 0.0
C78 C 0.30411 0.99696 0.18066 0.0
C79 C 0.26903 0.99854 0.22157 0.0
C80 C 0.27455 0.98957 0.27784 0.0
C81 C 0.29462 0.98504 0.28747 0.0
C82 C 0.30923 0.98876 0.23926 0.0
N83 N 0.24849 0.00349 0.21462 0.0
H84 H 0.50087 0.23253 0.28313 0.0
H85 H 0.5211 0.25076 0.49455 0.0
H86 H 0.50241 0.29291 0.37285 0.0
H87 H 0.53984 0.22335 0.46544 0.0
C88 C 0.52781 0.21331 0.44372 0.0
C89 C 0.50388 0.24386 0.32691 0.0
C90 C 0.50052 0.26334 0.32099 0.0
C91 C 0.51134 0.23906 0.38949 0.0
C92 C 0.51557 0.25403 0.4457 0.0
C93 C 0.51216 0.27338 0.43979 0.0
C94 C 0.50449 0.27784 0.37785 0.0
N95 N 0.51399 0.21922 0.39576 0.0
Tb96 Tb 0.01946 0.00631 0.73254 0.0
Tb97 Tb 0.05015 0.9971 0.85296 0.0
C98 C 1.00348 1.0004 0.87811 0.0
C99 C 0.99257 0.03584 0.62636 0.0
C100 C 0.99069 0.07313 0.58947 0.0
C101 C 0.99069 0.05653 0.53802 0.0
C102 C 0.99162 0.03804 0.5564 0.0
C103 C 0.99204 0.05237 0.67778 0.0
C104 C 0.99103 0.07079 0.65954 0.0
C105 C 0.99561 0.01659 0.64556 0.0
O106 O 0.02592 0.03354 0.80119 0.0
O107 O 0.05671 0.02733 0.8458 0.0
O108 O 0.06748 0.99355 0.75695 0.0
O109 O 0.04961 0.01283 0.69595 0.0
O110 O 0.05899 0.99989 0.95773 0.0
O111 O 0.07496 0.98146 0.87804 0.0
O112 O 0.03284 0.97058 0.81712 0.0
O113 O 0.02513 0.97546 0.7071 0.0
O114 O 1.00076 0.99569 0.81094 0.0
O115 O 0.02154 0.00544 0.90369 0.0
C116 C 0.04326 0.03957 0.83101 0.0
O117 O 1.01302 0.00893 0.62883 0.0
O118 O 0.9905 0.0147 0.70853 0.0
C119 C 0.06607 0.00349 0.70556 0.0
C120 C 0.06723 0.96859 0.97737 0.0
C121 C 0.05905 0.93136 0.00995 0.0
C122 C 0.07899 0.93893 0.01203 0.0
C123 C 0.08306 0.9574 0.99536 0.0
C124 C 0.04724 0.96144 0.97891 0.0
C125 C 0.0432 0.94302 0.99509 0.0
C126 C 0.0715 0.98568 0.94419 0.0
C127 C 0.02764 0.96383 0.75286 0.0
H128 H 0.99069 0.05785 0.48355 0.0
H129 H 0.99217 0.02549 0.51599 0.0
H130 H 0.99279 0.05113 0.73226 0.0
H131 H 0.99076 0.08324 0.70042 0.0
H132 H 0.09149 0.93021 0.02311 0.0
H133 H 0.09859 0.96253 0.99312 0.0
H134 H 0.03479 0.96969 0.96416 0.0
H135 H 0.02767 0.93769 0.99414 0.0
Tb136 Tb 0.5265 0.99048 0.71492 0.0
Tb137 Tb 0.54127 0.01607 0.86067 0.0
C138 C 0.54107 0.97097 0.83722 0.0
C139 C 0.49163 0.96136 0.59447 0.0
C140 C 0.45221 0.94519 0.58105 0.0
C141 C 0.4683 0.93546 0.545 0.0
C142 C 0.48794 0.94345 0.55213 0.0
C143 C 0.47554 0.97124 0.62938 0.0
C144 C 0.45602 0.96322 0.62287 0.0
C145 C 0.51238 0.96864 0.60934 0.0
O146 O 0.50093 0.99157 0.78639 0.0
O147 O 0.50881 0.02016 0.85714 0.0
O148 O 0.53926 0.03724 0.79108 0.0
O149 O 0.5187 0.02016 0.70632 0.0
O150 O 0.53699 0.02428 0.96786 0.0
O151 O 0.56323 0.03433 0.91746 0.0
O152 O 0.56832 0.00419 0.8068 0.0
O153 O 0.55715 1.00008 0.69433 0.0
O154 O 0.54326 0.97144 0.77091 0.0
O155 O 0.53573 0.98651 0.8791 0.0
C156 C 0.49559 0.00643 0.83244 0.0
O157 O 0.51554 0.98724 0.61246 0.0
O158 O 0.52064 0.96239 0.66155 0.0
C159 C 0.52778 0.03639 0.73568 0.0
C160 C 0.56877 0.02188 0.01967 0.0
C161 C 0.59887 0.99967 0.06797 0.0
C162 C 0.60248 0.01948 0.06591 0.0
C163 C 0.58755 0.0305 0.04145 0.0
C164 C 0.56473 0.00246 0.02711 0.0
C165 C 0.57968 0.99143 0.05059 0.0
C166 C 0.55536 0.03145 0.97622 0.0
C167 C 0.572 0.00243 0.73984 0.0
H168 H 0.46573 0.92157 0.51226 0.0
H169 H 0.50027 0.93551 0.52572 0.0
H170 H 0.47813 0.98505 0.66257 0.0
H171 H 0.44385 0.97126 0.65 0.0
H172 H 0.61724 0.02612 0.07899 0.0
H173 H 0.59108 0.04535 0.03538 0.0
H174 H 0.55042 0.99539 0.01083 0.0
H175 H 0.57647 0.97624 0.05262 0.0
Tb176 Tb 0.52044 0.49605 0.86099 0.0
Tb177 Tb 0.54918 0.51082 0.74001 0.0
C178 C 0.5033 0.50134 0.71554 0.0
C179 C 0.49587 0.46051 0.95717 0.0
C180 C 0.49121 0.42157 0.97859 0.0
C181 C 0.48624 0.43698 0.03109 0.0
C182 C 0.48858 0.45624 0.02046 0.0
C183 C 0.50052 0.44525 0.90407 0.0
C184 C 0.49822 0.42596 0.91465 0.0
C185 C 0.50008 0.48082 0.94889 0.0
O186 O 0.53941 0.47231 0.81944 0.0
O187 O 0.54605 0.47941 0.71094 0.0
O188 O 0.5688 0.50341 0.82111 0.0
O189 O 0.54713 0.51089 0.91165 0.0
O190 O 0.55611 0.51206 0.63568 0.0
O191 O 0.57507 0.52683 0.71859 0.0
O192 O 0.53831 0.53701 0.80218 0.0
O193 O 0.51263 0.52628 0.86867 0.0
O194 O 0.50422 0.48958 0.76171 0.0
O195 O 0.51803 0.51391 0.70994 0.0
C196 C 0.54445 0.46693 0.75453 0.0
O197 O 0.51888 0.48653 0.95753 0.0
O198 O 0.49223 0.48654 0.89469 0.0
C199 C 0.56558 0.50816 0.88799 0.0
C200 C 0.57017 0.54306 0.62356 0.0
C201 C 0.56932 0.57948 0.57725 0.0
C202 C 0.58755 0.57229 0.59874 0.0
C203 C 0.58796 0.55429 0.62134 0.0
C204 C 0.55192 0.5501 0.60215 0.0
C205 C 0.55153 0.56802 0.57883 0.0
C206 C 0.57078 0.52479 0.65266 0.0
C207 C 0.52273 0.5401 0.84385 0.0
H208 H 0.48114 0.43421 0.08134 0.0
H209 H 0.48514 0.46783 0.06229 0.0
H210 H 0.50624 0.44826 0.85484 0.0
H211 H 0.502 0.4145 0.87282 0.0
H212 H 0.60151 0.58075 0.59963 0.0
H213 H 0.60217 0.54928 0.63845 0.0
H214 H 0.5379 0.54185 0.604 0.0
H215 H 0.53724 0.57283 0.56178 0.0
Tb216 Tb 0.04724 0.51724 0.71119 0.0
Tb217 Tb 0.02956 0.48643 0.80589 0.0
C218 C 0.03244 0.5303 0.85956 0.0
C219 C 0.07943 0.55516 0.653 0.0
C220 C 0.11533 0.57793 0.66191 0.0
C221 C 0.09885 0.5824 0.62225 0.0
C222 C 0.08107 0.57102 0.61761 0.0
C223 C 0.09525 0.55141 0.69621 0.0
C224 C 0.11307 0.56262 0.7004 0.0
C225 C 0.06152 0.54221 0.6433 0.0
O226 O 0.07424 0.50619 0.75473 0.0
O227 O 0.06043 0.49225 0.84401 0.0
O228 O 0.04728 0.47028 0.72405 0.0
O229 O 0.04156 0.48974 0.64321 0.0
O230 O 0.02417 0.47869 0.90399 0.0
O231 O 1.01386 0.46015 0.81066 0.0
O232 O 1.00511 0.48981 0.73461 0.0
O233 O 1.01436 0.51894 0.70277 0.0
O234 O 0.04801 0.53101 0.81883 0.0
O235 O 0.01988 0.51535 0.84944 0.0
C236 C 0.07615 0.49859 0.81195 0.0
O237 O 0.06513 0.52373 0.62901 0.0
O238 O 0.04753 0.54579 0.69014 0.0
C239 C 0.04647 0.47291 0.65913 0.0
C240 C 0.99049 0.46697 0.89975 0.0
C241 C 0.94864 0.47273 0.91405 0.0
C242 C 0.95613 0.45384 0.89984 0.0
C243 C 0.97695 0.45099 0.89239 0.0
C244 C 0.98299 0.48574 0.91605 0.0
C245 C 0.96238 0.48859 0.92263 0.0
C246 C 1.01163 0.4647 0.87755 0.0
C247 C 1.0007 0.50519 0.70749 0.0
H248 H 0.09995 0.59427 0.59286 0.0
H249 H 0.06883 0.57428 0.58487 0.0
H250 H 0.09412 0.53934 0.72466 0.0
H251 H 0.12546 0.55852 0.73071 0.0
H252 H 0.94594 0.44131 0.89357 0.0
H253 H 0.9824 0.43641 0.87838 0.0
H254 H 0.99297 0.4984 0.92059 0.0
H255 H 0.95723 0.50335 0.93194 0.0
C256 C 0.20031 0.97864 0.2678 0.0
C257 C 0.21478 0.99359 0.26581 0.0
C258 C 0.18421 0.98101 0.31444 0.0
C259 C 0.15484 0.01741 0.4312 0.0
H260 H 0.14037 0.97281 0.5179 0.0
C261 C 0.08229 0.01352 0.59906 0.0
C262 C 0.08346 0.00395 0.65708 0.0
C263 C 0.09853 0.01338 0.55264 0.0
C264 C 0.14426 0.98551 0.49485 0.0
H265 H 0.22345 0.02303 0.31057 0.0
H266 H 0.19525 0.02722 0.39288 0.0
H267 H 0.16806 0.97085 0.43577 0.0
H268 H 0.10302 0.98712 0.71219 0.0
H269 H 0.1312 0.98707 0.63227 0.0
H270 H 0.13113 0.03214 0.49159 0.0
C271 C 0.19629 0.01365 0.35765 0.0
C272 C 0.16004 0.98429 0.44678 0.0
C273 C 0.21248 0.01126 0.31056 0.0
C274 C 0.10143 0.99453 0.66794 0.0
C275 C 0.11762 0.99441 0.62168 0.0
C276 C 0.13896 0.01862 0.4794 0.0
C277 C 0.18211 0.9984 0.36102 0.0
C278 C 0.16552 1.00016 0.41381 0.0
C279 C 0.11638 0.00366 0.56292 0.0
C280 C 0.13341 0.00265 0.51188 0.0
H281 H 0.20163 0.96488 0.2338 0.0
H282 H 0.17342 0.96908 0.31416 0.0
H283 H 0.15851 0.0299 0.40671 0.0
H284 H 0.06873 0.02093 0.58887 0.0
H285 H 0.09687 0.02051 0.50775 0.0
C286 C 0.51146 0.18004 0.44155 0.0
C287 C 0.52588 0.19439 0.46868 0.0
C288 C 0.5098 0.16257 0.46838 0.0
C289 C 0.52109 0.14193 0.62629 0.0
H290 H 0.51859 0.09199 0.50688 0.0
C291 C 0.53621 0.07144 0.73204 0.0
C292 C 0.52527 0.05438 0.70511 0.0
C293 C 0.53449 0.08826 0.70244 0.0
C294 C 0.51895 0.1058 0.54109 0.0
H295 H 0.54989 0.20168 0.54426 0.0
H296 H 0.54695 0.17145 0.5911 0.0
H297 H 0.51863 0.12173 0.45574 0.0
H298 H 0.50373 0.04181 0.62579 0.0
H299 H 0.50047 0.07131 0.57481 0.0
H300 H 0.52136 0.12624 0.7116 0.0
C301 C 0.53684 0.17363 0.54962 0.0
C302 C 0.519 0.12285 0.51167 0.0
C303 C 0.53861 0.1909 0.52249 0.0
C304 C 0.51242 0.05466 0.64792 0.0
C305 C 0.51064 0.07156 0.61835 0.0
C306 C 0.52089 0.12496 0.65564 0.0
C307 C 0.52234 0.15929 0.52331 0.0
C308 C 0.52048 0.14111 0.55395 0.0
C309 C 0.52169 0.0886 0.64518 0.0
C310 C 0.52023 0.10663 0.61351 0.0
H311 H 0.50143 0.18233 0.40002 0.0
H312 H 0.49845 0.15182 0.44714 0.0
H313 H 0.52183 0.15577 0.6604 0.0
H314 H 0.54638 0.0718 0.77566 0.0
H315 H 0.54356 0.10092 0.72381 0.0
C316 C 0.36633 0.52279 0.31496 0.0
C317 C 0.35004 0.50937 0.30546 0.0
C318 C 0.38243 0.52043 0.35883 0.0
C319 C 0.40774 0.4852 0.45273 0.0
H320 H 0.42978 0.53238 0.56165 0.0
C321 C 0.46982 0.48652 0.66799 0.0
C322 C 0.48533 0.50075 0.66904 0.0
C323 C 0.45287 0.48642 0.62451 0.0
C324 C 0.42395 0.51905 0.53127 0.0
H325 H 0.33803 0.4826 0.33372 0.0
H326 H 0.36618 0.47848 0.4115 0.0
H327 H 0.40129 0.53402 0.48468 0.0
H328 H 0.49507 0.52594 0.62427 0.0
H329 H 0.46576 0.52576 0.54938 0.0
H330 H 0.43052 0.47029 0.5004 0.0
C331 C 0.3666 0.49079 0.38417 0.0
C332 C 0.40758 0.51999 0.48679 0.0
C333 C 0.35044 0.49314 0.33964 0.0
C334 C 0.48347 0.51476 0.62525 0.0
C335 C 0.46654 0.51475 0.58241 0.0
C336 C 0.42414 0.48425 0.49774 0.0
C337 C 0.38267 0.50463 0.39534 0.0
C338 C 0.39942 0.50314 0.44582 0.0
C339 C 0.45092 0.50067 0.58162 0.0
C340 C 0.43268 0.50123 0.53675 0.0
H341 H 0.36649 0.5354 0.2891 0.0
H342 H 0.39468 0.53114 0.36437 0.0
H343 H 0.40197 0.47192 0.42193 0.0
H344 H 0.47072 0.47549 0.70088 0.0
H345 H 0.44109 0.47543 0.62554 0.0
C346 C 0.07259 0.31827 0.3069 0.0
C347 C 0.06581 0.31447 0.23781 0.0
C348 C 0.07364 0.3372 0.34277 0.0
C349 C 0.05033 0.38429 0.34657 0.0
H350 H 0.0914 0.40102 0.48639 0.0
C351 C 0.04756 0.45778 0.53338 0.0
C352 C 0.05101 0.45655 0.60357 0.0
C353 C 0.05145 0.44203 0.48151 0.0
C354 C 0.0798 0.39655 0.44762 0.0
H355 H 0.05569 0.32752 0.15104 0.0
H356 H 0.05755 0.36086 0.21401 0.0
H357 H 0.09529 0.37078 0.40647 0.0
H358 H 0.06156 0.43788 0.67405 0.0
H359 H 0.06828 0.41057 0.58399 0.0
H360 H 0.03462 0.40989 0.38899 0.0
C361 C 0.06186 0.34911 0.2405 0.0
C362 C 0.08203 0.37923 0.4018 0.0
C363 C 0.06092 0.33009 0.20433 0.0
C364 C 0.0587 0.43935 0.62058 0.0
C365 C 0.06271 0.42372 0.56885 0.0
C366 C 0.04812 0.40167 0.39236 0.0
C367 C 0.06792 0.35283 0.31055 0.0
C368 C 0.06705 0.37261 0.35197 0.0
C369 C 0.05906 0.42482 0.49873 0.0
C370 C 0.06257 0.40772 0.44461 0.0
H371 H 0.07661 0.30657 0.33411 0.0
H372 H 0.07815 0.33946 0.39681 0.0
H373 H 0.03841 0.37954 0.30927 0.0
H374 H 0.04165 0.47083 0.51849 0.0
H375 H 0.04858 0.44335 0.42791 0.0
C376 C 0.85589 1.00021 0.2726 0.0
C377 C 0.85206 0.98156 0.28878 0.0
C378 C 0.87229 0.00368 0.22984 0.0
C379 C 0.90534 0.97749 0.09465 0.0
H380 H 0.94104 0.0228 0.13228 0.0
C381 C 0.96669 0.99339 0.89904 0.0
C382 C 0.98591 0.99966 0.92562 0.0
C383 C 0.95018 0.9924 0.94336 0.0
C384 C 0.93125 0.01002 0.12117 0.0
H385 H 0.86263 0.95215 0.27439 0.0
H386 H 0.89099 0.95812 0.20081 0.0
H387 H 0.91275 0.019 0.21042 0.0
H388 H 1.00264 0.01004 0.02031 0.0
H389 H 0.97384 0.00824 0.0976 0.0
H390 H 0.92384 0.9683 0.00628 0.0
C391 C 0.88133 0.97006 0.21997 0.0
C392 C 0.9149 0.00795 0.16561 0.0
C393 C 0.86513 0.96666 0.26264 0.0
C394 C 0.98809 0.00514 0.99785 0.0
C395 C 0.97152 0.00423 0.04224 0.0
C396 C 0.92153 0.97962 0.05013 0.0
C397 C 0.88503 0.98852 0.20206 0.0
C398 C 0.90186 0.99152 0.15333 0.0
C399 C 0.95235 0.9977 0.01564 0.0
C400 C 0.93481 0.99584 0.06287 0.0
H401 H 0.84606 0.012 0.29184 0.0
H402 H 0.87466 0.01807 0.21696 0.0
H403 H 0.8955 0.96476 0.08295 0.0
H404 H 0.96434 0.98914 0.84378 0.0
H405 H 0.93563 0.98755 0.92079 0.0
C406 C 0.5529 0.82399 0.11071 0.0
C407 C 0.55923 0.80769 0.06485 0.0
C408 C 0.55177 0.84208 0.08852 0.0
C409 C 0.5472 0.8636 0.92773 0.0
H410 H 0.56374 0.91159 0.04455 0.0
C411 C 0.55134 0.93617 0.82198 0.0
C412 C 0.54434 0.9527 0.86507 0.0
C413 C 0.55387 0.91882 0.84786 0.0
C414 C 0.55886 0.89834 0.01149 0.0
H415 H 0.56973 0.79758 0.96074 0.0
H416 H 0.56801 0.82899 0.92233 0.0
H417 H 0.56667 0.88085 0.08782 0.0
H418 H 0.53453 0.96385 0.96949 0.0
H419 H 0.53887 0.93367 0.0144 0.0
H420 H 0.53926 0.88097 0.85159 0.0
C421 C 0.5636 0.82787 0.97497 0.0
C422 C 0.56054 0.88071 0.03636 0.0
C423 C 0.56473 0.80989 0.99711 0.0
C424 C 0.54014 0.95149 0.93489 0.0
C425 C 0.54269 0.93416 0.96079 0.0
C426 C 0.5455 0.88118 0.90295 0.0
C427 C 0.55687 0.84418 0.02001 0.0
C428 C 0.55482 0.86309 0.99463 0.0
C429 C 0.54943 0.91753 0.9175 0.0
C430 C 0.55137 0.8988 0.94432 0.0
H431 H 0.54851 0.82274 0.16324 0.0
H432 H 0.5464 0.85429 0.12447 0.0
H433 H 0.54226 0.85037 0.8946 0.0
H434 H 0.55482 0.93657 0.76804 0.0
H435 H 0.55939 0.90641 0.81322 0.0
C436 C 0.70883 0.5457 0.29105 0.0
C437 C 0.71751 0.53046 0.31866 0.0
C438 C 0.69236 0.5423 0.24555 0.0
C439 C 0.65006 0.50816 0.18608 0.0
H440 H 0.65131 0.53433 0.0253 0.0
C441 C 0.57981 0.51218 0.00952 0.0
C442 C 0.58297 0.50993 0.93743 0.0
C443 C 0.5962 0.51362 0.05582 0.0
C444 C 0.65073 0.52678 0.06959 0.0
H445 H 0.71538 0.49961 0.32113 0.0
H446 H 0.68628 0.49359 0.24167 0.0
H447 H 0.67974 0.53837 0.10596 0.0
H448 H 0.60605 0.50739 0.85791 0.0
H449 H 0.63452 0.51002 0.93841 0.0
H450 H 0.62094 0.49661 0.14945 0.0
C451 C 0.69231 0.50825 0.25547 0.0
C452 C 0.66698 0.52925 0.11632 0.0
C453 C 0.709 0.51167 0.30089 0.0
C454 C 0.60298 0.50916 0.91298 0.0
C455 C 0.61935 0.51076 0.95927 0.0
C456 C 0.63366 0.50583 0.13954 0.0
C457 C 0.68397 0.52352 0.22642 0.0
C458 C 0.66685 0.52008 0.17547 0.0
C459 C 0.61621 0.51302 0.03137 0.0
C460 C 0.63375 0.51516 0.08071 0.0
H461 H 0.71502 0.56035 0.30386 0.0
H462 H 0.68617 0.55446 0.22531 0.0
H463 H 0.64938 0.50096 0.23119 0.0
H464 H 0.56464 0.51279 0.03037 0.0
H465 H 0.59318 0.51555 0.11095 0.0
C466 C 0.97912 0.67615 0.234 0.0
C467 C 0.99419 0.68822 0.27007 0.0
C468 C 0.98376 0.65776 0.19902 0.0
C469 C 0.02457 0.63223 0.10648 0.0
H470 H 0.9933 0.58537 0.12086 0.0
C471 C 0.04463 0.55966 0.9405 0.0
C472 C 0.02872 0.54682 0.91503 0.0
C473 C 0.04108 0.57581 0.99071 0.0
C474 C 1.00205 0.59833 0.11538 0.0
H475 H 0.02589 0.69053 0.29877 0.0
H476 H 0.03413 0.65849 0.23588 0.0
H477 H 0.98561 0.61558 0.19658 0.0
H478 H 0.99663 0.54067 0.9226 0.0
H479 H 0.99017 0.56932 0.00762 0.0
H480 H 0.0403 0.61559 0.02313 0.0
C481 C 0.01868 0.66321 0.23555 0.0
C482 C 0.99771 0.61559 0.15923 0.0
C483 C 1.01395 0.68147 0.27173 0.0
C484 C 1.00921 0.55029 0.94153 0.0
C485 C 1.00556 0.56669 0.99075 0.0
C486 C 0.02867 0.61511 0.06177 0.0
C487 C 1.00366 0.65128 0.19832 0.0
C488 C 1.00891 0.63269 0.15502 0.0
C489 C 0.02143 0.5798 0.01566 0.0
C490 C 0.01743 0.59789 0.06532 0.0
H491 H 0.96379 0.68109 0.23182 0.0
H492 H 0.97195 0.64891 0.17023 0.0
H493 H 0.03323 0.6453 0.10147 0.0
H494 H 0.05989 0.55721 0.92169 0.0
H495 H 0.05382 0.58518 0.00973 0.0
C496 C 1.00804 0.20919 0.28934 0.0
C497 C 0.02468 0.22191 0.30709 0.0
C498 C 1.00133 0.1968 0.33443 0.0
C499 C 0.0224 0.17204 0.46783 0.0
H500 H 0.96732 0.15267 0.48045 0.0
C501 C 1.00417 0.1074 0.60696 0.0
C502 C 0.99147 0.09284 0.5703 0.0
C503 C 1.00596 0.12561 0.58659 0.0
C504 C 0.98277 0.15793 0.4773 0.0
H505 H 0.0464 0.23262 0.38817 0.0
H506 H 0.03437 0.2113 0.46769 0.0
H507 H 0.97402 0.18133 0.42601 0.0
H508 H 0.9701 0.08625 0.48518 0.0
H509 H 0.97364 0.11792 0.44842 0.0
H510 H 0.03128 0.14839 0.5169 0.0
C511 C 0.02676 0.21065 0.41827 0.0
C512 C 0.9866 0.17434 0.44628 0.0
C513 C 0.03351 0.22301 0.37303 0.0
C514 C 0.98019 0.09708 0.51395 0.0
C515 C 0.98201 0.11531 0.49349 0.0
C516 C 0.01857 0.1557 0.49885 0.0
C517 C 1.01109 0.19692 0.39838 0.0
C518 C 1.00651 0.18133 0.43992 0.0
C519 C 0.99517 0.12966 0.52893 0.0
C520 C 0.99878 0.14822 0.50268 0.0
H521 H 1.00074 0.20823 0.23923 0.0
H522 H 0.98929 0.18635 0.31727 0.0
H523 H 0.03795 0.17679 0.46265 0.0
H524 H 1.01324 0.10457 0.6502 0.0
H525 H 0.01608 0.13642 0.61535 0.0
C526 C 0.29424 0.95749 0.35472 0.0
C527 C 0.30075 0.97635 0.34779 0.0
C528 C 0.30325 0.94797 0.4042 0.0
C529 C 0.33972 0.95534 0.5523 0.0
H530 H 0.36472 0.90966 0.45259 0.0
C531 C 0.41824 0.93834 0.62959 0.0
C532 C 0.43121 0.9374 0.57225 0.0
C533 C 0.39749 0.93488 0.61987 0.0
C534 C 0.35771 0.92222 0.48178 0.0
H535 H 0.32029 1.0007 0.38933 0.0
H536 H 0.33591 0.98434 0.47567 0.0
H537 H 0.33423 0.9216 0.40641 0.0
H538 H 0.43301 0.93038 0.46042 0.0
H539 H 0.39696 0.92485 0.44302 0.0
H540 H 0.36433 0.95735 0.62338 0.0
C541 C 0.32389 0.97677 0.44385 0.0
C542 C 0.34006 0.92894 0.45574 0.0
C543 C 0.31511 0.98613 0.39406 0.0
C544 C 0.42336 0.93118 0.50554 0.0
C545 C 0.40262 0.92789 0.49573 0.0
C546 C 0.35744 0.94874 0.57798 0.0
C547 C 0.31863 0.95734 0.44777 0.0
C548 C 0.33179 0.94639 0.48813 0.0
C549 C 0.38932 0.93063 0.55256 0.0
C550 C 0.36743 0.93294 0.54015 0.0
H551 H 0.28317 0.94974 0.31913 0.0
H552 H 0.29891 0.93302 0.40614 0.0
H553 H 0.33337 0.96858 0.57914 0.0
H554 H 0.42402 0.94271 0.68178 0.0
H555 H 0.38773 0.93671 0.66481 0.0
C556 C 0.53777 0.29323 0.51581 0.0
C557 C 0.51751 0.28948 0.49587 0.0
C558 C 0.54352 0.31089 0.55636 0.0
C559 C 0.55081 0.35493 0.58286 0.0
H560 H 0.51915 0.38101 0.73514 0.0
C561 C 0.54845 0.43838 0.6597 0.0
C562 C 0.54704 0.44595 0.73056 0.0
C563 C 0.54813 0.41829 0.63766 0.0
C564 C 0.52833 0.37387 0.69325 0.0
H565 H 0.48721 0.30042 0.50559 0.0
H566 H 0.4971 0.33105 0.57763 0.0
H567 H 0.51216 0.34684 0.69095 0.0
H568 H 0.54547 0.43831 0.83411 0.0
H569 H 0.54489 0.40353 0.7956 0.0
H570 H 0.56663 0.38214 0.58396 0.0
C571 C 0.50858 0.32049 0.56209 0.0
C572 C 0.52423 0.35434 0.66775 0.0
C573 C 0.5029 0.303 0.52089 0.0
C574 C 0.54634 0.43303 0.77898 0.0
C575 C 0.54594 0.41305 0.75701 0.0
C576 C 0.55482 0.37454 0.60803 0.0
C577 C 0.52903 0.3249 0.57822 0.0
C578 C 0.53519 0.34476 0.61154 0.0
C579 C 0.54634 0.40545 0.68609 0.0
C580 C 0.5434 0.38429 0.66278 0.0
H581 H 0.5493 0.28306 0.49636 0.0
H582 H 0.55937 0.31388 0.56853 0.0
H583 H 0.55936 0.34797 0.53897 0.0
H584 H 0.54898 0.44791 0.62112 0.0
H585 H 0.54833 0.41284 0.58257 0.0
C586 C 0.24936 0.53129 0.42466 0.0
C587 C 0.26355 0.53927 0.38347 0.0
C588 C 0.24066 0.54287 0.48099 0.0
C589 C 0.22447 0.59182 0.52653 0.0
H590 H 0.20299 0.5702 0.68304 0.0
C591 C 0.14246 0.59016 0.58983 0.0
C592 C 0.13563 0.58706 0.65537 0.0
C593 C 0.16289 0.59378 0.57868 0.0
C594 C 0.20917 0.57696 0.64117 0.0
H595 H 0.28064 0.56515 0.36943 0.0
H596 H 0.26501 0.58579 0.46807 0.0
H597 H 0.23296 0.55665 0.62465 0.0
H598 H 0.14452 0.58803 0.76279 0.0
H599 H 0.1804 0.59404 0.7429 0.0
H600 H 0.19992 0.61136 0.54045 0.0
C601 C 0.26079 0.57053 0.45719 0.0
C602 C 0.22628 0.56902 0.60724 0.0
C603 C 0.26972 0.55879 0.40108 0.0
C604 C 0.14939 0.58981 0.71121 0.0
C605 C 0.16992 0.59335 0.69995 0.0
C606 C 0.2074 0.59985 0.56073 0.0
C607 C 0.24581 0.56275 0.49669 0.0
C608 C 0.23315 0.57542 0.54654 0.0
C609 C 0.17703 0.59429 0.63271 0.0
C610 C 0.19869 0.59151 0.61507 0.0
H611 H 0.24441 0.51624 0.41149 0.0
H612 H 0.2289 0.53649 0.50936 0.0
H613 H 0.22949 0.59719 0.48019 0.0
H614 H 0.13242 0.58804 0.54539 0.0
H615 H 0.16775 0.59422 0.52601 0.0
C616 C 0.02246 0.77463 0.19111 0.0
C617 C 1.00678 0.77908 0.23889 0.0
C618 C 0.02733 0.78712 0.1439 0.0
C619 C 1.0106 0.8311 0.07551 0.0
H620 H 0.06761 0.84548 0.0878 0.0
C621 C 0.04126 0.89925 0.97508 0.0
C622 C 0.05471 0.91109 0.01998 0.0
C623 C 0.03633 0.88043 0.9859 0.0
C624 C 0.05165 0.84164 0.08377 0.0
H625 H 0.9827 0.79885 0.27093 0.0
H626 H 0.99109 0.82062 0.18917 0.0
H627 H 0.05564 0.81642 0.13086 0.0
H628 H 0.07393 0.91237 0.11032 0.0
H629 H 0.06505 0.87962 0.13032 0.0
H630 H 1.00642 0.85699 0.03268 0.0
C631 C 0.99968 0.80758 0.18745 0.0
C632 C 0.04482 0.82479 0.10745 0.0
C633 C 0.9949 0.79518 0.23462 0.0
C634 C 0.0636 0.90353 0.07475 0.0
C635 C 0.05857 0.88473 0.08588 0.0
C636 C 0.01743 0.84798 0.05205 0.0
C637 C 0.0165 0.80416 0.14363 0.0
C638 C 0.02412 0.81966 0.10563 0.0
C639 C 0.04467 0.87304 0.0421 0.0
C640 C 0.03795 0.85376 0.0579 0.0
H641 H 0.03188 0.76232 0.19369 0.0
H642 H 0.04018 0.78396 0.11008 0.0
H643 H 0.9946 0.82743 0.07263 0.0
H644 H 0.03449 0.90458 0.93155 0.0
H645 H 0.02586 0.87172 0.95049 0.0
C646 C 0.74726 0.93475 0.26746 0.0
C647 C 0.7595 0.95067 0.25646 0.0
C648 C 0.73062 0.92903 0.22449 0.0
C649 C 0.70012 0.94313 0.07957 0.0
H650 H 0.65916 0.95094 0.22272 0.0
C651 C 0.6195 0.97018 0.03614 0.0
C652 C 0.6155 0.98722 0.08246 0.0
C653 C 0.63593 0.95892 0.04729 0.0
C654 C 0.67033 0.94846 0.18194 0.0
H655 H 0.76617 0.97095 0.18613 0.0
H656 H 0.73709 0.9613 0.11195 0.0
H657 H 0.69215 0.93987 0.25008 0.0
H658 H 0.62511 0.00568 0.1771 0.0
H659 H 0.65369 0.98581 0.19744 0.0
H660 H 0.67838 0.95319 0.01306 0.0
C661 C 0.74015 0.95307 0.15312 0.0
C662 C 0.68921 0.94186 0.19718 0.0
C663 C 0.75689 0.95866 0.19573 0.0
C664 C 0.62792 0.99261 0.14079 0.0
C665 C 0.64411 0.98119 0.15255 0.0
C666 C 0.68109 0.94963 0.06418 0.0
C667 C 0.72591 0.93938 0.17079 0.0
C668 C 0.70467 0.94007 0.14723 0.0
C669 C 0.64836 0.96434 0.1056 0.0
C670 C 0.66645 0.95326 0.11637 0.0
H671 H 0.74919 0.92822 0.31367 0.0
H672 H 0.72021 0.91804 0.23817 0.0
H673 H 0.71166 0.94175 0.03991 0.0
H674 H 0.61022 0.96586 0.99032 0.0
H675 H 0.63897 0.94603 0.01036 0.0
C676 C 0.5365 0.70995 0.02185 0.0
C677 C 0.52294 0.71915 0.07056 0.0
C678 C 0.53133 0.69202 0.98252 0.0
C679 C 0.49723 0.6499 0.99626 0.0
H680 H 0.52599 0.62859 0.8301 0.0
C681 C 0.51233 0.56839 0.93028 0.0
C682 C 0.51633 0.56025 0.86157 0.0
C683 C 0.50875 0.58822 0.94724 0.0
C684 C 0.51738 0.63419 0.87567 0.0
H685 H 0.49286 0.71795 0.11294 0.0
H686 H 0.48313 0.68725 0.04077 0.0
H687 H 0.52627 0.66326 0.86681 0.0
H688 H 0.51834 0.56578 0.75585 0.0
H689 H 0.51073 0.59997 0.78421 0.0
H690 H 0.48762 0.6209 0.00351 0.0
C691 C 0.4981 0.69334 0.03464 0.0
C692 C 0.51787 0.65422 0.89755 0.0
C693 C 0.50348 0.71108 0.07518 0.0
C694 C 0.51554 0.57188 0.80949 0.0
C695 C 0.51136 0.59153 0.826 0.0
C696 C 0.49629 0.62991 0.97337 0.0
C697 C 0.51232 0.68307 0.9904 0.0
C698 C 0.50849 0.66231 0.95968 0.0
C699 C 0.50856 0.60018 0.89542 0.0
C700 C 0.50699 0.62166 0.91419 0.0
H701 H 0.55173 0.71581 0.01851 0.0
H702 H 0.54288 0.68463 0.95002 0.0
H703 H 0.48989 0.65539 0.04465 0.0
H704 H 0.513 0.55965 0.97125 0.0
H705 H 0.50703 0.59423 1.00144 0.0
C706 C 0.81595 0.52845 0.18346 0.0
C707 C 0.80012 0.51683 0.20327 0.0
C708 C 0.82396 0.52452 0.11695 0.0
C709 C 0.83367 0.48157 0.99603 0.0
H710 H 0.86685 0.51899 0.91732 0.0
C711 C 0.91267 0.46509 0.87391 0.0
C712 C 0.92665 0.4763 0.91889 0.0
C713 C 0.89209 0.46936 0.87731 0.0
C714 C 0.8573 0.50827 0.93693 0.0
H715 H 0.77893 0.49317 0.16764 0.0
H716 H 0.79306 0.48619 0.05084 0.0
H717 H 0.83613 0.52945 0.97992 0.0
H718 H 0.9298 0.50034 0.00402 0.0
H719 H 0.89434 0.50804 0.00812 0.0
H720 H 0.85582 0.46078 0.95789 0.0
C721 C 0.79932 0.49828 0.08688 0.0
C722 C 0.83981 0.51426 0.97305 0.0
C723 C 0.79122 0.5023 0.15358 0.0
C724 C 0.91962 0.49173 0.96726 0.0
C725 C 0.8993 0.49621 0.96955 0.0
C726 C 0.85107 0.47555 0.95928 0.0
C727 C 0.81636 0.5088 0.06894 0.0
C728 C 0.82882 0.50131 0.00793 0.0
C729 C 0.88538 0.48514 0.92461 0.0
C730 C 0.86378 0.48922 0.93439 0.0
H731 H 0.82285 0.53993 0.22063 0.0
H732 H 0.83721 0.53283 0.10541 0.0
H733 H 0.82552 0.47118 0.022 0.0
H734 H 0.91762 0.45322 0.83558 0.0
H735 H 0.88148 0.46046 0.84305 0.0
C736 C 0.07286 0.21087 0.06428 0.0
C737 C 0.05338 0.21831 0.07266 0.0
C738 C 0.0761 0.1936 0.01885 0.0
C739 C 0.0518 0.15577 0.88522 0.0
H740 H 0.07649 0.1202 0.99152 0.0
C741 C 0.03267 0.07398 0.83741 0.0
C742 C 0.04757 0.06075 0.84774 0.0
C743 C 0.03658 0.09394 0.85279 0.0
C744 C 0.06992 0.1299 0.96016 0.0
H745 H 0.02249 0.21477 0.03613 0.0
H746 H 0.0281 0.18494 0.95594 0.0
H747 H 0.07869 0.15482 0.03336 0.0
H748 H 0.07851 0.05826 0.88096 0.0
H749 H 0.08541 0.09313 0.90732 0.0
H750 H 0.04252 0.13073 0.81299 0.0
C751 C 0.04094 0.19228 0.98395 0.0
C752 C 0.07123 0.14983 0.98416 0.0
C753 C 0.0377 0.20943 0.02965 0.0
C754 C 0.06661 0.06801 0.87301 0.0
C755 C 0.07055 0.08803 0.88823 0.0
C756 C 0.05058 0.13581 0.86096 0.0
C757 C 0.0599 0.18359 0.98098 0.0
C758 C 0.06172 0.16298 0.94803 0.0
C759 C 0.05554 0.10127 0.87872 0.0
C760 C 0.05912 0.12257 0.89923 0.0
H761 H 0.08511 0.21731 0.0977 0.0
H762 H 0.09094 0.1874 0.01696 0.0
H763 H 0.04449 0.16553 0.85582 0.0
H764 H 0.01782 0.06896 0.81816 0.0
H765 H 0.0245 0.10362 0.84598 0.0
C766 C 0.33299 0.98285 0.10843 0.0
C767 C 0.32021 0.99856 0.12783 0.0
C768 C 0.35015 0.98467 0.06811 0.0
C769 C 0.38595 0.02172 0.01512 0.0
H770 H 0.40724 0.97623 0.90146 0.0
C771 C 0.46937 0.01957 0.92033 0.0
C772 C 0.47441 0.00721 0.85894 0.0
C773 C 0.44965 0.01955 0.94694 0.0
C774 C 0.40155 0.98927 0.93185 0.0
H775 H 0.31502 0.0283 0.11636 0.0
H776 H 0.34478 0.0314 0.0433 0.0
H777 H 0.37409 0.9745 0.95208 0.0
H778 H 0.46227 0.98551 0.7766 0.0
H779 H 0.42794 0.98616 0.82022 0.0
H780 H 0.41317 0.0367 0.99242 0.0
C781 C 0.34176 0.01773 0.06119 0.0
C782 C 0.38247 0.98816 0.96224 0.0
C783 C 0.3245 0.01591 0.10228 0.0
C784 C 0.45905 0.99519 0.82405 0.0
C785 C 0.43926 0.99543 0.8498 0.0
C786 C 0.40497 0.02293 0.98376 0.0
C787 C 0.35509 0.0022 0.04456 0.0
C788 C 0.3745 0.00422 0.00576 0.0
C789 C 0.43423 0.00738 0.91238 0.0
C790 C 0.41329 0.00661 0.94252 0.0
H791 H 0.33007 0.96918 0.12654 0.0
H792 H 0.35995 0.9724 0.05792 0.0
H793 H 0.38055 0.03442 0.04843 0.0
H794 H 0.4808 0.02895 0.949 0.0
H795 H 0.44672 0.02875 0.99575 0.0
C796 C 0.50825 0.26895 0.20072 0.0
C797 C 0.4944 0.26966 0.25539 0.0
C798 C 0.50599 0.28089 0.15014 0.0
C799 C 0.47166 0.31613 0.08622 0.0
H800 H 0.52166 0.34506 0.06889 0.0
C801 C 0.47389 0.39486 0.03112 0.0
C802 C 0.48984 0.40112 0.9918 0.0
C803 C 0.47341 0.37615 0.04809 0.0
C804 C 0.5076 0.33696 0.07179 0.0
H805 H 0.46653 0.28203 0.29717 0.0
H806 H 0.46239 0.30263 0.20907 0.0
H807 H 0.52208 0.31581 0.12118 0.0
H808 H 0.51754 0.39223 0.93791 0.0
H809 H 0.5165 0.35951 0.96642 0.0
H810 H 0.45711 0.33777 0.03896 0.0
C811 C 0.47495 0.29291 0.20441 0.0
C812 C 0.50785 0.32008 0.10173 0.0
C813 C 0.47726 0.28105 0.25493 0.0
C814 C 0.50495 0.38792 0.96791 0.0
C815 C 0.50447 0.36919 0.9849 0.0
C816 C 0.47142 0.33303 0.05623 0.0
C817 C 0.48982 0.29372 0.1534 0.0
C818 C 0.48982 0.30968 0.11091 0.0
C819 C 0.48886 0.36315 0.02616 0.0
C820 C 0.48932 0.34393 0.05017 0.0
H821 H 0.52173 0.26049 0.20053 0.0
H822 H 0.51754 0.28092 0.11088 0.0
H823 H 0.45753 0.30836 0.09161 0.0
H824 H 0.46183 0.40452 0.04957 0.0
H825 H 0.46125 0.37212 0.08049 0.0
C826 C 0.23665 0.5234 0.12596 0.0
C827 C 0.24673 0.50747 0.14427 0.0
C828 C 0.22013 0.52073 0.08057 0.0
C829 C 0.1799 0.48452 0.01454 0.0
H830 H 0.1676 0.5227 0.89803 0.0
C831 C 0.09914 0.49155 0.90739 0.0
C832 C 0.09673 0.49755 0.8425 0.0
C833 C 0.11834 0.4912 0.93744 0.0
C834 C 0.1708 0.5117 0.92942 0.0
H835 H 0.24782 0.47617 0.12643 0.0
H836 H 0.21903 0.47139 0.04549 0.0
H837 H 0.20004 0.52435 0.95703 0.0
H838 H 0.11299 0.50755 0.75794 0.0
H839 H 0.14639 0.50657 0.80943 0.0
H840 H 0.15074 0.47168 0.98598 0.0
C841 C 0.22377 0.48603 0.06744 0.0
C842 C 0.18942 0.5128 0.9642 0.0
C843 C 0.24045 0.48873 0.11309 0.0
C844 C 0.11416 0.50293 0.80809 0.0
C845 C 0.13339 0.50248 0.83799 0.0
C846 C 0.16128 0.48335 0.97944 0.0
C847 C 0.21311 0.50202 0.05157 0.0
C848 C 0.19414 0.49947 0.00842 0.0
C849 C 0.13581 0.49674 0.90345 0.0
C850 C 0.15627 0.49712 0.9372 0.0
H851 H 0.24114 0.53804 0.14889 0.0
H852 H 0.21233 0.53344 0.07077 0.0
H853 H 0.18281 0.47404 0.04834 0.0
H854 H 0.08614 0.48739 0.93581 0.0
H855 H 0.11939 0.48702 0.9883 0.0
C856 C 0.99119 0.79237 0.52734 0.0
C857 C 1.0087 0.78519 0.49312 0.0
C858 C 0.99211 0.80965 0.57472 0.0
C859 C 0.02706 0.84804 0.66795 0.0
H860 H 0.98681 0.8827 0.6176 0.0
C861 C 0.02738 0.93 0.78077 0.0
C862 C 0.02401 0.94264 0.73281 0.0
C863 C 0.02425 0.90999 0.76194 0.0
C864 C 0.99816 0.87322 0.63226 0.0
H865 H 0.04098 0.78947 0.4842 0.0
H866 H 0.04275 0.81949 0.5672 0.0
H867 H 0.98387 0.84821 0.57294 0.0
H868 H 1.0146 0.94406 0.62746 0.0
H869 H 1.00926 0.90916 0.59452 0.0
H870 H 0.04182 0.87331 0.72475 0.0
C871 C 0.02832 0.81181 0.55861 0.0
C872 C 0.99632 0.85337 0.60754 0.0
C873 C 0.02737 0.79457 0.51125 0.0
C874 C 0.0173 0.93478 0.66574 0.0
C875 C 1.0141 0.91477 0.64701 0.0
C876 C 0.02887 0.86793 0.69289 0.0
C877 C 1.01055 0.82007 0.58817 0.0
C878 C 1.01097 0.84057 0.62382 0.0
C879 C 0.01758 0.90213 0.69482 0.0
C880 C 1.01469 0.88081 0.67394 0.0
H881 H 0.9766 0.78553 0.51305 0.0
H882 H 0.9782 0.81548 0.59743 0.0
H883 H 0.03853 0.83857 0.6818 0.0
H884 H 0.03255 0.93552 0.83297 0.0
H885 H 0.0269 0.90068 0.80013 0.0
C886 C 0.7435 0.00871 0.48555 0.0
C887 C 0.75298 0.99093 0.48439 0.0
C888 C 0.72563 0.01272 0.52352 0.0
C889 C 0.69103 0.99467 0.65385 0.0
H890 H 0.6495 0.01699 0.55387 0.0
C891 C 0.60957 0.00594 0.7627 0.0
C892 C 0.59338 0.00252 0.71522 0.0
C893 C 0.62965 0.00624 0.73956 0.0
C894 C 0.66083 0.0106 0.58244 0.0
H895 H 0.75176 0.96384 0.52451 0.0
H896 H 0.72099 0.97077 0.59106 0.0
H897 H 0.6838 0.01511 0.50906 0.0
H898 H 0.58587 0.99667 0.6057 0.0
H899 H 0.62069 0.99683 0.56554 0.0
H900 H 0.66785 0.9894 0.72563 0.0
C901 C 0.72726 0.98183 0.56367 0.0
C902 C 0.6807 0.00982 0.55723 0.0
C903 C 0.74503 0.97785 0.52574 0.0
C904 C 0.59787 0.99941 0.64394 0.0
C905 C 0.61793 0.99965 0.62082 0.0
C906 C 0.67115 0.99541 0.67899 0.0
C907 C 0.71682 0.999 0.56106 0.0
C908 C 0.69609 0.00161 0.59202 0.0
C909 C 0.63417 0.0031 0.66821 0.0
C910 C 0.65565 0.00316 0.64322 0.0
H911 H 0.74902 0.01887 0.45298 0.0
H912 H 0.71828 0.02625 0.52108 0.0
H913 H 0.70241 0.98843 0.68269 0.0
H914 H 0.60678 0.00852 0.818 0.0
H915 H 0.64161 0.0092 0.77783 0.0
C916 C 0.53532 0.72699 0.34715 0.0
C917 C 0.55037 0.73387 0.30584 0.0
C918 C 0.5399 0.71364 0.39075 0.0
C919 C 0.57381 0.67367 0.38986 0.0
H920 H 0.55059 0.66951 0.56917 0.0
C921 C 0.58514 0.60551 0.51684 0.0
C922 C 0.56886 0.59884 0.5538 0.0
C923 C 0.5847 0.62358 0.49473 0.0
C924 C 0.55702 0.67031 0.51873 0.0
H925 H 0.58218 0.73315 0.28066 0.0
H926 H 0.59029 0.70984 0.35716 0.0
H927 H 0.54707 0.69938 0.52074 0.0
H928 H 0.53944 0.60647 0.59747 0.0
H929 H 0.53823 0.63737 0.55597 0.0
H930 H 0.5829 0.64443 0.38556 0.0
C931 C 0.57495 0.71479 0.35592 0.0
C932 C 0.55513 0.68753 0.4913 0.0
C933 C 0.57039 0.72834 0.31296 0.0
C934 C 0.55215 0.61086 0.56817 0.0
C935 C 0.55161 0.62884 0.54534 0.0
C936 C 0.57549 0.6564 0.41678 0.0
C937 C 0.55958 0.70667 0.39301 0.0
C938 C 0.56336 0.68934 0.42627 0.0
C939 C 0.56786 0.63547 0.50806 0.0
C940 C 0.56696 0.65435 0.48133 0.0
H941 H 0.51971 0.73078 0.34152 0.0
H942 H 0.5277 0.70761 0.41825 0.0
H943 H 0.57998 0.67443 0.33897 0.0
H944 H 0.5982 0.59666 0.50393 0.0
H945 H 0.59767 0.6282 0.46717 0.0
C946 C 0.83725 0.53372 0.4487 0.0
C947 C 0.82161 0.51969 0.44864 0.0
C948 C 0.85515 0.5327 0.48589 0.0
C949 C 0.88681 0.4973 0.55583 0.0
H950 H 0.91718 0.54348 0.63776 0.0
C951 C 0.96435 0.49335 0.69306 0.0
C952 C 0.97957 0.50705 0.68257 0.0
C953 C 0.94447 0.49503 0.67024 0.0
C954 C 0.90904 0.53041 0.61454 0.0
H955 H 0.8123 0.49392 0.48983 0.0
H956 H 0.8436 0.4922 0.556 0.0
H957 H 0.88334 0.54639 0.59222 0.0
H958 H 0.98549 0.53339 0.63976 0.0
H959 H 0.95099 0.5362 0.59927 0.0
H960 H 0.91263 0.48134 0.57745 0.0
C961 C 0.84205 0.50394 0.5265 0.0
C962 C 0.88952 0.53208 0.58846 0.0
C963 C 0.82398 0.50505 0.4894 0.0
C964 C 0.97425 0.52255 0.64888 0.0
C965 C 0.95435 0.52423 0.62602 0.0
C966 C 0.90635 0.49562 0.58197 0.0
C967 C 0.85808 0.51756 0.52415 0.0
C968 C 0.87818 0.51558 0.55781 0.0
C969 C 0.93913 0.51048 0.63622 0.0
C970 C 0.91789 0.51218 0.61096 0.0
H971 H 0.83592 0.54513 0.41754 0.0
H972 H 0.86708 0.54335 0.48187 0.0
H973 H 0.87876 0.48426 0.53182 0.0
H974 H 0.96772 0.48129 0.71941 0.0
H975 H 0.9332 0.48431 0.68017 0.0
loop_
_geom_bond_atom_site_label_1
_geom_bond_atom_site_label_2
_geom_bond_distance
_geom_bond_site_symmetry_2
_ccdc_geom_bond_type
H0 C5 0.930 . S
H1 C8 0.930 . S
H2 C10 0.930 . S
H3 C4 1.016 . S
C4 H3 1.016 . S
C4 N11 1.286 . S
C5 H0 0.930 . S
C5 C6 1.397 . S
C5 C7 1.361 . S
C6 C5 1.397 . S
C6 C10 1.390 . S
C7 C5 1.361 . S
C7 C8 1.393 . S
C7 N11 1.413 . S
C8 H1 0.930 . S
C8 C7 1.393 . S
C8 C9 1.399 . S
C9 C8 1.399 . S
C9 C10 1.381 . S
C10 H2 0.930 . S
C10 C6 1.390 . S
C10 C9 1.381 . S
N11 C4 1.286 . S
N11 C7 1.413 . S
H12 C17 0.928 1_455 S
H13 C20 0.930 . S
H14 C22 0.930 . S
H15 C16 1.016 . S
C16 H15 1.016 . S
C16 N23 1.286 1_655 S
C17 H12 0.928 1_655 S
C17 C18 1.397 . S
C17 C19 1.365 . S
C18 C17 1.397 . S
C18 C22 1.390 . S
C19 C17 1.365 . S
C19 C20 1.400 . S
C19 N23 1.406 1_655 S
C20 H13 0.930 . S
C20 C19 1.400 . S
C20 C21 1.399 . S
C21 C20 1.399 . S
C21 C22 1.381 . S
C22 H14 0.930 . S
C22 C18 1.390 . S
C22 C21 1.381 . S
N23 C16 1.286 1_455 S
N23 C19 1.406 1_455 S
H24 C29 0.930 . S
H25 C32 0.930 . S
H26 C34 0.930 . S
H27 C28 1.023 . S
C28 H27 1.023 . S
C28 N35 1.273 1_565 S
C29 H24 0.930 . S
C29 C30 1.406 . S
C29 C31 1.361 . S
C30 C29 1.406 . S
C30 C34 1.393 1_545 S
C31 C29 1.361 . S
C31 C32 1.393 . S
C31 N35 1.413 . S
C32 H25 0.930 . S
C32 C31 1.393 . S
C32 C33 1.402 . S
C33 C32 1.402 . S
C33 C34 1.377 1_545 S
C34 H26 0.930 . S
C34 C30 1.393 1_565 S
C34 C33 1.377 1_565 S
N35 C28 1.273 1_545 S
N35 C31 1.413 . S
H36 C41 0.930 . S
H37 C44 0.930 . S
H38 C46 0.930 . S
H39 C40 1.016 . S
C40 H39 1.016 . S
C40 N47 1.286 1_556 S
C41 H36 0.930 . S
C41 C42 1.397 . S
C41 C43 1.361 . S
C42 C41 1.397 . S
C42 C46 1.390 . S
C43 C41 1.361 . S
C43 C44 1.393 1_554 S
C43 N47 1.413 . S
C44 H37 0.930 . S
C44 C43 1.393 1_556 S
C44 C45 1.399 . S
C45 C44 1.399 . S
C45 C46 1.381 1_556 S
C46 H38 0.930 . S
C46 C42 1.390 . S
C46 C45 1.381 1_554 S
N47 C40 1.286 1_554 S
N47 C43 1.413 . S
H48 C53 0.930 . S
H49 C56 0.930 . S
H50 C58 0.930 . S
H51 C52 1.016 . S
C52 H51 1.016 . S
C52 N59 1.286 . S
C53 H48 0.930 . S
C53 C54 1.397 . S
C53 C55 1.361 . S
C54 C53 1.397 . S
C54 C58 1.390 . S
C55 C53 1.361 . S
C55 C56 1.393 . S
C55 N59 1.413 . S
C56 H49 0.930 . S
C56 C55 1.393 . S
C56 C57 1.399 . S
C57 C56 1.399 . S
C57 C58 1.381 . S
C58 H50 0.930 . S
C58 C54 1.390 . S
C58 C57 1.381 . S
N59 C52 1.286 . S
N59 C55 1.413 . S
H60 C65 0.930 . S
H61 C68 0.930 . S
H62 C70 0.930 . S
H63 C64 1.016 . S
C64 H63 1.016 . S
C64 N71 1.286 . S
C65 H60 0.930 . S
C65 C66 1.397 . S
C65 C67 1.361 . S
C66 C65 1.397 . S
C66 C70 1.390 . S
C67 C65 1.361 . S
C67 C68 1.393 . S
C67 N71 1.413 . S
C68 H61 0.930 . S
C68 C67 1.393 . S
C68 C69 1.399 . S
C69 C68 1.399 . S
C69 C70 1.381 . S
C70 H62 0.930 . S
C70 C66 1.390 . S
C70 C69 1.381 . S
N71 C64 1.286 . S
N71 C67 1.413 . S
H72 C77 0.930 . S
H73 C80 0.930 . S
H74 C82 0.930 . S
H75 C76 1.029 . S
C76 H75 1.029 . S
C76 N83 1.271 1_565 S
C77 H72 0.930 . S
C77 C78 1.397 . S
C77 C79 1.361 . S
C78 C77 1.397 . S
C78 C82 1.390 1_545 S
C79 C77 1.361 . S
C79 C80 1.393 . S
C79 N83 1.413 . S
C80 H73 0.930 . S
C80 C79 1.393 . S
C80 C81 1.404 . S
C81 C80 1.404 . S
C81 C82 1.383 1_545 S
C82 H74 0.930 . S
C82 C78 1.390 1_565 S
C82 C81 1.383 1_565 S
N83 C76 1.271 1_545 S
N83 C79 1.413 . S
H84 C89 0.930 . S
H85 C92 0.930 . S
H86 C94 0.930 . S
H87 C88 1.016 . S
C88 H87 1.016 . S
C88 N95 1.286 . S
C89 H84 0.930 . S
C89 C90 1.397 . S
C89 C91 1.361 . S
C90 C89 1.397 . S
C90 C94 1.390 . S
C91 C89 1.361 . S
C91 C92 1.393 . S
C91 N95 1.413 . S
C92 H85 0.930 . S
C92 C91 1.393 . S
C92 C93 1.399 . S
C93 C92 1.399 . S
C93 C94 1.381 . S
C94 H86 0.930 . S
C94 C90 1.390 . S
C94 C93 1.381 . S
N95 C88 1.286 . S
N95 C91 1.413 . S
Tb96 C105 2.768 . S
Tb96 O106 2.325 . S
Tb96 O109 2.303 . S
Tb96 O113 2.322 1_445 S
Tb96 O114 2.349 1_455 S
Tb96 O117 2.415 . S
Tb96 O118 2.399 1_455 S
Tb97 O107 2.322 1_565 S
Tb97 O108 2.349 . S
Tb97 O110 2.415 . S
Tb97 O111 2.399 . S
Tb97 O112 2.325 . S
Tb97 O115 2.303 1_455 S
Tb97 C126 2.764 . S
C98 O114 1.261 . S
C98 O115 1.257 1_545 S
C99 C102 1.339 1_455 S
C99 C103 1.349 . S
C99 C105 1.502 . S
C100 C101 1.420 . S
C100 C104 1.259 1_655 S
C101 C100 1.420 . S
C101 C102 1.429 . S
C101 H128 0.932 . S
C102 C99 1.339 1_655 S
C102 C101 1.429 . S
C102 H129 0.930 . S
C103 C99 1.349 . S
C103 C104 1.394 . S
C103 H130 0.932 . S
C104 C100 1.259 1_455 S
C104 C103 1.394 . S
C104 H131 0.929 . S
C105 Tb96 2.768 . S
C105 C99 1.502 . S
C105 O117 1.289 . S
C105 O118 1.217 1_455 S
O106 Tb96 2.325 . S
O106 C116 1.236 . S
O107 Tb97 2.322 1_545 S
O107 C116 1.257 . S
O108 Tb97 2.349 . S
O108 C119 1.261 . S
O109 Tb96 2.303 . S
O109 C119 1.257 1_545 S
O110 Tb97 2.415 . S
O110 C126 1.239 . S
O111 Tb97 2.399 . S
O111 C126 1.263 . S
O112 Tb97 2.325 . S
O112 C127 1.236 . S
O113 Tb96 2.322 1_665 S
O113 C127 1.257 1_655 S
O114 Tb96 2.349 1_655 S
O114 C98 1.261 . S
O115 Tb97 2.303 1_655 S
O115 C98 1.257 1_565 S
C116 O106 1.236 . S
C116 O107 1.257 . S
O117 Tb96 2.415 . S
O117 C105 1.289 . S
O118 Tb96 2.399 1_655 S
O118 C105 1.217 1_655 S
C119 O108 1.261 . S
C119 O109 1.257 1_565 S
C120 C123 1.358 . S
C120 C124 1.332 . S
C120 C126 1.504 . S
C121 C122 1.373 1_554 S
C121 C125 1.308 1_554 S
C122 C121 1.373 1_556 S
C122 C123 1.429 . S
C122 H132 0.932 . S
C123 C120 1.358 . S
C123 C122 1.429 . S
C123 H133 0.930 . S
C124 C120 1.332 . S
C124 C125 1.394 . S
C124 H134 0.932 . S
C125 C121 1.308 1_556 S
C125 C124 1.394 . S
C125 H135 0.929 . S
C126 Tb97 2.764 . S
C126 O110 1.239 . S
C126 O111 1.263 . S
C126 C120 1.504 . S
C127 O112 1.236 . S
C127 O113 1.257 1_455 S
H128 C101 0.932 . S
H129 C102 0.930 . S
H130 C103 0.932 . S
H131 C104 0.929 . S
H132 C122 0.932 . S
H133 C123 0.930 . S
H134 C124 0.932 . S
H135 C125 0.929 . S
Tb136 C145 2.764 . S
Tb136 O146 2.325 . S
Tb136 O149 2.303 1_565 S
Tb136 O153 2.322 . S
Tb136 O154 2.349 . S
Tb136 O157 2.415 1_565 S
Tb136 O158 2.399 . S
Tb137 O147 2.322 . S
Tb137 O148 2.349 . S
Tb137 O150 2.415 1_545 S
Tb137 O151 2.399 . S
Tb137 O152 2.325 . S
Tb137 O155 2.303 1_545 S
Tb137 C166 2.764 . S
C138 O154 1.261 . S
C138 O155 1.257 . S
C139 C142 1.358 . S
C139 C143 1.332 1_565 S
C139 C145 1.504 . S
C140 C141 1.373 . S
C140 C144 1.308 1_565 S
C141 C140 1.373 . S
C141 C142 1.429 . S
C141 H168 0.932 . S
C142 C139 1.358 . S
C142 C141 1.429 . S
C142 H169 0.930 . S
C143 C139 1.332 1_545 S
C143 C144 1.394 . S
C143 H170 0.932 . S
C144 C140 1.308 1_545 S
C144 C143 1.394 . S
C144 H171 0.929 . S
C145 Tb136 2.764 . S
C145 C139 1.504 . S
C145 O157 1.239 1_565 S
C145 O158 1.263 . S
O146 Tb136 2.325 . S
O146 C156 1.236 1_565 S
O147 Tb137 2.322 . S
O147 C156 1.257 . S
O148 Tb137 2.349 . S
O148 C159 1.261 . S
O149 Tb136 2.303 1_545 S
O149 C159 1.257 . S
O150 Tb137 2.415 1_565 S
O150 C166 1.239 1_565 S
O151 Tb137 2.399 . S
O151 C166 1.263 . S
O152 Tb137 2.325 . S
O152 C167 1.236 1_545 S
O153 Tb136 2.322 . S
O153 C167 1.257 . S
O154 Tb136 2.349 . S
O154 C138 1.261 . S
O155 Tb137 2.303 1_565 S
O155 C138 1.257 . S
C156 O146 1.236 1_545 S
C156 O147 1.257 . S
O157 Tb136 2.415 1_545 S
O157 C145 1.239 1_545 S
O158 Tb136 2.399 . S
O158 C145 1.263 . S
C159 O148 1.261 . S
C159 O149 1.257 . S
C160 C163 1.358 1_556 S
C160 C164 1.332 1_545 S
C160 C166 1.504 . S
C161 C162 1.373 . S
C161 C165 1.308 1_545 S
C162 C161 1.373 . S
C162 C163 1.429 . S
C162 H172 0.932 . S
C163 C160 1.358 1_554 S
C163 C162 1.429 . S
C163 H173 0.930 . S
C164 C160 1.332 1_565 S
C164 C165 1.394 1_556 S
C164 H174 0.932 . S
C165 C161 1.308 1_565 S
C165 C164 1.394 1_554 S
C165 H175 0.929 . S
C166 Tb137 2.764 . S
C166 O150 1.239 1_545 S
C166 O151 1.263 . S
C166 C160 1.504 . S
C167 O152 1.236 1_565 S
C167 O153 1.257 . S
H168 C141 0.932 . S
H169 C142 0.930 . S
H170 C143 0.932 . S
H171 C144 0.929 . S
H172 C162 0.932 . S
H173 C163 0.930 . S
H174 C164 0.932 . S
H175 C165 0.929 . S
Tb176 C185 2.764 . S
Tb176 O186 2.325 . S
Tb176 O189 2.303 . S
Tb176 O193 2.322 . S
Tb176 O194 2.349 . S
Tb176 O197 2.415 . S
Tb176 O198 2.399 . S
Tb177 O187 2.322 . S
Tb177 O188 2.349 . S
Tb177 O190 2.415 . S
Tb177 O191 2.399 . S
Tb177 O192 2.325 . S
Tb177 O195 2.303 . S
Tb177 C206 2.764 . S
C178 O194 1.261 . S
C178 O195 1.257 . S
C179 C182 1.358 1_556 S
C179 C183 1.332 1_556 S
C179 C185 1.504 . S
C180 C181 1.373 . S
C180 C184 1.308 . S
C181 C180 1.373 . S
C181 C182 1.429 . S
C181 H208 0.932 . S
C182 C179 1.358 1_554 S
C182 C181 1.429 . S
C182 H209 0.930 1_554 S
C183 C179 1.332 1_554 S
C183 C184 1.394 . S
C183 H210 0.932 1_554 S
C184 C180 1.308 . S
C184 C183 1.394 . S
C184 H211 0.929 . S
C185 Tb176 2.764 . S
C185 C179 1.504 . S
C185 O197 1.239 . S
C185 O198 1.263 . S
O186 Tb176 2.325 . S
O186 C196 1.236 . S
O187 Tb177 2.322 . S
O187 C196 1.257 . S
O188 Tb177 2.349 . S
O188 C199 1.261 . S
O189 Tb176 2.303 . S
O189 C199 1.257 . S
O190 Tb177 2.415 . S
O190 C206 1.239 . S
O191 Tb177 2.399 . S
O191 C206 1.263 . S
O192 Tb177 2.325 . S
O192 C207 1.236 . S
O193 Tb176 2.322 . S
O193 C207 1.257 . S
O194 Tb176 2.349 . S
O194 C178 1.261 . S
O195 Tb177 2.303 . S
O195 C178 1.257 . S
C196 O186 1.236 . S
C196 O187 1.257 . S
O197 Tb176 2.415 . S
O197 C185 1.239 . S
O198 Tb176 2.399 . S
O198 C185 1.263 . S
C199 O188 1.261 . S
C199 O189 1.257 . S
C200 C203 1.358 . S
C200 C204 1.332 . S
C200 C206 1.504 . S
C201 C202 1.373 . S
C201 C205 1.308 . S
C202 C201 1.373 . S
C202 C203 1.429 . S
C202 H212 0.932 . S
C203 C200 1.358 . S
C203 C202 1.429 . S
C203 H213 0.930 . S
C204 C200 1.332 . S
C204 C205 1.394 . S
C204 H214 0.932 . S
C205 C201 1.308 . S
C205 C204 1.394 . S
C205 H215 0.929 . S
C206 Tb177 2.764 . S
C206 O190 1.239 . S
C206 O191 1.263 . S
C206 C200 1.504 . S
C207 O192 1.236 . S
C207 O193 1.257 . S
H208 C181 0.932 . S
H209 C182 0.930 1_556 S
H210 C183 0.932 1_556 S
H211 C184 0.929 . S
H212 C202 0.932 . S
H213 C203 0.930 . S
H214 C204 0.932 . S
H215 C205 0.929 . S
Tb216 C225 2.764 . S
Tb216 O226 2.325 . S
Tb216 O229 2.303 . S
Tb216 O233 2.322 1_455 S
Tb216 O234 2.349 . S
Tb216 O237 2.415 . S
Tb216 O238 2.399 . S
Tb217 O227 2.322 . S
Tb217 O228 2.349 . S
Tb217 O230 2.415 1_455 S
Tb217 O231 2.399 1_455 S
Tb217 O232 2.325 1_455 S
Tb217 O235 2.303 . S
Tb217 C246 2.764 1_455 S
C218 O234 1.261 . S
C218 O235 1.257 . S
C219 C222 1.358 . S
C219 C223 1.332 . S
C219 C225 1.504 . S
C220 C221 1.373 . S
C220 C224 1.308 . S
C221 C220 1.373 . S
C221 C222 1.429 . S
C221 H248 0.932 . S
C222 C219 1.358 . S
C222 C221 1.429 . S
C222 H249 0.930 . S
C223 C219 1.332 . S
C223 C224 1.394 . S
C223 H250 0.932 . S
C224 C220 1.308 . S
C224 C223 1.394 . S
C224 H251 0.929 . S
C225 Tb216 2.764 . S
C225 C219 1.504 . S
C225 O237 1.239 . S
C225 O238 1.263 . S
O226 Tb216 2.325 . S
O226 C236 1.236 . S
O227 Tb217 2.322 . S
O227 C236 1.257 . S
O228 Tb217 2.349 . S
O228 C239 1.261 . S
O229 Tb216 2.303 . S
O229 C239 1.257 . S
O230 Tb217 2.415 1_655 S
O230 C246 1.239 . S
O231 Tb217 2.399 1_655 S
O231 C246 1.263 . S
O232 Tb217 2.325 1_655 S
O232 C247 1.236 . S
O233 Tb216 2.322 1_655 S
O233 C247 1.257 . S
O234 Tb216 2.349 . S
O234 C218 1.261 . S
O235 Tb217 2.303 . S
O235 C218 1.257 . S
C236 O226 1.236 . S
C236 O227 1.257 . S
O237 Tb216 2.415 . S
O237 C225 1.239 . S
O238 Tb216 2.399 . S
O238 C225 1.263 . S
C239 O228 1.261 . S
C239 O229 1.257 . S
C240 C243 1.358 . S
C240 C244 1.332 . S
C240 C246 1.504 . S
C241 C242 1.373 . S
C241 C245 1.308 . S
C242 C241 1.373 . S
C242 C243 1.429 1_554 S
C242 H252 0.932 . S
C243 C240 1.358 . S
C243 C242 1.429 1_556 S
C243 H253 0.930 . S
C244 C240 1.332 . S
C244 C245 1.394 1_556 S
C244 H254 0.932 . S
C245 C241 1.308 . S
C245 C244 1.394 1_554 S
C245 H255 0.929 . S
C246 Tb217 2.764 1_655 S
C246 O230 1.239 . S
C246 O231 1.263 . S
C246 C240 1.504 . S
C247 O232 1.236 . S
C247 O233 1.257 . S
H248 C221 0.932 . S
H249 C222 0.930 . S
H250 C223 0.932 . S
H251 C224 0.929 . S
H252 C242 0.932 . S
H253 C243 0.930 . S
H254 C244 0.932 . S
H255 C245 0.929 . S
C256 C257 1.341 1_565 S
C256 C258 1.327 . S
C256 H281 0.950 . S
C257 C256 1.341 1_545 S
C257 C273 1.356 . S
C258 C256 1.327 . S
C258 C277 1.405 1_565 S
C258 H282 0.950 . S
C259 C276 1.574 . S
C259 C278 1.405 . S
C259 H283 0.949 . S
H260 C264 0.949 . S
C261 C262 1.349 . S
C261 C263 1.327 . S
C261 H284 0.950 . S
C262 C261 1.349 . S
C262 C274 1.349 1_545 S
C263 C261 1.327 . S
C263 C279 1.429 . S
C263 H285 0.950 . S
C264 H260 0.949 . S
C264 C272 1.574 . S
C264 C280 1.368 1_565 S
H265 C273 0.950 . S
H266 C271 0.950 . S
H267 C272 0.949 . S
H268 C274 0.950 . S
H269 C275 0.950 . S
H270 C276 0.949 . S
C271 H266 0.950 . S
C271 C273 1.327 . S
C271 C277 1.455 . S
C272 C264 1.574 . S
C272 H267 0.949 . S
C272 C278 1.329 1_565 S
C273 C257 1.356 . S
C273 H265 0.950 . S
C273 C271 1.327 . S
C274 C262 1.349 1_565 S
C274 H268 0.950 . S
C274 C275 1.327 . S
C275 H269 0.950 . S
C275 C274 1.327 . S
C275 C279 1.429 1_565 S
C276 C259 1.574 . S
C276 H270 0.949 . S
C276 C280 1.368 . S
C277 C258 1.405 1_545 S
C277 C271 1.455 . S
C277 C278 1.524 . S
C278 C259 1.405 . S
C278 C272 1.329 1_545 S
C278 C277 1.524 . S
C279 C263 1.429 . S
C279 C275 1.429 1_545 S
C279 C280 1.523 . S
C280 C264 1.368 1_545 S
C280 C276 1.368 . S
C280 C279 1.523 . S
H281 C256 0.950 . S
H282 C258 0.950 . S
H283 C259 0.949 . S
H284 C261 0.950 . S
H285 C263 0.950 . S
C286 C287 1.349 . S
C286 C288 1.327 . S
C286 H311 0.950 . S
C287 C286 1.349 . S
C287 C303 1.349 . S
C288 C286 1.327 . S
C288 C307 1.429 . S
C288 H312 0.950 . S
C289 C306 1.574 . S
C289 C308 1.368 . S
C289 H313 0.949 . S
H290 C294 0.949 . S
C291 C292 1.349 . S
C291 C293 1.327 . S
C291 H314 0.950 . S
C292 C291 1.349 . S
C292 C304 1.349 . S
C293 C291 1.327 . S
C293 C309 1.429 . S
C293 H315 0.950 . S
C294 H290 0.949 . S
C294 C302 1.574 . S
C294 C310 1.368 . S
H295 C303 0.950 . S
H296 C301 0.950 . S
H297 C302 0.949 . S
H298 C304 0.950 . S
H299 C305 0.950 . S
H300 C306 0.949 . S
C301 H296 0.950 . S
C301 C303 1.327 . S
C301 C307 1.429 . S
C302 C294 1.574 . S
C302 H297 0.949 . S
C302 C308 1.368 . S
C303 C287 1.349 . S
C303 H295 0.950 . S
C303 C301 1.327 . S
C304 C292 1.349 . S
C304 H298 0.950 . S
C304 C305 1.327 . S
C305 H299 0.950 . S
C305 C304 1.327 . S
C305 C309 1.429 . S
C306 C289 1.574 . S
C306 H300 0.949 . S
C306 C310 1.368 . S
C307 C288 1.429 . S
C307 C301 1.429 . S
C307 C308 1.523 . S
C308 C289 1.368 . S
C308 C302 1.368 . S
C308 C307 1.523 . S
C309 C293 1.429 . S
C309 C305 1.429 . S
C309 C310 1.523 . S
C310 C294 1.368 . S
C310 C306 1.368 . S
C310 C309 1.523 . S
H311 C286 0.950 . S
H312 C288 0.950 . S
H313 C289 0.949 . S
H314 C291 0.950 . S
H315 C293 0.950 . S
C316 C317 1.349 . S
C316 C318 1.327 . S
C316 H341 0.950 . S
C317 C316 1.349 . S
C317 C333 1.349 . S
C318 C316 1.327 . S
C318 C337 1.429 . S
C318 H342 0.950 . S
C319 C336 1.574 . S
C319 C338 1.368 . S
C319 H343 0.949 . S
H320 C324 0.949 . S
C321 C322 1.349 . S
C321 C323 1.327 . S
C321 H344 0.950 . S
C322 C321 1.349 . S
C322 C334 1.349 . S
C323 C321 1.327 . S
C323 C339 1.429 . S
C323 H345 0.950 . S
C324 H320 0.949 . S
C324 C332 1.574 . S
C324 C340 1.368 . S
H325 C333 0.950 . S
H326 C331 0.950 . S
H327 C332 0.949 . S
H328 C334 0.950 . S
H329 C335 0.950 . S
H330 C336 0.949 . S
C331 H326 0.950 . S
C331 C333 1.327 . S
C331 C337 1.429 . S
C332 C324 1.574 . S
C332 H327 0.949 . S
C332 C338 1.368 . S
C333 C317 1.349 . S
C333 H325 0.950 . S
C333 C331 1.327 . S
C334 C322 1.349 . S
C334 H328 0.950 . S
C334 C335 1.327 . S
C335 H329 0.950 . S
C335 C334 1.327 . S
C335 C339 1.429 . S
C336 C319 1.574 . S
C336 H330 0.949 . S
C336 C340 1.368 . S
C337 C318 1.429 . S
C337 C331 1.429 . S
C337 C338 1.523 . S
C338 C319 1.368 . S
C338 C332 1.368 . S
C338 C337 1.523 . S
C339 C323 1.429 . S
C339 C335 1.429 . S
C339 C340 1.523 . S
C340 C324 1.368 . S
C340 C336 1.368 . S
C340 C339 1.523 . S
H341 C316 0.950 . S
H342 C318 0.950 . S
H343 C319 0.949 . S
H344 C321 0.950 . S
H345 C323 0.950 . S
C346 C347 1.349 . S
C346 C348 1.327 . S
C346 H371 0.950 . S
C347 C346 1.349 . S
C347 C363 1.349 . S
C348 C346 1.327 . S
C348 C367 1.429 . S
C348 H372 0.950 . S
C349 C366 1.574 . S
C349 C368 1.368 . S
C349 H373 0.949 . S
H350 C354 0.949 . S
C351 C352 1.349 . S
C351 C353 1.327 . S
C351 H374 0.950 . S
C352 C351 1.349 . S
C352 C364 1.349 . S
C353 C351 1.327 . S
C353 C369 1.429 . S
C353 H375 0.950 . S
C354 H350 0.949 . S
C354 C362 1.574 . S
C354 C370 1.368 . S
H355 C363 0.950 . S
H356 C361 0.950 . S
H357 C362 0.949 . S
H358 C364 0.950 . S
H359 C365 0.950 . S
H360 C366 0.949 . S
C361 H356 0.950 . S
C361 C363 1.327 . S
C361 C367 1.429 . S
C362 C354 1.574 . S
C362 H357 0.949 . S
C362 C368 1.368 . S
C363 C347 1.349 . S
C363 H355 0.950 . S
C363 C361 1.327 . S
C364 C352 1.349 . S
C364 H358 0.950 . S
C364 C365 1.327 . S
C365 H359 0.950 . S
C365 C364 1.327 . S
C365 C369 1.429 . S
C366 C349 1.574 . S
C366 H360 0.949 . S
C366 C370 1.368 . S
C367 C348 1.429 . S
C367 C361 1.429 . S
C367 C368 1.523 . S
C368 C349 1.368 . S
C368 C362 1.368 . S
C368 C367 1.523 . S
C369 C353 1.429 . S
C369 C365 1.429 . S
C369 C370 1.523 . S
C370 C354 1.368 . S
C370 C366 1.368 . S
C370 C369 1.523 . S
H371 C346 0.950 . S
H372 C348 0.950 . S
H373 C349 0.949 . S
H374 C351 0.950 . S
H375 C353 0.950 . S
C376 C377 1.351 1_545 S
C376 C378 1.327 . S
C376 H401 0.950 . S
C377 C376 1.351 1_565 S
C377 C393 1.347 . S
C378 C376 1.327 . S
C378 C397 1.418 1_545 S
C378 H402 0.950 . S
C379 C396 1.574 . S
C379 C398 1.388 . S
C379 H403 0.949 . S
H380 C384 0.949 . S
C381 C382 1.349 . S
C381 C383 1.327 . S
C381 H404 0.950 . S
C382 C381 1.349 . S
C382 C394 1.349 1_565 S
C383 C381 1.327 . S
C383 C399 1.429 . S
C383 H405 0.950 . S
C384 H380 0.949 . S
C384 C392 1.574 . S
C384 C400 1.336 1_545 S
H385 C393 0.950 . S
H386 C391 0.950 . S
H387 C392 0.949 . S
H388 C394 0.950 . S
H389 C395 0.950 . S
H390 C396 0.949 1_556 S
C391 H386 0.950 . S
C391 C393 1.327 . S
C391 C397 1.441 . S
C392 C384 1.574 . S
C392 H387 0.949 . S
C392 C398 1.347 1_545 S
C393 C377 1.347 . S
C393 H385 0.950 . S
C393 C391 1.327 . S
C394 C382 1.349 1_545 S
C394 H388 0.950 . S
C394 C395 1.327 1_556 S
C395 H389 0.950 . S
C395 C394 1.327 1_554 S
C395 C399 1.429 1_544 S
C396 C379 1.574 . S
C396 H390 0.949 1_554 S
C396 C400 1.406 . S
C397 C378 1.418 1_565 S
C397 C391 1.441 . S
C397 C398 1.524 . S
C398 C379 1.388 . S
C398 C392 1.347 1_565 S
C398 C397 1.524 . S
C399 C383 1.429 . S
C399 C395 1.429 1_566 S
C399 C400 1.519 1_556 S
C400 C384 1.336 1_565 S
C400 C396 1.406 . S
C400 C399 1.519 1_554 S
H401 C376 0.950 . S
H402 C378 0.950 . S
H403 C379 0.949 . S
H404 C381 0.950 . S
H405 C383 0.950 . S
C406 C407 1.349 . S
C406 C408 1.327 . S
C406 H431 0.950 1_556 S
C407 C406 1.349 . S
C407 C423 1.349 . S
C408 C406 1.327 . S
C408 C427 1.429 . S
C408 H432 0.950 1_556 S
C409 C426 1.574 . S
C409 C428 1.368 . S
C409 H433 0.949 . S
H410 C414 0.949 . S
C411 C412 1.349 . S
C411 C413 1.327 . S
C411 H434 0.950 . S
C412 C411 1.349 . S
C412 C424 1.349 . S
C413 C411 1.327 . S
C413 C429 1.429 . S
C413 H435 0.950 . S
C414 H410 0.949 . S
C414 C422 1.574 . S
C414 C430 1.368 . S
H415 C423 0.950 . S
H416 C421 0.950 . S
H417 C422 0.949 . S
H418 C424 0.950 . S
H419 C425 0.950 . S
H420 C426 0.949 . S
C421 H416 0.950 . S
C421 C423 1.327 . S
C421 C427 1.429 . S
C422 C414 1.574 . S
C422 H417 0.949 . S
C422 C428 1.368 . S
C423 C407 1.349 . S
C423 H415 0.950 . S
C423 C421 1.327 . S
C424 C412 1.349 . S
C424 H418 0.950 . S
C424 C425 1.327 . S
C425 H419 0.950 . S
C425 C424 1.327 . S
C425 C429 1.429 . S
C426 C409 1.574 . S
C426 H420 0.949 . S
C426 C430 1.368 . S
C427 C408 1.429 . S
C427 C421 1.429 . S
C427 C428 1.523 . S
C428 C409 1.368 . S
C428 C422 1.368 . S
C428 C427 1.523 . S
C429 C413 1.429 . S
C429 C425 1.429 . S
C429 C430 1.523 . S
C430 C414 1.368 . S
C430 C426 1.368 . S
C430 C429 1.523 . S
H431 C406 0.950 1_554 S
H432 C408 0.950 1_554 S
H433 C409 0.949 . S
H434 C411 0.950 . S
H435 C413 0.950 . S
C436 C437 1.349 . S
C436 C438 1.327 . S
C436 H461 0.950 . S
C437 C436 1.349 . S
C437 C453 1.349 . S
C438 C436 1.327 . S
C438 C457 1.429 . S
C438 H462 0.950 . S
C439 C456 1.574 . S
C439 C458 1.368 . S
C439 H463 0.949 . S
H440 C444 0.949 . S
C441 C442 1.349 . S
C441 C443 1.327 . S
C441 H464 0.950 . S
C442 C441 1.349 . S
C442 C454 1.349 . S
C443 C441 1.327 . S
C443 C459 1.428 1_556 S
C443 H465 0.950 1_556 S
C444 H440 0.949 . S
C444 C452 1.574 . S
C444 C460 1.368 . S
H445 C453 0.950 . S
H446 C451 0.950 . S
H447 C452 0.949 . S
H448 C454 0.950 . S
H449 C455 0.950 . S
H450 C456 0.949 . S
C451 H446 0.950 . S
C451 C453 1.327 . S
C451 C457 1.429 . S
C452 C444 1.574 . S
C452 H447 0.949 . S
C452 C458 1.368 . S
C453 C437 1.349 . S
C453 H445 0.950 . S
C453 C451 1.327 . S
C454 C442 1.349 . S
C454 H448 0.950 . S
C454 C455 1.327 . S
C455 H449 0.950 . S
C455 C454 1.327 . S
C455 C459 1.427 1_556 S
C456 C439 1.574 . S
C456 H450 0.949 . S
C456 C460 1.368 . S
C457 C438 1.429 . S
C457 C451 1.429 . S
C457 C458 1.523 . S
C458 C439 1.368 . S
C458 C452 1.368 . S
C458 C457 1.523 . S
C459 C443 1.428 1_554 S
C459 C455 1.427 1_554 S
C459 C460 1.525 . S
C460 C444 1.368 . S
C460 C456 1.368 . S
C460 C459 1.525 . S
H461 C436 0.950 . S
H462 C438 0.950 . S
H463 C439 0.949 . S
H464 C441 0.950 . S
H465 C443 0.950 1_554 S
C466 C467 1.349 . S
C466 C468 1.327 . S
C466 H491 0.950 . S
C467 C466 1.349 . S
C467 C483 1.349 1_655 S
C468 C466 1.327 . S
C468 C487 1.429 . S
C468 H492 0.950 . S
C469 C486 1.574 . S
C469 C488 1.397 . S
C469 H493 0.949 . S
H470 C474 0.949 . S
C471 C472 1.349 . S
C471 C473 1.327 . S
C471 H494 0.950 . S
C472 C471 1.349 . S
C472 C484 1.349 1_455 S
C473 C471 1.327 . S
C473 C489 1.429 . S
C473 H495 0.950 . S
C474 H470 0.949 . S
C474 C482 1.574 . S
C474 C490 1.368 1_655 S
H475 C483 0.950 . S
H476 C481 0.950 . S
H477 C482 0.949 . S
H478 C484 0.950 . S
H479 C485 0.950 1_554 S
H480 C486 0.949 1_556 S
C481 H476 0.950 . S
C481 C483 1.327 . S
C481 C487 1.429 1_455 S
C482 C474 1.574 . S
C482 H477 0.949 . S
C482 C488 1.344 1_655 S
C483 C467 1.349 1_455 S
C483 H475 0.950 . S
C483 C481 1.327 . S
C484 C472 1.349 1_655 S
C484 H478 0.950 . S
C484 C485 1.327 . S
C485 H479 0.950 1_556 S
C485 C484 1.327 . S
C485 C489 1.429 1_655 S
C486 C469 1.574 . S
C486 H480 0.949 1_554 S
C486 C490 1.368 . S
C487 C468 1.429 . S
C487 C481 1.429 1_655 S
C487 C488 1.519 1_655 S
C488 C469 1.397 . S
C488 C482 1.344 1_455 S
C488 C487 1.519 1_455 S
C489 C473 1.429 . S
C489 C485 1.429 1_455 S
C489 C490 1.523 1_556 S
C490 C474 1.368 1_455 S
C490 C486 1.368 . S
C490 C489 1.523 1_554 S
H491 C466 0.950 . S
H492 C468 0.950 . S
H493 C469 0.949 . S
H494 C471 0.950 . S
H495 C473 0.950 . S
C496 C497 1.349 . S
C496 C498 1.327 . S
C496 H521 0.950 . S
C497 C496 1.349 . S
C497 C513 1.349 . S
C498 C496 1.327 . S
C498 C517 1.429 . S
C498 H522 0.950 . S
C499 C516 1.574 . S
C499 C518 1.368 . S
C499 H523 0.949 . S
H500 C504 0.947 . S
C501 C502 1.349 1_455 S
C501 C503 1.327 . S
C501 H524 0.950 . S
C502 C501 1.349 1_655 S
C502 C514 1.349 . S
C503 C501 1.327 . S
C503 C519 1.429 . S
C503 H525 0.950 . S
C504 H500 0.947 . S
C504 C512 1.574 . S
C504 C520 1.368 . S
H505 C513 0.950 . S
H506 C511 0.950 . S
H507 C512 0.949 . S
H508 C514 0.950 . S
H509 C515 0.950 . S
H510 C516 0.949 . S
C511 H506 0.950 . S
C511 C513 1.327 . S
C511 C517 1.429 . S
C512 C504 1.574 . S
C512 H507 0.949 . S
C512 C518 1.368 . S
C513 C497 1.349 . S
C513 H505 0.950 . S
C513 C511 1.327 . S
C514 C502 1.349 . S
C514 H508 0.950 . S
C514 C515 1.327 . S
C515 H509 0.950 . S
C515 C514 1.327 . S
C515 C519 1.429 1_655 S
C516 C499 1.574 . S
C516 H510 0.949 . S
C516 C520 1.368 . S
C517 C498 1.429 . S
C517 C511 1.429 . S
C517 C518 1.523 . S
C518 C499 1.368 . S
C518 C512 1.368 . S
C518 C517 1.523 . S
C519 C503 1.429 . S
C519 C515 1.429 1_455 S
C519 C520 1.523 . S
C520 C504 1.368 . S
C520 C516 1.368 . S
C520 C519 1.523 . S
H521 C496 0.950 . S
H522 C498 0.950 . S
H523 C499 0.949 . S
H524 C501 0.950 . S
H525 C503 0.950 . S
C526 C527 1.349 1_565 S
C526 C528 1.327 . S
C526 H551 0.950 . S
C527 C526 1.349 1_545 S
C527 C543 1.349 . S
C528 C526 1.327 . S
C528 C547 1.429 . S
C528 H552 0.950 . S
C529 C546 1.573 1_545 S
C529 C548 1.368 1_545 S
C529 H553 0.950 . S
H530 C534 0.949 . S
C531 C532 1.349 . S
C531 C533 1.327 . S
C531 H554 0.950 . S
C532 C531 1.349 . S
C532 C544 1.349 . S
C533 C531 1.327 . S
C533 C549 1.429 . S
C533 H555 0.950 . S
C534 H530 0.949 . S
C534 C542 1.574 . S
C534 C550 1.368 . S
H535 C543 0.950 . S
H536 C541 0.950 . S
H537 C542 0.949 . S
H538 C544 0.950 . S
H539 C545 0.950 . S
H540 C546 0.949 1_545 S
C541 H536 0.950 . S
C541 C543 1.327 . S
C541 C547 1.429 1_545 S
C542 C534 1.574 . S
C542 H537 0.949 . S
C542 C548 1.368 . S
C543 C527 1.349 . S
C543 H535 0.950 . S
C543 C541 1.327 . S
C544 C532 1.349 . S
C544 H538 0.950 . S
C544 C545 1.327 . S
C545 H539 0.950 . S
C545 C544 1.327 . S
C545 C549 1.429 . S
C546 C529 1.573 1_565 S
C546 H540 0.949 1_565 S
C546 C550 1.368 . S
C547 C528 1.429 . S
C547 C541 1.429 1_565 S
C547 C548 1.523 . S
C548 C529 1.368 1_565 S
C548 C542 1.368 . S
C548 C547 1.523 . S
C549 C533 1.429 . S
C549 C545 1.429 . S
C549 C550 1.523 . S
C550 C534 1.368 . S
C550 C546 1.368 . S
C550 C549 1.523 . S
H551 C526 0.950 . S
H552 C528 0.950 . S
H553 C529 0.950 . S
H554 C531 0.950 . S
H555 C533 0.950 . S
C556 C557 1.349 . S
C556 C558 1.327 . S
C556 H581 0.950 . S
C557 C556 1.349 . S
C557 C573 1.349 . S
C558 C556 1.327 . S
C558 C577 1.429 . S
C558 H582 0.950 . S
C559 C576 1.574 . S
C559 C578 1.368 . S
C559 H583 0.949 . S
H560 C564 0.949 . S
C561 C562 1.349 . S
C561 C563 1.327 . S
C561 H584 0.950 . S
C562 C561 1.349 . S
C562 C574 1.349 . S
C563 C561 1.327 . S
C563 C579 1.429 . S
C563 H585 0.950 . S
C564 H560 0.949 . S
C564 C572 1.574 . S
C564 C580 1.368 . S
H565 C573 0.950 . S
H566 C571 0.950 . S
H567 C572 0.949 . S
H568 C574 0.950 . S
H569 C575 0.950 . S
H570 C576 0.949 . S
C571 H566 0.950 . S
C571 C573 1.327 . S
C571 C577 1.429 . S
C572 C564 1.574 . S
C572 H567 0.949 . S
C572 C578 1.368 . S
C573 C557 1.349 . S
C573 H565 0.950 . S
C573 C571 1.327 . S
C574 C562 1.349 . S
C574 H568 0.950 . S
C574 C575 1.327 . S
C575 H569 0.950 . S
C575 C574 1.327 . S
C575 C579 1.429 . S
C576 C559 1.574 . S
C576 H570 0.949 . S
C576 C580 1.368 . S
C577 C558 1.429 . S
C577 C571 1.429 . S
C577 C578 1.523 . S
C578 C559 1.368 . S
C578 C572 1.368 . S
C578 C577 1.523 . S
C579 C563 1.429 . S
C579 C575 1.429 . S
C579 C580 1.523 . S
C580 C564 1.368 . S
C580 C576 1.368 . S
C580 C579 1.523 . S
H581 C556 0.950 . S
H582 C558 0.950 . S
H583 C559 0.949 . S
H584 C561 0.950 . S
H585 C563 0.950 . S
C586 C587 1.349 . S
C586 C588 1.327 . S
C586 H611 0.950 . S
C587 C586 1.349 . S
C587 C603 1.349 . S
C588 C586 1.327 . S
C588 C607 1.429 . S
C588 H612 0.950 . S
C589 C606 1.574 . S
C589 C608 1.368 . S
C589 H613 0.949 . S
H590 C594 0.949 . S
C591 C592 1.349 . S
C591 C593 1.327 . S
C591 H614 0.950 . S
C592 C591 1.349 . S
C592 C604 1.349 . S
C593 C591 1.327 . S
C593 C609 1.429 . S
C593 H615 0.950 . S
C594 H590 0.949 . S
C594 C602 1.574 . S
C594 C610 1.368 . S
H595 C603 0.950 . S
H596 C601 0.950 . S
H597 C602 0.949 . S
H598 C604 0.950 . S
H599 C605 0.950 . S
H600 C606 0.949 . S
C601 H596 0.950 . S
C601 C603 1.327 . S
C601 C607 1.429 . S
C602 C594 1.574 . S
C602 H597 0.949 . S
C602 C608 1.368 . S
C603 C587 1.349 . S
C603 H595 0.950 . S
C603 C601 1.327 . S
C604 C592 1.349 . S
C604 H598 0.950 . S
C604 C605 1.327 . S
C605 H599 0.950 . S
C605 C604 1.327 . S
C605 C609 1.429 . S
C606 C589 1.574 . S
C606 H600 0.949 . S
C606 C610 1.368 . S
C607 C588 1.429 . S
C607 C601 1.429 . S
C607 C608 1.523 . S
C608 C589 1.368 . S
C608 C602 1.368 . S
C608 C607 1.523 . S
C609 C593 1.429 . S
C609 C605 1.429 . S
C609 C610 1.523 . S
C610 C594 1.368 . S
C610 C606 1.368 . S
C610 C609 1.523 . S
H611 C586 0.950 . S
H612 C588 0.950 . S
H613 C589 0.949 . S
H614 C591 0.950 . S
H615 C593 0.950 . S
C616 C617 1.349 1_455 S
C616 C618 1.327 . S
C616 H641 0.950 . S
C617 C616 1.349 1_655 S
C617 C633 1.349 . S
C618 C616 1.327 . S
C618 C637 1.429 . S
C618 H642 0.950 . S
C619 C636 1.575 1_655 S
C619 C638 1.371 1_655 S
C619 H643 0.945 . S
H620 C624 0.949 . S
C621 C622 1.349 1_556 S
C621 C623 1.327 1_556 S
C621 H644 0.950 . S
C622 C621 1.349 1_554 S
C622 C634 1.349 . S
C623 C621 1.327 1_554 S
C623 C639 1.429 . S
C623 H645 0.950 1_554 S
C624 H620 0.949 . S
C624 C632 1.574 . S
C624 C640 1.368 . S
H625 C633 0.950 . S
H626 C631 0.950 . S
H627 C632 0.949 . S
H628 C634 0.950 . S
H629 C635 0.950 . S
H630 C636 0.968 . S
C631 H626 0.950 . S
C631 C633 1.327 . S
C631 C637 1.429 1_655 S
C632 C624 1.574 . S
C632 H627 0.949 . S
C632 C638 1.368 . S
C633 C617 1.349 . S
C633 H625 0.950 . S
C633 C631 1.327 . S
C634 C622 1.349 . S
C634 H628 0.950 . S
C634 C635 1.327 . S
C635 H629 0.950 . S
C635 C634 1.327 . S
C635 C639 1.429 . S
C636 C619 1.575 1_455 S
C636 H630 0.968 . S
C636 C640 1.368 . S
C637 C618 1.429 . S
C637 C631 1.429 1_455 S
C637 C638 1.523 . S
C638 C619 1.371 1_455 S
C638 C632 1.368 . S
C638 C637 1.523 . S
C639 C623 1.429 . S
C639 C635 1.429 . S
C639 C640 1.523 . S
C640 C624 1.368 . S
C640 C636 1.368 . S
C640 C639 1.523 . S
H641 C616 0.950 . S
H642 C618 0.950 . S
H643 C619 0.945 . S
H644 C621 0.950 . S
H645 C623 0.950 1_556 S
C646 C647 1.386 . S
C646 C648 1.327 . S
C646 H671 0.950 . S
C647 C646 1.386 . S
C647 C663 1.301 1_565 S
C648 C646 1.327 . S
C648 C667 1.429 1_565 S
C648 H672 0.950 . S
C649 C666 1.574 . S
C649 C668 1.368 . S
C649 H673 0.949 . S
H650 C654 0.949 . S
C651 C652 1.349 . S
C651 C653 1.327 . S
C651 H674 0.950 . S
C652 C651 1.349 . S
C652 C664 1.349 . S
C653 C651 1.327 . S
C653 C669 1.429 . S
C653 H675 0.950 . S
C654 H650 0.949 . S
C654 C662 1.574 . S
C654 C670 1.368 1_565 S
H655 C663 0.950 . S
H656 C661 0.950 . S
H657 C662 0.949 . S
H658 C664 0.950 1_565 S
H659 C665 0.945 . S
H660 C666 0.949 . S
C661 H656 0.950 . S
C661 C663 1.327 . S
C661 C667 1.429 . S
C662 C654 1.574 . S
C662 H657 0.949 . S
C662 C668 1.368 1_565 S
C663 C647 1.301 1_545 S
C663 H655 0.950 . S
C663 C661 1.327 . S
C664 C652 1.349 . S
C664 H658 0.950 1_545 S
C664 C665 1.328 1_545 S
C665 H659 0.945 . S
C665 C664 1.328 1_565 S
C665 C669 1.432 1_565 S
C666 C649 1.574 . S
C666 H660 0.949 . S
C666 C670 1.368 . S
C667 C648 1.429 1_545 S
C667 C661 1.429 . S
C667 C668 1.523 . S
C668 C649 1.368 . S
C668 C662 1.368 1_545 S
C668 C667 1.523 . S
C669 C653 1.429 . S
C669 C665 1.432 1_545 S
C669 C670 1.523 . S
C670 C654 1.368 1_545 S
C670 C666 1.368 . S
C670 C669 1.523 . S
H671 C646 0.950 . S
H672 C648 0.950 . S
H673 C649 0.949 . S
H674 C651 0.950 . S
H675 C653 0.950 . S
C676 C677 1.349 . S
C676 C678 1.327 . S
C676 H701 0.950 . S
C677 C676 1.349 . S
C677 C693 1.349 . S
C678 C676 1.327 . S
C678 C697 1.429 . S
C678 H702 0.950 . S
C679 C696 1.574 . S
C679 C698 1.368 . S
C679 H703 0.949 . S
H680 C684 0.949 . S
C681 C682 1.349 . S
C681 C683 1.327 . S
C681 H704 0.950 . S
C682 C681 1.349 . S
C682 C694 1.349 . S
C683 C681 1.327 . S
C683 C699 1.429 . S
C683 H705 0.950 . S
C684 H680 0.949 . S
C684 C692 1.574 . S
C684 C700 1.368 . S
H685 C693 0.950 1_554 S
H686 C691 0.950 . S
H687 C692 0.949 . S
H688 C694 0.950 . S
H689 C695 0.950 . S
H690 C696 0.949 . S
C691 H686 0.950 . S
C691 C693 1.327 . S
C691 C697 1.429 . S
C692 C684 1.574 . S
C692 H687 0.949 . S
C692 C698 1.368 . S
C693 C677 1.349 . S
C693 H685 0.950 1_556 S
C693 C691 1.327 . S
C694 C682 1.349 . S
C694 H688 0.950 . S
C694 C695 1.327 . S
C695 H689 0.950 . S
C695 C694 1.327 . S
C695 C699 1.429 . S
C696 C679 1.574 . S
C696 H690 0.949 . S
C696 C700 1.368 . S
C697 C678 1.429 . S
C697 C691 1.429 . S
C697 C698 1.523 . S
C698 C679 1.368 . S
C698 C692 1.368 . S
C698 C697 1.523 . S
C699 C683 1.429 . S
C699 C695 1.429 . S
C699 C700 1.523 . S
C700 C684 1.368 . S
C700 C696 1.368 . S
C700 C699 1.523 . S
H701 C676 0.950 . S
H702 C678 0.950 . S
H703 C679 0.949 . S
H704 C681 0.950 . S
H705 C683 0.950 . S
C706 C707 1.349 . S
C706 C708 1.327 . S
C706 H731 0.950 . S
C707 C706 1.349 . S
C707 C723 1.349 . S
C708 C706 1.327 . S
C708 C727 1.429 . S
C708 H732 0.950 . S
C709 C726 1.574 . S
C709 C728 1.368 . S
C709 H733 0.949 . S
H710 C714 0.949 . S
C711 C712 1.349 . S
C711 C713 1.327 . S
C711 H734 0.950 1_554 S
C712 C711 1.349 . S
C712 C724 1.349 . S
C713 C711 1.327 . S
C713 C729 1.429 . S
C713 H735 0.950 . S
C714 H710 0.949 . S
C714 C722 1.574 . S
C714 C730 1.368 . S
H715 C723 0.950 . S
H716 C721 0.950 . S
H717 C722 0.949 . S
H718 C724 0.950 . S
H719 C725 0.950 . S
H720 C726 0.949 . S
C721 H716 0.950 . S
C721 C723 1.327 . S
C721 C727 1.429 . S
C722 C714 1.574 . S
C722 H717 0.949 . S
C722 C728 1.368 . S
C723 C707 1.349 . S
C723 H715 0.950 . S
C723 C721 1.327 . S
C724 C712 1.349 . S
C724 H718 0.950 . S
C724 C725 1.327 . S
C725 H719 0.950 . S
C725 C724 1.327 . S
C725 C729 1.429 . S
C726 C709 1.574 . S
C726 H720 0.949 . S
C726 C730 1.368 . S
C727 C708 1.429 . S
C727 C721 1.429 . S
C727 C728 1.523 . S
C728 C709 1.368 . S
C728 C722 1.368 . S
C728 C727 1.523 . S
C729 C713 1.429 . S
C729 C725 1.429 . S
C729 C730 1.523 . S
C730 C714 1.368 . S
C730 C726 1.368 . S
C730 C729 1.523 . S
H731 C706 0.950 . S
H732 C708 0.950 . S
H733 C709 0.949 . S
H734 C711 0.950 1_556 S
H735 C713 0.950 . S
C736 C737 1.349 . S
C736 C738 1.327 . S
C736 H761 0.950 . S
C737 C736 1.349 . S
C737 C753 1.349 . S
C738 C736 1.327 . S
C738 C757 1.429 . S
C738 H762 0.950 . S
C739 C756 1.574 . S
C739 C758 1.368 1_556 S
C739 H763 0.949 . S
H740 C744 0.949 . S
C741 C742 1.349 . S
C741 C743 1.327 . S
C741 H764 0.950 . S
C742 C741 1.349 . S
C742 C754 1.349 . S
C743 C741 1.327 . S
C743 C759 1.429 . S
C743 H765 0.950 . S
C744 H740 0.949 . S
C744 C752 1.574 . S
C744 C760 1.368 1_554 S
H745 C753 0.950 1_556 S
H746 C751 0.950 . S
H747 C752 0.949 . S
H748 C754 0.950 . S
H749 C755 0.950 1_554 S
H750 C756 0.949 . S
C751 H746 0.950 . S
C751 C753 1.327 1_556 S
C751 C757 1.429 1_556 S
C752 C744 1.574 . S
C752 H747 0.949 . S
C752 C758 1.368 . S
C753 C737 1.349 . S
C753 H745 0.950 1_554 S
C753 C751 1.327 1_554 S
C754 C742 1.349 . S
C754 H748 0.950 . S
C754 C755 1.327 . S
C755 H749 0.950 1_556 S
C755 C754 1.327 . S
C755 C759 1.429 . S
C756 C739 1.574 . S
C756 H750 0.949 . S
C756 C760 1.368 . S
C757 C738 1.429 . S
C757 C751 1.429 1_554 S
C757 C758 1.523 . S
C758 C739 1.368 1_554 S
C758 C752 1.368 . S
C758 C757 1.523 . S
C759 C743 1.429 . S
C759 C755 1.429 . S
C759 C760 1.523 . S
C760 C744 1.368 1_556 S
C760 C756 1.368 . S
C760 C759 1.523 . S
H761 C736 0.950 . S
H762 C738 0.950 . S
H763 C739 0.949 . S
H764 C741 0.950 . S
H765 C743 0.950 . S
C766 C767 1.321 1_566 S
C766 C768 1.328 . S
C766 H791 0.950 . S
C767 C766 1.321 1_544 S
C767 C783 1.377 . S
C768 C766 1.328 . S
C768 C787 1.429 1_566 S
C768 H792 0.950 . S
C769 C786 1.574 1_554 S
C769 C788 1.368 1_554 S
C769 H793 0.949 . S
H770 C774 0.949 . S
C771 C772 1.349 . S
C771 C773 1.327 . S
C771 H794 0.950 . S
C772 C771 1.349 . S
C772 C784 1.349 1_545 S
C773 C771 1.327 . S
C773 C789 1.429 . S
C773 H795 0.950 . S
C774 H770 0.949 . S
C774 C782 1.574 . S
C774 C790 1.368 1_565 S
H775 C783 0.950 . S
H776 C781 0.950 . S
H777 C782 0.949 . S
H778 C784 0.950 . S
H779 C785 0.950 . S
H780 C786 0.949 1_554 S
C781 H776 0.950 . S
C781 C783 1.327 . S
C781 C787 1.429 . S
C782 C774 1.574 . S
C782 H777 0.949 . S
C782 C788 1.368 1_565 S
C783 C767 1.377 . S
C783 H775 0.950 . S
C783 C781 1.327 . S
C784 C772 1.349 1_565 S
C784 H778 0.950 . S
C784 C785 1.327 . S
C785 H779 0.950 . S
C785 C784 1.327 . S
C785 C789 1.429 1_565 S
C786 C769 1.574 1_556 S
C786 H780 0.949 1_556 S
C786 C790 1.368 . S
C787 C768 1.429 1_544 S
C787 C781 1.429 . S
C787 C788 1.523 1_554 S
C788 C769 1.368 1_556 S
C788 C782 1.368 1_545 S
C788 C787 1.523 1_556 S
C789 C773 1.429 . S
C789 C785 1.429 1_545 S
C789 C790 1.523 . S
C790 C774 1.368 1_545 S
C790 C786 1.368 . S
C790 C789 1.523 . S
H791 C766 0.950 . S
H792 C768 0.950 . S
H793 C769 0.949 . S
H794 C771 0.950 . S
H795 C773 0.950 . S
C796 C797 1.349 . S
C796 C798 1.327 . S
C796 H821 0.950 . S
C797 C796 1.349 . S
C797 C813 1.349 . S
C798 C796 1.327 . S
C798 C817 1.429 . S
C798 H822 0.950 . S
C799 C816 1.574 . S
C799 C818 1.368 . S
C799 H823 0.949 . S
H800 C804 0.949 . S
C801 C802 1.349 . S
C801 C803 1.327 . S
C801 H824 0.950 . S
C802 C801 1.349 . S
C802 C814 1.349 . S
C803 C801 1.327 . S
C803 C819 1.429 . S
C803 H825 0.950 . S
C804 H800 0.949 . S
C804 C812 1.574 . S
C804 C820 1.368 . S
H805 C813 0.950 . S
H806 C811 0.950 . S
H807 C812 0.949 . S
H808 C814 0.950 . S
H809 C815 0.950 . S
H810 C816 0.949 . S
C811 H806 0.950 . S
C811 C813 1.327 . S
C811 C817 1.429 . S
C812 C804 1.574 . S
C812 H807 0.949 . S
C812 C818 1.368 . S
C813 C797 1.349 . S
C813 H805 0.950 . S
C813 C811 1.327 . S
C814 C802 1.349 . S
C814 H808 0.950 . S
C814 C815 1.327 . S
C815 H809 0.950 . S
C815 C814 1.327 . S
C815 C819 1.429 . S
C816 C799 1.574 . S
C816 H810 0.949 . S
C816 C820 1.368 . S
C817 C798 1.429 . S
C817 C811 1.429 . S
C817 C818 1.523 . S
C818 C799 1.368 . S
C818 C812 1.368 . S
C818 C817 1.523 . S
C819 C803 1.429 . S
C819 C815 1.429 . S
C819 C820 1.523 . S
C820 C804 1.368 . S
C820 C816 1.368 . S
C820 C819 1.523 . S
H821 C796 0.950 . S
H822 C798 0.950 . S
H823 C799 0.949 . S
H824 C801 0.950 . S
H825 C803 0.950 . S
C826 C827 1.349 1_556 S
C826 C828 1.327 . S
C826 H851 0.950 . S
C827 C826 1.349 1_554 S
C827 C843 1.349 . S
C828 C826 1.327 . S
C828 C847 1.429 . S
C828 H852 0.950 . S
C829 C846 1.571 1_554 S
C829 C848 1.363 1_554 S
C829 H853 0.957 . S
H830 C834 0.949 . S
C831 C832 1.349 . S
C831 C833 1.327 . S
C831 H854 0.950 . S
C832 C831 1.349 . S
C832 C844 1.349 . S
C833 C831 1.327 . S
C833 C849 1.429 . S
C833 H855 0.950 . S
C834 H830 0.949 . S
C834 C842 1.574 . S
C834 C850 1.368 . S
H835 C843 0.950 . S
H836 C841 0.950 . S
H837 C842 0.949 . S
H838 C844 0.950 . S
H839 C845 0.950 . S
H840 C846 0.949 . S
C841 H836 0.950 . S
C841 C843 1.327 . S
C841 C847 1.429 1_554 S
C842 C834 1.574 . S
C842 H837 0.949 . S
C842 C848 1.368 . S
C843 C827 1.349 . S
C843 H835 0.950 . S
C843 C841 1.327 . S
C844 C832 1.349 . S
C844 H838 0.950 . S
C844 C845 1.327 . S
C845 H839 0.950 . S
C845 C844 1.327 . S
C845 C849 1.429 . S
C846 C829 1.571 1_556 S
C846 H840 0.949 . S
C846 C850 1.368 . S
C847 C828 1.429 . S
C847 C841 1.429 1_556 S
C847 C848 1.523 . S
C848 C829 1.363 1_556 S
C848 C842 1.368 . S
C848 C847 1.523 . S
C849 C833 1.429 . S
C849 C845 1.429 . S
C849 C850 1.523 . S
C850 C834 1.368 . S
C850 C846 1.368 . S
C850 C849 1.523 . S
H851 C826 0.950 . S
H852 C828 0.950 . S
H853 C829 0.957 . S
H854 C831 0.950 . S
H855 C833 0.950 . S
C856 C857 1.349 . S
C856 C858 1.327 . S
C856 H881 0.950 . S
C857 C856 1.349 . S
C857 C873 1.349 1_655 S
C858 C856 1.327 . S
C858 C877 1.429 . S
C858 H882 0.950 . S
C859 C876 1.574 . S
C859 C878 1.368 1_455 S
C859 H883 0.949 . S
H860 C864 0.949 . S
C861 C862 1.349 . S
C861 C863 1.327 . S
C861 H884 0.950 . S
C862 C861 1.349 . S
C862 C874 1.349 1_455 S
C863 C861 1.327 . S
C863 C879 1.419 1_455 S
C863 H885 0.950 . S
C864 H860 0.949 . S
C864 C872 1.574 . S
C864 C880 1.368 . S
H865 C873 0.950 . S
H866 C871 0.950 . S
H867 C872 0.949 . S
H868 C874 0.950 . S
H869 C875 0.950 . S
H870 C876 0.949 . S
C871 H866 0.950 . S
C871 C873 1.327 . S
C871 C877 1.429 1_455 S
C872 C864 1.574 . S
C872 H867 0.949 . S
C872 C878 1.368 . S
C873 C857 1.349 1_455 S
C873 H865 0.950 . S
C873 C871 1.327 . S
C874 C862 1.349 1_655 S
C874 H868 0.950 . S
C874 C875 1.327 . S
C875 H869 0.950 . S
C875 C874 1.327 . S
C875 C879 1.438 . S
C876 C859 1.574 . S
C876 H870 0.949 . S
C876 C880 1.368 1_455 S
C877 C858 1.429 . S
C877 C871 1.429 1_655 S
C877 C878 1.523 . S
C878 C859 1.368 1_655 S
C878 C872 1.368 . S
C878 C877 1.523 . S
C879 C863 1.419 1_655 S
C879 C875 1.438 . S
C879 C880 1.523 . S
C880 C864 1.368 . S
C880 C876 1.368 1_655 S
C880 C879 1.523 . S
H881 C856 0.950 . S
H882 C858 0.950 . S
H883 C859 0.949 . S
H884 C861 0.950 . S
H885 C863 0.950 . S
C886 C887 1.330 1_545 S
C886 C888 1.327 . S
C886 H911 0.950 . S
C887 C886 1.330 1_565 S
C887 C903 1.369 . S
C888 C886 1.327 . S
C888 C907 1.429 1_545 S
C888 H912 0.950 . S
C889 C906 1.574 . S
C889 C908 1.368 . S
C889 H913 0.949 . S
H890 C894 0.949 . S
C891 C892 1.349 . S
C891 C893 1.327 . S
C891 H914 0.950 . S
C892 C891 1.349 . S
C892 C904 1.349 1_565 S
C893 C891 1.327 . S
C893 C909 1.429 . S
C893 H915 0.950 . S
C894 H890 0.949 . S
C894 C902 1.574 . S
C894 C910 1.368 1_545 S
H895 C903 0.950 . S
H896 C901 0.950 . S
H897 C902 0.949 . S
H898 C904 0.950 . S
H899 C905 0.950 . S
H900 C906 0.949 . S
C901 H896 0.950 . S
C901 C903 1.327 . S
C901 C907 1.429 . S
C902 C894 1.574 . S
C902 H897 0.949 . S
C902 C908 1.368 1_545 S
C903 C887 1.369 . S
C903 H895 0.950 . S
C903 C901 1.327 . S
C904 C892 1.349 1_545 S
C904 H898 0.950 . S
C904 C905 1.327 . S
C905 H899 0.950 . S
C905 C904 1.327 . S
C905 C909 1.429 1_545 S
C906 C889 1.574 . S
C906 H900 0.949 . S
C906 C910 1.368 . S
C907 C888 1.429 1_565 S
C907 C901 1.429 . S
C907 C908 1.523 . S
C908 C889 1.368 . S
C908 C902 1.368 1_565 S
C908 C907 1.523 . S
C909 C893 1.429 . S
C909 C905 1.429 1_565 S
C909 C910 1.523 . S
C910 C894 1.368 1_565 S
C910 C906 1.368 . S
C910 C909 1.523 . S
H911 C886 0.950 . S
H912 C888 0.950 . S
H913 C889 0.949 . S
H914 C891 0.950 . S
H915 C893 0.950 . S
C916 C917 1.349 . S
C916 C918 1.327 . S
C916 H941 0.950 . S
C917 C916 1.349 . S
C917 C933 1.349 . S
C918 C916 1.327 . S
C918 C937 1.429 . S
C918 H942 0.950 . S
C919 C936 1.574 . S
C919 C938 1.368 . S
C919 H943 0.949 . S
H920 C924 0.949 . S
C921 C922 1.349 . S
C921 C923 1.327 . S
C921 H944 0.950 . S
C922 C921 1.349 . S
C922 C934 1.349 . S
C923 C921 1.327 . S
C923 C939 1.429 . S
C923 H945 0.950 . S
C924 H920 0.949 . S
C924 C932 1.574 . S
C924 C940 1.368 . S
H925 C933 0.950 . S
H926 C931 0.950 . S
H927 C932 0.949 . S
H928 C934 0.950 . S
H929 C935 0.950 . S
H930 C936 0.949 . S
C931 H926 0.950 . S
C931 C933 1.327 . S
C931 C937 1.429 . S
C932 C924 1.574 . S
C932 H927 0.949 . S
C932 C938 1.368 . S
C933 C917 1.349 . S
C933 H925 0.950 . S
C933 C931 1.327 . S
C934 C922 1.349 . S
C934 H928 0.950 . S
C934 C935 1.327 . S
C935 H929 0.950 . S
C935 C934 1.327 . S
C935 C939 1.429 . S
C936 C919 1.574 . S
C936 H930 0.949 . S
C936 C940 1.368 . S
C937 C918 1.429 . S
C937 C931 1.429 . S
C937 C938 1.523 . S
C938 C919 1.368 . S
C938 C932 1.368 . S
C938 C937 1.523 . S
C939 C923 1.429 . S
C939 C935 1.429 . S
C939 C940 1.523 . S
C940 C924 1.368 . S
C940 C936 1.368 . S
C940 C939 1.523 . S
H941 C916 0.950 . S
H942 C918 0.950 . S
H943 C919 0.949 . S
H944 C921 0.950 . S
H945 C923 0.950 . S
C946 C947 1.349 . S
C946 C948 1.327 . S
C946 H971 0.950 . S
C947 C946 1.349 . S
C947 C963 1.349 . S
C948 C946 1.327 . S
C948 C967 1.429 . S
C948 H972 0.950 . S
C949 C966 1.574 . S
C949 C968 1.368 . S
C949 H973 0.949 . S
H950 C954 0.949 . S
C951 C952 1.349 . S
C951 C953 1.327 . S
C951 H974 0.950 . S
C952 C951 1.349 . S
C952 C964 1.349 . S
C953 C951 1.327 . S
C953 C969 1.429 . S
C953 H975 0.950 . S
C954 H950 0.949 . S
C954 C962 1.574 . S
C954 C970 1.368 . S
H955 C963 0.950 . S
H956 C961 0.950 . S
H957 C962 0.949 . S
H958 C964 0.950 . S
H959 C965 0.950 . S
H960 C966 0.949 . S
C961 H956 0.950 . S
C961 C963 1.327 . S
C961 C967 1.429 . S
C962 C954 1.574 . S
C962 H957 0.949 . S
C962 C968 1.368 . S
C963 C947 1.349 . S
C963 H955 0.950 . S
C963 C961 1.327 . S
C964 C952 1.349 . S
C964 H958 0.950 . S
C964 C965 1.327 . S
C965 H959 0.950 . S
C965 C964 1.327 . S
C965 C969 1.429 . S
C966 C949 1.574 . S
C966 H960 0.949 . S
C966 C970 1.368 . S
C967 C948 1.429 . S
C967 C961 1.429 . S
C967 C968 1.523 . S
C968 C949 1.368 . S
C968 C962 1.368 . S
C968 C967 1.523 . S
C969 C953 1.429 . S
C969 C965 1.429 . S
C969 C970 1.523 . S
C970 C954 1.368 . S
C970 C966 1.368 . S
C970 C969 1.523 . S
H971 C946 0.950 . S
H972 C948 0.950 . S
H973 C949 0.949 . S
H974 C951 0.950 . S
H975 C953 0.950 . S
C257 C76 1.761 1_545 S
C262 C119 1.866 1_545 S
C292 C159 1.676 . S
C287 C88 1.668 . S
C322 C178 1.874 . S
C317 C52 1.768 . S
C352 C239 1.357 . S
C347 C64 1.294 . S
C382 C98 1.865 1_565 S
C377 C28 1.757 . S
C407 C40 1.682 . S
C412 C138 1.683 . S
C437 C4 1.772 . S
C442 C199 1.874 . S
C467 C16 1.298 . S
C472 C218 1.357 . S
C502 C100 0.660 . S
C497 C69 0.638 . S
C532 C140 0.233 . S
C527 C81 0.297 . S
C562 C196 0.636 . S
C557 C93 0.670 . S
C587 C57 0.310 . S
C592 C220 0.274 . S
C617 C21 0.645 . S
C622 C121 0.647 . S
C652 C161 0.233 . S
C647 C33 0.307 1_565 S
C682 C207 0.635 . S
C677 C45 0.673 . S
C707 C9 0.328 . S
C712 C241 0.274 . S
C737 C66 1.408 . S
C742 C116 1.512 . S
C767 C78 2.044 . S
C772 C156 2.213 . S
C802 C180 1.455 . S
C797 C90 1.431 . S
C832 C236 2.207 . S
C827 C54 2.044 . S
C857 C18 1.405 . S
C862 C127 1.524 . S
C892 C167 2.212 . S
C887 C30 2.039 1_565 S
C922 C201 1.455 . S
C917 C42 1.433 . S
C947 C6 2.045 . S
C952 C247 2.208 . S
