# Generated by pormake.
# Topology rtl, (3,6)-cn, num edge types: 1
# Building blocks:
#     Node 0, Type 0, BuildingBlock: ESEHIV_clean_linker_0, # of connection points: 3
#     Node 1, Type 0, BuildingBlock: ESEHIV_clean_linker_0, # of connection points: 3
#     Node 2, Type 0, BuildingBlock: ESEHIV_clean_linker_0, # of connection points: 3
#     Node 3, Type 0, BuildingBlock: ESEHIV_clean_linker_0, # of connection points: 3
#     Node 4, Type 1, BuildingBlock: KUMJIN_clean_sbu_1, # of connection points: 6
#     Node 5, Type 1, BuildingBlock: KUMJIN_clean_sbu_1, # of connection points: 6
#     Edge 6, Type (0, 1), BuildingBlock: MIFKUJ_clean_linker_0, # of connection points: 2
#     Edge 7, Type (0, 1), BuildingBlock: MIFKUJ_clean_linker_0, # of connection points: 2
#     Edge 8, Type (0, 1), BuildingBlock: MIFKUJ_clean_linker_0, # of connection points: 2
#     Edge 9, Type (0, 1), BuildingBlock: MIFKUJ_clean_linker_0, # of connection points: 2
#     Edge 10, Type (0, 1), BuildingBlock: MIFKUJ_clean_linker_0, # of connection points: 2
#     Edge 11, Type (0, 1), BuildingBlock: MIFKUJ_clean_linker_0, # of connection points: 2
#     Edge 12, Type (0, 1), BuildingBlock: MIFKUJ_clean_linker_0, # of connection points: 2
#     Edge 13, Type (0, 1), BuildingBlock: MIFKUJ_clean_linker_0, # of connection points: 2
#     Edge 14, Type (0, 1), BuildingBlock: MIFKUJ_clean_linker_0, # of connection points: 2
#     Edge 15, Type (0, 1), BuildingBlock: MIFKUJ_clean_linker_0, # of connection points: 2
#     Edge 16, Type (0, 1), BuildingBlock: MIFKUJ_clean_linker_0, # of connection points: 2
#     Edge 17, Type (0, 1), BuildingBlock: MIFKUJ_clean_linker_0, # of connection points: 2
# Relax obj value: 0.017
# Max RMSD: 0.099
# Mean RMSD: 0.059
data_MOF--net-rtl--node1-KUMJIN_clean_sbu_1--node2-ESEHIV_clean_linker_0--edge1-MIFKUJ_clean_linker_0
_symmetry_space_group_name_H-M    P1
_symmetry_Int_Tables_number       1
_symmetry_cell_setting            triclinic
loop_
_symmetry_equiv_pos_as_xyz
'x, y, z'
_cell_length_a     40.347245
_cell_length_b     40.944875
_cell_length_c     35.669213
_cell_angle_alpha  80.181253
_cell_angle_beta   99.761006
_cell_angle_gamma 90.45177
loop_
_atom_site_label
_atom_site_type_symbol
_atom_site_fract_x
_atom_site_fract_y
_atom_site_fract_z
_atom_type_partial_charge
H0 H 0.16911 0.89534 0.01231 0.0
H1 H 0.24181 0.82751 0.08817 0.0
H2 H 0.23483 0.83765 0.96502 0.0
C3 C 0.18918 0.87696 0.01646 0.0
C4 C 0.20045 0.86854 0.98415 0.0
C5 C 0.20371 0.86213 0.05409 0.0
C6 C 0.23052 0.83912 0.05925 0.0
C7 C 0.24232 0.8305 0.02723 0.0
C8 C 0.22697 0.84527 0.98986 0.0
H9 H 0.63747 0.65004 0.60157 0.0
H10 H 0.7029 0.71463 0.5416 0.0
H11 H 0.69522 0.7214 0.65901 0.0
C12 C 0.65563 0.66967 0.60121 0.0
C13 C 0.66549 0.68367 0.63464 0.0
C14 C 0.66859 0.681 0.56727 0.0
C15 C 0.69155 0.70696 0.56704 0.0
C16 C 0.70111 0.72218 0.59968 0.0
C17 C 0.68786 0.71028 0.63347 0.0
H18 H 0.83279 0.11515 0.05256 0.0
H19 H 0.77073 0.17835 0.09704 0.0
H20 H 0.76839 0.18909 0.97436 0.0
C21 C 0.81451 0.13534 0.0475 0.0
C22 C 0.80294 0.15173 0.00966 0.0
C23 C 0.8031 0.14483 0.0791 0.0
C24 C 0.7785 0.17013 0.0725 0.0
C25 C 0.7652 0.18599 0.03477 0.0
C26 C 0.77775 0.17663 0.00347 0.0
H27 H 0.37375 0.35569 0.44805 0.0
H28 H 0.3136 0.28683 0.51093 0.0
H29 H 0.30752 0.29088 0.38859 0.0
C30 C 0.35516 0.33643 0.44841 0.0
C31 C 0.34189 0.32498 0.41401 0.0
C32 C 0.34547 0.3224 0.48355 0.0
C33 C 0.32188 0.29699 0.48403 0.0
C34 C 0.3078 0.28559 0.44993 0.0
C35 C 0.31811 0.29961 0.41502 0.0
Eu36 Eu 0.02865 0.97075 0.50644 0.0
C37 C 0.94997 0.10354 0.50364 0.0
N38 N 0.98024 0.09224 0.52467 0.0
C39 C 0.0026 0.14674 0.51289 0.0
C40 C 0.94521 0.13698 0.48546 0.0
C41 C 0.00587 0.11363 0.53105 0.0
C42 C 0.97232 0.15839 0.48943 0.0
C43 C 0.89054 0.09398 0.48401 0.0
C44 C 0.92291 0.08234 0.50289 0.0
C45 C 0.88598 0.12694 0.46486 0.0
C46 C 0.91323 0.14839 0.46564 0.0
Eu47 Eu 0.9829 0.03603 0.5548 0.0
N48 N 0.92788 0.05076 0.52234 0.0
C49 C 0.86349 0.07248 0.48622 0.0
C50 C 0.90138 0.03031 0.52657 0.0
C51 C 0.86888 0.04062 0.50799 0.0
H52 H 0.0285 0.10558 0.5512 0.0
H53 H 0.848 0.02413 0.51074 0.0
H54 H 0.0049 0.90014 0.55563 0.0
H55 H 0.1561 0.01175 0.49203 0.0
H56 H 0.90543 0.00595 0.54405 0.0
H57 H 0.83825 0.08052 0.47211 0.0
H58 H 0.09469 0.00943 0.47223 0.0
H59 H 0.02316 0.16339 0.51797 0.0
H60 H 0.86126 0.13633 0.45038 0.0
H61 H 0.90912 0.17407 0.45191 0.0
H62 H 0.03011 0.85431 0.60718 0.0
H63 H 0.96967 0.18425 0.47595 0.0
H64 H 0.18491 0.97295 0.54893 0.0
N65 N 0.05086 0.92562 0.55443 0.0
C66 C 0.08458 0.92501 0.56701 0.0
C67 C 0.04564 0.8742 0.59637 0.0
C68 C 0.09999 0.89963 0.59642 0.0
C69 C 0.03146 0.90002 0.56727 0.0
C70 C 0.07999 0.87424 0.61137 0.0
N71 N 0.08817 0.97238 0.51984 0.0
C72 C 0.1067 0.99352 0.49816 0.0
C73 C 0.13896 0.94898 0.56115 0.0
C74 C 0.10373 0.9494 0.54956 0.0
C75 C 0.1578 0.97242 0.54092 0.0
C76 C 0.14164 0.99441 0.50885 0.0
H77 H 0.091 0.85416 0.63377 0.0
H78 H 0.14712 0.88091 0.63219 0.0
H79 H 0.18127 0.92415 0.6013 0.0
O80 O 0.05073 0.94941 0.46302 0.0
O81 O 0.02991 0.96554 0.5711 0.0
O82 O 0.03567 0.0184 0.58193 0.0
O83 O 0.9991 0.93863 0.47167 0.0
O84 O 0.0427 0.02504 0.49073 0.0
O85 O 0.03611 0.04902 0.5435 0.0
O86 O 0.96762 0.01804 0.61045 0.0
O87 O 0.95921 0.02448 0.49582 0.0
O88 O 0.00481 0.01687 0.46763 0.0
O89 O 0.97363 0.07047 0.59249 0.0
O90 O 0.96761 0.98229 0.56777 0.0
O91 O 0.97463 0.96017 0.51405 0.0
C92 C 0.04353 0.9869 0.59216 0.0
C93 C 0.01887 0.91214 0.42372 0.0
C94 C 0.03436 0.89462 0.36674 0.0
C95 C 0.00871 0.87115 0.36748 0.0
C96 C 0.9933 0.88865 0.42366 0.0
C97 C 0.98841 0.86822 0.3958 0.0
C98 C 0.03956 0.91488 0.39535 0.0
C99 C 0.05005 0.0479 0.51275 0.0
C100 C 0.02323 0.93384 0.45312 0.0
C101 C 0.13486 0.89999 0.60928 0.0
C102 C 0.15429 0.92464 0.59171 0.0
C103 C 0.97369 0.02717 0.46515 0.0
C104 C 0.98421 0.05009 0.65909 0.0
C105 C 0.97994 0.06183 0.72297 0.0
C106 C 0.01525 0.05879 0.73298 0.0
C107 C 0.01927 0.04722 0.6695 0.0
C108 C 0.9647 0.05689 0.68588 0.0
C109 C 0.03466 0.05127 0.70648 0.0
C110 C 0.96019 0.96067 0.54438 0.0
C111 C 0.96745 0.0473 0.62003 0.0
H112 H 0.00449 0.85482 0.34631 0.0
H113 H 0.97713 0.88596 0.4453 0.0
H114 H 0.96876 0.85006 0.3961 0.0
H115 H 0.059 0.93329 0.39492 0.0
H116 H 0.02805 0.06292 0.76094 0.0
H117 H 0.03468 0.04219 0.64899 0.0
H118 H 0.93757 0.05841 0.67755 0.0
H119 H 0.06176 0.04912 0.71443 0.0
Eu120 Eu 0.46727 0.49433 0.98922 0.0
C121 C 0.59672 0.57239 0.03648 0.0
N122 N 0.59106 0.53958 0.04602 0.0
C123 C 0.6447 0.52599 0.0318 0.0
C124 C 0.62618 0.58335 0.02236 0.0
C125 C 0.61489 0.51633 0.04529 0.0
C126 C 0.65015 0.55963 0.01973 0.0
C127 C 0.57899 0.62926 0.03358 0.0
C128 C 0.57345 0.59494 0.0422 0.0
C129 C 0.60747 0.6404 0.01767 0.0
C130 C 0.63108 0.61749 0.01218 0.0
Eu131 Eu 0.54023 0.52493 0.06785 0.0
N132 N 0.54656 0.58332 0.0584 0.0
C133 C 0.5563 0.65131 0.04233 0.0
C134 C 0.52605 0.60465 0.06993 0.0
C135 C 0.53001 0.63891 0.06111 0.0
H136 H 0.61048 0.49035 0.05449 0.0
H137 H 0.51301 0.65573 0.06915 0.0
H138 H 0.40469 0.55144 0.98205 0.0
H139 H 0.46307 0.36019 0.02976 0.0
H140 H 0.50666 0.59545 0.08619 0.0
H141 H 0.55954 0.67786 0.03599 0.0
H142 H 0.48569 0.41364 1.00184 0.0
H143 H 0.66332 0.50751 0.03052 0.0
H144 H 0.61196 0.66668 0.01053 0.0
H145 H 0.65336 0.62643 1.00084 0.0
H146 H 0.35224 0.55587 0.0075 0.0
H147 H 0.67318 0.56705 0.00913 0.0
H148 H 0.41135 0.35972 0.05854 0.0
N149 N 0.41462 0.50103 0.0086 0.0
C150 C 0.40159 0.47304 0.02653 0.0
C151 C 0.36614 0.53252 0.01362 0.0
C152 C 0.37089 0.4741 0.04025 0.0
C153 C 0.3964 0.5301 1.0 0.0
C154 C 0.35362 0.50453 0.03444 0.0
N155 N 0.44753 0.4426 0.01571 0.0
C156 C 0.46315 0.41345 0.01449 0.0
C157 C 0.40444 0.41313 0.04582 0.0
C158 C 0.41813 0.44287 0.02946 0.0
C159 C 0.4211 0.38312 0.04628 0.0
C160 C 0.45036 0.38327 0.03012 0.0
H161 H 0.32999 0.50641 0.0446 0.0
H162 H 0.33451 0.44511 0.06924 0.0
H163 H 0.36386 0.39172 0.07402 0.0
O164 O 0.47368 0.4737 0.93801 0.0
O165 O 0.48048 0.46711 0.05161 0.0
O166 O 0.49016 0.50994 0.08458 0.0
O167 O 0.42769 0.49979 0.93846 0.0
O168 O 0.51903 0.47152 0.99313 0.0
O169 O 0.54548 0.4724 0.0562 0.0
O170 O 0.56355 0.53948 0.12313 0.0
O171 O 0.54903 0.52857 0.00569 0.0
O172 O 0.49611 0.54037 0.97102 0.0
O173 O 0.56385 0.48756 0.11548 0.0
O174 O 0.48735 0.54706 0.05979 0.0
O175 O 0.46538 0.54889 0.99534 0.0
C176 C 0.47796 0.48062 0.08183 0.0
C177 C 0.4237 0.45479 0.90461 0.0
C178 C 0.40944 0.42097 0.85423 0.0
C179 C 0.38809 0.40234 0.87666 0.0
C180 C 0.40165 0.43629 0.92603 0.0
C181 C 0.38418 0.41009 0.91223 0.0
C182 C 0.4273 0.44726 0.86845 0.0
C183 C 0.54171 0.46033 0.02375 0.0
C184 C 0.44322 0.48157 0.92008 0.0
C185 C 0.35789 0.44469 0.05819 0.0
C186 C 0.37456 0.41427 0.06083 0.0
C187 C 0.52891 0.54143 0.97365 0.0
C188 C 0.59089 0.49851 0.17798 0.0
C189 C 0.6086 0.5079 0.24432 0.0
C190 C 0.62521 0.47672 0.25327 0.0
C191 C 0.60736 0.46736 0.18791 0.0
C192 C 0.59169 0.51882 0.20626 0.0
C193 C 0.6245 0.45667 0.22528 0.0
C194 C 0.46832 0.56123 0.02751 0.0
C195 C 0.57229 0.50891 0.13839 0.0
H196 H 0.37381 0.38221 0.86624 0.0
H197 H 0.39771 0.44217 0.95331 0.0
H198 H 0.36734 0.3959 0.92905 0.0
H199 H 0.4441 0.4616 0.85163 0.0
H200 H 0.6391 0.46786 0.28193 0.0
H201 H 0.60712 0.45124 0.16673 0.0
H202 H 0.57846 0.54259 0.19892 0.0
H203 H 0.6373 0.43271 0.23258 0.0
H204 H 0.30832 0.22818 0.50215 0.0
H205 H 0.26354 0.18781 0.50693 0.0
H206 H 0.20327 0.24406 0.40536 0.0
H207 H 0.24789 0.28482 0.40069 0.0
H208 H 0.16713 0.22713 0.46355 0.0
H209 H 0.23938 0.17223 0.39965 0.0
H210 H 0.29297 0.14933 0.38982 0.0
H211 H 0.30019 0.08237 0.49769 0.0
H212 H 0.24686 0.10521 0.50844 0.0
H213 H 0.07151 0.0653 0.44334 0.0
H214 H 0.11435 0.10551 0.42728 0.0
H215 H 0.12721 0.12907 0.54201 0.0
H216 H 0.08591 0.08749 0.55916 0.0
H217 H 0.18464 0.10639 0.46957 0.0
H218 H 0.13203 0.21851 0.5218 0.0
H219 H 0.07747 0.24328 0.52589 0.0
H220 H 0.02896 0.19672 0.43259 0.0
H221 H 0.08325 0.17202 0.42764 0.0
C222 C 0.28557 0.2319 0.48075 0.0
C223 C 0.28165 0.25972 0.45104 0.0
C224 C 0.26008 0.2087 0.48338 0.0
C225 C 0.23009 0.2128 0.4564 0.0
C226 C 0.22621 0.24037 0.42647 0.0
C227 C 0.25183 0.26349 0.42365 0.0
C228 C 0.2024 0.1889 0.4603 0.0
C229 C 0.17099 0.20075 0.4648 0.0
C230 C 0.20721 0.1545 0.46141 0.0
C231 C 0.23926 0.14065 0.455 0.0
C232 C 0.25253 0.15281 0.42143 0.0
C233 C 0.28284 0.1398 0.41566 0.0
C234 C 0.30002 0.11446 0.44315 0.0
C235 C 0.28688 0.10202 0.47643 0.0
C236 C 0.25659 0.11497 0.48236 0.0
C237 C 0.08368 0.07874 0.46535 0.0
C238 C 0.07521 0.07311 0.50259 0.0
C239 C 0.10804 0.10182 0.45602 0.0
C240 C 0.12377 0.12035 0.48339 0.0
C241 C 0.11512 0.11519 0.52039 0.0
C242 C 0.09133 0.09156 0.53003 0.0
C243 C 0.14979 0.14462 0.47364 0.0
C244 C 0.18088 0.13279 0.46824 0.0
C245 C 0.14458 0.17906 0.47127 0.0
C246 C 0.11167 0.19314 0.47466 0.0
C247 C 0.10971 0.21356 0.50217 0.0
C248 C 0.07885 0.22765 0.50458 0.0
C249 C 0.04979 0.22165 0.47945 0.0
C250 C 0.0515 0.20139 0.452 0.0
C251 C 0.08229 0.1872 0.44952 0.0
H252 H 0.02592 0.23257 0.48135 0.0
H253 H 0.32347 0.10442 0.43863 0.0
H254 H 0.29446 0.83128 0.987 0.0
H255 H 0.3352 0.78669 0.98995 0.0
H256 H 0.2932 0.72764 0.08189 0.0
H257 H 0.2517 0.77181 0.07853 0.0
H258 H 0.36514 0.72531 0.09277 0.0
H259 H 0.26907 0.71254 0.99552 0.0
H260 H 0.2271 0.73207 0.93731 0.0
H261 H 0.30602 0.75267 0.87018 0.0
H262 H 0.34852 0.73373 0.92816 0.0
H263 H 0.43343 0.56892 0.08408 0.0
H264 H 0.39684 0.61557 0.08621 0.0
H265 H 0.4196 0.66501 0.97679 0.0
H266 H 0.45444 0.61709 0.97356 0.0
H267 H 0.35785 0.67355 0.97564 0.0
H268 H 0.45451 0.68711 0.07066 0.0
H269 H 0.49783 0.66996 0.12844 0.0
H270 H 0.42105 0.65031 0.19862 0.0
H271 H 0.37725 0.66725 0.14134 0.0
C272 C 0.29385 0.80882 0.00789 0.0
C273 C 0.26951 0.80498 0.03221 0.0
C274 C 0.31727 0.78346 0.00965 0.0
C275 C 0.31693 0.75377 0.03583 0.0
C276 C 0.29385 0.75041 0.0615 0.0
C277 C 0.27023 0.77574 0.05961 0.0
C278 C 0.33934 0.72557 0.03477 0.0
C279 C 0.36345 0.7137 0.06736 0.0
C280 C 0.33754 0.71107 1.00124 0.0
C281 C 0.31198 0.72202 0.96625 0.0
C282 C 0.27749 0.72146 0.9684 0.0
C283 C 0.2536 0.73239 0.93544 0.0
C284 C 0.26389 0.74368 0.90008 0.0
C285 C 0.29809 0.74396 0.89759 0.0
C286 C 0.32208 0.73311 0.93049 0.0
C287 C 0.43061 0.58986 0.06059 0.0
C288 C 0.44675 0.58969 0.02875 0.0
C289 C 0.40992 0.61665 0.06194 0.0
C290 C 0.40603 0.64437 0.03215 0.0
C291 C 0.42222 0.64405 1.00023 0.0
C292 C 0.44213 0.61677 0.99836 0.0
C293 C 0.38424 0.67316 0.03363 0.0
C294 C 0.35998 0.68514 1.00109 0.0
C295 C 0.38627 0.68803 0.06709 0.0
C296 C 0.4126 0.67819 0.10164 0.0
C297 C 0.44687 0.67898 0.09839 0.0
C298 C 0.47149 0.66932 0.13102 0.0
C299 C 0.46218 0.65889 0.16707 0.0
C300 C 0.42822 0.65834 0.17065 0.0
C301 C 0.40349 0.66805 0.13814 0.0
H302 H 0.48129 0.6513 0.19223 0.0
H303 H 0.24537 0.75215 0.8746 0.0
H304 H 0.70636 0.77183 0.53881 0.0
H305 H 0.75062 0.81246 0.5336 0.0
H306 H 0.79523 0.77727 0.65204 0.0
H307 H 0.75206 0.73506 0.65715 0.0
H308 H 0.78649 0.85481 0.61929 0.0
H309 H 0.83352 0.74987 0.602 0.0
H310 H 0.83104 0.69966 0.57209 0.0
H311 H 0.82138 0.75999 0.45967 0.0
H312 H 0.82325 0.81058 0.48892 0.0
H313 H 0.94154 0.93653 0.61375 0.0
H314 H 0.89806 0.89625 0.62658 0.0
H315 H 0.87518 0.89043 0.50521 0.0
H316 H 0.91985 0.92936 0.49268 0.0
H317 H 0.87271 0.83241 0.54227 0.0
H318 H 0.82566 0.93609 0.55341 0.0
H319 H 0.82378 0.989 0.57729 0.0
H320 H 0.82738 0.9362 0.69283 0.0
H321 H 0.82988 0.88294 0.66972 0.0
C322 C 0.72563 0.77243 0.56381 0.0
C323 C 0.72579 0.74962 0.59825 0.0
C324 C 0.75071 0.79597 0.56082 0.0
C325 C 0.77619 0.79772 0.59236 0.0
C326 C 0.77563 0.77632 0.62742 0.0
C327 C 0.75081 0.75229 0.63029 0.0
C328 C 0.8045 0.82046 0.58758 0.0
C329 C 0.80575 0.84979 0.60305 0.0
C330 C 0.82873 0.81435 0.56514 0.0
C331 C 0.82818 0.78397 0.54762 0.0
C332 C 0.83057 0.75242 0.57088 0.0
C333 C 0.82933 0.72389 0.55406 0.0
C334 C 0.82596 0.72663 0.514 0.0
C335 C 0.82395 0.7579 0.4907 0.0
C336 C 0.82512 0.7865 0.50738 0.0
C337 C 0.92721 0.92663 0.58983 0.0
C338 C 0.93396 0.93622 0.55218 0.0
C339 C 0.9022 0.90371 0.59715 0.0
C340 C 0.88271 0.89067 0.56678 0.0
C341 C 0.88975 0.90005 0.5292 0.0
C342 C 0.91526 0.92239 0.52202 0.0
C343 C 0.85512 0.86718 0.57407 0.0
C344 C 0.85379 0.83762 0.55886 0.0
C345 C 0.83033 0.87356 0.59596 0.0
C346 C 0.82829 0.90552 0.60988 0.0
C347 C 0.82626 0.93576 0.58395 0.0
C348 C 0.82507 0.96581 0.59734 0.0
C349 C 0.82553 0.96596 0.63657 0.0
C350 C 0.82707 0.93604 0.66246 0.0
C351 C 0.82836 0.90591 0.64923 0.0
H352 H 0.82463 0.98925 0.64689 0.0
H353 H 0.82499 0.70452 0.50102 0.0
H354 H 0.7574 0.24295 0.97982 0.0
H355 H 0.71691 0.28833 0.97228 0.0
H356 H 0.67598 0.23806 0.07024 0.0
H357 H 0.7141 0.19114 0.07563 0.0
H358 H 0.62749 0.26648 0.02277 0.0
H359 H 0.73561 0.30367 0.07451 0.0
H360 H 0.796 0.31525 0.07768 0.0
H361 H 0.77451 0.38241 0.9697 0.0
H362 H 0.71399 0.37089 0.96565 0.0
H363 H 0.57106 0.41323 0.08333 0.0
H364 H 0.60735 0.36641 0.08007 0.0
H365 H 0.59963 0.39815 0.95724 0.0
H366 H 0.56245 0.44455 0.96001 0.0
H367 H 0.67112 0.38073 0.01371 0.0
H368 H 0.55912 0.3419 0.96808 0.0
H369 H 0.49988 0.33219 0.97494 0.0
H370 H 0.53143 0.26861 0.08396 0.0
H371 H 0.5909 0.27856 0.07812 0.0
C372 C 0.73929 0.24103 0.99923 0.0
C373 C 0.73946 0.21328 0.02866 0.0
C374 C 0.71644 0.2674 0.99527 0.0
C375 C 0.6939 0.26719 0.02135 0.0
C376 C 0.69325 0.23909 0.0499 0.0
C377 C 0.7155 0.21238 0.0533 0.0
C378 C 0.67157 0.29642 0.0196 0.0
C379 C 0.63724 0.29136 0.02098 0.0
C380 C 0.68397 0.32912 0.01721 0.0
C381 C 0.72033 0.33613 0.01956 0.0
C382 C 0.74379 0.32072 0.0513 0.0
C383 C 0.77804 0.3273 0.05328 0.0
C384 C 0.7891 0.34947 0.02385 0.0
C385 C 0.76591 0.36519 0.99244 0.0
C386 C 0.73164 0.35866 0.99029 0.0
C387 C 0.57711 0.41024 0.05563 0.0
C388 C 0.56388 0.4324 0.02188 0.0
C389 C 0.59776 0.38353 0.05384 0.0
C390 C 0.60601 0.37898 0.01843 0.0
C391 C 0.59342 0.40138 0.98479 0.0
C392 C 0.57212 0.42768 0.9864 0.0
C393 C 0.62756 0.35048 0.0167 0.0
C394 C 0.66162 0.35577 0.01496 0.0
C395 C 0.61517 0.31797 0.01985 0.0
C396 C 0.57945 0.31124 0.02283 0.0
C397 C 0.55343 0.32609 0.99367 0.0
C398 C 0.51981 0.32051 0.99735 0.0
C399 C 0.5119 0.29984 0.0299 0.0
C400 C 0.53759 0.28464 0.05878 0.0
C401 C 0.57126 0.29023 0.05529 0.0
H402 H 0.48585 0.29557 0.03271 0.0
H403 H 0.81562 0.35454 0.02544 0.0
H404 H 0.23825 0.87352 0.12381 0.0
H405 H 0.21464 0.88542 0.17914 0.0
H406 H 0.11437 0.87988 0.11556 0.0
H407 H 0.13767 0.86792 0.06047 0.0
H408 H 0.11929 0.93199 0.15273 0.0
H409 H 0.15044 0.81532 0.18369 0.0
H410 H 0.18975 0.76747 0.19484 0.0
H411 H 0.25132 0.80707 0.28632 0.0
H412 H 0.21256 0.85541 0.27534 0.0
H413 H 0.01297 0.89498 0.28994 0.0
H414 H 0.04711 0.89607 0.23958 0.0
H415 H 0.13692 0.90354 0.32242 0.0
H416 H 0.10276 0.90144 0.37351 0.0
H417 H 0.1443 0.85694 0.2793 0.0
H418 H 0.10798 0.97015 0.25364 0.0
H419 H 0.06716 0.01668 0.24303 0.0
H420 H 0.01431 0.98328 0.14201 0.0
H421 H 0.05459 0.93628 0.15225 0.0
C422 C 0.21118 0.87471 0.12174 0.0
C423 C 0.18984 0.86981 0.08773 0.0
C424 C 0.19773 0.8816 0.15331 0.0
C425 C 0.16272 0.8834 0.15154 0.0
C426 C 0.14144 0.87885 0.11749 0.0
C427 C 0.15482 0.87206 0.08599 0.0
C428 C 0.14789 0.88915 0.18528 0.0
C429 C 0.12464 0.91552 0.18037 0.0
C430 C 0.15562 0.86825 0.22169 0.0
C431 C 0.17884 0.83916 0.22838 0.0
C432 C 0.17251 0.81395 0.20597 0.0
C433 C 0.19466 0.78672 0.21229 0.0
C434 C 0.22308 0.78428 0.24118 0.0
C435 C 0.22934 0.80903 0.26389 0.0
C436 C 0.20729 0.83634 0.25764 0.0
C437 C 0.03999 0.89684 0.29751 0.0
C438 C 0.05519 0.8979 0.33577 0.0
C439 C 0.05946 0.89783 0.26858 0.0
C440 C 0.09456 0.90026 0.27712 0.0
C441 C 0.10986 0.90182 0.31518 0.0
C442 C 0.09031 0.90084 0.34424 0.0
C443 C 0.11509 0.89931 0.24648 0.0
C444 C 0.1394 0.87384 0.25193 0.0
C445 C 0.10827 0.921 0.21053 0.0
C446 C 0.08424 0.94956 0.20386 0.0
C447 C 0.08756 0.97261 0.22927 0.0
C448 C 0.06453 0.99909 0.2233 0.0
C449 C 0.03814 0.00291 0.19189 0.0
C450 C 0.03478 0.9803 0.16631 0.0
C451 C 0.05775 0.95377 0.17214 0.0
H452 H 0.02032 0.02341 0.18735 0.0
H453 H 0.24019 0.76318 0.24604 0.0
H454 H 0.64165 0.71708 0.68562 0.0
H455 H 0.61909 0.69329 0.74374 0.0
H456 H 0.63833 0.59484 0.72343 0.0
H457 H 0.6606 0.61841 0.66541 0.0
H458 H 0.57864 0.5973 0.74186 0.0
H459 H 0.68882 0.6298 0.79399 0.0
H460 H 0.73575 0.66804 0.80414 0.0
H461 H 0.67391 0.72977 0.85144 0.0
H462 H 0.62644 0.69212 0.84106 0.0
H463 H 0.59446 0.53928 0.96312 0.0
H464 H 0.61822 0.56394 0.90655 0.0
H465 H 0.51972 0.60083 0.84858 0.0
H466 H 0.4959 0.57692 0.90559 0.0
H467 H 0.62022 0.62779 0.8701 0.0
H468 H 0.51484 0.59421 0.75057 0.0
H469 H 0.4731 0.55068 0.74115 0.0
H470 H 0.53318 0.48238 0.83125 0.0
H471 H 0.57561 0.52521 0.84067 0.0
C472 C 0.64133 0.69038 0.69378 0.0
C473 C 0.6528 0.66966 0.6708 0.0
C474 C 0.6284 0.67678 0.72699 0.0
C475 C 0.6271 0.64221 0.73815 0.0
C476 C 0.6388 0.62155 0.71535 0.0
C477 C 0.65151 0.63509 0.68214 0.0
C478 C 0.61334 0.62736 0.77332 0.0
C479 C 0.58765 0.60411 0.76985 0.0
C480 C 0.62548 0.63566 0.81008 0.0
C481 C 0.65397 0.65833 0.81637 0.0
C482 C 0.68514 0.65167 0.80626 0.0
C483 C 0.71186 0.67321 0.81211 0.0
C484 C 0.70778 0.70136 0.82832 0.0
C485 C 0.67701 0.70798 0.83882 0.0
C486 C 0.6502 0.68654 0.83299 0.0
C487 C 0.57793 0.55314 0.93872 0.0
C488 C 0.54337 0.55648 0.93926 0.0
C489 C 0.59153 0.56707 0.90623 0.0
C490 C 0.57075 0.58413 0.87324 0.0
C491 C 0.53621 0.58753 0.87359 0.0
C492 C 0.52265 0.57386 0.90625 0.0
C493 C 0.58525 0.59817 0.83844 0.0
C494 C 0.61104 0.62123 0.84201 0.0
C495 C 0.57371 0.58911 0.80194 0.0
C496 C 0.5482 0.56315 0.79669 0.0
C497 C 0.51917 0.56989 0.76835 0.0
C498 C 0.49541 0.54532 0.76297 0.0
C499 C 0.50041 0.51383 0.7857 0.0
C500 C 0.52925 0.50682 0.81379 0.0
C501 C 0.55315 0.53127 0.81919 0.0
H502 H 0.48199 0.49484 0.78147 0.0
H503 H 0.7285 0.71801 0.83283 0.0
H504 H 0.86953 0.13033 0.10731 0.0
H505 H 0.89527 0.10703 0.17326 0.0
H506 H 0.79762 0.10231 0.20766 0.0
H507 H 0.7715 0.12541 0.14135 0.0
H508 H 0.84346 0.131 0.25573 0.0
H509 H 0.83878 0.03202 0.20026 0.0
H510 H 0.84806 0.99698 0.15307 0.0
H511 H 0.95477 0.0084 0.18152 0.0
H512 H 0.94613 0.04399 0.22844 0.0
H513 H 0.90546 0.03727 0.44374 0.0
H514 H 0.8742 0.05778 0.3791 0.0
H515 H 0.96712 0.06578 0.33396 0.0
H516 H 0.99855 0.04631 0.39857 0.0
H517 H 0.92034 0.03258 0.29209 0.0
H518 H 0.92721 0.13541 0.33884 0.0
H519 H 0.92081 0.17771 0.37883 0.0
H520 H 0.81425 0.16272 0.36396 0.0
H521 H 0.82003 0.12029 0.32383 0.0
C522 C 0.8534 0.12377 0.1287 0.0
C523 C 0.81842 0.12956 0.11904 0.0
C524 C 0.86818 0.11045 0.16641 0.0
C525 C 0.84831 0.10252 0.19524 0.0
C526 C 0.81338 0.10816 0.18576 0.0
C527 C 0.79853 0.12148 0.14796 0.0
C528 C 0.86437 0.0903 0.2357 0.0
C529 C 0.85965 0.10901 0.26391 0.0
C530 C 0.88648 0.06233 0.24593 0.0
C531 C 0.89176 0.04093 0.21767 0.0
C532 C 0.86421 0.02731 0.19622 0.0
C533 C 0.86936 0.00731 0.16955 0.0
C534 C 0.90198 1.00054 0.16423 0.0
C535 C 0.92952 0.01371 0.18563 0.0
C536 C 0.92451 0.03378 0.2123 0.0
C537 C 0.91929 0.04416 0.42028 0.0
C538 C 0.9545 0.04047 0.42646 0.0
C539 C 0.90138 0.05571 0.38329 0.0
C540 C 0.91838 0.0634 0.35177 0.0
C541 C 0.95352 0.05992 0.35789 0.0
C542 C 0.97142 0.04873 0.39486 0.0
C543 C 0.89953 0.07343 0.31206 0.0
C544 C 0.90373 0.05427 0.28403 0.0
C545 C 0.8773 0.10124 0.30181 0.0
C546 C 0.8741 0.12443 0.32871 0.0
C547 C 0.90248 0.14075 0.3446 0.0
C548 C 0.89892 0.16498 0.36698 0.0
C549 C 0.8671 0.17304 0.37371 0.0
C550 C 0.83884 0.15656 0.35855 0.0
C551 C 0.84224 0.13245 0.33596 0.0
H552 H 0.86436 0.19194 0.39087 0.0
H553 H 0.90591 0.98503 0.14359 0.0
H554 H 0.37158 0.28534 0.55313 0.0
H555 H 0.38981 0.30454 0.61446 0.0
H556 H 0.36844 0.40574 0.55769 0.0
H557 H 0.35091 0.38658 0.49591 0.0
H558 H 0.42393 0.40232 0.61293 0.0
H559 H 0.31131 0.36253 0.6052 0.0
H560 H 0.26631 0.32231 0.59472 0.0
H561 H 0.31848 0.252 0.6891 0.0
H562 H 0.36407 0.29165 0.69977 0.0
H563 H 0.40333 0.46371 0.78545 0.0
H564 H 0.39896 0.44928 0.72088 0.0
H565 H 0.41674 0.34615 0.77178 0.0
H566 H 0.42025 0.36043 0.83611 0.0
H567 H 0.36322 0.35279 0.71806 0.0
H568 H 0.47564 0.39523 0.72687 0.0
H569 H 0.51797 0.43784 0.73817 0.0
H570 H 0.4641 0.50559 0.6424 0.0
H571 H 0.42111 0.46357 0.63092 0.0
C572 C 0.37103 0.31169 0.5537 0.0
C573 C 0.35943 0.33444 0.51988 0.0
C574 C 0.38147 0.32266 0.58872 0.0
C575 C 0.37986 0.35655 0.59086 0.0
C576 C 0.36983 0.37948 0.55678 0.0
C577 C 0.35977 0.36852 0.52154 0.0
C578 C 0.38626 0.36759 0.62904 0.0
C579 C 0.41049 0.39172 0.63585 0.0
C580 C 0.36885 0.35368 0.65907 0.0
C581 C 0.34124 0.32995 0.65306 0.0
C582 C 0.31328 0.33842 0.62357 0.0
C583 C 0.28766 0.31573 0.6176 0.0
C584 C 0.28957 0.28459 0.64117 0.0
C585 C 0.31706 0.27612 0.67084 0.0
C586 C 0.34278 0.29869 0.67687 0.0
C587 C 0.40697 0.43808 0.78278 0.0
C588 C 0.4119 0.41314 0.81569 0.0
C589 C 0.4045 0.42983 0.7459 0.0
C590 C 0.40757 0.39658 0.7414 0.0
C591 C 0.41406 0.37192 0.77446 0.0
C592 C 0.41611 0.38009 0.81119 0.0
C593 C 0.4015 0.38695 0.70247 0.0
C594 C 0.37697 0.36324 0.69535 0.0
C595 C 0.41847 0.40148 0.67227 0.0
C596 C 0.445 0.42632 0.67823 0.0
C597 C 0.47274 0.41925 0.7083 0.0
C598 C 0.49685 0.44331 0.71476 0.0
C599 C 0.49368 0.47443 0.69108 0.0
C600 C 0.46651 0.48148 0.66075 0.0
C601 C 0.44228 0.45754 0.65422 0.0
H602 H 0.5123 0.49306 0.69623 0.0
H603 H 0.26972 0.26705 0.6365 0.0
H604 H 0.65824 0.61507 0.56436 0.0
H605 H 0.64408 0.589 0.50736 0.0
H606 H 0.64482 0.68426 0.43398 0.0
H607 H 0.65703 0.71089 0.491 0.0
H608 H 0.59501 0.64924 0.40449 0.0
H609 H 0.71224 0.62918 0.45102 0.0
H610 H 0.76307 0.61132 0.49905 0.0
H611 H 0.72666 0.51201 0.51707 0.0
H612 H 0.67537 0.52938 0.46953 0.0
H613 H 0.61603 0.5754 0.23846 0.0
H614 H 0.62195 0.60798 0.29082 0.0
H615 H 0.60928 0.51966 0.37179 0.0
H616 H 0.60246 0.4872 0.31978 0.0
H617 H 0.66657 0.55418 0.39453 0.0
H618 H 0.54828 0.57659 0.34621 0.0
H619 H 0.49881 0.59634 0.29691 0.0
H620 H 0.54005 0.69365 0.27936 0.0
H621 H 0.59004 0.67436 0.32818 0.0
C622 C 0.65481 0.63065 0.53617 0.0
C623 C 0.659 0.66514 0.53241 0.0
C624 C 0.64711 0.61561 0.50352 0.0
C625 C 0.64404 0.63456 0.4663 0.0
C626 C 0.64729 0.66907 0.46236 0.0
C627 C 0.65465 0.68421 0.49505 0.0
C628 C 0.63826 0.61815 0.43168 0.0
C629 C 0.61095 0.62876 0.40206 0.0
C630 C 0.6589 0.59127 0.4285 0.0
C631 C 0.68982 0.58066 0.45695 0.0
C632 C 0.71497 0.60358 0.46542 0.0
C633 C 0.74387 0.59353 0.49253 0.0
C634 C 0.74806 0.56056 0.51116 0.0
C635 C 0.72337 0.53755 0.50264 0.0
C636 C 0.69439 0.54747 0.47559 0.0
C637 C 0.61383 0.56304 0.26727 0.0
C638 C 0.6092 0.52858 0.27497 0.0
C639 C 0.61732 0.58168 0.29716 0.0
C640 C 0.61621 0.56618 0.33521 0.0
C641 C 0.6105 0.53205 0.3427 0.0
C642 C 0.6068 0.51351 0.31292 0.0
C643 C 0.62299 0.58483 0.3678 0.0
C644 C 0.65069 0.57472 0.39695 0.0
C645 C 0.603 0.6124 0.37015 0.0
C646 C 0.57309 0.62393 0.34056 0.0
C647 C 0.54699 0.60211 0.33155 0.0
C648 C 0.51881 0.61324 0.30375 0.0
C649 C 0.51633 0.64621 0.28496 0.0
C650 C 0.54203 0.66811 0.29391 0.0
C651 C 0.57028 0.6571 0.32166 0.0
H652 H 0.49442 0.65482 0.2636 0.0
H653 H 0.77045 0.55284 0.53215 0.0
H654 H 0.77307 0.14972 0.93438 0.0
H655 H 0.80009 0.13688 0.88208 0.0
H656 H 0.89494 0.12078 0.96012 0.0
H657 H 0.86901 0.13633 0.01119 0.0
H658 H 0.90683 0.15172 0.89716 0.0
H659 H 0.84145 0.05573 0.93049 0.0
H660 H 0.79011 0.02501 0.94118 0.0
H661 H 0.74524 0.0584 0.82286 0.0
H662 H 0.7962 0.08967 0.8116 0.0
H663 H 0.99036 0.0442 0.80217 0.0
H664 H 0.95736 0.06146 0.84714 0.0
H665 H 0.88827 0.11562 0.75186 0.0
H666 H 0.9221 0.1005 0.70662 0.0
H667 H 0.86095 0.06764 0.81833 0.0
H668 H 0.93118 0.1625 0.78784 0.0
H669 H 0.98568 0.1883 0.78057 0.0
H670 H 0.02468 0.15036 0.8996 0.0
H671 H 0.97052 0.12388 0.90738 0.0
C672 C 0.79977 0.14391 0.94027 0.0
C673 C 0.81867 0.1437 0.97731 0.0
C674 C 0.81512 0.13608 0.91043 0.0
C675 C 0.84949 0.12721 0.91724 0.0
C676 C 0.86838 0.12738 0.95403 0.0
C677 C 0.8533 0.13582 0.9835 0.0
C678 C 0.86627 0.11802 0.88633 0.0
C679 C 0.89677 0.13312 0.88025 0.0
C680 C 0.85312 0.09411 0.86363 0.0
C681 C 0.82247 0.07534 0.87033 0.0
C682 C 0.82053 0.05672 0.90684 0.0
C683 C 0.79152 0.03918 0.91299 0.0
C684 C 0.76439 0.03984 0.88275 0.0
C685 C 0.76625 0.05797 0.84627 0.0
C686 C 0.7952 0.07559 0.83998 0.0
C687 C 0.96843 0.06013 0.79062 0.0
C688 C 0.9591 0.07095 0.75056 0.0
C689 C 0.94941 0.06964 0.81641 0.0
C690 C 0.92042 0.08965 0.80265 0.0
C691 C 0.91045 0.09989 0.76286 0.0
C692 C 0.9298 0.09099 0.73707 0.0
C693 C 0.90135 0.101 0.83005 0.0
C694 C 0.87058 0.08636 0.83528 0.0
C695 C 0.91453 0.12475 0.8526 0.0
C696 C 0.94695 0.14094 0.84806 0.0
C697 C 0.95149 0.1594 0.81235 0.0
C698 C 0.98229 0.1742 0.80816 0.0
C699 C 0.00866 0.17089 0.83957 0.0
C700 C 0.00425 0.15286 0.87528 0.0
C701 C 0.9735 0.13798 0.8796 0.0
H702 H 0.03249 0.18237 0.83628 0.0
H703 H 0.74195 0.02623 0.88756 0.0
H704 H 0.34867 0.39048 0.38504 0.0
H705 H 0.3693 0.41424 0.32576 0.0
H706 H 0.3816 0.31612 0.30066 0.0
H707 H 0.36108 0.29214 0.36015 0.0
H708 H 0.43766 0.35615 0.29228 0.0
H709 H 0.31795 0.36285 0.25039 0.0
H710 H 0.25946 0.3776 0.25348 0.0
H711 H 0.28439 0.48057 0.24202 0.0
H712 H 0.34318 0.46638 0.23943 0.0
H713 H 0.47248 0.41367 0.10346 0.0
H714 H 0.44599 0.38485 0.15643 0.0
H715 H 0.42164 0.47897 0.18518 0.0
H716 H 0.44708 0.5078 0.13157 0.0
H717 H 0.37 0.43776 0.1895 0.0
H718 H 0.48878 0.43291 0.23617 0.0
H719 H 0.54813 0.42065 0.23416 0.0
H720 H 0.52641 0.31733 0.2388 0.0
H721 H 0.46676 0.32908 0.24024 0.0
C722 C 0.35578 0.37396 0.3669 0.0
C723 C 0.35322 0.33943 0.37724 0.0
C724 C 0.36738 0.38757 0.33294 0.0
C725 C 0.37681 0.36696 0.30867 0.0
C726 C 0.37439 0.33247 0.31893 0.0
C727 C 0.36245 0.31884 0.35275 0.0
C728 C 0.38967 0.38153 0.27294 0.0
C729 C 0.42267 0.37354 0.26947 0.0
C730 C 0.37043 0.4049 0.24368 0.0
C731 C 0.33505 0.41351 0.24506 0.0
C732 C 0.31103 0.38861 0.24885 0.0
C733 C 0.27781 0.39688 0.25045 0.0
C734 C 0.26823 0.42999 0.24804 0.0
C735 C 0.29185 0.45492 0.24392 0.0
C736 C 0.32512 0.44678 0.24235 0.0
C737 C 0.46104 0.42815 0.12078 0.0
C738 C 0.4617 0.46293 0.11334 0.0
C739 C 0.44616 0.41169 0.15121 0.0
C740 C 0.43209 0.42974 0.17505 0.0
C741 C 0.43229 0.46451 0.1672 0.0
C742 C 0.44708 0.48094 0.13676 0.0
C743 C 0.41806 0.41256 0.20894 0.0
C744 C 0.38489 0.42012 0.21212 0.0
C745 C 0.4373 0.38915 0.23819 0.0
C746 C 0.47324 0.38191 0.23791 0.0
C747 C 0.49661 0.4076 0.2365 0.0
C748 C 0.53031 0.40075 0.23549 0.0
C749 C 0.54101 0.36824 0.23625 0.0
C750 C 0.51806 0.34251 0.23816 0.0
C751 C 0.48431 0.34924 0.23909 0.0
H752 H 0.5671 0.36298 0.23545 0.0
H753 H 0.2425 0.43634 0.24928 0.0
H754 H 0.23005 0.88974 0.92083 0.0
H755 H 0.20235 0.91099 0.85488 0.0
H756 H 0.10567 0.90241 0.89165 0.0
H757 H 0.13309 0.87979 0.95734 0.0
H758 H 0.10347 0.87848 0.82718 0.0
H759 H 0.1422 0.97829 0.8711 0.0
H760 H 0.18343 0.01558 0.90004 0.0
H761 H 0.24154 0.01317 0.81019 0.0
H762 H 0.20088 0.97547 0.78099 0.0
H763 H 0.01152 0.96722 0.65257 0.0
H764 H 0.03718 0.94887 0.72021 0.0
H765 H 0.1359 0.96 0.68855 0.0
H766 H 0.10998 0.98051 0.62135 0.0
H767 H 0.13562 0.98351 0.7515 0.0
H768 H 0.09647 0.88058 0.70967 0.0
H769 H 0.05411 0.84314 0.68264 0.0
H770 H 0.99482 0.85335 0.76921 0.0
H771 H 0.03684 0.89056 0.79705 0.0
C772 C 0.20288 0.89223 0.91486 0.0
C773 C 0.1838 0.88308 0.9444 0.0
C774 C 0.18709 0.90472 0.87721 0.0
C775 C 0.15194 0.90867 0.86839 0.0
C776 C 0.13283 0.8997 0.89782 0.0
C777 C 0.14858 0.88707 0.93545 0.0
C778 C 0.13503 0.92111 0.82822 0.0
C779 C 0.1102 0.90167 0.81078 0.0
C780 C 0.14418 0.95108 0.80661 0.0
C781 C 0.16865 0.9738 0.82407 0.0
C782 C 0.16391 0.98549 0.85768 0.0
C783 C 0.18715 0.00675 0.8741 0.0
C784 C 0.21513 0.01667 0.85702 0.0
C785 C 0.21988 0.00543 0.82342 0.0
C786 C 0.19673 0.98414 0.8069 0.0
C787 C 0.03868 0.96571 0.66032 0.0
C788 C 0.05898 0.97498 0.63224 0.0
C789 C 0.05334 0.95498 0.69879 0.0
C790 C 0.08853 0.95237 0.70944 0.0
C791 C 0.10873 0.9617 0.68107 0.0
C792 C 0.09402 0.97318 0.64276 0.0
C793 C 0.10436 0.94065 0.75023 0.0
C794 C 0.12894 0.96028 0.76785 0.0
C795 C 0.09485 0.91093 0.77209 0.0
C796 C 0.06966 0.88854 0.75526 0.0
C797 C 0.07432 0.87496 0.72282 0.0
C798 C 0.0504 0.85379 0.70737 0.0
C799 C 0.02173 0.84611 0.72398 0.0
C800 C 0.017 0.85938 0.75631 0.0
C801 C 0.04091 0.88039 0.77204 0.0
H802 H 0.00324 0.82977 0.71189 0.0
H803 H 0.23309 0.03313 0.86978 0.0
loop_
_geom_bond_atom_site_label_1
_geom_bond_atom_site_label_2
_geom_bond_distance
_geom_bond_site_symmetry_2
_ccdc_geom_bond_type
H0 C3 0.931 . S
H1 C6 0.928 . S
H2 C8 0.930 . S
C3 H0 0.931 . S
C3 C4 1.413 1_554 S
C3 C5 1.360 . S
C4 C3 1.413 1_556 S
C4 C8 1.429 . S
C5 C3 1.360 . S
C5 C6 1.372 . S
C6 H1 0.928 . S
C6 C5 1.372 . S
C6 C7 1.404 . S
C7 C6 1.404 . S
C7 C8 1.391 1_554 S
C8 H2 0.930 . S
C8 C4 1.429 . S
C8 C7 1.391 1_556 S
H9 C12 0.931 . S
H10 C15 0.928 . S
H11 C17 0.930 . S
C12 H9 0.931 . S
C12 C13 1.413 . S
C12 C14 1.360 . S
C13 C12 1.413 . S
C13 C17 1.429 . S
C14 C12 1.360 . S
C14 C15 1.372 . S
C15 H10 0.928 . S
C15 C14 1.372 . S
C15 C16 1.404 . S
C16 C15 1.404 . S
C16 C17 1.391 . S
C17 H11 0.930 . S
C17 C13 1.429 . S
C17 C16 1.391 . S
H18 C21 0.931 . S
H19 C24 0.928 . S
H20 C26 0.930 1_556 S
C21 H18 0.931 . S
C21 C22 1.413 . S
C21 C23 1.360 . S
C22 C21 1.413 . S
C22 C26 1.429 . S
C23 C21 1.360 . S
C23 C24 1.372 . S
C24 H19 0.928 . S
C24 C23 1.372 . S
C24 C25 1.404 . S
C25 C24 1.404 . S
C25 C26 1.391 . S
C26 H20 0.930 1_554 S
C26 C22 1.429 . S
C26 C25 1.391 . S
H27 C30 0.931 . S
H28 C33 0.928 . S
H29 C35 0.930 . S
C30 H27 0.931 . S
C30 C31 1.413 . S
C30 C32 1.360 . S
C31 C30 1.413 . S
C31 C35 1.429 . S
C32 C30 1.360 . S
C32 C33 1.372 . S
C33 H28 0.928 . S
C33 C32 1.372 . S
C33 C34 1.404 . S
C34 C33 1.404 . S
C34 C35 1.391 . S
C35 H29 0.930 . S
C35 C31 1.429 . S
C35 C34 1.391 . S
Eu36 N65 2.600 . S
Eu36 N71 2.562 . S
Eu36 O80 2.462 . S
Eu36 O81 2.373 . S
Eu36 O83 2.432 . S
Eu36 O84 2.291 1_565 S
Eu36 O88 2.335 1_455 S
Eu36 O91 2.372 1_455 S
Eu36 C100 2.787 . S
C37 N38 1.365 . S
C37 C40 1.405 . S
C37 C44 1.448 . S
N38 C37 1.365 . S
N38 C41 1.296 1_655 S
N38 Eu47 2.600 . S
C39 C41 1.398 1_655 S
C39 C42 1.367 . S
C39 H59 0.931 1_655 S
C40 C37 1.405 . S
C40 C42 1.403 . S
C40 C46 1.439 . S
C41 N38 1.296 1_455 S
C41 C39 1.398 1_455 S
C41 H52 0.953 . S
C42 C39 1.367 . S
C42 C40 1.403 . S
C42 H63 0.929 . S
C43 C44 1.430 . S
C43 C45 1.387 . S
C43 C49 1.404 . S
C44 C37 1.448 . S
C44 C43 1.430 . S
C44 N48 1.351 . S
C45 C43 1.387 . S
C45 C46 1.374 . S
C45 H60 0.931 . S
C46 C40 1.439 . S
C46 C45 1.374 . S
C46 H61 0.931 . S
Eu47 N38 2.600 . S
Eu47 N48 2.562 . S
Eu47 O82 2.335 1_655 S
Eu47 O85 2.372 1_655 S
Eu47 O86 2.462 . S
Eu47 O87 2.373 . S
Eu47 O89 2.432 . S
Eu47 O90 2.291 1_545 S
Eu47 C111 2.787 . S
N48 C44 1.351 . S
N48 Eu47 2.562 . S
N48 C50 1.325 . S
C49 C43 1.404 . S
C49 C51 1.366 . S
C49 H57 0.930 . S
C50 N48 1.325 . S
C50 C51 1.416 . S
C50 H56 0.929 . S
C51 C49 1.366 . S
C51 C50 1.416 . S
C51 H53 0.930 . S
H52 C41 0.953 . S
H53 C51 0.930 . S
H54 C69 0.930 1_655 S
H55 C76 0.930 . S
H56 C50 0.929 . S
H57 C49 0.930 . S
H58 C72 0.929 . S
H59 C39 0.931 1_455 S
H60 C45 0.931 . S
H61 C46 0.931 . S
H62 C67 0.931 1_655 S
H63 C42 0.929 . S
H64 C75 0.930 . S
N65 Eu36 2.600 . S
N65 C66 1.365 . S
N65 C69 1.319 . S
C66 N65 1.365 . S
C66 C68 1.405 . S
C66 C74 1.448 . S
C67 H62 0.931 1_455 S
C67 C69 1.397 . S
C67 C70 1.367 . S
C68 C66 1.405 . S
C68 C70 1.403 . S
C68 C101 1.439 . S
C69 H54 0.930 1_455 S
C69 N65 1.319 . S
C69 C67 1.397 . S
C70 C67 1.367 . S
C70 C68 1.403 . S
C70 H77 0.929 . S
N71 Eu36 2.562 . S
N71 C72 1.325 . S
N71 C74 1.351 . S
C72 H58 0.929 . S
C72 N71 1.325 . S
C72 C76 1.416 . S
C73 C74 1.430 . S
C73 C75 1.404 . S
C73 C102 1.387 . S
C74 C66 1.448 . S
C74 N71 1.351 . S
C74 C73 1.430 . S
C75 H64 0.930 . S
C75 C73 1.404 . S
C75 C76 1.366 . S
C76 H55 0.930 . S
C76 C72 1.416 . S
C76 C75 1.366 . S
H77 C70 0.929 . S
H78 C101 0.931 . S
H79 C102 0.931 . S
O80 Eu36 2.462 . S
O80 C100 1.252 . S
O81 Eu36 2.373 . S
O81 C92 1.249 . S
O82 Eu47 2.335 1_455 S
O82 C92 1.264 1_545 S
O83 Eu36 2.432 . S
O83 C100 1.268 . S
O84 Eu36 2.291 1_545 S
O84 C99 1.255 . S
O85 Eu47 2.372 1_455 S
O85 C99 1.257 . S
O86 Eu47 2.462 . S
O86 C111 1.252 . S
O87 Eu47 2.373 . S
O87 C103 1.249 . S
O88 Eu36 2.335 1_655 S
O88 C103 1.264 1_565 S
O89 Eu47 2.432 . S
O89 C111 1.268 . S
O90 Eu47 2.291 1_565 S
O90 C110 1.255 . S
O91 Eu36 2.372 1_655 S
O91 C110 1.257 . S
C92 O81 1.249 . S
C92 O82 1.264 1_565 S
C93 C96 1.382 . S
C93 C98 1.390 . S
C93 C100 1.506 . S
C94 C95 1.398 . S
C94 C98 1.392 . S
C95 C94 1.398 . S
C95 C97 1.372 . S
C95 H112 0.931 . S
C96 C93 1.382 . S
C96 C97 1.390 . S
C96 H113 0.931 . S
C97 C95 1.372 . S
C97 C96 1.390 . S
C97 H114 0.929 . S
C98 C93 1.390 . S
C98 C94 1.392 . S
C98 H115 0.930 . S
C99 O84 1.255 . S
C99 O85 1.257 . S
C100 Eu36 2.787 . S
C100 O80 1.252 . S
C100 O83 1.268 . S
C100 C93 1.506 . S
C101 C68 1.439 . S
C101 H78 0.931 . S
C101 C102 1.374 . S
C102 C73 1.387 . S
C102 H79 0.931 . S
C102 C101 1.374 . S
C103 O87 1.249 . S
C103 O88 1.264 1_545 S
C104 C107 1.382 . S
C104 C108 1.390 . S
C104 C111 1.506 . S
C105 C106 1.398 . S
C105 C108 1.392 . S
C106 C105 1.398 . S
C106 C109 1.372 . S
C106 H116 0.931 . S
C107 C104 1.382 . S
C107 C109 1.390 . S
C107 H117 0.931 . S
C108 C104 1.390 . S
C108 C105 1.392 . S
C108 H118 0.930 . S
C109 C106 1.372 . S
C109 C107 1.390 . S
C109 H119 0.929 . S
C110 O90 1.255 . S
C110 O91 1.257 . S
C111 Eu47 2.787 . S
C111 O86 1.252 . S
C111 O89 1.268 . S
C111 C104 1.506 . S
H112 C95 0.931 . S
H113 C96 0.931 . S
H114 C97 0.929 . S
H115 C98 0.930 . S
H116 C106 0.931 . S
H117 C107 0.931 . S
H118 C108 0.930 . S
H119 C109 0.929 . S
Eu120 N149 2.600 . S
Eu120 N155 2.562 1_556 S
Eu120 O164 2.462 . S
Eu120 O165 2.373 1_556 S
Eu120 O167 2.432 . S
Eu120 O168 2.291 1_556 S
Eu120 O172 2.335 . S
Eu120 O175 2.380 . S
Eu120 C184 2.787 . S
C121 N122 1.365 . S
C121 C124 1.405 . S
C121 C128 1.448 . S
N122 C121 1.365 . S
N122 C125 1.319 . S
N122 Eu131 2.600 . S
C123 C125 1.397 . S
C123 C126 1.367 . S
C123 H143 0.931 . S
C124 C121 1.405 . S
C124 C126 1.403 . S
C124 C130 1.439 . S
C125 N122 1.319 . S
C125 C123 1.397 . S
C125 H136 0.930 . S
C126 C123 1.367 . S
C126 C124 1.403 . S
C126 H147 0.929 . S
C127 C128 1.430 . S
C127 C129 1.387 . S
C127 C133 1.404 . S
C128 C121 1.448 . S
C128 C127 1.430 . S
C128 N132 1.351 . S
C129 C127 1.387 . S
C129 C130 1.374 . S
C129 H144 0.931 . S
C130 C124 1.439 . S
C130 C129 1.374 . S
C130 H145 0.931 . S
Eu131 N122 2.600 . S
Eu131 N132 2.562 . S
Eu131 O166 2.335 . S
Eu131 O169 2.372 . S
Eu131 O170 2.462 . S
Eu131 O171 2.373 1_554 S
Eu131 O173 2.432 . S
Eu131 O174 2.291 . S
Eu131 C195 2.787 . S
N132 C128 1.351 . S
N132 Eu131 2.562 . S
N132 C134 1.325 . S
C133 C127 1.404 . S
C133 C135 1.366 . S
C133 H141 0.930 . S
C134 N132 1.325 . S
C134 C135 1.416 . S
C134 H140 0.929 . S
C135 C133 1.366 . S
C135 C134 1.416 . S
C135 H137 0.930 . S
H136 C125 0.930 . S
H137 C135 0.930 . S
H138 C153 0.930 . S
H139 C160 0.930 . S
H140 C134 0.929 . S
H141 C133 0.930 . S
H142 C156 0.929 . S
H143 C123 0.931 . S
H144 C129 0.931 . S
H145 C130 0.931 . S
H146 C151 0.931 . S
H147 C126 0.929 . S
H148 C159 0.930 . S
N149 Eu120 2.600 . S
N149 C150 1.365 1_556 S
N149 C153 1.319 . S
C150 N149 1.365 1_554 S
C150 C152 1.405 . S
C150 C158 1.448 . S
C151 H146 0.931 . S
C151 C153 1.397 . S
C151 C154 1.367 1_556 S
C152 C150 1.405 . S
C152 C154 1.403 . S
C152 C185 1.439 . S
C153 H138 0.930 . S
C153 N149 1.319 . S
C153 C151 1.397 . S
C154 C151 1.367 1_554 S
C154 C152 1.403 . S
C154 H161 0.929 . S
N155 Eu120 2.562 1_554 S
N155 C156 1.325 . S
N155 C158 1.351 . S
C156 H142 0.929 . S
C156 N155 1.325 . S
C156 C160 1.416 . S
C157 C158 1.430 . S
C157 C159 1.404 . S
C157 C186 1.387 . S
C158 C150 1.448 . S
C158 N155 1.351 . S
C158 C157 1.430 . S
C159 H148 0.930 . S
C159 C157 1.404 . S
C159 C160 1.366 . S
C160 H139 0.930 . S
C160 C156 1.416 . S
C160 C159 1.366 . S
H161 C154 0.929 . S
H162 C185 0.931 . S
H163 C186 0.931 . S
O164 Eu120 2.462 . S
O164 C184 1.252 . S
O165 Eu120 2.373 1_554 S
O165 C176 1.249 . S
O166 Eu131 2.335 . S
O166 C176 1.264 . S
O167 Eu120 2.432 . S
O167 C184 1.268 . S
O168 Eu120 2.291 1_554 S
O168 C183 1.255 . S
O169 Eu131 2.372 . S
O169 C183 1.257 . S
O170 Eu131 2.462 . S
O170 C195 1.252 . S
O171 Eu131 2.373 1_556 S
O171 C187 1.249 . S
O172 Eu120 2.335 . S
O172 C187 1.264 . S
O173 Eu131 2.432 . S
O173 C195 1.268 . S
O174 Eu131 2.291 . S
O174 C194 1.255 . S
O175 Eu120 2.380 . S
O175 C194 1.239 1_556 S
C176 O165 1.249 . S
C176 O166 1.264 . S
C177 C180 1.382 . S
C177 C182 1.390 . S
C177 C184 1.506 . S
C178 C179 1.398 . S
C178 C182 1.392 . S
C179 C178 1.398 . S
C179 C181 1.372 . S
C179 H196 0.931 . S
C180 C177 1.382 . S
C180 C181 1.390 . S
C180 H197 0.931 . S
C181 C179 1.372 . S
C181 C180 1.390 . S
C181 H198 0.929 . S
C182 C177 1.390 . S
C182 C178 1.392 . S
C182 H199 0.930 . S
C183 O168 1.255 . S
C183 O169 1.257 . S
C184 Eu120 2.787 . S
C184 O164 1.252 . S
C184 O167 1.268 . S
C184 C177 1.506 . S
C185 C152 1.439 . S
C185 H162 0.931 . S
C185 C186 1.374 . S
C186 C157 1.387 . S
C186 H163 0.931 . S
C186 C185 1.374 . S
C187 O171 1.249 . S
C187 O172 1.264 . S
C188 C191 1.382 . S
C188 C192 1.390 . S
C188 C195 1.506 . S
C189 C190 1.398 . S
C189 C192 1.392 . S
C190 C189 1.398 . S
C190 C193 1.372 . S
C190 H200 0.931 . S
C191 C188 1.382 . S
C191 C193 1.390 . S
C191 H201 0.931 . S
C192 C188 1.390 . S
C192 C189 1.392 . S
C192 H202 0.930 . S
C193 C190 1.372 . S
C193 C191 1.390 . S
C193 H203 0.929 . S
C194 O174 1.255 . S
C194 O175 1.239 1_554 S
C195 Eu131 2.787 . S
C195 O170 1.252 . S
C195 O173 1.268 . S
C195 C188 1.506 . S
H196 C179 0.931 . S
H197 C180 0.931 . S
H198 C181 0.929 . S
H199 C182 0.930 . S
H200 C190 0.931 . S
H201 C191 0.931 . S
H202 C192 0.930 . S
H203 C193 0.929 . S
H204 C222 0.951 . S
H205 C224 0.951 . S
H206 C226 0.950 . S
H207 C227 0.950 . S
H208 C229 0.950 . S
H209 C232 0.950 . S
H210 C233 0.950 . S
H211 C235 0.950 . S
H212 C236 0.950 . S
H213 C237 0.951 . S
H214 C239 0.951 . S
H215 C241 0.950 . S
H216 C242 0.950 . S
H217 C244 0.950 . S
H218 C247 0.950 . S
H219 C248 0.950 . S
H220 C250 0.950 . S
H221 C251 0.950 . S
C222 H204 0.951 . S
C222 C223 1.366 . S
C222 C224 1.388 . S
C223 C222 1.366 . S
C223 C227 1.385 . S
C224 H205 0.951 . S
C224 C222 1.388 . S
C224 C225 1.366 . S
C225 C224 1.366 . S
C225 C226 1.414 . S
C225 C228 1.499 . S
C226 H206 0.950 . S
C226 C225 1.414 . S
C226 C227 1.374 . S
C227 H207 0.950 . S
C227 C223 1.385 . S
C227 C226 1.374 . S
C228 C225 1.499 . S
C228 C229 1.373 . S
C228 C230 1.389 . S
C229 H208 0.950 . S
C229 C228 1.373 . S
C229 C245 1.377 . S
C230 C228 1.389 . S
C230 C231 1.524 . S
C230 C244 1.377 . S
C231 C230 1.524 . S
C231 C232 1.397 . S
C231 C236 1.363 . S
C232 H209 0.950 . S
C232 C231 1.397 . S
C232 C233 1.334 . S
C233 H210 0.950 . S
C233 C232 1.334 . S
C233 C234 1.287 . S
C234 C233 1.287 . S
C234 C235 1.524 . S
C234 H253 0.913 . S
C235 H211 0.950 . S
C235 C234 1.524 . S
C235 C236 1.415 . S
C236 H212 0.950 . S
C236 C231 1.363 . S
C236 C235 1.415 . S
C237 H213 0.951 . S
C237 C238 1.366 . S
C237 C239 1.388 . S
C238 C237 1.366 . S
C238 C242 1.385 . S
C239 H214 0.951 . S
C239 C237 1.388 . S
C239 C240 1.366 . S
C240 C239 1.366 . S
C240 C241 1.414 . S
C240 C243 1.499 . S
C241 H215 0.950 . S
C241 C240 1.414 . S
C241 C242 1.374 . S
C242 H216 0.950 . S
C242 C238 1.385 . S
C242 C241 1.374 . S
C243 C240 1.499 . S
C243 C244 1.373 . S
C243 C245 1.389 . S
C244 H217 0.950 . S
C244 C230 1.377 . S
C244 C243 1.373 . S
C245 C229 1.377 . S
C245 C243 1.389 . S
C245 C246 1.524 . S
C246 C245 1.524 . S
C246 C247 1.397 . S
C246 C251 1.363 . S
C247 H218 0.950 . S
C247 C246 1.397 . S
C247 C248 1.334 . S
C248 H219 0.950 . S
C248 C247 1.334 . S
C248 C249 1.287 . S
C249 C248 1.287 . S
C249 C250 1.524 . S
C249 H252 0.999 . S
C250 H220 0.950 . S
C250 C249 1.524 . S
C250 C251 1.415 . S
C251 H221 0.950 . S
C251 C246 1.363 . S
C251 C250 1.415 . S
H252 C249 0.999 . S
H253 C234 0.913 . S
H254 C272 0.951 . S
H255 C274 0.951 . S
H256 C276 0.950 . S
H257 C277 0.950 . S
H258 C279 0.950 . S
H259 C282 0.950 . S
H260 C283 0.950 . S
H261 C285 0.950 . S
H262 C286 0.950 . S
H263 C287 0.951 . S
H264 C289 0.951 . S
H265 C291 0.950 . S
H266 C292 0.950 . S
H267 C294 0.950 1_556 S
H268 C297 0.950 . S
H269 C298 0.950 . S
H270 C300 0.950 . S
H271 C301 0.950 . S
C272 H254 0.951 . S
C272 C273 1.366 . S
C272 C274 1.388 . S
C273 C272 1.366 . S
C273 C277 1.385 . S
C274 H255 0.951 . S
C274 C272 1.388 . S
C274 C275 1.366 . S
C275 C274 1.366 . S
C275 C276 1.414 . S
C275 C278 1.499 . S
C276 H256 0.950 . S
C276 C275 1.414 . S
C276 C277 1.374 . S
C277 H257 0.950 . S
C277 C273 1.385 . S
C277 C276 1.374 . S
C278 C275 1.499 . S
C278 C279 1.373 . S
C278 C280 1.389 . S
C279 H258 0.950 . S
C279 C278 1.373 . S
C279 C295 1.377 . S
C280 C278 1.389 . S
C280 C281 1.524 1_554 S
C280 C294 1.377 . S
C281 C280 1.524 1_556 S
C281 C282 1.397 . S
C281 C286 1.363 . S
C282 H259 0.950 . S
C282 C281 1.397 . S
C282 C283 1.334 . S
C283 H260 0.950 . S
C283 C282 1.334 . S
C283 C284 1.287 . S
C284 C283 1.287 . S
C284 C285 1.524 . S
C284 H303 0.913 . S
C285 H261 0.950 . S
C285 C284 1.524 . S
C285 C286 1.415 . S
C286 H262 0.950 . S
C286 C281 1.363 . S
C286 C285 1.415 . S
C287 H263 0.951 . S
C287 C288 1.366 . S
C287 C289 1.388 . S
C288 C287 1.366 . S
C288 C292 1.385 . S
C289 H264 0.951 . S
C289 C287 1.388 . S
C289 C290 1.366 . S
C290 C289 1.366 . S
C290 C291 1.414 . S
C290 C293 1.499 . S
C291 H265 0.950 . S
C291 C290 1.414 . S
C291 C292 1.374 . S
C292 H266 0.950 . S
C292 C288 1.385 . S
C292 C291 1.374 . S
C293 C290 1.499 . S
C293 C294 1.373 . S
C293 C295 1.389 . S
C294 H267 0.950 1_554 S
C294 C280 1.377 . S
C294 C293 1.373 . S
C295 C279 1.377 . S
C295 C293 1.389 . S
C295 C296 1.524 . S
C296 C295 1.524 . S
C296 C297 1.397 . S
C296 C301 1.363 . S
C297 H268 0.950 . S
C297 C296 1.397 . S
C297 C298 1.334 . S
C298 H269 0.950 . S
C298 C297 1.334 . S
C298 C299 1.287 . S
C299 C298 1.287 . S
C299 C300 1.524 . S
C299 H302 0.999 . S
C300 H270 0.950 . S
C300 C299 1.524 . S
C300 C301 1.415 . S
C301 H271 0.950 . S
C301 C296 1.363 . S
C301 C300 1.415 . S
H302 C299 0.999 . S
H303 C284 0.913 . S
H304 C322 0.951 . S
H305 C324 0.951 . S
H306 C326 0.950 . S
H307 C327 0.950 . S
H308 C329 0.950 . S
H309 C332 0.950 . S
H310 C333 0.950 . S
H311 C335 0.950 . S
H312 C336 0.950 . S
H313 C337 0.951 . S
H314 C339 0.951 . S
H315 C341 0.950 . S
H316 C342 0.950 . S
H317 C344 0.950 . S
H318 C347 0.950 . S
H319 C348 0.950 . S
H320 C350 0.950 . S
H321 C351 0.950 . S
C322 H304 0.951 . S
C322 C323 1.366 . S
C322 C324 1.388 . S
C323 C322 1.366 . S
C323 C327 1.385 . S
C324 H305 0.951 . S
C324 C322 1.388 . S
C324 C325 1.366 . S
C325 C324 1.366 . S
C325 C326 1.414 . S
C325 C328 1.499 . S
C326 H306 0.950 . S
C326 C325 1.414 . S
C326 C327 1.374 . S
C327 H307 0.950 . S
C327 C323 1.385 . S
C327 C326 1.374 . S
C328 C325 1.499 . S
C328 C329 1.373 . S
C328 C330 1.389 . S
C329 H308 0.950 . S
C329 C328 1.373 . S
C329 C345 1.377 . S
C330 C328 1.389 . S
C330 C331 1.524 . S
C330 C344 1.377 . S
C331 C330 1.524 . S
C331 C332 1.397 . S
C331 C336 1.363 . S
C332 H309 0.950 . S
C332 C331 1.397 . S
C332 C333 1.334 . S
C333 H310 0.950 . S
C333 C332 1.334 . S
C333 C334 1.287 . S
C334 C333 1.287 . S
C334 C335 1.524 . S
C334 H353 0.913 . S
C335 H311 0.950 . S
C335 C334 1.524 . S
C335 C336 1.415 . S
C336 H312 0.950 . S
C336 C331 1.363 . S
C336 C335 1.415 . S
C337 H313 0.951 . S
C337 C338 1.366 . S
C337 C339 1.388 . S
C338 C337 1.366 . S
C338 C342 1.385 . S
C339 H314 0.951 . S
C339 C337 1.388 . S
C339 C340 1.366 . S
C340 C339 1.366 . S
C340 C341 1.414 . S
C340 C343 1.499 . S
C341 H315 0.950 . S
C341 C340 1.414 . S
C341 C342 1.374 . S
C342 H316 0.950 . S
C342 C338 1.385 . S
C342 C341 1.374 . S
C343 C340 1.499 . S
C343 C344 1.373 . S
C343 C345 1.389 . S
C344 H317 0.950 . S
C344 C330 1.377 . S
C344 C343 1.373 . S
C345 C329 1.377 . S
C345 C343 1.389 . S
C345 C346 1.524 . S
C346 C345 1.524 . S
C346 C347 1.397 . S
C346 C351 1.363 . S
C347 H318 0.950 . S
C347 C346 1.397 . S
C347 C348 1.334 . S
C348 H319 0.950 . S
C348 C347 1.334 . S
C348 C349 1.287 . S
C349 C348 1.287 . S
C349 C350 1.524 . S
C349 H352 0.999 . S
C350 H320 0.950 . S
C350 C349 1.524 . S
C350 C351 1.415 . S
C351 H321 0.950 . S
C351 C346 1.363 . S
C351 C350 1.415 . S
H352 C349 0.999 . S
H353 C334 0.913 . S
H354 C372 0.933 1_556 S
H355 C374 0.941 1_556 S
H356 C376 0.950 . S
H357 C377 0.950 . S
H358 C379 0.950 . S
H359 C382 0.950 . S
H360 C383 0.950 . S
H361 C385 0.950 . S
H362 C386 0.950 . S
H363 C387 0.951 . S
H364 C389 0.951 . S
H365 C391 0.950 . S
H366 C392 0.950 . S
H367 C394 0.950 . S
H368 C397 0.950 1_556 S
H369 C398 0.950 1_556 S
H370 C400 0.950 . S
H371 C401 0.950 . S
C372 H354 0.933 1_554 S
C372 C373 1.379 . S
C372 C374 1.389 . S
C373 C372 1.379 . S
C373 C377 1.385 . S
C374 H355 0.941 1_554 S
C374 C372 1.389 . S
C374 C375 1.378 . S
C375 C374 1.378 . S
C375 C376 1.414 . S
C375 C378 1.499 . S
C376 H356 0.950 . S
C376 C375 1.414 . S
C376 C377 1.374 . S
C377 H357 0.950 . S
C377 C373 1.385 . S
C377 C376 1.374 . S
C378 C375 1.499 . S
C378 C379 1.373 . S
C378 C380 1.389 . S
C379 H358 0.950 . S
C379 C378 1.373 . S
C379 C395 1.377 . S
C380 C378 1.389 . S
C380 C381 1.524 . S
C380 C394 1.377 . S
C381 C380 1.524 . S
C381 C382 1.397 . S
C381 C386 1.363 1_554 S
C382 H359 0.950 . S
C382 C381 1.397 . S
C382 C383 1.334 . S
C383 H360 0.950 . S
C383 C382 1.334 . S
C383 C384 1.287 . S
C384 C383 1.287 . S
C384 C385 1.524 1_554 S
C384 H403 0.913 . S
C385 H361 0.950 . S
C385 C384 1.524 1_556 S
C385 C386 1.415 . S
C386 H362 0.950 . S
C386 C381 1.363 1_556 S
C386 C385 1.415 . S
C387 H363 0.951 . S
C387 C388 1.366 . S
C387 C389 1.388 . S
C388 C387 1.366 . S
C388 C392 1.385 1_554 S
C389 H364 0.951 . S
C389 C387 1.388 . S
C389 C390 1.366 . S
C390 C389 1.366 . S
C390 C391 1.414 1_554 S
C390 C393 1.499 . S
C391 H365 0.950 . S
C391 C390 1.414 1_556 S
C391 C392 1.374 . S
C392 H366 0.950 . S
C392 C388 1.385 1_556 S
C392 C391 1.374 . S
C393 C390 1.499 . S
C393 C394 1.373 . S
C393 C395 1.389 . S
C394 H367 0.950 . S
C394 C380 1.377 . S
C394 C393 1.373 . S
C395 C379 1.377 . S
C395 C393 1.389 . S
C395 C396 1.524 . S
C396 C395 1.524 . S
C396 C397 1.397 . S
C396 C401 1.363 . S
C397 H368 0.950 1_554 S
C397 C396 1.397 . S
C397 C398 1.334 . S
C398 H369 0.950 1_554 S
C398 C397 1.334 . S
C398 C399 1.287 . S
C399 C398 1.287 . S
C399 C400 1.524 . S
C399 H402 0.999 . S
C400 H370 0.950 . S
C400 C399 1.524 . S
C400 C401 1.415 . S
C401 H371 0.950 . S
C401 C396 1.363 . S
C401 C400 1.415 . S
H402 C399 0.999 . S
H403 C384 0.913 . S
H404 C422 0.951 . S
H405 C424 0.951 . S
H406 C426 0.950 . S
H407 C427 0.950 . S
H408 C429 0.950 . S
H409 C432 0.950 . S
H410 C433 0.950 . S
H411 C435 0.950 . S
H412 C436 0.950 . S
H413 C437 0.951 . S
H414 C439 0.951 . S
H415 C441 0.950 . S
H416 C442 0.950 . S
H417 C444 0.950 . S
H418 C447 0.950 . S
H419 C448 0.950 . S
H420 C450 0.950 . S
H421 C451 0.950 . S
C422 H404 0.951 . S
C422 C423 1.366 . S
C422 C424 1.388 . S
C423 C422 1.366 . S
C423 C427 1.385 . S
C424 H405 0.951 . S
C424 C422 1.388 . S
C424 C425 1.366 . S
C425 C424 1.366 . S
C425 C426 1.414 . S
C425 C428 1.499 . S
C426 H406 0.950 . S
C426 C425 1.414 . S
C426 C427 1.374 . S
C427 H407 0.950 . S
C427 C423 1.385 . S
C427 C426 1.374 . S
C428 C425 1.499 . S
C428 C429 1.373 . S
C428 C430 1.389 . S
C429 H408 0.950 . S
C429 C428 1.373 . S
C429 C445 1.377 . S
C430 C428 1.389 . S
C430 C431 1.524 . S
C430 C444 1.377 . S
C431 C430 1.524 . S
C431 C432 1.397 . S
C431 C436 1.363 . S
C432 H409 0.950 . S
C432 C431 1.397 . S
C432 C433 1.334 . S
C433 H410 0.950 . S
C433 C432 1.334 . S
C433 C434 1.287 . S
C434 C433 1.287 . S
C434 C435 1.524 . S
C434 H453 0.913 . S
C435 H411 0.950 . S
C435 C434 1.524 . S
C435 C436 1.415 . S
C436 H412 0.950 . S
C436 C431 1.363 . S
C436 C435 1.415 . S
C437 H413 0.951 . S
C437 C438 1.366 . S
C437 C439 1.388 . S
C438 C437 1.366 . S
C438 C442 1.385 . S
C439 H414 0.951 . S
C439 C437 1.388 . S
C439 C440 1.366 . S
C440 C439 1.366 . S
C440 C441 1.414 . S
C440 C443 1.499 . S
C441 H415 0.950 . S
C441 C440 1.414 . S
C441 C442 1.374 . S
C442 H416 0.950 . S
C442 C438 1.385 . S
C442 C441 1.374 . S
C443 C440 1.499 . S
C443 C444 1.373 . S
C443 C445 1.389 . S
C444 H417 0.950 . S
C444 C430 1.377 . S
C444 C443 1.373 . S
C445 C429 1.377 . S
C445 C443 1.389 . S
C445 C446 1.524 . S
C446 C445 1.524 . S
C446 C447 1.397 1_565 S
C446 C451 1.363 . S
C447 H418 0.950 . S
C447 C446 1.397 1_545 S
C447 C448 1.334 . S
C448 H419 0.950 . S
C448 C447 1.334 . S
C448 C449 1.287 . S
C449 C448 1.287 . S
C449 C450 1.524 . S
C449 H452 0.999 . S
C450 H420 0.950 . S
C450 C449 1.524 . S
C450 C451 1.415 1_545 S
C451 H421 0.950 . S
C451 C446 1.363 . S
C451 C450 1.415 1_565 S
H452 C449 0.999 . S
H453 C434 0.913 . S
H454 C472 0.951 . S
H455 C474 0.951 . S
H456 C476 0.950 . S
H457 C477 0.950 . S
H458 C479 0.950 . S
H459 C482 0.950 . S
H460 C483 0.950 . S
H461 C485 0.950 . S
H462 C486 0.950 . S
H463 C487 0.951 . S
H464 C489 0.951 . S
H465 C491 0.950 . S
H466 C492 0.950 . S
H467 C494 0.950 . S
H468 C497 0.950 . S
H469 C498 0.950 . S
H470 C500 0.950 . S
H471 C501 0.950 . S
C472 H454 0.951 . S
C472 C473 1.366 . S
C472 C474 1.388 . S
C473 C472 1.366 . S
C473 C477 1.385 . S
C474 H455 0.951 . S
C474 C472 1.388 . S
C474 C475 1.366 . S
C475 C474 1.366 . S
C475 C476 1.414 . S
C475 C478 1.499 . S
C476 H456 0.950 . S
C476 C475 1.414 . S
C476 C477 1.374 . S
C477 H457 0.950 . S
C477 C473 1.385 . S
C477 C476 1.374 . S
C478 C475 1.499 . S
C478 C479 1.373 . S
C478 C480 1.389 . S
C479 H458 0.950 . S
C479 C478 1.373 . S
C479 C495 1.377 . S
C480 C478 1.389 . S
C480 C481 1.524 . S
C480 C494 1.377 . S
C481 C480 1.524 . S
C481 C482 1.397 . S
C481 C486 1.363 . S
C482 H459 0.950 . S
C482 C481 1.397 . S
C482 C483 1.334 . S
C483 H460 0.950 . S
C483 C482 1.334 . S
C483 C484 1.287 . S
C484 C483 1.287 . S
C484 C485 1.524 . S
C484 H503 0.913 . S
C485 H461 0.950 . S
C485 C484 1.524 . S
C485 C486 1.415 . S
C486 H462 0.950 . S
C486 C481 1.363 . S
C486 C485 1.415 . S
C487 H463 0.951 . S
C487 C488 1.366 . S
C487 C489 1.388 . S
C488 C487 1.366 . S
C488 C492 1.385 . S
C489 H464 0.951 . S
C489 C487 1.388 . S
C489 C490 1.366 . S
C490 C489 1.366 . S
C490 C491 1.414 . S
C490 C493 1.499 . S
C491 H465 0.950 . S
C491 C490 1.414 . S
C491 C492 1.374 . S
C492 H466 0.950 . S
C492 C488 1.385 . S
C492 C491 1.374 . S
C493 C490 1.499 . S
C493 C494 1.373 . S
C493 C495 1.389 . S
C494 H467 0.950 . S
C494 C480 1.377 . S
C494 C493 1.373 . S
C495 C479 1.377 . S
C495 C493 1.389 . S
C495 C496 1.524 . S
C496 C495 1.524 . S
C496 C497 1.397 . S
C496 C501 1.363 . S
C497 H468 0.950 . S
C497 C496 1.397 . S
C497 C498 1.334 . S
C498 H469 0.950 . S
C498 C497 1.334 . S
C498 C499 1.287 . S
C499 C498 1.287 . S
C499 C500 1.524 . S
C499 H502 0.999 . S
C500 H470 0.950 . S
C500 C499 1.524 . S
C500 C501 1.415 . S
C501 H471 0.950 . S
C501 C496 1.363 . S
C501 C500 1.415 . S
H502 C499 0.999 . S
H503 C484 0.913 . S
H504 C522 0.951 . S
H505 C524 0.951 . S
H506 C526 0.950 . S
H507 C527 0.950 . S
H508 C529 0.950 . S
H509 C532 0.950 . S
H510 C533 0.950 . S
H511 C535 0.950 . S
H512 C536 0.940 1_545 S
H513 C537 0.951 . S
H514 C539 0.951 . S
H515 C541 0.950 . S
H516 C542 0.950 . S
H517 C544 0.950 . S
H518 C547 0.950 . S
H519 C548 0.950 . S
H520 C550 0.950 . S
H521 C551 0.950 . S
C522 H504 0.951 . S
C522 C523 1.366 . S
C522 C524 1.388 . S
C523 C522 1.366 . S
C523 C527 1.385 . S
C524 H505 0.951 . S
C524 C522 1.388 . S
C524 C525 1.366 . S
C525 C524 1.366 . S
C525 C526 1.414 . S
C525 C528 1.499 . S
C526 H506 0.950 . S
C526 C525 1.414 . S
C526 C527 1.374 . S
C527 H507 0.950 . S
C527 C523 1.385 . S
C527 C526 1.374 . S
C528 C525 1.499 . S
C528 C529 1.373 . S
C528 C530 1.389 . S
C529 H508 0.950 . S
C529 C528 1.373 . S
C529 C545 1.377 . S
C530 C528 1.389 . S
C530 C531 1.524 . S
C530 C544 1.377 . S
C531 C530 1.524 . S
C531 C532 1.397 . S
C531 C536 1.343 1_545 S
C532 H509 0.950 . S
C532 C531 1.397 . S
C532 C533 1.334 1_545 S
C533 H510 0.950 . S
C533 C532 1.334 1_565 S
C533 C534 1.287 . S
C534 C533 1.287 . S
C534 C535 1.524 . S
C534 H553 0.913 . S
C535 H511 0.950 . S
C535 C534 1.524 . S
C535 C536 1.446 . S
C536 H512 0.940 1_565 S
C536 C531 1.343 1_565 S
C536 C535 1.446 . S
C537 H513 0.951 . S
C537 C538 1.366 . S
C537 C539 1.388 . S
C538 C537 1.366 . S
C538 C542 1.385 . S
C539 H514 0.951 . S
C539 C537 1.388 . S
C539 C540 1.366 . S
C540 C539 1.366 . S
C540 C541 1.414 . S
C540 C543 1.499 . S
C541 H515 0.950 . S
C541 C540 1.414 . S
C541 C542 1.374 . S
C542 H516 0.950 . S
C542 C538 1.385 . S
C542 C541 1.374 . S
C543 C540 1.499 . S
C543 C544 1.373 . S
C543 C545 1.389 . S
C544 H517 0.950 . S
C544 C530 1.377 . S
C544 C543 1.373 . S
C545 C529 1.377 . S
C545 C543 1.389 . S
C545 C546 1.524 . S
C546 C545 1.524 . S
C546 C547 1.397 . S
C546 C551 1.363 . S
C547 H518 0.950 . S
C547 C546 1.397 . S
C547 C548 1.334 . S
C548 H519 0.950 . S
C548 C547 1.334 . S
C548 C549 1.287 . S
C549 C548 1.287 . S
C549 C550 1.524 . S
C549 H552 0.999 . S
C550 H520 0.950 . S
C550 C549 1.524 . S
C550 C551 1.415 . S
C551 H521 0.950 . S
C551 C546 1.363 . S
C551 C550 1.415 . S
H552 C549 0.999 . S
H553 C534 0.913 . S
H554 C572 0.951 . S
H555 C574 0.951 . S
H556 C576 0.950 . S
H557 C577 0.950 . S
H558 C579 0.950 . S
H559 C582 0.950 . S
H560 C583 0.950 . S
H561 C585 0.950 . S
H562 C586 0.950 . S
H563 C587 0.951 . S
H564 C589 0.951 . S
H565 C591 0.950 . S
H566 C592 0.950 . S
H567 C594 0.950 . S
H568 C597 0.950 . S
H569 C598 0.950 . S
H570 C600 0.950 . S
H571 C601 0.950 . S
C572 H554 0.951 . S
C572 C573 1.366 . S
C572 C574 1.388 . S
C573 C572 1.366 . S
C573 C577 1.385 . S
C574 H555 0.951 . S
C574 C572 1.388 . S
C574 C575 1.366 . S
C575 C574 1.366 . S
C575 C576 1.414 . S
C575 C578 1.499 . S
C576 H556 0.950 . S
C576 C575 1.414 . S
C576 C577 1.374 . S
C577 H557 0.950 . S
C577 C573 1.385 . S
C577 C576 1.374 . S
C578 C575 1.499 . S
C578 C579 1.373 . S
C578 C580 1.389 . S
C579 H558 0.950 . S
C579 C578 1.373 . S
C579 C595 1.377 . S
C580 C578 1.389 . S
C580 C581 1.524 . S
C580 C594 1.377 . S
C581 C580 1.524 . S
C581 C582 1.397 . S
C581 C586 1.363 . S
C582 H559 0.950 . S
C582 C581 1.397 . S
C582 C583 1.334 . S
C583 H560 0.950 . S
C583 C582 1.334 . S
C583 C584 1.287 . S
C584 C583 1.287 . S
C584 C585 1.524 . S
C584 H603 0.913 . S
C585 H561 0.950 . S
C585 C584 1.524 . S
C585 C586 1.415 . S
C586 H562 0.950 . S
C586 C581 1.363 . S
C586 C585 1.415 . S
C587 H563 0.951 . S
C587 C588 1.366 . S
C587 C589 1.388 . S
C588 C587 1.366 . S
C588 C592 1.385 . S
C589 H564 0.951 . S
C589 C587 1.388 . S
C589 C590 1.366 . S
C590 C589 1.366 . S
C590 C591 1.414 . S
C590 C593 1.499 . S
C591 H565 0.950 . S
C591 C590 1.414 . S
C591 C592 1.374 . S
C592 H566 0.950 . S
C592 C588 1.385 . S
C592 C591 1.374 . S
C593 C590 1.499 . S
C593 C594 1.373 . S
C593 C595 1.389 . S
C594 H567 0.950 . S
C594 C580 1.377 . S
C594 C593 1.373 . S
C595 C579 1.377 . S
C595 C593 1.389 . S
C595 C596 1.524 . S
C596 C595 1.524 . S
C596 C597 1.397 . S
C596 C601 1.363 . S
C597 H568 0.950 . S
C597 C596 1.397 . S
C597 C598 1.334 . S
C598 H569 0.950 . S
C598 C597 1.334 . S
C598 C599 1.287 . S
C599 C598 1.287 . S
C599 C600 1.524 . S
C599 H602 0.999 . S
C600 H570 0.950 . S
C600 C599 1.524 . S
C600 C601 1.415 . S
C601 H571 0.950 . S
C601 C596 1.363 . S
C601 C600 1.415 . S
H602 C599 0.999 . S
H603 C584 0.913 . S
H604 C622 0.951 . S
H605 C624 0.951 . S
H606 C626 0.950 . S
H607 C627 0.950 . S
H608 C629 0.950 . S
H609 C632 0.950 . S
H610 C633 0.950 . S
H611 C635 0.950 . S
H612 C636 0.950 . S
H613 C637 0.951 . S
H614 C639 0.951 . S
H615 C641 0.950 . S
H616 C642 0.950 . S
H617 C644 0.950 . S
H618 C647 0.950 . S
H619 C648 0.950 . S
H620 C650 0.950 . S
H621 C651 0.950 . S
C622 H604 0.951 . S
C622 C623 1.366 . S
C622 C624 1.388 . S
C623 C622 1.366 . S
C623 C627 1.385 . S
C624 H605 0.951 . S
C624 C622 1.388 . S
C624 C625 1.366 . S
C625 C624 1.366 . S
C625 C626 1.414 . S
C625 C628 1.499 . S
C626 H606 0.950 . S
C626 C625 1.414 . S
C626 C627 1.374 . S
C627 H607 0.950 . S
C627 C623 1.385 . S
C627 C626 1.374 . S
C628 C625 1.499 . S
C628 C629 1.373 . S
C628 C630 1.389 . S
C629 H608 0.950 . S
C629 C628 1.373 . S
C629 C645 1.377 . S
C630 C628 1.389 . S
C630 C631 1.524 . S
C630 C644 1.377 . S
C631 C630 1.524 . S
C631 C632 1.397 . S
C631 C636 1.363 . S
C632 H609 0.950 . S
C632 C631 1.397 . S
C632 C633 1.334 . S
C633 H610 0.950 . S
C633 C632 1.334 . S
C633 C634 1.287 . S
C634 C633 1.287 . S
C634 C635 1.524 . S
C634 H653 0.913 . S
C635 H611 0.950 . S
C635 C634 1.524 . S
C635 C636 1.415 . S
C636 H612 0.950 . S
C636 C631 1.363 . S
C636 C635 1.415 . S
C637 H613 0.951 . S
C637 C638 1.366 . S
C637 C639 1.388 . S
C638 C637 1.366 . S
C638 C642 1.385 . S
C639 H614 0.951 . S
C639 C637 1.388 . S
C639 C640 1.366 . S
C640 C639 1.366 . S
C640 C641 1.414 . S
C640 C643 1.499 . S
C641 H615 0.950 . S
C641 C640 1.414 . S
C641 C642 1.374 . S
C642 H616 0.950 . S
C642 C638 1.385 . S
C642 C641 1.374 . S
C643 C640 1.499 . S
C643 C644 1.373 . S
C643 C645 1.389 . S
C644 H617 0.950 . S
C644 C630 1.377 . S
C644 C643 1.373 . S
C645 C629 1.377 . S
C645 C643 1.389 . S
C645 C646 1.524 . S
C646 C645 1.524 . S
C646 C647 1.397 . S
C646 C651 1.363 . S
C647 H618 0.950 . S
C647 C646 1.397 . S
C647 C648 1.334 . S
C648 H619 0.950 . S
C648 C647 1.334 . S
C648 C649 1.287 . S
C649 C648 1.287 . S
C649 C650 1.524 . S
C649 H652 0.999 . S
C650 H620 0.950 . S
C650 C649 1.524 . S
C650 C651 1.415 . S
C651 H621 0.950 . S
C651 C646 1.363 . S
C651 C650 1.415 . S
H652 C649 0.999 . S
H653 C634 0.913 . S
H654 C672 0.951 . S
H655 C674 0.951 . S
H656 C676 0.950 . S
H657 C677 0.950 1_554 S
H658 C679 0.950 . S
H659 C682 0.950 . S
H660 C683 0.950 1_565 S
H661 C685 0.950 . S
H662 C686 0.950 . S
H663 C687 0.951 . S
H664 C689 0.951 . S
H665 C691 0.950 . S
H666 C692 0.950 . S
H667 C694 0.950 . S
H668 C697 0.950 . S
H669 C698 0.950 . S
H670 C700 0.950 . S
H671 C701 0.950 . S
C672 H654 0.951 . S
C672 C673 1.366 . S
C672 C674 1.388 . S
C673 C672 1.366 . S
C673 C677 1.385 . S
C674 H655 0.951 . S
C674 C672 1.388 . S
C674 C675 1.366 . S
C675 C674 1.366 . S
C675 C676 1.414 . S
C675 C678 1.499 . S
C676 H656 0.950 . S
C676 C675 1.414 . S
C676 C677 1.374 . S
C677 H657 0.950 1_556 S
C677 C673 1.385 . S
C677 C676 1.374 . S
C678 C675 1.499 . S
C678 C679 1.373 . S
C678 C680 1.389 . S
C679 H658 0.950 . S
C679 C678 1.373 . S
C679 C695 1.377 . S
C680 C678 1.389 . S
C680 C681 1.524 . S
C680 C694 1.377 . S
C681 C680 1.524 . S
C681 C682 1.397 . S
C681 C686 1.363 . S
C682 H659 0.950 . S
C682 C681 1.397 . S
C682 C683 1.334 . S
C683 H660 0.950 1_545 S
C683 C682 1.334 . S
C683 C684 1.287 . S
C684 C683 1.287 . S
C684 C685 1.524 . S
C684 H703 0.913 . S
C685 H661 0.950 . S
C685 C684 1.524 . S
C685 C686 1.415 . S
C686 H662 0.950 . S
C686 C681 1.363 . S
C686 C685 1.415 . S
C687 H663 0.951 . S
C687 C688 1.366 . S
C687 C689 1.388 . S
C688 C687 1.366 . S
C688 C692 1.385 . S
C689 H664 0.951 . S
C689 C687 1.388 . S
C689 C690 1.366 . S
C690 C689 1.366 . S
C690 C691 1.414 . S
C690 C693 1.499 . S
C691 H665 0.950 . S
C691 C690 1.414 . S
C691 C692 1.374 . S
C692 H666 0.950 . S
C692 C688 1.385 . S
C692 C691 1.374 . S
C693 C690 1.499 . S
C693 C694 1.373 . S
C693 C695 1.389 . S
C694 H667 0.950 . S
C694 C680 1.377 . S
C694 C693 1.373 . S
C695 C679 1.377 . S
C695 C693 1.389 . S
C695 C696 1.524 . S
C696 C695 1.524 . S
C696 C697 1.397 . S
C696 C701 1.363 . S
C697 H668 0.950 . S
C697 C696 1.397 . S
C697 C698 1.334 . S
C698 H669 0.950 . S
C698 C697 1.334 . S
C698 C699 1.287 . S
C699 C698 1.287 . S
C699 C700 1.524 . S
C699 H702 0.999 . S
C700 H670 0.950 . S
C700 C699 1.524 . S
C700 C701 1.415 . S
C701 H671 0.950 . S
C701 C696 1.363 . S
C701 C700 1.415 . S
H702 C699 0.999 . S
H703 C684 0.913 . S
H704 C722 0.951 . S
H705 C724 0.951 . S
H706 C726 0.950 . S
H707 C727 0.950 . S
H708 C729 0.950 . S
H709 C732 0.950 . S
H710 C733 0.950 . S
H711 C735 0.950 . S
H712 C736 0.950 . S
H713 C737 0.951 . S
H714 C739 0.951 . S
H715 C741 0.950 . S
H716 C742 0.950 . S
H717 C744 0.950 . S
H718 C747 0.950 . S
H719 C748 0.950 . S
H720 C750 0.950 . S
H721 C751 0.950 . S
C722 H704 0.951 . S
C722 C723 1.366 . S
C722 C724 1.388 . S
C723 C722 1.366 . S
C723 C727 1.385 . S
C724 H705 0.951 . S
C724 C722 1.388 . S
C724 C725 1.366 . S
C725 C724 1.366 . S
C725 C726 1.414 . S
C725 C728 1.499 . S
C726 H706 0.950 . S
C726 C725 1.414 . S
C726 C727 1.374 . S
C727 H707 0.950 . S
C727 C723 1.385 . S
C727 C726 1.374 . S
C728 C725 1.499 . S
C728 C729 1.373 . S
C728 C730 1.389 . S
C729 H708 0.950 . S
C729 C728 1.373 . S
C729 C745 1.377 . S
C730 C728 1.389 . S
C730 C731 1.524 . S
C730 C744 1.377 . S
C731 C730 1.524 . S
C731 C732 1.397 . S
C731 C736 1.363 . S
C732 H709 0.950 . S
C732 C731 1.397 . S
C732 C733 1.334 . S
C733 H710 0.950 . S
C733 C732 1.334 . S
C733 C734 1.287 . S
C734 C733 1.287 . S
C734 C735 1.524 . S
C734 H753 0.913 . S
C735 H711 0.950 . S
C735 C734 1.524 . S
C735 C736 1.415 . S
C736 H712 0.950 . S
C736 C731 1.363 . S
C736 C735 1.415 . S
C737 H713 0.951 . S
C737 C738 1.366 . S
C737 C739 1.388 . S
C738 C737 1.366 . S
C738 C742 1.385 . S
C739 H714 0.951 . S
C739 C737 1.388 . S
C739 C740 1.366 . S
C740 C739 1.366 . S
C740 C741 1.414 . S
C740 C743 1.499 . S
C741 H715 0.950 . S
C741 C740 1.414 . S
C741 C742 1.374 . S
C742 H716 0.950 . S
C742 C738 1.385 . S
C742 C741 1.374 . S
C743 C740 1.499 . S
C743 C744 1.373 . S
C743 C745 1.389 . S
C744 H717 0.950 . S
C744 C730 1.377 . S
C744 C743 1.373 . S
C745 C729 1.377 . S
C745 C743 1.389 . S
C745 C746 1.524 . S
C746 C745 1.524 . S
C746 C747 1.397 . S
C746 C751 1.363 . S
C747 H718 0.950 . S
C747 C746 1.397 . S
C747 C748 1.334 . S
C748 H719 0.950 . S
C748 C747 1.334 . S
C748 C749 1.287 . S
C749 C748 1.287 . S
C749 C750 1.524 . S
C749 H752 0.999 . S
C750 H720 0.950 . S
C750 C749 1.524 . S
C750 C751 1.415 . S
C751 H721 0.950 . S
C751 C746 1.363 . S
C751 C750 1.415 . S
H752 C749 0.999 . S
H753 C734 0.913 . S
H754 C772 0.951 . S
H755 C774 0.951 . S
H756 C776 0.950 . S
H757 C777 0.950 . S
H758 C779 0.950 . S
H759 C782 0.950 . S
H760 C783 0.950 . S
H761 C785 0.950 . S
H762 C786 0.950 . S
H763 C787 0.951 . S
H764 C789 0.951 . S
H765 C791 0.950 . S
H766 C792 0.950 . S
H767 C794 0.950 . S
H768 C797 0.950 . S
H769 C798 0.950 . S
H770 C800 0.950 . S
H771 C801 0.950 . S
C772 H754 0.951 . S
C772 C773 1.366 . S
C772 C774 1.388 . S
C773 C772 1.366 . S
C773 C777 1.385 . S
C774 H755 0.951 . S
C774 C772 1.388 . S
C774 C775 1.366 . S
C775 C774 1.366 . S
C775 C776 1.414 . S
C775 C778 1.499 . S
C776 H756 0.950 . S
C776 C775 1.414 . S
C776 C777 1.374 . S
C777 H757 0.950 . S
C777 C773 1.385 . S
C777 C776 1.374 . S
C778 C775 1.499 . S
C778 C779 1.373 . S
C778 C780 1.389 . S
C779 H758 0.950 . S
C779 C778 1.373 . S
C779 C795 1.377 . S
C780 C778 1.389 . S
C780 C781 1.524 . S
C780 C794 1.377 . S
C781 C780 1.524 . S
C781 C782 1.397 . S
C781 C786 1.363 . S
C782 H759 0.950 . S
C782 C781 1.397 . S
C782 C783 1.334 1_565 S
C783 H760 0.950 . S
C783 C782 1.334 1_545 S
C783 C784 1.287 . S
C784 C783 1.287 . S
C784 C785 1.524 . S
C784 H803 0.913 . S
C785 H761 0.950 . S
C785 C784 1.524 . S
C785 C786 1.415 1_545 S
C786 H762 0.950 . S
C786 C781 1.363 . S
C786 C785 1.415 1_565 S
C787 H763 0.951 . S
C787 C788 1.366 . S
C787 C789 1.388 . S
C788 C787 1.366 . S
C788 C792 1.385 . S
C789 H764 0.951 . S
C789 C787 1.388 . S
C789 C790 1.366 . S
C790 C789 1.366 . S
C790 C791 1.414 . S
C790 C793 1.499 . S
C791 H765 0.950 . S
C791 C790 1.414 . S
C791 C792 1.374 . S
C792 H766 0.950 . S
C792 C788 1.385 . S
C792 C791 1.374 . S
C793 C790 1.499 . S
C793 C794 1.373 . S
C793 C795 1.389 . S
C794 H767 0.950 . S
C794 C780 1.377 . S
C794 C793 1.373 . S
C795 C779 1.377 . S
C795 C793 1.389 . S
C795 C796 1.524 . S
C796 C795 1.524 . S
C796 C797 1.397 . S
C796 C801 1.363 . S
C797 H768 0.950 . S
C797 C796 1.397 . S
C797 C798 1.334 . S
C798 H769 0.950 . S
C798 C797 1.334 . S
C798 C799 1.287 . S
C799 C798 1.287 . S
C799 C800 1.524 . S
C799 H802 0.999 . S
C800 H770 0.950 . S
C800 C799 1.524 . S
C800 C801 1.415 . S
C801 H771 0.950 . S
C801 C796 1.363 . S
C801 C800 1.415 . S
H802 C799 0.999 . S
H803 C784 0.913 . S
C238 C99 1.551 . S
C223 C34 1.570 . S
C273 C7 1.554 . S
C288 C194 1.537 . S
C323 C16 1.569 . S
C338 C110 1.551 . S
C373 C25 1.552 . S
C388 C183 1.537 . S
C438 C94 1.374 . S
C423 C5 1.532 . S
C488 C187 1.567 . S
C473 C13 1.564 . S
C523 C23 1.541 . S
C538 C103 1.547 . S
C573 C32 1.525 . S
C588 C178 1.374 . S
C638 C189 1.371 . S
C623 C14 1.522 . S
C688 C105 1.373 . S
C673 C22 1.530 1_556 S
C738 C176 1.565 . S
C723 C31 1.563 . S
C773 C4 1.537 . S
C788 C92 1.544 . S
