# Generated by pormake.
# Topology pyr, (3,6)-cn, num edge types: 1
# Building blocks:
#     Node 0, Type 0, BuildingBlock: KAKCAD_clean_linker_0, # of connection points: 3
#     Node 1, Type 0, BuildingBlock: KAKCAD_clean_linker_0, # of connection points: 3
#     Node 2, Type 0, BuildingBlock: KAKCAD_clean_linker_0, # of connection points: 3
#     Node 3, Type 0, BuildingBlock: KAKCAD_clean_linker_0, # of connection points: 3
#     Node 4, Type 0, BuildingBlock: KAKCAD_clean_linker_0, # of connection points: 3
#     Node 5, Type 0, BuildingBlock: KAKCAD_clean_linker_0, # of connection points: 3
#     Node 6, Type 0, BuildingBlock: KAKCAD_clean_linker_0, # of connection points: 3
#     Node 7, Type 0, BuildingBlock: KAKCAD_clean_linker_0, # of connection points: 3
#     Node 8, Type 1, BuildingBlock: BETDEL_clean_sbu_0, # of connection points: 6
#     Node 9, Type 1, BuildingBlock: BETDEL_clean_sbu_0, # of connection points: 6
#     Node 10, Type 1, BuildingBlock: BETDEL_clean_sbu_0, # of connection points: 6
#     Node 11, Type 1, BuildingBlock: BETDEL_clean_sbu_0, # of connection points: 6
#     Edge 12, Type (0, 1), BuildingBlock: TEMPAE_clean_linker_10, # of connection points: 2
#     Edge 13, Type (0, 1), BuildingBlock: TEMPAE_clean_linker_10, # of connection points: 2
#     Edge 14, Type (0, 1), BuildingBlock: TEMPAE_clean_linker_10, # of connection points: 2
#     Edge 15, Type (0, 1), BuildingBlock: TEMPAE_clean_linker_10, # of connection points: 2
#     Edge 16, Type (0, 1), BuildingBlock: TEMPAE_clean_linker_10, # of connection points: 2
#     Edge 17, Type (0, 1), BuildingBlock: TEMPAE_clean_linker_10, # of connection points: 2
#     Edge 18, Type (0, 1), BuildingBlock: TEMPAE_clean_linker_10, # of connection points: 2
#     Edge 19, Type (0, 1), BuildingBlock: TEMPAE_clean_linker_10, # of connection points: 2
#     Edge 20, Type (0, 1), BuildingBlock: TEMPAE_clean_linker_10, # of connection points: 2
#     Edge 21, Type (0, 1), BuildingBlock: TEMPAE_clean_linker_10, # of connection points: 2
#     Edge 22, Type (0, 1), BuildingBlock: TEMPAE_clean_linker_10, # of connection points: 2
#     Edge 23, Type (0, 1), BuildingBlock: TEMPAE_clean_linker_10, # of connection points: 2
#     Edge 24, Type (0, 1), BuildingBlock: TEMPAE_clean_linker_10, # of connection points: 2
#     Edge 25, Type (0, 1), BuildingBlock: TEMPAE_clean_linker_10, # of connection points: 2
#     Edge 26, Type (0, 1), BuildingBlock: TEMPAE_clean_linker_10, # of connection points: 2
#     Edge 27, Type (0, 1), BuildingBlock: TEMPAE_clean_linker_10, # of connection points: 2
#     Edge 28, Type (0, 1), BuildingBlock: TEMPAE_clean_linker_10, # of connection points: 2
#     Edge 29, Type (0, 1), BuildingBlock: TEMPAE_clean_linker_10, # of connection points: 2
#     Edge 30, Type (0, 1), BuildingBlock: TEMPAE_clean_linker_10, # of connection points: 2
#     Edge 31, Type (0, 1), BuildingBlock: TEMPAE_clean_linker_10, # of connection points: 2
#     Edge 32, Type (0, 1), BuildingBlock: TEMPAE_clean_linker_10, # of connection points: 2
#     Edge 33, Type (0, 1), BuildingBlock: TEMPAE_clean_linker_10, # of connection points: 2
#     Edge 34, Type (0, 1), BuildingBlock: TEMPAE_clean_linker_10, # of connection points: 2
#     Edge 35, Type (0, 1), BuildingBlock: TEMPAE_clean_linker_10, # of connection points: 2
# Relax obj value: 0.026
# Max RMSD: 0.089
# Mean RMSD: 0.037
data_MOF--net-pyr--node1-BETDEL_clean_sbu_0--node2-KAKCAD_clean_linker_0--edge1-TEMPAE_clean_linker_10
_symmetry_space_group_name_H-M    P1
_symmetry_Int_Tables_number       1
_symmetry_cell_setting            triclinic
loop_
_symmetry_equiv_pos_as_xyz
'x, y, z'
_cell_length_a     45.799833
_cell_length_b     47.50897
_cell_length_c     43.802304
_cell_angle_alpha  91.880012
_cell_angle_beta   89.348213
_cell_angle_gamma 95.23685
loop_
_atom_site_label
_atom_site_type_symbol
_atom_site_fract_x
_atom_site_fract_y
_atom_site_fract_z
_atom_type_partial_charge
C0 C 0.11146 0.15028 0.21744 0.0
C1 C 0.12285 0.14643 0.24649 0.0
C2 C 0.12957 0.16171 0.19428 0.0
C3 C 0.15944 0.16969 0.19971 0.0
C4 C 0.17074 0.16613 0.22886 0.0
C5 C 0.15267 0.15456 0.25197 0.0
C6 C 0.17874 0.1816 0.17502 0.0
C7 C 0.16835 0.20058 0.15478 0.0
C8 C 0.18625 0.21163 0.13114 0.0
C9 C 0.2149 0.20399 0.1278 0.0
C10 C 0.2255 0.18446 0.14735 0.0
C11 C 0.20735 0.17354 0.17107 0.0
C12 C 0.25454 0.17383 0.14153 0.0
C13 C 0.26328 0.16735 0.11147 0.0
C14 C 0.27304 0.16874 0.16577 0.0
C15 C 0.29945 0.15684 0.16004 0.0
C16 C 0.30785 0.14996 0.12997 0.0
C17 C 0.17449 0.23069 0.10956 0.0
C18 C 0.14912 0.22171 0.09304 0.0
C19 C 0.18759 0.25828 0.10656 0.0
C20 C 0.17449 0.27722 0.08854 0.0
C21 C 0.14832 0.26867 0.07287 0.0
C22 C 0.13632 0.24044 0.07459 0.0
C23 C 0.28963 0.1556 0.10576 0.0
H24 H 0.08854 0.14441 0.21256 0.0
H25 H 0.12025 0.16386 0.17196 0.0
H26 H 0.19357 0.17236 0.23387 0.0
H27 H 0.16224 0.15147 0.27397 0.0
H28 H 0.14639 0.20716 0.15758 0.0
H29 H 0.21503 0.15782 0.18566 0.0
H30 H 0.22863 0.21273 0.10947 0.0
H31 H 0.24928 0.17042 0.09232 0.0
H32 H 0.26701 0.1738 0.18916 0.0
H33 H 0.31321 0.15287 0.1791 0.0
H34 H 0.13896 0.20031 0.09483 0.0
H35 H 0.20717 0.26553 0.11925 0.0
H36 H 0.29522 0.14997 0.08239 0.0
H37 H 0.11657 0.23298 0.06231 0.0
H38 H 0.18413 0.29888 0.08812 0.0
C39 C 0.28546 0.85693 0.78222 0.0
C40 C 0.31592 0.86158 0.78653 0.0
C41 C 0.27422 0.84281 0.75571 0.0
C42 C 0.29325 0.83287 0.73323 0.0
C43 C 0.32366 0.8374 0.73776 0.0
C44 C 0.33484 0.85151 0.76407 0.0
C45 C 0.28187 0.81823 0.70473 0.0
C46 C 0.2594 0.82882 0.68826 0.0
C47 C 0.25082 0.81667 0.65968 0.0
C48 C 0.26498 0.79362 0.64763 0.0
C49 C 0.28723 0.78245 0.66409 0.0
C50 C 0.29503 0.79464 0.69285 0.0
C51 C 0.30317 0.75872 0.65119 0.0
C52 C 0.28848 0.73621 0.63413 0.0
C53 C 0.33341 0.75828 0.65636 0.0
C54 C 0.34834 0.73557 0.64571 0.0
C55 C 0.33358 0.71297 0.62912 0.0
C56 C 0.22815 0.82916 0.64185 0.0
C57 C 0.20199 0.83625 0.65601 0.0
C58 C 0.23306 0.83524 0.61094 0.0
C59 C 0.21256 0.84878 0.59473 0.0
C60 C 0.18662 0.85626 0.60902 0.0
C61 C 0.18136 0.84952 0.63971 0.0
C62 C 0.30362 0.71363 0.62302 0.0
H63 H 0.27037 0.86458 0.7991 0.0
H64 H 0.25068 0.8395 0.75289 0.0
H65 H 0.33894 0.83038 0.7207 0.0
H66 H 0.3584 0.85444 0.76689 0.0
H67 H 0.24953 0.84739 0.69697 0.0
H68 H 0.31159 0.78584 0.70614 0.0
H69 H 0.2589 0.7847 0.62527 0.0
H70 H 0.26519 0.7357 0.6299 0.0
H71 H 0.3457 0.77558 0.66858 0.0
H72 H 0.37158 0.73579 0.65021 0.0
H73 H 0.19759 0.83166 0.67977 0.0
H74 H 0.25313 0.83024 0.59951 0.0
H75 H 0.29179 0.69637 0.61027 0.0
H76 H 0.16165 0.85522 0.65136 0.0
H77 H 0.21707 0.85356 0.57103 0.0
C78 C 0.74019 0.40054 0.87454 0.0
C79 C 0.76096 0.38456 0.88742 0.0
C80 C 0.71399 0.38734 0.86266 0.0
C81 C 0.70806 0.35769 0.86282 0.0
C82 C 0.72901 0.34176 0.87575 0.0
C83 C 0.755 0.35505 0.88811 0.0
C84 C 0.68038 0.34351 0.84927 0.0
C85 C 0.66815 0.35427 0.8232 0.0
C86 C 0.64216 0.34129 0.81014 0.0
C87 C 0.6285 0.31675 0.82333 0.0
C88 C 0.64038 0.30539 0.8493 0.0
C89 C 0.66614 0.31911 0.86217 0.0
C90 C 0.62632 0.27896 0.86287 0.0
C91 C 0.62337 0.27672 0.89474 0.0
C92 C 0.61659 0.25544 0.84412 0.0
C93 C 0.60466 0.23021 0.85693 0.0
C94 C 0.60191 0.2279 0.88882 0.0
C95 C 0.62937 0.35382 0.78297 0.0
C96 C 0.59905 0.35625 0.78112 0.0
C97 C 0.64762 0.36457 0.7592 0.0
C98 C 0.63603 0.37799 0.73469 0.0
C99 C 0.60582 0.38107 0.73316 0.0
C100 C 0.58743 0.36971 0.75656 0.0
C101 C 0.61123 0.25158 0.90754 0.0
H102 H 0.74406 0.42336 0.87404 0.0
H103 H 0.69826 0.4005 0.85362 0.0
H104 H 0.72567 0.31892 0.87586 0.0
H105 H 0.77075 0.34218 0.89765 0.0
H106 H 0.67888 0.37295 0.81296 0.0
H107 H 0.67517 0.31059 0.88227 0.0
H108 H 0.60861 0.30645 0.81335 0.0
H109 H 0.63038 0.29449 0.90987 0.0
H110 H 0.61874 0.25632 0.81952 0.0
H111 H 0.5974 0.21253 0.8418 0.0
H112 H 0.58436 0.3485 0.79914 0.0
H113 H 0.67099 0.36261 0.7595 0.0
H114 H 0.60961 0.25054 0.93217 0.0
H115 H 0.5641 0.37189 0.75634 0.0
H116 H 0.65081 0.38587 0.71681 0.0
C117 C 0.85118 0.60984 0.22339 0.0
C118 C 0.88173 0.61042 0.21915 0.0
C119 C 0.83935 0.62294 0.24921 0.0
C120 C 0.85773 0.63687 0.27159 0.0
C121 C 0.88827 0.63763 0.2672 0.0
C122 C 0.90009 0.62471 0.24131 0.0
C123 C 0.8452 0.65026 0.29955 0.0
C124 C 0.82005 0.63731 0.31403 0.0
C125 C 0.8085 0.64947 0.34071 0.0
C126 C 0.82211 0.67505 0.3528 0.0
C127 C 0.84711 0.6884 0.33869 0.0
C128 C 0.85855 0.67585 0.31218 0.0
C129 C 0.86126 0.71546 0.35175 0.0
C130 C 0.84445 0.73797 0.35945 0.0
C131 C 0.8916 0.71884 0.35693 0.0
C132 C 0.9048 0.74408 0.36996 0.0
C133 C 0.88805 0.76676 0.3777 0.0
C134 C 0.78238 0.63533 0.35622 0.0
C135 C 0.75708 0.62599 0.33958 0.0
C136 C 0.7825 0.63136 0.38788 0.0
C137 C 0.75781 0.61837 0.40261 0.0
C138 C 0.73233 0.60947 0.38607 0.0
C139 C 0.73221 0.61341 0.3544 0.0
C140 C 0.85769 0.76338 0.37202 0.0
H141 H 0.83633 0.59883 0.20702 0.0
H142 H 0.81573 0.62222 0.25154 0.0
H143 H 0.90319 0.64783 0.28403 0.0
H144 H 0.9237 0.626 0.23867 0.0
H145 H 0.80992 0.61725 0.30514 0.0
H146 H 0.87751 0.68647 0.30103 0.0
H147 H 0.81326 0.68457 0.37333 0.0
H148 H 0.82105 0.73605 0.35537 0.0
H149 H 0.90504 0.7017 0.35149 0.0
H150 H 0.92809 0.74556 0.37445 0.0
H151 H 0.75635 0.6289 0.31518 0.0
H152 H 0.80178 0.63817 0.40123 0.0
H153 H 0.84408 0.78046 0.37698 0.0
H154 H 0.7129 0.60662 0.34108 0.0
H155 H 0.75844 0.61577 0.42707 0.0
C156 C 0.88343 0.84922 0.77592 0.0
C157 C 0.89257 0.87835 0.77635 0.0
C158 C 0.86517 0.83776 0.79898 0.0
C159 C 0.85529 0.8553 0.8225 0.0
C160 C 0.86471 0.8842 0.82342 0.0
C161 C 0.88346 0.89558 0.80077 0.0
C162 C 0.83445 0.84363 0.84564 0.0
C163 C 0.84223 0.82258 0.86474 0.0
C164 C 0.82259 0.8117 0.88718 0.0
C165 C 0.79469 0.82163 0.88978 0.0
C166 C 0.78657 0.84265 0.87052 0.0
C167 C 0.80672 0.85363 0.84859 0.0
C168 C 0.75743 0.85371 0.87383 0.0
C169 C 0.73217 0.83541 0.87936 0.0
C170 C 0.75479 0.88285 0.87201 0.0
C171 C 0.72762 0.89351 0.87618 0.0
C172 C 0.70251 0.87531 0.88239 0.0
C173 C 0.83149 0.7901 0.90788 0.0
C174 C 0.81274 0.76571 0.9135 0.0
C175 C 0.85945 0.79322 0.92106 0.0
C176 C 0.86903 0.7718 0.93836 0.0
C177 C 0.85086 0.74679 0.94279 0.0
C178 C 0.82239 0.74419 0.93074 0.0
C179 C 0.70497 0.84612 0.88367 0.0
H180 H 0.88953 0.83535 0.75728 0.0
H181 H 0.85797 0.81539 0.79791 0.0
H182 H 0.85749 0.89796 0.84166 0.0
H183 H 0.89057 0.91794 0.80227 0.0
H184 H 0.86369 0.81479 0.86218 0.0
H185 H 0.8007 0.86962 0.83332 0.0
H186 H 0.77969 0.81363 0.90744 0.0
H187 H 0.73343 0.8128 0.8804 0.0
H188 H 0.77388 0.89757 0.86827 0.0
H189 H 0.72648 0.91617 0.87565 0.0
H190 H 0.79108 0.76279 0.90356 0.0
H191 H 0.87417 0.81202 0.91746 0.0
H192 H 0.68588 0.83162 0.88823 0.0
H193 H 0.80788 0.72518 0.93397 0.0
H194 H 0.89119 0.7743 0.94706 0.0
C195 C 0.70266 0.13392 0.24792 0.0
C196 C 0.69631 0.15033 0.22313 0.0
C197 C 0.71539 0.14667 0.2743 0.0
C198 C 0.72206 0.17613 0.2765 0.0
C199 C 0.71648 0.19246 0.25138 0.0
C200 C 0.70378 0.17968 0.22493 0.0
C201 C 0.7335 0.1898 0.30545 0.0
C202 C 0.75478 0.17763 0.32211 0.0
C203 C 0.76414 0.18919 0.35067 0.0
C204 C 0.7526 0.21398 0.36207 0.0
C205 C 0.73136 0.22667 0.34551 0.0
C206 C 0.72191 0.21421 0.31733 0.0
C207 C 0.71762 0.25198 0.35791 0.0
C208 C 0.71051 0.25477 0.38912 0.0
C209 C 0.70967 0.27269 0.33812 0.0
C210 C 0.69375 0.29472 0.34888 0.0
C211 C 0.68577 0.29706 0.3799 0.0
C212 C 0.7851 0.17446 0.36876 0.0
C213 C 0.78213 0.14478 0.36974 0.0
C214 C 0.80839 0.18956 0.38458 0.0
C215 C 0.82853 0.17522 0.40053 0.0
C216 C 0.82573 0.14548 0.40106 0.0
C217 C 0.80222 0.1305 0.38552 0.0
C218 C 0.69494 0.27712 0.4 0.0
H219 H 0.69744 0.11121 0.24705 0.0
H220 H 0.71917 0.13352 0.29335 0.0
H221 H 0.72166 0.21518 0.2523 0.0
H222 H 0.69897 0.19289 0.20627 0.0
H223 H 0.7641 0.159 0.31274 0.0
H224 H 0.7045 0.22282 0.30511 0.0
H225 H 0.75977 0.22305 0.38403 0.0
H226 H 0.71606 0.23919 0.40505 0.0
H227 H 0.71524 0.2716 0.31405 0.0
H228 H 0.68693 0.30939 0.33256 0.0
H229 H 0.76418 0.13247 0.35824 0.0
H230 H 0.81137 0.21243 0.38417 0.0
H231 H 0.68976 0.2785 0.42415 0.0
H232 H 0.79954 0.1076 0.38509 0.0
H233 H 0.84622 0.18741 0.41254 0.0
C234 C 0.25187 0.62235 0.13975 0.0
C235 C 0.24679 0.62514 0.1084 0.0
C236 C 0.27752 0.63491 0.1534 0.0
C237 C 0.29914 0.65037 0.13607 0.0
C238 C 0.29428 0.65282 0.10462 0.0
C239 C 0.26844 0.64053 0.09103 0.0
C240 C 0.32626 0.66432 0.15095 0.0
C241 C 0.33946 0.65143 0.17506 0.0
C242 C 0.36374 0.66509 0.19089 0.0
C243 C 0.3756 0.69181 0.18094 0.0
C244 C 0.36366 0.70449 0.15581 0.0
C245 C 0.33871 0.69079 0.14148 0.0
C246 C 0.37713 0.73196 0.1441 0.0
C247 C 0.3864 0.7547 0.16412 0.0
C248 C 0.38043 0.73569 0.11245 0.0
C249 C 0.39251 0.76144 0.1011 0.0
C250 C 0.40155 0.78429 0.12106 0.0
C251 C 0.37641 0.65126 0.21762 0.0
C252 C 0.35859 0.63263 0.23587 0.0
C253 C 0.40634 0.65617 0.22512 0.0
C254 C 0.41791 0.64298 0.24992 0.0
C255 C 0.40018 0.62378 0.26766 0.0
C256 C 0.37032 0.61879 0.25998 0.0
C257 C 0.39834 0.78058 0.15274 0.0
H258 H 0.23606 0.61031 0.15388 0.0
H259 H 0.28014 0.63282 0.17773 0.0
H260 H 0.31049 0.66418 0.09034 0.0
H261 H 0.2653 0.64349 0.06693 0.0
H262 H 0.33095 0.63034 0.18111 0.0
H263 H 0.32856 0.70121 0.12327 0.0
H264 H 0.39423 0.70282 0.19253 0.0
H265 H 0.38401 0.75265 0.18859 0.0
H266 H 0.37382 0.71856 0.09635 0.0
H267 H 0.39443 0.76356 0.0766 0.0
H268 H 0.33531 0.62861 0.23177 0.0
H269 H 0.42114 0.66996 0.2117 0.0
H270 H 0.40534 0.79762 0.16878 0.0
H271 H 0.35573 0.60389 0.27231 0.0
H272 H 0.44084 0.6481 0.25514 0.0
C273 C 0.1507 0.24334 0.62395 0.0
C274 C 0.1202 0.2362 0.62487 0.0
C275 C 0.16289 0.2695 0.63566 0.0
C276 C 0.14494 0.28949 0.64829 0.0
C277 C 0.11445 0.28232 0.64931 0.0
C278 C 0.10228 0.25602 0.63793 0.0
C279 C 0.15795 0.31778 0.65993 0.0
C280 C 0.18221 0.3317 0.64501 0.0
C281 C 0.19507 0.35812 0.65586 0.0
C282 C 0.18234 0.37127 0.68137 0.0
C283 C 0.1577 0.35804 0.69651 0.0
C284 C 0.14615 0.33102 0.68587 0.0
C285 C 0.14381 0.3724 0.72322 0.0
C286 C 0.16073 0.39029 0.74384 0.0
C287 C 0.11328 0.36858 0.72814 0.0
C288 C 0.10013 0.38208 0.75286 0.0
C289 C 0.11695 0.40039 0.77315 0.0
C290 C 0.22202 0.37156 0.64068 0.0
C291 C 0.24373 0.35479 0.62924 0.0
C292 C 0.22648 0.40105 0.63754 0.0
C293 C 0.25193 0.41335 0.62343 0.0
C294 C 0.27353 0.3965 0.61185 0.0
C295 C 0.26894 0.36703 0.61485 0.0
C296 C 0.14748 0.40426 0.76824 0.0
H297 H 0.16526 0.2289 0.61375 0.0
H298 H 0.18649 0.27396 0.63486 0.0
H299 H 0.09982 0.2972 0.65851 0.0
H300 H 0.07876 0.25121 0.63952 0.0
H301 H 0.19085 0.32214 0.62444 0.0
H302 H 0.12819 0.31996 0.69816 0.0
H303 H 0.19172 0.39186 0.68944 0.0
H304 H 0.18432 0.3935 0.74133 0.0
H305 H 0.09928 0.35541 0.71265 0.0
H306 H 0.07667 0.378 0.75601 0.0
H307 H 0.24144 0.33208 0.63159 0.0
H308 H 0.21018 0.41469 0.64569 0.0
H309 H 0.16128 0.41842 0.78296 0.0
H310 H 0.28471 0.35322 0.60583 0.0
H311 H 0.25476 0.43614 0.62189 0.0
Dy312 Dy 0.01824 0.00873 0.47149 0.0
C313 C 0.97966 0.96239 0.58565 0.0
C314 C 0.03235 0.03597 0.41894 0.0
Dy315 Dy 0.99471 0.99022 0.53374 0.0
O316 O 0.04757 0.01757 0.43103 0.0
O317 O 0.00917 0.03947 0.43547 0.0
O318 O 0.04752 0.97326 0.4702 0.0
O319 O 0.03764 0.99311 0.51217 0.0
C320 C 0.05016 0.97314 0.4997 0.0
C321 C 0.96298 0.02611 0.5059 0.0
O322 O 0.02191 0.0292 0.54963 0.0
O323 O 0.03222 0.04698 0.50144 0.0
O324 O 0.96206 0.96555 0.56328 0.0
O325 O 0.00555 0.97464 0.57986 0.0
O326 O 0.96507 0.02534 0.5354 0.0
O327 O 0.97533 0.00609 0.49328 0.0
O328 O 0.98737 0.97197 0.4566 0.0
O329 O 0.98704 0.95081 0.50351 0.0
C330 C 0.03283 0.04961 0.53173 0.0
C331 C 0.98141 0.94972 0.4738 0.0
Dy332 Dy 0.52814 0.01988 0.0302 0.0
C333 C 0.43042 0.96118 0.95684 0.0
C334 C 0.57203 0.05354 0.05762 0.0
Dy335 Dy 0.47448 0.99455 0.98446 0.0
O336 O 0.57358 0.0272 0.04921 0.0
O337 O 0.54654 0.06154 0.05079 0.0
O338 O 0.52189 0.98379 0.06352 0.0
O339 O 0.49492 0.98509 0.02655 0.0
C340 C 0.49969 0.97064 0.04909 0.0
C341 C 0.50311 0.04367 0.96539 0.0
O342 O 0.45121 0.01342 0.02435 0.0
O343 O 0.48995 0.04185 0.04751 0.0
O344 O 0.42915 0.98762 0.96504 0.0
O345 O 0.4557 0.95293 0.96405 0.0
O346 O 0.48103 0.03041 0.95088 0.0
O347 O 0.50766 0.02942 0.98816 0.0
O348 O 0.55132 1.00132 0.99022 0.0
O349 O 0.51279 0.97241 0.96737 0.0
C350 C 0.4616 0.03379 0.04399 0.0
C351 C 0.54113 0.98068 0.97084 0.0
Dy352 Dy 0.51433 0.47841 0.47968 0.0
C353 C 0.45967 0.56361 0.54961 0.0
C354 C 0.55169 0.44339 0.45258 0.0
Dy355 Dy 0.49389 0.52695 0.52033 0.0
O356 O 0.52365 0.44212 0.4475 0.0
O357 O 0.55914 0.46389 0.47203 0.0
O358 O 0.46854 0.45686 0.47716 0.0
O359 O 0.4817 0.48175 0.51578 0.0
C360 C 0.46003 0.46849 0.50266 0.0
C361 C 0.54851 0.53573 0.49782 0.0
O362 O 0.50977 0.50096 0.55758 0.0
O363 O 0.53355 0.47021 0.52561 0.0
O364 O 0.48771 0.5684 0.54485 0.0
O365 O 0.45041 0.53873 0.53866 0.0
O366 O 0.54044 0.54628 0.52406 0.0
O367 O 0.52656 0.52348 0.48423 0.0
O368 O 0.49889 0.50508 0.44271 0.0
O369 O 0.4741 0.5351 0.47475 0.0
C370 C 0.52738 0.48042 0.55335 0.0
C371 C 0.48085 0.52526 0.44705 0.0
Dy372 Dy 0.01134 0.47831 0.00755 0.0
C373 C 0.96544 0.58651 0.99043 0.0
C374 C 0.03891 0.43112 0.01612 0.0
Dy375 Dy 0.99334 0.53862 0.98714 0.0
O376 O 0.02862 0.43802 0.99016 0.0
O377 O 0.03377 0.44977 0.0374 0.0
O378 O 0.9761 0.47837 0.04388 0.0
O379 O 0.99754 0.51668 0.02948 0.0
C380 C 0.97705 0.50586 0.04594 0.0
C381 C 0.01933 0.51047 0.94131 0.0
O382 O 0.03581 0.55164 0.01077 0.0
O383 O 0.05306 0.50693 0.0138 0.0
O384 O 0.99057 0.58422 0.97678 0.0
O385 O 0.9556 0.56265 0.00205 0.0
O386 O 0.01106 0.53576 0.93818 0.0
O387 O 0.01296 0.5033 0.96796 0.0
O388 O 0.97169 0.46471 0.97969 0.0
O389 O 0.95301 0.50883 0.97711 0.0
C390 C 0.05677 0.53503 0.01673 0.0
C391 C 0.95056 0.48081 0.97292 0.0
C392 C 0.10694 0.14259 0.30116 0.0
C393 C 0.10413 0.13283 0.27068 0.0
C394 C 0.09189 0.12799 0.32469 0.0
C395 C 0.07343 0.1032 0.3175 0.0
C396 C 0.06911 0.09419 0.28665 0.0
C397 C 0.08465 0.10904 0.26358 0.0
C398 C 0.09705 0.13823 0.35736 0.0
C399 C 0.0494 0.06795 0.27812 0.0
C400 C 0.06828 0.04763 0.37757 0.0
C401 C 0.0415 0.052 0.3918 0.0
C402 C 0.07861 0.06389 0.35301 0.0
C403 C 0.0616 0.08492 0.34236 0.0
C404 C 0.0341 0.08893 0.35613 0.0
C405 C 0.02437 0.07239 0.38087 0.0
C406 C 0.10809 0.05903 0.33895 0.0
C407 C 0.01532 0.111 0.34514 0.0
H408 H 0.12148 0.16131 0.3067 0.0
H409 H 0.08251 0.10124 0.24011 0.0
H410 H 0.07587 0.13959 0.3696 0.0
H411 H 0.10929 0.12287 0.3694 0.0
H412 H 0.1098 0.15927 0.35891 0.0
H413 H 0.04531 0.066 0.25315 0.0
H414 H 0.05974 0.04897 0.28512 0.0
H415 H 0.02804 0.06803 0.29031 0.0
H416 H 0.08151 0.03181 0.38604 0.0
H417 H 0.00359 0.0757 0.39191 0.0
H418 H 0.12327 0.07852 0.34169 0.0
H419 H 0.10578 0.05423 0.3141 0.0
H420 H 0.11823 0.04137 0.34949 0.0
H421 H 0.02688 0.13237 0.34886 0.0
H422 H 0.99378 0.11031 0.35714 0.0
H423 H 0.0115 0.10796 0.32023 0.0
C424 C 0.35234 0.89726 0.81125 0.0
C425 C 0.32832 0.87698 0.81415 0.0
C426 C 0.36601 0.91051 0.83702 0.0
C427 C 0.35533 0.90343 0.86651 0.0
C428 C 0.33044 0.88372 0.86963 0.0
C429 C 0.31719 0.87069 0.84335 0.0
C430 C 0.39238 0.93157 0.83267 0.0
C431 C 0.31838 0.87579 0.9007 0.0
C432 C 0.41363 0.91728 0.92707 0.0
C433 C 0.40838 0.94443 0.93788 0.0
C434 C 0.39535 0.90285 0.90509 0.0
C435 C 0.37126 0.91594 0.8938 0.0
C436 C 0.36474 0.94256 0.90622 0.0
C437 C 0.38346 0.95654 0.92813 0.0
C438 C 0.40299 0.87445 0.89251 0.0
C439 C 0.33912 0.95709 0.89498 0.0
H440 H 0.36065 0.90259 0.7887 0.0
H441 H 0.29872 0.85492 0.8457 0.0
H442 H 0.38869 0.95204 0.84432 0.0
H443 H 0.41191 0.92375 0.84317 0.0
H444 H 0.39732 0.93538 0.80818 0.0
H445 H 0.29754 0.86191 0.89918 0.0
H446 H 0.33463 0.86457 0.91303 0.0
H447 H 0.3145 0.89507 0.91458 0.0
H448 H 0.43281 0.90781 0.93475 0.0
H449 H 0.37927 0.9775 0.93662 0.0
H450 H 0.41092 0.87659 0.86859 0.0
H451 H 0.3833 0.85901 0.89217 0.0
H452 H 0.42032 0.8658 0.90602 0.0
H453 H 0.34387 0.96444 0.8715 0.0
H454 H 0.33463 0.97565 0.90981 0.0
H455 H 0.31905 0.94215 0.89389 0.0
C456 C 0.56703 0.38642 0.69378 0.0
C457 C 0.59374 0.39638 0.70747 0.0
C458 C 0.55576 0.40045 0.66928 0.0
C459 C 0.57151 0.42512 0.65809 0.0
C460 C 0.59831 0.43546 0.67201 0.0
C461 C 0.60905 0.42102 0.69645 0.0
C462 C 0.52716 0.38864 0.65508 0.0
C463 C 0.61579 0.4617 0.66092 0.0
C464 C 0.55807 0.44537 0.57622 0.0
C465 C 0.53919 0.46694 0.58034 0.0
C466 C 0.56872 0.43171 0.60125 0.0
C467 C 0.56039 0.43968 0.63132 0.0
C468 C 0.54153 0.46155 0.6357 0.0
C469 C 0.53118 0.47491 0.61022 0.0
C470 C 0.58884 0.40858 0.59547 0.0
C471 C 0.53211 0.47073 0.66735 0.0
H472 H 0.55514 0.36727 0.70182 0.0
H473 H 0.62944 0.42924 0.70714 0.0
H474 H 0.51135 0.40501 0.65563 0.0
H475 H 0.53084 0.3826 0.63075 0.0
H476 H 0.51713 0.36979 0.66697 0.0
H477 H 0.63594 0.46732 0.67451 0.0
H478 H 0.62222 0.45849 0.63665 0.0
H479 H 0.60214 0.47984 0.66211 0.0
H480 H 0.56451 0.43898 0.55333 0.0
H481 H 0.5166 0.49146 0.61377 0.0
H482 H 0.57891 0.38852 0.60497 0.0
H483 H 0.60999 0.4141 0.60728 0.0
H484 H 0.59336 0.40492 0.57075 0.0
H485 H 0.52035 0.45257 0.67895 0.0
H486 H 0.51755 0.48818 0.66697 0.0
H487 H 0.55165 0.47786 0.68127 0.0
C488 C 0.88163 0.59605 0.16314 0.0
C489 C 0.89447 0.59574 0.19211 0.0
C490 C 0.89339 0.58203 0.13769 0.0
C491 C 0.91873 0.56747 0.14118 0.0
C492 C 0.93189 0.56723 0.17026 0.0
C493 C 0.91953 0.58117 0.19532 0.0
C494 C 0.87868 0.58271 0.10707 0.0
C495 C 0.95905 0.55214 0.17494 0.0
C496 C 0.93786 0.50834 0.0859 0.0
C497 C 0.9603 0.52206 0.06839 0.0
C498 C 0.9233 0.52314 0.10888 0.0
C499 C 0.93157 0.55229 0.11462 0.0
C500 C 0.95357 0.56643 0.09625 0.0
C501 C 0.96764 0.55114 0.07334 0.0
C502 C 0.89965 0.50738 0.12761 0.0
C503 C 0.96308 0.59746 0.10156 0.0
H504 H 0.86251 0.60753 0.16026 0.0
H505 H 0.92936 0.5803 0.21762 0.0
H506 H 0.8944 0.59208 0.08995 0.0
H507 H 0.87164 0.56084 0.09882 0.0
H508 H 0.85923 0.59508 0.10809 0.0
H509 H 0.96704 0.55452 0.19882 0.0
H510 H 0.95444 0.52928 0.16915 0.0
H511 H 0.97687 0.56054 0.15944 0.0
H512 H 0.93201 0.48589 0.08198 0.0
H513 H 0.985 0.56184 0.05984 0.0
H514 H 0.87945 0.51863 0.12788 0.0
H515 H 0.90696 0.5066 0.15161 0.0
H516 H 0.89417 0.48538 0.11873 0.0
H517 H 0.94381 0.61 0.10162 0.0
H518 H 0.97894 0.60573 0.08392 0.0
H519 H 0.9735 0.6008 0.1243 0.0
C520 C 0.35265 0.14316 0.09867 0.0
C521 C 0.33453 0.13534 0.12354 0.0
C522 C 0.37523 0.12684 0.0892 0.0
C523 C 0.37985 0.10222 0.10513 0.0
C524 C 0.3629 0.09523 0.13147 0.0
C525 C 0.34032 0.11189 0.14036 0.0
C526 C 0.39299 0.13508 0.06108 0.0
C527 C 0.36746 0.06928 0.14919 0.0
C528 C 0.41032 0.04487 0.05573 0.0
C529 C 0.44035 0.04921 0.0621 0.0
C530 C 0.39024 0.06133 0.07051 0.0
C531 C 0.40043 0.08251 0.09231 0.0
C532 C 0.43047 0.08612 0.09995 0.0
C533 C 0.45013 0.06947 0.08466 0.0
C534 C 0.3583 0.0569 0.06176 0.0
C535 C 0.44202 0.10828 0.12337 0.0
H536 H 0.34851 0.16158 0.08598 0.0
H537 H 0.32625 0.10569 0.15951 0.0
H538 H 0.41677 0.13572 0.06587 0.0
H539 H 0.38808 0.11897 0.04249 0.0
H540 H 0.38821 0.15601 0.0528 0.0
H541 H 0.35533 0.06896 0.1713 0.0
H542 H 0.35972 0.05006 0.13546 0.0
H543 H 0.3911 0.06813 0.15371 0.0
H544 H 0.4025 0.02923 0.03844 0.0
H545 H 0.47326 0.07281 0.08998 0.0
H546 H 0.35179 0.07604 0.0507 0.0
H547 H 0.34433 0.05367 0.08243 0.0
H548 H 0.35368 0.03843 0.04577 0.0
H549 H 0.44028 0.12964 0.11446 0.0
H550 H 0.46531 0.10633 0.12908 0.0
H551 H 0.42868 0.10668 0.14465 0.0
C552 C 0.13543 0.86393 0.59365 0.0
C553 C 0.16563 0.87203 0.59235 0.0
C554 C 0.11538 0.87917 0.57852 0.0
C555 C 0.1258 0.90327 0.56205 0.0
C556 C 0.15628 0.91149 0.56064 0.0
C557 C 0.17583 0.89569 0.57567 0.0
C558 C 0.08308 0.86955 0.5802 0.0
C559 C 0.16822 0.93725 0.54361 0.0
C560 C 0.07961 0.93156 0.50051 0.0
C561 C 0.06823 0.95444 0.51601 0.0
C562 C 0.09777 0.91422 0.51545 0.0
C563 C 0.1049 0.92016 0.54652 0.0
C564 C 0.09299 0.94297 0.5624 0.0
C565 C 0.07467 0.95978 0.54697 0.0
C566 C 0.10971 0.88986 0.49786 0.0
C567 C 0.1002 0.95008 0.59548 0.0
H568 H 0.12752 0.84551 0.60633 0.0
H569 H 0.19913 0.90222 0.57495 0.0
H570 H 0.07097 0.88644 0.59113 0.0
H571 H 0.07422 0.86553 0.55683 0.0
H572 H 0.07861 0.85 0.59335 0.0
H573 H 0.19251 0.94076 0.54467 0.0
H574 H 0.16168 0.93497 0.51928 0.0
H575 H 0.15879 0.95632 0.55335 0.0
H576 H 0.07445 0.92729 0.47662 0.0
H577 H 0.06589 0.9775 0.55898 0.0
H578 H 0.10446 0.86992 0.51009 0.0
H579 H 0.13395 0.89344 0.49621 0.0
H580 H 0.10073 0.88711 0.47439 0.0
H581 H 0.09462 0.93135 0.60958 0.0
H582 H 0.08827 0.96785 0.60482 0.0
H583 H 0.1241 0.95596 0.59779 0.0
C584 C 0.80629 0.41802 0.8825 0.0
C585 C 0.78884 0.39865 0.89994 0.0
C586 C 0.83281 0.43134 0.89391 0.0
C587 C 0.84183 0.42561 0.92374 0.0
C588 C 0.82412 0.40625 0.94155 0.0
C589 C 0.798 0.39279 0.92931 0.0
C590 C 0.85129 0.45138 0.87393 0.0
C591 C 0.83262 0.39993 0.97364 0.0
C592 C 0.92237 0.44024 0.94515 0.0
C593 C 0.92281 0.46681 0.96019 0.0
C594 C 0.89628 0.42676 0.9329 0.0
C595 C 0.8698 0.43986 0.9363 0.0
C596 C 0.87007 0.46659 0.95169 0.0
C597 C 0.8966 0.47986 0.96315 0.0
C598 C 0.89709 0.39856 0.91613 0.0
C599 C 0.84227 0.48106 0.95631 0.0
H600 H 0.79939 0.42239 0.85968 0.0
H601 H 0.78443 0.378 0.94294 0.0
H602 H 0.854 0.47275 0.88509 0.0
H603 H 0.87351 0.4441 0.87089 0.0
H604 H 0.84151 0.45312 0.85105 0.0
H605 H 0.81618 0.38482 0.98471 0.0
H606 H 0.85413 0.39092 0.97335 0.0
H607 H 0.8351 0.41979 0.98779 0.0
H608 H 0.94256 0.43011 0.94253 0.0
H609 H 0.8967 0.50029 0.97495 0.0
H610 H 0.88877 0.3999 0.89257 0.0
H611 H 0.88252 0.38222 0.92774 0.0
H612 H 0.91956 0.3915 0.91481 0.0
H613 H 0.8327 0.48502 0.93388 0.0
H614 H 0.84606 0.50153 0.9693 0.0
H615 H 0.82579 0.46712 0.96883 0.0
C616 C 0.67842 0.60689 0.39724 0.0
C617 C 0.70574 0.59673 0.40199 0.0
C618 C 0.65326 0.59587 0.413 0.0
C619 C 0.65537 0.57381 0.43365 0.0
C620 C 0.68282 0.56306 0.43804 0.0
C621 C 0.70773 0.57484 0.42238 0.0
C622 C 0.62453 0.60822 0.408 0.0
C623 C 0.68586 0.53919 0.45936 0.0
C624 C 0.59661 0.56503 0.49559 0.0
C625 C 0.57683 0.54391 0.48252 0.0
C626 C 0.62245 0.57469 0.48011 0.0
C627 C 0.62894 0.56254 0.45112 0.0
C628 C 0.60952 0.54044 0.43836 0.0
C629 C 0.58352 0.53163 0.45406 0.0
C630 C 0.64236 0.59853 0.49435 0.0
C631 C 0.61589 0.5265 0.40785 0.0
H632 H 0.67688 0.62399 0.38172 0.0
H633 H 0.72879 0.56677 0.42587 0.0
H634 H 0.60777 0.59143 0.39981 0.0
H635 H 0.61637 0.61701 0.42993 0.0
H636 H 0.62656 0.62527 0.39113 0.0
H637 H 0.70846 0.53245 0.45929 0.0
H638 H 0.68007 0.54581 0.48301 0.0
H639 H 0.6704 0.5207 0.45274 0.0
H640 H 0.59147 0.57463 0.51756 0.0
H641 H 0.56826 0.51532 0.44386 0.0
H642 H 0.64371 0.61703 0.47941 0.0
H643 H 0.66488 0.59203 0.49642 0.0
H644 H 0.63457 0.60522 0.51734 0.0
H645 H 0.6151 0.542 0.38955 0.0
H646 H 0.59994 0.50803 0.40237 0.0
H647 H 0.6383 0.51936 0.40759 0.0
C648 C 0.10157 0.28889 0.06044 0.0
C649 C 0.13218 0.28976 0.0574 0.0
C650 C 0.08619 0.31059 0.04961 0.0
C651 C 0.10184 0.33398 0.0359 0.0
C652 C 0.13249 0.33435 0.03126 0.0
C653 C 0.1473 0.3121 0.04191 0.0
C654 C 0.05342 0.30934 0.05469 0.0
C655 C 0.14989 0.35904 0.01678 0.0
C656 C 0.05802 0.38632 0.99697 0.0
C657 C 0.05521 0.40642 0.02068 0.0
C658 C 0.07354 0.36266 1.00134 0.0
C659 C 0.08663 0.35941 0.02998 0.0
C660 C 0.08421 0.37998 0.05377 0.0
C661 C 0.06837 0.4032 0.04885 0.0
C662 C 0.0755 0.34097 0.97562 0.0
C663 C 0.09809 0.37733 0.08456 0.0
H664 H 0.08967 0.27198 0.07273 0.0
H665 H 0.17087 0.31264 0.03894 0.0
H666 H 0.0484 0.32523 0.07266 0.0
H667 H 0.04226 0.31457 0.03354 0.0
H668 H 0.04411 0.28817 0.06197 0.0
H669 H 0.17286 0.35462 0.01162 0.0
H670 H 0.1394 0.36456 0.99535 0.0
H671 H 0.1503 0.37785 0.03254 0.0
H672 H 0.04788 0.38894 0.97512 0.0
H673 H 0.06634 0.4189 0.0671 0.0
H674 H 0.06439 0.32038 0.9825 0.0
H675 H 0.09876 0.3376 0.97069 0.0
H676 H 0.06525 0.34731 0.95434 0.0
H677 H 0.09518 0.39581 0.10013 0.0
H678 H 0.12191 0.37522 0.08171 0.0
H679 H 0.08826 0.35797 0.09559 0.0
C680 C 0.56905 0.20123 0.92671 0.0
C681 C 0.58936 0.20092 0.90246 0.0
C682 C 0.55627 0.17594 0.93899 0.0
C683 C 0.56404 0.14957 0.9269 0.0
C684 C 0.58512 0.14915 0.903 0.0
C685 C 0.5974 0.17475 0.89101 0.0
C686 C 0.53372 0.17741 0.96426 0.0
C687 C 0.59425 0.12158 0.88958 0.0
C688 C 0.5443 0.08232 0.97141 0.0
C689 C 0.51888 0.07084 0.95638 0.0
C690 C 0.55924 0.10801 0.96227 0.0
C691 C 0.54845 0.1225 0.93753 0.0
C692 C 0.52267 0.11093 0.92247 0.0
C693 C 0.50831 0.08529 0.93201 0.0
C694 C 0.58668 0.11949 0.97889 0.0
C695 C 0.51023 0.12562 0.89614 0.0
H696 H 0.5625 0.2213 0.93557 0.0
H697 H 0.61342 0.17427 0.87264 0.0
H698 H 0.51207 0.16803 0.95595 0.0
H699 H 0.53968 0.16489 0.98382 0.0
H700 H 0.53147 0.19948 0.97253 0.0
H701 H 0.61232 0.12484 0.87257 0.0
H702 H 0.60145 0.10832 0.90796 0.0
H703 H 0.57524 0.10957 0.87823 0.0
H704 H 0.55268 0.07108 0.99006 0.0
H705 H 0.48865 0.07651 0.92031 0.0
H706 H 0.58439 0.14133 0.98774 0.0
H707 H 0.60561 0.12057 0.9628 0.0
H708 H 0.59164 0.10625 0.99829 0.0
H709 H 0.50555 0.14735 0.90345 0.0
H710 H 0.48971 0.11413 0.88723 0.0
H711 H 0.52653 0.12757 0.87722 0.0
C712 C 0.93053 0.80429 0.38309 0.0
C713 C 0.90208 0.79372 0.39176 0.0
C714 C 0.94405 0.82943 0.39638 0.0
C715 C 0.92861 0.84481 0.41849 0.0
C716 C 0.89984 0.83449 0.42718 0.0
C717 C 0.88708 0.809 0.41399 0.0
C718 C 0.9749 0.83954 0.38675 0.0
C719 C 0.8825 0.85041 0.45042 0.0
C720 C 0.97063 0.89706 0.47346 0.0
C721 C 0.96818 0.92289 0.45951 0.0
C722 C 0.95825 0.87147 0.46014 0.0
C723 C 0.9425 0.87174 0.43252 0.0
C724 C 0.93981 0.89779 0.41843 0.0
C725 C 0.95294 0.923 0.43193 0.0
C726 C 0.96211 0.84411 0.47558 0.0
C727 C 0.92276 0.89908 0.38929 0.0
H728 H 0.94224 0.79307 0.36561 0.0
H729 H 0.86537 0.80091 0.42141 0.0
H730 H 0.97513 0.86054 0.37636 0.0
H731 H 0.98932 0.84213 0.40702 0.0
H732 H 0.98428 0.82469 0.37001 0.0
H733 H 0.86006 0.84 0.45406 0.0
H734 H 0.89404 0.85213 0.47262 0.0
H735 H 0.88068 0.87225 0.44289 0.0
H736 H 0.98259 0.89679 0.49465 0.0
H737 H 0.95078 0.94291 0.42113 0.0
H738 H 0.97268 0.82948 0.45955 0.0
H739 H 0.9404 0.83354 0.48195 0.0
H740 H 0.97567 0.84743 0.49648 0.0
H741 H 0.9324 0.8861 0.37094 0.0
H742 H 0.92249 0.92103 0.38137 0.0
H743 H 0.8998 0.89006 0.39283 0.0
C744 C 0.36662 0.67532 0.63879 0.0
C745 C 0.34972 0.68889 0.61831 0.0
C746 C 0.38347 0.65356 0.62871 0.0
C747 C 0.38382 0.64559 0.59729 0.0
C748 C 0.36638 0.65892 0.57659 0.0
C749 C 0.34929 0.68028 0.58742 0.0
C750 C 0.40132 0.63949 0.65157 0.0
C751 C 0.36653 0.65129 0.54286 0.0
C752 C 0.45116 0.61275 0.5665 0.0
C753 C 0.4407 0.58421 0.56315 0.0
C754 C 0.43281 0.63295 0.57751 0.0
C755 C 0.40349 0.62425 0.58589 0.0
C756 C 0.39304 0.59529 0.58321 0.0
C757 C 0.41173 0.57562 0.57156 0.0
C758 C 0.44465 0.66368 0.57965 0.0
C759 C 0.36211 0.58514 0.59249 0.0
H760 H 0.36671 0.68185 0.66275 0.0
H761 H 0.33636 0.69095 0.57159 0.0
H762 H 0.39632 0.6162 0.64984 0.0
H763 H 0.42502 0.64407 0.64647 0.0
H764 H 0.39706 0.64681 0.67542 0.0
H765 H 0.35108 0.66304 0.52995 0.0
H766 H 0.38894 0.65605 0.53334 0.0
H767 H 0.36057 0.6283 0.53911 0.0
H768 H 0.47353 0.61941 0.55982 0.0
H769 H 0.40368 0.55349 0.56904 0.0
H770 H 0.4431 0.67188 0.60356 0.0
H771 H 0.43126 0.67644 0.56546 0.0
H772 H 0.46788 0.66696 0.57196 0.0
H773 H 0.35801 0.59167 0.6166 0.0
H774 H 0.35776 0.56178 0.59006 0.0
H775 H 0.34623 0.59502 0.57825 0.0
C776 C 0.9311 0.87597 0.73518 0.0
C777 C 0.90998 0.89096 0.75051 0.0
C778 C 0.94551 0.88659 0.70896 0.0
C779 C 0.93906 0.91306 0.69823 0.0
C780 C 0.91887 0.92892 0.71439 0.0
C781 C 0.90433 0.91753 0.74007 0.0
C782 C 0.96667 0.86897 0.69205 0.0
C783 C 0.91172 0.95745 0.70385 0.0
C784 C 0.98779 0.9527 0.6403 0.0
C785 C 0.97096 0.94788 0.61385 0.0
C786 C 0.97814 0.94083 0.66796 0.0
C787 C 0.95142 0.92333 0.66878 0.0
C788 C 0.93516 0.91733 0.64169 0.0
C789 C 0.94498 0.92997 0.61458 0.0
C790 C 0.99577 0.94805 0.69652 0.0
C791 C 0.90687 0.89829 0.64152 0.0
H792 H 0.93607 0.85569 0.74338 0.0
H793 H 0.88773 0.92914 0.75129 0.0
H794 H 0.95761 0.8622 0.66931 0.0
H795 H 0.98784 0.88165 0.6881 0.0
H796 H 0.97089 0.84981 0.70458 0.0
H797 H 0.89786 0.96829 0.72066 0.0
H798 H 0.93216 0.97129 0.69986 0.0
H799 H 0.89986 0.95481 0.68185 0.0
H800 H 0.00791 0.9666 0.63962 0.0
H801 H 0.93215 0.92605 0.59397 0.0
H802 H 0.99975 0.92856 0.70848 0.0
H803 H 0.98319 0.96112 0.71244 0.0
H804 H 0.01722 0.95996 0.69154 0.0
H805 H 0.91013 0.87797 0.65222 0.0
H806 H 0.89836 0.89372 0.61806 0.0
H807 H 0.88996 0.90846 0.65519 0.0
C808 C 0.68915 0.14431 0.16645 0.0
C809 C 0.68054 0.13699 0.19621 0.0
C810 C 0.67381 0.13213 0.14099 0.0
C811 C 0.64924 0.11234 0.1455 0.0
C812 C 0.64052 0.10485 0.17549 0.0
C813 C 0.65628 0.11726 0.20044 0.0
C814 C 0.6838 0.14045 0.10932 0.0
C815 C 0.61433 0.08393 0.18127 0.0
C816 C 0.58863 0.09743 0.08753 0.0
C817 C 0.59418 0.07052 0.0762 0.0
C818 C 0.60736 0.11209 0.10895 0.0
C819 C 0.63221 0.09947 0.1191 0.0
C820 C 0.63887 0.07306 0.10625 0.0
C821 C 0.61969 0.05885 0.08493 0.0
C822 C 0.59956 0.14025 0.12206 0.0
C823 C 0.66526 0.05903 0.11633 0.0
H824 H 0.70804 0.1594 0.16309 0.0
H825 H 0.64923 0.11189 0.22341 0.0
H826 H 0.68886 0.12143 0.09561 0.0
H827 H 0.66595 0.1499 0.09749 0.0
H828 H 0.70354 0.15589 0.1097 0.0
H829 H 0.6106 0.08025 0.20598 0.0
H830 H 0.59431 0.09175 0.17181 0.0
H831 H 0.61743 0.06339 0.16946 0.0
H832 H 0.56896 0.10654 0.08065 0.0
H833 H 0.62409 0.03807 0.07604 0.0
H834 H 0.61893 0.15607 0.12164 0.0
H835 H 0.59267 0.13792 0.14628 0.0
H836 H 0.58146 0.14854 0.10941 0.0
H837 H 0.68517 0.0742 0.11611 0.0
H838 H 0.6693 0.04029 0.10158 0.0
H839 H 0.66182 0.05208 0.14015 0.0
C840 C 0.44216 0.60304 0.29391 0.0
C841 C 0.41259 0.609 0.29388 0.0
C842 C 0.454 0.58951 0.31845 0.0
C843 C 0.43572 0.58055 0.34324 0.0
C844 C 0.40581 0.58591 0.3432 0.0
C845 C 0.39484 0.60052 0.31902 0.0
C846 C 0.48623 0.58503 0.31796 0.0
C847 C 0.38531 0.57619 0.36878 0.0
C848 C 0.46084 0.52338 0.3938 0.0
C849 C 0.46969 0.53913 0.42024 0.0
C850 C 0.44943 0.53649 0.36869 0.0
C851 C 0.44794 0.56621 0.36959 0.0
C852 C 0.45766 0.58224 0.396 0.0
C853 C 0.46787 0.56845 0.42117 0.0
C854 C 0.43837 0.51846 0.34149 0.0
C855 C 0.45749 0.61402 0.39762 0.0
H856 H 0.45623 0.60873 0.27464 0.0
H857 H 0.37224 0.60545 0.32015 0.0
H858 H 0.49685 0.5947 0.33892 0.0
H859 H 0.48908 0.5621 0.31783 0.0
H860 H 0.49781 0.59432 0.29772 0.0
H861 H 0.3622 0.57996 0.36422 0.0
H862 H 0.3864 0.55327 0.37224 0.0
H863 H 0.3921 0.58752 0.39044 0.0
H864 H 0.46207 0.50069 0.3931 0.0
H865 H 0.47502 0.58075 0.44145 0.0
H866 H 0.45066 0.52514 0.32061 0.0
H867 H 0.41494 0.52139 0.33761 0.0
H868 H 0.44051 0.49562 0.34456 0.0
H869 H 0.46975 0.6234 0.37786 0.0
H870 H 0.46744 0.62355 0.41901 0.0
H871 H 0.43468 0.61991 0.39631 0.0
C872 C 0.07448 0.42465 0.79562 0.0
C873 C 0.10264 0.41564 0.79895 0.0
C874 C 0.06076 0.43904 0.81952 0.0
C875 C 0.07579 0.44541 0.84731 0.0
C876 C 0.1042 0.43655 0.85091 0.0
C877 C 0.11711 0.42151 0.82691 0.0
C878 C 0.03023 0.44767 0.81489 0.0
C879 C 0.12114 0.44328 0.88002 0.0
C880 C 0.05097 0.50752 0.89486 0.0
C881 C 0.0343 0.4938 0.91788 0.0
C882 C 0.06522 0.49202 0.87223 0.0
C883 C 0.06204 0.46206 0.87219 0.0
C884 C 0.04503 0.44813 0.8954 0.0
C885 C 0.03152 0.46422 0.9181 0.0
C886 C 0.08364 0.50772 0.84834 0.0
C887 C 0.04051 0.41627 0.89586 0.0
H888 H 0.06316 0.42088 0.77409 0.0
H889 H 0.13856 0.41427 0.83019 0.0
H890 H 0.01548 0.4397 0.83359 0.0
H891 H 0.03066 0.47107 0.81569 0.0
H892 H 0.02078 0.43955 0.79272 0.0
H893 H 0.14313 0.43514 0.87915 0.0
H894 H 0.12399 0.46652 0.88432 0.0
H895 H 0.10874 0.434 0.89972 0.0
H896 H 0.05315 0.53043 0.89475 0.0
H897 H 0.01803 0.45364 0.93547 0.0
H898 H 0.07418 0.50273 0.82539 0.0
H899 H 0.10614 0.5008 0.84797 0.0
H900 H 0.0851 0.531 0.85247 0.0
H901 H 0.02923 0.40796 0.8747 0.0
H902 H 0.02726 0.40873 0.91588 0.0
H903 H 0.06196 0.4072 0.89634 0.0
C904 C 0.65852 0.87859 0.91592 0.0
C905 C 0.67445 0.88722 0.88984 0.0
C906 C 0.63438 0.89255 0.926 0.0
C907 C 0.62599 0.91559 0.90951 0.0
C908 C 0.64081 0.92322 0.88208 0.0
C909 C 0.665 0.90898 0.8726 0.0
C910 C 0.61912 0.88383 0.95542 0.0
C911 C 0.63222 0.94746 0.86369 0.0
C912 C 0.55348 0.94328 0.93232 0.0
C913 C 0.56273 0.96544 0.95299 0.0
C914 C 0.57386 0.92734 0.91714 0.0
C915 C 0.6041 0.93364 0.92294 0.0
C916 C 0.61361 0.9565 0.94302 0.0
C917 C 0.59283 0.97216 0.95772 0.0
C918 C 0.56302 0.90326 0.89563 0.0
C919 C 0.64574 0.96387 0.94979 0.0
H920 H 0.66591 0.86193 0.92943 0.0
H921 H 0.67706 0.9154 0.85217 0.0
H922 H 0.62389 0.90066 0.9733 0.0
H923 H 0.59501 0.8812 0.95232 0.0
H924 H 0.62632 0.86376 0.96376 0.0
H925 H 0.64329 0.94824 0.84099 0.0
H926 H 0.60815 0.94577 0.8603 0.0
H927 H 0.63828 0.96772 0.87635 0.0
H928 H 0.53028 0.93799 0.92837 0.0
H929 H 0.60028 0.98928 0.97352 0.0
H930 H 0.56774 0.88287 0.90527 0.0
H931 H 0.57473 0.90504 0.87336 0.0
H932 H 0.53907 0.90265 0.89157 0.0
H933 H 0.65476 0.94588 0.96083 0.0
H934 H 0.64954 0.98295 0.96508 0.0
H935 H 0.65823 0.96768 0.92825 0.0
C936 C 0.83767 0.10583 0.43381 0.0
C937 C 0.84727 0.12986 0.41738 0.0
C938 C 0.85767 0.08982 0.44786 0.0
C939 C 0.88807 0.09819 0.4458 0.0
C940 C 0.89795 0.12275 0.42983 0.0
C941 C 0.87743 0.13825 0.41572 0.0
C942 C 0.84624 0.06375 0.46466 0.0
C943 C 0.93019 0.13243 0.42735 0.0
C944 C 0.93469 0.06844 0.5059 0.0
C945 C 0.94543 0.04549 0.48989 0.0
C946 C 0.91685 0.08641 0.49151 0.0
C947 C 0.90935 0.08109 0.46045 0.0
C948 C 0.92078 0.05832 0.44397 0.0
C949 C 0.93881 0.04083 0.45889 0.0
C950 C 0.90545 0.11069 0.50974 0.0
C951 C 0.91321 0.05188 0.41087 0.0
H952 H 0.81441 0.09947 0.43571 0.0
H953 H 0.88508 0.15659 0.4028 0.0
H954 H 0.85577 0.0449 0.45451 0.0
H955 H 0.85307 0.06583 0.48891 0.0
H956 H 0.82195 0.05999 0.46392 0.0
H957 H 0.93422 0.15254 0.4151 0.0
H958 H 0.93986 0.13546 0.45047 0.0
H959 H 0.9419 0.11599 0.41505 0.0
H960 H 0.94004 0.07222 0.52982 0.0
H961 H 0.94713 0.02309 0.44648 0.0
H962 H 0.88125 0.10717 0.51204 0.0
H963 H 0.91046 0.13075 0.49766 0.0
H964 H 0.91502 0.11318 0.53297 0.0
H965 H 0.8893 0.04593 0.4088 0.0
H966 H 0.92512 0.03437 0.4009 0.0
H967 H 0.9185 0.07094 0.39718 0.0
C968 C 0.21905 0.60056 0.06408 0.0
C969 C 0.219 0.61221 0.09401 0.0
C970 C 0.19306 0.58839 0.05036 0.0
C971 C 0.16634 0.58734 0.06704 0.0
C972 C 0.16609 0.59894 0.09722 0.0
C973 C 0.19228 0.61141 0.1102 0.0
C974 C 0.19425 0.57651 0.01802 0.0
C975 C 0.13813 0.59806 0.11593 0.0
C976 C 0.09318 0.57734 0.02555 0.0
C977 C 0.0853 0.5483 0.02851 0.0
C978 C 0.11972 0.59021 0.03743 0.0
C979 C 0.13867 0.57378 0.05313 0.0
C980 C 0.13089 0.54444 0.05609 0.0
C981 C 0.10447 0.53204 0.04356 0.0
C982 C 0.12741 0.62145 0.03334 0.0
C983 C 0.15022 0.52622 0.07303 0.0
H984 H 0.2395 0.60058 0.05142 0.0
H985 H 0.1917 0.62079 0.13305 0.0
H986 H 0.18751 0.55347 0.01761 0.0
H987 H 0.17859 0.58648 0.00356 0.0
H988 H 0.21651 0.57993 0.0077 0.0
H989 H 0.14168 0.60762 0.13923 0.0
H990 H 0.12164 0.60953 0.10428 0.0
H991 H 0.12871 0.57584 0.11802 0.0
H992 H 0.07864 0.59007 0.01382 0.0
H993 H 0.09854 0.50963 0.0462 0.0
H994 H 0.14914 0.62502 0.02195 0.0
H995 H 0.12905 0.63264 0.05597 0.0
H996 H 0.11091 0.63104 0.01956 0.0
H997 H 0.17242 0.52739 0.06251 0.0
H998 H 0.1412 0.50371 0.07309 0.0
H999 H 0.15278 0.5342 0.09703 0.0
C1000 C 0.32764 0.39796 0.60035 0.0
C1001 C 0.30072 0.40939 0.59661 0.0
C1002 C 0.35312 0.40883 0.58506 0.0
C1003 C 0.35196 0.43213 0.56591 0.0
C1004 C 0.32515 0.44435 0.56267 0.0
C1005 C 0.29983 0.43272 0.57783 0.0
C1006 C 0.38123 0.39507 0.58906 0.0
C1007 C 0.32312 0.46951 0.54287 0.0
C1008 C 0.42559 0.4719 0.54714 0.0
C1009 C 0.43159 0.46064 0.51798 0.0
C1010 C 0.39923 0.4637 0.56251 0.0
C1011 C 0.37873 0.44312 0.54875 0.0
C1012 C 0.38458 0.43191 0.51916 0.0
C1013 C 0.41082 0.441 0.50402 0.0
C1014 C 0.39364 0.47663 0.59373 0.0
C1015 C 0.36351 0.40966 0.50384 0.0
H1016 H 0.32889 0.38041 0.61533 0.0
H1017 H 0.2792 0.4416 0.57442 0.0
H1018 H 0.38913 0.38725 0.56657 0.0
H1019 H 0.39853 0.4108 0.5983 0.0
H1020 H 0.37847 0.37705 0.60468 0.0
H1021 H 0.30109 0.47754 0.54408 0.0
H1022 H 0.33974 0.4869 0.54995 0.0
H1023 H 0.32794 0.46361 0.51875 0.0
H1024 H 0.44171 0.48683 0.5582 0.0
H1025 H 0.41538 0.43218 0.48152 0.0
H1026 H 0.39385 0.46025 0.61118 0.0
H1027 H 0.37166 0.48471 0.59465 0.0
H1028 H 0.41035 0.49428 0.59991 0.0
H1029 H 0.36129 0.3904 0.51765 0.0
H1030 H 0.37082 0.40373 0.48042 0.0
H1031 H 0.34144 0.41737 0.50247 0.0
C1032 C 0.8592 0.69571 0.94258 0.0
C1033 C 0.86292 0.72255 0.957 0.0
C1034 C 0.87449 0.67353 0.95245 0.0
C1035 C 0.89389 0.67834 0.97739 0.0
C1036 C 0.89624 0.70481 0.99335 0.0
C1037 C 0.88076 0.72669 0.98287 0.0
C1038 C 0.8714 0.64556 0.93484 0.0
C1039 C 0.91637 0.71053 0.02033 0.0
C1040 C 0.92275 0.61225 0.00695 0.0
C1041 C 0.94899 0.61163 0.99028 0.0
C1042 C 0.90515 0.63468 0.0043 0.0
C1043 C 0.91401 0.6567 0.98429 0.0
C1044 C 0.94122 0.65678 0.96857 0.0
C1045 C 0.95848 0.63423 0.97189 0.0
C1046 C 0.87651 0.63413 0.02178 0.0
C1047 C 0.95142 0.67992 0.94702 0.0
H1048 H 0.84568 0.69248 0.92239 0.0
H1049 H 0.88336 0.74735 0.99431 0.0
H1050 H 0.89223 0.64237 0.92256 0.0
H1051 H 0.86703 0.62787 0.95065 0.0
H1052 H 0.85346 0.64443 0.91786 0.0
H1053 H 0.91249 0.73059 0.03284 0.0
H1054 H 0.91348 0.69293 0.03643 0.0
H1055 H 0.93949 0.712 0.01227 0.0
H1056 H 0.91558 0.59483 0.02146 0.0
H1057 H 0.97886 0.63377 0.95911 0.0
H1058 H 0.85801 0.62966 0.00569 0.0
H1059 H 0.87404 0.65502 0.03311 0.0
H1060 H 0.87475 0.61771 0.03936 0.0
H1061 H 0.93629 0.67932 0.92735 0.0
H1062 H 0.97395 0.67779 0.93813 0.0
H1063 H 0.951 0.70095 0.95869 0.0
C1064 C 0.40635 0.83758 0.12127 0.0
C1065 C 0.41439 0.81177 0.10881 0.0
C1066 C 0.41859 0.86358 0.11018 0.0
C1067 C 0.43962 0.86391 0.08617 0.0
C1068 C 0.44752 0.83793 0.0732 0.0
C1069 C 0.4348 0.81225 0.0846 0.0
C1070 C 0.40938 0.89075 0.12454 0.0
C1071 C 0.47002 0.83725 0.04779 0.0
C1072 C 0.45854 0.93201 0.04295 0.0
C1073 C 0.48409 0.94332 0.05786 0.0
C1074 C 0.44377 0.90616 0.0518 0.0
C1075 C 0.45486 0.89133 0.07612 0.0
C1076 C 0.48074 0.90276 0.0911 0.0
C1077 C 0.49493 0.92858 0.08185 0.0
C1078 C 0.41623 0.89482 0.03528 0.0
C1079 C 0.4935 0.88769 0.11696 0.0
H1080 H 0.39029 0.83746 0.13964 0.0
H1081 H 0.4414 0.79247 0.075 0.0
H1082 H 0.42844 0.90268 0.13587 0.0
H1083 H 0.40177 0.90434 0.10668 0.0
H1084 H 0.39156 0.88694 0.14174 0.0
H1085 H 0.47259 0.8154 0.03901 0.0
H1086 H 0.46376 0.85003 0.02858 0.0
H1087 H 0.49158 0.84679 0.05617 0.0
H1088 H 0.44994 0.94349 0.02462 0.0
H1089 H 0.51469 0.93724 0.09346 0.0
H1090 H 0.39748 0.89315 0.05158 0.0
H1091 H 0.41867 0.87323 0.02575 0.0
H1092 H 0.41089 0.90847 0.01636 0.0
H1093 H 0.4773 0.88518 0.13593 0.0
H1094 H 0.51395 0.89922 0.12599 0.0
H1095 H 0.4984 0.86618 0.10909 0.0
C1096 C 0.12173 0.1838 0.61471 0.0
C1097 C 0.10718 0.20838 0.61197 0.0
C1098 C 0.11012 0.15767 0.60198 0.0
C1099 C 0.08299 0.15584 0.58653 0.0
C1100 C 0.06794 0.18039 0.58405 0.0
C1101 C 0.0803 0.20635 0.59654 0.0
C1102 C 0.12699 0.13204 0.60488 0.0
C1103 C 0.03882 0.17929 0.56801 0.0
C1104 C 0.06444 0.0954 0.52879 0.0
C1105 C 0.04614 0.07648 0.54597 0.0
C1106 C 0.07687 0.1211 0.54181 0.0
C1107 C 0.0705 0.12831 0.57265 0.0
C1108 C 0.052 0.10933 0.5901 0.0
C1109 C 0.04024 0.08356 0.57663 0.0
C1110 C 0.09684 0.14054 0.52255 0.0
C1111 C 0.04431 0.11641 0.6229 0.0
H1112 H 0.14221 0.18488 0.62702 0.0
H1113 H 0.06903 0.22517 0.59375 0.0
H1114 H 0.11353 0.11537 0.61722 0.0
H1115 H 0.13188 0.1231 0.58186 0.0
H1116 H 0.14796 0.13705 0.61724 0.0
H1117 H 0.02935 0.20002 0.56906 0.0
H1118 H 0.04152 0.17274 0.54368 0.0
H1119 H 0.02295 0.16328 0.57846 0.0
H1120 H 0.06927 0.09006 0.50513 0.0
H1121 H 0.02596 0.06918 0.59003 0.0
H1122 H 0.11851 0.14484 0.53367 0.0
H1123 H 0.0875 0.16114 0.52063 0.0
H1124 H 0.10019 0.13152 0.49919 0.0
H1125 H 0.06455 0.12001 0.63669 0.0
H1126 H 0.02961 0.09941 0.63336 0.0
H1127 H 0.03334 0.13631 0.62418 0.0
C1128 C 0.64528 0.31373 0.41327 0.0
C1129 C 0.66699 0.31949 0.39085 0.0
C1130 C 0.62678 0.33428 0.42307 0.0
C1131 C 0.62955 0.36112 0.4097 0.0
C1132 C 0.65129 0.36714 0.38704 0.0
C1133 C 0.66994 0.3464 0.37816 0.0
C1134 C 0.60417 0.32722 0.44767 0.0
C1135 C 0.65472 0.39542 0.37202 0.0
C1136 C 0.56341 0.404 0.41653 0.0
C1137 C 0.57188 0.42322 0.44041 0.0
C1138 C 0.58226 0.38405 0.40578 0.0
C1139 C 0.6099 0.38301 0.41973 0.0
C1140 C 0.61854 0.40253 0.44378 0.0
C1141 C 0.59953 0.42258 0.4536 0.0
C1142 C 0.57253 0.36396 0.37968 0.0
C1143 C 0.64757 0.4018 0.45962 0.0
H1144 H 0.64232 0.29293 0.42287 0.0
H1145 H 0.68691 0.35137 0.36124 0.0
H1146 H 0.60718 0.34282 0.46705 0.0
H1147 H 0.58184 0.32855 0.43861 0.0
H1148 H 0.60546 0.3057 0.45646 0.0
H1149 H 0.67212 0.39647 0.3541 0.0
H1150 H 0.63371 0.39969 0.36148 0.0
H1151 H 0.66021 0.41254 0.38939 0.0
H1152 H 0.54205 0.40456 0.40627 0.0
H1153 H 0.60607 0.43737 0.4722 0.0
H1154 H 0.57073 0.34189 0.38747 0.0
H1155 H 0.5891 0.36539 0.36099 0.0
H1156 H 0.55102 0.36842 0.37037 0.0
H1157 H 0.64862 0.38094 0.47006 0.0
H1158 H 0.65108 0.4186 0.47779 0.0
H1159 H 0.66584 0.40439 0.44282 0.0
loop_
_geom_bond_atom_site_label_1
_geom_bond_atom_site_label_2
_geom_bond_distance
_geom_bond_site_symmetry_2
_ccdc_geom_bond_type
C0 C1 1.386 . S
C0 C2 1.397 . S
C0 H24 0.931 . S
C1 C0 1.386 . S
C1 C5 1.397 . S
C2 C0 1.397 . S
C2 C3 1.384 . S
C2 H25 0.930 . S
C3 C2 1.384 . S
C3 C4 1.377 . S
C3 C6 1.481 . S
C4 C3 1.377 . S
C4 C5 1.389 . S
C4 H26 0.929 . S
C5 C1 1.397 . S
C5 C4 1.389 . S
C5 H27 0.931 . S
C6 C3 1.481 . S
C6 C7 1.387 . S
C6 C11 1.390 . S
C7 C6 1.387 . S
C7 C8 1.401 . S
C7 H28 0.930 . S
C8 C7 1.401 . S
C8 C9 1.376 . S
C8 C17 1.511 . S
C9 C8 1.376 . S
C9 C10 1.392 . S
C9 H30 0.931 . S
C10 C9 1.392 . S
C10 C11 1.361 . S
C10 C12 1.500 . S
C11 C6 1.390 . S
C11 C10 1.361 . S
C11 H29 0.931 . S
C12 C10 1.500 . S
C12 C13 1.371 . S
C12 C14 1.365 . S
C13 C12 1.371 . S
C13 C23 1.386 . S
C13 H31 0.931 . S
C14 C12 1.365 . S
C14 C15 1.409 . S
C14 H32 0.929 . S
C15 C14 1.409 . S
C15 C16 1.380 . S
C15 H33 0.930 . S
C16 C15 1.380 . S
C16 C23 1.357 . S
C17 C8 1.511 . S
C17 C18 1.341 . S
C17 C19 1.371 . S
C18 C17 1.341 . S
C18 C22 1.394 . S
C18 H34 0.930 . S
C19 C17 1.371 . S
C19 C20 1.392 . S
C19 H35 0.931 . S
C20 C19 1.392 . S
C20 C21 1.331 . S
C20 H38 0.932 . S
C21 C20 1.331 . S
C21 C22 1.336 . S
C22 C18 1.394 . S
C22 C21 1.336 . S
C22 H37 0.929 . S
C23 C13 1.386 . S
C23 C16 1.357 . S
C23 H36 0.928 . S
H24 C0 0.931 . S
H25 C2 0.930 . S
H26 C4 0.929 . S
H27 C5 0.931 . S
H28 C7 0.930 . S
H29 C11 0.931 . S
H30 C9 0.931 . S
H31 C13 0.931 . S
H32 C14 0.929 . S
H33 C15 0.930 . S
H34 C18 0.930 . S
H35 C19 0.931 . S
H36 C23 0.928 . S
H37 C22 0.929 . S
H38 C20 0.932 . S
C39 C40 1.386 . S
C39 C41 1.397 . S
C39 H63 0.931 . S
C40 C39 1.386 . S
C40 C44 1.397 . S
C41 C39 1.397 . S
C41 C42 1.384 . S
C41 H64 0.930 . S
C42 C41 1.384 . S
C42 C43 1.377 . S
C42 C45 1.481 . S
C43 C42 1.377 . S
C43 C44 1.389 . S
C43 H65 0.929 . S
C44 C40 1.397 . S
C44 C43 1.389 . S
C44 H66 0.931 . S
C45 C42 1.481 . S
C45 C46 1.387 . S
C45 C50 1.390 . S
C46 C45 1.387 . S
C46 C47 1.401 . S
C46 H67 0.930 . S
C47 C46 1.401 . S
C47 C48 1.376 . S
C47 C56 1.511 . S
C48 C47 1.376 . S
C48 C49 1.392 . S
C48 H69 0.931 . S
C49 C48 1.392 . S
C49 C50 1.361 . S
C49 C51 1.500 . S
C50 C45 1.390 . S
C50 C49 1.361 . S
C50 H68 0.931 . S
C51 C49 1.500 . S
C51 C52 1.371 . S
C51 C53 1.365 . S
C52 C51 1.371 . S
C52 C62 1.386 . S
C52 H70 0.931 . S
C53 C51 1.365 . S
C53 C54 1.409 . S
C53 H71 0.929 . S
C54 C53 1.409 . S
C54 C55 1.380 . S
C54 H72 0.930 . S
C55 C54 1.380 . S
C55 C62 1.357 . S
C56 C47 1.511 . S
C56 C57 1.341 . S
C56 C58 1.371 . S
C57 C56 1.341 . S
C57 C61 1.394 . S
C57 H73 0.930 . S
C58 C56 1.371 . S
C58 C59 1.392 . S
C58 H74 0.931 . S
C59 C58 1.392 . S
C59 C60 1.331 . S
C59 H77 0.932 . S
C60 C59 1.331 . S
C60 C61 1.336 . S
C61 C57 1.394 . S
C61 C60 1.336 . S
C61 H76 0.929 . S
C62 C52 1.386 . S
C62 C55 1.357 . S
C62 H75 0.928 . S
H63 C39 0.931 . S
H64 C41 0.930 . S
H65 C43 0.929 . S
H66 C44 0.931 . S
H67 C46 0.930 . S
H68 C50 0.931 . S
H69 C48 0.931 . S
H70 C52 0.931 . S
H71 C53 0.929 . S
H72 C54 0.930 . S
H73 C57 0.930 . S
H74 C58 0.931 . S
H75 C62 0.928 . S
H76 C61 0.929 . S
H77 C59 0.932 . S
C78 C79 1.386 . S
C78 C80 1.397 . S
C78 H102 0.931 . S
C79 C78 1.386 . S
C79 C83 1.397 . S
C80 C78 1.397 . S
C80 C81 1.384 . S
C80 H103 0.930 . S
C81 C80 1.384 . S
C81 C82 1.377 . S
C81 C84 1.481 . S
C82 C81 1.377 . S
C82 C83 1.389 . S
C82 H104 0.929 . S
C83 C79 1.397 . S
C83 C82 1.389 . S
C83 H105 0.931 . S
C84 C81 1.481 . S
C84 C85 1.387 . S
C84 C89 1.390 . S
C85 C84 1.387 . S
C85 C86 1.401 . S
C85 H106 0.930 . S
C86 C85 1.401 . S
C86 C87 1.376 . S
C86 C95 1.511 . S
C87 C86 1.376 . S
C87 C88 1.392 . S
C87 H108 0.931 . S
C88 C87 1.392 . S
C88 C89 1.361 . S
C88 C90 1.500 . S
C89 C84 1.390 . S
C89 C88 1.361 . S
C89 H107 0.931 . S
C90 C88 1.500 . S
C90 C91 1.371 . S
C90 C92 1.365 . S
C91 C90 1.371 . S
C91 C101 1.386 . S
C91 H109 0.931 . S
C92 C90 1.365 . S
C92 C93 1.409 . S
C92 H110 0.929 . S
C93 C92 1.409 . S
C93 C94 1.380 . S
C93 H111 0.930 . S
C94 C93 1.380 . S
C94 C101 1.357 . S
C95 C86 1.511 . S
C95 C96 1.341 . S
C95 C97 1.371 . S
C96 C95 1.341 . S
C96 C100 1.394 . S
C96 H112 0.930 . S
C97 C95 1.371 . S
C97 C98 1.392 . S
C97 H113 0.931 . S
C98 C97 1.392 . S
C98 C99 1.331 . S
C98 H116 0.932 . S
C99 C98 1.331 . S
C99 C100 1.336 . S
C100 C96 1.394 . S
C100 C99 1.336 . S
C100 H115 0.929 . S
C101 C91 1.386 . S
C101 C94 1.357 . S
C101 H114 0.928 . S
H102 C78 0.931 . S
H103 C80 0.930 . S
H104 C82 0.929 . S
H105 C83 0.931 . S
H106 C85 0.930 . S
H107 C89 0.931 . S
H108 C87 0.931 . S
H109 C91 0.931 . S
H110 C92 0.929 . S
H111 C93 0.930 . S
H112 C96 0.930 . S
H113 C97 0.931 . S
H114 C101 0.928 . S
H115 C100 0.929 . S
H116 C98 0.932 . S
C117 C118 1.386 . S
C117 C119 1.397 . S
C117 H141 0.931 . S
C118 C117 1.386 . S
C118 C122 1.397 . S
C119 C117 1.397 . S
C119 C120 1.384 . S
C119 H142 0.930 . S
C120 C119 1.384 . S
C120 C121 1.377 . S
C120 C123 1.481 . S
C121 C120 1.377 . S
C121 C122 1.389 . S
C121 H143 0.929 . S
C122 C118 1.397 . S
C122 C121 1.389 . S
C122 H144 0.931 . S
C123 C120 1.481 . S
C123 C124 1.387 . S
C123 C128 1.390 . S
C124 C123 1.387 . S
C124 C125 1.401 . S
C124 H145 0.930 . S
C125 C124 1.401 . S
C125 C126 1.376 . S
C125 C134 1.511 . S
C126 C125 1.376 . S
C126 C127 1.392 . S
C126 H147 0.931 . S
C127 C126 1.392 . S
C127 C128 1.361 . S
C127 C129 1.500 . S
C128 C123 1.390 . S
C128 C127 1.361 . S
C128 H146 0.931 . S
C129 C127 1.500 . S
C129 C130 1.371 . S
C129 C131 1.365 . S
C130 C129 1.371 . S
C130 C140 1.386 . S
C130 H148 0.931 . S
C131 C129 1.365 . S
C131 C132 1.409 . S
C131 H149 0.929 . S
C132 C131 1.409 . S
C132 C133 1.380 . S
C132 H150 0.930 . S
C133 C132 1.380 . S
C133 C140 1.357 . S
C134 C125 1.511 . S
C134 C135 1.341 . S
C134 C136 1.371 . S
C135 C134 1.341 . S
C135 C139 1.394 . S
C135 H151 0.930 . S
C136 C134 1.371 . S
C136 C137 1.392 . S
C136 H152 0.931 . S
C137 C136 1.392 . S
C137 C138 1.331 . S
C137 H155 0.932 . S
C138 C137 1.331 . S
C138 C139 1.336 . S
C139 C135 1.394 . S
C139 C138 1.336 . S
C139 H154 0.929 . S
C140 C130 1.386 . S
C140 C133 1.357 . S
C140 H153 0.928 . S
H141 C117 0.931 . S
H142 C119 0.930 . S
H143 C121 0.929 . S
H144 C122 0.931 . S
H145 C124 0.930 . S
H146 C128 0.931 . S
H147 C126 0.931 . S
H148 C130 0.931 . S
H149 C131 0.929 . S
H150 C132 0.930 . S
H151 C135 0.930 . S
H152 C136 0.931 . S
H153 C140 0.928 . S
H154 C139 0.929 . S
H155 C137 0.932 . S
C156 C157 1.386 . S
C156 C158 1.397 . S
C156 H180 0.931 . S
C157 C156 1.386 . S
C157 C161 1.397 . S
C158 C156 1.397 . S
C158 C159 1.384 . S
C158 H181 0.930 . S
C159 C158 1.384 . S
C159 C160 1.377 . S
C159 C162 1.481 . S
C160 C159 1.377 . S
C160 C161 1.389 . S
C160 H182 0.929 . S
C161 C157 1.397 . S
C161 C160 1.389 . S
C161 H183 0.931 . S
C162 C159 1.481 . S
C162 C163 1.387 . S
C162 C167 1.390 . S
C163 C162 1.387 . S
C163 C164 1.401 . S
C163 H184 0.930 . S
C164 C163 1.401 . S
C164 C165 1.376 . S
C164 C173 1.511 . S
C165 C164 1.376 . S
C165 C166 1.392 . S
C165 H186 0.931 . S
C166 C165 1.392 . S
C166 C167 1.361 . S
C166 C168 1.500 . S
C167 C162 1.390 . S
C167 C166 1.361 . S
C167 H185 0.931 . S
C168 C166 1.500 . S
C168 C169 1.371 . S
C168 C170 1.365 . S
C169 C168 1.371 . S
C169 C179 1.386 . S
C169 H187 0.931 . S
C170 C168 1.365 . S
C170 C171 1.409 . S
C170 H188 0.929 . S
C171 C170 1.409 . S
C171 C172 1.380 . S
C171 H189 0.930 . S
C172 C171 1.380 . S
C172 C179 1.357 . S
C173 C164 1.511 . S
C173 C174 1.341 . S
C173 C175 1.371 . S
C174 C173 1.341 . S
C174 C178 1.394 . S
C174 H190 0.930 . S
C175 C173 1.371 . S
C175 C176 1.392 . S
C175 H191 0.931 . S
C176 C175 1.392 . S
C176 C177 1.331 . S
C176 H194 0.932 . S
C177 C176 1.331 . S
C177 C178 1.336 . S
C178 C174 1.394 . S
C178 C177 1.336 . S
C178 H193 0.929 . S
C179 C169 1.386 . S
C179 C172 1.357 . S
C179 H192 0.928 . S
H180 C156 0.931 . S
H181 C158 0.930 . S
H182 C160 0.929 . S
H183 C161 0.931 . S
H184 C163 0.930 . S
H185 C167 0.931 . S
H186 C165 0.931 . S
H187 C169 0.931 . S
H188 C170 0.929 . S
H189 C171 0.930 . S
H190 C174 0.930 . S
H191 C175 0.931 . S
H192 C179 0.928 . S
H193 C178 0.929 . S
H194 C176 0.932 . S
C195 C196 1.386 . S
C195 C197 1.397 . S
C195 H219 0.931 . S
C196 C195 1.386 . S
C196 C200 1.397 . S
C197 C195 1.397 . S
C197 C198 1.384 . S
C197 H220 0.930 . S
C198 C197 1.384 . S
C198 C199 1.377 . S
C198 C201 1.481 . S
C199 C198 1.377 . S
C199 C200 1.389 . S
C199 H221 0.929 . S
C200 C196 1.397 . S
C200 C199 1.389 . S
C200 H222 0.931 . S
C201 C198 1.481 . S
C201 C202 1.387 . S
C201 C206 1.390 . S
C202 C201 1.387 . S
C202 C203 1.401 . S
C202 H223 0.930 . S
C203 C202 1.401 . S
C203 C204 1.376 . S
C203 C212 1.511 . S
C204 C203 1.376 . S
C204 C205 1.392 . S
C204 H225 0.931 . S
C205 C204 1.392 . S
C205 C206 1.361 . S
C205 C207 1.500 . S
C206 C201 1.390 . S
C206 C205 1.361 . S
C206 H224 0.931 . S
C207 C205 1.500 . S
C207 C208 1.371 . S
C207 C209 1.365 . S
C208 C207 1.371 . S
C208 C218 1.386 . S
C208 H226 0.931 . S
C209 C207 1.365 . S
C209 C210 1.409 . S
C209 H227 0.929 . S
C210 C209 1.409 . S
C210 C211 1.380 . S
C210 H228 0.930 . S
C211 C210 1.380 . S
C211 C218 1.357 . S
C212 C203 1.511 . S
C212 C213 1.341 . S
C212 C214 1.371 . S
C213 C212 1.341 . S
C213 C217 1.394 . S
C213 H229 0.930 . S
C214 C212 1.371 . S
C214 C215 1.392 . S
C214 H230 0.931 . S
C215 C214 1.392 . S
C215 C216 1.331 . S
C215 H233 0.932 . S
C216 C215 1.331 . S
C216 C217 1.336 . S
C217 C213 1.394 . S
C217 C216 1.336 . S
C217 H232 0.929 . S
C218 C208 1.386 . S
C218 C211 1.357 . S
C218 H231 0.928 . S
H219 C195 0.931 . S
H220 C197 0.930 . S
H221 C199 0.929 . S
H222 C200 0.931 . S
H223 C202 0.930 . S
H224 C206 0.931 . S
H225 C204 0.931 . S
H226 C208 0.931 . S
H227 C209 0.929 . S
H228 C210 0.930 . S
H229 C213 0.930 . S
H230 C214 0.931 . S
H231 C218 0.928 . S
H232 C217 0.929 . S
H233 C215 0.932 . S
C234 C235 1.386 . S
C234 C236 1.397 . S
C234 H258 0.931 . S
C235 C234 1.386 . S
C235 C239 1.397 . S
C236 C234 1.397 . S
C236 C237 1.384 . S
C236 H259 0.930 . S
C237 C236 1.384 . S
C237 C238 1.377 . S
C237 C240 1.481 . S
C238 C237 1.377 . S
C238 C239 1.389 . S
C238 H260 0.929 . S
C239 C235 1.397 . S
C239 C238 1.389 . S
C239 H261 0.931 . S
C240 C237 1.481 . S
C240 C241 1.387 . S
C240 C245 1.390 . S
C241 C240 1.387 . S
C241 C242 1.401 . S
C241 H262 0.930 . S
C242 C241 1.401 . S
C242 C243 1.376 . S
C242 C251 1.511 . S
C243 C242 1.376 . S
C243 C244 1.392 . S
C243 H264 0.931 . S
C244 C243 1.392 . S
C244 C245 1.361 . S
C244 C246 1.500 . S
C245 C240 1.390 . S
C245 C244 1.361 . S
C245 H263 0.931 . S
C246 C244 1.500 . S
C246 C247 1.371 . S
C246 C248 1.365 . S
C247 C246 1.371 . S
C247 C257 1.386 . S
C247 H265 0.931 . S
C248 C246 1.365 . S
C248 C249 1.409 . S
C248 H266 0.929 . S
C249 C248 1.409 . S
C249 C250 1.380 . S
C249 H267 0.930 . S
C250 C249 1.380 . S
C250 C257 1.357 . S
C251 C242 1.511 . S
C251 C252 1.341 . S
C251 C253 1.371 . S
C252 C251 1.341 . S
C252 C256 1.394 . S
C252 H268 0.930 . S
C253 C251 1.371 . S
C253 C254 1.392 . S
C253 H269 0.931 . S
C254 C253 1.392 . S
C254 C255 1.331 . S
C254 H272 0.932 . S
C255 C254 1.331 . S
C255 C256 1.336 . S
C256 C252 1.394 . S
C256 C255 1.336 . S
C256 H271 0.929 . S
C257 C247 1.386 . S
C257 C250 1.357 . S
C257 H270 0.928 . S
H258 C234 0.931 . S
H259 C236 0.930 . S
H260 C238 0.929 . S
H261 C239 0.931 . S
H262 C241 0.930 . S
H263 C245 0.931 . S
H264 C243 0.931 . S
H265 C247 0.931 . S
H266 C248 0.929 . S
H267 C249 0.930 . S
H268 C252 0.930 . S
H269 C253 0.931 . S
H270 C257 0.928 . S
H271 C256 0.929 . S
H272 C254 0.932 . S
C273 C274 1.386 . S
C273 C275 1.397 . S
C273 H297 0.931 . S
C274 C273 1.386 . S
C274 C278 1.397 . S
C275 C273 1.397 . S
C275 C276 1.384 . S
C275 H298 0.930 . S
C276 C275 1.384 . S
C276 C277 1.377 . S
C276 C279 1.481 . S
C277 C276 1.377 . S
C277 C278 1.389 . S
C277 H299 0.929 . S
C278 C274 1.397 . S
C278 C277 1.389 . S
C278 H300 0.931 . S
C279 C276 1.481 . S
C279 C280 1.387 . S
C279 C284 1.390 . S
C280 C279 1.387 . S
C280 C281 1.401 . S
C280 H301 0.930 . S
C281 C280 1.401 . S
C281 C282 1.376 . S
C281 C290 1.511 . S
C282 C281 1.376 . S
C282 C283 1.392 . S
C282 H303 0.931 . S
C283 C282 1.392 . S
C283 C284 1.361 . S
C283 C285 1.500 . S
C284 C279 1.390 . S
C284 C283 1.361 . S
C284 H302 0.931 . S
C285 C283 1.500 . S
C285 C286 1.371 . S
C285 C287 1.365 . S
C286 C285 1.371 . S
C286 C296 1.386 . S
C286 H304 0.931 . S
C287 C285 1.365 . S
C287 C288 1.409 . S
C287 H305 0.929 . S
C288 C287 1.409 . S
C288 C289 1.380 . S
C288 H306 0.930 . S
C289 C288 1.380 . S
C289 C296 1.357 . S
C290 C281 1.511 . S
C290 C291 1.341 . S
C290 C292 1.371 . S
C291 C290 1.341 . S
C291 C295 1.394 . S
C291 H307 0.930 . S
C292 C290 1.371 . S
C292 C293 1.392 . S
C292 H308 0.931 . S
C293 C292 1.392 . S
C293 C294 1.331 . S
C293 H311 0.932 . S
C294 C293 1.331 . S
C294 C295 1.336 . S
C295 C291 1.394 . S
C295 C294 1.336 . S
C295 H310 0.929 . S
C296 C286 1.386 . S
C296 C289 1.357 . S
C296 H309 0.928 . S
H297 C273 0.931 . S
H298 C275 0.930 . S
H299 C277 0.929 . S
H300 C278 0.931 . S
H301 C280 0.930 . S
H302 C284 0.931 . S
H303 C282 0.931 . S
H304 C286 0.931 . S
H305 C287 0.929 . S
H306 C288 0.930 . S
H307 C291 0.930 . S
H308 C292 0.931 . S
H309 C296 0.928 . S
H310 C295 0.929 . S
H311 C293 0.932 . S
Dy312 O316 2.398 . S
Dy312 O317 2.491 . S
Dy312 O318 2.403 1_545 S
Dy312 O319 2.664 1_545 S
Dy312 O323 2.326 . S
Dy312 O327 2.310 1_455 S
Dy312 O328 2.351 1_445 S
C313 O324 1.185 . S
C313 O325 1.355 . S
C314 O316 1.185 . S
C314 O317 1.355 . S
Dy315 O319 2.310 1_655 S
Dy315 O322 2.351 1_665 S
Dy315 O324 2.398 . S
Dy315 O325 2.491 . S
Dy315 O326 2.403 1_565 S
Dy315 O327 2.664 1_565 S
Dy315 O329 2.326 . S
O316 Dy312 2.398 . S
O316 C314 1.185 . S
O317 Dy312 2.491 . S
O317 C314 1.355 . S
O318 Dy312 2.403 1_565 S
O318 C320 1.254 . S
O319 Dy312 2.664 1_565 S
O319 Dy315 2.310 1_455 S
O319 C320 1.268 . S
C320 O318 1.254 . S
C320 O319 1.268 . S
C321 O326 1.254 . S
C321 O327 1.268 . S
O322 Dy315 2.351 1_445 S
O322 C330 1.249 . S
O323 Dy312 2.326 . S
O323 C330 1.267 . S
O324 C313 1.185 . S
O324 Dy315 2.398 . S
O325 C313 1.355 . S
O325 Dy315 2.491 . S
O326 Dy315 2.403 1_545 S
O326 C321 1.254 . S
O327 Dy312 2.310 1_655 S
O327 Dy315 2.664 1_545 S
O327 C321 1.268 . S
O328 Dy312 2.351 1_665 S
O328 C331 1.249 . S
O329 Dy315 2.326 . S
O329 C331 1.267 . S
C330 O322 1.249 . S
C330 O323 1.267 . S
C331 O328 1.249 . S
C331 O329 1.267 . S
Dy332 O336 2.398 . S
Dy332 O337 2.491 . S
Dy332 O338 2.403 1_545 S
Dy332 O339 2.664 1_545 S
Dy332 O343 2.326 . S
Dy332 O347 2.310 1_554 S
Dy332 O348 2.351 1_544 S
C333 O344 1.185 . S
C333 O345 1.355 . S
C334 O336 1.185 . S
C334 O337 1.355 . S
Dy335 O339 2.285 1_546 S
Dy335 O342 2.373 1_556 S
Dy335 O344 2.394 1_545 S
Dy335 O345 2.458 1_545 S
Dy335 O346 2.434 . S
Dy335 O347 2.683 . S
Dy335 O349 2.311 1_545 S
O336 Dy332 2.398 . S
O336 C334 1.185 . S
O337 Dy332 2.491 . S
O337 C334 1.355 . S
O338 Dy332 2.403 1_565 S
O338 C340 1.254 . S
O339 Dy332 2.664 1_565 S
O339 Dy335 2.285 1_564 S
O339 C340 1.268 . S
C340 O338 1.254 . S
C340 O339 1.268 . S
C341 O346 1.254 . S
C341 O347 1.268 . S
O342 Dy335 2.373 1_554 S
O342 C350 1.249 . S
O343 Dy332 2.326 . S
O343 C350 1.267 . S
O344 C333 1.185 . S
O344 Dy335 2.394 1_565 S
O345 C333 1.355 . S
O345 Dy335 2.458 1_565 S
O346 Dy335 2.434 . S
O346 C341 1.254 . S
O347 Dy332 2.310 1_556 S
O347 Dy335 2.683 . S
O347 C341 1.268 . S
O348 Dy332 2.351 1_566 S
O348 C351 1.249 . S
O349 Dy335 2.311 1_565 S
O349 C351 1.267 . S
C350 O342 1.249 . S
C350 O343 1.267 . S
C351 O348 1.249 . S
C351 O349 1.267 . S
Dy352 O356 2.398 . S
Dy352 O357 2.491 . S
Dy352 O358 2.403 . S
Dy352 O359 2.664 . S
Dy352 O363 2.326 . S
Dy352 O367 2.310 . S
Dy352 O368 2.351 . S
C353 O364 1.185 . S
C353 O365 1.355 . S
C354 O356 1.185 . S
C354 O357 1.355 . S
Dy355 O359 2.310 . S
Dy355 O362 2.351 . S
Dy355 O364 2.398 . S
Dy355 O365 2.491 . S
Dy355 O366 2.403 . S
Dy355 O367 2.664 . S
Dy355 O369 2.326 . S
O356 Dy352 2.398 . S
O356 C354 1.185 . S
O357 Dy352 2.491 . S
O357 C354 1.355 . S
O358 Dy352 2.403 . S
O358 C360 1.254 . S
O359 Dy352 2.664 . S
O359 Dy355 2.310 . S
O359 C360 1.268 . S
C360 O358 1.254 . S
C360 O359 1.268 . S
C361 O366 1.254 . S
C361 O367 1.268 . S
O362 Dy355 2.351 . S
O362 C370 1.249 . S
O363 Dy352 2.326 . S
O363 C370 1.267 . S
O364 C353 1.185 . S
O364 Dy355 2.398 . S
O365 C353 1.355 . S
O365 Dy355 2.491 . S
O366 Dy355 2.403 . S
O366 C361 1.254 . S
O367 Dy352 2.310 . S
O367 Dy355 2.664 . S
O367 C361 1.268 . S
O368 Dy352 2.351 . S
O368 C371 1.249 . S
O369 Dy355 2.326 . S
O369 C371 1.267 . S
C370 O362 1.249 . S
C370 O363 1.267 . S
C371 O368 1.249 . S
C371 O369 1.267 . S
Dy372 O376 2.398 . S
Dy372 O377 2.491 . S
Dy372 O378 2.403 1_455 S
Dy372 O379 2.664 1_455 S
Dy372 O383 2.326 . S
Dy372 O387 2.310 1_554 S
Dy372 O388 2.351 1_454 S
C373 O384 1.185 . S
C373 O385 1.355 . S
C374 O376 1.185 . S
C374 O377 1.355 . S
Dy375 O379 2.310 1_556 S
Dy375 O382 2.351 1_656 S
Dy375 O384 2.398 . S
Dy375 O385 2.491 . S
Dy375 O386 2.403 1_655 S
Dy375 O387 2.664 1_655 S
Dy375 O389 2.326 . S
O376 Dy372 2.398 . S
O376 C374 1.185 . S
O377 Dy372 2.491 . S
O377 C374 1.355 . S
O378 Dy372 2.403 1_655 S
O378 C380 1.254 . S
O379 Dy372 2.664 1_655 S
O379 Dy375 2.310 1_554 S
O379 C380 1.268 . S
C380 O378 1.254 . S
C380 O379 1.268 . S
C381 O386 1.254 . S
C381 O387 1.268 . S
O382 Dy375 2.351 1_454 S
O382 C390 1.249 . S
O383 Dy372 2.326 . S
O383 C390 1.267 . S
O384 C373 1.185 . S
O384 Dy375 2.398 . S
O385 C373 1.355 . S
O385 Dy375 2.491 . S
O386 Dy375 2.403 1_455 S
O386 C381 1.254 . S
O387 Dy372 2.310 1_556 S
O387 Dy375 2.664 1_455 S
O387 C381 1.268 . S
O388 Dy372 2.351 1_656 S
O388 C391 1.249 . S
O389 Dy375 2.326 . S
O389 C391 1.267 . S
C390 O382 1.249 . S
C390 O383 1.267 . S
C391 O388 1.249 . S
C391 O389 1.267 . S
C392 C393 1.391 . S
C392 C394 1.394 . S
C392 H408 0.931 . S
C393 C392 1.391 . S
C393 C397 1.376 . S
C394 C392 1.394 . S
C394 C395 1.369 . S
C394 C398 1.531 . S
C395 C394 1.369 . S
C395 C396 1.410 . S
C395 C403 1.503 . S
C396 C395 1.410 . S
C396 C397 1.392 . S
C396 C399 1.511 . S
C397 C393 1.376 . S
C397 C396 1.392 . S
C397 H409 0.929 . S
C398 C394 1.531 . S
C398 H410 0.960 . S
C398 H411 0.962 . S
C398 H412 0.960 . S
C399 C396 1.511 . S
C399 H413 0.961 . S
C399 H414 0.961 . S
C399 H415 0.961 . S
C400 C401 1.370 . S
C400 C402 1.363 . S
C400 H416 0.931 . S
C401 C400 1.370 . S
C401 C405 1.408 . S
C402 C400 1.363 . S
C402 C403 1.370 . S
C402 C406 1.524 . S
C403 C395 1.503 . S
C403 C402 1.370 . S
C403 C404 1.403 . S
C404 C403 1.403 . S
C404 C405 1.404 . S
C404 C407 1.539 . S
C405 C401 1.408 . S
C405 C404 1.404 . S
C405 H417 0.930 . S
C406 C402 1.524 . S
C406 H418 0.956 . S
C406 H419 0.961 . S
C406 H420 0.961 . S
C407 C404 1.539 . S
C407 H421 0.958 . S
C407 H422 0.961 . S
C407 H423 0.960 . S
H408 C392 0.931 . S
H409 C397 0.929 . S
H410 C398 0.960 . S
H411 C398 0.962 . S
H412 C398 0.960 . S
H413 C399 0.961 . S
H414 C399 0.961 . S
H415 C399 0.961 . S
H416 C400 0.931 . S
H417 C405 0.930 . S
H418 C406 0.956 . S
H419 C406 0.961 . S
H420 C406 0.961 . S
H421 C407 0.958 . S
H422 C407 0.961 . S
H423 C407 0.960 . S
C424 C425 1.391 . S
C424 C426 1.394 . S
C424 H440 0.931 . S
C425 C424 1.391 . S
C425 C429 1.376 . S
C426 C424 1.394 . S
C426 C427 1.369 . S
C426 C430 1.531 . S
C427 C426 1.369 . S
C427 C428 1.410 . S
C427 C435 1.503 . S
C428 C427 1.410 . S
C428 C429 1.392 . S
C428 C431 1.511 . S
C429 C425 1.376 . S
C429 C428 1.392 . S
C429 H441 0.929 . S
C430 C426 1.531 . S
C430 H442 0.960 . S
C430 H443 0.962 . S
C430 H444 0.960 . S
C431 C428 1.511 . S
C431 H445 0.961 . S
C431 H446 0.961 . S
C431 H447 0.961 . S
C432 C433 1.370 . S
C432 C434 1.363 . S
C432 H448 0.931 . S
C433 C432 1.370 . S
C433 C437 1.408 . S
C434 C432 1.363 . S
C434 C435 1.370 . S
C434 C438 1.524 . S
C435 C427 1.503 . S
C435 C434 1.370 . S
C435 C436 1.403 . S
C436 C435 1.403 . S
C436 C437 1.404 . S
C436 C439 1.539 . S
C437 C433 1.408 . S
C437 C436 1.404 . S
C437 H449 0.930 . S
C438 C434 1.524 . S
C438 H450 0.956 . S
C438 H451 0.961 . S
C438 H452 0.961 . S
C439 C436 1.539 . S
C439 H453 0.958 . S
C439 H454 0.961 . S
C439 H455 0.960 . S
H440 C424 0.931 . S
H441 C429 0.929 . S
H442 C430 0.960 . S
H443 C430 0.962 . S
H444 C430 0.960 . S
H445 C431 0.961 . S
H446 C431 0.961 . S
H447 C431 0.961 . S
H448 C432 0.931 . S
H449 C437 0.930 . S
H450 C438 0.956 . S
H451 C438 0.961 . S
H452 C438 0.961 . S
H453 C439 0.958 . S
H454 C439 0.961 . S
H455 C439 0.960 . S
C456 C457 1.391 . S
C456 C458 1.394 . S
C456 H472 0.931 . S
C457 C456 1.391 . S
C457 C461 1.376 . S
C458 C456 1.394 . S
C458 C459 1.369 . S
C458 C462 1.531 . S
C459 C458 1.369 . S
C459 C460 1.410 . S
C459 C467 1.503 . S
C460 C459 1.410 . S
C460 C461 1.392 . S
C460 C463 1.511 . S
C461 C457 1.376 . S
C461 C460 1.392 . S
C461 H473 0.929 . S
C462 C458 1.531 . S
C462 H474 0.960 . S
C462 H475 0.962 . S
C462 H476 0.960 . S
C463 C460 1.511 . S
C463 H477 0.961 . S
C463 H478 0.961 . S
C463 H479 0.961 . S
C464 C465 1.370 . S
C464 C466 1.363 . S
C464 H480 0.931 . S
C465 C464 1.370 . S
C465 C469 1.408 . S
C466 C464 1.363 . S
C466 C467 1.370 . S
C466 C470 1.524 . S
C467 C459 1.503 . S
C467 C466 1.370 . S
C467 C468 1.403 . S
C468 C467 1.403 . S
C468 C469 1.404 . S
C468 C471 1.539 . S
C469 C465 1.408 . S
C469 C468 1.404 . S
C469 H481 0.930 . S
C470 C466 1.524 . S
C470 H482 0.956 . S
C470 H483 0.961 . S
C470 H484 0.961 . S
C471 C468 1.539 . S
C471 H485 0.958 . S
C471 H486 0.961 . S
C471 H487 0.960 . S
H472 C456 0.931 . S
H473 C461 0.929 . S
H474 C462 0.960 . S
H475 C462 0.962 . S
H476 C462 0.960 . S
H477 C463 0.961 . S
H478 C463 0.961 . S
H479 C463 0.961 . S
H480 C464 0.931 . S
H481 C469 0.930 . S
H482 C470 0.956 . S
H483 C470 0.961 . S
H484 C470 0.961 . S
H485 C471 0.958 . S
H486 C471 0.961 . S
H487 C471 0.960 . S
C488 C489 1.391 . S
C488 C490 1.394 . S
C488 H504 0.931 . S
C489 C488 1.391 . S
C489 C493 1.376 . S
C490 C488 1.394 . S
C490 C491 1.369 . S
C490 C494 1.531 . S
C491 C490 1.369 . S
C491 C492 1.410 . S
C491 C499 1.503 . S
C492 C491 1.410 . S
C492 C493 1.392 . S
C492 C495 1.511 . S
C493 C489 1.376 . S
C493 C492 1.392 . S
C493 H505 0.929 . S
C494 C490 1.531 . S
C494 H506 0.960 . S
C494 H507 0.962 . S
C494 H508 0.960 . S
C495 C492 1.511 . S
C495 H509 0.961 . S
C495 H510 0.961 . S
C495 H511 0.961 . S
C496 C497 1.370 . S
C496 C498 1.363 . S
C496 H512 0.931 . S
C497 C496 1.370 . S
C497 C501 1.408 . S
C498 C496 1.363 . S
C498 C499 1.370 . S
C498 C502 1.524 . S
C499 C491 1.503 . S
C499 C498 1.370 . S
C499 C500 1.403 . S
C500 C499 1.403 . S
C500 C501 1.404 . S
C500 C503 1.539 . S
C501 C497 1.408 . S
C501 C500 1.404 . S
C501 H513 0.930 1_655 S
C502 C498 1.524 . S
C502 H514 0.956 . S
C502 H515 0.961 . S
C502 H516 0.961 . S
C503 C500 1.539 . S
C503 H517 0.958 . S
C503 H518 0.961 1_655 S
C503 H519 0.960 . S
H504 C488 0.931 . S
H505 C493 0.929 . S
H506 C494 0.960 . S
H507 C494 0.962 . S
H508 C494 0.960 . S
H509 C495 0.961 . S
H510 C495 0.961 . S
H511 C495 0.961 . S
H512 C496 0.931 . S
H513 C501 0.930 1_455 S
H514 C502 0.956 . S
H515 C502 0.961 . S
H516 C502 0.961 . S
H517 C503 0.958 . S
H518 C503 0.961 1_455 S
H519 C503 0.960 . S
C520 C521 1.391 . S
C520 C522 1.394 . S
C520 H536 0.931 . S
C521 C520 1.391 . S
C521 C525 1.376 . S
C522 C520 1.394 . S
C522 C523 1.369 . S
C522 C526 1.531 . S
C523 C522 1.369 . S
C523 C524 1.410 . S
C523 C531 1.503 . S
C524 C523 1.410 . S
C524 C525 1.392 . S
C524 C527 1.511 . S
C525 C521 1.376 . S
C525 C524 1.392 . S
C525 H537 0.929 . S
C526 C522 1.531 . S
C526 H538 0.960 . S
C526 H539 0.962 . S
C526 H540 0.960 . S
C527 C524 1.511 . S
C527 H541 0.961 . S
C527 H542 0.961 . S
C527 H543 0.961 . S
C528 C529 1.370 . S
C528 C530 1.363 . S
C528 H544 0.931 . S
C529 C528 1.370 . S
C529 C533 1.408 . S
C530 C528 1.363 . S
C530 C531 1.370 . S
C530 C534 1.524 . S
C531 C523 1.503 . S
C531 C530 1.370 . S
C531 C532 1.403 . S
C532 C531 1.403 . S
C532 C533 1.404 . S
C532 C535 1.539 . S
C533 C529 1.408 . S
C533 C532 1.404 . S
C533 H545 0.930 . S
C534 C530 1.524 . S
C534 H546 0.956 . S
C534 H547 0.961 . S
C534 H548 0.961 . S
C535 C532 1.539 . S
C535 H549 0.958 . S
C535 H550 0.961 . S
C535 H551 0.960 . S
H536 C520 0.931 . S
H537 C525 0.929 . S
H538 C526 0.960 . S
H539 C526 0.962 . S
H540 C526 0.960 . S
H541 C527 0.961 . S
H542 C527 0.961 . S
H543 C527 0.961 . S
H544 C528 0.931 . S
H545 C533 0.930 . S
H546 C534 0.956 . S
H547 C534 0.961 . S
H548 C534 0.961 . S
H549 C535 0.958 . S
H550 C535 0.961 . S
H551 C535 0.960 . S
C552 C553 1.391 . S
C552 C554 1.394 . S
C552 H568 0.931 . S
C553 C552 1.391 . S
C553 C557 1.376 . S
C554 C552 1.394 . S
C554 C555 1.369 . S
C554 C558 1.531 . S
C555 C554 1.369 . S
C555 C556 1.410 . S
C555 C563 1.503 . S
C556 C555 1.410 . S
C556 C557 1.392 . S
C556 C559 1.511 . S
C557 C553 1.376 . S
C557 C556 1.392 . S
C557 H569 0.929 . S
C558 C554 1.531 . S
C558 H570 0.960 . S
C558 H571 0.962 . S
C558 H572 0.960 . S
C559 C556 1.511 . S
C559 H573 0.961 . S
C559 H574 0.961 . S
C559 H575 0.961 . S
C560 C561 1.370 . S
C560 C562 1.363 . S
C560 H576 0.931 . S
C561 C560 1.370 . S
C561 C565 1.408 . S
C562 C560 1.363 . S
C562 C563 1.370 . S
C562 C566 1.524 . S
C563 C555 1.503 . S
C563 C562 1.370 . S
C563 C564 1.403 . S
C564 C563 1.403 . S
C564 C565 1.404 . S
C564 C567 1.514 1_565 S
C565 C561 1.408 . S
C565 C564 1.404 . S
C565 H577 0.930 1_565 S
C566 C562 1.524 . S
C566 H578 0.956 . S
C566 H579 0.961 . S
C566 H580 0.961 . S
C567 C564 1.514 1_545 S
C567 H581 0.965 . S
C567 H582 0.997 . S
C567 H583 0.944 1_545 S
H568 C552 0.931 . S
H569 C557 0.929 . S
H570 C558 0.960 . S
H571 C558 0.962 . S
H572 C558 0.960 . S
H573 C559 0.961 . S
H574 C559 0.961 . S
H575 C559 0.961 . S
H576 C560 0.931 . S
H577 C565 0.930 1_545 S
H578 C566 0.956 . S
H579 C566 0.961 . S
H580 C566 0.961 . S
H581 C567 0.965 . S
H582 C567 0.997 . S
H583 C567 0.944 1_565 S
C584 C585 1.391 . S
C584 C586 1.394 . S
C584 H600 0.931 . S
C585 C584 1.391 . S
C585 C589 1.376 . S
C586 C584 1.394 . S
C586 C587 1.369 . S
C586 C590 1.531 . S
C587 C586 1.369 . S
C587 C588 1.410 . S
C587 C595 1.503 . S
C588 C587 1.410 . S
C588 C589 1.392 . S
C588 C591 1.511 . S
C589 C585 1.376 . S
C589 C588 1.392 . S
C589 H601 0.929 . S
C590 C586 1.531 . S
C590 H602 0.960 . S
C590 H603 0.962 . S
C590 H604 0.960 . S
C591 C588 1.511 . S
C591 H605 0.961 . S
C591 H606 0.961 . S
C591 H607 0.961 . S
C592 C593 1.370 . S
C592 C594 1.363 . S
C592 H608 0.931 . S
C593 C592 1.370 . S
C593 C597 1.408 . S
C594 C592 1.363 . S
C594 C595 1.370 . S
C594 C598 1.524 . S
C595 C587 1.503 . S
C595 C594 1.370 . S
C595 C596 1.403 . S
C596 C595 1.403 . S
C596 C597 1.404 . S
C596 C599 1.539 1_556 S
C597 C593 1.408 . S
C597 C596 1.404 . S
C597 H609 0.930 1_556 S
C598 C594 1.524 . S
C598 H610 0.956 . S
C598 H611 0.961 . S
C598 H612 0.961 . S
C599 C596 1.539 1_554 S
C599 H613 0.958 . S
C599 H614 0.961 . S
C599 H615 0.960 1_554 S
H600 C584 0.931 . S
H601 C589 0.929 . S
H602 C590 0.960 . S
H603 C590 0.962 . S
H604 C590 0.960 . S
H605 C591 0.961 . S
H606 C591 0.961 . S
H607 C591 0.961 . S
H608 C592 0.931 . S
H609 C597 0.930 1_554 S
H610 C598 0.956 . S
H611 C598 0.961 . S
H612 C598 0.961 . S
H613 C599 0.958 . S
H614 C599 0.961 . S
H615 C599 0.960 1_556 S
C616 C617 1.391 . S
C616 C618 1.394 . S
C616 H632 0.931 . S
C617 C616 1.391 . S
C617 C621 1.376 . S
C618 C616 1.394 . S
C618 C619 1.369 . S
C618 C622 1.531 . S
C619 C618 1.369 . S
C619 C620 1.410 . S
C619 C627 1.503 . S
C620 C619 1.410 . S
C620 C621 1.392 . S
C620 C623 1.511 . S
C621 C617 1.376 . S
C621 C620 1.392 . S
C621 H633 0.929 . S
C622 C618 1.531 . S
C622 H634 0.960 . S
C622 H635 0.962 . S
C622 H636 0.960 . S
C623 C620 1.511 . S
C623 H637 0.961 . S
C623 H638 0.961 . S
C623 H639 0.961 . S
C624 C625 1.370 . S
C624 C626 1.363 . S
C624 H640 0.931 . S
C625 C624 1.370 . S
C625 C629 1.408 . S
C626 C624 1.363 . S
C626 C627 1.370 . S
C626 C630 1.524 . S
C627 C619 1.503 . S
C627 C626 1.370 . S
C627 C628 1.403 . S
C628 C627 1.403 . S
C628 C629 1.404 . S
C628 C631 1.539 . S
C629 C625 1.408 . S
C629 C628 1.404 . S
C629 H641 0.930 . S
C630 C626 1.524 . S
C630 H642 0.956 . S
C630 H643 0.961 . S
C630 H644 0.961 . S
C631 C628 1.539 . S
C631 H645 0.958 . S
C631 H646 0.961 . S
C631 H647 0.960 . S
H632 C616 0.931 . S
H633 C621 0.929 . S
H634 C622 0.960 . S
H635 C622 0.962 . S
H636 C622 0.960 . S
H637 C623 0.961 . S
H638 C623 0.961 . S
H639 C623 0.961 . S
H640 C624 0.931 . S
H641 C629 0.930 . S
H642 C630 0.956 . S
H643 C630 0.961 . S
H644 C630 0.961 . S
H645 C631 0.958 . S
H646 C631 0.961 . S
H647 C631 0.960 . S
C648 C649 1.391 . S
C648 C650 1.394 . S
C648 H664 0.931 . S
C649 C648 1.391 . S
C649 C653 1.376 . S
C650 C648 1.394 . S
C650 C651 1.369 . S
C650 C654 1.531 . S
C651 C650 1.369 . S
C651 C652 1.410 . S
C651 C659 1.503 . S
C652 C651 1.410 . S
C652 C653 1.392 . S
C652 C655 1.511 . S
C653 C649 1.376 . S
C653 C652 1.392 . S
C653 H665 0.929 . S
C654 C650 1.531 . S
C654 H666 0.960 . S
C654 H667 0.962 . S
C654 H668 0.960 . S
C655 C652 1.511 . S
C655 H669 0.961 . S
C655 H670 0.961 . S
C655 H671 0.961 . S
C656 C657 1.370 . S
C656 C658 1.363 . S
C656 H672 0.931 . S
C657 C656 1.370 . S
C657 C661 1.408 . S
C658 C656 1.363 . S
C658 C659 1.370 . S
C658 C662 1.524 . S
C659 C651 1.503 . S
C659 C658 1.370 . S
C659 C660 1.403 . S
C660 C659 1.403 . S
C660 C661 1.404 . S
C660 C663 1.539 . S
C661 C657 1.408 . S
C661 C660 1.404 . S
C661 H673 0.930 . S
C662 C658 1.524 . S
C662 H674 0.956 . S
C662 H675 0.961 . S
C662 H676 0.961 . S
C663 C660 1.539 . S
C663 H677 0.958 . S
C663 H678 0.961 . S
C663 H679 0.960 . S
H664 C648 0.931 . S
H665 C653 0.929 . S
H666 C654 0.960 . S
H667 C654 0.962 . S
H668 C654 0.960 . S
H669 C655 0.961 . S
H670 C655 0.961 . S
H671 C655 0.961 . S
H672 C656 0.931 . S
H673 C661 0.930 . S
H674 C662 0.956 . S
H675 C662 0.961 . S
H676 C662 0.961 . S
H677 C663 0.958 . S
H678 C663 0.961 . S
H679 C663 0.960 . S
C680 C681 1.391 . S
C680 C682 1.394 . S
C680 H696 0.931 . S
C681 C680 1.391 . S
C681 C685 1.376 . S
C682 C680 1.394 . S
C682 C683 1.369 . S
C682 C686 1.531 . S
C683 C682 1.369 . S
C683 C684 1.410 . S
C683 C691 1.503 . S
C684 C683 1.410 . S
C684 C685 1.392 . S
C684 C687 1.511 . S
C685 C681 1.376 . S
C685 C684 1.392 . S
C685 H697 0.929 . S
C686 C682 1.531 . S
C686 H698 0.960 . S
C686 H699 0.962 . S
C686 H700 0.960 . S
C687 C684 1.511 . S
C687 H701 0.961 . S
C687 H702 0.961 . S
C687 H703 0.961 . S
C688 C689 1.370 . S
C688 C690 1.363 . S
C688 H704 0.931 . S
C689 C688 1.370 . S
C689 C693 1.408 . S
C690 C688 1.363 . S
C690 C691 1.370 . S
C690 C694 1.524 . S
C691 C683 1.503 . S
C691 C690 1.370 . S
C691 C692 1.403 . S
C692 C691 1.403 . S
C692 C693 1.404 . S
C692 C695 1.539 . S
C693 C689 1.408 . S
C693 C692 1.404 . S
C693 H705 0.930 . S
C694 C690 1.524 . S
C694 H706 0.956 . S
C694 H707 0.961 . S
C694 H708 0.961 . S
C695 C692 1.539 . S
C695 H709 0.958 . S
C695 H710 0.961 . S
C695 H711 0.960 . S
H696 C680 0.931 . S
H697 C685 0.929 . S
H698 C686 0.960 . S
H699 C686 0.962 . S
H700 C686 0.960 . S
H701 C687 0.961 . S
H702 C687 0.961 . S
H703 C687 0.961 . S
H704 C688 0.931 . S
H705 C693 0.930 . S
H706 C694 0.956 . S
H707 C694 0.961 . S
H708 C694 0.961 . S
H709 C695 0.958 . S
H710 C695 0.961 . S
H711 C695 0.960 . S
C712 C713 1.391 . S
C712 C714 1.394 . S
C712 H728 0.931 . S
C713 C712 1.391 . S
C713 C717 1.376 . S
C714 C712 1.394 . S
C714 C715 1.369 . S
C714 C718 1.531 . S
C715 C714 1.369 . S
C715 C716 1.410 . S
C715 C723 1.503 . S
C716 C715 1.410 . S
C716 C717 1.392 . S
C716 C719 1.511 . S
C717 C713 1.376 . S
C717 C716 1.392 . S
C717 H729 0.929 . S
C718 C714 1.531 . S
C718 H730 0.960 . S
C718 H731 0.962 . S
C718 H732 0.960 . S
C719 C716 1.511 . S
C719 H733 0.961 . S
C719 H734 0.961 . S
C719 H735 0.961 . S
C720 C721 1.370 . S
C720 C722 1.363 . S
C720 H736 0.927 . S
C721 C720 1.370 . S
C721 C725 1.408 . S
C722 C720 1.363 . S
C722 C723 1.370 . S
C722 C726 1.524 . S
C723 C715 1.503 . S
C723 C722 1.370 . S
C723 C724 1.403 . S
C724 C723 1.403 . S
C724 C725 1.404 . S
C724 C727 1.539 . S
C725 C721 1.408 . S
C725 C724 1.404 . S
C725 H737 0.930 . S
C726 C722 1.524 . S
C726 H738 0.956 . S
C726 H739 0.961 . S
C726 H740 0.961 1_655 S
C727 C724 1.539 . S
C727 H741 0.958 . S
C727 H742 0.961 . S
C727 H743 0.960 . S
H728 C712 0.931 . S
H729 C717 0.929 . S
H730 C718 0.960 . S
H731 C718 0.962 . S
H732 C718 0.960 . S
H733 C719 0.961 . S
H734 C719 0.961 . S
H735 C719 0.961 . S
H736 C720 0.927 . S
H737 C725 0.930 . S
H738 C726 0.956 . S
H739 C726 0.961 . S
H740 C726 0.961 1_455 S
H741 C727 0.958 . S
H742 C727 0.961 . S
H743 C727 0.960 . S
C744 C745 1.391 . S
C744 C746 1.394 . S
C744 H760 0.931 . S
C745 C744 1.391 . S
C745 C749 1.376 . S
C746 C744 1.394 . S
C746 C747 1.369 . S
C746 C750 1.531 . S
C747 C746 1.369 . S
C747 C748 1.410 . S
C747 C755 1.503 . S
C748 C747 1.410 . S
C748 C749 1.392 . S
C748 C751 1.511 . S
C749 C745 1.376 . S
C749 C748 1.392 . S
C749 H761 0.929 . S
C750 C746 1.531 . S
C750 H762 0.960 . S
C750 H763 0.962 . S
C750 H764 0.960 . S
C751 C748 1.511 . S
C751 H765 0.961 . S
C751 H766 0.961 . S
C751 H767 0.961 . S
C752 C753 1.370 . S
C752 C754 1.363 . S
C752 H768 0.931 . S
C753 C752 1.370 . S
C753 C757 1.408 . S
C754 C752 1.363 . S
C754 C755 1.370 . S
C754 C758 1.524 . S
C755 C747 1.503 . S
C755 C754 1.370 . S
C755 C756 1.403 . S
C756 C755 1.403 . S
C756 C757 1.404 . S
C756 C759 1.539 . S
C757 C753 1.408 . S
C757 C756 1.404 . S
C757 H769 0.930 . S
C758 C754 1.524 . S
C758 H770 0.956 . S
C758 H771 0.961 . S
C758 H772 0.961 . S
C759 C756 1.539 . S
C759 H773 0.958 . S
C759 H774 0.961 . S
C759 H775 0.960 . S
H760 C744 0.931 . S
H761 C749 0.929 . S
H762 C750 0.960 . S
H763 C750 0.962 . S
H764 C750 0.960 . S
H765 C751 0.961 . S
H766 C751 0.961 . S
H767 C751 0.961 . S
H768 C752 0.931 . S
H769 C757 0.930 . S
H770 C758 0.956 . S
H771 C758 0.961 . S
H772 C758 0.961 . S
H773 C759 0.958 . S
H774 C759 0.961 . S
H775 C759 0.960 . S
C776 C777 1.391 . S
C776 C778 1.394 . S
C776 H792 0.931 . S
C777 C776 1.391 . S
C777 C781 1.376 . S
C778 C776 1.394 . S
C778 C779 1.369 . S
C778 C782 1.531 . S
C779 C778 1.369 . S
C779 C780 1.410 . S
C779 C787 1.503 . S
C780 C779 1.410 . S
C780 C781 1.392 . S
C780 C783 1.511 . S
C781 C777 1.376 . S
C781 C780 1.392 . S
C781 H793 0.929 . S
C782 C778 1.531 . S
C782 H794 0.960 . S
C782 H795 0.962 . S
C782 H796 0.960 . S
C783 C780 1.511 . S
C783 H797 0.961 . S
C783 H798 0.961 . S
C783 H799 0.961 . S
C784 C785 1.370 . S
C784 C786 1.363 . S
C784 H800 0.931 . S
C785 C784 1.370 . S
C785 C789 1.408 . S
C786 C784 1.363 . S
C786 C787 1.370 . S
C786 C790 1.524 . S
C787 C779 1.503 . S
C787 C786 1.370 . S
C787 C788 1.403 . S
C788 C787 1.403 . S
C788 C789 1.404 . S
C788 C791 1.539 . S
C789 C785 1.408 . S
C789 C788 1.404 . S
C789 H801 0.930 . S
C790 C786 1.524 . S
C790 H802 0.956 . S
C790 H803 0.961 . S
C790 H804 0.961 . S
C791 C788 1.539 . S
C791 H805 0.958 . S
C791 H806 0.961 . S
C791 H807 0.960 . S
H792 C776 0.931 . S
H793 C781 0.929 . S
H794 C782 0.960 . S
H795 C782 0.962 . S
H796 C782 0.960 . S
H797 C783 0.961 . S
H798 C783 0.961 . S
H799 C783 0.961 . S
H800 C784 0.931 . S
H801 C789 0.930 . S
H802 C790 0.956 . S
H803 C790 0.961 . S
H804 C790 0.961 . S
H805 C791 0.958 . S
H806 C791 0.961 . S
H807 C791 0.960 . S
C808 C809 1.391 . S
C808 C810 1.394 . S
C808 H824 0.931 . S
C809 C808 1.391 . S
C809 C813 1.376 . S
C810 C808 1.394 . S
C810 C811 1.369 . S
C810 C814 1.531 . S
C811 C810 1.369 . S
C811 C812 1.410 . S
C811 C819 1.503 . S
C812 C811 1.410 . S
C812 C813 1.392 . S
C812 C815 1.511 . S
C813 C809 1.376 . S
C813 C812 1.392 . S
C813 H825 0.929 . S
C814 C810 1.531 . S
C814 H826 0.960 . S
C814 H827 0.962 . S
C814 H828 0.960 . S
C815 C812 1.511 . S
C815 H829 0.961 . S
C815 H830 0.961 . S
C815 H831 0.961 . S
C816 C817 1.370 . S
C816 C818 1.363 . S
C816 H832 0.931 . S
C817 C816 1.370 . S
C817 C821 1.408 . S
C818 C816 1.363 . S
C818 C819 1.370 . S
C818 C822 1.524 . S
C819 C811 1.503 . S
C819 C818 1.370 . S
C819 C820 1.403 . S
C820 C819 1.403 . S
C820 C821 1.404 . S
C820 C823 1.539 . S
C821 C817 1.408 . S
C821 C820 1.404 . S
C821 H833 0.930 . S
C822 C818 1.524 . S
C822 H834 0.956 . S
C822 H835 0.961 . S
C822 H836 0.961 . S
C823 C820 1.539 . S
C823 H837 0.958 1_545 S
C823 H838 0.972 . S
C823 H839 0.960 . S
H824 C808 0.931 . S
H825 C813 0.929 . S
H826 C814 0.960 . S
H827 C814 0.962 . S
H828 C814 0.960 . S
H829 C815 0.961 . S
H830 C815 0.961 . S
H831 C815 0.961 . S
H832 C816 0.931 . S
H833 C821 0.930 . S
H834 C822 0.956 . S
H835 C822 0.961 . S
H836 C822 0.961 . S
H837 C823 0.958 1_565 S
H838 C823 0.972 . S
H839 C823 0.960 . S
C840 C841 1.391 . S
C840 C842 1.394 . S
C840 H856 0.931 . S
C841 C840 1.391 . S
C841 C845 1.376 . S
C842 C840 1.394 . S
C842 C843 1.369 . S
C842 C846 1.531 . S
C843 C842 1.369 . S
C843 C844 1.410 . S
C843 C851 1.503 . S
C844 C843 1.410 . S
C844 C845 1.392 . S
C844 C847 1.511 . S
C845 C841 1.376 . S
C845 C844 1.392 . S
C845 H857 0.929 . S
C846 C842 1.531 . S
C846 H858 0.960 . S
C846 H859 0.962 . S
C846 H860 0.960 . S
C847 C844 1.511 . S
C847 H861 0.961 . S
C847 H862 0.961 . S
C847 H863 0.961 . S
C848 C849 1.370 . S
C848 C850 1.363 . S
C848 H864 0.931 . S
C849 C848 1.370 . S
C849 C853 1.408 . S
C850 C848 1.363 . S
C850 C851 1.370 . S
C850 C854 1.524 . S
C851 C843 1.503 . S
C851 C850 1.370 . S
C851 C852 1.403 . S
C852 C851 1.403 . S
C852 C853 1.404 . S
C852 C855 1.539 . S
C853 C849 1.408 . S
C853 C852 1.404 . S
C853 H865 0.930 . S
C854 C850 1.524 . S
C854 H866 0.956 . S
C854 H867 0.961 . S
C854 H868 0.961 . S
C855 C852 1.539 . S
C855 H869 0.958 . S
C855 H870 0.961 . S
C855 H871 0.960 . S
H856 C840 0.931 . S
H857 C845 0.929 . S
H858 C846 0.960 . S
H859 C846 0.962 . S
H860 C846 0.960 . S
H861 C847 0.961 . S
H862 C847 0.961 . S
H863 C847 0.961 . S
H864 C848 0.931 . S
H865 C853 0.930 . S
H866 C854 0.956 . S
H867 C854 0.961 . S
H868 C854 0.961 . S
H869 C855 0.958 . S
H870 C855 0.961 . S
H871 C855 0.960 . S
C872 C873 1.391 . S
C872 C874 1.394 . S
C872 H888 0.931 . S
C873 C872 1.391 . S
C873 C877 1.376 . S
C874 C872 1.394 . S
C874 C875 1.369 . S
C874 C878 1.531 . S
C875 C874 1.369 . S
C875 C876 1.410 . S
C875 C883 1.503 . S
C876 C875 1.410 . S
C876 C877 1.392 . S
C876 C879 1.511 . S
C877 C873 1.376 . S
C877 C876 1.392 . S
C877 H889 0.929 . S
C878 C874 1.531 . S
C878 H890 0.960 . S
C878 H891 0.962 . S
C878 H892 0.960 . S
C879 C876 1.511 . S
C879 H893 0.961 . S
C879 H894 0.961 . S
C879 H895 0.961 . S
C880 C881 1.370 . S
C880 C882 1.363 . S
C880 H896 0.931 . S
C881 C880 1.370 . S
C881 C885 1.408 . S
C882 C880 1.363 . S
C882 C883 1.370 . S
C882 C886 1.524 . S
C883 C875 1.503 . S
C883 C882 1.370 . S
C883 C884 1.403 . S
C884 C883 1.403 . S
C884 C885 1.404 . S
C884 C887 1.539 . S
C885 C881 1.408 . S
C885 C884 1.404 . S
C885 H897 0.930 . S
C886 C882 1.524 . S
C886 H898 0.956 . S
C886 H899 0.961 . S
C886 H900 0.961 . S
C887 C884 1.539 . S
C887 H901 0.958 . S
C887 H902 0.961 . S
C887 H903 0.960 . S
H888 C872 0.931 . S
H889 C877 0.929 . S
H890 C878 0.960 . S
H891 C878 0.962 . S
H892 C878 0.960 . S
H893 C879 0.961 . S
H894 C879 0.961 . S
H895 C879 0.961 . S
H896 C880 0.931 . S
H897 C885 0.930 . S
H898 C886 0.956 . S
H899 C886 0.961 . S
H900 C886 0.961 . S
H901 C887 0.958 . S
H902 C887 0.961 . S
H903 C887 0.960 . S
C904 C905 1.391 . S
C904 C906 1.394 . S
C904 H920 0.931 . S
C905 C904 1.391 . S
C905 C909 1.376 . S
C906 C904 1.394 . S
C906 C907 1.369 . S
C906 C910 1.531 . S
C907 C906 1.369 . S
C907 C908 1.410 . S
C907 C915 1.503 . S
C908 C907 1.410 . S
C908 C909 1.392 . S
C908 C911 1.511 . S
C909 C905 1.376 . S
C909 C908 1.392 . S
C909 H921 0.929 . S
C910 C906 1.531 . S
C910 H922 0.960 . S
C910 H923 0.962 . S
C910 H924 0.960 . S
C911 C908 1.511 . S
C911 H925 0.961 . S
C911 H926 0.961 . S
C911 H927 0.961 . S
C912 C913 1.370 . S
C912 C914 1.363 . S
C912 H928 0.931 . S
C913 C912 1.370 . S
C913 C917 1.408 . S
C914 C912 1.363 . S
C914 C915 1.370 . S
C914 C918 1.524 . S
C915 C907 1.503 . S
C915 C914 1.370 . S
C915 C916 1.403 . S
C916 C915 1.403 . S
C916 C917 1.404 . S
C916 C919 1.539 . S
C917 C913 1.408 . S
C917 C916 1.404 . S
C917 H929 0.930 . S
C918 C914 1.524 . S
C918 H930 0.956 . S
C918 H931 0.961 . S
C918 H932 0.961 . S
C919 C916 1.539 . S
C919 H933 0.958 . S
C919 H934 0.961 . S
C919 H935 0.960 . S
H920 C904 0.931 . S
H921 C909 0.929 . S
H922 C910 0.960 . S
H923 C910 0.962 . S
H924 C910 0.960 . S
H925 C911 0.961 . S
H926 C911 0.961 . S
H927 C911 0.961 . S
H928 C912 0.931 . S
H929 C917 0.930 . S
H930 C918 0.956 . S
H931 C918 0.961 . S
H932 C918 0.961 . S
H933 C919 0.958 . S
H934 C919 0.961 . S
H935 C919 0.960 . S
C936 C937 1.391 . S
C936 C938 1.394 . S
C936 H952 0.931 . S
C937 C936 1.391 . S
C937 C941 1.376 . S
C938 C936 1.394 . S
C938 C939 1.369 . S
C938 C942 1.531 . S
C939 C938 1.369 . S
C939 C940 1.410 . S
C939 C947 1.503 . S
C940 C939 1.410 . S
C940 C941 1.392 . S
C940 C943 1.511 . S
C941 C937 1.376 . S
C941 C940 1.392 . S
C941 H953 0.929 . S
C942 C938 1.531 . S
C942 H954 0.960 . S
C942 H955 0.962 . S
C942 H956 0.960 . S
C943 C940 1.511 . S
C943 H957 0.961 . S
C943 H958 0.961 . S
C943 H959 0.961 . S
C944 C945 1.370 . S
C944 C946 1.363 . S
C944 H960 0.931 . S
C945 C944 1.370 . S
C945 C949 1.408 . S
C946 C944 1.363 . S
C946 C947 1.370 . S
C946 C950 1.524 . S
C947 C939 1.503 . S
C947 C946 1.370 . S
C947 C948 1.403 . S
C948 C947 1.403 . S
C948 C949 1.404 . S
C948 C951 1.539 . S
C949 C945 1.408 . S
C949 C948 1.404 . S
C949 H961 0.930 . S
C950 C946 1.524 . S
C950 H962 0.956 . S
C950 H963 0.961 . S
C950 H964 0.961 . S
C951 C948 1.539 . S
C951 H965 0.958 . S
C951 H966 0.961 . S
C951 H967 0.960 . S
H952 C936 0.931 . S
H953 C941 0.929 . S
H954 C942 0.960 . S
H955 C942 0.962 . S
H956 C942 0.960 . S
H957 C943 0.961 . S
H958 C943 0.961 . S
H959 C943 0.961 . S
H960 C944 0.931 . S
H961 C949 0.930 . S
H962 C950 0.956 . S
H963 C950 0.961 . S
H964 C950 0.961 . S
H965 C951 0.958 . S
H966 C951 0.961 . S
H967 C951 0.960 . S
C968 C969 1.391 . S
C968 C970 1.394 . S
C968 H984 0.931 . S
C969 C968 1.391 . S
C969 C973 1.376 . S
C970 C968 1.394 . S
C970 C971 1.369 . S
C970 C974 1.531 . S
C971 C970 1.369 . S
C971 C972 1.410 . S
C971 C979 1.503 . S
C972 C971 1.410 . S
C972 C973 1.392 . S
C972 C975 1.511 . S
C973 C969 1.376 . S
C973 C972 1.392 . S
C973 H985 0.929 . S
C974 C970 1.531 . S
C974 H986 0.960 . S
C974 H987 0.962 . S
C974 H988 0.960 . S
C975 C972 1.511 . S
C975 H989 0.961 . S
C975 H990 0.961 . S
C975 H991 0.961 . S
C976 C977 1.370 . S
C976 C978 1.363 . S
C976 H992 0.931 . S
C977 C976 1.370 . S
C977 C981 1.408 . S
C978 C976 1.363 . S
C978 C979 1.370 . S
C978 C982 1.524 . S
C979 C971 1.503 . S
C979 C978 1.370 . S
C979 C980 1.403 . S
C980 C979 1.403 . S
C980 C981 1.404 . S
C980 C983 1.539 . S
C981 C977 1.408 . S
C981 C980 1.404 . S
C981 H993 0.930 . S
C982 C978 1.524 . S
C982 H994 0.956 . S
C982 H995 0.961 . S
C982 H996 0.961 . S
C983 C980 1.539 . S
C983 H997 0.958 . S
C983 H998 0.961 . S
C983 H999 0.960 . S
H984 C968 0.931 . S
H985 C973 0.929 . S
H986 C974 0.960 . S
H987 C974 0.962 . S
H988 C974 0.960 . S
H989 C975 0.961 . S
H990 C975 0.961 . S
H991 C975 0.961 . S
H992 C976 0.931 . S
H993 C981 0.930 . S
H994 C982 0.956 . S
H995 C982 0.961 . S
H996 C982 0.961 . S
H997 C983 0.958 . S
H998 C983 0.961 . S
H999 C983 0.960 . S
C1000 C1001 1.391 . S
C1000 C1002 1.394 . S
C1000 H1016 0.931 . S
C1001 C1000 1.391 . S
C1001 C1005 1.376 . S
C1002 C1000 1.394 . S
C1002 C1003 1.369 . S
C1002 C1006 1.531 . S
C1003 C1002 1.369 . S
C1003 C1004 1.410 . S
C1003 C1011 1.503 . S
C1004 C1003 1.410 . S
C1004 C1005 1.392 . S
C1004 C1007 1.511 . S
C1005 C1001 1.376 . S
C1005 C1004 1.392 . S
C1005 H1017 0.929 . S
C1006 C1002 1.531 . S
C1006 H1018 0.960 . S
C1006 H1019 0.962 . S
C1006 H1020 0.960 . S
C1007 C1004 1.511 . S
C1007 H1021 0.961 . S
C1007 H1022 0.961 . S
C1007 H1023 0.961 . S
C1008 C1009 1.370 . S
C1008 C1010 1.363 . S
C1008 H1024 0.931 . S
C1009 C1008 1.370 . S
C1009 C1013 1.408 . S
C1010 C1008 1.363 . S
C1010 C1011 1.370 . S
C1010 C1014 1.524 . S
C1011 C1003 1.503 . S
C1011 C1010 1.370 . S
C1011 C1012 1.403 . S
C1012 C1011 1.403 . S
C1012 C1013 1.404 . S
C1012 C1015 1.539 . S
C1013 C1009 1.408 . S
C1013 C1012 1.404 . S
C1013 H1025 0.930 . S
C1014 C1010 1.524 . S
C1014 H1026 0.956 . S
C1014 H1027 0.961 . S
C1014 H1028 0.961 . S
C1015 C1012 1.539 . S
C1015 H1029 0.958 . S
C1015 H1030 0.961 . S
C1015 H1031 0.960 . S
H1016 C1000 0.931 . S
H1017 C1005 0.929 . S
H1018 C1006 0.960 . S
H1019 C1006 0.962 . S
H1020 C1006 0.960 . S
H1021 C1007 0.961 . S
H1022 C1007 0.961 . S
H1023 C1007 0.961 . S
H1024 C1008 0.931 . S
H1025 C1013 0.930 . S
H1026 C1014 0.956 . S
H1027 C1014 0.961 . S
H1028 C1014 0.961 . S
H1029 C1015 0.958 . S
H1030 C1015 0.961 . S
H1031 C1015 0.960 . S
C1032 C1033 1.391 . S
C1032 C1034 1.394 . S
C1032 H1048 0.931 . S
C1033 C1032 1.391 . S
C1033 C1037 1.376 . S
C1034 C1032 1.394 . S
C1034 C1035 1.369 . S
C1034 C1038 1.531 . S
C1035 C1034 1.369 . S
C1035 C1036 1.410 . S
C1035 C1043 1.503 . S
C1036 C1035 1.410 . S
C1036 C1037 1.392 . S
C1036 C1039 1.511 . S
C1037 C1033 1.376 . S
C1037 C1036 1.392 . S
C1037 H1049 0.929 . S
C1038 C1034 1.531 . S
C1038 H1050 0.960 . S
C1038 H1051 0.962 . S
C1038 H1052 0.960 . S
C1039 C1036 1.511 . S
C1039 H1053 0.961 . S
C1039 H1054 0.961 . S
C1039 H1055 0.961 . S
C1040 C1041 1.370 . S
C1040 C1042 1.363 . S
C1040 H1056 0.931 . S
C1041 C1040 1.370 . S
C1041 C1045 1.408 . S
C1042 C1040 1.363 . S
C1042 C1043 1.370 . S
C1042 C1046 1.524 . S
C1043 C1035 1.503 . S
C1043 C1042 1.370 . S
C1043 C1044 1.403 . S
C1044 C1043 1.403 . S
C1044 C1045 1.404 . S
C1044 C1047 1.539 . S
C1045 C1041 1.408 . S
C1045 C1044 1.404 . S
C1045 H1057 0.930 . S
C1046 C1042 1.524 . S
C1046 H1058 0.956 . S
C1046 H1059 0.961 . S
C1046 H1060 0.961 . S
C1047 C1044 1.539 . S
C1047 H1061 0.958 . S
C1047 H1062 0.961 . S
C1047 H1063 0.960 . S
H1048 C1032 0.931 . S
H1049 C1037 0.929 . S
H1050 C1038 0.960 . S
H1051 C1038 0.962 . S
H1052 C1038 0.960 . S
H1053 C1039 0.961 . S
H1054 C1039 0.961 . S
H1055 C1039 0.961 . S
H1056 C1040 0.931 . S
H1057 C1045 0.930 . S
H1058 C1046 0.956 . S
H1059 C1046 0.961 . S
H1060 C1046 0.961 . S
H1061 C1047 0.958 . S
H1062 C1047 0.961 . S
H1063 C1047 0.960 . S
C1064 C1065 1.391 . S
C1064 C1066 1.394 . S
C1064 H1080 0.931 . S
C1065 C1064 1.391 . S
C1065 C1069 1.376 . S
C1066 C1064 1.394 . S
C1066 C1067 1.369 . S
C1066 C1070 1.531 . S
C1067 C1066 1.369 . S
C1067 C1068 1.410 . S
C1067 C1075 1.503 . S
C1068 C1067 1.410 . S
C1068 C1069 1.392 . S
C1068 C1071 1.511 . S
C1069 C1065 1.376 . S
C1069 C1068 1.392 . S
C1069 H1081 0.929 . S
C1070 C1066 1.531 . S
C1070 H1082 0.960 . S
C1070 H1083 0.962 . S
C1070 H1084 0.960 . S
C1071 C1068 1.511 . S
C1071 H1085 0.961 . S
C1071 H1086 0.961 . S
C1071 H1087 0.961 . S
C1072 C1073 1.370 . S
C1072 C1074 1.363 . S
C1072 H1088 0.931 . S
C1073 C1072 1.370 . S
C1073 C1077 1.408 . S
C1074 C1072 1.363 . S
C1074 C1075 1.370 . S
C1074 C1078 1.524 . S
C1075 C1067 1.503 . S
C1075 C1074 1.370 . S
C1075 C1076 1.403 . S
C1076 C1075 1.403 . S
C1076 C1077 1.404 . S
C1076 C1079 1.539 . S
C1077 C1073 1.408 . S
C1077 C1076 1.404 . S
C1077 H1089 0.930 . S
C1078 C1074 1.524 . S
C1078 H1090 0.956 . S
C1078 H1091 0.961 . S
C1078 H1092 0.961 1_554 S
C1079 C1076 1.539 . S
C1079 H1093 0.958 . S
C1079 H1094 0.961 . S
C1079 H1095 0.960 . S
H1080 C1064 0.931 . S
H1081 C1069 0.929 . S
H1082 C1070 0.960 . S
H1083 C1070 0.962 . S
H1084 C1070 0.960 . S
H1085 C1071 0.961 . S
H1086 C1071 0.961 . S
H1087 C1071 0.961 . S
H1088 C1072 0.931 . S
H1089 C1077 0.930 . S
H1090 C1078 0.956 . S
H1091 C1078 0.961 . S
H1092 C1078 0.961 1_556 S
H1093 C1079 0.958 . S
H1094 C1079 0.961 . S
H1095 C1079 0.960 . S
C1096 C1097 1.391 . S
C1096 C1098 1.394 . S
C1096 H1112 0.931 . S
C1097 C1096 1.391 . S
C1097 C1101 1.376 . S
C1098 C1096 1.394 . S
C1098 C1099 1.369 . S
C1098 C1102 1.531 . S
C1099 C1098 1.369 . S
C1099 C1100 1.410 . S
C1099 C1107 1.503 . S
C1100 C1099 1.410 . S
C1100 C1101 1.392 . S
C1100 C1103 1.511 . S
C1101 C1097 1.376 . S
C1101 C1100 1.392 . S
C1101 H1113 0.929 . S
C1102 C1098 1.531 . S
C1102 H1114 0.960 . S
C1102 H1115 0.962 . S
C1102 H1116 0.960 . S
C1103 C1100 1.511 . S
C1103 H1117 0.961 . S
C1103 H1118 0.961 . S
C1103 H1119 0.961 . S
C1104 C1105 1.370 . S
C1104 C1106 1.363 . S
C1104 H1120 0.931 . S
C1105 C1104 1.370 . S
C1105 C1109 1.408 . S
C1106 C1104 1.363 . S
C1106 C1107 1.370 . S
C1106 C1110 1.524 . S
C1107 C1099 1.503 . S
C1107 C1106 1.370 . S
C1107 C1108 1.403 . S
C1108 C1107 1.403 . S
C1108 C1109 1.404 . S
C1108 C1111 1.539 . S
C1109 C1105 1.408 . S
C1109 C1108 1.404 . S
C1109 H1121 0.930 . S
C1110 C1106 1.524 . S
C1110 H1122 0.956 . S
C1110 H1123 0.961 . S
C1110 H1124 0.961 . S
C1111 C1108 1.539 . S
C1111 H1125 0.958 . S
C1111 H1126 0.961 1_455 S
C1111 H1127 0.960 . S
H1112 C1096 0.931 . S
H1113 C1101 0.929 . S
H1114 C1102 0.960 . S
H1115 C1102 0.962 . S
H1116 C1102 0.960 . S
H1117 C1103 0.961 . S
H1118 C1103 0.961 . S
H1119 C1103 0.961 . S
H1120 C1104 0.931 . S
H1121 C1109 0.930 . S
H1122 C1110 0.956 . S
H1123 C1110 0.961 . S
H1124 C1110 0.961 . S
H1125 C1111 0.958 . S
H1126 C1111 0.961 1_655 S
H1127 C1111 0.960 . S
C1128 C1129 1.391 . S
C1128 C1130 1.394 . S
C1128 H1144 0.931 . S
C1129 C1128 1.391 . S
C1129 C1133 1.376 . S
C1130 C1128 1.394 . S
C1130 C1131 1.369 . S
C1130 C1134 1.531 . S
C1131 C1130 1.369 . S
C1131 C1132 1.410 . S
C1131 C1139 1.503 . S
C1132 C1131 1.410 . S
C1132 C1133 1.392 . S
C1132 C1135 1.511 . S
C1133 C1129 1.376 . S
C1133 C1132 1.392 . S
C1133 H1145 0.929 . S
C1134 C1130 1.531 . S
C1134 H1146 0.960 . S
C1134 H1147 0.962 . S
C1134 H1148 0.960 . S
C1135 C1132 1.511 . S
C1135 H1149 0.961 . S
C1135 H1150 0.961 . S
C1135 H1151 0.961 . S
C1136 C1137 1.370 . S
C1136 C1138 1.363 . S
C1136 H1152 0.931 . S
C1137 C1136 1.370 . S
C1137 C1141 1.408 . S
C1138 C1136 1.363 . S
C1138 C1139 1.370 . S
C1138 C1142 1.524 . S
C1139 C1131 1.503 . S
C1139 C1138 1.370 . S
C1139 C1140 1.403 . S
C1140 C1139 1.403 . S
C1140 C1141 1.404 . S
C1140 C1143 1.539 . S
C1141 C1137 1.408 . S
C1141 C1140 1.404 . S
C1141 H1153 0.930 . S
C1142 C1138 1.524 . S
C1142 H1154 0.956 . S
C1142 H1155 0.961 . S
C1142 H1156 0.961 . S
C1143 C1140 1.539 . S
C1143 H1157 0.958 . S
C1143 H1158 0.961 . S
C1143 H1159 0.960 . S
H1144 C1128 0.931 . S
H1145 C1133 0.929 . S
H1146 C1134 0.960 . S
H1147 C1134 0.962 . S
H1148 C1134 0.960 . S
H1149 C1135 0.961 . S
H1150 C1135 0.961 . S
H1151 C1135 0.961 . S
H1152 C1136 0.931 . S
H1153 C1141 0.930 . S
H1154 C1142 0.956 . S
H1155 C1142 0.961 . S
H1156 C1142 0.961 . S
H1157 C1143 0.958 . S
H1158 C1143 0.961 . S
H1159 C1143 0.960 . S
C393 C1 1.527 . S
C401 C314 1.567 . S
C425 C40 1.369 . S
C433 C333 1.329 . S
C465 C370 1.746 . S
C457 C99 1.765 . S
C489 C118 1.703 . S
C497 C380 1.651 . S
C529 C350 2.018 . S
C521 C16 1.972 . S
C561 C320 1.419 . S
C553 C60 1.488 . S
C593 C391 1.519 . S
C585 C79 1.534 . S
C625 C361 1.390 . S
C617 C138 1.400 . S
C649 C21 1.760 . S
C657 C374 1.783 . S
C689 C341 1.720 . S
C681 C94 1.760 . S
C713 C133 1.713 . S
C721 C331 1.720 . S
C745 C55 1.227 . S
C753 C353 1.236 . S
C785 C313 1.559 . S
C777 C157 1.561 . S
C809 C196 1.378 . S
C817 C334 1.337 . S
C841 C255 1.758 . S
C849 C371 1.744 . S
C873 C289 1.690 . S
C881 C381 1.658 . S
C905 C172 1.943 . S
C913 C351 2.015 . S
C945 C321 1.438 . S
C937 C216 1.481 . S
C977 C390 1.519 . S
C969 C235 1.533 . S
C1009 C360 1.369 . S
C1001 C294 1.399 . S
C1033 C177 1.733 . S
C1041 C373 1.776 . S
C1073 C340 1.704 . S
C1065 C250 1.765 . S
C1105 C330 1.729 . S
C1097 C274 1.724 . S
C1129 C211 1.248 . S
C1137 C354 1.240 . S
