# Generated by pormake.
# Topology ctn, (3,4)-cn, num edge types: 1
# Building blocks:
#     Node 0, Type 0, BuildingBlock: ESEHIV_clean_linker_0, # of connection points: 3
#     Node 1, Type 0, BuildingBlock: ESEHIV_clean_linker_0, # of connection points: 3
#     Node 2, Type 0, BuildingBlock: ESEHIV_clean_linker_0, # of connection points: 3
#     Node 3, Type 0, BuildingBlock: ESEHIV_clean_linker_0, # of connection points: 3
#     Node 4, Type 0, BuildingBlock: ESEHIV_clean_linker_0, # of connection points: 3
#     Node 5, Type 0, BuildingBlock: ESEHIV_clean_linker_0, # of connection points: 3
#     Node 6, Type 0, BuildingBlock: ESEHIV_clean_linker_0, # of connection points: 3
#     Node 7, Type 0, BuildingBlock: ESEHIV_clean_linker_0, # of connection points: 3
#     Node 8, Type 0, BuildingBlock: ESEHIV_clean_linker_0, # of connection points: 3
#     Node 9, Type 0, BuildingBlock: ESEHIV_clean_linker_0, # of connection points: 3
#     Node 10, Type 0, BuildingBlock: ESEHIV_clean_linker_0, # of connection points: 3
#     Node 11, Type 0, BuildingBlock: ESEHIV_clean_linker_0, # of connection points: 3
#     Node 12, Type 0, BuildingBlock: ESEHIV_clean_linker_0, # of connection points: 3
#     Node 13, Type 0, BuildingBlock: ESEHIV_clean_linker_0, # of connection points: 3
#     Node 14, Type 0, BuildingBlock: ESEHIV_clean_linker_0, # of connection points: 3
#     Node 15, Type 0, BuildingBlock: ESEHIV_clean_linker_0, # of connection points: 3
#     Node 16, Type 1, BuildingBlock: KUFVIS_clean_sbu_0, # of connection points: 4
#     Node 17, Type 1, BuildingBlock: KUFVIS_clean_sbu_0, # of connection points: 4
#     Node 18, Type 1, BuildingBlock: KUFVIS_clean_sbu_0, # of connection points: 4
#     Node 19, Type 1, BuildingBlock: KUFVIS_clean_sbu_0, # of connection points: 4
#     Node 20, Type 1, BuildingBlock: KUFVIS_clean_sbu_0, # of connection points: 4
#     Node 21, Type 1, BuildingBlock: KUFVIS_clean_sbu_0, # of connection points: 4
#     Node 22, Type 1, BuildingBlock: KUFVIS_clean_sbu_0, # of connection points: 4
#     Node 23, Type 1, BuildingBlock: KUFVIS_clean_sbu_0, # of connection points: 4
#     Node 24, Type 1, BuildingBlock: KUFVIS_clean_sbu_0, # of connection points: 4
#     Node 25, Type 1, BuildingBlock: KUFVIS_clean_sbu_0, # of connection points: 4
#     Node 26, Type 1, BuildingBlock: KUFVIS_clean_sbu_0, # of connection points: 4
#     Node 27, Type 1, BuildingBlock: KUFVIS_clean_sbu_0, # of connection points: 4
#     Edge 28, Type (0, 1), BuildingBlock: XUDNAN_clean_linker_2, # of connection points: 2
#     Edge 29, Type (0, 1), BuildingBlock: XUDNAN_clean_linker_2, # of connection points: 2
#     Edge 30, Type (0, 1), BuildingBlock: XUDNAN_clean_linker_2, # of connection points: 2
#     Edge 31, Type (0, 1), BuildingBlock: XUDNAN_clean_linker_2, # of connection points: 2
#     Edge 32, Type (0, 1), BuildingBlock: XUDNAN_clean_linker_2, # of connection points: 2
#     Edge 33, Type (0, 1), BuildingBlock: XUDNAN_clean_linker_2, # of connection points: 2
#     Edge 34, Type (0, 1), BuildingBlock: XUDNAN_clean_linker_2, # of connection points: 2
#     Edge 35, Type (0, 1), BuildingBlock: XUDNAN_clean_linker_2, # of connection points: 2
#     Edge 36, Type (0, 1), BuildingBlock: XUDNAN_clean_linker_2, # of connection points: 2
#     Edge 37, Type (0, 1), BuildingBlock: XUDNAN_clean_linker_2, # of connection points: 2
#     Edge 38, Type (0, 1), BuildingBlock: XUDNAN_clean_linker_2, # of connection points: 2
#     Edge 39, Type (0, 1), BuildingBlock: XUDNAN_clean_linker_2, # of connection points: 2
#     Edge 40, Type (0, 1), BuildingBlock: XUDNAN_clean_linker_2, # of connection points: 2
#     Edge 41, Type (0, 1), BuildingBlock: XUDNAN_clean_linker_2, # of connection points: 2
#     Edge 42, Type (0, 1), BuildingBlock: XUDNAN_clean_linker_2, # of connection points: 2
#     Edge 43, Type (0, 1), BuildingBlock: XUDNAN_clean_linker_2, # of connection points: 2
#     Edge 44, Type (0, 1), BuildingBlock: XUDNAN_clean_linker_2, # of connection points: 2
#     Edge 45, Type (0, 1), BuildingBlock: XUDNAN_clean_linker_2, # of connection points: 2
#     Edge 46, Type (0, 1), BuildingBlock: XUDNAN_clean_linker_2, # of connection points: 2
#     Edge 47, Type (0, 1), BuildingBlock: XUDNAN_clean_linker_2, # of connection points: 2
#     Edge 48, Type (0, 1), BuildingBlock: XUDNAN_clean_linker_2, # of connection points: 2
#     Edge 49, Type (0, 1), BuildingBlock: XUDNAN_clean_linker_2, # of connection points: 2
#     Edge 50, Type (0, 1), BuildingBlock: XUDNAN_clean_linker_2, # of connection points: 2
#     Edge 51, Type (0, 1), BuildingBlock: XUDNAN_clean_linker_2, # of connection points: 2
#     Edge 52, Type (0, 1), BuildingBlock: XUDNAN_clean_linker_2, # of connection points: 2
#     Edge 53, Type (0, 1), BuildingBlock: XUDNAN_clean_linker_2, # of connection points: 2
#     Edge 54, Type (0, 1), BuildingBlock: XUDNAN_clean_linker_2, # of connection points: 2
#     Edge 55, Type (0, 1), BuildingBlock: XUDNAN_clean_linker_2, # of connection points: 2
#     Edge 56, Type (0, 1), BuildingBlock: XUDNAN_clean_linker_2, # of connection points: 2
#     Edge 57, Type (0, 1), BuildingBlock: XUDNAN_clean_linker_2, # of connection points: 2
#     Edge 58, Type (0, 1), BuildingBlock: XUDNAN_clean_linker_2, # of connection points: 2
#     Edge 59, Type (0, 1), BuildingBlock: XUDNAN_clean_linker_2, # of connection points: 2
#     Edge 60, Type (0, 1), BuildingBlock: XUDNAN_clean_linker_2, # of connection points: 2
#     Edge 61, Type (0, 1), BuildingBlock: XUDNAN_clean_linker_2, # of connection points: 2
#     Edge 62, Type (0, 1), BuildingBlock: XUDNAN_clean_linker_2, # of connection points: 2
#     Edge 63, Type (0, 1), BuildingBlock: XUDNAN_clean_linker_2, # of connection points: 2
#     Edge 64, Type (0, 1), BuildingBlock: XUDNAN_clean_linker_2, # of connection points: 2
#     Edge 65, Type (0, 1), BuildingBlock: XUDNAN_clean_linker_2, # of connection points: 2
#     Edge 66, Type (0, 1), BuildingBlock: XUDNAN_clean_linker_2, # of connection points: 2
#     Edge 67, Type (0, 1), BuildingBlock: XUDNAN_clean_linker_2, # of connection points: 2
#     Edge 68, Type (0, 1), BuildingBlock: XUDNAN_clean_linker_2, # of connection points: 2
#     Edge 69, Type (0, 1), BuildingBlock: XUDNAN_clean_linker_2, # of connection points: 2
#     Edge 70, Type (0, 1), BuildingBlock: XUDNAN_clean_linker_2, # of connection points: 2
#     Edge 71, Type (0, 1), BuildingBlock: XUDNAN_clean_linker_2, # of connection points: 2
#     Edge 72, Type (0, 1), BuildingBlock: XUDNAN_clean_linker_2, # of connection points: 2
#     Edge 73, Type (0, 1), BuildingBlock: XUDNAN_clean_linker_2, # of connection points: 2
#     Edge 74, Type (0, 1), BuildingBlock: XUDNAN_clean_linker_2, # of connection points: 2
#     Edge 75, Type (0, 1), BuildingBlock: XUDNAN_clean_linker_2, # of connection points: 2
# Relax obj value: 0.012
# Max RMSD: 0.062
# Mean RMSD: 0.030
data_MOF--net-ctn--node1-KUFVIS_clean_sbu_0--node2-ESEHIV_clean_linker_0--edge1-XUDNAN_clean_linker_2
_symmetry_space_group_name_H-M    P1
_symmetry_Int_Tables_number       1
_symmetry_cell_setting            triclinic
loop_
_symmetry_equiv_pos_as_xyz
'x, y, z'
_cell_length_a     50.519313
_cell_length_b     50.552655
_cell_length_c     50.879123
_cell_angle_alpha  90.948053
_cell_angle_beta   90.280578
_cell_angle_gamma 91.498826
loop_
_atom_site_label
_atom_site_type_symbol
_atom_site_fract_x
_atom_site_fract_y
_atom_site_fract_z
_atom_type_partial_charge
H0 H 0.02407 0.07722 0.06571 0.0
H1 H 0.07149 0.00829 0.0667 0.0
H2 H 0.07933 0.06345 1.00321 0.0
C3 C 0.03934 0.06556 0.05666 0.0
C4 C 0.05067 0.07349 0.03278 0.0
C5 C 0.04728 0.04262 0.0693 0.0
C6 C 0.06581 0.02629 0.05714 0.0
C7 C 0.07719 0.03338 0.0329 0.0
C8 C 0.06973 0.05723 0.02114 0.0
H9 H 0.33417 0.68822 0.23712 0.0
H10 H 0.35315 0.75423 0.1878 0.0
H11 H 0.2811 0.70896 0.17467 0.0
C12 C 0.32984 0.70016 0.22021 0.0
C13 C 0.30615 0.69519 0.20599 0.0
C14 C 0.34685 0.72159 0.21412 0.0
C15 C 0.34045 0.73741 0.19267 0.0
C16 C 0.31691 0.73298 0.17838 0.0
C17 C 0.29993 0.71159 0.1848 0.0
H18 H 0.97519 0.5227 0.07001 0.0
H19 H 0.02228 0.45399 0.05786 0.0
H20 H 0.96369 0.47327 1.00064 0.0
C21 C 0.98038 0.50579 0.05795 0.0
C22 C 0.96705 0.50056 0.03383 0.0
C23 C 0.99998 0.48878 0.06699 0.0
C24 C 1.00709 0.46707 0.05112 0.0
C25 C 0.99422 0.46146 0.02712 0.0
C26 C 0.97408 0.47811 0.01882 0.0
H27 H 0.68045 0.78071 0.21105 0.0
H28 H 0.74187 0.82192 0.16908 0.0
H29 H 0.70693 0.85804 0.23765 0.0
C30 C 0.69281 0.79832 0.20843 0.0
C31 C 0.69155 0.81941 0.22662 0.0
C32 C 0.7107 0.79943 0.18744 0.0
C33 C 0.72728 0.8219 0.18462 0.0
C34 C 0.72644 0.84327 0.20272 0.0
C35 C 0.7082 0.84183 0.22357 0.0
H36 H 0.0104 0.9463 0.46016 0.0
H37 H 0.06778 0.00942 0.45008 0.0
H38 H 0.07767 0.95454 0.51253 0.0
C39 C 0.02886 0.95605 0.46607 0.0
C40 C 0.04302 0.94689 0.48792 0.0
C41 C 0.03777 0.97829 0.45204 0.0
C42 C 0.06086 0.99205 0.46049 0.0
C43 C 0.07489 0.98374 0.48263 0.0
C44 C 0.06611 0.9611 0.49601 0.0
H45 H 0.17239 0.72871 0.82371 0.0
H46 H 0.22814 0.67831 0.86125 0.0
H47 H 0.20332 0.66241 0.78123 0.0
C48 C 0.18473 0.71149 0.82335 0.0
C49 C 0.18568 0.69602 0.80029 0.0
C50 C 0.19978 0.70526 0.84562 0.0
C51 C 0.21627 0.68327 0.84432 0.0
C52 C 0.21788 0.66784 0.82111 0.0
C53 C 0.20234 0.67423 0.79916 0.0
H54 H 0.9455 0.55502 0.51566 0.0
H55 H 1.00625 0.57944 0.46193 0.0
H56 H 0.96703 0.50261 0.45299 0.0
C57 C 0.95795 0.55068 0.4989 0.0
C58 C 0.95386 0.52688 0.4849 0.0
C59 C 0.97696 0.56957 0.4909 0.0
C60 C 0.99248 0.56425 0.46858 0.0
C61 C 0.98894 0.54019 0.45414 0.0
C62 C 0.96981 0.52151 0.46304 0.0
H63 H 0.78808 0.82904 0.86053 0.0
H64 H 0.8237 0.86103 0.79131 0.0
H65 H 0.85257 0.78908 0.82484 0.0
C66 C 0.80276 0.82785 0.84512 0.0
C67 C 0.8209 0.80732 0.84535 0.0
C68 C 0.80306 0.84676 0.82518 0.0
C69 C 0.82317 0.84593 0.80609 0.0
C70 C 0.84173 0.82534 0.8056 0.0
C71 C 0.83992 0.80599 0.82535 0.0
H72 H 0.28531 0.33399 0.36207 0.0
H73 H 0.32331 0.36247 0.2922 0.0
H74 H 0.35767 0.29961 0.33604 0.0
C75 C 0.30157 0.33328 0.34827 0.0
C76 C 0.32149 0.31474 0.35171 0.0
C77 C 0.30218 0.35075 0.32704 0.0
C78 C 0.32334 0.34981 0.30918 0.0
C79 C 0.34336 0.33115 0.31207 0.0
C80 C 0.34246 0.31412 0.33371 0.0
H81 H 0.47002 0.01849 0.57858 0.0
H82 H 0.51716 0.95022 0.56747 0.0
H83 H 0.45403 0.9651 0.51309 0.0
C84 C 0.47442 1.00086 0.56721 0.0
C85 C 0.46024 0.99463 0.54381 0.0
C86 C 0.49414 0.9841 0.57628 0.0
C87 C 0.50072 0.96185 0.56106 0.0
C88 C 0.4865 0.9545 0.53815 0.0
C89 C 0.46603 0.97098 0.52995 0.0
H90 H 0.17598 0.27581 0.70933 0.0
H91 H 0.2431 0.31235 0.67154 0.0
H92 H 0.2127 0.34592 0.7434 0.0
C93 C 0.19096 0.29154 0.70864 0.0
C94 C 0.19263 0.31051 0.72909 0.0
C95 C 0.20913 0.29214 0.6878 0.0
C96 C 0.22898 0.31212 0.68749 0.0
C97 C 0.23049 0.33188 0.70733 0.0
C98 C 0.21217 0.33076 0.72809 0.0
H99 H 0.8337 0.17626 0.73156 0.0
H100 H 0.85548 0.2479 0.69174 0.0
H101 H 0.79128 0.19934 0.6619 0.0
C102 C 0.83066 0.18979 0.71562 0.0
C103 C 0.81086 0.1841 0.69643 0.0
C104 C 0.8463 0.21323 0.71461 0.0
C105 C 0.84295 0.23026 0.69336 0.0
C106 C 0.82321 0.22531 0.67443 0.0
C107 C 0.80692 0.20257 0.67632 0.0
H108 H 0.51857 0.58631 0.56799 0.0
H109 H 0.56408 0.51632 0.57419 0.0
H110 H 0.57624 0.56879 0.50898 0.0
C111 C 0.53413 0.57401 0.56046 0.0
C112 C 0.54683 0.58076 0.53693 0.0
C113 C 0.54088 0.55149 0.57454 0.0
C114 C 0.55943 0.53413 0.56377 0.0
C115 C 0.57189 0.53978 0.53962 0.0
C116 C 0.5658 0.5635 0.52674 0.0
H117 H 0.51004 0.44655 0.965 0.0
H118 H 0.56625 0.51067 0.95564 0.0
H119 H 0.57707 0.45527 0.01765 0.0
C120 C 0.52833 0.45653 0.9711 0.0
C121 C 0.54262 0.44732 0.99285 0.0
C122 C 0.53686 0.47904 0.95735 0.0
C123 C 0.55968 0.49311 0.96596 0.0
C124 C 0.57394 0.48483 0.98799 0.0
C125 C 0.56545 0.46189 1.0012 0.0
H126 H 0.67943 0.23182 0.32867 0.0
H127 H 0.7455 0.18191 0.34356 0.0
H128 H 0.69788 0.16938 0.27405 0.0
C129 C 0.69106 0.21476 0.32362 0.0
C130 C 0.68528 0.20054 0.30025 0.0
C131 C 0.71276 0.20831 0.33946 0.0
C132 C 0.72828 0.18673 0.33196 0.0
C133 C 0.72312 0.17273 0.30836 0.0
C134 C 0.70134 0.17948 0.29277 0.0
H135 H 0.44771 0.04065 0.01284 0.0
H136 H 0.51766 0.07749 0.98022 0.0
H137 H 0.47869 0.01232 0.93938 0.0
C138 C 0.46306 0.04128 0.99805 0.0
C139 C 0.46116 0.02374 0.97637 0.0
C140 C 0.4832 0.06111 0.99953 0.0
C141 C 0.50249 0.06194 0.9797 0.0
C142 C 0.50117 0.04435 0.95796 0.0
C143 C 0.48061 0.0251 0.95664 0.0
Mn144 Mn 0.25899 0.87697 1.00112 0.0
Mn145 Mn 0.25423 0.88832 0.93603 0.0
C146 C 0.23578 0.84744 0.97341 0.0
C147 C 0.27801 0.85847 0.03837 0.0
C148 C 0.2206 0.91605 0.97644 0.0
O149 O 0.28957 0.90411 0.99584 0.0
O150 O 0.28276 0.91039 0.95272 0.0
C151 C 0.30608 0.86783 0.91965 0.0
N152 N 0.27919 0.86745 0.91744 0.0
C153 C 0.28046 0.83891 0.87922 0.0
C154 C 0.30817 0.83897 0.88107 0.0
C155 C 0.32101 0.85326 0.90156 0.0
C156 C 0.2666 0.853 0.89838 0.0
H157 H 0.31608 0.8794 0.9349 0.0
C158 C 0.29533 0.91542 0.9742 0.0
O159 O 0.26295 0.87881 0.03999 0.0
O160 O 0.28348 0.84981 0.0149 0.0
N161 N 0.22769 0.86832 0.91681 0.0
C162 C 0.20091 0.87088 0.9173 0.0
C163 C 0.18504 0.85685 0.8988 0.0
C164 C 0.19693 0.84119 0.87934 0.0
C165 C 0.22459 0.83971 0.87858 0.0
C166 C 0.23933 0.85342 0.89806 0.0
H167 H 0.1917 0.88341 0.93181 0.0
O168 O 0.23049 0.84878 0.9983 0.0
O169 O 0.25443 0.86339 0.9652 0.0
O170 O 0.23137 0.90589 0.99649 0.0
O171 O 0.22742 0.91043 0.95295 0.0
C172 C 0.23814 0.82586 0.85876 0.0
C173 C 0.26608 0.82573 0.8589 0.0
H174 H 0.31977 0.82817 0.86684 0.0
H175 H 0.34239 0.85345 0.9031 0.0
H176 H 0.16373 0.85841 0.89931 0.0
H177 H 0.18466 0.83075 0.86483 0.0
H178 H 0.22729 0.8153 0.84327 0.0
H179 H 0.27628 0.81494 0.8436 0.0
Mn180 Mn 0.14948 0.51928 0.2627 0.0
Mn181 Mn 0.12252 0.57976 0.26236 0.0
C182 C 0.17296 0.55534 0.24559 0.0
C183 C 0.17334 0.48556 0.28194 0.0
C184 C 0.10465 0.53463 0.2258 0.0
O185 O 0.11979 0.51633 0.28998 0.0
O186 O 0.10614 0.55866 0.2911 0.0
C187 C 0.14259 0.60114 0.31346 0.0
N188 N 0.14049 0.60311 0.28688 0.0
C189 C 0.16546 0.64433 0.28751 0.0
C190 C 0.16768 0.64284 0.31492 0.0
C191 C 0.15626 0.6211 0.32793 0.0
C192 C 0.15154 0.62387 0.27414 0.0
H193 H 0.13402 0.5844 0.32348 0.0
C194 C 0.10571 0.53485 0.29951 0.0
O195 O 0.15555 0.48075 0.26398 0.0
O196 O 0.17724 0.51012 0.28928 0.0
N197 N 0.13721 0.60208 0.23582 0.0
C198 C 0.13493 0.59958 0.20919 0.0
C199 C 0.14556 0.61954 0.19321 0.0
C200 C 0.15846 0.64179 0.20476 0.0
C201 C 0.16112 0.64364 0.23216 0.0
C202 C 0.14972 0.62337 0.2471 0.0
H203 H 0.12496 0.58258 0.20021 0.0
O204 O 0.17851 0.5314 0.23818 0.0
O205 O 0.15364 0.55722 0.26216 0.0
O206 O 0.12211 0.51873 0.23329 0.0
O207 O 0.10241 0.55785 0.23567 0.0
C208 C 0.1748 0.66469 0.24521 0.0
C209 C 0.17706 0.66499 0.27287 0.0
H210 H 0.17834 0.65812 0.32614 0.0
H211 H 0.15805 0.6197 0.34907 0.0
H212 H 0.1437 0.61784 0.17205 0.0
H213 H 0.16632 0.6573 0.19238 0.0
H214 H 0.18396 0.68057 0.23415 0.0
H215 H 0.188 0.68105 0.28266 0.0
Mn216 Mn 0.76813 0.62865 0.01352 0.0
Mn217 Mn 0.71212 0.65631 0.99122 0.0
C218 C 0.72806 0.60498 0.01502 0.0
C219 C 0.80728 0.60548 0.00793 0.0
C220 C 0.73733 0.6705 0.04388 0.0
O221 O 0.78216 0.65985 0.99175 0.0
O222 O 0.74359 0.67383 0.9754 0.0
C223 C 0.71472 0.64073 0.935 0.0
N224 N 0.70151 0.64074 0.95827 0.0
C225 C 0.66228 0.62186 0.93773 0.0
C226 C 0.67544 0.62159 0.91352 0.0
C227 C 0.70187 0.63084 0.91221 0.0
C228 C 0.67637 0.63116 0.9599 0.0
H229 H 0.7348 0.64847 0.9338 0.0
C230 C 0.7689 0.67481 0.97683 0.0
O231 O 0.80402 0.62175 0.02749 0.0
O232 O 0.78797 0.603 0.99098 0.0
N233 N 0.6798 0.6414 1.00457 0.0
C234 C 0.66979 0.64336 0.02933 0.0
C235 C 0.64389 0.63399 0.0342 0.0
C236 C 0.62824 0.6236 0.0134 0.0
C237 C 0.63866 0.62264 0.98793 0.0
C238 C 0.66486 0.63153 0.98441 0.0
H239 H 0.68149 0.65192 0.04528 0.0
O240 O 0.74787 0.59871 0.02979 0.0
O241 O 0.73237 0.6245 0.99906 0.0
O242 O 0.75565 0.65373 0.04256 0.0
O243 O 0.72068 0.67388 0.02539 0.0
C244 C 0.62387 0.61383 0.96578 0.0
C245 C 0.63563 0.61358 0.94067 0.0
H246 H 0.66544 0.61439 0.89583 0.0
H247 H 0.71215 0.63076 0.8936 0.0
H248 H 0.63589 0.63509 0.05386 0.0
H249 H 0.60814 0.61675 0.01716 0.0
H250 H 0.60347 0.60709 0.96784 0.0
H251 H 0.62411 0.60657 0.92382 0.0
Mn252 Mn 0.88953 0.01226 0.25277 0.0
Mn253 Mn 0.91386 0.95066 0.25153 0.0
C254 C 0.86787 0.97815 0.22958 0.0
C255 C 0.86315 0.04666 0.26762 0.0
C256 C 0.93692 0.99499 0.21945 0.0
O257 O 0.91417 0.01353 0.28475 0.0
O258 O 0.92993 0.97229 0.28085 0.0
C259 C 0.89246 0.9314 0.30203 0.0
N260 N 0.89454 0.92881 0.27544 0.0
C261 C 0.87197 0.88633 0.27569 0.0
C262 C 0.86961 0.88851 0.30309 0.0
C263 C 0.87969 0.91127 0.31628 0.0
C264 C 0.88431 0.90731 0.26249 0.0
H265 H 0.90068 0.94857 0.31234 0.0
C266 C 0.929 0.995 0.29244 0.0
O267 O 0.88444 0.05086 0.25409 0.0
O268 O 0.85792 0.02236 0.27431 0.0
N269 N 0.89965 0.92754 0.22455 0.0
C270 C 0.90318 0.92868 0.19805 0.0
C271 C 0.89289 0.90812 0.18182 0.0
C272 C 0.87971 0.88629 0.19305 0.0
C273 C 0.87681 0.88531 0.22042 0.0
C274 C 0.88689 0.9067 0.23553 0.0
H275 H 0.91358 0.94526 0.18936 0.0
O276 O 0.86517 1.00259 0.22286 0.0
O277 O 0.88354 0.97418 0.24938 0.0
O278 O 0.92153 0.01234 0.22854 0.0
O279 O 0.93538 0.97074 0.22578 0.0
C280 C 0.8647 0.86377 0.23332 0.0
C281 C 0.86261 0.86413 0.26098 0.0
H282 H 0.86006 0.87288 0.31417 0.0
H283 H 0.87796 0.91311 0.33742 0.0
H284 H 0.89532 0.90897 0.16073 0.0
H285 H 0.87206 0.87032 0.1805 0.0
H286 H 0.85694 0.84682 0.22218 0.0
H287 H 0.85319 0.84748 0.27067 0.0
Mn288 Mn 0.26694 0.12967 0.51217 0.0
Mn289 Mn 0.21174 0.15142 0.48216 0.0
C290 C 0.22821 0.10368 0.5117 0.0
C291 C 0.3072 0.10749 0.51075 0.0
C292 C 0.22913 0.16994 0.53669 0.0
O293 O 0.28168 0.16005 0.49 0.0
O294 O 0.24365 0.17179 0.47098 0.0
C295 C 0.22504 0.13529 0.42772 0.0
N296 N 0.20795 0.1348 0.44833 0.0
C297 C 0.17374 0.11382 0.42173 0.0
C298 C 0.19096 0.11402 0.4002 0.0
C299 C 0.21683 0.12456 0.40329 0.0
C300 C 0.18338 0.12387 0.44582 0.0
H301 H 0.24468 0.14407 0.42984 0.0
C302 C 0.26868 0.17443 0.47438 0.0
O303 O 0.30225 0.1246 0.52927 0.0
O304 O 0.28912 0.10376 0.49279 0.0
N305 N 0.17871 0.13414 0.49028 0.0
C306 C 0.16441 0.13574 0.51287 0.0
C307 C 0.13834 0.12544 0.5133 0.0
C308 C 0.1268 0.11469 0.49021 0.0
C309 C 0.14155 0.11414 0.46695 0.0
C310 C 0.16779 0.12373 0.46797 0.0
H311 H 0.17296 0.14451 0.53052 0.0
O312 O 0.24679 0.09993 0.52879 0.0
O313 O 0.23296 0.12204 0.49456 0.0
O314 O 0.25024 0.15655 0.53794 0.0
O315 O 0.21357 0.16923 0.51682 0.0
C316 C 0.13104 0.10507 0.44264 0.0
C317 C 0.14721 0.10459 0.4201 0.0
H318 H 0.1845 0.1063 0.38118 0.0
H319 H 0.23022 0.12487 0.38675 0.0
H320 H 0.12702 0.12618 0.53129 0.0
H321 H 0.10652 0.10722 0.49048 0.0
H322 H 0.11068 0.0979 0.44116 0.0
H323 H 0.13905 0.09707 0.40164 0.0
Mn324 Mn 0.38335 0.50872 0.76206 0.0
Mn325 Mn 0.41516 0.45104 0.75499 0.0
C326 C 0.36431 0.47371 0.73799 0.0
C327 C 0.35403 0.5368 0.78359 0.0
C328 C 0.42999 0.5001 0.72457 0.0
O329 O 0.4108 0.51131 0.79171 0.0
O330 O 0.42994 0.47189 0.78544 0.0
C331 C 0.39853 0.4252 0.80427 0.0
N332 N 0.39974 0.42507 0.77753 0.0
C333 C 0.38187 0.38054 0.77484 0.0
C334 C 0.38053 0.38013 0.80236 0.0
C335 C 0.38868 0.40265 0.81712 0.0
C336 C 0.39135 0.40374 0.76312 0.0
H337 H 0.4052 0.44228 0.81572 0.0
C338 C 0.42751 0.49389 0.79803 0.0
O339 O 0.37219 0.54591 0.76797 0.0
O340 O 0.35358 0.51149 0.78761 0.0
N341 N 0.4025 0.42874 0.72663 0.0
C342 C 0.40457 0.43253 0.70026 0.0
C343 C 0.3959 0.41237 0.68269 0.0
C344 C 0.38573 0.38835 0.6924 0.0
C345 C 0.38424 0.38474 0.71963 0.0
C346 C 0.3927 0.40572 0.73618 0.0
H347 H 0.41255 0.45087 0.69269 0.0
O348 O 0.35741 0.49783 0.73385 0.0
O349 O 0.38221 0.47069 0.75603 0.0
O350 O 0.4126 0.51481 0.73487 0.0
O351 O 0.43255 0.47588 0.73045 0.0
C352 C 0.37502 0.36104 0.73099 0.0
C353 C 0.37417 0.35882 0.75859 0.0
H354 H 0.37318 0.36268 0.81234 0.0
H355 H 0.38766 0.40252 0.83836 0.0
H356 H 0.39721 0.41529 0.6617 0.0
H357 H 0.37927 0.37276 0.67879 0.0
H358 H 0.36854 0.34438 0.71871 0.0
H359 H 0.36698 0.34051 0.7671 0.0
Mn360 Mn 0.75106 0.37641 0.50796 0.0
Mn361 Mn 0.75313 0.39962 0.44634 0.0
C362 C 0.73619 0.35005 0.47259 0.0
C363 C 0.77208 0.35339 0.54131 0.0
C364 C 0.71316 0.41756 0.48733 0.0
O365 O 0.77774 0.40753 0.51102 0.0
O366 O 0.78036 0.41864 0.4683 0.0
C367 C 0.80626 0.3823 0.43007 0.0
N368 N 0.77954 0.38208 0.42625 0.0
C369 C 0.78307 0.35411 0.38775 0.0
C370 C 0.81062 0.35413 0.39123 0.0
C371 C 0.82225 0.36826 0.4125 0.0
C372 C 0.76815 0.36858 0.40582 0.0
H373 H 0.8153 0.39302 0.44646 0.0
C374 C 0.78816 0.42078 0.4923 0.0
O375 O 0.75275 0.36905 0.54664 0.0
O376 O 0.77936 0.35166 0.51702 0.0
N377 N 0.72807 0.38192 0.42332 0.0
C378 C 0.70113 0.3823 0.42384 0.0
C379 C 0.68643 0.36895 0.404 0.0
C380 C 0.69957 0.3552 0.38396 0.0
C381 C 0.72728 0.35447 0.38423 0.0
C382 C 0.7409 0.36856 0.40422 0.0
H383 H 0.69091 0.39269 0.43927 0.0
O384 O 0.72783 0.3453 0.49615 0.0
O385 O 0.75209 0.37042 0.47067 0.0
O386 O 0.71996 0.40208 0.50567 0.0
O387 O 0.72487 0.41846 0.46512 0.0
C388 C 0.7419 0.34008 0.3656 0.0
C389 C 0.76977 0.33984 0.3674 0.0
H390 H 0.82301 0.34317 0.37782 0.0
H391 H 0.84349 0.36828 0.41538 0.0
H392 H 0.66502 0.36927 0.40414 0.0
H393 H 0.68816 0.34514 0.36857 0.0
H394 H 0.73189 0.32885 0.35001 0.0
H395 H 0.78077 0.32839 0.35319 0.0
Mn396 Mn 0.65363 0.0186 0.76618 0.0
Mn397 Mn 0.63412 0.08053 0.75276 0.0
C398 C 0.67885 0.04608 0.73915 0.0
C399 C 0.67628 0.98648 0.78946 0.0
C400 C 0.60893 0.03161 0.72745 0.0
O401 O 0.62747 0.0258 0.7962 0.0
O402 O 0.61651 0.06704 0.78483 0.0
C403 C 0.65656 0.1094 0.79919 0.0
N404 N 0.65466 0.10613 0.77262 0.0
C405 C 0.67851 0.14717 0.76551 0.0
C406 C 0.68064 0.15106 0.7928 0.0
C407 C 0.66989 0.13193 0.8097 0.0
C408 C 0.66574 0.12395 0.75619 0.0
H409 H 0.64773 0.0951 0.81224 0.0
C410 C 0.6148 0.04713 0.80008 0.0
O411 O 0.65556 0.98068 0.77524 0.0
O412 O 0.68346 0.01134 0.79127 0.0
N413 N 0.64988 0.09619 0.72244 0.0
C414 C 0.64604 0.08954 0.6966 0.0
C415 C 0.65694 0.10584 0.67713 0.0
C416 C 0.67098 0.12919 0.6844 0.0
C417 C 0.67405 0.13598 0.71109 0.0
C418 C 0.66337 0.1186 0.72962 0.0
H419 H 0.63488 0.07186 0.69089 0.0
O420 O 0.68027 0.02053 0.73702 0.0
O421 O 0.66247 0.05489 0.75656 0.0
O422 O 0.62299 0.0153 0.73973 0.0
O423 O 0.61157 0.05657 0.73059 0.0
C424 C 0.68668 0.15965 0.72 0.0
C425 C 0.68845 0.16547 0.74717 0.0
H426 H 0.69055 0.16861 0.80098 0.0
H427 H 0.67149 0.13476 0.83079 0.0
H428 H 0.65427 0.10056 0.65657 0.0
H429 H 0.67905 0.1419 0.66932 0.0
H430 H 0.69491 0.17362 0.70613 0.0
H431 H 0.69816 0.18376 0.7538 0.0
Mn432 Mn 0.01633 0.25682 0.87966 0.0
Mn433 Mn 0.95432 0.25941 0.90346 0.0
C434 C 0.98064 0.24057 0.8545 0.0
C435 C 0.05255 0.27518 0.85753 0.0
C436 C 0.99577 0.22235 0.92378 0.0
O437 O 0.01902 0.28513 0.90929 0.0
O438 O 0.97569 0.28911 0.91909 0.0
C439 C 0.93567 0.3095 0.8814 0.0
N440 N 0.93299 0.28277 0.88377 0.0
C441 C 0.89352 0.28149 0.85704 0.0
C442 C 0.89587 0.309 0.8543 0.0
C443 C 0.91705 0.32305 0.8665 0.0
C444 C 0.91264 0.26906 0.87218 0.0
H445 H 0.95192 0.32037 0.89075 0.0
C446 C 1.00005 0.2967 0.92118 0.0
O447 O 0.05531 0.25722 0.87512 0.0
O448 O 0.02871 0.28304 0.85296 0.0
N449 N 0.93204 0.23161 0.88894 0.0
C450 C 0.93349 0.205 0.89228 0.0
C451 C 0.91397 0.18805 0.88102 0.0
C452 C 0.89318 0.19861 0.86647 0.0
C453 C 0.89233 0.22602 0.86292 0.0
C454 C 0.91215 0.24197 0.87489 0.0
H455 H 0.94932 0.19677 0.90359 0.0
O456 O 1.00432 0.2322 0.84996 0.0
O457 O 0.97887 0.2574 0.87385 0.0
O458 O 0.01292 0.22711 0.9062 0.0
O459 O 0.97398 0.23445 0.92549 0.0
C460 C 0.87272 0.23812 0.84782 0.0
C461 C 0.87334 0.26583 0.84484 0.0
H462 H 0.88165 0.31952 0.84269 0.0
H463 H 0.91903 0.34428 0.86442 0.0
H464 H 0.91486 0.16689 0.88366 0.0
H465 H 0.87803 0.18546 0.85805 0.0
H466 H 0.85724 0.22626 0.83817 0.0
H467 H 0.85837 0.27486 0.83288 0.0
Mn468 Mn 0.51844 0.76067 0.3784 0.0
Mn469 Mn 0.45613 0.76492 0.40046 0.0
C470 C 0.48319 0.74576 0.35195 0.0
C471 C 0.55514 0.77926 0.35731 0.0
C472 C 0.49634 0.72678 0.42182 0.0
O473 O 0.52096 0.7877 0.40915 0.0
O474 O 0.47742 0.79468 0.41625 0.0
C475 C 0.43872 0.8148 0.37699 0.0
N476 N 0.43563 0.78815 0.37977 0.0
C477 C 0.39722 0.78679 0.35156 0.0
C478 C 0.39999 0.81423 0.3484 0.0
C479 C 0.42085 0.82828 0.36114 0.0
C480 C 0.41562 0.77445 0.36763 0.0
H481 H 0.45475 0.82565 0.38672 0.0
C482 C 0.50205 0.80037 0.41989 0.0
O483 O 0.55759 0.76074 0.37442 0.0
O484 O 0.53147 0.78758 0.35288 0.0
N485 N 0.43395 0.73711 0.38578 0.0
C486 C 0.43485 0.71056 0.38979 0.0
C487 C 0.41547 0.69363 0.37826 0.0
C488 C 0.39538 0.70415 0.36275 0.0
C489 C 0.39507 0.73149 0.35855 0.0
C490 C 0.41471 0.74742 0.37083 0.0
H491 H 0.4501 0.70235 0.40187 0.0
O492 O 0.50683 0.73713 0.34775 0.0
O493 O 0.4813 0.7622 0.3716 0.0
O494 O 0.51359 0.73032 0.40404 0.0
O495 O 0.47518 0.74005 0.42336 0.0
C496 C 0.37616 0.74352 0.34253 0.0
C497 C 0.3773 0.77114 0.33896 0.0
H498 H 0.38634 0.82467 0.33607 0.0
H499 H 0.42317 0.84944 0.35873 0.0
H500 H 0.41594 0.67254 0.38142 0.0
H501 H 0.38035 0.69101 0.35408 0.0
H502 H 0.36082 0.73168 0.33265 0.0
H503 H 0.36288 0.78011 0.3263 0.0
Mn504 Mn 0.01208 0.76117 0.63309 0.0
Mn505 Mn 0.98708 0.70852 0.66542 0.0
C506 C 0.01044 0.71955 0.61302 0.0
C507 C 1.00805 0.7971 0.60523 0.0
C508 C 0.04151 0.73254 0.67692 0.0
O509 O 0.98984 0.77835 0.6618 0.0
O510 O 0.97421 0.74179 0.68218 0.0
C511 C 0.93048 0.71421 0.65169 0.0
N512 N 0.95271 0.69953 0.65153 0.0
C513 C 0.92986 0.6635 0.62881 0.0
C514 C 0.9067 0.67818 0.62887 0.0
C515 C 0.90703 0.70366 0.64034 0.0
C516 C 0.9526 0.67498 0.64054 0.0
H517 H 0.93065 0.73386 0.66034 0.0
C518 C 0.97589 0.76698 0.67945 0.0
O519 O 0.02725 0.79607 0.62218 0.0
O520 O 0.99066 0.77773 0.60509 0.0
N521 N 0.99756 0.67529 0.6508 0.0
C522 C 0.02191 0.66431 0.65104 0.0
C523 C 0.02502 0.63892 0.64008 0.0
C524 C 1.0031 0.62511 0.629 0.0
C525 C 0.97832 0.63693 0.62868 0.0
C526 C 0.97632 0.66211 0.64026 0.0
H527 H 0.03883 0.67483 0.65955 0.0
O528 O 0.0277 0.73734 0.60555 0.0
O529 O 0.99547 0.72651 0.6325 0.0
O530 O 0.0401 0.75079 0.66001 0.0
O531 O 0.02275 0.71564 0.68071 0.0
C532 C 0.9556 0.62482 0.61709 0.0
C533 C 0.9314 0.63813 0.61709 0.0
H534 H 0.88861 0.67019 0.61999 0.0
H535 H 0.88927 0.71518 0.64035 0.0
H536 H 0.04426 0.62999 0.6402 0.0
H537 H 1.00552 0.60545 0.62074 0.0
H538 H 0.95659 0.60542 0.60785 0.0
H539 H 0.91415 0.62877 0.60781 0.0
Mn540 Mn 0.50717 0.26 0.13579 0.0
Mn541 Mn 0.48224 0.20738 0.16867 0.0
C542 C 0.50561 0.21793 0.11624 0.0
C543 C 0.50385 0.29605 0.10782 0.0
C544 C 0.5363 0.23205 0.18016 0.0
O545 O 0.4853 0.27762 0.16471 0.0
O546 O 0.46956 0.24088 0.18449 0.0
C547 C 0.4256 0.21277 0.155 0.0
N548 N 0.44777 0.19802 0.15529 0.0
C549 C 0.42426 0.16063 0.13564 0.0
C550 C 0.40115 0.17539 0.13522 0.0
C551 C 0.40185 0.20159 0.1449 0.0
C552 C 0.44733 0.1728 0.14601 0.0
H553 H 0.42602 0.23292 0.16241 0.0
C554 C 0.47121 0.2661 0.18221 0.0
O555 O 0.5228 0.29469 0.12497 0.0
O556 O 0.48621 0.27687 0.10745 0.0
N557 N 0.49255 0.1737 0.15505 0.0
C558 C 0.51689 0.16271 0.15543 0.0
C559 C 0.51969 0.13665 0.14606 0.0
C560 C 0.49746 0.12218 0.1365 0.0
C561 C 0.47267 0.13397 0.13613 0.0
C562 C 0.47102 0.15987 0.14602 0.0
H563 H 0.53402 0.17373 0.16284 0.0
O564 O 0.52269 0.23572 0.10841 0.0
O565 O 0.49053 0.2251 0.13552 0.0
O566 O 0.5349 0.24993 0.16293 0.0
O567 O 0.51787 0.2148 0.1839 0.0
C568 C 0.44961 0.12114 0.12604 0.0
C569 C 0.42543 0.13449 0.12572 0.0
H570 H 0.38282 0.16688 0.12734 0.0
H571 H 0.38412 0.21314 0.14456 0.0
H572 H 0.53893 0.12773 0.14623 0.0
H573 H 0.49965 0.10206 0.12936 0.0
H574 H 0.45033 0.10115 0.11812 0.0
H575 H 0.40792 0.12457 0.11755 0.0
H576 H 0.24138 0.72211 0.87742 0.0
H577 H 0.15641 0.72843 0.86755 0.0
H578 H 0.15603 0.76297 0.90228 0.0
H579 H 0.23967 0.73783 0.95291 0.0
H580 H 0.27158 0.75442 0.95066 0.0
H581 H 0.26374 0.72608 0.92979 0.0
H582 H 0.27793 0.7541 0.89202 0.0
H583 H 0.28082 0.78558 0.90897 0.0
H584 H 0.25789 0.78065 0.88181 0.0
H585 H 0.16515 0.79872 0.93619 0.0
H586 H 0.18381 0.83549 0.96397 0.0
H587 H 0.26303 0.80887 0.94822 0.0
C588 C 0.22252 0.72993 0.88329 0.0
C589 C 0.19895 0.72262 0.86956 0.0
C590 C 0.1748 0.73396 0.87744 0.0
C591 C 0.17431 0.75338 0.8974 0.0
C592 C 0.19804 0.7609 0.90978 0.0
C593 C 0.22163 0.74913 0.90346 0.0
C594 C 0.24468 0.76253 0.91809 0.0
C595 C 0.25555 0.74412 0.93911 0.0
C596 C 0.26667 0.77136 0.89918 0.0
C597 C 0.23075 0.78559 0.93094 0.0
C598 C 0.20365 0.78321 0.92734 0.0
C599 C 0.18634 0.80092 0.93899 0.0
C600 C 0.19704 0.82174 0.9546 0.0
C601 C 0.22474 0.82545 0.95715 0.0
C602 C 0.24179 0.80694 0.94554 0.0
H603 H 0.03915 0.55902 0.43955 0.0
H604 H 0.97261 0.51023 0.41067 0.0
H605 H 0.99723 0.50015 0.37062 0.0
H606 H 0.05168 0.58844 0.37689 0.0
H607 H 0.08707 0.59058 0.38156 0.0
H608 H 0.06546 0.59176 0.40957 0.0
H609 H 0.08963 0.55229 0.42976 0.0
H610 H 0.11117 0.55084 0.40167 0.0
H611 H 0.09213 0.52188 0.41102 0.0
H612 H 0.02914 0.49488 0.33306 0.0
H613 H 0.06338 0.50039 0.29861 0.0
H614 H 0.10639 0.5566 0.34906 0.0
C615 C 0.02952 0.5463 0.42491 0.0
C616 C 1.00397 0.53488 0.42919 0.0
C617 C 0.99251 0.5184 0.40898 0.0
C618 C 1.00628 0.51268 0.38579 0.0
C619 C 0.03138 0.524 0.38248 0.0
C620 C 0.04269 0.54092 0.40122 0.0
C621 C 0.06902 0.55224 0.39177 0.0
C622 C 0.06825 0.58255 0.38983 0.0
C623 C 0.09184 0.5438 0.40962 0.0
C624 C 0.0706 0.53914 0.36479 0.0
C625 C 0.04895 0.52248 0.36002 0.0
C626 C 0.04614 0.50796 0.33653 0.0
C627 C 0.06569 0.51105 0.31716 0.0
C628 C 0.08738 0.52888 0.32125 0.0
C629 C 0.08994 0.54289 0.34544 0.0
H630 H 0.77607 0.78318 0.86505 0.0
H631 H 0.86171 0.78446 0.87221 0.0
H632 H 0.8584 0.75061 0.90678 0.0
H633 H 0.76215 0.77684 0.93366 0.0
H634 H 0.73358 0.75531 0.92819 0.0
H635 H 0.74304 0.77912 0.9038 0.0
H636 H 0.74518 0.74156 0.86861 0.0
H637 H 0.73572 0.71764 0.89289 0.0
H638 H 0.76574 0.71361 0.87443 0.0
H639 H 0.84498 0.71635 0.94154 0.0
H640 H 0.82287 0.68505 0.97197 0.0
H641 H 0.74644 0.70789 0.94157 0.0
C642 C 0.79418 0.77658 0.87401 0.0
C643 C 0.81916 0.78664 0.86595 0.0
C644 C 0.84234 0.77693 0.87788 0.0
C645 C 0.84064 0.7578 0.89764 0.0
C646 C 0.81563 0.7485 0.90525 0.0
C647 C 0.79285 0.75759 0.89368 0.0
C648 C 0.76833 0.74457 0.90515 0.0
C649 C 0.75075 0.76519 0.9185 0.0
C650 C 0.75284 0.72838 0.88401 0.0
C651 C 0.78077 0.72679 0.9251 0.0
C652 C 0.80806 0.72919 0.92496 0.0
C653 C 0.8236 0.71439 0.94178 0.0
C654 C 0.81087 0.69667 0.95904 0.0
C655 C 0.78287 0.69394 0.95937 0.0
C656 C 0.76786 0.70939 0.94209 0.0
H657 H 0.01719 0.94732 0.41196 0.0
H658 H 0.02417 0.02891 0.43933 0.0
H659 H 0.99763 0.0428 0.4011 0.0
H660 H 0.02192 0.96065 0.34273 0.0
H661 H 0.99832 0.93474 0.33352 0.0
H662 H 0.01822 0.93168 0.36272 0.0
H663 H 0.97568 0.92498 0.3904 0.0
H664 H 0.95566 0.92807 0.36129 0.0
H665 H 0.95036 0.94943 0.38939 0.0
H666 H 0.96822 0.04713 0.36019 0.0
H667 H 0.94079 0.04163 0.31982 0.0
H668 H 0.9544 0.95717 0.31998 0.0
C669 C 0.01309 0.96812 0.40997 0.0
C670 C 0.02267 0.98703 0.42867 0.0
C671 C 0.0172 0.0141 0.42513 0.0
C672 C 1.00203 0.02215 0.40355 0.0
C673 C 0.99267 1.00289 0.38561 0.0
C674 C 0.99818 0.97646 0.38857 0.0
C675 C 0.98593 0.95957 0.3667 0.0
C676 C 1.00738 0.94586 0.35046 0.0
C677 C 0.96571 0.93932 0.3776 0.0
C678 C 0.97246 0.98054 0.351 0.0
C679 C 0.97641 1.00543 0.36215 0.0
C680 C 0.96518 0.02772 0.35123 0.0
C681 C 0.94958 0.02441 0.32832 0.0
C682 C 0.94552 0.99902 0.31652 0.0
C683 C 0.95725 0.97694 0.32819 0.0
H684 H 0.24884 0.26327 0.66503 0.0
H685 H 0.16446 0.27679 0.66083 0.0
H686 H 0.16054 0.24585 0.62288 0.0
H687 H 0.26033 0.2597 0.59606 0.0
H688 H 0.28394 0.23365 0.59773 0.0
H689 H 0.28015 0.25604 0.62528 0.0
H690 H 0.27068 0.21635 0.65569 0.0
H691 H 0.27449 0.19381 0.62823 0.0
H692 H 0.24447 0.1928 0.64723 0.0
H693 H 0.16612 0.21668 0.5838 0.0
H694 H 0.17994 0.18819 0.54721 0.0
H695 H 0.26068 0.19091 0.57718 0.0
C696 C 0.22955 0.2596 0.65615 0.0
C697 C 0.2069 0.2724 0.66587 0.0
C698 C 0.18197 0.26698 0.65387 0.0
C699 C 0.17958 0.24955 0.63225 0.0
C700 C 0.20227 0.23745 0.62302 0.0
C701 C 0.22675 0.24196 0.63468 0.0
C702 C 0.24795 0.2264 0.62064 0.0
C703 C 0.26935 0.24506 0.60925 0.0
C704 C 0.26011 0.20613 0.63905 0.0
C705 C 0.23159 0.21279 0.59899 0.0
C706 C 0.20534 0.21962 0.60079 0.0
C707 C 0.18653 0.21085 0.5824 0.0
C708 C 0.19466 0.1946 0.56162 0.0
C709 C 0.22138 0.18687 0.5594 0.0
C710 C 0.24005 0.19606 0.57852 0.0
H711 H 0.51965 0.50499 0.59497 0.0
H712 H 0.53394 0.58834 0.61331 0.0
H713 H 0.50848 0.58371 0.65414 0.0
H714 H 0.45422 0.50058 0.6177 0.0
H715 H 0.45663 0.46837 0.63206 0.0
H716 H 0.4776 0.47734 0.60494 0.0
H717 H 0.51923 0.46698 0.63245 0.0
H718 H 0.49835 0.45767 0.65958 0.0
H719 H 0.52407 0.48272 0.66422 0.0
H720 H 0.4776 0.57173 0.69008 0.0
H721 H 0.44687 0.55165 0.72209 0.0
H722 H 0.45462 0.47525 0.68307 0.0
C723 C 0.51791 0.52208 0.60789 0.0
C724 C 0.52851 0.54712 0.60071 0.0
C725 C 0.52558 0.56907 0.6181 0.0
C726 C 0.51125 0.56664 0.64142 0.0
C727 C 0.50026 0.542 0.64747 0.0
C728 C 0.50379 0.51995 0.63155 0.0
C729 C 0.48929 0.49593 0.64262 0.0
C730 C 0.46819 0.48492 0.62317 0.0
C731 C 0.50891 0.47456 0.65017 0.0
C732 C 0.47666 0.50816 0.66681 0.0
C733 C 0.4832 0.53479 0.66911 0.0
C734 C 0.47266 0.55079 0.68879 0.0
C735 C 0.4551 0.53925 0.70678 0.0
C736 C 0.44845 0.51188 0.7052 0.0
C737 C 0.45957 0.49615 0.68499 0.0
H738 H 0.7786 0.252 0.66041 0.0
H739 H 0.86093 0.24148 0.64 0.0
H740 H 0.8571 0.27458 0.60505 0.0
H741 H 0.75388 0.26106 0.59447 0.0
H742 H 0.73091 0.28613 0.60398 0.0
H743 H 0.74001 0.26126 0.62705 0.0
H744 H 0.75479 0.29804 0.66043 0.0
H745 H 0.74599 0.32304 0.63735 0.0
H746 H 0.77905 0.32277 0.65082 0.0
H747 H 0.84423 0.30737 0.57171 0.0
H748 H 0.82315 0.33855 0.54179 0.0
H749 H 0.74965 0.33048 0.58498 0.0
C750 C 0.79568 0.25657 0.64836 0.0
C751 C 0.82005 0.24415 0.65268 0.0
C752 C 0.84213 0.25082 0.6369 0.0
C753 C 0.84014 0.26958 0.61708 0.0
C754 C 0.81599 0.28174 0.61349 0.0
C755 C 0.79414 0.27562 0.62868 0.0
C756 C 0.77065 0.29197 0.62085 0.0
C757 C 0.7475 0.27403 0.611 0.0
C758 C 0.76212 0.31002 0.64373 0.0
C759 C 0.78266 0.30797 0.59868 0.0
C760 C 0.80882 0.30163 0.59479 0.0
C761 C 0.82385 0.31271 0.57471 0.0
C762 C 0.81172 0.33041 0.55785 0.0
C763 C 0.78494 0.33716 0.56133 0.0
C764 C 0.77034 0.3261 0.58228 0.0
H765 H 0.51843 0.02972 0.59716 0.0
H766 H 0.4996 0.94756 0.61415 0.0
H767 H 0.52478 0.9517 0.65564 0.0
H768 H 0.58421 0.03003 0.62084 0.0
H769 H 0.58404 0.06286 0.6352 0.0
H770 H 0.56264 0.05449 0.60773 0.0
H771 H 0.52187 0.06876 0.63462 0.0
H772 H 0.54319 0.07736 0.66214 0.0
H773 H 0.51573 0.05434 0.66625 0.0
H774 H 0.55491 0.96303 0.69296 0.0
H775 H 0.58685 0.98172 0.72544 0.0
H776 H 0.58587 0.05719 0.6859 0.0
C777 C 0.5192 0.01283 0.60993 0.0
C778 C 0.50716 0.98826 0.60238 0.0
C779 C 0.5089 0.96647 0.61943 0.0
C780 C 0.52306 0.96865 0.64309 0.0
C781 C 0.5353 0.99284 0.64967 0.0
C782 C 0.53339 0.01466 0.63379 0.0
C783 C 0.5495 0.03797 0.64519 0.0
C784 C 0.57139 0.04685 0.6261 0.0
C785 C 0.53149 0.06097 0.65249 0.0
C786 C 0.56109 0.0256 0.66957 0.0
C787 C 0.55254 0.99956 0.67172 0.0
C788 C 0.56151 0.9835 0.6917 0.0
C789 C 0.57976 0.99428 0.71001 0.0
C790 C 0.58884 0.02096 0.70837 0.0
C791 C 0.5791 0.03684 0.68794 0.0
H792 H 0.88044 0.1818 0.74304 0.0
H793 H 0.85441 0.26265 0.73572 0.0
H794 H 0.88698 0.27745 0.76904 0.0
H795 H 0.8876 0.18524 0.81196 0.0
H796 H 0.9173 0.16641 0.81531 0.0
H797 H 0.89471 0.15965 0.78833 0.0
H798 H 0.92969 0.16766 0.75326 0.0
H799 H 0.95415 0.1722 0.77896 0.0
H800 H 0.95024 0.19735 0.75463 0.0
H801 H 0.92396 0.28463 0.79975 0.0
H802 H 0.9588 0.28301 0.83352 0.0
H803 H 0.95895 0.19741 0.82631 0.0
C804 C 0.88154 0.20258 0.74853 0.0
C805 C 0.86524 0.22114 0.7361 0.0
C806 C 0.86721 0.24814 0.74413 0.0
C807 C 0.8856 0.25678 0.76319 0.0
C808 C 0.90175 0.23822 0.77446 0.0
C809 C 0.89975 0.21164 0.76787 0.0
C810 C 0.91889 0.19592 0.78426 0.0
C811 C 0.90377 0.17559 0.80101 0.0
C812 C 0.93946 0.18249 0.76672 0.0
C813 C 0.93172 0.21791 0.80112 0.0
C814 C 0.9218 0.24215 0.79448 0.0
C815 C 0.93144 0.26575 0.80566 0.0
C816 C 0.95112 0.26461 0.8249 0.0
C817 C 0.96056 0.24006 0.83333 0.0
C818 C 0.95136 0.21637 0.82076 0.0
H819 H 0.47931 0.94202 0.48484 0.0
H820 H 0.50707 0.90852 0.55795 0.0
H821 H 0.51976 0.86853 0.53399 0.0
H822 H 0.44801 0.88115 0.46277 0.0
H823 H 0.45487 0.88675 0.42854 0.0
H824 H 0.45112 0.91445 0.45078 0.0
H825 H 0.49729 0.9329 0.43713 0.0
H826 H 0.50132 0.905 0.41512 0.0
H827 H 0.52579 0.91243 0.44026 0.0
H828 H 0.52951 0.83141 0.50228 0.0
H829 H 0.5278 0.79726 0.4667 0.0
H830 H 0.48825 0.85187 0.41594 0.0
C831 C 0.48791 0.92639 0.49606 0.0
C832 C 0.49288 0.92938 0.52345 0.0
C833 C 0.50413 0.90786 0.53689 0.0
C834 C 0.51127 0.88471 0.52345 0.0
C835 C 0.50647 0.88274 0.49656 0.0
C836 C 0.49441 0.9027 0.48312 0.0
C837 C 0.48885 0.89438 0.45479 0.0
C838 C 0.45894 0.89416 0.44888 0.0
C839 C 0.50424 0.91225 0.4357 0.0
C840 C 0.49949 0.86659 0.45455 0.0
C841 C 0.51022 0.86052 0.47867 0.0
C842 C 0.52118 0.83594 0.48329 0.0
C843 C 0.52036 0.81676 0.46298 0.0
C844 C 0.5082 0.82217 0.43866 0.0
C845 C 0.49797 0.84747 0.43431 0.0
H846 H 0.13833 0.30347 0.72923 0.0
H847 H 0.20664 0.31301 0.78084 0.0
H848 H 0.17763 0.30809 0.81948 0.0
H849 H 0.0925 0.33965 0.77165 0.0
H850 H 0.06469 0.3179 0.7636 0.0
H851 H 0.09063 0.32324 0.73993 0.0
H852 H 0.09753 0.2727 0.73653 0.0
H853 H 0.07159 0.26721 0.7601 0.0
H854 H 0.10407 0.25454 0.76595 0.0
H855 H 0.14217 0.29787 0.85209 0.0
H856 H 0.10188 0.28553 0.87692 0.0
H857 H 0.05569 0.28572 0.80491 0.0
C858 C 0.14709 0.30467 0.7487 0.0
C859 C 0.17472 0.30865 0.7521 0.0
C860 C 0.1855 0.31022 0.77784 0.0
C861 C 0.1692 0.3074 0.79988 0.0
C862 C 0.14208 0.30339 0.79589 0.0
C863 C 0.13101 0.3023 0.77099 0.0
C864 C 0.10128 0.29741 0.77224 0.0
C865 C 0.0864 0.32096 0.7612 0.0
C866 C 0.09315 0.27142 0.75786 0.0
C867 C 0.09747 0.29531 0.8017 0.0
C868 C 0.12132 0.29874 0.81494 0.0
C869 C 0.1233 0.29566 0.84203 0.0
C870 C 0.10037 0.28864 0.85596 0.0
C871 C 0.07573 0.28522 0.84286 0.0
C872 C 0.0742 0.28898 0.81545 0.0
H873 H 0.54555 0.59139 0.48332 0.0
H874 H 0.53341 0.62809 0.56008 0.0
H875 H 0.51777 0.66802 0.53885 0.0
H876 H 0.57149 0.65237 0.45354 0.0
H877 H 0.55668 0.64471 0.42193 0.0
H878 H 0.56632 0.61837 0.4431 0.0
H879 H 0.5186 0.59844 0.44061 0.0
H880 H 0.50874 0.62488 0.41969 0.0
H881 H 0.49116 0.61867 0.4498 0.0
H882 H 0.50013 0.70282 0.50975 0.0
H883 H 0.48834 0.73324 0.47423 0.0
H884 H 0.51692 0.67713 0.41625 0.0
C885 C 0.54 0.60789 0.49575 0.0
C886 C 0.54006 0.60596 0.52355 0.0
C887 C 0.5326 0.62832 0.53882 0.0
C888 C 0.52386 0.65133 0.52695 0.0
C889 C 0.52332 0.65222 0.49966 0.0
C890 C 0.5318 0.63141 0.4842 0.0
C891 C 0.53017 0.63811 0.45524 0.0
C892 C 0.55781 0.63841 0.44272 0.0
C893 C 0.51103 0.61888 0.44047 0.0
C894 C 0.51915 0.66576 0.45695 0.0
C895 C 0.51496 0.67328 0.48279 0.0
C896 C 0.50366 0.69733 0.48944 0.0
C897 C 0.49687 0.71439 0.46917 0.0
C898 C 0.50188 0.70758 0.44261 0.0
C899 C 0.51316 0.68291 0.43646 0.0
H900 H 0.88993 0.7993 0.80604 0.0
H901 H 0.8401 0.84527 0.75478 0.0
H902 H 0.87243 0.84029 0.71953 0.0
H903 H 0.95412 0.81781 0.78017 0.0
H904 H 0.96635 0.7847 0.78179 0.0
H905 H 0.94172 0.79552 0.8048 0.0
H906 H 0.91082 0.75596 0.79087 0.0
H907 H 0.93544 0.7449 0.76804 0.0
H908 H 0.90236 0.75105 0.75664 0.0
H909 H 0.90989 0.82907 0.68865 0.0
H910 H 0.94509 0.80708 0.66337 0.0
H911 H 0.96588 0.76251 0.73218 0.0
C912 C 0.88529 0.80828 0.78752 0.0
C913 C 0.86202 0.82309 0.78398 0.0
C914 C 0.85785 0.83465 0.75902 0.0
C915 C 0.87614 0.83173 0.73851 0.0
C916 C 0.89841 0.81668 0.74275 0.0
C917 C 0.90274 0.80471 0.7665 0.0
C918 C 0.92647 0.78695 0.7651 0.0
C919 C 0.94847 0.79685 0.7841 0.0
C920 C 0.91828 0.75801 0.77047 0.0
C921 C 0.93463 0.79055 0.73673 0.0
C922 C 0.91867 0.80841 0.72438 0.0
C923 C 0.92247 0.81505 0.69814 0.0
C924 C 0.94261 0.80261 0.68398 0.0
C925 C 0.95821 0.78322 0.69587 0.0
C926 C 0.95429 0.77737 0.72267 0.0
H927 H 0.04959 0.93472 0.54067 0.0
H928 H 0.01575 0.90302 0.46751 0.0
H929 H 0.99967 0.86366 0.49075 0.0
H930 H 0.07471 0.8726 0.56076 0.0
H931 H 0.06911 0.8789 0.59524 0.0
H932 H 0.07546 0.90609 0.57355 0.0
H933 H 0.03171 0.92731 0.58833 0.0
H934 H 0.0251 0.90005 0.60991 0.0
H935 H 1.00102 0.90846 0.58538 0.0
H936 H 0.98714 0.82737 0.52182 0.0
H937 H 0.98424 0.7944 0.55707 0.0
H938 H 0.03089 0.84696 0.60842 0.0
C939 C 0.03903 0.91956 0.52927 0.0
C940 C 0.03366 0.92263 0.50211 0.0
C941 C 0.01945 0.90199 0.48842 0.0
C942 C 0.01035 0.87929 0.50143 0.0
C943 C 0.01599 0.87707 0.52808 0.0
C944 C 0.03041 0.89641 0.54175 0.0
C945 C 0.0356 0.88818 0.5698 0.0
C946 C 0.06549 0.88633 0.57514 0.0
C947 C 0.02258 0.90713 0.58951 0.0
C948 C 0.02198 0.86111 0.56968 0.0
C949 C 0.01031 0.85533 0.54557 0.0
C950 C 0.99629 0.83163 0.54075 0.0
C951 C 0.99464 0.81308 0.56092 0.0
C952 C 1.00739 0.81812 0.5854 0.0
C953 C 0.02102 0.84257 0.58985 0.0
H954 H 0.14186 0.66981 0.78003 0.0
H955 H 0.19192 0.73985 0.77068 0.0
H956 H 0.16156 0.75581 0.73639 0.0
H957 H 0.12071 0.662 0.71041 0.0
H958 H 0.08742 0.65192 0.719 0.0
H959 H 0.11461 0.64465 0.74055 0.0
H960 H 0.09104 0.66851 0.77896 0.0
H961 H 0.06393 0.67607 0.7575 0.0
H962 H 0.08141 0.70234 0.77523 0.0
H963 H 0.12447 0.76543 0.70533 0.0
H964 H 0.0833 0.76828 0.67947 0.0
H965 H 0.05612 0.69258 0.70997 0.0
C966 C 0.14669 0.68812 0.77016 0.0
C967 C 0.16939 0.70345 0.77746 0.0
C968 C 0.17478 0.72775 0.76492 0.0
C969 C 0.15764 0.73694 0.74552 0.0
C970 C 0.13509 0.72167 0.73906 0.0
C971 C 0.12958 0.69774 0.75093 0.0
C972 C 0.10308 0.68612 0.74164 0.0
C973 C 0.10668 0.6596 0.72703 0.0
C974 C 0.08373 0.68309 0.76471 0.0
C975 C 0.09443 0.7074 0.72301 0.0
C976 C 0.1133 0.72759 0.72165 0.0
C977 C 0.10962 0.74965 0.70611 0.0
C978 C 0.08609 0.75109 0.6915 0.0
C979 C 0.06631 0.7307 0.69262 0.0
C980 C 0.07071 0.70857 0.70866 0.0
H981 H 0.02107 0.59557 0.51258 0.0
H982 H 0.93618 0.60157 0.50202 0.0
H983 H 0.93636 0.64094 0.53116 0.0
H984 H 0.02346 0.61131 0.5779 0.0
H985 H 0.05272 0.63254 0.57932 0.0
H986 H 0.04925 0.60719 0.55413 0.0
H987 H 0.05441 0.63972 0.51655 0.0
H988 H 0.0607 0.66575 0.5406 0.0
H989 H 0.03503 0.66915 0.51623 0.0
H990 H 0.94452 0.67734 0.56298 0.0
H991 H 0.96074 0.71077 0.59533 0.0
H992 H 0.04053 0.68228 0.58704 0.0
C993 C 1.00272 0.60567 0.5159 0.0
C994 C 0.97856 0.59548 0.50514 0.0
C995 C 0.95483 0.60893 0.51024 0.0
C996 C 0.95474 0.63134 0.5267 0.0
C997 C 0.97861 0.64035 0.53776 0.0
C998 C 1.00228 0.62832 0.53235 0.0
C999 C 0.02486 0.64175 0.54782 0.0
C1000 C 0.03838 0.62206 0.5659 0.0
C1001 C 0.04494 0.65488 0.52919 0.0
C1002 C 0.00992 0.66244 0.56344 0.0
C1003 C 0.98332 0.66136 0.55692 0.0
C1004 C 0.96529 0.67838 0.56831 0.0
C1005 C 0.97463 0.69711 0.58685 0.0
C1006 C 1.00165 0.69844 0.5943 0.0
C1007 C 0.01966 0.68121 0.58208 0.0
H1008 H 0.74996 0.87234 0.24334 0.0
H1009 H 0.7477 0.86573 0.15807 0.0
H1010 H 0.78386 0.89927 0.1556 0.0
H1011 H 0.76453 0.94633 0.24386 0.0
H1012 H 0.78404 0.94371 0.27342 0.0
H1013 H 0.75605 0.9215 0.26762 0.0
H1014 H 0.78666 0.88366 0.27544 0.0
H1015 H 0.81671 0.9035 0.27725 0.0
H1016 H 0.81284 0.87717 0.25283 0.0
H1017 H 0.82092 0.93343 0.16254 0.0
H1018 H 0.85602 0.96501 0.17863 0.0
H1019 H 0.83496 0.94746 0.259 0.0
C1020 C 0.75631 0.87841 0.22402 0.0
C1021 C 0.74592 0.86596 0.20092 0.0
C1022 C 0.7556 0.87435 0.17617 0.0
C1023 C 0.77599 0.89366 0.17451 0.0
C1024 C 0.78618 0.9049 0.19773 0.0
C1025 C 0.77621 0.89802 0.22197 0.0
C1026 C 0.79098 0.91256 0.24403 0.0
C1027 C 0.77282 0.93219 0.25805 0.0
C1028 C 0.80259 0.89311 0.26357 0.0
C1029 C 0.81219 0.9271 0.22853 0.0
C1030 C 0.80844 0.92325 0.20178 0.0
C1031 C 0.82422 0.93637 0.18343 0.0
C1032 C 0.8441 0.95415 0.19267 0.0
C1033 C 0.84865 0.9578 0.21993 0.0
C1034 C 0.83249 0.94411 0.23803 0.0
H1035 H 0.7416 0.12657 0.32944 0.0
H1036 H 0.7508 0.17947 0.26369 0.0
H1037 H 0.78797 0.1533 0.2472 0.0
H1038 H 0.8101 0.11438 0.34009 0.0
H1039 H 0.8056 0.0797 0.34699 0.0
H1040 H 0.7794 0.10226 0.35391 0.0
H1041 H 0.74704 0.07376 0.32493 0.0
H1042 H 0.77306 0.05095 0.31814 0.0
H1043 H 0.75578 0.06603 0.29142 0.0
H1044 H 0.82584 0.12438 0.2398 0.0
H1045 H 0.85903 0.08981 0.23752 0.0
H1046 H 0.82397 0.05199 0.30552 0.0
C1047 C 0.75132 0.13231 0.31141 0.0
C1048 C 0.74336 0.15491 0.29767 0.0
C1049 C 0.75647 0.16204 0.27424 0.0
C1050 C 0.77768 0.14742 0.26486 0.0
C1051 C 0.78529 0.12546 0.27892 0.0
C1052 C 0.77226 0.11749 0.30136 0.0
C1053 C 0.78423 0.09254 0.31211 0.0
C1054 C 0.7955 0.09753 0.33993 0.0
C1055 C 0.76381 0.06945 0.31161 0.0
C1056 C 0.80621 0.08804 0.29235 0.0
C1057 C 0.80657 0.10761 0.27369 0.0
C1058 C 0.82558 0.10874 0.25407 0.0
C1059 C 0.84449 0.08906 0.25309 0.0
C1060 C 0.84408 0.06815 0.2713 0.0
C1061 C 0.82466 0.06766 0.29126 0.0
H1062 H 0.43514 0.98934 0.01034 0.0
H1063 H 0.43052 0.02308 0.93259 0.0
H1064 H 0.38737 1.00043 0.92525 0.0
H1065 H 0.40514 0.92502 0.99129 0.0
H1066 H 0.38741 0.92108 0.02169 0.0
H1067 H 0.41816 0.93995 0.02123 0.0
H1068 H 0.3947 0.98006 0.04203 0.0
H1069 H 0.36382 0.9614 0.04229 0.0
H1070 H 0.36587 0.99283 0.02611 0.0
H1071 H 0.3447 0.97669 0.92651 0.0
H1072 H 0.30575 0.94822 0.93366 0.0
H1073 H 0.33675 0.92655 0.01006 0.0
C1074 C 0.42505 0.9917 0.99173 0.0
C1075 C 0.43633 1.00779 0.97188 0.0
C1076 C 0.42255 0.0105 0.94783 0.0
C1077 C 0.39789 0.99792 0.94358 0.0
C1078 C 0.38723 0.98245 0.96349 0.0
C1079 C 0.40039 0.97884 0.98694 0.0
C1080 C 0.38441 0.96035 1.00456 0.0
C1081 C 0.39969 0.9351 0.01001 0.0
C1082 C 0.37675 0.97451 0.03027 0.0
C1083 C 0.36019 0.95438 0.98731 0.0
C1084 C 0.36238 0.9677 0.96388 0.0
C1085 C 0.34283 0.96593 0.94464 0.0
C1086 C 0.32068 0.94958 0.949 0.0
C1087 C 0.31806 0.93474 0.97237 0.0
C1088 C 0.33802 0.93757 0.99202 0.0
H1089 H 0.30277 0.40428 0.31642 0.0
H1090 H 0.25 0.33621 0.32688 0.0
H1091 H 0.21148 0.36407 0.31907 0.0
H1092 H 0.26023 0.45228 0.34862 0.0
H1093 H 0.2685 0.47845 0.32622 0.0
H1094 H 0.2922 0.45339 0.33303 0.0
H1095 H 0.29566 0.44246 0.28327 0.0
H1096 H 0.2721 0.46757 0.27631 0.0
H1097 H 0.266 0.43404 0.26478 0.0
H1098 H 0.179 0.39802 0.30732 0.0
H1099 H 0.15404 0.43685 0.29363 0.0
H1100 H 0.22673 0.48436 0.29329 0.0
C1101 C 0.28307 0.39534 0.31708 0.0
C1102 C 0.27934 0.3681 0.32239 0.0
C1103 C 0.25329 0.35708 0.32318 0.0
C1104 C 0.23129 0.37273 0.31871 0.0
C1105 C 0.23558 0.39949 0.31371 0.0
C1106 C 0.26075 0.41083 0.31302 0.0
C1107 C 0.25963 0.44014 0.30704 0.0
C1108 C 0.27081 0.45706 0.33011 0.0
C1109 C 0.27421 0.44641 0.28132 0.0
C1110 C 0.22994 0.44334 0.30409 0.0
C1111 C 0.21653 0.41953 0.30795 0.0
C1112 C 0.18921 0.41686 0.30465 0.0
C1113 C 0.1752 0.43899 0.29688 0.0
C1114 C 0.18841 0.46361 0.29289 0.0
C1115 C 0.2161 0.46591 0.29691 0.0
H1116 H 0.12103 0.99687 0.45701 0.0
H1117 H 0.07989 1.00688 0.5309 0.0
H1118 H 0.1158 0.03728 0.54697 0.0
H1119 H 0.19027 1.0015 0.4896 0.0
H1120 H 0.20384 0.0171 0.46085 0.0
H1121 H 0.17706 0.99296 0.45753 0.0
H1122 H 0.15363 0.02659 0.43125 0.0
H1123 H 0.17529 0.05481 0.43781 0.0
H1124 H 0.14073 0.05521 0.44707 0.0
H1125 H 0.15538 0.06711 0.5546 0.0
H1126 H 0.19498 0.09683 0.55248 0.0
H1127 H 0.20891 0.07053 0.4724 0.0
C1128 C 0.11997 1.0051 0.47675 0.0
C1129 C 0.09781 0.99967 0.4928 0.0
C1130 C 0.09686 0.01076 0.51847 0.0
C1131 C 0.11716 0.02794 0.52775 0.0
C1132 C 0.13854 0.03333 0.51131 0.0
C1133 C 0.14045 0.02179 0.48659 0.0
C1134 C 0.16517 0.03171 0.47262 0.0
C1135 C 0.18527 0.0095 0.47 0.0
C1136 C 0.15841 0.04286 0.44559 0.0
C1137 C 0.17513 0.05284 0.49211 0.0
C1138 C 0.16029 0.05228 0.51489 0.0
C1139 C 0.16696 0.06801 0.53679 0.0
C1140 C 0.18937 0.08483 0.53541 0.0
C1141 C 0.20409 0.0867 0.51194 0.0
C1142 C 0.19711 0.07028 0.49011 0.0
H1143 H 0.79336 0.15693 0.74034 0.0
H1144 H 0.78953 0.1547 0.65494 0.0
H1145 H 0.7573 0.11752 0.65664 0.0
H1146 H 0.78559 0.08035 0.74444 0.0
H1147 H 0.76858 0.08386 0.77532 0.0
H1148 H 0.79459 0.10721 0.7667 0.0
H1149 H 0.76251 0.14268 0.77684 0.0
H1150 H 0.73296 0.12238 0.78009 0.0
H1151 H 0.73511 0.14773 0.75547 0.0
H1152 H 0.72422 0.08121 0.66749 0.0
H1153 H 0.6906 0.05093 0.68714 0.0
H1154 H 0.71422 0.07871 0.76495 0.0
C1155 C 0.78657 0.14819 0.72188 0.0
C1156 C 0.79386 0.15939 0.69751 0.0
C1157 C 0.7838 0.1473 0.67397 0.0
C1158 C 0.76574 0.12578 0.67466 0.0
C1159 C 0.75846 0.11584 0.69899 0.0
C1160 C 0.76907 0.12619 0.72216 0.0
C1161 C 0.75712 0.11245 0.74576 0.0
C1162 C 0.77769 0.09493 0.75882 0.0
C1163 C 0.74615 0.13241 0.76574 0.0
C1164 C 0.7357 0.09541 0.73232 0.0
C1165 C 0.73802 0.09632 0.70529 0.0
C1166 C 0.72203 0.0805 0.68861 0.0
C1167 C 0.70301 0.06345 0.69985 0.0
C1168 C 0.69929 0.06343 0.72734 0.0
C1169 C 0.7161 0.07928 0.74377 0.0
H1170 H 0.42508 0.02527 0.5724 0.0
H1171 H 0.44749 1.0048 0.49237 0.0
H1172 H 0.41161 0.03188 0.47554 0.0
H1173 H 0.35567 0.02579 0.56239 0.0
H1174 H 0.35035 0.05415 0.58346 0.0
H1175 H 0.37792 0.03318 0.5895 0.0
H1176 H 0.41021 0.0737 0.58703 0.0
H1177 H 0.38271 0.09484 0.58105 0.0
H1178 H 0.40995 0.09412 0.55832 0.0
H1179 H 0.37145 0.05885 0.46716 0.0
H1180 H 0.33173 0.08641 0.46799 0.0
H1181 H 0.33765 0.09305 0.55291 0.0
C1182 C 0.42284 0.02674 0.55132 0.0
C1183 C 0.43916 0.01237 0.53383 0.0
C1184 C 0.435 0.01485 0.50636 0.0
C1185 C 0.41476 0.03044 0.49651 0.0
C1186 C 0.39895 0.04399 0.51427 0.0
C1187 C 0.40295 0.04261 0.54108 0.0
C1188 C 0.38316 0.05932 0.55587 0.0
C1189 C 0.36575 0.04207 0.57386 0.0
C1190 C 0.39736 0.08183 0.57149 0.0
C1191 C 0.36721 0.06997 0.53318 0.0
C1192 C 0.37658 0.06072 0.50936 0.0
C1193 C 0.36418 0.06653 0.48567 0.0
C1194 C 0.34161 0.08215 0.48632 0.0
C1195 C 0.33183 0.09215 0.51044 0.0
C1196 C 0.345 0.08613 0.53414 0.0
H1197 H 0.6092 0.50871 0.56421 0.0
H1198 H 0.5777 0.52767 0.48732 0.0
H1199 H 0.60983 0.49843 0.4665 0.0
H1200 H 0.6771 0.50487 0.54573 0.0
H1201 H 0.68407 0.47697 0.566 0.0
H1202 H 0.65851 0.49938 0.57539 0.0
H1203 H 0.62453 0.46021 0.57707 0.0
H1204 H 0.65002 0.43765 0.56776 0.0
H1205 H 0.61996 0.43882 0.54862 0.0
H1206 H 0.64627 0.46926 0.45351 0.0
H1207 H 0.68366 0.43959 0.4489 0.0
H1208 H 0.69072 0.43595 0.53391 0.0
C1209 C 0.6088 0.5065 0.54301 0.0
C1210 C 0.59097 0.52099 0.52748 0.0
C1211 C 0.59146 0.51751 0.49976 0.0
C1212 C 0.60953 0.5007 0.48768 0.0
C1213 C 0.62692 0.48707 0.50349 0.0
C1214 C 0.62662 0.48949 0.53055 0.0
C1215 C 0.64759 0.47235 0.54277 0.0
C1216 C 0.66802 0.48942 0.55839 0.0
C1217 C 0.63475 0.45099 0.56008 0.0
C1218 C 0.65984 0.46019 0.51829 0.0
C1219 C 0.64757 0.46915 0.49592 0.0
C1220 C 0.65584 0.46185 0.47087 0.0
C1221 C 0.67722 0.44494 0.4685 0.0
C1222 C 0.69013 0.43507 0.49102 0.0
C1223 C 0.6811 0.44277 0.5163 0.0
H1224 H 0.68164 0.23372 0.37617 0.0
H1225 H 0.76326 0.22514 0.35162 0.0
H1226 H 0.77756 0.25872 0.38452 0.0
H1227 H 0.6842 0.30058 0.38233 0.0
H1228 H 0.66494 0.30536 0.41176 0.0
H1229 H 0.6588 0.27677 0.39078 0.0
H1230 H 0.66705 0.24355 0.42681 0.0
H1231 H 0.67048 0.27089 0.44988 0.0
H1232 H 0.69627 0.24701 0.44717 0.0
H1233 H 0.78323 0.29419 0.41812 0.0
H1234 H 0.7799 0.33068 0.45048 0.0
H1235 H 0.69458 0.31928 0.45219 0.0
C1236 C 0.70256 0.2386 0.37801 0.0
C1237 C 0.72134 0.2264 0.36148 0.0
C1238 C 0.74852 0.23355 0.36444 0.0
C1239 C 0.75687 0.2528 0.38297 0.0
C1240 C 0.73785 0.26473 0.39854 0.0
C1241 C 0.71129 0.25782 0.3965 0.0
C1242 C 0.69488 0.27492 0.41468 0.0
C1243 C 0.67449 0.29038 0.39899 0.0
C1244 C 0.68137 0.25809 0.4359 0.0
C1245 C 0.71634 0.29308 0.42656 0.0
C1246 C 0.74098 0.28641 0.41722 0.0
C1247 C 0.76405 0.29972 0.42547 0.0
C1248 C 0.76193 0.32056 0.44364 0.0
C1249 C 0.73693 0.32833 0.45297 0.0
C1250 C 0.71384 0.31406 0.44479 0.0
H1251 H 0.52817 1.00764 0.92759 0.0
H1252 H 0.51295 0.09156 0.93549 0.0
H1253 H 0.54073 0.10045 0.89701 0.0
H1254 H 0.5969 0.01546 0.9066 0.0
H1255 H 0.59511 0.98821 0.8833 0.0
H1256 H 0.57431 0.9879 0.91198 0.0
H1257 H 0.53279 0.98166 0.88229 0.0
H1258 H 0.55344 0.98198 0.85352 0.0
H1259 H 0.52693 1.00498 0.8566 0.0
H1260 H 0.56835 0.10089 0.85781 0.0
H1261 H 0.59601 0.09336 0.81936 0.0
H1262 H 0.59535 0.00898 0.83496 0.0
C1263 C 0.53082 0.02786 0.9212 0.0
C1264 C 0.51868 0.04898 0.93489 0.0
C1265 C 0.52251 0.07514 0.92583 0.0
C1266 C 0.53811 0.0804 0.90383 0.0
C1267 C 0.54987 0.05931 0.89093 0.0
C1268 C 0.5466 0.03355 0.89916 0.0
C1269 C 0.56163 0.01475 0.88129 0.0
C1270 C 0.58327 1.00076 0.89672 0.0
C1271 C 0.54255 0.99465 0.86761 0.0
C1272 C 0.57361 0.03406 0.86172 0.0
C1273 C 0.56636 0.05959 0.86784 0.0
C1274 C 0.57426 0.08102 0.85281 0.0
C1275 C 0.59 0.07641 0.83084 0.0
C1276 C 0.59801 0.0505 0.82387 0.0
C1277 C 0.58973 0.02901 0.83972 0.0
H1278 H 0.27709 0.28686 0.36682 0.0
H1279 H 0.36101 0.29674 0.38391 0.0
H1280 H 0.35724 0.26193 0.4175 0.0
H1281 H 0.25582 0.27623 0.43354 0.0
H1282 H 0.23055 0.25211 0.42391 0.0
H1283 H 0.24019 0.27796 0.4017 0.0
H1284 H 0.2505 0.24268 0.36589 0.0
H1285 H 0.24104 0.21672 0.38802 0.0
H1286 H 0.27336 0.21698 0.37317 0.0
H1287 H 0.34371 0.22493 0.44928 0.0
H1288 H 0.32171 0.19009 0.47585 0.0
H1289 H 0.24705 0.20587 0.43721 0.0
C1290 C 0.29464 0.28207 0.37789 0.0
C1291 C 0.31932 0.2947 0.37282 0.0
C1292 C 0.3419 0.28726 0.38735 0.0
C1293 C 0.33993 0.26757 0.40653 0.0
C1294 C 0.31526 0.25546 0.41094 0.0
C1295 C 0.29304 0.26253 0.39699 0.0
C1296 C 0.26887 0.24638 0.40495 0.0
C1297 C 0.24761 0.26424 0.41673 0.0
C1298 C 0.25781 0.22971 0.38162 0.0
C1299 C 0.28086 0.22913 0.42562 0.0
C1300 C 0.30762 0.23451 0.4289 0.0
C1301 C 0.32272 0.22064 0.44688 0.0
C1302 C 0.31008 0.20086 0.46189 0.0
C1303 C 0.2826 0.19517 0.45881 0.0
C1304 C 0.26804 0.20964 0.44032 0.0
H1305 H 0.51834 0.44811 0.91637 0.0
H1306 H 0.52117 0.5292 0.94555 0.0
H1307 H 0.49428 0.54267 0.90737 0.0
H1308 H 0.5231 0.46345 0.84732 0.0
H1309 H 0.50091 0.43661 0.83731 0.0
H1310 H 0.52079 0.43386 0.86657 0.0
H1311 H 0.47843 0.42424 0.89373 0.0
H1312 H 0.45843 0.42702 0.86457 0.0
H1313 H 0.45184 0.44733 0.89312 0.0
H1314 H 0.46456 0.54639 0.86663 0.0
H1315 H 0.43714 0.54038 0.82631 0.0
H1316 H 0.45562 0.45697 0.82414 0.0
C1317 C 0.5133 0.46871 0.91474 0.0
C1318 C 0.52174 0.4876 0.93396 0.0
C1319 C 0.51504 0.51444 0.93094 0.0
C1320 C 0.49969 0.52223 0.90939 0.0
C1321 C 0.49144 0.50299 0.89092 0.0
C1322 C 0.49825 0.47682 0.89333 0.0
C1323 C 0.48702 0.45988 0.87097 0.0
C1324 C 0.50929 0.44775 0.85457 0.0
C1325 C 0.46779 0.43835 0.88122 0.0
C1326 C 0.47255 0.48049 0.85568 0.0
C1327 C 0.47517 0.50525 0.86744 0.0
C1328 C 0.46261 0.52711 0.85715 0.0
C1329 C 0.44703 0.52351 0.83427 0.0
C1330 C 0.44433 0.49827 0.82184 0.0
C1331 C 0.45744 0.47664 0.83283 0.0
H1332 H 0.70601 0.79725 0.13374 0.0
H1333 H 0.72309 0.74956 0.20146 0.0
H1334 H 0.73183 0.7113 0.17205 0.0
H1335 H 0.67193 0.74423 0.09609 0.0
H1336 H 0.68458 0.75538 0.065 0.0
H1337 H 0.67958 0.77886 0.09142 0.0
H1338 H 0.72861 0.79477 0.08807 0.0
H1339 H 0.7338 0.77124 0.06176 0.0
H1340 H 0.75448 0.77105 0.09072 0.0
H1341 H 0.74189 0.67947 0.13521 0.0
H1342 H 0.74771 0.65439 0.09361 0.0
H1343 H 0.72072 0.72155 0.04979 0.0
C1344 C 0.7114 0.77865 0.14227 0.0
C1345 C 0.71391 0.77619 0.16977 0.0
C1346 C 0.72091 0.75164 0.18041 0.0
C1347 C 0.72602 0.72991 0.16387 0.0
C1348 C 0.72362 0.73299 0.1368 0.0
C1349 C 0.71603 0.75658 0.12606 0.0
C1350 C 0.7144 0.75444 0.09633 0.0
C1351 C 0.68592 0.75846 0.08665 0.0
C1352 C 0.73399 0.77404 0.08347 0.0
C1353 C 0.72262 0.72608 0.09201 0.0
C1354 C 0.72813 0.71418 0.11561 0.0
C1355 C 0.73732 0.68846 0.11663 0.0
C1356 C 0.74071 0.67444 0.09292 0.0
C1357 C 0.73453 0.686 0.06856 0.0
C1358 C 0.72529 0.71214 0.06818 0.0
H1359 H 0.02182 0.99717 0.08691 0.0
H1360 H 0.04839 0.07613 0.11127 0.0
H1361 H 0.02627 0.07049 0.15394 0.0
H1362 H 0.95865 1.00021 0.11398 0.0
H1363 H 0.95651 0.96649 0.12491 0.0
H1364 H 0.97721 0.97495 0.09745 0.0
H1365 H 0.01766 0.95529 0.12087 0.0
H1366 H 0.99701 0.94657 0.14837 0.0
H1367 H 0.02656 0.96678 0.15354 0.0
H1368 H 0.99716 0.05924 0.19093 0.0
H1369 H 0.9641 0.04179 0.22202 0.0
H1370 H 0.95662 0.9691 0.17571 0.0
C1371 C 0.02353 0.01289 0.10159 0.0
C1372 C 0.03683 0.03709 0.09591 0.0
C1373 C 0.03823 0.0575 0.11529 0.0
C1374 C 0.02582 0.05445 0.13958 0.0
C1375 C 0.01218 0.03076 0.14435 0.0
C1376 C 0.01112 0.01016 0.12612 0.0
C1377 C 0.99353 0.98753 0.13581 0.0
C1378 C 0.97009 0.98198 0.11691 0.0
C1379 C 1.00966 0.96256 0.13989 0.0
C1380 C 0.98431 0.99904 0.16188 0.0
C1381 C 0.99549 0.02396 0.16635 0.0
C1382 C 0.98863 0.03956 0.18793 0.0
C1383 C 0.96973 0.02954 0.2054 0.0
C1384 C 0.95798 1.00406 0.20137 0.0
C1385 C 0.96567 0.98844 0.17951 0.0
H1386 H 0.31544 0.73247 0.124 0.0
H1387 H 0.30019 0.78108 0.19295 0.0
H1388 H 0.29018 0.81881 0.16463 0.0
H1389 H 0.34757 0.78351 0.08671 0.0
H1390 H 0.33352 0.773 0.0555 0.0
H1391 H 0.33843 0.74919 0.08091 0.0
H1392 H 0.2888 0.7351 0.07856 0.0
H1393 H 0.28383 0.7586 0.05289 0.0
H1394 H 0.26399 0.75987 0.08221 0.0
H1395 H 0.28279 0.85137 0.12944 0.0
H1396 H 0.27577 0.87652 0.08902 0.0
H1397 H 0.29647 0.80773 0.04201 0.0
C1398 C 0.30955 0.75098 0.13295 0.0
C1399 C 0.30825 0.75397 0.16057 0.0
C1400 C 0.301 0.7785 0.17179 0.0
C1401 C 0.29543 0.80002 0.15588 0.0
C1402 C 0.29732 0.79673 0.12874 0.0
C1403 C 0.30401 0.77284 0.11726 0.0
C1404 C 0.30481 0.77494 0.08751 0.0
C1405 C 0.33275 0.76986 0.07705 0.0
C1406 C 0.28412 0.75601 0.07453 0.0
C1407 C 0.29752 0.80368 0.08417 0.0
C1408 C 0.29337 0.81581 0.10827 0.0
C1409 C 0.28601 0.84211 0.11044 0.0
C1410 C 0.28215 0.85628 0.08734 0.0
C1411 C 0.28574 0.8442 0.06234 0.0
C1412 C 0.29395 0.81764 0.06082 0.0
H1413 H 0.02056 0.53464 0.09114 0.0
H1414 H 1.00672 0.45062 0.10323 0.0
H1415 H 0.02943 0.45436 0.14605 0.0
H1416 H 0.08497 0.53864 0.11881 0.0
H1417 H 0.08139 0.57049 0.13467 0.0
H1418 H 0.06233 0.56204 0.10558 0.0
H1419 H 0.019 0.57172 0.13053 0.0
H1420 H 0.03796 0.5803 0.1597 0.0
H1421 H 0.01208 0.55512 0.16092 0.0
H1422 H 0.05648 0.46565 0.18522 0.0
H1423 H 0.08551 0.48442 0.22012 0.0
H1424 H 0.08125 0.56196 0.18515 0.0
C1425 C 0.02196 0.51718 0.10305 0.0
C1426 C 0.01206 0.49225 0.09367 0.0
C1427 C 0.01451 0.4698 0.10974 0.0
C1428 C 0.02722 0.47176 0.13421 0.0
C1429 C 0.03726 0.49637 0.14262 0.0
C1430 C 0.03466 0.51878 0.12774 0.0
C1431 C 0.04829 0.54256 0.14127 0.0
C1432 C 0.07056 0.5541 0.12405 0.0
C1433 C 0.02813 0.56368 0.14854 0.0
C1434 C 0.05938 0.52979 0.1657 0.0
C1435 C 0.05262 0.50312 0.16596 0.0
C1436 C 0.06164 0.48657 0.18545 0.0
C1437 C 0.07823 0.49741 0.20514 0.0
C1438 C 0.08559 0.52465 0.20545 0.0
C1439 C 0.07567 0.54115 0.18564 0.0
H1440 H 0.38166 0.68983 0.24097 0.0
H1441 H 0.36144 0.77193 0.22962 0.0
H1442 H 0.39586 0.7861 0.26133 0.0
H1443 H 0.3892 0.69496 0.30755 0.0
H1444 H 0.41772 0.6747 0.31233 0.0
H1445 H 0.39562 0.66831 0.28492 0.0
H1446 H 0.43165 0.67356 0.25047 0.0
H1447 H 0.45563 0.67729 0.27671 0.0
H1448 H 0.45388 0.70202 0.25169 0.0
H1449 H 0.43133 0.79197 0.29423 0.0
H1450 H 0.46413 0.78909 0.32992 0.0
H1451 H 0.46011 0.70343 0.32391 0.0
C1452 C 0.38469 0.7108 0.24491 0.0
C1453 C 0.36907 0.72974 0.23219 0.0
C1454 C 0.37359 0.75699 0.23825 0.0
C1455 C 0.39303 0.7653 0.25644 0.0
C1456 C 0.40789 0.7462 0.26861 0.0
C1457 C 0.40408 0.71952 0.26319 0.0
C1458 C 0.42177 0.70318 0.28051 0.0
C1459 C 0.40513 0.68416 0.29738 0.0
C1460 C 0.44193 0.68812 0.26385 0.0
C1461 C 0.43542 0.7249 0.29705 0.0
C1462 C 0.42743 0.74953 0.28926 0.0
C1463 C 0.43756 0.77282 0.30072 0.0
C1464 C 0.45601 0.77098 0.32109 0.0
C1465 C 0.4638 0.74608 0.33022 0.0
C1466 C 0.45392 0.72268 0.31764 0.0
H1467 H 0.9602 0.425 1.00355 0.0
H1468 H 0.04377 0.4436 0.01521 0.0
H1469 H 0.055 0.40331 0.98972 0.0
H1470 H 0.96449 0.35496 0.00968 0.0
H1471 H 0.93974 0.34751 0.98482 0.0
H1472 H 0.93855 0.37795 1.00361 0.0
H1473 H 0.939 0.40465 0.96053 0.0
H1474 H 0.94009 0.37428 0.94162 0.0
H1475 H 0.96516 0.3998 0.93711 0.0
H1476 H 0.05676 0.36046 0.96204 0.0
H1477 H 0.04867 0.31928 0.93571 0.0
H1478 H 0.96394 0.32956 0.9434 0.0
C1479 C 0.98088 0.4208 1.0005 0.0
C1480 C 1.0011 0.43755 0.01129 0.0
C1481 C 0.02793 0.43098 0.00727 0.0
C1482 C 0.0345 0.40818 0.99274 0.0
C1483 C 0.01403 0.39206 0.98243 0.0
C1484 C 0.98776 0.39813 0.9862 0.0
C1485 C 0.96941 0.37752 0.97347 0.0
C1486 C 0.95203 0.36367 0.99413 0.0
C1487 C 0.95242 0.3898 0.9519 0.0
C1488 C 0.98938 0.3589 0.96188 0.0
C1489 C 0.01505 0.36754 0.9671 0.0
C1490 C 0.03671 0.3535 0.95793 0.0
C1491 C 0.03193 0.33011 0.943 0.0
C1492 C 1.0057 0.32093 0.93752 0.0
C1493 C 0.98431 0.3357 0.94728 0.0
H1494 H 0.63776 0.81051 0.22787 0.0
H1495 H 0.70684 0.82268 0.27789 0.0
H1496 H 0.67902 0.81591 0.31726 0.0
H1497 H 0.59174 0.84478 0.2718 0.0
H1498 H 0.56448 0.82224 0.26403 0.0
H1499 H 0.58972 0.82876 0.23991 0.0
H1500 H 0.59815 0.77853 0.23564 0.0
H1501 H 0.57298 0.77187 0.25973 0.0
H1502 H 0.60603 0.76023 0.26464 0.0
H1503 H 0.64459 0.80311 0.3506 0.0
H1504 H 0.60499 0.78946 0.37604 0.0
H1505 H 0.55742 0.78991 0.30496 0.0
C1506 C 0.64687 0.81198 0.24717 0.0
C1507 C 0.67436 0.81708 0.25 0.0
C1508 C 0.68575 0.81894 0.27545 0.0
C1509 C 0.67014 0.81507 0.29786 0.0
C1510 C 0.64309 0.80987 0.29445 0.0
C1511 C 0.63146 0.80875 0.26979 0.0
C1512 C 0.60195 0.80287 0.2716 0.0
C1513 C 0.58604 0.82605 0.26122 0.0
C1514 C 0.59434 0.77683 0.25705 0.0
C1515 C 0.59891 0.80026 0.30108 0.0
C1516 C 0.62294 0.80415 0.31388 0.0
C1517 C 0.62556 0.8006 0.34088 0.0
C1518 C 0.60305 0.79281 0.35516 0.0
C1519 C 0.57821 0.78923 0.34249 0.0
C1520 C 0.57609 0.79329 0.31518 0.0
H1521 H 0.04776 0.08595 0.97974 0.0
H1522 H 0.03603 0.11953 0.05796 0.0
H1523 H 0.01917 0.15982 0.03845 0.0
H1524 H 0.07237 0.14815 0.95217 0.0
H1525 H 0.05738 0.14149 0.92044 0.0
H1526 H 0.06756 0.11449 0.9405 0.0
H1527 H 0.02007 0.094 0.93773 0.0
H1528 H 1.00968 0.12106 0.91789 0.0
H1529 H 0.99244 0.1135 0.94789 0.0
H1530 H 1.00066 0.19546 0.01077 0.0
H1531 H 0.98816 0.22698 0.97644 0.0
H1532 H 0.0172 0.17345 0.91634 0.0
C1533 C 0.04204 0.10182 0.99288 0.0
C1534 C 0.04264 0.09889 0.02056 0.0
C1535 C 0.03483 0.12047 0.03676 0.0
C1536 C 0.02541 0.1437 0.02587 0.0
C1537 C 0.02452 0.14559 0.99865 0.0
C1538 C 0.0332 0.12554 0.98234 0.0
C1539 C 0.03125 0.13327 0.9537 0.0
C1540 C 0.05878 0.13442 0.94096 0.0
C1541 C 0.01222 0.11433 0.93841 0.0
C1542 C 0.01987 0.16065 0.95655 0.0
C1543 C 0.01573 0.16715 0.98266 0.0
C1544 C 1.00415 0.19078 0.99027 0.0
C1545 C 0.99698 0.20847 0.97068 0.0
C1546 C 1.00194 0.20268 0.94389 0.0
C1547 C 0.01352 0.17845 0.93676 0.0
H1548 H 0.36157 0.28461 0.29189 0.0
H1549 H 0.3715 0.36972 0.28521 0.0
H1550 H 0.40575 0.36308 0.25111 0.0
H1551 H 0.43011 0.26922 0.28545 0.0
H1552 H 0.4232 0.23906 0.267 0.0
H1553 H 0.39945 0.25096 0.29037 0.0
H1554 H 0.3634 0.25041 0.25387 0.0
H1555 H 0.38704 0.23854 0.2304 0.0
H1556 H 0.36942 0.26833 0.22406 0.0
H1557 H 0.43961 0.34608 0.21716 0.0
H1558 H 0.46861 0.32074 0.18724 0.0
H1559 H 0.43596 0.24746 0.21841 0.0
C1560 C 0.37114 0.30195 0.2836 0.0
C1561 C 0.364 0.32771 0.2915 0.0
C1562 C 0.37657 0.34978 0.27945 0.0
C1563 C 0.39612 0.34618 0.26015 0.0
C1564 C 0.40284 0.32042 0.25308 0.0
C1565 C 0.39061 0.29873 0.26452 0.0
C1566 C 0.40101 0.27305 0.25367 0.0
C1567 C 0.41423 0.25715 0.27542 0.0
C1568 C 0.3789 0.25663 0.23967 0.0
C1569 C 0.42114 0.28354 0.23434 0.0
C1570 C 0.42202 0.31086 0.23409 0.0
C1571 C 0.43908 0.32467 0.21732 0.0
C1572 C 0.45551 0.31012 0.20039 0.0
C1573 C 0.45479 0.28205 0.20044 0.0
C1574 C 0.43733 0.26885 0.21782 0.0
H1575 H 0.54894 0.43401 0.04544 0.0
H1576 H 0.51637 0.4034 0.97132 0.0
H1577 H 0.49966 0.36381 0.99368 0.0
H1578 H 0.57287 0.37094 0.06558 0.0
H1579 H 0.5665 0.37703 0.09995 0.0
H1580 H 0.57385 0.40432 0.07866 0.0
H1581 H 0.53012 0.42611 0.09258 0.0
H1582 H 0.52249 0.39873 0.11372 0.0
H1583 H 0.49921 0.40778 0.08868 0.0
H1584 H 0.48567 0.32741 0.0241 0.0
H1585 H 0.48115 0.29419 0.05904 0.0
H1586 H 0.52728 0.34558 0.11195 0.0
C1587 C 0.53853 0.41902 0.03368 0.0
C1588 C 0.53356 0.42259 0.00651 0.0
C1589 C 0.51968 0.40208 0.99227 0.0
C1590 C 0.51022 0.37923 1.00477 0.0
C1591 C 0.51522 0.37663 0.0315 0.0
C1592 C 0.52952 0.39569 0.04569 0.0
C1593 C 0.53383 0.38708 0.07378 0.0
C1594 C 0.56352 0.3847 0.07984 0.0
C1595 C 0.52062 0.40606 0.09334 0.0
C1596 C 0.51977 0.36019 0.07309 0.0
C1597 C 0.50871 0.35478 0.04864 0.0
C1598 C 0.49437 0.33135 0.0433 0.0
C1599 C 0.49176 0.31267 0.06329 0.0
C1600 C 0.50389 0.31729 0.08814 0.0
C1601 C 0.51785 0.3415 0.0931 0.0
H1602 H 0.64379 0.17184 0.27764 0.0
H1603 H 0.68045 0.25035 0.28184 0.0
H1604 H 0.64677 0.26656 0.25113 0.0
H1605 H 0.6252 0.17262 0.20897 0.0
H1606 H 0.59389 0.15546 0.21362 0.0
H1607 H 0.6212 0.14971 0.23553 0.0
H1608 H 0.5922 0.16234 0.27544 0.0
H1609 H 0.56479 0.16807 0.25366 0.0
H1610 H 0.5763 0.19386 0.27613 0.0
H1611 H 0.61018 0.27406 0.21931 0.0
H1612 H 0.57084 0.27335 0.19048 0.0
H1613 H 0.556 0.19054 0.20822 0.0
C1614 C 0.64466 0.1924 0.27199 0.0
C1615 C 0.66462 0.20991 0.2821 0.0
C1616 C 0.66514 0.23673 0.27447 0.0
C1617 C 0.6462 0.24606 0.25696 0.0
C1618 C 0.62672 0.22838 0.24739 0.0
C1619 C 0.62561 0.20218 0.25477 0.0
C1620 C 0.60205 0.18762 0.24212 0.0
C1621 C 0.61114 0.16502 0.22398 0.0
C1622 C 0.58269 0.17738 0.26309 0.0
C1623 C 0.59019 0.20973 0.22647 0.0
C1624 C 0.60494 0.23297 0.22962 0.0
C1625 C 0.59838 0.25601 0.21677 0.0
C1626 C 0.57602 0.25537 0.20035 0.0
C1627 C 0.56025 0.23192 0.19711 0.0
C1628 C 0.56752 0.20882 0.21042 0.0
H1629 H 0.52451 0.08825 0.02541 0.0
H1630 H 0.43875 0.08537 0.01742 0.0
H1631 H 0.43596 0.12435 0.04656 0.0
H1632 H 0.52831 0.10879 0.09199 0.0
H1633 H 0.55531 0.13261 0.08922 0.0
H1634 H 0.55292 0.10442 0.06709 0.0
H1635 H 0.55297 0.13292 0.02622 0.0
H1636 H 0.55748 0.16192 0.04699 0.0
H1637 H 0.5304 0.1598 0.02379 0.0
H1638 H 0.44206 0.16589 0.07233 0.0
H1639 H 0.45649 0.20461 0.09927 0.0
H1640 H 0.53813 0.18116 0.09271 0.0
C1641 C 0.50512 0.09571 0.02987 0.0
C1642 C 0.48182 0.08329 0.01924 0.0
C1643 C 0.45689 0.09384 0.02573 0.0
C1644 C 0.45508 0.11628 0.04204 0.0
C1645 C 0.47835 0.12822 0.05168 0.0
C1646 C 0.50291 0.11831 0.04606 0.0
C1647 C 0.5248 0.13546 0.05874 0.0
C1648 C 0.5413 0.1194 0.07793 0.0
C1649 C 0.54245 0.14828 0.03768 0.0
C1650 C 0.50853 0.15613 0.0729 0.0
C1651 C 0.48183 0.1518 0.06791 0.0
C1652 C 0.46283 0.16911 0.07696 0.0
C1653 C 0.47119 0.19096 0.09235 0.0
C1654 C 0.49818 0.19502 0.09912 0.0
C1655 C 0.51725 0.17788 0.08857 0.0
H1656 H 0.25693 0.35681 0.74887 0.0
H1657 H 0.2508 0.35671 0.66362 0.0
H1658 H 0.28593 0.39137 0.66207 0.0
H1659 H 0.26724 0.42968 0.75465 0.0
H1660 H 0.28855 0.42655 0.78289 0.0
H1661 H 0.26226 0.40246 0.77667 0.0
H1662 H 0.29639 0.36684 0.77955 0.0
H1663 H 0.32459 0.38927 0.78195 0.0
H1664 H 0.32209 0.36486 0.75552 0.0
H1665 H 0.32014 0.42796 0.66993 0.0
H1666 H 0.35196 0.46244 0.68683 0.0
H1667 H 0.33712 0.43712 0.76642 0.0
C1668 C 0.26252 0.36427 0.72982 0.0
C1669 C 0.25109 0.3536 0.70636 0.0
C1670 C 0.25958 0.3639 0.68192 0.0
C1671 C 0.27937 0.38385 0.6808 0.0
C1672 C 0.29028 0.39367 0.7043 0.0
C1673 C 0.28186 0.3845 0.72835 0.0
C1674 C 0.29654 0.39856 0.75075 0.0
C1675 C 0.27751 0.41531 0.7672 0.0
C1676 C 0.31085 0.37875 0.76799 0.0
C1677 C 0.31561 0.41606 0.73551 0.0
C1678 C 0.31109 0.41357 0.70874 0.0
C1679 C 0.32423 0.42974 0.69079 0.0
C1680 C 0.34225 0.44919 0.70048 0.0
C1681 C 0.34762 0.45157 0.7277 0.0
C1682 C 0.33417 0.43479 0.7454 0.0
H1683 H 0.25676 0.6591 0.78483 0.0
H1684 H 0.22081 0.62647 0.85478 0.0
H1685 H 0.25221 0.58964 0.85342 0.0
H1686 H 0.27016 0.59733 0.75179 0.0
H1687 H 0.30158 0.60872 0.739 0.0
H1688 H 0.27583 0.63195 0.74523 0.0
H1689 H 0.30785 0.65977 0.77525 0.0
H1690 H 0.33366 0.63654 0.76923 0.0
H1691 H 0.32391 0.64424 0.80246 0.0
H1692 H 0.28667 0.55548 0.84332 0.0
H1693 H 0.3228 0.5278 0.82652 0.0
H1694 H 0.33821 0.58443 0.76497 0.0
C1695 C 0.25541 0.64404 0.7997 0.0
C1696 C 0.23626 0.64541 0.81979 0.0
C1697 C 0.23535 0.62568 0.83922 0.0
C1698 C 0.25307 0.60473 0.83858 0.0
C1699 C 0.27184 0.60401 0.81859 0.0
C1700 C 0.27326 0.62326 0.79962 0.0
C1701 C 0.29575 0.61829 0.78069 0.0
C1702 C 0.28519 0.6138 0.75251 0.0
C1703 C 0.31652 0.64106 0.782 0.0
C1704 C 0.3066 0.5931 0.79179 0.0
C1705 C 0.29242 0.58507 0.81355 0.0
C1706 C 0.29807 0.56173 0.82647 0.0
C1707 C 0.31861 0.54614 0.81681 0.0
C1708 C 0.33352 0.55412 0.79468 0.0
C1709 C 0.32749 0.57805 0.78223 0.0
H1710 H 0.91699 0.50424 0.45146 0.0
H1711 H 0.93889 0.51001 0.53391 0.0
H1712 H 0.89842 0.48408 0.54539 0.0
H1713 H 0.84832 0.51218 0.46034 0.0
H1714 H 0.83846 0.48912 0.43449 0.0
H1715 H 0.86984 0.50671 0.43272 0.0
H1716 H 0.89413 0.46231 0.42835 0.0
H1717 H 0.86279 0.44459 0.42975 0.0
H1718 H 0.88877 0.43724 0.45268 0.0
H1719 H 0.85452 0.45787 0.5476 0.0
H1720 H 0.81216 0.43302 0.54013 0.0
H1721 H 0.81933 0.44625 0.45629 0.0
C1722 C 0.91358 0.49957 0.47188 0.0
C1723 C 0.9312 0.50895 0.49177 0.0
C1724 C 0.92564 0.50301 0.51835 0.0
C1725 C 0.90272 0.4883 0.52505 0.0
C1726 C 0.88549 0.47979 0.50496 0.0
C1727 C 0.89077 0.48514 0.4789 0.0
C1728 C 0.86884 0.47448 0.46103 0.0
C1729 C 0.85559 0.49697 0.44628 0.0
C1730 C 0.87926 0.4534 0.44182 0.0
C1731 C 0.85034 0.46233 0.48105 0.0
C1732 C 0.86023 0.46545 0.50629 0.0
C1733 C 0.84659 0.45536 0.52789 0.0
C1734 C 0.82248 0.44136 0.52347 0.0
C1735 C 0.81217 0.43773 0.49766 0.0
C1736 C 0.82634 0.44875 0.47635 0.0
H1737 H 0.80504 0.90037 0.81284 0.0
H1738 H 0.75054 0.83595 0.83264 0.0
H1739 H 0.71324 0.86599 0.82973 0.0
H1740 H 0.77003 0.95284 0.84787 0.0
H1741 H 0.77629 0.97713 0.82297 0.0
H1742 H 0.79942 0.95111 0.82802 0.0
H1743 H 0.79523 0.93709 0.77896 0.0
H1744 H 0.77228 0.96317 0.77373 0.0
H1745 H 0.76292 0.92945 0.76519 0.0
H1746 H 0.68139 0.9014 0.8219 0.0
H1747 H 0.65663 0.94049 0.80873 0.0
H1748 H 0.73055 0.98333 0.79469 0.0
C1749 C 0.78527 0.89264 0.81665 0.0
C1750 C 0.78091 0.86576 0.8234 0.0
C1751 C 0.75462 0.85651 0.8281 0.0
C1752 C 0.7332 0.87342 0.82639 0.0
C1753 C 0.73816 0.89971 0.81994 0.0
C1754 C 0.76348 0.90938 0.8151 0.0
C1755 C 0.76293 0.93836 0.80753 0.0
C1756 C 0.77807 0.9559 0.82781 0.0
C1757 C 0.77399 0.94223 0.7797 0.0
C1758 C 0.73335 0.94321 0.80845 0.0
C1759 C 0.71954 0.92057 0.81577 0.0
C1760 C 0.69197 0.91937 0.8165 0.0
C1761 C 0.67807 0.94167 0.80903 0.0
C1762 C 0.69165 0.96504 0.80117 0.0
C1763 C 0.71969 0.96597 0.80135 0.0
H1764 H 0.61776 0.50137 0.96034 0.0
H1765 H 0.58186 0.50495 0.03747 0.0
H1766 H 0.61782 0.53567 0.05289 0.0
H1767 H 0.68851 0.50596 0.98704 0.0
H1768 H 0.69933 0.52423 0.95874 0.0
H1769 H 0.67279 0.49982 0.95559 0.0
H1770 H 0.64611 0.53502 0.93461 0.0
H1771 H 0.66845 0.56267 0.94129 0.0
H1772 H 0.63493 0.56241 0.95381 0.0
H1773 H 0.65733 0.56625 0.05971 0.0
H1774 H 0.69696 0.59594 0.05717 0.0
H1775 H 0.70537 0.57554 0.97468 0.0
C1776 C 0.61779 0.50831 0.98059 0.0
C1777 C 0.59708 0.50087 0.99777 0.0
C1778 C 0.59768 0.51029 0.02412 0.0
C1779 C 0.618 0.52773 0.03301 0.0
C1780 C 0.63784 0.53514 0.01544 0.0
C1781 C 0.63825 0.52529 0.98995 0.0
C1782 C 0.66155 0.53692 0.97492 0.0
C1783 C 0.68174 0.51546 0.96871 0.0
C1784 C 0.65229 0.55015 0.94967 0.0
C1785 C 0.67274 0.55666 0.99518 0.0
C1786 C 0.65946 0.55436 0.01879 0.0
C1787 C 0.66764 0.56852 0.04126 0.0
C1788 C 0.69006 0.58535 0.03965 0.0
C1789 C 0.70335 0.5888 0.01552 0.0
C1790 C 0.6947 0.57413 0.99304 0.0
H1791 H 0.27759 0.65618 0.17809 0.0
H1792 H 0.28977 0.68987 0.2564 0.0
H1793 H 0.25786 0.65733 0.2742 0.0
H1794 H 0.20984 0.64446 0.18319 0.0
H1795 H 0.20669 0.61232 0.16729 0.0
H1796 H 0.23284 0.63525 0.15812 0.0
H1797 H 0.26992 0.60399 0.16841 0.0
H1798 H 0.24518 0.57868 0.17506 0.0
H1799 H 0.2703 0.58706 0.19929 0.0
H1800 H 0.22666 0.62088 0.28423 0.0
H1801 H 0.19389 0.58407 0.28568 0.0
H1802 H 0.19872 0.57397 0.20106 0.0
C1803 C 0.27351 0.6566 0.19896 0.0
C1804 C 0.28648 0.67536 0.21593 0.0
C1805 C 0.28054 0.67538 0.24312 0.0
C1806 C 0.26237 0.65702 0.25342 0.0
C1807 C 0.25023 0.63862 0.23635 0.0
C1808 C 0.25544 0.63813 0.20972 0.0
C1809 C 0.23915 0.61624 0.19592 0.0
C1810 C 0.221 0.6277 0.17489 0.0
C1811 C 0.25722 0.59525 0.18396 0.0
C1812 C 0.22349 0.6051 0.21891 0.0
C1813 C 0.23076 0.61811 0.24205 0.0
C1814 C 0.22044 0.61082 0.26622 0.0
C1815 C 0.20173 0.59 0.26682 0.0
C1816 C 0.193 0.57701 0.24341 0.0
C1817 C 0.20452 0.58416 0.21915 0.0
H1818 H 0.93022 0.52748 0.06369 0.0
H1819 H 0.95385 0.51292 0.98281 0.0
H1820 H 0.91545 0.53735 0.96735 0.0
H1821 H 0.86106 0.52272 0.0544 0.0
H1822 H 0.85371 0.54963 0.07664 0.0
H1823 H 0.88302 0.53079 0.08156 0.0
H1824 H 0.91206 0.57376 0.08039 0.0
H1825 H 0.8828 0.59278 0.07572 0.0
H1826 H 0.90966 0.59528 0.05262 0.0
H1827 H 0.87219 0.56086 0.96051 0.0
H1828 H 0.8308 0.58612 0.96331 0.0
H1829 H 0.83845 0.58939 0.04822 0.0
C1830 C 0.92779 0.52976 0.04272 0.0
C1831 C 0.94511 0.51765 0.02459 0.0
C1832 C 0.94061 0.52113 0.99727 0.0
C1833 C 0.91889 0.53523 0.98821 0.0
C1834 C 0.902 0.54636 0.00661 0.0
C1835 C 0.90651 0.54425 0.0333 0.0
C1836 C 0.88569 0.55858 0.049 0.0
C1837 C 0.86994 0.53927 0.06642 0.0
C1838 C 0.89831 0.58146 0.0654 0.0
C1839 C 0.86861 0.56879 0.02698 0.0
C1840 C 0.87813 0.56127 1.00265 0.0
C1841 C 0.86478 0.5672 0.97946 0.0
C1842 C 0.84127 0.58143 0.9812 0.0
C1843 C 0.83165 0.58995 1.00591 0.0
C1844 C 0.84559 0.58351 0.02901 0.0
H1845 H 0.11741 1.00521 0.05576 0.0
H1846 H 0.08174 0.02223 0.98024 0.0
H1847 H 0.11491 0.99503 0.95803 0.0
H1848 H 0.18495 1.00574 0.03442 0.0
H1849 H 0.19435 0.97853 0.05462 0.0
H1850 H 0.16795 0.99957 0.06487 0.0
H1851 H 0.13625 0.95868 0.06826 0.0
H1852 H 0.16259 0.93749 0.05815 0.0
H1853 H 0.13173 0.93676 0.04019 0.0
H1854 H 0.15195 0.96655 0.94377 0.0
H1855 H 0.18959 0.93718 0.93828 0.0
H1856 H 0.20093 0.93685 0.02302 0.0
C1857 C 0.11636 1.00303 0.03457 0.0
C1858 C 0.09696 0.01616 0.01978 0.0
C1859 C 0.09663 0.0129 0.99204 0.0
C1860 C 0.11532 0.99732 0.97922 0.0
C1861 C 0.13422 0.98489 0.99434 0.0
C1862 C 0.13483 0.98739 0.02141 0.0
C1863 C 0.15719 0.97165 0.03294 0.0
C1864 C 0.1773 0.98997 0.04757 0.0
C1865 C 0.14628 0.94985 0.05095 0.0
C1866 C 0.16904 0.95999 0.00809 0.0
C1867 C 0.15548 0.968 0.98609 0.0
C1868 C 0.16269 0.96008 0.96086 0.0
C1869 C 0.18423 0.94339 0.95797 0.0
C1870 C 0.19841 0.93456 0.98019 0.0
C1871 C 0.1906 0.94313 1.0056 0.0
loop_
_geom_bond_atom_site_label_1
_geom_bond_atom_site_label_2
_geom_bond_distance
_geom_bond_site_symmetry_2
_ccdc_geom_bond_type
H0 C3 0.966 . S
H1 C6 0.928 . S
H2 C8 0.904 1_556 S
C3 H0 0.966 . S
C3 C4 1.413 . S
C3 C5 1.360 . S
C4 C3 1.413 . S
C4 C8 1.429 . S
C5 C3 1.360 . S
C5 C6 1.372 . S
C6 H1 0.928 . S
C6 C5 1.372 . S
C6 C7 1.404 . S
C7 C6 1.404 . S
C7 C8 1.391 . S
C8 H2 0.904 1_554 S
C8 C4 1.429 . S
C8 C7 1.391 . S
H9 C12 0.931 . S
H10 C15 0.928 . S
H11 C17 0.930 . S
C12 H9 0.931 . S
C12 C13 1.413 . S
C12 C14 1.360 . S
C13 C12 1.413 . S
C13 C17 1.429 . S
C14 C12 1.360 . S
C14 C15 1.372 . S
C15 H10 0.928 . S
C15 C14 1.372 . S
C15 C16 1.404 . S
C16 C15 1.404 . S
C16 C17 1.391 . S
C17 H11 0.930 . S
C17 C13 1.429 . S
C17 C16 1.391 . S
H18 C21 0.931 . S
H19 C24 0.928 1_455 S
H20 C26 0.896 1_556 S
C21 H18 0.931 . S
C21 C22 1.413 . S
C21 C23 1.360 . S
C22 C21 1.413 . S
C22 C26 1.429 . S
C23 C21 1.360 . S
C23 C24 1.372 . S
C24 H19 0.928 1_655 S
C24 C23 1.372 . S
C24 C25 1.404 . S
C25 C24 1.404 . S
C25 C26 1.391 . S
C26 H20 0.896 1_554 S
C26 C22 1.429 . S
C26 C25 1.391 . S
H27 C30 0.931 . S
H28 C33 0.928 . S
H29 C35 0.930 . S
C30 H27 0.931 . S
C30 C31 1.413 . S
C30 C32 1.360 . S
C31 C30 1.413 . S
C31 C35 1.429 . S
C32 C30 1.360 . S
C32 C33 1.372 . S
C33 H28 0.928 . S
C33 C32 1.372 . S
C33 C34 1.404 . S
C34 C33 1.404 . S
C34 C35 1.391 . S
C35 H29 0.930 . S
C35 C31 1.429 . S
C35 C34 1.391 . S
H36 C39 0.931 . S
H37 C42 0.928 1_545 S
H38 C44 0.930 . S
C39 H36 0.931 . S
C39 C40 1.413 . S
C39 C41 1.360 . S
C40 C39 1.413 . S
C40 C44 1.429 . S
C41 C39 1.360 . S
C41 C42 1.372 . S
C42 H37 0.928 1_565 S
C42 C41 1.372 . S
C42 C43 1.404 . S
C43 C42 1.404 . S
C43 C44 1.391 . S
C44 H38 0.930 . S
C44 C40 1.429 . S
C44 C43 1.391 . S
H45 C48 0.931 . S
H46 C51 0.928 . S
H47 C53 0.930 . S
C48 H45 0.931 . S
C48 C49 1.413 . S
C48 C50 1.360 . S
C49 C48 1.413 . S
C49 C53 1.429 . S
C50 C48 1.360 . S
C50 C51 1.372 . S
C51 H46 0.928 . S
C51 C50 1.372 . S
C51 C52 1.404 . S
C52 C51 1.404 . S
C52 C53 1.391 . S
C53 H47 0.930 . S
C53 C49 1.429 . S
C53 C52 1.391 . S
H54 C57 0.931 . S
H55 C60 0.928 1_455 S
H56 C62 0.930 . S
C57 H54 0.931 . S
C57 C58 1.413 . S
C57 C59 1.360 . S
C58 C57 1.413 . S
C58 C62 1.429 . S
C59 C57 1.360 . S
C59 C60 1.372 . S
C60 H55 0.928 1_655 S
C60 C59 1.372 . S
C60 C61 1.404 . S
C61 C60 1.404 . S
C61 C62 1.391 . S
C62 H56 0.930 . S
C62 C58 1.429 . S
C62 C61 1.391 . S
H63 C66 0.931 . S
H64 C69 0.928 . S
H65 C71 0.930 . S
C66 H63 0.931 . S
C66 C67 1.413 . S
C66 C68 1.360 . S
C67 C66 1.413 . S
C67 C71 1.429 . S
C68 C66 1.360 . S
C68 C69 1.372 . S
C69 H64 0.928 . S
C69 C68 1.372 . S
C69 C70 1.404 . S
C70 C69 1.404 . S
C70 C71 1.391 . S
C71 H65 0.930 . S
C71 C67 1.429 . S
C71 C70 1.391 . S
H72 C75 0.931 . S
H73 C78 0.928 . S
H74 C80 0.930 . S
C75 H72 0.931 . S
C75 C76 1.413 . S
C75 C77 1.360 . S
C76 C75 1.413 . S
C76 C80 1.429 . S
C77 C75 1.360 . S
C77 C78 1.372 . S
C78 H73 0.928 . S
C78 C77 1.372 . S
C78 C79 1.404 . S
C79 C78 1.404 . S
C79 C80 1.391 . S
C80 H74 0.930 . S
C80 C76 1.429 . S
C80 C79 1.391 . S
H81 C84 0.931 1_545 S
H82 C87 0.928 . S
H83 C89 0.930 . S
C84 H81 0.931 1_565 S
C84 C85 1.413 . S
C84 C86 1.360 . S
C85 C84 1.413 . S
C85 C89 1.429 . S
C86 C84 1.360 . S
C86 C87 1.372 . S
C87 H82 0.928 . S
C87 C86 1.372 . S
C87 C88 1.404 . S
C88 C87 1.404 . S
C88 C89 1.391 . S
C89 H83 0.930 . S
C89 C85 1.429 . S
C89 C88 1.391 . S
H90 C93 0.931 . S
H91 C96 0.928 . S
H92 C98 0.930 . S
C93 H90 0.931 . S
C93 C94 1.413 . S
C93 C95 1.360 . S
C94 C93 1.413 . S
C94 C98 1.429 . S
C95 C93 1.360 . S
C95 C96 1.372 . S
C96 H91 0.928 . S
C96 C95 1.372 . S
C96 C97 1.404 . S
C97 C96 1.404 . S
C97 C98 1.391 . S
C98 H92 0.930 . S
C98 C94 1.429 . S
C98 C97 1.391 . S
H99 C102 0.931 . S
H100 C105 0.928 . S
H101 C107 0.930 . S
C102 H99 0.931 . S
C102 C103 1.413 . S
C102 C104 1.360 . S
C103 C102 1.413 . S
C103 C107 1.429 . S
C104 C102 1.360 . S
C104 C105 1.372 . S
C105 H100 0.928 . S
C105 C104 1.372 . S
C105 C106 1.404 . S
C106 C105 1.404 . S
C106 C107 1.391 . S
C107 H101 0.930 . S
C107 C103 1.429 . S
C107 C106 1.391 . S
H108 C111 0.931 . S
H109 C114 0.928 . S
H110 C116 0.930 . S
C111 H108 0.931 . S
C111 C112 1.413 . S
C111 C113 1.360 . S
C112 C111 1.413 . S
C112 C116 1.429 . S
C113 C111 1.360 . S
C113 C114 1.372 . S
C114 H109 0.928 . S
C114 C113 1.372 . S
C114 C115 1.404 . S
C115 C114 1.404 . S
C115 C116 1.391 . S
C116 H110 0.930 . S
C116 C112 1.429 . S
C116 C115 1.391 . S
H117 C120 0.931 . S
H118 C123 0.928 . S
H119 C125 0.930 1_554 S
C120 H117 0.931 . S
C120 C121 1.413 . S
C120 C122 1.360 . S
C121 C120 1.413 . S
C121 C125 1.429 . S
C122 C120 1.360 . S
C122 C123 1.372 . S
C123 H118 0.928 . S
C123 C122 1.372 . S
C123 C124 1.404 . S
C124 C123 1.404 . S
C124 C125 1.391 . S
C125 H119 0.930 1_556 S
C125 C121 1.429 . S
C125 C124 1.391 . S
H126 C129 0.931 . S
H127 C132 0.928 . S
H128 C134 0.930 . S
C129 H126 0.931 . S
C129 C130 1.413 . S
C129 C131 1.360 . S
C130 C129 1.413 . S
C130 C134 1.429 . S
C131 C129 1.360 . S
C131 C132 1.372 . S
C132 H127 0.928 . S
C132 C131 1.372 . S
C132 C133 1.404 . S
C133 C132 1.404 . S
C133 C134 1.391 . S
C134 H128 0.930 . S
C134 C130 1.429 . S
C134 C133 1.391 . S
H135 C138 0.931 1_554 S
H136 C141 0.928 . S
H137 C143 0.930 . S
C138 H135 0.931 1_556 S
C138 C139 1.413 . S
C138 C140 1.360 . S
C139 C138 1.413 . S
C139 C143 1.429 . S
C140 C138 1.360 . S
C140 C141 1.372 . S
C141 H136 0.928 . S
C141 C140 1.372 . S
C141 C142 1.404 . S
C142 C141 1.404 . S
C142 C143 1.391 . S
C143 H137 0.930 . S
C143 C139 1.429 . S
C143 C142 1.391 . S
Mn144 O149 2.095 . S
Mn144 O159 2.162 . S
Mn144 O160 2.297 . S
Mn144 O168 2.385 1_554 S
Mn144 O169 2.209 1_554 S
Mn144 O170 2.094 . S
Mn145 O150 2.121 . S
Mn145 N152 2.257 . S
Mn145 N161 2.282 . S
Mn145 O169 2.215 . S
Mn145 O171 2.117 . S
C146 O168 1.234 . S
C146 O169 1.283 . S
C147 O159 1.281 . S
C147 O160 1.236 . S
C148 O170 1.240 . S
C148 O171 1.264 1_554 S
O149 Mn144 2.095 . S
O149 C158 1.234 1_554 S
O150 Mn145 2.121 . S
O150 C158 1.279 . S
C151 N152 1.326 . S
C151 C155 1.460 . S
C151 H157 0.929 . S
N152 Mn145 2.257 . S
N152 C151 1.326 . S
N152 C156 1.362 . S
C153 C154 1.258 . S
C153 C156 1.431 . S
C153 C173 1.449 . S
C154 C153 1.258 . S
C154 C155 1.477 . S
C154 H174 0.931 . S
C155 C151 1.460 . S
C155 C154 1.477 . S
C155 H175 0.930 . S
C156 N152 1.362 . S
C156 C153 1.431 . S
C156 C166 1.476 . S
H157 C151 0.929 . S
C158 O149 1.234 1_556 S
C158 O150 1.279 . S
O159 Mn144 2.162 . S
O159 C147 1.281 . S
O160 Mn144 2.297 . S
O160 C147 1.236 . S
N161 Mn145 2.282 . S
N161 C162 1.328 . S
N161 C166 1.318 . S
C162 N161 1.328 . S
C162 C163 1.457 . S
C162 H167 0.929 . S
C163 C162 1.457 . S
C163 C164 1.291 . S
C163 H176 0.931 . S
C164 C163 1.291 . S
C164 C165 1.373 . S
C164 H177 0.929 . S
C165 C164 1.373 . S
C165 C166 1.396 . S
C165 C172 1.403 . S
C166 C156 1.476 . S
C166 N161 1.318 . S
C166 C165 1.396 . S
H167 C162 0.929 . S
O168 Mn144 2.385 1_556 S
O168 C146 1.234 . S
O169 Mn144 2.209 1_556 S
O169 Mn145 2.215 . S
O169 C146 1.283 . S
O170 Mn144 2.094 . S
O170 C148 1.240 . S
O171 Mn145 2.117 . S
O171 C148 1.264 1_556 S
C172 C165 1.403 . S
C172 C173 1.399 . S
C172 H178 0.929 . S
C173 C153 1.449 . S
C173 C172 1.399 . S
C173 H179 0.930 . S
H174 C154 0.931 . S
H175 C155 0.930 . S
H176 C163 0.931 . S
H177 C164 0.929 . S
H178 C172 0.929 . S
H179 C173 0.930 . S
Mn180 O185 2.095 . S
Mn180 O195 2.162 . S
Mn180 O196 2.297 . S
Mn180 O204 2.385 . S
Mn180 O205 2.209 . S
Mn180 O206 2.094 . S
Mn181 O186 2.121 . S
Mn181 N188 2.257 . S
Mn181 N197 2.282 . S
Mn181 O205 2.215 . S
Mn181 O207 2.117 . S
C182 O204 1.234 . S
C182 O205 1.283 . S
C183 O195 1.281 . S
C183 O196 1.236 . S
C184 O206 1.240 . S
C184 O207 1.264 . S
O185 Mn180 2.095 . S
O185 C194 1.250 . S
O186 Mn181 2.121 . S
O186 C194 1.258 . S
C187 N188 1.326 . S
C187 C191 1.460 . S
C187 H193 0.929 . S
N188 Mn181 2.257 . S
N188 C187 1.326 . S
N188 C192 1.362 . S
C189 C190 1.258 . S
C189 C192 1.431 . S
C189 C209 1.449 . S
C190 C189 1.258 . S
C190 C191 1.477 . S
C190 H210 0.931 . S
C191 C187 1.460 . S
C191 C190 1.477 . S
C191 H211 0.930 . S
C192 N188 1.362 . S
C192 C189 1.431 . S
C192 C202 1.476 . S
H193 C187 0.929 . S
C194 O185 1.250 . S
C194 O186 1.258 . S
O195 Mn180 2.162 . S
O195 C183 1.281 . S
O196 Mn180 2.297 . S
O196 C183 1.236 . S
N197 Mn181 2.282 . S
N197 C198 1.328 . S
N197 C202 1.318 . S
C198 N197 1.328 . S
C198 C199 1.457 . S
C198 H203 0.929 . S
C199 C198 1.457 . S
C199 C200 1.291 . S
C199 H212 0.931 . S
C200 C199 1.291 . S
C200 C201 1.373 . S
C200 H213 0.929 . S
C201 C200 1.373 . S
C201 C202 1.396 . S
C201 C208 1.403 . S
C202 C192 1.476 . S
C202 N197 1.318 . S
C202 C201 1.396 . S
H203 C198 0.929 . S
O204 Mn180 2.385 . S
O204 C182 1.234 . S
O205 Mn180 2.209 . S
O205 Mn181 2.215 . S
O205 C182 1.283 . S
O206 Mn180 2.094 . S
O206 C184 1.240 . S
O207 Mn181 2.117 . S
O207 C184 1.264 . S
C208 C201 1.403 . S
C208 C209 1.399 . S
C208 H214 0.929 . S
C209 C189 1.449 . S
C209 C208 1.399 . S
C209 H215 0.930 . S
H210 C190 0.931 . S
H211 C191 0.930 . S
H212 C199 0.931 . S
H213 C200 0.929 . S
H214 C208 0.929 . S
H215 C209 0.930 . S
Mn216 O221 2.095 1_554 S
Mn216 O231 2.162 . S
Mn216 O232 2.297 1_554 S
Mn216 O240 2.385 . S
Mn216 O241 2.209 1_554 S
Mn216 O242 2.094 . S
Mn217 O222 2.121 . S
Mn217 N224 2.257 . S
Mn217 N233 2.282 . S
Mn217 O241 2.215 . S
Mn217 O243 2.117 1_556 S
C218 O240 1.266 . S
C218 O241 1.261 1_554 S
C219 O231 1.281 . S
C219 O232 1.236 1_554 S
C220 O242 1.240 . S
C220 O243 1.264 . S
O221 Mn216 2.095 1_556 S
O221 C230 1.250 . S
O222 Mn217 2.121 . S
O222 C230 1.258 . S
C223 N224 1.326 . S
C223 C227 1.460 . S
C223 H229 0.929 . S
N224 Mn217 2.257 . S
N224 C223 1.326 . S
N224 C228 1.362 . S
C225 C226 1.258 . S
C225 C228 1.431 . S
C225 C245 1.449 . S
C226 C225 1.258 . S
C226 C227 1.477 . S
C226 H246 0.931 . S
C227 C223 1.460 . S
C227 C226 1.477 . S
C227 H247 0.930 . S
C228 N224 1.362 . S
C228 C225 1.431 . S
C228 C238 1.476 . S
H229 C223 0.929 . S
C230 O221 1.250 . S
C230 O222 1.258 . S
O231 Mn216 2.162 . S
O231 C219 1.281 . S
O232 Mn216 2.297 1_556 S
O232 C219 1.236 1_556 S
N233 Mn217 2.282 . S
N233 C234 1.328 1_556 S
N233 C238 1.318 . S
C234 N233 1.328 1_554 S
C234 C235 1.457 . S
C234 H239 0.929 . S
C235 C234 1.457 . S
C235 C236 1.291 . S
C235 H248 0.931 . S
C236 C235 1.291 . S
C236 C237 1.373 1_554 S
C236 H249 0.929 . S
C237 C236 1.373 1_556 S
C237 C238 1.396 . S
C237 C244 1.403 . S
C238 C228 1.476 . S
C238 N233 1.318 . S
C238 C237 1.396 . S
H239 C234 0.929 . S
O240 Mn216 2.385 . S
O240 C218 1.266 . S
O241 Mn216 2.209 1_556 S
O241 Mn217 2.215 . S
O241 C218 1.261 1_556 S
O242 Mn216 2.094 . S
O242 C220 1.240 . S
O243 Mn217 2.117 1_554 S
O243 C220 1.264 . S
C244 C237 1.403 . S
C244 C245 1.399 . S
C244 H250 0.929 . S
C245 C225 1.449 . S
C245 C244 1.399 . S
C245 H251 0.930 . S
H246 C226 0.931 . S
H247 C227 0.930 . S
H248 C235 0.931 . S
H249 C236 0.929 . S
H250 C244 0.929 . S
H251 C245 0.930 . S
Mn252 O257 2.095 . S
Mn252 O267 2.162 . S
Mn252 O268 2.297 . S
Mn252 O276 2.385 1_545 S
Mn252 O277 2.209 1_545 S
Mn252 O278 2.094 . S
Mn253 O258 2.121 . S
Mn253 N260 2.257 . S
Mn253 N269 2.282 . S
Mn253 O277 2.215 . S
Mn253 O279 2.117 . S
C254 O276 1.234 . S
C254 O277 1.283 . S
C255 O267 1.281 . S
C255 O268 1.236 . S
C256 O278 1.240 . S
C256 O279 1.264 1_545 S
O257 Mn252 2.095 . S
O257 C266 1.250 1_545 S
O258 Mn253 2.121 . S
O258 C266 1.258 . S
C259 N260 1.326 . S
C259 C263 1.460 . S
C259 H265 0.929 . S
N260 Mn253 2.257 . S
N260 C259 1.326 . S
N260 C264 1.362 . S
C261 C262 1.258 . S
C261 C264 1.431 . S
C261 C281 1.449 . S
C262 C261 1.258 . S
C262 C263 1.477 . S
C262 H282 0.931 . S
C263 C259 1.460 . S
C263 C262 1.477 . S
C263 H283 0.930 . S
C264 N260 1.362 . S
C264 C261 1.431 . S
C264 C274 1.476 . S
H265 C259 0.929 . S
C266 O257 1.250 1_565 S
C266 O258 1.258 . S
O267 Mn252 2.162 . S
O267 C255 1.281 . S
O268 Mn252 2.297 . S
O268 C255 1.236 . S
N269 Mn253 2.282 . S
N269 C270 1.328 . S
N269 C274 1.318 . S
C270 N269 1.328 . S
C270 C271 1.457 . S
C270 H275 0.929 . S
C271 C270 1.457 . S
C271 C272 1.291 . S
C271 H284 0.931 . S
C272 C271 1.291 . S
C272 C273 1.373 . S
C272 H285 0.929 . S
C273 C272 1.373 . S
C273 C274 1.396 . S
C273 C280 1.403 . S
C274 C264 1.476 . S
C274 N269 1.318 . S
C274 C273 1.396 . S
H275 C270 0.929 . S
O276 Mn252 2.385 1_565 S
O276 C254 1.234 . S
O277 Mn252 2.209 1_565 S
O277 Mn253 2.215 . S
O277 C254 1.283 . S
O278 Mn252 2.094 . S
O278 C256 1.240 . S
O279 Mn253 2.117 . S
O279 C256 1.264 1_565 S
C280 C273 1.403 . S
C280 C281 1.399 . S
C280 H286 0.929 . S
C281 C261 1.449 . S
C281 C280 1.399 . S
C281 H287 0.930 . S
H282 C262 0.931 . S
H283 C263 0.930 . S
H284 C271 0.931 . S
H285 C272 0.929 . S
H286 C280 0.929 . S
H287 C281 0.930 . S
Mn288 O293 2.095 . S
Mn288 O303 2.162 . S
Mn288 O304 2.297 . S
Mn288 O312 2.385 . S
Mn288 O313 2.209 . S
Mn288 O314 2.094 . S
Mn289 O294 2.121 . S
Mn289 N296 2.257 . S
Mn289 N305 2.282 . S
Mn289 O313 2.215 . S
Mn289 O315 2.117 . S
C290 O312 1.234 . S
C290 O313 1.283 . S
C291 O303 1.281 . S
C291 O304 1.236 . S
C292 O314 1.240 . S
C292 O315 1.264 . S
O293 Mn288 2.095 . S
O293 C302 1.250 . S
O294 Mn289 2.121 . S
O294 C302 1.258 . S
C295 N296 1.326 . S
C295 C299 1.460 . S
C295 H301 0.929 . S
N296 Mn289 2.257 . S
N296 C295 1.326 . S
N296 C300 1.362 . S
C297 C298 1.258 . S
C297 C300 1.431 . S
C297 C317 1.449 . S
C298 C297 1.258 . S
C298 C299 1.477 . S
C298 H318 0.931 . S
C299 C295 1.460 . S
C299 C298 1.477 . S
C299 H319 0.930 . S
C300 N296 1.362 . S
C300 C297 1.431 . S
C300 C310 1.476 . S
H301 C295 0.929 . S
C302 O293 1.250 . S
C302 O294 1.258 . S
O303 Mn288 2.162 . S
O303 C291 1.281 . S
O304 Mn288 2.297 . S
O304 C291 1.236 . S
N305 Mn289 2.282 . S
N305 C306 1.328 . S
N305 C310 1.318 . S
C306 N305 1.328 . S
C306 C307 1.457 . S
C306 H311 0.929 . S
C307 C306 1.457 . S
C307 C308 1.291 . S
C307 H320 0.931 . S
C308 C307 1.291 . S
C308 C309 1.373 . S
C308 H321 0.929 . S
C309 C308 1.373 . S
C309 C310 1.396 . S
C309 C316 1.403 . S
C310 C300 1.476 . S
C310 N305 1.318 . S
C310 C309 1.396 . S
H311 C306 0.929 . S
O312 Mn288 2.385 . S
O312 C290 1.234 . S
O313 Mn288 2.209 . S
O313 Mn289 2.215 . S
O313 C290 1.283 . S
O314 Mn288 2.094 . S
O314 C292 1.240 . S
O315 Mn289 2.117 . S
O315 C292 1.264 . S
C316 C309 1.403 . S
C316 C317 1.399 . S
C316 H322 0.929 . S
C317 C297 1.449 . S
C317 C316 1.399 . S
C317 H323 0.930 . S
H318 C298 0.931 . S
H319 C299 0.930 . S
H320 C307 0.931 . S
H321 C308 0.929 . S
H322 C316 0.929 . S
H323 C317 0.930 . S
Mn324 O329 2.095 . S
Mn324 O339 2.162 . S
Mn324 O340 2.297 . S
Mn324 O348 2.385 . S
Mn324 O349 2.209 . S
Mn324 O350 2.094 . S
Mn325 O330 2.121 . S
Mn325 N332 2.257 . S
Mn325 N341 2.282 . S
Mn325 O349 2.215 . S
Mn325 O351 2.117 . S
C326 O348 1.234 . S
C326 O349 1.283 . S
C327 O339 1.281 . S
C327 O340 1.236 . S
C328 O350 1.240 . S
C328 O351 1.264 . S
O329 Mn324 2.095 . S
O329 C338 1.250 . S
O330 Mn325 2.121 . S
O330 C338 1.258 . S
C331 N332 1.326 . S
C331 C335 1.460 . S
C331 H337 0.929 . S
N332 Mn325 2.257 . S
N332 C331 1.326 . S
N332 C336 1.362 . S
C333 C334 1.258 . S
C333 C336 1.431 . S
C333 C353 1.449 . S
C334 C333 1.258 . S
C334 C335 1.477 . S
C334 H354 0.931 . S
C335 C331 1.460 . S
C335 C334 1.477 . S
C335 H355 0.930 . S
C336 N332 1.362 . S
C336 C333 1.431 . S
C336 C346 1.476 . S
H337 C331 0.929 . S
C338 O329 1.250 . S
C338 O330 1.258 . S
O339 Mn324 2.162 . S
O339 C327 1.281 . S
O340 Mn324 2.297 . S
O340 C327 1.236 . S
N341 Mn325 2.282 . S
N341 C342 1.328 . S
N341 C346 1.318 . S
C342 N341 1.328 . S
C342 C343 1.457 . S
C342 H347 0.929 . S
C343 C342 1.457 . S
C343 C344 1.291 . S
C343 H356 0.931 . S
C344 C343 1.291 . S
C344 C345 1.373 . S
C344 H357 0.929 . S
C345 C344 1.373 . S
C345 C346 1.396 . S
C345 C352 1.403 . S
C346 C336 1.476 . S
C346 N341 1.318 . S
C346 C345 1.396 . S
H347 C342 0.929 . S
O348 Mn324 2.385 . S
O348 C326 1.234 . S
O349 Mn324 2.209 . S
O349 Mn325 2.215 . S
O349 C326 1.283 . S
O350 Mn324 2.094 . S
O350 C328 1.240 . S
O351 Mn325 2.117 . S
O351 C328 1.264 . S
C352 C345 1.403 . S
C352 C353 1.399 . S
C352 H358 0.929 . S
C353 C333 1.449 . S
C353 C352 1.399 . S
C353 H359 0.930 . S
H354 C334 0.931 . S
H355 C335 0.930 . S
H356 C343 0.931 . S
H357 C344 0.929 . S
H358 C352 0.929 . S
H359 C353 0.930 . S
Mn360 O365 2.095 . S
Mn360 O375 2.162 . S
Mn360 O376 2.297 . S
Mn360 O384 2.385 . S
Mn360 O385 2.209 . S
Mn360 O386 2.094 . S
Mn361 O366 2.121 . S
Mn361 N368 2.257 . S
Mn361 N377 2.282 . S
Mn361 O385 2.215 . S
Mn361 O387 2.117 . S
C362 O384 1.234 . S
C362 O385 1.283 . S
C363 O375 1.281 . S
C363 O376 1.236 . S
C364 O386 1.240 . S
C364 O387 1.264 . S
O365 Mn360 2.095 . S
O365 C374 1.250 . S
O366 Mn361 2.121 . S
O366 C374 1.258 . S
C367 N368 1.326 . S
C367 C371 1.460 . S
C367 H373 0.929 . S
N368 Mn361 2.257 . S
N368 C367 1.326 . S
N368 C372 1.362 . S
C369 C370 1.258 . S
C369 C372 1.431 . S
C369 C389 1.449 . S
C370 C369 1.258 . S
C370 C371 1.477 . S
C370 H390 0.931 . S
C371 C367 1.460 . S
C371 C370 1.477 . S
C371 H391 0.930 . S
C372 N368 1.362 . S
C372 C369 1.431 . S
C372 C382 1.476 . S
H373 C367 0.929 . S
C374 O365 1.250 . S
C374 O366 1.258 . S
O375 Mn360 2.162 . S
O375 C363 1.281 . S
O376 Mn360 2.297 . S
O376 C363 1.236 . S
N377 Mn361 2.282 . S
N377 C378 1.328 . S
N377 C382 1.318 . S
C378 N377 1.328 . S
C378 C379 1.457 . S
C378 H383 0.929 . S
C379 C378 1.457 . S
C379 C380 1.291 . S
C379 H392 0.931 . S
C380 C379 1.291 . S
C380 C381 1.373 . S
C380 H393 0.929 . S
C381 C380 1.373 . S
C381 C382 1.396 . S
C381 C388 1.403 . S
C382 C372 1.476 . S
C382 N377 1.318 . S
C382 C381 1.396 . S
H383 C378 0.929 . S
O384 Mn360 2.385 . S
O384 C362 1.234 . S
O385 Mn360 2.209 . S
O385 Mn361 2.215 . S
O385 C362 1.283 . S
O386 Mn360 2.094 . S
O386 C364 1.240 . S
O387 Mn361 2.117 . S
O387 C364 1.264 . S
C388 C381 1.403 . S
C388 C389 1.399 . S
C388 H394 0.929 . S
C389 C369 1.449 . S
C389 C388 1.399 . S
C389 H395 0.930 . S
H390 C370 0.931 . S
H391 C371 0.930 . S
H392 C379 0.931 . S
H393 C380 0.929 . S
H394 C388 0.929 . S
H395 C389 0.930 . S
Mn396 O401 2.095 . S
Mn396 O411 2.162 . S
Mn396 O412 2.297 . S
Mn396 O420 2.385 1_565 S
Mn396 O421 2.209 1_565 S
Mn396 O422 2.094 . S
Mn397 O402 2.121 . S
Mn397 N404 2.257 . S
Mn397 N413 2.282 . S
Mn397 O421 2.215 . S
Mn397 O423 2.117 . S
C398 O420 1.234 . S
C398 O421 1.283 . S
C399 O411 1.281 . S
C399 O412 1.236 . S
C400 O422 1.223 1_545 S
C400 O423 1.286 . S
O401 Mn396 2.095 . S
O401 C410 1.250 1_565 S
O402 Mn397 2.121 . S
O402 C410 1.258 . S
C403 N404 1.326 . S
C403 C407 1.460 . S
C403 H409 0.929 . S
N404 Mn397 2.257 . S
N404 C403 1.326 . S
N404 C408 1.362 . S
C405 C406 1.258 . S
C405 C408 1.431 . S
C405 C425 1.449 . S
C406 C405 1.258 . S
C406 C407 1.477 . S
C406 H426 0.931 . S
C407 C403 1.460 . S
C407 C406 1.477 . S
C407 H427 0.930 . S
C408 N404 1.362 . S
C408 C405 1.431 . S
C408 C418 1.476 . S
H409 C403 0.929 . S
C410 O401 1.250 1_545 S
C410 O402 1.258 . S
O411 Mn396 2.162 . S
O411 C399 1.281 . S
O412 Mn396 2.297 . S
O412 C399 1.236 . S
N413 Mn397 2.282 . S
N413 C414 1.328 . S
N413 C418 1.318 . S
C414 N413 1.328 . S
C414 C415 1.457 . S
C414 H419 0.929 . S
C415 C414 1.457 . S
C415 C416 1.291 . S
C415 H428 0.931 . S
C416 C415 1.291 . S
C416 C417 1.373 . S
C416 H429 0.929 . S
C417 C416 1.373 . S
C417 C418 1.396 . S
C417 C424 1.403 . S
C418 C408 1.476 . S
C418 N413 1.318 . S
C418 C417 1.396 . S
H419 C414 0.929 . S
O420 Mn396 2.385 1_545 S
O420 C398 1.234 . S
O421 Mn396 2.209 1_545 S
O421 Mn397 2.215 . S
O421 C398 1.283 . S
O422 Mn396 2.094 . S
O422 C400 1.223 1_565 S
O423 Mn397 2.117 . S
O423 C400 1.286 . S
C424 C417 1.403 . S
C424 C425 1.399 . S
C424 H430 0.929 . S
C425 C405 1.449 . S
C425 C424 1.399 . S
C425 H431 0.930 . S
H426 C406 0.931 . S
H427 C407 0.930 . S
H428 C415 0.931 . S
H429 C416 0.929 . S
H430 C424 0.929 . S
H431 C425 0.930 . S
Mn432 O437 2.095 . S
Mn432 O447 2.162 . S
Mn432 O448 2.297 . S
Mn432 O456 2.385 1_455 S
Mn432 O457 2.209 1_455 S
Mn432 O458 2.094 . S
Mn433 O438 2.121 . S
Mn433 N440 2.257 . S
Mn433 N449 2.282 . S
Mn433 O457 2.215 . S
Mn433 O459 2.117 . S
C434 O456 1.234 . S
C434 O457 1.283 . S
C435 O447 1.281 . S
C435 O448 1.236 . S
C436 O458 1.240 . S
C436 O459 1.264 1_455 S
O437 Mn432 2.095 . S
O437 C446 1.250 1_455 S
O438 Mn433 2.121 . S
O438 C446 1.258 . S
C439 N440 1.326 . S
C439 C443 1.460 . S
C439 H445 0.929 . S
N440 Mn433 2.257 . S
N440 C439 1.326 . S
N440 C444 1.362 . S
C441 C442 1.258 . S
C441 C444 1.431 . S
C441 C461 1.449 . S
C442 C441 1.258 . S
C442 C443 1.477 . S
C442 H462 0.931 . S
C443 C439 1.460 . S
C443 C442 1.477 . S
C443 H463 0.930 . S
C444 N440 1.362 . S
C444 C441 1.431 . S
C444 C454 1.476 . S
H445 C439 0.929 . S
C446 O437 1.250 1_655 S
C446 O438 1.258 . S
O447 Mn432 2.162 . S
O447 C435 1.281 . S
O448 Mn432 2.297 . S
O448 C435 1.236 . S
N449 Mn433 2.282 . S
N449 C450 1.328 . S
N449 C454 1.318 . S
C450 N449 1.328 . S
C450 C451 1.457 . S
C450 H455 0.929 . S
C451 C450 1.457 . S
C451 C452 1.291 . S
C451 H464 0.931 . S
C452 C451 1.291 . S
C452 C453 1.373 . S
C452 H465 0.929 . S
C453 C452 1.373 . S
C453 C454 1.396 . S
C453 C460 1.403 . S
C454 C444 1.476 . S
C454 N449 1.318 . S
C454 C453 1.396 . S
H455 C450 0.929 . S
O456 Mn432 2.385 1_655 S
O456 C434 1.234 . S
O457 Mn432 2.209 1_655 S
O457 Mn433 2.215 . S
O457 C434 1.283 . S
O458 Mn432 2.094 . S
O458 C436 1.240 . S
O459 Mn433 2.117 . S
O459 C436 1.264 1_655 S
C460 C453 1.403 . S
C460 C461 1.399 . S
C460 H466 0.929 . S
C461 C441 1.449 . S
C461 C460 1.399 . S
C461 H467 0.930 . S
H462 C442 0.931 . S
H463 C443 0.930 . S
H464 C451 0.931 . S
H465 C452 0.929 . S
H466 C460 0.929 . S
H467 C461 0.930 . S
Mn468 O473 2.095 . S
Mn468 O483 2.162 . S
Mn468 O484 2.297 . S
Mn468 O492 2.385 . S
Mn468 O493 2.209 . S
Mn468 O494 2.094 . S
Mn469 O474 2.121 . S
Mn469 N476 2.257 . S
Mn469 N485 2.282 . S
Mn469 O493 2.215 . S
Mn469 O495 2.117 . S
C470 O492 1.234 . S
C470 O493 1.283 . S
C471 O483 1.281 . S
C471 O484 1.236 . S
C472 O494 1.240 . S
C472 O495 1.264 . S
O473 Mn468 2.095 . S
O473 C482 1.250 . S
O474 Mn469 2.121 . S
O474 C482 1.258 . S
C475 N476 1.326 . S
C475 C479 1.460 . S
C475 H481 0.929 . S
N476 Mn469 2.257 . S
N476 C475 1.326 . S
N476 C480 1.362 . S
C477 C478 1.258 . S
C477 C480 1.431 . S
C477 C497 1.449 . S
C478 C477 1.258 . S
C478 C479 1.477 . S
C478 H498 0.931 . S
C479 C475 1.460 . S
C479 C478 1.477 . S
C479 H499 0.930 . S
C480 N476 1.362 . S
C480 C477 1.431 . S
C480 C490 1.476 . S
H481 C475 0.929 . S
C482 O473 1.250 . S
C482 O474 1.258 . S
O483 Mn468 2.162 . S
O483 C471 1.281 . S
O484 Mn468 2.297 . S
O484 C471 1.236 . S
N485 Mn469 2.282 . S
N485 C486 1.328 . S
N485 C490 1.318 . S
C486 N485 1.328 . S
C486 C487 1.457 . S
C486 H491 0.929 . S
C487 C486 1.457 . S
C487 C488 1.291 . S
C487 H500 0.931 . S
C488 C487 1.291 . S
C488 C489 1.373 . S
C488 H501 0.929 . S
C489 C488 1.373 . S
C489 C490 1.396 . S
C489 C496 1.403 . S
C490 C480 1.476 . S
C490 N485 1.318 . S
C490 C489 1.396 . S
H491 C486 0.929 . S
O492 Mn468 2.385 . S
O492 C470 1.234 . S
O493 Mn468 2.209 . S
O493 Mn469 2.215 . S
O493 C470 1.283 . S
O494 Mn468 2.094 . S
O494 C472 1.240 . S
O495 Mn469 2.117 . S
O495 C472 1.264 . S
C496 C489 1.403 . S
C496 C497 1.399 . S
C496 H502 0.929 . S
C497 C477 1.449 . S
C497 C496 1.399 . S
C497 H503 0.930 . S
H498 C478 0.931 . S
H499 C479 0.930 . S
H500 C487 0.931 . S
H501 C488 0.929 . S
H502 C496 0.929 . S
H503 C497 0.930 . S
Mn504 O509 2.095 1_455 S
Mn504 O519 2.162 . S
Mn504 O520 2.297 1_455 S
Mn504 O528 2.385 . S
Mn504 O529 2.209 1_455 S
Mn504 O530 2.094 . S
Mn505 O510 2.121 . S
Mn505 N512 2.257 . S
Mn505 N521 2.282 1_655 S
Mn505 O529 2.215 . S
Mn505 O531 2.117 1_655 S
C506 O528 1.234 . S
C506 O529 1.283 1_455 S
C507 O519 1.281 . S
C507 O520 1.236 1_455 S
C508 O530 1.240 . S
C508 O531 1.264 . S
O509 Mn504 2.095 1_655 S
O509 C518 1.250 . S
O510 Mn505 2.121 . S
O510 C518 1.258 . S
C511 N512 1.326 . S
C511 C515 1.460 . S
C511 H517 0.929 . S
N512 Mn505 2.257 . S
N512 C511 1.326 . S
N512 C516 1.362 . S
C513 C514 1.258 . S
C513 C516 1.431 . S
C513 C533 1.449 . S
C514 C513 1.258 . S
C514 C515 1.477 . S
C514 H534 0.931 . S
C515 C511 1.460 . S
C515 C514 1.477 . S
C515 H535 0.930 . S
C516 N512 1.362 . S
C516 C513 1.431 . S
C516 C526 1.476 . S
H517 C511 0.929 . S
C518 O509 1.250 . S
C518 O510 1.258 . S
O519 Mn504 2.162 . S
O519 C507 1.281 . S
O520 Mn504 2.297 1_655 S
O520 C507 1.236 1_655 S
N521 Mn505 2.282 1_455 S
N521 C522 1.328 . S
N521 C526 1.318 1_455 S
C522 N521 1.328 . S
C522 C523 1.457 . S
C522 H527 0.929 . S
C523 C522 1.457 . S
C523 C524 1.291 . S
C523 H536 0.931 . S
C524 C523 1.291 . S
C524 C525 1.373 1_455 S
C524 H537 0.929 . S
C525 C524 1.373 1_655 S
C525 C526 1.396 . S
C525 C532 1.403 . S
C526 C516 1.476 . S
C526 N521 1.318 1_655 S
C526 C525 1.396 . S
H527 C522 0.929 . S
O528 Mn504 2.385 . S
O528 C506 1.234 . S
O529 Mn504 2.209 1_655 S
O529 Mn505 2.215 . S
O529 C506 1.283 1_655 S
O530 Mn504 2.094 . S
O530 C508 1.240 . S
O531 Mn505 2.117 1_455 S
O531 C508 1.264 . S
C532 C525 1.403 . S
C532 C533 1.399 . S
C532 H538 0.929 . S
C533 C513 1.449 . S
C533 C532 1.399 . S
C533 H539 0.930 . S
H534 C514 0.931 . S
H535 C515 0.930 . S
H536 C523 0.931 . S
H537 C524 0.929 . S
H538 C532 0.929 . S
H539 C533 0.930 . S
Mn540 O545 2.095 . S
Mn540 O555 2.162 . S
Mn540 O556 2.297 . S
Mn540 O564 2.385 . S
Mn540 O565 2.209 . S
Mn540 O566 2.094 . S
Mn541 O546 2.121 . S
Mn541 N548 2.257 . S
Mn541 N557 2.282 . S
Mn541 O565 2.215 . S
Mn541 O567 2.117 . S
C542 O564 1.234 . S
C542 O565 1.283 . S
C543 O555 1.281 . S
C543 O556 1.236 . S
C544 O566 1.240 . S
C544 O567 1.264 . S
O545 Mn540 2.095 . S
O545 C554 1.250 . S
O546 Mn541 2.121 . S
O546 C554 1.258 . S
C547 N548 1.326 . S
C547 C551 1.460 . S
C547 H553 0.929 . S
N548 Mn541 2.257 . S
N548 C547 1.326 . S
N548 C552 1.362 . S
C549 C550 1.258 . S
C549 C552 1.431 . S
C549 C569 1.449 . S
C550 C549 1.258 . S
C550 C551 1.477 . S
C550 H570 0.931 . S
C551 C547 1.460 . S
C551 C550 1.477 . S
C551 H571 0.930 . S
C552 N548 1.362 . S
C552 C549 1.431 . S
C552 C562 1.476 . S
H553 C547 0.929 . S
C554 O545 1.250 . S
C554 O546 1.258 . S
O555 Mn540 2.162 . S
O555 C543 1.281 . S
O556 Mn540 2.297 . S
O556 C543 1.236 . S
N557 Mn541 2.282 . S
N557 C558 1.328 . S
N557 C562 1.318 . S
C558 N557 1.328 . S
C558 C559 1.457 . S
C558 H563 0.929 . S
C559 C558 1.457 . S
C559 C560 1.291 . S
C559 H572 0.931 . S
C560 C559 1.291 . S
C560 C561 1.373 . S
C560 H573 0.929 . S
C561 C560 1.373 . S
C561 C562 1.396 . S
C561 C568 1.403 . S
C562 C552 1.476 . S
C562 N557 1.318 . S
C562 C561 1.396 . S
H563 C558 0.929 . S
O564 Mn540 2.385 . S
O564 C542 1.234 . S
O565 Mn540 2.209 . S
O565 Mn541 2.215 . S
O565 C542 1.283 . S
O566 Mn540 2.094 . S
O566 C544 1.240 . S
O567 Mn541 2.117 . S
O567 C544 1.264 . S
C568 C561 1.403 . S
C568 C569 1.399 . S
C568 H574 0.929 . S
C569 C549 1.449 . S
C569 C568 1.399 . S
C569 H575 0.930 . S
H570 C550 0.931 . S
H571 C551 0.930 . S
H572 C559 0.931 . S
H573 C560 0.929 . S
H574 C568 0.929 . S
H575 C569 0.930 . S
H576 C588 0.930 . S
H577 C590 0.930 . S
H578 C591 0.930 . S
H579 C595 0.959 . S
H580 C595 0.959 . S
H581 C595 0.961 . S
H582 C596 0.960 . S
H583 C596 0.961 . S
H584 C596 0.959 . S
H585 C599 0.929 . S
H586 C600 0.931 . S
H587 C602 0.930 . S
C588 H576 0.930 . S
C588 C589 1.399 . S
C588 C593 1.399 . S
C589 C588 1.399 . S
C589 C590 1.376 . S
C590 H577 0.930 . S
C590 C589 1.376 . S
C590 C591 1.388 . S
C591 H578 0.930 . S
C591 C590 1.388 . S
C591 C592 1.390 . S
C592 C591 1.390 . S
C592 C593 1.394 . S
C592 C598 1.465 . S
C593 C588 1.399 . S
C593 C592 1.394 . S
C593 C594 1.516 . S
C594 C593 1.516 . S
C594 C595 1.502 . S
C594 C596 1.561 . S
C594 C597 1.526 . S
C595 H579 0.959 . S
C595 H580 0.959 . S
C595 H581 0.961 . S
C595 C594 1.502 . S
C596 H582 0.960 . S
C596 H583 0.961 . S
C596 H584 0.959 . S
C596 C594 1.561 . S
C597 C594 1.526 . S
C597 C598 1.396 . S
C597 C602 1.390 . S
C598 C592 1.465 . S
C598 C597 1.396 . S
C598 C599 1.399 . S
C599 H585 0.929 . S
C599 C598 1.399 . S
C599 C600 1.385 . S
C600 H586 0.931 . S
C600 C599 1.385 . S
C600 C601 1.389 . S
C601 C600 1.389 . S
C601 C602 1.387 . S
C602 H587 0.930 . S
C602 C597 1.390 . S
C602 C601 1.387 . S
H603 C615 0.930 . S
H604 C617 0.934 . S
H605 C618 0.930 . S
H606 C622 0.959 . S
H607 C622 0.959 . S
H608 C622 0.961 . S
H609 C623 0.960 . S
H610 C623 0.961 . S
H611 C623 0.959 . S
H612 C626 0.929 . S
H613 C627 0.931 . S
H614 C629 0.930 . S
C615 H603 0.930 . S
C615 C616 1.399 . S
C615 C620 1.399 . S
C616 C615 1.399 . S
C616 C617 1.375 1_455 S
C617 H604 0.934 . S
C617 C616 1.375 1_655 S
C617 C618 1.386 1_655 S
C618 H605 0.930 . S
C618 C617 1.386 1_455 S
C618 C619 1.390 . S
C619 C618 1.390 . S
C619 C620 1.394 . S
C619 C625 1.465 . S
C620 C615 1.399 . S
C620 C619 1.394 . S
C620 C621 1.516 . S
C621 C620 1.516 . S
C621 C622 1.502 . S
C621 C623 1.561 . S
C621 C624 1.526 . S
C622 H606 0.959 . S
C622 H607 0.959 . S
C622 H608 0.961 . S
C622 C621 1.502 . S
C623 H609 0.960 . S
C623 H610 0.961 . S
C623 H611 0.959 . S
C623 C621 1.561 . S
C624 C621 1.526 . S
C624 C625 1.396 . S
C624 C629 1.390 . S
C625 C619 1.465 . S
C625 C624 1.396 . S
C625 C626 1.399 . S
C626 H612 0.929 . S
C626 C625 1.399 . S
C626 C627 1.385 . S
C627 H613 0.931 . S
C627 C626 1.385 . S
C627 C628 1.389 . S
C628 C627 1.389 . S
C628 C629 1.387 . S
C629 H614 0.930 . S
C629 C624 1.390 . S
C629 C628 1.387 . S
H630 C642 0.930 . S
H631 C644 0.930 . S
H632 C645 0.930 . S
H633 C649 0.959 . S
H634 C649 0.959 . S
H635 C649 0.961 . S
H636 C650 0.960 . S
H637 C650 0.961 . S
H638 C650 0.959 . S
H639 C653 0.929 . S
H640 C654 0.931 . S
H641 C656 0.930 . S
C642 H630 0.930 . S
C642 C643 1.399 . S
C642 C647 1.399 . S
C643 C642 1.399 . S
C643 C644 1.376 . S
C644 H631 0.930 . S
C644 C643 1.376 . S
C644 C645 1.388 . S
C645 H632 0.930 . S
C645 C644 1.388 . S
C645 C646 1.390 . S
C646 C645 1.390 . S
C646 C647 1.394 . S
C646 C652 1.465 . S
C647 C642 1.399 . S
C647 C646 1.394 . S
C647 C648 1.516 . S
C648 C647 1.516 . S
C648 C649 1.502 . S
C648 C650 1.561 . S
C648 C651 1.526 . S
C649 H633 0.959 . S
C649 H634 0.959 . S
C649 H635 0.961 . S
C649 C648 1.502 . S
C650 H636 0.960 . S
C650 H637 0.961 . S
C650 H638 0.959 . S
C650 C648 1.561 . S
C651 C648 1.526 . S
C651 C652 1.396 . S
C651 C656 1.390 . S
C652 C646 1.465 . S
C652 C651 1.396 . S
C652 C653 1.399 . S
C653 H639 0.929 . S
C653 C652 1.399 . S
C653 C654 1.385 . S
C654 H640 0.931 . S
C654 C653 1.385 . S
C654 C655 1.389 . S
C655 C654 1.389 . S
C655 C656 1.387 . S
C656 H641 0.930 . S
C656 C651 1.390 . S
C656 C655 1.387 . S
H657 C669 0.930 . S
H658 C671 0.921 1_455 S
H659 C672 0.930 . S
H660 C676 0.959 . S
H661 C676 0.959 . S
H662 C676 0.961 . S
H663 C677 0.960 . S
H664 C677 0.961 . S
H665 C677 0.959 . S
H666 C680 0.929 . S
H667 C681 0.931 . S
H668 C683 0.930 . S
C669 H657 0.930 . S
C669 C670 1.399 1_655 S
C669 C674 1.399 . S
C670 C669 1.399 1_455 S
C670 C671 1.376 1_465 S
C671 H658 0.921 1_655 S
C671 C670 1.376 1_645 S
C671 C672 1.388 . S
C672 H659 0.930 . S
C672 C671 1.388 . S
C672 C673 1.390 . S
C673 C672 1.390 . S
C673 C674 1.394 1_545 S
C673 C679 1.465 . S
C674 C669 1.399 . S
C674 C673 1.394 1_565 S
C674 C675 1.516 . S
C675 C674 1.516 . S
C675 C676 1.502 . S
C675 C677 1.561 . S
C675 C678 1.526 . S
C676 H660 0.959 . S
C676 H661 0.959 . S
C676 H662 0.961 . S
C676 C675 1.502 . S
C677 H663 0.960 . S
C677 H664 0.961 . S
C677 H665 0.959 . S
C677 C675 1.561 . S
C678 C675 1.526 . S
C678 C679 1.396 1_565 S
C678 C683 1.390 . S
C679 C673 1.465 . S
C679 C678 1.396 1_545 S
C679 C680 1.399 . S
C680 H666 0.929 . S
C680 C679 1.399 . S
C680 C681 1.385 . S
C681 H667 0.931 . S
C681 C680 1.385 . S
C681 C682 1.389 . S
C682 C681 1.389 . S
C682 C683 1.387 1_545 S
C683 H668 0.930 . S
C683 C678 1.390 . S
C683 C682 1.387 1_565 S
H684 C696 0.930 . S
H685 C698 0.930 . S
H686 C699 0.930 . S
H687 C703 0.959 . S
H688 C703 0.959 . S
H689 C703 0.961 . S
H690 C704 0.960 . S
H691 C704 0.961 . S
H692 C704 0.959 . S
H693 C707 0.929 . S
H694 C708 0.931 . S
H695 C710 0.930 . S
C696 H684 0.930 . S
C696 C697 1.399 . S
C696 C701 1.399 . S
C697 C696 1.399 . S
C697 C698 1.376 . S
C698 H685 0.930 . S
C698 C697 1.376 . S
C698 C699 1.388 . S
C699 H686 0.930 . S
C699 C698 1.388 . S
C699 C700 1.390 . S
C700 C699 1.390 . S
C700 C701 1.394 . S
C700 C706 1.465 . S
C701 C696 1.399 . S
C701 C700 1.394 . S
C701 C702 1.516 . S
C702 C701 1.516 . S
C702 C703 1.502 . S
C702 C704 1.561 . S
C702 C705 1.526 . S
C703 H687 0.959 . S
C703 H688 0.959 . S
C703 H689 0.961 . S
C703 C702 1.502 . S
C704 H690 0.960 . S
C704 H691 0.961 . S
C704 H692 0.959 . S
C704 C702 1.561 . S
C705 C702 1.526 . S
C705 C706 1.396 . S
C705 C710 1.390 . S
C706 C700 1.465 . S
C706 C705 1.396 . S
C706 C707 1.399 . S
C707 H693 0.929 . S
C707 C706 1.399 . S
C707 C708 1.385 . S
C708 H694 0.931 . S
C708 C707 1.385 . S
C708 C709 1.389 . S
C709 C708 1.389 . S
C709 C710 1.387 . S
C710 H695 0.930 . S
C710 C705 1.390 . S
C710 C709 1.387 . S
H711 C723 0.930 . S
H712 C725 0.930 . S
H713 C726 0.930 . S
H714 C730 0.959 . S
H715 C730 0.959 . S
H716 C730 0.961 . S
H717 C731 0.960 . S
H718 C731 0.961 . S
H719 C731 0.959 . S
H720 C734 0.929 . S
H721 C735 0.931 . S
H722 C737 0.930 . S
C723 H711 0.930 . S
C723 C724 1.399 . S
C723 C728 1.399 . S
C724 C723 1.399 . S
C724 C725 1.376 . S
C725 H712 0.930 . S
C725 C724 1.376 . S
C725 C726 1.388 . S
C726 H713 0.930 . S
C726 C725 1.388 . S
C726 C727 1.390 . S
C727 C726 1.390 . S
C727 C728 1.394 . S
C727 C733 1.465 . S
C728 C723 1.399 . S
C728 C727 1.394 . S
C728 C729 1.516 . S
C729 C728 1.516 . S
C729 C730 1.502 . S
C729 C731 1.561 . S
C729 C732 1.526 . S
C730 H714 0.959 . S
C730 H715 0.959 . S
C730 H716 0.961 . S
C730 C729 1.502 . S
C731 H717 0.960 . S
C731 H718 0.961 . S
C731 H719 0.959 . S
C731 C729 1.561 . S
C732 C729 1.526 . S
C732 C733 1.396 . S
C732 C737 1.390 . S
C733 C727 1.465 . S
C733 C732 1.396 . S
C733 C734 1.399 . S
C734 H720 0.929 . S
C734 C733 1.399 . S
C734 C735 1.385 . S
C735 H721 0.931 . S
C735 C734 1.385 . S
C735 C736 1.389 . S
C736 C735 1.389 . S
C736 C737 1.387 . S
C737 H722 0.930 . S
C737 C732 1.390 . S
C737 C736 1.387 . S
H738 C750 0.930 . S
H739 C752 0.930 . S
H740 C753 0.930 . S
H741 C757 0.959 . S
H742 C757 0.959 . S
H743 C757 0.961 . S
H744 C758 0.960 . S
H745 C758 0.961 . S
H746 C758 0.959 . S
H747 C761 0.929 . S
H748 C762 0.931 . S
H749 C764 0.930 . S
C750 H738 0.930 . S
C750 C751 1.399 . S
C750 C755 1.399 . S
C751 C750 1.399 . S
C751 C752 1.376 . S
C752 H739 0.930 . S
C752 C751 1.376 . S
C752 C753 1.388 . S
C753 H740 0.930 . S
C753 C752 1.388 . S
C753 C754 1.390 . S
C754 C753 1.390 . S
C754 C755 1.394 . S
C754 C760 1.465 . S
C755 C750 1.399 . S
C755 C754 1.394 . S
C755 C756 1.516 . S
C756 C755 1.516 . S
C756 C757 1.502 . S
C756 C758 1.561 . S
C756 C759 1.526 . S
C757 H741 0.959 . S
C757 H742 0.959 . S
C757 H743 0.961 . S
C757 C756 1.502 . S
C758 H744 0.960 . S
C758 H745 0.961 . S
C758 H746 0.959 . S
C758 C756 1.561 . S
C759 C756 1.526 . S
C759 C760 1.396 . S
C759 C764 1.390 . S
C760 C754 1.465 . S
C760 C759 1.396 . S
C760 C761 1.399 . S
C761 H747 0.929 . S
C761 C760 1.399 . S
C761 C762 1.385 . S
C762 H748 0.931 . S
C762 C761 1.385 . S
C762 C763 1.389 . S
C763 C762 1.389 . S
C763 C764 1.387 . S
C764 H749 0.930 . S
C764 C759 1.390 . S
C764 C763 1.387 . S
H765 C777 0.908 1_545 S
H766 C779 0.930 . S
H767 C780 0.930 . S
H768 C784 0.959 1_565 S
H769 C784 0.959 . S
H770 C784 0.961 . S
H771 C785 0.960 . S
H772 C785 0.961 . S
H773 C785 0.959 . S
H774 C788 0.929 . S
H775 C789 0.931 . S
H776 C791 0.930 . S
C777 H765 0.908 1_565 S
C777 C778 1.399 . S
C777 C782 1.399 . S
C778 C777 1.399 . S
C778 C779 1.376 . S
C779 H766 0.930 . S
C779 C778 1.376 . S
C779 C780 1.388 . S
C780 H767 0.930 . S
C780 C779 1.388 . S
C780 C781 1.390 . S
C781 C780 1.390 . S
C781 C782 1.394 . S
C781 C787 1.465 . S
C782 C777 1.399 . S
C782 C781 1.394 . S
C782 C783 1.516 1_565 S
C783 C782 1.516 1_545 S
C783 C784 1.502 . S
C783 C785 1.561 . S
C783 C786 1.526 1_545 S
C784 H768 0.959 1_545 S
C784 H769 0.959 . S
C784 H770 0.961 . S
C784 C783 1.502 . S
C785 H771 0.960 . S
C785 H772 0.961 . S
C785 H773 0.959 . S
C785 C783 1.561 . S
C786 C783 1.526 1_565 S
C786 C787 1.396 . S
C786 C791 1.390 1_565 S
C787 C781 1.465 . S
C787 C786 1.396 . S
C787 C788 1.399 . S
C788 H774 0.929 . S
C788 C787 1.399 . S
C788 C789 1.385 . S
C789 H775 0.931 . S
C789 C788 1.385 . S
C789 C790 1.389 . S
C790 C789 1.389 . S
C790 C791 1.387 1_565 S
C791 H776 0.930 . S
C791 C786 1.390 1_545 S
C791 C790 1.387 1_545 S
H792 C804 0.930 . S
H793 C806 0.930 . S
H794 C807 0.930 . S
H795 C811 0.959 . S
H796 C811 0.959 . S
H797 C811 0.961 . S
H798 C812 0.960 . S
H799 C812 0.961 . S
H800 C812 0.959 . S
H801 C815 0.929 . S
H802 C816 0.931 . S
H803 C818 0.930 . S
C804 H792 0.930 . S
C804 C805 1.399 . S
C804 C809 1.399 . S
C805 C804 1.399 . S
C805 C806 1.376 . S
C806 H793 0.930 . S
C806 C805 1.376 . S
C806 C807 1.388 . S
C807 H794 0.930 . S
C807 C806 1.388 . S
C807 C808 1.390 . S
C808 C807 1.390 . S
C808 C809 1.394 . S
C808 C814 1.465 . S
C809 C804 1.399 . S
C809 C808 1.394 . S
C809 C810 1.516 . S
C810 C809 1.516 . S
C810 C811 1.502 . S
C810 C812 1.561 . S
C810 C813 1.526 . S
C811 H795 0.959 . S
C811 H796 0.959 . S
C811 H797 0.961 . S
C811 C810 1.502 . S
C812 H798 0.960 . S
C812 H799 0.961 . S
C812 H800 0.959 . S
C812 C810 1.561 . S
C813 C810 1.526 . S
C813 C814 1.396 . S
C813 C818 1.390 . S
C814 C808 1.465 . S
C814 C813 1.396 . S
C814 C815 1.399 . S
C815 H801 0.929 . S
C815 C814 1.399 . S
C815 C816 1.385 . S
C816 H802 0.931 . S
C816 C815 1.385 . S
C816 C817 1.389 . S
C817 C816 1.389 . S
C817 C818 1.387 . S
C818 H803 0.930 . S
C818 C813 1.390 . S
C818 C817 1.387 . S
H819 C831 0.930 . S
H820 C833 0.930 . S
H821 C834 0.930 . S
H822 C838 0.959 . S
H823 C838 0.959 . S
H824 C838 0.961 . S
H825 C839 0.960 . S
H826 C839 0.961 . S
H827 C839 0.959 . S
H828 C842 0.929 . S
H829 C843 0.931 . S
H830 C845 0.930 . S
C831 H819 0.930 . S
C831 C832 1.399 . S
C831 C836 1.399 . S
C832 C831 1.399 . S
C832 C833 1.376 . S
C833 H820 0.930 . S
C833 C832 1.376 . S
C833 C834 1.388 . S
C834 H821 0.930 . S
C834 C833 1.388 . S
C834 C835 1.390 . S
C835 C834 1.390 . S
C835 C836 1.394 . S
C835 C841 1.465 . S
C836 C831 1.399 . S
C836 C835 1.394 . S
C836 C837 1.516 . S
C837 C836 1.516 . S
C837 C838 1.502 . S
C837 C839 1.561 . S
C837 C840 1.526 . S
C838 H822 0.959 . S
C838 H823 0.959 . S
C838 H824 0.961 . S
C838 C837 1.502 . S
C839 H825 0.960 . S
C839 H826 0.961 . S
C839 H827 0.959 . S
C839 C837 1.561 . S
C840 C837 1.526 . S
C840 C841 1.396 . S
C840 C845 1.390 . S
C841 C835 1.465 . S
C841 C840 1.396 . S
C841 C842 1.399 . S
C842 H828 0.929 . S
C842 C841 1.399 . S
C842 C843 1.385 . S
C843 H829 0.931 . S
C843 C842 1.385 . S
C843 C844 1.389 . S
C844 C843 1.389 . S
C844 C845 1.387 . S
C845 H830 0.930 . S
C845 C840 1.390 . S
C845 C844 1.387 . S
H846 C858 0.930 . S
H847 C860 0.930 . S
H848 C861 0.930 . S
H849 C865 0.959 . S
H850 C865 0.959 . S
H851 C865 0.961 . S
H852 C866 0.960 . S
H853 C866 0.961 . S
H854 C866 0.959 . S
H855 C869 0.929 . S
H856 C870 0.931 . S
H857 C872 0.930 . S
C858 H846 0.930 . S
C858 C859 1.399 . S
C858 C863 1.399 . S
C859 C858 1.399 . S
C859 C860 1.376 . S
C860 H847 0.930 . S
C860 C859 1.376 . S
C860 C861 1.388 . S
C861 H848 0.930 . S
C861 C860 1.388 . S
C861 C862 1.390 . S
C862 C861 1.390 . S
C862 C863 1.394 . S
C862 C868 1.465 . S
C863 C858 1.399 . S
C863 C862 1.394 . S
C863 C864 1.516 . S
C864 C863 1.516 . S
C864 C865 1.502 . S
C864 C866 1.561 . S
C864 C867 1.526 . S
C865 H849 0.959 . S
C865 H850 0.959 . S
C865 H851 0.961 . S
C865 C864 1.502 . S
C866 H852 0.960 . S
C866 H853 0.961 . S
C866 H854 0.959 . S
C866 C864 1.561 . S
C867 C864 1.526 . S
C867 C868 1.396 . S
C867 C872 1.390 . S
C868 C862 1.465 . S
C868 C867 1.396 . S
C868 C869 1.399 . S
C869 H855 0.929 . S
C869 C868 1.399 . S
C869 C870 1.385 . S
C870 H856 0.931 . S
C870 C869 1.385 . S
C870 C871 1.389 . S
C871 C870 1.389 . S
C871 C872 1.387 . S
C872 H857 0.930 . S
C872 C867 1.390 . S
C872 C871 1.387 . S
H873 C885 0.930 . S
H874 C887 0.930 . S
H875 C888 0.930 . S
H876 C892 0.959 . S
H877 C892 0.959 . S
H878 C892 0.961 . S
H879 C893 0.960 . S
H880 C893 0.961 . S
H881 C893 0.959 . S
H882 C896 0.929 . S
H883 C897 0.931 . S
H884 C899 0.930 . S
C885 H873 0.930 . S
C885 C886 1.399 . S
C885 C890 1.399 . S
C886 C885 1.399 . S
C886 C887 1.376 . S
C887 H874 0.930 . S
C887 C886 1.376 . S
C887 C888 1.388 . S
C888 H875 0.930 . S
C888 C887 1.388 . S
C888 C889 1.390 . S
C889 C888 1.390 . S
C889 C890 1.394 . S
C889 C895 1.465 . S
C890 C885 1.399 . S
C890 C889 1.394 . S
C890 C891 1.516 . S
C891 C890 1.516 . S
C891 C892 1.502 . S
C891 C893 1.561 . S
C891 C894 1.526 . S
C892 H876 0.959 . S
C892 H877 0.959 . S
C892 H878 0.961 . S
C892 C891 1.502 . S
C893 H879 0.960 . S
C893 H880 0.961 . S
C893 H881 0.959 . S
C893 C891 1.561 . S
C894 C891 1.526 . S
C894 C895 1.396 . S
C894 C899 1.390 . S
C895 C889 1.465 . S
C895 C894 1.396 . S
C895 C896 1.399 . S
C896 H882 0.929 . S
C896 C895 1.399 . S
C896 C897 1.385 . S
C897 H883 0.931 . S
C897 C896 1.385 . S
C897 C898 1.389 . S
C898 C897 1.389 . S
C898 C899 1.387 . S
C899 H884 0.930 . S
C899 C894 1.390 . S
C899 C898 1.387 . S
H900 C912 0.930 . S
H901 C914 0.930 . S
H902 C915 0.930 . S
H903 C919 0.959 . S
H904 C919 0.959 . S
H905 C919 0.961 . S
H906 C920 0.960 . S
H907 C920 0.961 . S
H908 C920 0.959 . S
H909 C923 0.929 . S
H910 C924 0.931 . S
H911 C926 0.930 . S
C912 H900 0.930 . S
C912 C913 1.399 . S
C912 C917 1.399 . S
C913 C912 1.399 . S
C913 C914 1.376 . S
C914 H901 0.930 . S
C914 C913 1.376 . S
C914 C915 1.388 . S
C915 H902 0.930 . S
C915 C914 1.388 . S
C915 C916 1.390 . S
C916 C915 1.390 . S
C916 C917 1.394 . S
C916 C922 1.465 . S
C917 C912 1.399 . S
C917 C916 1.394 . S
C917 C918 1.516 . S
C918 C917 1.516 . S
C918 C919 1.502 . S
C918 C920 1.561 . S
C918 C921 1.526 . S
C919 H903 0.959 . S
C919 H904 0.959 . S
C919 H905 0.961 . S
C919 C918 1.502 . S
C920 H906 0.960 . S
C920 H907 0.961 . S
C920 H908 0.959 . S
C920 C918 1.561 . S
C921 C918 1.526 . S
C921 C922 1.396 . S
C921 C926 1.390 . S
C922 C916 1.465 . S
C922 C921 1.396 . S
C922 C923 1.399 . S
C923 H909 0.929 . S
C923 C922 1.399 . S
C923 C924 1.385 . S
C924 H910 0.931 . S
C924 C923 1.385 . S
C924 C925 1.389 . S
C925 C924 1.389 . S
C925 C926 1.387 . S
C926 H911 0.930 . S
C926 C921 1.390 . S
C926 C925 1.387 . S
H927 C939 0.930 . S
H928 C941 0.930 . S
H929 C942 0.930 . S
H930 C946 0.959 . S
H931 C946 0.959 . S
H932 C946 0.961 . S
H933 C947 0.961 . S
H934 C947 0.961 . S
H935 C947 0.959 . S
H936 C950 0.929 . S
H937 C951 0.931 . S
H938 C953 0.930 . S
C939 H927 0.930 . S
C939 C940 1.399 . S
C939 C944 1.399 . S
C940 C939 1.399 . S
C940 C941 1.376 . S
C941 H928 0.930 . S
C941 C940 1.376 . S
C941 C942 1.388 . S
C942 H929 0.930 . S
C942 C941 1.388 . S
C942 C943 1.390 . S
C943 C942 1.390 . S
C943 C944 1.394 . S
C943 C949 1.465 . S
C944 C939 1.399 . S
C944 C943 1.394 . S
C944 C945 1.516 . S
C945 C944 1.516 . S
C945 C946 1.502 . S
C945 C947 1.561 1_455 S
C945 C948 1.526 . S
C946 H930 0.959 . S
C946 H931 0.959 . S
C946 H932 0.961 . S
C946 C945 1.502 . S
C947 H933 0.961 . S
C947 H934 0.961 . S
C947 H935 0.959 . S
C947 C945 1.561 1_655 S
C948 C945 1.526 . S
C948 C949 1.396 . S
C948 C953 1.390 . S
C949 C943 1.465 . S
C949 C948 1.396 . S
C949 C950 1.399 . S
C950 H936 0.929 . S
C950 C949 1.399 . S
C950 C951 1.385 . S
C951 H937 0.931 . S
C951 C950 1.385 . S
C951 C952 1.389 . S
C952 C951 1.389 . S
C952 C953 1.387 . S
C953 H938 0.930 . S
C953 C948 1.390 . S
C953 C952 1.387 . S
H954 C966 0.930 . S
H955 C968 0.930 . S
H956 C969 0.930 . S
H957 C973 0.959 . S
H958 C973 0.959 . S
H959 C973 0.961 . S
H960 C974 0.960 . S
H961 C974 0.961 . S
H962 C974 0.959 . S
H963 C977 0.929 . S
H964 C978 0.931 . S
H965 C980 0.930 . S
C966 H954 0.930 . S
C966 C967 1.399 . S
C966 C971 1.399 . S
C967 C966 1.399 . S
C967 C968 1.376 . S
C968 H955 0.930 . S
C968 C967 1.376 . S
C968 C969 1.388 . S
C969 H956 0.930 . S
C969 C968 1.388 . S
C969 C970 1.390 . S
C970 C969 1.390 . S
C970 C971 1.394 . S
C970 C976 1.465 . S
C971 C966 1.399 . S
C971 C970 1.394 . S
C971 C972 1.516 . S
C972 C971 1.516 . S
C972 C973 1.502 . S
C972 C974 1.561 . S
C972 C975 1.526 . S
C973 H957 0.959 . S
C973 H958 0.959 . S
C973 H959 0.961 . S
C973 C972 1.502 . S
C974 H960 0.960 . S
C974 H961 0.961 . S
C974 H962 0.959 . S
C974 C972 1.561 . S
C975 C972 1.526 . S
C975 C976 1.396 . S
C975 C980 1.390 . S
C976 C970 1.465 . S
C976 C975 1.396 . S
C976 C977 1.399 . S
C977 H963 0.929 . S
C977 C976 1.399 . S
C977 C978 1.385 . S
C978 H964 0.931 . S
C978 C977 1.385 . S
C978 C979 1.389 . S
C979 C978 1.389 . S
C979 C980 1.387 . S
C980 H965 0.930 . S
C980 C975 1.390 . S
C980 C979 1.387 . S
H981 C993 0.930 . S
H982 C995 0.930 . S
H983 C996 0.930 . S
H984 C1000 0.959 . S
H985 C1000 0.959 . S
H986 C1000 0.961 . S
H987 C1001 0.960 . S
H988 C1001 0.961 . S
H989 C1001 0.959 . S
H990 C1004 0.929 . S
H991 C1005 0.931 . S
H992 C1007 0.930 . S
C993 H981 0.930 . S
C993 C994 1.399 . S
C993 C998 1.399 . S
C994 C993 1.399 . S
C994 C995 1.376 . S
C995 H982 0.930 . S
C995 C994 1.376 . S
C995 C996 1.388 . S
C996 H983 0.930 . S
C996 C995 1.388 . S
C996 C997 1.390 . S
C997 C996 1.390 . S
C997 C998 1.394 . S
C997 C1003 1.465 . S
C998 C993 1.399 . S
C998 C997 1.394 . S
C998 C999 1.516 . S
C999 C998 1.516 . S
C999 C1000 1.502 1_655 S
C999 C1001 1.561 . S
C999 C1002 1.526 . S
C1000 H984 0.959 . S
C1000 H985 0.959 . S
C1000 H986 0.961 . S
C1000 C999 1.502 1_455 S
C1001 H987 0.960 . S
C1001 H988 0.961 . S
C1001 H989 0.959 . S
C1001 C999 1.561 . S
C1002 C999 1.526 . S
C1002 C1003 1.396 . S
C1002 C1007 1.390 1_655 S
C1003 C997 1.465 . S
C1003 C1002 1.396 . S
C1003 C1004 1.399 . S
C1004 H990 0.929 . S
C1004 C1003 1.399 . S
C1004 C1005 1.385 . S
C1005 H991 0.931 . S
C1005 C1004 1.385 . S
C1005 C1006 1.389 . S
C1006 C1005 1.389 . S
C1006 C1007 1.387 1_655 S
C1007 H992 0.930 . S
C1007 C1002 1.390 1_455 S
C1007 C1006 1.387 1_455 S
H1008 C1020 0.930 . S
H1009 C1022 0.930 . S
H1010 C1023 0.930 . S
H1011 C1027 0.959 . S
H1012 C1027 0.959 . S
H1013 C1027 0.961 . S
H1014 C1028 0.960 . S
H1015 C1028 0.961 . S
H1016 C1028 0.959 . S
H1017 C1031 0.929 . S
H1018 C1032 0.931 . S
H1019 C1034 0.930 . S
C1020 H1008 0.930 . S
C1020 C1021 1.399 . S
C1020 C1025 1.399 . S
C1021 C1020 1.399 . S
C1021 C1022 1.376 . S
C1022 H1009 0.930 . S
C1022 C1021 1.376 . S
C1022 C1023 1.388 . S
C1023 H1010 0.930 . S
C1023 C1022 1.388 . S
C1023 C1024 1.390 . S
C1024 C1023 1.390 . S
C1024 C1025 1.394 . S
C1024 C1030 1.465 . S
C1025 C1020 1.399 . S
C1025 C1024 1.394 . S
C1025 C1026 1.516 . S
C1026 C1025 1.516 . S
C1026 C1027 1.502 . S
C1026 C1028 1.561 . S
C1026 C1029 1.526 . S
C1027 H1011 0.959 . S
C1027 H1012 0.959 . S
C1027 H1013 0.961 . S
C1027 C1026 1.502 . S
C1028 H1014 0.960 . S
C1028 H1015 0.961 . S
C1028 H1016 0.959 . S
C1028 C1026 1.561 . S
C1029 C1026 1.526 . S
C1029 C1030 1.396 . S
C1029 C1034 1.390 . S
C1030 C1024 1.465 . S
C1030 C1029 1.396 . S
C1030 C1031 1.399 . S
C1031 H1017 0.929 . S
C1031 C1030 1.399 . S
C1031 C1032 1.385 . S
C1032 H1018 0.931 . S
C1032 C1031 1.385 . S
C1032 C1033 1.389 . S
C1033 C1032 1.389 . S
C1033 C1034 1.387 . S
C1034 H1019 0.930 . S
C1034 C1029 1.390 . S
C1034 C1033 1.387 . S
H1035 C1047 0.930 . S
H1036 C1049 0.930 . S
H1037 C1050 0.930 . S
H1038 C1054 0.959 . S
H1039 C1054 0.959 . S
H1040 C1054 0.961 . S
H1041 C1055 0.960 . S
H1042 C1055 0.961 . S
H1043 C1055 0.959 . S
H1044 C1058 0.929 . S
H1045 C1059 0.931 . S
H1046 C1061 0.930 . S
C1047 H1035 0.930 . S
C1047 C1048 1.399 . S
C1047 C1052 1.399 . S
C1048 C1047 1.399 . S
C1048 C1049 1.376 . S
C1049 H1036 0.930 . S
C1049 C1048 1.376 . S
C1049 C1050 1.388 . S
C1050 H1037 0.930 . S
C1050 C1049 1.388 . S
C1050 C1051 1.390 . S
C1051 C1050 1.390 . S
C1051 C1052 1.394 . S
C1051 C1057 1.465 . S
C1052 C1047 1.399 . S
C1052 C1051 1.394 . S
C1052 C1053 1.516 . S
C1053 C1052 1.516 . S
C1053 C1054 1.502 . S
C1053 C1055 1.561 . S
C1053 C1056 1.526 . S
C1054 H1038 0.959 . S
C1054 H1039 0.959 . S
C1054 H1040 0.961 . S
C1054 C1053 1.502 . S
C1055 H1041 0.960 . S
C1055 H1042 0.961 . S
C1055 H1043 0.959 . S
C1055 C1053 1.561 . S
C1056 C1053 1.526 . S
C1056 C1057 1.396 . S
C1056 C1061 1.390 . S
C1057 C1051 1.465 . S
C1057 C1056 1.396 . S
C1057 C1058 1.399 . S
C1058 H1044 0.929 . S
C1058 C1057 1.399 . S
C1058 C1059 1.385 . S
C1059 H1045 0.931 . S
C1059 C1058 1.385 . S
C1059 C1060 1.389 . S
C1060 C1059 1.389 . S
C1060 C1061 1.387 . S
C1061 H1046 0.930 . S
C1061 C1056 1.390 . S
C1061 C1060 1.387 . S
H1062 C1074 0.936 . S
H1063 C1076 0.930 . S
H1064 C1077 0.930 . S
H1065 C1081 0.959 . S
H1066 C1081 0.959 . S
H1067 C1081 0.961 . S
H1068 C1082 0.960 . S
H1069 C1082 0.961 . S
H1070 C1082 0.959 . S
H1071 C1085 0.929 . S
H1072 C1086 0.931 . S
H1073 C1088 0.930 . S
C1074 H1062 0.936 . S
C1074 C1075 1.392 1_564 S
C1074 C1079 1.399 1_554 S
C1075 C1074 1.392 1_546 S
C1075 C1076 1.376 . S
C1076 H1063 0.930 . S
C1076 C1075 1.376 . S
C1076 C1077 1.388 1_545 S
C1077 H1064 0.930 . S
C1077 C1076 1.388 1_565 S
C1077 C1078 1.390 . S
C1078 C1077 1.390 . S
C1078 C1079 1.394 . S
C1078 C1084 1.465 . S
C1079 C1074 1.399 1_556 S
C1079 C1078 1.394 . S
C1079 C1080 1.516 1_556 S
C1080 C1079 1.516 1_554 S
C1080 C1081 1.502 . S
C1080 C1082 1.561 . S
C1080 C1083 1.526 . S
C1081 H1065 0.959 . S
C1081 H1066 0.959 . S
C1081 H1067 0.961 . S
C1081 C1080 1.502 . S
C1082 H1068 0.960 . S
C1082 H1069 0.961 . S
C1082 H1070 0.959 . S
C1082 C1080 1.561 . S
C1083 C1080 1.526 . S
C1083 C1084 1.396 1_554 S
C1083 C1088 1.390 . S
C1084 C1078 1.465 . S
C1084 C1083 1.396 1_556 S
C1084 C1085 1.399 . S
C1085 H1071 0.929 . S
C1085 C1084 1.399 . S
C1085 C1086 1.385 . S
C1086 H1072 0.931 . S
C1086 C1085 1.385 . S
C1086 C1087 1.389 . S
C1087 C1086 1.389 . S
C1087 C1088 1.387 1_556 S
C1088 H1073 0.930 . S
C1088 C1083 1.390 . S
C1088 C1087 1.387 1_554 S
H1089 C1101 0.930 . S
H1090 C1103 0.930 . S
H1091 C1104 0.930 . S
H1092 C1108 0.959 . S
H1093 C1108 0.959 . S
H1094 C1108 0.961 . S
H1095 C1109 0.960 . S
H1096 C1109 0.961 . S
H1097 C1109 0.959 . S
H1098 C1112 0.929 . S
H1099 C1113 0.931 . S
H1100 C1115 0.930 . S
C1101 H1089 0.930 . S
C1101 C1102 1.399 . S
C1101 C1106 1.399 . S
C1102 C1101 1.399 . S
C1102 C1103 1.376 . S
C1103 H1090 0.930 . S
C1103 C1102 1.376 . S
C1103 C1104 1.388 . S
C1104 H1091 0.930 . S
C1104 C1103 1.388 . S
C1104 C1105 1.390 . S
C1105 C1104 1.390 . S
C1105 C1106 1.394 . S
C1105 C1111 1.465 . S
C1106 C1101 1.399 . S
C1106 C1105 1.394 . S
C1106 C1107 1.516 . S
C1107 C1106 1.516 . S
C1107 C1108 1.502 . S
C1107 C1109 1.561 . S
C1107 C1110 1.526 . S
C1108 H1092 0.959 . S
C1108 H1093 0.959 . S
C1108 H1094 0.961 . S
C1108 C1107 1.502 . S
C1109 H1095 0.960 . S
C1109 H1096 0.961 . S
C1109 H1097 0.959 . S
C1109 C1107 1.561 . S
C1110 C1107 1.526 . S
C1110 C1111 1.396 . S
C1110 C1115 1.390 . S
C1111 C1105 1.465 . S
C1111 C1110 1.396 . S
C1111 C1112 1.399 . S
C1112 H1098 0.929 . S
C1112 C1111 1.399 . S
C1112 C1113 1.385 . S
C1113 H1099 0.931 . S
C1113 C1112 1.385 . S
C1113 C1114 1.389 . S
C1114 C1113 1.389 . S
C1114 C1115 1.387 . S
C1115 H1100 0.930 . S
C1115 C1110 1.390 . S
C1115 C1114 1.387 . S
H1116 C1128 0.930 . S
H1117 C1130 0.930 . S
H1118 C1131 0.930 . S
H1119 C1135 0.959 . S
H1120 C1135 0.959 . S
H1121 C1135 0.961 . S
H1122 C1136 0.960 . S
H1123 C1136 0.961 . S
H1124 C1136 0.959 . S
H1125 C1139 0.929 . S
H1126 C1140 0.931 . S
H1127 C1142 0.930 . S
C1128 H1116 0.930 . S
C1128 C1129 1.399 . S
C1128 C1133 1.399 . S
C1129 C1128 1.399 . S
C1129 C1130 1.376 . S
C1130 H1117 0.930 . S
C1130 C1129 1.376 . S
C1130 C1131 1.388 . S
C1131 H1118 0.930 . S
C1131 C1130 1.388 . S
C1131 C1132 1.390 . S
C1132 C1131 1.390 . S
C1132 C1133 1.394 . S
C1132 C1138 1.465 . S
C1133 C1128 1.399 . S
C1133 C1132 1.394 . S
C1133 C1134 1.516 . S
C1134 C1133 1.516 . S
C1134 C1135 1.502 . S
C1134 C1136 1.561 . S
C1134 C1137 1.526 . S
C1135 H1119 0.959 . S
C1135 H1120 0.959 . S
C1135 H1121 0.961 . S
C1135 C1134 1.502 . S
C1136 H1122 0.960 . S
C1136 H1123 0.961 . S
C1136 H1124 0.959 . S
C1136 C1134 1.561 . S
C1137 C1134 1.526 . S
C1137 C1138 1.396 . S
C1137 C1142 1.390 . S
C1138 C1132 1.465 . S
C1138 C1137 1.396 . S
C1138 C1139 1.399 . S
C1139 H1125 0.929 . S
C1139 C1138 1.399 . S
C1139 C1140 1.385 . S
C1140 H1126 0.931 . S
C1140 C1139 1.385 . S
C1140 C1141 1.389 . S
C1141 C1140 1.389 . S
C1141 C1142 1.387 . S
C1142 H1127 0.930 . S
C1142 C1137 1.390 . S
C1142 C1141 1.387 . S
H1143 C1155 0.930 . S
H1144 C1157 0.930 . S
H1145 C1158 0.930 . S
H1146 C1162 0.959 . S
H1147 C1162 0.959 . S
H1148 C1162 0.961 . S
H1149 C1163 0.960 . S
H1150 C1163 0.961 . S
H1151 C1163 0.959 . S
H1152 C1166 0.929 . S
H1153 C1167 0.931 . S
H1154 C1169 0.930 . S
C1155 H1143 0.930 . S
C1155 C1156 1.399 . S
C1155 C1160 1.399 . S
C1156 C1155 1.399 . S
C1156 C1157 1.376 . S
C1157 H1144 0.930 . S
C1157 C1156 1.376 . S
C1157 C1158 1.388 . S
C1158 H1145 0.930 . S
C1158 C1157 1.388 . S
C1158 C1159 1.390 . S
C1159 C1158 1.390 . S
C1159 C1160 1.394 . S
C1159 C1165 1.465 . S
C1160 C1155 1.399 . S
C1160 C1159 1.394 . S
C1160 C1161 1.516 . S
C1161 C1160 1.516 . S
C1161 C1162 1.502 . S
C1161 C1163 1.561 . S
C1161 C1164 1.526 . S
C1162 H1146 0.959 . S
C1162 H1147 0.959 . S
C1162 H1148 0.961 . S
C1162 C1161 1.502 . S
C1163 H1149 0.960 . S
C1163 H1150 0.961 . S
C1163 H1151 0.959 . S
C1163 C1161 1.561 . S
C1164 C1161 1.526 . S
C1164 C1165 1.396 . S
C1164 C1169 1.390 . S
C1165 C1159 1.465 . S
C1165 C1164 1.396 . S
C1165 C1166 1.399 . S
C1166 H1152 0.929 . S
C1166 C1165 1.399 . S
C1166 C1167 1.385 . S
C1167 H1153 0.931 . S
C1167 C1166 1.385 . S
C1167 C1168 1.389 . S
C1168 C1167 1.389 . S
C1168 C1169 1.387 . S
C1169 H1154 0.930 . S
C1169 C1164 1.390 . S
C1169 C1168 1.387 . S
H1170 C1182 0.930 . S
H1171 C1184 0.930 . S
H1172 C1185 0.930 . S
H1173 C1189 0.959 . S
H1174 C1189 0.959 . S
H1175 C1189 0.961 . S
H1176 C1190 0.960 . S
H1177 C1190 0.961 . S
H1178 C1190 0.959 . S
H1179 C1193 0.929 . S
H1180 C1194 0.931 . S
H1181 C1196 0.930 . S
C1182 H1170 0.930 . S
C1182 C1183 1.399 . S
C1182 C1187 1.399 . S
C1183 C1182 1.399 . S
C1183 C1184 1.376 1_545 S
C1184 H1171 0.930 . S
C1184 C1183 1.376 1_565 S
C1184 C1185 1.388 1_565 S
C1185 H1172 0.930 . S
C1185 C1184 1.388 1_545 S
C1185 C1186 1.390 . S
C1186 C1185 1.390 . S
C1186 C1187 1.394 . S
C1186 C1192 1.465 . S
C1187 C1182 1.399 . S
C1187 C1186 1.394 . S
C1187 C1188 1.516 . S
C1188 C1187 1.516 . S
C1188 C1189 1.502 . S
C1188 C1190 1.561 . S
C1188 C1191 1.526 . S
C1189 H1173 0.959 . S
C1189 H1174 0.959 . S
C1189 H1175 0.961 . S
C1189 C1188 1.502 . S
C1190 H1176 0.960 . S
C1190 H1177 0.961 . S
C1190 H1178 0.959 . S
C1190 C1188 1.561 . S
C1191 C1188 1.526 . S
C1191 C1192 1.396 . S
C1191 C1196 1.390 . S
C1192 C1186 1.465 . S
C1192 C1191 1.396 . S
C1192 C1193 1.399 . S
C1193 H1179 0.929 . S
C1193 C1192 1.399 . S
C1193 C1194 1.385 . S
C1194 H1180 0.931 . S
C1194 C1193 1.385 . S
C1194 C1195 1.389 . S
C1195 C1194 1.389 . S
C1195 C1196 1.387 . S
C1196 H1181 0.930 . S
C1196 C1191 1.390 . S
C1196 C1195 1.387 . S
H1197 C1209 0.930 . S
H1198 C1211 0.930 . S
H1199 C1212 0.930 . S
H1200 C1216 0.959 . S
H1201 C1216 0.959 . S
H1202 C1216 0.961 . S
H1203 C1217 0.960 . S
H1204 C1217 0.961 . S
H1205 C1217 0.959 . S
H1206 C1220 0.929 . S
H1207 C1221 0.931 . S
H1208 C1223 0.930 . S
C1209 H1197 0.930 . S
C1209 C1210 1.399 . S
C1209 C1214 1.399 . S
C1210 C1209 1.399 . S
C1210 C1211 1.376 . S
C1211 H1198 0.930 . S
C1211 C1210 1.376 . S
C1211 C1212 1.388 . S
C1212 H1199 0.930 . S
C1212 C1211 1.388 . S
C1212 C1213 1.390 . S
C1213 C1212 1.390 . S
C1213 C1214 1.394 . S
C1213 C1219 1.465 . S
C1214 C1209 1.399 . S
C1214 C1213 1.394 . S
C1214 C1215 1.516 . S
C1215 C1214 1.516 . S
C1215 C1216 1.502 . S
C1215 C1217 1.561 . S
C1215 C1218 1.526 . S
C1216 H1200 0.959 . S
C1216 H1201 0.959 . S
C1216 H1202 0.961 . S
C1216 C1215 1.502 . S
C1217 H1203 0.960 . S
C1217 H1204 0.961 . S
C1217 H1205 0.959 . S
C1217 C1215 1.561 . S
C1218 C1215 1.526 . S
C1218 C1219 1.396 . S
C1218 C1223 1.390 . S
C1219 C1213 1.465 . S
C1219 C1218 1.396 . S
C1219 C1220 1.399 . S
C1220 H1206 0.929 . S
C1220 C1219 1.399 . S
C1220 C1221 1.385 . S
C1221 H1207 0.931 . S
C1221 C1220 1.385 . S
C1221 C1222 1.389 . S
C1222 C1221 1.389 . S
C1222 C1223 1.387 . S
C1223 H1208 0.930 . S
C1223 C1218 1.390 . S
C1223 C1222 1.387 . S
H1224 C1236 0.930 . S
H1225 C1238 0.930 . S
H1226 C1239 0.930 . S
H1227 C1243 0.959 . S
H1228 C1243 0.959 . S
H1229 C1243 0.961 . S
H1230 C1244 0.960 . S
H1231 C1244 0.961 . S
H1232 C1244 0.959 . S
H1233 C1247 0.929 . S
H1234 C1248 0.931 . S
H1235 C1250 0.930 . S
C1236 H1224 0.930 . S
C1236 C1237 1.399 . S
C1236 C1241 1.399 . S
C1237 C1236 1.399 . S
C1237 C1238 1.376 . S
C1238 H1225 0.930 . S
C1238 C1237 1.376 . S
C1238 C1239 1.388 . S
C1239 H1226 0.930 . S
C1239 C1238 1.388 . S
C1239 C1240 1.390 . S
C1240 C1239 1.390 . S
C1240 C1241 1.394 . S
C1240 C1246 1.465 . S
C1241 C1236 1.399 . S
C1241 C1240 1.394 . S
C1241 C1242 1.516 . S
C1242 C1241 1.516 . S
C1242 C1243 1.502 . S
C1242 C1244 1.561 . S
C1242 C1245 1.526 . S
C1243 H1227 0.959 . S
C1243 H1228 0.959 . S
C1243 H1229 0.961 . S
C1243 C1242 1.502 . S
C1244 H1230 0.960 . S
C1244 H1231 0.961 . S
C1244 H1232 0.959 . S
C1244 C1242 1.561 . S
C1245 C1242 1.526 . S
C1245 C1246 1.396 . S
C1245 C1250 1.390 . S
C1246 C1240 1.465 . S
C1246 C1245 1.396 . S
C1246 C1247 1.399 . S
C1247 H1233 0.929 . S
C1247 C1246 1.399 . S
C1247 C1248 1.385 . S
C1248 H1234 0.931 . S
C1248 C1247 1.385 . S
C1248 C1249 1.389 . S
C1249 C1248 1.389 . S
C1249 C1250 1.387 . S
C1250 H1235 0.930 . S
C1250 C1245 1.390 . S
C1250 C1249 1.387 . S
H1251 C1263 0.930 1_565 S
H1252 C1265 0.930 . S
H1253 C1266 0.930 . S
H1254 C1270 0.959 . S
H1255 C1270 0.959 . S
H1256 C1270 0.961 . S
H1257 C1271 0.960 . S
H1258 C1271 0.961 . S
H1259 C1271 0.959 . S
H1260 C1274 0.929 . S
H1261 C1275 0.931 . S
H1262 C1277 0.930 . S
C1263 H1251 0.930 1_545 S
C1263 C1264 1.399 . S
C1263 C1268 1.399 . S
C1264 C1263 1.399 . S
C1264 C1265 1.376 . S
C1265 H1252 0.930 . S
C1265 C1264 1.376 . S
C1265 C1266 1.388 . S
C1266 H1253 0.930 . S
C1266 C1265 1.388 . S
C1266 C1267 1.390 . S
C1267 C1266 1.390 . S
C1267 C1268 1.394 . S
C1267 C1273 1.465 . S
C1268 C1263 1.399 . S
C1268 C1267 1.394 . S
C1268 C1269 1.516 1_545 S
C1269 C1268 1.516 1_565 S
C1269 C1270 1.502 . S
C1269 C1271 1.561 . S
C1269 C1272 1.526 1_565 S
C1270 H1254 0.959 . S
C1270 H1255 0.959 . S
C1270 H1256 0.961 . S
C1270 C1269 1.502 . S
C1271 H1257 0.960 . S
C1271 H1258 0.961 . S
C1271 H1259 0.959 . S
C1271 C1269 1.561 . S
C1272 C1269 1.526 1_545 S
C1272 C1273 1.396 . S
C1272 C1277 1.390 1_545 S
C1273 C1267 1.465 . S
C1273 C1272 1.396 . S
C1273 C1274 1.399 . S
C1274 H1260 0.929 . S
C1274 C1273 1.399 . S
C1274 C1275 1.385 . S
C1275 H1261 0.931 . S
C1275 C1274 1.385 . S
C1275 C1276 1.389 . S
C1276 C1275 1.389 . S
C1276 C1277 1.387 1_545 S
C1277 H1262 0.930 . S
C1277 C1272 1.390 1_565 S
C1277 C1276 1.387 1_565 S
H1278 C1290 0.930 . S
H1279 C1292 0.930 . S
H1280 C1293 0.930 . S
H1281 C1297 0.959 . S
H1282 C1297 0.959 . S
H1283 C1297 0.961 . S
H1284 C1298 0.960 . S
H1285 C1298 0.961 . S
H1286 C1298 0.959 . S
H1287 C1301 0.929 . S
H1288 C1302 0.931 . S
H1289 C1304 0.930 . S
C1290 H1278 0.930 . S
C1290 C1291 1.399 . S
C1290 C1295 1.399 . S
C1291 C1290 1.399 . S
C1291 C1292 1.376 . S
C1292 H1279 0.930 . S
C1292 C1291 1.376 . S
C1292 C1293 1.388 . S
C1293 H1280 0.930 . S
C1293 C1292 1.388 . S
C1293 C1294 1.390 . S
C1294 C1293 1.390 . S
C1294 C1295 1.394 . S
C1294 C1300 1.465 . S
C1295 C1290 1.399 . S
C1295 C1294 1.394 . S
C1295 C1296 1.516 . S
C1296 C1295 1.516 . S
C1296 C1297 1.502 . S
C1296 C1298 1.561 . S
C1296 C1299 1.526 . S
C1297 H1281 0.959 . S
C1297 H1282 0.959 . S
C1297 H1283 0.961 . S
C1297 C1296 1.502 . S
C1298 H1284 0.960 . S
C1298 H1285 0.961 . S
C1298 H1286 0.959 . S
C1298 C1296 1.561 . S
C1299 C1296 1.526 . S
C1299 C1300 1.396 . S
C1299 C1304 1.390 . S
C1300 C1294 1.465 . S
C1300 C1299 1.396 . S
C1300 C1301 1.399 . S
C1301 H1287 0.929 . S
C1301 C1300 1.399 . S
C1301 C1302 1.385 . S
C1302 H1288 0.931 . S
C1302 C1301 1.385 . S
C1302 C1303 1.389 . S
C1303 C1302 1.389 . S
C1303 C1304 1.387 . S
C1304 H1289 0.930 . S
C1304 C1299 1.390 . S
C1304 C1303 1.387 . S
H1305 C1317 0.930 . S
H1306 C1319 0.930 . S
H1307 C1320 0.930 . S
H1308 C1324 0.959 . S
H1309 C1324 0.959 . S
H1310 C1324 0.961 . S
H1311 C1325 0.960 . S
H1312 C1325 0.961 . S
H1313 C1325 0.959 . S
H1314 C1328 0.929 . S
H1315 C1329 0.931 . S
H1316 C1331 0.930 . S
C1317 H1305 0.930 . S
C1317 C1318 1.399 . S
C1317 C1322 1.399 . S
C1318 C1317 1.399 . S
C1318 C1319 1.376 . S
C1319 H1306 0.930 . S
C1319 C1318 1.376 . S
C1319 C1320 1.388 . S
C1320 H1307 0.930 . S
C1320 C1319 1.388 . S
C1320 C1321 1.390 . S
C1321 C1320 1.390 . S
C1321 C1322 1.394 . S
C1321 C1327 1.465 . S
C1322 C1317 1.399 . S
C1322 C1321 1.394 . S
C1322 C1323 1.516 . S
C1323 C1322 1.516 . S
C1323 C1324 1.502 . S
C1323 C1325 1.561 . S
C1323 C1326 1.526 . S
C1324 H1308 0.959 . S
C1324 H1309 0.959 . S
C1324 H1310 0.961 . S
C1324 C1323 1.502 . S
C1325 H1311 0.960 . S
C1325 H1312 0.961 . S
C1325 H1313 0.959 . S
C1325 C1323 1.561 . S
C1326 C1323 1.526 . S
C1326 C1327 1.396 . S
C1326 C1331 1.390 . S
C1327 C1321 1.465 . S
C1327 C1326 1.396 . S
C1327 C1328 1.399 . S
C1328 H1314 0.929 . S
C1328 C1327 1.399 . S
C1328 C1329 1.385 . S
C1329 H1315 0.931 . S
C1329 C1328 1.385 . S
C1329 C1330 1.389 . S
C1330 C1329 1.389 . S
C1330 C1331 1.387 . S
C1331 H1316 0.930 . S
C1331 C1326 1.390 . S
C1331 C1330 1.387 . S
H1332 C1344 0.930 . S
H1333 C1346 0.930 . S
H1334 C1347 0.930 . S
H1335 C1351 0.959 . S
H1336 C1351 0.959 . S
H1337 C1351 0.961 . S
H1338 C1352 0.960 . S
H1339 C1352 0.961 . S
H1340 C1352 0.959 . S
H1341 C1355 0.929 . S
H1342 C1356 0.931 . S
H1343 C1358 0.930 . S
C1344 H1332 0.930 . S
C1344 C1345 1.399 . S
C1344 C1349 1.399 . S
C1345 C1344 1.399 . S
C1345 C1346 1.376 . S
C1346 H1333 0.930 . S
C1346 C1345 1.376 . S
C1346 C1347 1.388 . S
C1347 H1334 0.930 . S
C1347 C1346 1.388 . S
C1347 C1348 1.390 . S
C1348 C1347 1.390 . S
C1348 C1349 1.394 . S
C1348 C1354 1.465 . S
C1349 C1344 1.399 . S
C1349 C1348 1.394 . S
C1349 C1350 1.516 . S
C1350 C1349 1.516 . S
C1350 C1351 1.502 . S
C1350 C1352 1.561 . S
C1350 C1353 1.526 . S
C1351 H1335 0.959 . S
C1351 H1336 0.959 . S
C1351 H1337 0.961 . S
C1351 C1350 1.502 . S
C1352 H1338 0.960 . S
C1352 H1339 0.961 . S
C1352 H1340 0.959 . S
C1352 C1350 1.561 . S
C1353 C1350 1.526 . S
C1353 C1354 1.396 . S
C1353 C1358 1.390 . S
C1354 C1348 1.465 . S
C1354 C1353 1.396 . S
C1354 C1355 1.399 . S
C1355 H1341 0.929 . S
C1355 C1354 1.399 . S
C1355 C1356 1.385 . S
C1356 H1342 0.931 . S
C1356 C1355 1.385 . S
C1356 C1357 1.389 . S
C1357 C1356 1.389 . S
C1357 C1358 1.387 . S
C1358 H1343 0.930 . S
C1358 C1353 1.390 . S
C1358 C1357 1.387 . S
H1359 C1371 0.930 1_565 S
H1360 C1373 0.930 . S
H1361 C1374 0.930 1_455 S
H1362 C1378 0.959 . S
H1363 C1378 0.959 . S
H1364 C1378 0.961 . S
H1365 C1379 0.960 . S
H1366 C1379 0.961 . S
H1367 C1379 0.959 . S
H1368 C1382 0.929 . S
H1369 C1383 0.931 . S
H1370 C1385 0.930 . S
C1371 H1359 0.930 1_545 S
C1371 C1372 1.399 1_655 S
C1371 C1376 1.399 . S
C1372 C1371 1.399 1_455 S
C1372 C1373 1.376 . S
C1373 H1360 0.930 . S
C1373 C1372 1.376 . S
C1373 C1374 1.388 1_455 S
C1374 H1361 0.930 1_655 S
C1374 C1373 1.388 1_655 S
C1374 C1375 1.390 . S
C1375 C1374 1.390 . S
C1375 C1376 1.394 . S
C1375 C1381 1.465 . S
C1376 C1371 1.399 . S
C1376 C1375 1.394 . S
C1376 C1377 1.516 1_545 S
C1377 C1376 1.516 1_565 S
C1377 C1378 1.502 . S
C1377 C1379 1.561 . S
C1377 C1380 1.526 1_565 S
C1378 H1362 0.959 . S
C1378 H1363 0.959 . S
C1378 H1364 0.961 . S
C1378 C1377 1.502 . S
C1379 H1365 0.960 . S
C1379 H1366 0.961 . S
C1379 H1367 0.959 . S
C1379 C1377 1.561 . S
C1380 C1377 1.526 1_545 S
C1380 C1381 1.396 . S
C1380 C1385 1.390 1_545 S
C1381 C1375 1.465 . S
C1381 C1380 1.396 . S
C1381 C1382 1.399 . S
C1382 H1368 0.929 . S
C1382 C1381 1.399 . S
C1382 C1383 1.385 . S
C1383 H1369 0.931 . S
C1383 C1382 1.385 . S
C1383 C1384 1.389 . S
C1384 C1383 1.389 . S
C1384 C1385 1.387 1_545 S
C1385 H1370 0.930 . S
C1385 C1380 1.390 1_565 S
C1385 C1384 1.387 1_565 S
H1386 C1398 0.930 . S
H1387 C1400 0.930 . S
H1388 C1401 0.930 . S
H1389 C1405 0.959 . S
H1390 C1405 0.959 . S
H1391 C1405 0.961 . S
H1392 C1406 0.960 . S
H1393 C1406 0.961 . S
H1394 C1406 0.959 . S
H1395 C1409 0.929 . S
H1396 C1410 0.931 . S
H1397 C1412 0.930 . S
C1398 H1386 0.930 . S
C1398 C1399 1.399 . S
C1398 C1403 1.399 . S
C1399 C1398 1.399 . S
C1399 C1400 1.376 . S
C1400 H1387 0.930 . S
C1400 C1399 1.376 . S
C1400 C1401 1.388 . S
C1401 H1388 0.930 . S
C1401 C1400 1.388 . S
C1401 C1402 1.390 . S
C1402 C1401 1.390 . S
C1402 C1403 1.394 . S
C1402 C1408 1.465 . S
C1403 C1398 1.399 . S
C1403 C1402 1.394 . S
C1403 C1404 1.516 . S
C1404 C1403 1.516 . S
C1404 C1405 1.502 . S
C1404 C1406 1.561 . S
C1404 C1407 1.526 . S
C1405 H1389 0.959 . S
C1405 H1390 0.959 . S
C1405 H1391 0.961 . S
C1405 C1404 1.502 . S
C1406 H1392 0.960 . S
C1406 H1393 0.961 . S
C1406 H1394 0.959 . S
C1406 C1404 1.561 . S
C1407 C1404 1.526 . S
C1407 C1408 1.396 . S
C1407 C1412 1.390 . S
C1408 C1402 1.465 . S
C1408 C1407 1.396 . S
C1408 C1409 1.399 . S
C1409 H1395 0.929 . S
C1409 C1408 1.399 . S
C1409 C1410 1.385 . S
C1410 H1396 0.931 . S
C1410 C1409 1.385 . S
C1410 C1411 1.389 . S
C1411 C1410 1.389 . S
C1411 C1412 1.387 . S
C1412 H1397 0.930 . S
C1412 C1407 1.390 . S
C1412 C1411 1.387 . S
H1413 C1425 0.930 . S
H1414 C1427 0.930 1_655 S
H1415 C1428 0.930 . S
H1416 C1432 0.959 . S
H1417 C1432 0.959 . S
H1418 C1432 0.961 . S
H1419 C1433 0.960 . S
H1420 C1433 0.961 . S
H1421 C1433 0.959 . S
H1422 C1436 0.929 . S
H1423 C1437 0.931 . S
H1424 C1439 0.930 . S
C1425 H1413 0.930 . S
C1425 C1426 1.399 . S
C1425 C1430 1.399 . S
C1426 C1425 1.399 . S
C1426 C1427 1.376 . S
C1427 H1414 0.930 1_455 S
C1427 C1426 1.376 . S
C1427 C1428 1.388 . S
C1428 H1415 0.930 . S
C1428 C1427 1.388 . S
C1428 C1429 1.390 . S
C1429 C1428 1.390 . S
C1429 C1430 1.394 . S
C1429 C1435 1.465 . S
C1430 C1425 1.399 . S
C1430 C1429 1.394 . S
C1430 C1431 1.516 . S
C1431 C1430 1.516 . S
C1431 C1432 1.502 . S
C1431 C1433 1.561 . S
C1431 C1434 1.526 . S
C1432 H1416 0.959 . S
C1432 H1417 0.959 . S
C1432 H1418 0.961 . S
C1432 C1431 1.502 . S
C1433 H1419 0.960 . S
C1433 H1420 0.961 . S
C1433 H1421 0.959 . S
C1433 C1431 1.561 . S
C1434 C1431 1.526 . S
C1434 C1435 1.396 . S
C1434 C1439 1.390 . S
C1435 C1429 1.465 . S
C1435 C1434 1.396 . S
C1435 C1436 1.399 . S
C1436 H1422 0.929 . S
C1436 C1435 1.399 . S
C1436 C1437 1.385 . S
C1437 H1423 0.931 . S
C1437 C1436 1.385 . S
C1437 C1438 1.389 . S
C1438 C1437 1.389 . S
C1438 C1439 1.387 . S
C1439 H1424 0.930 . S
C1439 C1434 1.390 . S
C1439 C1438 1.387 . S
H1440 C1452 0.930 . S
H1441 C1454 0.930 . S
H1442 C1455 0.930 . S
H1443 C1459 0.959 . S
H1444 C1459 0.959 . S
H1445 C1459 0.961 . S
H1446 C1460 0.960 . S
H1447 C1460 0.961 . S
H1448 C1460 0.959 . S
H1449 C1463 0.929 . S
H1450 C1464 0.931 . S
H1451 C1466 0.930 . S
C1452 H1440 0.930 . S
C1452 C1453 1.399 . S
C1452 C1457 1.399 . S
C1453 C1452 1.399 . S
C1453 C1454 1.376 . S
C1454 H1441 0.930 . S
C1454 C1453 1.376 . S
C1454 C1455 1.388 . S
C1455 H1442 0.930 . S
C1455 C1454 1.388 . S
C1455 C1456 1.390 . S
C1456 C1455 1.390 . S
C1456 C1457 1.394 . S
C1456 C1462 1.465 . S
C1457 C1452 1.399 . S
C1457 C1456 1.394 . S
C1457 C1458 1.516 . S
C1458 C1457 1.516 . S
C1458 C1459 1.502 . S
C1458 C1460 1.561 . S
C1458 C1461 1.526 . S
C1459 H1443 0.959 . S
C1459 H1444 0.959 . S
C1459 H1445 0.961 . S
C1459 C1458 1.502 . S
C1460 H1446 0.960 . S
C1460 H1447 0.961 . S
C1460 H1448 0.959 . S
C1460 C1458 1.561 . S
C1461 C1458 1.526 . S
C1461 C1462 1.396 . S
C1461 C1466 1.390 . S
C1462 C1456 1.465 . S
C1462 C1461 1.396 . S
C1462 C1463 1.399 . S
C1463 H1449 0.929 . S
C1463 C1462 1.399 . S
C1463 C1464 1.385 . S
C1464 H1450 0.931 . S
C1464 C1463 1.385 . S
C1464 C1465 1.389 . S
C1465 C1464 1.389 . S
C1465 C1466 1.387 . S
C1466 H1451 0.930 . S
C1466 C1461 1.390 . S
C1466 C1465 1.387 . S
H1467 C1479 0.930 . S
H1468 C1481 0.930 . S
H1469 C1482 0.930 . S
H1470 C1486 0.959 . S
H1471 C1486 0.959 . S
H1472 C1486 0.961 1_554 S
H1473 C1487 0.960 . S
H1474 C1487 0.961 . S
H1475 C1487 0.959 1_556 S
H1476 C1490 0.929 . S
H1477 C1491 0.931 . S
H1478 C1493 0.930 . S
C1479 H1467 0.930 . S
C1479 C1480 1.399 1_554 S
C1479 C1484 1.399 1_554 S
C1480 C1479 1.399 1_556 S
C1480 C1481 1.376 . S
C1481 H1468 0.930 . S
C1481 C1480 1.376 . S
C1481 C1482 1.388 . S
C1482 H1469 0.930 . S
C1482 C1481 1.388 . S
C1482 C1483 1.390 . S
C1483 C1482 1.390 . S
C1483 C1484 1.394 . S
C1483 C1489 1.465 . S
C1484 C1479 1.399 1_556 S
C1484 C1483 1.394 . S
C1484 C1485 1.512 1_655 S
C1485 C1484 1.512 1_455 S
C1485 C1486 1.510 . S
C1485 C1487 1.557 1_456 S
C1485 C1488 1.524 1_455 S
C1486 H1470 0.959 . S
C1486 H1471 0.959 . S
C1486 H1472 0.961 1_556 S
C1486 C1485 1.510 . S
C1487 H1473 0.960 . S
C1487 H1474 0.961 . S
C1487 H1475 0.959 1_554 S
C1487 C1485 1.557 1_654 S
C1488 C1485 1.524 1_655 S
C1488 C1489 1.396 . S
C1488 C1493 1.390 1_655 S
C1489 C1483 1.465 . S
C1489 C1488 1.396 . S
C1489 C1490 1.399 . S
C1490 H1476 0.929 . S
C1490 C1489 1.399 . S
C1490 C1491 1.385 . S
C1491 H1477 0.931 . S
C1491 C1490 1.385 . S
C1491 C1492 1.389 . S
C1492 C1491 1.389 . S
C1492 C1493 1.387 1_655 S
C1493 H1478 0.930 . S
C1493 C1488 1.390 1_455 S
C1493 C1492 1.387 1_455 S
H1494 C1506 0.930 . S
H1495 C1508 0.930 . S
H1496 C1509 0.930 . S
H1497 C1513 0.959 . S
H1498 C1513 0.959 . S
H1499 C1513 0.961 . S
H1500 C1514 0.960 . S
H1501 C1514 0.961 . S
H1502 C1514 0.959 . S
H1503 C1517 0.929 . S
H1504 C1518 0.931 . S
H1505 C1520 0.930 . S
C1506 H1494 0.930 . S
C1506 C1507 1.399 . S
C1506 C1511 1.399 . S
C1507 C1506 1.399 . S
C1507 C1508 1.376 . S
C1508 H1495 0.930 . S
C1508 C1507 1.376 . S
C1508 C1509 1.388 . S
C1509 H1496 0.930 . S
C1509 C1508 1.388 . S
C1509 C1510 1.390 . S
C1510 C1509 1.390 . S
C1510 C1511 1.394 . S
C1510 C1516 1.465 . S
C1511 C1506 1.399 . S
C1511 C1510 1.394 . S
C1511 C1512 1.516 . S
C1512 C1511 1.516 . S
C1512 C1513 1.502 . S
C1512 C1514 1.561 . S
C1512 C1515 1.526 . S
C1513 H1497 0.959 . S
C1513 H1498 0.959 . S
C1513 H1499 0.961 . S
C1513 C1512 1.502 . S
C1514 H1500 0.960 . S
C1514 H1501 0.961 . S
C1514 H1502 0.959 . S
C1514 C1512 1.561 . S
C1515 C1512 1.526 . S
C1515 C1516 1.396 . S
C1515 C1520 1.390 . S
C1516 C1510 1.465 . S
C1516 C1515 1.396 . S
C1516 C1517 1.399 . S
C1517 H1503 0.929 . S
C1517 C1516 1.399 . S
C1517 C1518 1.385 . S
C1518 H1504 0.931 . S
C1518 C1517 1.385 . S
C1518 C1519 1.389 . S
C1519 C1518 1.389 . S
C1519 C1520 1.387 . S
C1520 H1505 0.930 . S
C1520 C1515 1.390 . S
C1520 C1519 1.387 . S
H1521 C1533 0.930 . S
H1522 C1535 0.943 . S
H1523 C1536 0.927 1_655 S
H1524 C1540 0.959 . S
H1525 C1540 0.959 . S
H1526 C1540 0.961 . S
H1527 C1541 0.960 . S
H1528 C1541 0.961 . S
H1529 C1541 0.959 . S
H1530 C1544 0.929 . S
H1531 C1545 0.931 . S
H1532 C1547 0.930 . S
C1533 H1521 0.930 . S
C1533 C1534 1.376 1_556 S
C1533 C1538 1.399 . S
C1534 C1533 1.376 1_554 S
C1534 C1535 1.388 . S
C1535 H1522 0.943 . S
C1535 C1534 1.388 . S
C1535 C1536 1.390 . S
C1536 H1523 0.927 1_455 S
C1536 C1535 1.390 . S
C1536 C1537 1.392 1_554 S
C1537 C1536 1.392 1_556 S
C1537 C1538 1.394 . S
C1537 C1543 1.465 . S
C1538 C1533 1.399 . S
C1538 C1537 1.394 . S
C1538 C1539 1.516 . S
C1539 C1538 1.516 . S
C1539 C1540 1.502 . S
C1539 C1541 1.561 . S
C1539 C1542 1.526 . S
C1540 H1524 0.959 . S
C1540 H1525 0.959 . S
C1540 H1526 0.961 . S
C1540 C1539 1.502 . S
C1541 H1527 0.960 . S
C1541 H1528 0.961 . S
C1541 H1529 0.959 . S
C1541 C1539 1.561 . S
C1542 C1539 1.526 . S
C1542 C1543 1.396 . S
C1542 C1547 1.390 . S
C1543 C1537 1.465 . S
C1543 C1542 1.396 . S
C1543 C1544 1.399 1_455 S
C1544 H1530 0.929 . S
C1544 C1543 1.399 1_655 S
C1544 C1545 1.385 . S
C1545 H1531 0.931 . S
C1545 C1544 1.385 . S
C1545 C1546 1.389 1_655 S
C1546 C1545 1.389 1_455 S
C1546 C1547 1.387 . S
C1547 H1532 0.930 . S
C1547 C1542 1.390 . S
C1547 C1546 1.387 . S
H1548 C1560 0.930 . S
H1549 C1562 0.930 . S
H1550 C1563 0.930 . S
H1551 C1567 0.959 . S
H1552 C1567 0.959 . S
H1553 C1567 0.961 . S
H1554 C1568 0.960 . S
H1555 C1568 0.961 . S
H1556 C1568 0.959 . S
H1557 C1571 0.929 . S
H1558 C1572 0.931 . S
H1559 C1574 0.930 . S
C1560 H1548 0.930 . S
C1560 C1561 1.399 . S
C1560 C1565 1.399 . S
C1561 C1560 1.399 . S
C1561 C1562 1.376 . S
C1562 H1549 0.930 . S
C1562 C1561 1.376 . S
C1562 C1563 1.388 . S
C1563 H1550 0.930 . S
C1563 C1562 1.388 . S
C1563 C1564 1.390 . S
C1564 C1563 1.390 . S
C1564 C1565 1.394 . S
C1564 C1570 1.465 . S
C1565 C1560 1.399 . S
C1565 C1564 1.394 . S
C1565 C1566 1.516 . S
C1566 C1565 1.516 . S
C1566 C1567 1.502 . S
C1566 C1568 1.561 . S
C1566 C1569 1.526 . S
C1567 H1551 0.959 . S
C1567 H1552 0.959 . S
C1567 H1553 0.961 . S
C1567 C1566 1.502 . S
C1568 H1554 0.960 . S
C1568 H1555 0.961 . S
C1568 H1556 0.959 . S
C1568 C1566 1.561 . S
C1569 C1566 1.526 . S
C1569 C1570 1.396 . S
C1569 C1574 1.390 . S
C1570 C1564 1.465 . S
C1570 C1569 1.396 . S
C1570 C1571 1.399 . S
C1571 H1557 0.929 . S
C1571 C1570 1.399 . S
C1571 C1572 1.385 . S
C1572 H1558 0.931 . S
C1572 C1571 1.385 . S
C1572 C1573 1.389 . S
C1573 C1572 1.389 . S
C1573 C1574 1.387 . S
C1574 H1559 0.930 . S
C1574 C1569 1.390 . S
C1574 C1573 1.387 . S
H1575 C1587 0.930 . S
H1576 C1589 0.930 . S
H1577 C1590 0.930 . S
H1578 C1594 0.959 . S
H1579 C1594 0.959 . S
H1580 C1594 0.961 . S
H1581 C1595 0.960 . S
H1582 C1595 0.961 . S
H1583 C1595 0.959 . S
H1584 C1598 0.929 . S
H1585 C1599 0.931 . S
H1586 C1601 0.930 . S
C1587 H1575 0.930 . S
C1587 C1588 1.427 . S
C1587 C1592 1.399 . S
C1588 C1587 1.427 . S
C1588 C1589 1.363 1_554 S
C1589 H1576 0.930 . S
C1589 C1588 1.363 1_556 S
C1589 C1590 1.388 . S
C1590 H1577 0.930 . S
C1590 C1589 1.388 . S
C1590 C1591 1.390 1_556 S
C1591 C1590 1.390 1_554 S
C1591 C1592 1.394 . S
C1591 C1597 1.465 . S
C1592 C1587 1.399 . S
C1592 C1591 1.394 . S
C1592 C1593 1.516 . S
C1593 C1592 1.516 . S
C1593 C1594 1.502 . S
C1593 C1595 1.561 . S
C1593 C1596 1.526 . S
C1594 H1578 0.959 . S
C1594 H1579 0.959 . S
C1594 H1580 0.961 . S
C1594 C1593 1.502 . S
C1595 H1581 0.960 . S
C1595 H1582 0.961 . S
C1595 H1583 0.959 . S
C1595 C1593 1.561 . S
C1596 C1593 1.526 . S
C1596 C1597 1.396 . S
C1596 C1601 1.390 . S
C1597 C1591 1.465 . S
C1597 C1596 1.396 . S
C1597 C1598 1.399 . S
C1598 H1584 0.929 . S
C1598 C1597 1.399 . S
C1598 C1599 1.385 . S
C1599 H1585 0.931 . S
C1599 C1598 1.385 . S
C1599 C1600 1.389 . S
C1600 C1599 1.389 . S
C1600 C1601 1.387 . S
C1601 H1586 0.930 . S
C1601 C1596 1.390 . S
C1601 C1600 1.387 . S
H1602 C1614 0.930 . S
H1603 C1616 0.930 . S
H1604 C1617 0.930 . S
H1605 C1621 0.959 . S
H1606 C1621 0.959 . S
H1607 C1621 0.961 . S
H1608 C1622 0.960 . S
H1609 C1622 0.961 . S
H1610 C1622 0.959 . S
H1611 C1625 0.929 . S
H1612 C1626 0.931 . S
H1613 C1628 0.930 . S
C1614 H1602 0.930 . S
C1614 C1615 1.399 . S
C1614 C1619 1.399 . S
C1615 C1614 1.399 . S
C1615 C1616 1.376 . S
C1616 H1603 0.930 . S
C1616 C1615 1.376 . S
C1616 C1617 1.388 . S
C1617 H1604 0.930 . S
C1617 C1616 1.388 . S
C1617 C1618 1.390 . S
C1618 C1617 1.390 . S
C1618 C1619 1.394 . S
C1618 C1624 1.465 . S
C1619 C1614 1.399 . S
C1619 C1618 1.394 . S
C1619 C1620 1.516 . S
C1620 C1619 1.516 . S
C1620 C1621 1.502 . S
C1620 C1622 1.561 . S
C1620 C1623 1.526 . S
C1621 H1605 0.959 . S
C1621 H1606 0.959 . S
C1621 H1607 0.961 . S
C1621 C1620 1.502 . S
C1622 H1608 0.960 . S
C1622 H1609 0.961 . S
C1622 H1610 0.959 . S
C1622 C1620 1.561 . S
C1623 C1620 1.526 . S
C1623 C1624 1.396 . S
C1623 C1628 1.390 . S
C1624 C1618 1.465 . S
C1624 C1623 1.396 . S
C1624 C1625 1.399 . S
C1625 H1611 0.929 . S
C1625 C1624 1.399 . S
C1625 C1626 1.385 . S
C1626 H1612 0.931 . S
C1626 C1625 1.385 . S
C1626 C1627 1.389 . S
C1627 C1626 1.389 . S
C1627 C1628 1.387 . S
C1628 H1613 0.930 . S
C1628 C1623 1.390 . S
C1628 C1627 1.387 . S
H1629 C1641 0.930 1_556 S
H1630 C1643 0.930 . S
H1631 C1644 0.930 . S
H1632 C1648 0.959 . S
H1633 C1648 0.959 . S
H1634 C1648 0.961 . S
H1635 C1649 0.960 1_556 S
H1636 C1649 0.961 . S
H1637 C1649 0.959 . S
H1638 C1652 0.929 . S
H1639 C1653 0.931 . S
H1640 C1655 0.930 . S
C1641 H1629 0.930 1_554 S
C1641 C1642 1.399 . S
C1641 C1646 1.399 . S
C1642 C1641 1.399 . S
C1642 C1643 1.376 . S
C1643 H1630 0.930 . S
C1643 C1642 1.376 . S
C1643 C1644 1.388 . S
C1644 H1631 0.930 . S
C1644 C1643 1.388 . S
C1644 C1645 1.390 . S
C1645 C1644 1.390 . S
C1645 C1646 1.394 . S
C1645 C1651 1.465 . S
C1646 C1641 1.399 . S
C1646 C1645 1.394 . S
C1646 C1647 1.516 . S
C1647 C1646 1.516 . S
C1647 C1648 1.502 . S
C1647 C1649 1.561 . S
C1647 C1650 1.526 . S
C1648 H1632 0.959 . S
C1648 H1633 0.959 . S
C1648 H1634 0.961 . S
C1648 C1647 1.502 . S
C1649 H1635 0.960 1_554 S
C1649 H1636 0.961 . S
C1649 H1637 0.959 . S
C1649 C1647 1.561 . S
C1650 C1647 1.526 . S
C1650 C1651 1.396 . S
C1650 C1655 1.390 . S
C1651 C1645 1.465 . S
C1651 C1650 1.396 . S
C1651 C1652 1.399 . S
C1652 H1638 0.929 . S
C1652 C1651 1.399 . S
C1652 C1653 1.385 . S
C1653 H1639 0.931 . S
C1653 C1652 1.385 . S
C1653 C1654 1.389 . S
C1654 C1653 1.389 . S
C1654 C1655 1.387 . S
C1655 H1640 0.930 . S
C1655 C1650 1.390 . S
C1655 C1654 1.387 . S
H1656 C1668 0.930 . S
H1657 C1670 0.930 . S
H1658 C1671 0.930 . S
H1659 C1675 0.959 . S
H1660 C1675 0.959 . S
H1661 C1675 0.961 . S
H1662 C1676 0.960 . S
H1663 C1676 0.961 . S
H1664 C1676 0.959 . S
H1665 C1679 0.929 . S
H1666 C1680 0.931 . S
H1667 C1682 0.930 . S
C1668 H1656 0.930 . S
C1668 C1669 1.399 . S
C1668 C1673 1.399 . S
C1669 C1668 1.399 . S
C1669 C1670 1.376 . S
C1670 H1657 0.930 . S
C1670 C1669 1.376 . S
C1670 C1671 1.388 . S
C1671 H1658 0.930 . S
C1671 C1670 1.388 . S
C1671 C1672 1.390 . S
C1672 C1671 1.390 . S
C1672 C1673 1.394 . S
C1672 C1678 1.465 . S
C1673 C1668 1.399 . S
C1673 C1672 1.394 . S
C1673 C1674 1.516 . S
C1674 C1673 1.516 . S
C1674 C1675 1.502 . S
C1674 C1676 1.561 . S
C1674 C1677 1.526 . S
C1675 H1659 0.959 . S
C1675 H1660 0.959 . S
C1675 H1661 0.961 . S
C1675 C1674 1.502 . S
C1676 H1662 0.960 . S
C1676 H1663 0.961 . S
C1676 H1664 0.959 . S
C1676 C1674 1.561 . S
C1677 C1674 1.526 . S
C1677 C1678 1.396 . S
C1677 C1682 1.390 . S
C1678 C1672 1.465 . S
C1678 C1677 1.396 . S
C1678 C1679 1.399 . S
C1679 H1665 0.929 . S
C1679 C1678 1.399 . S
C1679 C1680 1.385 . S
C1680 H1666 0.931 . S
C1680 C1679 1.385 . S
C1680 C1681 1.389 . S
C1681 C1680 1.389 . S
C1681 C1682 1.387 . S
C1682 H1667 0.930 . S
C1682 C1677 1.390 . S
C1682 C1681 1.387 . S
H1683 C1695 0.930 . S
H1684 C1697 0.930 . S
H1685 C1698 0.930 . S
H1686 C1702 0.959 . S
H1687 C1702 0.959 . S
H1688 C1702 0.961 . S
H1689 C1703 0.960 . S
H1690 C1703 0.961 . S
H1691 C1703 0.959 . S
H1692 C1706 0.929 . S
H1693 C1707 0.931 . S
H1694 C1709 0.930 . S
C1695 H1683 0.930 . S
C1695 C1696 1.399 . S
C1695 C1700 1.399 . S
C1696 C1695 1.399 . S
C1696 C1697 1.376 . S
C1697 H1684 0.930 . S
C1697 C1696 1.376 . S
C1697 C1698 1.388 . S
C1698 H1685 0.930 . S
C1698 C1697 1.388 . S
C1698 C1699 1.390 . S
C1699 C1698 1.390 . S
C1699 C1700 1.394 . S
C1699 C1705 1.465 . S
C1700 C1695 1.399 . S
C1700 C1699 1.394 . S
C1700 C1701 1.516 . S
C1701 C1700 1.516 . S
C1701 C1702 1.502 . S
C1701 C1703 1.561 . S
C1701 C1704 1.526 . S
C1702 H1686 0.959 . S
C1702 H1687 0.959 . S
C1702 H1688 0.961 . S
C1702 C1701 1.502 . S
C1703 H1689 0.960 . S
C1703 H1690 0.961 . S
C1703 H1691 0.959 . S
C1703 C1701 1.561 . S
C1704 C1701 1.526 . S
C1704 C1705 1.396 . S
C1704 C1709 1.390 . S
C1705 C1699 1.465 . S
C1705 C1704 1.396 . S
C1705 C1706 1.399 . S
C1706 H1692 0.929 . S
C1706 C1705 1.399 . S
C1706 C1707 1.385 . S
C1707 H1693 0.931 . S
C1707 C1706 1.385 . S
C1707 C1708 1.389 . S
C1708 C1707 1.389 . S
C1708 C1709 1.387 . S
C1709 H1694 0.930 . S
C1709 C1704 1.390 . S
C1709 C1708 1.387 . S
H1710 C1722 0.930 . S
H1711 C1724 0.930 . S
H1712 C1725 0.930 . S
H1713 C1729 0.959 . S
H1714 C1729 0.959 . S
H1715 C1729 0.961 . S
H1716 C1730 0.960 . S
H1717 C1730 0.961 . S
H1718 C1730 0.959 . S
H1719 C1733 0.929 . S
H1720 C1734 0.931 . S
H1721 C1736 0.930 . S
C1722 H1710 0.930 . S
C1722 C1723 1.399 . S
C1722 C1727 1.399 . S
C1723 C1722 1.399 . S
C1723 C1724 1.376 . S
C1724 H1711 0.930 . S
C1724 C1723 1.376 . S
C1724 C1725 1.388 . S
C1725 H1712 0.930 . S
C1725 C1724 1.388 . S
C1725 C1726 1.390 . S
C1726 C1725 1.390 . S
C1726 C1727 1.394 . S
C1726 C1732 1.465 . S
C1727 C1722 1.399 . S
C1727 C1726 1.394 . S
C1727 C1728 1.516 . S
C1728 C1727 1.516 . S
C1728 C1729 1.502 . S
C1728 C1730 1.561 . S
C1728 C1731 1.526 . S
C1729 H1713 0.959 . S
C1729 H1714 0.959 . S
C1729 H1715 0.961 . S
C1729 C1728 1.502 . S
C1730 H1716 0.960 . S
C1730 H1717 0.961 . S
C1730 H1718 0.959 . S
C1730 C1728 1.561 . S
C1731 C1728 1.526 . S
C1731 C1732 1.396 . S
C1731 C1736 1.390 . S
C1732 C1726 1.465 . S
C1732 C1731 1.396 . S
C1732 C1733 1.399 . S
C1733 H1719 0.929 . S
C1733 C1732 1.399 . S
C1733 C1734 1.385 . S
C1734 H1720 0.931 . S
C1734 C1733 1.385 . S
C1734 C1735 1.389 . S
C1735 C1734 1.389 . S
C1735 C1736 1.387 . S
C1736 H1721 0.930 . S
C1736 C1731 1.390 . S
C1736 C1735 1.387 . S
H1737 C1749 0.930 . S
H1738 C1751 0.930 . S
H1739 C1752 0.930 . S
H1740 C1756 0.959 . S
H1741 C1756 0.959 . S
H1742 C1756 0.961 . S
H1743 C1757 0.960 . S
H1744 C1757 0.961 . S
H1745 C1757 0.959 . S
H1746 C1760 0.929 . S
H1747 C1761 0.931 . S
H1748 C1763 0.930 . S
C1749 H1737 0.930 . S
C1749 C1750 1.399 . S
C1749 C1754 1.399 . S
C1750 C1749 1.399 . S
C1750 C1751 1.376 . S
C1751 H1738 0.930 . S
C1751 C1750 1.376 . S
C1751 C1752 1.388 . S
C1752 H1739 0.930 . S
C1752 C1751 1.388 . S
C1752 C1753 1.390 . S
C1753 C1752 1.390 . S
C1753 C1754 1.394 . S
C1753 C1759 1.465 . S
C1754 C1749 1.399 . S
C1754 C1753 1.394 . S
C1754 C1755 1.516 . S
C1755 C1754 1.516 . S
C1755 C1756 1.502 . S
C1755 C1757 1.561 . S
C1755 C1758 1.526 . S
C1756 H1740 0.959 . S
C1756 H1741 0.959 . S
C1756 H1742 0.961 . S
C1756 C1755 1.502 . S
C1757 H1743 0.960 . S
C1757 H1744 0.961 . S
C1757 H1745 0.959 . S
C1757 C1755 1.561 . S
C1758 C1755 1.526 . S
C1758 C1759 1.396 . S
C1758 C1763 1.390 . S
C1759 C1753 1.465 . S
C1759 C1758 1.396 . S
C1759 C1760 1.399 . S
C1760 H1746 0.929 . S
C1760 C1759 1.399 . S
C1760 C1761 1.385 . S
C1761 H1747 0.931 . S
C1761 C1760 1.385 . S
C1761 C1762 1.389 . S
C1762 C1761 1.389 . S
C1762 C1763 1.387 . S
C1763 H1748 0.930 . S
C1763 C1758 1.390 . S
C1763 C1762 1.387 . S
H1764 C1776 0.930 . S
H1765 C1778 0.930 1_554 S
H1766 C1779 0.930 . S
H1767 C1783 0.959 . S
H1768 C1783 0.959 . S
H1769 C1783 0.961 . S
H1770 C1784 0.960 . S
H1771 C1784 0.961 . S
H1772 C1784 0.959 . S
H1773 C1787 0.929 . S
H1774 C1788 0.931 . S
H1775 C1790 0.930 . S
C1776 H1764 0.930 . S
C1776 C1777 1.399 . S
C1776 C1781 1.399 . S
C1777 C1776 1.399 . S
C1777 C1778 1.376 . S
C1778 H1765 0.930 1_556 S
C1778 C1777 1.376 . S
C1778 C1779 1.388 1_556 S
C1779 H1766 0.930 . S
C1779 C1778 1.388 1_554 S
C1779 C1780 1.390 1_554 S
C1780 C1779 1.390 1_556 S
C1780 C1781 1.394 . S
C1780 C1786 1.465 . S
C1781 C1776 1.399 . S
C1781 C1780 1.394 . S
C1781 C1782 1.516 . S
C1782 C1781 1.516 . S
C1782 C1783 1.502 . S
C1782 C1784 1.561 . S
C1782 C1785 1.526 . S
C1783 H1767 0.959 . S
C1783 H1768 0.959 . S
C1783 H1769 0.961 . S
C1783 C1782 1.502 . S
C1784 H1770 0.960 . S
C1784 H1771 0.961 . S
C1784 H1772 0.959 . S
C1784 C1782 1.561 . S
C1785 C1782 1.526 . S
C1785 C1786 1.396 . S
C1785 C1790 1.390 . S
C1786 C1780 1.465 . S
C1786 C1785 1.396 . S
C1786 C1787 1.399 1_556 S
C1787 H1773 0.929 . S
C1787 C1786 1.399 1_554 S
C1787 C1788 1.385 . S
C1788 H1774 0.931 . S
C1788 C1787 1.385 . S
C1788 C1789 1.389 1_554 S
C1789 C1788 1.389 1_556 S
C1789 C1790 1.387 . S
C1790 H1775 0.930 . S
C1790 C1785 1.390 . S
C1790 C1789 1.387 . S
H1791 C1803 0.930 . S
H1792 C1805 0.930 . S
H1793 C1806 0.930 . S
H1794 C1810 0.959 . S
H1795 C1810 0.959 . S
H1796 C1810 0.961 . S
H1797 C1811 0.960 . S
H1798 C1811 0.961 . S
H1799 C1811 0.959 . S
H1800 C1814 0.929 . S
H1801 C1815 0.931 . S
H1802 C1817 0.930 . S
C1803 H1791 0.930 . S
C1803 C1804 1.399 . S
C1803 C1808 1.399 . S
C1804 C1803 1.399 . S
C1804 C1805 1.376 . S
C1805 H1792 0.930 . S
C1805 C1804 1.376 . S
C1805 C1806 1.388 . S
C1806 H1793 0.930 . S
C1806 C1805 1.388 . S
C1806 C1807 1.390 . S
C1807 C1806 1.390 . S
C1807 C1808 1.394 . S
C1807 C1813 1.465 . S
C1808 C1803 1.399 . S
C1808 C1807 1.394 . S
C1808 C1809 1.516 . S
C1809 C1808 1.516 . S
C1809 C1810 1.502 . S
C1809 C1811 1.561 . S
C1809 C1812 1.526 . S
C1810 H1794 0.959 . S
C1810 H1795 0.959 . S
C1810 H1796 0.961 . S
C1810 C1809 1.502 . S
C1811 H1797 0.960 . S
C1811 H1798 0.961 . S
C1811 H1799 0.959 . S
C1811 C1809 1.561 . S
C1812 C1809 1.526 . S
C1812 C1813 1.396 . S
C1812 C1817 1.390 . S
C1813 C1807 1.465 . S
C1813 C1812 1.396 . S
C1813 C1814 1.399 . S
C1814 H1800 0.929 . S
C1814 C1813 1.399 . S
C1814 C1815 1.385 . S
C1815 H1801 0.931 . S
C1815 C1814 1.385 . S
C1815 C1816 1.389 . S
C1816 C1815 1.389 . S
C1816 C1817 1.387 . S
C1817 H1802 0.930 . S
C1817 C1812 1.390 . S
C1817 C1816 1.387 . S
H1818 C1830 0.930 . S
H1819 C1832 0.930 . S
H1820 C1833 0.930 . S
H1821 C1837 0.959 . S
H1822 C1837 0.959 . S
H1823 C1837 0.961 . S
H1824 C1838 0.960 . S
H1825 C1838 0.961 . S
H1826 C1838 0.959 . S
H1827 C1841 0.929 . S
H1828 C1842 0.931 . S
H1829 C1844 0.930 . S
C1830 H1818 0.930 . S
C1830 C1831 1.399 . S
C1830 C1835 1.399 . S
C1831 C1830 1.399 . S
C1831 C1832 1.376 1_554 S
C1832 H1819 0.930 . S
C1832 C1831 1.376 1_556 S
C1832 C1833 1.388 . S
C1833 H1820 0.930 . S
C1833 C1832 1.388 . S
C1833 C1834 1.390 1_556 S
C1834 C1833 1.390 1_554 S
C1834 C1835 1.394 . S
C1834 C1840 1.465 . S
C1835 C1830 1.399 . S
C1835 C1834 1.394 . S
C1835 C1836 1.516 . S
C1836 C1835 1.516 . S
C1836 C1837 1.502 . S
C1836 C1838 1.561 . S
C1836 C1839 1.526 . S
C1837 H1821 0.959 . S
C1837 H1822 0.959 . S
C1837 H1823 0.961 . S
C1837 C1836 1.502 . S
C1838 H1824 0.960 . S
C1838 H1825 0.961 . S
C1838 H1826 0.959 . S
C1838 C1836 1.561 . S
C1839 C1836 1.526 . S
C1839 C1840 1.396 . S
C1839 C1844 1.390 . S
C1840 C1834 1.465 . S
C1840 C1839 1.396 . S
C1840 C1841 1.399 1_554 S
C1841 H1827 0.929 . S
C1841 C1840 1.399 1_556 S
C1841 C1842 1.385 . S
C1842 H1828 0.931 . S
C1842 C1841 1.385 . S
C1842 C1843 1.389 1_556 S
C1843 C1842 1.389 1_554 S
C1843 C1844 1.387 . S
C1844 H1829 0.930 . S
C1844 C1839 1.390 . S
C1844 C1843 1.387 . S
H1845 C1857 0.930 . S
H1846 C1859 0.930 . S
H1847 C1860 0.930 . S
H1848 C1864 0.959 . S
H1849 C1864 0.959 . S
H1850 C1864 0.961 . S
H1851 C1865 0.960 . S
H1852 C1865 0.961 . S
H1853 C1865 0.959 . S
H1854 C1868 0.929 . S
H1855 C1869 0.931 . S
H1856 C1871 0.930 . S
C1857 H1845 0.930 . S
C1857 C1858 1.399 . S
C1857 C1862 1.399 . S
C1858 C1857 1.399 . S
C1858 C1859 1.376 1_554 S
C1859 H1846 0.930 . S
C1859 C1858 1.376 1_556 S
C1859 C1860 1.388 . S
C1860 H1847 0.930 . S
C1860 C1859 1.388 . S
C1860 C1861 1.390 1_556 S
C1861 C1860 1.390 1_554 S
C1861 C1862 1.394 . S
C1861 C1867 1.465 . S
C1862 C1857 1.399 . S
C1862 C1861 1.394 . S
C1862 C1863 1.516 . S
C1863 C1862 1.516 . S
C1863 C1864 1.502 . S
C1863 C1865 1.561 . S
C1863 C1866 1.526 . S
C1864 H1848 0.959 . S
C1864 H1849 0.959 . S
C1864 H1850 0.961 . S
C1864 C1863 1.502 . S
C1865 H1851 0.960 . S
C1865 H1852 0.961 . S
C1865 H1853 0.959 . S
C1865 C1863 1.561 . S
C1866 C1863 1.526 . S
C1866 C1867 1.396 . S
C1866 C1871 1.390 . S
C1867 C1861 1.465 . S
C1867 C1866 1.396 . S
C1867 C1868 1.399 1_554 S
C1868 H1854 0.929 . S
C1868 C1867 1.399 1_556 S
C1868 C1869 1.385 . S
C1869 H1855 0.931 . S
C1869 C1868 1.385 . S
C1869 C1870 1.389 1_556 S
C1870 C1869 1.389 1_554 S
C1870 C1871 1.387 . S
C1871 H1856 0.930 . S
C1871 C1866 1.390 . S
C1871 C1870 1.387 . S
C601 C146 1.406 . S
C589 C50 1.442 . S
C628 C194 1.543 . S
C616 C61 1.625 1_455 S
C643 C67 1.439 . S
C655 C230 1.326 . S
C682 C266 1.567 1_545 S
C670 C41 1.588 . S
C709 C292 1.424 . S
C697 C95 1.445 . S
C736 C328 1.565 . S
C724 C113 1.548 . S
C751 C106 1.478 . S
C763 C363 1.470 . S
C790 C400 1.586 1_565 S
C778 C86 1.584 . S
C805 C104 1.426 . S
C817 C434 1.416 . S
C844 C482 1.508 . S
C832 C88 1.567 . S
C859 C94 1.429 . S
C871 C435 1.430 . S
C898 C472 1.570 . S
C886 C112 1.568 . S
C913 C70 1.439 . S
C925 C518 1.372 . S
C940 C40 1.596 . S
C952 C507 1.603 . S
C967 C49 1.471 . S
C979 C508 1.472 . S
C994 C59 1.622 . S
C1006 C506 1.621 1_655 S
C1021 C34 1.422 . S
C1033 C254 1.397 . S
C1048 C133 1.422 . S
C1060 C255 1.414 . S
C1087 C158 1.529 . S
C1075 C139 1.610 . S
C1114 C183 1.461 . S
C1102 C77 1.470 . S
C1129 C43 1.592 1_545 S
C1141 C290 1.573 . S
C1168 C398 1.449 . S
C1156 C103 1.455 . S
C1195 C291 1.583 . S
C1183 C85 1.576 1_545 S
C1222 C364 1.558 . S
C1210 C115 1.576 . S
C1249 C362 1.409 . S
C1237 C131 1.444 . S
C1264 C142 1.626 . S
C1276 C410 1.546 . S
C1291 C76 1.434 . S
C1303 C302 1.322 . S
C1330 C338 1.566 . S
C1318 C122 1.589 . S
C1345 C32 1.418 . S
C1357 C220 1.447 . S
C1384 C256 1.564 . S
C1372 C5 1.548 . S
C1411 C147 1.473 . S
C1399 C16 1.450 . S
C1438 C184 1.591 . S
C1426 C23 1.585 1_455 S
C1453 C14 1.423 . S
C1465 C470 1.421 . S
C1480 C25 1.577 1_556 S
C1492 C446 1.520 . S
C1507 C31 1.414 . S
C1519 C471 1.437 . S
C1534 C4 1.585 . S
C1546 C436 1.568 . S
C1573 C554 1.403 . S
C1561 C79 1.457 . S
C1600 C543 1.603 . S
C1588 C121 1.581 1_554 S
C1627 C544 1.465 . S
C1615 C130 1.479 . S
C1642 C140 1.620 1_554 S
C1654 C542 1.623 . S
C1669 C97 1.417 . S
C1681 C326 1.403 . S
C1708 C327 1.426 . S
C1696 C52 1.420 . S
C1735 C374 1.584 . S
C1723 C58 1.616 . S
C1762 C399 1.461 . S
C1750 C68 1.459 . S
C1777 C124 1.593 . S
C1789 C218 1.571 1_556 S
C1816 C182 1.475 . S
C1804 C13 1.449 . S
C1831 C22 1.579 . S
C1843 C219 1.576 . S
C1870 C148 1.559 . S
C1858 C7 1.576 1_565 S
