# Generated by pormake.
# Topology tsx, (6,3)-cn, num edge types: 1
# Building blocks:
#     Node 0, Type 0, BuildingBlock: MIDCAF_clean_sbu_0, # of connection points: 6
#     Node 1, Type 0, BuildingBlock: MIDCAF_clean_sbu_0, # of connection points: 6
#     Node 2, Type 1, BuildingBlock: BETDIP_clean_linker_0, # of connection points: 3
#     Node 3, Type 1, BuildingBlock: BETDIP_clean_linker_0, # of connection points: 3
#     Node 4, Type 1, BuildingBlock: BETDIP_clean_linker_0, # of connection points: 3
#     Node 5, Type 1, BuildingBlock: BETDIP_clean_linker_0, # of connection points: 3
#     Edge 6, Type (0, 1), BuildingBlock: MIFKUJ_clean_linker_0, # of connection points: 2
#     Edge 7, Type (0, 1), BuildingBlock: MIFKUJ_clean_linker_0, # of connection points: 2
#     Edge 8, Type (0, 1), BuildingBlock: MIFKUJ_clean_linker_0, # of connection points: 2
#     Edge 9, Type (0, 1), BuildingBlock: MIFKUJ_clean_linker_0, # of connection points: 2
#     Edge 10, Type (0, 1), BuildingBlock: MIFKUJ_clean_linker_0, # of connection points: 2
#     Edge 11, Type (0, 1), BuildingBlock: MIFKUJ_clean_linker_0, # of connection points: 2
#     Edge 12, Type (0, 1), BuildingBlock: MIFKUJ_clean_linker_0, # of connection points: 2
#     Edge 13, Type (0, 1), BuildingBlock: MIFKUJ_clean_linker_0, # of connection points: 2
#     Edge 14, Type (0, 1), BuildingBlock: MIFKUJ_clean_linker_0, # of connection points: 2
#     Edge 15, Type (0, 1), BuildingBlock: MIFKUJ_clean_linker_0, # of connection points: 2
#     Edge 16, Type (0, 1), BuildingBlock: MIFKUJ_clean_linker_0, # of connection points: 2
#     Edge 17, Type (0, 1), BuildingBlock: MIFKUJ_clean_linker_0, # of connection points: 2
# Relax obj value: 0.083
# Max RMSD: 0.150
# Mean RMSD: 0.115
data_MOF--net-tsx--node1-MIDCAF_clean_sbu_0--node2-BETDIP_clean_linker_0--edge1-MIFKUJ_clean_linker_0
_symmetry_space_group_name_H-M    P1
_symmetry_Int_Tables_number       1
_symmetry_cell_setting            triclinic
loop_
_symmetry_equiv_pos_as_xyz
'x, y, z'
_cell_length_a     26.243987
_cell_length_b     26.861506
_cell_length_c     46.236714
_cell_angle_alpha  90.346373
_cell_angle_beta   103.41351
_cell_angle_gamma 89.94783
loop_
_atom_site_label
_atom_site_type_symbol
_atom_site_fract_x
_atom_site_fract_y
_atom_site_fract_z
_atom_type_partial_charge
Zn0 Zn 0.96224 0.01971 0.96766 0.0
Zn1 Zn 0.13523 0.02462 0.05314 0.0
Zn2 Zn 0.04984 0.02471 0.0095 0.0
C3 C 0.11201 0.12437 0.03722 0.0
C4 C 0.15991 0.97078 0.00657 0.0
O5 O 0.98814 0.98432 0.02609 0.0
O6 O 0.91626 0.98616 0.98988 0.0
C7 C 0.9855 0.12106 0.97903 0.0
O8 O 0.0743 0.10367 0.01804 0.0
O9 O 0.14309 0.09802 0.05597 0.0
O10 O 0.18074 0.98697 0.03227 0.0
O11 O 0.1117 0.98129 0.99445 0.0
O12 O 0.95391 0.09249 0.96186 0.0
O13 O 0.0242 0.10271 0.99848 0.0
O14 O 0.06781 0.98698 0.97034 0.0
O15 O 0.99073 0.98087 0.93858 0.0
C16 C 0.03951 0.97317 0.94491 0.0
O17 O 0.03237 0.99001 0.04951 0.0
O18 O 0.10726 0.98893 0.08345 0.0
C19 C 0.93942 0.97331 0.01579 0.0
C20 C 0.05901 0.97899 0.07578 0.0
Zn21 Zn 0.64214 0.51549 0.55366 0.0
Zn22 Zn 0.46507 0.51986 0.47039 0.0
Zn23 Zn 0.55533 0.51817 0.51079 0.0
C24 C 0.53874 0.47214 0.44464 0.0
C25 C 0.495 0.61865 0.48342 0.0
O26 O 0.53846 0.48234 0.5507 0.0
O27 O 0.61413 0.48001 0.58392 0.0
C28 C 0.66206 0.46253 0.50504 0.0
O29 O 0.56925 0.48236 0.47011 0.0
O30 O 0.49055 0.48246 0.43969 0.0
O31 O 0.46016 0.59304 0.46633 0.0
O32 O 0.53317 0.59716 0.50166 0.0
O33 O 0.68413 0.47713 0.53091 0.0
O34 O 0.61402 0.47445 0.49358 0.0
O35 O 0.58283 0.59577 0.52103 0.0
O36 O 0.65304 0.58842 0.55797 0.0
C37 C 0.62146 0.61554 0.54001 0.0
O38 O 0.49376 0.47815 0.5273 0.0
O39 O 0.41984 0.48581 0.49291 0.0
C40 C 0.56569 0.47077 0.57674 0.0
C41 C 0.44433 0.46951 0.51779 0.0
H42 H 0.10269 0.00843 0.45698 0.0
H43 H 0.98861 0.03155 0.3756 0.0
H44 H 0.11973 0.93369 0.37739 0.0
H45 H 0.02349 0.11996 0.39962 0.0
C46 C 0.00515 0.10845 0.41733 0.0
C47 C 0.08847 1.00041 0.43349 0.0
C48 C 0.11526 0.96654 0.41913 0.0
C49 C 0.04389 0.0249 0.41738 0.0
C50 C 0.02463 0.01394 0.38711 0.0
C51 C 0.05122 0.98086 0.37204 0.0
C52 C 0.09694 0.95766 0.38846 0.0
N53 N 0.01921 0.06191 0.43135 0.0
H54 H 0.98532 0.04315 0.56167 0.0
H55 H 0.08432 0.07992 0.64689 0.0
H56 H 0.97357 0.95989 0.63913 0.0
H57 H 0.05358 0.16449 0.62008 0.0
C58 C 0.07452 0.15115 0.60384 0.0
C59 C 0.99793 0.03622 0.58532 0.0
C60 C 0.97507 0.99758 0.59831 0.0
C61 C 0.03678 0.06636 0.60291 0.0
C62 C 0.05327 0.0574 0.63355 0.0
C63 C 0.03125 0.01863 0.64684 0.0
C64 C 0.99213 0.98891 0.62899 0.0
N65 N 0.06045 0.10458 0.58951 0.0
H66 H 0.58399 0.51356 0.95503 0.0
H67 H 0.46781 0.52244 0.87269 0.0
H68 H 0.61167 0.44397 0.87583 0.0
H69 H 0.54454 0.5905 0.9623 0.0
C70 C 0.50343 0.5862 0.95135 0.0
C71 C 0.5713 0.50493 0.93155 0.0
C72 C 0.60385 0.47646 0.91747 0.0
C73 C 0.52226 0.52179 0.91516 0.0
C74 C 0.50576 0.50952 0.88503 0.0
C75 C 0.53797 0.48216 0.87052 0.0
C76 C 0.58675 0.46543 0.88693 0.0
N77 N 0.488 0.55121 0.92782 0.0
H78 H 0.48143 0.54799 0.06286 0.0
H79 H 0.58334 0.57561 0.14854 0.0
H80 H 0.46145 0.46534 0.13881 0.0
H81 H 0.5523 0.66353 0.12029 0.0
C82 C 0.57517 0.64934 0.10521 0.0
C83 C 0.49345 0.53953 0.08635 0.0
C84 C 0.46517 0.50477 0.09902 0.0
C85 C 0.53557 0.56552 0.10433 0.0
C86 C 0.55086 0.55521 0.13487 0.0
C87 C 0.52471 0.51879 0.14767 0.0
C88 C 0.48176 0.49398 0.12946 0.0
N89 N 0.56271 0.60195 0.09162 0.0
H90 H 0.09492 0.18554 0.98842 0.0
H91 H 0.13897 0.26558 0.98551 0.0
H92 H 0.2027 0.26249 0.08019 0.0
H93 H 0.15901 0.18338 0.08329 0.0
H94 H 0.15628 0.36803 0.02515 0.0
H95 H 0.33317 0.25083 0.0809 0.0
H96 H 0.36073 0.16278 0.08379 0.0
H97 H 0.2677 0.13668 0.99557 0.0
H98 H 0.24042 0.22476 0.99197 0.0
H99 H 0.37021 0.49665 0.11255 0.0
H100 H 0.29567 0.4461 0.08742 0.0
H101 H 0.37787 0.40541 0.02007 0.0
H102 H 0.45316 0.45608 0.04548 0.0
H103 H 0.34523 0.32524 0.0442 0.0
H104 H 0.26521 0.47231 0.00095 0.0
H105 H 0.2362 0.55981 0.99813 0.0
H106 H 0.13574 0.52891 0.05707 0.0
H107 H 0.16474 0.44138 0.06067 0.0
C108 C 0.11647 0.20306 0.00873 0.0
C109 C 0.12409 0.17799 0.03604 0.0
C110 C 0.14165 0.24871 0.00703 0.0
C111 C 0.17449 0.26949 0.03261 0.0
C112 C 0.17764 0.24692 0.06021 0.0
C113 C 0.15275 0.20162 0.06191 0.0
C114 C 0.21292 0.30892 0.03059 0.0
C115 C 0.19757 0.35902 0.02888 0.0
C116 C 0.26656 0.29679 0.03475 0.0
C117 C 0.28449 0.24427 0.03626 0.0
C118 C 0.31895 0.22637 0.06204 0.0
C119 C 0.33446 0.17645 0.06382 0.0
C120 C 0.31587 0.14412 0.03991 0.0
C121 C 0.28196 0.16171 0.0141 0.0
C122 C 0.26644 0.21162 0.01219 0.0
C123 C 0.37206 0.47755 0.09212 0.0
C124 C 0.41765 0.47981 0.08112 0.0
C125 C 0.32919 0.44908 0.07758 0.0
C126 C 0.3309 0.42218 0.0517 0.0
C127 C 0.37555 0.42609 0.03991 0.0
C128 C 0.41846 0.45505 0.05438 0.0
C129 C 0.28918 0.38507 0.03976 0.0
C130 C 0.30398 0.33493 0.03933 0.0
C131 C 0.23517 0.39748 0.03321 0.0
C132 C 0.21739 0.45017 0.03117 0.0
C133 C 0.23722 0.4842 0.0135 0.0
C134 C 0.22072 0.53383 0.01173 0.0
C135 C 0.18419 0.54992 0.02743 0.0
C136 C 0.16402 0.51638 0.0449 0.0
C137 C 0.18042 0.46671 0.04677 0.0
H138 H 0.17147 0.58837 0.02602 0.0
H139 H 0.3278 0.10546 0.04136 0.0
H140 H 0.12516 0.89319 0.96797 0.0
H141 H 0.17922 0.82827 0.95242 0.0
H142 H 0.31888 0.90426 0.99971 0.0
H143 H 0.26538 0.96964 0.01428 0.0
H144 H 0.33573 0.8655 0.95073 0.0
H145 H 0.26059 0.80881 0.03055 0.0
H146 H 0.18987 0.78692 0.05519 0.0
H147 H 0.13155 0.67786 0.98733 0.0
H148 H 0.20136 0.69982 0.96195 0.0
H149 H 0.52351 0.6714 0.98418 0.0
H150 H 0.46135 0.73749 0.98913 0.0
H151 H 0.33526 0.65233 0.93464 0.0
H152 H 0.39685 0.58631 0.92978 0.0
H153 H 0.30705 0.69374 0.98251 0.0
H154 H 0.38744 0.74775 0.90479 0.0
H155 H 0.46127 0.76824 0.88231 0.0
H156 H 0.51271 0.88126 0.94871 0.0
H157 H 0.43957 0.86098 0.97185 0.0
C158 C 0.16737 0.89685 0.97413 0.0
C159 C 0.19103 0.93655 0.99228 0.0
C160 C 0.19826 0.85938 0.96562 0.0
C161 C 0.25318 0.86083 0.9754 0.0
C162 C 0.27668 0.90209 0.99196 0.0
C163 C 0.24599 0.93943 0.00035 0.0
C164 C 0.28658 0.81837 0.97029 0.0
C165 C 0.32953 0.82802 0.95783 0.0
C166 C 0.2782 0.76915 0.9791 0.0
C167 C 0.23572 0.75652 0.9941 0.0
C168 C 0.23231 0.7806 0.02068 0.0
C169 C 0.19244 0.76811 0.03481 0.0
C170 C 0.1561 0.73118 0.02276 0.0
C171 C 0.15959 0.70661 0.99657 0.0
C172 C 0.19926 0.7191 0.98228 0.0
C173 C 0.48245 0.66671 0.97349 0.0
C174 C 0.46517 0.62397 0.95642 0.0
C175 C 0.44706 0.70455 0.97616 0.0
C176 C 0.39378 0.70017 0.96184 0.0
C177 C 0.37619 0.65663 0.94572 0.0
C178 C 0.41154 0.61897 0.94292 0.0
C179 C 0.35641 0.74115 0.96336 0.0
C180 C 0.31281 0.73115 0.97513 0.0
C181 C 0.36441 0.7901 0.95416 0.0
C182 C 0.40828 0.80253 0.9402 0.0
C183 C 0.41472 0.77672 0.91473 0.0
C184 C 0.45641 0.78834 0.90185 0.0
C185 C 0.49173 0.82595 0.91412 0.0
C186 C 0.48536 0.8521 0.93925 0.0
C187 C 0.44376 0.84059 0.95224 0.0
H188 H 0.52398 0.83489 0.90411 0.0
H189 H 0.12534 0.72148 0.03378 0.0
H190 H 0.97221 0.89014 0.04848 0.0
H191 H 0.91756 0.83349 0.0701 0.0
H192 H 0.78636 0.93315 0.04353 0.0
H193 H 0.84027 0.98905 0.02134 0.0
H194 H 0.8075 0.88359 0.10602 0.0
H195 H 0.78466 0.85257 0.99846 0.0
H196 H 0.81998 0.83245 0.95479 0.0
H197 H 0.88744 0.69784 0.9967 0.0
H198 H 0.85329 0.71772 0.04088 0.0
H199 H 0.57974 0.74977 0.10698 0.0
H200 H 0.64844 0.80344 0.09674 0.0
H201 H 0.73494 0.67355 0.08017 0.0
H202 H 0.66391 0.62016 0.08815 0.0
H203 H 0.7469 0.73464 0.04353 0.0
H204 H 0.77075 0.75183 0.14709 0.0
H205 H 0.74916 0.76553 0.19566 0.0
H206 H 0.69927 0.91451 0.17031 0.0
H207 H 0.71993 0.90149 0.12141 0.0
C208 C 0.93206 0.90035 0.04792 0.0
C209 C 0.91023 0.94375 0.03329 0.0
C210 C 0.90095 0.86802 0.06014 0.0
C211 C 0.84799 0.8792 0.05819 0.0
C212 C 0.82719 0.92405 0.04526 0.0
C213 C 0.85788 0.95578 0.03254 0.0
C214 C 0.81264 0.84229 0.06689 0.0
C215 C 0.79373 0.85113 0.09237 0.0
C216 C 0.79694 0.79891 0.04974 0.0
C217 C 0.81703 0.78695 0.02309 0.0
C218 C 0.80751 0.81898 0.99849 0.0
C219 C 0.82723 0.80757 0.97363 0.0
C220 C 0.85611 0.76399 0.97301 0.0
C221 C 0.8652 0.73166 0.99724 0.0
C222 C 0.84568 0.74298 0.02219 0.0
C223 C 0.61336 0.73287 0.10094 0.0
C224 C 0.61656 0.68104 0.09819 0.0
C225 C 0.65306 0.76349 0.0955 0.0
C226 C 0.69798 0.7428 0.08844 0.0
C227 C 0.70095 0.69071 0.0856 0.0
C228 C 0.66035 0.66014 0.09013 0.0
C229 C 0.74058 0.77565 0.08289 0.0
C230 C 0.76072 0.76647 0.05772 0.0
C231 C 0.75938 0.81746 0.10122 0.0
C232 C 0.74637 0.82547 0.13046 0.0
C233 C 0.75473 0.78736 0.15177 0.0
C234 C 0.74276 0.79504 0.17938 0.0
C235 C 0.72272 0.84081 0.18603 0.0
C236 C 0.71473 0.87905 0.16511 0.0
C237 C 0.72662 0.87156 0.13745 0.0
H238 H 0.71349 0.84669 0.20743 0.0
H239 H 0.87131 0.75521 0.95374 0.0
H240 H 1.00097 0.18722 0.02583 0.0
H241 H 0.95282 0.26566 0.02652 0.0
H242 H 0.88929 0.25228 0.93211 0.0
H243 H 0.93716 0.17471 0.93119 0.0
H244 H 0.92741 0.36429 0.98357 0.0
H245 H 0.7603 0.2326 0.933 0.0
H246 H 0.73998 0.14283 0.93245 0.0
H247 H 0.83565 0.12861 0.02094 0.0
H248 H 0.85565 0.21843 0.02219 0.0
H249 H 0.69747 0.47877 0.90123 0.0
H250 H 0.77756 0.43399 0.92396 0.0
H251 H 0.707 0.38478 0.99433 0.0
H252 H 0.62606 0.42887 0.97119 0.0
H253 H 0.7429 0.3084 0.96936 0.0
H254 H 0.8148 0.46227 0.00914 0.0
H255 H 0.83723 0.55142 0.00977 0.0
H256 H 0.9323 0.5242 0.94725 0.0
H257 H 0.90981 0.43499 0.94585 0.0
C258 C 0.97874 0.20231 0.00503 0.0
C259 C 0.97228 0.17463 0.9785 0.0
C260 C 0.95118 0.24705 0.00548 0.0
C261 C 0.9171 0.26431 0.9794 0.0
C262 C 0.91531 0.23948 0.95245 0.0
C263 C 0.94261 0.19508 0.95199 0.0
C264 C 0.87581 0.30142 0.98059 0.0
C265 C 0.88707 0.35245 0.98083 0.0
C266 C 0.82346 0.28567 0.97764 0.0
C267 C 0.80978 0.23209 0.97758 0.0
C268 C 0.77664 0.21035 0.95241 0.0
C269 C 0.76524 0.15947 0.95196 0.0
C270 C 0.78664 0.13001 0.97661 0.0
C271 C 0.81922 0.15143 0.00183 0.0
C272 C 0.83062 0.20231 0.00241 0.0
C273 C 0.69929 0.45904 0.92181 0.0
C274 C 0.65522 0.45684 0.93423 0.0
C275 C 0.74537 0.43387 0.93499 0.0
C276 C 0.74857 0.40609 0.96098 0.0
C277 C 0.70556 0.40606 0.97433 0.0
C278 C 0.6594 0.43144 0.96117 0.0
C279 C 0.79378 0.37204 0.97161 0.0
C280 C 0.78318 0.32103 0.97311 0.0
C281 C 0.84661 0.38816 0.97658 0.0
C282 C 0.86034 0.44186 0.97728 0.0
C283 C 0.84017 0.47531 0.99534 0.0
C284 C 0.85295 0.52588 0.99586 0.0
C285 C 0.88611 0.54348 0.97853 0.0
C286 C 0.90662 0.51052 0.96067 0.0
C287 C 0.89393 0.45991 0.96004 0.0
H288 H 0.89596 0.58265 0.97897 0.0
H289 H 0.7779 0.0906 0.97619 0.0
H290 H 0.605 0.67753 0.49186 0.0
H291 H 0.64523 0.75963 0.49016 0.0
H292 H 0.7068 0.75498 0.58511 0.0
H293 H 0.66642 0.67378 0.58692 0.0
H294 H 0.68298 0.85037 0.5662 0.0
H295 H 0.77638 0.70426 0.5383 0.0
H296 H 0.77992 0.63158 0.50589 0.0
H297 H 0.75089 0.72647 0.42939 0.0
H298 H 0.74676 0.79965 0.46141 0.0
H299 H 0.96977 0.89667 0.59522 0.0
H300 H 0.89384 0.84553 0.57247 0.0
H301 H 0.80681 0.97777 0.53933 0.0
H302 H 0.88329 0.02927 0.562 0.0
H303 H 0.82896 0.83218 0.51522 0.0
H304 H 0.68293 0.95719 0.55435 0.0
H305 H 0.68097 0.02545 0.5901 0.0
H306 H 0.8198 0.9676 0.64844 0.0
H307 H 0.82208 0.89872 0.61323 0.0
C308 C 0.62535 0.69502 0.51247 0.0
C309 C 0.63305 0.66923 0.53951 0.0
C310 C 0.64857 0.74175 0.51145 0.0
C311 C 0.67971 0.76305 0.53746 0.0
C312 C 0.68303 0.73931 0.56477 0.0
C313 C 0.66017 0.69275 0.56577 0.0
C314 C 0.71562 0.80526 0.53632 0.0
C315 C 0.71411 0.84709 0.55443 0.0
C316 C 0.75657 0.80085 0.52118 0.0
C317 C 0.76085 0.75723 0.50215 0.0
C318 C 0.77073 0.70954 0.51456 0.0
C319 C 0.77279 0.6683 0.49627 0.0
C320 C 0.76551 0.6744 0.46559 0.0
C321 C 0.75646 0.72181 0.45315 0.0
C322 C 0.7543 0.76317 0.47135 0.0
C323 C 0.93478 0.91471 0.58256 0.0
C324 C 0.93214 0.96681 0.58049 0.0
C325 C 0.89157 0.88551 0.56942 0.0
C326 C 0.84463 0.90787 0.55434 0.0
C327 C 0.84269 0.95983 0.55089 0.0
C328 C 0.88631 0.98912 0.56376 0.0
C329 C 0.7968 0.87676 0.54557 0.0
C330 C 0.79643 0.83682 0.52582 0.0
C331 C 0.75439 0.88265 0.55943 0.0
C332 C 0.75303 0.92333 0.58099 0.0
C333 C 0.71294 0.95907 0.57484 0.0
C334 C 0.71177 0.99782 0.59501 0.0
C335 C 0.75036 1.00098 0.62147 0.0
C336 C 0.79006 0.96524 0.62789 0.0
C337 C 0.79132 0.92637 0.60783 0.0
H338 H 0.74943 0.03104 0.63703 0.0
H339 H 0.76695 0.64242 0.45144 0.0
H340 H 0.7673 0.45986 0.51222 0.0
H341 H 0.81903 0.39732 0.49343 0.0
H342 H 0.67746 0.32715 0.44411 0.0
H343 H 0.62496 0.38894 0.46388 0.0
H344 H 0.80852 0.29276 0.50488 0.0
H345 H 0.71919 0.28285 0.37909 0.0
H346 H 0.68073 0.33686 0.33653 0.0
H347 H 0.76394 0.4626 0.38225 0.0
H348 H 0.80266 0.40945 0.42505 0.0
H349 H 0.93212 0.0868 0.44956 0.0
H350 H 0.8659 0.14336 0.4609 0.0
H351 H 0.92728 0.26268 0.41673 0.0
H352 H 0.99145 0.20564 0.40414 0.0
H353 H 0.82748 0.26685 0.40164 0.0
H354 H 0.95371 0.24767 0.49685 0.0
H355 H 0.00442 0.19983 0.53937 0.0
H356 H 0.86175 0.14246 0.55659 0.0
H357 H 0.81026 0.1898 0.51413 0.0
C358 C 0.74704 0.43152 0.49708 0.0
C359 C 0.69202 0.42946 0.48939 0.0
C360 C 0.77668 0.39585 0.48639 0.0
C361 C 0.75202 0.35764 0.46754 0.0
C362 C 0.69711 0.35663 0.45856 0.0
C363 C 0.66723 0.39213 0.46964 0.0
C364 C 0.78425 0.31703 0.45945 0.0
C365 C 0.81241 0.28671 0.48227 0.0
C366 C 0.78934 0.30948 0.43004 0.0
C367 C 0.76332 0.34228 0.40536 0.0
C368 C 0.7289 0.32211 0.38012 0.0
C369 C 0.70716 0.35254 0.35595 0.0
C370 C 0.72012 0.40304 0.35666 0.0
C371 C 0.75405 0.42344 0.38173 0.0
C372 C 0.77556 0.39327 0.40604 0.0
C373 C 0.93151 0.12519 0.44246 0.0
C374 C 0.967 0.14217 0.42619 0.0
C375 C 0.89373 0.15751 0.44897 0.0
C376 C 0.89182 0.20755 0.43995 0.0
C377 C 0.92765 0.22428 0.42382 0.0
C378 C 0.96457 0.19183 0.41683 0.0
C379 C 0.85301 0.243 0.44721 0.0
C380 C 0.82309 0.27213 0.42422 0.0
C381 C 0.84714 0.25017 0.47663 0.0
C382 C 0.8782 0.22189 0.50218 0.0
C383 C 0.93321 0.22465 0.50963 0.0
C384 C 0.96207 0.19769 0.53373 0.0
C385 C 0.93628 0.16808 0.55061 0.0
C386 C 0.88163 0.16542 0.54348 0.0
C387 C 0.85261 0.19236 0.51945 0.0
H388 H 0.95855 0.14731 0.56929 0.0
H389 H 0.70401 0.42638 0.33776 0.0
H390 H 0.47616 0.3821 0.54577 0.0
H391 H 0.42242 0.32452 0.56739 0.0
H392 H 0.29538 0.4302 0.55014 0.0
H393 H 0.3481 0.48695 0.52763 0.0
H394 H 0.33061 0.3648 0.61307 0.0
H395 H 0.2683 0.36553 0.50179 0.0
H396 H 0.28854 0.35815 0.4524 0.0
H397 H 0.36337 0.21739 0.47697 0.0
H398 H 0.34417 0.22443 0.52667 0.0
H399 H 0.09109 0.24941 0.61491 0.0
H400 H 0.16301 0.30047 0.6061 0.0
H401 H 0.22853 0.17141 0.57189 0.0
H402 H 0.15487 0.12111 0.57912 0.0
H403 H 0.23703 0.24197 0.53892 0.0
H404 H 0.2815 0.22701 0.64359 0.0
H405 H 0.27017 0.22927 0.69504 0.0
H406 H 0.24353 0.38693 0.68862 0.0
H407 H 0.25374 0.38557 0.63693 0.0
C408 C 0.43713 0.39328 0.54719 0.0
C409 C 0.41593 0.43864 0.53501 0.0
C410 C 0.40664 0.36054 0.55952 0.0
C411 C 0.35515 0.37336 0.56028 0.0
C412 C 0.33519 0.41995 0.54982 0.0
C413 C 0.36512 0.4521 0.53687 0.0
C414 C 0.31974 0.33625 0.56857 0.0
C415 C 0.30977 0.33795 0.59701 0.0
C416 C 0.29454 0.30019 0.54786 0.0
C417 C 0.30539 0.29578 0.51795 0.0
C418 C 0.28948 0.33326 0.49671 0.0
C419 C 0.30067 0.32909 0.46867 0.0
C420 C 0.32737 0.2874 0.46158 0.0
C421 C 0.34279 0.24971 0.4825 0.0
C422 C 0.33177 0.25377 0.5106 0.0
C423 C 0.12081 0.23217 0.60537 0.0
C424 C 0.11741 0.18157 0.59753 0.0
C425 C 0.16229 0.26117 0.60068 0.0
C426 C 0.20212 0.23971 0.58895 0.0
C427 C 0.1985 0.18896 0.58103 0.0
C428 C 0.15633 0.16022 0.58509 0.0
C429 C 0.24598 0.27075 0.58356 0.0
C430 C 0.25787 0.26806 0.55549 0.0
C431 C 0.2739 0.30495 0.60505 0.0
C432 C 0.26776 0.30605 0.63619 0.0
C433 C 0.27274 0.26211 0.65303 0.0
C434 C 0.26655 0.26324 0.68225 0.0
C435 C 0.25572 0.30815 0.69499 0.0
C436 C 0.25162 0.35213 0.67865 0.0
C437 C 0.25764 0.3512 0.64939 0.0
H438 H 0.2506 0.30889 0.71754 0.0
H439 H 0.33599 0.28423 0.43986 0.0
H440 H 0.50797 0.6795 0.53213 0.0
H441 H 0.46509 0.76056 0.53323 0.0
H442 H 0.4188 0.75934 0.4374 0.0
H443 H 0.46112 0.67881 0.43629 0.0
H444 H 0.43089 0.85579 0.4601 0.0
H445 H 0.34494 0.69773 0.47473 0.0
H446 H 0.34121 0.61987 0.50224 0.0
H447 H 0.34683 0.70386 0.58226 0.0
H448 H 0.35137 0.78219 0.55522 0.0
H449 H 0.13661 0.86775 0.41849 0.0
H450 H 0.21838 0.8256 0.44133 0.0
H451 H 0.28427 0.96478 0.47962 0.0
H452 H 0.20197 0.0074 0.45656 0.0
H453 H 0.27485 0.81442 0.49881 0.0
H454 H 0.41691 0.95974 0.47388 0.0
H455 H 0.41827 0.03175 0.44111 0.0
H456 H 0.29407 0.96655 0.3746 0.0
H457 H 0.2925 0.89397 0.40682 0.0
C458 C 0.49079 0.69778 0.51133 0.0
C459 C 0.48703 0.67285 0.48413 0.0
C460 C 0.46619 0.74397 0.51198 0.0
C461 C 0.43794 0.76548 0.4854 0.0
C462 C 0.44025 0.74345 0.45816 0.0
C463 C 0.46424 0.69729 0.45753 0.0
C464 C 0.39706 0.80359 0.48547 0.0
C465 C 0.39738 0.84756 0.46928 0.0
C466 C 0.35291 0.79246 0.49702 0.0
C467 C 0.34904 0.74562 0.51309 0.0
C468 C 0.34558 0.6995 0.49822 0.0
C469 C 0.34335 0.65533 0.51371 0.0
C470 C 0.34391 0.65691 0.544 0.0
C471 C 0.34652 0.70269 0.55882 0.0
C472 C 0.34895 0.74697 0.54343 0.0
C473 C 0.16836 0.88928 0.432 0.0
C474 C 0.16315 0.94082 0.43562 0.0
C475 C 0.21491 0.86515 0.44521 0.0
C476 C 0.25746 0.89208 0.46208 0.0
C477 C 0.25192 0.94337 0.46661 0.0
C478 C 0.20494 0.96757 0.45356 0.0
C479 C 0.30819 0.8662 0.47292 0.0
C480 C 0.30941 0.82422 0.49096 0.0
C481 C 0.35328 0.87879 0.46262 0.0
C482 C 0.3541 0.9219 0.44293 0.0
C483 C 0.38995 0.96083 0.45225 0.0
C484 C 0.39078 0.0017 0.43377 0.0
C485 C 0.35611 0.00383 0.40585 0.0
C486 C 0.32072 0.96498 0.39629 0.0
C487 C 0.31981 0.924 0.41466 0.0
H488 H 0.35678 0.03552 0.39159 0.0
H489 H 0.34222 0.62268 0.55597 0.0
H490 H 0.09565 0.90914 0.11755 0.0
H491 H 0.06567 0.89543 0.16319 0.0
H492 H 0.93645 0.99573 0.13215 0.0
H493 H 0.96577 0.00881 0.08614 0.0
H494 H 0.01952 0.02473 0.1843 0.0
H495 H 0.90576 0.8873 0.14631 0.0
H496 H 0.88466 0.80502 0.12251 0.0
H497 H 0.99698 0.7358 0.19295 0.0
H498 H 0.02031 0.81748 0.2168 0.0
H499 H 0.99464 0.04461 0.32956 0.0
H500 H 0.96885 0.03253 0.2764 0.0
H501 H 0.04569 0.88953 0.28512 0.0
H502 H 0.06482 0.89769 0.33886 0.0
H503 H 0.97206 0.88255 0.24072 0.0
H504 H 0.10538 0.00626 0.26972 0.0
H505 H 0.14698 0.08288 0.29385 0.0
H506 H 0.02305 0.17063 0.24121 0.0
H507 H 0.98038 0.0944 0.217 0.0
C508 C 0.05962 0.9266 0.11998 0.0
C509 C 0.03307 0.96016 0.09853 0.0
C510 C 0.04237 0.91853 0.14593 0.0
C511 C 0.9989 0.94458 0.15097 0.0
C512 C 0.96981 0.97496 0.12847 0.0
C513 C 0.98655 0.98236 0.10224 0.0
C514 C 0.99201 0.94906 0.18169 0.0
C515 C 0.00771 0.99409 0.19651 0.0
C516 C 0.97944 0.90806 0.19774 0.0
C517 C 0.965 0.8588 0.18334 0.0
C518 C 0.92638 0.85468 0.15664 0.0
C519 C 0.9139 0.80812 0.14314 0.0
C520 C 0.93924 0.76535 0.15623 0.0
C521 C 0.97729 0.76897 0.18284 0.0
C522 C 0.9902 0.8154 0.19636 0.0
C523 C 0.00462 0.00959 0.32065 0.0
C524 C 0.0329 0.9725 0.33916 0.0
C525 C 0.99061 0.00322 0.28984 0.0
C526 C 0.00702 0.961 0.27645 0.0
C527 C 0.03304 0.92287 0.29474 0.0
C528 C 0.04507 0.92819 0.32568 0.0
C529 C 1.00049 0.95817 0.24358 0.0
C530 C 0.98269 0.91359 0.22842 0.0
C531 C 0.01392 0.9987 0.22728 0.0
C532 C 0.03935 0.04461 0.24185 0.0
C533 C 0.08682 0.04188 0.26346 0.0
C534 C 0.11061 0.08522 0.27712 0.0
C535 C 0.08757 0.13158 0.26915 0.0
C536 C 0.04077 0.13468 0.24742 0.0
C537 C 0.01677 0.09143 0.23372 0.0
H538 H 0.10606 0.1651 0.27974 0.0
H539 H 0.9294 0.7294 0.14573 0.0
H540 H 0.13422 0.99956 0.93447 0.0
H541 H 0.15596 0.99608 0.88571 0.0
H542 H 0.01902 0.90607 0.85181 0.0
H543 H 0.99709 0.90944 0.90022 0.0
H544 H 0.15574 0.92038 0.83258 0.0
H545 H 0.94412 0.98628 0.80427 0.0
H546 H 0.88004 0.02382 0.8295 0.0
H547 H 0.00421 0.10054 0.8902 0.0
H548 H 0.06877 0.06426 0.86492 0.0
H549 H 0.04837 0.92937 0.676 0.0
H550 H 0.06988 0.91549 0.72969 0.0
H551 H 0.0751 0.07419 0.74498 0.0
H552 H 0.05175 0.08834 0.69142 0.0
H553 H 0.01636 0.03122 0.77628 0.0
H554 H 0.18718 0.0033 0.76048 0.0
H555 H 0.25376 0.9664 0.737 0.0
H556 H 0.21871 0.82103 0.76532 0.0
H557 H 0.15134 0.85696 0.78861 0.0
C558 C 0.11035 0.97686 0.91706 0.0
C559 C 0.06343 0.95556 0.92084 0.0
C560 C 0.12287 0.97485 0.88922 0.0
C561 C 0.08855 0.95151 0.86516 0.0
C562 C 0.04581 0.92441 0.87014 0.0
C563 C 0.03321 0.92655 0.89777 0.0
C564 C 0.08883 0.96553 0.83435 0.0
C565 C 0.12555 0.94468 0.82015 0.0
C566 C 0.05005 0.99817 0.81854 0.0
C567 C 0.01123 0.02219 0.83289 0.0
C568 C 0.95763 0.01147 0.82285 0.0
C569 C 0.92126 0.03249 0.83717 0.0
C570 C 0.93807 0.06442 0.8615 0.0
C571 C 0.99125 0.07571 0.87141 0.0
C572 C 0.02773 0.05494 0.85709 0.0
C573 C 0.05411 0.96131 0.6908 0.0
C574 C 0.04806 0.00997 0.6794 0.0
C575 C 0.0671 0.95332 0.72149 0.0
C576 C 0.07461 0.9938 0.74138 0.0
C577 C 0.06973 0.04239 0.73005 0.0
C578 C 0.05666 0.05042 0.69941 0.0
C579 C 0.08294 0.98558 0.77386 0.0
C580 C 0.04727 0.00741 0.78851 0.0
C581 C 0.12333 0.9546 0.79001 0.0
C582 C 0.16389 0.93281 0.77609 0.0
C583 C 0.19336 0.96341 0.7615 0.0
C584 C 0.2313 0.94268 0.74826 0.0
C585 C 0.24038 0.89139 0.74962 0.0
C586 C 0.21161 0.86075 0.76427 0.0
C587 C 0.17358 0.88129 0.77753 0.0
H588 H 0.26978 0.87541 0.73935 0.0
H589 H 0.90989 0.08048 0.87263 0.0
H590 H 0.46938 0.49522 0.58562 0.0
H591 H 0.43979 0.48297 0.63156 0.0
H592 H 0.57821 0.3965 0.66735 0.0
H593 H 0.60718 0.40726 0.62126 0.0
H594 H 0.4419 0.39039 0.68039 0.0
H595 H 0.63816 0.48189 0.71816 0.0
H596 H 0.69991 0.53311 0.69805 0.0
H597 H 0.57087 0.60667 0.63981 0.0
H598 H 0.50852 0.55647 0.65998 0.0
H599 H 0.54416 0.39585 0.83946 0.0
H600 H 0.52551 0.38516 0.78526 0.0
H601 H 0.47752 0.53878 0.77401 0.0
H602 H 0.49645 0.54983 0.82793 0.0
H603 H 0.55472 0.51426 0.74556 0.0
H604 H 0.38868 0.45148 0.75374 0.0
H605 H 0.32776 0.39795 0.77279 0.0
H606 H 0.39122 0.26841 0.73913 0.0
H607 H 0.45329 0.32105 0.72037 0.0
C608 C 0.4919 0.47116 0.60257 0.0
C609 C 0.54052 0.4521 0.59992 0.0
C610 C 0.47498 0.46426 0.62882 0.0
C611 C 0.50698 0.43898 0.65274 0.0
C612 C 0.55288 0.4158 0.64899 0.0
C613 C 0.56957 0.42235 0.62277 0.0
C614 C 0.50043 0.44734 0.68323 0.0
C615 C 0.46616 0.41752 0.69475 0.0
C616 C 0.53176 0.48322 0.7016 0.0
C617 C 0.56883 0.51521 0.69037 0.0
C618 C 0.62307 0.50927 0.70122 0.0
C619 C 0.65813 0.53806 0.68979 0.0
C620 C 0.63932 0.57302 0.6676 0.0
C621 C 0.5854 0.5795 0.65694 0.0
C622 C 0.5502 0.55089 0.66836 0.0
C623 C 0.52911 0.42714 0.82537 0.0
C624 C 0.52198 0.47373 0.83791 0.0
C625 C 0.51796 0.42085 0.79447 0.0
C626 C 0.49982 0.46112 0.77568 0.0
C627 C 0.49114 0.50717 0.78816 0.0
C628 C 0.50185 0.51337 0.81896 0.0
C629 C 0.4962 0.45712 0.74331 0.0
C630 C 0.52942 0.48759 0.73136 0.0
C631 C 0.46348 0.42208 0.72474 0.0
C632 C 0.4262 0.39024 0.73599 0.0
C633 C 0.39013 0.41154 0.7507 0.0
C634 C 0.35532 0.38134 0.76142 0.0
C635 C 0.35596 0.32978 0.75741 0.0
C636 C 0.39105 0.30834 0.74241 0.0
C637 C 0.42602 0.33835 0.7317 0.0
H638 H 0.329 0.30647 0.76574 0.0
H639 H 0.66652 0.59514 0.65871 0.0
H640 H 0.63727 0.4857 0.43521 0.0
H641 H 0.66245 0.47589 0.38789 0.0
H642 H 0.50954 0.41536 0.34847 0.0
H643 H 0.48592 0.42166 0.39605 0.0
H644 H 0.57184 0.37765 0.32072 0.0
H645 H 0.54604 0.55146 0.35163 0.0
H646 H 0.57045 0.6223 0.38639 0.0
H647 H 0.72816 0.6163 0.37497 0.0
H648 H 0.70463 0.54517 0.3403 0.0
H649 H 0.46303 0.49533 0.18609 0.0
H650 H 0.4908 0.47236 0.23826 0.0
H651 H 0.65226 0.49444 0.23561 0.0
H652 H 0.62517 0.51506 0.18269 0.0
H653 H 0.61588 0.54263 0.28533 0.0
H654 H 0.62527 0.38374 0.24035 0.0
H655 H 0.59406 0.31545 0.20481 0.0
H656 H 0.46019 0.29509 0.24208 0.0
H657 H 0.49016 0.36378 0.27756 0.0
C658 C 0.61006 0.46805 0.41682 0.0
C659 C 0.5595 0.45473 0.41928 0.0
C660 C 0.62421 0.46309 0.38957 0.0
C661 C 0.58738 0.44639 0.36419 0.0
C662 C 0.53873 0.42875 0.3675 0.0
C663 C 0.52505 0.43265 0.39476 0.0
C664 C 0.59548 0.45294 0.33361 0.0
C665 C 0.58163 0.41371 0.31305 0.0
C666 C 0.61007 0.49945 0.32355 0.0
C667 C 0.6237 0.54302 0.34358 0.0
C668 C 0.58587 0.56539 0.35653 0.0
C669 C 0.59957 0.60548 0.37623 0.0
C670 C 0.65086 0.62374 0.38292 0.0
C671 C 0.68848 0.6021 0.36978 0.0
C672 C 0.67498 0.56197 0.35008 0.0
C673 C 0.50455 0.49448 0.19628 0.0
C674 C 0.5418 0.50667 0.17992 0.0
C675 C 0.52031 0.48161 0.2262 0.0
C676 C 0.57356 0.48125 0.24061 0.0
C677 C 0.61097 0.49439 0.22476 0.0
C678 C 0.59529 0.50654 0.19458 0.0
C679 C 0.58906 0.46828 0.2725 0.0
C680 C 0.60753 0.50622 0.29319 0.0
C681 C 0.5778 0.42089 0.2826 0.0
C682 C 0.55991 0.37909 0.26155 0.0
C683 C 0.58901 0.36492 0.24085 0.0
C684 C 0.57156 0.3261 0.22073 0.0
C685 C 0.52515 0.30098 0.22116 0.0
C686 C 0.49615 0.31456 0.24178 0.0
C687 C 0.51341 0.35338 0.26194 0.0
H688 H 0.51168 0.27096 0.20555 0.0
H689 H 0.66145 0.65466 0.39825 0.0
loop_
_geom_bond_atom_site_label_1
_geom_bond_atom_site_label_2
_geom_bond_distance
_geom_bond_site_symmetry_2
_ccdc_geom_bond_type
Zn0 O6 1.920 1_545 S
Zn0 O12 1.898 . S
Zn0 O15 1.905 1_545 S
Zn1 O9 1.905 . S
Zn1 O10 1.898 1_545 S
Zn1 O18 1.920 1_545 S
Zn2 O5 2.080 1_445 S
Zn2 O8 2.114 . S
Zn2 O11 2.120 1_545 S
Zn2 O13 2.120 1_455 S
Zn2 O14 2.114 1_554 S
Zn2 O17 2.080 . S
C3 O8 1.166 . S
C3 O9 1.182 . S
C4 O10 1.167 . S
C4 O11 1.299 . S
O5 Zn2 2.080 1_665 S
O5 C19 1.305 . S
O6 Zn0 1.920 1_565 S
O6 C19 1.234 1_556 S
C7 O12 1.167 . S
C7 O13 1.299 1_556 S
O8 Zn2 2.114 . S
O8 C3 1.166 . S
O9 Zn1 1.905 . S
O9 C3 1.182 . S
O10 Zn1 1.898 1_565 S
O10 C4 1.167 . S
O11 Zn2 2.120 1_565 S
O11 C4 1.299 . S
O12 Zn0 1.898 . S
O12 C7 1.167 . S
O13 Zn2 2.120 1_655 S
O13 C7 1.299 1_554 S
O14 Zn2 2.114 1_556 S
O14 C16 1.166 1_545 S
O15 Zn0 1.905 1_565 S
O15 C16 1.182 1_655 S
C16 O14 1.166 1_565 S
C16 O15 1.182 1_455 S
O17 Zn2 2.080 . S
O17 C20 1.305 1_545 S
O18 Zn1 1.920 1_565 S
O18 C20 1.234 . S
C19 O5 1.305 . S
C19 O6 1.234 1_554 S
C20 O17 1.305 1_565 S
C20 O18 1.234 . S
Zn21 O27 1.920 . S
Zn21 O33 1.898 . S
Zn21 O36 1.905 . S
Zn22 O30 1.905 . S
Zn22 O31 1.898 . S
Zn22 O39 1.920 . S
Zn23 O26 2.080 . S
Zn23 O29 2.114 . S
Zn23 O32 2.120 . S
Zn23 O34 2.120 . S
Zn23 O35 2.114 . S
Zn23 O38 2.080 . S
C24 O29 1.166 . S
C24 O30 1.182 . S
C25 O31 1.167 . S
C25 O32 1.299 . S
O26 Zn23 2.080 . S
O26 C40 1.305 . S
O27 Zn21 1.920 . S
O27 C40 1.234 . S
C28 O33 1.167 . S
C28 O34 1.299 . S
O29 Zn23 2.114 . S
O29 C24 1.166 . S
O30 Zn22 1.905 . S
O30 C24 1.182 . S
O31 Zn22 1.898 . S
O31 C25 1.167 . S
O32 Zn23 2.120 . S
O32 C25 1.299 . S
O33 Zn21 1.898 . S
O33 C28 1.167 . S
O34 Zn23 2.120 . S
O34 C28 1.299 . S
O35 Zn23 2.114 . S
O35 C37 1.166 . S
O36 Zn21 1.905 . S
O36 C37 1.182 . S
C37 O35 1.166 . S
C37 O36 1.182 . S
O38 Zn23 2.080 . S
O38 C41 1.305 . S
O39 Zn22 1.920 . S
O39 C41 1.234 . S
C40 O26 1.305 . S
C40 O27 1.234 . S
C41 O38 1.305 . S
C41 O39 1.234 . S
H42 C47 0.930 . S
H43 C50 0.930 . S
H44 C52 0.930 1_565 S
H45 C46 1.016 . S
C46 H45 1.016 . S
C46 N53 1.286 . S
C47 H42 0.930 . S
C47 C48 1.397 1_545 S
C47 C49 1.361 . S
C48 C47 1.397 1_565 S
C48 C52 1.390 1_565 S
C49 C47 1.361 . S
C49 C50 1.393 . S
C49 N53 1.413 . S
C50 H43 0.930 . S
C50 C49 1.393 . S
C50 C51 1.399 . S
C51 C50 1.399 . S
C51 C52 1.381 . S
C52 H44 0.930 1_545 S
C52 C48 1.390 1_545 S
C52 C51 1.381 . S
N53 C46 1.286 . S
N53 C49 1.413 . S
H54 C59 0.930 . S
H55 C62 0.930 . S
H56 C64 0.930 . S
H57 C58 1.016 . S
C58 H57 1.016 . S
C58 N65 1.286 . S
C59 H54 0.930 . S
C59 C60 1.397 1_545 S
C59 C61 1.361 1_655 S
C60 C59 1.397 1_565 S
C60 C64 1.390 . S
C61 C59 1.361 1_455 S
C61 C62 1.393 . S
C61 N65 1.413 . S
C62 H55 0.930 . S
C62 C61 1.393 . S
C62 C63 1.399 1_455 S
C63 C62 1.399 1_655 S
C63 C64 1.382 1_545 S
C64 H56 0.930 . S
C64 C60 1.390 . S
C64 C63 1.382 1_565 S
N65 C58 1.286 . S
N65 C61 1.413 . S
H66 C71 0.930 . S
H67 C74 0.930 . S
H68 C76 0.930 . S
H69 C70 1.016 . S
C70 H69 1.016 . S
C70 N77 1.286 . S
C71 H66 0.930 . S
C71 C72 1.397 . S
C71 C73 1.361 . S
C72 C71 1.397 . S
C72 C76 1.390 . S
C73 C71 1.361 . S
C73 C74 1.393 . S
C73 N77 1.413 . S
C74 H67 0.930 . S
C74 C73 1.393 . S
C74 C75 1.399 . S
C75 C74 1.399 . S
C75 C76 1.381 . S
C76 H68 0.930 . S
C76 C72 1.390 . S
C76 C75 1.381 . S
N77 C70 1.286 . S
N77 C73 1.413 . S
H78 C83 0.930 . S
H79 C86 0.930 . S
H80 C88 0.930 . S
H81 C82 1.016 . S
C82 H81 1.016 . S
C82 N89 1.286 . S
C83 H78 0.930 . S
C83 C84 1.397 . S
C83 C85 1.361 . S
C84 C83 1.397 . S
C84 C88 1.390 . S
C85 C83 1.361 . S
C85 C86 1.393 . S
C85 N89 1.413 . S
C86 H79 0.930 . S
C86 C85 1.393 . S
C86 C87 1.399 . S
C87 C86 1.399 . S
C87 C88 1.381 . S
C88 H80 0.930 . S
C88 C84 1.390 . S
C88 C87 1.381 . S
N89 C82 1.286 . S
N89 C85 1.413 . S
H90 C108 0.951 . S
H91 C110 0.951 . S
H92 C112 0.950 . S
H93 C113 0.950 . S
H94 C115 0.950 . S
H95 C118 0.950 . S
H96 C119 0.950 . S
H97 C121 0.950 . S
H98 C122 0.950 . S
H99 C123 0.951 . S
H100 C125 0.951 . S
H101 C127 0.950 . S
H102 C128 0.950 . S
H103 C130 0.950 . S
H104 C133 0.950 . S
H105 C134 0.950 1_556 S
H106 C136 0.950 . S
H107 C137 0.950 . S
C108 H90 0.951 . S
C108 C109 1.366 . S
C108 C110 1.388 . S
C109 C108 1.366 . S
C109 C113 1.385 . S
C110 H91 0.951 . S
C110 C108 1.388 . S
C110 C111 1.366 . S
C111 C110 1.366 . S
C111 C112 1.414 . S
C111 C114 1.499 . S
C112 H92 0.950 . S
C112 C111 1.414 . S
C112 C113 1.374 . S
C113 H93 0.950 . S
C113 C109 1.385 . S
C113 C112 1.374 . S
C114 C111 1.499 . S
C114 C115 1.373 . S
C114 C116 1.389 . S
C115 H94 0.950 . S
C115 C114 1.373 . S
C115 C131 1.377 . S
C116 C114 1.389 . S
C116 C117 1.524 . S
C116 C130 1.377 . S
C117 C116 1.524 . S
C117 C118 1.397 . S
C117 C122 1.363 . S
C118 H95 0.950 . S
C118 C117 1.397 . S
C118 C119 1.334 . S
C119 H96 0.950 . S
C119 C118 1.334 . S
C119 C120 1.287 . S
C120 C119 1.287 . S
C120 C121 1.524 . S
C120 H139 0.913 . S
C121 H97 0.950 . S
C121 C120 1.524 . S
C121 C122 1.415 . S
C122 H98 0.950 . S
C122 C117 1.363 . S
C122 C121 1.415 . S
C123 H99 0.951 . S
C123 C124 1.366 . S
C123 C125 1.388 . S
C124 C123 1.366 . S
C124 C128 1.385 . S
C125 H100 0.951 . S
C125 C123 1.388 . S
C125 C126 1.366 . S
C126 C125 1.366 . S
C126 C127 1.414 . S
C126 C129 1.499 . S
C127 H101 0.950 . S
C127 C126 1.414 . S
C127 C128 1.374 . S
C128 H102 0.950 . S
C128 C124 1.385 . S
C128 C127 1.374 . S
C129 C126 1.499 . S
C129 C130 1.373 . S
C129 C131 1.389 . S
C130 H103 0.950 . S
C130 C116 1.377 . S
C130 C129 1.373 . S
C131 C115 1.377 . S
C131 C129 1.389 . S
C131 C132 1.524 . S
C132 C131 1.524 . S
C132 C133 1.397 . S
C132 C137 1.363 . S
C133 H104 0.950 . S
C133 C132 1.397 . S
C133 C134 1.334 . S
C134 H105 0.950 1_554 S
C134 C133 1.334 . S
C134 C135 1.287 . S
C135 C134 1.287 . S
C135 C136 1.524 . S
C135 H138 0.999 . S
C136 H106 0.950 . S
C136 C135 1.524 . S
C136 C137 1.415 . S
C137 H107 0.950 . S
C137 C132 1.363 . S
C137 C136 1.415 . S
H138 C135 0.999 . S
H139 C120 0.913 . S
H140 C158 0.951 . S
H141 C160 0.951 . S
H142 C162 0.950 . S
H143 C163 0.950 . S
H144 C165 0.950 . S
H145 C168 0.950 . S
H146 C169 0.950 . S
H147 C171 0.950 . S
H148 C172 0.950 . S
H149 C173 0.951 . S
H150 C175 0.951 . S
H151 C177 0.950 . S
H152 C178 0.950 . S
H153 C180 0.950 . S
H154 C183 0.950 . S
H155 C184 0.950 . S
H156 C186 0.950 . S
H157 C187 0.950 . S
C158 H140 0.951 . S
C158 C159 1.358 1_556 S
C158 C160 1.388 . S
C159 C158 1.358 1_554 S
C159 C163 1.387 . S
C160 H141 0.951 . S
C160 C158 1.388 . S
C160 C161 1.366 . S
C161 C160 1.366 . S
C161 C162 1.414 1_556 S
C161 C164 1.499 . S
C162 H142 0.950 . S
C162 C161 1.414 1_554 S
C162 C163 1.374 . S
C163 H143 0.950 . S
C163 C159 1.387 . S
C163 C162 1.374 . S
C164 C161 1.499 . S
C164 C165 1.373 . S
C164 C166 1.389 . S
C165 H144 0.950 . S
C165 C164 1.373 . S
C165 C181 1.377 . S
C166 C164 1.389 . S
C166 C167 1.524 1_556 S
C166 C180 1.377 . S
C167 C166 1.524 1_554 S
C167 C168 1.397 . S
C167 C172 1.363 1_554 S
C168 H145 0.950 . S
C168 C167 1.397 . S
C168 C169 1.334 . S
C169 H146 0.950 . S
C169 C168 1.334 . S
C169 C170 1.287 . S
C170 C169 1.287 . S
C170 C171 1.524 . S
C170 H189 0.913 . S
C171 H147 0.950 . S
C171 C170 1.524 . S
C171 C172 1.415 1_554 S
C172 H148 0.950 . S
C172 C167 1.363 1_556 S
C172 C171 1.415 1_556 S
C173 H149 0.951 . S
C173 C174 1.366 . S
C173 C175 1.388 . S
C174 C173 1.366 . S
C174 C178 1.385 . S
C175 H150 0.951 . S
C175 C173 1.388 . S
C175 C176 1.366 . S
C176 C175 1.366 . S
C176 C177 1.414 . S
C176 C179 1.499 . S
C177 H151 0.950 . S
C177 C176 1.414 . S
C177 C178 1.374 . S
C178 H152 0.950 . S
C178 C174 1.385 . S
C178 C177 1.374 . S
C179 C176 1.499 . S
C179 C180 1.373 . S
C179 C181 1.389 . S
C180 H153 0.950 . S
C180 C166 1.377 . S
C180 C179 1.373 . S
C181 C165 1.377 . S
C181 C179 1.389 . S
C181 C182 1.524 . S
C182 C181 1.524 . S
C182 C183 1.397 . S
C182 C187 1.363 . S
C183 H154 0.950 . S
C183 C182 1.397 . S
C183 C184 1.334 . S
C184 H155 0.950 . S
C184 C183 1.334 . S
C184 C185 1.287 . S
C185 C184 1.287 . S
C185 C186 1.524 . S
C185 H188 0.999 . S
C186 H156 0.950 . S
C186 C185 1.524 . S
C186 C187 1.415 . S
C187 H157 0.950 . S
C187 C182 1.363 . S
C187 C186 1.415 . S
H188 C185 0.999 . S
H189 C170 0.913 . S
H190 C208 0.951 . S
H191 C210 0.951 . S
H192 C212 0.950 . S
H193 C213 0.950 . S
H194 C215 0.950 . S
H195 C218 0.950 . S
H196 C219 0.950 . S
H197 C221 0.950 . S
H198 C222 0.950 1_554 S
H199 C223 0.951 . S
H200 C225 0.951 . S
H201 C227 0.950 . S
H202 C228 0.950 . S
H203 C230 0.950 . S
H204 C233 0.950 . S
H205 C234 0.950 . S
H206 C236 0.950 . S
H207 C237 0.950 . S
C208 H190 0.951 . S
C208 C209 1.366 . S
C208 C210 1.388 . S
C209 C208 1.366 . S
C209 C213 1.385 . S
C210 H191 0.951 . S
C210 C208 1.388 . S
C210 C211 1.366 . S
C211 C210 1.366 . S
C211 C212 1.414 . S
C211 C214 1.499 . S
C212 H192 0.950 . S
C212 C211 1.414 . S
C212 C213 1.374 . S
C213 H193 0.950 . S
C213 C209 1.385 . S
C213 C212 1.374 . S
C214 C211 1.499 . S
C214 C215 1.373 . S
C214 C216 1.389 . S
C215 H194 0.950 . S
C215 C214 1.373 . S
C215 C231 1.377 . S
C216 C214 1.389 . S
C216 C217 1.524 1_554 S
C216 C230 1.377 . S
C217 C216 1.524 1_556 S
C217 C218 1.397 . S
C217 C222 1.363 . S
C218 H195 0.950 . S
C218 C217 1.397 . S
C218 C219 1.334 . S
C219 H196 0.950 . S
C219 C218 1.334 . S
C219 C220 1.287 . S
C220 C219 1.287 . S
C220 C221 1.524 . S
C220 H239 0.913 . S
C221 H197 0.950 . S
C221 C220 1.524 . S
C221 C222 1.415 . S
C222 H198 0.950 1_556 S
C222 C217 1.363 . S
C222 C221 1.415 . S
C223 H199 0.951 . S
C223 C224 1.366 . S
C223 C225 1.388 . S
C224 C223 1.366 . S
C224 C228 1.385 . S
C225 H200 0.951 . S
C225 C223 1.388 . S
C225 C226 1.366 . S
C226 C225 1.366 . S
C226 C227 1.414 . S
C226 C229 1.499 . S
C227 H201 0.950 . S
C227 C226 1.414 . S
C227 C228 1.374 . S
C228 H202 0.950 . S
C228 C224 1.385 . S
C228 C227 1.374 . S
C229 C226 1.499 . S
C229 C230 1.373 . S
C229 C231 1.389 . S
C230 H203 0.950 . S
C230 C216 1.377 . S
C230 C229 1.373 . S
C231 C215 1.377 . S
C231 C229 1.389 . S
C231 C232 1.524 . S
C232 C231 1.524 . S
C232 C233 1.397 . S
C232 C237 1.363 . S
C233 H204 0.950 . S
C233 C232 1.397 . S
C233 C234 1.334 . S
C234 H205 0.950 . S
C234 C233 1.334 . S
C234 C235 1.287 . S
C235 C234 1.287 . S
C235 C236 1.524 . S
C235 H238 0.999 . S
C236 H206 0.950 . S
C236 C235 1.524 . S
C236 C237 1.415 . S
C237 H207 0.950 . S
C237 C232 1.363 . S
C237 C236 1.415 . S
H238 C235 0.999 . S
H239 C220 0.913 . S
H240 C258 0.951 . S
H241 C260 0.951 1_554 S
H242 C262 0.950 . S
H243 C263 0.950 . S
H244 C265 0.950 . S
H245 C268 0.950 . S
H246 C269 0.950 . S
H247 C271 0.950 . S
H248 C272 0.950 . S
H249 C273 0.951 . S
H250 C275 0.951 . S
H251 C277 0.950 . S
H252 C278 0.950 . S
H253 C280 0.950 . S
H254 C283 0.950 . S
H255 C284 0.950 . S
H256 C286 0.950 . S
H257 C287 0.950 . S
C258 H240 0.951 . S
C258 C259 1.366 1_554 S
C258 C260 1.388 1_554 S
C259 C258 1.366 1_556 S
C259 C263 1.385 . S
C260 H241 0.951 1_556 S
C260 C258 1.388 1_556 S
C260 C261 1.366 . S
C261 C260 1.366 . S
C261 C262 1.414 . S
C261 C264 1.499 . S
C262 H242 0.950 . S
C262 C261 1.414 . S
C262 C263 1.374 . S
C263 H243 0.950 . S
C263 C259 1.385 . S
C263 C262 1.374 . S
C264 C261 1.499 . S
C264 C265 1.373 . S
C264 C266 1.389 . S
C265 H244 0.950 . S
C265 C264 1.373 . S
C265 C281 1.377 . S
C266 C264 1.389 . S
C266 C267 1.524 . S
C266 C280 1.377 . S
C267 C266 1.524 . S
C267 C268 1.397 . S
C267 C272 1.363 . S
C268 H245 0.950 . S
C268 C267 1.397 . S
C268 C269 1.334 . S
C269 H246 0.950 . S
C269 C268 1.334 . S
C269 C270 1.287 . S
C270 C269 1.287 . S
C270 C271 1.524 . S
C270 H289 0.913 . S
C271 H247 0.950 . S
C271 C270 1.524 . S
C271 C272 1.415 . S
C272 H248 0.950 . S
C272 C267 1.363 . S
C272 C271 1.415 . S
C273 H249 0.951 . S
C273 C274 1.366 . S
C273 C275 1.388 . S
C274 C273 1.366 . S
C274 C278 1.385 . S
C275 H250 0.951 . S
C275 C273 1.388 . S
C275 C276 1.366 . S
C276 C275 1.366 . S
C276 C277 1.414 . S
C276 C279 1.499 . S
C277 H251 0.950 . S
C277 C276 1.414 . S
C277 C278 1.374 . S
C278 H252 0.950 . S
C278 C274 1.385 . S
C278 C277 1.374 . S
C279 C276 1.499 . S
C279 C280 1.373 . S
C279 C281 1.389 . S
C280 H253 0.950 . S
C280 C266 1.377 . S
C280 C279 1.373 . S
C281 C265 1.377 . S
C281 C279 1.389 . S
C281 C282 1.524 . S
C282 C281 1.524 . S
C282 C283 1.397 1_556 S
C282 C287 1.363 . S
C283 H254 0.950 . S
C283 C282 1.397 1_554 S
C283 C284 1.334 . S
C284 H255 0.950 . S
C284 C283 1.334 . S
C284 C285 1.287 . S
C285 C284 1.287 . S
C285 C286 1.524 1_554 S
C285 H288 0.999 . S
C286 H256 0.950 . S
C286 C285 1.524 1_556 S
C286 C287 1.415 . S
C287 H257 0.950 . S
C287 C282 1.363 . S
C287 C286 1.415 . S
H288 C285 0.999 . S
H289 C270 0.913 . S
H290 C308 0.951 . S
H291 C310 0.951 . S
H292 C312 0.950 . S
H293 C313 0.950 . S
H294 C315 0.950 . S
H295 C318 0.950 . S
H296 C319 0.950 . S
H297 C321 0.950 . S
H298 C322 0.950 . S
H299 C323 0.951 . S
H300 C325 0.951 . S
H301 C327 0.950 . S
H302 C328 0.950 . S
H303 C330 0.950 . S
H304 C333 0.950 . S
H305 C334 0.950 . S
H306 C336 0.950 . S
H307 C337 0.950 . S
C308 H290 0.951 . S
C308 C309 1.366 . S
C308 C310 1.388 . S
C309 C308 1.366 . S
C309 C313 1.385 . S
C310 H291 0.951 . S
C310 C308 1.388 . S
C310 C311 1.366 . S
C311 C310 1.366 . S
C311 C312 1.414 . S
C311 C314 1.499 . S
C312 H292 0.950 . S
C312 C311 1.414 . S
C312 C313 1.374 . S
C313 H293 0.950 . S
C313 C309 1.385 . S
C313 C312 1.374 . S
C314 C311 1.499 . S
C314 C315 1.373 . S
C314 C316 1.389 . S
C315 H294 0.950 . S
C315 C314 1.373 . S
C315 C331 1.377 . S
C316 C314 1.389 . S
C316 C317 1.524 . S
C316 C330 1.377 . S
C317 C316 1.524 . S
C317 C318 1.397 . S
C317 C322 1.363 . S
C318 H295 0.950 . S
C318 C317 1.397 . S
C318 C319 1.334 . S
C319 H296 0.950 . S
C319 C318 1.334 . S
C319 C320 1.287 . S
C320 C319 1.287 . S
C320 C321 1.524 . S
C320 H339 0.913 . S
C321 H297 0.950 . S
C321 C320 1.524 . S
C321 C322 1.415 . S
C322 H298 0.950 . S
C322 C317 1.363 . S
C322 C321 1.415 . S
C323 H299 0.951 . S
C323 C324 1.366 . S
C323 C325 1.388 . S
C324 C323 1.366 . S
C324 C328 1.385 . S
C325 H300 0.951 . S
C325 C323 1.388 . S
C325 C326 1.366 . S
C326 C325 1.366 . S
C326 C327 1.414 . S
C326 C329 1.499 . S
C327 H301 0.950 . S
C327 C326 1.414 . S
C327 C328 1.374 . S
C328 H302 0.950 . S
C328 C324 1.385 . S
C328 C327 1.374 . S
C329 C326 1.499 . S
C329 C330 1.373 . S
C329 C331 1.389 . S
C330 H303 0.950 . S
C330 C316 1.377 . S
C330 C329 1.373 . S
C331 C315 1.377 . S
C331 C329 1.389 . S
C331 C332 1.524 . S
C332 C331 1.524 . S
C332 C333 1.397 . S
C332 C337 1.363 . S
C333 H304 0.950 . S
C333 C332 1.397 . S
C333 C334 1.334 . S
C334 H305 0.950 . S
C334 C333 1.334 . S
C334 C335 1.287 . S
C335 C334 1.287 . S
C335 C336 1.524 . S
C335 H338 0.999 . S
C336 H306 0.950 . S
C336 C335 1.524 . S
C336 C337 1.415 . S
C337 H307 0.950 . S
C337 C332 1.363 . S
C337 C336 1.415 . S
H338 C335 0.999 . S
H339 C320 0.913 . S
H340 C358 0.951 . S
H341 C360 0.951 . S
H342 C362 0.950 . S
H343 C363 0.950 . S
H344 C365 0.950 . S
H345 C368 0.950 . S
H346 C369 0.950 . S
H347 C371 0.950 . S
H348 C372 0.950 . S
H349 C373 0.951 . S
H350 C375 0.951 . S
H351 C377 0.950 . S
H352 C378 0.950 1_455 S
H353 C380 0.950 . S
H354 C383 0.950 . S
H355 C384 0.950 1_455 S
H356 C386 0.950 . S
H357 C387 0.950 . S
C358 H340 0.951 . S
C358 C359 1.366 . S
C358 C360 1.388 . S
C359 C358 1.366 . S
C359 C363 1.385 . S
C360 H341 0.951 . S
C360 C358 1.388 . S
C360 C361 1.366 . S
C361 C360 1.366 . S
C361 C362 1.414 . S
C361 C364 1.499 . S
C362 H342 0.950 . S
C362 C361 1.414 . S
C362 C363 1.374 . S
C363 H343 0.950 . S
C363 C359 1.385 . S
C363 C362 1.374 . S
C364 C361 1.499 . S
C364 C365 1.373 . S
C364 C366 1.389 . S
C365 H344 0.950 . S
C365 C364 1.373 . S
C365 C381 1.377 . S
C366 C364 1.389 . S
C366 C367 1.524 . S
C366 C380 1.377 . S
C367 C366 1.524 . S
C367 C368 1.397 . S
C367 C372 1.363 . S
C368 H345 0.950 . S
C368 C367 1.397 . S
C368 C369 1.334 . S
C369 H346 0.950 . S
C369 C368 1.334 . S
C369 C370 1.287 . S
C370 C369 1.287 . S
C370 C371 1.524 . S
C370 H389 0.913 . S
C371 H347 0.950 . S
C371 C370 1.524 . S
C371 C372 1.415 . S
C372 H348 0.950 . S
C372 C367 1.363 . S
C372 C371 1.415 . S
C373 H349 0.951 . S
C373 C374 1.366 . S
C373 C375 1.388 . S
C374 C373 1.366 . S
C374 C378 1.385 . S
C375 H350 0.951 . S
C375 C373 1.388 . S
C375 C376 1.366 . S
C376 C375 1.366 . S
C376 C377 1.414 . S
C376 C379 1.499 . S
C377 H351 0.950 . S
C377 C376 1.414 . S
C377 C378 1.374 . S
C378 H352 0.950 1_655 S
C378 C374 1.385 . S
C378 C377 1.374 . S
C379 C376 1.499 . S
C379 C380 1.373 . S
C379 C381 1.389 . S
C380 H353 0.950 . S
C380 C366 1.377 . S
C380 C379 1.373 . S
C381 C365 1.377 . S
C381 C379 1.389 . S
C381 C382 1.524 . S
C382 C381 1.524 . S
C382 C383 1.397 . S
C382 C387 1.363 . S
C383 H354 0.950 . S
C383 C382 1.397 . S
C383 C384 1.334 . S
C384 H355 0.950 1_655 S
C384 C383 1.334 . S
C384 C385 1.287 . S
C385 C384 1.287 . S
C385 C386 1.524 . S
C385 H388 0.999 . S
C386 H356 0.950 . S
C386 C385 1.524 . S
C386 C387 1.415 . S
C387 H357 0.950 . S
C387 C382 1.363 . S
C387 C386 1.415 . S
H388 C385 0.999 . S
H389 C370 0.913 . S
H390 C408 0.951 . S
H391 C410 0.951 . S
H392 C412 0.950 . S
H393 C413 0.950 . S
H394 C415 0.950 . S
H395 C418 0.950 . S
H396 C419 0.950 . S
H397 C421 0.950 . S
H398 C422 0.950 . S
H399 C423 0.951 . S
H400 C425 0.951 . S
H401 C427 0.950 . S
H402 C428 0.950 . S
H403 C430 0.950 . S
H404 C433 0.950 . S
H405 C434 0.950 . S
H406 C436 0.950 . S
H407 C437 0.950 . S
C408 H390 0.951 . S
C408 C409 1.366 . S
C408 C410 1.388 . S
C409 C408 1.366 . S
C409 C413 1.385 . S
C410 H391 0.951 . S
C410 C408 1.388 . S
C410 C411 1.366 . S
C411 C410 1.366 . S
C411 C412 1.414 . S
C411 C414 1.499 . S
C412 H392 0.950 . S
C412 C411 1.414 . S
C412 C413 1.374 . S
C413 H393 0.950 . S
C413 C409 1.385 . S
C413 C412 1.374 . S
C414 C411 1.499 . S
C414 C415 1.373 . S
C414 C416 1.389 . S
C415 H394 0.950 . S
C415 C414 1.373 . S
C415 C431 1.377 . S
C416 C414 1.389 . S
C416 C417 1.524 . S
C416 C430 1.377 . S
C417 C416 1.524 . S
C417 C418 1.397 . S
C417 C422 1.363 . S
C418 H395 0.950 . S
C418 C417 1.397 . S
C418 C419 1.334 . S
C419 H396 0.950 . S
C419 C418 1.334 . S
C419 C420 1.287 . S
C420 C419 1.287 . S
C420 C421 1.524 . S
C420 H439 0.913 . S
C421 H397 0.950 . S
C421 C420 1.524 . S
C421 C422 1.415 . S
C422 H398 0.950 . S
C422 C417 1.363 . S
C422 C421 1.415 . S
C423 H399 0.951 . S
C423 C424 1.366 . S
C423 C425 1.388 . S
C424 C423 1.366 . S
C424 C428 1.385 . S
C425 H400 0.951 . S
C425 C423 1.388 . S
C425 C426 1.366 . S
C426 C425 1.366 . S
C426 C427 1.414 . S
C426 C429 1.499 . S
C427 H401 0.950 . S
C427 C426 1.414 . S
C427 C428 1.374 . S
C428 H402 0.950 . S
C428 C424 1.385 . S
C428 C427 1.374 . S
C429 C426 1.499 . S
C429 C430 1.373 . S
C429 C431 1.389 . S
C430 H403 0.950 . S
C430 C416 1.377 . S
C430 C429 1.373 . S
C431 C415 1.377 . S
C431 C429 1.389 . S
C431 C432 1.524 . S
C432 C431 1.524 . S
C432 C433 1.397 . S
C432 C437 1.363 . S
C433 H404 0.950 . S
C433 C432 1.397 . S
C433 C434 1.334 . S
C434 H405 0.950 . S
C434 C433 1.334 . S
C434 C435 1.287 . S
C435 C434 1.287 . S
C435 C436 1.524 . S
C435 H438 0.999 . S
C436 H406 0.950 . S
C436 C435 1.524 . S
C436 C437 1.415 . S
C437 H407 0.950 . S
C437 C432 1.363 . S
C437 C436 1.415 . S
H438 C435 0.999 . S
H439 C420 0.913 . S
H440 C458 0.951 . S
H441 C460 0.951 . S
H442 C462 0.950 . S
H443 C463 0.950 . S
H444 C465 0.950 . S
H445 C468 0.950 . S
H446 C469 0.950 . S
H447 C471 0.950 . S
H448 C472 0.950 . S
H449 C473 0.951 . S
H450 C475 0.951 . S
H451 C477 0.950 . S
H452 C478 0.950 . S
H453 C480 0.950 . S
H454 C483 0.950 . S
H455 C484 0.950 . S
H456 C486 0.950 . S
H457 C487 0.950 . S
C458 H440 0.951 . S
C458 C459 1.366 . S
C458 C460 1.388 . S
C459 C458 1.366 . S
C459 C463 1.385 . S
C460 H441 0.951 . S
C460 C458 1.388 . S
C460 C461 1.366 . S
C461 C460 1.366 . S
C461 C462 1.414 . S
C461 C464 1.499 . S
C462 H442 0.950 . S
C462 C461 1.414 . S
C462 C463 1.374 . S
C463 H443 0.950 . S
C463 C459 1.385 . S
C463 C462 1.374 . S
C464 C461 1.499 . S
C464 C465 1.373 . S
C464 C466 1.389 . S
C465 H444 0.950 . S
C465 C464 1.373 . S
C465 C481 1.377 . S
C466 C464 1.389 . S
C466 C467 1.524 . S
C466 C480 1.377 . S
C467 C466 1.524 . S
C467 C468 1.397 . S
C467 C472 1.363 . S
C468 H445 0.950 . S
C468 C467 1.397 . S
C468 C469 1.334 . S
C469 H446 0.950 . S
C469 C468 1.334 . S
C469 C470 1.287 . S
C470 C469 1.287 . S
C470 C471 1.524 . S
C470 H489 0.913 . S
C471 H447 0.950 . S
C471 C470 1.524 . S
C471 C472 1.415 . S
C472 H448 0.950 . S
C472 C467 1.363 . S
C472 C471 1.415 . S
C473 H449 0.951 . S
C473 C474 1.366 . S
C473 C475 1.388 . S
C474 C473 1.366 . S
C474 C478 1.385 . S
C475 H450 0.951 . S
C475 C473 1.388 . S
C475 C476 1.366 . S
C476 C475 1.366 . S
C476 C477 1.414 . S
C476 C479 1.499 . S
C477 H451 0.950 . S
C477 C476 1.414 . S
C477 C478 1.374 . S
C478 H452 0.950 . S
C478 C474 1.385 . S
C478 C477 1.374 . S
C479 C476 1.499 . S
C479 C480 1.373 . S
C479 C481 1.389 . S
C480 H453 0.950 . S
C480 C466 1.377 . S
C480 C479 1.373 . S
C481 C465 1.377 . S
C481 C479 1.389 . S
C481 C482 1.524 . S
C482 C481 1.524 . S
C482 C483 1.397 . S
C482 C487 1.363 . S
C483 H454 0.950 . S
C483 C482 1.397 . S
C483 C484 1.334 . S
C484 H455 0.950 . S
C484 C483 1.334 . S
C484 C485 1.287 . S
C485 C484 1.287 . S
C485 C486 1.524 . S
C485 H488 0.999 . S
C486 H456 0.950 . S
C486 C485 1.524 . S
C486 C487 1.415 . S
C487 H457 0.950 . S
C487 C482 1.363 . S
C487 C486 1.415 . S
H488 C485 0.999 . S
H489 C470 0.913 . S
H490 C508 0.951 . S
H491 C510 0.951 . S
H492 C512 0.950 . S
H493 C513 0.950 . S
H494 C515 0.950 . S
H495 C518 0.950 1_655 S
H496 C519 0.952 . S
H497 C521 0.950 . S
H498 C522 0.950 . S
H499 C523 0.951 . S
H500 C525 0.951 . S
H501 C527 0.950 . S
H502 C528 0.950 1_565 S
H503 C530 0.950 . S
H504 C533 0.950 . S
H505 C534 0.950 . S
H506 C536 0.950 . S
H507 C537 0.950 . S
C508 H490 0.951 . S
C508 C509 1.366 . S
C508 C510 1.388 . S
C509 C508 1.366 . S
C509 C513 1.385 1_565 S
C510 H491 0.951 . S
C510 C508 1.388 . S
C510 C511 1.366 . S
C511 C510 1.366 . S
C511 C512 1.414 1_565 S
C511 C514 1.499 1_565 S
C512 H492 0.950 . S
C512 C511 1.414 1_545 S
C512 C513 1.374 . S
C513 H493 0.950 . S
C513 C509 1.385 1_545 S
C513 C512 1.374 . S
C514 C511 1.499 1_545 S
C514 C515 1.373 . S
C514 C516 1.389 1_545 S
C515 H494 0.950 . S
C515 C514 1.373 . S
C515 C531 1.377 . S
C516 C514 1.389 1_565 S
C516 C517 1.524 . S
C516 C530 1.377 . S
C517 C516 1.524 . S
C517 C518 1.397 . S
C517 C522 1.363 . S
C518 H495 0.950 1_455 S
C518 C517 1.397 . S
C518 C519 1.334 1_455 S
C519 H496 0.952 . S
C519 C518 1.334 1_655 S
C519 C520 1.286 1_655 S
C520 C519 1.286 1_455 S
C520 C521 1.524 . S
C520 H539 0.913 . S
C521 H497 0.950 . S
C521 C520 1.524 . S
C521 C522 1.415 . S
C522 H498 0.950 . S
C522 C517 1.363 . S
C522 C521 1.415 . S
C523 H499 0.951 . S
C523 C524 1.366 . S
C523 C525 1.388 . S
C524 C523 1.366 . S
C524 C528 1.385 . S
C525 H500 0.951 . S
C525 C523 1.388 . S
C525 C526 1.366 . S
C526 C525 1.366 . S
C526 C527 1.414 1_545 S
C526 C529 1.499 . S
C527 H501 0.950 . S
C527 C526 1.414 1_565 S
C527 C528 1.374 1_565 S
C528 H502 0.950 1_545 S
C528 C524 1.385 . S
C528 C527 1.374 1_545 S
C529 C526 1.499 . S
C529 C530 1.373 1_545 S
C529 C531 1.389 . S
C530 H503 0.950 . S
C530 C516 1.377 . S
C530 C529 1.373 1_565 S
C531 C515 1.377 . S
C531 C529 1.389 . S
C531 C532 1.524 . S
C532 C531 1.524 . S
C532 C533 1.397 . S
C532 C537 1.363 . S
C533 H504 0.950 . S
C533 C532 1.397 . S
C533 C534 1.334 . S
C534 H505 0.950 . S
C534 C533 1.334 . S
C534 C535 1.287 . S
C535 C534 1.287 . S
C535 C536 1.524 . S
C535 H538 0.999 . S
C536 H506 0.950 . S
C536 C535 1.524 . S
C536 C537 1.415 . S
C537 H507 0.950 . S
C537 C532 1.363 . S
C537 C536 1.415 . S
H538 C535 0.999 . S
H539 C520 0.913 . S
H540 C558 0.951 . S
H541 C560 0.951 1_655 S
H542 C562 0.950 . S
H543 C563 0.950 . S
H544 C565 0.950 . S
H545 C568 0.938 1_565 S
H546 C569 0.950 1_565 S
H547 C571 0.950 . S
H548 C572 0.950 . S
H549 C573 0.951 . S
H550 C575 0.951 . S
H551 C577 0.950 . S
H552 C578 0.950 . S
H553 C580 0.950 . S
H554 C583 0.950 . S
H555 C584 0.950 . S
H556 C586 0.950 . S
H557 C587 0.950 . S
C558 H540 0.951 . S
C558 C559 1.366 1_545 S
C558 C560 1.388 . S
C559 C558 1.366 1_565 S
C559 C563 1.385 . S
C560 H541 0.951 1_455 S
C560 C558 1.388 . S
C560 C561 1.366 1_545 S
C561 C560 1.366 1_565 S
C561 C562 1.414 . S
C561 C564 1.499 1_565 S
C562 H542 0.950 . S
C562 C561 1.414 . S
C562 C563 1.374 . S
C563 H543 0.950 . S
C563 C559 1.385 . S
C563 C562 1.374 . S
C564 C561 1.499 1_545 S
C564 C565 1.373 1_545 S
C564 C566 1.389 1_455 S
C565 H544 0.950 . S
C565 C564 1.373 1_565 S
C565 C581 1.377 . S
C566 C564 1.389 1_655 S
C566 C567 1.524 . S
C566 C580 1.377 . S
C567 C566 1.524 . S
C567 C568 1.406 . S
C567 C572 1.363 . S
C568 H545 0.938 1_545 S
C568 C567 1.406 . S
C568 C569 1.336 . S
C569 H546 0.950 1_545 S
C569 C568 1.336 . S
C569 C570 1.287 . S
C570 C569 1.287 . S
C570 C571 1.524 . S
C570 H589 0.913 . S
C571 H547 0.950 . S
C571 C570 1.524 . S
C571 C572 1.415 . S
C572 H548 0.950 . S
C572 C567 1.363 . S
C572 C571 1.415 . S
C573 H549 0.951 . S
C573 C574 1.366 1_465 S
C573 C575 1.388 . S
C574 C573 1.366 1_645 S
C574 C578 1.385 . S
C575 H550 0.951 . S
C575 C573 1.388 . S
C575 C576 1.366 1_565 S
C576 C575 1.366 1_545 S
C576 C577 1.414 1_455 S
C576 C579 1.499 . S
C577 H551 0.950 . S
C577 C576 1.414 1_655 S
C577 C578 1.374 . S
C578 H552 0.950 . S
C578 C574 1.385 . S
C578 C577 1.374 . S
C579 C576 1.499 . S
C579 C580 1.373 1_455 S
C579 C581 1.389 1_545 S
C580 H553 0.950 . S
C580 C566 1.377 . S
C580 C579 1.373 1_655 S
C581 C565 1.377 . S
C581 C579 1.389 1_565 S
C581 C582 1.524 . S
C582 C581 1.524 . S
C582 C583 1.397 1_565 S
C582 C587 1.363 . S
C583 H554 0.950 . S
C583 C582 1.397 1_545 S
C583 C584 1.334 . S
C584 H555 0.950 . S
C584 C583 1.334 . S
C584 C585 1.287 1_545 S
C585 C584 1.287 1_565 S
C585 C586 1.524 . S
C585 H588 0.999 . S
C586 H556 0.950 . S
C586 C585 1.524 . S
C586 C587 1.415 . S
C587 H557 0.950 . S
C587 C582 1.363 . S
C587 C586 1.415 . S
H588 C585 0.999 . S
H589 C570 0.913 . S
H590 C608 0.951 . S
H591 C610 0.951 . S
H592 C612 0.950 . S
H593 C613 0.950 . S
H594 C615 0.950 . S
H595 C618 0.950 . S
H596 C619 0.950 . S
H597 C621 0.950 . S
H598 C622 0.950 . S
H599 C623 0.951 . S
H600 C625 0.951 . S
H601 C627 0.950 . S
H602 C628 0.950 . S
H603 C630 0.950 . S
H604 C633 0.950 . S
H605 C634 0.950 . S
H606 C636 0.950 . S
H607 C637 0.950 . S
C608 H590 0.951 . S
C608 C609 1.366 . S
C608 C610 1.388 . S
C609 C608 1.366 . S
C609 C613 1.385 . S
C610 H591 0.951 . S
C610 C608 1.388 . S
C610 C611 1.366 . S
C611 C610 1.366 . S
C611 C612 1.414 . S
C611 C614 1.499 . S
C612 H592 0.950 . S
C612 C611 1.414 . S
C612 C613 1.374 . S
C613 H593 0.950 . S
C613 C609 1.385 . S
C613 C612 1.374 . S
C614 C611 1.499 . S
C614 C615 1.373 . S
C614 C616 1.389 . S
C615 H594 0.950 . S
C615 C614 1.373 . S
C615 C631 1.377 . S
C616 C614 1.389 . S
C616 C617 1.524 . S
C616 C630 1.377 . S
C617 C616 1.524 . S
C617 C618 1.397 . S
C617 C622 1.363 . S
C618 H595 0.950 . S
C618 C617 1.397 . S
C618 C619 1.334 . S
C619 H596 0.950 . S
C619 C618 1.334 . S
C619 C620 1.287 . S
C620 C619 1.287 . S
C620 C621 1.524 . S
C620 H639 0.913 . S
C621 H597 0.950 . S
C621 C620 1.524 . S
C621 C622 1.415 . S
C622 H598 0.950 . S
C622 C617 1.363 . S
C622 C621 1.415 . S
C623 H599 0.951 . S
C623 C624 1.366 . S
C623 C625 1.388 . S
C624 C623 1.366 . S
C624 C628 1.385 . S
C625 H600 0.951 . S
C625 C623 1.388 . S
C625 C626 1.366 . S
C626 C625 1.366 . S
C626 C627 1.414 . S
C626 C629 1.499 . S
C627 H601 0.950 . S
C627 C626 1.414 . S
C627 C628 1.374 . S
C628 H602 0.950 . S
C628 C624 1.385 . S
C628 C627 1.374 . S
C629 C626 1.499 . S
C629 C630 1.373 . S
C629 C631 1.389 . S
C630 H603 0.950 . S
C630 C616 1.377 . S
C630 C629 1.373 . S
C631 C615 1.377 . S
C631 C629 1.389 . S
C631 C632 1.524 . S
C632 C631 1.524 . S
C632 C633 1.397 . S
C632 C637 1.363 . S
C633 H604 0.950 . S
C633 C632 1.397 . S
C633 C634 1.334 . S
C634 H605 0.950 . S
C634 C633 1.334 . S
C634 C635 1.287 . S
C635 C634 1.287 . S
C635 C636 1.524 . S
C635 H638 0.999 . S
C636 H606 0.950 . S
C636 C635 1.524 . S
C636 C637 1.415 . S
C637 H607 0.950 . S
C637 C632 1.363 . S
C637 C636 1.415 . S
H638 C635 0.999 . S
H639 C620 0.913 . S
H640 C658 0.951 . S
H641 C660 0.951 . S
H642 C662 0.950 . S
H643 C663 0.950 . S
H644 C665 0.950 . S
H645 C668 0.950 . S
H646 C669 0.950 . S
H647 C671 0.950 . S
H648 C672 0.950 . S
H649 C673 0.951 . S
H650 C675 0.951 . S
H651 C677 0.950 . S
H652 C678 0.950 . S
H653 C680 0.950 . S
H654 C683 0.950 . S
H655 C684 0.950 . S
H656 C686 0.950 . S
H657 C687 0.950 . S
C658 H640 0.951 . S
C658 C659 1.366 . S
C658 C660 1.388 . S
C659 C658 1.366 . S
C659 C663 1.385 . S
C660 H641 0.951 . S
C660 C658 1.388 . S
C660 C661 1.366 . S
C661 C660 1.366 . S
C661 C662 1.414 . S
C661 C664 1.499 . S
C662 H642 0.950 . S
C662 C661 1.414 . S
C662 C663 1.374 . S
C663 H643 0.950 . S
C663 C659 1.385 . S
C663 C662 1.374 . S
C664 C661 1.499 . S
C664 C665 1.373 . S
C664 C666 1.389 . S
C665 H644 0.950 . S
C665 C664 1.373 . S
C665 C681 1.377 . S
C666 C664 1.389 . S
C666 C667 1.524 . S
C666 C680 1.377 . S
C667 C666 1.524 . S
C667 C668 1.397 . S
C667 C672 1.363 . S
C668 H645 0.950 . S
C668 C667 1.397 . S
C668 C669 1.334 . S
C669 H646 0.950 . S
C669 C668 1.334 . S
C669 C670 1.287 . S
C670 C669 1.287 . S
C670 C671 1.524 . S
C670 H689 0.913 . S
C671 H647 0.950 . S
C671 C670 1.524 . S
C671 C672 1.415 . S
C672 H648 0.950 . S
C672 C667 1.363 . S
C672 C671 1.415 . S
C673 H649 0.951 . S
C673 C674 1.366 . S
C673 C675 1.388 . S
C674 C673 1.366 . S
C674 C678 1.385 . S
C675 H650 0.951 . S
C675 C673 1.388 . S
C675 C676 1.366 . S
C676 C675 1.366 . S
C676 C677 1.414 . S
C676 C679 1.499 . S
C677 H651 0.950 . S
C677 C676 1.414 . S
C677 C678 1.374 . S
C678 H652 0.950 . S
C678 C674 1.385 . S
C678 C677 1.374 . S
C679 C676 1.499 . S
C679 C680 1.373 . S
C679 C681 1.389 . S
C680 H653 0.950 . S
C680 C666 1.377 . S
C680 C679 1.373 . S
C681 C665 1.377 . S
C681 C679 1.389 . S
C681 C682 1.524 . S
C682 C681 1.524 . S
C682 C683 1.397 . S
C682 C687 1.363 . S
C683 H654 0.950 . S
C683 C682 1.397 . S
C683 C684 1.334 . S
C684 H655 0.950 . S
C684 C683 1.334 . S
C684 C685 1.287 . S
C685 C684 1.287 . S
C685 C686 1.524 . S
C685 H688 0.999 . S
C686 H656 0.950 . S
C686 C685 1.524 . S
C686 C687 1.415 . S
C687 H657 0.950 . S
C687 C682 1.363 . S
C687 C686 1.415 . S
H688 C685 0.999 . S
H689 C670 0.913 . S
C124 C84 1.278 . S
C109 C3 1.176 . S
C159 C4 1.456 . S
C174 C70 1.520 . S
C209 C19 1.473 . S
C224 C82 1.541 . S
C259 C7 1.179 . S
C274 C72 1.289 . S
C309 C37 1.175 . S
C324 C60 1.279 . S
C359 C28 1.444 . S
C374 C46 1.519 1_655 S
C424 C58 1.541 . S
C409 C41 1.473 . S
C474 C48 1.290 . S
C459 C25 1.179 . S
C509 C20 1.341 . S
C524 C51 1.469 . S
C559 C16 1.394 . S
C574 C63 1.519 . S
C624 C75 1.469 . S
C609 C40 1.343 . S
C659 C24 1.393 . S
C674 C87 1.520 . S
