# Generated by pormake.
# Topology ctn, (3,4)-cn, num edge types: 1
# Building blocks:
#     Node 0, Type 0, BuildingBlock: CUQRIR_clean_linker_1, # of connection points: 3
#     Node 1, Type 0, BuildingBlock: CUQRIR_clean_linker_1, # of connection points: 3
#     Node 2, Type 0, BuildingBlock: CUQRIR_clean_linker_1, # of connection points: 3
#     Node 3, Type 0, BuildingBlock: CUQRIR_clean_linker_1, # of connection points: 3
#     Node 4, Type 0, BuildingBlock: CUQRIR_clean_linker_1, # of connection points: 3
#     Node 5, Type 0, BuildingBlock: CUQRIR_clean_linker_1, # of connection points: 3
#     Node 6, Type 0, BuildingBlock: CUQRIR_clean_linker_1, # of connection points: 3
#     Node 7, Type 0, BuildingBlock: CUQRIR_clean_linker_1, # of connection points: 3
#     Node 8, Type 0, BuildingBlock: CUQRIR_clean_linker_1, # of connection points: 3
#     Node 9, Type 0, BuildingBlock: CUQRIR_clean_linker_1, # of connection points: 3
#     Node 10, Type 0, BuildingBlock: CUQRIR_clean_linker_1, # of connection points: 3
#     Node 11, Type 0, BuildingBlock: CUQRIR_clean_linker_1, # of connection points: 3
#     Node 12, Type 0, BuildingBlock: CUQRIR_clean_linker_1, # of connection points: 3
#     Node 13, Type 0, BuildingBlock: CUQRIR_clean_linker_1, # of connection points: 3
#     Node 14, Type 0, BuildingBlock: CUQRIR_clean_linker_1, # of connection points: 3
#     Node 15, Type 0, BuildingBlock: CUQRIR_clean_linker_1, # of connection points: 3
#     Node 16, Type 1, BuildingBlock: QUQFOY_clean_sbu_1, # of connection points: 4
#     Node 17, Type 1, BuildingBlock: QUQFOY_clean_sbu_1, # of connection points: 4
#     Node 18, Type 1, BuildingBlock: QUQFOY_clean_sbu_1, # of connection points: 4
#     Node 19, Type 1, BuildingBlock: QUQFOY_clean_sbu_1, # of connection points: 4
#     Node 20, Type 1, BuildingBlock: QUQFOY_clean_sbu_1, # of connection points: 4
#     Node 21, Type 1, BuildingBlock: QUQFOY_clean_sbu_1, # of connection points: 4
#     Node 22, Type 1, BuildingBlock: QUQFOY_clean_sbu_1, # of connection points: 4
#     Node 23, Type 1, BuildingBlock: QUQFOY_clean_sbu_1, # of connection points: 4
#     Node 24, Type 1, BuildingBlock: QUQFOY_clean_sbu_1, # of connection points: 4
#     Node 25, Type 1, BuildingBlock: QUQFOY_clean_sbu_1, # of connection points: 4
#     Node 26, Type 1, BuildingBlock: QUQFOY_clean_sbu_1, # of connection points: 4
#     Node 27, Type 1, BuildingBlock: QUQFOY_clean_sbu_1, # of connection points: 4
#     Edge 28, Type (0, 1), BuildingBlock: ZUJKAS_clean_linker_0, # of connection points: 2
#     Edge 29, Type (0, 1), BuildingBlock: ZUJKAS_clean_linker_0, # of connection points: 2
#     Edge 30, Type (0, 1), BuildingBlock: ZUJKAS_clean_linker_0, # of connection points: 2
#     Edge 31, Type (0, 1), BuildingBlock: ZUJKAS_clean_linker_0, # of connection points: 2
#     Edge 32, Type (0, 1), BuildingBlock: ZUJKAS_clean_linker_0, # of connection points: 2
#     Edge 33, Type (0, 1), BuildingBlock: ZUJKAS_clean_linker_0, # of connection points: 2
#     Edge 34, Type (0, 1), BuildingBlock: ZUJKAS_clean_linker_0, # of connection points: 2
#     Edge 35, Type (0, 1), BuildingBlock: ZUJKAS_clean_linker_0, # of connection points: 2
#     Edge 36, Type (0, 1), BuildingBlock: ZUJKAS_clean_linker_0, # of connection points: 2
#     Edge 37, Type (0, 1), BuildingBlock: ZUJKAS_clean_linker_0, # of connection points: 2
#     Edge 38, Type (0, 1), BuildingBlock: ZUJKAS_clean_linker_0, # of connection points: 2
#     Edge 39, Type (0, 1), BuildingBlock: ZUJKAS_clean_linker_0, # of connection points: 2
#     Edge 40, Type (0, 1), BuildingBlock: ZUJKAS_clean_linker_0, # of connection points: 2
#     Edge 41, Type (0, 1), BuildingBlock: ZUJKAS_clean_linker_0, # of connection points: 2
#     Edge 42, Type (0, 1), BuildingBlock: ZUJKAS_clean_linker_0, # of connection points: 2
#     Edge 43, Type (0, 1), BuildingBlock: ZUJKAS_clean_linker_0, # of connection points: 2
#     Edge 44, Type (0, 1), BuildingBlock: ZUJKAS_clean_linker_0, # of connection points: 2
#     Edge 45, Type (0, 1), BuildingBlock: ZUJKAS_clean_linker_0, # of connection points: 2
#     Edge 46, Type (0, 1), BuildingBlock: ZUJKAS_clean_linker_0, # of connection points: 2
#     Edge 47, Type (0, 1), BuildingBlock: ZUJKAS_clean_linker_0, # of connection points: 2
#     Edge 48, Type (0, 1), BuildingBlock: ZUJKAS_clean_linker_0, # of connection points: 2
#     Edge 49, Type (0, 1), BuildingBlock: ZUJKAS_clean_linker_0, # of connection points: 2
#     Edge 50, Type (0, 1), BuildingBlock: ZUJKAS_clean_linker_0, # of connection points: 2
#     Edge 51, Type (0, 1), BuildingBlock: ZUJKAS_clean_linker_0, # of connection points: 2
#     Edge 52, Type (0, 1), BuildingBlock: ZUJKAS_clean_linker_0, # of connection points: 2
#     Edge 53, Type (0, 1), BuildingBlock: ZUJKAS_clean_linker_0, # of connection points: 2
#     Edge 54, Type (0, 1), BuildingBlock: ZUJKAS_clean_linker_0, # of connection points: 2
#     Edge 55, Type (0, 1), BuildingBlock: ZUJKAS_clean_linker_0, # of connection points: 2
#     Edge 56, Type (0, 1), BuildingBlock: ZUJKAS_clean_linker_0, # of connection points: 2
#     Edge 57, Type (0, 1), BuildingBlock: ZUJKAS_clean_linker_0, # of connection points: 2
#     Edge 58, Type (0, 1), BuildingBlock: ZUJKAS_clean_linker_0, # of connection points: 2
#     Edge 59, Type (0, 1), BuildingBlock: ZUJKAS_clean_linker_0, # of connection points: 2
#     Edge 60, Type (0, 1), BuildingBlock: ZUJKAS_clean_linker_0, # of connection points: 2
#     Edge 61, Type (0, 1), BuildingBlock: ZUJKAS_clean_linker_0, # of connection points: 2
#     Edge 62, Type (0, 1), BuildingBlock: ZUJKAS_clean_linker_0, # of connection points: 2
#     Edge 63, Type (0, 1), BuildingBlock: ZUJKAS_clean_linker_0, # of connection points: 2
#     Edge 64, Type (0, 1), BuildingBlock: ZUJKAS_clean_linker_0, # of connection points: 2
#     Edge 65, Type (0, 1), BuildingBlock: ZUJKAS_clean_linker_0, # of connection points: 2
#     Edge 66, Type (0, 1), BuildingBlock: ZUJKAS_clean_linker_0, # of connection points: 2
#     Edge 67, Type (0, 1), BuildingBlock: ZUJKAS_clean_linker_0, # of connection points: 2
#     Edge 68, Type (0, 1), BuildingBlock: ZUJKAS_clean_linker_0, # of connection points: 2
#     Edge 69, Type (0, 1), BuildingBlock: ZUJKAS_clean_linker_0, # of connection points: 2
#     Edge 70, Type (0, 1), BuildingBlock: ZUJKAS_clean_linker_0, # of connection points: 2
#     Edge 71, Type (0, 1), BuildingBlock: ZUJKAS_clean_linker_0, # of connection points: 2
#     Edge 72, Type (0, 1), BuildingBlock: ZUJKAS_clean_linker_0, # of connection points: 2
#     Edge 73, Type (0, 1), BuildingBlock: ZUJKAS_clean_linker_0, # of connection points: 2
#     Edge 74, Type (0, 1), BuildingBlock: ZUJKAS_clean_linker_0, # of connection points: 2
#     Edge 75, Type (0, 1), BuildingBlock: ZUJKAS_clean_linker_0, # of connection points: 2
# Relax obj value: 0.105
# Max RMSD: 0.206
# Mean RMSD: 0.156
data_MOF--net-ctn--node1-QUQFOY_clean_sbu_1--node2-CUQRIR_clean_linker_1--edge1-ZUJKAS_clean_linker_0
_symmetry_space_group_name_H-M    P1
_symmetry_Int_Tables_number       1
_symmetry_cell_setting            triclinic
loop_
_symmetry_equiv_pos_as_xyz
'x, y, z'
_cell_length_a     69.111423
_cell_length_b     64.126874
_cell_length_c     65.991452
_cell_angle_alpha  99.872943
_cell_angle_beta   88.719179
_cell_angle_gamma 97.840122
loop_
_atom_site_label
_atom_site_type_symbol
_atom_site_fract_x
_atom_site_fract_y
_atom_site_fract_z
_atom_type_partial_charge
C0 C 0.03986 0.07256 0.11516 0.0
N1 N 0.04877 0.07497 0.09706 0.0
N2 N 0.0285 0.0881 0.12114 0.0
C3 C 0.04284 0.05561 0.12754 0.0
C4 C 0.03092 0.10019 0.10613 0.0
N5 N 0.04348 0.09239 0.09163 0.0
C6 C 0.01948 0.11819 0.10442 0.0
H7 H 0.03247 0.04102 0.12214 0.0
H8 H 0.04007 0.06104 0.14411 0.0
H9 H 0.05793 0.05147 0.12559 0.0
H10 H 0.00636 0.11793 0.1144 0.0
H11 H 0.01484 0.11736 0.08828 0.0
H12 H 0.02901 0.1336 0.10905 0.0
C13 C 0.28229 0.75949 0.2485 0.0
N14 N 0.29067 0.74946 0.26173 0.0
N15 N 0.29362 0.77784 0.2462 0.0
C16 C 0.26326 0.75113 0.23745 0.0
C17 C 0.30926 0.77863 0.25845 0.0
N18 N 0.30733 0.76146 0.26816 0.0
C19 C 0.32666 0.7957 0.26028 0.0
H20 H 0.26621 0.74043 0.22297 0.0
H21 H 0.25604 0.76429 0.23345 0.0
H22 H 0.2532 0.74183 0.24699 0.0
H23 H 0.32492 0.80776 0.27417 0.0
H24 H 0.32798 0.80392 0.24675 0.0
H25 H 0.34027 0.78877 0.26202 0.0
C26 C 0.96263 0.50847 0.09042 0.0
N27 N 0.97195 0.49099 0.08912 0.0
N28 N 0.95083 0.50671 0.07394 0.0
C29 C 0.96631 0.52808 0.10673 0.0
C30 C 0.95334 0.48764 0.06252 0.0
N31 N 0.96628 0.47817 0.07166 0.0
C32 C 0.94225 0.47767 0.04311 0.0
H33 H 0.95655 0.52592 0.12 0.0
H34 H 0.9632 0.54249 0.10086 0.0
H35 H 0.98166 0.53063 0.11218 0.0
H36 H 0.95089 0.48199 0.02971 0.0
H37 H 0.92791 0.48358 0.0429 0.0
H38 H 0.93989 0.46 0.04154 0.0
C39 C 0.70671 0.76272 0.25352 0.0
N40 N 0.72081 0.77582 0.24554 0.0
N41 N 0.69857 0.77352 0.27028 0.0
C42 C 0.69958 0.74006 0.24383 0.0
C43 C 0.70812 0.79363 0.27213 0.0
N44 N 0.72147 0.79509 0.25698 0.0
C45 C 0.70504 0.81153 0.28937 0.0
H46 H 0.68424 0.73522 0.2482 0.0
H47 H 0.7089 0.72932 0.24922 0.0
H48 H 0.70065 0.73804 0.22683 0.0
H49 H 0.69923 0.8052 0.30325 0.0
H50 H 0.69433 0.82104 0.28439 0.0
H51 H 0.71891 0.82226 0.29337 0.0
C52 C 0.03152 0.99902 0.49737 0.0
N53 N 0.05002 1.00016 0.50429 0.0
N54 N 0.03126 0.00958 0.48132 0.0
C55 C 0.01396 0.98588 0.50492 0.0
C56 C 0.05025 0.017 0.47855 0.0
N57 N 0.06169 0.01106 0.49235 0.0
C58 C 0.05743 0.03135 0.46337 0.0
H59 H 0.00272 0.98067 0.49269 0.0
H60 H 0.00747 0.99573 0.51813 0.0
H61 H 0.01815 0.97157 0.51014 0.0
H62 H 0.04575 0.04027 0.45946 0.0
H63 H 0.06201 0.02145 0.44907 0.0
H64 H 0.0702 0.04292 0.4696 0.0
C65 C 0.19393 0.75233 0.80282 0.0
N66 N 0.20623 0.74357 0.81348 0.0
N67 N 0.19406 0.74375 0.78263 0.0
C68 C 0.18266 0.77022 0.81188 0.0
C69 C 0.20707 0.72957 0.78132 0.0
N70 N 0.21465 0.72961 0.80012 0.0
C71 C 0.2109 0.71436 0.76209 0.0
H72 H 0.16852 0.76335 0.81788 0.0
H73 H 0.17964 0.77979 0.80009 0.0
H74 H 0.19084 0.7809 0.8248 0.0
H75 H 0.22396 0.72138 0.75428 0.0
H76 H 0.19835 0.71155 0.75132 0.0
H77 H 0.2138 0.69884 0.76581 0.0
C78 C 0.92622 0.55989 0.44259 0.0
N79 N 0.94063 0.57637 0.44219 0.0
N80 N 0.9104 0.56685 0.45258 0.0
C81 C 0.92802 0.53682 0.43458 0.0
C82 C 0.91568 0.58815 0.45813 0.0
N83 N 0.93399 0.594 0.45159 0.0
C84 C 0.90385 0.60283 0.47192 0.0
H85 H 0.93862 0.53531 0.42171 0.0
H86 H 0.91367 0.52784 0.42924 0.0
H87 H 0.93319 0.52955 0.44719 0.0
H88 H 0.91103 0.60755 0.4872 0.0
H89 H 0.88871 0.59511 0.47386 0.0
H90 H 0.90327 0.61757 0.46542 0.0
C91 C 0.78898 0.82265 0.82013 0.0
N92 N 0.80427 0.81152 0.81574 0.0
N93 N 0.78714 0.8349 0.80567 0.0
C94 C 0.77576 0.82145 0.83844 0.0
C95 C 0.80183 0.83075 0.7923 0.0
N96 N 0.81218 0.81641 0.79835 0.0
C97 C 0.80696 0.8419 0.77422 0.0
H98 H 0.77436 0.80544 0.84297 0.0
H99 H 0.76103 0.82515 0.8352 0.0
H100 H 0.78213 0.83334 0.85163 0.0
H101 H 0.8021 0.85794 0.77674 0.0
H102 H 0.79951 0.83222 0.76031 0.0
H103 H 0.82293 0.84363 0.77136 0.0
C104 C 0.28576 0.31863 0.32163 0.0
N105 N 0.30147 0.30813 0.31744 0.0
N106 N 0.28347 0.33053 0.30699 0.0
C107 C 0.27271 0.31734 0.34005 0.0
C108 C 0.29834 0.32683 0.29372 0.0
N109 N 0.30923 0.3131 0.30001 0.0
C110 C 0.3031 0.3379 0.27552 0.0
H111 H 0.27145 0.3013 0.34449 0.0
H112 H 0.25792 0.32098 0.33698 0.0
H113 H 0.27917 0.32919 0.35322 0.0
H114 H 0.2979 0.35376 0.27795 0.0
H115 H 0.29573 0.32796 0.26169 0.0
H116 H 0.31907 0.34 0.27259 0.0
C117 C 0.45328 0.00587 0.6029 0.0
N118 N 0.46354 0.98908 0.60049 0.0
N119 N 0.44265 0.00546 0.5858 0.0
C120 C 0.45448 0.02325 0.62145 0.0
C121 C 0.44696 0.9879 0.57284 0.0
N122 N 0.45982 0.97809 0.58174 0.0
C123 C 0.43935 0.98084 0.55121 0.0
H124 H 0.44167 0.03208 0.62236 0.0
H125 H 0.46794 0.03461 0.62039 0.0
H126 H 0.45537 0.01651 0.63574 0.0
H127 H 0.45027 0.98715 0.54044 0.0
H128 H 0.42543 0.98686 0.54895 0.0
H129 H 0.43721 0.96314 0.54726 0.0
C130 C 0.20626 0.25136 0.75942 0.0
N131 N 0.22077 0.26448 0.75207 0.0
N132 N 0.20115 0.25995 0.77864 0.0
C133 C 0.19759 0.22976 0.74828 0.0
C134 C 0.21298 0.27881 0.78273 0.0
N135 N 0.22508 0.28145 0.76668 0.0
C136 C 0.21115 0.29566 0.80138 0.0
H137 H 0.18534 0.2317 0.7385 0.0
H138 H 0.19181 0.21924 0.75935 0.0
H139 H 0.20864 0.22208 0.73826 0.0
H140 H 0.22139 0.29367 0.8134 0.0
H141 H 0.19613 0.29417 0.80774 0.0
H142 H 0.21492 0.31194 0.79763 0.0
C143 C 0.77576 0.26649 0.75107 0.0
N144 N 0.78473 0.25634 0.76374 0.0
N145 N 0.7885 0.282 0.74464 0.0
C146 C 0.75508 0.25992 0.74344 0.0
C147 C 0.80563 0.28069 0.75367 0.0
N148 N 0.80333 0.26498 0.76522 0.0
C149 C 0.82424 0.29545 0.75205 0.0
H150 H 0.75361 0.26303 0.72755 0.0
H151 H 0.74529 0.26938 0.75364 0.0
H152 H 0.75026 0.24274 0.74367 0.0
H153 H 0.82116 0.31093 0.7484 0.0
H154 H 0.83332 0.28794 0.73954 0.0
H155 H 0.83268 0.29835 0.76661 0.0
C156 C 0.52892 0.56285 0.60691 0.0
N157 N 0.53948 0.56681 0.59016 0.0
N158 N 0.51582 0.57683 0.61153 0.0
C159 C 0.53196 0.54584 0.61918 0.0
C160 C 0.51882 0.58948 0.59699 0.0
N161 N 0.53343 0.58356 0.58411 0.0
C162 C 0.50599 0.60589 0.59395 0.0
H163 H 0.52315 0.5306 0.61225 0.0
H164 H 0.5273 0.55017 0.63538 0.0
H165 H 0.54753 0.54327 0.61885 0.0
H166 H 0.51271 0.62182 0.60188 0.0
H167 H 0.49122 0.6023 0.60047 0.0
H168 H 0.50448 0.60658 0.57739 0.0
C169 C 0.53193 0.49186 0.98698 0.0
N170 N 0.54987 0.49348 0.99549 0.0
N171 N 0.53277 0.5027 0.97103 0.0
C172 C 0.51357 0.47998 0.99437 0.0
C173 C 0.55181 0.51077 0.96997 0.0
N174 N 0.56223 0.50496 0.98466 0.0
C175 C 0.56007 0.52507 0.95516 0.0
H176 H 0.50262 0.47478 0.98189 0.0
H177 H 0.50707 0.49074 0.00687 0.0
H178 H 0.51685 0.4658 0.00055 0.0
H179 H 0.56091 0.54194 0.96294 0.0
H180 H 0.55069 0.52279 0.94132 0.0
H181 H 0.57505 0.52197 0.95042 0.0
C182 C 0.70359 0.25988 0.29532 0.0
N183 N 0.71566 0.25064 0.30587 0.0
N184 N 0.70082 0.24894 0.27593 0.0
C185 C 0.69275 0.27807 0.30463 0.0
C186 C 0.71138 0.23252 0.27516 0.0
N187 N 0.72034 0.23349 0.29342 0.0
C188 C 0.71354 0.21612 0.25632 0.0
H189 H 0.67856 0.2772 0.2968 0.0
H190 H 0.70174 0.29337 0.30292 0.0
H191 H 0.68999 0.27803 0.32125 0.0
H192 H 0.71114 0.22254 0.24214 0.0
H193 H 0.7025 0.20193 0.25682 0.0
H194 H 0.72826 0.21096 0.2558 0.0
C195 C 0.42852 0.06423 0.9478 0.0
N196 N 0.4424 0.08083 0.94589 0.0
N197 N 0.41251 0.07139 0.95727 0.0
C198 C 0.43125 0.04107 0.94205 0.0
C199 C 0.41715 0.09292 0.96081 0.0
N200 N 0.4353 0.09869 0.95377 0.0
C201 C 0.40473 0.10821 0.97292 0.0
H202 H 0.4173 0.03094 0.93723 0.0
H203 H 0.43675 0.03564 0.95567 0.0
H204 H 0.44197 0.03873 0.92938 0.0
H205 H 0.41133 0.11421 0.98836 0.0
H206 H 0.38956 0.10051 0.97469 0.0
H207 H 0.40426 0.12214 0.96515 0.0
O208 O 0.23465 0.86884 0.02444 0.0
Cd209 Cd 0.24497 0.89147 0.04906 0.0
Cd210 Cd 0.21759 0.91497 0.0322 0.0
O211 O 0.21387 0.88647 0.01158 0.0
O212 O 0.26153 0.87574 0.06366 0.0
O213 O 0.2359 0.8894 0.07809 0.0
C214 C 0.25038 0.87893 0.07945 0.0
C215 C 0.19042 0.93339 0.03898 0.0
C216 C 0.22223 0.86986 0.01086 0.0
C217 C 0.26073 0.93308 0.03583 0.0
O218 O 0.24339 0.93518 0.03143 0.0
O219 O 0.26441 0.91675 0.04276 0.0
O220 O 0.19915 0.93185 0.02148 0.0
O221 O 0.19672 0.92381 0.05269 0.0
O222 O 0.16771 0.55164 0.30543 0.0
Cd223 Cd 0.14839 0.52532 0.30984 0.0
Cd224 Cd 0.12703 0.53874 0.28033 0.0
O225 O 0.15215 0.56004 0.27977 0.0
O226 O 0.16384 0.50848 0.32437 0.0
O227 O 0.15161 0.49662 0.29317 0.0
C228 C 0.16179 0.49367 0.30837 0.0
C229 C 0.11045 0.526 0.24912 0.0
C230 C 0.16674 0.5633 0.29184 0.0
C231 C 0.10973 0.53864 0.32305 0.0
O232 O 0.10875 0.54355 0.30528 0.0
O233 O 0.12414 0.53017 0.32793 0.0
O234 O 0.11094 0.54545 0.25831 0.0
O235 O 0.11991 0.51359 0.25741 0.0
O236 O 0.78063 0.68733 0.98367 0.0
Cd237 Cd 0.77135 0.67321 0.0087 0.0
Cd238 Cd 0.7914 0.64199 0.98878 0.0
O239 O 0.79812 0.6629 0.96821 0.0
O240 O 0.76115 0.69635 0.02828 0.0
O241 O 0.78547 0.67995 0.03596 0.0
C242 C 0.77369 0.69389 0.04154 0.0
C243 C 0.8165 0.62837 0.00302 0.0
C244 C 0.79162 0.68062 0.96897 0.0
C245 C 0.74858 0.62965 0.99573 0.0
O246 O 0.7642 0.62371 0.98759 0.0
O247 O 0.74848 0.64872 0.00495 0.0
O248 O 0.81061 0.62125 0.98439 0.0
O249 O 0.80832 0.64373 0.01355 0.0
O250 O 0.88761 0.02851 0.32525 0.0
Cd251 Cd 0.87263 0.02892 0.29872 0.0
Cd252 Cd 0.84496 0.03891 0.32661 0.0
O253 O 0.86578 0.03851 0.34844 0.0
O254 O 0.89347 0.02568 0.27768 0.0
O255 O 0.87837 0.0543 0.28404 0.0
C256 C 0.89151 0.04431 0.27392 0.0
C257 C 0.83198 0.07009 0.32473 0.0
C258 C 0.88258 0.03313 0.34395 0.0
C259 C 0.83549 0.99816 0.29688 0.0
O260 O 0.83002 0.01002 0.31284 0.0
O261 O 0.85173 0.00336 0.28844 0.0
O262 O 0.82577 0.05827 0.33817 0.0
O263 O 0.84583 0.06423 0.31246 0.0
O264 O 0.28168 0.19091 0.48881 0.0
Cd265 Cd 0.27154 0.17651 0.51334 0.0
Cd266 Cd 0.29199 0.14536 0.49476 0.0
O267 O 0.29892 0.16599 0.47387 0.0
O268 O 0.26213 0.19927 0.53409 0.0
O269 O 0.28606 0.18153 0.5402 0.0
C270 C 0.27474 0.19571 0.54675 0.0
C271 C 0.31698 0.13224 0.50976 0.0
C272 C 0.29276 0.18387 0.47433 0.0
C273 C 0.24884 0.13312 0.50018 0.0
O274 O 0.26485 0.12694 0.49344 0.0
O275 O 0.24837 0.15242 0.50852 0.0
O276 O 0.31137 0.12475 0.4911 0.0
O277 O 0.3086 0.14766 0.51986 0.0
O278 O 0.38331 0.52295 0.81891 0.0
Cd279 Cd 0.36521 0.52252 0.79434 0.0
Cd280 Cd 0.34032 0.53275 0.8252 0.0
O281 O 0.36374 0.53355 0.8443 0.0
O282 O 0.383 0.51823 0.7704 0.0
O283 O 0.36886 0.54739 0.77885 0.0
C284 C 0.38036 0.53672 0.76679 0.0
C285 C 0.326 0.56335 0.82436 0.0
C286 C 0.38018 0.52822 0.83803 0.0
C287 C 0.32882 0.49138 0.79736 0.0
O288 O 0.32484 0.5033 0.81394 0.0
O289 O 0.34376 0.4968 0.78692 0.0
O290 O 0.3219 0.55211 0.83875 0.0
O291 O 0.33852 0.55724 0.81049 0.0
O292 O 0.73035 0.36643 0.51958 0.0
Cd293 Cd 0.7393 0.39038 0.54388 0.0
Cd294 Cd 0.71204 0.41087 0.52513 0.0
O295 O 0.70797 0.3815 0.50614 0.0
O296 O 0.75646 0.37631 0.55955 0.0
O297 O 0.72984 0.38864 0.57288 0.0
C298 C 0.74485 0.3792 0.57498 0.0
C299 C 0.68513 0.42894 0.53457 0.0
C300 C 0.71743 0.3658 0.50601 0.0
C301 C 0.75436 0.43059 0.52738 0.0
O302 O 0.7372 0.43079 0.521 0.0
O303 O 0.75799 0.41627 0.53733 0.0
O304 O 0.69145 0.42611 0.51594 0.0
O305 O 0.6937 0.42079 0.54794 0.0
O306 O 0.6678 0.05454 0.8083 0.0
Cd307 Cd 0.64904 0.02779 0.81257 0.0
Cd308 Cd 0.62824 0.03918 0.7822 0.0
O309 O 0.65409 0.0589 0.77974 0.0
O310 O 0.66468 0.01095 0.82687 0.0
O311 O 0.65267 0.99946 0.79551 0.0
C312 C 0.66291 0.99642 0.81064 0.0
C313 C 0.61059 0.02502 0.75191 0.0
C314 C 0.66777 0.06407 0.79294 0.0
C315 C 0.61079 0.04172 0.82504 0.0
O316 O 0.61049 0.04676 0.80726 0.0
O317 O 0.6245 0.0323 0.8301 0.0
O318 O 0.61257 0.04507 0.75942 0.0
O319 O 0.61918 0.01276 0.76131 0.0
O320 O 0.97534 0.25983 0.95504 0.0
Cd321 Cd 0.97366 0.23157 0.93429 0.0
Cd322 Cd 0.99685 0.25481 0.91117 0.0
O323 O 0.99617 0.2782 0.93678 0.0
O324 O 0.96844 0.20747 0.94995 0.0
O325 O 0.99623 0.21488 0.93362 0.0
C326 C 0.98593 0.20337 0.94527 0.0
C327 C 0.02699 0.25089 0.89529 0.0
C328 C 0.986 0.27712 0.95295 0.0
C329 C 0.95671 0.23619 0.89445 0.0
O330 O 0.97271 0.24794 0.89224 0.0
O331 O 0.95401 0.22713 0.91018 0.0
O332 O 0.01789 0.26677 0.89368 0.0
O333 O 0.01902 0.23713 0.90618 0.0
O334 O 0.48455 0.76699 0.45893 0.0
Cd335 Cd 0.48198 0.73869 0.43813 0.0
Cd336 Cd 0.50286 0.7628 0.41414 0.0
O337 O 0.50368 0.78619 0.4399 0.0
O338 O 0.47679 0.71532 0.45462 0.0
O339 O 0.50364 0.72047 0.43618 0.0
C340 C 0.49357 0.70981 0.44868 0.0
C341 C 0.53166 0.75811 0.39583 0.0
C342 C 0.49454 0.78459 0.4566 0.0
C343 C 0.46209 0.74349 0.39999 0.0
O344 O 0.47749 0.75589 0.39708 0.0
O345 O 0.46083 0.73397 0.41546 0.0
O346 O 0.52257 0.7742 0.39502 0.0
O347 O 0.52456 0.74469 0.40748 0.0
O348 O 0.98853 0.78498 0.66585 0.0
Cd349 Cd 0.01122 0.7805 0.64535 0.0
Cd350 Cd 0.99697 0.81122 0.6288 0.0
O351 O 0.97766 0.81083 0.65315 0.0
O352 O 0.02758 0.76308 0.65803 0.0
O353 O 0.03835 0.79566 0.65236 0.0
C354 C 0.04159 0.7787 0.65912 0.0
C355 C 0.01319 0.84357 0.62191 0.0
C356 C 0.97654 0.79843 0.66637 0.0
C357 C 0.99716 0.76883 0.60153 0.0
O358 O 0.99218 0.78741 0.60344 0.0
O359 O 0.0052 0.76309 0.61642 0.0
O360 O 0.9948 0.83799 0.61824 0.0
O361 O 0.02241 0.83097 0.63026 0.0
O362 O 0.48597 0.28796 0.16686 0.0
Cd363 Cd 0.509 0.28422 0.14667 0.0
Cd364 Cd 0.49447 0.31534 0.13081 0.0
O365 O 0.47521 0.31448 0.15516 0.0
O366 O 0.52477 0.26595 0.15901 0.0
O367 O 0.53603 0.29894 0.15495 0.0
C368 C 0.53885 0.28154 0.16116 0.0
C369 C 0.51135 0.34757 0.1245 0.0
C370 C 0.47402 0.30151 0.16785 0.0
C371 C 0.49509 0.27367 0.10265 0.0
O372 O 0.48955 0.29202 0.10511 0.0
O373 O 0.5035 0.26778 0.11722 0.0
O374 O 0.49287 0.34266 0.12102 0.0
O375 O 0.52026 0.33443 0.13243 0.0
H376 H 0.17983 0.74086 0.84363 0.0
H377 H 0.18436 0.75767 0.87978 0.0
H378 H 0.24561 0.77546 0.86839 0.0
H379 H 0.24083 0.75903 0.83198 0.0
H380 H 0.20849 0.75516 0.91289 0.0
H381 H 0.22426 0.8328 0.88497 0.0
H382 H 0.21481 0.80835 0.86834 0.0
H383 H 0.24022 0.81349 0.87531 0.0
C384 C 0.19429 0.74803 0.84906 0.0
C385 C 0.20994 0.74908 0.83521 0.0
C386 C 0.1969 0.75752 0.86963 0.0
C387 C 0.21523 0.76818 0.87662 0.0
C388 C 0.23128 0.76762 0.86317 0.0
H389 H 0.24069 0.83422 0.00202 0.0
H390 H 0.23844 0.80802 0.97035 0.0
C391 C 0.22862 0.75814 0.84251 0.0
C392 C 0.21683 0.78179 0.8972 0.0
H393 H 0.22454 0.83392 0.92073 0.0
C394 C 0.21214 0.77237 0.91468 0.0
C395 C 0.22116 0.80428 0.89937 0.0
C396 C 0.22524 0.81542 0.88103 0.0
C397 C 0.21167 0.78488 0.93434 0.0
C398 C 0.21625 0.80734 0.9365 0.0
C399 C 0.22104 0.8167 0.91901 0.0
C400 C 0.21604 0.82165 0.95665 0.0
C401 C 0.20572 0.77404 0.95251 0.0
C402 C 0.20416 0.83801 0.9595 0.0
C403 C 0.20552 0.85317 0.97751 0.0
C404 C 0.21886 0.85229 0.99302 0.0
C405 C 0.2302 0.83536 0.99044 0.0
C406 C 0.22887 0.82026 0.97237 0.0
H407 H 0.19783 0.7577 0.94762 0.0
H408 H 0.21899 0.77262 0.96105 0.0
H409 H 0.19625 0.78348 0.96319 0.0
H410 H 0.19417 0.83937 0.94751 0.0
H411 H 0.19656 0.86595 0.97899 0.0
H412 H 0.96691 0.55314 0.45352 0.0
H413 H 0.99895 0.54873 0.43776 0.0
H414 H 0.98968 0.59246 0.39704 0.0
H415 H 0.95782 0.59704 0.41317 0.0
H416 H 0.00489 0.53221 0.39827 0.0
H417 H 0.04514 0.61393 0.41526 0.0
H418 H 0.02279 0.60603 0.4283 0.0
H419 H 0.02204 0.61344 0.40324 0.0
C420 C 0.97192 0.56189 0.44133 0.0
C421 C 0.96004 0.5752 0.43425 0.0
C422 C 0.99016 0.55947 0.43241 0.0
C423 C 0.9968 0.57042 0.41636 0.0
C424 C 0.98509 0.58423 0.40971 0.0
H425 H 0.07934 0.56068 0.31902 0.0
H426 H 0.05326 0.5682 0.34362 0.0
C427 C 0.9669 0.58675 0.41876 0.0
C428 C 0.01507 0.56594 0.40531 0.0
H429 H 0.05788 0.5898 0.38774 0.0
C430 C 0.01663 0.54475 0.39626 0.0
C431 C 0.03038 0.58232 0.40274 0.0
C432 C 0.03012 0.60517 0.41309 0.0
C433 C 0.03269 0.53964 0.38395 0.0
C434 C 0.04757 0.55614 0.38073 0.0
C435 C 0.04635 0.57723 0.39024 0.0
C436 C 0.06385 0.55196 0.3664 0.0
C437 C 0.03328 0.5168 0.37376 0.0
C438 C 0.07848 0.54044 0.3712 0.0
C439 C 0.09349 0.53612 0.35717 0.0
C440 C 0.09402 0.5432 0.3381 0.0
C441 C 0.07935 0.55488 0.3335 0.0
C442 C 0.06447 0.55929 0.34756 0.0
H443 H 0.01937 0.50638 0.3757 0.0
H444 H 0.03633 0.51598 0.35707 0.0
H445 H 0.04526 0.51038 0.3806 0.0
H446 H 0.07826 0.53479 0.38577 0.0
H447 H 0.10459 0.52713 0.36121 0.0
H448 H 0.78779 0.77089 0.8127 0.0
H449 H 0.79091 0.74726 0.83767 0.0
H450 H 0.83621 0.79377 0.86921 0.0
H451 H 0.83184 0.81793 0.84507 0.0
H452 H 0.8169 0.72736 0.85196 0.0
H453 H 0.79755 0.79084 0.91427 0.0
H454 H 0.79703 0.79338 0.88755 0.0
H455 H 0.81982 0.79864 0.90145 0.0
C456 C 0.79872 0.77568 0.82472 0.0
C457 C 0.80973 0.79596 0.827 0.0
C458 C 0.80049 0.76228 0.839 0.0
C459 C 0.81345 0.76895 0.85569 0.0
C460 C 0.8257 0.78852 0.85686 0.0
H461 H 0.82323 0.68068 0.94311 0.0
H462 H 0.83063 0.70208 0.9158 0.0
C463 C 0.82353 0.80214 0.84286 0.0
C464 C 0.81279 0.75625 0.87263 0.0
H465 H 0.80463 0.75922 0.92421 0.0
C466 C 0.81426 0.73432 0.86778 0.0
C467 C 0.80898 0.76525 0.89326 0.0
C468 C 0.80555 0.78825 0.89944 0.0
C469 C 0.81168 0.72108 0.88283 0.0
C470 C 0.80829 0.73019 0.90351 0.0
C471 C 0.80732 0.75222 0.90841 0.0
C472 C 0.80428 0.71716 0.92015 0.0
C473 C 0.81169 0.69736 0.87615 0.0
C474 C 0.78742 0.71906 0.93227 0.0
C475 C 0.78352 0.7074 0.94826 0.0
C476 C 0.79622 0.69327 0.9523 0.0
C477 C 0.81309 0.69129 0.94019 0.0
C478 C 0.81723 0.70338 0.92446 0.0
H479 H 0.80884 0.69239 0.8594 0.0
H480 H 0.82624 0.69316 0.87935 0.0
H481 H 0.8005 0.68807 0.88461 0.0
H482 H 0.77717 0.72955 0.92931 0.0
H483 H 0.77036 0.70919 0.95723 0.0
H484 H 0.99827 0.02502 0.49552 0.0
H485 H 0.96998 0.0286 0.475 0.0
H486 H 0.99924 0.00299 0.4197 0.0
H487 H 0.02719 0.99897 0.44029 0.0
H488 H 0.96904 0.05233 0.4432 0.0
H489 H 0.9458 0.96623 0.41523 0.0
H490 H 0.96241 0.97574 0.43658 0.0
H491 H 0.97116 0.97435 0.41056 0.0
C492 C 0.99845 0.02001 0.479 0.0
C493 C 0.01472 0.01169 0.46937 0.0
C494 C 0.98241 0.02211 0.46732 0.0
C495 C 0.98241 0.01575 0.44588 0.0
C496 C 0.99878 0.00759 0.43627 0.0
H497 H 0.91879 0.02067 0.33907 0.0
H498 H 0.94138 0.01715 0.3657 0.0
C499 C 0.01477 0.00549 0.44794 0.0
C500 C 0.96564 0.01824 0.43336 0.0
H501 H 0.93294 0.99068 0.39716 0.0
C502 C 0.96091 0.03885 0.43336 0.0
C503 C 0.95503 0.00057 0.42064 0.0
C504 C 0.95871 0.97795 0.42087 0.0
C505 C 0.94651 0.04238 0.42013 0.0
C506 C 0.93651 0.0248 0.4068 0.0
C507 C 0.94073 0.00412 0.40736 0.0
C508 C 0.92266 0.0276 0.39104 0.0
C509 C 0.94268 0.06492 0.4198 0.0
C510 C 0.90461 0.03465 0.39652 0.0
C511 C 0.89156 0.03669 0.38127 0.0
C512 C 0.89639 0.03166 0.36033 0.0
C513 C 0.91457 0.02471 0.35501 0.0
C514 C 0.92752 0.02264 0.37021 0.0
H515 H 0.95367 0.07697 0.42887 0.0
H516 H 0.94272 0.068 0.40375 0.0
H517 H 0.92803 0.06707 0.4264 0.0
H518 H 0.90055 0.03832 0.41255 0.0
H519 H 0.87766 0.04202 0.38588 0.0
H520 H 0.20262 0.25539 0.71534 0.0
H521 H 0.21771 0.24629 0.68153 0.0
H522 H 0.27458 0.25733 0.71001 0.0
H523 H 0.25934 0.26597 0.74402 0.0
H524 H 0.26668 0.27599 0.66899 0.0
H525 H 0.24703 0.18878 0.66839 0.0
H526 H 0.22854 0.20556 0.67691 0.0
H527 H 0.25029 0.20799 0.69194 0.0
C528 C 0.21832 0.25579 0.71432 0.0
C529 C 0.22986 0.26098 0.73216 0.0
C530 C 0.22691 0.25076 0.69508 0.0
C531 C 0.2472 0.25101 0.69339 0.0
C532 C 0.25888 0.25705 0.71109 0.0
H533 H 0.29543 0.18767 0.57888 0.0
H534 H 0.29277 0.20296 0.61537 0.0
C535 C 0.25023 0.26199 0.7304 0.0
C536 C 0.25587 0.24392 0.67315 0.0
H537 H 0.25802 0.19941 0.63699 0.0
C538 C 0.26507 0.25925 0.66204 0.0
C539 C 0.25389 0.22206 0.66432 0.0
C540 C 0.24452 0.20503 0.67598 0.0
C541 C 0.27159 0.25329 0.64181 0.0
C542 C 0.26861 0.23149 0.63254 0.0
C543 C 0.26026 0.21611 0.6441 0.0
C544 C 0.27238 0.22437 0.6104 0.0
C545 C 0.28134 0.27037 0.63045 0.0
C546 C 0.26193 0.23147 0.59553 0.0
C547 C 0.26336 0.22275 0.57475 0.0
C548 C 0.27521 0.20665 0.56842 0.0
C549 C 0.28622 0.20008 0.58326 0.0
C550 C 0.28471 0.20878 0.6041 0.0
H551 H 0.288 0.28464 0.64128 0.0
H552 H 0.29284 0.26432 0.61991 0.0
H553 H 0.27024 0.2755 0.62116 0.0
H554 H 0.252 0.24313 0.60006 0.0
H555 H 0.25466 0.22815 0.56373 0.0
H556 H 0.50827 0.61042 0.63979 0.0
H557 H 0.48241 0.61062 0.66602 0.0
H558 H 0.46431 0.54348 0.64453 0.0
H559 H 0.48951 0.54362 0.61784 0.0
H560 H 0.43331 0.56617 0.65133 0.0
H561 H 0.48382 0.586 0.71853 0.0
H562 H 0.4863 0.60477 0.70101 0.0
H563 H 0.49226 0.57824 0.69263 0.0
C564 C 0.49865 0.59581 0.64074 0.0
C565 C 0.5009 0.57694 0.62708 0.0
C566 C 0.48404 0.59587 0.65575 0.0
C567 C 0.47164 0.57698 0.65743 0.0
C568 C 0.47377 0.55821 0.64357 0.0
H569 H 0.39602 0.51421 0.73341 0.0
H570 H 0.41589 0.52809 0.70642 0.0
C571 C 0.48824 0.55821 0.6285 0.0
C572 C 0.45647 0.57641 0.67362 0.0
H573 H 0.45025 0.57972 0.72551 0.0
C574 C 0.43699 0.56942 0.66756 0.0
C575 C 0.46129 0.58077 0.69481 0.0
C576 C 0.48205 0.58771 0.70222 0.0
C577 C 0.42234 0.56572 0.68207 0.0
C578 C 0.42734 0.56912 0.7031 0.0
C579 C 0.44654 0.57728 0.70931 0.0
C580 C 0.41366 0.56124 0.71844 0.0
C581 C 0.40176 0.55742 0.67482 0.0
C582 C 0.40575 0.57536 0.73404 0.0
C583 C 0.39415 0.56743 0.74944 0.0
C584 C 0.39075 0.54534 0.74961 0.0
C585 C 0.39845 0.53131 0.73372 0.0
C586 C 0.40973 0.53919 0.71825 0.0
H587 H 0.39928 0.56036 0.65903 0.0
H588 H 0.39902 0.53993 0.67467 0.0
H589 H 0.39102 0.56498 0.68542 0.0
H590 H 0.40881 0.59245 0.73445 0.0
H591 H 0.38847 0.57858 0.76158 0.0
H592 H 0.76051 0.30764 0.74612 0.0
H593 H 0.75203 0.32646 0.71874 0.0
H594 H 0.80022 0.30445 0.68237 0.0
H595 H 0.80831 0.28523 0.70948 0.0
H596 H 0.77383 0.3581 0.69876 0.0
H597 H 0.75226 0.28221 0.64512 0.0
H598 H 0.75582 0.2832 0.6723 0.0
H599 H 0.77649 0.28474 0.65533 0.0
C600 C 0.76929 0.30702 0.73229 0.0
C601 C 0.78497 0.295 0.72974 0.0
C602 C 0.76451 0.31776 0.71675 0.0
C603 C 0.7753 0.31653 0.69842 0.0
C604 C 0.79151 0.3053 0.69627 0.0
H605 H 0.7751 0.35864 0.58268 0.0
H606 H 0.78133 0.34479 0.61372 0.0
C607 C 0.79626 0.29454 0.71178 0.0
C608 C 0.76925 0.32629 0.6812 0.0
H609 H 0.75489 0.31415 0.63093 0.0
C610 C 0.76953 0.34853 0.68397 0.0
C611 C 0.76344 0.31368 0.66202 0.0
C612 C 0.76177 0.28962 0.65851 0.0
C613 C 0.76494 0.35859 0.66771 0.0
C614 C 0.75975 0.34601 0.64835 0.0
C615 C 0.75897 0.32374 0.64579 0.0
C616 C 0.75612 0.35558 0.63015 0.0
C617 C 0.76633 0.38261 0.67109 0.0
C618 C 0.73983 0.36626 0.62911 0.0
C619 C 0.73616 0.37422 0.61127 0.0
C620 C 0.74873 0.37154 0.59423 0.0
C621 C 0.7651 0.36099 0.5955 0.0
C622 C 0.76871 0.35305 0.61323 0.0
H623 H 0.77373 0.39019 0.68581 0.0
H624 H 0.7744 0.38905 0.65826 0.0
H625 H 0.7514 0.38722 0.67145 0.0
H626 H 0.72978 0.36809 0.64192 0.0
H627 H 0.72341 0.38223 0.61074 0.0
H628 H 0.50219 0.99556 0.59465 0.0
H629 H 0.52768 0.9944 0.61962 0.0
H630 H 0.48332 0.97374 0.66173 0.0
H631 H 0.45793 0.97564 0.63682 0.0
H632 H 0.50677 0.00667 0.68001 0.0
H633 H 0.55267 0.94875 0.63931 0.0
H634 H 0.54974 0.96893 0.62433 0.0
H635 H 0.52874 0.95101 0.63017 0.0
C636 C 0.49809 0.99039 0.60912 0.0
C637 C 0.47834 0.98578 0.61407 0.0
C638 C 0.51257 0.98953 0.62329 0.0
C639 C 0.50747 0.98366 0.64247 0.0
C640 C 0.48763 0.9782 0.64701 0.0
H641 H 0.59526 0.98334 0.73761 0.0
H642 H 0.57018 0.97076 0.7108 0.0
C643 C 0.47317 0.97929 0.6329 0.0
C644 C 0.52256 0.98582 0.65866 0.0
H645 H 0.56805 0.97414 0.66782 0.0
C646 C 0.52 0.99923 0.67742 0.0
C647 C 0.53976 0.97594 0.65547 0.0
C648 C 0.54279 0.96017 0.6363 0.0
C649 C 0.53451 0.00387 0.69262 0.0
C650 C 0.55229 0.99529 0.68881 0.0
C651 C 0.55452 0.98099 0.67054 0.0
C652 C 0.56897 0.00208 0.70324 0.0
C653 C 0.53074 0.01818 0.71258 0.0
C654 C 0.57707 0.02364 0.70723 0.0
C655 C 0.59121 0.03084 0.72248 0.0
C656 C 0.59772 0.01657 0.73392 0.0
C657 C 0.59049 0.99471 0.72906 0.0
C658 C 0.57617 0.98751 0.71379 0.0
H659 H 0.51484 0.01817 0.71553 0.0
H660 H 0.53744 0.01315 0.72579 0.0
H661 H 0.53723 0.03481 0.71172 0.0
H662 H 0.572 0.03506 0.69894 0.0
H663 H 0.59665 0.04773 0.72567 0.0
H664 H 0.80078 0.26312 0.80557 0.0
H665 H 0.82596 0.25439 0.82728 0.0
H666 H 0.86362 0.24472 0.77446 0.0
H667 H 0.8383 0.25325 0.75274 0.0
H668 H 0.86026 0.21206 0.8032 0.0
H669 H 0.87854 0.29701 0.84062 0.0
H670 H 0.85312 0.28599 0.8397 0.0
H671 H 0.86589 0.28939 0.81627 0.0
C672 C 0.81439 0.25892 0.79867 0.0
C673 C 0.81782 0.25904 0.77765 0.0
C674 C 0.82871 0.254 0.81101 0.0
C675 C 0.84665 0.24907 0.80246 0.0
C676 C 0.84986 0.24853 0.78131 0.0
H677 H 0.95777 0.25426 0.85983 0.0
H678 H 0.93072 0.25515 0.83703 0.0
C679 C 0.83555 0.25355 0.76899 0.0
C680 C 0.86242 0.24557 0.81576 0.0
H681 H 0.89521 0.27176 0.85249 0.0
C682 C 0.86789 0.22505 0.81404 0.0
C683 C 0.87238 0.26263 0.82972 0.0
C684 C 0.86736 0.28507 0.8317 0.0
C685 C 0.88311 0.22114 0.82608 0.0
C686 C 0.893 0.23821 0.8401 0.0
C687 C 0.88751 0.25871 0.84176 0.0
C688 C 0.90961 0.2355 0.85275 0.0
C689 C 0.88883 0.19898 0.82347 0.0
C690 C 0.90672 0.22388 0.869 0.0
C691 C 0.92219 0.22337 0.88219 0.0
C692 C 0.94077 0.23453 0.87933 0.0
C693 C 0.94368 0.24552 0.86255 0.0
C694 C 0.92824 0.24606 0.84948 0.0
H695 H 0.88192 0.18839 0.8097 0.0
H696 H 0.90494 0.19963 0.82212 0.0
H697 H 0.8842 0.19179 0.83724 0.0
H698 H 0.89236 0.21582 0.8719 0.0
H699 H 0.91943 0.21479 0.89497 0.0
H700 H 0.48065 0.97126 0.5468 0.0
H701 H 0.49003 0.93693 0.52973 0.0
H702 H 0.46586 0.90731 0.58034 0.0
H703 H 0.45624 0.94166 0.5972 0.0
H704 H 0.51313 0.90664 0.544 0.0
H705 H 0.43495 0.8746 0.52786 0.0
H706 H 0.44316 0.90281 0.53516 0.0
H707 H 0.4413 0.88567 0.55415 0.0
C708 C 0.47752 0.95739 0.55424 0.0
C709 C 0.46752 0.9588 0.57305 0.0
C710 C 0.48294 0.9379 0.54461 0.0
C711 C 0.47838 0.91958 0.55367 0.0
C712 C 0.46931 0.92125 0.57302 0.0
H713 H 0.47825 0.78674 0.49502 0.0
H714 H 0.47632 0.81869 0.5208 0.0
C715 C 0.46393 0.94078 0.58267 0.0
C716 C 0.48189 0.89854 0.54213 0.0
H717 H 0.4582 0.85202 0.51567 0.0
C718 C 0.50116 0.89459 0.53791 0.0
C719 C 0.46621 0.88291 0.53427 0.0
C720 C 0.44521 0.88664 0.53791 0.0
C721 C 0.50518 0.87538 0.52587 0.0
C722 C 0.48948 0.86 0.51748 0.0
C723 C 0.47022 0.8638 0.52215 0.0
C724 C 0.49253 0.84042 0.50284 0.0
C725 C 0.52619 0.87172 0.52235 0.0
C726 C 0.50236 0.842 0.48421 0.0
C727 C 0.50356 0.82377 0.46948 0.0
C728 C 0.49473 0.8036 0.47296 0.0
C729 C 0.4852 0.80201 0.49181 0.0
C730 C 0.48409 0.82026 0.50658 0.0
H731 H 0.53579 0.8812 0.53487 0.0
H732 H 0.52782 0.85458 0.5213 0.0
H733 H 0.53132 0.87687 0.5077 0.0
H734 H 0.50854 0.85743 0.48073 0.0
H735 H 0.51091 0.82561 0.4551 0.0
H736 H 0.16353 0.25174 0.76694 0.0
H737 H 0.13519 0.24475 0.78903 0.0
H738 H 0.17379 0.24524 0.83966 0.0
H739 H 0.20214 0.25253 0.81748 0.0
H740 H 0.12232 0.21348 0.81318 0.0
H741 H 0.14192 0.29388 0.86061 0.0
H742 H 0.15345 0.28581 0.83627 0.0
H743 H 0.1604 0.27648 0.85887 0.0
C744 C 0.16586 0.24984 0.78265 0.0
C745 C 0.18483 0.25269 0.79066 0.0
C746 C 0.14974 0.24592 0.79526 0.0
C747 C 0.15241 0.24482 0.81606 0.0
C748 C 0.17143 0.2464 0.82375 0.0
H749 H 0.05061 0.21988 0.89605 0.0
H750 H 0.08187 0.21657 0.87818 0.0
C751 C 0.18755 0.25044 0.81114 0.0
C752 C 0.13528 0.24379 0.8299 0.0
H753 H 0.11341 0.2732 0.86973 0.0
C754 C 0.12042 0.22639 0.8257 0.0
C755 C 0.1328 0.26083 0.84605 0.0
C756 C 0.14788 0.28041 0.85069 0.0
C757 C 0.10291 0.2258 0.83697 0.0
C758 C 0.1004 0.24293 0.85298 0.0
C759 C 0.11548 0.26003 0.85751 0.0
C760 C 0.0816 0.24454 0.86395 0.0
C761 C 0.08692 0.20736 0.83105 0.0
C762 C 0.07134 0.26155 0.86218 0.0
C763 C 0.05367 0.26357 0.87243 0.0
C764 C 0.04587 0.24861 0.88472 0.0
C765 C 0.05621 0.23161 0.88662 0.0
C766 C 0.074 0.22962 0.87634 0.0
H767 H 0.0898 0.19753 0.816 0.0
H768 H 0.08581 0.19692 0.84292 0.0
H769 H 0.07262 0.21323 0.83023 0.0
H770 H 0.07698 0.27325 0.85272 0.0
H771 H 0.04609 0.27686 0.87063 0.0
H772 H 0.53352 0.56205 0.54518 0.0
H773 H 0.53593 0.57806 0.51385 0.0
H774 H 0.54693 0.64077 0.5511 0.0
H775 H 0.54582 0.62459 0.58201 0.0
H776 H 0.51081 0.59998 0.50482 0.0
H777 H 0.5805 0.6522 0.50445 0.0
H778 H 0.57663 0.63214 0.5208 0.0
H779 H 0.56987 0.65848 0.52933 0.0
C780 C 0.53745 0.57915 0.54646 0.0
C781 C 0.53946 0.59218 0.56588 0.0
C782 C 0.53864 0.58834 0.52862 0.0
C783 C 0.54173 0.61069 0.52997 0.0
C784 C 0.54509 0.62353 0.54941 0.0
H785 H 0.47749 0.68837 0.47844 0.0
H786 H 0.49089 0.66157 0.49377 0.0
C787 C 0.54423 0.61432 0.56714 0.0
C788 C 0.53796 0.62077 0.51198 0.0
H789 H 0.55216 0.66544 0.49085 0.0
C790 C 0.52019 0.61393 0.50139 0.0
C791 C 0.55025 0.6387 0.50693 0.0
C792 C 0.57046 0.64558 0.51586 0.0
C793 C 0.5136 0.6256 0.48743 0.0
C794 C 0.52472 0.64507 0.48449 0.0
C795 C 0.54333 0.65084 0.49351 0.0
C796 C 0.5164 0.66067 0.47413 0.0
C797 C 0.49448 0.61721 0.47644 0.0
C798 C 0.52655 0.66969 0.45834 0.0
C799 C 0.51902 0.68542 0.44971 0.0
C800 C 0.50124 0.69239 0.45677 0.0
C801 C 0.4911 0.68321 0.47246 0.0
C802 C 0.49869 0.66771 0.48115 0.0
H803 H 0.49205 0.59946 0.47371 0.0
H804 H 0.48231 0.62283 0.48621 0.0
H805 H 0.49394 0.62274 0.46144 0.0
H806 H 0.54035 0.66468 0.45282 0.0
H807 H 0.52722 0.69226 0.4377 0.0
H808 H 0.84872 0.82246 0.81364 0.0
H809 H 0.87854 0.81559 0.79421 0.0
H810 H 0.84375 0.7885 0.74022 0.0
H811 H 0.81394 0.79456 0.76003 0.0
H812 H 0.87539 0.76723 0.74327 0.0
H813 H 0.89774 0.85498 0.75372 0.0
H814 H 0.89446 0.84445 0.77726 0.0
H815 H 0.87384 0.84334 0.76078 0.0
C816 C 0.84749 0.81425 0.79789 0.0
C817 C 0.82916 0.8088 0.7883 0.0
C818 C 0.86449 0.81068 0.78669 0.0
C819 C 0.86338 0.80196 0.76565 0.0
C820 C 0.84496 0.79532 0.75641 0.0
H821 H 0.94562 0.82122 0.66894 0.0
H822 H 0.91892 0.82118 0.69381 0.0
C823 C 0.82799 0.79874 0.76766 0.0
C824 C 0.88125 0.80129 0.75279 0.0
H825 H 0.91923 0.83327 0.73513 0.0
C826 C 0.88507 0.78163 0.74157 0.0
C827 C 0.89364 0.82018 0.75032 0.0
C828 C 0.88968 0.84197 0.76099 0.0
C829 C 0.90087 0.78034 0.72784 0.0
C830 C 0.91342 0.7992 0.72561 0.0
C831 C 0.90969 0.81882 0.73698 0.0
C832 C 0.92988 0.79918 0.71076 0.0
C833 C 0.90353 0.75892 0.71529 0.0
C834 C 0.94511 0.78709 0.7122 0.0
C835 C 0.96036 0.78696 0.69789 0.0
C836 C 0.9608 0.79915 0.68202 0.0
C837 C 0.94576 0.81165 0.68095 0.0
C838 C 0.93047 0.81164 0.69516 0.0
H839 H 0.89003 0.74727 0.71495 0.0
H840 H 0.90775 0.76048 0.69923 0.0
H841 H 0.91534 0.75232 0.72222 0.0
H842 H 0.94523 0.77778 0.72441 0.0
H843 H 0.97179 0.7773 0.69928 0.0
H844 H 0.03694 0.00378 0.54319 0.0
H845 H 0.04131 0.98001 0.56748 0.0
H846 H 0.08143 0.94889 0.52541 0.0
H847 H 0.07622 0.97221 0.50071 0.0
H848 H 0.05309 0.92107 0.53481 0.0
H849 H 0.07991 0.97073 0.60781 0.0
H850 H 0.05917 0.98076 0.59917 0.0
H851 H 0.08118 0.98104 0.58393 0.0
C852 C 0.04704 0.99219 0.53945 0.0
C853 C 0.05611 0.98958 0.52013 0.0
C854 C 0.04976 0.97878 0.55341 0.0
C855 C 0.0619 0.96276 0.54844 0.0
C856 C 0.07209 0.96121 0.52967 0.0
H857 H 0.05273 0.85583 0.61916 0.0
H858 H 0.06892 0.88544 0.60302 0.0
C859 C 0.06922 0.97455 0.51561 0.0
C860 C 0.06109 0.94558 0.56108 0.0
H861 H 0.05925 0.93694 0.61084 0.0
C862 C 0.05506 0.9245 0.55137 0.0
C863 C 0.06368 0.94991 0.58271 0.0
C864 C 0.07155 0.97184 0.59393 0.0
C865 C 0.05011 0.90804 0.56279 0.0
C866 C 0.05104 0.91279 0.58446 0.0
C867 C 0.05837 0.93346 0.59419 0.0
C868 C 0.04205 0.89702 0.59695 0.0
C869 C 0.04277 0.88586 0.55173 0.0
C870 C 0.02171 0.8942 0.59923 0.0
C871 C 0.01247 0.87738 0.60827 0.0
C872 C 0.02341 0.86307 0.61525 0.0
C873 C 0.04392 0.86662 0.61395 0.0
C874 C 0.05319 0.88349 0.60478 0.0
H875 H 0.04589 0.88397 0.53497 0.0
H876 H 0.04956 0.87375 0.55827 0.0
H877 H 0.02673 0.88259 0.55386 0.0
H878 H 0.01292 0.90452 0.59323 0.0
H879 H 0.99667 0.87518 0.60914 0.0
H880 H 0.15498 0.73921 0.78335 0.0
H881 H 0.13337 0.74805 0.75806 0.0
H882 H 0.18338 0.7656 0.72122 0.0
H883 H 0.20506 0.75667 0.74676 0.0
H884 H 0.13525 0.78913 0.74597 0.0
H885 H 0.14481 0.72405 0.68031 0.0
H886 H 0.15127 0.72257 0.70634 0.0
H887 H 0.16648 0.73985 0.69207 0.0
C888 C 0.16126 0.74486 0.76978 0.0
C889 C 0.18154 0.74739 0.76688 0.0
C890 C 0.14899 0.7499 0.75539 0.0
C891 C 0.1568 0.75745 0.7378 0.0
C892 C 0.17709 0.7596 0.73462 0.0
H893 H 0.074 0.80906 0.66545 0.0
H894 H 0.10476 0.8062 0.68207 0.0
C895 C 0.18941 0.75452 0.7491 0.0
C896 C 0.14344 0.76353 0.72329 0.0
H897 H 0.12181 0.74685 0.67627 0.0
C898 C 0.13249 0.78015 0.73058 0.0
C899 C 0.13994 0.75169 0.7033 0.0
C900 C 0.15111 0.73345 0.69495 0.0
C901 C 0.11744 0.78464 0.71877 0.0
C902 C 0.11347 0.77232 0.69903 0.0
C903 C 0.12502 0.75632 0.69137 0.0
C904 C 0.09584 0.77389 0.68736 0.0
C905 C 0.10516 0.80162 0.72799 0.0
C906 C 0.08093 0.75651 0.68439 0.0
C907 C 0.06348 0.75806 0.67492 0.0
C908 C 0.06058 0.77704 0.66818 0.0
C909 C 0.07576 0.79428 0.67061 0.0
C910 C 0.0933 0.7927 0.68012 0.0
H911 H 0.10825 0.80732 0.74461 0.0
H912 H 0.10825 0.81551 0.71988 0.0
H913 H 0.08938 0.79546 0.7261 0.0
H914 H 0.0826 0.74187 0.68989 0.0
H915 H 0.05215 0.74444 0.6732 0.0
H916 H 0.92986 0.63263 0.44288 0.0
H917 H 0.94536 0.66722 0.46149 0.0
H918 H 0.97941 0.63424 0.49654 0.0
H919 H 0.96399 0.59992 0.4778 0.0
H920 H 0.93994 0.67754 0.50234 0.0
H921 H 0.01922 0.68384 0.48688 0.0
H922 H 0.00157 0.66546 0.47059 0.0
H923 H 0.00995 0.65857 0.49392 0.0
C924 C 0.94113 0.63299 0.45412 0.0
C925 C 0.94587 0.61389 0.45903 0.0
C926 C 0.94995 0.65262 0.46471 0.0
C927 C 0.96369 0.65333 0.48027 0.0
C928 C 0.96925 0.63415 0.48426 0.0
H929 H 0.00531 0.72774 0.59254 0.0
H930 H 0.99803 0.70225 0.56081 0.0
C931 C 0.96044 0.61457 0.47364 0.0
C932 C 0.96979 0.67352 0.49455 0.0
H933 H 0.0095 0.70418 0.51906 0.0
C934 C 0.95515 0.6837 0.50567 0.0
C935 C 0.98963 0.68143 0.49893 0.0
C936 C 0.00598 0.67186 0.48678 0.0
C937 C 0.95979 0.70076 0.5219 0.0
C938 C 0.97962 0.70803 0.5269 0.0
C939 C 0.9943 0.6985 0.5152 0.0
C940 C 0.98528 0.72422 0.54532 0.0
C941 C 0.94342 0.71004 0.53431 0.0
C942 C 0.98078 0.74512 0.54697 0.0
C943 C 0.9848 0.75974 0.56516 0.0
C944 C 0.99349 0.75369 0.58197 0.0
C945 C 0.9985 0.7329 0.57997 0.0
C946 C 0.99445 0.71833 0.56181 0.0
H947 H 0.92907 0.70004 0.53079 0.0
H948 H 0.94632 0.71177 0.55104 0.0
H949 H 0.94237 0.72615 0.53076 0.0
H950 H 0.97393 0.75004 0.53428 0.0
H951 H 0.98091 0.77568 0.56612 0.0
H952 H 0.71093 0.83272 0.25212 0.0
H953 H 0.73258 0.86648 0.25306 0.0
H954 H 0.78262 0.83356 0.25614 0.0
H955 H 0.76073 0.7998 0.25564 0.0
H956 H 0.78146 0.86753 0.28749 0.0
H957 H 0.7701 0.89266 0.21296 0.0
H958 H 0.74758 0.88559 0.22575 0.0
H959 H 0.7632 0.86554 0.21721 0.0
C960 C 0.72658 0.83276 0.25263 0.0
C961 C 0.7343 0.81393 0.25401 0.0
C962 C 0.73894 0.85193 0.25295 0.0
C963 C 0.75923 0.85251 0.25448 0.0
C964 C 0.76701 0.83343 0.25483 0.0
H965 H 0.8425 0.96933 0.26273 0.0
H966 H 0.82448 0.93382 0.25127 0.0
C967 C 0.75459 0.81421 0.25448 0.0
C968 C 0.77194 0.87334 0.25834 0.0
H969 H 0.78383 0.92026 0.24025 0.0
C970 C 0.7822 0.87894 0.27702 0.0
C971 C 0.77295 0.88816 0.24463 0.0
C972 C 0.76302 0.88263 0.22392 0.0
C973 C 0.79284 0.89927 0.28273 0.0
C974 C 0.79298 0.91448 0.26953 0.0
C975 C 0.78342 0.90864 0.25046 0.0
C976 C 0.80292 0.93657 0.27549 0.0
C977 C 0.80376 0.90435 0.30291 0.0
C978 C 0.7964 0.95005 0.29256 0.0
C979 C 0.80662 0.97035 0.29916 0.0
C980 C 0.82356 0.97754 0.28877 0.0
C981 C 0.82959 0.96426 0.27116 0.0
C982 C 0.81931 0.94398 0.26456 0.0
H983 H 0.80616 0.88962 0.3087 0.0
H984 H 0.81815 0.91402 0.30134 0.0
H985 H 0.79513 0.91375 0.31458 0.0
H986 H 0.78357 0.9447 0.301 0.0
H987 H 0.80151 0.98018 0.31269 0.0
H988 H 0.75715 0.24301 0.308 0.0
H989 H 0.77894 0.21749 0.31446 0.0
H990 H 0.73259 0.16551 0.29719 0.0
H991 H 0.71101 0.191 0.29068 0.0
H992 H 0.77583 0.18739 0.34055 0.0
H993 H 0.77711 0.14817 0.259 0.0
H994 H 0.76791 0.17334 0.26694 0.0
H995 H 0.75282 0.14864 0.2691 0.0
C996 C 0.75172 0.22612 0.30575 0.0
C997 C 0.73264 0.21879 0.29856 0.0
C998 C 0.7641 0.2116 0.30938 0.0
C999 C 0.75751 0.18957 0.30583 0.0
C1000 C 0.73814 0.18237 0.29947 0.0
H1001 H 0.80105 0.08464 0.34651 0.0
H1002 H 0.78497 0.11528 0.34249 0.0
C1003 C 0.72583 0.19687 0.2958 0.0
C1004 C 0.77083 0.17401 0.30859 0.0
H1005 H 0.78936 0.12992 0.28359 0.0
C1006 C 0.77895 0.17493 0.32807 0.0
C1007 C 0.7752 0.15803 0.29218 0.0
C1008 C 0.76798 0.15707 0.27058 0.0
C1009 C 0.7907 0.15974 0.33179 0.0
C1010 C 0.79409 0.143 0.31567 0.0
C1011 C 0.78659 0.14262 0.296 0.0
C1012 C 0.80469 0.12524 0.31897 0.0
C1013 C 0.79941 0.16183 0.35292 0.0
C1014 C 0.82093 0.12035 0.30678 0.0
C1015 C 0.83004 0.10264 0.30887 0.0
C1016 C 0.82303 0.08945 0.32314 0.0
C1017 C 0.80691 0.09454 0.33546 0.0
C1018 C 0.79777 0.11217 0.33331 0.0
H1019 H 0.80077 0.17859 0.36118 0.0
H1020 H 0.7897 0.1518 0.36213 0.0
H1021 H 0.81405 0.15644 0.35207 0.0
H1022 H 0.82643 0.13013 0.29551 0.0
H1023 H 0.84242 0.09915 0.29913 0.0
H1024 H 0.38522 0.04128 0.93736 0.0
H1025 H 0.35931 0.01917 0.95306 0.0
H1026 H 0.37782 0.05304 0.01329 0.0
H1027 H 0.40467 0.07374 0.99754 0.0
H1028 H 0.37078 0.01335 0.01487 0.0
H1029 H 0.30831 0.03366 0.97497 0.0
H1030 H 0.32517 0.02223 0.95676 0.0
H1031 H 0.3327 0.04738 0.97328 0.0
C1032 C 0.38373 0.04375 0.95393 0.0
C1033 C 0.39678 0.05906 0.96632 0.0
C1034 C 0.36878 0.03143 0.9629 0.0
C1035 C 0.36628 0.03478 0.98436 0.0
C1036 C 0.37935 0.05022 0.99671 0.0
H1037 H 0.25957 0.97539 0.03586 0.0
H1038 H 0.28579 0.00152 0.02618 0.0
C1039 C 0.39456 0.06213 0.98776 0.0
C1040 C 0.3506 0.0216 0.99406 0.0
H1041 H 0.30198 0.00279 0.99136 0.0
C1042 C 0.35569 0.01126 0.00989 0.0
C1043 C 0.33081 0.01922 0.98793 0.0
C1044 C 0.3239 0.03143 0.97247 0.0
C1045 C 0.34167 0.99817 0.01938 0.0
C1046 C 0.32216 0.99451 0.01218 0.0
C1047 C 0.31697 0.00532 0.99673 0.0
C1048 C 0.30695 0.97921 0.01999 0.0
C1049 C 0.34796 0.98876 0.03723 0.0
C1050 C 0.31014 0.95803 0.01996 0.0
C1051 C 0.29535 0.94326 0.02603 0.0
C1052 C 0.2769 0.94923 0.03157 0.0
C1053 C 0.27369 0.97039 0.03165 0.0
C1054 C 0.28863 0.9853 0.02608 0.0
H1055 H 0.36062 0.99903 0.04545 0.0
H1056 H 0.33592 0.98668 0.04843 0.0
H1057 H 0.35262 0.97295 0.03136 0.0
H1058 H 0.32386 0.95269 0.01466 0.0
H1059 H 0.29811 0.92695 0.02553 0.0
H1060 H 0.27682 0.36326 0.33649 0.0
H1061 H 0.25369 0.38881 0.33503 0.0
H1062 H 0.23599 0.35638 0.27415 0.0
H1063 H 0.25885 0.33052 0.27591 0.0
H1064 H 0.25422 0.41581 0.30579 0.0
H1065 H 0.18362 0.36226 0.3041 0.0
H1066 H 0.20622 0.35486 0.31201 0.0
H1067 H 0.20129 0.35365 0.2852 0.0
C1068 C 0.26771 0.36146 0.323 0.0
C1069 C 0.26939 0.34497 0.30637 0.0
C1070 C 0.25461 0.37604 0.32211 0.0
C1071 C 0.24295 0.37432 0.30459 0.0
C1072 C 0.24457 0.35776 0.28796 0.0
H1073 H 0.16312 0.46068 0.27597 0.0
H1074 H 0.18224 0.43075 0.2738 0.0
C1075 C 0.25769 0.34315 0.28888 0.0
C1076 C 0.22995 0.39061 0.3034 0.0
H1077 H 0.18214 0.39809 0.30043 0.0
C1078 C 0.23847 0.41193 0.3046 0.0
C1079 C 0.20942 0.38544 0.30166 0.0
C1080 C 0.19951 0.36285 0.30082 0.0
C1081 C 0.227 0.42829 0.30431 0.0
C1082 C 0.20645 0.42323 0.30311 0.0
C1083 C 0.19791 0.40186 0.30138 0.0
C1084 C 0.1937 0.44019 0.30474 0.0
C1085 C 0.23697 0.4509 0.30529 0.0
C1086 C 0.19343 0.45494 0.32302 0.0
C1087 C 0.1826 0.47194 0.32431 0.0
C1088 C 0.17173 0.47449 0.30734 0.0
C1089 C 0.17139 0.45918 0.28927 0.0
C1090 C 0.18228 0.4421 0.288 0.0
H1091 H 0.25261 0.45136 0.30084 0.0
H1092 H 0.2296 0.45945 0.29507 0.0
H1093 H 0.23625 0.45963 0.32128 0.0
H1094 H 0.20191 0.45351 0.3362 0.0
H1095 H 0.18308 0.48333 0.33851 0.0
H1096 H 0.08883 0.00255 0.46349 0.0
H1097 H 0.12336 0.01809 0.46493 0.0
H1098 H 0.11553 0.04878 0.52751 0.0
H1099 H 0.08099 0.03307 0.52596 0.0
H1100 H 0.13363 0.06166 0.47092 0.0
H1101 H 0.16842 0.02711 0.53005 0.0
H1102 H 0.1455 0.01496 0.51788 0.0
H1103 H 0.14615 0.03741 0.53845 0.0
C1104 C 0.09472 0.01222 0.47765 0.0
C1105 C 0.08246 0.01681 0.49459 0.0
C1106 C 0.11435 0.02104 0.47849 0.0
C1107 C 0.12204 0.0345 0.49635 0.0
C1108 C 0.11001 0.03812 0.51371 0.0
H1109 H 0.21175 0.14178 0.50953 0.0
H1110 H 0.18178 0.11651 0.50778 0.0
C1111 C 0.09034 0.02923 0.51285 0.0
C1112 C 0.14173 0.04688 0.49588 0.0
H1113 H 0.18595 0.05875 0.52022 0.0
C1114 C 0.14514 0.06083 0.48155 0.0
C1115 C 0.15674 0.04569 0.50967 0.0
C1116 C 0.15414 0.03034 0.52477 0.0
C1117 C 0.16294 0.07413 0.48109 0.0
C1118 C 0.17764 0.07362 0.49546 0.0
C1119 C 0.17454 0.05918 0.50933 0.0
C1120 C 0.19596 0.08867 0.49676 0.0
C1121 C 0.16586 0.08878 0.46534 0.0
C1122 C 0.21388 0.0813 0.49135 0.0
C1123 C 0.23109 0.09573 0.49223 0.0
C1124 C 0.23065 0.11775 0.49876 0.0
C1125 C 0.21264 0.12497 0.50437 0.0
C1126 C 0.19548 0.11056 0.50336 0.0
H1127 H 0.15515 0.08379 0.45254 0.0
H1128 H 0.16394 0.10523 0.47285 0.0
H1129 H 0.18084 0.08923 0.45885 0.0
H1130 H 0.2145 0.06442 0.48626 0.0
H1131 H 0.24473 0.08962 0.48792 0.0
H1132 H 0.75577 0.25318 0.79124 0.0
H1133 H 0.73885 0.22006 0.8009 0.0
H1134 H 0.77763 0.18384 0.76149 0.0
H1135 H 0.79492 0.21714 0.75269 0.0
H1136 H 0.71882 0.18983 0.77575 0.0
H1137 H 0.77584 0.15389 0.80979 0.0
H1138 H 0.77949 0.18125 0.80564 0.0
H1139 H 0.78295 0.15983 0.7849 0.0
C1140 C 0.76088 0.2381 0.78519 0.0
C1141 C 0.77656 0.23742 0.77141 0.0
C1142 C 0.75126 0.21925 0.79061 0.0
C1143 C 0.75709 0.19943 0.78211 0.0
C1144 C 0.77319 0.19891 0.76873 0.0
H1145 H 0.67704 0.08233 0.75894 0.0
H1146 H 0.69981 0.11454 0.75679 0.0
C1147 C 0.78298 0.21783 0.76359 0.0
C1148 C 0.74496 0.17931 0.78533 0.0
H1149 H 0.74681 0.13005 0.79774 0.0
C1150 C 0.72494 0.17688 0.78081 0.0
C1151 C 0.75285 0.16246 0.79211 0.0
C1152 C 0.77392 0.16457 0.7986 0.0
C1153 C 0.71269 0.15795 0.78241 0.0
C1154 C 0.7208 0.14062 0.78798 0.0
C1155 C 0.7407 0.14321 0.79309 0.0
C1156 C 0.70871 0.11982 0.78871 0.0
C1157 C 0.69112 0.15687 0.77838 0.0
C1158 C 0.70703 0.1114 0.80704 0.0
C1159 C 0.69429 0.09273 0.80821 0.0
C1160 C 0.68294 0.08227 0.79108 0.0
C1161 C 0.68537 0.0902 0.77248 0.0
C1162 C 0.69829 0.10867 0.77126 0.0
H1163 H 0.68654 0.17305 0.78058 0.0
H1164 H 0.68788 0.14921 0.76221 0.0
H1165 H 0.68222 0.14735 0.78867 0.0
H1166 H 0.71507 0.11966 0.82064 0.0
H1167 H 0.69279 0.08699 0.82275 0.0
H1168 H 0.45507 0.04663 0.58373 0.0
H1169 H 0.43534 0.07305 0.57508 0.0
H1170 H 0.38436 0.02533 0.56908 0.0
H1171 H 0.40403 0.99934 0.57852 0.0
H1172 H 0.41668 0.07188 0.54007 0.0
H1173 H 0.36269 0.07493 0.60316 0.0
H1174 H 0.38463 0.06271 0.60397 0.0
H1175 H 0.36338 0.04805 0.59031 0.0
C1176 C 0.43957 0.04205 0.58086 0.0
C1177 C 0.43094 0.02111 0.58164 0.0
C1178 C 0.42834 0.05704 0.57589 0.0
C1179 C 0.40829 0.05128 0.57171 0.0
C1180 C 0.39967 0.03033 0.57273 0.0
H1181 H 0.33497 0.09809 0.49292 0.0
H1182 H 0.35848 0.08107 0.5091 0.0
C1183 C 0.41088 0.01544 0.57786 0.0
C1184 C 0.39668 0.06661 0.56478 0.0
H1185 H 0.35369 0.08744 0.57268 0.0
C1186 C 0.40304 0.07553 0.54739 0.0
C1187 C 0.37907 0.07173 0.57453 0.0
C1188 C 0.37216 0.06403 0.59416 0.0
C1189 C 0.39182 0.08854 0.5389 0.0
C1190 C 0.3735 0.0923 0.54772 0.0
C1191 C 0.3676 0.0843 0.56573 0.0
C1192 C 0.35975 0.10335 0.53782 0.0
C1193 C 0.39969 0.09803 0.52048 0.0
C1194 C 0.35223 0.12127 0.54876 0.0
C1195 C 0.33854 0.13095 0.53958 0.0
C1196 C 0.3321 0.1228 0.51935 0.0
C1197 C 0.33973 0.10491 0.50846 0.0
C1198 C 0.3533 0.09522 0.51765 0.0
H1199 H 0.41591 0.09985 0.52006 0.0
H1200 H 0.39422 0.08719 0.50622 0.0
H1201 H 0.39493 0.11388 0.52048 0.0
H1202 H 0.35689 0.1277 0.56441 0.0
H1203 H 0.33288 0.14467 0.5484 0.0
H1204 H 0.53409 0.52636 0.57048 0.0
H1205 H 0.55959 0.50362 0.55977 0.0
H1206 H 0.6038 0.55729 0.57933 0.0
H1207 H 0.57806 0.58014 0.58936 0.0
H1208 H 0.61445 0.5327 0.54442 0.0
H1209 H 0.58903 0.48151 0.60188 0.0
H1210 H 0.57018 0.48253 0.58397 0.0
H1211 H 0.57997 0.50644 0.60111 0.0
C1212 C 0.54929 0.53326 0.572 0.0
C1213 C 0.55432 0.5548 0.58065 0.0
C1214 C 0.56381 0.5203 0.56616 0.0
C1215 C 0.58359 0.5286 0.56935 0.0
C1216 C 0.58863 0.5505 0.57693 0.0
H1217 H 0.67467 0.44711 0.57321 0.0
H1218 H 0.65069 0.47207 0.58212 0.0
C1219 C 0.57403 0.56355 0.58253 0.0
C1220 C 0.59889 0.51423 0.56545 0.0
H1221 H 0.61225 0.4684 0.57733 0.0
C1222 C 0.61404 0.5187 0.55169 0.0
C1223 C 0.59863 0.49626 0.57534 0.0
C1224 C 0.58371 0.49151 0.59157 0.0
C1225 C 0.62859 0.50531 0.54705 0.0
C1226 C 0.62763 0.48661 0.55599 0.0
C1227 C 0.61282 0.48253 0.57023 0.0
C1228 C 0.64176 0.47101 0.55067 0.0
C1229 C 0.645 0.51158 0.53289 0.0
C1230 C 0.64429 0.46162 0.53013 0.0
C1231 C 0.65806 0.44755 0.52501 0.0
C1232 C 0.66933 0.44223 0.54038 0.0
C1233 C 0.66619 0.45088 0.56104 0.0
C1234 C 0.65254 0.46519 0.56614 0.0
H1235 H 0.64708 0.52906 0.53283 0.0
H1236 H 0.65899 0.50696 0.53742 0.0
H1237 H 0.6414 0.50337 0.51696 0.0
H1238 H 0.6357 0.46527 0.518 0.0
H1239 H 0.65999 0.44097 0.50896 0.0
H1240 H 0.70799 0.22613 0.33524 0.0
H1241 H 0.71027 0.23853 0.37262 0.0
H1242 H 0.73466 0.30139 0.36208 0.0
H1243 H 0.73297 0.28871 0.32488 0.0
H1244 H 0.75153 0.28999 0.39513 0.0
H1245 H 0.6704 0.27577 0.39966 0.0
H1246 H 0.68212 0.25273 0.39001 0.0
H1247 H 0.68325 0.27414 0.37548 0.0
C1248 C 0.71436 0.24238 0.34105 0.0
C1249 C 0.72022 0.2566 0.32741 0.0
C1250 C 0.71544 0.24952 0.36231 0.0
C1251 C 0.7222 0.27102 0.37011 0.0
C1252 C 0.72928 0.28478 0.35642 0.0
H1253 H 0.69612 0.3623 0.47089 0.0
H1254 H 0.69692 0.33576 0.43975 0.0
C1255 C 0.72832 0.27761 0.33524 0.0
C1256 C 0.72059 0.27987 0.39226 0.0
H1257 H 0.68725 0.29248 0.42981 0.0
C1258 C 0.73752 0.29029 0.40286 0.0
C1259 C 0.70223 0.28043 0.40217 0.0
C1260 C 0.68341 0.27034 0.39127 0.0
C1261 C 0.73656 0.30196 0.42282 0.0
C1262 C 0.71816 0.30279 0.43261 0.0
C1263 C 0.70132 0.29167 0.42231 0.0
C1264 C 0.71587 0.31705 0.45248 0.0
C1265 C 0.7551 0.31433 0.43271 0.0
C1266 C 0.72562 0.31486 0.47026 0.0
C1267 C 0.72533 0.33015 0.48811 0.0
C1268 C 0.71508 0.34775 0.48852 0.0
C1269 C 0.70422 0.34903 0.47111 0.0
C1270 C 0.70466 0.33385 0.45326 0.0
H1271 H 0.76724 0.31553 0.42146 0.0
H1272 H 0.75271 0.33073 0.43994 0.0
H1273 H 0.75975 0.30611 0.4449 0.0
H1274 H 0.73395 0.30171 0.47015 0.0
H1275 H 0.73368 0.32856 0.50132 0.0
H1276 H 0.45747 0.09899 0.91438 0.0
H1277 H 0.48882 0.09398 0.89712 0.0
H1278 H 0.50195 0.05573 0.94156 0.0
H1279 H 0.47045 0.06056 0.95851 0.0
H1280 H 0.52747 0.10254 0.91007 0.0
H1281 H 0.50479 0.01521 0.88711 0.0
H1282 H 0.48782 0.03335 0.89736 0.0
H1283 H 0.504 0.0248 0.91428 0.0
C1284 C 0.46723 0.0897 0.92044 0.0
C1285 C 0.46159 0.07972 0.93733 0.0
C1286 C 0.48504 0.08683 0.91066 0.0
C1287 C 0.49746 0.07404 0.91778 0.0
C1288 C 0.49232 0.06516 0.93549 0.0
H1289 H 0.60432 0.03006 0.86297 0.0
H1290 H 0.57803 0.0388 0.88716 0.0
C1291 C 0.47445 0.06792 0.94516 0.0
C1292 C 0.51535 0.06933 0.90611 0.0
H1293 H 0.53673 0.02866 0.87819 0.0
C1294 C 0.52955 0.08639 0.90316 0.0
C1295 C 0.51797 0.04822 0.89709 0.0
C1296 C 0.50278 0.02934 0.89892 0.0
C1297 C 0.54629 0.0829 0.89133 0.0
C1298 C 0.54874 0.06186 0.88209 0.0
C1299 C 0.53479 0.04476 0.8854 0.0
C1300 C 0.5651 0.05732 0.86793 0.0
C1301 C 0.56123 0.10174 0.88875 0.0
C1302 C 0.56632 0.06465 0.84906 0.0
C1303 C 0.58118 0.05959 0.83517 0.0
C1304 C 0.59512 0.04708 0.8399 0.0
C1305 C 0.59386 0.03977 0.85888 0.0
C1306 C 0.57888 0.04475 0.87272 0.0
H1307 H 0.55976 0.11582 0.90082 0.0
H1308 H 0.57629 0.09763 0.88927 0.0
H1309 H 0.55911 0.10631 0.87356 0.0
H1310 H 0.55558 0.07404 0.84494 0.0
H1311 H 0.58169 0.06547 0.8207 0.0
H1312 H 0.32974 0.31662 0.34611 0.0
H1313 H 0.33638 0.29359 0.37048 0.0
H1314 H 0.29119 0.24496 0.34173 0.0
H1315 H 0.28594 0.26744 0.31644 0.0
H1316 H 0.31376 0.28328 0.39801 0.0
H1317 H 0.32823 0.20689 0.35225 0.0
H1318 H 0.32838 0.23055 0.34085 0.0
H1319 H 0.30579 0.21346 0.34367 0.0
C1320 C 0.32208 0.30054 0.34442 0.0
C1321 C 0.30781 0.29339 0.32915 0.0
C1322 C 0.32562 0.28748 0.35849 0.0
C1323 C 0.31451 0.26728 0.35788 0.0
C1324 C 0.30052 0.26002 0.3422 0.0
H1325 H 0.27336 0.21435 0.46324 0.0
H1326 H 0.28103 0.23442 0.43528 0.0
C1327 C 0.29739 0.27288 0.32781 0.0
C1328 C 0.31557 0.2552 0.37513 0.0
H1329 H 0.31404 0.20487 0.38619 0.0
C1330 C 0.31425 0.2662 0.39535 0.0
C1331 C 0.31658 0.23295 0.37195 0.0
C1332 C 0.32006 0.22039 0.35099 0.0
C1333 C 0.31289 0.25549 0.41226 0.0
C1334 C 0.31188 0.23297 0.40888 0.0
C1335 C 0.31433 0.22208 0.38882 0.0
C1336 C 0.30729 0.22041 0.42578 0.0
C1337 C 0.31257 0.26857 0.43356 0.0
C1338 C 0.31893 0.20502 0.42924 0.0
C1339 C 0.31425 0.19304 0.44497 0.0
C1340 C 0.29793 0.19639 0.45764 0.0
C1341 C 0.28623 0.21166 0.45401 0.0
C1342 C 0.2907 0.22329 0.43809 0.0
H1343 H 0.32077 0.2848 0.43401 0.0
H1344 H 0.29725 0.27055 0.43795 0.0
H1345 H 0.31898 0.26083 0.44515 0.0
H1346 H 0.3317 0.20235 0.41984 0.0
H1347 H 0.3235 0.18133 0.44736 0.0
H1348 H 0.51166 0.47354 0.94317 0.0
H1349 H 0.48502 0.4797 0.92171 0.0
H1350 H 0.49184 0.54601 0.95048 0.0
H1351 H 0.51863 0.53973 0.97167 0.0
H1352 H 0.44971 0.49456 0.93336 0.0
H1353 H 0.49541 0.54925 0.88915 0.0
H1354 H 0.50578 0.53304 0.90474 0.0
H1355 H 0.49682 0.55725 0.91658 0.0
C1356 C 0.50731 0.48934 0.94483 0.0
C1357 C 0.51692 0.50619 0.95892 0.0
C1358 C 0.49219 0.49288 0.93266 0.0
C1359 C 0.48662 0.51337 0.93436 0.0
C1360 C 0.49614 0.53018 0.94867 0.0
H1361 H 0.37929 0.53866 0.88016 0.0
H1362 H 0.4048 0.53623 0.9045 0.0
C1363 C 0.51129 0.52662 0.96079 0.0
C1364 C 0.47083 0.51705 0.92113 0.0
H1365 H 0.46131 0.54451 0.88333 0.0
C1366 C 0.4522 0.50551 0.92244 0.0
C1367 C 0.47422 0.5312 0.90678 0.0
C1368 C 0.49417 0.54327 0.90403 0.0
C1369 C 0.43684 0.50769 0.90973 0.0
C1370 C 0.44016 0.52207 0.89559 0.0
C1371 C 0.45878 0.53366 0.89433 0.0
C1372 C 0.42487 0.52435 0.88106 0.0
C1373 C 0.41739 0.49409 0.91109 0.0
C1374 C 0.42794 0.51909 0.85984 0.0
C1375 C 0.41351 0.52061 0.84592 0.0
C1376 C 0.39569 0.52749 0.85294 0.0
C1377 C 0.39279 0.53318 0.87424 0.0
C1378 C 0.4073 0.53168 0.88818 0.0
H1379 H 0.41857 0.48052 0.91924 0.0
H1380 H 0.40697 0.50403 0.91972 0.0
H1381 H 0.41123 0.48763 0.89553 0.0
H1382 H 0.44143 0.51347 0.85403 0.0
H1383 H 0.41629 0.51616 0.82964 0.0
H1384 H 0.74391 0.74506 0.2353 0.0
H1385 H 0.75777 0.73381 0.20112 0.0
H1386 H 0.73363 0.78399 0.17846 0.0
H1387 H 0.71973 0.79508 0.21257 0.0
H1388 H 0.72285 0.73963 0.15687 0.0
H1389 H 0.80307 0.76317 0.16689 0.0
H1390 H 0.79021 0.75011 0.18629 0.0
H1391 H 0.78549 0.77625 0.18337 0.0
C1392 C 0.74193 0.75382 0.22303 0.0
C1393 C 0.73087 0.77088 0.22637 0.0
C1394 C 0.74991 0.74752 0.20364 0.0
C1395 C 0.74686 0.75822 0.18737 0.0
C1396 C 0.73628 0.77569 0.19089 0.0
H1397 H 0.75664 0.72953 0.0551 0.0
H1398 H 0.75201 0.74622 0.09068 0.0
C1399 C 0.72843 0.78205 0.2103 0.0
C1400 C 0.75276 0.74976 0.1662 0.0
H1401 H 0.79216 0.74278 0.13482 0.0
C1402 C 0.738 0.7404 0.152 0.0
C1403 C 0.77253 0.75054 0.16007 0.0
C1404 C 0.78882 0.76065 0.17485 0.0
C1405 C 0.74244 0.73164 0.13177 0.0
C1406 C 0.76221 0.73285 0.1254 0.0
C1407 C 0.77703 0.74202 0.1397 0.0
C1408 C 0.76755 0.72467 0.1039 0.0
C1409 C 0.7259 0.72073 0.11756 0.0
C1410 C 0.77885 0.70784 0.09949 0.0
C1411 C 0.78179 0.69843 0.07907 0.0
C1412 C 0.77339 0.7057 0.06282 0.0
C1413 C 0.76308 0.72337 0.0673 0.0
C1414 C 0.76034 0.73288 0.08763 0.0
H1415 H 0.71258 0.71583 0.12626 0.0
H1416 H 0.72212 0.73197 0.1077 0.0
H1417 H 0.7301 0.70636 0.10743 0.0
H1418 H 0.78466 0.70138 0.11184 0.0
H1419 H 0.78983 0.68486 0.07608 0.0
H1420 H 0.02548 0.1209 0.15217 0.0
H1421 H 0.00106 0.12187 0.18006 0.0
H1422 H 0.97529 0.05802 0.15402 0.0
H1423 H 0.9994 0.05729 0.12619 0.0
H1424 H 0.94786 0.08797 0.16618 0.0
H1425 H 0.00176 0.08653 0.22739 0.0
H1426 H 0.00663 0.10705 0.21175 0.0
H1427 H 0.00731 0.07966 0.20041 0.0
C1428 C 0.01451 0.1072 0.15254 0.0
C1429 C 0.01429 0.08893 0.13736 0.0
C1430 C 0.00067 0.10772 0.16838 0.0
C1431 C 0.9865 0.08995 0.16912 0.0
C1432 C 0.98612 0.07188 0.1537 0.0
H1433 H 0.92032 0.02656 0.25143 0.0
H1434 H 0.94257 0.04219 0.22732 0.0
C1435 C 0.99991 0.07138 0.13796 0.0
C1436 C 0.97234 0.08949 0.18623 0.0
H1437 H 0.96863 0.08248 0.23632 0.0
C1438 C 0.95234 0.08722 0.18166 0.0
C1439 C 0.97834 0.08846 0.20632 0.0
C1440 C 0.99965 0.09043 0.21189 0.0
C1441 C 0.93813 0.0828 0.19642 0.0
C1442 C 0.94416 0.08074 0.21621 0.0
C1443 C 0.96413 0.08418 0.22111 0.0
C1444 C 0.93031 0.07189 0.23095 0.0
C1445 C 0.91685 0.07898 0.19043 0.0
C1446 C 0.91597 0.08345 0.24094 0.0
C1447 C 0.90309 0.07449 0.25482 0.0
C1448 C 0.90446 0.05389 0.25885 0.0
C1449 C 0.91883 0.04244 0.24869 0.0
C1450 C 0.93163 0.05137 0.23494 0.0
H1451 H 0.91472 0.07937 0.17386 0.0
H1452 H 0.90998 0.06326 0.1938 0.0
H1453 H 0.90911 0.09146 0.19964 0.0
H1454 H 0.91485 0.09939 0.23812 0.0
H1455 H 0.89221 0.08372 0.26248 0.0
H1456 H 0.31191 0.77951 0.2102 0.0
H1457 H 0.30416 0.7999 0.18379 0.0
H1458 H 0.25995 0.82648 0.22348 0.0
H1459 H 0.26805 0.80625 0.24993 0.0
H1460 H 0.26737 0.79487 0.16549 0.0
H1461 H 0.28917 0.8791 0.20291 0.0
H1462 H 0.29769 0.85685 0.21183 0.0
H1463 H 0.27339 0.86292 0.21783 0.0
C1464 C 0.30089 0.79013 0.21331 0.0
C1465 C 0.29065 0.79164 0.23194 0.0
C1466 C 0.2964 0.80166 0.19831 0.0
C1467 C 0.28162 0.81487 0.20177 0.0
C1468 C 0.27167 0.81673 0.22065 0.0
H1469 H 0.23019 0.88293 0.11601 0.0
H1470 H 0.23653 0.86777 0.14662 0.0
C1471 C 0.27621 0.8052 0.23567 0.0
C1472 C 0.27561 0.82523 0.18495 0.0
H1473 H 0.27285 0.87358 0.17085 0.0
C1474 C 0.26857 0.81208 0.16667 0.0
C1475 C 0.27698 0.84768 0.18664 0.0
C1476 C 0.28485 0.86253 0.20578 0.0
C1477 C 0.26307 0.82075 0.14992 0.0
C1478 C 0.26492 0.84318 0.15139 0.0
C1479 C 0.27147 0.85638 0.16983 0.0
C1480 C 0.26134 0.85308 0.13339 0.0
C1481 C 0.25534 0.80583 0.13074 0.0
C1482 C 0.2734 0.85012 0.11608 0.0
C1483 C 0.26985 0.8587 0.0987 0.0
C1484 C 0.25418 0.87049 0.09829 0.0
C1485 C 0.24231 0.87383 0.11583 0.0
C1486 C 0.24593 0.86524 0.13331 0.0
H1487 H 0.25 0.78957 0.13393 0.0
H1488 H 0.24324 0.81205 0.12388 0.0
H1489 H 0.26724 0.80445 0.11922 0.0
H1490 H 0.28554 0.84105 0.11598 0.0
H1491 H 0.27936 0.85592 0.08553 0.0
H1492 H 0.96887 0.49343 0.13018 0.0
H1493 H 0.99526 0.49301 0.15426 0.0
H1494 H 0.03429 0.47949 0.10316 0.0
H1495 H 0.00814 0.48121 0.07919 0.0
H1496 H 0.01902 0.46458 0.16111 0.0
H1497 H 0.06248 0.53432 0.13439 0.0
H1498 H 0.03753 0.52514 0.12655 0.0
H1499 H 0.05692 0.5112 0.11484 0.0
C1500 C 0.98311 0.49035 0.12419 0.0
C1501 C 0.98665 0.4877 0.10295 0.0
C1502 C 0.99811 0.48993 0.13788 0.0
C1503 C 0.01688 0.48667 0.13053 0.0
C1504 C 0.02006 0.48254 0.1092 0.0
H1505 H 0.10674 0.4863 0.2246 0.0
H1506 H 0.08599 0.47397 0.19397 0.0
C1507 C 0.00509 0.48326 0.09552 0.0
C1508 C 0.03324 0.48919 0.14535 0.0
H1509 H 0.07562 0.52119 0.16132 0.0
C1510 C 0.03153 0.47679 0.16106 0.0
C1511 C 0.04947 0.50526 0.14532 0.0
C1512 C 0.05171 0.51989 0.1295 0.0
C1513 C 0.04519 0.48056 0.17719 0.0
C1514 C 0.06122 0.49687 0.17731 0.0
C1515 C 0.06337 0.50862 0.16111 0.0
C1516 C 0.07451 0.50395 0.19526 0.0
C1517 C 0.04174 0.46789 0.19451 0.0
C1518 C 0.07539 0.52501 0.20576 0.0
C1519 C 0.08734 0.53212 0.22296 0.0
C1520 C 0.0987 0.51832 0.23016 0.0
C1521 C 0.09809 0.49727 0.21948 0.0
C1522 C 0.08615 0.49017 0.20207 0.0
H1523 H 0.02681 0.45884 0.19402 0.0
H1524 H 0.0524 0.45628 0.19333 0.0
H1525 H 0.04387 0.47858 0.20965 0.0
H1526 H 0.06656 0.53594 0.2008 0.0
H1527 H 0.08742 0.54843 0.23079 0.0
H1528 H 0.32318 0.7248 0.26437 0.0
H1529 H 0.34705 0.716 0.28747 0.0
H1530 H 0.34734 0.77812 0.32513 0.0
H1531 H 0.32271 0.78634 0.30264 0.0
H1532 H 0.3832 0.73441 0.29553 0.0
H1533 H 0.34203 0.74098 0.36851 0.0
H1534 H 0.33049 0.74008 0.34405 0.0
H1535 H 0.34292 0.76488 0.35768 0.0
C1536 C 0.3281 0.73632 0.27784 0.0
C1537 C 0.32115 0.7562 0.28186 0.0
C1538 C 0.34178 0.73137 0.29095 0.0
C1539 C 0.34876 0.74624 0.30827 0.0
C1540 C 0.34182 0.76615 0.31221 0.0
H1541 H 0.45882 0.76497 0.36824 0.0
H1542 H 0.43094 0.76252 0.3457 0.0
C1543 C 0.328 0.77099 0.29922 0.0
C1544 C 0.36424 0.7416 0.32143 0.0
H1545 H 0.37708 0.7437 0.37148 0.0
C1546 C 0.38174 0.73614 0.31211 0.0
C1547 C 0.36224 0.74336 0.34304 0.0
C1548 C 0.34331 0.74741 0.35386 0.0
C1549 C 0.39762 0.73351 0.32388 0.0
C1550 C 0.39616 0.73703 0.34559 0.0
C1551 C 0.37832 0.74134 0.35485 0.0
C1552 C 0.4133 0.7377 0.35897 0.0
C1553 C 0.41582 0.72708 0.31287 0.0
C1554 C 0.41252 0.72498 0.37439 0.0
C1555 C 0.42844 0.72656 0.3876 0.0
C1556 C 0.4454 0.74094 0.38563 0.0
C1557 C 0.4461 0.75357 0.37011 0.0
C1558 C 0.43019 0.75208 0.35706 0.0
H1559 H 0.41234 0.71787 0.29724 0.0
H1560 H 0.42591 0.74166 0.31108 0.0
H1561 H 0.42347 0.71728 0.32158 0.0
H1562 H 0.39956 0.7139 0.37626 0.0
H1563 H 0.4274 0.71665 0.39942 0.0
H1564 H 0.96069 0.44382 0.09055 0.0
H1565 H 0.96702 0.40734 0.07588 0.0
H1566 H 0.9909 0.43 0.02144 0.0
H1567 H 0.98442 0.46624 0.03608 0.0
H1568 H 0.95014 0.3855 0.03585 0.0
H1569 H 0.03099 0.39199 0.0378 0.0
H1570 H 0.01737 0.40996 0.05473 0.0
H1571 H 0.02158 0.41337 0.02847 0.0
C1572 C 0.96764 0.44091 0.07565 0.0
C1573 C 0.9721 0.45754 0.06431 0.0
C1574 C 0.9712 0.42021 0.0673 0.0
C1575 C 0.97959 0.41608 0.04769 0.0
C1576 C 0.98469 0.43293 0.03672 0.0
H1577 H 0.00232 0.31787 0.95062 0.0
H1578 H 0.00091 0.35002 0.97609 0.0
C1579 C 0.98093 0.45351 0.04497 0.0
C1580 C 0.98133 0.39396 0.03764 0.0
H1581 H 0.01431 0.36208 0.01534 0.0
C1582 C 0.96414 0.38015 0.03166 0.0
C1583 C 0.99963 0.38722 0.03215 0.0
C1584 C 0.01849 0.40131 0.03874 0.0
C1585 C 0.96473 0.36012 0.01928 0.0
C1586 C 0.98307 0.35358 0.01322 0.0
C1587 C 0.00027 0.3671 0.01998 0.0
C1588 C 0.98469 0.33363 0.9985 0.0
C1589 C 0.94572 0.34676 0.01184 0.0
C1590 C 0.97636 0.31362 0.00277 0.0
C1591 C 0.97693 0.29516 0.98808 0.0
C1592 C 0.98613 0.29637 0.969 0.0
C1593 C 0.99508 0.31634 0.96512 0.0
C1594 C 0.99433 0.33476 0.9797 0.0
H1595 H 0.93327 0.35621 0.01393 0.0
H1596 H 0.94663 0.33972 0.99531 0.0
H1597 H 0.94252 0.33351 0.02074 0.0
H1598 H 0.96925 0.3123 0.01737 0.0
H1599 H 0.97009 0.28 0.99165 0.0
H1600 H 0.66505 0.7904 0.27503 0.0
H1601 H 0.63717 0.78012 0.29647 0.0
H1602 H 0.66633 0.72989 0.31264 0.0
H1603 H 0.69451 0.74057 0.2913 0.0
H1604 H 0.61317 0.73995 0.29437 0.0
H1605 H 0.65332 0.76545 0.36876 0.0
H1606 H 0.66268 0.77377 0.34523 0.0
H1607 H 0.66359 0.74694 0.34922 0.0
C1608 C 0.66543 0.7772 0.28321 0.0
C1609 C 0.68184 0.76637 0.28182 0.0
C1610 C 0.64955 0.77127 0.29533 0.0
C1611 C 0.64981 0.75442 0.30632 0.0
C1612 C 0.66599 0.74313 0.3045 0.0
H1613 H 0.55614 0.7277 0.39575 0.0
H1614 H 0.58503 0.72266 0.37395 0.0
C1615 C 0.68194 0.74909 0.29229 0.0
C1616 C 0.63315 0.74929 0.3199 0.0
H1617 H 0.61947 0.7552 0.3704 0.0
C1618 C 0.61458 0.74291 0.31099 0.0
C1619 C 0.63507 0.75308 0.34157 0.0
C1620 C 0.65468 0.76031 0.35189 0.0
C1621 C 0.59776 0.74123 0.32319 0.0
C1622 C 0.59958 0.74629 0.34482 0.0
C1623 C 0.6182 0.75137 0.35379 0.0
C1624 C 0.58229 0.74898 0.35811 0.0
C1625 C 0.5781 0.73476 0.31285 0.0
C1626 C 0.57153 0.76566 0.35662 0.0
C1627 C 0.55524 0.76867 0.36906 0.0
C1628 C 0.54935 0.75503 0.38325 0.0
C1629 C 0.56029 0.73842 0.38491 0.0
C1630 C 0.57675 0.73551 0.37249 0.0
H1631 H 0.57941 0.72577 0.29702 0.0
H1632 H 0.5681 0.72477 0.32187 0.0
H1633 H 0.57143 0.74932 0.31174 0.0
H1634 H 0.57579 0.77643 0.34583 0.0
H1635 H 0.54719 0.78164 0.3674 0.0
H1636 H 0.06305 0.12939 0.08433 0.0
H1637 H 0.05916 0.14539 0.05367 0.0
H1638 H 0.02519 0.08681 0.02474 0.0
H1639 H 0.02956 0.07076 0.05532 0.0
H1640 H 0.04842 0.11101 0.99637 0.0
H1641 H 0.0023 0.15899 0.05092 0.0
H1642 H 0.02723 0.16045 0.0588 0.0
H1643 H 0.01128 0.13558 0.05673 0.0
C1644 C 0.05557 0.11972 0.07098 0.0
C1645 C 0.04659 0.09896 0.07196 0.0
C1646 C 0.05322 0.12885 0.05359 0.0
C1647 C 0.04156 0.1174 0.03713 0.0
C1648 C 0.03423 0.0959 0.03728 0.0
H1649 H 0.96665 0.17335 0.96579 0.0
H1650 H 0.98091 0.15021 0.98536 0.0
C1651 C 0.03678 0.08671 0.05464 0.0
C1652 C 0.03428 0.12877 0.02174 0.0
H1653 H 0.00514 0.16665 0.01737 0.0
C1654 C 0.039 0.12323 0.00088 0.0
C1655 C 0.02167 0.14438 0.02769 0.0
C1656 C 0.01514 0.15014 0.04971 0.0
C1657 C 0.03158 0.13314 0.98581 0.0
C1658 C 0.0193 0.14906 0.99188 0.0
C1659 C 0.01458 0.15447 0.01274 0.0
C1660 C 0.01078 0.16032 0.9771 0.0
C1661 C 0.03656 0.12617 0.96354 0.0
C1662 C 0.0228 0.17331 0.9655 0.0
C1663 C 0.01463 0.18649 0.95413 0.0
C1664 C 0.99435 0.1871 0.95444 0.0
C1665 C 0.98232 0.17335 0.96532 0.0
C1666 C 0.99046 0.16009 0.9765 0.0
H1667 H 0.0418 0.1103 0.96092 0.0
H1668 H 0.02371 0.12542 0.9535 0.0
H1669 H 0.04836 0.13795 0.95886 0.0
H1670 H 0.03853 0.17408 0.96604 0.0
H1671 H 0.02429 0.19698 0.94597 0.0
H1672 H 0.34593 0.32162 0.31497 0.0
H1673 H 0.37592 0.31589 0.29547 0.0
H1674 H 0.34135 0.28552 0.24219 0.0
H1675 H 0.31141 0.29035 0.26216 0.0
H1676 H 0.37415 0.26661 0.24509 0.0
H1677 H 0.39267 0.35475 0.25413 0.0
H1678 H 0.39047 0.34475 0.27798 0.0
H1679 H 0.36938 0.34211 0.26177 0.0
C1680 C 0.34482 0.31289 0.29942 0.0
C1681 C 0.3265 0.30612 0.29007 0.0
C1682 C 0.36191 0.30999 0.28814 0.0
C1683 C 0.36087 0.30072 0.26723 0.0
C1684 C 0.34252 0.29278 0.25827 0.0
H1685 H 0.4423 0.32309 0.17035 0.0
H1686 H 0.41553 0.32202 0.1951 0.0
C1687 C 0.32546 0.29549 0.26962 0.0
C1688 C 0.37865 0.30078 0.2542 0.0
H1689 H 0.41524 0.3341 0.23602 0.0
C1690 C 0.38322 0.28134 0.24317 0.0
C1691 C 0.39023 0.32008 0.25142 0.0
C1692 C 0.38538 0.34163 0.26178 0.0
C1693 C 0.39898 0.28065 0.22935 0.0
C1694 C 0.41078 0.29992 0.22688 0.0
C1695 C 0.40629 0.31933 0.23805 0.0
C1696 C 0.42726 0.30051 0.21207 0.0
C1697 C 0.40238 0.25939 0.21698 0.0
C1698 C 0.44293 0.28905 0.21355 0.0
C1699 C 0.4582 0.28949 0.19928 0.0
C1700 C 0.45824 0.30166 0.18345 0.0
C1701 C 0.44276 0.31356 0.18234 0.0
C1702 C 0.42742 0.31295 0.19649 0.0
H1703 H 0.3892 0.24729 0.21661 0.0
H1704 H 0.40659 0.26095 0.20092 0.0
H1705 H 0.41441 0.25334 0.2241 0.0
H1706 H 0.4434 0.2798 0.22575 0.0
H1707 H 0.46999 0.28029 0.20069 0.0
H1708 H 0.53374 0.49895 0.03318 0.0
H1709 H 0.53707 0.47778 0.06003 0.0
H1710 H 0.58103 0.44645 0.02392 0.0
H1711 H 0.57672 0.46691 0.99649 0.0
H1712 H 0.55386 0.41826 0.03399 0.0
H1713 H 0.57343 0.47556 0.10493 0.0
H1714 H 0.55249 0.48258 0.09354 0.0
H1715 H 0.57544 0.48345 0.0799 0.0
C1716 C 0.54432 0.48778 0.03121 0.0
C1717 C 0.55481 0.48428 0.01278 0.0
C1718 C 0.54648 0.47591 0.04668 0.0
C1719 C 0.55952 0.46066 0.0442 0.0
C1720 C 0.57097 0.4582 0.02627 0.0
H1721 H 0.55068 0.35654 0.11782 0.0
H1722 H 0.56701 0.38528 0.10064 0.0
C1723 C 0.56862 0.46994 0.01067 0.0
C1724 C 0.55879 0.44517 0.05868 0.0
H1725 H 0.55444 0.4414 0.10969 0.0
C1726 C 0.55462 0.42332 0.05053 0.0
C1727 C 0.55977 0.45165 0.08032 0.0
C1728 C 0.56575 0.4746 0.09012 0.0
C1729 C 0.54999 0.40803 0.06334 0.0
C1730 C 0.54944 0.41476 0.08484 0.0
C1731 C 0.55476 0.43636 0.09314 0.0
C1732 C 0.54088 0.39983 0.09839 0.0
C1733 C 0.54447 0.3849 0.05382 0.0
C1734 C 0.52098 0.39897 0.10322 0.0
C1735 C 0.51162 0.38257 0.11278 0.0
C1736 C 0.52205 0.36681 0.11782 0.0
C1737 C 0.54229 0.36851 0.11417 0.0
C1738 C 0.55163 0.38486 0.10438 0.0
H1739 H 0.54582 0.38223 0.0368 0.0
H1740 H 0.55399 0.37488 0.06005 0.0
H1741 H 0.52917 0.37943 0.05792 0.0
H1742 H 0.51246 0.41037 0.09862 0.0
H1743 H 0.49603 0.38176 0.11547 0.0
H1744 H 0.67095 0.22086 0.25844 0.0
H1745 H 0.64567 0.22798 0.23597 0.0
H1746 H 0.6747 0.2923 0.23807 0.0
H1747 H 0.70019 0.28494 0.26028 0.0
H1748 H 0.62211 0.26097 0.24895 0.0
H1749 H 0.66157 0.27143 0.17618 0.0
H1750 H 0.67068 0.25766 0.1949 0.0
H1751 H 0.67281 0.28628 0.19953 0.0
C1752 C 0.67214 0.23628 0.25358 0.0
C1753 C 0.68743 0.25235 0.26086 0.0
C1754 C 0.65771 0.24039 0.24091 0.0
C1755 C 0.65844 0.2606 0.23523 0.0
C1756 C 0.67407 0.2765 0.24199 0.0
H1757 H 0.57083 0.31199 0.17067 0.0
H1758 H 0.60065 0.30833 0.1886 0.0
C1759 C 0.6885 0.27237 0.2547 0.0
C1760 C 0.64186 0.26553 0.22392 0.0
H1761 H 0.62867 0.27813 0.17839 0.0
C1762 C 0.62354 0.26472 0.23352 0.0
C1763 C 0.64389 0.27071 0.20393 0.0
C1764 C 0.66325 0.27146 0.19289 0.0
C1765 C 0.60707 0.26871 0.22358 0.0
C1766 C 0.60892 0.27322 0.20334 0.0
C1767 C 0.62734 0.2746 0.19389 0.0
C1768 C 0.5916 0.27531 0.19146 0.0
C1769 C 0.58781 0.26809 0.23486 0.0
C1770 C 0.57695 0.25783 0.18676 0.0
C1771 C 0.55999 0.25986 0.17665 0.0
C1772 C 0.55739 0.27942 0.17088 0.0
C1773 C 0.57238 0.29676 0.175 0.0
C1774 C 0.58941 0.2947 0.18519 0.0
H1775 H 0.58988 0.27035 0.25178 0.0
H1776 H 0.5794 0.2806 0.23131 0.0
H1777 H 0.57897 0.25229 0.22994 0.0
H1778 H 0.57854 0.24263 0.19115 0.0
H1779 H 0.54883 0.24612 0.17355 0.0
H1780 H 0.43057 0.13652 0.94324 0.0
H1781 H 0.44539 0.17186 0.96092 0.0
H1782 H 0.48021 0.14136 0.99757 0.0
H1783 H 0.46539 0.10634 0.97992 0.0
H1784 H 0.43964 0.18315 0.0018 0.0
H1785 H 0.51897 0.19143 0.98681 0.0
H1786 H 0.50173 0.17235 0.97066 0.0
H1787 H 0.51039 0.16613 0.99418 0.0
C1788 C 0.44185 0.13758 0.95464 0.0
C1789 C 0.44692 0.11897 0.96037 0.0
C1790 C 0.4503 0.15764 0.96468 0.0
C1791 C 0.46406 0.15926 0.98043 0.0
C1792 C 0.47003 0.14057 0.98513 0.0
H1793 H 0.50402 0.23295 0.09266 0.0
H1794 H 0.49723 0.20814 0.06043 0.0
C1795 C 0.46156 0.12058 0.97512 0.0
C1796 C 0.46968 0.17985 0.9943 0.0
H1797 H 0.50879 0.21132 0.01915 0.0
C1798 C 0.45475 0.18969 0.00523 0.0
C1799 C 0.48939 0.18825 0.9988 0.0
C1800 C 0.50601 0.17909 0.98682 0.0
C1801 C 0.459 0.20676 0.02154 0.0
C1802 C 0.47873 0.21439 0.0268 0.0
C1803 C 0.49368 0.20534 0.01513 0.0
C1804 C 0.48403 0.23027 0.04555 0.0
C1805 C 0.44236 0.21555 0.03386 0.0
C1806 C 0.4791 0.25104 0.04772 0.0
C1807 C 0.48283 0.26526 0.06622 0.0
C1808 C 0.49167 0.25896 0.08279 0.0
C1809 C 0.4971 0.23831 0.08027 0.0
C1810 C 0.49332 0.22413 0.06183 0.0
H1811 H 0.42815 0.20537 0.03003 0.0
H1812 H 0.44507 0.21704 0.0506 0.0
H1813 H 0.44114 0.23171 0.03054 0.0
H1814 H 0.47216 0.25616 0.03521 0.0
H1815 H 0.47863 0.28111 0.06757 0.0
H1816 H 0.25479 0.29998 0.79184 0.0
H1817 H 0.27312 0.33563 0.79233 0.0
H1818 H 0.24288 0.34146 0.73748 0.0
H1819 H 0.22411 0.30599 0.73747 0.0
H1820 H 0.29734 0.35459 0.76497 0.0
H1821 H 0.22942 0.39243 0.77895 0.0
H1822 H 0.23019 0.36475 0.78053 0.0
H1823 H 0.22939 0.37294 0.75588 0.0
C1824 C 0.25235 0.30885 0.77978 0.0
C1825 C 0.23808 0.30051 0.76471 0.0
C1826 C 0.26276 0.32912 0.78003 0.0
C1827 C 0.25906 0.34135 0.76518 0.0
C1828 C 0.24566 0.33245 0.74932 0.0
H1829 H 0.33068 0.46426 0.76078 0.0
H1830 H 0.31316 0.42827 0.75106 0.0
C1831 C 0.23516 0.31216 0.74914 0.0
C1832 C 0.26847 0.3638 0.76719 0.0
H1833 H 0.25878 0.41541 0.77678 0.0
C1834 C 0.28894 0.36791 0.76738 0.0
C1835 C 0.25743 0.38112 0.77068 0.0
C1836 C 0.2354 0.3777 0.7717 0.0
C1837 C 0.29869 0.38887 0.77123 0.0
C1838 C 0.28765 0.4062 0.77453 0.0
C1839 C 0.26718 0.40209 0.77408 0.0
C1840 C 0.29706 0.42865 0.77959 0.0
C1841 C 0.32071 0.39224 0.77254 0.0
C1842 C 0.29313 0.44118 0.79845 0.0
C1843 C 0.30293 0.46188 0.80397 0.0
C1844 C 0.31689 0.4704 0.79071 0.0
C1845 C 0.32019 0.4581 0.77146 0.0
C1846 C 0.31028 0.43747 0.76591 0.0
H1847 H 0.32658 0.37747 0.77469 0.0
H1848 H 0.32684 0.39691 0.75804 0.0
H1849 H 0.32589 0.40518 0.78545 0.0
H1850 H 0.28287 0.43471 0.80918 0.0
H1851 H 0.30001 0.47093 0.81889 0.0
H1852 H 0.2088 0.70368 0.82839 0.0
H1853 H 0.22986 0.67779 0.83524 0.0
H1854 H 0.27037 0.69722 0.78912 0.0
H1855 H 0.24964 0.72367 0.78293 0.0
H1856 H 0.23893 0.64413 0.80755 0.0
H1857 H 0.30702 0.69615 0.83582 0.0
H1858 H 0.28415 0.70641 0.83419 0.0
H1859 H 0.29888 0.70089 0.81158 0.0
C1860 C 0.22246 0.70273 0.82015 0.0
C1861 C 0.22772 0.71561 0.80521 0.0
C1862 C 0.2344 0.6879 0.82394 0.0
C1863 C 0.25182 0.68573 0.81287 0.0
C1864 C 0.25724 0.6989 0.79817 0.0
H1865 H 0.33211 0.59116 0.79689 0.0
H1866 H 0.31447 0.6214 0.7947 0.0
C1867 C 0.24533 0.71381 0.79447 0.0
C1868 C 0.26345 0.66858 0.81553 0.0
H1869 H 0.3091 0.65883 0.82668 0.0
C1870 C 0.25423 0.64737 0.81191 0.0
C1871 C 0.28345 0.67283 0.82111 0.0
C1872 C 0.29393 0.69532 0.82609 0.0
C1873 C 0.26451 0.63028 0.81338 0.0
C1874 C 0.2845 0.63452 0.81882 0.0
C1875 C 0.29377 0.65568 0.82246 0.0
C1876 C 0.2959 0.61706 0.82088 0.0
C1877 C 0.25401 0.60776 0.80872 0.0
C1878 C 0.29151 0.60492 0.83655 0.0
C1879 C 0.30155 0.58771 0.83788 0.0
C1880 C 0.31617 0.58231 0.82353 0.0
C1881 C 0.32087 0.59485 0.80812 0.0
C1882 C 0.31086 0.61214 0.80687 0.0
H1883 H 0.23993 0.60697 0.80063 0.0
H1884 H 0.26326 0.59707 0.79911 0.0
H1885 H 0.25087 0.60162 0.82335 0.0
H1886 H 0.28017 0.60865 0.84765 0.0
H1887 H 0.29762 0.57846 0.84998 0.0
H1888 H 0.90505 0.56223 0.49195 0.0
H1889 H 0.87821 0.53967 0.50599 0.0
H1890 H 0.85328 0.52004 0.44521 0.0
H1891 H 0.88023 0.54271 0.43127 0.0
H1892 H 0.83719 0.54104 0.50383 0.0
H1893 H 0.85873 0.4634 0.46564 0.0
H1894 H 0.87511 0.48817 0.46801 0.0
H1895 H 0.85625 0.48213 0.44879 0.0
C1896 C 0.89373 0.5531 0.48173 0.0
C1897 C 0.89449 0.55397 0.46064 0.0
C1898 C 0.8785 0.54028 0.48968 0.0
C1899 C 0.86394 0.52806 0.47657 0.0
C1900 C 0.86457 0.52913 0.45548 0.0
H1901 H 0.75179 0.46389 0.50711 0.0
H1902 H 0.7786 0.48842 0.49617 0.0
C1903 C 0.87982 0.54202 0.44756 0.0
C1904 C 0.84809 0.51423 0.48506 0.0
H1905 H 0.82852 0.46218 0.48338 0.0
C1906 C 0.83528 0.52379 0.49941 0.0
C1907 C 0.84588 0.49176 0.47944 0.0
C1908 C 0.8598 0.48067 0.46476 0.0
C1909 C 0.82002 0.51142 0.50806 0.0
C1910 C 0.81748 0.48899 0.50198 0.0
C1911 C 0.83049 0.47941 0.4879 0.0
C1912 C 0.80123 0.47509 0.50982 0.0
C1913 C 0.80688 0.52239 0.52377 0.0
C1914 C 0.80514 0.45942 0.52101 0.0
C1915 C 0.78986 0.44531 0.52725 0.0
C1916 C 0.77042 0.44654 0.52222 0.0
C1917 C 0.76658 0.46253 0.51128 0.0
C1918 C 0.78186 0.47664 0.5051 0.0
H1919 H 0.81365 0.53878 0.53048 0.0
H1920 H 0.79299 0.52368 0.51625 0.0
H1921 H 0.80335 0.51308 0.5364 0.0
H1922 H 0.82004 0.45796 0.5247 0.0
H1923 H 0.79334 0.43317 0.53562 0.0
H1924 H 0.78074 0.86754 0.83541 0.0
H1925 H 0.75749 0.89307 0.83442 0.0
H1926 H 0.73982 0.86147 0.77327 0.0
H1927 H 0.76278 0.8356 0.77457 0.0
H1928 H 0.75725 0.92073 0.80595 0.0
H1929 H 0.68751 0.86566 0.80362 0.0
H1930 H 0.71039 0.85854 0.81108 0.0
H1931 H 0.70518 0.85785 0.78441 0.0
C1932 C 0.77165 0.86594 0.82194 0.0
C1933 C 0.77333 0.84965 0.80513 0.0
C1934 C 0.75848 0.88052 0.82131 0.0
C1935 C 0.74675 0.87897 0.80388 0.0
C1936 C 0.74846 0.86269 0.78702 0.0
H1937 H 0.6647 0.96405 0.77775 0.0
H1938 H 0.68452 0.93467 0.77491 0.0
C1939 C 0.76164 0.8481 0.78767 0.0
C1940 C 0.7334 0.89504 0.80314 0.0
H1941 H 0.68529 0.90154 0.80071 0.0
C1942 C 0.74152 0.91653 0.80478 0.0
C1943 C 0.7129 0.88946 0.80145 0.0
C1944 C 0.70339 0.86666 0.8002 0.0
C1945 C 0.7297 0.93266 0.80497 0.0
C1946 C 0.70918 0.92717 0.8038 0.0
C1947 C 0.70103 0.90564 0.80164 0.0
C1948 C 0.69605 0.9438 0.80583 0.0
C1949 C 0.73925 0.95548 0.80641 0.0
C1950 C 0.69559 0.9582 0.82434 0.0
C1951 C 0.68434 0.97489 0.82602 0.0
C1952 C 0.67325 0.97748 0.80923 0.0
C1953 C 0.67313 0.96252 0.79093 0.0
C1954 C 0.68442 0.94575 0.78928 0.0
H1955 H 0.75489 0.9564 0.8019 0.0
H1956 H 0.73162 0.9641 0.79646 0.0
H1957 H 0.73844 0.96383 0.82253 0.0
H1958 H 0.70423 0.95672 0.83739 0.0
H1959 H 0.68467 0.98602 0.84039 0.0
H1960 H 0.57635 0.53805 0.01327 0.0
H1961 H 0.61046 0.55528 0.01645 0.0
H1962 H 0.62731 0.50572 0.96918 0.0
H1963 H 0.59305 0.48899 0.96575 0.0
H1964 H 0.64617 0.54305 0.02447 0.0
H1965 H 0.64324 0.5595 0.94465 0.0
H1966 H 0.62176 0.54985 0.95809 0.0
H1967 H 0.63829 0.53175 0.9468 0.0
C1968 C 0.58753 0.53071 0.00399 0.0
C1969 C 0.5824 0.51234 0.98934 0.0
C1970 C 0.60691 0.5405 0.00572 0.0
C1971 C 0.62133 0.532 0.99274 0.0
C1972 C 0.61634 0.51278 0.97903 0.0
H1973 H 0.74184 0.58875 0.97418 0.0
H1974 H 0.71188 0.56331 0.9738 0.0
C1975 C 0.59693 0.50313 0.97721 0.0
C1976 C 0.64118 0.54412 0.9926 0.0
H1977 H 0.67306 0.57072 0.9624 0.0
C1978 C 0.6521 0.549 0.01088 0.0
C1979 C 0.64885 0.55196 0.97484 0.0
C1980 C 0.63739 0.5482 0.95502 0.0
C1981 C 0.67045 0.56162 0.01191 0.0
C1982 C 0.67793 0.56967 0.99426 0.0
C1983 C 0.66726 0.56439 0.97586 0.0
C1984 C 0.69623 0.58472 0.99489 0.0
C1985 C 0.68166 0.56634 0.03189 0.0
C1986 C 0.69715 0.60524 0.00661 0.0
C1987 C 0.7141 0.61985 0.00672 0.0
C1988 C 0.7305 0.61419 0.99512 0.0
C1989 C 0.72949 0.5936 0.98331 0.0
C1990 C 0.71243 0.57903 0.9831 0.0
H1991 H 0.67631 0.55492 0.04232 0.0
H1992 H 0.6975 0.56575 0.02905 0.0
H1993 H 0.67987 0.58267 0.03985 0.0
H1994 H 0.68466 0.61004 0.01552 0.0
H1995 H 0.71435 0.63555 0.016 0.0
H1996 H 0.28154 0.74286 0.30019 0.0
H1997 H 0.26495 0.70962 0.31014 0.0
H1998 H 0.26545 0.67852 0.24674 0.0
H1999 H 0.28228 0.71155 0.23704 0.0
H2000 H 0.22862 0.69078 0.29557 0.0
H2001 H 0.28203 0.63344 0.27691 0.0
H2002 H 0.28894 0.66201 0.27983 0.0
H2003 H 0.27859 0.64716 0.25602 0.0
C2004 C 0.27842 0.7287 0.28858 0.0
C2005 C 0.28293 0.72955 0.2679 0.0
C2006 C 0.26898 0.70982 0.2942 0.0
C2007 C 0.26418 0.69154 0.2792 0.0
C2008 C 0.26937 0.69227 0.25863 0.0
H2009 H 0.16811 0.59286 0.26637 0.0
H2010 H 0.19279 0.62377 0.26548 0.0
C2011 C 0.27874 0.71112 0.25305 0.0
C2012 C 0.2518 0.6725 0.28446 0.0
H2013 H 0.24824 0.61818 0.27883 0.0
C2014 C 0.23304 0.67495 0.29225 0.0
C2015 C 0.25764 0.65189 0.2803 0.0
C2016 C 0.27798 0.64846 0.273 0.0
C2017 C 0.21958 0.65721 0.29494 0.0
C2018 C 0.22498 0.6365 0.28944 0.0
C2019 C 0.24408 0.63409 0.28274 0.0
C2020 C 0.21061 0.61721 0.28957 0.0
C2021 C 0.19956 0.66073 0.30328 0.0
C2022 C 0.21281 0.60298 0.30301 0.0
C2023 C 0.19871 0.58522 0.30357 0.0
C2024 C 0.18228 0.58136 0.29055 0.0
C2025 C 0.1805 0.59538 0.27668 0.0
C2026 C 0.19454 0.61312 0.2762 0.0
H2027 H 0.19946 0.67725 0.31177 0.0
H2028 H 0.18909 0.65819 0.2903 0.0
H2029 H 0.19436 0.64928 0.31372 0.0
H2030 H 0.22521 0.60584 0.31334 0.0
H2031 H 0.20057 0.57469 0.31437 0.0
H2032 H 0.92241 0.52259 0.09791 0.0
H2033 H 0.90006 0.54653 0.0892 0.0
H2034 H 0.92922 0.54811 0.03089 0.0
H2035 H 0.95162 0.52437 0.03975 0.0
H2036 H 0.92028 0.5895 0.05368 0.0
H2037 H 0.85688 0.52492 0.04377 0.0
H2038 H 0.87023 0.52913 0.06756 0.0
H2039 H 0.88181 0.51939 0.04388 0.0
C2040 C 0.92408 0.52831 0.08338 0.0
C2041 C 0.93852 0.52167 0.06939 0.0
C2042 C 0.91134 0.54184 0.07838 0.0
C2043 C 0.91293 0.5489 0.05934 0.0
C2044 C 0.92777 0.54279 0.04564 0.0
H2045 H 0.83431 0.59453 0.98501 0.0
H2046 H 0.85803 0.57689 1.00028 0.0
C2047 C 0.94043 0.52921 0.05061 0.0
C2048 C 0.89866 0.56188 0.0532 0.0
H2049 H 0.85128 0.55885 0.03815 0.0
C2050 C 0.90514 0.58293 0.05045 0.0
C2051 C 0.879 0.5531 0.04885 0.0
C2052 C 0.87148 0.53035 0.051 0.0
C2053 C 0.89245 0.59539 0.04325 0.0
C2054 C 0.87284 0.58653 0.03876 0.0
C2055 C 0.86632 0.56559 0.04175 0.0
C2056 C 0.85915 0.59814 0.02958 0.0
C2057 C 0.90018 0.61767 0.03983 0.0
C2058 C 0.85199 0.616 0.04103 0.0
C2059 C 0.83833 0.62615 0.03235 0.0
C2060 C 0.83167 0.61856 0.01209 0.0
C2061 C 0.83914 0.60083 0.00064 0.0
C2062 C 0.85267 0.59068 0.00933 0.0
H2063 H 0.91633 0.62108 0.04135 0.0
H2064 H 0.89599 0.62 0.0243 0.0
H2065 H 0.89363 0.62945 0.05132 0.0
H2066 H 0.8567 0.62184 0.05677 0.0
H2067 H 0.83281 0.63973 0.04158 0.0
H2068 H 0.04123 0.03247 0.08478 0.0
H2069 H 0.06511 0.00833 0.07221 0.0
H2070 H 0.10923 0.06265 0.07097 0.0
H2071 H 0.08534 0.08676 0.08439 0.0
H2072 H 0.08843 0.00214 0.03885 0.0
H2073 H 0.13325 0.03025 0.1095 0.0
H2074 H 0.10921 0.03748 0.10699 0.0
H2075 H 0.12992 0.05099 0.09529 0.0
C2076 C 0.05601 0.03915 0.08164 0.0
C2077 C 0.06168 0.06132 0.08589 0.0
C2078 C 0.06961 0.02543 0.07442 0.0
C2079 C 0.08909 0.03366 0.07119 0.0
C2080 C 0.0944 0.05593 0.07389 0.0
H2081 H 0.17717 0.95819 0.01412 0.0
H2082 H 0.15224 0.98185 0.02165 0.0
C2083 C 0.08076 0.06968 0.08127 0.0
C2084 C 0.10388 0.01883 0.0661 0.0
H2085 H 0.14574 0.00523 0.08373 0.0
C2086 C 0.10099 0.00283 0.04862 0.0
C2087 C 0.12001 0.01943 0.07916 0.0
C2088 C 0.12324 0.03531 0.09889 0.0
C2089 C 0.11387 0.98756 0.04372 0.0
C2090 C 0.13037 0.98862 0.0564 0.0
C2091 C 0.13316 0.0045 0.07397 0.0
C2092 C 0.14505 0.97361 0.05162 0.0
C2093 C 0.1094 0.97014 0.02531 0.0
C2094 C 0.14969 0.96141 0.06617 0.0
C2095 C 0.16419 0.94799 0.06202 0.0
C2096 C 0.17432 0.94658 0.04323 0.0
C2097 C 0.16953 0.95872 0.02867 0.0
C2098 C 0.15517 0.97219 0.03289 0.0
H2099 H 0.09365 0.96767 0.02122 0.0
H2100 H 0.1178 0.97477 0.01187 0.0
H2101 H 0.11356 0.95477 0.02815 0.0
H2102 H 0.14214 0.96235 0.0808 0.0
H2103 H 0.16759 0.93892 0.07358 0.0
loop_
_geom_bond_atom_site_label_1
_geom_bond_atom_site_label_2
_geom_bond_distance
_geom_bond_site_symmetry_2
_ccdc_geom_bond_type
C0 N1 1.317 . S
C0 N2 1.348 . S
C0 C3 1.485 . S
N1 C0 1.317 . S
N1 N5 1.370 . S
N2 C0 1.348 . S
N2 C4 1.346 . S
C3 C0 1.485 . S
C3 H7 0.960 . S
C3 H8 0.961 . S
C3 H9 0.960 . S
C4 N2 1.346 . S
C4 N5 1.307 . S
C4 C6 1.486 . S
N5 N1 1.370 . S
N5 C4 1.307 . S
C6 C4 1.486 . S
C6 H10 0.960 . S
C6 H11 0.960 . S
C6 H12 0.959 . S
H7 C3 0.960 . S
H8 C3 0.961 . S
H9 C3 0.960 . S
H10 C6 0.960 . S
H11 C6 0.960 . S
H12 C6 0.959 . S
C13 N14 1.317 . S
C13 N15 1.348 . S
C13 C16 1.485 . S
N14 C13 1.317 . S
N14 N18 1.370 . S
N15 C13 1.348 . S
N15 C17 1.346 . S
C16 C13 1.485 . S
C16 H20 0.960 . S
C16 H21 0.961 . S
C16 H22 0.960 . S
C17 N15 1.346 . S
C17 N18 1.307 . S
C17 C19 1.486 . S
N18 N14 1.370 . S
N18 C17 1.307 . S
C19 C17 1.486 . S
C19 H23 0.960 . S
C19 H24 0.960 . S
C19 H25 0.959 . S
H20 C16 0.960 . S
H21 C16 0.961 . S
H22 C16 0.960 . S
H23 C19 0.960 . S
H24 C19 0.960 . S
H25 C19 0.959 . S
C26 N27 1.317 . S
C26 N28 1.348 . S
C26 C29 1.485 . S
N27 C26 1.317 . S
N27 N31 1.370 . S
N28 C26 1.348 . S
N28 C30 1.346 . S
C29 C26 1.485 . S
C29 H33 0.960 . S
C29 H34 0.961 . S
C29 H35 0.960 . S
C30 N28 1.346 . S
C30 N31 1.307 . S
C30 C32 1.486 . S
N31 N27 1.370 . S
N31 C30 1.307 . S
C32 C30 1.486 . S
C32 H36 0.960 . S
C32 H37 0.960 . S
C32 H38 0.959 . S
H33 C29 0.960 . S
H34 C29 0.961 . S
H35 C29 0.960 . S
H36 C32 0.960 . S
H37 C32 0.960 . S
H38 C32 0.959 . S
C39 N40 1.317 . S
C39 N41 1.348 . S
C39 C42 1.485 . S
N40 C39 1.317 . S
N40 N44 1.370 . S
N41 C39 1.348 . S
N41 C43 1.346 . S
C42 C39 1.485 . S
C42 H46 0.960 . S
C42 H47 0.961 . S
C42 H48 0.960 . S
C43 N41 1.346 . S
C43 N44 1.307 . S
C43 C45 1.486 . S
N44 N40 1.370 . S
N44 C43 1.307 . S
C45 C43 1.486 . S
C45 H49 0.960 . S
C45 H50 0.960 . S
C45 H51 0.959 . S
H46 C42 0.960 . S
H47 C42 0.961 . S
H48 C42 0.960 . S
H49 C45 0.960 . S
H50 C45 0.960 . S
H51 C45 0.959 . S
C52 N53 1.317 . S
C52 N54 1.348 . S
C52 C55 1.485 . S
N53 C52 1.317 . S
N53 N57 1.370 . S
N54 C52 1.348 . S
N54 C56 1.346 . S
C55 C52 1.485 . S
C55 H59 0.960 . S
C55 H60 0.961 . S
C55 H61 0.960 . S
C56 N54 1.346 . S
C56 N57 1.307 . S
C56 C58 1.486 . S
N57 N53 1.370 . S
N57 C56 1.307 . S
C58 C56 1.486 . S
C58 H62 0.960 1_565 S
C58 H63 0.960 . S
C58 H64 0.959 . S
H59 C55 0.960 . S
H60 C55 0.961 . S
H61 C55 0.960 . S
H62 C58 0.960 1_545 S
H63 C58 0.960 . S
H64 C58 0.959 . S
C65 N66 1.317 . S
C65 N67 1.348 . S
C65 C68 1.485 . S
N66 C65 1.317 . S
N66 N70 1.370 . S
N67 C65 1.348 . S
N67 C69 1.346 . S
C68 C65 1.485 . S
C68 H72 0.960 . S
C68 H73 0.961 . S
C68 H74 0.960 . S
C69 N67 1.346 . S
C69 N70 1.307 . S
C69 C71 1.486 . S
N70 N66 1.370 . S
N70 C69 1.307 . S
C71 C69 1.486 . S
C71 H75 0.960 . S
C71 H76 0.960 . S
C71 H77 0.959 . S
H72 C68 0.960 . S
H73 C68 0.961 . S
H74 C68 0.960 . S
H75 C71 0.960 . S
H76 C71 0.960 . S
H77 C71 0.959 . S
C78 N79 1.317 . S
C78 N80 1.348 . S
C78 C81 1.485 . S
N79 C78 1.317 . S
N79 N83 1.370 . S
N80 C78 1.348 . S
N80 C82 1.346 . S
C81 C78 1.485 . S
C81 H85 0.960 . S
C81 H86 0.961 . S
C81 H87 0.960 . S
C82 N80 1.346 . S
C82 N83 1.307 . S
C82 C84 1.486 . S
N83 N79 1.370 . S
N83 C82 1.307 . S
C84 C82 1.486 . S
C84 H88 0.960 . S
C84 H89 0.960 . S
C84 H90 0.959 . S
H85 C81 0.960 . S
H86 C81 0.961 . S
H87 C81 0.960 . S
H88 C84 0.960 . S
H89 C84 0.960 . S
H90 C84 0.959 . S
C91 N92 1.317 . S
C91 N93 1.348 . S
C91 C94 1.485 . S
N92 C91 1.317 . S
N92 N96 1.370 . S
N93 C91 1.348 . S
N93 C95 1.346 . S
C94 C91 1.485 . S
C94 H98 0.960 . S
C94 H99 0.961 . S
C94 H100 0.960 . S
C95 N93 1.346 . S
C95 N96 1.307 . S
C95 C97 1.486 . S
N96 N92 1.370 . S
N96 C95 1.307 . S
C97 C95 1.486 . S
C97 H101 0.960 . S
C97 H102 0.960 . S
C97 H103 0.959 . S
H98 C94 0.960 . S
H99 C94 0.961 . S
H100 C94 0.960 . S
H101 C97 0.960 . S
H102 C97 0.960 . S
H103 C97 0.959 . S
C104 N105 1.317 . S
C104 N106 1.348 . S
C104 C107 1.485 . S
N105 C104 1.317 . S
N105 N109 1.370 . S
N106 C104 1.348 . S
N106 C108 1.346 . S
C107 C104 1.485 . S
C107 H111 0.960 . S
C107 H112 0.961 . S
C107 H113 0.960 . S
C108 N106 1.346 . S
C108 N109 1.307 . S
C108 C110 1.486 . S
N109 N105 1.370 . S
N109 C108 1.307 . S
C110 C108 1.486 . S
C110 H114 0.960 . S
C110 H115 0.960 . S
C110 H116 0.959 . S
H111 C107 0.960 . S
H112 C107 0.961 . S
H113 C107 0.960 . S
H114 C110 0.960 . S
H115 C110 0.960 . S
H116 C110 0.959 . S
C117 N118 1.317 . S
C117 N119 1.348 . S
C117 C120 1.485 . S
N118 C117 1.317 . S
N118 N122 1.370 . S
N119 C117 1.348 . S
N119 C121 1.346 . S
C120 C117 1.485 . S
C120 H124 0.960 . S
C120 H125 0.961 . S
C120 H126 0.960 . S
C121 N119 1.346 . S
C121 N122 1.307 . S
C121 C123 1.486 . S
N122 N118 1.370 . S
N122 C121 1.307 . S
C123 C121 1.486 . S
C123 H127 0.960 . S
C123 H128 0.960 . S
C123 H129 0.959 . S
H124 C120 0.960 . S
H125 C120 0.961 . S
H126 C120 0.960 . S
H127 C123 0.960 . S
H128 C123 0.960 . S
H129 C123 0.959 . S
C130 N131 1.317 . S
C130 N132 1.348 . S
C130 C133 1.485 . S
N131 C130 1.317 . S
N131 N135 1.370 . S
N132 C130 1.348 . S
N132 C134 1.346 . S
C133 C130 1.485 . S
C133 H137 0.960 . S
C133 H138 0.961 . S
C133 H139 0.960 . S
C134 N132 1.346 . S
C134 N135 1.307 . S
C134 C136 1.486 . S
N135 N131 1.370 . S
N135 C134 1.307 . S
C136 C134 1.486 . S
C136 H140 0.960 . S
C136 H141 0.960 . S
C136 H142 0.959 . S
H137 C133 0.960 . S
H138 C133 0.961 . S
H139 C133 0.960 . S
H140 C136 0.960 . S
H141 C136 0.960 . S
H142 C136 0.959 . S
C143 N144 1.317 . S
C143 N145 1.348 . S
C143 C146 1.485 . S
N144 C143 1.317 . S
N144 N148 1.370 . S
N145 C143 1.348 . S
N145 C147 1.346 . S
C146 C143 1.485 . S
C146 H150 0.960 . S
C146 H151 0.961 . S
C146 H152 0.960 . S
C147 N145 1.346 . S
C147 N148 1.307 . S
C147 C149 1.486 . S
N148 N144 1.370 . S
N148 C147 1.307 . S
C149 C147 1.486 . S
C149 H153 0.960 . S
C149 H154 0.960 . S
C149 H155 0.959 . S
H150 C146 0.960 . S
H151 C146 0.961 . S
H152 C146 0.960 . S
H153 C149 0.960 . S
H154 C149 0.960 . S
H155 C149 0.959 . S
C156 N157 1.317 . S
C156 N158 1.348 . S
C156 C159 1.485 . S
N157 C156 1.317 . S
N157 N161 1.370 . S
N158 C156 1.348 . S
N158 C160 1.346 . S
C159 C156 1.485 . S
C159 H163 0.960 . S
C159 H164 0.961 . S
C159 H165 0.960 . S
C160 N158 1.346 . S
C160 N161 1.307 . S
C160 C162 1.486 . S
N161 N157 1.370 . S
N161 C160 1.307 . S
C162 C160 1.486 . S
C162 H166 0.960 . S
C162 H167 0.960 . S
C162 H168 0.959 . S
H163 C159 0.960 . S
H164 C159 0.961 . S
H165 C159 0.960 . S
H166 C162 0.960 . S
H167 C162 0.960 . S
H168 C162 0.959 . S
C169 N170 1.317 . S
C169 N171 1.348 . S
C169 C172 1.485 . S
N170 C169 1.317 . S
N170 N174 1.370 . S
N171 C169 1.348 . S
N171 C173 1.346 . S
C172 C169 1.485 . S
C172 H176 0.960 . S
C172 H177 0.961 . S
C172 H178 0.960 . S
C173 N171 1.346 . S
C173 N174 1.307 . S
C173 C175 1.486 . S
N174 N170 1.370 . S
N174 C173 1.307 . S
C175 C173 1.486 . S
C175 H179 0.960 . S
C175 H180 0.960 . S
C175 H181 0.959 . S
H176 C172 0.960 . S
H177 C172 0.961 . S
H178 C172 0.960 . S
H179 C175 0.960 . S
H180 C175 0.960 . S
H181 C175 0.959 . S
C182 N183 1.317 . S
C182 N184 1.348 . S
C182 C185 1.485 . S
N183 C182 1.317 . S
N183 N187 1.370 . S
N184 C182 1.348 . S
N184 C186 1.346 . S
C185 C182 1.485 . S
C185 H189 0.960 . S
C185 H190 0.961 . S
C185 H191 0.960 . S
C186 N184 1.346 . S
C186 N187 1.307 . S
C186 C188 1.486 . S
N187 N183 1.370 . S
N187 C186 1.307 . S
C188 C186 1.486 . S
C188 H192 0.960 . S
C188 H193 0.960 . S
C188 H194 0.959 . S
H189 C185 0.960 . S
H190 C185 0.961 . S
H191 C185 0.960 . S
H192 C188 0.960 . S
H193 C188 0.960 . S
H194 C188 0.959 . S
C195 N196 1.317 . S
C195 N197 1.348 . S
C195 C198 1.485 . S
N196 C195 1.317 . S
N196 N200 1.370 . S
N197 C195 1.348 . S
N197 C199 1.346 . S
C198 C195 1.485 . S
C198 H202 0.960 . S
C198 H203 0.961 . S
C198 H204 0.960 . S
C199 N197 1.346 . S
C199 N200 1.307 . S
C199 C201 1.486 . S
N200 N196 1.370 . S
N200 C199 1.307 . S
C201 C199 1.486 . S
C201 H205 0.960 . S
C201 H206 0.960 . S
C201 H207 0.959 . S
H202 C198 0.960 . S
H203 C198 0.961 . S
H204 C198 0.960 . S
H205 C201 0.960 . S
H206 C201 0.960 . S
H207 C201 0.959 . S
O208 Cd209 2.223 . S
O208 C216 1.315 . S
Cd209 O208 2.223 . S
Cd209 O212 2.297 . S
Cd209 O213 2.439 . S
Cd209 O219 2.240 . S
Cd210 O211 2.240 . S
Cd210 O218 2.223 . S
Cd210 O220 2.297 . S
Cd210 O221 2.439 . S
O211 Cd210 2.240 . S
O211 C216 1.279 . S
O212 Cd209 2.297 . S
O212 C214 1.247 . S
O213 Cd209 2.439 . S
O213 C214 1.208 . S
C214 O212 1.247 . S
C214 O213 1.208 . S
C215 O220 1.247 . S
C215 O221 1.208 . S
C216 O208 1.315 . S
C216 O211 1.279 . S
C217 O218 1.315 . S
C217 O219 1.279 . S
O218 Cd210 2.223 . S
O218 C217 1.315 . S
O219 Cd209 2.240 . S
O219 C217 1.279 . S
O220 Cd210 2.297 . S
O220 C215 1.247 . S
O221 Cd210 2.439 . S
O221 C215 1.208 . S
O222 Cd223 2.223 . S
O222 C230 1.315 . S
Cd223 O222 2.223 . S
Cd223 O226 2.297 . S
Cd223 O227 2.439 . S
Cd223 O233 2.240 . S
Cd224 O225 2.240 . S
Cd224 O232 2.223 . S
Cd224 O234 2.297 . S
Cd224 O235 2.439 . S
O225 Cd224 2.240 . S
O225 C230 1.279 . S
O226 Cd223 2.297 . S
O226 C228 1.247 . S
O227 Cd223 2.439 . S
O227 C228 1.208 . S
C228 O226 1.247 . S
C228 O227 1.208 . S
C229 O234 1.247 . S
C229 O235 1.208 . S
C230 O222 1.315 . S
C230 O225 1.279 . S
C231 O232 1.315 . S
C231 O233 1.279 . S
O232 Cd224 2.223 . S
O232 C231 1.315 . S
O233 Cd223 2.240 . S
O233 C231 1.279 . S
O234 Cd224 2.297 . S
O234 C229 1.247 . S
O235 Cd224 2.439 . S
O235 C229 1.208 . S
O236 Cd237 2.223 1_556 S
O236 C244 1.315 . S
Cd237 O236 2.223 1_554 S
Cd237 O240 2.297 . S
Cd237 O241 2.439 . S
Cd237 O247 2.240 . S
Cd238 O239 2.240 . S
Cd238 O246 2.223 . S
Cd238 O248 2.302 . S
Cd238 O249 2.439 1_556 S
O239 Cd238 2.240 . S
O239 C244 1.279 . S
O240 Cd237 2.297 . S
O240 C242 1.247 . S
O241 Cd237 2.439 . S
O241 C242 1.208 . S
C242 O240 1.247 . S
C242 O241 1.208 . S
C243 O248 1.236 1_554 S
C243 O249 1.208 . S
C244 O236 1.315 . S
C244 O239 1.279 . S
C245 O246 1.315 . S
C245 O247 1.279 1_556 S
O246 Cd238 2.223 . S
O246 C245 1.315 . S
O247 Cd237 2.240 . S
O247 C245 1.279 1_554 S
O248 Cd238 2.302 . S
O248 C243 1.236 1_556 S
O249 Cd238 2.439 1_554 S
O249 C243 1.208 . S
O250 Cd251 2.223 . S
O250 C258 1.315 . S
Cd251 O250 2.223 . S
Cd251 O254 2.297 . S
Cd251 O255 2.439 . S
Cd251 O261 2.240 . S
Cd252 O253 2.240 . S
Cd252 O260 2.223 . S
Cd252 O262 2.297 . S
Cd252 O263 2.439 . S
O253 Cd252 2.240 . S
O253 C258 1.279 . S
O254 Cd251 2.297 . S
O254 C256 1.247 . S
O255 Cd251 2.439 . S
O255 C256 1.208 . S
C256 O254 1.247 . S
C256 O255 1.208 . S
C257 O262 1.247 . S
C257 O263 1.208 . S
C258 O250 1.315 . S
C258 O253 1.279 . S
C259 O260 1.315 . S
C259 O261 1.279 . S
O260 Cd252 2.223 . S
O260 C259 1.315 . S
O261 Cd251 2.240 . S
O261 C259 1.279 . S
O262 Cd252 2.297 . S
O262 C257 1.247 . S
O263 Cd252 2.439 . S
O263 C257 1.208 . S
O264 Cd265 2.223 . S
O264 C272 1.315 . S
Cd265 O264 2.223 . S
Cd265 O268 2.297 . S
Cd265 O269 2.439 . S
Cd265 O275 2.240 . S
Cd266 O267 2.240 . S
Cd266 O274 2.223 . S
Cd266 O276 2.297 . S
Cd266 O277 2.439 . S
O267 Cd266 2.240 . S
O267 C272 1.279 . S
O268 Cd265 2.297 . S
O268 C270 1.247 . S
O269 Cd265 2.439 . S
O269 C270 1.208 . S
C270 O268 1.247 . S
C270 O269 1.208 . S
C271 O276 1.247 . S
C271 O277 1.208 . S
C272 O264 1.315 . S
C272 O267 1.279 . S
C273 O274 1.315 . S
C273 O275 1.279 . S
O274 Cd266 2.223 . S
O274 C273 1.315 . S
O275 Cd265 2.240 . S
O275 C273 1.279 . S
O276 Cd266 2.297 . S
O276 C271 1.247 . S
O277 Cd266 2.439 . S
O277 C271 1.208 . S
O278 Cd279 2.223 . S
O278 C286 1.315 . S
Cd279 O278 2.223 . S
Cd279 O282 2.297 . S
Cd279 O283 2.439 . S
Cd279 O289 2.240 . S
Cd280 O281 2.240 . S
Cd280 O288 2.223 . S
Cd280 O290 2.297 . S
Cd280 O291 2.439 . S
O281 Cd280 2.240 . S
O281 C286 1.279 . S
O282 Cd279 2.297 . S
O282 C284 1.247 . S
O283 Cd279 2.439 . S
O283 C284 1.208 . S
C284 O282 1.247 . S
C284 O283 1.208 . S
C285 O290 1.247 . S
C285 O291 1.208 . S
C286 O278 1.315 . S
C286 O281 1.279 . S
C287 O288 1.315 . S
C287 O289 1.279 . S
O288 Cd280 2.223 . S
O288 C287 1.315 . S
O289 Cd279 2.240 . S
O289 C287 1.279 . S
O290 Cd280 2.297 . S
O290 C285 1.247 . S
O291 Cd280 2.439 . S
O291 C285 1.208 . S
O292 Cd293 2.223 . S
O292 C300 1.315 . S
Cd293 O292 2.223 . S
Cd293 O296 2.297 . S
Cd293 O297 2.439 . S
Cd293 O303 2.240 . S
Cd294 O295 2.240 . S
Cd294 O302 2.223 . S
Cd294 O304 2.297 . S
Cd294 O305 2.439 . S
O295 Cd294 2.240 . S
O295 C300 1.279 . S
O296 Cd293 2.297 . S
O296 C298 1.247 . S
O297 Cd293 2.439 . S
O297 C298 1.208 . S
C298 O296 1.247 . S
C298 O297 1.208 . S
C299 O304 1.247 . S
C299 O305 1.208 . S
C300 O292 1.315 . S
C300 O295 1.279 . S
C301 O302 1.315 . S
C301 O303 1.279 . S
O302 Cd294 2.223 . S
O302 C301 1.315 . S
O303 Cd293 2.240 . S
O303 C301 1.279 . S
O304 Cd294 2.297 . S
O304 C299 1.247 . S
O305 Cd294 2.439 . S
O305 C299 1.208 . S
O306 Cd307 2.207 1_545 S
O306 C314 1.315 . S
Cd307 O306 2.207 1_565 S
Cd307 O310 2.306 . S
Cd307 O311 2.449 . S
Cd307 O317 2.233 1_565 S
Cd308 O309 2.240 . S
Cd308 O316 2.223 . S
Cd308 O318 2.297 . S
Cd308 O319 2.439 1_545 S
O309 Cd308 2.240 . S
O309 C314 1.279 . S
O310 Cd307 2.306 . S
O310 C312 1.247 . S
O311 Cd307 2.449 . S
O311 C312 1.208 . S
C312 O310 1.247 . S
C312 O311 1.208 . S
C313 O318 1.247 1_565 S
C313 O319 1.208 . S
C314 O306 1.315 . S
C314 O309 1.279 . S
C315 O316 1.315 . S
C315 O317 1.279 . S
O316 Cd308 2.223 . S
O316 C315 1.315 . S
O317 Cd307 2.233 1_545 S
O317 C315 1.279 . S
O318 Cd308 2.297 . S
O318 C313 1.247 1_545 S
O319 Cd308 2.439 1_565 S
O319 C313 1.208 . S
O320 Cd321 2.223 . S
O320 C328 1.315 . S
Cd321 O320 2.223 . S
Cd321 O324 2.297 . S
Cd321 O325 2.439 1_655 S
Cd321 O331 2.240 . S
Cd322 O323 2.226 1_455 S
Cd322 O330 2.223 1_455 S
Cd322 O332 2.297 . S
Cd322 O333 2.439 . S
O323 Cd322 2.226 1_655 S
O323 C328 1.323 . S
O324 Cd321 2.297 . S
O324 C326 1.247 1_655 S
O325 Cd321 2.439 1_455 S
O325 C326 1.208 . S
C326 O324 1.247 1_455 S
C326 O325 1.208 . S
C327 O332 1.247 . S
C327 O333 1.208 . S
C328 O320 1.315 . S
C328 O323 1.323 . S
C329 O330 1.315 . S
C329 O331 1.279 . S
O330 Cd322 2.223 1_655 S
O330 C329 1.315 . S
O331 Cd321 2.240 . S
O331 C329 1.279 . S
O332 Cd322 2.297 . S
O332 C327 1.247 . S
O333 Cd322 2.439 . S
O333 C327 1.208 . S
O334 Cd335 2.223 . S
O334 C342 1.315 . S
Cd335 O334 2.223 . S
Cd335 O338 2.297 . S
Cd335 O339 2.439 . S
Cd335 O345 2.240 . S
Cd336 O337 2.240 . S
Cd336 O344 2.223 . S
Cd336 O346 2.297 . S
Cd336 O347 2.439 . S
O337 Cd336 2.240 . S
O337 C342 1.279 . S
O338 Cd335 2.297 . S
O338 C340 1.247 . S
O339 Cd335 2.439 . S
O339 C340 1.208 . S
C340 O338 1.247 . S
C340 O339 1.208 . S
C341 O346 1.247 . S
C341 O347 1.208 . S
C342 O334 1.315 . S
C342 O337 1.279 . S
C343 O344 1.315 . S
C343 O345 1.279 . S
O344 Cd336 2.223 . S
O344 C343 1.315 . S
O345 Cd335 2.240 . S
O345 C343 1.279 . S
O346 Cd336 2.297 . S
O346 C341 1.247 . S
O347 Cd336 2.439 . S
O347 C341 1.208 . S
O348 Cd349 2.223 . S
O348 C356 1.315 1_455 S
Cd349 O348 2.223 . S
Cd349 O352 2.297 . S
Cd349 O353 2.439 . S
Cd349 O359 2.240 . S
Cd350 O351 2.240 . S
Cd350 O358 2.223 1_455 S
Cd350 O360 2.297 . S
Cd350 O361 2.439 . S
O351 Cd350 2.240 . S
O351 C356 1.279 1_455 S
O352 Cd349 2.297 . S
O352 C354 1.247 . S
O353 Cd349 2.439 . S
O353 C354 1.208 . S
C354 O352 1.247 . S
C354 O353 1.208 . S
C355 O360 1.247 . S
C355 O361 1.208 . S
C356 O348 1.315 1_655 S
C356 O351 1.279 1_655 S
C357 O358 1.315 1_455 S
C357 O359 1.279 . S
O358 Cd350 2.223 1_655 S
O358 C357 1.315 1_655 S
O359 Cd349 2.240 . S
O359 C357 1.279 . S
O360 Cd350 2.297 . S
O360 C355 1.247 . S
O361 Cd350 2.439 . S
O361 C355 1.208 . S
O362 Cd363 2.223 . S
O362 C370 1.315 . S
Cd363 O362 2.223 . S
Cd363 O366 2.297 . S
Cd363 O367 2.439 . S
Cd363 O373 2.240 . S
Cd364 O365 2.240 . S
Cd364 O372 2.223 . S
Cd364 O374 2.297 . S
Cd364 O375 2.439 . S
O365 Cd364 2.240 . S
O365 C370 1.279 . S
O366 Cd363 2.297 . S
O366 C368 1.247 . S
O367 Cd363 2.439 . S
O367 C368 1.208 . S
C368 O366 1.247 . S
C368 O367 1.208 . S
C369 O374 1.247 . S
C369 O375 1.208 . S
C370 O362 1.315 . S
C370 O365 1.279 . S
C371 O372 1.315 . S
C371 O373 1.279 . S
O372 Cd364 2.223 . S
O372 C371 1.315 . S
O373 Cd363 2.240 . S
O373 C371 1.279 . S
O374 Cd364 2.297 . S
O374 C369 1.247 . S
O375 Cd364 2.439 . S
O375 C369 1.208 . S
H376 C384 0.929 . S
H377 C386 0.930 . S
H378 C388 0.930 . S
H379 C391 0.929 . S
H380 C394 0.930 . S
H381 C396 0.960 . S
H382 C396 0.960 . S
H383 C396 0.960 . S
C384 H376 0.929 . S
C384 C385 1.377 . S
C384 C386 1.384 . S
C385 C384 1.377 . S
C385 C391 1.390 . S
C386 H377 0.930 . S
C386 C384 1.384 . S
C386 C387 1.372 . S
C387 C386 1.372 . S
C387 C388 1.400 . S
C387 C392 1.490 . S
C388 H378 0.930 . S
C388 C387 1.400 . S
C388 C391 1.386 . S
H389 C405 0.927 1_554 S
H390 C406 0.931 . S
C391 H379 0.929 . S
C391 C385 1.390 . S
C391 C388 1.386 . S
C392 C387 1.490 . S
C392 C394 1.395 . S
C392 C395 1.403 . S
H393 C399 0.930 . S
C394 H380 0.930 . S
C394 C392 1.395 . S
C394 C397 1.403 . S
C395 C392 1.403 . S
C395 C396 1.524 . S
C395 C399 1.400 . S
C396 H381 0.960 . S
C396 H382 0.960 . S
C396 H383 0.960 . S
C396 C395 1.524 . S
C397 C394 1.403 . S
C397 C398 1.392 . S
C397 C401 1.495 . S
C398 C397 1.392 . S
C398 C399 1.385 . S
C398 C400 1.478 . S
C399 H393 0.930 . S
C399 C395 1.400 . S
C399 C398 1.385 . S
C400 C398 1.478 . S
C400 C402 1.381 . S
C400 C406 1.383 . S
C401 C397 1.495 . S
C401 H407 0.959 . S
C401 H408 0.961 . S
C401 H409 0.960 . S
C402 C400 1.381 . S
C402 C403 1.394 1_556 S
C402 H410 0.930 . S
C403 C402 1.394 1_554 S
C403 C404 1.383 . S
C403 H411 0.929 . S
C404 C403 1.383 . S
C404 C405 1.377 1_554 S
C405 H389 0.927 1_556 S
C405 C404 1.377 1_556 S
C405 C406 1.379 . S
C406 H390 0.931 . S
C406 C400 1.383 . S
C406 C405 1.379 . S
H407 C401 0.959 . S
H408 C401 0.961 . S
H409 C401 0.960 . S
H410 C402 0.930 . S
H411 C403 0.929 . S
H412 C420 0.929 . S
H413 C422 0.930 . S
H414 C424 0.930 . S
H415 C427 0.929 . S
H416 C430 0.930 . S
H417 C432 0.960 . S
H418 C432 0.960 . S
H419 C432 0.960 . S
C420 H412 0.929 . S
C420 C421 1.377 . S
C420 C422 1.384 . S
C421 C420 1.377 . S
C421 C427 1.390 . S
C422 H413 0.930 . S
C422 C420 1.384 . S
C422 C423 1.372 . S
C423 C422 1.372 . S
C423 C424 1.400 . S
C423 C428 1.490 . S
C424 H414 0.930 . S
C424 C423 1.400 . S
C424 C427 1.386 . S
H425 C441 0.930 . S
H426 C442 0.931 . S
C427 H415 0.929 . S
C427 C421 1.390 . S
C427 C424 1.386 . S
C428 C423 1.490 . S
C428 C430 1.395 1_655 S
C428 C431 1.403 . S
H429 C435 0.930 . S
C430 H416 0.930 . S
C430 C428 1.395 1_455 S
C430 C433 1.403 . S
C431 C428 1.403 . S
C431 C432 1.524 . S
C431 C435 1.400 1_655 S
C432 H417 0.960 . S
C432 H418 0.960 . S
C432 H419 0.960 . S
C432 C431 1.524 . S
C433 C430 1.403 . S
C433 C434 1.392 . S
C433 C437 1.495 . S
C434 C433 1.392 . S
C434 C435 1.385 . S
C434 C436 1.478 . S
C435 H429 0.930 . S
C435 C431 1.400 1_455 S
C435 C434 1.385 . S
C436 C434 1.478 . S
C436 C438 1.381 . S
C436 C442 1.383 . S
C437 C433 1.495 . S
C437 H443 0.959 . S
C437 H444 0.961 . S
C437 H445 0.960 . S
C438 C436 1.381 . S
C438 C439 1.394 . S
C438 H446 0.930 . S
C439 C438 1.394 . S
C439 C440 1.383 . S
C439 H447 0.929 . S
C440 C439 1.383 . S
C440 C441 1.377 . S
C441 H425 0.930 . S
C441 C440 1.377 . S
C441 C442 1.379 . S
C442 H426 0.931 . S
C442 C436 1.383 . S
C442 C441 1.379 . S
H443 C437 0.959 . S
H444 C437 0.961 . S
H445 C437 0.960 . S
H446 C438 0.930 . S
H447 C439 0.929 . S
H448 C456 0.929 . S
H449 C458 0.930 . S
H450 C460 0.930 . S
H451 C463 0.929 . S
H452 C466 0.930 . S
H453 C468 0.960 . S
H454 C468 0.960 . S
H455 C468 0.960 . S
C456 H448 0.929 . S
C456 C457 1.377 . S
C456 C458 1.384 . S
C457 C456 1.377 . S
C457 C463 1.390 . S
C458 H449 0.930 . S
C458 C456 1.384 . S
C458 C459 1.372 . S
C459 C458 1.372 . S
C459 C460 1.400 . S
C459 C464 1.490 . S
C460 H450 0.930 . S
C460 C459 1.400 . S
C460 C463 1.386 . S
H461 C477 0.930 . S
H462 C478 0.931 . S
C463 H451 0.929 . S
C463 C457 1.390 . S
C463 C460 1.386 . S
C464 C459 1.490 . S
C464 C466 1.395 . S
C464 C467 1.403 . S
H465 C471 0.930 . S
C466 H452 0.930 . S
C466 C464 1.395 . S
C466 C469 1.403 . S
C467 C464 1.403 . S
C467 C468 1.524 . S
C467 C471 1.400 . S
C468 H453 0.960 . S
C468 H454 0.960 . S
C468 H455 0.960 . S
C468 C467 1.524 . S
C469 C466 1.403 . S
C469 C470 1.392 . S
C469 C473 1.495 . S
C470 C469 1.392 . S
C470 C471 1.385 . S
C470 C472 1.478 . S
C471 H465 0.930 . S
C471 C467 1.400 . S
C471 C470 1.385 . S
C472 C470 1.478 . S
C472 C474 1.381 . S
C472 C478 1.383 . S
C473 C469 1.495 . S
C473 H479 0.959 . S
C473 H480 0.961 . S
C473 H481 0.960 . S
C474 C472 1.381 . S
C474 C475 1.394 . S
C474 H482 0.930 . S
C475 C474 1.394 . S
C475 C476 1.383 . S
C475 H483 0.929 . S
C476 C475 1.383 . S
C476 C477 1.377 . S
C477 H461 0.930 . S
C477 C476 1.377 . S
C477 C478 1.379 . S
C478 H462 0.931 . S
C478 C472 1.383 . S
C478 C477 1.379 . S
H479 C473 0.959 . S
H480 C473 0.961 . S
H481 C473 0.960 . S
H482 C474 0.930 . S
H483 C475 0.929 . S
H484 C492 0.929 . S
H485 C494 0.930 . S
H486 C496 0.930 . S
H487 C499 0.929 . S
H488 C502 0.930 1_455 S
H489 C504 0.960 . S
H490 C504 0.960 . S
H491 C504 0.960 . S
C492 H484 0.929 . S
C492 C493 1.377 . S
C492 C494 1.384 . S
C493 C492 1.377 . S
C493 C499 1.390 . S
C494 H485 0.930 . S
C494 C492 1.384 . S
C494 C495 1.372 . S
C495 C494 1.372 . S
C495 C496 1.400 . S
C495 C500 1.490 1_455 S
C496 H486 0.930 . S
C496 C495 1.400 . S
C496 C499 1.386 . S
H497 C513 0.930 . S
H498 C514 0.931 . S
C499 H487 0.929 . S
C499 C493 1.390 . S
C499 C496 1.386 . S
C500 C495 1.490 1_655 S
C500 C502 1.395 1_565 S
C500 C503 1.403 . S
H501 C507 0.930 . S
C502 H488 0.930 1_655 S
C502 C500 1.395 1_545 S
C502 C505 1.403 . S
C503 C500 1.403 . S
C503 C504 1.524 . S
C503 C507 1.400 . S
C504 H489 0.960 . S
C504 H490 0.960 . S
C504 H491 0.960 . S
C504 C503 1.524 . S
C505 C502 1.403 . S
C505 C506 1.392 . S
C505 C509 1.495 . S
C506 C505 1.392 . S
C506 C507 1.385 1_545 S
C506 C508 1.478 . S
C507 H501 0.930 . S
C507 C503 1.400 . S
C507 C506 1.385 1_565 S
C508 C506 1.478 . S
C508 C510 1.381 . S
C508 C514 1.383 . S
C509 C505 1.495 . S
C509 H515 0.959 . S
C509 H516 0.961 . S
C509 H517 0.960 . S
C510 C508 1.381 . S
C510 C511 1.394 . S
C510 H518 0.930 . S
C511 C510 1.394 . S
C511 C512 1.383 . S
C511 H519 0.929 . S
C512 C511 1.383 . S
C512 C513 1.377 . S
C513 H497 0.930 . S
C513 C512 1.377 . S
C513 C514 1.379 . S
C514 H498 0.931 . S
C514 C508 1.383 . S
C514 C513 1.379 . S
H515 C509 0.959 . S
H516 C509 0.961 . S
H517 C509 0.960 . S
H518 C510 0.930 . S
H519 C511 0.929 . S
H520 C528 0.929 . S
H521 C530 0.930 . S
H522 C532 0.930 . S
H523 C535 0.929 . S
H524 C538 0.930 . S
H525 C540 0.960 . S
H526 C540 0.960 . S
H527 C540 0.960 . S
C528 H520 0.929 . S
C528 C529 1.377 . S
C528 C530 1.384 . S
C529 C528 1.377 . S
C529 C535 1.390 . S
C530 H521 0.930 . S
C530 C528 1.384 . S
C530 C531 1.372 . S
C531 C530 1.372 . S
C531 C532 1.400 . S
C531 C536 1.490 . S
C532 H522 0.930 . S
C532 C531 1.400 . S
C532 C535 1.386 . S
H533 C549 0.930 . S
H534 C550 0.931 . S
C535 H523 0.929 . S
C535 C529 1.390 . S
C535 C532 1.386 . S
C536 C531 1.490 . S
C536 C538 1.395 . S
C536 C539 1.403 . S
H537 C543 0.930 . S
C538 H524 0.930 . S
C538 C536 1.395 . S
C538 C541 1.403 . S
C539 C536 1.403 . S
C539 C540 1.524 . S
C539 C543 1.400 . S
C540 H525 0.960 . S
C540 H526 0.960 . S
C540 H527 0.960 . S
C540 C539 1.524 . S
C541 C538 1.403 . S
C541 C542 1.392 . S
C541 C545 1.495 . S
C542 C541 1.392 . S
C542 C543 1.385 . S
C542 C544 1.478 . S
C543 H537 0.930 . S
C543 C539 1.400 . S
C543 C542 1.385 . S
C544 C542 1.478 . S
C544 C546 1.381 . S
C544 C550 1.383 . S
C545 C541 1.495 . S
C545 H551 0.959 . S
C545 H552 0.961 . S
C545 H553 0.960 . S
C546 C544 1.381 . S
C546 C547 1.394 . S
C546 H554 0.930 . S
C547 C546 1.394 . S
C547 C548 1.383 . S
C547 H555 0.929 . S
C548 C547 1.383 . S
C548 C549 1.377 . S
C549 H533 0.930 . S
C549 C548 1.377 . S
C549 C550 1.379 . S
C550 H534 0.931 . S
C550 C544 1.383 . S
C550 C549 1.379 . S
H551 C545 0.959 . S
H552 C545 0.961 . S
H553 C545 0.960 . S
H554 C546 0.930 . S
H555 C547 0.929 . S
H556 C564 0.929 . S
H557 C566 0.930 . S
H558 C568 0.930 . S
H559 C571 0.929 . S
H560 C574 0.930 . S
H561 C576 0.960 . S
H562 C576 0.960 . S
H563 C576 0.960 . S
C564 H556 0.929 . S
C564 C565 1.377 . S
C564 C566 1.384 . S
C565 C564 1.377 . S
C565 C571 1.390 . S
C566 H557 0.930 . S
C566 C564 1.384 . S
C566 C567 1.372 . S
C567 C566 1.372 . S
C567 C568 1.400 . S
C567 C572 1.490 . S
C568 H558 0.930 . S
C568 C567 1.400 . S
C568 C571 1.386 . S
H569 C585 0.930 . S
H570 C586 0.931 . S
C571 H559 0.929 . S
C571 C565 1.390 . S
C571 C568 1.386 . S
C572 C567 1.490 . S
C572 C574 1.395 . S
C572 C575 1.403 . S
H573 C579 0.930 . S
C574 H560 0.930 . S
C574 C572 1.395 . S
C574 C577 1.403 . S
C575 C572 1.403 . S
C575 C576 1.524 . S
C575 C579 1.400 . S
C576 H561 0.960 . S
C576 H562 0.960 . S
C576 H563 0.960 . S
C576 C575 1.524 . S
C577 C574 1.403 . S
C577 C578 1.392 . S
C577 C581 1.495 . S
C578 C577 1.392 . S
C578 C579 1.385 . S
C578 C580 1.478 . S
C579 H573 0.930 . S
C579 C575 1.400 . S
C579 C578 1.385 . S
C580 C578 1.478 . S
C580 C582 1.381 . S
C580 C586 1.383 . S
C581 C577 1.495 . S
C581 H587 0.959 . S
C581 H588 0.961 . S
C581 H589 0.960 . S
C582 C580 1.381 . S
C582 C583 1.394 . S
C582 H590 0.930 . S
C583 C582 1.394 . S
C583 C584 1.383 . S
C583 H591 0.929 . S
C584 C583 1.383 . S
C584 C585 1.377 . S
C585 H569 0.930 . S
C585 C584 1.377 . S
C585 C586 1.379 . S
C586 H570 0.931 . S
C586 C580 1.383 . S
C586 C585 1.379 . S
H587 C581 0.959 . S
H588 C581 0.961 . S
H589 C581 0.960 . S
H590 C582 0.930 . S
H591 C583 0.929 . S
H592 C600 0.929 . S
H593 C602 0.930 . S
H594 C604 0.930 . S
H595 C607 0.929 . S
H596 C610 0.930 . S
H597 C612 0.960 . S
H598 C612 0.960 . S
H599 C612 0.960 . S
C600 H592 0.929 . S
C600 C601 1.377 . S
C600 C602 1.384 . S
C601 C600 1.377 . S
C601 C607 1.390 . S
C602 H593 0.930 . S
C602 C600 1.384 . S
C602 C603 1.372 . S
C603 C602 1.372 . S
C603 C604 1.400 . S
C603 C608 1.490 . S
C604 H594 0.930 . S
C604 C603 1.400 . S
C604 C607 1.386 . S
H605 C621 0.930 . S
H606 C622 0.931 . S
C607 H595 0.929 . S
C607 C601 1.390 . S
C607 C604 1.386 . S
C608 C603 1.490 . S
C608 C610 1.395 . S
C608 C611 1.403 . S
H609 C615 0.930 . S
C610 H596 0.930 . S
C610 C608 1.395 . S
C610 C613 1.403 . S
C611 C608 1.403 . S
C611 C612 1.524 . S
C611 C615 1.400 . S
C612 H597 0.960 . S
C612 H598 0.960 . S
C612 H599 0.960 . S
C612 C611 1.524 . S
C613 C610 1.403 . S
C613 C614 1.392 . S
C613 C617 1.495 . S
C614 C613 1.392 . S
C614 C615 1.385 . S
C614 C616 1.478 . S
C615 H609 0.930 . S
C615 C611 1.400 . S
C615 C614 1.385 . S
C616 C614 1.478 . S
C616 C618 1.381 . S
C616 C622 1.383 . S
C617 C613 1.495 . S
C617 H623 0.959 . S
C617 H624 0.961 . S
C617 H625 0.960 . S
C618 C616 1.381 . S
C618 C619 1.394 . S
C618 H626 0.930 . S
C619 C618 1.394 . S
C619 C620 1.383 . S
C619 H627 0.929 . S
C620 C619 1.383 . S
C620 C621 1.377 . S
C621 H605 0.930 . S
C621 C620 1.377 . S
C621 C622 1.379 . S
C622 H606 0.931 . S
C622 C616 1.383 . S
C622 C621 1.379 . S
H623 C617 0.959 . S
H624 C617 0.961 . S
H625 C617 0.960 . S
H626 C618 0.930 . S
H627 C619 0.929 . S
H628 C636 0.929 . S
H629 C638 0.930 . S
H630 C640 0.930 . S
H631 C643 0.929 . S
H632 C646 0.930 . S
H633 C648 0.960 . S
H634 C648 0.960 . S
H635 C648 0.960 . S
C636 H628 0.929 . S
C636 C637 1.377 . S
C636 C638 1.384 . S
C637 C636 1.377 . S
C637 C643 1.390 . S
C638 H629 0.930 . S
C638 C636 1.384 . S
C638 C639 1.372 . S
C639 C638 1.372 . S
C639 C640 1.400 . S
C639 C644 1.490 . S
C640 H630 0.930 . S
C640 C639 1.400 . S
C640 C643 1.386 . S
H641 C657 0.930 . S
H642 C658 0.931 . S
C643 H631 0.929 . S
C643 C637 1.390 . S
C643 C640 1.386 . S
C644 C639 1.490 . S
C644 C646 1.395 . S
C644 C647 1.403 . S
H645 C651 0.930 . S
C646 H632 0.930 . S
C646 C644 1.395 . S
C646 C649 1.403 . S
C647 C644 1.403 . S
C647 C648 1.524 . S
C647 C651 1.400 . S
C648 H633 0.960 . S
C648 H634 0.960 . S
C648 H635 0.960 . S
C648 C647 1.524 . S
C649 C646 1.403 . S
C649 C650 1.392 . S
C649 C653 1.495 . S
C650 C649 1.392 . S
C650 C651 1.385 . S
C650 C652 1.478 . S
C651 H645 0.930 . S
C651 C647 1.400 . S
C651 C650 1.385 . S
C652 C650 1.478 . S
C652 C654 1.381 . S
C652 C658 1.383 . S
C653 C649 1.495 . S
C653 H659 0.959 . S
C653 H660 0.961 . S
C653 H661 0.960 . S
C654 C652 1.381 . S
C654 C655 1.394 . S
C654 H662 0.930 . S
C655 C654 1.394 . S
C655 C656 1.383 . S
C655 H663 0.929 1_565 S
C656 C655 1.383 . S
C656 C657 1.377 . S
C657 H641 0.930 . S
C657 C656 1.377 . S
C657 C658 1.379 . S
C658 H642 0.931 . S
C658 C652 1.383 . S
C658 C657 1.379 . S
H659 C653 0.959 . S
H660 C653 0.961 . S
H661 C653 0.960 . S
H662 C654 0.930 . S
H663 C655 0.929 1_545 S
H664 C672 0.929 . S
H665 C674 0.930 . S
H666 C676 0.930 . S
H667 C679 0.929 . S
H668 C682 0.930 . S
H669 C684 0.960 . S
H670 C684 0.960 . S
H671 C684 0.960 . S
C672 H664 0.929 . S
C672 C673 1.377 . S
C672 C674 1.384 . S
C673 C672 1.377 . S
C673 C679 1.390 . S
C674 H665 0.930 . S
C674 C672 1.384 . S
C674 C675 1.372 . S
C675 C674 1.372 . S
C675 C676 1.400 . S
C675 C680 1.490 . S
C676 H666 0.930 . S
C676 C675 1.400 . S
C676 C679 1.386 . S
H677 C693 0.930 . S
H678 C694 0.931 . S
C679 H667 0.929 . S
C679 C673 1.390 . S
C679 C676 1.386 . S
C680 C675 1.490 . S
C680 C682 1.395 . S
C680 C683 1.403 . S
H681 C687 0.930 . S
C682 H668 0.930 . S
C682 C680 1.395 . S
C682 C685 1.403 . S
C683 C680 1.403 . S
C683 C684 1.524 . S
C683 C687 1.400 . S
C684 H669 0.960 . S
C684 H670 0.960 . S
C684 H671 0.960 . S
C684 C683 1.524 . S
C685 C682 1.403 . S
C685 C686 1.392 . S
C685 C689 1.495 . S
C686 C685 1.392 . S
C686 C687 1.385 . S
C686 C688 1.478 . S
C687 H681 0.930 . S
C687 C683 1.400 . S
C687 C686 1.385 . S
C688 C686 1.478 . S
C688 C690 1.381 . S
C688 C694 1.383 . S
C689 C685 1.495 . S
C689 H695 0.959 . S
C689 H696 0.961 . S
C689 H697 0.960 . S
C690 C688 1.381 . S
C690 C691 1.394 . S
C690 H698 0.930 . S
C691 C690 1.394 . S
C691 C692 1.383 . S
C691 H699 0.929 . S
C692 C691 1.383 . S
C692 C693 1.377 . S
C693 H677 0.930 . S
C693 C692 1.377 . S
C693 C694 1.379 . S
C694 H678 0.931 . S
C694 C688 1.383 . S
C694 C693 1.379 . S
H695 C689 0.959 . S
H696 C689 0.961 . S
H697 C689 0.960 . S
H698 C690 0.930 . S
H699 C691 0.929 . S
H700 C708 0.929 . S
H701 C710 0.930 . S
H702 C712 0.930 . S
H703 C715 0.929 . S
H704 C718 0.930 . S
H705 C720 0.960 . S
H706 C720 0.960 . S
H707 C720 0.960 . S
C708 H700 0.929 . S
C708 C709 1.377 . S
C708 C710 1.384 . S
C709 C708 1.377 . S
C709 C715 1.390 . S
C710 H701 0.930 . S
C710 C708 1.384 . S
C710 C711 1.372 . S
C711 C710 1.372 . S
C711 C712 1.400 . S
C711 C716 1.490 . S
C712 H702 0.930 . S
C712 C711 1.400 . S
C712 C715 1.386 . S
H713 C729 0.930 . S
H714 C730 0.931 . S
C715 H703 0.929 . S
C715 C709 1.390 . S
C715 C712 1.386 . S
C716 C711 1.490 . S
C716 C718 1.395 . S
C716 C719 1.403 . S
H717 C723 0.930 . S
C718 H704 0.930 . S
C718 C716 1.395 . S
C718 C721 1.403 . S
C719 C716 1.403 . S
C719 C720 1.524 . S
C719 C723 1.400 . S
C720 H705 0.960 . S
C720 H706 0.960 . S
C720 H707 0.960 . S
C720 C719 1.524 . S
C721 C718 1.403 . S
C721 C722 1.392 . S
C721 C725 1.495 . S
C722 C721 1.392 . S
C722 C723 1.385 . S
C722 C724 1.478 . S
C723 H717 0.930 . S
C723 C719 1.400 . S
C723 C722 1.385 . S
C724 C722 1.478 . S
C724 C726 1.381 . S
C724 C730 1.383 . S
C725 C721 1.495 . S
C725 H731 0.959 . S
C725 H732 0.961 . S
C725 H733 0.960 . S
C726 C724 1.381 . S
C726 C727 1.394 . S
C726 H734 0.930 . S
C727 C726 1.394 . S
C727 C728 1.383 . S
C727 H735 0.929 . S
C728 C727 1.383 . S
C728 C729 1.377 . S
C729 H713 0.930 . S
C729 C728 1.377 . S
C729 C730 1.379 . S
C730 H714 0.931 . S
C730 C724 1.383 . S
C730 C729 1.379 . S
H731 C725 0.959 . S
H732 C725 0.961 . S
H733 C725 0.960 . S
H734 C726 0.930 . S
H735 C727 0.929 . S
H736 C744 0.929 . S
H737 C746 0.930 . S
H738 C748 0.930 . S
H739 C751 0.929 . S
H740 C754 0.930 . S
H741 C756 0.960 . S
H742 C756 0.960 . S
H743 C756 0.960 . S
C744 H736 0.929 . S
C744 C745 1.377 . S
C744 C746 1.384 . S
C745 C744 1.377 . S
C745 C751 1.390 . S
C746 H737 0.930 . S
C746 C744 1.384 . S
C746 C747 1.372 . S
C747 C746 1.372 . S
C747 C748 1.400 . S
C747 C752 1.490 . S
C748 H738 0.930 . S
C748 C747 1.400 . S
C748 C751 1.386 . S
H749 C765 0.930 . S
H750 C766 0.931 . S
C751 H739 0.929 . S
C751 C745 1.390 . S
C751 C748 1.386 . S
C752 C747 1.490 . S
C752 C754 1.395 . S
C752 C755 1.403 . S
H753 C759 0.930 . S
C754 H740 0.930 . S
C754 C752 1.395 . S
C754 C757 1.403 . S
C755 C752 1.403 . S
C755 C756 1.524 . S
C755 C759 1.400 . S
C756 H741 0.960 . S
C756 H742 0.960 . S
C756 H743 0.960 . S
C756 C755 1.524 . S
C757 C754 1.403 . S
C757 C758 1.392 . S
C757 C761 1.495 . S
C758 C757 1.392 . S
C758 C759 1.385 . S
C758 C760 1.478 . S
C759 H753 0.930 . S
C759 C755 1.400 . S
C759 C758 1.385 . S
C760 C758 1.478 . S
C760 C762 1.381 . S
C760 C766 1.383 . S
C761 C757 1.495 . S
C761 H767 0.959 . S
C761 H768 0.961 . S
C761 H769 0.960 . S
C762 C760 1.381 . S
C762 C763 1.394 . S
C762 H770 0.930 . S
C763 C762 1.394 . S
C763 C764 1.383 . S
C763 H771 0.929 . S
C764 C763 1.383 . S
C764 C765 1.377 . S
C765 H749 0.930 . S
C765 C764 1.377 . S
C765 C766 1.379 . S
C766 H750 0.931 . S
C766 C760 1.383 . S
C766 C765 1.379 . S
H767 C761 0.959 . S
H768 C761 0.961 . S
H769 C761 0.960 . S
H770 C762 0.930 . S
H771 C763 0.929 . S
H772 C780 0.929 . S
H773 C782 0.930 . S
H774 C784 0.930 . S
H775 C787 0.929 . S
H776 C790 0.930 . S
H777 C792 0.960 . S
H778 C792 0.960 . S
H779 C792 0.960 . S
C780 H772 0.929 . S
C780 C781 1.377 . S
C780 C782 1.384 . S
C781 C780 1.377 . S
C781 C787 1.390 . S
C782 H773 0.930 . S
C782 C780 1.384 . S
C782 C783 1.372 . S
C783 C782 1.372 . S
C783 C784 1.400 . S
C783 C788 1.490 . S
C784 H774 0.930 . S
C784 C783 1.400 . S
C784 C787 1.386 . S
H785 C801 0.930 . S
H786 C802 0.931 . S
C787 H775 0.929 . S
C787 C781 1.390 . S
C787 C784 1.386 . S
C788 C783 1.490 . S
C788 C790 1.395 . S
C788 C791 1.403 . S
H789 C795 0.930 . S
C790 H776 0.930 . S
C790 C788 1.395 . S
C790 C793 1.403 . S
C791 C788 1.403 . S
C791 C792 1.524 . S
C791 C795 1.400 . S
C792 H777 0.960 . S
C792 H778 0.960 . S
C792 H779 0.960 . S
C792 C791 1.524 . S
C793 C790 1.403 . S
C793 C794 1.392 . S
C793 C797 1.495 . S
C794 C793 1.392 . S
C794 C795 1.385 . S
C794 C796 1.478 . S
C795 H789 0.930 . S
C795 C791 1.400 . S
C795 C794 1.385 . S
C796 C794 1.478 . S
C796 C798 1.381 . S
C796 C802 1.383 . S
C797 C793 1.495 . S
C797 H803 0.959 . S
C797 H804 0.961 . S
C797 H805 0.960 . S
C798 C796 1.381 . S
C798 C799 1.394 . S
C798 H806 0.930 . S
C799 C798 1.394 . S
C799 C800 1.383 . S
C799 H807 0.929 . S
C800 C799 1.383 . S
C800 C801 1.377 . S
C801 H785 0.930 . S
C801 C800 1.377 . S
C801 C802 1.379 . S
C802 H786 0.931 . S
C802 C796 1.383 . S
C802 C801 1.379 . S
H803 C797 0.959 . S
H804 C797 0.961 . S
H805 C797 0.960 . S
H806 C798 0.930 . S
H807 C799 0.929 . S
H808 C816 0.929 . S
H809 C818 0.930 . S
H810 C820 0.930 . S
H811 C823 0.929 . S
H812 C826 0.930 . S
H813 C828 0.960 . S
H814 C828 0.960 . S
H815 C828 0.960 . S
C816 H808 0.929 . S
C816 C817 1.377 . S
C816 C818 1.384 . S
C817 C816 1.377 . S
C817 C823 1.390 . S
C818 H809 0.930 . S
C818 C816 1.384 . S
C818 C819 1.372 . S
C819 C818 1.372 . S
C819 C820 1.400 . S
C819 C824 1.490 . S
C820 H810 0.930 . S
C820 C819 1.400 . S
C820 C823 1.386 . S
H821 C837 0.930 . S
H822 C838 0.931 . S
C823 H811 0.929 . S
C823 C817 1.390 . S
C823 C820 1.386 . S
C824 C819 1.490 . S
C824 C826 1.395 . S
C824 C827 1.403 . S
H825 C831 0.930 . S
C826 H812 0.930 . S
C826 C824 1.395 . S
C826 C829 1.403 . S
C827 C824 1.403 . S
C827 C828 1.524 . S
C827 C831 1.400 . S
C828 H813 0.960 . S
C828 H814 0.960 . S
C828 H815 0.960 . S
C828 C827 1.524 . S
C829 C826 1.403 . S
C829 C830 1.392 . S
C829 C833 1.495 . S
C830 C829 1.392 . S
C830 C831 1.385 . S
C830 C832 1.478 . S
C831 H825 0.930 . S
C831 C827 1.400 . S
C831 C830 1.385 . S
C832 C830 1.478 . S
C832 C834 1.381 . S
C832 C838 1.383 . S
C833 C829 1.495 . S
C833 H839 0.959 . S
C833 H840 0.961 . S
C833 H841 0.960 . S
C834 C832 1.381 . S
C834 C835 1.394 . S
C834 H842 0.930 . S
C835 C834 1.394 . S
C835 C836 1.383 . S
C835 H843 0.929 . S
C836 C835 1.383 . S
C836 C837 1.377 . S
C837 H821 0.930 . S
C837 C836 1.377 . S
C837 C838 1.379 . S
C838 H822 0.931 . S
C838 C832 1.383 . S
C838 C837 1.379 . S
H839 C833 0.959 . S
H840 C833 0.961 . S
H841 C833 0.960 . S
H842 C834 0.930 . S
H843 C835 0.929 . S
H844 C852 0.929 . S
H845 C854 0.930 . S
H846 C856 0.930 . S
H847 C859 0.929 . S
H848 C862 0.930 . S
H849 C864 0.960 . S
H850 C864 0.960 . S
H851 C864 0.960 . S
C852 H844 0.929 . S
C852 C853 1.377 . S
C852 C854 1.384 . S
C853 C852 1.377 . S
C853 C859 1.390 . S
C854 H845 0.930 . S
C854 C852 1.384 . S
C854 C855 1.372 . S
C855 C854 1.372 . S
C855 C856 1.400 . S
C855 C860 1.490 . S
C856 H846 0.930 . S
C856 C855 1.400 . S
C856 C859 1.386 . S
H857 C873 0.930 . S
H858 C874 0.931 . S
C859 H847 0.929 . S
C859 C853 1.390 . S
C859 C856 1.386 . S
C860 C855 1.490 . S
C860 C862 1.395 . S
C860 C863 1.403 . S
H861 C867 0.930 . S
C862 H848 0.930 . S
C862 C860 1.395 . S
C862 C865 1.403 . S
C863 C860 1.403 . S
C863 C864 1.524 . S
C863 C867 1.400 . S
C864 H849 0.960 . S
C864 H850 0.960 . S
C864 H851 0.960 . S
C864 C863 1.524 . S
C865 C862 1.403 . S
C865 C866 1.392 . S
C865 C869 1.495 . S
C866 C865 1.392 . S
C866 C867 1.385 . S
C866 C868 1.478 . S
C867 H861 0.930 . S
C867 C863 1.400 . S
C867 C866 1.385 . S
C868 C866 1.478 . S
C868 C870 1.381 . S
C868 C874 1.383 . S
C869 C865 1.495 . S
C869 H875 0.959 . S
C869 H876 0.961 . S
C869 H877 0.960 . S
C870 C868 1.381 . S
C870 C871 1.394 . S
C870 H878 0.930 . S
C871 C870 1.394 . S
C871 C872 1.383 . S
C871 H879 0.929 . S
C872 C871 1.383 . S
C872 C873 1.377 . S
C873 H857 0.930 . S
C873 C872 1.377 . S
C873 C874 1.379 . S
C874 H858 0.931 . S
C874 C868 1.383 . S
C874 C873 1.379 . S
H875 C869 0.959 . S
H876 C869 0.961 . S
H877 C869 0.960 . S
H878 C870 0.930 . S
H879 C871 0.929 . S
H880 C888 0.929 . S
H881 C890 0.930 . S
H882 C892 0.930 . S
H883 C895 0.929 . S
H884 C898 0.930 . S
H885 C900 0.960 . S
H886 C900 0.960 . S
H887 C900 0.960 . S
C888 H880 0.929 . S
C888 C889 1.377 . S
C888 C890 1.384 . S
C889 C888 1.377 . S
C889 C895 1.390 . S
C890 H881 0.930 . S
C890 C888 1.384 . S
C890 C891 1.372 . S
C891 C890 1.372 . S
C891 C892 1.400 . S
C891 C896 1.490 . S
C892 H882 0.930 . S
C892 C891 1.400 . S
C892 C895 1.386 . S
H893 C909 0.930 . S
H894 C910 0.931 . S
C895 H883 0.929 . S
C895 C889 1.390 . S
C895 C892 1.386 . S
C896 C891 1.490 . S
C896 C898 1.395 . S
C896 C899 1.403 . S
H897 C903 0.930 . S
C898 H884 0.930 . S
C898 C896 1.395 . S
C898 C901 1.403 . S
C899 C896 1.403 . S
C899 C900 1.524 . S
C899 C903 1.400 . S
C900 H885 0.960 . S
C900 H886 0.960 . S
C900 H887 0.960 . S
C900 C899 1.524 . S
C901 C898 1.403 . S
C901 C902 1.392 . S
C901 C905 1.495 . S
C902 C901 1.392 . S
C902 C903 1.385 . S
C902 C904 1.478 . S
C903 H897 0.930 . S
C903 C899 1.400 . S
C903 C902 1.385 . S
C904 C902 1.478 . S
C904 C906 1.381 . S
C904 C910 1.383 . S
C905 C901 1.495 . S
C905 H911 0.959 . S
C905 H912 0.961 . S
C905 H913 0.960 . S
C906 C904 1.381 . S
C906 C907 1.394 . S
C906 H914 0.930 . S
C907 C906 1.394 . S
C907 C908 1.383 . S
C907 H915 0.929 . S
C908 C907 1.383 . S
C908 C909 1.377 . S
C909 H893 0.930 . S
C909 C908 1.377 . S
C909 C910 1.379 . S
C910 H894 0.931 . S
C910 C904 1.383 . S
C910 C909 1.379 . S
H911 C905 0.959 . S
H912 C905 0.961 . S
H913 C905 0.960 . S
H914 C906 0.930 . S
H915 C907 0.929 . S
H916 C924 0.929 . S
H917 C926 0.930 . S
H918 C928 0.930 . S
H919 C931 0.929 . S
H920 C934 0.930 . S
H921 C936 0.960 . S
H922 C936 0.960 . S
H923 C936 0.960 . S
C924 H916 0.929 . S
C924 C925 1.377 . S
C924 C926 1.384 . S
C925 C924 1.377 . S
C925 C931 1.390 . S
C926 H917 0.930 . S
C926 C924 1.384 . S
C926 C927 1.372 . S
C927 C926 1.372 . S
C927 C928 1.400 . S
C927 C932 1.490 . S
C928 H918 0.930 . S
C928 C927 1.400 . S
C928 C931 1.386 . S
H929 C945 0.930 . S
H930 C946 0.931 . S
C931 H919 0.929 . S
C931 C925 1.390 . S
C931 C928 1.386 . S
C932 C927 1.490 . S
C932 C934 1.395 . S
C932 C935 1.403 . S
H933 C939 0.930 . S
C934 H920 0.930 . S
C934 C932 1.395 . S
C934 C937 1.403 . S
C935 C932 1.403 . S
C935 C936 1.524 . S
C935 C939 1.400 . S
C936 H921 0.960 . S
C936 H922 0.960 . S
C936 H923 0.960 . S
C936 C935 1.524 . S
C937 C934 1.403 . S
C937 C938 1.392 . S
C937 C941 1.495 . S
C938 C937 1.392 . S
C938 C939 1.385 . S
C938 C940 1.478 . S
C939 H933 0.930 . S
C939 C935 1.400 . S
C939 C938 1.385 . S
C940 C938 1.478 . S
C940 C942 1.381 . S
C940 C946 1.383 . S
C941 C937 1.495 . S
C941 H947 0.959 . S
C941 H948 0.961 . S
C941 H949 0.960 . S
C942 C940 1.381 . S
C942 C943 1.381 1_655 S
C942 H950 0.930 . S
C943 C942 1.381 1_455 S
C943 C944 1.378 1_455 S
C943 H951 0.949 . S
C944 C943 1.378 1_655 S
C944 C945 1.377 . S
C945 H929 0.930 . S
C945 C944 1.377 . S
C945 C946 1.379 . S
C946 H930 0.931 . S
C946 C940 1.383 . S
C946 C945 1.379 . S
H947 C941 0.959 . S
H948 C941 0.961 . S
H949 C941 0.960 . S
H950 C942 0.930 . S
H951 C943 0.949 . S
H952 C960 0.929 . S
H953 C962 0.930 . S
H954 C964 0.930 . S
H955 C967 0.929 . S
H956 C970 0.930 . S
H957 C972 0.960 . S
H958 C972 0.960 . S
H959 C972 0.960 . S
C960 H952 0.929 . S
C960 C961 1.377 . S
C960 C962 1.384 . S
C961 C960 1.377 . S
C961 C967 1.390 . S
C962 H953 0.930 . S
C962 C960 1.384 . S
C962 C963 1.372 . S
C963 C962 1.372 . S
C963 C964 1.400 . S
C963 C968 1.490 . S
C964 H954 0.930 . S
C964 C963 1.400 . S
C964 C967 1.386 . S
H965 C981 0.930 . S
H966 C982 0.931 . S
C967 H955 0.929 . S
C967 C961 1.390 . S
C967 C964 1.386 . S
C968 C963 1.490 . S
C968 C970 1.395 . S
C968 C971 1.403 . S
H969 C975 0.930 . S
C970 H956 0.930 . S
C970 C968 1.395 . S
C970 C973 1.403 . S
C971 C968 1.403 . S
C971 C972 1.524 . S
C971 C975 1.400 . S
C972 H957 0.960 . S
C972 H958 0.960 . S
C972 H959 0.960 . S
C972 C971 1.524 . S
C973 C970 1.403 . S
C973 C974 1.392 . S
C973 C977 1.495 . S
C974 C973 1.392 . S
C974 C975 1.385 . S
C974 C976 1.478 . S
C975 H969 0.930 . S
C975 C971 1.400 . S
C975 C974 1.385 . S
C976 C974 1.478 . S
C976 C978 1.381 . S
C976 C982 1.383 . S
C977 C973 1.495 . S
C977 H983 0.959 . S
C977 H984 0.961 . S
C977 H985 0.960 . S
C978 C976 1.381 . S
C978 C979 1.394 1_565 S
C978 H986 0.930 . S
C979 C978 1.394 1_545 S
C979 C980 1.383 . S
C979 H987 0.929 . S
C980 C979 1.383 . S
C980 C981 1.377 1_545 S
C981 H965 0.930 . S
C981 C980 1.377 1_565 S
C981 C982 1.379 . S
C982 H966 0.931 . S
C982 C976 1.383 . S
C982 C981 1.379 . S
H983 C977 0.959 . S
H984 C977 0.961 . S
H985 C977 0.960 . S
H986 C978 0.930 . S
H987 C979 0.929 . S
H988 C996 0.929 . S
H989 C998 0.930 . S
H990 C1000 0.930 . S
H991 C1003 0.929 . S
H992 C1006 0.930 . S
H993 C1008 0.960 . S
H994 C1008 0.960 . S
H995 C1008 0.960 . S
C996 H988 0.929 . S
C996 C997 1.377 . S
C996 C998 1.384 . S
C997 C996 1.377 . S
C997 C1003 1.390 . S
C998 H989 0.930 . S
C998 C996 1.384 . S
C998 C999 1.372 . S
C999 C998 1.372 . S
C999 C1000 1.400 . S
C999 C1004 1.490 . S
C1000 H990 0.930 . S
C1000 C999 1.400 . S
C1000 C1003 1.386 . S
H1001 C1017 0.930 . S
H1002 C1018 0.931 . S
C1003 H991 0.929 . S
C1003 C997 1.390 . S
C1003 C1000 1.386 . S
C1004 C999 1.490 . S
C1004 C1006 1.395 . S
C1004 C1007 1.403 . S
H1005 C1011 0.930 . S
C1006 H992 0.930 . S
C1006 C1004 1.395 . S
C1006 C1009 1.403 . S
C1007 C1004 1.403 . S
C1007 C1008 1.524 . S
C1007 C1011 1.400 . S
C1008 H993 0.960 . S
C1008 H994 0.960 . S
C1008 H995 0.960 . S
C1008 C1007 1.524 . S
C1009 C1006 1.403 . S
C1009 C1010 1.392 . S
C1009 C1013 1.495 . S
C1010 C1009 1.392 . S
C1010 C1011 1.385 . S
C1010 C1012 1.478 . S
C1011 H1005 0.930 . S
C1011 C1007 1.400 . S
C1011 C1010 1.385 . S
C1012 C1010 1.478 . S
C1012 C1014 1.381 . S
C1012 C1018 1.383 . S
C1013 C1009 1.495 . S
C1013 H1019 0.959 . S
C1013 H1020 0.961 . S
C1013 H1021 0.960 . S
C1014 C1012 1.381 . S
C1014 C1015 1.394 . S
C1014 H1022 0.930 . S
C1015 C1014 1.394 . S
C1015 C1016 1.383 . S
C1015 H1023 0.929 . S
C1016 C1015 1.383 . S
C1016 C1017 1.377 . S
C1017 H1001 0.930 . S
C1017 C1016 1.377 . S
C1017 C1018 1.379 . S
C1018 H1002 0.931 . S
C1018 C1012 1.383 . S
C1018 C1017 1.379 . S
H1019 C1013 0.959 . S
H1020 C1013 0.961 . S
H1021 C1013 0.960 . S
H1022 C1014 0.930 . S
H1023 C1015 0.929 . S
H1024 C1032 0.929 . S
H1025 C1034 0.930 . S
H1026 C1036 0.930 . S
H1027 C1039 0.929 . S
H1028 C1042 0.930 . S
H1029 C1044 0.960 . S
H1030 C1044 0.960 . S
H1031 C1044 0.960 . S
C1032 H1024 0.929 . S
C1032 C1033 1.377 . S
C1032 C1034 1.384 . S
C1033 C1032 1.377 . S
C1033 C1039 1.390 . S
C1034 H1025 0.930 . S
C1034 C1032 1.384 . S
C1034 C1035 1.372 . S
C1035 C1034 1.372 . S
C1035 C1036 1.400 . S
C1035 C1040 1.490 . S
C1036 H1026 0.930 . S
C1036 C1035 1.400 . S
C1036 C1039 1.386 . S
H1037 C1053 0.930 . S
H1038 C1054 0.931 1_545 S
C1039 H1027 0.929 . S
C1039 C1033 1.390 . S
C1039 C1036 1.386 . S
C1040 C1035 1.490 . S
C1040 C1042 1.395 . S
C1040 C1043 1.403 . S
H1041 C1047 0.930 . S
C1042 H1028 0.930 . S
C1042 C1040 1.395 . S
C1042 C1045 1.403 1_556 S
C1043 C1040 1.403 . S
C1043 C1044 1.524 . S
C1043 C1047 1.400 . S
C1044 H1029 0.960 . S
C1044 H1030 0.960 . S
C1044 H1031 0.960 . S
C1044 C1043 1.524 . S
C1045 C1042 1.403 1_554 S
C1045 C1046 1.392 . S
C1045 C1049 1.495 1_545 S
C1046 C1045 1.392 . S
C1046 C1047 1.385 1_554 S
C1046 C1048 1.478 1_545 S
C1047 H1041 0.930 . S
C1047 C1043 1.400 . S
C1047 C1046 1.385 1_556 S
C1048 C1046 1.478 1_565 S
C1048 C1050 1.381 . S
C1048 C1054 1.383 . S
C1049 C1045 1.495 1_565 S
C1049 H1055 0.959 . S
C1049 H1056 0.961 . S
C1049 H1057 0.960 . S
C1050 C1048 1.381 . S
C1050 C1051 1.394 . S
C1050 H1058 0.930 1_554 S
C1051 C1050 1.394 . S
C1051 C1052 1.383 . S
C1051 H1059 0.929 . S
C1052 C1051 1.383 . S
C1052 C1053 1.377 . S
C1053 H1037 0.930 . S
C1053 C1052 1.377 . S
C1053 C1054 1.379 . S
C1054 H1038 0.931 1_565 S
C1054 C1048 1.383 . S
C1054 C1053 1.379 . S
H1055 C1049 0.959 . S
H1056 C1049 0.961 . S
H1057 C1049 0.960 . S
H1058 C1050 0.930 1_556 S
H1059 C1051 0.929 . S
H1060 C1068 0.929 . S
H1061 C1070 0.930 . S
H1062 C1072 0.930 . S
H1063 C1075 0.929 . S
H1064 C1078 0.930 . S
H1065 C1080 0.960 . S
H1066 C1080 0.960 . S
H1067 C1080 0.960 . S
C1068 H1060 0.929 . S
C1068 C1069 1.377 . S
C1068 C1070 1.384 . S
C1069 C1068 1.377 . S
C1069 C1075 1.390 . S
C1070 H1061 0.930 . S
C1070 C1068 1.384 . S
C1070 C1071 1.372 . S
C1071 C1070 1.372 . S
C1071 C1072 1.400 . S
C1071 C1076 1.490 . S
C1072 H1062 0.930 . S
C1072 C1071 1.400 . S
C1072 C1075 1.386 . S
H1073 C1089 0.930 . S
H1074 C1090 0.931 . S
C1075 H1063 0.929 . S
C1075 C1069 1.390 . S
C1075 C1072 1.386 . S
C1076 C1071 1.490 . S
C1076 C1078 1.395 . S
C1076 C1079 1.403 . S
H1077 C1083 0.930 . S
C1078 H1064 0.930 . S
C1078 C1076 1.395 . S
C1078 C1081 1.403 . S
C1079 C1076 1.403 . S
C1079 C1080 1.524 . S
C1079 C1083 1.400 . S
C1080 H1065 0.960 . S
C1080 H1066 0.960 . S
C1080 H1067 0.960 . S
C1080 C1079 1.524 . S
C1081 C1078 1.403 . S
C1081 C1082 1.392 . S
C1081 C1085 1.495 . S
C1082 C1081 1.392 . S
C1082 C1083 1.385 . S
C1082 C1084 1.478 . S
C1083 H1077 0.930 . S
C1083 C1079 1.400 . S
C1083 C1082 1.385 . S
C1084 C1082 1.478 . S
C1084 C1086 1.381 . S
C1084 C1090 1.383 . S
C1085 C1081 1.495 . S
C1085 H1091 0.959 . S
C1085 H1092 0.961 . S
C1085 H1093 0.960 . S
C1086 C1084 1.381 . S
C1086 C1087 1.394 . S
C1086 H1094 0.930 . S
C1087 C1086 1.394 . S
C1087 C1088 1.383 . S
C1087 H1095 0.929 . S
C1088 C1087 1.383 . S
C1088 C1089 1.377 . S
C1089 H1073 0.930 . S
C1089 C1088 1.377 . S
C1089 C1090 1.379 . S
C1090 H1074 0.931 . S
C1090 C1084 1.383 . S
C1090 C1089 1.379 . S
H1091 C1085 0.959 . S
H1092 C1085 0.961 . S
H1093 C1085 0.960 . S
H1094 C1086 0.930 . S
H1095 C1087 0.929 . S
H1096 C1104 0.929 . S
H1097 C1106 0.930 . S
H1098 C1108 0.930 . S
H1099 C1111 0.929 . S
H1100 C1114 0.930 . S
H1101 C1116 0.960 . S
H1102 C1116 0.960 . S
H1103 C1116 0.960 . S
C1104 H1096 0.929 . S
C1104 C1105 1.377 . S
C1104 C1106 1.384 1_565 S
C1105 C1104 1.377 . S
C1105 C1111 1.390 . S
C1106 H1097 0.930 . S
C1106 C1104 1.384 1_545 S
C1106 C1107 1.372 . S
C1107 C1106 1.372 . S
C1107 C1108 1.400 1_545 S
C1107 C1112 1.490 . S
C1108 H1098 0.930 . S
C1108 C1107 1.400 1_565 S
C1108 C1111 1.386 . S
H1109 C1125 0.930 . S
H1110 C1126 0.931 . S
C1111 H1099 0.929 . S
C1111 C1105 1.390 . S
C1111 C1108 1.386 . S
C1112 C1107 1.490 . S
C1112 C1114 1.395 . S
C1112 C1115 1.403 . S
H1113 C1119 0.930 . S
C1114 H1100 0.930 . S
C1114 C1112 1.395 . S
C1114 C1117 1.403 . S
C1115 C1112 1.403 . S
C1115 C1116 1.524 1_545 S
C1115 C1119 1.400 . S
C1116 H1101 0.960 . S
C1116 H1102 0.960 . S
C1116 H1103 0.960 . S
C1116 C1115 1.524 1_565 S
C1117 C1114 1.403 . S
C1117 C1118 1.392 . S
C1117 C1121 1.495 . S
C1118 C1117 1.392 . S
C1118 C1119 1.385 . S
C1118 C1120 1.478 . S
C1119 H1113 0.930 . S
C1119 C1115 1.400 . S
C1119 C1118 1.385 . S
C1120 C1118 1.478 . S
C1120 C1122 1.381 . S
C1120 C1126 1.383 . S
C1121 C1117 1.495 . S
C1121 H1127 0.959 . S
C1121 H1128 0.961 . S
C1121 H1129 0.960 . S
C1122 C1120 1.381 . S
C1122 C1123 1.394 . S
C1122 H1130 0.930 . S
C1123 C1122 1.394 . S
C1123 C1124 1.383 . S
C1123 H1131 0.929 . S
C1124 C1123 1.383 . S
C1124 C1125 1.377 . S
C1125 H1109 0.930 . S
C1125 C1124 1.377 . S
C1125 C1126 1.379 . S
C1126 H1110 0.931 . S
C1126 C1120 1.383 . S
C1126 C1125 1.379 . S
H1127 C1121 0.959 . S
H1128 C1121 0.961 . S
H1129 C1121 0.960 . S
H1130 C1122 0.930 . S
H1131 C1123 0.929 . S
H1132 C1140 0.929 . S
H1133 C1142 0.930 . S
H1134 C1144 0.930 . S
H1135 C1147 0.929 . S
H1136 C1150 0.930 . S
H1137 C1152 0.960 . S
H1138 C1152 0.960 . S
H1139 C1152 0.960 . S
C1140 H1132 0.929 . S
C1140 C1141 1.377 . S
C1140 C1142 1.384 . S
C1141 C1140 1.377 . S
C1141 C1147 1.390 . S
C1142 H1133 0.930 . S
C1142 C1140 1.384 . S
C1142 C1143 1.372 . S
C1143 C1142 1.372 . S
C1143 C1144 1.400 . S
C1143 C1148 1.490 . S
C1144 H1134 0.930 . S
C1144 C1143 1.400 . S
C1144 C1147 1.386 . S
H1145 C1161 0.930 . S
H1146 C1162 0.931 . S
C1147 H1135 0.929 . S
C1147 C1141 1.390 . S
C1147 C1144 1.386 . S
C1148 C1143 1.490 . S
C1148 C1150 1.395 . S
C1148 C1151 1.403 . S
H1149 C1155 0.930 . S
C1150 H1136 0.930 . S
C1150 C1148 1.395 . S
C1150 C1153 1.403 . S
C1151 C1148 1.403 . S
C1151 C1152 1.524 . S
C1151 C1155 1.400 . S
C1152 H1137 0.960 . S
C1152 H1138 0.960 . S
C1152 H1139 0.960 . S
C1152 C1151 1.524 . S
C1153 C1150 1.403 . S
C1153 C1154 1.392 . S
C1153 C1157 1.495 . S
C1154 C1153 1.392 . S
C1154 C1155 1.385 . S
C1154 C1156 1.478 . S
C1155 H1149 0.930 . S
C1155 C1151 1.400 . S
C1155 C1154 1.385 . S
C1156 C1154 1.478 . S
C1156 C1158 1.381 . S
C1156 C1162 1.383 . S
C1157 C1153 1.495 . S
C1157 H1163 0.959 . S
C1157 H1164 0.961 . S
C1157 H1165 0.960 . S
C1158 C1156 1.381 . S
C1158 C1159 1.394 . S
C1158 H1166 0.930 . S
C1159 C1158 1.394 . S
C1159 C1160 1.383 . S
C1159 H1167 0.929 . S
C1160 C1159 1.383 . S
C1160 C1161 1.377 . S
C1161 H1145 0.930 . S
C1161 C1160 1.377 . S
C1161 C1162 1.379 . S
C1162 H1146 0.931 . S
C1162 C1156 1.383 . S
C1162 C1161 1.379 . S
H1163 C1157 0.959 . S
H1164 C1157 0.961 . S
H1165 C1157 0.960 . S
H1166 C1158 0.930 . S
H1167 C1159 0.929 . S
H1168 C1176 0.929 . S
H1169 C1178 0.930 1_545 S
H1170 C1180 0.930 . S
H1171 C1183 0.929 . S
H1172 C1186 0.930 . S
H1173 C1188 0.960 . S
H1174 C1188 0.960 . S
H1175 C1188 0.960 1_565 S
C1176 H1168 0.929 . S
C1176 C1177 1.377 . S
C1176 C1178 1.384 . S
C1177 C1176 1.377 . S
C1177 C1183 1.390 . S
C1178 H1169 0.930 1_565 S
C1178 C1176 1.384 . S
C1178 C1179 1.372 . S
C1179 C1178 1.372 . S
C1179 C1180 1.400 . S
C1179 C1184 1.490 1_565 S
C1180 H1170 0.930 . S
C1180 C1179 1.400 . S
C1180 C1183 1.386 . S
H1181 C1197 0.930 . S
H1182 C1198 0.931 . S
C1183 H1171 0.929 . S
C1183 C1177 1.390 . S
C1183 C1180 1.386 . S
C1184 C1179 1.490 1_545 S
C1184 C1186 1.395 . S
C1184 C1187 1.403 . S
H1185 C1191 0.930 . S
C1186 H1172 0.930 . S
C1186 C1184 1.395 . S
C1186 C1189 1.403 . S
C1187 C1184 1.403 . S
C1187 C1188 1.524 . S
C1187 C1191 1.400 . S
C1188 H1173 0.960 . S
C1188 H1174 0.960 . S
C1188 H1175 0.960 1_545 S
C1188 C1187 1.524 . S
C1189 C1186 1.403 . S
C1189 C1190 1.392 . S
C1189 C1193 1.495 . S
C1190 C1189 1.392 . S
C1190 C1191 1.385 . S
C1190 C1192 1.478 . S
C1191 H1185 0.930 . S
C1191 C1187 1.400 . S
C1191 C1190 1.385 . S
C1192 C1190 1.478 . S
C1192 C1194 1.381 . S
C1192 C1198 1.383 . S
C1193 C1189 1.495 . S
C1193 H1199 0.959 . S
C1193 H1200 0.961 . S
C1193 H1201 0.960 . S
C1194 C1192 1.381 . S
C1194 C1195 1.394 . S
C1194 H1202 0.930 . S
C1195 C1194 1.394 . S
C1195 C1196 1.383 . S
C1195 H1203 0.929 . S
C1196 C1195 1.383 . S
C1196 C1197 1.377 . S
C1197 H1181 0.930 . S
C1197 C1196 1.377 . S
C1197 C1198 1.379 . S
C1198 H1182 0.931 . S
C1198 C1192 1.383 . S
C1198 C1197 1.379 . S
H1199 C1193 0.959 . S
H1200 C1193 0.961 . S
H1201 C1193 0.960 . S
H1202 C1194 0.930 . S
H1203 C1195 0.929 . S
H1204 C1212 0.929 . S
H1205 C1214 0.930 . S
H1206 C1216 0.930 . S
H1207 C1219 0.929 . S
H1208 C1222 0.930 . S
H1209 C1224 0.960 . S
H1210 C1224 0.960 . S
H1211 C1224 0.960 . S
C1212 H1204 0.929 . S
C1212 C1213 1.377 . S
C1212 C1214 1.384 . S
C1213 C1212 1.377 . S
C1213 C1219 1.390 . S
C1214 H1205 0.930 . S
C1214 C1212 1.384 . S
C1214 C1215 1.372 . S
C1215 C1214 1.372 . S
C1215 C1216 1.400 . S
C1215 C1220 1.490 . S
C1216 H1206 0.930 . S
C1216 C1215 1.400 . S
C1216 C1219 1.386 . S
H1217 C1233 0.930 . S
H1218 C1234 0.931 . S
C1219 H1207 0.929 . S
C1219 C1213 1.390 . S
C1219 C1216 1.386 . S
C1220 C1215 1.490 . S
C1220 C1222 1.395 . S
C1220 C1223 1.403 . S
H1221 C1227 0.930 . S
C1222 H1208 0.930 . S
C1222 C1220 1.395 . S
C1222 C1225 1.403 . S
C1223 C1220 1.403 . S
C1223 C1224 1.524 . S
C1223 C1227 1.400 . S
C1224 H1209 0.960 . S
C1224 H1210 0.960 . S
C1224 H1211 0.960 . S
C1224 C1223 1.524 . S
C1225 C1222 1.403 . S
C1225 C1226 1.392 . S
C1225 C1229 1.495 . S
C1226 C1225 1.392 . S
C1226 C1227 1.385 . S
C1226 C1228 1.478 . S
C1227 H1221 0.930 . S
C1227 C1223 1.400 . S
C1227 C1226 1.385 . S
C1228 C1226 1.478 . S
C1228 C1230 1.381 . S
C1228 C1234 1.383 . S
C1229 C1225 1.495 . S
C1229 H1235 0.959 . S
C1229 H1236 0.961 . S
C1229 H1237 0.960 . S
C1230 C1228 1.381 . S
C1230 C1231 1.394 . S
C1230 H1238 0.930 . S
C1231 C1230 1.394 . S
C1231 C1232 1.383 . S
C1231 H1239 0.929 . S
C1232 C1231 1.383 . S
C1232 C1233 1.377 . S
C1233 H1217 0.930 . S
C1233 C1232 1.377 . S
C1233 C1234 1.379 . S
C1234 H1218 0.931 . S
C1234 C1228 1.383 . S
C1234 C1233 1.379 . S
H1235 C1229 0.959 . S
H1236 C1229 0.961 . S
H1237 C1229 0.960 . S
H1238 C1230 0.930 . S
H1239 C1231 0.929 . S
H1240 C1248 0.929 . S
H1241 C1250 0.930 . S
H1242 C1252 0.930 . S
H1243 C1255 0.929 . S
H1244 C1258 0.930 . S
H1245 C1260 0.960 . S
H1246 C1260 0.960 . S
H1247 C1260 0.960 . S
C1248 H1240 0.929 . S
C1248 C1249 1.377 . S
C1248 C1250 1.384 . S
C1249 C1248 1.377 . S
C1249 C1255 1.390 . S
C1250 H1241 0.930 . S
C1250 C1248 1.384 . S
C1250 C1251 1.372 . S
C1251 C1250 1.372 . S
C1251 C1252 1.400 . S
C1251 C1256 1.490 . S
C1252 H1242 0.930 . S
C1252 C1251 1.400 . S
C1252 C1255 1.386 . S
H1253 C1269 0.930 . S
H1254 C1270 0.931 . S
C1255 H1243 0.929 . S
C1255 C1249 1.390 . S
C1255 C1252 1.386 . S
C1256 C1251 1.490 . S
C1256 C1258 1.395 . S
C1256 C1259 1.403 . S
H1257 C1263 0.930 . S
C1258 H1244 0.930 . S
C1258 C1256 1.395 . S
C1258 C1261 1.403 . S
C1259 C1256 1.403 . S
C1259 C1260 1.524 . S
C1259 C1263 1.400 . S
C1260 H1245 0.960 . S
C1260 H1246 0.960 . S
C1260 H1247 0.960 . S
C1260 C1259 1.524 . S
C1261 C1258 1.403 . S
C1261 C1262 1.392 . S
C1261 C1265 1.495 . S
C1262 C1261 1.392 . S
C1262 C1263 1.385 . S
C1262 C1264 1.478 . S
C1263 H1257 0.930 . S
C1263 C1259 1.400 . S
C1263 C1262 1.385 . S
C1264 C1262 1.478 . S
C1264 C1266 1.381 . S
C1264 C1270 1.383 . S
C1265 C1261 1.495 . S
C1265 H1271 0.959 . S
C1265 H1272 0.961 . S
C1265 H1273 0.960 . S
C1266 C1264 1.381 . S
C1266 C1267 1.394 . S
C1266 H1274 0.930 . S
C1267 C1266 1.394 . S
C1267 C1268 1.383 . S
C1267 H1275 0.929 . S
C1268 C1267 1.383 . S
C1268 C1269 1.377 . S
C1269 H1253 0.930 . S
C1269 C1268 1.377 . S
C1269 C1270 1.379 . S
C1270 H1254 0.931 . S
C1270 C1264 1.383 . S
C1270 C1269 1.379 . S
H1271 C1265 0.959 . S
H1272 C1265 0.961 . S
H1273 C1265 0.960 . S
H1274 C1266 0.930 . S
H1275 C1267 0.929 . S
H1276 C1284 0.929 . S
H1277 C1286 0.930 . S
H1278 C1288 0.930 . S
H1279 C1291 0.929 . S
H1280 C1294 0.930 . S
H1281 C1296 0.960 . S
H1282 C1296 0.960 . S
H1283 C1296 0.960 . S
C1284 H1276 0.929 . S
C1284 C1285 1.377 . S
C1284 C1286 1.384 . S
C1285 C1284 1.377 . S
C1285 C1291 1.390 . S
C1286 H1277 0.930 . S
C1286 C1284 1.384 . S
C1286 C1287 1.372 . S
C1287 C1286 1.372 . S
C1287 C1288 1.400 . S
C1287 C1292 1.490 . S
C1288 H1278 0.930 . S
C1288 C1287 1.400 . S
C1288 C1291 1.386 . S
H1289 C1305 0.930 . S
H1290 C1306 0.931 . S
C1291 H1279 0.929 . S
C1291 C1285 1.390 . S
C1291 C1288 1.386 . S
C1292 C1287 1.490 . S
C1292 C1294 1.395 . S
C1292 C1295 1.403 . S
H1293 C1299 0.930 . S
C1294 H1280 0.930 . S
C1294 C1292 1.395 . S
C1294 C1297 1.403 . S
C1295 C1292 1.403 . S
C1295 C1296 1.524 . S
C1295 C1299 1.400 . S
C1296 H1281 0.960 . S
C1296 H1282 0.960 . S
C1296 H1283 0.960 . S
C1296 C1295 1.524 . S
C1297 C1294 1.403 . S
C1297 C1298 1.392 . S
C1297 C1301 1.495 . S
C1298 C1297 1.392 . S
C1298 C1299 1.385 . S
C1298 C1300 1.478 . S
C1299 H1293 0.930 . S
C1299 C1295 1.400 . S
C1299 C1298 1.385 . S
C1300 C1298 1.478 . S
C1300 C1302 1.381 . S
C1300 C1306 1.383 . S
C1301 C1297 1.495 . S
C1301 H1307 0.959 . S
C1301 H1308 0.961 . S
C1301 H1309 0.960 . S
C1302 C1300 1.381 . S
C1302 C1303 1.394 . S
C1302 H1310 0.930 . S
C1303 C1302 1.394 . S
C1303 C1304 1.383 . S
C1303 H1311 0.929 . S
C1304 C1303 1.383 . S
C1304 C1305 1.377 . S
C1305 H1289 0.930 . S
C1305 C1304 1.377 . S
C1305 C1306 1.379 . S
C1306 H1290 0.931 . S
C1306 C1300 1.383 . S
C1306 C1305 1.379 . S
H1307 C1301 0.959 . S
H1308 C1301 0.961 . S
H1309 C1301 0.960 . S
H1310 C1302 0.930 . S
H1311 C1303 0.929 . S
H1312 C1320 0.929 . S
H1313 C1322 0.930 . S
H1314 C1324 0.930 . S
H1315 C1327 0.929 . S
H1316 C1330 0.930 . S
H1317 C1332 0.960 . S
H1318 C1332 0.960 . S
H1319 C1332 0.960 . S
C1320 H1312 0.929 . S
C1320 C1321 1.377 . S
C1320 C1322 1.384 . S
C1321 C1320 1.377 . S
C1321 C1327 1.390 . S
C1322 H1313 0.930 . S
C1322 C1320 1.384 . S
C1322 C1323 1.372 . S
C1323 C1322 1.372 . S
C1323 C1324 1.400 . S
C1323 C1328 1.490 . S
C1324 H1314 0.930 . S
C1324 C1323 1.400 . S
C1324 C1327 1.386 . S
H1325 C1341 0.930 . S
H1326 C1342 0.931 . S
C1327 H1315 0.929 . S
C1327 C1321 1.390 . S
C1327 C1324 1.386 . S
C1328 C1323 1.490 . S
C1328 C1330 1.395 . S
C1328 C1331 1.403 . S
H1329 C1335 0.930 . S
C1330 H1316 0.930 . S
C1330 C1328 1.395 . S
C1330 C1333 1.403 . S
C1331 C1328 1.403 . S
C1331 C1332 1.524 . S
C1331 C1335 1.400 . S
C1332 H1317 0.960 . S
C1332 H1318 0.960 . S
C1332 H1319 0.960 . S
C1332 C1331 1.524 . S
C1333 C1330 1.403 . S
C1333 C1334 1.392 . S
C1333 C1337 1.495 . S
C1334 C1333 1.392 . S
C1334 C1335 1.385 . S
C1334 C1336 1.478 . S
C1335 H1329 0.930 . S
C1335 C1331 1.400 . S
C1335 C1334 1.385 . S
C1336 C1334 1.478 . S
C1336 C1338 1.381 . S
C1336 C1342 1.383 . S
C1337 C1333 1.495 . S
C1337 H1343 0.959 . S
C1337 H1344 0.961 . S
C1337 H1345 0.960 . S
C1338 C1336 1.381 . S
C1338 C1339 1.394 . S
C1338 H1346 0.930 . S
C1339 C1338 1.394 . S
C1339 C1340 1.383 . S
C1339 H1347 0.929 . S
C1340 C1339 1.383 . S
C1340 C1341 1.377 . S
C1341 H1325 0.930 . S
C1341 C1340 1.377 . S
C1341 C1342 1.379 . S
C1342 H1326 0.931 . S
C1342 C1336 1.383 . S
C1342 C1341 1.379 . S
H1343 C1337 0.959 . S
H1344 C1337 0.961 . S
H1345 C1337 0.960 . S
H1346 C1338 0.930 . S
H1347 C1339 0.929 . S
H1348 C1356 0.929 . S
H1349 C1358 0.930 . S
H1350 C1360 0.930 . S
H1351 C1363 0.929 . S
H1352 C1366 0.930 . S
H1353 C1368 0.960 . S
H1354 C1368 0.960 . S
H1355 C1368 0.960 . S
C1356 H1348 0.929 . S
C1356 C1357 1.377 . S
C1356 C1358 1.384 . S
C1357 C1356 1.377 . S
C1357 C1363 1.390 . S
C1358 H1349 0.930 . S
C1358 C1356 1.384 . S
C1358 C1359 1.372 . S
C1359 C1358 1.372 . S
C1359 C1360 1.400 . S
C1359 C1364 1.490 . S
C1360 H1350 0.930 . S
C1360 C1359 1.400 . S
C1360 C1363 1.386 . S
H1361 C1377 0.930 . S
H1362 C1378 0.931 . S
C1363 H1351 0.929 . S
C1363 C1357 1.390 . S
C1363 C1360 1.386 . S
C1364 C1359 1.490 . S
C1364 C1366 1.395 . S
C1364 C1367 1.403 . S
H1365 C1371 0.930 . S
C1366 H1352 0.930 . S
C1366 C1364 1.395 . S
C1366 C1369 1.403 . S
C1367 C1364 1.403 . S
C1367 C1368 1.524 . S
C1367 C1371 1.400 . S
C1368 H1353 0.960 . S
C1368 H1354 0.960 . S
C1368 H1355 0.960 . S
C1368 C1367 1.524 . S
C1369 C1366 1.403 . S
C1369 C1370 1.392 . S
C1369 C1373 1.495 . S
C1370 C1369 1.392 . S
C1370 C1371 1.385 . S
C1370 C1372 1.478 . S
C1371 H1365 0.930 . S
C1371 C1367 1.400 . S
C1371 C1370 1.385 . S
C1372 C1370 1.478 . S
C1372 C1374 1.381 . S
C1372 C1378 1.383 . S
C1373 C1369 1.495 . S
C1373 H1379 0.959 . S
C1373 H1380 0.961 . S
C1373 H1381 0.960 . S
C1374 C1372 1.381 . S
C1374 C1375 1.394 . S
C1374 H1382 0.930 . S
C1375 C1374 1.394 . S
C1375 C1376 1.383 . S
C1375 H1383 0.929 . S
C1376 C1375 1.383 . S
C1376 C1377 1.377 . S
C1377 H1361 0.930 . S
C1377 C1376 1.377 . S
C1377 C1378 1.379 . S
C1378 H1362 0.931 . S
C1378 C1372 1.383 . S
C1378 C1377 1.379 . S
H1379 C1373 0.959 . S
H1380 C1373 0.961 . S
H1381 C1373 0.960 . S
H1382 C1374 0.930 . S
H1383 C1375 0.929 . S
H1384 C1392 0.929 . S
H1385 C1394 0.930 . S
H1386 C1396 0.930 . S
H1387 C1399 0.929 . S
H1388 C1402 0.930 . S
H1389 C1404 0.960 . S
H1390 C1404 0.960 . S
H1391 C1404 0.960 . S
C1392 H1384 0.929 . S
C1392 C1393 1.377 . S
C1392 C1394 1.384 . S
C1393 C1392 1.377 . S
C1393 C1399 1.390 . S
C1394 H1385 0.930 . S
C1394 C1392 1.384 . S
C1394 C1395 1.372 . S
C1395 C1394 1.372 . S
C1395 C1396 1.400 . S
C1395 C1400 1.490 . S
C1396 H1386 0.930 . S
C1396 C1395 1.400 . S
C1396 C1399 1.386 . S
H1397 C1413 0.930 . S
H1398 C1414 0.931 . S
C1399 H1387 0.929 . S
C1399 C1393 1.390 . S
C1399 C1396 1.386 . S
C1400 C1395 1.490 . S
C1400 C1402 1.395 . S
C1400 C1403 1.403 . S
H1401 C1407 0.930 . S
C1402 H1388 0.930 . S
C1402 C1400 1.395 . S
C1402 C1405 1.403 . S
C1403 C1400 1.403 . S
C1403 C1404 1.524 . S
C1403 C1407 1.400 . S
C1404 H1389 0.960 . S
C1404 H1390 0.960 . S
C1404 H1391 0.960 . S
C1404 C1403 1.524 . S
C1405 C1402 1.403 . S
C1405 C1406 1.392 . S
C1405 C1409 1.495 . S
C1406 C1405 1.392 . S
C1406 C1407 1.385 . S
C1406 C1408 1.478 . S
C1407 H1401 0.930 . S
C1407 C1403 1.400 . S
C1407 C1406 1.385 . S
C1408 C1406 1.478 . S
C1408 C1410 1.381 . S
C1408 C1414 1.383 . S
C1409 C1405 1.495 . S
C1409 H1415 0.959 . S
C1409 H1416 0.961 . S
C1409 H1417 0.960 . S
C1410 C1408 1.381 . S
C1410 C1411 1.394 . S
C1410 H1418 0.930 . S
C1411 C1410 1.394 . S
C1411 C1412 1.383 . S
C1411 H1419 0.929 . S
C1412 C1411 1.383 . S
C1412 C1413 1.377 . S
C1413 H1397 0.930 . S
C1413 C1412 1.377 . S
C1413 C1414 1.379 . S
C1414 H1398 0.931 . S
C1414 C1408 1.383 . S
C1414 C1413 1.379 . S
H1415 C1409 0.959 . S
H1416 C1409 0.961 . S
H1417 C1409 0.960 . S
H1418 C1410 0.930 . S
H1419 C1411 0.929 . S
H1420 C1428 0.929 . S
H1421 C1430 0.930 . S
H1422 C1432 0.930 . S
H1423 C1435 0.929 . S
H1424 C1438 0.930 . S
H1425 C1440 0.960 1_655 S
H1426 C1440 0.960 . S
H1427 C1440 0.960 . S
C1428 H1420 0.929 . S
C1428 C1429 1.377 . S
C1428 C1430 1.384 . S
C1429 C1428 1.377 . S
C1429 C1435 1.390 . S
C1430 H1421 0.930 . S
C1430 C1428 1.384 . S
C1430 C1431 1.372 . S
C1431 C1430 1.372 . S
C1431 C1432 1.400 . S
C1431 C1436 1.490 . S
C1432 H1422 0.930 . S
C1432 C1431 1.400 . S
C1432 C1435 1.386 . S
H1433 C1449 0.930 . S
H1434 C1450 0.931 . S
C1435 H1423 0.929 . S
C1435 C1429 1.390 . S
C1435 C1432 1.386 . S
C1436 C1431 1.490 . S
C1436 C1438 1.395 . S
C1436 C1439 1.385 1_455 S
H1437 C1443 0.930 . S
C1438 H1424 0.930 . S
C1438 C1436 1.395 . S
C1438 C1441 1.403 1_455 S
C1439 C1436 1.385 1_655 S
C1439 C1440 1.511 1_655 S
C1439 C1443 1.432 . S
C1440 H1425 0.960 1_455 S
C1440 H1426 0.960 . S
C1440 H1427 0.960 . S
C1440 C1439 1.511 1_455 S
C1441 C1438 1.403 1_655 S
C1441 C1442 1.392 . S
C1441 C1445 1.495 . S
C1442 C1441 1.392 . S
C1442 C1443 1.385 . S
C1442 C1444 1.478 . S
C1443 H1437 0.930 . S
C1443 C1439 1.432 . S
C1443 C1442 1.385 . S
C1444 C1442 1.478 . S
C1444 C1446 1.381 . S
C1444 C1450 1.383 . S
C1445 C1441 1.495 . S
C1445 H1451 0.959 . S
C1445 H1452 0.961 . S
C1445 H1453 0.960 . S
C1446 C1444 1.381 . S
C1446 C1447 1.394 . S
C1446 H1454 0.930 . S
C1447 C1446 1.394 . S
C1447 C1448 1.383 . S
C1447 H1455 0.929 . S
C1448 C1447 1.383 . S
C1448 C1449 1.377 . S
C1449 H1433 0.930 . S
C1449 C1448 1.377 . S
C1449 C1450 1.379 . S
C1450 H1434 0.931 . S
C1450 C1444 1.383 . S
C1450 C1449 1.379 . S
H1451 C1445 0.959 . S
H1452 C1445 0.961 . S
H1453 C1445 0.960 . S
H1454 C1446 0.930 . S
H1455 C1447 0.929 . S
H1456 C1464 0.929 . S
H1457 C1466 0.930 . S
H1458 C1468 0.930 . S
H1459 C1471 0.929 . S
H1460 C1474 0.930 . S
H1461 C1476 0.960 . S
H1462 C1476 0.960 . S
H1463 C1476 0.960 . S
C1464 H1456 0.929 . S
C1464 C1465 1.377 . S
C1464 C1466 1.384 . S
C1465 C1464 1.377 . S
C1465 C1471 1.390 . S
C1466 H1457 0.930 . S
C1466 C1464 1.384 . S
C1466 C1467 1.372 . S
C1467 C1466 1.372 . S
C1467 C1468 1.400 . S
C1467 C1472 1.490 . S
C1468 H1458 0.930 . S
C1468 C1467 1.400 . S
C1468 C1471 1.386 . S
H1469 C1485 0.930 . S
H1470 C1486 0.931 . S
C1471 H1459 0.929 . S
C1471 C1465 1.390 . S
C1471 C1468 1.386 . S
C1472 C1467 1.490 . S
C1472 C1474 1.395 . S
C1472 C1475 1.403 . S
H1473 C1479 0.930 . S
C1474 H1460 0.930 . S
C1474 C1472 1.395 . S
C1474 C1477 1.403 . S
C1475 C1472 1.403 . S
C1475 C1476 1.524 . S
C1475 C1479 1.400 . S
C1476 H1461 0.960 . S
C1476 H1462 0.960 . S
C1476 H1463 0.960 . S
C1476 C1475 1.524 . S
C1477 C1474 1.403 . S
C1477 C1478 1.392 . S
C1477 C1481 1.495 . S
C1478 C1477 1.392 . S
C1478 C1479 1.385 . S
C1478 C1480 1.478 . S
C1479 H1473 0.930 . S
C1479 C1475 1.400 . S
C1479 C1478 1.385 . S
C1480 C1478 1.478 . S
C1480 C1482 1.381 . S
C1480 C1486 1.383 . S
C1481 C1477 1.495 . S
C1481 H1487 0.959 . S
C1481 H1488 0.961 . S
C1481 H1489 0.960 . S
C1482 C1480 1.381 . S
C1482 C1483 1.394 . S
C1482 H1490 0.930 . S
C1483 C1482 1.394 . S
C1483 C1484 1.383 . S
C1483 H1491 0.929 . S
C1484 C1483 1.383 . S
C1484 C1485 1.377 . S
C1485 H1469 0.930 . S
C1485 C1484 1.377 . S
C1485 C1486 1.379 . S
C1486 H1470 0.931 . S
C1486 C1480 1.383 . S
C1486 C1485 1.379 . S
H1487 C1481 0.959 . S
H1488 C1481 0.961 . S
H1489 C1481 0.960 . S
H1490 C1482 0.930 . S
H1491 C1483 0.929 . S
H1492 C1500 0.929 . S
H1493 C1502 0.930 . S
H1494 C1504 0.930 . S
H1495 C1507 0.929 . S
H1496 C1510 0.930 . S
H1497 C1512 0.960 . S
H1498 C1512 0.960 1_655 S
H1499 C1512 0.957 1_655 S
C1500 H1492 0.929 . S
C1500 C1501 1.377 . S
C1500 C1502 1.384 . S
C1501 C1500 1.377 . S
C1501 C1507 1.390 . S
C1502 H1493 0.930 . S
C1502 C1500 1.384 . S
C1502 C1503 1.372 . S
C1503 C1502 1.372 . S
C1503 C1504 1.400 . S
C1503 C1508 1.490 . S
C1504 H1494 0.930 . S
C1504 C1503 1.400 . S
C1504 C1507 1.386 . S
H1505 C1521 0.930 . S
H1506 C1522 0.931 . S
C1507 H1495 0.929 . S
C1507 C1501 1.390 . S
C1507 C1504 1.386 . S
C1508 C1503 1.490 . S
C1508 C1510 1.395 . S
C1508 C1511 1.403 . S
H1509 C1515 0.930 . S
C1510 H1496 0.930 . S
C1510 C1508 1.395 . S
C1510 C1513 1.403 . S
C1511 C1508 1.403 . S
C1511 C1512 1.524 1_655 S
C1511 C1515 1.400 1_655 S
C1512 H1497 0.960 . S
C1512 H1498 0.960 1_455 S
C1512 H1499 0.957 1_455 S
C1512 C1511 1.524 1_455 S
C1513 C1510 1.403 . S
C1513 C1514 1.392 1_655 S
C1513 C1517 1.495 . S
C1514 C1513 1.392 1_455 S
C1514 C1515 1.385 . S
C1514 C1516 1.478 . S
C1515 H1509 0.930 . S
C1515 C1511 1.400 1_455 S
C1515 C1514 1.385 . S
C1516 C1514 1.478 . S
C1516 C1518 1.381 . S
C1516 C1522 1.383 . S
C1517 C1513 1.495 . S
C1517 H1523 0.959 . S
C1517 H1524 0.961 . S
C1517 H1525 0.960 . S
C1518 C1516 1.381 . S
C1518 C1519 1.394 . S
C1518 H1526 0.930 . S
C1519 C1518 1.394 . S
C1519 C1520 1.383 . S
C1519 H1527 0.929 . S
C1520 C1519 1.383 . S
C1520 C1521 1.377 . S
C1521 H1505 0.930 . S
C1521 C1520 1.377 . S
C1521 C1522 1.379 . S
C1522 H1506 0.931 . S
C1522 C1516 1.383 . S
C1522 C1521 1.379 . S
H1523 C1517 0.959 . S
H1524 C1517 0.961 . S
H1525 C1517 0.960 . S
H1526 C1518 0.930 . S
H1527 C1519 0.929 . S
H1528 C1536 0.929 . S
H1529 C1538 0.930 . S
H1530 C1540 0.930 . S
H1531 C1543 0.929 . S
H1532 C1546 0.930 . S
H1533 C1548 0.960 . S
H1534 C1548 0.960 . S
H1535 C1548 0.960 . S
C1536 H1528 0.929 . S
C1536 C1537 1.377 . S
C1536 C1538 1.384 . S
C1537 C1536 1.377 . S
C1537 C1543 1.390 . S
C1538 H1529 0.930 . S
C1538 C1536 1.384 . S
C1538 C1539 1.372 . S
C1539 C1538 1.372 . S
C1539 C1540 1.400 . S
C1539 C1544 1.490 . S
C1540 H1530 0.930 . S
C1540 C1539 1.400 . S
C1540 C1543 1.386 . S
H1541 C1557 0.930 . S
H1542 C1558 0.931 . S
C1543 H1531 0.929 . S
C1543 C1537 1.390 . S
C1543 C1540 1.386 . S
C1544 C1539 1.490 . S
C1544 C1546 1.395 . S
C1544 C1547 1.403 . S
H1545 C1551 0.930 . S
C1546 H1532 0.930 . S
C1546 C1544 1.395 . S
C1546 C1549 1.403 . S
C1547 C1544 1.403 . S
C1547 C1548 1.524 . S
C1547 C1551 1.400 . S
C1548 H1533 0.960 . S
C1548 H1534 0.960 . S
C1548 H1535 0.960 . S
C1548 C1547 1.524 . S
C1549 C1546 1.403 . S
C1549 C1550 1.392 . S
C1549 C1553 1.495 . S
C1550 C1549 1.392 . S
C1550 C1551 1.385 . S
C1550 C1552 1.478 . S
C1551 H1545 0.930 . S
C1551 C1547 1.400 . S
C1551 C1550 1.385 . S
C1552 C1550 1.478 . S
C1552 C1554 1.381 . S
C1552 C1558 1.383 . S
C1553 C1549 1.495 . S
C1553 H1559 0.959 . S
C1553 H1560 0.961 . S
C1553 H1561 0.960 . S
C1554 C1552 1.381 . S
C1554 C1555 1.394 . S
C1554 H1562 0.930 . S
C1555 C1554 1.394 . S
C1555 C1556 1.383 . S
C1555 H1563 0.929 . S
C1556 C1555 1.383 . S
C1556 C1557 1.377 . S
C1557 H1541 0.930 . S
C1557 C1556 1.377 . S
C1557 C1558 1.379 . S
C1558 H1542 0.931 . S
C1558 C1552 1.383 . S
C1558 C1557 1.379 . S
H1559 C1553 0.959 . S
H1560 C1553 0.961 . S
H1561 C1553 0.960 . S
H1562 C1554 0.930 . S
H1563 C1555 0.929 . S
H1564 C1572 0.929 . S
H1565 C1574 0.930 . S
H1566 C1576 0.930 . S
H1567 C1579 0.929 . S
H1568 C1582 0.930 . S
H1569 C1584 0.960 . S
H1570 C1584 0.960 . S
H1571 C1584 0.960 . S
C1572 H1564 0.929 . S
C1572 C1573 1.377 . S
C1572 C1574 1.384 . S
C1573 C1572 1.377 . S
C1573 C1579 1.390 . S
C1574 H1565 0.930 . S
C1574 C1572 1.384 . S
C1574 C1575 1.372 . S
C1575 C1574 1.372 . S
C1575 C1576 1.400 . S
C1575 C1580 1.490 . S
C1576 H1566 0.930 . S
C1576 C1575 1.400 . S
C1576 C1579 1.386 . S
H1577 C1593 0.930 . S
H1578 C1594 0.931 . S
C1579 H1567 0.929 . S
C1579 C1573 1.390 . S
C1579 C1576 1.386 . S
C1580 C1575 1.490 . S
C1580 C1582 1.395 . S
C1580 C1583 1.403 . S
H1581 C1587 0.908 1_556 S
C1582 H1568 0.930 . S
C1582 C1580 1.395 . S
C1582 C1585 1.403 . S
C1583 C1580 1.403 . S
C1583 C1584 1.524 . S
C1583 C1587 1.400 . S
C1584 H1569 0.960 . S
C1584 H1570 0.960 . S
C1584 H1571 0.960 . S
C1584 C1583 1.524 . S
C1585 C1582 1.403 . S
C1585 C1586 1.392 . S
C1585 C1589 1.495 . S
C1586 C1585 1.392 . S
C1586 C1587 1.385 . S
C1586 C1588 1.478 1_554 S
C1587 H1581 0.908 1_554 S
C1587 C1583 1.400 . S
C1587 C1586 1.385 . S
C1588 C1586 1.478 1_556 S
C1588 C1590 1.381 . S
C1588 C1594 1.383 . S
C1589 C1585 1.495 . S
C1589 H1595 0.959 . S
C1589 H1596 0.961 1_554 S
C1589 H1597 0.960 . S
C1590 C1588 1.381 . S
C1590 C1591 1.394 . S
C1590 H1598 0.930 1_556 S
C1591 C1590 1.394 . S
C1591 C1592 1.383 . S
C1591 H1599 0.929 . S
C1592 C1591 1.383 . S
C1592 C1593 1.377 . S
C1593 H1577 0.930 . S
C1593 C1592 1.377 . S
C1593 C1594 1.379 . S
C1594 H1578 0.931 . S
C1594 C1588 1.383 . S
C1594 C1593 1.379 . S
H1595 C1589 0.959 . S
H1596 C1589 0.961 1_556 S
H1597 C1589 0.960 . S
H1598 C1590 0.930 1_554 S
H1599 C1591 0.929 . S
H1600 C1608 0.929 . S
H1601 C1610 0.930 . S
H1602 C1612 0.930 . S
H1603 C1615 0.929 . S
H1604 C1618 0.930 . S
H1605 C1620 0.960 . S
H1606 C1620 0.960 . S
H1607 C1620 0.960 . S
C1608 H1600 0.929 . S
C1608 C1609 1.377 . S
C1608 C1610 1.384 . S
C1609 C1608 1.377 . S
C1609 C1615 1.390 . S
C1610 H1601 0.930 . S
C1610 C1608 1.384 . S
C1610 C1611 1.372 . S
C1611 C1610 1.372 . S
C1611 C1612 1.400 . S
C1611 C1616 1.490 . S
C1612 H1602 0.930 . S
C1612 C1611 1.400 . S
C1612 C1615 1.386 . S
H1613 C1629 0.930 . S
H1614 C1630 0.931 . S
C1615 H1603 0.929 . S
C1615 C1609 1.390 . S
C1615 C1612 1.386 . S
C1616 C1611 1.490 . S
C1616 C1618 1.395 . S
C1616 C1619 1.403 . S
H1617 C1623 0.930 . S
C1618 H1604 0.930 . S
C1618 C1616 1.395 . S
C1618 C1621 1.403 . S
C1619 C1616 1.403 . S
C1619 C1620 1.524 . S
C1619 C1623 1.400 . S
C1620 H1605 0.960 . S
C1620 H1606 0.960 . S
C1620 H1607 0.960 . S
C1620 C1619 1.524 . S
C1621 C1618 1.403 . S
C1621 C1622 1.392 . S
C1621 C1625 1.495 . S
C1622 C1621 1.392 . S
C1622 C1623 1.385 . S
C1622 C1624 1.478 . S
C1623 H1617 0.930 . S
C1623 C1619 1.400 . S
C1623 C1622 1.385 . S
C1624 C1622 1.478 . S
C1624 C1626 1.381 . S
C1624 C1630 1.383 . S
C1625 C1621 1.495 . S
C1625 H1631 0.959 . S
C1625 H1632 0.961 . S
C1625 H1633 0.960 . S
C1626 C1624 1.381 . S
C1626 C1627 1.394 . S
C1626 H1634 0.930 . S
C1627 C1626 1.394 . S
C1627 C1628 1.383 . S
C1627 H1635 0.929 . S
C1628 C1627 1.383 . S
C1628 C1629 1.377 . S
C1629 H1613 0.930 . S
C1629 C1628 1.377 . S
C1629 C1630 1.379 . S
C1630 H1614 0.931 . S
C1630 C1624 1.383 . S
C1630 C1629 1.379 . S
H1631 C1625 0.959 . S
H1632 C1625 0.961 . S
H1633 C1625 0.960 . S
H1634 C1626 0.930 . S
H1635 C1627 0.929 . S
H1636 C1644 0.929 . S
H1637 C1646 0.930 . S
H1638 C1648 0.930 . S
H1639 C1651 0.929 . S
H1640 C1654 0.930 . S
H1641 C1656 0.960 . S
H1642 C1656 0.960 . S
H1643 C1656 0.960 . S
C1644 H1636 0.929 . S
C1644 C1645 1.377 . S
C1644 C1646 1.384 . S
C1645 C1644 1.377 . S
C1645 C1651 1.390 . S
C1646 H1637 0.930 . S
C1646 C1644 1.384 . S
C1646 C1647 1.372 . S
C1647 C1646 1.372 . S
C1647 C1648 1.400 . S
C1647 C1652 1.490 . S
C1648 H1638 0.930 . S
C1648 C1647 1.400 . S
C1648 C1651 1.386 . S
H1649 C1665 0.939 . S
H1650 C1666 0.931 . S
C1651 H1639 0.929 . S
C1651 C1645 1.390 . S
C1651 C1648 1.386 . S
C1652 C1647 1.490 . S
C1652 C1654 1.395 . S
C1652 C1655 1.403 . S
H1653 C1659 0.930 . S
C1654 H1640 0.930 . S
C1654 C1652 1.395 . S
C1654 C1657 1.403 . S
C1655 C1652 1.403 . S
C1655 C1656 1.524 . S
C1655 C1659 1.400 . S
C1656 H1641 0.960 . S
C1656 H1642 0.960 . S
C1656 H1643 0.960 . S
C1656 C1655 1.524 . S
C1657 C1654 1.403 . S
C1657 C1658 1.392 . S
C1657 C1661 1.495 . S
C1658 C1657 1.392 . S
C1658 C1659 1.385 . S
C1658 C1660 1.478 . S
C1659 H1653 0.930 . S
C1659 C1655 1.400 . S
C1659 C1658 1.385 . S
C1660 C1658 1.478 . S
C1660 C1662 1.381 1_554 S
C1660 C1666 1.383 . S
C1661 C1657 1.495 . S
C1661 H1667 0.959 . S
C1661 H1668 0.961 . S
C1661 H1669 0.960 . S
C1662 C1660 1.381 1_556 S
C1662 C1663 1.394 . S
C1662 H1670 0.930 1_556 S
C1663 C1662 1.394 . S
C1663 C1664 1.383 . S
C1663 H1671 0.929 . S
C1664 C1663 1.383 . S
C1664 C1665 1.377 . S
C1665 H1649 0.939 . S
C1665 C1664 1.377 . S
C1665 C1666 1.379 1_556 S
C1666 H1650 0.931 . S
C1666 C1660 1.383 . S
C1666 C1665 1.379 1_554 S
H1667 C1661 0.959 . S
H1668 C1661 0.961 . S
H1669 C1661 0.960 . S
H1670 C1662 0.930 1_554 S
H1671 C1663 0.929 . S
H1672 C1680 0.929 . S
H1673 C1682 0.930 . S
H1674 C1684 0.930 . S
H1675 C1687 0.929 . S
H1676 C1690 0.930 . S
H1677 C1692 0.960 . S
H1678 C1692 0.960 . S
H1679 C1692 0.960 . S
C1680 H1672 0.929 . S
C1680 C1681 1.377 . S
C1680 C1682 1.384 . S
C1681 C1680 1.377 . S
C1681 C1687 1.390 . S
C1682 H1673 0.930 . S
C1682 C1680 1.384 . S
C1682 C1683 1.372 . S
C1683 C1682 1.372 . S
C1683 C1684 1.400 . S
C1683 C1688 1.490 . S
C1684 H1674 0.930 . S
C1684 C1683 1.400 . S
C1684 C1687 1.386 . S
H1685 C1701 0.930 . S
H1686 C1702 0.931 . S
C1687 H1675 0.929 . S
C1687 C1681 1.390 . S
C1687 C1684 1.386 . S
C1688 C1683 1.490 . S
C1688 C1690 1.395 . S
C1688 C1691 1.403 . S
H1689 C1695 0.930 . S
C1690 H1676 0.930 . S
C1690 C1688 1.395 . S
C1690 C1693 1.403 . S
C1691 C1688 1.403 . S
C1691 C1692 1.524 . S
C1691 C1695 1.400 . S
C1692 H1677 0.960 . S
C1692 H1678 0.960 . S
C1692 H1679 0.960 . S
C1692 C1691 1.524 . S
C1693 C1690 1.403 . S
C1693 C1694 1.392 . S
C1693 C1697 1.495 . S
C1694 C1693 1.392 . S
C1694 C1695 1.385 . S
C1694 C1696 1.478 . S
C1695 H1689 0.930 . S
C1695 C1691 1.400 . S
C1695 C1694 1.385 . S
C1696 C1694 1.478 . S
C1696 C1698 1.381 . S
C1696 C1702 1.383 . S
C1697 C1693 1.495 . S
C1697 H1703 0.959 . S
C1697 H1704 0.961 . S
C1697 H1705 0.960 . S
C1698 C1696 1.381 . S
C1698 C1699 1.394 . S
C1698 H1706 0.930 . S
C1699 C1698 1.394 . S
C1699 C1700 1.383 . S
C1699 H1707 0.929 . S
C1700 C1699 1.383 . S
C1700 C1701 1.377 . S
C1701 H1685 0.930 . S
C1701 C1700 1.377 . S
C1701 C1702 1.379 . S
C1702 H1686 0.931 . S
C1702 C1696 1.383 . S
C1702 C1701 1.379 . S
H1703 C1697 0.959 . S
H1704 C1697 0.961 . S
H1705 C1697 0.960 . S
H1706 C1698 0.930 . S
H1707 C1699 0.929 . S
H1708 C1716 0.929 . S
H1709 C1718 0.930 . S
H1710 C1720 0.930 . S
H1711 C1723 0.929 . S
H1712 C1726 0.930 . S
H1713 C1728 0.960 . S
H1714 C1728 0.960 . S
H1715 C1728 0.960 . S
C1716 H1708 0.929 . S
C1716 C1717 1.377 . S
C1716 C1718 1.384 . S
C1717 C1716 1.377 . S
C1717 C1723 1.390 . S
C1718 H1709 0.930 . S
C1718 C1716 1.384 . S
C1718 C1719 1.372 . S
C1719 C1718 1.372 . S
C1719 C1720 1.400 . S
C1719 C1724 1.490 . S
C1720 H1710 0.930 . S
C1720 C1719 1.400 . S
C1720 C1723 1.386 . S
H1721 C1737 0.930 . S
H1722 C1738 0.931 . S
C1723 H1711 0.929 . S
C1723 C1717 1.390 . S
C1723 C1720 1.386 . S
C1724 C1719 1.490 . S
C1724 C1726 1.395 . S
C1724 C1727 1.403 1_556 S
H1725 C1731 0.930 . S
C1726 H1712 0.930 . S
C1726 C1724 1.395 . S
C1726 C1729 1.403 1_556 S
C1727 C1724 1.403 1_554 S
C1727 C1728 1.524 . S
C1727 C1731 1.400 . S
C1728 H1713 0.960 . S
C1728 H1714 0.960 . S
C1728 H1715 0.960 . S
C1728 C1727 1.524 . S
C1729 C1726 1.403 1_554 S
C1729 C1730 1.392 . S
C1729 C1733 1.495 1_554 S
C1730 C1729 1.392 . S
C1730 C1731 1.385 . S
C1730 C1732 1.478 . S
C1731 H1725 0.930 . S
C1731 C1727 1.400 . S
C1731 C1730 1.385 . S
C1732 C1730 1.478 . S
C1732 C1734 1.381 . S
C1732 C1738 1.383 . S
C1733 C1729 1.495 1_556 S
C1733 H1739 1.010 . S
C1733 H1740 0.952 . S
C1733 H1741 0.923 1_556 S
C1734 C1732 1.381 . S
C1734 C1735 1.394 . S
C1734 H1742 0.930 . S
C1735 C1734 1.394 . S
C1735 C1736 1.383 . S
C1735 H1743 0.929 . S
C1736 C1735 1.383 . S
C1736 C1737 1.377 . S
C1737 H1721 0.930 . S
C1737 C1736 1.377 . S
C1737 C1738 1.379 . S
C1738 H1722 0.931 . S
C1738 C1732 1.383 . S
C1738 C1737 1.379 . S
H1739 C1733 1.010 . S
H1740 C1733 0.952 . S
H1741 C1733 0.923 1_554 S
H1742 C1734 0.930 . S
H1743 C1735 0.929 . S
H1744 C1752 0.929 . S
H1745 C1754 0.930 . S
H1746 C1756 0.930 . S
H1747 C1759 0.929 . S
H1748 C1762 0.930 . S
H1749 C1764 0.960 . S
H1750 C1764 0.960 . S
H1751 C1764 0.960 . S
C1752 H1744 0.929 . S
C1752 C1753 1.377 . S
C1752 C1754 1.384 . S
C1753 C1752 1.377 . S
C1753 C1759 1.390 . S
C1754 H1745 0.930 . S
C1754 C1752 1.384 . S
C1754 C1755 1.372 . S
C1755 C1754 1.372 . S
C1755 C1756 1.400 . S
C1755 C1760 1.490 . S
C1756 H1746 0.930 . S
C1756 C1755 1.400 . S
C1756 C1759 1.386 . S
H1757 C1773 0.930 . S
H1758 C1774 0.931 . S
C1759 H1747 0.929 . S
C1759 C1753 1.390 . S
C1759 C1756 1.386 . S
C1760 C1755 1.490 . S
C1760 C1762 1.395 . S
C1760 C1763 1.403 . S
H1761 C1767 0.930 . S
C1762 H1748 0.930 . S
C1762 C1760 1.395 . S
C1762 C1765 1.403 . S
C1763 C1760 1.403 . S
C1763 C1764 1.524 . S
C1763 C1767 1.400 . S
C1764 H1749 0.960 . S
C1764 H1750 0.960 . S
C1764 H1751 0.960 . S
C1764 C1763 1.524 . S
C1765 C1762 1.403 . S
C1765 C1766 1.392 . S
C1765 C1769 1.495 . S
C1766 C1765 1.392 . S
C1766 C1767 1.385 . S
C1766 C1768 1.478 . S
C1767 H1761 0.930 . S
C1767 C1763 1.400 . S
C1767 C1766 1.385 . S
C1768 C1766 1.478 . S
C1768 C1770 1.381 . S
C1768 C1774 1.383 . S
C1769 C1765 1.495 . S
C1769 H1775 0.959 . S
C1769 H1776 0.961 . S
C1769 H1777 0.960 . S
C1770 C1768 1.381 . S
C1770 C1771 1.394 . S
C1770 H1778 0.930 . S
C1771 C1770 1.394 . S
C1771 C1772 1.383 . S
C1771 H1779 0.929 . S
C1772 C1771 1.383 . S
C1772 C1773 1.377 . S
C1773 H1757 0.930 . S
C1773 C1772 1.377 . S
C1773 C1774 1.379 . S
C1774 H1758 0.931 . S
C1774 C1768 1.383 . S
C1774 C1773 1.379 . S
H1775 C1769 0.959 . S
H1776 C1769 0.961 . S
H1777 C1769 0.960 . S
H1778 C1770 0.930 . S
H1779 C1771 0.929 . S
H1780 C1788 0.929 . S
H1781 C1790 0.930 . S
H1782 C1792 0.930 1_554 S
H1783 C1795 0.929 . S
H1784 C1798 0.930 . S
H1785 C1800 0.960 . S
H1786 C1800 0.954 1_556 S
H1787 C1800 0.960 . S
C1788 H1780 0.929 . S
C1788 C1789 1.377 . S
C1788 C1790 1.384 . S
C1789 C1788 1.377 . S
C1789 C1795 1.390 . S
C1790 H1781 0.930 . S
C1790 C1788 1.384 . S
C1790 C1791 1.372 . S
C1791 C1790 1.372 . S
C1791 C1792 1.400 . S
C1791 C1796 1.490 1_556 S
C1792 H1782 0.930 1_556 S
C1792 C1791 1.400 . S
C1792 C1795 1.386 . S
H1793 C1809 0.930 . S
H1794 C1810 0.931 . S
C1795 H1783 0.929 . S
C1795 C1789 1.390 . S
C1795 C1792 1.386 . S
C1796 C1791 1.490 1_554 S
C1796 C1798 1.395 . S
C1796 C1799 1.403 . S
H1797 C1803 0.930 . S
C1798 H1784 0.930 . S
C1798 C1796 1.395 . S
C1798 C1801 1.403 . S
C1799 C1796 1.403 . S
C1799 C1800 1.524 . S
C1799 C1803 1.400 . S
C1800 H1785 0.960 . S
C1800 H1786 0.954 1_554 S
C1800 H1787 0.960 . S
C1800 C1799 1.524 . S
C1801 C1798 1.403 . S
C1801 C1802 1.392 . S
C1801 C1805 1.495 . S
C1802 C1801 1.392 . S
C1802 C1803 1.385 . S
C1802 C1804 1.478 . S
C1803 H1797 0.930 . S
C1803 C1799 1.400 . S
C1803 C1802 1.385 . S
C1804 C1802 1.478 . S
C1804 C1806 1.381 . S
C1804 C1810 1.383 . S
C1805 C1801 1.495 . S
C1805 H1811 0.959 . S
C1805 H1812 0.961 . S
C1805 H1813 0.960 . S
C1806 C1804 1.381 . S
C1806 C1807 1.394 . S
C1806 H1814 0.930 . S
C1807 C1806 1.394 . S
C1807 C1808 1.383 . S
C1807 H1815 0.929 . S
C1808 C1807 1.383 . S
C1808 C1809 1.377 . S
C1809 H1793 0.930 . S
C1809 C1808 1.377 . S
C1809 C1810 1.379 . S
C1810 H1794 0.931 . S
C1810 C1804 1.383 . S
C1810 C1809 1.379 . S
H1811 C1805 0.959 . S
H1812 C1805 0.961 . S
H1813 C1805 0.960 . S
H1814 C1806 0.930 . S
H1815 C1807 0.929 . S
H1816 C1824 0.929 . S
H1817 C1826 0.930 . S
H1818 C1828 0.930 . S
H1819 C1831 0.929 . S
H1820 C1834 0.930 . S
H1821 C1836 0.960 . S
H1822 C1836 0.960 . S
H1823 C1836 0.960 . S
C1824 H1816 0.929 . S
C1824 C1825 1.377 . S
C1824 C1826 1.384 . S
C1825 C1824 1.377 . S
C1825 C1831 1.390 . S
C1826 H1817 0.930 . S
C1826 C1824 1.384 . S
C1826 C1827 1.372 . S
C1827 C1826 1.372 . S
C1827 C1828 1.400 . S
C1827 C1832 1.490 . S
C1828 H1818 0.930 . S
C1828 C1827 1.400 . S
C1828 C1831 1.386 . S
H1829 C1845 0.930 . S
H1830 C1846 0.931 . S
C1831 H1819 0.929 . S
C1831 C1825 1.390 . S
C1831 C1828 1.386 . S
C1832 C1827 1.490 . S
C1832 C1834 1.395 . S
C1832 C1835 1.403 . S
H1833 C1839 0.930 . S
C1834 H1820 0.930 . S
C1834 C1832 1.395 . S
C1834 C1837 1.403 . S
C1835 C1832 1.403 . S
C1835 C1836 1.524 . S
C1835 C1839 1.400 . S
C1836 H1821 0.960 . S
C1836 H1822 0.960 . S
C1836 H1823 0.960 . S
C1836 C1835 1.524 . S
C1837 C1834 1.403 . S
C1837 C1838 1.392 . S
C1837 C1841 1.495 . S
C1838 C1837 1.392 . S
C1838 C1839 1.385 . S
C1838 C1840 1.478 . S
C1839 H1833 0.930 . S
C1839 C1835 1.400 . S
C1839 C1838 1.385 . S
C1840 C1838 1.478 . S
C1840 C1842 1.381 . S
C1840 C1846 1.383 . S
C1841 C1837 1.495 . S
C1841 H1847 0.959 . S
C1841 H1848 0.961 . S
C1841 H1849 0.960 . S
C1842 C1840 1.381 . S
C1842 C1843 1.394 . S
C1842 H1850 0.930 . S
C1843 C1842 1.394 . S
C1843 C1844 1.383 . S
C1843 H1851 0.929 . S
C1844 C1843 1.383 . S
C1844 C1845 1.377 . S
C1845 H1829 0.930 . S
C1845 C1844 1.377 . S
C1845 C1846 1.379 . S
C1846 H1830 0.931 . S
C1846 C1840 1.383 . S
C1846 C1845 1.379 . S
H1847 C1841 0.959 . S
H1848 C1841 0.961 . S
H1849 C1841 0.960 . S
H1850 C1842 0.930 . S
H1851 C1843 0.929 . S
H1852 C1860 0.929 . S
H1853 C1862 0.930 . S
H1854 C1864 0.930 . S
H1855 C1867 0.929 . S
H1856 C1870 0.930 . S
H1857 C1872 0.960 . S
H1858 C1872 0.960 . S
H1859 C1872 0.960 . S
C1860 H1852 0.929 . S
C1860 C1861 1.377 . S
C1860 C1862 1.384 . S
C1861 C1860 1.377 . S
C1861 C1867 1.390 . S
C1862 H1853 0.930 . S
C1862 C1860 1.384 . S
C1862 C1863 1.372 . S
C1863 C1862 1.372 . S
C1863 C1864 1.400 . S
C1863 C1868 1.490 . S
C1864 H1854 0.930 . S
C1864 C1863 1.400 . S
C1864 C1867 1.386 . S
H1865 C1881 0.930 . S
H1866 C1882 0.931 . S
C1867 H1855 0.929 . S
C1867 C1861 1.390 . S
C1867 C1864 1.386 . S
C1868 C1863 1.490 . S
C1868 C1870 1.395 . S
C1868 C1871 1.403 . S
H1869 C1875 0.930 . S
C1870 H1856 0.930 . S
C1870 C1868 1.395 . S
C1870 C1873 1.403 . S
C1871 C1868 1.403 . S
C1871 C1872 1.524 . S
C1871 C1875 1.400 . S
C1872 H1857 0.960 . S
C1872 H1858 0.960 . S
C1872 H1859 0.960 . S
C1872 C1871 1.524 . S
C1873 C1870 1.403 . S
C1873 C1874 1.392 . S
C1873 C1877 1.495 . S
C1874 C1873 1.392 . S
C1874 C1875 1.385 . S
C1874 C1876 1.478 . S
C1875 H1869 0.930 . S
C1875 C1871 1.400 . S
C1875 C1874 1.385 . S
C1876 C1874 1.478 . S
C1876 C1878 1.381 . S
C1876 C1882 1.383 . S
C1877 C1873 1.495 . S
C1877 H1883 0.959 . S
C1877 H1884 0.961 . S
C1877 H1885 0.960 . S
C1878 C1876 1.381 . S
C1878 C1879 1.394 . S
C1878 H1886 0.930 . S
C1879 C1878 1.394 . S
C1879 C1880 1.383 . S
C1879 H1887 0.929 . S
C1880 C1879 1.383 . S
C1880 C1881 1.377 . S
C1881 H1865 0.930 . S
C1881 C1880 1.377 . S
C1881 C1882 1.379 . S
C1882 H1866 0.931 . S
C1882 C1876 1.383 . S
C1882 C1881 1.379 . S
H1883 C1877 0.959 . S
H1884 C1877 0.961 . S
H1885 C1877 0.960 . S
H1886 C1878 0.930 . S
H1887 C1879 0.929 . S
H1888 C1896 0.929 . S
H1889 C1898 0.930 . S
H1890 C1900 0.930 . S
H1891 C1903 0.929 . S
H1892 C1906 0.930 . S
H1893 C1908 0.960 . S
H1894 C1908 0.960 . S
H1895 C1908 0.960 . S
C1896 H1888 0.929 . S
C1896 C1897 1.377 . S
C1896 C1898 1.384 . S
C1897 C1896 1.377 . S
C1897 C1903 1.390 . S
C1898 H1889 0.930 . S
C1898 C1896 1.384 . S
C1898 C1899 1.372 . S
C1899 C1898 1.372 . S
C1899 C1900 1.400 . S
C1899 C1904 1.490 . S
C1900 H1890 0.930 . S
C1900 C1899 1.400 . S
C1900 C1903 1.386 . S
H1901 C1917 0.930 . S
H1902 C1918 0.931 . S
C1903 H1891 0.929 . S
C1903 C1897 1.390 . S
C1903 C1900 1.386 . S
C1904 C1899 1.490 . S
C1904 C1906 1.395 . S
C1904 C1907 1.403 . S
H1905 C1911 0.930 . S
C1906 H1892 0.930 . S
C1906 C1904 1.395 . S
C1906 C1909 1.403 . S
C1907 C1904 1.403 . S
C1907 C1908 1.524 . S
C1907 C1911 1.400 . S
C1908 H1893 0.960 . S
C1908 H1894 0.960 . S
C1908 H1895 0.960 . S
C1908 C1907 1.524 . S
C1909 C1906 1.403 . S
C1909 C1910 1.392 . S
C1909 C1913 1.495 . S
C1910 C1909 1.392 . S
C1910 C1911 1.385 . S
C1910 C1912 1.478 . S
C1911 H1905 0.930 . S
C1911 C1907 1.400 . S
C1911 C1910 1.385 . S
C1912 C1910 1.478 . S
C1912 C1914 1.381 . S
C1912 C1918 1.383 . S
C1913 C1909 1.495 . S
C1913 H1919 0.959 . S
C1913 H1920 0.961 . S
C1913 H1921 0.960 . S
C1914 C1912 1.381 . S
C1914 C1915 1.394 . S
C1914 H1922 0.930 . S
C1915 C1914 1.394 . S
C1915 C1916 1.383 . S
C1915 H1923 0.929 . S
C1916 C1915 1.383 . S
C1916 C1917 1.377 . S
C1917 H1901 0.930 . S
C1917 C1916 1.377 . S
C1917 C1918 1.379 . S
C1918 H1902 0.931 . S
C1918 C1912 1.383 . S
C1918 C1917 1.379 . S
H1919 C1913 0.959 . S
H1920 C1913 0.961 . S
H1921 C1913 0.960 . S
H1922 C1914 0.930 . S
H1923 C1915 0.929 . S
H1924 C1932 0.929 . S
H1925 C1934 0.930 . S
H1926 C1936 0.930 . S
H1927 C1939 0.929 . S
H1928 C1942 0.930 . S
H1929 C1944 0.960 . S
H1930 C1944 0.960 . S
H1931 C1944 0.960 . S
C1932 H1924 0.929 . S
C1932 C1933 1.377 . S
C1932 C1934 1.384 . S
C1933 C1932 1.377 . S
C1933 C1939 1.390 . S
C1934 H1925 0.930 . S
C1934 C1932 1.384 . S
C1934 C1935 1.372 . S
C1935 C1934 1.372 . S
C1935 C1936 1.400 . S
C1935 C1940 1.490 . S
C1936 H1926 0.930 . S
C1936 C1935 1.400 . S
C1936 C1939 1.386 . S
H1937 C1953 0.930 . S
H1938 C1954 0.931 . S
C1939 H1927 0.929 . S
C1939 C1933 1.390 . S
C1939 C1936 1.386 . S
C1940 C1935 1.490 . S
C1940 C1942 1.395 . S
C1940 C1943 1.403 . S
H1941 C1947 0.930 . S
C1942 H1928 0.930 . S
C1942 C1940 1.395 . S
C1942 C1945 1.403 . S
C1943 C1940 1.403 . S
C1943 C1944 1.524 . S
C1943 C1947 1.400 . S
C1944 H1929 0.960 . S
C1944 H1930 0.960 . S
C1944 H1931 0.960 . S
C1944 C1943 1.524 . S
C1945 C1942 1.403 . S
C1945 C1946 1.392 . S
C1945 C1949 1.495 . S
C1946 C1945 1.392 . S
C1946 C1947 1.385 . S
C1946 C1948 1.478 . S
C1947 H1941 0.930 . S
C1947 C1943 1.400 . S
C1947 C1946 1.385 . S
C1948 C1946 1.478 . S
C1948 C1950 1.381 . S
C1948 C1954 1.383 . S
C1949 C1945 1.495 . S
C1949 H1955 0.959 . S
C1949 H1956 0.961 . S
C1949 H1957 0.960 . S
C1950 C1948 1.381 . S
C1950 C1951 1.394 . S
C1950 H1958 0.930 . S
C1951 C1950 1.394 . S
C1951 C1952 1.383 . S
C1951 H1959 0.929 . S
C1952 C1951 1.383 . S
C1952 C1953 1.377 . S
C1953 H1937 0.930 . S
C1953 C1952 1.377 . S
C1953 C1954 1.379 . S
C1954 H1938 0.931 . S
C1954 C1948 1.383 . S
C1954 C1953 1.379 . S
H1955 C1949 0.959 . S
H1956 C1949 0.961 . S
H1957 C1949 0.960 . S
H1958 C1950 0.930 . S
H1959 C1951 0.929 . S
H1960 C1968 0.929 . S
H1961 C1970 0.930 . S
H1962 C1972 0.930 . S
H1963 C1975 0.929 . S
H1964 C1978 0.930 . S
H1965 C1980 0.960 . S
H1966 C1980 0.960 . S
H1967 C1980 0.960 . S
C1968 H1960 0.929 . S
C1968 C1969 1.377 . S
C1968 C1970 1.384 . S
C1969 C1968 1.377 . S
C1969 C1975 1.390 . S
C1970 H1961 0.930 . S
C1970 C1968 1.384 . S
C1970 C1971 1.372 . S
C1971 C1970 1.372 . S
C1971 C1972 1.400 . S
C1971 C1976 1.490 . S
C1972 H1962 0.930 . S
C1972 C1971 1.400 . S
C1972 C1975 1.386 . S
H1973 C1989 0.930 . S
H1974 C1990 0.931 . S
C1975 H1963 0.929 . S
C1975 C1969 1.390 . S
C1975 C1972 1.386 . S
C1976 C1971 1.490 . S
C1976 C1978 1.395 . S
C1976 C1979 1.403 . S
H1977 C1983 0.930 . S
C1978 H1964 0.930 . S
C1978 C1976 1.395 . S
C1978 C1981 1.403 . S
C1979 C1976 1.403 . S
C1979 C1980 1.524 . S
C1979 C1983 1.400 . S
C1980 H1965 0.960 . S
C1980 H1966 0.960 . S
C1980 H1967 0.960 . S
C1980 C1979 1.524 . S
C1981 C1978 1.403 . S
C1981 C1982 1.392 . S
C1981 C1985 1.495 . S
C1982 C1981 1.392 . S
C1982 C1983 1.385 . S
C1982 C1984 1.478 . S
C1983 H1977 0.930 . S
C1983 C1979 1.400 . S
C1983 C1982 1.385 . S
C1984 C1982 1.478 . S
C1984 C1986 1.381 . S
C1984 C1990 1.383 . S
C1985 C1981 1.495 . S
C1985 H1991 0.959 1_556 S
C1985 H1992 0.961 . S
C1985 H1993 0.960 1_556 S
C1986 C1984 1.381 . S
C1986 C1987 1.394 . S
C1986 H1994 0.930 . S
C1987 C1986 1.394 . S
C1987 C1988 1.383 . S
C1987 H1995 0.929 . S
C1988 C1987 1.383 . S
C1988 C1989 1.377 . S
C1989 H1973 0.930 . S
C1989 C1988 1.377 . S
C1989 C1990 1.379 . S
C1990 H1974 0.931 . S
C1990 C1984 1.383 . S
C1990 C1989 1.379 . S
H1991 C1985 0.959 1_554 S
H1992 C1985 0.961 . S
H1993 C1985 0.960 1_554 S
H1994 C1986 0.930 . S
H1995 C1987 0.929 . S
H1996 C2004 0.929 . S
H1997 C2006 0.930 . S
H1998 C2008 0.930 . S
H1999 C2011 0.929 . S
H2000 C2014 0.930 . S
H2001 C2016 0.960 . S
H2002 C2016 0.960 . S
H2003 C2016 0.960 . S
C2004 H1996 0.929 . S
C2004 C2005 1.377 . S
C2004 C2006 1.384 . S
C2005 C2004 1.377 . S
C2005 C2011 1.390 . S
C2006 H1997 0.930 . S
C2006 C2004 1.384 . S
C2006 C2007 1.372 . S
C2007 C2006 1.372 . S
C2007 C2008 1.400 . S
C2007 C2012 1.490 . S
C2008 H1998 0.930 . S
C2008 C2007 1.400 . S
C2008 C2011 1.386 . S
H2009 C2025 0.930 . S
H2010 C2026 0.931 . S
C2011 H1999 0.929 . S
C2011 C2005 1.390 . S
C2011 C2008 1.386 . S
C2012 C2007 1.490 . S
C2012 C2014 1.395 . S
C2012 C2015 1.403 . S
H2013 C2019 0.930 . S
C2014 H2000 0.930 . S
C2014 C2012 1.395 . S
C2014 C2017 1.403 . S
C2015 C2012 1.403 . S
C2015 C2016 1.524 . S
C2015 C2019 1.400 . S
C2016 H2001 0.960 . S
C2016 H2002 0.960 . S
C2016 H2003 0.960 . S
C2016 C2015 1.524 . S
C2017 C2014 1.403 . S
C2017 C2018 1.392 . S
C2017 C2021 1.495 . S
C2018 C2017 1.392 . S
C2018 C2019 1.385 . S
C2018 C2020 1.478 . S
C2019 H2013 0.930 . S
C2019 C2015 1.400 . S
C2019 C2018 1.385 . S
C2020 C2018 1.478 . S
C2020 C2022 1.381 . S
C2020 C2026 1.383 . S
C2021 C2017 1.495 . S
C2021 H2027 0.959 . S
C2021 H2028 0.961 . S
C2021 H2029 0.960 . S
C2022 C2020 1.381 . S
C2022 C2023 1.394 . S
C2022 H2030 0.930 . S
C2023 C2022 1.394 . S
C2023 C2024 1.383 . S
C2023 H2031 0.929 . S
C2024 C2023 1.383 . S
C2024 C2025 1.377 . S
C2025 H2009 0.930 . S
C2025 C2024 1.377 . S
C2025 C2026 1.379 . S
C2026 H2010 0.931 . S
C2026 C2020 1.383 . S
C2026 C2025 1.379 . S
H2027 C2021 0.959 . S
H2028 C2021 0.961 . S
H2029 C2021 0.960 . S
H2030 C2022 0.930 . S
H2031 C2023 0.929 . S
H2032 C2040 0.929 . S
H2033 C2042 0.930 . S
H2034 C2044 0.930 . S
H2035 C2047 0.929 . S
H2036 C2050 0.930 . S
H2037 C2052 0.960 . S
H2038 C2052 0.960 . S
H2039 C2052 0.960 . S
C2040 H2032 0.929 . S
C2040 C2041 1.377 . S
C2040 C2042 1.384 . S
C2041 C2040 1.377 . S
C2041 C2047 1.390 . S
C2042 H2033 0.930 . S
C2042 C2040 1.384 . S
C2042 C2043 1.372 . S
C2043 C2042 1.372 . S
C2043 C2044 1.400 . S
C2043 C2048 1.490 . S
C2044 H2034 0.930 . S
C2044 C2043 1.400 . S
C2044 C2047 1.386 . S
H2045 C2061 0.930 . S
H2046 C2062 0.931 . S
C2047 H2035 0.929 . S
C2047 C2041 1.390 . S
C2047 C2044 1.386 . S
C2048 C2043 1.490 . S
C2048 C2050 1.395 . S
C2048 C2051 1.403 . S
H2049 C2055 0.930 . S
C2050 H2036 0.930 . S
C2050 C2048 1.395 . S
C2050 C2053 1.403 . S
C2051 C2048 1.403 . S
C2051 C2052 1.524 . S
C2051 C2055 1.400 . S
C2052 H2037 0.960 . S
C2052 H2038 0.960 . S
C2052 H2039 0.960 . S
C2052 C2051 1.524 . S
C2053 C2050 1.403 . S
C2053 C2054 1.392 . S
C2053 C2057 1.495 . S
C2054 C2053 1.392 . S
C2054 C2055 1.385 . S
C2054 C2056 1.478 . S
C2055 H2049 0.930 . S
C2055 C2051 1.400 . S
C2055 C2054 1.385 . S
C2056 C2054 1.478 . S
C2056 C2058 1.381 . S
C2056 C2062 1.383 . S
C2057 C2053 1.495 . S
C2057 H2063 0.959 . S
C2057 H2064 0.961 . S
C2057 H2065 0.960 . S
C2058 C2056 1.381 . S
C2058 C2059 1.394 . S
C2058 H2066 0.930 . S
C2059 C2058 1.394 . S
C2059 C2060 1.383 . S
C2059 H2067 0.929 . S
C2060 C2059 1.383 . S
C2060 C2061 1.377 . S
C2061 H2045 0.930 . S
C2061 C2060 1.377 . S
C2061 C2062 1.379 . S
C2062 H2046 0.931 . S
C2062 C2056 1.383 . S
C2062 C2061 1.379 . S
H2063 C2057 0.959 . S
H2064 C2057 0.961 . S
H2065 C2057 0.960 . S
H2066 C2058 0.930 . S
H2067 C2059 0.929 . S
H2068 C2076 0.929 . S
H2069 C2078 0.930 . S
H2070 C2080 0.930 . S
H2071 C2083 0.929 . S
H2072 C2086 0.930 . S
H2073 C2088 0.960 . S
H2074 C2088 0.960 . S
H2075 C2088 0.960 . S
C2076 H2068 0.929 . S
C2076 C2077 1.377 . S
C2076 C2078 1.384 . S
C2077 C2076 1.377 . S
C2077 C2083 1.390 . S
C2078 H2069 0.930 . S
C2078 C2076 1.384 . S
C2078 C2079 1.372 . S
C2079 C2078 1.372 . S
C2079 C2080 1.400 . S
C2079 C2084 1.490 . S
C2080 H2070 0.930 . S
C2080 C2079 1.400 . S
C2080 C2083 1.386 . S
H2081 C2097 0.930 . S
H2082 C2098 0.931 . S
C2083 H2071 0.929 . S
C2083 C2077 1.390 . S
C2083 C2080 1.386 . S
C2084 C2079 1.490 . S
C2084 C2086 1.395 . S
C2084 C2087 1.403 . S
H2085 C2091 0.930 . S
C2086 H2072 0.930 . S
C2086 C2084 1.395 . S
C2086 C2089 1.403 . S
C2087 C2084 1.403 . S
C2087 C2088 1.524 . S
C2087 C2091 1.400 . S
C2088 H2073 0.960 . S
C2088 H2074 0.960 . S
C2088 H2075 0.960 . S
C2088 C2087 1.524 . S
C2089 C2086 1.403 . S
C2089 C2090 1.392 . S
C2089 C2093 1.495 . S
C2090 C2089 1.392 . S
C2090 C2091 1.385 . S
C2090 C2092 1.478 . S
C2091 H2085 0.930 . S
C2091 C2087 1.400 . S
C2091 C2090 1.385 . S
C2092 C2090 1.478 . S
C2092 C2094 1.381 1_545 S
C2092 C2098 1.383 . S
C2093 C2089 1.495 . S
C2093 H2099 0.959 . S
C2093 H2100 0.961 . S
C2093 H2101 0.990 . S
C2094 C2092 1.381 1_565 S
C2094 C2095 1.394 . S
C2094 H2102 0.930 . S
C2095 C2094 1.394 . S
C2095 C2096 1.383 . S
C2095 H2103 0.929 . S
C2096 C2095 1.383 . S
C2096 C2097 1.377 1_565 S
C2097 H2081 0.930 . S
C2097 C2096 1.377 1_545 S
C2097 C2098 1.379 . S
C2098 H2082 0.931 . S
C2098 C2092 1.383 . S
C2098 C2097 1.379 . S
H2099 C2093 0.959 . S
H2100 C2093 0.961 . S
H2101 C2093 0.990 . S
H2102 C2094 0.930 . S
H2103 C2095 0.929 . S
C404 C216 1.418 . S
C385 N66 1.409 . S
C440 C231 1.782 . S
C421 N79 1.777 . S
C457 N92 1.968 . S
C476 C244 1.988 . S
C512 C258 1.327 . S
C493 N54 1.375 . S
C548 C270 1.709 . S
C529 N131 1.796 . S
C584 C284 0.913 . S
C565 N158 0.885 . S
C601 N145 1.802 . S
C620 C298 1.770 . S
C656 C313 1.662 . S
C637 N118 1.678 . S
C673 N148 2.062 . S
C692 C329 2.033 . S
C728 C342 1.460 . S
C709 N122 1.439 . S
C745 N132 1.469 . S
C764 C327 1.423 . S
C800 C340 1.444 . S
C781 N161 1.431 . S
C817 N96 2.337 . S
C836 C356 2.346 . S
C853 N53 1.717 . S
C872 C355 1.682 . S
C889 N67 1.247 . S
C908 C354 1.219 . S
C925 N83 1.232 . S
C944 C357 1.231 1_655 S
C961 N44 1.646 . S
C980 C259 1.665 . S
C997 N187 1.435 . S
C1016 C257 1.434 . S
C1052 C217 1.193 . S
C1033 N197 1.175 . S
C1088 C228 1.494 . S
C1069 N106 1.511 . S
C1105 N57 1.934 . S
C1124 C273 1.965 . S
C1160 C314 1.891 . S
C1141 N144 1.878 . S
C1196 C271 1.341 . S
C1177 N119 1.342 . S
C1232 C299 1.670 . S
C1213 N157 1.701 . S
C1268 C300 1.414 . S
C1249 N183 1.414 . S
C1285 N196 1.768 . S
C1304 C315 1.741 . S
C1321 N105 1.974 . S
C1340 C272 1.990 . S
C1376 C286 1.340 . S
C1357 N171 1.382 . S
C1393 N40 1.797 . S
C1412 C242 1.690 . S
C1448 C256 0.912 . S
C1429 N2 0.884 . S
C1484 C214 1.769 . S
C1465 N15 1.804 . S
C1520 C229 1.671 . S
C1501 N27 1.678 . S
C1537 N18 2.064 . S
C1556 C343 2.026 . S
C1573 N31 1.444 . S
C1592 C328 1.448 . S
C1609 N41 1.469 . S
C1628 C341 1.411 . S
C1645 N5 1.429 . S
C1664 C326 1.467 . S
C1700 C370 2.344 . S
C1681 N109 2.336 . S
C1736 C369 1.679 . S
C1717 N170 1.717 . S
C1772 C368 1.193 . S
C1753 N184 1.247 . S
C1789 N200 1.233 . S
C1808 C371 1.235 . S
C1825 N135 1.645 . S
C1844 C287 1.667 . S
C1880 C285 1.443 . S
C1861 N70 1.439 . S
C1916 C301 1.162 . S
C1897 N80 1.167 . S
C1952 C312 1.487 . S
C1933 N93 1.511 . S
C1969 N174 1.929 . S
C1988 C245 1.950 . S
C2024 C230 1.891 . S
C2005 N14 1.879 . S
C2041 N28 1.347 . S
C2060 C243 1.361 . S
C2096 C215 1.671 . S
C2077 N1 1.702 . S
