# Generated by pormake.
# Topology zzz, (3,6)-cn, num edge types: 1
# Building blocks:
#     Node 0, Type 0, BuildingBlock: QEWDON_clean_linker_0, # of connection points: 3
#     Node 1, Type 0, BuildingBlock: QEWDON_clean_linker_0, # of connection points: 3
#     Node 2, Type 0, BuildingBlock: QEWDON_clean_linker_0, # of connection points: 3
#     Node 3, Type 0, BuildingBlock: QEWDON_clean_linker_0, # of connection points: 3
#     Node 4, Type 0, BuildingBlock: QEWDON_clean_linker_0, # of connection points: 3
#     Node 5, Type 0, BuildingBlock: QEWDON_clean_linker_0, # of connection points: 3
#     Node 6, Type 0, BuildingBlock: QEWDON_clean_linker_0, # of connection points: 3
#     Node 7, Type 0, BuildingBlock: QEWDON_clean_linker_0, # of connection points: 3
#     Node 8, Type 1, BuildingBlock: MIFKUJ_clean_sbu_0, # of connection points: 6
#     Node 9, Type 1, BuildingBlock: MIFKUJ_clean_sbu_0, # of connection points: 6
#     Node 10, Type 1, BuildingBlock: MIFKUJ_clean_sbu_0, # of connection points: 6
#     Node 11, Type 1, BuildingBlock: MIFKUJ_clean_sbu_0, # of connection points: 6
#     Edge 12, Type (0, 1), BuildingBlock: TEMPAE_clean_linker_10, # of connection points: 2
#     Edge 13, Type (0, 1), BuildingBlock: TEMPAE_clean_linker_10, # of connection points: 2
#     Edge 14, Type (0, 1), BuildingBlock: TEMPAE_clean_linker_10, # of connection points: 2
#     Edge 15, Type (0, 1), BuildingBlock: TEMPAE_clean_linker_10, # of connection points: 2
#     Edge 16, Type (0, 1), BuildingBlock: TEMPAE_clean_linker_10, # of connection points: 2
#     Edge 17, Type (0, 1), BuildingBlock: TEMPAE_clean_linker_10, # of connection points: 2
#     Edge 18, Type (0, 1), BuildingBlock: TEMPAE_clean_linker_10, # of connection points: 2
#     Edge 19, Type (0, 1), BuildingBlock: TEMPAE_clean_linker_10, # of connection points: 2
#     Edge 20, Type (0, 1), BuildingBlock: TEMPAE_clean_linker_10, # of connection points: 2
#     Edge 21, Type (0, 1), BuildingBlock: TEMPAE_clean_linker_10, # of connection points: 2
#     Edge 22, Type (0, 1), BuildingBlock: TEMPAE_clean_linker_10, # of connection points: 2
#     Edge 23, Type (0, 1), BuildingBlock: TEMPAE_clean_linker_10, # of connection points: 2
#     Edge 24, Type (0, 1), BuildingBlock: TEMPAE_clean_linker_10, # of connection points: 2
#     Edge 25, Type (0, 1), BuildingBlock: TEMPAE_clean_linker_10, # of connection points: 2
#     Edge 26, Type (0, 1), BuildingBlock: TEMPAE_clean_linker_10, # of connection points: 2
#     Edge 27, Type (0, 1), BuildingBlock: TEMPAE_clean_linker_10, # of connection points: 2
#     Edge 28, Type (0, 1), BuildingBlock: TEMPAE_clean_linker_10, # of connection points: 2
#     Edge 29, Type (0, 1), BuildingBlock: TEMPAE_clean_linker_10, # of connection points: 2
#     Edge 30, Type (0, 1), BuildingBlock: TEMPAE_clean_linker_10, # of connection points: 2
#     Edge 31, Type (0, 1), BuildingBlock: TEMPAE_clean_linker_10, # of connection points: 2
#     Edge 32, Type (0, 1), BuildingBlock: TEMPAE_clean_linker_10, # of connection points: 2
#     Edge 33, Type (0, 1), BuildingBlock: TEMPAE_clean_linker_10, # of connection points: 2
#     Edge 34, Type (0, 1), BuildingBlock: TEMPAE_clean_linker_10, # of connection points: 2
#     Edge 35, Type (0, 1), BuildingBlock: TEMPAE_clean_linker_10, # of connection points: 2
# Relax obj value: 0.053
# Max RMSD: 0.101
# Mean RMSD: 0.040
data_MOF--net-zzz--node1-MIFKUJ_clean_sbu_0--node2-QEWDON_clean_linker_0--edge1-TEMPAE_clean_linker_10
_symmetry_space_group_name_H-M    P1
_symmetry_Int_Tables_number       1
_symmetry_cell_setting            triclinic
loop_
_symmetry_equiv_pos_as_xyz
'x, y, z'
_cell_length_a     55.189947
_cell_length_b     55.392634
_cell_length_c     15.758556
_cell_angle_alpha  89.853652
_cell_angle_beta   90.200904
_cell_angle_gamma 90.008567
loop_
_atom_site_label
_atom_site_type_symbol
_atom_site_fract_x
_atom_site_fract_y
_atom_site_fract_z
_atom_type_partial_charge
H0 H 0.75823 0.50661 0.95634 0.0
C1 C 0.76757 0.5075 0.01678 0.0
C2 C 0.79017 0.49608 0.02496 0.0
C3 C 0.75777 0.52093 0.08472 0.0
H4 H 0.82141 0.49097 0.10538 0.0
C5 C 0.80329 0.49851 0.10053 0.0
C6 C 0.7946 0.51244 0.16721 0.0
C7 C 0.77163 0.52318 0.16047 0.0
C8 C 0.73405 0.5339 0.07427 0.0
H9 H 0.76502 0.5336 0.21356 0.0
C10 C 0.71546 0.5249 0.02059 0.0
C11 C 0.69342 0.53753 0.01057 0.0
C12 C 0.73004 0.55594 0.11653 0.0
H13 H 0.74394 0.56412 0.15551 0.0
C14 C 0.70813 0.56824 0.10759 0.0
H15 H 0.71779 0.50795 0.98758 0.0
C16 C 0.68993 0.55912 0.05532 0.0
H17 H 0.67326 0.56928 0.04831 0.0
H18 H 0.70538 0.58513 0.14056 0.0
H19 H 0.97626 0.74505 0.9621 0.0
C20 C 0.98433 0.75215 0.01968 0.0
C21 C 0.99604 0.77456 0.01768 0.0
C22 C 0.98214 0.73947 0.09697 0.0
H23 H 0.01339 0.80219 0.09032 0.0
C24 C 0.0056 0.7842 0.09227 0.0
C25 C 0.00307 0.77229 0.17014 0.0
C26 C 0.99129 0.74982 0.17232 0.0
C27 C 0.96918 0.71606 0.09958 0.0
H28 H 0.98912 0.74053 0.23242 0.0
C29 C 0.97464 0.69782 0.0407 0.0
C30 C 0.9622 0.67565 0.04241 0.0
C31 C 0.95108 0.71192 0.16041 0.0
H32 H 0.9464 0.72574 0.206 0.0
C33 C 0.93854 0.69004 0.16191 0.0
H34 H 0.98863 0.70086 0.99373 0.0
C35 C 0.944 0.67201 0.1033 0.0
H36 H 0.93427 0.65504 0.10649 0.0
H37 H 0.92457 0.68703 0.20879 0.0
H38 H 0.75704 0.99078 0.97746 0.0
C39 C 0.74869 0.99008 0.03954 0.0
C40 C 0.72684 0.00248 0.05256 0.0
C41 C 0.75897 0.97583 0.10479 0.0
H42 H 0.69777 0.00908 0.14025 0.0
C43 C 0.71534 0.00067 0.13127 0.0
C44 C 0.72465 0.98599 0.19564 0.0
C45 C 0.74653 0.97369 0.18286 0.0
C46 C 0.78173 0.962 0.08911 0.0
H47 H 0.75358 0.96239 0.23339 0.0
C48 C 0.80036 0.97167 0.03795 0.0
C49 C 0.82154 0.95832 0.02137 0.0
C50 C 0.78474 0.93871 0.12347 0.0
H51 H 0.77065 0.93035 0.16105 0.0
C52 C 0.80579 0.92554 0.10795 0.0
H53 H 0.7986 0.98971 0.01197 0.0
C54 C 0.82405 0.9352 0.05731 0.0
H55 H 0.83997 0.92434 0.04483 0.0
H56 H 0.80782 0.90759 0.13442 0.0
H57 H 0.52033 0.76823 0.94917 0.0
C58 C 0.51268 0.75905 0.00368 0.0
C59 C 0.50266 0.73606 0.99326 0.0
C60 C 0.51422 0.76944 0.08509 0.0
H61 H 0.48778 0.70501 0.0549 0.0
C62 C 0.49407 0.72342 0.06359 0.0
C63 C 0.49641 0.73278 0.1455 0.0
C64 C 0.50628 0.756 0.1561 0.0
C65 C 0.52603 0.79337 0.09586 0.0
H66 H 0.50816 0.76331 0.21949 0.0
C67 C 0.52156 0.8122 0.03758 0.0
C68 C 0.53407 0.83424 0.04387 0.0
C69 C 0.54282 0.79714 0.16189 0.0
H70 H 0.54695 0.78293 0.20697 0.0
C71 C 0.55507 0.8191 0.16882 0.0
H72 H 0.50861 0.80961 0.9865 0.0
C73 C 0.55089 0.8375 0.10993 0.0
H74 H 0.56064 0.85438 0.11634 0.0
H75 H 0.56807 0.82177 0.21954 0.0
H76 H 0.26144 0.52163 0.22945 0.0
C77 C 0.25012 0.5156 0.17729 0.0
C78 C 0.22668 0.50745 0.19453 0.0
C79 C 0.25821 0.51779 0.0928 0.0
H80 H 0.19306 0.49519 0.14203 0.0
C81 C 0.21138 0.501 0.12764 0.0
C82 C 0.2177 0.5058 0.04338 0.0
C83 C 0.24159 0.51325 0.02565 0.0
C84 C 0.28284 0.52792 0.07657 0.0
H85 H 0.24677 0.51664 0.9605 0.0
C86 C 0.30274 0.52154 0.12885 0.0
C87 C 0.32544 0.53316 0.12047 0.0
C88 C 0.2862 0.54549 0.01325 0.0
H89 H 0.2713 0.55121 0.9731 0.0
C90 C 0.30859 0.55678 0.0035 0.0
H91 H 0.30043 0.50751 0.1761 0.0
C92 C 0.32792 0.55096 0.05702 0.0
H93 H 0.34463 0.56094 0.04957 0.0
H94 H 0.31081 0.5706 0.95546 0.0
H95 H 0.99816 0.25642 0.2283 0.0
C96 C 0.00739 0.24473 0.18391 0.0
C97 C 0.01343 0.22123 0.20904 0.0
C98 C 0.01252 0.25268 0.10064 0.0
H99 H 0.02726 0.18693 0.17001 0.0
C100 C 0.02414 0.20553 0.15106 0.0
C101 C 0.02863 0.21262 0.06742 0.0
C102 C 0.02311 0.23637 0.04266 0.0
C103 C 0.00584 0.27757 0.07318 0.0
H104 H 0.02683 0.24196 0.9781 0.0
C105 C 0.00849 0.29726 0.12895 0.0
C106 C 1.00181 0.32075 0.10375 0.0
C107 C 0.99643 0.28177 0.99135 0.0
H108 H 0.99365 0.26704 0.94735 0.0
C109 C 0.99004 0.30504 0.96572 0.0
H110 H 0.01561 0.29428 0.19226 0.0
C111 C 0.99269 0.32442 0.02132 0.0
H112 H 0.98773 0.34232 -0.00045 0.0
H113 H 0.98287 0.30806 0.90255 0.0
H114 H 0.24743 0.99134 0.22981 0.0
C115 C 0.25912 0.99323 0.17513 0.0
C116 C 0.28335 0.99986 0.18778 0.0
C117 C 0.25036 0.9885 0.09229 0.0
H118 H 0.31812 0.00503 0.12938 0.0
C119 C 0.2991 0.00088 0.11888 0.0
C120 C 0.29117 0.99553 0.03725 0.0
C121 C 0.2667 0.98998 0.02319 0.0
C122 C 0.22468 0.98077 0.07869 0.0
H123 H 0.2607 0.98633 0.959 0.0
C124 C 0.20583 0.98952 0.13071 0.0
C125 C 0.18181 0.98137 0.12007 0.0
C126 C 0.21892 0.96391 0.01499 0.0
H127 H 0.23284 0.95616 0.97527 0.0
C128 C 0.19511 0.95619 0.00305 0.0
H129 H 0.20972 0.00282 0.17916 0.0
C130 C 0.17669 0.96475 0.05518 0.0
H131 H 0.15852 0.9578 0.04611 0.0
H132 H 0.19099 0.94312 0.95412 0.0
H133 H 0.51371 0.25134 0.18099 0.0
C134 C 0.50483 0.26246 0.13352 0.0
C135 C 0.50095 0.28689 0.15051 0.0
C136 C 0.49845 0.25281 0.05369 0.0
H137 H 0.48829 0.3208 0.10223 0.0
C138 C 0.49037 0.30168 0.08896 0.0
C139 C 0.48426 0.29273 0.00881 0.0
C140 C 0.48834 0.2682 0.99116 0.0
C141 C 0.50391 0.2271 0.03453 0.0
H142 H 0.48382 0.26126 0.92889 0.0
C143 C 0.50051 0.20911 0.09671 0.0
C144 C 0.50761 0.18504 0.08204 0.0
C145 C 0.51374 0.22058 0.95571 0.0
H146 H 0.51693 0.23401 0.90696 0.0
C147 C 0.5204 0.19672 0.93998 0.0
H148 H 0.49222 0.21391 0.15655 0.0
C149 C 0.51761 0.17912 0.00269 0.0
H150 H 0.52382 0.16098 0.98939 0.0
H151 H 0.52826 0.19195 0.87947 0.0
Zn152 Zn 0.00608 0.03307 0.62074 0.0
Zn153 Zn 0.00615 0.96013 0.6003 0.0
C154 C 0.00905 0.0582 0.77467 0.0
O155 O 0.98543 0.05579 0.76874 0.0
C156 C 0.0192 0.9176 0.52134 0.0
O157 O 0.03885 0.9234 0.5639 0.0
O158 O 0.99477 0.06403 0.56708 0.0
O159 O 0.03217 0.01946 0.54451 0.0
O160 O 0.03163 0.9795 0.5414 0.0
C161 C 0.99837 0.06999 0.49038 0.0
O162 O 0.00822 0.05431 0.43849 0.0
O163 O 0.02243 0.04664 0.72352 0.0
C164 C 0.00245 0.9351 0.75865 0.0
O165 O 0.98121 0.94565 0.76154 0.0
O166 O 0.01795 0.94244 0.70487 0.0
O167 O 0.97396 0.97499 0.62719 0.0
O168 O 0.97551 0.0145 0.65076 0.0
O169 O 1.00112 0.93188 0.52216 0.0
C170 C 0.04096 0.9995 0.51969 0.0
C171 C 0.964 0.99458 0.65018 0.0
Zn172 Zn 0.47604 0.00742 0.5763 0.0
Zn173 Zn 0.54083 0.01806 0.62262 0.0
C174 C 0.44406 0.99347 0.6981 0.0
O175 O 0.44841 0.97396 0.65336 0.0
C176 C 0.56948 0.0022 0.47982 0.0
O177 O 0.55969 0.02108 0.44256 0.0
O178 O 0.44817 0.99911 0.49816 0.0
O179 O 0.48908 0.0384 0.52628 0.0
O180 O 0.528 0.04522 0.55154 0.0
C181 C 0.4314 0.01473 0.50646 0.0
O182 O 0.43558 0.03413 0.55203 0.0
O183 O 0.45729 0.01201 0.68589 0.0
C184 C 0.57508 0.01772 0.75398 0.0
O185 O 0.56521 0.99634 0.7644 0.0
O186 O 0.56608 0.03206 0.6994 0.0
O187 O 0.51725 0.99892 0.69369 0.0
O188 O 0.49832 0.97868 0.59409 0.0
O189 O 0.562 0.99596 0.55284 0.0
C190 C 0.50796 0.05131 0.51811 0.0
C191 C 0.51011 0.97892 0.66352 0.0
Zn192 Zn 0.50949 0.47527 0.56743 0.0
Zn193 Zn 0.50342 0.54426 0.59267 0.0
C194 C 0.50438 0.44547 0.70963 0.0
O195 O 0.528 0.44838 0.70831 0.0
C196 C 0.48782 0.58279 0.49618 0.0
O197 O 0.47074 0.57962 0.55294 0.0
O198 O 0.52013 0.44651 0.50042 0.0
O199 O 0.48586 0.49401 0.49282 0.0
O200 O 0.47322 0.52363 0.57588 0.0
C201 C 0.5033 0.43436 0.46585 0.0
O202 O 0.48095 0.44241 0.46865 0.0
O203 O 0.49133 0.45801 0.65967 0.0
C204 C 0.51568 0.58439 0.68052 0.0
O205 O 0.5336 0.58064 0.62752 0.0
O206 O 0.49901 0.56858 0.68671 0.0
O207 O 0.53592 0.52964 0.62317 0.0
O208 O 0.54027 0.4901 0.61313 0.0
O209 O 0.50487 0.5673 0.4918 0.0
C210 C 0.47026 0.51005 0.51156 0.0
C211 C 0.54872 0.51074 0.63166 0.0
Zn212 Zn 0.03326 0.5105 0.5503 0.0
Zn213 Zn 0.98002 0.48896 0.62656 0.0
C214 C 0.06886 0.51779 0.67193 0.0
O215 O 0.06328 0.53966 0.6458 0.0
C216 C 0.94653 0.4923 0.49093 0.0
O217 O 0.95132 0.46907 0.49065 0.0
O218 O 0.05823 0.52719 0.47804 0.0
O219 O 0.02098 0.48169 0.4833 0.0
O220 O 0.99793 0.46144 0.57325 0.0
C221 C 0.0684 0.51675 0.41605 0.0
O222 O 0.05848 0.49728 0.38376 0.0
O223 O 0.05585 0.50018 0.64652 0.0
C224 C 0.94225 0.489 0.74485 0.0
O225 O 0.9498 0.5114 0.75159 0.0
O226 O 0.95393 0.4744 0.69842 0.0
O227 O 0.99849 0.51268 0.69916 0.0
O228 O 0.00984 0.53578 0.59314 0.0
O229 O 0.95866 0.50602 0.53997 0.0
C230 C 0.01021 0.46238 0.50535 0.0
C231 C 1.00219 0.53359 0.6687 0.0
C232 C 0.13883 0.99387 0.14796 0.0
C233 C 0.16221 0.98902 0.17894 0.0
C234 C 0.11944 0.99809 0.20343 0.0
C235 C 0.12351 0.99754 0.29217 0.0
C236 C 0.14729 0.99394 0.32379 0.0
C237 C 0.16635 0.98969 0.26683 0.0
C238 C 0.09439 0.00197 0.16704 0.0
C239 C 0.15241 0.99332 0.41794 0.0
C240 C 0.07393 0.02084 0.43864 0.0
C241 C 0.0623 0.9993 0.46232 0.0
C242 C 0.094 0.02061 0.38378 0.0
C243 C 0.10257 0.99835 0.3516 0.0
C244 C 0.09094 0.97659 0.37536 0.0
C245 C 0.07104 0.97733 0.43037 0.0
C246 C 0.10599 0.04416 0.36006 0.0
C247 C 0.0994 0.95246 0.34219 0.0
H248 H 0.13557 0.99382 0.08009 0.0
H249 H 0.18429 0.98578 0.29143 0.0
H250 H 0.08271 0.98633 0.18323 0.0
H251 H 0.08594 0.01824 0.19519 0.0
H252 H 0.09462 0.00407 0.09692 0.0
H253 H 0.17215 0.99295 0.43207 0.0
H254 H 0.1443 0.00926 0.44943 0.0
H255 H 0.14398 0.977 0.44622 0.0
H256 H 0.06737 0.03791 0.4629 0.0
H257 H 0.06222 0.96057 0.44789 0.0
H258 H 0.10513 0.04682 0.29032 0.0
H259 H 0.12543 0.04369 0.37814 0.0
H260 H 0.09734 0.0599 0.39131 0.0
H261 H 0.09835 0.95229 0.27187 0.0
H262 H 0.08845 0.9372 0.3671 0.0
H263 H 0.11863 0.94946 0.36001 0.0
C264 C 0.50951 0.17238 0.23559 0.0
C265 C 0.50544 0.16636 0.15011 0.0
C266 C 0.50854 0.15479 0.2998 0.0
C267 C 0.50404 0.13044 0.27802 0.0
C268 C 0.49963 0.12422 0.19227 0.0
C269 C 0.50007 0.14228 0.12964 0.0
C270 C 0.51288 0.1622 0.39075 0.0
C271 C 0.49509 0.09838 0.1663 0.0
C272 C 0.5283 0.08123 0.42329 0.0
C273 C 0.50707 0.07281 0.46214 0.0
C274 C 0.52756 0.10009 0.36379 0.0
C275 C 0.50513 0.11122 0.34413 0.0
C276 C 0.48376 0.10342 0.38547 0.0
C277 C 0.48494 0.08408 0.44322 0.0
C278 C 0.55067 0.10755 0.31986 0.0
C279 C 0.45963 0.11526 0.36777 0.0
H280 H 0.51407 0.19078 0.25245 0.0
H281 H 0.49635 0.13742 0.06433 0.0
H282 H 0.49817 0.15522 0.43189 0.0
H283 H 0.53011 0.15423 0.41402 0.0
H284 H 0.5139 0.18212 0.39806 0.0
H285 H 0.49174 0.09658 0.09705 0.0
H286 H 0.51096 0.08708 0.18366 0.0
H287 H 0.47923 0.09103 0.20081 0.0
H288 H 0.54544 0.07248 0.43705 0.0
H289 H 0.4685 0.07773 0.47339 0.0
H290 H 0.55412 0.12706 0.32985 0.0
H291 H 0.54883 0.10468 0.25046 0.0
H292 H 0.56666 0.09723 0.343 0.0
H293 H 0.46105 0.13506 0.37692 0.0
H294 H 0.44505 0.10818 0.40945 0.0
H295 H 0.45429 0.11217 0.30075 0.0
C296 C 0.34228 0.52103 0.26426 0.0
C297 C 0.34625 0.52756 0.17907 0.0
C298 C 0.36173 0.51683 0.32045 0.0
C299 C 0.38584 0.51998 0.292 0.0
C300 C 0.39005 0.52642 0.20633 0.0
C301 C 0.37032 0.52964 0.1508 0.0
C302 C 0.35645 0.5093 0.41065 0.0
C303 C 0.41543 0.53042 0.17357 0.0
C304 C 0.43499 0.53401 0.45528 0.0
C305 C 0.44793 0.51224 0.45874 0.0
C306 C 0.41482 0.5368 0.40133 0.0
C307 C 0.40672 0.51702 0.3519 0.0
C308 C 0.41913 0.49469 0.3576 0.0
C309 C 0.43979 0.4927 0.40971 0.0
C310 C 0.40261 0.56114 0.39547 0.0
C311 C 0.41068 0.4729 0.30829 0.0
H312 H 0.32394 0.51967 0.28802 0.0
H313 H 0.37389 0.53396 0.08497 0.0
H314 H 0.36691 0.49282 0.42717 0.0
H315 H 0.36224 0.52373 0.45496 0.0
H316 H 0.33689 0.50563 0.42096 0.0
H317 H 0.41563 0.53605 0.10586 0.0
H318 H 0.42461 0.54454 0.21179 0.0
H319 H 0.42621 0.51363 0.18027 0.0
H320 H 0.44101 0.54913 0.49302 0.0
H321 H 0.44947 0.47572 0.41248 0.0
H322 H 0.38326 0.55953 0.41337 0.0
H323 H 0.40318 0.5678 0.32902 0.0
H324 H 0.41133 0.57479 0.43714 0.0
H325 H 0.39123 0.46941 0.32107 0.0
H326 H 0.42121 0.45641 0.32448 0.0
H327 H 0.41247 0.47636 0.23925 0.0
C328 C 0.02445 0.34374 0.21612 0.0
C329 C 0.004 0.34136 0.16364 0.0
C330 C 0.02658 0.36306 0.27321 0.0
C331 C 0.00785 0.38047 0.27765 0.0
C332 C 0.98721 0.37822 0.22472 0.0
C333 C 0.9855 0.35868 0.16859 0.0
C334 C 0.04887 0.36487 0.32868 0.0
C335 C 0.96685 0.39643 0.2276 0.0
C336 C 1.00065 0.41901 0.47494 0.0
C337 C 0.01088 0.441 0.44886 0.0
C338 C 1.00001 0.399 0.42049 0.0
C339 C 0.00973 0.40104 0.33779 0.0
C340 C 0.02046 0.42302 0.31151 0.0
C341 C 0.02092 0.44272 0.36735 0.0
C342 C 0.98852 0.37581 0.45091 0.0
C343 C 0.03093 0.42593 0.22366 0.0
H344 H 0.03896 0.33062 0.2119 0.0
H345 H 0.96947 0.35678 0.12923 0.0
H346 H 0.0584 0.38214 0.3161 0.0
H347 H 0.04356 0.36489 0.39652 0.0
H348 H 0.06171 0.34975 0.31798 0.0
H349 H 0.95218 0.39225 0.18148 0.0
H350 H 0.95896 0.39694 0.29222 0.0
H351 H 0.97395 0.41475 0.2136 0.0
H352 H 0.99288 0.41745 0.5378 0.0
H353 H 0.02872 0.45963 0.34626 0.0
H354 H 1.00145 0.36061 0.44417 0.0
H355 H 0.97245 0.37156 0.41118 0.0
H356 H 0.98272 0.37685 0.51824 0.0
H357 H 0.04462 0.41169 0.2117 0.0
H358 H 0.03958 0.44385 0.21434 0.0
H359 H 0.01639 0.42374 0.1755 0.0
C360 C 0.83499 0.97881 0.88699 0.0
C361 C 0.84086 0.96801 0.96508 0.0
C362 C 0.85321 0.98589 0.8299 0.0
C363 C 0.87785 0.98214 0.85157 0.0
C364 C 0.88386 0.97213 0.93173 0.0
C365 C 0.86532 0.96519 0.98736 0.0
C366 C 0.84607 0.99649 0.7451 0.0
C367 C 0.90991 0.96797 0.9577 0.0
C368 C 0.92639 0.97149 0.6862 0.0
C369 C 0.93954 0.99318 0.68921 0.0
C370 C 0.90549 0.96818 0.73526 0.0
C371 C 0.89744 0.98699 0.78887 0.0
C372 C 0.90967 0.00947 0.78812 0.0
C373 C 0.93055 0.01233 0.73814 0.0
C374 C 0.89289 0.94397 0.73355 0.0
C375 C 0.9016 0.03002 0.84402 0.0
H376 H 0.81612 0.98088 0.86911 0.0
H377 H 0.86997 0.95722 0.04817 0.0
H378 H 0.85626 0.0134 0.7329 0.0
H379 H 0.85078 0.98363 0.69387 0.0
H380 H 0.82636 0.00041 0.7412 0.0
H381 H 0.91156 0.96133 0.02405 0.0
H382 H 0.91831 0.9545 0.91491 0.0
H383 H 0.92042 0.98496 0.95155 0.0
H384 H 0.93301 0.95663 0.64811 0.0
H385 H 0.94048 0.02919 0.74091 0.0
H386 H 0.8731 0.94636 0.72435 0.0
H387 H 0.8956 0.93467 0.79532 0.0
H388 H 0.89989 0.93211 0.68243 0.0
H389 H 0.88176 0.03286 0.83815 0.0
H390 H 0.91101 0.04718 0.82825 0.0
H391 H 0.90548 0.02548 0.91133 0.0
C392 C 0.5494 0.8648 0.94021 0.0
C393 C 0.52979 0.85382 0.98131 0.0
C394 C 0.54578 0.884 0.88331 0.0
C395 C 0.52202 0.89272 0.86847 0.0
C396 C 0.5021 0.88141 0.90883 0.0
C397 C 0.50622 0.86192 0.96425 0.0
C398 C 0.56745 0.89531 0.84051 0.0
C399 C 0.47655 0.89046 0.89588 0.0
C400 C 0.51719 0.95845 0.80261 0.0
C401 C 0.51256 0.95669 0.71524 0.0
C402 C 0.51984 0.93778 0.8532 0.0
C403 C 0.51824 0.91468 0.8154 0.0
C404 C 0.51354 0.91272 0.72723 0.0
C405 C 0.51053 0.93378 0.67824 0.0
C406 C 0.52446 0.94068 0.94719 0.0
C407 C 0.51212 0.8884 0.6845 0.0
H408 H 0.56761 0.85833 0.95269 0.0
H409 H 0.49107 0.8535 0.99644 0.0
H410 H 0.56455 0.89607 0.77084 0.0
H411 H 0.56978 0.91414 0.8629 0.0
H412 H 0.58446 0.88522 0.85364 0.0
H413 H 0.46296 0.87897 0.92859 0.0
H414 H 0.475 0.90915 0.92051 0.0
H415 H 0.47206 0.8911 0.82725 0.0
H416 H 0.51857 0.97609 0.83189 0.0
H417 H 0.50705 0.93232 0.6107 0.0
H418 H 0.54234 0.93286 0.96412 0.0
H419 H 0.51055 0.93069 0.9839 0.0
H420 H 0.52422 0.95989 0.96722 0.0
H421 H 0.52954 0.87867 0.69277 0.0
H422 H 0.50812 0.88995 0.61556 0.0
H423 H 0.49784 0.87722 0.71457 0.0
C424 C 0.65002 0.5276 0.98007 0.0
C425 C 0.67405 0.52896 0.95196 0.0
C426 C 0.63095 0.52261 0.92351 0.0
C427 C 0.63593 0.51923 0.83619 0.0
C428 C 0.66029 0.51975 0.8079 0.0
C429 C 0.6791 0.52445 0.86629 0.0
C430 C 0.60534 0.52181 0.95686 0.0
C431 C 0.66639 0.51646 0.71539 0.0
C432 C 0.58473 0.49189 0.70465 0.0
C433 C 0.57285 0.51261 0.67403 0.0
C434 C 0.60582 0.49367 0.75482 0.0
C435 C 0.61543 0.51671 0.77448 0.0
C436 C 0.60423 0.53761 0.74024 0.0
C437 C 0.5831 0.53532 0.6908 0.0
C438 C 0.61711 0.47094 0.7902 0.0
C439 C 0.61397 0.56253 0.75875 0.0
H440 H 0.64609 0.53092 0.04639 0.0
H441 H 0.69764 0.52572 0.84423 0.0
H442 H 0.59477 0.53706 0.92987 0.0
H443 H 0.59628 0.50487 0.93677 0.0
H444 H 0.60468 0.52298 0.02718 0.0
H445 H 0.68624 0.51532 0.70466 0.0
H446 H 0.65774 0.49985 0.69035 0.0
H447 H 0.65913 0.5319 0.67822 0.0
H448 H 0.57704 0.47423 0.69233 0.0
H449 H 0.57425 0.55146 0.66715 0.0
H450 H 0.61468 0.47045 0.86005 0.0
H451 H 0.63687 0.47072 0.77776 0.0
H452 H 0.6089 0.45438 0.76275 0.0
H453 H 0.6119 0.56654 0.82729 0.0
H454 H 0.60444 0.57677 0.72178 0.0
H455 H 0.6336 0.56341 0.74405 0.0
C456 C 0.99277 0.64972 0.96914 0.0
C457 C 0.96849 0.65612 0.98212 0.0
C458 C 0.99894 0.63043 0.91578 0.0
C459 C 0.98037 0.61741 0.87384 0.0
C460 C 0.95585 0.62418 0.8851 0.0
C461 C 0.9502 0.64338 0.93947 0.0
C462 C 0.02526 0.62358 0.90609 0.0
C463 C 0.93556 0.61089 0.84076 0.0
C464 C 0.99687 0.57831 0.68457 0.0
C465 C 0.99722 0.55519 0.7211 0.0
C466 C 0.99145 0.59877 0.73348 0.0
C467 C 0.98649 0.59604 0.82108 0.0
C468 C 0.98713 0.57279 0.85849 0.0
C469 C 0.9924 0.55266 0.80803 0.0
C470 C 0.99072 0.62326 0.69127 0.0
C471 C 0.98214 0.56915 0.95185 0.0
H472 H 0.00694 0.65937 0.0027 0.0
H473 H 0.93143 0.64848 0.94865 0.0
H474 H 0.0282 0.60503 0.93081 0.0
H475 H 0.03032 0.62351 0.83803 0.0
H476 H 0.03756 0.6361 0.94048 0.0
H477 H 0.91758 0.61916 0.85296 0.0
H478 H 0.93874 0.61068 0.77128 0.0
H479 H 0.93511 0.59183 0.86253 0.0
H480 H 1.00051 0.58042 0.61741 0.0
H481 H 0.99275 0.53488 0.83693 0.0
H482 H 0.00372 0.63564 0.72274 0.0
H483 H 0.97241 0.63128 0.69821 0.0
H484 H 0.99517 0.62235 0.62266 0.0
H485 H 0.99489 0.58015 0.99025 0.0
H486 H 0.98392 0.54995 0.9715 0.0
H487 H 0.96354 0.57535 0.96695 0.0
C488 C 0.98222 0.20243 0.29903 0.0
C489 C 0.00605 0.21078 0.29096 0.0
C490 C 0.97707 0.1823 0.35016 0.0
C491 C 0.99627 0.17048 0.3932 0.0
C492 C 0.01952 0.1813 0.39556 0.0
C493 C 0.02413 0.20144 0.34415 0.0
C494 C 0.95186 0.1718 0.34836 0.0
C495 C 0.04042 0.16961 0.44203 0.0
C496 C 0.98842 0.11314 0.52327 0.0
C497 C 0.99477 0.0954 0.46367 0.0
C498 C 0.98782 0.1377 0.50092 0.0
C499 C 0.9938 0.14463 0.41715 0.0
C500 C 0.9992 0.12671 0.35587 0.0
C501 C 0.99958 0.10234 0.37992 0.0
C502 C 0.9819 0.15617 0.568 0.0
C503 C 0.00562 0.1333 0.26548 0.0
H504 H 0.96828 0.20963 0.25742 0.0
H505 H 0.04257 0.20792 0.33737 0.0
H506 H 0.95117 0.1569 0.30145 0.0
H507 H 0.94691 0.16421 0.41117 0.0
H508 H 0.93819 0.18556 0.32966 0.0
H509 H 0.05577 0.18235 0.45084 0.0
H510 H 0.03466 0.16282 0.50505 0.0
H511 H 0.04698 0.15394 0.40481 0.0
H512 H 0.98469 0.10796 0.58831 0.0
H513 H 0.00438 0.08877 0.33347 0.0
H514 H 0.97016 0.17068 0.54189 0.0
H515 H 0.99889 0.16472 0.59068 0.0
H516 H 0.97273 0.14786 0.62352 0.0
H517 H 0.99109 0.14451 0.23675 0.0
H518 H 0.00836 0.11715 0.22496 0.0
H519 H 0.02253 0.14414 0.26478 0.0
C520 C 0.30613 0.02577 0.28584 0.0
C521 C 0.2941 0.00388 0.27212 0.0
C522 C 0.32622 0.0269 0.34002 0.0
C523 C 0.33378 0.00575 0.38323 0.0
C524 C 0.3193 0.98467 0.37974 0.0
C525 C 0.29962 0.98387 0.32308 0.0
C526 C 0.34111 0.04978 0.34164 0.0
C527 C 0.3261 0.96217 0.42836 0.0
C528 C 0.40208 0.99974 0.39789 0.0
C529 C 0.40656 0.00992 0.47738 0.0
C530 C 0.37824 0.99751 0.36746 0.0
C531 C 0.3586 0.00479 0.41948 0.0
C532 C 0.36312 0.01349 0.50212 0.0
C533 C 0.3871 0.01647 0.52941 0.0
C534 C 0.37416 0.98855 0.27807 0.0
C535 C 0.34271 0.02043 0.56059 0.0
H536 H 0.30179 0.04115 0.24583 0.0
H537 H 0.29032 0.96691 0.31205 0.0
H538 H 0.34635 0.05453 0.40744 0.0
H539 H 0.35805 0.04691 0.30523 0.0
H540 H 0.33124 0.0653 0.31312 0.0
H541 H 0.3104 0.94977 0.43515 0.0
H542 H 0.34062 0.95246 0.39388 0.0
H543 H 0.33316 0.96671 0.49239 0.0
H544 H 0.41721 0.99468 0.35801 0.0
H545 H 0.39064 0.02402 0.59165 0.0
H546 H 0.36539 0.00292 0.23948 0.0
H547 H 0.36176 0.9728 0.27849 0.0
H548 H 0.39131 0.9832 0.24661 0.0
H549 H 0.34928 0.02351 0.62621 0.0
H550 H 0.32864 0.00612 0.5617 0.0
H551 H 0.33395 0.03724 0.53751 0.0
C552 C 0.53047 0.31321 0.2216 0.0
C553 C 0.50985 0.29863 0.22808 0.0
C554 C 0.53371 0.33296 0.27575 0.0
C555 C 0.51593 0.33789 0.33785 0.0
C556 C 0.4971 0.32102 0.3526 0.0
C557 C 0.49407 0.30162 0.29644 0.0
C558 C 0.55414 0.35035 0.25815 0.0
C559 C 0.47834 0.32517 0.42038 0.0
C560 C 0.52292 0.39394 0.47488 0.0
C561 C 0.50808 0.4103 0.43096 0.0
C562 C 0.52559 0.37008 0.44627 0.0
C563 C 0.51359 0.36284 0.37101 0.0
C564 C 0.49908 0.37962 0.32547 0.0
C565 C 0.49617 0.40303 0.35698 0.0
C566 C 0.54045 0.35252 0.49813 0.0
C567 C 0.48644 0.37285 0.2436 0.0
H568 H 0.54251 0.31089 0.16793 0.0
H569 H 0.47803 0.29037 0.30077 0.0
H570 H 0.54699 0.366 0.2217 0.0
H571 H 0.56203 0.35735 0.31804 0.0
H572 H 0.56875 0.3418 0.22035 0.0
H573 H 0.46844 0.30828 0.43608 0.0
H574 H 0.48682 0.33238 0.47902 0.0
H575 H 0.46498 0.33869 0.39747 0.0
H576 H 0.53166 0.39953 0.53336 0.0
H577 H 0.48464 0.41577 0.32354 0.0
H578 H 0.55266 0.34184 0.45699 0.0
H579 H 0.52813 0.33963 0.53039 0.0
H580 H 0.55148 0.3618 0.54732 0.0
H581 H 0.49979 0.36591 0.19716 0.0
H582 H 0.47673 0.38836 0.21436 0.0
H583 H 0.47313 0.35824 0.25562 0.0
C584 C 0.2065 0.5358 0.28951 0.0
C585 C 0.21477 0.5122 0.27619 0.0
C586 C 0.18458 0.53992 0.33173 0.0
C587 C 0.17134 0.51997 0.36302 0.0
C588 C 0.18213 0.49679 0.36417 0.0
C589 C 0.20367 0.49303 0.31913 0.0
C590 C 0.17406 0.56504 0.33208 0.0
C591 C 0.16935 0.47544 0.40319 0.0
C592 C 0.10966 0.52873 0.46508 0.0
C593 C 0.09416 0.52171 0.39873 0.0
C594 C 0.1349 0.52875 0.45476 0.0
C595 C 0.14476 0.52217 0.37543 0.0
C596 C 0.12905 0.51657 0.30669 0.0
C597 C 0.10395 0.51602 0.31965 0.0
C598 C 0.15054 0.53448 0.53078 0.0
C599 C 0.13876 0.51037 0.21991 0.0
H600 H 0.21515 0.55062 0.25617 0.0
H601 H 0.21015 0.47479 0.309 0.0
H602 H 0.15948 0.56624 0.28353 0.0
H603 H 0.16588 0.56913 0.39464 0.0
H604 H 0.18796 0.57895 0.3175 0.0
H605 H 0.18199 0.46015 0.41453 0.0
H606 H 0.16082 0.4806 0.46423 0.0
H607 H 0.15478 0.46921 0.35975 0.0
H608 H 0.1022 0.53283 0.52685 0.0
H609 H 0.09198 0.51059 0.26843 0.0
H610 H 0.14311 0.55036 0.56468 0.0
H611 H 0.1697 0.53821 0.5144 0.0
H612 H 0.15007 0.51895 0.57542 0.0
H613 H 0.15152 0.52457 0.19841 0.0
H614 H 0.12411 0.50849 0.17184 0.0
H615 H 0.14891 0.49311 0.22298 0.0
C616 C 0.01723 0.79827 0.90745 0.0
C617 C 0.99534 0.79063 0.94326 0.0
C618 C 0.01868 0.82033 0.8639 0.0
C619 C 0.99783 0.8351 0.85782 0.0
C620 C 0.97518 0.82626 0.88637 0.0
C621 C 0.9742 0.80395 0.9285 0.0
C622 C 0.04299 0.82885 0.83208 0.0
C623 C 0.95248 0.84139 0.88067 0.0
C624 C 0.00671 0.90305 0.86905 0.0
C625 C 0.00347 0.90965 0.78425 0.0
C626 C 0.00533 0.87868 0.89359 0.0
C627 C 1.00023 0.86076 0.8317 0.0
C628 C 0.99685 0.8675 0.74596 0.0
C629 C 0.99852 0.89191 0.72335 0.0
C630 C 0.0088 0.87215 0.98596 0.0
C631 C 0.99097 0.84902 0.67863 0.0
H632 H 0.03361 0.78805 0.92022 0.0
H633 H 0.9574 0.79819 0.95778 0.0
H634 H 0.04126 0.83679 0.76765 0.0
H635 H 0.05003 0.84316 0.87475 0.0
H636 H 0.05646 0.81395 0.83009 0.0
H637 H 0.93592 0.83057 0.89326 0.0
H638 H 0.95347 0.85611 0.9282 0.0
H639 H 0.95076 0.84992 0.8172 0.0
H640 H 0.01002 0.91694 0.91603 0.0
H641 H 0.99511 0.89727 0.65833 0.0
H642 H 0.02374 0.85887 0.99277 0.0
H643 H 0.99212 0.8635 0.01078 0.0
H644 H 0.01304 0.88814 0.02573 0.0
H645 H 0.00626 0.83617 0.67254 0.0
H646 H 0.9874 0.85742 0.61576 0.0
H647 H 0.97482 0.83835 0.69713 0.0
C648 C 0.7007 0.03541 0.99562 0.0
C649 C 0.7131 0.01368 0.98186 0.0
C650 C 0.68022 0.04138 0.94718 0.0
C651 C 0.67231 0.02533 0.8832 0.0
C652 C 0.687 0.0054 0.86059 0.0
C653 C 0.70729 0.99973 0.91063 0.0
C654 C 0.6654 0.06312 0.97194 0.0
C655 C 0.6796 0.98831 0.79068 0.0
C656 C 0.60546 0.011 0.86805 0.0
C657 C 0.59882 0.02283 0.79301 0.0
C658 C 0.62913 0.01264 0.89976 0.0
C659 C 0.6467 0.02607 0.8542 0.0
C660 C 0.63987 0.03885 0.78006 0.0
C661 C 0.61588 0.03719 0.75052 0.0
C662 C 0.63551 0.99917 0.98038 0.0
C663 C 0.65805 0.05314 0.72922 0.0
H664 H 0.70548 0.04643 0.04997 0.0
H665 H 0.7169 0.98297 0.89946 0.0
H666 H 0.65795 0.07239 0.91506 0.0
H667 H 0.64987 0.05716 0.01134 0.0
H668 H 0.67625 0.07624 0.00937 0.0
H669 H 0.69491 0.97666 0.77052 0.0
H670 H 0.66474 0.9765 0.81368 0.0
H671 H 0.67271 0.9984 0.7347 0.0
H672 H 0.59225 0.99996 0.90099 0.0
H673 H 0.61086 0.04612 0.69173 0.0
H674 H 0.64409 0.01157 0.0268 0.0
H675 H 0.64881 0.98471 0.96618 0.0
H676 H 0.61941 0.99078 0.01061 0.0
H677 H 0.67069 0.06315 0.77123 0.0
H678 H 0.64905 0.06616 0.68563 0.0
H679 H 0.66901 0.04055 0.6904 0.0
C680 C 0.48509 0.71449 0.87019 0.0
C681 C 0.50565 0.72222 0.9147 0.0
C682 C 0.4861 0.69399 0.81833 0.0
C683 C 0.50794 0.68066 0.81392 0.0
C684 C 0.52923 0.6897 0.8529 0.0
C685 C 0.52786 0.71065 0.9021 0.0
C686 C 0.4633 0.68545 0.77463 0.0
C687 C 0.55281 0.67588 0.85064 0.0
C688 C 0.50377 0.61246 0.79688 0.0
C689 C 0.51233 0.60879 0.71464 0.0
C690 C 0.50197 0.63592 0.8298 0.0
C691 C 0.50799 0.65598 0.77771 0.0
C692 C 0.51543 0.65227 0.69314 0.0
C693 C 0.51799 0.62867 0.66319 0.0
C694 C 0.49441 0.63921 0.92108 0.0
C695 C 0.52114 0.67313 0.63478 0.0
H696 H 0.46787 0.72333 0.88132 0.0
H697 H 0.54356 0.71645 0.93827 0.0
H698 H 0.46736 0.67874 0.70998 0.0
H699 H 0.45532 0.67028 0.81116 0.0
H700 H 0.44956 0.70006 0.76986 0.0
H701 H 0.56814 0.68652 0.877 0.0
H702 H 0.55094 0.65905 0.8885 0.0
H703 H 0.55731 0.67055 0.78482 0.0
H704 H 0.49937 0.597 0.83623 0.0
H705 H 0.52424 0.62575 0.59884 0.0
H706 H 0.47806 0.65079 0.9244 0.0
H707 H 0.50903 0.64849 0.95688 0.0
H708 H 0.49041 0.62175 0.95298 0.0
H709 H 0.50649 0.68683 0.63704 0.0
H710 H 0.52346 0.66712 0.56817 0.0
H711 H 0.53811 0.68207 0.65565 0.0
C712 C 0.80804 0.49965 0.88128 0.0
C713 C 0.80288 0.4852 0.95196 0.0
C714 C 0.82843 0.49485 0.83113 0.0
C715 C 0.84385 0.47539 0.85342 0.0
C716 C 0.83635 0.45856 0.91561 0.0
C717 C 0.81573 0.46361 0.964 0.0
C718 C 0.83527 0.51257 0.7624 0.0
C719 C 0.8519 0.43721 0.93968 0.0
C720 C 0.90267 0.46756 0.73134 0.0
C721 C 0.91825 0.4825 0.77819 0.0
C722 C 0.87838 0.46449 0.75556 0.0
C723 C 0.86978 0.47639 0.82887 0.0
C724 C 0.8859 0.49049 0.87862 0.0
C725 C 0.90986 0.49361 0.85194 0.0
C726 C 0.86179 0.44968 0.69994 0.0
C727 C 0.87767 0.50304 0.95866 0.0
H728 H 0.798 0.51625 0.8713 0.0
H729 H 0.81142 0.4522 0.01795 0.0
H730 H 0.84932 0.52508 0.78709 0.0
H731 H 0.84297 0.50307 0.70679 0.0
H732 H 0.81944 0.52346 0.74126 0.0
H733 H 0.84135 0.42332 0.97466 0.0
H734 H 0.86006 0.42881 0.88271 0.0
H735 H 0.86691 0.44341 0.98134 0.0
H736 H 0.90909 0.4593 0.67328 0.0
H737 H 0.92196 0.50515 0.88798 0.0
H738 H 0.84838 0.43946 0.73805 0.0
H739 H 0.87215 0.4368 0.66012 0.0
H740 H 0.85162 0.46195 0.65694 0.0
H741 H 0.86375 0.51679 0.94279 0.0
H742 H 0.89283 0.51214 0.99235 0.0
H743 H 0.86926 0.48984 0.00273 0.0
C744 C 0.05206 0.17563 0.02953 0.0
C745 C 0.03552 0.19368 0.00552 0.0
C746 C 0.0526 0.15337 0.98753 0.0
C747 C 0.03663 0.14936 0.91864 0.0
C748 C 0.02226 0.16863 0.88719 0.0
C749 C 0.02174 0.19058 0.93146 0.0
C750 C 0.06833 0.13341 0.02278 0.0
C751 C 0.00558 0.1653 0.81195 0.0
C752 C 0.03882 0.09189 0.78786 0.0
C753 C 0.01903 0.07909 0.82107 0.0
C754 C 0.04534 0.11457 0.82035 0.0
C755 C 0.032 0.12437 0.88856 0.0
C756 C 0.01304 0.11077 0.92585 0.0
C757 C 0.00658 0.08841 0.89089 0.0
C758 C 0.06543 0.12861 0.7782 0.0
C759 C 0.9988 0.12032 0.0003 0.0
H760 H 0.06311 0.17816 0.08588 0.0
H761 H 0.00895 0.20444 0.91237 0.0
H762 H 0.05689 0.1207 0.05964 0.0
H763 H 0.07697 0.12301 0.97101 0.0
H764 H 0.08271 0.1405 0.0655 0.0
H765 H 0.99884 0.18283 0.7869 0.0
H766 H 0.01495 0.15555 0.76014 0.0
H767 H 0.98975 0.15425 0.83124 0.0
H768 H 0.04828 0.08492 0.73295 0.0
H769 H 0.99129 0.07854 0.91653 0.0
H770 H 0.07758 0.13691 0.82616 0.0
H771 H 0.05746 0.14349 0.73997 0.0
H772 H 0.07643 0.11709 0.73547 0.0
H773 H 0.01126 0.12612 0.05175 0.0
H774 H 0.98608 0.10666 0.02638 0.0
H775 H 0.9882 0.13638 0.98021 0.0
C776 C 0.32786 0.97645 0.97881 0.0
C777 C 0.30974 0.99397 0.97049 0.0
C778 C 0.34908 0.97767 0.9306 0.0
C779 C 0.35218 0.99684 0.872 0.0
C780 C 0.33349 0.01424 0.86149 0.0
C781 C 0.31238 0.0125 0.91088 0.0
C782 C 0.36868 0.95909 0.94562 0.0
C783 C 0.33552 0.03514 0.80042 0.0
C784 C 0.41765 0.01033 0.81317 0.0
C785 C 0.42059 0.99549 0.74222 0.0
C786 C 0.39517 0.01158 0.85487 0.0
C787 C 0.37514 0.99829 0.823 0.0
C788 C 0.37776 0.98452 0.74827 0.0
C789 C 0.40054 0.98285 0.70998 0.0
C790 C 0.3929 0.0267 0.93392 0.0
C791 C 0.35663 0.9711 0.70962 0.0
H792 H 0.32591 0.96243 0.02649 0.0
H793 H 0.29854 0.02634 0.90597 0.0
H794 H 0.37269 0.94938 0.88583 0.0
H795 H 0.38563 0.96819 0.96617 0.0
H796 H 0.36356 0.94561 0.9947 0.0
H797 H 0.33021 0.05216 0.83251 0.0
H798 H 0.35395 0.03749 0.77389 0.0
H799 H 0.32253 0.03235 0.74743 0.0
H800 H 0.43305 0.02037 0.83731 0.0
H801 H 0.40253 0.97191 0.65347 0.0
H802 H 0.38786 0.01502 0.98844 0.0
H803 H 0.37822 0.04019 0.92542 0.0
H804 H 0.40999 0.03633 0.94967 0.0
H805 H 0.35266 0.9548 0.74819 0.0
H806 H 0.36041 0.96531 0.64351 0.0
H807 H 0.34012 0.98254 0.70941 0.0
C808 C 0.49075 0.31261 0.86858 0.0
C809 C 0.47696 0.31039 0.94265 0.0
C810 C 0.49022 0.33404 0.82075 0.0
C811 C 0.47572 0.3536 0.84845 0.0
C812 C 0.45954 0.35024 0.91689 0.0
C813 C 0.46025 0.32856 0.96287 0.0
C814 C 0.50719 0.33667 0.74636 0.0
C815 C 0.44356 0.37046 0.94791 0.0
C816 C 0.50617 0.41448 0.82366 0.0
C817 C 0.49427 0.42404 0.75262 0.0
C818 C 0.4996 0.39196 0.85709 0.0
C819 C 0.48095 0.37843 0.81734 0.0
C820 C 0.46826 0.38837 0.74729 0.0
C821 C 0.47498 0.41119 0.71601 0.0
C822 C 0.51326 0.38227 0.93318 0.0
C823 C 0.44851 0.37444 0.70256 0.0
H824 H 0.50367 0.2986 0.85262 0.0
H825 H 0.44932 0.32671 0.01959 0.0
H826 H 0.49813 0.34614 0.69286 0.0
H827 H 0.52307 0.34768 0.76563 0.0
H828 H 0.51384 0.31889 0.72376 0.0
H829 H 0.42896 0.3637 0.99013 0.0
H830 H 0.45473 0.38354 0.98422 0.0
H831 H 0.4352 0.38033 0.89392 0.0
H832 H 0.52111 0.42439 0.85183 0.0
H833 H 0.46602 0.41834 0.66 0.0
H834 H 0.52338 0.36577 0.91511 0.0
H835 H 0.50041 0.37715 0.98415 0.0
H836 H 0.52635 0.3956 0.95924 0.0
H837 H 0.45679 0.35976 0.66463 0.0
H838 H 0.43777 0.38611 0.65908 0.0
H839 H 0.43608 0.36588 0.74892 0.0
C840 C 0.17572 0.51781 0.00242 0.0
C841 C 0.19773 0.50693 0.97923 0.0
C842 C 0.15555 0.51769 0.94855 0.0
C843 C 0.15746 0.50722 0.86716 0.0
C844 C 0.17989 0.49712 0.84118 0.0
C845 C 0.1998 0.49696 0.89786 0.0
C846 C 0.13212 0.52874 0.97924 0.0
C847 C 0.18279 0.48656 0.75368 0.0
C848 C 0.09661 0.49258 0.76384 0.0
C849 C 0.09187 0.51401 0.71926 0.0
C850 C 0.11842 0.48959 0.80959 0.0
C851 C 0.13607 0.50823 0.80898 0.0
C852 C 0.13171 0.52944 0.76115 0.0
C853 C 0.10965 0.53215 0.71779 0.0
C854 C 0.12212 0.46698 0.86156 0.0
C855 C 0.1501 0.54964 0.75784 0.0
H856 H 0.17418 0.52646 0.06376 0.0
H857 H 0.21677 0.48874 0.87913 0.0
H858 H 0.12612 0.54325 0.93535 0.0
H859 H 0.11768 0.5148 0.98021 0.0
H860 H 0.13382 0.53655 0.04383 0.0
H861 H 0.2013 0.47931 0.74316 0.0
H862 H 0.16947 0.47183 0.74389 0.0
H863 H 0.179 0.50059 0.70502 0.0
H864 H 0.08303 0.47845 0.76489 0.0
H865 H 0.1064 0.54863 0.68231 0.0
H866 H 0.12215 0.47163 0.93003 0.0
H867 H 0.13996 0.45877 0.84713 0.0
H868 H 0.10771 0.45336 0.84991 0.0
H869 H 0.15338 0.55685 0.82245 0.0
H870 H 0.14416 0.56478 0.71636 0.0
H871 H 0.16764 0.54264 0.73404 0.0
C872 C 0.99302 0.78883 0.31321 0.0
C873 C 0.00995 0.78562 0.24808 0.0
C874 C 0.99574 0.80769 0.37193 0.0
C875 C 0.01544 0.82389 0.36339 0.0
C876 C 0.03386 0.81908 0.30357 0.0
C877 C 0.03113 0.79962 0.24794 0.0
C878 C 0.97638 0.81158 0.43788 0.0
C879 C 0.05504 0.83601 0.29144 0.0
C880 C 0.00367 0.89005 0.40871 0.0
C881 C 0.01745 0.89357 0.4822 0.0
C882 C 0.00273 0.86732 0.36981 0.0
C883 C 0.01512 0.84753 0.40745 0.0
C884 C 0.02828 0.85085 0.48363 0.0
C885 C 0.02968 0.87398 0.51922 0.0
C886 C 0.98909 0.86465 0.28706 0.0
C887 C 0.0409 0.83004 0.52729 0.0
H888 H 0.97666 0.778 0.31402 0.0
H889 H 0.0445 0.79681 0.19865 0.0
H890 H 0.98452 0.81704 0.4994 0.0
H891 H 0.96415 0.82634 0.41689 0.0
H892 H 0.9653 0.79507 0.44781 0.0
H893 H 0.06913 0.82821 0.24942 0.0
H894 H 0.04849 0.85309 0.26244 0.0
H895 H 0.06352 0.84062 0.35315 0.0
H896 H 0.99427 0.90525 0.38022 0.0
H897 H 0.03998 0.87664 0.57718 0.0
H898 H 0.97459 0.85092 0.29383 0.0
H899 H 1.00157 0.85826 0.23679 0.0
H900 H 0.98072 0.88188 0.26575 0.0
H901 H 0.02798 0.81495 0.53722 0.0
H902 H 0.04869 0.8353 0.58968 0.0
H903 H 0.05572 0.82313 0.48676 0.0
C904 C 0.69529 0.96008 0.27195 0.0
C905 C 0.70887 0.98143 0.26946 0.0
C906 C 0.6736 0.95888 0.31825 0.0
C907 C 0.66553 0.97952 0.36289 0.0
C908 C 0.68074 1.00007 0.36843 0.0
C909 C 0.70218 0.00084 0.32099 0.0
C910 C 0.65812 0.93651 0.31164 0.0
C911 C 0.67311 0.02229 0.41675 0.0
C912 C 0.59909 0.99674 0.36217 0.0
C913 C 0.59243 0.99217 0.44639 0.0
C914 C 0.62248 0.9914 0.33321 0.0
C915 C 0.63978 0.98147 0.39018 0.0
C916 C 0.63278 0.97555 0.47404 0.0
C917 C 0.60912 0.98088 0.50108 0.0
C918 C 0.62905 0.99767 0.24274 0.0
C919 C 0.65062 0.96506 0.53686 0.0
H920 H 0.70031 0.9452 0.23101 0.0
H921 H 0.71261 0.01742 0.31816 0.0
H922 H 0.64978 0.93205 0.37369 0.0
H923 H 0.6432 0.93981 0.26565 0.0
H924 H 0.66874 0.92072 0.28946 0.0
H925 H 0.68839 0.03511 0.42571 0.0
H926 H 0.65848 0.03169 0.3812 0.0
H927 H 0.66581 0.0173 0.4799 0.0
H928 H 0.58624 0.00534 0.31954 0.0
H929 H 0.60419 0.97745 0.56655 0.0
H930 H 0.63739 0.98189 0.21094 0.0
H931 H 0.64263 0.01246 0.24239 0.0
H932 H 0.61308 0.00357 0.20491 0.0
H933 H 0.66194 0.95093 0.50684 0.0
H934 H 0.64138 0.95717 0.59298 0.0
H935 H 0.66296 0.97953 0.55935 0.0
C936 C 0.47212 0.70056 0.21603 0.0
C937 C 0.49217 0.71612 0.21778 0.0
C938 C 0.47136 0.67989 0.26729 0.0
C939 C 0.49088 0.67491 0.32311 0.0
C940 C 0.51022 0.69165 0.33038 0.0
C941 C 0.51056 0.71215 0.2777 0.0
C942 C 0.45046 0.6625 0.25714 0.0
C943 C 0.53092 0.68793 0.39189 0.0
C944 C 0.47831 0.62659 0.48775 0.0
C945 C 0.48923 0.60621 0.45135 0.0
C946 C 0.47962 0.64928 0.4486 0.0
C947 C 0.49146 0.65153 0.36972 0.0
C948 C 0.5028 0.6311 0.333 0.0
C949 C 0.50181 0.60867 0.3749 0.0
C950 C 0.46817 0.67079 0.49133 0.0
C951 C 0.51579 0.63294 0.24911 0.0
H952 H 0.45776 0.70374 0.17019 0.0
H953 H 0.5261 0.72413 0.27939 0.0
H954 H 0.44219 0.65849 0.31964 0.0
H955 H 0.43616 0.66961 0.21405 0.0
H956 H 0.45722 0.64518 0.23099 0.0
H957 H 0.52617 0.69662 0.45295 0.0
H958 H 0.53466 0.66857 0.40431 0.0
H959 H 0.54781 0.69656 0.36851 0.0
H960 H 0.46904 0.62494 0.54804 0.0
H961 H 0.51045 0.593 0.34713 0.0
H962 H 0.45243 0.67714 0.45347 0.0
H963 H 0.48131 0.68593 0.4947 0.0
H964 H 0.46188 0.6665 0.55651 0.0
H965 H 0.50301 0.63918 0.19913 0.0
H966 H 0.52373 0.61543 0.22916 0.0
H967 H 0.53052 0.64653 0.25366 0.0
C968 C 0.83025 0.53451 0.22226 0.0
C969 C 0.81173 0.51773 0.23713 0.0
C970 C 0.85163 0.53427 0.27081 0.0
C971 C 0.85448 0.51688 0.3361 0.0
C972 C 0.83482 0.50141 0.35646 0.0
C973 C 0.81374 0.50182 0.30593 0.0
C974 C 0.87206 0.551 0.24636 0.0
C975 C 0.83689 0.48294 0.42668 0.0
C976 C 0.91681 0.48943 0.37214 0.0
C977 C 0.92459 0.50108 0.44615 0.0
C978 C 0.89439 0.49501 0.33461 0.0
C979 C 0.879 0.51226 0.37324 0.0
C980 C 0.88698 0.52446 0.44719 0.0
C981 C 0.90982 0.51888 0.48236 0.0
C982 C 0.88691 0.48195 0.25458 0.0
C983 C 0.87101 0.54261 0.49114 0.0
H984 H 0.82886 0.54645 0.16779 0.0
H985 H 0.79962 0.48854 0.31628 0.0
H986 H 0.88067 0.55896 0.3035 0.0
H987 H 0.88617 0.54058 0.21234 0.0
H988 H 0.86576 0.56585 0.20419 0.0
H989 H 0.81899 0.47513 0.44348 0.0
H990 H 0.84895 0.46806 0.40607 0.0
H991 H 0.84506 0.49109 0.48431 0.0
H992 H 0.92816 0.47562 0.34418 0.0
H993 H 0.91558 0.5276 0.54057 0.0
H994 H 0.88211 0.49517 0.2042 0.0
H995 H 0.87057 0.47084 0.26702 0.0
H996 H 0.90144 0.46996 0.23029 0.0
H997 H 0.86406 0.55614 0.44508 0.0
H998 H 0.8807 0.55219 0.54301 0.0
H999 H 0.85507 0.53324 0.51858 0.0
loop_
_geom_bond_atom_site_label_1
_geom_bond_atom_site_label_2
_geom_bond_distance
_geom_bond_site_symmetry_2
_ccdc_geom_bond_type
H0 C1 0.949 . S
C1 H0 0.949 . S
C1 C2 1.395 . S
C1 C3 1.391 1_556 S
C2 C1 1.395 . S
C2 C5 1.390 1_556 S
C3 C1 1.391 1_554 S
C3 C7 1.387 . S
C3 C8 1.491 . S
H4 C5 0.950 . S
C5 C2 1.390 1_554 S
C5 H4 0.950 . S
C5 C6 1.378 . S
C6 C5 1.378 . S
C6 C7 1.409 . S
C7 C3 1.387 . S
C7 C6 1.409 . S
C7 H9 0.951 . S
C8 C3 1.491 . S
C8 C10 1.382 1_554 S
C8 C12 1.404 . S
H9 C7 0.951 . S
C10 C8 1.382 1_556 S
C10 C11 1.390 . S
C10 H15 0.949 . S
C11 C10 1.390 . S
C11 C16 1.399 1_556 S
C12 C8 1.404 . S
C12 H13 0.950 . S
C12 C14 1.375 . S
H13 C12 0.950 . S
C14 C12 1.375 . S
C14 C16 1.382 . S
C14 H18 0.950 . S
H15 C10 0.949 . S
C16 C11 1.399 1_554 S
C16 C14 1.382 . S
C16 H17 0.952 . S
H17 C16 0.952 . S
H18 C14 0.950 . S
H19 C20 0.949 . S
C20 H19 0.949 . S
C20 C21 1.395 . S
C20 C22 1.391 1_556 S
C21 C20 1.395 . S
C21 C24 1.390 1_556 S
C22 C20 1.391 1_554 S
C22 C26 1.387 . S
C22 C27 1.491 . S
H23 C24 0.950 . S
C24 C21 1.390 1_554 S
C24 H23 0.950 . S
C24 C25 1.378 . S
C25 C24 1.378 . S
C25 C26 1.409 . S
C26 C22 1.387 . S
C26 C25 1.409 . S
C26 H28 0.951 . S
C27 C22 1.491 . S
C27 C29 1.382 1_554 S
C27 C31 1.404 . S
H28 C26 0.951 . S
C29 C27 1.382 1_556 S
C29 C30 1.390 . S
C29 H34 0.949 . S
C30 C29 1.390 . S
C30 C35 1.399 1_556 S
C31 C27 1.404 . S
C31 H32 0.950 . S
C31 C33 1.375 . S
H32 C31 0.950 . S
C33 C31 1.375 . S
C33 C35 1.382 . S
C33 H37 0.950 . S
H34 C29 0.949 . S
C35 C30 1.399 1_554 S
C35 C33 1.382 . S
C35 H36 0.952 . S
H36 C35 0.952 . S
H37 C33 0.950 . S
H38 C39 0.949 . S
C39 H38 0.949 . S
C39 C40 1.395 . S
C39 C41 1.391 1_556 S
C40 C39 1.395 . S
C40 C43 1.390 1_556 S
C41 C39 1.391 1_554 S
C41 C45 1.387 . S
C41 C46 1.491 . S
H42 C43 0.950 . S
C43 C40 1.390 1_554 S
C43 H42 0.950 . S
C43 C44 1.378 . S
C44 C43 1.378 . S
C44 C45 1.409 . S
C45 C41 1.387 . S
C45 C44 1.409 . S
C45 H47 0.951 . S
C46 C41 1.491 . S
C46 C48 1.382 1_554 S
C46 C50 1.404 . S
H47 C45 0.951 . S
C48 C46 1.382 1_556 S
C48 C49 1.390 . S
C48 H53 0.949 . S
C49 C48 1.390 . S
C49 C54 1.399 1_556 S
C50 C46 1.404 . S
C50 H51 0.950 . S
C50 C52 1.375 . S
H51 C50 0.950 . S
C52 C50 1.375 . S
C52 C54 1.382 . S
C52 H56 0.950 . S
H53 C48 0.949 . S
C54 C49 1.399 1_554 S
C54 C52 1.382 . S
C54 H55 0.952 . S
H55 C54 0.952 . S
H56 C52 0.950 . S
H57 C58 0.949 . S
C58 H57 0.949 . S
C58 C59 1.395 . S
C58 C60 1.391 1_556 S
C59 C58 1.395 . S
C59 C62 1.390 1_556 S
C60 C58 1.391 1_554 S
C60 C64 1.387 . S
C60 C65 1.491 . S
H61 C62 0.950 . S
C62 C59 1.390 1_554 S
C62 H61 0.950 . S
C62 C63 1.378 . S
C63 C62 1.378 . S
C63 C64 1.409 . S
C64 C60 1.387 . S
C64 C63 1.409 . S
C64 H66 0.951 . S
C65 C60 1.491 . S
C65 C67 1.382 1_554 S
C65 C69 1.404 . S
H66 C64 0.951 . S
C67 C65 1.382 1_556 S
C67 C68 1.390 . S
C67 H72 0.949 . S
C68 C67 1.390 . S
C68 C73 1.399 1_556 S
C69 C65 1.404 . S
C69 H70 0.950 . S
C69 C71 1.375 . S
H70 C69 0.950 . S
C71 C69 1.375 . S
C71 C73 1.382 . S
C71 H75 0.950 . S
H72 C67 0.949 . S
C73 C68 1.399 1_554 S
C73 C71 1.382 . S
C73 H74 0.952 . S
H74 C73 0.952 . S
H75 C71 0.950 . S
H76 C77 0.949 . S
C77 H76 0.949 . S
C77 C78 1.395 . S
C77 C79 1.391 . S
C78 C77 1.395 . S
C78 C81 1.390 . S
C79 C77 1.391 . S
C79 C83 1.387 . S
C79 C84 1.491 . S
H80 C81 0.950 . S
C81 C78 1.390 . S
C81 H80 0.950 . S
C81 C82 1.378 . S
C82 C81 1.378 . S
C82 C83 1.409 . S
C83 C79 1.387 . S
C83 C82 1.409 . S
C83 H85 0.951 . S
C84 C79 1.491 . S
C84 C86 1.382 . S
C84 C88 1.404 . S
H85 C83 0.951 . S
C86 C84 1.382 . S
C86 C87 1.390 . S
C86 H91 0.949 . S
C87 C86 1.390 . S
C87 C92 1.399 . S
C88 C84 1.404 . S
C88 H89 0.950 . S
C88 C90 1.375 . S
H89 C88 0.950 . S
C90 C88 1.375 . S
C90 C92 1.382 . S
C90 H94 0.950 . S
H91 C86 0.949 . S
C92 C87 1.399 . S
C92 C90 1.382 . S
C92 H93 0.952 . S
H93 C92 0.952 . S
H94 C90 0.950 . S
H95 C96 0.949 . S
C96 H95 0.949 . S
C96 C97 1.395 . S
C96 C98 1.391 . S
C97 C96 1.395 . S
C97 C100 1.390 . S
C98 C96 1.391 . S
C98 C102 1.387 . S
C98 C103 1.491 . S
H99 C100 0.950 . S
C100 C97 1.390 . S
C100 H99 0.950 . S
C100 C101 1.378 . S
C101 C100 1.378 . S
C101 C102 1.409 . S
C102 C98 1.387 . S
C102 C101 1.409 . S
C102 H104 0.951 . S
C103 C98 1.491 . S
C103 C105 1.382 . S
C103 C107 1.404 1_455 S
H104 C102 0.951 . S
C105 C103 1.382 . S
C105 C106 1.390 . S
C105 H110 0.949 . S
C106 C105 1.390 . S
C106 C111 1.419 . S
C107 C103 1.404 1_655 S
C107 H108 0.950 . S
C107 C109 1.375 . S
H108 C107 0.950 . S
C109 C107 1.375 . S
C109 C111 1.369 1_655 S
C109 H113 0.950 . S
H110 C105 0.949 . S
C111 C106 1.419 . S
C111 C109 1.369 1_455 S
C111 H112 0.945 1_455 S
H112 C111 0.945 1_655 S
H113 C109 0.950 . S
H114 C115 0.949 . S
C115 H114 0.949 . S
C115 C116 1.395 . S
C115 C117 1.391 . S
C116 C115 1.395 . S
C116 C119 1.390 . S
C117 C115 1.391 . S
C117 C121 1.387 . S
C117 C122 1.491 . S
H118 C119 0.950 . S
C119 C116 1.390 . S
C119 H118 0.950 . S
C119 C120 1.378 . S
C120 C119 1.378 . S
C120 C121 1.409 . S
C121 C117 1.387 . S
C121 C120 1.409 . S
C121 H123 0.951 . S
C122 C117 1.491 . S
C122 C124 1.382 . S
C122 C126 1.404 1_545 S
H123 C121 0.951 . S
C124 C122 1.382 . S
C124 C125 1.390 . S
C124 H129 0.949 . S
C125 C124 1.390 . S
C125 C130 1.408 . S
C126 C122 1.404 1_565 S
C126 H127 0.950 . S
C126 C128 1.375 . S
H127 C126 0.950 . S
C128 C126 1.375 . S
C128 C130 1.377 1_565 S
C128 H132 0.950 . S
H129 C124 0.949 . S
C130 C125 1.408 . S
C130 C128 1.377 1_545 S
C130 H131 0.949 1_545 S
H131 C130 0.949 1_565 S
H132 C128 0.950 . S
H133 C134 0.949 . S
C134 H133 0.949 . S
C134 C135 1.395 . S
C134 C136 1.391 . S
C135 C134 1.395 . S
C135 C138 1.390 . S
C136 C134 1.391 . S
C136 C140 1.387 . S
C136 C141 1.491 . S
H137 C138 0.950 . S
C138 C135 1.390 . S
C138 H137 0.950 . S
C138 C139 1.378 . S
C139 C138 1.378 . S
C139 C140 1.409 . S
C140 C136 1.387 . S
C140 C139 1.409 . S
C140 H142 0.951 . S
C141 C136 1.491 . S
C141 C143 1.382 . S
C141 C145 1.404 . S
H142 C140 0.951 . S
C143 C141 1.382 . S
C143 C144 1.390 . S
C143 H148 0.949 . S
C144 C143 1.390 . S
C144 C149 1.399 . S
C145 C141 1.404 . S
C145 H146 0.950 . S
C145 C147 1.375 . S
H146 C145 0.950 . S
C147 C145 1.375 . S
C147 C149 1.382 . S
C147 H151 0.950 . S
H148 C143 0.949 . S
C149 C144 1.399 . S
C149 C147 1.382 . S
C149 H150 0.952 . S
H150 C149 0.952 . S
H151 C147 0.950 . S
Zn152 O158 1.969 1_455 S
Zn152 O159 1.965 . S
Zn152 O163 2.024 . S
Zn152 O168 1.969 1_455 S
Zn153 O160 1.969 . S
Zn153 O166 1.969 . S
Zn153 O167 1.965 1_455 S
Zn153 O169 2.024 1_455 S
C154 O155 1.229 1_455 S
C154 O163 1.058 . S
O155 C154 1.229 1_655 S
C156 O157 1.229 1_655 S
C156 O169 1.058 . S
O157 C156 1.229 1_455 S
O158 Zn152 1.969 1_655 S
O158 C161 1.267 1_655 S
O159 Zn152 1.965 . S
O159 C170 1.260 . S
O160 Zn153 1.969 . S
O160 C170 1.258 1_565 S
C161 O158 1.267 1_455 S
C161 O162 1.228 . S
O162 C161 1.228 . S
O163 Zn152 2.024 . S
O163 C154 1.058 . S
C164 O165 1.228 1_455 S
C164 O166 1.267 . S
O165 C164 1.228 1_655 S
O166 Zn153 1.969 . S
O166 C164 1.267 . S
O167 Zn153 1.965 1_655 S
O167 C171 1.260 1_565 S
O168 Zn152 1.969 1_655 S
O168 C171 1.258 . S
O169 Zn153 2.024 1_655 S
O169 C156 1.058 . S
C170 O159 1.260 . S
C170 O160 1.258 1_545 S
C171 O167 1.260 1_545 S
C171 O168 1.258 . S
Zn172 O178 1.969 1_545 S
Zn172 O179 1.965 . S
Zn172 O183 2.024 . S
Zn172 O188 1.969 1_545 S
Zn173 O180 1.969 . S
Zn173 O186 1.969 . S
Zn173 O187 1.965 1_545 S
Zn173 O189 2.024 1_545 S
C174 O175 1.229 1_545 S
C174 O183 1.058 . S
O175 C174 1.229 1_565 S
C176 O177 1.229 1_565 S
C176 O189 1.058 . S
O177 C176 1.229 1_545 S
O178 Zn172 1.969 1_565 S
O178 C181 1.267 1_565 S
O179 Zn172 1.965 . S
O179 C190 1.260 . S
O180 Zn173 1.969 . S
O180 C190 1.258 . S
C181 O178 1.267 1_545 S
C181 O182 1.228 . S
O182 C181 1.228 . S
O183 Zn172 2.024 . S
O183 C174 1.058 . S
C184 O185 1.228 1_545 S
C184 O186 1.267 . S
O185 C184 1.228 1_565 S
O186 Zn173 1.969 . S
O186 C184 1.267 . S
O187 Zn173 1.965 1_565 S
O187 C191 1.260 . S
O188 Zn172 1.969 1_565 S
O188 C191 1.258 . S
O189 Zn173 2.024 1_565 S
O189 C176 1.058 . S
C190 O179 1.260 . S
C190 O180 1.258 . S
C191 O187 1.260 . S
C191 O188 1.258 . S
Zn192 O198 1.969 . S
Zn192 O199 1.965 . S
Zn192 O203 2.024 . S
Zn192 O208 1.969 . S
Zn193 O200 1.969 . S
Zn193 O206 1.969 . S
Zn193 O207 1.965 . S
Zn193 O209 2.024 . S
C194 O195 1.229 . S
C194 O203 1.058 . S
O195 C194 1.229 . S
C196 O197 1.229 . S
C196 O209 1.058 . S
O197 C196 1.229 . S
O198 Zn192 1.969 . S
O198 C201 1.267 . S
O199 Zn192 1.965 . S
O199 C210 1.260 . S
O200 Zn193 1.969 . S
O200 C210 1.258 . S
C201 O198 1.267 . S
C201 O202 1.228 . S
O202 C201 1.228 . S
O203 Zn192 2.024 . S
O203 C194 1.058 . S
C204 O205 1.228 . S
C204 O206 1.267 . S
O205 C204 1.228 . S
O206 Zn193 1.969 . S
O206 C204 1.267 . S
O207 Zn193 1.965 . S
O207 C211 1.260 . S
O208 Zn192 1.969 . S
O208 C211 1.258 . S
O209 Zn193 2.024 . S
O209 C196 1.058 . S
C210 O199 1.260 . S
C210 O200 1.258 . S
C211 O207 1.260 . S
C211 O208 1.258 . S
Zn212 O218 1.969 . S
Zn212 O219 1.965 . S
Zn212 O223 2.024 . S
Zn212 O228 1.969 . S
Zn213 O220 1.969 . S
Zn213 O226 1.969 . S
Zn213 O227 1.965 . S
Zn213 O229 2.024 . S
C214 O215 1.229 . S
C214 O223 1.058 . S
O215 C214 1.229 . S
C216 O217 1.229 . S
C216 O229 1.058 . S
O217 C216 1.229 . S
O218 Zn212 1.969 . S
O218 C221 1.267 . S
O219 Zn212 1.965 . S
O219 C230 1.260 . S
O220 Zn213 1.969 . S
O220 C230 1.258 1_655 S
C221 O218 1.267 . S
C221 O222 1.228 . S
O222 C221 1.228 . S
O223 Zn212 2.024 . S
O223 C214 1.058 . S
C224 O225 1.228 . S
C224 O226 1.267 . S
O225 C224 1.228 . S
O226 Zn213 1.969 . S
O226 C224 1.267 . S
O227 Zn213 1.965 . S
O227 C231 1.260 1_655 S
O228 Zn212 1.969 . S
O228 C231 1.258 . S
O229 Zn213 2.024 . S
O229 C216 1.058 . S
C230 O219 1.260 . S
C230 O220 1.258 1_455 S
C231 O227 1.260 1_455 S
C231 O228 1.258 . S
C232 C233 1.391 . S
C232 C234 1.394 . S
C232 H248 0.931 . S
C233 C232 1.391 . S
C233 C237 1.376 . S
C234 C232 1.394 . S
C234 C235 1.369 . S
C234 C238 1.531 . S
C235 C234 1.369 . S
C235 C236 1.410 . S
C235 C243 1.503 . S
C236 C235 1.410 . S
C236 C237 1.392 . S
C236 C239 1.511 1_545 S
C237 C233 1.376 . S
C237 C236 1.392 . S
C237 H249 0.929 . S
C238 C234 1.531 . S
C238 H250 0.960 . S
C238 H251 0.962 . S
C238 H252 0.960 . S
C239 C236 1.511 1_565 S
C239 H253 0.961 . S
C239 H254 0.961 . S
C239 H255 0.961 . S
C240 C241 1.370 . S
C240 C242 1.363 . S
C240 H256 0.931 . S
C241 C240 1.370 . S
C241 C245 1.408 1_545 S
C242 C240 1.363 . S
C242 C243 1.370 . S
C242 C246 1.524 . S
C243 C235 1.503 . S
C243 C242 1.370 . S
C243 C244 1.403 1_545 S
C244 C243 1.403 1_565 S
C244 C245 1.404 . S
C244 C247 1.539 . S
C245 C241 1.408 1_565 S
C245 C244 1.404 . S
C245 H257 0.930 . S
C246 C242 1.524 . S
C246 H258 0.956 . S
C246 H259 0.961 . S
C246 H260 0.961 . S
C247 C244 1.539 . S
C247 H261 0.958 . S
C247 H262 0.961 . S
C247 H263 0.960 . S
H248 C232 0.931 . S
H249 C237 0.929 . S
H250 C238 0.960 . S
H251 C238 0.962 . S
H252 C238 0.960 . S
H253 C239 0.961 . S
H254 C239 0.961 . S
H255 C239 0.961 . S
H256 C240 0.931 . S
H257 C245 0.930 . S
H258 C246 0.956 . S
H259 C246 0.961 . S
H260 C246 0.961 . S
H261 C247 0.958 . S
H262 C247 0.961 . S
H263 C247 0.960 . S
C264 C265 1.391 . S
C264 C266 1.394 . S
C264 H280 0.931 . S
C265 C264 1.391 . S
C265 C269 1.376 . S
C266 C264 1.394 . S
C266 C267 1.369 . S
C266 C270 1.531 . S
C267 C266 1.369 . S
C267 C268 1.410 . S
C267 C275 1.503 . S
C268 C267 1.410 . S
C268 C269 1.392 . S
C268 C271 1.511 . S
C269 C265 1.376 . S
C269 C268 1.392 . S
C269 H281 0.929 . S
C270 C266 1.531 . S
C270 H282 0.960 . S
C270 H283 0.962 . S
C270 H284 0.960 . S
C271 C268 1.511 . S
C271 H285 0.961 . S
C271 H286 0.961 . S
C271 H287 0.961 . S
C272 C273 1.370 . S
C272 C274 1.363 . S
C272 H288 0.931 . S
C273 C272 1.370 . S
C273 C277 1.408 . S
C274 C272 1.363 . S
C274 C275 1.370 . S
C274 C278 1.524 . S
C275 C267 1.503 . S
C275 C274 1.370 . S
C275 C276 1.403 . S
C276 C275 1.403 . S
C276 C277 1.404 . S
C276 C279 1.539 . S
C277 C273 1.408 . S
C277 C276 1.404 . S
C277 H289 0.930 . S
C278 C274 1.524 . S
C278 H290 0.956 . S
C278 H291 0.961 . S
C278 H292 0.961 . S
C279 C276 1.539 . S
C279 H293 0.958 . S
C279 H294 0.961 . S
C279 H295 0.960 . S
H280 C264 0.931 . S
H281 C269 0.929 . S
H282 C270 0.960 . S
H283 C270 0.962 . S
H284 C270 0.960 . S
H285 C271 0.961 . S
H286 C271 0.961 . S
H287 C271 0.961 . S
H288 C272 0.931 . S
H289 C277 0.930 . S
H290 C278 0.956 . S
H291 C278 0.961 . S
H292 C278 0.961 . S
H293 C279 0.958 . S
H294 C279 0.961 . S
H295 C279 0.960 . S
C296 C297 1.391 . S
C296 C298 1.394 . S
C296 H312 0.931 . S
C297 C296 1.391 . S
C297 C301 1.376 . S
C298 C296 1.394 . S
C298 C299 1.369 . S
C298 C302 1.531 . S
C299 C298 1.369 . S
C299 C300 1.410 . S
C299 C307 1.503 . S
C300 C299 1.410 . S
C300 C301 1.392 . S
C300 C303 1.511 . S
C301 C297 1.376 . S
C301 C300 1.392 . S
C301 H313 0.929 . S
C302 C298 1.531 . S
C302 H314 0.960 . S
C302 H315 0.962 . S
C302 H316 0.960 . S
C303 C300 1.511 . S
C303 H317 0.961 . S
C303 H318 0.961 . S
C303 H319 0.961 . S
C304 C305 1.370 . S
C304 C306 1.363 . S
C304 H320 0.931 . S
C305 C304 1.370 . S
C305 C309 1.408 . S
C306 C304 1.363 . S
C306 C307 1.370 . S
C306 C310 1.524 . S
C307 C299 1.503 . S
C307 C306 1.370 . S
C307 C308 1.403 . S
C308 C307 1.403 . S
C308 C309 1.404 . S
C308 C311 1.539 . S
C309 C305 1.408 . S
C309 C308 1.404 . S
C309 H321 0.930 . S
C310 C306 1.524 . S
C310 H322 0.956 . S
C310 H323 0.961 . S
C310 H324 0.961 . S
C311 C308 1.539 . S
C311 H325 0.958 . S
C311 H326 0.961 . S
C311 H327 0.960 . S
H312 C296 0.931 . S
H313 C301 0.929 . S
H314 C302 0.960 . S
H315 C302 0.962 . S
H316 C302 0.960 . S
H317 C303 0.961 . S
H318 C303 0.961 . S
H319 C303 0.961 . S
H320 C304 0.931 . S
H321 C309 0.930 . S
H322 C310 0.956 . S
H323 C310 0.961 . S
H324 C310 0.961 . S
H325 C311 0.958 . S
H326 C311 0.961 . S
H327 C311 0.960 . S
C328 C329 1.391 . S
C328 C330 1.394 . S
C328 H344 0.931 . S
C329 C328 1.391 . S
C329 C333 1.353 1_455 S
C330 C328 1.394 . S
C330 C331 1.369 . S
C330 C334 1.531 . S
C331 C330 1.369 . S
C331 C332 1.410 1_455 S
C331 C339 1.503 . S
C332 C331 1.410 1_655 S
C332 C333 1.396 . S
C332 C335 1.511 . S
C333 C329 1.353 1_655 S
C333 C332 1.396 . S
C333 H345 0.949 . S
C334 C330 1.531 . S
C334 H346 0.960 . S
C334 H347 0.962 . S
C334 H348 0.960 . S
C335 C332 1.511 . S
C335 H349 0.961 . S
C335 H350 0.961 . S
C335 H351 0.961 . S
C336 C337 1.370 . S
C336 C338 1.363 . S
C336 H352 0.931 . S
C337 C336 1.370 . S
C337 C341 1.408 . S
C338 C336 1.363 . S
C338 C339 1.370 . S
C338 C342 1.524 . S
C339 C331 1.503 . S
C339 C338 1.370 . S
C339 C340 1.403 . S
C340 C339 1.403 . S
C340 C341 1.404 . S
C340 C343 1.539 . S
C341 C337 1.408 . S
C341 C340 1.404 . S
C341 H353 0.930 . S
C342 C338 1.524 . S
C342 H354 0.956 . S
C342 H355 0.961 1_455 S
C342 H356 0.961 . S
C343 C340 1.539 . S
C343 H357 0.958 . S
C343 H358 0.961 . S
C343 H359 0.960 . S
H344 C328 0.931 . S
H345 C333 0.949 . S
H346 C334 0.960 . S
H347 C334 0.962 . S
H348 C334 0.960 . S
H349 C335 0.961 . S
H350 C335 0.961 . S
H351 C335 0.961 . S
H352 C336 0.931 . S
H353 C341 0.930 . S
H354 C342 0.956 . S
H355 C342 0.961 1_655 S
H356 C342 0.961 . S
H357 C343 0.958 . S
H358 C343 0.961 . S
H359 C343 0.960 . S
C360 C361 1.391 . S
C360 C362 1.394 . S
C360 H376 0.931 . S
C361 C360 1.391 . S
C361 C365 1.376 . S
C362 C360 1.394 . S
C362 C363 1.369 . S
C362 C366 1.531 . S
C363 C362 1.369 . S
C363 C364 1.415 . S
C363 C371 1.503 . S
C364 C363 1.415 . S
C364 C365 1.401 . S
C364 C367 1.500 1_565 S
C365 C361 1.376 . S
C365 C364 1.401 . S
C365 H377 0.929 1_556 S
C366 C362 1.531 . S
C366 H378 0.988 . S
C366 H379 0.962 . S
C366 H380 0.960 . S
C367 C364 1.500 1_545 S
C367 H381 0.960 1_556 S
C367 H382 0.966 . S
C367 H383 0.961 . S
C368 C369 1.363 1_565 S
C368 C370 1.363 . S
C368 H384 0.931 . S
C369 C368 1.363 1_545 S
C369 C373 1.415 . S
C370 C368 1.363 . S
C370 C371 1.370 . S
C370 C374 1.524 . S
C371 C363 1.503 . S
C371 C370 1.370 . S
C371 C372 1.403 1_565 S
C372 C371 1.403 1_545 S
C372 C373 1.404 . S
C372 C375 1.539 . S
C373 C369 1.415 . S
C373 C372 1.404 . S
C373 H385 0.930 . S
C374 C370 1.524 . S
C374 H386 0.956 . S
C374 H387 0.961 . S
C374 H388 0.961 . S
C375 C372 1.539 . S
C375 H389 0.958 . S
C375 H390 0.961 . S
C375 H391 0.960 . S
H376 C360 0.931 . S
H377 C365 0.929 1_554 S
H378 C366 0.988 . S
H379 C366 0.962 . S
H380 C366 0.960 . S
H381 C367 0.960 1_554 S
H382 C367 0.966 . S
H383 C367 0.961 . S
H384 C368 0.931 . S
H385 C373 0.930 . S
H386 C374 0.956 . S
H387 C374 0.961 . S
H388 C374 0.961 . S
H389 C375 0.958 . S
H390 C375 0.961 . S
H391 C375 0.960 . S
C392 C393 1.391 . S
C392 C394 1.394 . S
C392 H408 0.931 . S
C393 C392 1.391 . S
C393 C397 1.376 . S
C394 C392 1.394 . S
C394 C395 1.369 . S
C394 C398 1.531 . S
C395 C394 1.369 . S
C395 C396 1.410 . S
C395 C403 1.503 . S
C396 C395 1.410 . S
C396 C397 1.392 . S
C396 C399 1.511 . S
C397 C393 1.376 . S
C397 C396 1.392 . S
C397 H409 0.929 . S
C398 C394 1.531 . S
C398 H410 0.960 . S
C398 H411 0.962 . S
C398 H412 0.960 . S
C399 C396 1.511 . S
C399 H413 0.961 . S
C399 H414 0.961 . S
C399 H415 0.961 . S
C400 C401 1.370 . S
C400 C402 1.363 . S
C400 H416 0.931 . S
C401 C400 1.370 . S
C401 C405 1.408 . S
C402 C400 1.363 . S
C402 C403 1.370 . S
C402 C406 1.524 . S
C403 C395 1.503 . S
C403 C402 1.370 . S
C403 C404 1.403 . S
C404 C403 1.403 . S
C404 C405 1.404 . S
C404 C407 1.539 . S
C405 C401 1.408 . S
C405 C404 1.404 . S
C405 H417 0.930 . S
C406 C402 1.524 . S
C406 H418 0.956 . S
C406 H419 0.961 . S
C406 H420 0.961 . S
C407 C404 1.539 . S
C407 H421 0.958 . S
C407 H422 0.961 . S
C407 H423 0.960 . S
H408 C392 0.931 . S
H409 C397 0.929 . S
H410 C398 0.960 . S
H411 C398 0.962 . S
H412 C398 0.960 . S
H413 C399 0.961 . S
H414 C399 0.961 . S
H415 C399 0.961 . S
H416 C400 0.931 . S
H417 C405 0.930 . S
H418 C406 0.956 . S
H419 C406 0.961 . S
H420 C406 0.961 . S
H421 C407 0.958 . S
H422 C407 0.961 . S
H423 C407 0.960 . S
C424 C425 1.391 . S
C424 C426 1.394 . S
C424 H440 0.931 . S
C425 C424 1.391 . S
C425 C429 1.376 . S
C426 C424 1.394 . S
C426 C427 1.369 . S
C426 C430 1.531 . S
C427 C426 1.369 . S
C427 C428 1.410 . S
C427 C435 1.503 . S
C428 C427 1.410 . S
C428 C429 1.392 . S
C428 C431 1.511 . S
C429 C425 1.376 . S
C429 C428 1.392 . S
C429 H441 0.929 . S
C430 C426 1.531 . S
C430 H442 0.960 . S
C430 H443 0.962 . S
C430 H444 0.960 . S
C431 C428 1.511 . S
C431 H445 0.961 . S
C431 H446 0.961 . S
C431 H447 0.961 . S
C432 C433 1.370 . S
C432 C434 1.363 . S
C432 H448 0.931 . S
C433 C432 1.370 . S
C433 C437 1.408 . S
C434 C432 1.363 . S
C434 C435 1.370 . S
C434 C438 1.524 . S
C435 C427 1.503 . S
C435 C434 1.370 . S
C435 C436 1.403 . S
C436 C435 1.403 . S
C436 C437 1.404 . S
C436 C439 1.539 . S
C437 C433 1.408 . S
C437 C436 1.404 . S
C437 H449 0.930 . S
C438 C434 1.524 . S
C438 H450 0.956 . S
C438 H451 0.961 . S
C438 H452 0.961 . S
C439 C436 1.539 . S
C439 H453 0.958 . S
C439 H454 0.961 . S
C439 H455 0.960 . S
H440 C424 0.931 . S
H441 C429 0.929 . S
H442 C430 0.960 . S
H443 C430 0.962 . S
H444 C430 0.960 . S
H445 C431 0.961 . S
H446 C431 0.961 . S
H447 C431 0.961 . S
H448 C432 0.931 . S
H449 C437 0.930 . S
H450 C438 0.956 . S
H451 C438 0.961 . S
H452 C438 0.961 . S
H453 C439 0.958 . S
H454 C439 0.961 . S
H455 C439 0.960 . S
C456 C457 1.391 1_455 S
C456 C458 1.394 . S
C456 H472 0.931 . S
C457 C456 1.391 1_655 S
C457 C461 1.376 . S
C458 C456 1.394 . S
C458 C459 1.369 1_455 S
C458 C462 1.531 . S
C459 C458 1.369 1_655 S
C459 C460 1.410 . S
C459 C467 1.503 . S
C460 C459 1.410 . S
C460 C461 1.392 . S
C460 C463 1.511 . S
C461 C457 1.376 . S
C461 C460 1.392 . S
C461 H473 0.929 . S
C462 C458 1.531 . S
C462 H474 0.960 . S
C462 H475 0.962 . S
C462 H476 0.960 . S
C463 C460 1.511 . S
C463 H477 0.961 . S
C463 H478 0.961 . S
C463 H479 0.961 . S
C464 C465 1.370 1_455 S
C464 C466 1.363 1_455 S
C464 H480 0.931 . S
C465 C464 1.370 1_655 S
C465 C469 1.408 . S
C466 C464 1.363 1_655 S
C466 C467 1.370 . S
C466 C470 1.524 1_655 S
C467 C459 1.503 . S
C467 C466 1.370 . S
C467 C468 1.403 . S
C468 C467 1.403 . S
C468 C469 1.404 . S
C468 C471 1.539 . S
C469 C465 1.408 . S
C469 C468 1.404 . S
C469 H481 0.930 . S
C470 C466 1.524 1_455 S
C470 H482 0.956 . S
C470 H483 0.961 1_455 S
C470 H484 0.961 . S
C471 C468 1.539 . S
C471 H485 0.958 . S
C471 H486 0.961 . S
C471 H487 0.960 . S
H472 C456 0.931 . S
H473 C461 0.929 . S
H474 C462 0.960 . S
H475 C462 0.962 . S
H476 C462 0.960 . S
H477 C463 0.961 . S
H478 C463 0.961 . S
H479 C463 0.961 . S
H480 C464 0.931 . S
H481 C469 0.930 . S
H482 C470 0.956 . S
H483 C470 0.961 1_655 S
H484 C470 0.961 . S
H485 C471 0.958 . S
H486 C471 0.961 . S
H487 C471 0.960 . S
C488 C489 1.416 . S
C488 C490 1.390 1_455 S
C488 H504 0.911 1_455 S
C489 C488 1.416 . S
C489 C493 1.376 . S
C490 C488 1.390 1_655 S
C490 C491 1.369 1_655 S
C490 C494 1.531 . S
C491 C490 1.369 1_455 S
C491 C492 1.410 . S
C491 C499 1.503 . S
C492 C491 1.410 . S
C492 C493 1.392 . S
C492 C495 1.511 . S
C493 C489 1.376 . S
C493 C492 1.392 . S
C493 H505 0.929 . S
C494 C490 1.531 . S
C494 H506 0.960 . S
C494 H507 0.962 . S
C494 H508 0.960 . S
C495 C492 1.511 . S
C495 H509 0.961 . S
C495 H510 0.961 . S
C495 H511 0.961 . S
C496 C497 1.370 1_655 S
C496 C498 1.363 1_655 S
C496 H512 0.931 . S
C497 C496 1.370 1_455 S
C497 C501 1.408 . S
C498 C496 1.363 1_455 S
C498 C499 1.370 . S
C498 C502 1.524 . S
C499 C491 1.503 . S
C499 C498 1.370 . S
C499 C500 1.403 . S
C500 C499 1.403 . S
C500 C501 1.404 . S
C500 C503 1.539 . S
C501 C497 1.408 . S
C501 C500 1.404 . S
C501 H513 0.930 . S
C502 C498 1.524 . S
C502 H514 0.956 1_455 S
C502 H515 0.961 . S
C502 H516 0.961 1_455 S
C503 C500 1.539 . S
C503 H517 0.958 . S
C503 H518 0.961 . S
C503 H519 0.960 . S
H504 C488 0.911 1_655 S
H505 C493 0.929 . S
H506 C494 0.960 . S
H507 C494 0.962 . S
H508 C494 0.960 . S
H509 C495 0.961 . S
H510 C495 0.961 . S
H511 C495 0.961 . S
H512 C496 0.931 . S
H513 C501 0.930 . S
H514 C502 0.956 1_655 S
H515 C502 0.961 . S
H516 C502 0.961 1_655 S
H517 C503 0.958 . S
H518 C503 0.961 . S
H519 C503 0.960 . S
C520 C521 1.391 . S
C520 C522 1.394 . S
C520 H536 0.931 . S
C521 C520 1.391 . S
C521 C525 1.350 1_545 S
C522 C520 1.394 . S
C522 C523 1.369 . S
C522 C526 1.531 . S
C523 C522 1.369 . S
C523 C524 1.410 1_545 S
C523 C531 1.503 . S
C524 C523 1.410 1_565 S
C524 C525 1.398 . S
C524 C527 1.511 . S
C525 C521 1.350 1_565 S
C525 C524 1.398 . S
C525 H537 0.950 . S
C526 C522 1.531 . S
C526 H538 0.960 . S
C526 H539 0.962 . S
C526 H540 0.960 . S
C527 C524 1.511 . S
C527 H541 0.961 . S
C527 H542 0.961 . S
C527 H543 0.961 . S
C528 C529 1.370 . S
C528 C530 1.363 . S
C528 H544 0.931 . S
C529 C528 1.370 . S
C529 C533 1.408 . S
C530 C528 1.363 . S
C530 C531 1.370 . S
C530 C534 1.524 . S
C531 C523 1.503 . S
C531 C530 1.370 . S
C531 C532 1.403 . S
C532 C531 1.403 . S
C532 C533 1.404 . S
C532 C535 1.539 . S
C533 C529 1.408 . S
C533 C532 1.404 . S
C533 H545 0.930 . S
C534 C530 1.524 . S
C534 H546 0.956 . S
C534 H547 0.961 1_545 S
C534 H548 0.961 . S
C535 C532 1.539 . S
C535 H549 0.958 . S
C535 H550 0.961 1_545 S
C535 H551 0.960 . S
H536 C520 0.931 . S
H537 C525 0.950 . S
H538 C526 0.960 . S
H539 C526 0.962 . S
H540 C526 0.960 . S
H541 C527 0.961 . S
H542 C527 0.961 . S
H543 C527 0.961 . S
H544 C528 0.931 . S
H545 C533 0.930 . S
H546 C534 0.956 . S
H547 C534 0.961 1_565 S
H548 C534 0.961 . S
H549 C535 0.958 . S
H550 C535 0.961 1_565 S
H551 C535 0.960 . S
C552 C553 1.391 . S
C552 C554 1.394 . S
C552 H568 0.931 . S
C553 C552 1.391 . S
C553 C557 1.376 . S
C554 C552 1.394 . S
C554 C555 1.369 . S
C554 C558 1.531 . S
C555 C554 1.369 . S
C555 C556 1.410 . S
C555 C563 1.503 . S
C556 C555 1.410 . S
C556 C557 1.392 . S
C556 C559 1.511 . S
C557 C553 1.376 . S
C557 C556 1.392 . S
C557 H569 0.929 . S
C558 C554 1.531 . S
C558 H570 0.960 . S
C558 H571 0.962 . S
C558 H572 0.960 . S
C559 C556 1.511 . S
C559 H573 0.961 . S
C559 H574 0.961 . S
C559 H575 0.961 . S
C560 C561 1.370 . S
C560 C562 1.363 . S
C560 H576 0.931 . S
C561 C560 1.370 . S
C561 C565 1.408 . S
C562 C560 1.363 . S
C562 C563 1.370 . S
C562 C566 1.524 . S
C563 C555 1.503 . S
C563 C562 1.370 . S
C563 C564 1.403 . S
C564 C563 1.403 . S
C564 C565 1.404 . S
C564 C567 1.539 . S
C565 C561 1.408 . S
C565 C564 1.404 . S
C565 H577 0.930 . S
C566 C562 1.524 . S
C566 H578 0.956 . S
C566 H579 0.961 . S
C566 H580 0.961 . S
C567 C564 1.539 . S
C567 H581 0.958 . S
C567 H582 0.961 . S
C567 H583 0.960 . S
H568 C552 0.931 . S
H569 C557 0.929 . S
H570 C558 0.960 . S
H571 C558 0.962 . S
H572 C558 0.960 . S
H573 C559 0.961 . S
H574 C559 0.961 . S
H575 C559 0.961 . S
H576 C560 0.931 . S
H577 C565 0.930 . S
H578 C566 0.956 . S
H579 C566 0.961 . S
H580 C566 0.961 . S
H581 C567 0.958 . S
H582 C567 0.961 . S
H583 C567 0.960 . S
C584 C585 1.391 . S
C584 C586 1.394 . S
C584 H600 0.931 . S
C585 C584 1.391 . S
C585 C589 1.376 . S
C586 C584 1.394 . S
C586 C587 1.369 . S
C586 C590 1.531 . S
C587 C586 1.369 . S
C587 C588 1.410 . S
C587 C595 1.503 . S
C588 C587 1.410 . S
C588 C589 1.392 . S
C588 C591 1.511 . S
C589 C585 1.376 . S
C589 C588 1.392 . S
C589 H601 0.929 . S
C590 C586 1.531 . S
C590 H602 0.960 . S
C590 H603 0.962 . S
C590 H604 0.960 . S
C591 C588 1.511 . S
C591 H605 0.961 . S
C591 H606 0.961 . S
C591 H607 0.961 . S
C592 C593 1.370 . S
C592 C594 1.363 . S
C592 H608 0.931 . S
C593 C592 1.370 . S
C593 C597 1.408 . S
C594 C592 1.363 . S
C594 C595 1.370 . S
C594 C598 1.524 . S
C595 C587 1.503 . S
C595 C594 1.370 . S
C595 C596 1.403 . S
C596 C595 1.403 . S
C596 C597 1.404 . S
C596 C599 1.539 . S
C597 C593 1.408 . S
C597 C596 1.404 . S
C597 H609 0.930 . S
C598 C594 1.524 . S
C598 H610 0.956 . S
C598 H611 0.961 . S
C598 H612 0.961 . S
C599 C596 1.539 . S
C599 H613 0.958 . S
C599 H614 0.961 . S
C599 H615 0.960 . S
H600 C584 0.931 . S
H601 C589 0.929 . S
H602 C590 0.960 . S
H603 C590 0.962 . S
H604 C590 0.960 . S
H605 C591 0.961 . S
H606 C591 0.961 . S
H607 C591 0.961 . S
H608 C592 0.931 . S
H609 C597 0.930 . S
H610 C598 0.956 . S
H611 C598 0.961 . S
H612 C598 0.961 . S
H613 C599 0.958 . S
H614 C599 0.961 . S
H615 C599 0.960 . S
C616 C617 1.365 1_455 S
C616 C618 1.399 . S
C616 H632 0.952 . S
C617 C616 1.365 1_655 S
C617 C621 1.376 . S
C618 C616 1.399 . S
C618 C619 1.369 1_455 S
C618 C622 1.531 . S
C619 C618 1.369 1_655 S
C619 C620 1.410 . S
C619 C627 1.503 . S
C620 C619 1.410 . S
C620 C621 1.392 . S
C620 C623 1.511 . S
C621 C617 1.376 . S
C621 C620 1.392 . S
C621 H633 0.929 . S
C622 C618 1.531 . S
C622 H634 0.960 . S
C622 H635 0.962 . S
C622 H636 0.960 . S
C623 C620 1.511 . S
C623 H637 0.961 . S
C623 H638 0.961 . S
C623 H639 0.961 . S
C624 C625 1.370 . S
C624 C626 1.363 . S
C624 H640 0.931 . S
C625 C624 1.370 . S
C625 C629 1.408 1_455 S
C626 C624 1.363 . S
C626 C627 1.370 1_455 S
C626 C630 1.524 . S
C627 C619 1.503 . S
C627 C626 1.370 1_655 S
C627 C628 1.403 . S
C628 C627 1.403 . S
C628 C629 1.404 . S
C628 C631 1.539 . S
C629 C625 1.408 1_655 S
C629 C628 1.404 . S
C629 H641 0.930 . S
C630 C626 1.524 . S
C630 H642 0.956 . S
C630 H643 0.961 . S
C630 H644 0.961 . S
C631 C628 1.539 . S
C631 H645 0.958 . S
C631 H646 0.961 . S
C631 H647 0.960 . S
H632 C616 0.952 . S
H633 C621 0.929 . S
H634 C622 0.960 . S
H635 C622 0.962 . S
H636 C622 0.960 . S
H637 C623 0.961 . S
H638 C623 0.961 . S
H639 C623 0.961 . S
H640 C624 0.931 . S
H641 C629 0.930 . S
H642 C630 0.956 . S
H643 C630 0.961 . S
H644 C630 0.961 . S
H645 C631 0.958 . S
H646 C631 0.961 . S
H647 C631 0.960 . S
C648 C649 1.391 1_545 S
C648 C650 1.394 . S
C648 H664 0.931 . S
C649 C648 1.391 1_565 S
C649 C653 1.376 . S
C650 C648 1.394 . S
C650 C651 1.369 1_545 S
C650 C654 1.531 . S
C651 C650 1.369 1_565 S
C651 C652 1.410 . S
C651 C659 1.506 . S
C652 C651 1.410 . S
C652 C653 1.392 . S
C652 C655 1.511 . S
C653 C649 1.376 . S
C653 C652 1.392 . S
C653 H665 0.929 . S
C654 C650 1.531 . S
C654 H666 0.960 . S
C654 H667 0.962 . S
C654 H668 0.960 . S
C655 C652 1.511 . S
C655 H669 0.961 . S
C655 H670 0.961 . S
C655 H671 0.961 . S
C656 C657 1.370 1_565 S
C656 C658 1.363 . S
C656 H672 0.931 . S
C657 C656 1.370 1_545 S
C657 C661 1.408 . S
C658 C656 1.363 . S
C658 C659 1.376 . S
C658 C662 1.524 . S
C659 C651 1.506 . S
C659 C658 1.376 . S
C659 C660 1.395 1_565 S
C660 C659 1.395 1_545 S
C660 C661 1.404 . S
C660 C663 1.539 . S
C661 C657 1.408 . S
C661 C660 1.404 . S
C661 H673 0.930 . S
C662 C658 1.524 . S
C662 H674 0.956 . S
C662 H675 0.961 . S
C662 H676 0.961 . S
C663 C660 1.539 . S
C663 H677 0.958 . S
C663 H678 0.961 . S
C663 H679 0.960 . S
H664 C648 0.931 . S
H665 C653 0.929 . S
H666 C654 0.960 . S
H667 C654 0.962 . S
H668 C654 0.960 . S
H669 C655 0.961 . S
H670 C655 0.961 . S
H671 C655 0.961 . S
H672 C656 0.931 . S
H673 C661 0.930 . S
H674 C662 0.956 . S
H675 C662 0.961 . S
H676 C662 0.961 . S
H677 C663 0.958 . S
H678 C663 0.961 . S
H679 C663 0.960 . S
C680 C681 1.391 . S
C680 C682 1.394 . S
C680 H696 0.931 . S
C681 C680 1.391 . S
C681 C685 1.376 . S
C682 C680 1.394 . S
C682 C683 1.369 . S
C682 C686 1.531 . S
C683 C682 1.369 . S
C683 C684 1.410 . S
C683 C691 1.503 . S
C684 C683 1.410 . S
C684 C685 1.392 . S
C684 C687 1.511 . S
C685 C681 1.376 . S
C685 C684 1.392 . S
C685 H697 0.929 . S
C686 C682 1.531 . S
C686 H698 0.960 . S
C686 H699 0.962 . S
C686 H700 0.960 . S
C687 C684 1.511 . S
C687 H701 0.961 . S
C687 H702 0.961 . S
C687 H703 0.961 . S
C688 C689 1.370 . S
C688 C690 1.363 . S
C688 H704 0.931 . S
C689 C688 1.370 . S
C689 C693 1.408 . S
C690 C688 1.363 . S
C690 C691 1.370 . S
C690 C694 1.524 . S
C691 C683 1.503 . S
C691 C690 1.370 . S
C691 C692 1.403 . S
C692 C691 1.403 . S
C692 C693 1.404 . S
C692 C695 1.539 . S
C693 C689 1.408 . S
C693 C692 1.404 . S
C693 H705 0.930 . S
C694 C690 1.524 . S
C694 H706 0.956 . S
C694 H707 0.961 . S
C694 H708 0.961 . S
C695 C692 1.539 . S
C695 H709 0.958 . S
C695 H710 0.961 . S
C695 H711 0.960 . S
H696 C680 0.931 . S
H697 C685 0.929 . S
H698 C686 0.960 . S
H699 C686 0.962 . S
H700 C686 0.960 . S
H701 C687 0.961 . S
H702 C687 0.961 . S
H703 C687 0.961 . S
H704 C688 0.931 . S
H705 C693 0.930 . S
H706 C694 0.956 . S
H707 C694 0.961 . S
H708 C694 0.961 . S
H709 C695 0.958 . S
H710 C695 0.961 . S
H711 C695 0.960 . S
C712 C713 1.391 . S
C712 C714 1.394 . S
C712 H728 0.931 . S
C713 C712 1.391 . S
C713 C717 1.376 . S
C714 C712 1.394 . S
C714 C715 1.369 . S
C714 C718 1.531 . S
C715 C714 1.369 . S
C715 C716 1.410 . S
C715 C723 1.503 . S
C716 C715 1.410 . S
C716 C717 1.392 . S
C716 C719 1.511 . S
C717 C713 1.376 . S
C717 C716 1.392 . S
C717 H729 0.929 . S
C718 C714 1.531 . S
C718 H730 0.960 . S
C718 H731 0.962 . S
C718 H732 0.960 1_556 S
C719 C716 1.511 . S
C719 H733 0.961 . S
C719 H734 0.961 . S
C719 H735 0.961 . S
C720 C721 1.370 . S
C720 C722 1.363 . S
C720 H736 0.931 . S
C721 C720 1.370 . S
C721 C725 1.408 . S
C722 C720 1.363 . S
C722 C723 1.370 . S
C722 C726 1.524 . S
C723 C715 1.503 . S
C723 C722 1.370 . S
C723 C724 1.403 . S
C724 C723 1.403 . S
C724 C725 1.404 . S
C724 C727 1.539 . S
C725 C721 1.408 . S
C725 C724 1.404 . S
C725 H737 0.930 . S
C726 C722 1.524 . S
C726 H738 0.956 . S
C726 H739 0.961 . S
C726 H740 0.961 . S
C727 C724 1.539 . S
C727 H741 0.958 1_556 S
C727 H742 0.961 . S
C727 H743 0.960 . S
H728 C712 0.931 . S
H729 C717 0.929 . S
H730 C718 0.960 . S
H731 C718 0.962 . S
H732 C718 0.960 1_554 S
H733 C719 0.961 . S
H734 C719 0.961 . S
H735 C719 0.961 . S
H736 C720 0.931 . S
H737 C725 0.930 . S
H738 C726 0.956 . S
H739 C726 0.961 . S
H740 C726 0.961 . S
H741 C727 0.958 1_554 S
H742 C727 0.961 . S
H743 C727 0.960 . S
C744 C745 1.391 1_556 S
C744 C746 1.394 . S
C744 H760 0.930 1_556 S
C745 C744 1.391 1_554 S
C745 C749 1.394 1_554 S
C746 C744 1.394 . S
C746 C747 1.369 . S
C746 C750 1.531 . S
C747 C746 1.369 . S
C747 C748 1.410 1_455 S
C747 C755 1.503 . S
C748 C747 1.410 1_655 S
C748 C749 1.391 1_655 S
C748 C751 1.511 . S
C749 C745 1.394 1_556 S
C749 C748 1.391 1_455 S
C749 H761 0.912 1_455 S
C750 C746 1.531 . S
C750 H762 0.960 . S
C750 H763 0.962 . S
C750 H764 0.966 . S
C751 C748 1.511 . S
C751 H765 0.961 . S
C751 H766 0.961 . S
C751 H767 0.961 . S
C752 C753 1.370 . S
C752 C754 1.363 . S
C752 H768 0.931 . S
C753 C752 1.370 . S
C753 C757 1.408 . S
C754 C752 1.363 . S
C754 C755 1.370 . S
C754 C758 1.524 . S
C755 C747 1.503 . S
C755 C754 1.370 . S
C755 C756 1.403 . S
C756 C755 1.403 . S
C756 C757 1.404 . S
C756 C759 1.539 1_556 S
C757 C753 1.408 . S
C757 C756 1.404 . S
C757 H769 0.930 . S
C758 C754 1.524 . S
C758 H770 0.956 . S
C758 H771 0.961 . S
C758 H772 0.961 . S
C759 C756 1.539 1_554 S
C759 H773 0.958 . S
C759 H774 0.943 1_455 S
C759 H775 0.960 . S
H760 C744 0.930 1_554 S
H761 C749 0.912 1_655 S
H762 C750 0.960 . S
H763 C750 0.962 . S
H764 C750 0.966 . S
H765 C751 0.961 . S
H766 C751 0.961 . S
H767 C751 0.961 . S
H768 C752 0.931 . S
H769 C757 0.930 . S
H770 C758 0.956 . S
H771 C758 0.961 . S
H772 C758 0.961 . S
H773 C759 0.958 . S
H774 C759 0.943 1_655 S
H775 C759 0.960 . S
C776 C777 1.391 1_554 S
C776 C778 1.394 1_544 S
C776 H792 0.931 1_545 S
C777 C776 1.391 1_556 S
C777 C781 1.376 . S
C778 C776 1.394 1_566 S
C778 C779 1.372 1_565 S
C778 C782 1.527 . S
C779 C778 1.372 1_545 S
C779 C780 1.410 . S
C779 C787 1.503 . S
C780 C779 1.410 . S
C780 C781 1.392 . S
C780 C783 1.511 . S
C781 C777 1.376 . S
C781 C780 1.392 . S
C781 H793 0.929 . S
C782 C778 1.527 . S
C782 H794 0.960 . S
C782 H795 0.962 1_556 S
C782 H796 0.960 . S
C783 C780 1.511 . S
C783 H797 0.961 . S
C783 H798 0.961 . S
C783 H799 0.961 . S
C784 C785 1.370 . S
C784 C786 1.363 . S
C784 H800 0.931 . S
C785 C784 1.370 . S
C785 C789 1.408 . S
C786 C784 1.363 . S
C786 C787 1.370 . S
C786 C790 1.524 . S
C787 C779 1.503 . S
C787 C786 1.370 . S
C787 C788 1.403 . S
C788 C787 1.403 . S
C788 C789 1.404 . S
C788 C791 1.539 1_545 S
C789 C785 1.408 . S
C789 C788 1.404 . S
C789 H801 0.930 1_545 S
C790 C786 1.524 . S
C790 H802 0.956 1_556 S
C790 H803 0.961 . S
C790 H804 0.961 1_556 S
C791 C788 1.539 1_565 S
C791 H805 0.958 . S
C791 H806 0.961 . S
C791 H807 0.941 1_565 S
H792 C776 0.931 1_565 S
H793 C781 0.929 . S
H794 C782 0.960 . S
H795 C782 0.962 1_554 S
H796 C782 0.960 . S
H797 C783 0.961 . S
H798 C783 0.961 . S
H799 C783 0.961 . S
H800 C784 0.931 . S
H801 C789 0.930 1_565 S
H802 C790 0.956 1_554 S
H803 C790 0.961 . S
H804 C790 0.961 1_554 S
H805 C791 0.958 . S
H806 C791 0.961 . S
H807 C791 0.941 1_545 S
C808 C809 1.391 . S
C808 C810 1.394 . S
C808 H824 0.931 . S
C809 C808 1.391 . S
C809 C813 1.376 . S
C810 C808 1.394 . S
C810 C811 1.369 . S
C810 C814 1.531 . S
C811 C810 1.369 . S
C811 C812 1.410 . S
C811 C819 1.503 . S
C812 C811 1.410 . S
C812 C813 1.392 . S
C812 C815 1.511 . S
C813 C809 1.376 . S
C813 C812 1.392 . S
C813 H825 0.929 . S
C814 C810 1.531 . S
C814 H826 0.960 . S
C814 H827 0.962 . S
C814 H828 0.960 . S
C815 C812 1.511 . S
C815 H829 0.961 . S
C815 H830 0.961 . S
C815 H831 0.961 . S
C816 C817 1.370 . S
C816 C818 1.363 . S
C816 H832 0.931 . S
C817 C816 1.370 . S
C817 C821 1.408 . S
C818 C816 1.363 . S
C818 C819 1.370 . S
C818 C822 1.524 1_556 S
C819 C811 1.503 . S
C819 C818 1.370 . S
C819 C820 1.403 . S
C820 C819 1.403 . S
C820 C821 1.404 . S
C820 C823 1.539 . S
C821 C817 1.408 . S
C821 C820 1.404 . S
C821 H833 0.930 . S
C822 C818 1.524 1_554 S
C822 H834 0.956 . S
C822 H835 0.961 . S
C822 H836 0.961 . S
C823 C820 1.539 . S
C823 H837 0.958 . S
C823 H838 0.961 . S
C823 H839 0.960 . S
H824 C808 0.931 . S
H825 C813 0.929 . S
H826 C814 0.960 . S
H827 C814 0.962 . S
H828 C814 0.960 . S
H829 C815 0.961 . S
H830 C815 0.961 . S
H831 C815 0.961 . S
H832 C816 0.931 . S
H833 C821 0.930 . S
H834 C822 0.956 . S
H835 C822 0.961 . S
H836 C822 0.961 . S
H837 C823 0.958 . S
H838 C823 0.961 . S
H839 C823 0.960 . S
C840 C841 1.391 1_554 S
C840 C842 1.394 1_554 S
C840 H856 0.931 . S
C841 C840 1.391 1_556 S
C841 C845 1.376 . S
C842 C840 1.394 1_556 S
C842 C843 1.369 . S
C842 C846 1.531 1_556 S
C843 C842 1.369 . S
C843 C844 1.410 . S
C843 C851 1.503 . S
C844 C843 1.410 . S
C844 C845 1.392 . S
C844 C847 1.511 . S
C845 C841 1.376 . S
C845 C844 1.392 . S
C845 H857 0.929 . S
C846 C842 1.531 1_554 S
C846 H858 0.960 1_554 S
C846 H859 0.962 . S
C846 H860 0.960 . S
C847 C844 1.511 . S
C847 H861 0.961 . S
C847 H862 0.961 . S
C847 H863 0.961 . S
C848 C849 1.370 . S
C848 C850 1.363 . S
C848 H864 0.931 . S
C849 C848 1.370 . S
C849 C853 1.408 . S
C850 C848 1.363 . S
C850 C851 1.370 . S
C850 C854 1.524 . S
C851 C843 1.503 . S
C851 C850 1.370 . S
C851 C852 1.403 . S
C852 C851 1.403 . S
C852 C853 1.404 . S
C852 C855 1.539 . S
C853 C849 1.408 . S
C853 C852 1.404 . S
C853 H865 0.930 . S
C854 C850 1.524 . S
C854 H866 0.956 1_556 S
C854 H867 0.961 . S
C854 H868 0.961 . S
C855 C852 1.539 . S
C855 H869 0.958 . S
C855 H870 0.961 . S
C855 H871 0.960 . S
H856 C840 0.931 . S
H857 C845 0.929 . S
H858 C846 0.960 1_556 S
H859 C846 0.962 . S
H860 C846 0.960 . S
H861 C847 0.961 . S
H862 C847 0.961 . S
H863 C847 0.961 . S
H864 C848 0.931 . S
H865 C853 0.930 . S
H866 C854 0.956 1_554 S
H867 C854 0.961 . S
H868 C854 0.961 . S
H869 C855 0.958 . S
H870 C855 0.961 . S
H871 C855 0.960 . S
C872 C873 1.391 . S
C872 C874 1.394 . S
C872 H888 0.931 . S
C873 C872 1.391 . S
C873 C877 1.376 1_655 S
C874 C872 1.394 . S
C874 C875 1.369 . S
C874 C878 1.531 . S
C875 C874 1.369 . S
C875 C876 1.410 1_655 S
C875 C883 1.503 . S
C876 C875 1.410 1_455 S
C876 C877 1.392 . S
C876 C879 1.511 . S
C877 C873 1.376 1_455 S
C877 C876 1.392 . S
C877 H889 0.929 . S
C878 C874 1.531 . S
C878 H890 0.960 . S
C878 H891 0.962 . S
C878 H892 0.960 . S
C879 C876 1.511 . S
C879 H893 0.961 . S
C879 H894 0.961 . S
C879 H895 0.961 . S
C880 C881 1.370 . S
C880 C882 1.363 . S
C880 H896 0.931 . S
C881 C880 1.370 . S
C881 C885 1.408 . S
C882 C880 1.363 . S
C882 C883 1.370 . S
C882 C886 1.524 . S
C883 C875 1.503 . S
C883 C882 1.370 . S
C883 C884 1.403 . S
C884 C883 1.403 . S
C884 C885 1.404 . S
C884 C887 1.539 . S
C885 C881 1.408 . S
C885 C884 1.404 . S
C885 H897 0.930 . S
C886 C882 1.524 . S
C886 H898 0.956 . S
C886 H899 0.957 . S
C886 H900 0.961 . S
C887 C884 1.539 . S
C887 H901 0.958 . S
C887 H902 0.961 . S
C887 H903 0.960 . S
H888 C872 0.931 . S
H889 C877 0.929 . S
H890 C878 0.960 . S
H891 C878 0.962 . S
H892 C878 0.960 . S
H893 C879 0.961 . S
H894 C879 0.961 . S
H895 C879 0.961 . S
H896 C880 0.931 . S
H897 C885 0.930 . S
H898 C886 0.956 . S
H899 C886 0.957 . S
H900 C886 0.961 . S
H901 C887 0.958 . S
H902 C887 0.961 . S
H903 C887 0.960 . S
C904 C905 1.391 . S
C904 C906 1.394 . S
C904 H920 0.931 . S
C905 C904 1.391 . S
C905 C909 1.376 . S
C906 C904 1.394 . S
C906 C907 1.369 . S
C906 C910 1.531 . S
C907 C906 1.369 . S
C907 C908 1.410 . S
C907 C915 1.503 . S
C908 C907 1.410 . S
C908 C909 1.392 . S
C908 C911 1.511 1_565 S
C909 C905 1.376 . S
C909 C908 1.392 . S
C909 H921 0.929 1_565 S
C910 C906 1.531 . S
C910 H922 0.960 . S
C910 H923 0.962 . S
C910 H924 0.960 . S
C911 C908 1.511 1_545 S
C911 H925 0.961 . S
C911 H926 0.961 . S
C911 H927 0.961 . S
C912 C913 1.370 1_545 S
C912 C914 1.368 . S
C912 H928 0.931 . S
C913 C912 1.370 1_565 S
C913 C917 1.408 . S
C914 C912 1.368 . S
C914 C915 1.340 1_545 S
C914 C918 1.552 . S
C915 C907 1.503 . S
C915 C914 1.340 1_565 S
C915 C916 1.403 . S
C916 C915 1.403 . S
C916 C917 1.404 . S
C916 C919 1.539 . S
C917 C913 1.408 . S
C917 C916 1.404 . S
C917 H929 0.930 . S
C918 C914 1.552 . S
C918 H930 0.956 . S
C918 H931 0.961 . S
C918 H932 0.961 . S
C919 C916 1.539 . S
C919 H933 0.958 . S
C919 H934 0.961 . S
C919 H935 0.960 . S
H920 C904 0.931 . S
H921 C909 0.929 1_545 S
H922 C910 0.960 . S
H923 C910 0.962 . S
H924 C910 0.960 . S
H925 C911 0.961 . S
H926 C911 0.961 . S
H927 C911 0.961 . S
H928 C912 0.931 . S
H929 C917 0.930 . S
H930 C918 0.956 . S
H931 C918 0.961 . S
H932 C918 0.961 . S
H933 C919 0.958 . S
H934 C919 0.961 . S
H935 C919 0.960 . S
C936 C937 1.391 . S
C936 C938 1.394 . S
C936 H952 0.931 . S
C937 C936 1.391 . S
C937 C941 1.376 . S
C938 C936 1.394 . S
C938 C939 1.369 . S
C938 C942 1.531 . S
C939 C938 1.369 . S
C939 C940 1.410 . S
C939 C947 1.503 . S
C940 C939 1.410 . S
C940 C941 1.392 . S
C940 C943 1.511 . S
C941 C937 1.376 . S
C941 C940 1.392 . S
C941 H953 0.929 . S
C942 C938 1.531 . S
C942 H954 0.960 . S
C942 H955 0.962 . S
C942 H956 0.960 . S
C943 C940 1.511 . S
C943 H957 0.961 . S
C943 H958 0.961 . S
C943 H959 0.961 . S
C944 C945 1.370 . S
C944 C946 1.363 . S
C944 H960 0.931 . S
C945 C944 1.370 . S
C945 C949 1.408 . S
C946 C944 1.363 . S
C946 C947 1.370 . S
C946 C950 1.524 . S
C947 C939 1.503 . S
C947 C946 1.370 . S
C947 C948 1.403 . S
C948 C947 1.403 . S
C948 C949 1.404 . S
C948 C951 1.539 . S
C949 C945 1.408 . S
C949 C948 1.404 . S
C949 H961 0.930 . S
C950 C946 1.524 . S
C950 H962 0.956 . S
C950 H963 0.961 . S
C950 H964 0.961 . S
C951 C948 1.539 . S
C951 H965 0.958 . S
C951 H966 0.961 . S
C951 H967 0.960 . S
H952 C936 0.931 . S
H953 C941 0.929 . S
H954 C942 0.960 . S
H955 C942 0.962 . S
H956 C942 0.960 . S
H957 C943 0.961 . S
H958 C943 0.961 . S
H959 C943 0.961 . S
H960 C944 0.931 . S
H961 C949 0.930 . S
H962 C950 0.956 . S
H963 C950 0.961 . S
H964 C950 0.961 . S
H965 C951 0.958 . S
H966 C951 0.961 . S
H967 C951 0.960 . S
C968 C969 1.391 . S
C968 C970 1.394 . S
C968 H984 0.931 . S
C969 C968 1.391 . S
C969 C973 1.376 . S
C970 C968 1.394 . S
C970 C971 1.369 . S
C970 C974 1.531 . S
C971 C970 1.369 . S
C971 C972 1.410 . S
C971 C979 1.503 . S
C972 C971 1.410 . S
C972 C973 1.392 . S
C972 C975 1.511 . S
C973 C969 1.376 . S
C973 C972 1.392 . S
C973 H985 0.929 . S
C974 C970 1.531 . S
C974 H986 0.960 . S
C974 H987 0.962 . S
C974 H988 0.960 . S
C975 C972 1.511 . S
C975 H989 0.961 . S
C975 H990 0.961 . S
C975 H991 0.961 . S
C976 C977 1.370 . S
C976 C978 1.363 . S
C976 H992 0.931 . S
C977 C976 1.370 . S
C977 C981 1.408 . S
C978 C976 1.363 . S
C978 C979 1.370 . S
C978 C982 1.524 . S
C979 C971 1.503 . S
C979 C978 1.370 . S
C979 C980 1.403 . S
C980 C979 1.403 . S
C980 C981 1.404 . S
C980 C983 1.539 . S
C981 C977 1.408 . S
C981 C980 1.404 . S
C981 H993 0.930 . S
C982 C978 1.524 . S
C982 H994 0.956 . S
C982 H995 0.961 . S
C982 H996 0.961 . S
C983 C980 1.539 . S
C983 H997 0.958 . S
C983 H998 0.961 . S
C983 H999 0.960 . S
H984 C968 0.931 . S
H985 C973 0.929 . S
H986 C974 0.960 . S
H987 C974 0.962 . S
H988 C974 0.960 . S
H989 C975 0.961 . S
H990 C975 0.961 . S
H991 C975 0.961 . S
H992 C976 0.931 . S
H993 C981 0.930 . S
H994 C982 0.956 . S
H995 C982 0.961 . S
H996 C982 0.961 . S
H997 C983 0.958 . S
H998 C983 0.961 . S
H999 C983 0.960 . S
C233 C125 1.436 . S
C241 C170 1.515 . S
C273 C190 1.533 . S
C265 C144 1.512 . S
C305 C210 1.522 . S
C297 C87 1.499 . S
C337 C230 1.514 . S
C329 C106 1.460 . S
C369 C171 1.520 . S
C361 C49 1.540 . S
C393 C68 1.518 . S
C401 C191 1.536 . S
C425 C11 1.489 . S
C433 C211 1.518 . S
C457 C30 1.496 . S
C465 C231 1.517 1_655 S
C497 C161 0.924 . S
C489 C97 0.867 . S
C529 C181 0.898 . S
C521 C116 0.970 . S
C561 C201 0.919 . S
C553 C135 0.874 . S
C585 C78 0.867 . S
C593 C221 0.923 . S
C617 C21 0.969 . S
C625 C164 0.888 . S
C657 C184 0.902 . S
C649 C40 0.958 . S
C689 C204 0.893 . S
C681 C59 0.970 . S
C713 C2 0.864 . S
C721 C224 0.938 . S
C745 C101 1.479 . S
C753 C154 1.461 . S
C777 C120 1.539 1_556 S
C785 C174 1.426 . S
C817 C194 1.431 . S
C809 C139 1.547 1_556 S
C849 C214 1.427 . S
C841 C82 1.535 1_556 S
C873 C25 1.548 . S
C881 C156 1.428 . S
C913 C176 1.437 . S
C905 C44 1.538 . S
C945 C196 1.456 . S
C937 C63 1.509 . S
C969 C6 1.523 . S
C977 C216 1.446 . S
