# Generated by pormake.
# Topology pyr, (3,6)-cn, num edge types: 1
# Building blocks:
#     Node 0, Type 0, BuildingBlock: BETDIP_clean_linker_0, # of connection points: 3
#     Node 1, Type 0, BuildingBlock: BETDIP_clean_linker_0, # of connection points: 3
#     Node 2, Type 0, BuildingBlock: BETDIP_clean_linker_0, # of connection points: 3
#     Node 3, Type 0, BuildingBlock: BETDIP_clean_linker_0, # of connection points: 3
#     Node 4, Type 0, BuildingBlock: BETDIP_clean_linker_0, # of connection points: 3
#     Node 5, Type 0, BuildingBlock: BETDIP_clean_linker_0, # of connection points: 3
#     Node 6, Type 0, BuildingBlock: BETDIP_clean_linker_0, # of connection points: 3
#     Node 7, Type 0, BuildingBlock: BETDIP_clean_linker_0, # of connection points: 3
#     Node 8, Type 1, BuildingBlock: MIDCAF_clean_sbu_0, # of connection points: 6
#     Node 9, Type 1, BuildingBlock: MIDCAF_clean_sbu_0, # of connection points: 6
#     Node 10, Type 1, BuildingBlock: MIDCAF_clean_sbu_0, # of connection points: 6
#     Node 11, Type 1, BuildingBlock: MIDCAF_clean_sbu_0, # of connection points: 6
#     Edge 12, Type (0, 1), BuildingBlock: KIFKEQ_clean_linker_1, # of connection points: 2
#     Edge 13, Type (0, 1), BuildingBlock: KIFKEQ_clean_linker_1, # of connection points: 2
#     Edge 14, Type (0, 1), BuildingBlock: KIFKEQ_clean_linker_1, # of connection points: 2
#     Edge 15, Type (0, 1), BuildingBlock: KIFKEQ_clean_linker_1, # of connection points: 2
#     Edge 16, Type (0, 1), BuildingBlock: KIFKEQ_clean_linker_1, # of connection points: 2
#     Edge 17, Type (0, 1), BuildingBlock: KIFKEQ_clean_linker_1, # of connection points: 2
#     Edge 18, Type (0, 1), BuildingBlock: KIFKEQ_clean_linker_1, # of connection points: 2
#     Edge 19, Type (0, 1), BuildingBlock: KIFKEQ_clean_linker_1, # of connection points: 2
#     Edge 20, Type (0, 1), BuildingBlock: KIFKEQ_clean_linker_1, # of connection points: 2
#     Edge 21, Type (0, 1), BuildingBlock: KIFKEQ_clean_linker_1, # of connection points: 2
#     Edge 22, Type (0, 1), BuildingBlock: KIFKEQ_clean_linker_1, # of connection points: 2
#     Edge 23, Type (0, 1), BuildingBlock: KIFKEQ_clean_linker_1, # of connection points: 2
#     Edge 24, Type (0, 1), BuildingBlock: KIFKEQ_clean_linker_1, # of connection points: 2
#     Edge 25, Type (0, 1), BuildingBlock: KIFKEQ_clean_linker_1, # of connection points: 2
#     Edge 26, Type (0, 1), BuildingBlock: KIFKEQ_clean_linker_1, # of connection points: 2
#     Edge 27, Type (0, 1), BuildingBlock: KIFKEQ_clean_linker_1, # of connection points: 2
#     Edge 28, Type (0, 1), BuildingBlock: KIFKEQ_clean_linker_1, # of connection points: 2
#     Edge 29, Type (0, 1), BuildingBlock: KIFKEQ_clean_linker_1, # of connection points: 2
#     Edge 30, Type (0, 1), BuildingBlock: KIFKEQ_clean_linker_1, # of connection points: 2
#     Edge 31, Type (0, 1), BuildingBlock: KIFKEQ_clean_linker_1, # of connection points: 2
#     Edge 32, Type (0, 1), BuildingBlock: KIFKEQ_clean_linker_1, # of connection points: 2
#     Edge 33, Type (0, 1), BuildingBlock: KIFKEQ_clean_linker_1, # of connection points: 2
#     Edge 34, Type (0, 1), BuildingBlock: KIFKEQ_clean_linker_1, # of connection points: 2
#     Edge 35, Type (0, 1), BuildingBlock: KIFKEQ_clean_linker_1, # of connection points: 2
# Relax obj value: 0.088
# Max RMSD: 0.178
# Mean RMSD: 0.136
data_MOF--net-pry--node1-MIDCAF_clean_sbu_0--node2-BETDIP_clean_linker_0--edge1-KIFKEQ_clean_linker_1
_symmetry_space_group_name_H-M    P1
_symmetry_Int_Tables_number       1
_symmetry_cell_setting            triclinic
loop_
_symmetry_equiv_pos_as_xyz
'x, y, z'
_cell_length_a     35.627135
_cell_length_b     35.159577
_cell_length_c     37.165521
_cell_angle_alpha  93.123911
_cell_angle_beta   86.006013
_cell_angle_gamma 96.631366
loop_
_atom_site_label
_atom_site_type_symbol
_atom_site_fract_x
_atom_site_fract_y
_atom_site_fract_z
_atom_type_partial_charge
H0 H 0.1595 0.21823 0.23875 0.0
H1 H 0.24895 0.21199 0.15547 0.0
H2 H 0.24192 0.13912 0.24558 0.0
H3 H 0.23742 0.2745 0.14873 0.0
C4 C 0.2069 0.27375 0.15323 0.0
C5 C 0.18489 0.20618 0.22809 0.0
C6 C 0.19858 0.17716 0.24627 0.0
C7 C 0.20317 0.21954 0.19583 0.0
C8 C 0.23555 0.20308 0.18114 0.0
C9 C 0.24952 0.17352 0.19871 0.0
C10 C 0.23096 0.16118 0.23142 0.0
N11 N 0.18705 0.24827 0.17829 0.0
H12 H 0.33588 0.87599 0.76049 0.0
H13 H 0.32488 0.79558 0.66942 0.0
H14 H 0.40657 0.78409 0.74665 0.0
H15 H 0.30668 0.84668 0.64408 0.0
C16 C 0.28918 0.85979 0.66526 0.0
C17 C 0.34441 0.85068 0.74564 0.0
C18 C 0.37348 0.83158 0.75776 0.0
C19 C 0.32719 0.83851 0.71354 0.0
C20 C 0.33834 0.80579 0.69386 0.0
C21 C 0.3673 0.78624 0.70539 0.0
C22 C 0.38466 0.7994 0.73734 0.0
N23 N 0.29879 0.85968 0.70181 0.0
H24 H 0.75676 0.39516 0.81897 0.0
H25 H 0.67035 0.30006 0.83225 0.0
H26 H 0.7647 0.31282 0.89904 0.0
H27 H 0.65961 0.30952 0.77525 0.0
C28 C 0.66628 0.34004 0.77169 0.0
C29 C 0.7458 0.36921 0.8324 0.0
C30 C 0.76487 0.357 0.86083 0.0
C31 C 0.71234 0.3483 0.82111 0.0
C32 C 0.69715 0.31532 0.83927 0.0
C33 C 0.71572 0.3027 0.86777 0.0
C34 C 0.74971 0.32339 0.87795 0.0
N35 N 0.69426 0.36193 0.79215 0.0
H36 H 0.81824 0.63905 0.31708 0.0
H37 H 0.89981 0.73421 0.34224 0.0
H38 H 0.79417 0.71875 0.40582 0.0
H39 H 0.91166 0.72511 0.27787 0.0
C40 C 0.91051 0.69407 0.27532 0.0
C41 C 0.82623 0.66418 0.33421 0.0
C42 C 0.80124 0.67611 0.3623 0.0
C43 C 0.86135 0.68501 0.32676 0.0
C44 C 0.87231 0.71828 0.34771 0.0
C45 C 0.84781 0.73077 0.37605 0.0
C46 C 0.8124 0.7096 0.38322 0.0
N47 N 0.88511 0.67096 0.29827 0.0
H48 H 0.88296 0.92496 0.9665 0.0
H49 H 0.97159 0.91433 0.88363 0.0
H50 H 0.89064 0.99367 0.8728 0.0
H51 H 0.95082 0.84996 0.89817 0.0
C52 C 0.95412 0.85376 0.92706 0.0
C53 C 0.89727 0.93451 0.94137 0.0
C54 C 0.88256 0.9621 0.92172 0.0
C55 C 0.92893 0.91683 0.92756 0.0
C56 C 0.94714 0.9279 0.89442 0.0
C57 C 0.93309 0.95508 0.87429 0.0
C58 C 0.90106 0.97229 0.88823 0.0
N59 N 0.94073 0.88628 0.9461 0.0
H60 H 0.63032 0.07347 0.36825 0.0
H61 H 0.63921 0.14996 0.46212 0.0
H62 H 0.56321 0.16849 0.38184 0.0
H63 H 0.65591 0.0961 0.48654 0.0
C64 C 0.67465 0.08558 0.46487 0.0
C65 C 0.62101 0.09792 0.38396 0.0
C66 C 0.59411 0.1192 0.37078 0.0
C67 C 0.63674 0.10806 0.41715 0.0
C68 C 0.62612 0.1407 0.43723 0.0
C69 C 0.60011 0.16294 0.42426 0.0
C70 C 0.58401 0.15183 0.39125 0.0
N71 N 0.66487 0.08637 0.42847 0.0
H72 H 0.4178 0.54762 0.13178 0.0
H73 H 0.49532 0.65099 0.13321 0.0
H74 H 0.40664 0.6348 0.0587 0.0
H75 H 0.51489 0.62951 0.18346 0.0
C76 C 0.50115 0.60095 0.18842 0.0
C77 C 0.42825 0.57499 0.12062 0.0
C78 C 0.40887 0.58921 0.09392 0.0
C79 C 0.4595 0.59688 0.13493 0.0
C80 C 0.47185 0.63343 0.12167 0.0
C81 C 0.45289 0.64773 0.09395 0.0
C82 C 0.42176 0.62481 0.08001 0.0
N83 N 0.47565 0.5815 0.16404 0.0
H84 H 0.04372 0.3962 0.59229 0.0
H85 H 0.12013 0.49796 0.61174 0.0
H86 H 0.15797 0.40459 0.54516 0.0
H87 H 0.06739 0.5228 0.6364 0.0
C88 C 0.05301 0.49741 0.64886 0.0
C89 C 0.07102 0.41268 0.58703 0.0
C90 C 0.09983 0.39608 0.56615 0.0
C91 C 0.07776 0.44933 0.60344 0.0
C92 C 0.11376 0.47017 0.59821 0.0
C93 C 0.14248 0.45451 0.57645 0.0
C94 C 0.13516 0.41765 0.56012 0.0
N95 N 0.04934 0.46201 0.62852 0.0
Zn96 Zn 0.99403 0.07427 0.58143 0.0
Zn97 Zn 0.04786 0.9838 0.49739 0.0
Zn98 Zn 0.01853 0.02958 0.53762 0.0
C99 C 0.06416 0.05091 0.46284 0.0
C100 C 0.97239 0.95774 0.50092 0.0
O101 O 0.02868 0.01302 0.5936 0.0
O102 O 0.98952 0.04741 0.62636 0.0
C103 C 0.0512 0.11711 0.54637 0.0
O104 O 0.05379 0.06315 0.49496 0.0
O105 O 0.06105 0.01536 0.45513 0.0
O106 O 0.00389 0.94497 0.49457 0.0
O107 O 0.97084 0.9923 0.51393 0.0
O108 O 0.03517 0.11637 0.57766 0.0
O109 O 0.04545 0.08796 0.52409 0.0
O110 O 0.9564 0.02536 0.52899 0.0
O111 O 0.9469 0.07992 0.55817 0.0
C112 C 0.93496 0.05209 0.53755 0.0
O113 O 0.05389 0.99603 0.56972 0.0
O114 O 0.08839 0.9698 0.52553 0.0
C115 C 0.01171 0.0219 0.62425 0.0
C116 C 0.08131 0.97627 0.55887 0.0
Zn117 Zn 0.49911 0.04366 1.00017 0.0
Zn118 Zn 0.57897 0.97892 0.07558 0.0
Zn119 Zn 0.5364 0.01104 0.0358 0.0
C120 C 0.62942 0.01799 0.02778 0.0
C121 C 0.53431 0.91995 0.03966 0.0
O122 O 0.49579 0.04238 0.07253 0.0
O123 O 0.45297 0.04471 0.03296 0.0
C124 C 0.56752 0.08466 0.99412 0.0
O125 O 0.5977 0.02586 0.01672 0.0
O126 O 0.62964 0.99877 0.0554 0.0
O127 O 0.56047 0.92549 0.06118 0.0
O128 O 0.52086 0.94852 0.02683 0.0
O129 O 0.53359 0.09194 0.99597 0.0
O130 O 0.57522 0.05181 0.00344 0.0
O131 O 0.50474 0.96704 0.99948 0.0
O132 O 0.49708 0.00709 0.95771 0.0
C133 C 0.49591 0.97311 0.96734 0.0
O134 O 0.52388 0.03104 0.0934 0.0
O135 O 0.56147 0.99986 0.12327 0.0
C136 C 0.46223 0.0488 0.0652 0.0
C137 C 0.53712 0.02319 0.12329 0.0
Zn138 Zn 0.55144 0.54204 0.54868 0.0
Zn139 Zn 0.45425 0.44446 0.48543 0.0
Zn140 Zn 0.50317 0.4959 0.51869 0.0
C141 C 0.50301 0.40253 0.51785 0.0
C142 C 0.49336 0.48964 0.4321 0.0
O143 O 0.47138 0.53846 0.55252 0.0
O144 O 0.51905 0.58218 0.56445 0.0
C145 C 0.55799 0.47401 0.57814 0.0
O146 O 0.51663 0.43666 0.52847 0.0
O147 O 0.47439 0.39773 0.49925 0.0
O148 O 0.46753 0.46201 0.43536 0.0
O149 O 0.50995 0.50483 0.46002 0.0
O150 O 0.5675 0.5093 0.58432 0.0
O151 O 0.53541 0.46272 0.55305 0.0
O152 O 0.54083 0.52488 0.47609 0.0
O153 O 0.58773 0.55253 0.50762 0.0
C154 C 0.57399 0.54354 0.47764 0.0
O155 O 0.44608 0.50848 0.53898 0.0
O156 O 0.40901 0.46149 0.51275 0.0
C157 C 0.48388 0.57209 0.56526 0.0
C158 C 0.41304 0.49079 0.53389 0.0
Zn159 Zn 0.11773 0.57927 0.95212 0.0
Zn160 Zn 0.00539 0.4593 0.05646 0.0
Zn161 Zn 0.07078 0.53698 0.99326 0.0
C162 C 0.08728 0.48533 0.04425 0.0
C163 C 0.99928 0.46375 0.97519 0.0
O164 O 0.05686 0.59669 0.00409 0.0
O165 O 0.09863 0.62943 0.96746 0.0
C166 C 0.16456 0.54388 0.98965 0.0
O167 O 0.10749 0.50694 0.02248 0.0
O168 O 0.053 0.49087 0.04747 0.0
O169 O 0.99032 0.44755 0.00515 0.0
O170 O 0.02517 0.49287 0.97125 0.0
O171 O 0.168 0.56866 0.96601 0.0
O172 O 0.13131 0.52966 0.00168 0.0
O173 O 0.05175 0.51446 0.94183 0.0
O174 O 0.09685 0.54883 0.90977 0.0
C175 C 0.06864 0.52346 0.91139 0.0
O176 O 0.04111 0.57164 0.03134 0.0
O177 O 0.01415 0.51917 0.05635 0.0
C178 C 0.07084 0.62868 0.9906 0.0
C179 C 0.01943 0.55559 0.05636 0.0
H180 H 0.16963 0.21794 0.3051 0.0
H181 H 0.18124 0.10255 0.26336 0.0
H182 H 0.13457 0.19238 0.35947 0.0
H183 H 0.14714 0.0773 0.31746 0.0
H184 H 0.0497 0.04067 0.39285 0.0
H185 H 0.08064 0.07496 0.34203 0.0
H186 H 0.14351 0.15361 0.41514 0.0
H187 H 0.11179 0.1189 0.46677 0.0
C188 C 0.16473 0.18718 0.30755 0.0
C189 C 0.17819 0.16225 0.27989 0.0
C190 C 0.14497 0.17262 0.33877 0.0
C191 C 0.13783 0.13285 0.34264 0.0
C192 C 0.15171 0.10809 0.31512 0.0
C193 C 0.17161 0.12257 0.28423 0.0
C194 C 0.06975 0.06561 0.39822 0.0
C195 C 0.07865 0.07687 0.43374 0.0
C196 C 0.08761 0.08515 0.36905 0.0
C197 C 0.1152 0.11641 0.37448 0.0
C198 C 0.12242 0.1295 0.41015 0.0
C199 C 0.10423 0.1098 0.43967 0.0
H200 H 0.44932 0.8368 0.76872 0.0
H201 H 0.34198 0.85891 0.82233 0.0
H202 H 0.48154 0.86217 0.82212 0.0
H203 H 0.37446 0.88549 0.87539 0.0
H204 H 0.44089 0.912 0.97563 0.0
H205 H 0.41197 0.87156 0.92645 0.0
H206 H 0.49483 0.92615 0.84963 0.0
H207 H 0.52308 0.96609 0.89833 0.0
C208 C 0.43248 0.84666 0.79203 0.0
C209 C 0.39297 0.84584 0.79107 0.0
C210 C 0.45104 0.86149 0.8226 0.0
C211 C 0.43065 0.8759 0.85314 0.0
C212 C 0.39104 0.8742 0.85258 0.0
C213 C 0.37246 0.85946 0.82192 0.0
C214 C 0.45349 0.91428 0.94834 0.0
C215 C 0.48427 0.94196 0.9407 0.0
C216 C 0.43671 0.89157 0.92013 0.0
C217 C 0.45088 0.8958 0.88398 0.0
C218 C 0.48329 0.92177 0.87702 0.0
C219 C 0.49954 0.94471 0.90496 0.0
H220 H 0.67335 0.41558 0.75494 0.0
H221 H 0.61988 0.30367 0.7225 0.0
H222 H 0.6464 0.44329 0.70555 0.0
H223 H 0.59356 0.3313 0.67196 0.0
H224 H 0.52304 0.40855 0.6088 0.0
H225 H 0.54841 0.37344 0.65538 0.0
H226 H 0.65567 0.444 0.64168 0.0
H227 H 0.62989 0.47953 0.59683 0.0
C228 C 0.656 0.39682 0.73709 0.0
C229 C 0.64904 0.35736 0.74232 0.0
C230 C 0.6407 0.41266 0.70854 0.0
C231 C 0.61833 0.38941 0.68428 0.0
C232 C 0.6106 0.35003 0.6901 0.0
C233 C 0.6258 0.33419 0.71889 0.0
C234 C 0.55221 0.41583 0.61542 0.0
C235 C 0.5744 0.44698 0.59977 0.0
C236 C 0.56676 0.39587 0.64209 0.0
C237 C 0.60379 0.40664 0.65302 0.0
C238 C 0.62665 0.43582 0.63495 0.0
C239 C 0.61204 0.45592 0.60894 0.0
H240 H 0.92309 0.61922 0.26493 0.0
H241 H 0.93751 0.7273 0.21297 0.0
H242 H 0.94824 0.5877 0.21032 0.0
H243 H 0.9614 0.6954 0.15728 0.0
H244 H 0.03943 0.63034 0.07757 0.0
H245 H 0.01334 0.66532 0.13016 0.0
H246 H 0.93112 0.56744 0.15187 0.0
H247 H 0.95838 0.53211 0.10049 0.0
C248 C 0.93155 0.63622 0.24167 0.0
C249 C 0.92829 0.67567 0.24299 0.0
C250 C 0.94563 0.61808 0.2102 0.0
C251 C 0.95634 0.63889 0.17917 0.0
C252 C 0.95369 0.67858 0.18077 0.0
C253 C 0.94001 0.69686 0.21254 0.0
C254 C 0.01556 0.61654 0.09347 0.0
C255 C 1.00116 0.57844 0.0853 0.0
C256 C 1.0005 0.6366 0.12351 0.0
C257 C 0.97047 0.61901 0.14557 0.0
C258 C 0.95494 0.5815 0.13612 0.0
C259 C 0.97035 0.56133 0.10651 0.0
H260 H 0.31656 0.20648 0.16649 0.0
H261 H 0.25727 0.09686 0.19442 0.0
H262 H 0.37012 0.17424 0.14001 0.0
H263 H 0.31083 0.06495 0.16876 0.0
H264 H 0.38774 0.02423 0.0712 0.0
H265 H 0.33801 0.05374 0.10685 0.0
H266 H 0.4223 0.13485 0.1556 0.0
H267 H 0.47258 0.10456 0.11972 0.0
C268 C 0.31497 0.17558 0.16708 0.0
C269 C 0.28255 0.15433 0.18265 0.0
C270 C 0.34587 0.15715 0.15234 0.0
C271 C 0.34489 0.11701 0.15244 0.0
C272 C 0.31254 0.09587 0.16815 0.0
C273 C 0.28188 0.11424 0.18307 0.0
C274 C 0.39574 0.04776 0.09021 0.0
C275 C 0.434 0.06201 0.09281 0.0
C276 C 0.36721 0.06472 0.11066 0.0
C277 C 0.37608 0.09688 0.1339 0.0
C278 C 0.41454 0.11031 0.13766 0.0
C279 C 0.44333 0.09274 0.11754 0.0
H280 H 0.23945 0.90119 0.70777 0.0
H281 H 0.26578 0.86086 0.59818 0.0
H282 H 0.18491 0.92964 0.68782 0.0
H283 H 0.21217 0.88926 0.57833 0.0
H284 H 0.09584 0.90307 0.55529 0.0
H285 H 0.14346 0.87526 0.58588 0.0
H286 H 0.16737 0.98159 0.64815 0.0
H287 H 0.11815 0.00928 0.61776 0.0
C288 C 0.23364 0.89847 0.67948 0.0
C289 C 0.25664 0.87849 0.6545 0.0
C290 C 0.20256 0.91489 0.66806 0.0
C291 C 0.1938 0.91121 0.63159 0.0
C292 C 0.21749 0.89191 0.60675 0.0
C293 C 0.2484 0.8758 0.61806 0.0
C294 C 0.11061 0.92024 0.57615 0.0
C295 C 0.10363 0.95837 0.58397 0.0
C296 C 0.13815 0.90444 0.59346 0.0
C297 C 0.16001 0.92653 0.61871 0.0
C298 C 0.1511 0.96389 0.62869 0.0
C299 C 0.12293 0.97971 0.61144 0.0
H300 H 0.78689 0.37014 0.92988 0.0
H301 H 0.82418 0.39336 0.81919 0.0
H302 H 0.84839 0.39809 0.94928 0.0
H303 H 0.88546 0.42309 0.83938 0.0
H304 H 0.96186 0.50797 0.93524 0.0
H305 H 0.9062 0.48577 0.90098 0.0
H306 H 0.92087 0.36873 0.92013 0.0
H307 H 0.97694 0.39071 0.95314 0.0
C308 C 0.80807 0.38129 0.90965 0.0
C309 C 0.80074 0.37865 0.87282 0.0
C310 C 0.84313 0.39757 0.92087 0.0
C311 C 0.8715 0.41228 0.89571 0.0
C312 C 0.86385 0.41181 0.85917 0.0
C313 C 0.82875 0.39496 0.84775 0.0
C314 C 0.9545 0.47749 0.93015 0.0
C315 C 0.97425 0.45098 0.9459 0.0
C316 C 0.92243 0.46486 0.91103 0.0
C317 C 0.9095 0.42563 0.90807 0.0
C318 C 0.93057 0.3991 0.92193 0.0
C319 C 0.96269 0.41165 0.94059 0.0
H320 H 0.78338 0.59795 0.35452 0.0
H321 H 0.73389 0.70231 0.3867 0.0
H322 H 0.72285 0.56096 0.36703 0.0
H323 H 0.67458 0.66488 0.40336 0.0
H324 H 0.568 0.5985 0.43025 0.0
H325 H 0.61961 0.6266 0.38991 0.0
H326 H 0.68877 0.54046 0.41802 0.0
H327 H 0.63621 0.51122 0.45544 0.0
C328 C 0.75962 0.6132 0.36403 0.0
C329 C 0.76386 0.65335 0.36974 0.0
C330 C 0.72485 0.59176 0.37175 0.0
C331 C 0.69363 0.60967 0.38659 0.0
C332 C 0.6976 0.64989 0.39143 0.0
C333 C 0.73211 0.67144 0.38274 0.0
C334 C 0.59348 0.58438 0.42577 0.0
C335 C 0.59821 0.55247 0.44522 0.0
C336 C 0.62345 0.60095 0.40343 0.0
C337 C 0.6589 0.58654 0.40135 0.0
C338 C 0.66208 0.55241 0.41845 0.0
C339 C 0.63194 0.53553 0.44006 0.0
H340 H 0.2401 0.33731 0.12104 0.0
H341 H 0.13036 0.27736 0.1493 0.0
H342 H 0.21013 0.38759 0.09565 0.0
H343 H 0.09997 0.32667 0.12214 0.0
H344 H 0.05691 0.44174 0.10058 0.0
H345 H 0.08464 0.3902 0.12727 0.0
H346 H 0.17853 0.40196 0.04689 0.0
H347 H 0.15164 0.454 0.02158 0.0
C348 C 0.20947 0.33475 0.12145 0.0
C349 C 0.18766 0.30348 0.13721 0.0
C350 C 0.19215 0.36346 0.10659 0.0
C351 C 0.1524 0.36135 0.10639 0.0
C352 C 0.13055 0.32978 0.12214 0.0
C353 C 0.14797 0.30129 0.13754 0.0
C354 C 0.08342 0.4331 0.08867 0.0
C355 C 0.10227 0.45224 0.05923 0.0
C356 C 0.09932 0.40341 0.10384 0.0
C357 C 0.13425 0.39191 0.08965 0.0
C358 C 0.15226 0.41049 0.05942 0.0
C359 C 0.13665 0.44032 0.04463 0.0
H360 H 0.68403 0.23342 0.84 0.0
H361 H 0.71003 0.29483 0.94068 0.0
H362 H 0.65457 0.17841 0.8734 0.0
H363 H 0.68126 0.23973 0.97385 0.0
H364 H 0.57216 0.16036 0.01103 0.0
H365 H 0.6133 0.2114 0.98186 0.0
H366 H 0.66942 0.12707 0.91611 0.0
H367 H 0.62814 0.07555 0.94608 0.0
C368 C 0.68366 0.23507 0.8692 0.0
C369 C 0.69925 0.26852 0.8877 0.0
C370 C 0.66727 0.20342 0.88827 0.0
C371 C 0.66582 0.20476 0.9262 0.0
C372 C 0.68197 0.23792 0.94463 0.0
C373 C 0.69858 0.26939 0.92561 0.0
C374 C 0.59386 0.15273 0.99091 0.0
C375 C 0.5971 0.11418 0.98073 0.0
C376 C 0.61747 0.18192 0.97427 0.0
C377 C 0.64442 0.17322 0.94658 0.0
C378 C 0.64869 0.13452 0.93726 0.0
C379 C 0.62543 0.10513 0.95456 0.0
H380 H 0.80841 0.79217 0.3932 0.0
H381 H 0.91348 0.74749 0.40964 0.0
H382 H 0.82882 0.85046 0.42953 0.0
H383 H 0.93355 0.8052 0.44612 0.0
H384 H 0.94732 0.8933 0.53442 0.0
H385 H 0.90976 0.83782 0.50754 0.0
H386 H 0.8874 0.90575 0.41979 0.0
H387 H 0.92561 0.9613 0.44667 0.0
C388 C 0.83567 0.79475 0.40487 0.0
C389 C 0.85949 0.76552 0.39862 0.0
C390 C 0.84729 0.82799 0.42549 0.0
C391 C 0.8825 0.83203 0.44083 0.0
C392 C 0.90601 0.80251 0.43499 0.0
C393 C 0.89473 0.7697 0.41389 0.0
C394 C 0.9328 0.8968 0.51034 0.0
C395 C 0.9387 0.93153 0.49283 0.0
C396 C 0.91173 0.86502 0.49478 0.0
C397 C 0.89618 0.8675 0.46144 0.0
C398 C 0.89896 0.90325 0.44565 0.0
C399 C 0.92047 0.93507 0.46112 0.0
H400 H 0.44015 0.77236 0.68776 0.0
H401 H 0.32462 0.72502 0.67304 0.0
H402 H 0.46275 0.71891 0.65161 0.0
H403 H 0.34748 0.67139 0.63592 0.0
H404 H 0.41655 0.56172 0.60764 0.0
H405 H 0.38418 0.61288 0.64033 0.0
H406 H 0.46298 0.69804 0.58742 0.0
H407 H 0.49509 0.64772 0.55572 0.0
C408 C 0.41953 0.75039 0.67696 0.0
C409 C 0.38058 0.75299 0.6834 0.0
C410 C 0.43248 0.71989 0.65589 0.0
C411 C 0.4069 0.69099 0.64059 0.0
C412 C 0.36787 0.69313 0.64738 0.0
C413 C 0.35483 0.72398 0.66837 0.0
C414 C 0.42622 0.59139 0.60253 0.0
C415 C 0.45868 0.6008 0.57965 0.0
C416 C 0.40783 0.62066 0.62125 0.0
C417 C 0.4217 0.65954 0.61717 0.0
C418 C 0.45226 0.66849 0.59203 0.0
C419 C 0.47054 0.63958 0.5737 0.0
H420 H 0.89614 0.95607 0.81276 0.0
H421 H 0.00823 0.97066 0.85232 0.0
H422 H 0.92341 0.9653 0.7514 0.0
H423 H 0.03569 0.97983 0.79058 0.0
H424 H 0.04975 0.05019 0.68192 0.0
H425 H 0.03523 0.03002 0.74377 0.0
H426 H 0.96349 0.93156 0.70384 0.0
H427 H 0.9784 0.95185 0.64196 0.0
C428 C 0.92662 0.96151 0.80833 0.0
C429 C 0.95002 0.96285 0.83736 0.0
C430 C 0.94229 0.96619 0.77313 0.0
C431 C 0.98174 0.97268 0.76609 0.0
C432 C 0.00522 0.97464 0.79517 0.0
C433 C 0.98952 0.96942 0.83043 0.0
C434 C 0.0325 0.02319 0.68634 0.0
C435 C 0.01566 0.00216 0.65733 0.0
C436 C 0.0239 0.01179 0.72174 0.0
C437 C 0.9977 0.97958 0.72867 0.0
C438 C 0.98342 0.95678 0.69929 0.0
C439 C 0.99242 0.96796 0.66387 0.0
H440 H 0.57501 0.1656 0.31898 0.0
H441 H 0.57458 0.04646 0.34221 0.0
H442 H 0.54938 0.14654 0.26092 0.0
H443 H 0.55195 0.02749 0.28325 0.0
H444 H 0.49813 0.99411 0.18268 0.0
H445 H 0.50341 0.02045 0.24447 0.0
H446 H 0.56805 0.12271 0.20375 0.0
H447 H 0.56029 0.09699 0.14219 0.0
C448 C 0.56927 0.13531 0.3119 0.0
C449 C 0.57721 0.10765 0.33548 0.0
C450 C 0.55497 0.12433 0.27823 0.0
C451 C 0.54853 0.08537 0.26691 0.0
C452 C 0.55577 0.05776 0.29089 0.0
C453 C 0.56959 0.06871 0.32467 0.0
C454 C 0.51178 0.02301 0.1871 0.0
C455 C 0.52827 0.04382 0.1578 0.0
C456 C 0.51561 0.03786 0.22254 0.0
C457 C 0.53715 0.07339 0.2295 0.0
C458 C 0.55104 0.09544 0.19983 0.0
C459 C 0.54645 0.08084 0.16436 0.0
H460 H 0.54669 0.62909 0.24206 0.0
H461 H 0.4659 0.53303 0.21291 0.0
H462 H 0.55187 0.60152 0.30044 0.0
H463 H 0.46976 0.50653 0.27099 0.0
H464 H 0.4982 0.45013 0.36738 0.0
H465 H 0.50699 0.4762 0.30753 0.0
H466 H 0.51596 0.59114 0.35636 0.0
H467 H 0.50822 0.56459 0.41615 0.0
C468 C 0.5302 0.60208 0.24809 0.0
C469 C 0.50597 0.58332 0.22291 0.0
C470 C 0.53294 0.58638 0.28157 0.0
C471 C 0.51131 0.55168 0.29055 0.0
C472 C 0.48752 0.53281 0.26493 0.0
C473 C 0.48503 0.54828 0.23155 0.0
C474 C 0.50269 0.48094 0.36518 0.0
C475 C 0.50292 0.50543 0.39624 0.0
C476 C 0.50747 0.49596 0.33092 0.0
C477 C 0.51172 0.53587 0.32694 0.0
C478 C 0.51329 0.56031 0.35823 0.0
C479 C 0.50897 0.54518 0.39253 0.0
H480 H 0.07855 0.55345 0.69665 0.0
H481 H 0.01361 0.4419 0.69037 0.0
H482 H 0.07524 0.55147 0.76261 0.0
H483 H 0.0101 0.44034 0.75652 0.0
H484 H 1.00078 0.52394 0.88192 0.0
H485 H 0.98945 0.51197 0.81765 0.0
H486 H 0.10131 0.47674 0.79793 0.0
H487 H 0.11201 0.48723 0.86213 0.0
C488 C 0.06295 0.52894 0.70942 0.0
C489 C 0.04649 0.49784 0.68852 0.0
C490 C 0.06112 0.5278 0.74697 0.0
C491 C 0.04234 0.49579 0.76417 0.0
C492 C 0.02452 0.4653 0.74356 0.0
C493 C 0.02665 0.46625 0.70588 0.0
C494 C 0.02176 0.51113 0.8643 0.0
C495 C 0.05672 0.50529 0.877 0.0
C496 C 0.01559 0.50496 0.82752 0.0
C497 C 0.04457 0.49344 0.80329 0.0
C498 C 0.07852 0.48524 0.81638 0.0
C499 C 0.08451 0.49104 0.85299 0.0
H500 H 0.82575 0.98175 0.88193 0.0
H501 H 0.85752 0.97946 0.99185 0.0
H502 H 0.76704 0.00641 0.90351 0.0
H503 H 0.79739 1.00071 0.01358 0.0
H504 H 0.69556 0.05396 0.05075 0.0
H505 H 0.75856 0.04856 0.02226 0.0
H506 H 0.70793 0.98783 0.93007 0.0
H507 H 0.64523 0.99604 0.95782 0.0
C508 C 0.8205 0.98674 0.91074 0.0
C509 C 0.8468 0.97848 0.93504 0.0
C510 C 0.78627 1.00037 0.92322 0.0
C511 C 0.77689 0.00563 0.96044 0.0
C512 C 0.80348 0.99787 0.98469 0.0
C513 C 0.83795 0.98484 0.9722 0.0
C514 C 0.69813 0.04099 0.02369 0.0
C515 C 0.66564 0.02578 0.00629 0.0
C516 C 0.73425 0.03709 0.00759 0.0
C517 C 0.7388 0.01666 0.97416 0.0
C518 C 0.70603 0.00396 0.95564 0.0
C519 C 0.66987 0.00879 0.97144 0.0
H520 H 0.70262 0.09052 0.53063 0.0
H521 H 0.72873 0.05263 0.42021 0.0
H522 H 0.7648 0.07682 0.54665 0.0
H523 H 0.79128 0.03859 0.43649 0.0
H524 H 0.88999 0.99335 0.5028 0.0
H525 H 0.82565 0.99569 0.48305 0.0
H526 H 0.8294 0.11347 0.52304 0.0
H527 H 0.8928 0.11161 0.54164 0.0
C528 C 0.72149 0.07874 0.5099 0.0
C529 C 0.71102 0.07313 0.47415 0.0
C530 C 0.75703 0.07088 0.51906 0.0
C531 C 0.78289 0.05685 0.49276 0.0
C532 C 0.77179 0.04921 0.45729 0.0
C533 C 0.73615 0.05752 0.44798 0.0
C534 C 0.87722 0.01976 0.50677 0.0
C535 C 0.89668 0.05213 0.52388 0.0
C536 C 0.84042 0.02109 0.49563 0.0
C537 C 0.82246 0.05467 0.50197 0.0
C538 C 0.84226 0.08703 0.51835 0.0
C539 C 0.87875 0.08584 0.52902 0.0
H540 H 0.34074 0.61005 0.11627 0.0
H541 H 0.39489 0.52601 0.0487 0.0
H542 H 0.27951 0.58499 0.09395 0.0
H543 H 0.33323 0.50081 0.02571 0.0
H544 H 0.23462 0.54043 0.9568 0.0
H545 H 0.29341 0.53815 0.98625 0.0
H546 H 0.23007 0.52524 0.08904 0.0
H547 H 0.17117 0.52725 0.05954 0.0
C548 C 0.33915 0.58554 0.09721 0.0
C549 C 0.37207 0.56987 0.08394 0.0
C550 C 0.30422 0.57101 0.08467 0.0
C551 C 0.30173 0.54086 0.05826 0.0
C552 C 0.33454 0.52401 0.04616 0.0
C553 C 0.3696 0.53832 0.05916 0.0
C554 C 0.23324 0.536 0.98551 0.0
C555 C 0.19854 0.53437 0.00597 0.0
C556 C 0.26679 0.53433 0.00229 0.0
C557 C 0.26616 0.53172 0.03989 0.0
C558 C 0.23118 0.52729 0.05999 0.0
C559 C 0.19755 0.52835 0.0431 0.0
H560 H 0.18822 0.46828 0.51573 0.0
H561 H 0.1848 0.48429 0.63183 0.0
H562 H 0.25553 0.49167 0.51222 0.0
H563 H 0.25236 0.50775 0.62839 0.0
H564 H 0.37472 0.46562 0.5947 0.0
H565 H 0.30742 0.46955 0.60988 0.0
H566 H 0.30535 0.54741 0.52423 0.0
H567 H 0.3729 0.54334 0.5093 0.0
C568 C 0.20178 0.47763 0.5404 0.0
C569 C 0.18146 0.4744 0.57401 0.0
C570 C 0.24019 0.49135 0.53843 0.0
C571 C 0.25916 0.50163 0.57007 0.0
C572 C 0.23841 0.50007 0.60361 0.0
C573 C 0.1998 0.48681 0.60555 0.0
C574 C 0.36021 0.48508 0.58047 0.0
C575 C 0.37868 0.50449 0.55117 0.0
C576 C 0.3217 0.48729 0.58902 0.0
C577 C 0.30108 0.50844 0.56791 0.0
C578 C 0.32054 0.53068 0.54073 0.0
C579 C 0.35916 0.52871 0.53242 0.0
H580 H 0.96203 0.78322 0.89846 0.0
H581 H 0.97874 0.85356 0.99617 0.0
H582 H 0.98708 0.73049 0.92554 0.0
H583 H 0.00514 0.80053 0.02303 0.0
H584 H 0.10366 0.70264 0.99261 0.0
H585 H 0.07183 0.75995 0.98687 0.0
H586 H 0.96353 0.69126 0.99502 0.0
H587 H 0.99518 0.63401 0.00206 0.0
C588 C 0.97081 0.78725 0.92587 0.0
C589 C 0.9682 0.8223 0.94529 0.0
C590 C 0.98497 0.75707 0.94136 0.0
C591 C 0.9975 0.76144 0.97642 0.0
C592 C 0.99519 0.7965 0.99606 0.0
C593 C 0.98017 0.82668 0.98072 0.0
C594 C 0.073 0.70006 0.99469 0.0
C595 C 0.05186 0.66387 0.99761 0.0
C596 C 0.05485 0.73285 0.99151 0.0
C597 C 0.01535 0.72983 0.9905 0.0
C598 C 0.99404 0.69421 0.99609 0.0
C599 C 0.01215 0.66154 1.00017 0.0
H600 H 0.40629 0.69803 0.07211 0.0
H601 H 0.52416 0.68738 0.08557 0.0
H602 H 0.42354 0.76037 0.04796 0.0
H603 H 0.54106 0.75191 0.06524 0.0
H604 H 0.57074 0.86064 0.01196 0.0
H605 H 0.54945 0.79282 0.0185 0.0
H606 H 0.44121 0.82274 0.06477 0.0
H607 H 0.462 0.89002 0.05537 0.0
C608 C 0.43603 0.70879 0.06982 0.0
C609 C 0.46384 0.68705 0.08053 0.0
C610 C 0.44588 0.74519 0.0565 0.0
C611 C 0.48376 0.7617 0.05451 0.0
C612 C 0.51162 0.74012 0.06549 0.0
C613 C 0.50184 0.70321 0.078 0.0
C614 C 0.54184 0.85228 0.02202 0.0
C615 C 0.5178 0.88023 0.03287 0.0
C616 C 0.52983 0.8135 0.02654 0.0
C617 C 0.49391 0.80197 0.04321 0.0
C618 C 0.46895 0.83006 0.05159 0.0
C619 C 0.4807 0.86879 0.04611 0.0
H620 H 0.12028 0.35977 0.50129 0.0
H621 H 0.06986 0.33845 0.60846 0.0
H622 H 0.11731 0.29011 0.48773 0.0
H623 H 0.06684 0.26989 0.59492 0.0
H624 H 0.10546 0.15768 0.58346 0.0
H625 H 0.12259 0.22666 0.58154 0.0
H626 H 0.06022 0.22876 0.48635 0.0
H627 H 0.04323 0.15903 0.48815 0.0
C628 C 0.10832 0.34027 0.52173 0.0
C629 C 0.09508 0.35452 0.55585 0.0
C630 C 0.10662 0.30062 0.51395 0.0
C631 C 0.09241 0.27487 0.54049 0.0
C632 C 0.07846 0.28921 0.57417 0.0
C633 C 0.07972 0.32849 0.58175 0.0
C634 C 0.09697 0.17258 0.56111 0.0
C635 C 0.07298 0.15331 0.53605 0.0
C636 C 0.10649 0.21203 0.56018 0.0
C637 C 0.09198 0.23294 0.53428 0.0
C638 C 0.07168 0.21315 0.50658 0.0
C639 C 0.06218 0.17333 0.50747 0.0
H640 H 0.57656 0.17205 0.49569 0.0
H641 H 0.60267 0.23429 0.39853 0.0
H642 H 0.55881 0.23077 0.52816 0.0
H643 H 0.58568 0.29289 0.431 0.0
H644 H 0.5783 0.39851 0.5032 0.0
H645 H 0.60724 0.33972 0.48555 0.0
H646 H 0.50307 0.27194 0.51873 0.0
H647 H 0.47391 0.3306 0.53526 0.0
C648 C 0.5789 0.19838 0.48145 0.0
C649 C 0.5907 0.19861 0.44454 0.0
C650 C 0.56881 0.23189 0.49999 0.0
C651 C 0.57124 0.26646 0.48219 0.0
C652 C 0.58407 0.26683 0.44556 0.0
C653 C 0.59338 0.23323 0.42688 0.0
C654 C 0.56219 0.37102 0.50821 0.0
C655 C 0.52392 0.36903 0.5207 0.0
C656 C 0.57858 0.33742 0.49768 0.0
C657 C 0.55723 0.30131 0.50038 0.0
C658 C 0.52023 0.29933 0.51644 0.0
C659 C 0.50359 0.33288 0.5261 0.0
loop_
_geom_bond_atom_site_label_1
_geom_bond_atom_site_label_2
_geom_bond_distance
_geom_bond_site_symmetry_2
_ccdc_geom_bond_type
H0 C5 0.930 . S
H1 C8 0.930 . S
H2 C10 0.930 . S
H3 C4 1.016 . S
C4 H3 1.016 . S
C4 N11 1.286 . S
C5 H0 0.930 . S
C5 C6 1.397 . S
C5 C7 1.361 . S
C6 C5 1.397 . S
C6 C10 1.390 . S
C7 C5 1.361 . S
C7 C8 1.393 . S
C7 N11 1.413 . S
C8 H1 0.930 . S
C8 C7 1.393 . S
C8 C9 1.399 . S
C9 C8 1.399 . S
C9 C10 1.381 . S
C10 H2 0.930 . S
C10 C6 1.390 . S
C10 C9 1.381 . S
N11 C4 1.286 . S
N11 C7 1.413 . S
H12 C17 0.930 . S
H13 C20 0.930 . S
H14 C22 0.930 . S
H15 C16 1.016 . S
C16 H15 1.016 . S
C16 N23 1.286 . S
C17 H12 0.930 . S
C17 C18 1.397 . S
C17 C19 1.361 . S
C18 C17 1.397 . S
C18 C22 1.390 . S
C19 C17 1.361 . S
C19 C20 1.393 . S
C19 N23 1.413 . S
C20 H13 0.930 . S
C20 C19 1.393 . S
C20 C21 1.399 . S
C21 C20 1.399 . S
C21 C22 1.381 . S
C22 H14 0.930 . S
C22 C18 1.390 . S
C22 C21 1.381 . S
N23 C16 1.286 . S
N23 C19 1.413 . S
H24 C29 0.930 . S
H25 C32 0.930 . S
H26 C34 0.930 . S
H27 C28 1.016 . S
C28 H27 1.016 . S
C28 N35 1.286 . S
C29 H24 0.930 . S
C29 C30 1.397 . S
C29 C31 1.361 . S
C30 C29 1.397 . S
C30 C34 1.390 . S
C31 C29 1.361 . S
C31 C32 1.393 . S
C31 N35 1.413 . S
C32 H25 0.930 . S
C32 C31 1.393 . S
C32 C33 1.399 . S
C33 C32 1.399 . S
C33 C34 1.381 . S
C34 H26 0.930 . S
C34 C30 1.390 . S
C34 C33 1.381 . S
N35 C28 1.286 . S
N35 C31 1.413 . S
H36 C41 0.930 . S
H37 C44 0.930 . S
H38 C46 0.930 . S
H39 C40 1.016 . S
C40 H39 1.016 . S
C40 N47 1.286 . S
C41 H36 0.930 . S
C41 C42 1.397 . S
C41 C43 1.361 . S
C42 C41 1.397 . S
C42 C46 1.390 . S
C43 C41 1.361 . S
C43 C44 1.393 . S
C43 N47 1.413 . S
C44 H37 0.930 . S
C44 C43 1.393 . S
C44 C45 1.399 . S
C45 C44 1.399 . S
C45 C46 1.381 . S
C46 H38 0.930 . S
C46 C42 1.390 . S
C46 C45 1.381 . S
N47 C40 1.286 . S
N47 C43 1.413 . S
H48 C53 0.930 . S
H49 C56 0.930 . S
H50 C58 0.930 . S
H51 C52 1.023 . S
C52 H51 1.023 . S
C52 N59 1.286 . S
C53 H48 0.930 . S
C53 C54 1.397 . S
C53 C55 1.361 . S
C54 C53 1.397 . S
C54 C58 1.390 . S
C55 C53 1.361 . S
C55 C56 1.393 . S
C55 N59 1.413 . S
C56 H49 0.930 . S
C56 C55 1.393 . S
C56 C57 1.399 . S
C57 C56 1.399 . S
C57 C58 1.381 . S
C58 H50 0.930 . S
C58 C54 1.390 . S
C58 C57 1.381 . S
N59 C52 1.286 . S
N59 C55 1.413 . S
H60 C65 0.930 . S
H61 C68 0.930 . S
H62 C70 0.930 . S
H63 C64 1.016 . S
C64 H63 1.016 . S
C64 N71 1.286 . S
C65 H60 0.930 . S
C65 C66 1.397 . S
C65 C67 1.361 . S
C66 C65 1.397 . S
C66 C70 1.390 . S
C67 C65 1.361 . S
C67 C68 1.393 . S
C67 N71 1.413 . S
C68 H61 0.930 . S
C68 C67 1.393 . S
C68 C69 1.399 . S
C69 C68 1.399 . S
C69 C70 1.381 . S
C70 H62 0.930 . S
C70 C66 1.390 . S
C70 C69 1.381 . S
N71 C64 1.286 . S
N71 C67 1.413 . S
H72 C77 0.930 . S
H73 C80 0.930 . S
H74 C82 0.930 . S
H75 C76 1.016 . S
C76 H75 1.016 . S
C76 N83 1.286 . S
C77 H72 0.930 . S
C77 C78 1.397 . S
C77 C79 1.361 . S
C78 C77 1.397 . S
C78 C82 1.390 . S
C79 C77 1.361 . S
C79 C80 1.393 . S
C79 N83 1.413 . S
C80 H73 0.930 . S
C80 C79 1.393 . S
C80 C81 1.399 . S
C81 C80 1.399 . S
C81 C82 1.381 . S
C82 H74 0.930 . S
C82 C78 1.390 . S
C82 C81 1.381 . S
N83 C76 1.286 . S
N83 C79 1.413 . S
H84 C89 0.930 . S
H85 C92 0.930 . S
H86 C94 0.930 . S
H87 C88 1.016 . S
C88 H87 1.016 . S
C88 N95 1.286 . S
C89 H84 0.930 . S
C89 C90 1.397 . S
C89 C91 1.361 . S
C90 C89 1.397 . S
C90 C94 1.390 . S
C91 C89 1.361 . S
C91 C92 1.393 . S
C91 N95 1.413 . S
C92 H85 0.930 . S
C92 C91 1.393 . S
C92 C93 1.399 . S
C93 C92 1.399 . S
C93 C94 1.381 . S
C94 H86 0.930 . S
C94 C90 1.390 . S
C94 C93 1.381 . S
N95 C88 1.286 . S
N95 C91 1.413 . S
Zn96 O102 1.920 . S
Zn96 O108 1.898 . S
Zn96 O111 1.905 . S
Zn97 O105 1.905 1_565 S
Zn97 O106 1.898 . S
Zn97 O114 1.920 . S
Zn98 O101 2.080 1_455 S
Zn98 O104 2.114 . S
Zn98 O107 2.120 1_445 S
Zn98 O109 2.120 . S
Zn98 O110 2.114 1_455 S
Zn98 O113 2.080 . S
C99 O104 1.166 . S
C99 O105 1.182 . S
C100 O106 1.167 1_655 S
C100 O107 1.299 . S
O101 Zn98 2.080 1_655 S
O101 C115 1.305 . S
O102 Zn96 1.920 . S
O102 C115 1.234 . S
C103 O108 1.167 1_455 S
C103 O109 1.299 . S
O104 Zn98 2.114 . S
O104 C99 1.166 . S
O105 Zn97 1.905 1_545 S
O105 C99 1.182 . S
O106 Zn97 1.898 . S
O106 C100 1.167 1_455 S
O107 Zn98 2.120 1_665 S
O107 C100 1.299 . S
O108 Zn96 1.898 . S
O108 C103 1.167 1_655 S
O109 Zn98 2.120 . S
O109 C103 1.299 . S
O110 Zn98 2.114 1_655 S
O110 C112 1.166 . S
O111 Zn96 1.905 . S
O111 C112 1.182 . S
C112 O110 1.166 . S
C112 O111 1.182 . S
O113 Zn98 2.080 . S
O113 C116 1.305 1_545 S
O114 Zn97 1.920 . S
O114 C116 1.234 . S
C115 O101 1.305 . S
C115 O102 1.234 . S
C116 O113 1.305 1_565 S
C116 O114 1.234 . S
Zn117 O123 1.920 1_556 S
Zn117 O129 1.898 . S
Zn117 O132 1.905 . S
Zn118 O126 1.905 . S
Zn118 O127 1.898 . S
Zn118 O135 1.920 . S
Zn119 O122 2.080 . S
Zn119 O125 2.114 1_545 S
Zn119 O128 2.120 1_545 S
Zn119 O130 2.120 . S
Zn119 O131 2.114 1_544 S
Zn119 O134 2.080 . S
C120 O125 1.166 . S
C120 O126 1.182 . S
C121 O127 1.167 . S
C121 O128 1.299 . S
O122 Zn119 2.080 . S
O122 C136 1.305 . S
O123 Zn117 1.920 1_554 S
O123 C136 1.234 . S
C124 O129 1.167 . S
C124 O130 1.299 1_556 S
O125 Zn119 2.114 1_565 S
O125 C120 1.166 . S
O126 Zn118 1.905 . S
O126 C120 1.182 . S
O127 Zn118 1.898 . S
O127 C121 1.167 . S
O128 Zn119 2.120 1_565 S
O128 C121 1.299 . S
O129 Zn117 1.898 . S
O129 C124 1.167 . S
O130 Zn119 2.120 . S
O130 C124 1.299 1_554 S
O131 Zn119 2.114 1_566 S
O131 C133 1.166 . S
O132 Zn117 1.905 . S
O132 C133 1.182 1_545 S
C133 O131 1.166 . S
C133 O132 1.182 1_565 S
O134 Zn119 2.080 . S
O134 C137 1.305 . S
O135 Zn118 1.920 . S
O135 C137 1.234 1_565 S
C136 O122 1.305 . S
C136 O123 1.234 . S
C137 O134 1.305 . S
C137 O135 1.234 1_545 S
Zn138 O144 1.920 . S
Zn138 O150 1.898 . S
Zn138 O153 1.905 . S
Zn139 O147 1.905 . S
Zn139 O148 1.898 . S
Zn139 O156 1.920 . S
Zn140 O143 2.080 . S
Zn140 O146 2.114 . S
Zn140 O149 2.120 . S
Zn140 O151 2.120 . S
Zn140 O152 2.114 . S
Zn140 O155 2.080 . S
C141 O146 1.166 . S
C141 O147 1.182 . S
C142 O148 1.167 . S
C142 O149 1.299 . S
O143 Zn140 2.080 . S
O143 C157 1.305 . S
O144 Zn138 1.920 . S
O144 C157 1.234 . S
C145 O150 1.167 . S
C145 O151 1.299 . S
O146 Zn140 2.114 . S
O146 C141 1.166 . S
O147 Zn139 1.905 . S
O147 C141 1.182 . S
O148 Zn139 1.898 . S
O148 C142 1.167 . S
O149 Zn140 2.120 . S
O149 C142 1.299 . S
O150 Zn138 1.898 . S
O150 C145 1.167 . S
O151 Zn140 2.120 . S
O151 C145 1.299 . S
O152 Zn140 2.114 . S
O152 C154 1.166 . S
O153 Zn138 1.905 . S
O153 C154 1.182 . S
C154 O152 1.166 . S
C154 O153 1.182 . S
O155 Zn140 2.080 . S
O155 C158 1.305 . S
O156 Zn139 1.920 . S
O156 C158 1.234 . S
C157 O143 1.305 . S
C157 O144 1.234 . S
C158 O155 1.305 . S
C158 O156 1.234 . S
Zn159 O165 1.920 . S
Zn159 O171 1.898 . S
Zn159 O174 1.905 . S
Zn160 O168 1.905 1_655 S
Zn160 O169 1.898 . S
Zn160 O177 1.920 . S
Zn161 O164 2.080 1_554 S
Zn161 O167 2.114 . S
Zn161 O170 2.120 1_454 S
Zn161 O172 2.120 . S
Zn161 O173 2.114 1_554 S
Zn161 O176 2.080 . S
C162 O167 1.166 . S
C162 O168 1.182 . S
C163 O169 1.167 1_556 S
C163 O170 1.299 . S
O164 Zn161 2.080 1_556 S
O164 C178 1.305 . S
O165 Zn159 1.920 . S
O165 C178 1.234 . S
C166 O171 1.167 1_554 S
C166 O172 1.299 . S
O167 Zn161 2.114 . S
O167 C162 1.166 . S
O168 Zn160 1.905 1_455 S
O168 C162 1.182 . S
O169 Zn160 1.898 . S
O169 C163 1.167 1_554 S
O170 Zn161 2.120 1_656 S
O170 C163 1.299 . S
O171 Zn159 1.898 . S
O171 C166 1.167 1_556 S
O172 Zn161 2.120 . S
O172 C166 1.299 . S
O173 Zn161 2.114 1_556 S
O173 C175 1.166 . S
O174 Zn159 1.905 . S
O174 C175 1.182 . S
C175 O173 1.166 . S
C175 O174 1.182 . S
O176 Zn161 2.080 . S
O176 C179 1.328 . S
O177 Zn160 1.920 . S
O177 C179 1.219 1_655 S
C178 O164 1.305 . S
C178 O165 1.234 . S
C179 O176 1.328 . S
C179 O177 1.219 1_455 S
H180 C188 0.950 . S
H181 C193 0.950 . S
H182 C190 0.950 . S
H183 C192 0.950 . S
H184 C194 0.950 . S
H185 C196 0.950 . S
H186 C198 0.950 . S
H187 C199 0.950 . S
C188 H180 0.950 . S
C188 C189 1.386 . S
C188 C190 1.391 . S
C189 C188 1.386 . S
C189 C193 1.393 . S
C190 H182 0.950 . S
C190 C188 1.391 . S
C190 C191 1.400 . S
C191 C190 1.400 . S
C191 C192 1.398 . S
C191 C197 1.491 . S
C192 H183 0.950 . S
C192 C191 1.398 . S
C192 C193 1.391 . S
C193 H181 0.950 . S
C193 C189 1.393 . S
C193 C192 1.391 . S
C194 H184 0.950 . S
C194 C195 1.386 . S
C194 C196 1.391 . S
C195 C194 1.386 . S
C195 C199 1.393 . S
C196 H185 0.950 . S
C196 C194 1.391 . S
C196 C197 1.400 . S
C197 C191 1.491 . S
C197 C196 1.400 . S
C197 C198 1.398 . S
C198 H186 0.950 . S
C198 C197 1.398 . S
C198 C199 1.391 . S
C199 H187 0.950 . S
C199 C195 1.393 . S
C199 C198 1.391 . S
H200 C208 0.950 . S
H201 C213 0.950 . S
H202 C210 0.950 . S
H203 C212 0.950 . S
H204 C214 0.950 . S
H205 C216 0.950 . S
H206 C218 0.950 . S
H207 C219 0.950 . S
C208 H200 0.950 . S
C208 C209 1.386 . S
C208 C210 1.391 . S
C209 C208 1.386 . S
C209 C213 1.393 . S
C210 H202 0.950 . S
C210 C208 1.391 . S
C210 C211 1.400 . S
C211 C210 1.400 . S
C211 C212 1.398 . S
C211 C217 1.491 . S
C212 H203 0.950 . S
C212 C211 1.398 . S
C212 C213 1.391 . S
C213 H201 0.950 . S
C213 C209 1.393 . S
C213 C212 1.391 . S
C214 H204 0.950 . S
C214 C215 1.386 . S
C214 C216 1.391 . S
C215 C214 1.386 . S
C215 C219 1.393 . S
C216 H205 0.950 . S
C216 C214 1.391 . S
C216 C217 1.400 . S
C217 C211 1.491 . S
C217 C216 1.400 . S
C217 C218 1.398 . S
C218 H206 0.950 . S
C218 C217 1.398 . S
C218 C219 1.391 . S
C219 H207 0.950 . S
C219 C215 1.393 . S
C219 C218 1.391 . S
H220 C228 0.950 . S
H221 C233 0.950 . S
H222 C230 0.950 . S
H223 C232 0.950 . S
H224 C234 0.950 . S
H225 C236 0.950 . S
H226 C238 0.950 . S
H227 C239 0.950 . S
C228 H220 0.950 . S
C228 C229 1.386 . S
C228 C230 1.391 . S
C229 C228 1.386 . S
C229 C233 1.393 . S
C230 H222 0.950 . S
C230 C228 1.391 . S
C230 C231 1.400 . S
C231 C230 1.400 . S
C231 C232 1.398 . S
C231 C237 1.491 . S
C232 H223 0.950 . S
C232 C231 1.398 . S
C232 C233 1.391 . S
C233 H221 0.950 . S
C233 C229 1.393 . S
C233 C232 1.391 . S
C234 H224 0.950 . S
C234 C235 1.386 . S
C234 C236 1.391 . S
C235 C234 1.386 . S
C235 C239 1.393 . S
C236 H225 0.950 . S
C236 C234 1.391 . S
C236 C237 1.400 . S
C237 C231 1.491 . S
C237 C236 1.400 . S
C237 C238 1.398 . S
C238 H226 0.950 . S
C238 C237 1.398 . S
C238 C239 1.391 . S
C239 H227 0.950 . S
C239 C235 1.393 . S
C239 C238 1.391 . S
H240 C248 0.950 . S
H241 C253 0.950 . S
H242 C250 0.950 . S
H243 C252 0.950 . S
H244 C254 0.950 . S
H245 C256 0.943 1_455 S
H246 C258 0.950 . S
H247 C259 0.950 . S
C248 H240 0.950 . S
C248 C249 1.386 . S
C248 C250 1.391 . S
C249 C248 1.386 . S
C249 C253 1.393 . S
C250 H242 0.950 . S
C250 C248 1.391 . S
C250 C251 1.400 . S
C251 C250 1.400 . S
C251 C252 1.398 . S
C251 C257 1.491 . S
C252 H243 0.950 . S
C252 C251 1.398 . S
C252 C253 1.391 . S
C253 H241 0.950 . S
C253 C249 1.393 . S
C253 C252 1.391 . S
C254 H244 0.950 . S
C254 C255 1.386 1_455 S
C254 C256 1.385 1_455 S
C255 C254 1.386 1_655 S
C255 C259 1.393 . S
C256 H245 0.943 1_655 S
C256 C254 1.385 1_655 S
C256 C257 1.413 . S
C257 C251 1.491 . S
C257 C256 1.413 . S
C257 C258 1.398 . S
C258 H246 0.950 . S
C258 C257 1.398 . S
C258 C259 1.391 . S
C259 H247 0.950 . S
C259 C255 1.393 . S
C259 C258 1.391 . S
H260 C268 0.950 . S
H261 C273 0.950 . S
H262 C270 0.950 . S
H263 C272 0.950 . S
H264 C274 0.950 . S
H265 C276 0.950 . S
H266 C278 0.950 . S
H267 C279 0.950 . S
C268 H260 0.950 . S
C268 C269 1.386 . S
C268 C270 1.391 . S
C269 C268 1.386 . S
C269 C273 1.393 . S
C270 H262 0.950 . S
C270 C268 1.391 . S
C270 C271 1.400 . S
C271 C270 1.400 . S
C271 C272 1.398 . S
C271 C277 1.491 . S
C272 H263 0.950 . S
C272 C271 1.398 . S
C272 C273 1.391 . S
C273 H261 0.950 . S
C273 C269 1.393 . S
C273 C272 1.391 . S
C274 H264 0.950 . S
C274 C275 1.386 . S
C274 C276 1.391 . S
C275 C274 1.386 . S
C275 C279 1.393 . S
C276 H265 0.950 . S
C276 C274 1.391 . S
C276 C277 1.400 . S
C277 C271 1.491 . S
C277 C276 1.400 . S
C277 C278 1.398 . S
C278 H266 0.950 . S
C278 C277 1.398 . S
C278 C279 1.391 . S
C279 H267 0.950 . S
C279 C275 1.393 . S
C279 C278 1.391 . S
H280 C288 0.950 . S
H281 C293 0.950 . S
H282 C290 0.950 . S
H283 C292 0.950 . S
H284 C294 0.950 . S
H285 C296 0.950 . S
H286 C298 0.950 . S
H287 C299 0.950 1_545 S
C288 H280 0.950 . S
C288 C289 1.386 . S
C288 C290 1.391 . S
C289 C288 1.386 . S
C289 C293 1.393 . S
C290 H282 0.950 . S
C290 C288 1.391 . S
C290 C291 1.400 . S
C291 C290 1.400 . S
C291 C292 1.398 . S
C291 C297 1.491 . S
C292 H283 0.950 . S
C292 C291 1.398 . S
C292 C293 1.391 . S
C293 H281 0.950 . S
C293 C289 1.393 . S
C293 C292 1.391 . S
C294 H284 0.950 . S
C294 C295 1.386 . S
C294 C296 1.391 . S
C295 C294 1.386 . S
C295 C299 1.393 . S
C296 H285 0.950 . S
C296 C294 1.391 . S
C296 C297 1.400 . S
C297 C291 1.491 . S
C297 C296 1.400 . S
C297 C298 1.398 . S
C298 H286 0.950 . S
C298 C297 1.398 . S
C298 C299 1.391 . S
C299 H287 0.950 1_565 S
C299 C295 1.393 . S
C299 C298 1.391 . S
H300 C308 0.950 . S
H301 C313 0.950 . S
H302 C310 0.950 . S
H303 C312 0.950 . S
H304 C314 0.950 . S
H305 C316 0.950 . S
H306 C318 0.950 . S
H307 C319 0.950 . S
C308 H300 0.950 . S
C308 C309 1.386 . S
C308 C310 1.391 . S
C309 C308 1.386 . S
C309 C313 1.393 . S
C310 H302 0.950 . S
C310 C308 1.391 . S
C310 C311 1.400 . S
C311 C310 1.400 . S
C311 C312 1.398 . S
C311 C317 1.491 . S
C312 H303 0.950 . S
C312 C311 1.398 . S
C312 C313 1.391 . S
C313 H301 0.950 . S
C313 C309 1.393 . S
C313 C312 1.391 . S
C314 H304 0.950 . S
C314 C315 1.386 . S
C314 C316 1.391 . S
C315 C314 1.386 . S
C315 C319 1.393 . S
C316 H305 0.950 . S
C316 C314 1.391 . S
C316 C317 1.400 . S
C317 C311 1.491 . S
C317 C316 1.400 . S
C317 C318 1.398 . S
C318 H306 0.950 . S
C318 C317 1.398 . S
C318 C319 1.391 . S
C319 H307 0.950 . S
C319 C315 1.393 . S
C319 C318 1.391 . S
H320 C328 0.950 . S
H321 C333 0.950 . S
H322 C330 0.950 . S
H323 C332 0.950 . S
H324 C334 0.950 . S
H325 C336 0.950 . S
H326 C338 0.950 . S
H327 C339 0.950 . S
C328 H320 0.950 . S
C328 C329 1.386 . S
C328 C330 1.391 . S
C329 C328 1.386 . S
C329 C333 1.393 . S
C330 H322 0.950 . S
C330 C328 1.391 . S
C330 C331 1.400 . S
C331 C330 1.400 . S
C331 C332 1.398 . S
C331 C337 1.491 . S
C332 H323 0.950 . S
C332 C331 1.398 . S
C332 C333 1.391 . S
C333 H321 0.950 . S
C333 C329 1.393 . S
C333 C332 1.391 . S
C334 H324 0.950 . S
C334 C335 1.386 . S
C334 C336 1.391 . S
C335 C334 1.386 . S
C335 C339 1.393 . S
C336 H325 0.950 . S
C336 C334 1.391 . S
C336 C337 1.400 . S
C337 C331 1.491 . S
C337 C336 1.400 . S
C337 C338 1.398 . S
C338 H326 0.950 . S
C338 C337 1.398 . S
C338 C339 1.391 . S
C339 H327 0.950 . S
C339 C335 1.393 . S
C339 C338 1.391 . S
H340 C348 0.950 . S
H341 C353 0.950 . S
H342 C350 0.950 . S
H343 C352 0.950 . S
H344 C354 0.950 . S
H345 C356 0.950 . S
H346 C358 0.950 . S
H347 C359 0.950 . S
C348 H340 0.950 . S
C348 C349 1.386 . S
C348 C350 1.391 . S
C349 C348 1.386 . S
C349 C353 1.393 . S
C350 H342 0.950 . S
C350 C348 1.391 . S
C350 C351 1.400 . S
C351 C350 1.400 . S
C351 C352 1.398 . S
C351 C357 1.491 . S
C352 H343 0.950 . S
C352 C351 1.398 . S
C352 C353 1.391 . S
C353 H341 0.950 . S
C353 C349 1.393 . S
C353 C352 1.391 . S
C354 H344 0.950 . S
C354 C355 1.386 . S
C354 C356 1.391 . S
C355 C354 1.386 . S
C355 C359 1.393 . S
C356 H345 0.950 . S
C356 C354 1.391 . S
C356 C357 1.400 . S
C357 C351 1.491 . S
C357 C356 1.400 . S
C357 C358 1.398 . S
C358 H346 0.950 . S
C358 C357 1.398 . S
C358 C359 1.391 . S
C359 H347 0.950 . S
C359 C355 1.393 . S
C359 C358 1.391 . S
H360 C368 0.950 . S
H361 C373 0.950 . S
H362 C370 0.950 . S
H363 C372 0.950 . S
H364 C374 0.950 1_554 S
H365 C376 0.950 . S
H366 C378 0.950 . S
H367 C379 0.950 . S
C368 H360 0.950 . S
C368 C369 1.386 . S
C368 C370 1.391 . S
C369 C368 1.386 . S
C369 C373 1.393 . S
C370 H362 0.950 . S
C370 C368 1.391 . S
C370 C371 1.400 . S
C371 C370 1.400 . S
C371 C372 1.398 . S
C371 C377 1.491 . S
C372 H363 0.950 . S
C372 C371 1.398 . S
C372 C373 1.391 . S
C373 H361 0.950 . S
C373 C369 1.393 . S
C373 C372 1.391 . S
C374 H364 0.950 1_556 S
C374 C375 1.386 . S
C374 C376 1.391 . S
C375 C374 1.386 . S
C375 C379 1.393 . S
C376 H365 0.950 . S
C376 C374 1.391 . S
C376 C377 1.400 . S
C377 C371 1.491 . S
C377 C376 1.400 . S
C377 C378 1.398 . S
C378 H366 0.950 . S
C378 C377 1.398 . S
C378 C379 1.391 . S
C379 H367 0.950 . S
C379 C375 1.393 . S
C379 C378 1.391 . S
H380 C388 0.950 . S
H381 C393 0.950 . S
H382 C390 0.950 . S
H383 C392 0.950 . S
H384 C394 0.950 1_455 S
H385 C396 0.950 . S
H386 C398 0.950 . S
H387 C399 0.950 . S
C388 H380 0.950 . S
C388 C389 1.386 . S
C388 C390 1.391 . S
C389 C388 1.386 . S
C389 C393 1.393 . S
C390 H382 0.950 . S
C390 C388 1.391 . S
C390 C391 1.400 . S
C391 C390 1.400 . S
C391 C392 1.398 . S
C391 C397 1.491 . S
C392 H383 0.950 . S
C392 C391 1.398 . S
C392 C393 1.391 . S
C393 H381 0.950 . S
C393 C389 1.393 . S
C393 C392 1.391 . S
C394 H384 0.950 1_655 S
C394 C395 1.386 . S
C394 C396 1.391 . S
C395 C394 1.386 . S
C395 C399 1.393 . S
C396 H385 0.950 . S
C396 C394 1.391 . S
C396 C397 1.400 . S
C397 C391 1.491 . S
C397 C396 1.400 . S
C397 C398 1.398 . S
C398 H386 0.950 . S
C398 C397 1.398 . S
C398 C399 1.391 . S
C399 H387 0.950 . S
C399 C395 1.393 . S
C399 C398 1.391 . S
H400 C408 0.950 . S
H401 C413 0.950 . S
H402 C410 0.950 . S
H403 C412 0.950 . S
H404 C414 0.950 . S
H405 C416 0.950 . S
H406 C418 0.950 . S
H407 C419 0.950 . S
C408 H400 0.950 . S
C408 C409 1.386 . S
C408 C410 1.391 . S
C409 C408 1.386 . S
C409 C413 1.393 . S
C410 H402 0.950 . S
C410 C408 1.391 . S
C410 C411 1.400 . S
C411 C410 1.400 . S
C411 C412 1.398 . S
C411 C417 1.491 . S
C412 H403 0.950 . S
C412 C411 1.398 . S
C412 C413 1.391 . S
C413 H401 0.950 . S
C413 C409 1.393 . S
C413 C412 1.391 . S
C414 H404 0.950 . S
C414 C415 1.386 . S
C414 C416 1.391 . S
C415 C414 1.386 . S
C415 C419 1.393 . S
C416 H405 0.950 . S
C416 C414 1.391 . S
C416 C417 1.400 . S
C417 C411 1.491 . S
C417 C416 1.400 . S
C417 C418 1.398 . S
C418 H406 0.950 . S
C418 C417 1.398 . S
C418 C419 1.391 . S
C419 H407 0.950 . S
C419 C415 1.393 . S
C419 C418 1.391 . S
H420 C428 0.950 . S
H421 C433 0.950 1_545 S
H422 C430 0.950 . S
H423 C432 0.943 1_545 S
H424 C434 0.950 . S
H425 C436 0.950 . S
H426 C438 0.950 . S
H427 C439 0.950 . S
C428 H420 0.950 . S
C428 C429 1.386 . S
C428 C430 1.391 . S
C429 C428 1.386 . S
C429 C433 1.393 1_655 S
C430 H422 0.950 . S
C430 C428 1.391 . S
C430 C431 1.400 . S
C431 C430 1.400 . S
C431 C432 1.401 1_655 S
C431 C437 1.491 . S
C432 H423 0.943 1_565 S
C432 C431 1.401 1_455 S
C432 C433 1.395 . S
C433 H421 0.950 1_565 S
C433 C429 1.393 1_455 S
C433 C432 1.395 . S
C434 H424 0.950 . S
C434 C435 1.386 1_445 S
C434 C436 1.391 . S
C435 C434 1.386 1_665 S
C435 C439 1.393 . S
C436 H425 0.950 . S
C436 C434 1.391 . S
C436 C437 1.400 1_445 S
C437 C431 1.491 . S
C437 C436 1.400 1_665 S
C437 C438 1.398 . S
C438 H426 0.950 . S
C438 C437 1.398 . S
C438 C439 1.391 . S
C439 H427 0.950 . S
C439 C435 1.393 . S
C439 C438 1.391 . S
H440 C448 0.950 . S
H441 C453 0.950 . S
H442 C450 0.950 . S
H443 C452 0.950 . S
H444 C454 0.950 1_565 S
H445 C456 0.950 . S
H446 C458 0.950 . S
H447 C459 0.950 . S
C448 H440 0.950 . S
C448 C449 1.386 . S
C448 C450 1.391 . S
C449 C448 1.386 . S
C449 C453 1.393 . S
C450 H442 0.950 . S
C450 C448 1.391 . S
C450 C451 1.400 . S
C451 C450 1.400 . S
C451 C452 1.398 . S
C451 C457 1.491 . S
C452 H443 0.950 . S
C452 C451 1.398 . S
C452 C453 1.391 . S
C453 H441 0.950 . S
C453 C449 1.393 . S
C453 C452 1.391 . S
C454 H444 0.950 1_545 S
C454 C455 1.386 . S
C454 C456 1.391 . S
C455 C454 1.386 . S
C455 C459 1.393 . S
C456 H445 0.950 . S
C456 C454 1.391 . S
C456 C457 1.400 . S
C457 C451 1.491 . S
C457 C456 1.400 . S
C457 C458 1.398 . S
C458 H446 0.950 . S
C458 C457 1.398 . S
C458 C459 1.391 . S
C459 H447 0.950 . S
C459 C455 1.393 . S
C459 C458 1.391 . S
H460 C468 0.950 . S
H461 C473 0.950 . S
H462 C470 0.950 . S
H463 C472 0.950 . S
H464 C474 0.950 . S
H465 C476 0.950 . S
H466 C478 0.950 . S
H467 C479 0.950 . S
C468 H460 0.950 . S
C468 C469 1.386 . S
C468 C470 1.391 . S
C469 C468 1.386 . S
C469 C473 1.393 . S
C470 H462 0.950 . S
C470 C468 1.391 . S
C470 C471 1.400 . S
C471 C470 1.400 . S
C471 C472 1.398 . S
C471 C477 1.491 . S
C472 H463 0.950 . S
C472 C471 1.398 . S
C472 C473 1.391 . S
C473 H461 0.950 . S
C473 C469 1.393 . S
C473 C472 1.391 . S
C474 H464 0.950 . S
C474 C475 1.386 . S
C474 C476 1.391 . S
C475 C474 1.386 . S
C475 C479 1.393 . S
C476 H465 0.950 . S
C476 C474 1.391 . S
C476 C477 1.400 . S
C477 C471 1.491 . S
C477 C476 1.400 . S
C477 C478 1.398 . S
C478 H466 0.950 . S
C478 C477 1.398 . S
C478 C479 1.391 . S
C479 H467 0.950 . S
C479 C475 1.393 . S
C479 C478 1.391 . S
H480 C488 0.950 . S
H481 C493 0.950 . S
H482 C490 0.950 . S
H483 C492 0.950 . S
H484 C494 0.950 . S
H485 C496 0.950 . S
H486 C498 0.950 . S
H487 C499 0.950 . S
C488 H480 0.950 . S
C488 C489 1.386 . S
C488 C490 1.391 . S
C489 C488 1.386 . S
C489 C493 1.393 . S
C490 H482 0.950 . S
C490 C488 1.391 . S
C490 C491 1.400 . S
C491 C490 1.400 . S
C491 C492 1.398 . S
C491 C497 1.491 . S
C492 H483 0.950 . S
C492 C491 1.398 . S
C492 C493 1.391 . S
C493 H481 0.950 . S
C493 C489 1.393 . S
C493 C492 1.391 . S
C494 H484 0.950 . S
C494 C495 1.386 . S
C494 C496 1.391 . S
C495 C494 1.386 . S
C495 C499 1.393 . S
C496 H485 0.950 . S
C496 C494 1.391 . S
C496 C497 1.400 . S
C497 C491 1.491 . S
C497 C496 1.400 . S
C497 C498 1.398 . S
C498 H486 0.950 . S
C498 C497 1.398 . S
C498 C499 1.391 . S
C499 H487 0.950 . S
C499 C495 1.393 . S
C499 C498 1.391 . S
H500 C508 0.950 . S
H501 C513 0.950 . S
H502 C510 0.950 . S
H503 C512 0.950 1_554 S
H504 C514 0.950 . S
H505 C516 0.950 . S
H506 C518 0.950 . S
H507 C519 0.950 . S
C508 H500 0.950 . S
C508 C509 1.386 . S
C508 C510 1.391 . S
C509 C508 1.386 . S
C509 C513 1.393 1_565 S
C510 H502 0.950 . S
C510 C508 1.391 . S
C510 C511 1.400 . S
C511 C510 1.400 . S
C511 C512 1.398 1_565 S
C511 C517 1.491 . S
C512 H503 0.950 1_556 S
C512 C511 1.398 1_545 S
C512 C513 1.391 . S
C513 H501 0.950 . S
C513 C509 1.393 1_545 S
C513 C512 1.391 . S
C514 H504 0.950 . S
C514 C515 1.398 1_545 S
C514 C516 1.391 . S
C515 C514 1.398 1_565 S
C515 C519 1.376 1_554 S
C516 H505 0.950 . S
C516 C514 1.391 . S
C516 C517 1.400 1_544 S
C517 C511 1.491 . S
C517 C516 1.400 1_566 S
C517 C518 1.398 . S
C518 H506 0.950 . S
C518 C517 1.398 . S
C518 C519 1.391 . S
C519 H507 0.950 . S
C519 C515 1.376 1_556 S
C519 C518 1.391 . S
H520 C528 0.950 . S
H521 C533 0.950 . S
H522 C530 0.950 . S
H523 C532 0.950 . S
H524 C534 0.950 1_565 S
H525 C536 0.945 1_565 S
H526 C538 0.950 . S
H527 C539 0.950 . S
C528 H520 0.950 . S
C528 C529 1.386 . S
C528 C530 1.391 . S
C529 C528 1.386 . S
C529 C533 1.393 . S
C530 H522 0.950 . S
C530 C528 1.391 . S
C530 C531 1.400 . S
C531 C530 1.400 . S
C531 C532 1.398 . S
C531 C537 1.491 . S
C532 H523 0.950 . S
C532 C531 1.398 . S
C532 C533 1.391 . S
C533 H521 0.950 . S
C533 C529 1.393 . S
C533 C532 1.391 . S
C534 H524 0.950 1_545 S
C534 C535 1.386 . S
C534 C536 1.391 . S
C535 C534 1.386 . S
C535 C539 1.393 . S
C536 H525 0.945 1_545 S
C536 C534 1.391 . S
C536 C537 1.400 . S
C537 C531 1.491 . S
C537 C536 1.400 . S
C537 C538 1.398 . S
C538 H526 0.950 . S
C538 C537 1.398 . S
C538 C539 1.391 . S
C539 H527 0.950 . S
C539 C535 1.393 . S
C539 C538 1.391 . S
H540 C548 0.950 . S
H541 C553 0.950 . S
H542 C550 0.950 . S
H543 C552 0.950 . S
H544 C554 0.950 1_556 S
H545 C556 0.950 . S
H546 C558 0.950 . S
H547 C559 0.950 . S
C548 H540 0.950 . S
C548 C549 1.386 . S
C548 C550 1.391 . S
C549 C548 1.386 . S
C549 C553 1.393 . S
C550 H542 0.950 . S
C550 C548 1.391 . S
C550 C551 1.400 . S
C551 C550 1.400 . S
C551 C552 1.398 . S
C551 C557 1.491 . S
C552 H543 0.950 . S
C552 C551 1.398 . S
C552 C553 1.391 . S
C553 H541 0.950 . S
C553 C549 1.393 . S
C553 C552 1.391 . S
C554 H544 0.950 1_554 S
C554 C555 1.386 . S
C554 C556 1.391 . S
C555 C554 1.386 . S
C555 C559 1.393 . S
C556 H545 0.950 . S
C556 C554 1.391 . S
C556 C557 1.400 . S
C557 C551 1.491 . S
C557 C556 1.400 . S
C557 C558 1.398 . S
C558 H546 0.950 . S
C558 C557 1.398 . S
C558 C559 1.391 . S
C559 H547 0.950 . S
C559 C555 1.393 . S
C559 C558 1.391 . S
H560 C568 0.950 . S
H561 C573 0.950 . S
H562 C570 0.950 . S
H563 C572 0.950 . S
H564 C574 0.950 . S
H565 C576 0.950 . S
H566 C578 0.950 . S
H567 C579 0.950 . S
C568 H560 0.950 . S
C568 C569 1.386 . S
C568 C570 1.391 . S
C569 C568 1.386 . S
C569 C573 1.393 . S
C570 H562 0.950 . S
C570 C568 1.391 . S
C570 C571 1.400 . S
C571 C570 1.400 . S
C571 C572 1.398 . S
C571 C577 1.491 . S
C572 H563 0.950 . S
C572 C571 1.398 . S
C572 C573 1.391 . S
C573 H561 0.950 . S
C573 C569 1.393 . S
C573 C572 1.391 . S
C574 H564 0.950 . S
C574 C575 1.386 . S
C574 C576 1.391 . S
C575 C574 1.386 . S
C575 C579 1.393 . S
C576 H565 0.950 . S
C576 C574 1.391 . S
C576 C577 1.400 . S
C577 C571 1.491 . S
C577 C576 1.400 . S
C577 C578 1.398 . S
C578 H566 0.950 . S
C578 C577 1.398 . S
C578 C579 1.391 . S
C579 H567 0.950 . S
C579 C575 1.393 . S
C579 C578 1.391 . S
H580 C588 0.950 . S
H581 C593 0.950 1_554 S
H582 C590 0.950 . S
H583 C592 0.950 1_554 S
H584 C594 0.950 . S
H585 C596 0.950 . S
H586 C598 0.950 1_655 S
H587 C599 0.950 . S
C588 H580 0.950 . S
C588 C589 1.387 . S
C588 C590 1.391 . S
C589 C588 1.387 . S
C589 C593 1.389 1_655 S
C590 H582 0.950 . S
C590 C588 1.391 . S
C590 C591 1.400 1_655 S
C591 C590 1.400 1_455 S
C591 C592 1.398 . S
C591 C597 1.491 . S
C592 H583 0.950 1_556 S
C592 C591 1.398 . S
C592 C593 1.391 . S
C593 H581 0.950 1_556 S
C593 C589 1.389 1_455 S
C593 C592 1.391 . S
C594 H584 0.950 . S
C594 C595 1.386 1_554 S
C594 C596 1.391 . S
C595 C594 1.386 1_556 S
C595 C599 1.393 . S
C596 H585 0.950 . S
C596 C594 1.391 . S
C596 C597 1.400 1_554 S
C597 C591 1.491 . S
C597 C596 1.400 1_556 S
C597 C598 1.398 . S
C598 H586 0.950 1_455 S
C598 C597 1.398 . S
C598 C599 1.391 . S
C599 H587 0.950 . S
C599 C595 1.393 . S
C599 C598 1.391 . S
H600 C608 0.950 . S
H601 C613 0.950 . S
H602 C610 0.950 . S
H603 C612 0.950 . S
H604 C614 0.950 . S
H605 C616 0.950 . S
H606 C618 0.950 . S
H607 C619 0.950 . S
C608 H600 0.950 . S
C608 C609 1.386 . S
C608 C610 1.391 . S
C609 C608 1.386 . S
C609 C613 1.393 . S
C610 H602 0.950 . S
C610 C608 1.391 . S
C610 C611 1.400 . S
C611 C610 1.400 . S
C611 C612 1.398 . S
C611 C617 1.491 . S
C612 H603 0.950 . S
C612 C611 1.398 . S
C612 C613 1.391 . S
C613 H601 0.950 . S
C613 C609 1.393 . S
C613 C612 1.391 . S
C614 H604 0.950 . S
C614 C615 1.386 . S
C614 C616 1.391 . S
C615 C614 1.386 . S
C615 C619 1.393 . S
C616 H605 0.950 . S
C616 C614 1.391 . S
C616 C617 1.400 . S
C617 C611 1.491 . S
C617 C616 1.400 . S
C617 C618 1.398 . S
C618 H606 0.950 . S
C618 C617 1.398 . S
C618 C619 1.391 . S
C619 H607 0.950 . S
C619 C615 1.393 . S
C619 C618 1.391 . S
H620 C628 0.950 . S
H621 C633 0.950 . S
H622 C630 0.950 . S
H623 C632 0.950 . S
H624 C634 0.950 . S
H625 C636 0.950 . S
H626 C638 0.950 . S
H627 C639 0.950 . S
C628 H620 0.950 . S
C628 C629 1.386 . S
C628 C630 1.391 . S
C629 C628 1.386 . S
C629 C633 1.393 . S
C630 H622 0.950 . S
C630 C628 1.391 . S
C630 C631 1.400 . S
C631 C630 1.400 . S
C631 C632 1.398 . S
C631 C637 1.491 . S
C632 H623 0.950 . S
C632 C631 1.398 . S
C632 C633 1.391 . S
C633 H621 0.950 . S
C633 C629 1.393 . S
C633 C632 1.391 . S
C634 H624 0.950 . S
C634 C635 1.386 . S
C634 C636 1.391 . S
C635 C634 1.386 . S
C635 C639 1.393 . S
C636 H625 0.950 . S
C636 C634 1.391 . S
C636 C637 1.400 . S
C637 C631 1.491 . S
C637 C636 1.400 . S
C637 C638 1.398 . S
C638 H626 0.950 . S
C638 C637 1.398 . S
C638 C639 1.391 . S
C639 H627 0.950 . S
C639 C635 1.393 . S
C639 C638 1.391 . S
H640 C648 0.950 . S
H641 C653 0.950 . S
H642 C650 0.950 . S
H643 C652 0.950 . S
H644 C654 0.950 . S
H645 C656 0.950 . S
H646 C658 0.950 . S
H647 C659 0.950 . S
C648 H640 0.950 . S
C648 C649 1.386 . S
C648 C650 1.391 . S
C649 C648 1.386 . S
C649 C653 1.393 . S
C650 H642 0.950 . S
C650 C648 1.391 . S
C650 C651 1.400 . S
C651 C650 1.400 . S
C651 C652 1.398 . S
C651 C657 1.491 . S
C652 H643 0.950 . S
C652 C651 1.398 . S
C652 C653 1.391 . S
C653 H641 0.950 . S
C653 C649 1.393 . S
C653 C652 1.391 . S
C654 H644 0.950 . S
C654 C655 1.386 . S
C654 C656 1.391 . S
C655 C654 1.386 . S
C655 C659 1.393 . S
C656 H645 0.950 . S
C656 C654 1.391 . S
C656 C657 1.400 . S
C657 C651 1.491 . S
C657 C656 1.400 . S
C657 C658 1.398 . S
C658 H646 0.950 . S
C658 C657 1.398 . S
C658 C659 1.391 . S
C659 H647 0.950 . S
C659 C655 1.393 . S
C659 C658 1.391 . S
C189 C6 1.724 . S
C195 C99 1.593 . S
C209 C18 1.792 . S
C215 C133 1.683 . S
C235 C145 1.383 . S
C229 C28 1.493 . S
C249 C40 1.021 . S
C255 C179 0.941 1_655 S
C275 C136 1.651 . S
C269 C9 1.799 . S
C295 C116 1.423 . S
C289 C16 1.508 . S
C315 C163 1.408 . S
C309 C30 1.530 . S
C335 C154 1.181 . S
C329 C42 1.245 . S
C349 C4 1.525 . S
C355 C162 1.443 . S
C375 C124 1.427 . S
C369 C33 1.571 . S
C389 C45 1.288 . S
C395 C100 1.188 . S
C409 C21 1.763 . S
C415 C157 1.668 . S
C435 C115 1.687 1_565 S
C429 C57 1.798 . S
C449 C66 1.862 . S
C455 C137 1.749 . S
C469 C76 1.662 . S
C475 C142 1.584 . S
C489 C88 1.127 . S
C495 C175 1.076 . S
C509 C54 1.841 . S
C515 C120 1.753 . S
C535 C112 1.536 . S
C529 C64 1.631 . S
C555 C166 1.426 . S
C549 C78 1.469 . S
C575 C158 1.252 . S
C569 C93 1.357 . S
C589 C52 1.485 . S
C595 C178 1.436 . S
C615 C121 1.537 . S
C609 C81 1.639 . S
C635 C103 1.310 . S
C629 C90 1.412 . S
C649 C69 1.813 . S
C655 C141 1.702 . S
