# Generated by pormake.
# Topology nom, (4,4)-cn, num edge types: 1
# Building blocks:
#     Node 0, Type 0, BuildingBlock: KUFVIS_clean_linker_0, # of connection points: 4
#     Node 1, Type 0, BuildingBlock: KUFVIS_clean_linker_0, # of connection points: 4
#     Node 2, Type 0, BuildingBlock: KUFVIS_clean_linker_0, # of connection points: 4
#     Node 3, Type 0, BuildingBlock: KUFVIS_clean_linker_0, # of connection points: 4
#     Node 4, Type 0, BuildingBlock: KUFVIS_clean_linker_0, # of connection points: 4
#     Node 5, Type 0, BuildingBlock: KUFVIS_clean_linker_0, # of connection points: 4
#     Node 6, Type 1, BuildingBlock: NAHDIM_clean_sbu_0, # of connection points: 4
#     Node 7, Type 1, BuildingBlock: NAHDIM_clean_sbu_0, # of connection points: 4
#     Node 8, Type 1, BuildingBlock: NAHDIM_clean_sbu_0, # of connection points: 4
#     Node 9, Type 1, BuildingBlock: NAHDIM_clean_sbu_0, # of connection points: 4
#     Node 10, Type 1, BuildingBlock: NAHDIM_clean_sbu_0, # of connection points: 4
#     Node 11, Type 1, BuildingBlock: NAHDIM_clean_sbu_0, # of connection points: 4
#     Edge 12, Type (0, 1), BuildingBlock: AJUNOK_clean_linker_0, # of connection points: 2
#     Edge 13, Type (0, 1), BuildingBlock: AJUNOK_clean_linker_0, # of connection points: 2
#     Edge 14, Type (0, 1), BuildingBlock: AJUNOK_clean_linker_0, # of connection points: 2
#     Edge 15, Type (0, 1), BuildingBlock: AJUNOK_clean_linker_0, # of connection points: 2
#     Edge 16, Type (0, 1), BuildingBlock: AJUNOK_clean_linker_0, # of connection points: 2
#     Edge 17, Type (0, 1), BuildingBlock: AJUNOK_clean_linker_0, # of connection points: 2
#     Edge 18, Type (0, 1), BuildingBlock: AJUNOK_clean_linker_0, # of connection points: 2
#     Edge 19, Type (0, 1), BuildingBlock: AJUNOK_clean_linker_0, # of connection points: 2
#     Edge 20, Type (0, 1), BuildingBlock: AJUNOK_clean_linker_0, # of connection points: 2
#     Edge 21, Type (0, 1), BuildingBlock: AJUNOK_clean_linker_0, # of connection points: 2
#     Edge 22, Type (0, 1), BuildingBlock: AJUNOK_clean_linker_0, # of connection points: 2
#     Edge 23, Type (0, 1), BuildingBlock: AJUNOK_clean_linker_0, # of connection points: 2
#     Edge 24, Type (0, 1), BuildingBlock: AJUNOK_clean_linker_0, # of connection points: 2
#     Edge 25, Type (0, 1), BuildingBlock: AJUNOK_clean_linker_0, # of connection points: 2
#     Edge 26, Type (0, 1), BuildingBlock: AJUNOK_clean_linker_0, # of connection points: 2
#     Edge 27, Type (0, 1), BuildingBlock: AJUNOK_clean_linker_0, # of connection points: 2
#     Edge 28, Type (0, 1), BuildingBlock: AJUNOK_clean_linker_0, # of connection points: 2
#     Edge 29, Type (0, 1), BuildingBlock: AJUNOK_clean_linker_0, # of connection points: 2
#     Edge 30, Type (0, 1), BuildingBlock: AJUNOK_clean_linker_0, # of connection points: 2
#     Edge 31, Type (0, 1), BuildingBlock: AJUNOK_clean_linker_0, # of connection points: 2
#     Edge 32, Type (0, 1), BuildingBlock: AJUNOK_clean_linker_0, # of connection points: 2
#     Edge 33, Type (0, 1), BuildingBlock: AJUNOK_clean_linker_0, # of connection points: 2
#     Edge 34, Type (0, 1), BuildingBlock: AJUNOK_clean_linker_0, # of connection points: 2
#     Edge 35, Type (0, 1), BuildingBlock: AJUNOK_clean_linker_0, # of connection points: 2
# Relax obj value: 0.022
# Max RMSD: 0.124
# Mean RMSD: 0.082
data_MOF--net-nom--node1-NAHDIM_clean_sbu_0--node2-KUFVIS_clean_linker_0--edge1-AJUNOK_clean_linker_0
_symmetry_space_group_name_H-M    P1
_symmetry_Int_Tables_number       1
_symmetry_cell_setting            triclinic
loop_
_symmetry_equiv_pos_as_xyz
'x, y, z'
_cell_length_a     33.320653
_cell_length_b     34.679145
_cell_length_c     34.980316
_cell_angle_alpha  89.961309
_cell_angle_beta   90.528375
_cell_angle_gamma 121.37523
loop_
_atom_site_label
_atom_site_type_symbol
_atom_site_fract_x
_atom_site_fract_y
_atom_site_fract_z
_atom_type_partial_charge
H0 H 0.18547 0.61741 0.3309 0.0
H1 H 0.07604 0.58618 0.24941 0.0
H2 H 0.04203 0.53413 0.36493 0.0
H3 H 0.97588 0.53449 0.35241 0.0
H4 H 0.86707 0.46127 0.2691 0.0
H5 H 1.01062 0.51946 0.23637 0.0
C6 C 0.14825 0.60036 0.3239 0.0
C7 C 0.11522 0.57655 0.35225 0.0
C8 C 0.13432 0.60324 0.28683 0.0
C9 C 0.08623 0.58225 0.27794 0.0
C10 C 0.05186 0.55614 0.30573 0.0
C11 C 0.06716 0.55363 0.34296 0.0
C12 C 1.00046 0.53062 0.29574 0.0
C13 C 0.96589 0.52151 0.32355 0.0
C14 C 0.91783 0.49518 0.31413 0.0
C15 C 0.90418 0.47991 0.27663 0.0
C16 C 0.93752 0.4897 0.24845 0.0
C17 C 0.98542 0.5141 0.2582 0.0
H18 H 0.57357 0.17193 0.49764 0.0
H19 H 0.50625 0.06411 0.41626 0.0
H20 H 0.52969 0.0379 0.53333 0.0
H21 H 0.46623 0.97118 0.52261 0.0
H22 H 0.43038 0.86539 0.44187 0.0
H23 H 0.50857 1.00254 0.4041 0.0
C24 C 0.55703 0.13622 0.49093 0.0
C25 C 0.55132 0.10606 0.51974 0.0
C26 C 0.5412 0.12128 0.45378 0.0
C27 C 0.51987 0.07515 0.44494 0.0
C28 C 0.51501 0.04381 0.47344 0.0
C29 C 0.53194 0.06031 0.5108 0.0
C30 C 0.49168 0.9942 0.46474 0.0
C31 C 0.46884 0.96143 0.4938 0.0
C32 C 0.44765 0.91524 0.48556 0.0
C33 C 0.44802 0.90125 0.44831 0.0
C34 C 0.46899 0.93259 0.41898 0.0
C35 C 0.49137 0.97891 0.42718 0.0
H36 H 0.57117 0.41638 0.60553 0.0
H37 H 0.50674 0.45727 0.68815 0.0
H38 H 0.52481 0.50549 0.5713 0.0
H39 H 0.46174 0.50934 0.58336 0.0
H40 H 0.43259 0.58222 0.66592 0.0
H41 H 0.50924 0.52053 0.70113 0.0
C42 C 0.55512 0.43579 0.61265 0.0
C43 C 0.54861 0.46029 0.58419 0.0
C44 C 0.54082 0.43534 0.65007 0.0
C45 C 0.51905 0.45953 0.65926 0.0
C46 C 0.51233 0.48517 0.63105 0.0
C47 C 0.5279 0.4854 0.59348 0.0
C48 C 0.48966 0.51179 0.64066 0.0
C49 C 0.46589 0.52204 0.61226 0.0
C50 C 0.44689 0.5488 0.62115 0.0
C51 C 0.4493 0.56342 0.65869 0.0
C52 C 0.47048 0.55213 0.68749 0.0
C53 C 0.49147 0.52726 0.67846 0.0
H54 H 0.18262 0.56621 0.77339 0.0
H55 H 0.07639 0.49558 0.85732 0.0
H56 H 0.03848 0.50278 0.7394 0.0
H57 H 0.97168 0.44109 0.75363 0.0
H58 H 0.86572 0.40994 0.83661 0.0
H59 H 1.01015 0.49276 0.86971 0.0
C60 C 0.1457 0.54681 0.78095 0.0
C61 C 0.11166 0.53475 0.75253 0.0
C62 C 0.13311 0.53358 0.81873 0.0
C63 C 0.0853 0.50689 0.82812 0.0
C64 C 0.04976 0.49556 0.79993 0.0
C65 C 0.06394 0.50984 0.76188 0.0
C66 C 0.99848 0.4705 0.8102 0.0
C67 C 0.96285 0.44506 0.78245 0.0
C68 C 0.91508 0.42465 0.79171 0.0
C69 C 0.90264 0.42738 0.82913 0.0
C70 C 0.93673 0.45079 0.85733 0.0
C71 C 0.98446 0.47299 0.84777 0.0
H72 H 0.47521 0.86695 -0.00267 0.0
H73 H 0.53954 0.9736 0.91572 0.0
H74 H 0.51889 1.00143 0.03259 0.0
H75 H 0.58249 0.06877 0.02082 0.0
H76 H 0.61082 0.1715 0.93902 0.0
H77 H 0.534 0.03335 0.90326 0.0
C78 C 0.49136 0.90254 -0.00941 0.0
C79 C 0.49731 0.93303 0.0193 0.0
C80 C 0.50609 0.91701 0.95339 0.0
C81 C 0.52681 0.96294 0.94444 0.0
C82 C 0.53205 0.99459 0.97279 0.0
C83 C 0.51627 0.97867 0.01022 0.0
C84 C 0.55402 0.04387 0.9636 0.0
C85 C 0.57803 0.07764 -0.0079 0.0
C86 C 0.59721 0.12355 0.98348 0.0
C87 C 0.59401 0.13595 0.94616 0.0
C88 C 0.5725 0.10368 0.91728 0.0
C89 C 0.55176 0.05776 0.92601 0.0
H90 H 0.46938 0.61731 0.11148 0.0
H91 H 0.53836 0.5797 0.19378 0.0
H92 H 0.51849 0.53068 0.07691 0.0
H93 H 0.58403 0.53067 0.08913 0.0
H94 H 0.62226 0.46433 0.17197 0.0
H95 H 0.53511 0.51498 0.20588 0.0
C96 C 0.48685 0.59906 0.1184 0.0
C97 C 0.49333 0.57477 0.08984 0.0
C98 C 0.50246 0.60038 0.15575 0.0
C99 C 0.52497 0.57681 0.16496 0.0
C100 C 0.53132 0.55112 0.13674 0.0
C101 C 0.51461 0.55009 0.09918 0.0
C102 C 0.55597 0.5263 0.14619 0.0
C103 C 0.58123 0.51836 0.11799 0.0
C104 C 0.60462 0.49558 0.12726 0.0
C105 C 0.60352 0.48127 0.16472 0.0
C106 C 0.57928 0.48892 0.19311 0.0
C107 C 0.55501 0.51075 0.18375 0.0
C108 C 0.60915 0.29013 0.37883 0.0
O109 O 0.64144 0.30469 0.3523 0.0
O110 O 0.70996 0.40657 0.38216 0.0
Zn111 Zn 0.64147 0.38618 0.38941 0.0
O112 O 0.63242 0.41597 0.43524 0.0
C113 C 0.62295 0.44106 0.33928 0.0
O114 O 0.64554 0.47119 0.36635 0.0
O115 O 0.60359 0.31857 0.39735 0.0
C116 C 0.59277 0.41259 0.43904 0.0
O117 O 0.55986 0.38985 0.41317 0.0
C118 C 0.74472 0.44614 0.38885 0.0
O119 O 0.7369 0.47703 0.40217 0.0
O120 O 0.61743 0.40207 0.34271 0.0
C121 C 0.35195 0.74653 0.56432 0.0
O122 O 0.37507 0.73277 0.58519 0.0
O123 O 0.32625 0.63053 0.56054 0.0
Zn124 Zn 0.27849 0.64961 0.55477 0.0
O125 O 0.24055 0.62648 0.50626 0.0
C126 C 0.21522 0.58967 0.61256 0.0
O127 O 0.22499 0.56103 0.59711 0.0
O128 O 0.31205 0.71747 0.55033 0.0
C129 C 0.20135 0.59022 0.50024 0.0
O130 O 0.18183 0.56015 0.52747 0.0
C131 C 0.32277 0.59452 0.54778 0.0
O132 O 0.2847 0.5652 0.52881 0.0
O133 O 0.2348 0.6296 0.59958 0.0
C134 C 0.61136 0.33817 0.73067 0.0
O135 O 0.64581 0.3568 0.75592 0.0
O136 O 0.70545 0.31124 0.72775 0.0
Zn137 Zn 0.63546 0.2673 0.72051 0.0
O138 O 0.61967 0.23001 0.67258 0.0
C139 C 0.62936 0.20566 0.77824 0.0
O140 O 0.6701 0.21607 0.764 0.0
O141 O 0.60197 0.30162 0.71426 0.0
C142 C 0.61992 0.19398 0.66656 0.0
O143 O 0.63627 0.17853 0.69281 0.0
C144 C 0.73876 0.30709 0.71515 0.0
O145 O 0.72877 0.27158 0.69439 0.0
O146 O 0.6086 0.22501 0.76519 0.0
C147 C 0.43954 0.7485 0.87661 0.0
O148 O 0.40428 0.73241 0.85209 0.0
O149 O 0.34407 0.6294 0.88085 0.0
Zn150 Zn 0.41374 0.65337 0.88757 0.0
O151 O 0.42827 0.63075 0.93569 0.0
C152 C 0.41728 0.59704 0.8288 0.0
O153 O 0.37649 0.567 0.84322 0.0
O154 O 0.44875 0.72137 0.89334 0.0
C155 C 0.42725 0.59397 0.94118 0.0
O156 O 0.41279 0.56372 0.91374 0.0
C157 C 0.30992 0.59243 0.89343 0.0
O158 O 0.3186 0.56521 0.91305 0.0
O159 O 0.43904 0.63694 0.84235 0.0
C160 C 0.69877 0.42301 0.04412 0.0
O161 O 0.67929 0.39322 0.01632 0.0
O162 O 0.71747 0.32548 0.0454 0.0
Zn163 Zn 0.76616 0.39192 0.05187 0.0
O164 O 0.80771 0.40229 0.09735 0.0
C165 C 0.8423 0.41044 0.0024 0.0
O166 O 0.85053 0.38933 0.02968 0.0
O167 O 0.73476 0.4275 0.06137 0.0
C168 C 0.84403 0.44147 0.10144 0.0
O169 O 0.85238 0.4724 0.0758 0.0
C170 C 0.72386 0.29384 0.05572 0.0
O171 O 0.7638 0.30421 0.07232 0.0
O172 O 0.80699 0.41508 0.00525 0.0
C173 C 0.4355 0.7018 0.23212 0.0
O174 O 0.40004 0.68379 0.25588 0.0
O175 O 0.34209 0.72603 0.22438 0.0
Zn176 Zn 0.41171 0.77198 0.21949 0.0
O177 O 0.42826 0.80937 0.17164 0.0
C178 C 0.41494 0.8325 0.27747 0.0
O179 O 0.37497 0.82274 0.26134 0.0
O180 O 0.44617 0.73846 0.21535 0.0
C181 C 0.427 0.84477 0.16488 0.0
O182 O 0.40892 0.85938 0.19002 0.0
C183 C 0.30708 0.72839 0.21286 0.0
O184 O 0.31426 0.76482 0.19514 0.0
O185 O 0.43624 0.81352 0.26519 0.0
C186 C 0.18048 0.67157 0.24598 0.0
C187 C 0.17173 0.62943 0.25864 0.0
C188 C 0.22337 0.70259 0.22868 0.0
C189 C 0.25893 0.69251 0.22393 0.0
H190 H 0.15553 0.68186 0.25194 0.0
H191 H 0.22981 0.73569 0.22137 0.0
S192 S 0.24947 0.58353 0.24672 0.0
N193 N 0.19917 0.57695 0.26098 0.0
N194 N 0.27961 0.63491 0.22874 0.0
C195 C 0.2488 0.649 0.23372 0.0
C196 C 0.20521 0.61753 0.251 0.0
C197 C 0.58484 0.1723 0.39957 0.0
C198 C 0.54761 0.15575 0.42554 0.0
C199 C 0.60255 0.21468 0.38226 0.0
C200 C 0.58395 0.24204 0.39082 0.0
H201 H 0.60279 0.15414 0.39502 0.0
H202 H 0.63312 0.22733 0.36425 0.0
S203 S 0.4812 0.21007 0.45249 0.0
N204 N 0.48901 0.16689 0.45542 0.0
N205 N 0.52198 0.24635 0.42314 0.0
C206 C 0.54405 0.22387 0.41423 0.0
C207 C 0.52596 0.18074 0.43151 0.0
C208 C 0.37764 0.52677 0.57835 0.0
C209 C 0.42166 0.56047 0.59278 0.0
C210 C 0.34676 0.53812 0.56131 0.0
C211 C 0.35883 0.58349 0.55861 0.0
H212 H 0.36563 0.49147 0.58281 0.0
H213 H 0.31209 0.51104 0.55263 0.0
S214 S 0.47352 0.68418 0.58627 0.0
N215 N 0.4783 0.64081 0.59877 0.0
N216 N 0.42056 0.66229 0.56704 0.0
C217 C 0.40437 0.61744 0.57006 0.0
C218 C 0.43573 0.60587 0.58706 0.0
C219 C 0.8423 0.4116 0.75936 0.0
C220 C 0.87644 0.3996 0.76351 0.0
C221 C 0.79887 0.38243 0.74174 0.0
C222 C 0.78785 0.3401 0.72737 0.0
H223 H 0.84817 0.4427 0.77196 0.0
H224 H 0.77299 0.3924 0.74089 0.0
S225 S 0.86741 0.29495 0.72751 0.0
N226 N 0.89814 0.34442 0.74927 0.0
N227 N 0.81664 0.2895 0.7154 0.0
C228 C 0.82312 0.32916 0.72871 0.0
C229 C 0.86743 0.35897 0.74695 0.0
C230 C 0.46073 0.86488 0.89949 0.0
C231 C 0.49906 0.88235 0.92506 0.0
C232 C 0.44357 0.82275 0.88161 0.0
C233 C 0.46393 0.79657 0.8891 0.0
H234 H 0.4417 0.88216 0.89561 0.0
H235 H 0.41223 0.80937 0.86392 0.0
S236 S 0.56973 0.83135 0.94961 0.0
N237 N 0.56018 0.87334 0.95368 0.0
N238 N 0.52853 0.79451 0.92017 0.0
C239 C 0.5048 0.81574 0.91218 0.0
C240 C 0.52219 0.85855 0.93015 0.0
C241 C 0.6781 0.50045 0.10605 0.0
C242 C 0.63069 0.4857 0.09875 0.0
C243 C 0.70058 0.48191 0.08643 0.0
C244 C 0.67647 0.44764 0.05879 0.0
H245 H 0.69711 0.52459 0.1288 0.0
H246 H 0.73651 0.49304 0.09443 0.0
S247 S 0.55319 0.40134 0.0261 0.0
N248 N 0.56145 0.43819 0.05981 0.0
N249 N 0.60357 0.4032 0.02243 0.0
C250 C 0.63002 0.43515 0.04912 0.0
C251 C 0.60715 0.45423 0.06923 0.0
C252 C 0.4478 0.86493 0.53628 0.0
C253 C 0.42285 0.87987 0.51461 0.0
C254 C 0.42425 0.82296 0.55484 0.0
C255 C 0.37502 0.79435 0.55181 0.0
H256 H 0.48589 0.88429 0.53663 0.0
H257 H 0.44512 0.81167 0.5694 0.0
S258 S 0.29371 0.82162 0.50235 0.0
N259 N 0.34662 0.86566 0.4942 0.0
N260 N 0.30198 0.78701 0.52906 0.0
C261 C 0.34961 0.81082 0.5326 0.0
C262 C 0.37364 0.85352 0.51393 0.0
C263 C 0.53101 0.36293 0.67238 0.0
C264 C 0.55 0.40929 0.67866 0.0
C265 C 0.54912 0.33961 0.69136 0.0
C266 C 0.58727 0.36182 0.7172 0.0
H267 H 0.50392 0.34523 0.65076 0.0
H268 H 0.53463 0.3044 0.68407 0.0
S269 S 0.6456 0.48224 0.7468 0.0
N270 N 0.60572 0.47585 0.71487 0.0
N271 N 0.64002 0.43222 0.75096 0.0
C272 C 0.60409 0.4075 0.72596 0.0
C273 C 0.5854 0.4312 0.70656 0.0
C274 C 0.18212 0.51713 0.8625 0.0
C275 C 0.17168 0.54838 0.84714 0.0
C276 C 0.22606 0.53173 0.87983 0.0
C277 C 0.26104 0.57801 0.88188 0.0
H278 H 0.1576 0.48124 0.85865 0.0
H279 H 0.23367 0.50646 0.88936 0.0
S280 S 0.24749 0.67313 0.85116 0.0
N281 N 0.19709 0.62737 0.83922 0.0
N282 N 0.27952 0.65494 0.87146 0.0
C283 C 0.24934 0.60951 0.8693 0.0
C284 C 0.20467 0.59465 0.85203 0.0
C285 C 0.61185 0.19336 0.01629 0.0
C286 C 0.62399 0.16042 0.01162 0.0
C287 C 0.64341 0.23547 0.03271 0.0
C288 C 0.68842 0.24634 0.0452 0.0
H289 H 0.57884 0.1876 0.00479 0.0
H290 H 0.63321 0.26044 0.03388 0.0
S291 S 0.73482 0.16941 0.0436 0.0
N292 N 0.68203 0.13959 0.02381 0.0
N293 N 0.74145 0.21854 0.05538 0.0
C294 C 0.69946 0.21223 0.0436 0.0
C295 C 0.66718 0.16928 0.02666 0.0
C296 C 0.51512 0.67387 0.17791 0.0
C297 C 0.49447 0.62731 0.18403 0.0
C298 C 0.49782 0.69832 0.19582 0.0
C299 C 0.45886 0.67704 0.22032 0.0
H300 H 0.54278 0.69085 0.15706 0.0
H301 H 0.51352 0.73365 0.18859 0.0
S302 S 0.39619 0.55643 0.24912 0.0
N303 N 0.43636 0.56151 0.21878 0.0
N304 N 0.40355 0.60722 0.25285 0.0
C305 C 0.44039 0.63112 0.22905 0.0
C306 C 0.45826 0.60628 0.21076 0.0
C307 C 0.871 0.5166 0.35472 0.0
C308 C 0.88019 0.48352 0.34217 0.0
C309 C 0.82806 0.50434 0.37206 0.0
C310 C 0.79279 0.45857 0.37706 0.0
H311 H 0.89572 0.5519 0.34875 0.0
H312 H 0.82148 0.53087 0.37943 0.0
S313 S 0.80344 0.35974 0.35406 0.0
N314 N 0.85343 0.40378 0.33966 0.0
N315 N 0.77296 0.38049 0.37223 0.0
C316 C 0.80336 0.42548 0.36721 0.0
C317 C 0.84699 0.43803 0.34975 0.0
C318 C 0.16568 0.62032 0.40751 0.0
C319 C 0.13239 0.57815 0.39172 0.0
C320 C 0.18736 0.62356 0.44263 0.0
C321 C 0.17629 0.58478 0.46371 0.0
H322 H 0.17574 0.65118 0.39216 0.0
H323 H 0.21315 0.65692 0.45325 0.0
S324 S 0.09024 0.46627 0.43553 0.0
N325 N 0.08855 0.4967 0.39989 0.0
N326 N 0.12869 0.50276 0.46685 0.0
C327 C 0.14182 0.54234 0.44897 0.0
C328 C 0.11994 0.53903 0.41277 0.0
C329 C 0.59745 0.1185 0.58036 0.0
C330 C 0.56424 0.12337 0.55932 0.0
C331 C 0.6147 0.14064 0.61566 0.0
C332 C 0.59951 0.16856 0.63065 0.0
H333 H 0.61146 0.09897 0.56879 0.0
H334 H 0.64122 0.13712 0.63063 0.0
S335 S 0.50781 0.18667 0.58878 0.0
N336 N 0.51292 0.15369 0.55776 0.0
N337 N 0.54574 0.19588 0.62348 0.0
C338 C 0.56457 0.17174 0.61062 0.0
C339 C 0.54678 0.14892 0.57511 0.0
C340 C 0.48239 0.60859 0.73723 0.0
C341 C 0.46595 0.56346 0.72727 0.0
C342 C 0.46829 0.61935 0.77117 0.0
C343 C 0.43648 0.58523 0.79589 0.0
H344 H 0.5044 0.63556 0.71768 0.0
H345 H 0.48044 0.65446 0.77697 0.0
S346 S 0.38704 0.46207 0.78426 0.0
N347 N 0.41948 0.48477 0.7459 0.0
N348 N 0.39248 0.5047 0.80968 0.0
C349 C 0.42192 0.54012 0.78721 0.0
C350 C 0.43685 0.52931 0.7529 0.0
C351 C 0.88576 0.45939 0.90393 0.0
C352 C 0.92084 0.44934 0.89697 0.0
C353 C 0.86194 0.44834 0.93871 0.0
C354 C 0.87216 0.42666 0.96787 0.0
H355 H 0.87512 0.47399 0.88158 0.0
H356 H 0.83406 0.45536 0.94207 0.0
S357 S 0.96472 0.39738 0.96499 0.0
N358 N 0.96729 0.41976 0.92274 0.0
N359 N 0.92306 0.39933 0.98851 0.0
C360 C 0.90937 0.41909 0.96212 0.0
C361 C 0.93365 0.43043 0.92659 0.0
C362 C 0.45064 0.92056 0.07883 0.0
C363 C 0.48428 0.91596 0.05878 0.0
C364 C 0.43289 0.89824 0.11374 0.0
C365 C 0.44797 0.87037 0.12937 0.0
H366 H 0.43663 0.93997 0.06673 0.0
H367 H 0.40605 0.90159 0.12786 0.0
S368 S 0.54053 0.8528 0.09021 0.0
N369 N 0.53575 0.88582 0.05887 0.0
N370 N 0.50209 0.84337 0.12387 0.0
C371 C 0.48333 0.86746 0.11037 0.0
C372 C 0.5016 0.89044 0.07524 0.0
C373 C 0.57238 0.43157 0.23984 0.0
C374 C 0.5821 0.4755 0.23274 0.0
C375 C 0.58404 0.42036 0.27493 0.0
C376 C 0.60615 0.45275 0.30425 0.0
H377 H 0.55736 0.40614 0.21748 0.0
H378 H 0.57715 0.38641 0.27845 0.0
S379 S 0.63517 0.57171 0.30084 0.0
N380 N 0.61205 0.55079 0.25836 0.0
N381 N 0.63374 0.52991 0.32469 0.0
C382 C 0.61358 0.49621 0.29822 0.0
C383 C 0.60154 0.50752 0.26238 0.0
C384 C 0.47924 0.88605 0.37042 0.0
C385 C 0.46336 0.91531 0.37955 0.0
C386 C 0.46507 0.86087 0.33643 0.0
C387 C 0.43375 0.86343 0.31078 0.0
H388 H 0.50108 0.88113 0.39055 0.0
H389 H 0.47695 0.83763 0.3312 0.0
S390 S 0.38542 0.93821 0.32035 0.0
N391 N 0.41761 0.948 0.35941 0.0
N392 N 0.39046 0.90048 0.29549 0.0
C393 C 0.41952 0.89433 0.31878 0.0
C394 C 0.43452 0.92039 0.35318 0.0
C395 C 0.60668 0.46377 0.53763 0.0
C396 C 0.56193 0.45695 0.54458 0.0
C397 C 0.61699 0.45124 0.50275 0.0
C398 C 0.58282 0.43113 0.4735 0.0
H399 H 0.63328 0.47705 0.56003 0.0
H400 H 0.65144 0.45568 0.49941 0.0
S401 S 0.46164 0.41047 0.47629 0.0
N402 N 0.48436 0.4322 0.51866 0.0
N403 N 0.50354 0.40895 0.45276 0.0
C404 C 0.53881 0.42681 0.47927 0.0
C405 C 0.52843 0.43972 0.51487 0.0
C406 C 0.12893 0.51597 0.68882 0.0
C407 C 0.12785 0.54765 0.713 0.0
C408 C 0.15598 0.52976 0.65556 0.0
C409 C 0.18281 0.57572 0.64541 0.0
H410 H 0.11115 0.48072 0.69692 0.0
H411 H 0.15714 0.50432 0.63849 0.0
S412 S 0.18795 0.67111 0.69828 0.0
N413 N 0.15295 0.62608 0.72396 0.0
N414 N 0.20333 0.6524 0.66117 0.0
C415 C 0.17957 0.60734 0.66838 0.0
C416 C 0.15224 0.59319 0.70231 0.0
C417 C 0.56111 0.14887 0.86788 0.0
C418 C 0.57733 0.11995 0.87763 0.0
C419 C 0.5763 0.17486 0.83456 0.0
C420 C 0.60897 0.17345 0.81029 0.0
H421 H 0.53858 0.15325 0.88725 0.0
H422 H 0.56435 0.19802 0.82898 0.0
S423 S 0.65801 0.09933 0.82139 0.0
N424 N 0.62437 0.08834 0.85913 0.0
N425 N 0.65333 0.13731 0.79648 0.0
C426 C 0.62317 0.14254 0.81862 0.0
C427 C 0.60716 0.11567 0.8523 0.0
C428 C 0.49315 0.62063 0.03529 0.0
C429 C 0.47936 0.57783 0.05013 0.0
C430 C 0.47631 0.62524 -2e-05 0.0
C431 C 0.44538 0.58725 0.97774 0.0
H432 H 0.51656 0.65094 0.05152 0.0
H433 H 0.48759 0.65901 -0.00984 0.0
S434 S 0.39988 0.46756 0.00302 0.0
N435 N 0.43378 0.49665 0.03971 0.0
N436 N 0.40278 0.50527 0.97246 0.0
C437 C 0.43258 0.54419 -0.00849 0.0
C438 C 0.4495 0.53949 0.02788 0.0
C439 C 0.88441 0.43183 0.20059 0.0
C440 C 0.9211 0.4762 0.20854 0.0
C441 C 0.86126 0.4204 0.16513 0.0
C442 C 0.87377 0.45299 0.13633 0.0
H443 H 0.87215 0.40623 0.22259 0.0
H444 H 0.83202 0.38616 0.16097 0.0
S445 S 0.97119 0.57298 0.14178 0.0
N446 N 0.97152 0.55206 0.18411 0.0
N447 N 0.92852 0.5307 0.11709 0.0
C448 C 0.91256 0.49684 0.14311 0.0
C449 C 0.93615 0.50841 0.17931 0.0
loop_
_geom_bond_atom_site_label_1
_geom_bond_atom_site_label_2
_geom_bond_distance
_geom_bond_site_symmetry_2
_ccdc_geom_bond_type
H0 C6 0.930 . S
H1 C9 0.931 . S
H2 C11 0.931 . S
H3 C13 0.930 . S
H4 C15 0.930 . S
H5 C17 0.931 . S
C6 H0 0.930 . S
C6 C7 1.380 . S
C6 C8 1.394 . S
C7 C6 1.380 . S
C7 C11 1.382 . S
C8 C6 1.394 . S
C8 C9 1.400 . S
C9 H1 0.931 . S
C9 C8 1.400 . S
C9 C10 1.375 . S
C10 C9 1.375 . S
C10 C11 1.415 . S
C10 C12 1.501 1_455 S
C11 H2 0.931 . S
C11 C7 1.382 . S
C11 C10 1.415 . S
C12 C10 1.501 1_655 S
C12 C13 1.384 . S
C12 C17 1.408 . S
C13 H3 0.930 . S
C13 C12 1.384 . S
C13 C14 1.389 . S
C14 C13 1.389 . S
C14 C15 1.405 . S
C15 H4 0.930 . S
C15 C14 1.405 . S
C15 C16 1.364 . S
C16 C15 1.364 . S
C16 C17 1.400 . S
C17 H5 0.931 . S
C17 C12 1.408 . S
C17 C16 1.400 . S
H18 C24 0.930 . S
H19 C27 0.931 . S
H20 C29 0.931 . S
H21 C31 0.930 . S
H22 C33 0.930 . S
H23 C35 0.931 . S
C24 H18 0.930 . S
C24 C25 1.380 . S
C24 C26 1.394 . S
C25 C24 1.380 . S
C25 C29 1.382 . S
C26 C24 1.394 . S
C26 C27 1.400 . S
C27 H19 0.931 . S
C27 C26 1.400 . S
C27 C28 1.375 . S
C28 C27 1.375 . S
C28 C29 1.415 . S
C28 C30 1.501 1_545 S
C29 H20 0.931 . S
C29 C25 1.382 . S
C29 C28 1.415 . S
C30 C28 1.501 1_565 S
C30 C31 1.384 . S
C30 C35 1.408 . S
C31 H21 0.930 . S
C31 C30 1.384 . S
C31 C32 1.389 . S
C32 C31 1.389 . S
C32 C33 1.405 . S
C33 H22 0.930 . S
C33 C32 1.405 . S
C33 C34 1.364 . S
C34 C33 1.364 . S
C34 C35 1.400 . S
C35 H23 0.931 . S
C35 C30 1.408 . S
C35 C34 1.400 . S
H36 C42 0.930 . S
H37 C45 0.931 . S
H38 C47 0.931 . S
H39 C49 0.930 . S
H40 C51 0.930 . S
H41 C53 0.931 . S
C42 H36 0.930 . S
C42 C43 1.380 . S
C42 C44 1.394 . S
C43 C42 1.380 . S
C43 C47 1.382 . S
C44 C42 1.394 . S
C44 C45 1.400 . S
C45 H37 0.931 . S
C45 C44 1.400 . S
C45 C46 1.375 . S
C46 C45 1.375 . S
C46 C47 1.415 . S
C46 C48 1.501 . S
C47 H38 0.931 . S
C47 C43 1.382 . S
C47 C46 1.415 . S
C48 C46 1.501 . S
C48 C49 1.384 . S
C48 C53 1.408 . S
C49 H39 0.930 . S
C49 C48 1.384 . S
C49 C50 1.389 . S
C50 C49 1.389 . S
C50 C51 1.405 . S
C51 H40 0.930 . S
C51 C50 1.405 . S
C51 C52 1.364 . S
C52 C51 1.364 . S
C52 C53 1.400 . S
C53 H41 0.931 . S
C53 C48 1.408 . S
C53 C52 1.400 . S
H54 C60 0.930 . S
H55 C63 0.931 . S
H56 C65 0.931 . S
H57 C67 0.930 . S
H58 C69 0.930 . S
H59 C71 0.931 . S
C60 H54 0.930 . S
C60 C61 1.380 . S
C60 C62 1.394 . S
C61 C60 1.380 . S
C61 C65 1.382 . S
C62 C60 1.394 . S
C62 C63 1.400 . S
C63 H55 0.931 . S
C63 C62 1.400 . S
C63 C64 1.375 . S
C64 C63 1.375 . S
C64 C65 1.415 . S
C64 C66 1.501 1_455 S
C65 H56 0.931 . S
C65 C61 1.382 . S
C65 C64 1.415 . S
C66 C64 1.501 1_655 S
C66 C67 1.384 . S
C66 C71 1.408 . S
C67 H57 0.930 . S
C67 C66 1.384 . S
C67 C68 1.389 . S
C68 C67 1.389 . S
C68 C69 1.405 . S
C69 H58 0.930 . S
C69 C68 1.405 . S
C69 C70 1.364 . S
C70 C69 1.364 . S
C70 C71 1.400 . S
C71 H59 0.931 . S
C71 C66 1.408 . S
C71 C70 1.400 . S
H72 C78 0.930 . S
H73 C81 0.931 . S
H74 C83 0.931 . S
H75 C85 0.930 . S
H76 C87 0.930 . S
H77 C89 0.931 . S
C78 H72 0.930 . S
C78 C79 1.380 . S
C78 C80 1.394 1_554 S
C79 C78 1.380 . S
C79 C83 1.382 . S
C80 C78 1.394 1_556 S
C80 C81 1.400 . S
C81 H73 0.931 . S
C81 C80 1.400 . S
C81 C82 1.375 . S
C82 C81 1.375 . S
C82 C83 1.415 1_556 S
C82 C84 1.501 1_565 S
C83 H74 0.931 . S
C83 C79 1.382 . S
C83 C82 1.415 1_554 S
C84 C82 1.501 1_545 S
C84 C85 1.384 1_556 S
C84 C89 1.408 . S
C85 H75 0.930 . S
C85 C84 1.384 1_554 S
C85 C86 1.389 1_554 S
C86 C85 1.389 1_556 S
C86 C87 1.405 . S
C87 H76 0.930 . S
C87 C86 1.405 . S
C87 C88 1.364 . S
C88 C87 1.364 . S
C88 C89 1.400 . S
C89 H77 0.931 . S
C89 C84 1.408 . S
C89 C88 1.400 . S
H90 C96 0.930 . S
H91 C99 0.931 . S
H92 C101 0.931 . S
H93 C103 0.930 . S
H94 C105 0.930 . S
H95 C107 0.931 . S
C96 H90 0.930 . S
C96 C97 1.380 . S
C96 C98 1.394 . S
C97 C96 1.380 . S
C97 C101 1.382 . S
C98 C96 1.394 . S
C98 C99 1.400 . S
C99 H91 0.931 . S
C99 C98 1.400 . S
C99 C100 1.375 . S
C100 C99 1.375 . S
C100 C101 1.415 . S
C100 C102 1.501 . S
C101 H92 0.931 . S
C101 C97 1.382 . S
C101 C100 1.415 . S
C102 C100 1.501 . S
C102 C103 1.384 . S
C102 C107 1.408 . S
C103 H93 0.930 . S
C103 C102 1.384 . S
C103 C104 1.389 . S
C104 C103 1.389 . S
C104 C105 1.405 . S
C105 H94 0.930 . S
C105 C104 1.405 . S
C105 C106 1.364 . S
C106 C105 1.364 . S
C106 C107 1.400 . S
C107 H95 0.931 . S
C107 C102 1.408 . S
C107 C106 1.400 . S
C108 O109 1.160 . S
C108 O115 1.185 . S
O109 C108 1.160 . S
O110 Zn111 1.899 . S
O110 C118 1.284 . S
Zn111 O110 1.899 . S
Zn111 O112 2.032 . S
Zn111 O115 2.086 . S
Zn111 O120 1.977 . S
O112 Zn111 2.032 . S
O112 C116 1.278 . S
C113 O114 1.203 . S
C113 O120 1.267 . S
O114 C113 1.203 . S
O115 C108 1.185 . S
O115 Zn111 2.086 . S
C116 O112 1.278 . S
C116 O117 1.211 . S
O117 C116 1.211 . S
C118 O110 1.284 . S
C118 O119 1.273 . S
O119 C118 1.273 . S
O120 Zn111 1.977 . S
O120 C113 1.267 . S
C121 O122 1.160 . S
C121 O128 1.185 . S
O122 C121 1.160 . S
O123 Zn124 1.899 . S
O123 C131 1.284 . S
Zn124 O123 1.899 . S
Zn124 O125 2.032 . S
Zn124 O128 2.086 . S
Zn124 O133 1.977 . S
O125 Zn124 2.032 . S
O125 C129 1.278 . S
C126 O127 1.203 . S
C126 O133 1.267 . S
O127 C126 1.203 . S
O128 C121 1.185 . S
O128 Zn124 2.086 . S
C129 O125 1.278 . S
C129 O130 1.211 . S
O130 C129 1.211 . S
C131 O123 1.284 . S
C131 O132 1.273 . S
O132 C131 1.273 . S
O133 Zn124 1.977 . S
O133 C126 1.267 . S
C134 O135 1.160 . S
C134 O141 1.185 . S
O135 C134 1.160 . S
O136 Zn137 1.899 . S
O136 C144 1.284 . S
Zn137 O136 1.899 . S
Zn137 O138 2.032 . S
Zn137 O141 2.086 . S
Zn137 O146 1.977 . S
O138 Zn137 2.032 . S
O138 C142 1.278 . S
C139 O140 1.203 . S
C139 O146 1.267 . S
O140 C139 1.203 . S
O141 C134 1.185 . S
O141 Zn137 2.086 . S
C142 O138 1.278 . S
C142 O143 1.211 . S
O143 C142 1.211 . S
C144 O136 1.284 . S
C144 O145 1.273 . S
O145 C144 1.273 . S
O146 Zn137 1.977 . S
O146 C139 1.267 . S
C147 O148 1.160 . S
C147 O154 1.185 . S
O148 C147 1.160 . S
O149 Zn150 1.899 . S
O149 C157 1.284 . S
Zn150 O149 1.899 . S
Zn150 O151 2.032 . S
Zn150 O154 2.086 . S
Zn150 O159 1.977 . S
O151 Zn150 2.032 . S
O151 C155 1.278 . S
C152 O153 1.203 . S
C152 O159 1.267 . S
O153 C152 1.203 . S
O154 C147 1.185 . S
O154 Zn150 2.086 . S
C155 O151 1.278 . S
C155 O156 1.211 . S
O156 C155 1.211 . S
C157 O149 1.284 . S
C157 O158 1.273 . S
O158 C157 1.273 . S
O159 Zn150 1.977 . S
O159 C152 1.267 . S
C160 O161 1.160 . S
C160 O167 1.185 . S
O161 C160 1.160 . S
O162 Zn163 1.899 . S
O162 C170 1.284 . S
Zn163 O162 1.899 . S
Zn163 O164 2.032 . S
Zn163 O167 2.086 . S
Zn163 O172 1.977 . S
O164 Zn163 2.032 . S
O164 C168 1.278 . S
C165 O166 1.201 1_556 S
C165 O172 1.259 1_556 S
O166 C165 1.201 1_554 S
O167 C160 1.185 . S
O167 Zn163 2.086 . S
C168 O164 1.278 . S
C168 O169 1.211 . S
O169 C168 1.211 . S
C170 O162 1.284 . S
C170 O171 1.273 . S
O171 C170 1.273 . S
O172 Zn163 1.977 . S
O172 C165 1.259 1_554 S
C173 O174 1.160 . S
C173 O180 1.185 . S
O174 C173 1.160 . S
O175 Zn176 1.899 . S
O175 C183 1.284 . S
Zn176 O175 1.899 . S
Zn176 O177 2.032 . S
Zn176 O180 2.086 . S
Zn176 O185 1.977 . S
O177 Zn176 2.032 . S
O177 C181 1.278 . S
C178 O179 1.203 . S
C178 O185 1.267 . S
O179 C178 1.203 . S
O180 C173 1.185 . S
O180 Zn176 2.086 . S
C181 O177 1.278 . S
C181 O182 1.211 . S
O182 C181 1.211 . S
C183 O175 1.284 . S
C183 O184 1.273 . S
O184 C183 1.273 . S
O185 Zn176 1.977 . S
O185 C178 1.267 . S
C186 C187 1.369 . S
C186 C188 1.419 . S
C186 H190 0.930 . S
C187 C186 1.369 . S
C187 C196 1.429 . S
C188 C186 1.419 . S
C188 C189 1.363 . S
C188 H191 0.929 . S
C189 C188 1.363 . S
C189 C195 1.428 . S
H190 C186 0.930 . S
H191 C188 0.929 . S
S192 N193 1.613 . S
S192 N194 1.610 . S
N193 S192 1.613 . S
N193 C196 1.350 . S
N194 S192 1.610 . S
N194 C195 1.351 . S
C195 C189 1.428 . S
C195 N194 1.351 . S
C195 C196 1.434 . S
C196 C187 1.429 . S
C196 N193 1.350 . S
C196 C195 1.434 . S
C197 C198 1.369 . S
C197 C199 1.419 . S
C197 H201 0.930 . S
C198 C197 1.369 . S
C198 C207 1.429 . S
C199 C197 1.419 . S
C199 C200 1.363 . S
C199 H202 0.929 . S
C200 C199 1.363 . S
C200 C206 1.428 . S
H201 C197 0.930 . S
H202 C199 0.929 . S
S203 N204 1.613 . S
S203 N205 1.610 . S
N204 S203 1.613 . S
N204 C207 1.350 . S
N205 S203 1.610 . S
N205 C206 1.351 . S
C206 C200 1.428 . S
C206 N205 1.351 . S
C206 C207 1.434 . S
C207 C198 1.429 . S
C207 N204 1.350 . S
C207 C206 1.434 . S
C208 C209 1.369 . S
C208 C210 1.419 . S
C208 H212 0.930 . S
C209 C208 1.369 . S
C209 C218 1.429 . S
C210 C208 1.419 . S
C210 C211 1.363 . S
C210 H213 0.929 . S
C211 C210 1.363 . S
C211 C217 1.428 . S
H212 C208 0.930 . S
H213 C210 0.929 . S
S214 N215 1.613 . S
S214 N216 1.610 . S
N215 S214 1.613 . S
N215 C218 1.350 . S
N216 S214 1.610 . S
N216 C217 1.351 . S
C217 C211 1.428 . S
C217 N216 1.351 . S
C217 C218 1.434 . S
C218 C209 1.429 . S
C218 N215 1.350 . S
C218 C217 1.434 . S
C219 C220 1.369 . S
C219 C221 1.419 . S
C219 H223 0.930 . S
C220 C219 1.369 . S
C220 C229 1.429 . S
C221 C219 1.419 . S
C221 C222 1.363 . S
C221 H224 0.929 . S
C222 C221 1.363 . S
C222 C228 1.428 . S
H223 C219 0.930 . S
H224 C221 0.929 . S
S225 N226 1.613 . S
S225 N227 1.610 . S
N226 S225 1.613 . S
N226 C229 1.350 . S
N227 S225 1.610 . S
N227 C228 1.351 . S
C228 C222 1.428 . S
C228 N227 1.351 . S
C228 C229 1.434 . S
C229 C220 1.429 . S
C229 N226 1.350 . S
C229 C228 1.434 . S
C230 C231 1.369 . S
C230 C232 1.419 . S
C230 H234 0.930 . S
C231 C230 1.369 . S
C231 C240 1.429 . S
C232 C230 1.419 . S
C232 C233 1.363 . S
C232 H235 0.929 . S
C233 C232 1.363 . S
C233 C239 1.428 . S
H234 C230 0.930 . S
H235 C232 0.929 . S
S236 N237 1.613 . S
S236 N238 1.610 1_554 S
N237 S236 1.613 . S
N237 C240 1.350 1_554 S
N238 S236 1.610 1_556 S
N238 C239 1.351 . S
C239 C233 1.428 . S
C239 N238 1.351 . S
C239 C240 1.434 . S
C240 C231 1.429 . S
C240 N237 1.350 1_556 S
C240 C239 1.434 . S
C241 C242 1.369 . S
C241 C243 1.419 . S
C241 H245 0.930 . S
C242 C241 1.369 . S
C242 C251 1.429 . S
C243 C241 1.419 . S
C243 C244 1.363 . S
C243 H246 0.929 . S
C244 C243 1.363 . S
C244 C250 1.428 . S
H245 C241 0.930 . S
H246 C243 0.929 . S
S247 N248 1.613 . S
S247 N249 1.610 . S
N248 S247 1.613 . S
N248 C251 1.350 . S
N249 S247 1.610 . S
N249 C250 1.351 . S
C250 C244 1.428 . S
C250 N249 1.351 . S
C250 C251 1.434 . S
C251 C242 1.429 . S
C251 N248 1.350 . S
C251 C250 1.434 . S
C252 C253 1.369 . S
C252 C254 1.419 . S
C252 H256 0.930 . S
C253 C252 1.369 . S
C253 C262 1.429 . S
C254 C252 1.419 . S
C254 C255 1.363 . S
C254 H257 0.929 . S
C255 C254 1.363 . S
C255 C261 1.428 . S
H256 C252 0.930 . S
H257 C254 0.929 . S
S258 N259 1.613 . S
S258 N260 1.610 . S
N259 S258 1.613 . S
N259 C262 1.350 . S
N260 S258 1.610 . S
N260 C261 1.351 . S
C261 C255 1.428 . S
C261 N260 1.351 . S
C261 C262 1.434 . S
C262 C253 1.429 . S
C262 N259 1.350 . S
C262 C261 1.434 . S
C263 C264 1.369 . S
C263 C265 1.419 . S
C263 H267 0.930 . S
C264 C263 1.369 . S
C264 C273 1.429 . S
C265 C263 1.419 . S
C265 C266 1.363 . S
C265 H268 0.929 . S
C266 C265 1.363 . S
C266 C272 1.428 . S
H267 C263 0.930 . S
H268 C265 0.929 . S
S269 N270 1.613 . S
S269 N271 1.610 . S
N270 S269 1.613 . S
N270 C273 1.350 . S
N271 S269 1.610 . S
N271 C272 1.351 . S
C272 C266 1.428 . S
C272 N271 1.351 . S
C272 C273 1.434 . S
C273 C264 1.429 . S
C273 N270 1.350 . S
C273 C272 1.434 . S
C274 C275 1.369 . S
C274 C276 1.419 . S
C274 H278 0.930 . S
C275 C274 1.369 . S
C275 C284 1.429 . S
C276 C274 1.419 . S
C276 C277 1.363 . S
C276 H279 0.929 . S
C277 C276 1.363 . S
C277 C283 1.428 . S
H278 C274 0.930 . S
H279 C276 0.929 . S
S280 N281 1.613 . S
S280 N282 1.610 . S
N281 S280 1.613 . S
N281 C284 1.350 . S
N282 S280 1.610 . S
N282 C283 1.351 . S
C283 C277 1.428 . S
C283 N282 1.351 . S
C283 C284 1.434 . S
C284 C275 1.429 . S
C284 N281 1.350 . S
C284 C283 1.434 . S
C285 C286 1.369 . S
C285 C287 1.419 . S
C285 H289 0.930 . S
C286 C285 1.369 . S
C286 C295 1.429 . S
C287 C285 1.419 . S
C287 C288 1.363 . S
C287 H290 0.929 . S
C288 C287 1.363 . S
C288 C294 1.428 . S
H289 C285 0.930 . S
H290 C287 0.929 . S
S291 N292 1.613 . S
S291 N293 1.610 . S
N292 S291 1.613 . S
N292 C295 1.350 . S
N293 S291 1.610 . S
N293 C294 1.351 . S
C294 C288 1.428 . S
C294 N293 1.351 . S
C294 C295 1.434 . S
C295 C286 1.429 . S
C295 N292 1.350 . S
C295 C294 1.434 . S
C296 C297 1.369 . S
C296 C298 1.419 . S
C296 H300 0.930 . S
C297 C296 1.369 . S
C297 C306 1.429 . S
C298 C296 1.419 . S
C298 C299 1.363 . S
C298 H301 0.929 . S
C299 C298 1.363 . S
C299 C305 1.428 . S
H300 C296 0.930 . S
H301 C298 0.929 . S
S302 N303 1.613 . S
S302 N304 1.610 . S
N303 S302 1.613 . S
N303 C306 1.350 . S
N304 S302 1.610 . S
N304 C305 1.351 . S
C305 C299 1.428 . S
C305 N304 1.351 . S
C305 C306 1.434 . S
C306 C297 1.429 . S
C306 N303 1.350 . S
C306 C305 1.434 . S
C307 C308 1.369 . S
C307 C309 1.419 . S
C307 H311 0.930 . S
C308 C307 1.369 . S
C308 C317 1.429 . S
C309 C307 1.419 . S
C309 C310 1.363 . S
C309 H312 0.929 . S
C310 C309 1.363 . S
C310 C316 1.428 . S
H311 C307 0.930 . S
H312 C309 0.929 . S
S313 N314 1.613 . S
S313 N315 1.610 . S
N314 S313 1.613 . S
N314 C317 1.350 . S
N315 S313 1.610 . S
N315 C316 1.351 . S
C316 C310 1.428 . S
C316 N315 1.351 . S
C316 C317 1.434 . S
C317 C308 1.429 . S
C317 N314 1.350 . S
C317 C316 1.434 . S
C318 C319 1.369 . S
C318 C320 1.419 . S
C318 H322 0.930 . S
C319 C318 1.369 . S
C319 C328 1.429 . S
C320 C318 1.419 . S
C320 C321 1.363 . S
C320 H323 0.929 . S
C321 C320 1.363 . S
C321 C327 1.428 . S
H322 C318 0.930 . S
H323 C320 0.929 . S
S324 N325 1.613 . S
S324 N326 1.610 . S
N325 S324 1.613 . S
N325 C328 1.350 . S
N326 S324 1.610 . S
N326 C327 1.351 . S
C327 C321 1.428 . S
C327 N326 1.351 . S
C327 C328 1.434 . S
C328 C319 1.429 . S
C328 N325 1.350 . S
C328 C327 1.434 . S
C329 C330 1.369 . S
C329 C331 1.419 . S
C329 H333 0.930 . S
C330 C329 1.369 . S
C330 C339 1.429 . S
C331 C329 1.419 . S
C331 C332 1.363 . S
C331 H334 0.929 . S
C332 C331 1.363 . S
C332 C338 1.428 . S
H333 C329 0.930 . S
H334 C331 0.929 . S
S335 N336 1.613 . S
S335 N337 1.610 . S
N336 S335 1.613 . S
N336 C339 1.350 . S
N337 S335 1.610 . S
N337 C338 1.351 . S
C338 C332 1.428 . S
C338 N337 1.351 . S
C338 C339 1.434 . S
C339 C330 1.429 . S
C339 N336 1.350 . S
C339 C338 1.434 . S
C340 C341 1.369 . S
C340 C342 1.419 . S
C340 H344 0.930 . S
C341 C340 1.369 . S
C341 C350 1.429 . S
C342 C340 1.419 . S
C342 C343 1.363 . S
C342 H345 0.929 . S
C343 C342 1.363 . S
C343 C349 1.428 . S
H344 C340 0.930 . S
H345 C342 0.929 . S
S346 N347 1.613 . S
S346 N348 1.610 . S
N347 S346 1.613 . S
N347 C350 1.350 . S
N348 S346 1.610 . S
N348 C349 1.351 . S
C349 C343 1.428 . S
C349 N348 1.351 . S
C349 C350 1.434 . S
C350 C341 1.429 . S
C350 N347 1.350 . S
C350 C349 1.434 . S
C351 C352 1.369 . S
C351 C353 1.419 . S
C351 H355 0.930 . S
C352 C351 1.369 . S
C352 C361 1.429 . S
C353 C351 1.419 . S
C353 C354 1.363 . S
C353 H356 0.929 . S
C354 C353 1.363 . S
C354 C360 1.428 . S
H355 C351 0.930 . S
H356 C353 0.929 . S
S357 N358 1.606 1_554 S
S357 N359 1.612 . S
N358 S357 1.606 1_556 S
N358 C361 1.350 . S
N359 S357 1.612 . S
N359 C360 1.351 1_554 S
C360 C354 1.428 . S
C360 N359 1.351 1_556 S
C360 C361 1.434 . S
C361 C352 1.429 . S
C361 N358 1.350 . S
C361 C360 1.434 . S
C362 C363 1.369 . S
C362 C364 1.419 . S
C362 H366 0.930 . S
C363 C362 1.369 . S
C363 C372 1.429 . S
C364 C362 1.419 . S
C364 C365 1.363 . S
C364 H367 0.929 . S
C365 C364 1.363 . S
C365 C371 1.428 . S
H366 C362 0.930 . S
H367 C364 0.929 . S
S368 N369 1.613 . S
S368 N370 1.610 . S
N369 S368 1.613 . S
N369 C372 1.350 . S
N370 S368 1.610 . S
N370 C371 1.351 . S
C371 C365 1.428 . S
C371 N370 1.351 . S
C371 C372 1.434 . S
C372 C363 1.429 . S
C372 N369 1.350 . S
C372 C371 1.434 . S
C373 C374 1.369 . S
C373 C375 1.419 . S
C373 H377 0.930 . S
C374 C373 1.369 . S
C374 C383 1.429 . S
C375 C373 1.419 . S
C375 C376 1.363 . S
C375 H378 0.929 . S
C376 C375 1.363 . S
C376 C382 1.428 . S
H377 C373 0.930 . S
H378 C375 0.929 . S
S379 N380 1.613 . S
S379 N381 1.610 . S
N380 S379 1.613 . S
N380 C383 1.350 . S
N381 S379 1.610 . S
N381 C382 1.351 . S
C382 C376 1.428 . S
C382 N381 1.351 . S
C382 C383 1.434 . S
C383 C374 1.429 . S
C383 N380 1.350 . S
C383 C382 1.434 . S
C384 C385 1.369 . S
C384 C386 1.419 . S
C384 H388 0.930 . S
C385 C384 1.369 . S
C385 C394 1.429 . S
C386 C384 1.419 . S
C386 C387 1.363 . S
C386 H389 0.929 . S
C387 C386 1.363 . S
C387 C393 1.428 . S
H388 C384 0.930 . S
H389 C386 0.929 . S
S390 N391 1.613 . S
S390 N392 1.610 . S
N391 S390 1.613 . S
N391 C394 1.350 . S
N392 S390 1.610 . S
N392 C393 1.351 . S
C393 C387 1.428 . S
C393 N392 1.351 . S
C393 C394 1.434 . S
C394 C385 1.429 . S
C394 N391 1.350 . S
C394 C393 1.434 . S
C395 C396 1.369 . S
C395 C397 1.419 . S
C395 H399 0.930 . S
C396 C395 1.369 . S
C396 C405 1.429 . S
C397 C395 1.419 . S
C397 C398 1.363 . S
C397 H400 0.929 . S
C398 C397 1.363 . S
C398 C404 1.428 . S
H399 C395 0.930 . S
H400 C397 0.929 . S
S401 N402 1.613 . S
S401 N403 1.610 . S
N402 S401 1.613 . S
N402 C405 1.350 . S
N403 S401 1.610 . S
N403 C404 1.351 . S
C404 C398 1.428 . S
C404 N403 1.351 . S
C404 C405 1.434 . S
C405 C396 1.429 . S
C405 N402 1.350 . S
C405 C404 1.434 . S
C406 C407 1.369 . S
C406 C408 1.419 . S
C406 H410 0.930 . S
C407 C406 1.369 . S
C407 C416 1.429 . S
C408 C406 1.419 . S
C408 C409 1.363 . S
C408 H411 0.929 . S
C409 C408 1.363 . S
C409 C415 1.428 . S
H410 C406 0.930 . S
H411 C408 0.929 . S
S412 N413 1.613 . S
S412 N414 1.610 . S
N413 S412 1.613 . S
N413 C416 1.350 . S
N414 S412 1.610 . S
N414 C415 1.351 . S
C415 C409 1.428 . S
C415 N414 1.351 . S
C415 C416 1.434 . S
C416 C407 1.429 . S
C416 N413 1.350 . S
C416 C415 1.434 . S
C417 C418 1.369 . S
C417 C419 1.419 . S
C417 H421 0.930 . S
C418 C417 1.369 . S
C418 C427 1.429 . S
C419 C417 1.419 . S
C419 C420 1.363 . S
C419 H422 0.929 . S
C420 C419 1.363 . S
C420 C426 1.428 . S
H421 C417 0.930 . S
H422 C419 0.929 . S
S423 N424 1.613 . S
S423 N425 1.610 . S
N424 S423 1.613 . S
N424 C427 1.350 . S
N425 S423 1.610 . S
N425 C426 1.351 . S
C426 C420 1.428 . S
C426 N425 1.351 . S
C426 C427 1.434 . S
C427 C418 1.429 . S
C427 N424 1.350 . S
C427 C426 1.434 . S
C428 C429 1.369 . S
C428 C430 1.419 . S
C428 H432 0.930 . S
C429 C428 1.369 . S
C429 C438 1.429 . S
C430 C428 1.419 . S
C430 C431 1.363 1_554 S
C430 H433 0.929 1_554 S
C431 C430 1.363 1_556 S
C431 C437 1.428 1_556 S
H432 C428 0.930 . S
H433 C430 0.929 1_556 S
S434 N435 1.613 . S
S434 N436 1.610 1_554 S
N435 S434 1.613 . S
N435 C438 1.350 . S
N436 S434 1.610 1_556 S
N436 C437 1.351 1_556 S
C437 C431 1.428 1_554 S
C437 N436 1.351 1_554 S
C437 C438 1.434 . S
C438 C429 1.429 . S
C438 N435 1.350 . S
C438 C437 1.434 . S
C439 C440 1.369 . S
C439 C441 1.419 . S
C439 H443 0.930 . S
C440 C439 1.369 . S
C440 C449 1.429 . S
C441 C439 1.419 . S
C441 C442 1.363 . S
C441 H444 0.929 . S
C442 C441 1.363 . S
C442 C448 1.428 . S
H443 C439 0.930 . S
H444 C441 0.929 . S
S445 N446 1.613 . S
S445 N447 1.610 . S
N446 S445 1.613 . S
N446 C449 1.350 . S
N447 S445 1.610 . S
N447 C448 1.351 . S
C448 C442 1.428 . S
C448 N447 1.351 . S
C448 C449 1.434 . S
C449 C440 1.429 . S
C449 N446 1.350 . S
C449 C448 1.434 . S
C189 C183 1.570 . S
C187 C8 1.528 . S
C198 C26 1.500 . S
C200 C108 1.479 . S
C209 C50 1.530 . S
C211 C131 1.588 . S
C220 C68 1.444 . S
C222 C144 1.486 . S
C233 C147 1.501 . S
C231 C80 1.521 . S
C242 C104 1.447 . S
C244 C160 1.439 . S
C253 C32 1.448 . S
C255 C121 1.449 . S
C264 C44 1.526 . S
C266 C134 1.496 . S
C275 C62 1.445 . S
C277 C157 1.484 . S
C288 C170 1.584 . S
C286 C86 1.525 1_554 S
C299 C173 1.470 . S
C297 C98 1.502 . S
C310 C118 1.573 . S
C308 C14 1.530 . S
C319 C7 1.467 . S
C321 C129 1.474 . S
C330 C25 1.435 . S
C332 C142 1.452 . S
C343 C152 1.467 . S
C341 C52 1.462 . S
C352 C70 1.449 . S
C354 C165 1.461 . S
C365 C181 1.476 . S
C363 C79 1.462 . S
C376 C113 1.445 . S
C374 C106 1.433 . S
C387 C178 1.444 . S
C385 C34 1.432 . S
C396 C43 1.470 . S
C398 C116 1.471 . S
C409 C126 1.452 . S
C407 C61 1.448 . S
C418 C88 1.463 . S
C420 C139 1.469 . S
C429 C97 1.442 . S
C431 C155 1.447 . S
C440 C16 1.474 . S
C442 C168 1.469 . S
