# Generated by pormake.
# Topology zzz, (3,6)-cn, num edge types: 1
# Building blocks:
#     Node 0, Type 0, BuildingBlock: QEWDON_clean_linker_0, # of connection points: 3
#     Node 1, Type 0, BuildingBlock: QEWDON_clean_linker_0, # of connection points: 3
#     Node 2, Type 0, BuildingBlock: QEWDON_clean_linker_0, # of connection points: 3
#     Node 3, Type 0, BuildingBlock: QEWDON_clean_linker_0, # of connection points: 3
#     Node 4, Type 0, BuildingBlock: QEWDON_clean_linker_0, # of connection points: 3
#     Node 5, Type 0, BuildingBlock: QEWDON_clean_linker_0, # of connection points: 3
#     Node 6, Type 0, BuildingBlock: QEWDON_clean_linker_0, # of connection points: 3
#     Node 7, Type 0, BuildingBlock: QEWDON_clean_linker_0, # of connection points: 3
#     Node 8, Type 1, BuildingBlock: PAMTOO_clean_sbu_0, # of connection points: 6
#     Node 9, Type 1, BuildingBlock: PAMTOO_clean_sbu_0, # of connection points: 6
#     Node 10, Type 1, BuildingBlock: PAMTOO_clean_sbu_0, # of connection points: 6
#     Node 11, Type 1, BuildingBlock: PAMTOO_clean_sbu_0, # of connection points: 6
#     Edge 12, Type (0, 1), BuildingBlock: UVAHIK_clean_linker_0, # of connection points: 2
#     Edge 13, Type (0, 1), BuildingBlock: UVAHIK_clean_linker_0, # of connection points: 2
#     Edge 14, Type (0, 1), BuildingBlock: UVAHIK_clean_linker_0, # of connection points: 2
#     Edge 15, Type (0, 1), BuildingBlock: UVAHIK_clean_linker_0, # of connection points: 2
#     Edge 16, Type (0, 1), BuildingBlock: UVAHIK_clean_linker_0, # of connection points: 2
#     Edge 17, Type (0, 1), BuildingBlock: UVAHIK_clean_linker_0, # of connection points: 2
#     Edge 18, Type (0, 1), BuildingBlock: UVAHIK_clean_linker_0, # of connection points: 2
#     Edge 19, Type (0, 1), BuildingBlock: UVAHIK_clean_linker_0, # of connection points: 2
#     Edge 20, Type (0, 1), BuildingBlock: UVAHIK_clean_linker_0, # of connection points: 2
#     Edge 21, Type (0, 1), BuildingBlock: UVAHIK_clean_linker_0, # of connection points: 2
#     Edge 22, Type (0, 1), BuildingBlock: UVAHIK_clean_linker_0, # of connection points: 2
#     Edge 23, Type (0, 1), BuildingBlock: UVAHIK_clean_linker_0, # of connection points: 2
#     Edge 24, Type (0, 1), BuildingBlock: UVAHIK_clean_linker_0, # of connection points: 2
#     Edge 25, Type (0, 1), BuildingBlock: UVAHIK_clean_linker_0, # of connection points: 2
#     Edge 26, Type (0, 1), BuildingBlock: UVAHIK_clean_linker_0, # of connection points: 2
#     Edge 27, Type (0, 1), BuildingBlock: UVAHIK_clean_linker_0, # of connection points: 2
#     Edge 28, Type (0, 1), BuildingBlock: UVAHIK_clean_linker_0, # of connection points: 2
#     Edge 29, Type (0, 1), BuildingBlock: UVAHIK_clean_linker_0, # of connection points: 2
#     Edge 30, Type (0, 1), BuildingBlock: UVAHIK_clean_linker_0, # of connection points: 2
#     Edge 31, Type (0, 1), BuildingBlock: UVAHIK_clean_linker_0, # of connection points: 2
#     Edge 32, Type (0, 1), BuildingBlock: UVAHIK_clean_linker_0, # of connection points: 2
#     Edge 33, Type (0, 1), BuildingBlock: UVAHIK_clean_linker_0, # of connection points: 2
#     Edge 34, Type (0, 1), BuildingBlock: UVAHIK_clean_linker_0, # of connection points: 2
#     Edge 35, Type (0, 1), BuildingBlock: UVAHIK_clean_linker_0, # of connection points: 2
# Relax obj value: 0.129
# Max RMSD: 0.249
# Mean RMSD: 0.079
data_MOF--net-zzz--node1-PAMTOO_clean_sbu_0--node2-QEWDON_clean_linker_0--edge1-UVAHIK_clean_linker_0
_symmetry_space_group_name_H-M    P1
_symmetry_Int_Tables_number       1
_symmetry_cell_setting            triclinic
loop_
_symmetry_equiv_pos_as_xyz
'x, y, z'
_cell_length_a     76.491077
_cell_length_b     68.175702
_cell_length_c     19.526846
_cell_angle_alpha  90.888635
_cell_angle_beta   81.407113
_cell_angle_gamma 86.866516
loop_
_atom_site_label
_atom_site_type_symbol
_atom_site_fract_x
_atom_site_fract_y
_atom_site_fract_z
_atom_type_partial_charge
H0 H 0.79512 0.5224 0.26093 0.0
C1 C 0.80366 0.52055 0.30007 0.0
C2 C 0.82133 0.51413 0.27851 0.0
C3 C 0.79727 0.52515 0.37031 0.0
H4 H 0.84676 0.50792 0.3098 0.0
C5 C 0.83304 0.51271 0.32709 0.0
C6 C 0.82736 0.51731 0.39741 0.0
C7 C 0.8094 0.52346 0.41888 0.0
C8 C 0.77816 0.53215 0.39138 0.0
H9 H 0.80495 0.52647 0.47343 0.0
C10 C 0.76485 0.52698 0.35189 0.0
C11 C 0.7472 0.53477 0.36855 0.0
C12 C 0.77314 0.54486 0.44937 0.0
H13 H 0.78277 0.54975 0.4802 0.0
C14 C 0.75558 0.55205 0.46747 0.0
H15 H 0.768 0.51678 0.30825 0.0
C16 C 0.74274 0.54717 0.4274 0.0
H17 H 0.72938 0.55356 0.44149 0.0
H18 H 0.75199 0.56188 0.51204 0.0
H19 H 0.99053 0.73228 0.30217 0.0
C20 C 0.99374 0.74247 0.34085 0.0
C21 C 0.99426 0.76238 0.32467 0.0
C22 C 0.99695 0.73591 0.40632 0.0
H23 H 0.99827 0.79146 0.36193 0.0
C24 C 0.9976 0.77605 0.37459 0.0
C25 C 1.00069 0.77012 0.44001 0.0
C26 C 1.00053 0.75006 0.45586 0.0
C27 C 0.99619 0.71448 0.42255 0.0
H28 H 1.00344 0.74561 0.5061 0.0
C29 C 1.00017 0.69974 0.3696 0.0
C30 C 0.99805 0.67971 0.38391 0.0
C31 C 0.99067 0.70857 0.49076 0.0
H32 H 0.98705 0.71923 0.53279 0.0
C33 C 0.98921 0.68872 0.50567 0.0
H34 H 1.0046 0.70378 0.31678 0.0
C35 C 0.99277 0.67441 0.45288 0.0
H36 H 0.99138 0.65915 0.46617 0.0
H37 H 0.98498 0.68442 0.55843 0.0
H38 H 0.77241 1.00018 0.15748 0.0
C39 C 0.76253 1.00026 0.20342 0.0
C40 C 0.74555 0.00878 0.20026 0.0
C41 C 0.76646 0.99124 0.26437 0.0
H42 H 0.71892 0.01376 0.2541 0.0
C43 C 0.73227 0.008 0.25767 0.0
C44 C 0.73547 0.99854 0.31771 0.0
C45 C 0.75262 0.99046 0.32164 0.0
C46 C 0.78455 0.98157 0.26632 0.0
H47 H 0.75498 0.9835 0.3691 0.0
C48 C 0.80012 0.98851 0.22715 0.0
C49 C 0.81693 0.97898 0.22929 0.0
C50 C 0.78631 0.96477 0.3064 0.0
H51 H 0.77486 0.9584 0.33499 0.0
C52 C 0.80288 0.95549 0.30901 0.0
H53 H 0.79931 1.00146 0.19613 0.0
C54 C 0.81804 0.96251 0.27108 0.0
H55 H 0.83067 0.95474 0.27331 0.0
H56 H 0.80394 0.94258 0.34006 0.0
H57 H 0.53218 0.73996 0.09838 0.0
C58 C 0.53129 0.73249 0.14728 0.0
C59 C 0.52176 0.71546 0.15627 0.0
C60 C 0.54044 0.73922 0.19988 0.0
H61 H 0.51476 0.69153 0.22308 0.0
C62 C 0.52131 0.70527 0.21808 0.0
C63 C 0.53061 0.71126 0.27046 0.0
C64 C 0.54014 0.72833 0.26129 0.0
C65 C 0.55162 0.75648 0.18806 0.0
H66 H 0.54743 0.73298 0.30161 0.0
C67 C 0.54567 0.7737 0.15672 0.0
C68 C 0.55661 0.78977 0.14517 0.0
C69 C 0.56869 0.7555 0.20674 0.0
H70 H 0.57382 0.7424 0.22939 0.0
C71 C 0.57958 0.77118 0.19478 0.0
H72 H 0.53246 0.77473 0.14286 0.0
C73 C 0.57366 0.78812 0.16422 0.0
H74 H 0.58262 0.79987 0.1546 0.0
H75 H 0.59276 0.77013 0.20876 0.0
H76 H 0.25642 0.52041 0.15326 0.0
C77 C 0.24674 0.51673 0.12068 0.0
C78 C 0.22919 0.52384 0.14064 0.0
C79 C 0.25191 0.50581 0.05836 0.0
H80 H 0.20295 0.5258 0.11351 0.0
C81 C 0.21658 0.52045 0.09738 0.0
C82 C 0.22116 0.50987 0.03451 0.0
C83 C 0.23878 0.50215 0.01595 0.0
C84 C 0.27115 0.49961 0.03643 0.0
H85 H 0.24223 0.4937 0.96801 0.0
C86 C 0.28281 0.49624 0.08582 0.0
C87 C 0.30127 0.49283 0.06526 0.0
C88 C 0.27835 0.49849 0.96572 0.0
H89 H 0.27017 0.50141 0.92595 0.0
C90 C 0.29645 0.49441 0.94495 0.0
H91 H 0.2776 0.4963 0.14047 0.0
C92 C 0.30784 0.49181 0.99398 0.0
H93 H 0.32189 0.48958 0.97574 0.0
H94 H 0.30177 0.49383 0.89034 0.0
H95 H 0.03138 0.27551 0.18178 0.0
C96 C 0.03485 0.26523 0.13839 0.0
C97 C 0.04132 0.24636 0.15141 0.0
C98 C 0.03229 0.27058 0.07099 0.0
H99 H 0.04898 0.21742 0.1094 0.0
C100 C 0.04481 0.23231 0.09768 0.0
C101 C 0.04144 0.23665 0.03085 0.0
C102 C 0.03532 0.25592 0.01731 0.0
C103 C 0.02558 0.29116 0.05927 0.0
H104 H 0.03303 0.25934 0.96533 0.0
C105 C 0.0296 0.307 0.10089 0.0
C106 C 0.02165 0.32602 0.09692 0.0
C107 C 0.01424 0.29506 0.01006 0.0
H108 H 1.01052 0.2834 0.97787 0.0
C109 C 1.00694 0.31405 0.00353 0.0
H110 H 0.03888 0.30458 0.13707 0.0
C111 C 1.01043 0.32937 0.04696 0.0
H112 H 1.00391 0.3437 0.04263 0.0
H113 H 0.9981 0.3168 0.9659 0.0
H114 H 0.2726 0.99259 0.32139 0.0
C115 C 0.28236 0.99781 0.2808 0.0
C116 C 0.29971 0.99974 0.29422 0.0
C117 C 0.27781 1.00204 0.21493 0.0
H118 H 0.32625 0.00641 0.25129 0.0
C119 C 0.3127 0.00565 0.24152 0.0
C120 C 0.30885 0.0092 0.17501 0.0
C121 C 0.29137 0.00757 0.16184 0.0
C122 C 0.25922 0.99975 0.20092 0.0
H123 H 0.28845 0.01073 0.11045 0.0
C124 C 0.24426 1.00349 0.25307 0.0
C125 C 0.22688 1.00118 0.23867 0.0
C126 C 0.25632 0.99336 0.13483 0.0
H127 H 0.26727 0.98965 0.09408 0.0
C128 C 0.23921 0.99117 0.12046 0.0
H129 H 0.246 0.00858 0.30428 0.0
C130 C 0.22463 0.99508 0.17164 0.0
H131 H 0.21153 0.99293 0.15907 0.0
H132 H 0.23725 0.98621 0.06937 0.0
H133 H 0.526 0.27008 0.33711 0.0
C134 C 0.51849 0.27956 0.30672 0.0
C135 C 0.51682 0.29983 0.32173 0.0
C136 C 0.51122 0.2718 0.25042 0.0
H137 H 0.50745 0.32816 0.29112 0.0
C138 C 0.50795 0.31242 0.28085 0.0
C139 C 0.50116 0.30526 0.22344 0.0
C140 C 0.50258 0.28493 0.20894 0.0
C141 C 0.51381 0.25036 0.23139 0.0
H142 H 0.49709 0.27949 0.16478 0.0
C143 C 0.51367 0.23572 0.28224 0.0
C144 C 0.51643 0.21557 0.2627 0.0
C145 C 0.51682 0.24445 0.16101 0.0
H146 H 0.51765 0.25513 0.12038 0.0
C147 C 0.51913 0.22465 0.14163 0.0
H148 H 0.51155 0.23995 0.33665 0.0
C149 C 0.51885 0.21034 0.19175 0.0
H150 H 0.52046 0.19507 0.17464 0.0
H151 H 0.52125 0.22035 0.08728 0.0
Dy152 Dy 0.0143 0.01 0.68513 0.0
Dy153 Dy 0.03177 0.99349 0.81569 0.0
C154 C 0.05621 1.0034 0.67535 0.0
O155 O 0.01897 0.97766 0.66158 0.0
O156 O 0.01998 0.96759 0.7725 0.0
O157 O 0.01561 0.01489 0.57539 0.0
O158 O 0.99327 0.02709 0.64744 0.0
O159 O 1.00309 1.00163 0.85523 0.0
O160 O 0.99164 0.99794 0.75452 0.0
O161 O 0.03805 0.0252 0.81242 0.0
O162 O 0.01447 0.0352 0.76 0.0
O163 O 0.03136 0.99037 0.9261 0.0
O164 O 0.05258 0.97617 0.85371 0.0
C165 C 0.01875 0.96367 0.70738 0.0
O166 O 0.04325 0.01544 0.66191 0.0
O167 O 0.05339 0.99061 0.72462 0.0
C168 C 1.00679 0.04794 0.56539 0.0
C169 C 0.01501 0.08689 0.53557 0.0
C170 C 0.02335 0.07638 0.58405 0.0
C171 C 0.01933 0.05712 0.59849 0.0
C172 C 0.99825 0.0583 0.51736 0.0
C173 C 1.00237 0.0777 0.50236 0.0
C174 C 1.00234 0.02801 0.58563 0.0
C175 C 0.98949 0.99923 0.82247 0.0
C176 C 0.02735 0.03928 0.7944 0.0
C177 C 0.03998 0.95728 0.94375 0.0
C178 C 0.03363 0.91733 0.96383 0.0
C179 C 0.01983 0.93082 0.95284 0.0
C180 C 0.02299 0.95056 0.94254 0.0
C181 C 0.05362 0.94406 0.95767 0.0
C182 C 0.05047 0.92423 0.96776 0.0
C183 C 0.04419 0.97672 0.91682 0.0
H184 H 0.03287 0.08311 0.61148 0.0
H185 H 0.02595 0.04942 0.63627 0.0
H186 H 0.98843 0.05146 0.49182 0.0
H187 H 0.99584 0.08542 0.46429 0.0
H188 H 1.00663 0.92606 0.95087 0.0
H189 H 1.01231 0.96039 0.93049 0.0
H190 H 0.0669 0.94888 0.9572 0.0
H191 H 0.06141 0.91418 0.9757 0.0
Dy192 Dy 0.51423 0.99418 0.66871 0.0
Dy193 Dy 0.52722 0.0177 0.79699 0.0
C194 C 0.51693 0.04036 0.66878 0.0
O195 O 0.54391 0.989 0.64833 0.0
O196 O 0.55022 0.0157 0.71104 0.0
O197 O 0.5031 0.99516 0.5736 0.0
O198 O 0.50897 0.96712 0.61772 0.0
O199 O 0.53556 0.9859 0.80461 0.0
O200 O 0.51284 0.97374 0.75755 0.0
O201 O 0.49897 0.01204 0.83739 0.0
O202 O 0.48947 0.00764 0.73245 0.0
O203 O 0.53377 0.01855 0.90103 0.0
O204 O 0.53756 0.04378 0.836 0.0
C205 C 0.55526 1.00139 0.66534 0.0
O206 O 0.52172 0.02403 0.63269 0.0
O207 O 0.51373 0.04005 0.73668 0.0
C208 C 0.48244 0.97108 0.57079 0.0
C209 C 0.44711 0.96178 0.56663 0.0
C210 C 0.45091 0.97716 0.60984 0.0
C211 C 0.46836 0.98171 0.61192 0.0
C212 C 0.47882 0.95548 0.5285 0.0
C213 C 0.46128 0.95086 0.52633 0.0
C214 C 0.50075 0.97637 0.57286 0.0
C215 C 0.52527 0.97152 0.7967 0.0
C216 C 0.48612 0.01061 0.8 0.0
C217 C 0.55999 0.03489 0.90051 0.0
C218 C 0.59633 0.03426 0.91238 0.0
C219 C 0.59057 0.02509 0.85544 0.0
C220 C 0.57263 0.02518 0.8502 0.0
C221 C 0.56551 0.04425 0.95722 0.0
C222 C 0.58356 0.04385 0.96339 0.0
C223 C 0.54123 0.03525 0.89184 0.0
H224 H 0.44038 0.98614 0.64054 0.0
H225 H 0.47082 0.99383 0.64482 0.0
H226 H 0.48953 0.947 0.49683 0.0
H227 H 0.45881 0.93881 0.49294 0.0
H228 H 0.59991 0.01789 0.81438 0.0
H229 H 0.56863 0.01768 0.8065 0.0
H230 H 0.55591 0.05174 0.99674 0.0
H231 H 0.58745 0.0508 0.00856 0.0
Dy232 Dy 0.5406 0.50415 0.76417 0.0
Dy233 Dy 0.50011 0.50544 0.71174 0.0
C234 C 0.51043 0.47617 0.82303 0.0
O235 O 0.54412 0.48412 0.6709 0.0
O236 O 0.51517 0.48004 0.65305 0.0
O237 O 0.55551 0.49671 0.84614 0.0
O238 O 0.56914 0.50725 0.74889 0.0
O239 O 0.5183 0.52076 0.63215 0.0
O240 O 0.53874 0.53074 0.69911 0.0
O241 O 0.50076 0.53268 0.77492 0.0
O242 O 0.52318 0.52484 0.83838 0.0
O243 O 0.47889 0.52088 0.66909 0.0
O244 O 0.47553 0.49136 0.70637 0.0
C245 C 0.53226 0.47509 0.64147 0.0
O246 O 0.52696 0.47686 0.79422 0.0
O247 O 0.49875 0.4903 0.81355 0.0
C248 C 0.58399 0.50923 0.84954 0.0
C249 C 0.61039 0.51789 0.93192 0.0
C250 C 0.59232 0.52288 0.95556 0.0
C251 C 0.57927 0.51855 0.91495 0.0
C252 C 0.60201 0.50504 0.82465 0.0
C253 C 0.61503 0.50929 0.86516 0.0
C254 C 0.57064 0.50107 0.81094 0.0
C255 C 0.53024 0.53293 0.64555 0.0
C256 C 0.50992 0.53653 0.82475 0.0
C257 C 0.45685 0.50272 0.62544 0.0
C258 C 0.43263 0.499 0.5299 0.0
C259 C 0.45054 0.50242 0.5066 0.0
C260 C 0.46254 0.50438 0.55402 0.0
C261 C 0.43918 0.49872 0.64837 0.0
C262 C 0.42721 0.49691 0.60136 0.0
C263 C 0.4684 0.50641 0.6782 0.0
H264 H 0.5882 0.52983 0.00605 0.0
H265 H 0.56547 0.5219 0.93568 0.0
H266 H 0.60599 0.4976 0.77486 0.0
H267 H 0.62869 0.50496 0.8452 0.0
H268 H 0.45514 0.50418 0.45197 0.0
H269 H 0.47611 0.50754 0.53509 0.0
H270 H 0.43449 0.4974 0.70319 0.0
H271 H 0.41364 0.49395 0.62113 0.0
Dy272 Dy 0.02971 0.52151 0.67102 0.0
Dy273 Dy 0.01692 0.4876 0.7806 0.0
C274 C 0.02737 0.47767 0.6189 0.0
O275 O 1.0 0.52396 0.68107 0.0
O276 O 0.99393 0.49344 0.72366 0.0
O277 O 0.04516 0.5299 0.57557 0.0
O278 O 0.0297 0.55207 0.64327 0.0
O279 O 1.00907 0.51652 0.83619 0.0
O280 O 0.03046 0.53423 0.77638 0.0
O281 O 0.04393 0.49382 0.80319 0.0
O282 O 0.05461 0.50643 0.69793 0.0
O283 O 1.00213 0.4787 0.87697 0.0
O284 O 0.017 0.45689 0.80698 0.0
C285 C 0.98903 0.50982 0.69538 0.0
O286 O 0.02395 0.49616 0.60579 0.0
O287 O 0.02946 0.47232 0.68157 0.0
C288 C 0.05829 0.55937 0.59063 0.0
C289 C 0.09272 0.57259 0.58475 0.0
C290 C 0.08433 0.57241 0.52516 0.0
C291 C 0.06726 0.56585 0.52817 0.0
C292 C 0.06613 0.56056 0.65107 0.0
C293 C 0.08316 0.56723 0.64825 0.0
C294 C 0.04221 0.54861 0.59051 0.0
C295 C 0.01869 0.53195 0.83121 0.0
C296 C 0.05721 0.49931 0.75815 0.0
C297 C 0.98832 0.44979 0.85989 0.0
C298 C 0.95295 0.44009 0.86105 0.0
C299 C 0.96003 0.4418 0.92339 0.0
C300 C 0.97757 0.44659 0.92272 0.0
C301 C 0.98179 0.44654 0.79734 0.0
C302 C 0.9643 0.44158 0.79792 0.0
C303 C 1.00468 0.4601 0.86028 0.0
H304 H 0.09135 0.57606 0.47507 0.0
H305 H 0.0615 0.56477 0.48092 0.0
H306 H 0.05946 0.5554 0.6998 0.0
H307 H 0.08912 0.56738 0.69519 0.0
H308 H 0.9517 0.44107 0.97313 0.0
H309 H 0.9823 0.44925 0.97145 0.0
H310 H 0.98982 0.44909 0.74804 0.0
H311 H 0.95939 0.44007 0.74899 0.0
C312 C 0.20988 0.99575 0.35754 0.0
C313 C 0.21088 0.0046 0.2926 0.0
C314 C 0.19391 0.9968 0.40404 0.0
C315 C 0.1498 0.02401 0.44404 0.0
H316 H 0.13455 0.97552 0.5283 0.0
C317 C 0.07739 0.01634 0.57687 0.0
C318 C 0.07432 0.00433 0.63491 0.0
C319 C 0.0944 0.017 0.53855 0.0
C320 C 0.13864 0.98931 0.50627 0.0
H321 H 0.19612 0.02234 0.22724 0.0
H322 H 0.16848 0.02434 0.30808 0.0
H323 H 0.16373 0.97617 0.45868 0.0
H324 H 0.08701 0.98382 0.69851 0.0
H325 H 0.11658 0.9853 0.63305 0.0
H326 H 0.1248 0.03722 0.49165 0.0
C327 C 0.17994 0.0165 0.3233 0.0
C328 C 0.15545 0.98966 0.46615 0.0
C329 C 0.19578 0.01526 0.27668 0.0
C330 C 0.08878 0.99315 0.65388 0.0
C331 C 0.10581 0.99391 0.61588 0.0
C332 C 0.13304 0.02371 0.48457 0.0
C333 C 0.17864 0.00696 0.38709 0.0
C334 C 0.16121 0.00697 0.43386 0.0
C335 C 0.10891 0.00578 0.55736 0.0
C336 C 0.12709 0.0063 0.51584 0.0
H337 H 0.22122 0.98732 0.37122 0.0
H338 H 0.19347 0.98946 0.453 0.0
H339 H 0.15385 0.03768 0.42079 0.0
H340 H 0.0666 0.02511 0.56044 0.0
H341 H 0.09608 0.0261 0.49335 0.0
C342 C 0.50493 0.2002 0.37713 0.0
C343 C 0.51689 0.19972 0.31472 0.0
C344 C 0.50436 0.1841 0.42146 0.0
C345 C 0.51277 0.13091 0.41342 0.0
H346 H 0.51548 0.13344 0.60992 0.0
C347 C 0.52367 0.0604 0.56261 0.0
C348 C 0.51595 0.05928 0.63227 0.0
C349 C 0.52303 0.07812 0.5277 0.0
C350 C 0.51439 0.13245 0.55535 0.0
H351 H 0.53856 0.18247 0.25335 0.0
H352 H 0.53713 0.15445 0.32904 0.0
H353 H 0.51558 0.16373 0.54399 0.0
H354 H 0.50141 0.07601 0.71988 0.0
H355 H 0.49974 0.10684 0.65831 0.0
H356 H 0.51114 0.09994 0.42392 0.0
C357 C 0.52805 0.16711 0.34323 0.0
C358 C 0.51452 0.14984 0.51763 0.0
C359 C 0.52879 0.18318 0.29969 0.0
C360 C 0.50753 0.07637 0.66623 0.0
C361 C 0.50668 0.09411 0.63093 0.0
C362 C 0.51236 0.11364 0.45107 0.0
C363 C 0.51561 0.16718 0.40384 0.0
C364 C 0.51406 0.14918 0.44597 0.0
C365 C 0.5144 0.09524 0.56097 0.0
C366 C 0.51356 0.11404 0.52236 0.0
H367 H 0.49554 0.21263 0.3904 0.0
H368 H 0.49465 0.18455 0.468 0.0
H369 H 0.51208 0.12999 0.35844 0.0
H370 H 0.53047 0.04761 0.535 0.0
H371 H 0.52957 0.07837 0.47461 0.0
C372 C 0.32946 0.47905 0.10455 0.0
C373 C 0.31387 0.4914 0.11728 0.0
C374 C 0.34208 0.4791 0.1497 0.0
C375 C 0.34863 0.49243 0.32832 0.0
H376 H 0.39798 0.4945 0.24779 0.0
C377 C 0.40246 0.50758 0.49814 0.0
C378 C 0.4194 0.49811 0.48086 0.0
C379 C 0.38976 0.50642 0.45372 0.0
C380 C 0.38432 0.49362 0.27141 0.0
H381 H 0.2994 0.51322 0.18942 0.0
H382 H 0.32119 0.5129 0.26882 0.0
H383 H 0.3754 0.49249 0.17246 0.0
H384 H 0.4362 0.48 0.40265 0.0
H385 H 0.41397 0.47762 0.32554 0.0
H386 H 0.35746 0.49326 0.4272 0.0
C387 C 0.32361 0.50318 0.2236 0.0
C388 C 0.37133 0.49251 0.22802 0.0
C389 C 0.31104 0.50328 0.17806 0.0
C390 C 0.42335 0.48761 0.41736 0.0
C391 C 0.41056 0.4863 0.37304 0.0
C392 C 0.36162 0.49335 0.37173 0.0
C393 C 0.33944 0.49132 0.20944 0.0
C394 C 0.3533 0.49201 0.25587 0.0
C395 C 0.39351 0.49561 0.3907 0.0
C396 C 0.37968 0.49411 0.34403 0.0
H397 H 0.33201 0.46936 0.05929 0.0
H398 H 0.35395 0.4695 0.13781 0.0
H399 H 0.33491 0.49179 0.3516 0.0
H400 H 0.39905 0.51612 0.54598 0.0
H401 H 0.37702 0.51423 0.4687 0.0
C402 C 0.02501 0.33766 0.21724 0.0
C403 C 0.02424 0.34196 0.14741 0.0
C404 C 0.02659 0.3526 0.26555 0.0
C405 C 0.01812 0.40603 0.29783 0.0
H406 H 0.04838 0.39781 0.43855 0.0
C407 C 0.02765 0.46785 0.49387 0.0
C408 C 0.02847 0.46247 0.56263 0.0
C409 C 0.02808 0.45349 0.44141 0.0
C410 C 0.0397 0.4003 0.40015 0.0
H411 H 0.02493 0.36555 0.07389 0.0
H412 H 0.0275 0.39161 0.15839 0.0
H413 H 0.04749 0.37226 0.35062 0.0
H414 H 0.03038 0.43766 0.62987 0.0
H415 H 0.03085 0.41272 0.53898 0.0
H416 H 1.01008 0.43391 0.34789 0.0
C417 C 0.02672 0.37663 0.17576 0.0
C418 C 0.03922 0.38563 0.34956 0.0
C419 C 0.02523 0.36166 0.12727 0.0
C420 C 0.02985 0.44238 0.57747 0.0
C421 C 0.03021 0.42803 0.5251 0.0
C422 C 0.01853 0.42067 0.34862 0.0
C423 C 0.02733 0.3723 0.24561 0.0
C424 C 0.02835 0.38825 0.29794 0.0
C425 C 0.02928 0.43336 0.45631 0.0
C426 C 0.02925 0.41798 0.40079 0.0
H427 H 0.02391 0.32277 0.23525 0.0
H428 H 0.02674 0.34874 0.31906 0.0
H429 H 1.00941 0.40844 0.25947 0.0
H430 H 0.02663 0.48318 0.48043 0.0
H431 H 0.0276 0.4582 0.38899 0.0
C432 C 0.8489 0.98695 0.21838 0.0
C433 C 0.83353 0.9855 0.18754 0.0
C434 C 0.86523 0.99007 0.17831 0.0
C435 C 0.88706 0.00452 0.00321 0.0
H436 H 0.92744 0.97505 0.05701 0.0
C437 C 0.95634 0.99742 0.8297 0.0
C438 C 0.97139 0.99827 0.86309 0.0
C439 C 0.93934 0.99662 0.86813 0.0
C440 C 0.91639 0.98359 0.04154 0.0
H441 H 0.8232 0.98699 0.09033 0.0
H442 H 0.85179 0.99225 0.01979 0.0
H443 H 0.89834 0.97297 0.12516 0.0
H444 H 0.98016 0.99896 0.96368 0.0
H445 H 0.95068 0.99761 0.03032 0.0
H446 H 0.90526 0.01491 0.91883 0.0
C447 C 0.8512 0.99117 0.07533 0.0
C448 C 0.89961 0.98244 0.08089 0.0
C449 C 0.83477 0.98819 0.11575 0.0
C450 C 0.96894 0.99828 0.93597 0.0
C451 C 0.95198 0.99739 0.97432 0.0
C452 C 0.9039 0.00562 0.96358 0.0
C453 C 0.86678 0.99167 0.10586 0.0
C454 C 0.88467 0.99298 0.06277 0.0
C455 C 0.93691 0.99651 0.94106 0.0
C456 C 0.91884 0.99524 0.98242 0.0
H457 H 0.84837 0.98521 0.2737 0.0
H458 H 0.87673 0.99094 0.20427 0.0
H459 H 0.87598 0.013 0.98775 0.0
H460 H 0.95765 0.99738 0.7737 0.0
H461 H 0.92812 0.99575 0.84056 0.0
C462 C 0.55553 0.82659 0.13621 0.0
C463 C 0.55068 0.80829 0.113 0.0
C464 C 0.5518 0.84385 0.1021 0.0
C465 C 0.52381 0.8669 0.98419 0.0
H466 H 0.56272 0.90114 0.94393 0.0
C467 C 0.51905 0.93594 0.81514 0.0
C468 C 0.52771 0.95262 0.8322 0.0
C469 C 0.52142 0.91811 0.84835 0.0
C470 C 0.55158 0.89198 0.95556 0.0
H471 H 0.53729 0.79411 0.03702 0.0
H472 H 0.53044 0.82446 0.9781 0.0
H473 H 0.56694 0.87079 0.00473 0.0
H474 H 0.54546 0.96362 0.89865 0.0
H475 H 0.54922 0.93287 0.95778 0.0
H476 H 0.50831 0.88828 0.93631 0.0
C477 C 0.53728 0.8253 0.02268 0.0
C478 C 0.55405 0.87448 0.99028 0.0
C479 C 0.54116 0.80791 0.05662 0.0
C480 C 0.53869 0.95105 0.88371 0.0
C481 C 0.54094 0.9333 0.9174 0.0
C482 C 0.52126 0.88456 0.95001 0.0
C483 C 0.54293 0.84341 0.04414 0.0
C484 C 0.54019 0.86176 0.00543 0.0
C485 C 0.53242 0.91649 0.90003 0.0
C486 C 0.5351 0.89744 0.93547 0.0
H487 H 0.56244 0.8276 0.18056 0.0
H488 H 0.55598 0.85759 0.121 0.0
H489 H 0.51283 0.8575 0.99551 0.0
H490 H 0.51055 0.93656 0.77546 0.0
H491 H 0.51484 0.90551 0.83258 0.0
C492 C 0.73764 0.53195 0.25068 0.0
C493 C 0.73358 0.53088 0.32316 0.0
C494 C 0.72447 0.5301 0.20847 0.0
C495 C 0.67526 0.53384 0.21629 0.0
H496 H 0.6859 0.50938 0.0332 0.0
C497 C 0.62068 0.51734 0.04926 0.0
C498 C 0.62425 0.52063 0.97759 0.0
C499 C 0.63392 0.51875 0.09135 0.0
C500 C 0.68273 0.51645 0.08394 0.0
H501 H 0.71254 0.52613 0.40763 0.0
H502 H 0.68971 0.52247 0.33436 0.0
H503 H 0.70908 0.51061 0.10612 0.0
H504 H 0.64471 0.52864 0.89506 0.0
H505 H 0.66775 0.53089 0.96822 0.0
H506 H 0.64884 0.53946 0.1942 0.0
C507 C 0.70296 0.52532 0.30993 0.0
C508 C 0.69606 0.51718 0.1259 0.0
C509 C 0.7161 0.52732 0.3521 0.0
C510 C 0.64145 0.52565 0.94963 0.0
C511 C 0.65472 0.52695 0.99167 0.0
C512 C 0.6619 0.53299 0.1745 0.0
C513 C 0.70685 0.52699 0.23749 0.0
C514 C 0.69256 0.52591 0.19277 0.0
C515 C 0.65118 0.52339 0.06306 0.0
C516 C 0.66545 0.52432 0.10765 0.0
H517 H 0.7509 0.53494 0.22663 0.0
H518 H 0.72802 0.53173 0.15317 0.0
H519 H 0.67203 0.54105 0.26673 0.0
H520 H 0.60775 0.51309 0.07277 0.0
H521 H 0.63073 0.51568 0.14591 0.0
C522 C 0.98907 0.64898 0.32834 0.0
C523 C 1.00062 0.6644 0.32701 0.0
C524 C 0.99123 0.63466 0.27518 0.0
C525 C 1.01125 0.62532 0.09233 0.0
H526 H 1.00501 0.5707 0.13739 0.0
C527 C 0.02768 0.56279 0.88518 0.0
C528 C 0.01653 0.54697 0.88844 0.0
C529 C 0.02579 0.57699 0.93867 0.0
C530 C 1.00658 0.5859 0.1237 0.0
H531 H 0.02367 0.6766 0.26817 0.0
H532 H 0.02735 0.65168 0.1751 0.0
H533 H 1.00185 0.59559 0.23009 0.0
H534 H 0.99457 0.53381 0.95093 0.0
H535 H 0.9911 0.55874 0.0438 0.0
H536 H 0.01585 0.61569 0.98597 0.0
C537 C 0.0165 0.6508 0.21723 0.0
C538 C 1.0048 0.60019 0.17698 0.0
C539 C 0.01437 0.66512 0.27065 0.0
C540 C 1.00343 0.54574 0.94672 0.0
C541 C 1.00151 0.56 1.00025 0.0
C542 C 1.01298 0.61103 0.03903 0.0
C543 C 1.00496 0.63536 0.21887 0.0
C544 C 1.0071 0.6201 0.16204 0.0
C545 C 1.01266 0.57585 0.99696 0.0
C546 C 1.01068 0.59111 0.05391 0.0
H547 H 0.97809 0.64813 0.36999 0.0
H548 H 0.9819 0.6232 0.27762 0.0
H549 H 1.01285 0.64053 0.07879 0.0
H550 H 0.03799 0.5642 0.84133 0.0
H551 H 0.03483 0.58875 0.93466 0.0
C552 C 0.02653 0.23818 0.26819 0.0
C553 C 0.04226 0.24007 0.22249 0.0
C554 C 0.02654 0.22665 0.32658 0.0
C555 C 0.05197 0.18274 0.36676 0.0
H556 H 0.01471 0.18224 0.52476 0.0
C557 C 0.03772 0.11193 0.51186 0.0
C558 C 0.01988 0.1072 0.51926 0.0
C559 C 0.04251 0.13088 0.49498 0.0
C560 C 0.02525 0.18226 0.48105 0.0
H561 H 0.0706 0.23371 0.20508 0.0
H562 H 0.07087 0.21436 0.30922 0.0
H563 H 0.02058 0.21297 0.46481 0.0
H564 H 0.99301 0.11883 0.51742 0.0
H565 H 1.00146 0.15191 0.48573 0.0
H566 H 0.05623 0.15201 0.38107 0.0
C567 C 0.0584 0.22108 0.29899 0.0
C568 C 0.02864 0.19982 0.44677 0.0
C569 C 0.05831 0.23228 0.23982 0.0
C570 C 1.00688 0.12198 0.51108 0.0
C571 C 1.01169 0.14098 0.49413 0.0
C572 C 0.0487 0.16532 0.40128 0.0
C573 C 0.04236 0.21701 0.34032 0.0
C574 C 0.04157 0.20008 0.38746 0.0
C575 C 0.02959 0.14551 0.48483 0.0
C576 C 0.03489 0.16473 0.4571 0.0
H577 H 0.014 0.24402 0.25524 0.0
H578 H 0.01391 0.22383 0.35679 0.0
H579 H 0.06181 0.18215 0.32064 0.0
H580 H 0.04808 0.10083 0.51734 0.0
H581 H 0.0564 0.13398 0.48839 0.0
C582 C 0.31516 0.00641 0.39475 0.0
C583 C 0.30532 0.99373 0.36039 0.0
C584 C 0.32531 0.99916 0.44346 0.0
C585 C 0.3505 0.95374 0.46495 0.0
H586 H 0.36732 0.98498 0.60661 0.0
C587 C 0.42343 0.95474 0.49516 0.0
C588 C 0.42838 0.95825 0.56049 0.0
C589 C 0.40559 0.95426 0.48773 0.0
C590 C 0.36263 0.97578 0.56828 0.0
H591 H 0.29684 0.96407 0.35462 0.0
H592 H 0.31447 0.95131 0.44074 0.0
H593 H 0.33874 0.9939 0.57148 0.0
H594 H 0.41847 0.96252 0.67009 0.0
H595 H 0.38726 0.96187 0.65687 0.0
H596 H 0.37467 0.93606 0.45993 0.0
C597 C 0.31452 0.96681 0.42942 0.0
C598 C 0.34629 0.981 0.54775 0.0
C599 C 0.30429 0.97413 0.38073 0.0
C600 C 0.41509 0.96017 0.6188 0.0
C601 C 0.39721 0.95975 0.61132 0.0
C602 C 0.3668 0.94851 0.48555 0.0
C603 C 0.32587 0.97904 0.4585 0.0
C604 C 0.34043 0.97059 0.49357 0.0
C605 C 0.39225 0.95729 0.54543 0.0
C606 C 0.37342 0.96001 0.53511 0.0
H607 H 0.31614 0.02159 0.37975 0.0
H608 H 0.33393 0.00901 0.46433 0.0
H609 H 0.34649 0.94543 0.42281 0.0
H610 H 0.43328 0.95346 0.44905 0.0
H611 H 0.40225 0.95264 0.43604 0.0
C612 C 0.54334 0.31485 0.35273 0.0
C613 C 0.52608 0.30902 0.37368 0.0
C614 C 0.54992 0.33005 0.38842 0.0
C615 C 0.54769 0.37391 0.42357 0.0
H616 H 0.54135 0.38597 0.62074 0.0
C617 C 0.52844 0.45049 0.54956 0.0
C618 C 0.53797 0.45678 0.60115 0.0
C619 C 0.53185 0.43164 0.51981 0.0
C620 C 0.54345 0.3827 0.56555 0.0
H621 H 0.5027 0.31312 0.45079 0.0
H622 H 0.51439 0.33928 0.51485 0.0
H623 H 0.53909 0.35209 0.58009 0.0
H624 H 0.5588 0.4485 0.66108 0.0
H625 H 0.5644 0.41526 0.61018 0.0
H626 H 0.5508 0.4047 0.40903 0.0
C627 C 0.52287 0.33215 0.47109 0.0
C628 C 0.54211 0.36339 0.54242 0.0
C629 C 0.51619 0.31713 0.43479 0.0
C630 C 0.55142 0.44412 0.6207 0.0
C631 C 0.55453 0.42509 0.59212 0.0
C632 C 0.54868 0.39324 0.44669 0.0
C633 C 0.53937 0.33949 0.44587 0.0
C634 C 0.54388 0.3589 0.47119 0.0
C635 C 0.54457 0.4186 0.54231 0.0
C636 C 0.54621 0.39786 0.51783 0.0
H637 H 0.55101 0.30903 0.30487 0.0
H638 H 0.5627 0.3354 0.36815 0.0
H639 H 0.54885 0.37093 0.36837 0.0
H640 H 0.51795 0.45991 0.53384 0.0
H641 H 0.52391 0.42689 0.48178 0.0
C642 C 0.21298 0.55202 0.21046 0.0
C643 C 0.22373 0.5346 0.20751 0.0
C644 C 0.20543 0.56052 0.2742 0.0
C645 C 0.19219 0.57781 0.41751 0.0
H646 H 0.16572 0.53751 0.51676 0.0
C647 C 0.12305 0.56334 0.61235 0.0
C648 C 0.11199 0.57565 0.57796 0.0
C649 C 0.14142 0.56267 0.5931 0.0
C650 C 0.17328 0.54908 0.49175 0.0
H651 H 0.23614 0.51314 0.26842 0.0
H652 H 0.22275 0.52793 0.3804 0.0
H653 H 0.19103 0.52808 0.4311 0.0
H654 H 0.1117 0.59883 0.50331 0.0
H655 H 0.14347 0.59697 0.46717 0.0
H656 H 0.17376 0.5988 0.47586 0.0
C657 C 0.22018 0.535 0.33333 0.0
C658 C 0.18788 0.54359 0.4422 0.0
C659 C 0.22786 0.52658 0.26938 0.0
C660 C 0.11982 0.58878 0.5294 0.0
C661 C 0.13814 0.58791 0.50946 0.0
C662 C 0.17765 0.58333 0.46767 0.0
C663 C 0.2084 0.55167 0.33632 0.0
C664 C 0.19684 0.55784 0.40179 0.0
C665 C 0.14909 0.57405 0.53831 0.0
C666 C 0.16738 0.56896 0.50236 0.0
H667 H 0.20979 0.55861 0.16339 0.0
H668 H 0.19627 0.57323 0.27461 0.0
H669 H 0.19909 0.58911 0.38794 0.0
H670 H 0.11755 0.55304 0.65022 0.0
H671 H 0.14948 0.5522 0.61775 0.0
C672 C 0.98218 0.78607 0.24537 0.0
C673 C 0.99279 0.76914 0.25411 0.0
C674 C 0.98454 0.79591 0.18296 0.0
C675 C 0.99228 0.81622 0.04726 0.0
H676 H 0.04265 0.82408 0.01641 0.0
C677 C 0.01965 0.88706 0.92795 0.0
C678 C 0.03042 0.89613 0.97017 0.0
C679 C 0.01569 0.86742 0.93711 0.0
C680 C 0.02857 0.82192 0.02362 0.0
H681 H 1.01262 0.74779 0.20248 0.0
H682 H 0.0167 0.76495 0.09266 0.0
H683 H 0.03193 0.79516 0.0764 0.0
H684 H 0.04589 0.8915 0.05352 0.0
H685 H 0.03902 0.85735 0.06951 0.0
H686 H 0.98889 0.84397 0.99991 0.0
C687 C 1.00674 0.77079 0.13435 0.0
C688 C 0.0224 0.80518 0.05722 0.0
C689 C 1.00433 0.7609 0.19697 0.0
C690 C 0.03772 0.88492 0.01972 0.0
C691 C 0.03382 0.8653 0.02864 0.0
C692 C 0.99846 0.83301 0.01375 0.0
C693 C 0.99762 0.78901 0.12818 0.0
C694 C 1.00411 0.80274 0.07309 0.0
C695 C 0.02253 0.85643 0.98826 0.0
C696 C 0.01658 0.83653 0.00532 0.0
H697 H 0.97304 0.79255 0.2886 0.0
H698 H 0.97731 0.80992 0.18039 0.0
H699 H 0.97813 0.81456 0.05767 0.0
H700 H 0.01414 0.89521 0.88824 0.0
H701 H 1.00706 0.86092 0.90495 0.0
C702 C 0.74121 1.00318 0.07788 0.0
C703 C 0.74038 0.01613 0.13495 0.0
C704 C 0.73065 0.00716 0.0266 0.0
C705 C 0.69766 0.04325 0.96878 0.0
H706 H 0.66915 0.99787 0.97305 0.0
C707 C 0.62318 0.0492 0.94779 0.0
C708 C 0.61553 0.03337 0.91874 0.0
C709 C 0.6411 0.04797 0.95544 0.0
C710 C 0.67708 0.01059 0.96943 0.0
H711 H 0.72992 0.04446 0.17895 0.0
H712 H 0.71155 0.05148 0.08968 0.0
H713 H 0.69775 0.99493 0.01148 0.0
H714 H 0.62102 0.00387 0.87405 0.0
H715 H 0.65222 1.00218 0.88407 0.0
H716 H 0.67659 0.05906 0.92862 0.0
C717 C 0.72021 0.03826 0.08407 0.0
C718 C 0.69359 0.00887 0.99143 0.0
C719 C 0.7307 0.03425 0.13538 0.0
C720 C 0.6264 0.01651 0.89584 0.0
C721 C 0.64432 0.0154 0.90248 0.0
C722 C 0.68114 0.04494 0.94603 0.0
C723 C 0.71919 0.02416 0.03178 0.0
C724 C 0.70384 0.0253 0.99342 0.0
C725 C 0.65186 0.03095 0.93357 0.0
C726 C 0.67041 0.02876 0.94816 0.0
H727 H 0.74854 0.98909 0.07656 0.0
H728 H 0.73033 0.99618 0.98619 0.0
H729 H 0.70532 0.05614 0.96943 0.0
H730 H 0.61533 0.06255 0.96494 0.0
H731 H 0.64634 0.06015 0.98044 0.0
C732 C 0.52626 0.69902 0.03986 0.0
C733 C 0.51459 0.70581 0.09892 0.0
C734 C 0.52189 0.68335 0.99968 0.0
C735 C 0.49883 0.63927 0.0364 0.0
H736 H 0.51034 0.62751 0.83945 0.0
C737 C 0.51464 0.56073 0.91791 0.0
C738 C 0.50649 0.55601 0.86037 0.0
C739 C 0.51298 0.57993 0.94553 0.0
C740 C 0.50694 0.63066 0.89453 0.0
H741 H 0.4884 0.70352 0.15705 0.0
H742 H 0.48071 0.67629 0.08664 0.0
H743 H 0.51117 0.66138 0.88258 0.0
H744 H 0.48987 0.56777 0.78773 0.0
H745 H 0.48726 0.60115 0.83553 0.0
H746 H 0.49527 0.6085 0.04877 0.0
C747 C 0.49331 0.68278 0.07202 0.0
C748 C 0.50746 0.64999 0.91908 0.0
C749 C 0.49763 0.69847 0.11182 0.0
C750 C 0.49628 0.57079 0.83231 0.0
C751 C 0.49486 0.58999 0.85921 0.0
C752 C 0.4986 0.61995 0.01201 0.0
C753 C 0.50583 0.67431 0.01831 0.0
C754 C 0.50349 0.65445 0.99033 0.0
C755 C 0.50338 0.5948 0.91543 0.0
C756 C 0.50279 0.61543 0.94096 0.0
H757 H 0.53947 0.7043 0.02923 0.0
H758 H 0.53178 0.67712 0.95845 0.0
H759 H 0.49601 0.64222 0.09175 0.0
H760 H 0.52263 0.54973 0.94058 0.0
H761 H 0.51974 0.58332 0.98886 0.0
C762 C 0.81859 0.49489 0.17055 0.0
C763 C 0.82769 0.50834 0.20527 0.0
C764 C 0.82612 0.48703 0.10551 0.0
C765 C 0.85333 0.46105 0.00984 0.0
H766 H 0.88695 0.48935 0.88623 0.0
C767 C 0.92281 0.43112 0.91703 0.0
C768 C 0.93342 0.44021 0.86305 0.0
C769 C 0.9047 0.43619 0.93187 0.0
C770 C 0.87736 0.48105 0.91839 0.0
H771 H 0.85096 0.52536 0.19726 0.0
H772 H 0.86422 0.51156 0.08493 0.0
H773 H 0.86358 0.50745 0.96268 0.0
H774 H 0.93276 0.4595 0.77582 0.0
H775 H 0.90114 0.46753 0.79961 0.0
H776 H 0.86742 0.43465 0.9669 0.0
C777 C 0.85125 0.50708 0.10704 0.0
C778 C 0.86405 0.49154 0.96307 0.0
C779 C 0.84378 0.51483 0.1719 0.0
C780 C 0.92509 0.45231 0.8183 0.0
C781 C 0.90691 0.45714 0.83248 0.0
C782 C 0.86653 0.45052 0.96446 0.0
C783 C 0.8428 0.49262 0.074 0.0
C784 C 0.85269 0.48171 0.01256 0.0
C785 C 0.89674 0.45025 0.89234 0.0
C786 C 0.87946 0.46045 0.92167 0.0
H787 H 0.80613 0.48965 0.19529 0.0
H788 H 0.81924 0.47603 0.08114 0.0
H789 H 0.84469 0.45297 0.04691 0.0
H790 H 0.92871 0.42126 0.95124 0.0
H791 H 0.8974 0.43042 0.97829 0.0
C792 C 0.0578 0.2068 0.97165 0.0
C793 C 0.04285 0.22006 0.97939 0.0
C794 C 0.05738 0.18826 0.94052 0.0
C795 C 0.03294 0.1566 0.83608 0.0
H796 H 0.04854 0.11544 0.9518 0.0
C797 C 0.0174 0.07511 0.79787 0.0
C798 C 0.02978 0.06021 0.81186 0.0
C799 C 0.01972 0.09487 0.81283 0.0
C800 C 0.04441 0.12663 0.91792 0.0
H801 H 0.01623 0.22481 0.95553 0.0
H802 H 0.01558 0.19243 0.89972 0.0
H803 H 0.05186 0.1496 0.9817 0.0
H804 H 0.05456 0.05464 0.85122 0.0
H805 H 0.05885 0.08905 0.87589 0.0
H806 H 0.02562 0.1336 0.77187 0.0
C807 C 0.02761 0.1964 0.91811 0.0
C808 C 0.04629 0.14631 0.93527 0.0
C809 C 0.02802 0.21501 0.94964 0.0
C810 C 0.04465 0.06566 0.84055 0.0
C811 C 0.04705 0.08546 0.85498 0.0
C812 C 0.03123 0.13684 0.81818 0.0
C813 C 0.04202 0.18249 0.91601 0.0
C814 C 0.04054 0.16157 0.89479 0.0
C815 C 0.03458 0.1004 0.84169 0.0
C816 C 0.03686 0.12153 0.85911 0.0
H817 H 0.06945 0.21031 0.99378 0.0
H818 H 0.06884 0.17809 0.93837 0.0
H819 H 0.02847 0.16798 0.80359 0.0
H820 H 1.0058 0.07153 0.77557 0.0
H821 H 1.00966 0.10578 0.80273 0.0
C822 C 0.334 0.02932 0.12653 0.0
C823 C 0.32384 0.01304 0.11992 0.0
C824 C 0.35052 0.03069 0.08535 0.0
C825 C 0.38123 0.00751 0.93327 0.0
H826 H 0.41696 0.02958 0.0279 0.0
C827 C 0.45335 0.01477 0.79523 0.0
C828 C 0.46729 0.01218 0.83446 0.0
C829 C 0.43562 0.0157 0.82721 0.0
C830 C 0.40726 0.02314 0.00065 0.0
H831 H 0.32282 0.98562 0.06399 0.0
H832 H 0.35178 0.98768 0.99284 0.0
H833 H 0.38663 0.02966 0.08569 0.0
H834 H 0.47332 0.00841 0.93856 0.0
H835 H 0.44257 0.00954 0.9941 0.0
H836 H 0.40212 1.00012 0.84951 0.0
C837 C 0.34689 0.99974 0.02845 0.0
C838 C 0.38965 0.02353 0.03353 0.0
C839 C 0.33021 0.99855 0.06909 0.0
C840 C 0.46298 0.0106 0.90666 0.0
C841 C 0.44525 0.01135 0.93862 0.0
C842 C 0.39891 0.00696 0.90057 0.0
C843 C 0.35757 0.01556 0.03739 0.0
C844 C 0.3763 0.01571 1.00052 0.0
C845 C 0.43125 0.01392 0.89947 0.0
C846 C 0.41225 0.01472 0.93381 0.0
H847 H 0.32946 0.04061 0.16581 0.0
H848 H 0.35799 0.04339 0.09275 0.0
H849 H 0.37143 1.0015 0.90553 0.0
H850 H 0.4561 0.01625 0.73961 0.0
H851 H 0.42536 0.01805 0.7951 0.0
C852 C 0.48281 0.3353 0.19981 0.0
C853 C 0.49489 0.31964 0.17479 0.0
C854 C 0.48001 0.35135 0.15811 0.0
C855 C 0.4909 0.37011 0.97746 0.0
H856 H 0.48854 0.42055 0.0741 0.0
C857 C 0.51546 0.44066 0.84723 0.0
C858 C 0.50501 0.4583 0.86109 0.0
C859 C 0.51087 0.42362 0.88265 0.0
C860 C 0.4889 0.4066 0.04644 0.0
H861 H 0.51294 0.30807 0.08564 0.0
H862 H 0.50846 0.33612 0.01327 0.0
H863 H 0.48626 0.39056 0.14015 0.0
H864 H 0.48141 0.47182 0.92277 0.0
H865 H 0.47362 0.44193 0.98673 0.0
H866 H 0.49459 0.38631 0.88361 0.0
C867 C 0.50075 0.33597 0.06443 0.0
C868 C 0.48753 0.38933 0.08428 0.0
C869 C 0.50334 0.3198 0.10589 0.0
C870 C 0.48972 0.45846 0.91105 0.0
C871 C 0.48529 0.4414 0.94766 0.0
C872 C 0.49252 0.38737 0.93968 0.0
C873 C 0.48947 0.35229 0.09069 0.0
C874 C 0.48885 0.37077 0.05036 0.0
C875 C 0.49584 0.4238 0.93367 0.0
C876 C 0.49187 0.40577 0.97374 0.0
H877 H 0.4761 0.33552 0.2528 0.0
H878 H 0.47086 0.36332 0.17973 0.0
H879 H 0.49158 0.35621 0.94931 0.0
H880 H 0.52724 0.43995 0.80862 0.0
H881 H 0.51936 0.41037 0.87122 0.0
C882 C 0.20395 0.4891 0.962 0.0
C883 C 0.2072 0.50753 0.9893 0.0
C884 C 0.18925 0.4869 0.92752 0.0
C885 C 0.15481 0.51559 0.84577 0.0
H886 H 0.12683 0.47056 0.89041 0.0
C887 C 0.08982 0.50531 0.73215 0.0
C888 C 0.07549 0.49817 0.77676 0.0
C889 C 0.1068 0.50511 0.7513 0.0
C890 C 0.13441 0.48331 0.87758 0.0
H891 H 0.19807 0.53825 0.99826 0.0
H892 H 0.17262 0.53446 0.93938 0.0
H893 H 0.15489 0.47291 0.93415 0.0
H894 H 0.06803 0.48507 0.87666 0.0
H895 H 0.09742 0.48496 0.91027 0.0
H896 H 0.13405 0.52641 0.7916 0.0
C897 C 0.18132 0.52164 0.944 0.0
C898 C 0.15069 0.48451 0.90194 0.0
C899 C 0.19589 0.5238 0.97845 0.0
C900 C 0.0787 0.49061 0.84068 0.0
C901 C 0.09566 0.49043 0.85984 0.0
C902 C 0.13854 0.5144 0.82152 0.0
C903 C 0.17755 0.50312 0.91898 0.0
C904 C 0.16102 0.50083 0.88736 0.0
C905 C 0.10998 0.49778 0.8157 0.0
C906 C 0.12793 0.49838 0.83786 0.0
H907 H 0.21236 0.47626 0.96967 0.0
H908 H 0.18693 0.47244 0.90825 0.0
H909 H 0.16245 0.52826 0.83246 0.0
H910 H 0.08791 0.51129 0.68256 0.0
H911 H 0.11746 0.51069 0.71539 0.0
C912 C 0.99029 0.79549 0.53273 0.0
C913 C 1.00437 0.78551 0.4894 0.0
C914 C 0.99273 0.81346 0.56495 0.0
C915 C 1.00254 0.84939 0.64426 0.0
H916 H 0.0305 0.88445 0.52396 0.0
C917 C 0.01722 0.92772 0.73399 0.0
C918 C 0.01703 0.94288 0.6858 0.0
C919 C 0.01603 0.90809 0.71374 0.0
C920 C 0.02255 0.87493 0.55816 0.0
H921 H 0.03211 0.786 0.44724 0.0
H922 H 0.03664 0.81702 0.50503 0.0
H923 H 0.02812 0.85069 0.48592 0.0
H924 H 0.01526 0.94909 0.57841 0.0
H925 H 1.01297 0.91495 0.54333 0.0
H926 H 0.99657 0.87389 0.71569 0.0
C927 C 0.02363 0.81119 0.51376 0.0
C928 C 0.02139 0.85541 0.53674 0.0
C929 C 0.02115 0.79327 0.48154 0.0
C930 C 0.0155 0.93785 0.61692 0.0
C931 C 0.01431 0.91821 0.59668 0.0
C932 C 1.00372 0.86894 0.66579 0.0
C933 C 1.00931 0.82189 0.55396 0.0
C934 C 1.0113 0.84237 0.57926 0.0
C935 C 0.01462 0.90303 0.64473 0.0
C936 C 0.01363 0.88204 0.62276 0.0
H937 H 0.97712 0.79003 0.53805 0.0
H938 H 0.98136 0.8213 0.5949 0.0
H939 H 0.99473 0.83978 0.6786 0.0
H940 H 0.01845 0.93095 0.78749 0.0
H941 H 0.01654 0.89684 0.75202 0.0
C942 C 0.71277 0.01163 0.41585 0.0
C943 C 0.72002 0.99583 0.37191 0.0
C944 C 0.69576 0.01103 0.45413 0.0
C945 C 0.65828 0.97808 0.50649 0.0
H946 H 0.63011 0.02735 0.51747 0.0
C947 C 0.58127 0.98387 0.58803 0.0
C948 C 0.57425 0.99977 0.6324 0.0
C949 C 0.59927 0.98258 0.55867 0.0
C950 C 0.63779 0.01347 0.51555 0.0
H951 H 0.7153 0.96696 0.33383 0.0
H952 H 0.6856 0.96585 0.39972 0.0
H953 H 0.66111 0.02639 0.46635 0.0
H954 H 0.58095 0.02676 0.68045 0.0
H955 H 0.61197 0.02446 0.6299 0.0
H956 H 0.63464 0.96518 0.55458 0.0
C957 C 0.69311 0.97856 0.40657 0.0
C958 C 0.65571 0.01292 0.48643 0.0
C959 C 0.7102 0.97911 0.36888 0.0
C960 C 0.58574 0.01429 0.6465 0.0
C961 C 0.60361 0.01305 0.61706 0.0
C962 C 0.64027 0.97862 0.53526 0.0
C963 C 0.68539 0.99476 0.4483 0.0
C964 C 0.66631 0.99525 0.48158 0.0
C965 C 0.61067 0.99724 0.57253 0.0
C966 C 0.62979 0.99635 0.54045 0.0
H967 H 0.71994 0.02485 0.41803 0.0
H968 H 0.69055 0.02364 0.4867 0.0
H969 H 0.66594 0.9642 0.50452 0.0
H970 H 0.57288 0.97239 0.57608 0.0
H971 H 0.60421 0.97026 0.52423 0.0
C972 C 0.54809 0.69087 0.34598 0.0
C973 C 0.53161 0.69791 0.32964 0.0
C974 C 0.54926 0.67426 0.38714 0.0
C975 C 0.52839 0.62874 0.41166 0.0
H976 H 0.54846 0.62152 0.58092 0.0
C977 C 0.51978 0.55745 0.56411 0.0
C978 C 0.53273 0.55086 0.60372 0.0
C979 C 0.52091 0.57551 0.53122 0.0
C980 C 0.54311 0.62312 0.53291 0.0
H981 H 0.50333 0.69431 0.3493 0.0
H982 H 0.50545 0.66526 0.41975 0.0
H983 H 0.54829 0.65384 0.52787 0.0
H984 H 0.5574 0.55789 0.63786 0.0
H985 H 0.55985 0.58896 0.57783 0.0
H986 H 0.52371 0.59818 0.41418 0.0
C987 C 0.51743 0.67245 0.40043 0.0
C988 C 0.54292 0.64171 0.50296 0.0
C989 C 0.51624 0.6891 0.36034 0.0
C990 C 0.54717 0.56253 0.60781 0.0
C991 C 0.54846 0.5805 0.57391 0.0
C992 C 0.52889 0.61014 0.4406 0.0
C993 C 0.53399 0.66442 0.41196 0.0
C994 C 0.53525 0.64473 0.44277 0.0
C995 C 0.5352 0.58741 0.53586 0.0
C996 C 0.53594 0.60707 0.50246 0.0
H997 H 0.56017 0.69722 0.32265 0.0
H998 H 0.56218 0.66833 0.39545 0.0
H999 H 0.52267 0.63063 0.36449 0.0
H1000 H 0.50832 0.54902 0.56064 0.0
H1001 H 0.51019 0.58036 0.50393 0.0
C1002 C 0.85306 0.49951 0.44077 0.0
C1003 C 0.84064 0.51569 0.44645 0.0
C1004 C 0.86738 0.49915 0.4778 0.0
C1005 C 0.89455 0.53259 0.5649 0.0
H1006 H 0.91578 0.48328 0.61777 0.0
C1007 C 0.96641 0.52604 0.62939 0.0
C1008 C 0.97081 0.51191 0.67665 0.0
C1009 C 0.94957 0.52712 0.60879 0.0
C1010 C 0.91 0.49729 0.60442 0.0
H1011 H 0.83314 0.54377 0.49886 0.0
H1012 H 0.85791 0.54295 0.56547 0.0
H1013 H 0.88769 0.48369 0.57426 0.0
H1014 H 0.96055 0.48828 0.74125 0.0
H1015 H 0.93115 0.49065 0.70764 0.0
H1016 H 0.91667 0.54625 0.59681 0.0
C1017 C 0.85679 0.53069 0.5308 0.0
C1018 C 0.89389 0.49748 0.57829 0.0
C1019 C 0.84241 0.53106 0.49337 0.0
C1020 C 0.95774 0.49925 0.7042 0.0
C1021 C 0.94084 0.50051 0.68439 0.0
C1022 C 0.91062 0.53243 0.59163 0.0
C1023 C 0.86972 0.51489 0.52243 0.0
C1024 C 0.88604 0.51506 0.55687 0.0
C1025 C 0.93652 0.51426 0.63551 0.0
C1026 C 0.91877 0.51472 0.61086 0.0
H1027 H 0.85203 0.4873 0.40569 0.0
H1028 H 0.87701 0.4868 0.46896 0.0
H1029 H 0.8891 0.54643 0.54861 0.0
H1030 H 0.97614 0.53596 0.60674 0.0
H1031 H 0.94699 0.53773 0.57033 0.0
loop_
_geom_bond_atom_site_label_1
_geom_bond_atom_site_label_2
_geom_bond_distance
_geom_bond_site_symmetry_2
_ccdc_geom_bond_type
H0 C1 0.949 . S
C1 H0 0.949 . S
C1 C2 1.395 . S
C1 C3 1.391 . S
C2 C1 1.395 . S
C2 C5 1.390 . S
C3 C1 1.391 . S
C3 C7 1.387 . S
C3 C8 1.491 . S
H4 C5 0.950 . S
C5 C2 1.390 . S
C5 H4 0.950 . S
C5 C6 1.378 . S
C6 C5 1.378 . S
C6 C7 1.409 . S
C7 C3 1.387 . S
C7 C6 1.409 . S
C7 H9 0.951 . S
C8 C3 1.491 . S
C8 C10 1.382 . S
C8 C12 1.404 . S
H9 C7 0.951 . S
C10 C8 1.382 . S
C10 C11 1.390 . S
C10 H15 0.949 . S
C11 C10 1.390 . S
C11 C16 1.399 . S
C12 C8 1.404 . S
C12 H13 0.950 . S
C12 C14 1.375 . S
H13 C12 0.950 . S
C14 C12 1.375 . S
C14 C16 1.382 . S
C14 H18 0.950 . S
H15 C10 0.949 . S
C16 C11 1.399 . S
C16 C14 1.382 . S
C16 H17 0.952 . S
H17 C16 0.952 . S
H18 C14 0.950 . S
H19 C20 0.949 . S
C20 H19 0.949 . S
C20 C21 1.395 . S
C20 C22 1.391 . S
C21 C20 1.395 . S
C21 C24 1.390 . S
C22 C20 1.391 . S
C22 C26 1.387 . S
C22 C27 1.491 . S
H23 C24 0.950 . S
C24 C21 1.390 . S
C24 H23 0.950 . S
C24 C25 1.378 . S
C25 C24 1.378 . S
C25 C26 1.409 . S
C26 C22 1.387 . S
C26 C25 1.409 . S
C26 H28 0.951 . S
C27 C22 1.491 . S
C27 C29 1.382 . S
C27 C31 1.404 . S
H28 C26 0.951 . S
C29 C27 1.382 . S
C29 C30 1.390 . S
C29 H34 0.915 1_655 S
C30 C29 1.390 . S
C30 C35 1.399 . S
C31 C27 1.404 . S
C31 H32 0.950 . S
C31 C33 1.375 . S
H32 C31 0.950 . S
C33 C31 1.375 . S
C33 C35 1.382 . S
C33 H37 0.950 . S
H34 C29 0.915 1_455 S
C35 C30 1.399 . S
C35 C33 1.382 . S
C35 H36 0.952 . S
H36 C35 0.952 . S
H37 C33 0.950 . S
H38 C39 0.949 . S
C39 H38 0.949 . S
C39 C40 1.395 . S
C39 C41 1.391 . S
C40 C39 1.395 . S
C40 C43 1.390 . S
C41 C39 1.391 . S
C41 C45 1.387 . S
C41 C46 1.491 . S
H42 C43 0.950 . S
C43 C40 1.390 . S
C43 H42 0.950 . S
C43 C44 1.378 . S
C44 C43 1.378 . S
C44 C45 1.409 . S
C45 C41 1.387 . S
C45 C44 1.409 . S
C45 H47 0.951 . S
C46 C41 1.491 . S
C46 C48 1.382 . S
C46 C50 1.404 . S
H47 C45 0.951 . S
C48 C46 1.382 . S
C48 C49 1.390 . S
C48 H53 0.949 1_565 S
C49 C48 1.390 . S
C49 C54 1.399 . S
C50 C46 1.404 . S
C50 H51 0.950 . S
C50 C52 1.375 . S
H51 C50 0.950 . S
C52 C50 1.375 . S
C52 C54 1.382 . S
C52 H56 0.950 . S
H53 C48 0.949 1_545 S
C54 C49 1.399 . S
C54 C52 1.382 . S
C54 H55 0.952 . S
H55 C54 0.952 . S
H56 C52 0.950 . S
H57 C58 0.949 . S
C58 H57 0.949 . S
C58 C59 1.395 . S
C58 C60 1.391 . S
C59 C58 1.395 . S
C59 C62 1.390 . S
C60 C58 1.391 . S
C60 C64 1.387 . S
C60 C65 1.491 . S
H61 C62 0.950 . S
C62 C59 1.390 . S
C62 H61 0.950 . S
C62 C63 1.378 . S
C63 C62 1.378 . S
C63 C64 1.409 . S
C64 C60 1.387 . S
C64 C63 1.409 . S
C64 H66 0.951 . S
C65 C60 1.491 . S
C65 C67 1.382 . S
C65 C69 1.404 . S
H66 C64 0.951 . S
C67 C65 1.382 . S
C67 C68 1.390 . S
C67 H72 0.949 . S
C68 C67 1.390 . S
C68 C73 1.399 . S
C69 C65 1.404 . S
C69 H70 0.950 . S
C69 C71 1.375 . S
H70 C69 0.950 . S
C71 C69 1.375 . S
C71 C73 1.382 . S
C71 H75 0.950 . S
H72 C67 0.949 . S
C73 C68 1.399 . S
C73 C71 1.382 . S
C73 H74 0.952 . S
H74 C73 0.952 . S
H75 C71 0.950 . S
H76 C77 0.949 . S
C77 H76 0.949 . S
C77 C78 1.395 . S
C77 C79 1.391 1_554 S
C78 C77 1.395 . S
C78 C81 1.390 1_554 S
C79 C77 1.391 1_556 S
C79 C83 1.387 . S
C79 C84 1.491 . S
H80 C81 0.950 . S
C81 C78 1.390 1_556 S
C81 H80 0.950 . S
C81 C82 1.378 . S
C82 C81 1.378 . S
C82 C83 1.409 . S
C83 C79 1.387 . S
C83 C82 1.409 . S
C83 H85 0.951 . S
C84 C79 1.491 . S
C84 C86 1.382 1_556 S
C84 C88 1.404 . S
H85 C83 0.951 . S
C86 C84 1.382 1_554 S
C86 C87 1.390 . S
C86 H91 0.949 . S
C87 C86 1.390 . S
C87 C92 1.399 1_554 S
C88 C84 1.404 . S
C88 H89 0.950 . S
C88 C90 1.375 . S
H89 C88 0.950 . S
C90 C88 1.375 . S
C90 C92 1.382 . S
C90 H94 0.950 . S
H91 C86 0.949 . S
C92 C87 1.399 1_556 S
C92 C90 1.382 . S
C92 H93 0.952 . S
H93 C92 0.952 . S
H94 C90 0.950 . S
H95 C96 0.949 . S
C96 H95 0.949 . S
C96 C97 1.395 . S
C96 C98 1.391 . S
C97 C96 1.395 . S
C97 C100 1.390 . S
C98 C96 1.391 . S
C98 C102 1.387 . S
C98 C103 1.491 . S
H99 C100 0.950 . S
C100 C97 1.390 . S
C100 H99 0.950 . S
C100 C101 1.378 . S
C101 C100 1.378 . S
C101 C102 1.409 . S
C102 C98 1.387 . S
C102 C101 1.409 . S
C102 H104 0.951 1_554 S
C103 C98 1.491 . S
C103 C105 1.382 . S
C103 C107 1.404 . S
H104 C102 0.951 1_556 S
C105 C103 1.382 . S
C105 C106 1.390 . S
C105 H110 0.949 . S
C106 C105 1.390 . S
C106 C111 1.399 . S
C107 C103 1.404 . S
C107 H108 0.950 1_455 S
C107 C109 1.376 . S
H108 C107 0.950 1_655 S
C109 C107 1.376 . S
C109 C111 1.387 . S
C109 H113 0.943 1_455 S
H110 C105 0.949 . S
C111 C106 1.399 . S
C111 C109 1.387 . S
C111 H112 0.952 . S
H112 C111 0.952 . S
H113 C109 0.943 1_655 S
H114 C115 0.949 . S
C115 H114 0.949 . S
C115 C116 1.395 . S
C115 C117 1.391 . S
C116 C115 1.395 . S
C116 C119 1.390 . S
C117 C115 1.391 . S
C117 C121 1.387 . S
C117 C122 1.491 1_545 S
H118 C119 0.950 . S
C119 C116 1.390 . S
C119 H118 0.950 . S
C119 C120 1.378 . S
C120 C119 1.378 . S
C120 C121 1.409 . S
C121 C117 1.387 . S
C121 C120 1.409 . S
C121 H123 0.951 . S
C122 C117 1.491 1_565 S
C122 C124 1.382 1_565 S
C122 C126 1.404 . S
H123 C121 0.951 . S
C124 C122 1.382 1_545 S
C124 C125 1.390 . S
C124 H129 0.949 . S
C125 C124 1.390 . S
C125 C130 1.399 1_545 S
C126 C122 1.404 . S
C126 H127 0.950 . S
C126 C128 1.375 . S
H127 C126 0.950 . S
C128 C126 1.375 . S
C128 C130 1.382 . S
C128 H132 0.950 . S
H129 C124 0.949 . S
C130 C125 1.399 1_565 S
C130 C128 1.382 . S
C130 H131 0.952 . S
H131 C130 0.952 . S
H132 C128 0.950 . S
H133 C134 0.949 . S
C134 H133 0.949 . S
C134 C135 1.395 . S
C134 C136 1.391 . S
C135 C134 1.395 . S
C135 C138 1.390 . S
C136 C134 1.391 . S
C136 C140 1.387 . S
C136 C141 1.491 . S
H137 C138 0.950 . S
C138 C135 1.390 . S
C138 H137 0.950 . S
C138 C139 1.378 . S
C139 C138 1.378 . S
C139 C140 1.409 . S
C140 C136 1.387 . S
C140 C139 1.409 . S
C140 H142 0.951 . S
C141 C136 1.491 . S
C141 C143 1.382 . S
C141 C145 1.404 . S
H142 C140 0.951 . S
C143 C141 1.382 . S
C143 C144 1.390 . S
C143 H148 0.949 . S
C144 C143 1.390 . S
C144 C149 1.399 . S
C145 C141 1.404 . S
C145 H146 0.950 . S
C145 C147 1.375 . S
H146 C145 0.950 . S
C147 C145 1.375 . S
C147 C149 1.382 . S
C147 H151 0.950 . S
H148 C143 0.949 . S
C149 C144 1.399 . S
C149 C147 1.382 . S
C149 H150 0.952 . S
H150 C149 0.952 . S
H151 C147 0.950 . S
Dy152 O155 2.295 1_445 S
Dy152 O157 2.425 . S
Dy152 O158 2.351 1_455 S
Dy152 O160 2.286 1_455 S
Dy152 O162 2.316 . S
Dy152 O166 2.334 . S
Dy152 C174 2.739 . S
Dy153 O156 2.298 . S
Dy153 O159 2.275 1_455 S
Dy153 O161 2.307 1_565 S
Dy153 O163 2.395 . S
Dy153 O164 2.379 . S
Dy153 O167 2.339 . S
Dy153 C183 2.738 . S
C154 O166 1.244 1_565 S
C154 O167 1.284 . S
O155 Dy152 2.295 1_665 S
O155 C165 1.244 1_655 S
O156 Dy153 2.298 . S
O156 C165 1.236 . S
O157 Dy152 2.425 . S
O157 C174 1.255 . S
O158 Dy152 2.351 1_655 S
O158 C174 1.249 1_655 S
O159 Dy153 2.275 1_655 S
O159 C175 1.254 1_565 S
O160 Dy152 2.286 1_655 S
O160 C175 1.257 . S
O161 Dy153 2.307 1_545 S
O161 C176 1.266 . S
O162 Dy152 2.316 . S
O162 C176 1.236 . S
O163 Dy153 2.395 . S
O163 C183 1.255 . S
O164 Dy153 2.379 . S
O164 C183 1.249 . S
C165 O155 1.244 1_455 S
C165 O156 1.236 . S
O166 Dy152 2.334 . S
O166 C154 1.244 1_545 S
O167 Dy153 2.339 . S
O167 C154 1.284 . S
C168 C171 1.344 . S
C168 C172 1.328 1_455 S
C168 C174 1.516 . S
C169 C170 1.304 . S
C169 C173 1.323 1_455 S
C170 C169 1.304 . S
C170 C171 1.371 . S
C170 H184 0.930 . S
C171 C168 1.344 . S
C171 C170 1.371 . S
C171 H185 0.931 . S
C172 C168 1.328 1_655 S
C172 C173 1.433 . S
C172 H186 0.931 . S
C173 C169 1.323 1_655 S
C173 C172 1.433 . S
C173 H187 0.933 . S
C174 Dy152 2.739 . S
C174 O157 1.255 . S
C174 O158 1.249 1_455 S
C174 C168 1.516 . S
C175 O159 1.254 1_545 S
C175 O160 1.257 . S
C176 O161 1.266 . S
C176 O162 1.236 . S
C177 C180 1.399 . S
C177 C181 1.328 . S
C177 C183 1.516 . S
C178 C179 1.326 . S
C178 C182 1.323 . S
C179 C178 1.326 . S
C179 C180 1.372 . S
C179 H188 0.908 1_455 S
C180 C177 1.399 . S
C180 C179 1.372 . S
C180 H189 0.877 1_455 S
C181 C177 1.328 . S
C181 C182 1.433 . S
C181 H190 0.931 . S
C182 C178 1.323 . S
C182 C181 1.433 . S
C182 H191 0.933 . S
C183 Dy153 2.738 . S
C183 O163 1.255 . S
C183 O164 1.249 . S
C183 C177 1.516 . S
H184 C170 0.930 . S
H185 C171 0.931 . S
H186 C172 0.931 . S
H187 C173 0.933 . S
H188 C179 0.908 1_655 S
H189 C180 0.877 1_655 S
H190 C181 0.931 . S
H191 C182 0.933 . S
Dy192 O195 2.307 . S
Dy192 O197 2.395 1_565 S
Dy192 O198 2.379 . S
Dy192 O200 2.339 . S
Dy192 O202 2.298 . S
Dy192 O206 2.275 1_565 S
Dy192 C214 2.738 . S
Dy193 O196 2.298 . S
Dy193 O199 2.275 1_545 S
Dy193 O201 2.307 . S
Dy193 O203 2.395 1_545 S
Dy193 O204 2.379 . S
Dy193 O207 2.339 . S
Dy193 C223 2.738 . S
C194 O206 1.254 . S
C194 O207 1.257 . S
O195 Dy192 2.307 . S
O195 C205 1.266 . S
O196 Dy193 2.298 . S
O196 C205 1.236 1_545 S
O197 Dy192 2.395 1_545 S
O197 C214 1.255 1_545 S
O198 Dy192 2.379 . S
O198 C214 1.249 . S
O199 Dy193 2.275 1_565 S
O199 C215 1.254 . S
O200 Dy192 2.339 . S
O200 C215 1.257 . S
O201 Dy193 2.307 . S
O201 C216 1.266 . S
O202 Dy192 2.298 . S
O202 C216 1.236 1_565 S
O203 Dy193 2.395 1_565 S
O203 C223 1.255 1_565 S
O204 Dy193 2.379 . S
O204 C223 1.249 . S
C205 O195 1.266 . S
C205 O196 1.236 1_565 S
O206 Dy192 2.275 1_545 S
O206 C194 1.254 . S
O207 Dy193 2.339 . S
O207 C194 1.257 . S
C208 C211 1.344 1_565 S
C208 C212 1.328 . S
C208 C214 1.516 . S
C209 C210 1.304 1_565 S
C209 C213 1.323 . S
C210 C209 1.304 1_545 S
C210 C211 1.371 . S
C210 H224 0.930 . S
C211 C208 1.344 1_545 S
C211 C210 1.371 . S
C211 H225 0.931 . S
C212 C208 1.328 . S
C212 C213 1.433 . S
C212 H226 0.931 . S
C213 C209 1.323 . S
C213 C212 1.433 . S
C213 H227 0.933 . S
C214 Dy192 2.738 . S
C214 O197 1.255 1_565 S
C214 O198 1.249 . S
C214 C208 1.516 . S
C215 O199 1.254 . S
C215 O200 1.257 . S
C216 O201 1.266 . S
C216 O202 1.236 1_545 S
C217 C220 1.344 1_545 S
C217 C221 1.328 . S
C217 C223 1.516 . S
C218 C219 1.304 1_545 S
C218 C222 1.323 . S
C219 C218 1.304 1_565 S
C219 C220 1.371 . S
C219 H228 0.930 . S
C220 C217 1.344 1_565 S
C220 C219 1.371 . S
C220 H229 0.931 . S
C221 C217 1.328 . S
C221 C222 1.433 . S
C221 H230 0.931 . S
C222 C218 1.323 . S
C222 C221 1.433 . S
C222 H231 0.933 . S
C223 Dy193 2.738 . S
C223 O203 1.255 1_545 S
C223 O204 1.249 . S
C223 C217 1.516 . S
H224 C210 0.930 . S
H225 C211 0.931 . S
H226 C212 0.931 . S
H227 C213 0.933 . S
H228 C219 0.930 . S
H229 C220 0.931 . S
H230 C221 0.931 . S
H231 C222 0.933 . S
Dy232 O235 2.307 . S
Dy232 O237 2.395 . S
Dy232 O238 2.379 . S
Dy232 O240 2.339 . S
Dy232 O242 2.298 . S
Dy232 O246 2.275 . S
Dy232 C254 2.738 . S
Dy233 O236 2.298 . S
Dy233 O239 2.275 . S
Dy233 O241 2.307 . S
Dy233 O243 2.395 . S
Dy233 O244 2.379 . S
Dy233 O247 2.339 . S
Dy233 C263 2.738 . S
C234 O246 1.254 . S
C234 O247 1.257 . S
O235 Dy232 2.307 . S
O235 C245 1.266 . S
O236 Dy233 2.298 . S
O236 C245 1.236 . S
O237 Dy232 2.395 . S
O237 C254 1.255 . S
O238 Dy232 2.379 . S
O238 C254 1.249 . S
O239 Dy233 2.275 . S
O239 C255 1.254 . S
O240 Dy232 2.339 . S
O240 C255 1.257 . S
O241 Dy233 2.307 . S
O241 C256 1.266 . S
O242 Dy232 2.298 . S
O242 C256 1.236 . S
O243 Dy233 2.395 . S
O243 C263 1.255 . S
O244 Dy233 2.379 . S
O244 C263 1.249 . S
C245 O235 1.266 . S
C245 O236 1.236 . S
O246 Dy232 2.275 . S
O246 C234 1.254 . S
O247 Dy233 2.339 . S
O247 C234 1.257 . S
C248 C251 1.344 . S
C248 C252 1.328 . S
C248 C254 1.516 . S
C249 C250 1.304 . S
C249 C253 1.323 . S
C250 C249 1.304 . S
C250 C251 1.371 . S
C250 H264 0.930 . S
C251 C248 1.344 . S
C251 C250 1.371 . S
C251 H265 0.931 . S
C252 C248 1.328 . S
C252 C253 1.433 . S
C252 H266 0.931 . S
C253 C249 1.323 . S
C253 C252 1.433 . S
C253 H267 0.933 . S
C254 Dy232 2.738 . S
C254 O237 1.255 . S
C254 O238 1.249 . S
C254 C248 1.516 . S
C255 O239 1.254 . S
C255 O240 1.257 . S
C256 O241 1.266 . S
C256 O242 1.236 . S
C257 C260 1.344 . S
C257 C261 1.328 . S
C257 C263 1.516 . S
C258 C259 1.304 . S
C258 C262 1.323 . S
C259 C258 1.304 . S
C259 C260 1.371 . S
C259 H268 0.930 . S
C260 C257 1.344 . S
C260 C259 1.371 . S
C260 H269 0.931 . S
C261 C257 1.328 . S
C261 C262 1.433 . S
C261 H270 0.931 . S
C262 C258 1.323 . S
C262 C261 1.433 . S
C262 H271 0.933 . S
C263 Dy233 2.738 . S
C263 O243 1.255 . S
C263 O244 1.249 . S
C263 C257 1.516 . S
H264 C250 0.930 . S
H265 C251 0.931 . S
H266 C252 0.931 . S
H267 C253 0.933 . S
H268 C259 0.930 . S
H269 C260 0.931 . S
H270 C261 0.931 . S
H271 C262 0.933 . S
Dy272 O275 2.307 1_455 S
Dy272 O277 2.395 . S
Dy272 O278 2.379 . S
Dy272 O280 2.339 . S
Dy272 O282 2.298 . S
Dy272 O286 2.275 . S
Dy272 C294 2.738 . S
Dy273 O276 2.298 . S
Dy273 O279 2.275 1_655 S
Dy273 O281 2.307 1_655 S
Dy273 O283 2.395 . S
Dy273 O284 2.379 . S
Dy273 O287 2.339 1_655 S
Dy273 C303 2.738 . S
C274 O286 1.254 . S
C274 O287 1.256 . S
O275 Dy272 2.307 1_655 S
O275 C285 1.266 . S
O276 Dy273 2.298 . S
O276 C285 1.236 . S
O277 Dy272 2.395 . S
O277 C294 1.255 . S
O278 Dy272 2.379 . S
O278 C294 1.249 . S
O279 Dy273 2.275 1_455 S
O279 C295 1.254 . S
O280 Dy272 2.339 . S
O280 C295 1.257 . S
O281 Dy273 2.307 1_455 S
O281 C296 1.266 . S
O282 Dy272 2.298 . S
O282 C296 1.236 . S
O283 Dy273 2.395 . S
O283 C303 1.255 . S
O284 Dy273 2.379 . S
O284 C303 1.249 . S
C285 O275 1.266 . S
C285 O276 1.236 . S
O286 Dy272 2.275 . S
O286 C274 1.254 . S
O287 Dy273 2.339 1_455 S
O287 C274 1.256 . S
C288 C291 1.344 . S
C288 C292 1.328 . S
C288 C294 1.516 . S
C289 C290 1.304 . S
C289 C293 1.323 . S
C290 C289 1.304 . S
C290 C291 1.371 . S
C290 H304 0.930 . S
C291 C288 1.344 . S
C291 C290 1.371 . S
C291 H305 0.931 . S
C292 C288 1.328 . S
C292 C293 1.433 . S
C292 H306 0.931 . S
C293 C289 1.323 . S
C293 C292 1.433 . S
C293 H307 0.933 . S
C294 Dy272 2.738 . S
C294 O277 1.255 . S
C294 O278 1.249 . S
C294 C288 1.516 . S
C295 O279 1.254 . S
C295 O280 1.257 . S
C296 O281 1.266 . S
C296 O282 1.236 . S
C297 C300 1.344 . S
C297 C301 1.328 . S
C297 C303 1.516 . S
C298 C299 1.304 . S
C298 C302 1.323 . S
C299 C298 1.304 . S
C299 C300 1.371 1_554 S
C299 H308 0.930 . S
C300 C297 1.344 . S
C300 C299 1.371 1_556 S
C300 H309 0.931 . S
C301 C297 1.328 . S
C301 C302 1.433 1_556 S
C301 H310 0.931 . S
C302 C298 1.323 . S
C302 C301 1.433 1_554 S
C302 H311 0.933 . S
C303 Dy273 2.738 . S
C303 O283 1.255 . S
C303 O284 1.249 . S
C303 C297 1.516 . S
H304 C290 0.930 . S
H305 C291 0.931 . S
H306 C292 0.931 . S
H307 C293 0.933 . S
H308 C299 0.930 . S
H309 C300 0.931 . S
H310 C301 0.931 . S
H311 C302 0.933 . S
C312 C313 1.349 1_565 S
C312 C314 1.327 . S
C312 H337 0.950 . S
C313 C312 1.349 1_545 S
C313 C329 1.349 . S
C314 C312 1.327 . S
C314 C333 1.429 1_565 S
C314 H338 0.950 . S
C315 C332 1.574 . S
C315 C334 1.368 . S
C315 H339 0.949 . S
H316 C320 0.949 . S
C317 C318 1.349 . S
C317 C319 1.327 . S
C317 H340 0.950 . S
C318 C317 1.349 . S
C318 C330 1.349 1_545 S
C319 C317 1.327 . S
C319 C335 1.429 . S
C319 H341 0.950 . S
C320 H316 0.949 . S
C320 C328 1.574 . S
C320 C336 1.368 1_565 S
H321 C329 0.950 . S
H322 C327 0.950 . S
H323 C328 0.949 . S
H324 C330 0.950 . S
H325 C331 0.950 . S
H326 C332 0.949 . S
C327 H322 0.950 . S
C327 C329 1.327 . S
C327 C333 1.429 . S
C328 C320 1.574 . S
C328 H323 0.949 . S
C328 C334 1.368 1_565 S
C329 C313 1.349 . S
C329 H321 0.950 . S
C329 C327 1.327 . S
C330 C318 1.349 1_565 S
C330 H324 0.950 . S
C330 C331 1.327 . S
C331 H325 0.950 . S
C331 C330 1.327 . S
C331 C335 1.429 1_565 S
C332 C315 1.574 . S
C332 H326 0.949 . S
C332 C336 1.368 . S
C333 C314 1.429 1_545 S
C333 C327 1.429 . S
C333 C334 1.523 . S
C334 C315 1.368 . S
C334 C328 1.368 1_545 S
C334 C333 1.523 . S
C335 C319 1.429 . S
C335 C331 1.429 1_545 S
C335 C336 1.523 . S
C336 C320 1.368 1_545 S
C336 C332 1.368 . S
C336 C335 1.523 . S
H337 C312 0.950 . S
H338 C314 0.950 . S
H339 C315 0.949 . S
H340 C317 0.950 . S
H341 C319 0.950 . S
C342 C343 1.349 . S
C342 C344 1.327 . S
C342 H367 0.950 . S
C343 C342 1.349 . S
C343 C359 1.349 . S
C344 C342 1.327 . S
C344 C363 1.429 . S
C344 H368 0.950 . S
C345 C362 1.574 . S
C345 C364 1.368 . S
C345 H369 0.949 . S
H346 C350 0.949 . S
C347 C348 1.349 . S
C347 C349 1.327 . S
C347 H370 0.950 . S
C348 C347 1.349 . S
C348 C360 1.349 . S
C349 C347 1.327 . S
C349 C365 1.429 . S
C349 H371 0.950 . S
C350 H346 0.949 . S
C350 C358 1.574 . S
C350 C366 1.368 . S
H351 C359 0.950 . S
H352 C357 0.950 . S
H353 C358 0.949 . S
H354 C360 0.950 . S
H355 C361 0.950 . S
H356 C362 0.949 . S
C357 H352 0.950 . S
C357 C359 1.327 . S
C357 C363 1.429 . S
C358 C350 1.574 . S
C358 H353 0.949 . S
C358 C364 1.368 . S
C359 C343 1.349 . S
C359 H351 0.950 . S
C359 C357 1.327 . S
C360 C348 1.349 . S
C360 H354 0.950 . S
C360 C361 1.327 . S
C361 H355 0.950 . S
C361 C360 1.327 . S
C361 C365 1.429 . S
C362 C345 1.574 . S
C362 H356 0.949 . S
C362 C366 1.368 . S
C363 C344 1.429 . S
C363 C357 1.429 . S
C363 C364 1.523 . S
C364 C345 1.368 . S
C364 C358 1.368 . S
C364 C363 1.523 . S
C365 C349 1.429 . S
C365 C361 1.429 . S
C365 C366 1.523 . S
C366 C350 1.368 . S
C366 C362 1.368 . S
C366 C365 1.523 . S
H367 C342 0.950 . S
H368 C344 0.950 . S
H369 C345 0.949 . S
H370 C347 0.950 . S
H371 C349 0.950 . S
C372 C373 1.349 . S
C372 C374 1.327 . S
C372 H397 0.950 . S
C373 C372 1.349 . S
C373 C389 1.349 . S
C374 C372 1.327 . S
C374 C393 1.429 . S
C374 H398 0.950 . S
C375 C392 1.574 . S
C375 C394 1.368 . S
C375 H399 0.949 . S
H376 C380 0.949 . S
C377 C378 1.349 . S
C377 C379 1.327 . S
C377 H400 0.950 . S
C378 C377 1.349 . S
C378 C390 1.349 . S
C379 C377 1.327 . S
C379 C395 1.429 . S
C379 H401 0.950 . S
C380 H376 0.949 . S
C380 C388 1.574 . S
C380 C396 1.368 . S
H381 C389 0.950 . S
H382 C387 0.950 . S
H383 C388 0.949 . S
H384 C390 0.950 . S
H385 C391 0.950 . S
H386 C392 0.949 . S
C387 H382 0.950 . S
C387 C389 1.327 . S
C387 C393 1.429 . S
C388 C380 1.574 . S
C388 H383 0.949 . S
C388 C394 1.368 . S
C389 C373 1.349 . S
C389 H381 0.950 . S
C389 C387 1.327 . S
C390 C378 1.349 . S
C390 H384 0.950 . S
C390 C391 1.327 . S
C391 H385 0.950 . S
C391 C390 1.327 . S
C391 C395 1.429 . S
C392 C375 1.574 . S
C392 H386 0.949 . S
C392 C396 1.368 . S
C393 C374 1.429 . S
C393 C387 1.429 . S
C393 C394 1.523 . S
C394 C375 1.368 . S
C394 C388 1.368 . S
C394 C393 1.523 . S
C395 C379 1.429 . S
C395 C391 1.429 . S
C395 C396 1.523 . S
C396 C380 1.368 . S
C396 C392 1.368 . S
C396 C395 1.523 . S
H397 C372 0.950 . S
H398 C374 0.950 . S
H399 C375 0.949 . S
H400 C377 0.950 . S
H401 C379 0.950 . S
C402 C403 1.349 . S
C402 C404 1.327 . S
C402 H427 0.950 . S
C403 C402 1.349 . S
C403 C419 1.349 . S
C404 C402 1.327 . S
C404 C423 1.429 . S
C404 H428 0.950 . S
C405 C422 1.574 . S
C405 C424 1.368 . S
C405 H429 0.949 . S
H406 C410 0.949 . S
C407 C408 1.349 . S
C407 C409 1.327 . S
C407 H430 0.950 . S
C408 C407 1.349 . S
C408 C420 1.349 . S
C409 C407 1.327 . S
C409 C425 1.429 . S
C409 H431 0.950 . S
C410 H406 0.949 . S
C410 C418 1.574 . S
C410 C426 1.368 . S
H411 C419 0.950 . S
H412 C417 0.950 . S
H413 C418 0.949 . S
H414 C420 0.950 . S
H415 C421 0.950 . S
H416 C422 0.949 . S
C417 H412 0.950 . S
C417 C419 1.327 . S
C417 C423 1.429 . S
C418 C410 1.574 . S
C418 H413 0.949 . S
C418 C424 1.368 . S
C419 C403 1.349 . S
C419 H411 0.950 . S
C419 C417 1.327 . S
C420 C408 1.349 . S
C420 H414 0.950 . S
C420 C421 1.327 . S
C421 H415 0.950 . S
C421 C420 1.327 . S
C421 C425 1.429 . S
C422 C405 1.574 . S
C422 H416 0.949 . S
C422 C426 1.368 . S
C423 C404 1.429 . S
C423 C417 1.429 . S
C423 C424 1.523 . S
C424 C405 1.368 . S
C424 C418 1.368 . S
C424 C423 1.523 . S
C425 C409 1.429 . S
C425 C421 1.429 . S
C425 C426 1.523 . S
C426 C410 1.368 . S
C426 C422 1.368 . S
C426 C425 1.523 . S
H427 C402 0.950 . S
H428 C404 0.950 . S
H429 C405 0.949 . S
H430 C407 0.950 . S
H431 C409 0.950 . S
C432 C433 1.349 1_545 S
C432 C434 1.327 . S
C432 H457 0.950 . S
C433 C432 1.349 1_565 S
C433 C449 1.349 . S
C434 C432 1.327 . S
C434 C453 1.429 1_545 S
C434 H458 0.950 . S
C435 C452 1.574 . S
C435 C454 1.368 1_556 S
C435 H459 0.949 . S
H436 C440 0.949 . S
C437 C438 1.365 . S
C437 C439 1.327 . S
C437 H460 0.950 . S
C438 C437 1.365 . S
C438 C450 1.337 1_565 S
C439 C437 1.327 . S
C439 C455 1.429 . S
C439 H461 0.950 . S
C440 H436 0.949 . S
C440 C448 1.574 . S
C440 C456 1.368 1_544 S
H441 C449 0.950 . S
H442 C447 0.950 1_556 S
H443 C448 0.949 . S
H444 C450 0.950 . S
H445 C451 0.950 . S
H446 C452 0.949 . S
C447 H442 0.950 1_554 S
C447 C449 1.327 . S
C447 C453 1.429 . S
C448 C440 1.574 . S
C448 H443 0.949 . S
C448 C454 1.368 1_545 S
C449 C433 1.349 . S
C449 H441 0.950 . S
C449 C447 1.327 . S
C450 C438 1.337 1_545 S
C450 H444 0.950 . S
C450 C451 1.327 . S
C451 H445 0.950 . S
C451 C450 1.327 . S
C451 C455 1.429 1_545 S
C452 C435 1.574 . S
C452 H446 0.949 . S
C452 C456 1.368 . S
C453 C434 1.429 1_565 S
C453 C447 1.429 . S
C453 C454 1.523 . S
C454 C435 1.368 1_554 S
C454 C448 1.368 1_565 S
C454 C453 1.523 . S
C455 C439 1.429 . S
C455 C451 1.429 1_565 S
C455 C456 1.523 . S
C456 C440 1.368 1_566 S
C456 C452 1.368 . S
C456 C455 1.523 . S
H457 C432 0.950 . S
H458 C434 0.950 . S
H459 C435 0.949 . S
H460 C437 0.950 . S
H461 C439 0.950 . S
C462 C463 1.349 . S
C462 C464 1.327 . S
C462 H487 0.950 . S
C463 C462 1.349 . S
C463 C479 1.349 1_554 S
C464 C462 1.327 . S
C464 C483 1.429 1_554 S
C464 H488 0.950 . S
C465 C482 1.574 . S
C465 C484 1.368 . S
C465 H489 0.949 . S
H466 C470 0.949 . S
C467 C468 1.349 . S
C467 C469 1.327 . S
C467 H490 0.950 . S
C468 C467 1.349 . S
C468 C480 1.349 . S
C469 C467 1.327 . S
C469 C485 1.429 . S
C469 H491 0.950 . S
C470 H466 0.949 . S
C470 C478 1.574 . S
C470 C486 1.368 . S
H471 C479 0.950 . S
H472 C477 0.950 . S
H473 C478 0.949 1_554 S
H474 C480 0.950 . S
H475 C481 0.950 . S
H476 C482 0.949 . S
C477 H472 0.950 . S
C477 C479 1.327 . S
C477 C483 1.429 . S
C478 C470 1.574 . S
C478 H473 0.949 1_556 S
C478 C484 1.368 . S
C479 C463 1.349 1_556 S
C479 H471 0.950 . S
C479 C477 1.327 . S
C480 C468 1.349 . S
C480 H474 0.950 . S
C480 C481 1.327 . S
C481 H475 0.950 . S
C481 C480 1.327 . S
C481 C485 1.429 . S
C482 C465 1.574 . S
C482 H476 0.949 . S
C482 C486 1.368 . S
C483 C464 1.429 1_556 S
C483 C477 1.429 . S
C483 C484 1.523 . S
C484 C465 1.368 . S
C484 C478 1.368 . S
C484 C483 1.523 . S
C485 C469 1.429 . S
C485 C481 1.429 . S
C485 C486 1.523 . S
C486 C470 1.368 . S
C486 C482 1.368 . S
C486 C485 1.523 . S
H487 C462 0.950 . S
H488 C464 0.950 . S
H489 C465 0.949 . S
H490 C467 0.950 . S
H491 C469 0.950 . S
C492 C493 1.349 . S
C492 C494 1.327 . S
C492 H517 0.950 . S
C493 C492 1.349 . S
C493 C509 1.349 . S
C494 C492 1.327 . S
C494 C513 1.429 . S
C494 H518 0.950 . S
C495 C512 1.574 . S
C495 C514 1.368 . S
C495 H519 0.949 . S
H496 C500 0.949 . S
C497 C498 1.349 1_554 S
C497 C499 1.327 . S
C497 H520 0.950 . S
C498 C497 1.349 1_556 S
C498 C510 1.349 . S
C499 C497 1.327 . S
C499 C515 1.429 . S
C499 H521 0.950 . S
C500 H496 0.949 . S
C500 C508 1.574 . S
C500 C516 1.368 . S
H501 C509 0.950 . S
H502 C507 0.950 . S
H503 C508 0.949 . S
H504 C510 0.950 . S
H505 C511 0.950 . S
H506 C512 0.949 . S
C507 H502 0.950 . S
C507 C509 1.327 . S
C507 C513 1.429 . S
C508 C500 1.574 . S
C508 H503 0.949 . S
C508 C514 1.368 . S
C509 C493 1.349 . S
C509 H501 0.950 . S
C509 C507 1.327 . S
C510 C498 1.349 . S
C510 H504 0.950 . S
C510 C511 1.327 1_556 S
C511 H505 0.950 . S
C511 C510 1.327 1_554 S
C511 C515 1.429 . S
C512 C495 1.574 . S
C512 H506 0.949 . S
C512 C516 1.368 . S
C513 C494 1.429 . S
C513 C507 1.429 . S
C513 C514 1.523 . S
C514 C495 1.368 . S
C514 C508 1.368 . S
C514 C513 1.523 . S
C515 C499 1.429 . S
C515 C511 1.429 . S
C515 C516 1.523 . S
C516 C500 1.368 . S
C516 C512 1.368 . S
C516 C515 1.523 . S
H517 C492 0.950 . S
H518 C494 0.950 . S
H519 C495 0.949 . S
H520 C497 0.950 . S
H521 C499 0.950 . S
C522 C523 1.349 . S
C522 C524 1.327 . S
C522 H547 0.950 . S
C523 C522 1.349 . S
C523 C539 1.349 1_655 S
C524 C522 1.327 . S
C524 C543 1.429 . S
C524 H548 0.950 . S
C525 C542 1.574 1_554 S
C525 C544 1.368 1_455 S
C525 H549 0.949 . S
H526 C530 0.949 . S
C527 C528 1.349 . S
C527 C529 1.327 . S
C527 H550 0.950 . S
C528 C527 1.349 . S
C528 C540 1.349 1_455 S
C529 C527 1.327 . S
C529 C545 1.429 . S
C529 H551 0.950 . S
C530 H526 0.949 . S
C530 C538 1.574 . S
C530 C546 1.368 1_654 S
H531 C539 0.950 . S
H532 C537 0.950 . S
H533 C538 0.949 . S
H534 C540 0.950 . S
H535 C541 0.950 . S
H536 C542 0.949 . S
C537 H532 0.950 . S
C537 C539 1.327 . S
C537 C543 1.429 1_455 S
C538 C530 1.574 . S
C538 H533 0.949 . S
C538 C544 1.368 . S
C539 C523 1.349 1_455 S
C539 H531 0.950 . S
C539 C537 1.327 . S
C540 C528 1.349 1_655 S
C540 H534 0.950 . S
C540 C541 1.327 . S
C541 H535 0.950 . S
C541 C540 1.327 . S
C541 C545 1.429 1_655 S
C542 C525 1.574 1_556 S
C542 H536 0.949 . S
C542 C546 1.368 . S
C543 C524 1.429 . S
C543 C537 1.429 1_655 S
C543 C544 1.523 . S
C544 C525 1.368 1_655 S
C544 C538 1.368 . S
C544 C543 1.523 . S
C545 C529 1.429 . S
C545 C541 1.429 1_455 S
C545 C546 1.523 . S
C546 C530 1.368 1_456 S
C546 C542 1.368 . S
C546 C545 1.523 . S
H547 C522 0.950 . S
H548 C524 0.950 . S
H549 C525 0.949 . S
H550 C527 0.950 . S
H551 C529 0.950 . S
C552 C553 1.349 . S
C552 C554 1.327 . S
C552 H577 0.950 . S
C553 C552 1.349 . S
C553 C569 1.349 . S
C554 C552 1.327 . S
C554 C573 1.429 . S
C554 H578 0.950 . S
C555 C572 1.574 . S
C555 C574 1.368 . S
C555 H579 0.949 . S
H556 C560 0.935 1_655 S
C557 C558 1.349 . S
C557 C559 1.327 . S
C557 H580 0.950 . S
C558 C557 1.349 . S
C558 C570 1.349 1_455 S
C559 C557 1.327 . S
C559 C575 1.429 . S
C559 H581 0.950 . S
C560 H556 0.935 1_455 S
C560 C568 1.574 . S
C560 C576 1.368 . S
H561 C569 0.950 . S
H562 C567 0.950 . S
H563 C568 0.949 . S
H564 C570 0.950 . S
H565 C571 0.962 . S
H566 C572 0.949 . S
C567 H562 0.950 . S
C567 C569 1.327 . S
C567 C573 1.429 . S
C568 C560 1.574 . S
C568 H563 0.949 . S
C568 C574 1.368 . S
C569 C553 1.349 . S
C569 H561 0.950 . S
C569 C567 1.327 . S
C570 C558 1.349 1_655 S
C570 H564 0.950 . S
C570 C571 1.335 . S
C571 H565 0.962 . S
C571 C570 1.335 . S
C571 C575 1.412 1_655 S
C572 C555 1.574 . S
C572 H566 0.949 . S
C572 C576 1.368 . S
C573 C554 1.429 . S
C573 C567 1.429 . S
C573 C574 1.523 . S
C574 C555 1.368 . S
C574 C568 1.368 . S
C574 C573 1.523 . S
C575 C559 1.429 . S
C575 C571 1.412 1_455 S
C575 C576 1.523 . S
C576 C560 1.368 . S
C576 C572 1.368 . S
C576 C575 1.523 . S
H577 C552 0.950 . S
H578 C554 0.950 . S
H579 C555 0.949 . S
H580 C557 0.950 . S
H581 C559 0.950 . S
C582 C583 1.349 . S
C582 C584 1.327 . S
C582 H607 0.950 . S
C583 C582 1.349 . S
C583 C599 1.349 1_545 S
C584 C582 1.327 . S
C584 C603 1.429 . S
C584 H608 0.950 . S
C585 C602 1.574 . S
C585 C604 1.350 1_565 S
C585 H609 0.949 . S
H586 C590 0.949 . S
C587 C588 1.349 . S
C587 C589 1.327 . S
C587 H610 0.950 . S
C588 C587 1.349 . S
C588 C600 1.349 1_565 S
C589 C587 1.327 . S
C589 C605 1.429 . S
C589 H611 0.950 . S
C590 H586 0.949 . S
C590 C598 1.574 . S
C590 C606 1.368 1_545 S
H591 C599 0.950 . S
H592 C597 0.950 . S
H593 C598 0.949 . S
H594 C600 0.950 . S
H595 C601 0.950 . S
H596 C602 0.949 . S
C597 H592 0.950 . S
C597 C599 1.327 . S
C597 C603 1.429 1_565 S
C598 C590 1.574 . S
C598 H593 0.949 . S
C598 C604 1.385 . S
C599 C583 1.349 1_565 S
C599 H591 0.950 . S
C599 C597 1.327 . S
C600 C588 1.349 1_545 S
C600 H594 0.950 . S
C600 C601 1.327 . S
C601 H595 0.950 . S
C601 C600 1.327 . S
C601 C605 1.429 1_545 S
C602 C585 1.574 . S
C602 H596 0.949 . S
C602 C606 1.368 . S
C603 C584 1.429 . S
C603 C597 1.429 1_545 S
C603 C604 1.525 . S
C604 C585 1.350 1_545 S
C604 C598 1.385 . S
C604 C603 1.525 . S
C605 C589 1.429 . S
C605 C601 1.429 1_565 S
C605 C606 1.523 . S
C606 C590 1.368 1_565 S
C606 C602 1.368 . S
C606 C605 1.523 . S
H607 C582 0.950 . S
H608 C584 0.950 . S
H609 C585 0.949 . S
H610 C587 0.950 . S
H611 C589 0.950 . S
C612 C613 1.349 . S
C612 C614 1.327 . S
C612 H637 0.950 . S
C613 C612 1.349 . S
C613 C629 1.349 . S
C614 C612 1.327 . S
C614 C633 1.429 . S
C614 H638 0.950 . S
C615 C632 1.574 . S
C615 C634 1.368 . S
C615 H639 0.949 . S
H616 C620 0.949 . S
C617 C618 1.349 . S
C617 C619 1.327 . S
C617 H640 0.950 . S
C618 C617 1.349 . S
C618 C630 1.349 . S
C619 C617 1.327 . S
C619 C635 1.429 . S
C619 H641 0.950 . S
C620 H616 0.949 . S
C620 C628 1.574 . S
C620 C636 1.368 . S
H621 C629 0.950 . S
H622 C627 0.950 . S
H623 C628 0.949 . S
H624 C630 0.950 . S
H625 C631 0.950 . S
H626 C632 0.949 . S
C627 H622 0.950 . S
C627 C629 1.327 . S
C627 C633 1.429 . S
C628 C620 1.574 . S
C628 H623 0.949 . S
C628 C634 1.368 . S
C629 C613 1.349 . S
C629 H621 0.950 . S
C629 C627 1.327 . S
C630 C618 1.349 . S
C630 H624 0.950 . S
C630 C631 1.327 . S
C631 H625 0.950 . S
C631 C630 1.327 . S
C631 C635 1.429 . S
C632 C615 1.574 . S
C632 H626 0.949 . S
C632 C636 1.368 . S
C633 C614 1.429 . S
C633 C627 1.429 . S
C633 C634 1.523 . S
C634 C615 1.368 . S
C634 C628 1.368 . S
C634 C633 1.523 . S
C635 C619 1.429 . S
C635 C631 1.429 . S
C635 C636 1.523 . S
C636 C620 1.368 . S
C636 C632 1.368 . S
C636 C635 1.523 . S
H637 C612 0.950 . S
H638 C614 0.950 . S
H639 C615 0.949 . S
H640 C617 0.950 . S
H641 C619 0.950 . S
C642 C643 1.349 . S
C642 C644 1.327 . S
C642 H667 0.950 1_554 S
C643 C642 1.349 . S
C643 C659 1.349 . S
C644 C642 1.327 . S
C644 C663 1.429 . S
C644 H668 0.950 . S
C645 C662 1.574 . S
C645 C664 1.368 . S
C645 H669 0.949 . S
H646 C650 0.949 . S
C647 C648 1.349 . S
C647 C649 1.327 . S
C647 H670 0.950 . S
C648 C647 1.349 . S
C648 C660 1.349 . S
C649 C647 1.327 . S
C649 C665 1.429 . S
C649 H671 0.950 . S
C650 H646 0.949 . S
C650 C658 1.574 . S
C650 C666 1.368 . S
H651 C659 0.950 . S
H652 C657 0.950 . S
H653 C658 0.949 . S
H654 C660 0.950 . S
H655 C661 0.950 . S
H656 C662 0.949 . S
C657 H652 0.950 . S
C657 C659 1.327 . S
C657 C663 1.429 . S
C658 C650 1.574 . S
C658 H653 0.949 . S
C658 C664 1.368 . S
C659 C643 1.349 . S
C659 H651 0.950 . S
C659 C657 1.327 . S
C660 C648 1.349 . S
C660 H654 0.950 . S
C660 C661 1.327 . S
C661 H655 0.950 . S
C661 C660 1.327 . S
C661 C665 1.429 . S
C662 C645 1.574 . S
C662 H656 0.949 . S
C662 C666 1.368 . S
C663 C644 1.429 . S
C663 C657 1.429 . S
C663 C664 1.523 . S
C664 C645 1.368 . S
C664 C658 1.368 . S
C664 C663 1.523 . S
C665 C649 1.429 . S
C665 C661 1.429 . S
C665 C666 1.523 . S
C666 C650 1.368 . S
C666 C662 1.368 . S
C666 C665 1.523 . S
H667 C642 0.950 1_556 S
H668 C644 0.950 . S
H669 C645 0.949 . S
H670 C647 0.950 . S
H671 C649 0.950 . S
C672 C673 1.349 . S
C672 C674 1.327 . S
C672 H697 0.950 . S
C673 C672 1.349 . S
C673 C689 1.349 . S
C674 C672 1.327 . S
C674 C693 1.429 . S
C674 H698 0.950 . S
C675 C692 1.574 . S
C675 C694 1.368 . S
C675 H699 0.946 1_455 S
H676 C680 0.949 . S
C677 C678 1.349 . S
C677 C679 1.327 . S
C677 H700 0.950 . S
C678 C677 1.349 . S
C678 C690 1.349 1_556 S
C679 C677 1.327 . S
C679 C695 1.429 1_556 S
C679 H701 0.950 . S
C680 H676 0.949 . S
C680 C688 1.574 . S
C680 C696 1.368 . S
H681 C689 0.950 . S
H682 C687 0.950 . S
H683 C688 0.949 . S
H684 C690 0.950 . S
H685 C691 0.950 . S
H686 C692 0.949 . S
C687 H682 0.950 . S
C687 C689 1.327 . S
C687 C693 1.429 . S
C688 C680 1.574 . S
C688 H683 0.949 . S
C688 C694 1.368 . S
C689 C673 1.349 . S
C689 H681 0.950 . S
C689 C687 1.327 . S
C690 C678 1.349 1_554 S
C690 H684 0.950 . S
C690 C691 1.327 . S
C691 H685 0.950 . S
C691 C690 1.327 . S
C691 C695 1.429 . S
C692 C675 1.574 . S
C692 H686 0.949 . S
C692 C696 1.368 . S
C693 C674 1.429 . S
C693 C687 1.429 . S
C693 C694 1.523 1_655 S
C694 C675 1.368 . S
C694 C688 1.368 . S
C694 C693 1.523 1_455 S
C695 C679 1.429 1_554 S
C695 C691 1.429 . S
C695 C696 1.523 . S
C696 C680 1.368 . S
C696 C692 1.368 . S
C696 C695 1.523 . S
H697 C672 0.950 . S
H698 C674 0.950 . S
H699 C675 0.946 1_655 S
H700 C677 0.950 . S
H701 C679 0.950 . S
C702 C703 1.349 . S
C702 C704 1.327 . S
C702 H727 0.950 . S
C703 C702 1.349 . S
C703 C719 1.349 1_565 S
C704 C702 1.327 . S
C704 C723 1.465 . S
C704 H728 0.950 . S
C705 C722 1.574 . S
C705 C724 1.368 . S
C705 H729 0.949 . S
H706 C710 0.949 . S
C707 C708 1.349 . S
C707 C709 1.327 . S
C707 H730 0.950 . S
C708 C707 1.349 . S
C708 C720 1.315 1_546 S
C709 C707 1.327 . S
C709 C725 1.429 1_556 S
C709 H731 0.950 . S
C710 H706 0.949 . S
C710 C718 1.574 . S
C710 C726 1.368 1_565 S
H711 C719 0.950 . S
H712 C717 0.950 . S
H713 C718 0.949 . S
H714 C720 0.981 . S
H715 C721 0.950 . S
H716 C722 0.949 1_556 S
C717 H712 0.950 . S
C717 C719 1.327 . S
C717 C723 1.397 1_545 S
C718 C710 1.574 . S
C718 H713 0.949 . S
C718 C724 1.368 1_565 S
C719 C703 1.349 1_545 S
C719 H711 0.950 . S
C719 C717 1.327 . S
C720 C708 1.315 1_564 S
C720 H714 0.981 . S
C720 C721 1.332 . S
C721 H715 0.950 . S
C721 C720 1.332 . S
C721 C725 1.429 1_565 S
C722 C705 1.574 . S
C722 H716 0.949 1_554 S
C722 C726 1.368 . S
C723 C704 1.465 . S
C723 C717 1.397 1_565 S
C723 C724 1.520 1_565 S
C724 C705 1.368 . S
C724 C718 1.368 1_545 S
C724 C723 1.520 1_545 S
C725 C709 1.429 1_554 S
C725 C721 1.429 1_545 S
C725 C726 1.523 . S
C726 C710 1.368 1_545 S
C726 C722 1.368 . S
C726 C725 1.523 . S
H727 C702 0.950 . S
H728 C704 0.950 . S
H729 C705 0.949 . S
H730 C707 0.950 . S
H731 C709 0.950 . S
C732 C733 1.349 1_556 S
C732 C734 1.327 . S
C732 H757 0.950 . S
C733 C732 1.349 1_554 S
C733 C749 1.349 . S
C734 C732 1.327 . S
C734 C753 1.429 . S
C734 H758 0.950 . S
C735 C752 1.574 1_554 S
C735 C754 1.368 1_554 S
C735 H759 0.949 . S
H736 C740 0.949 . S
C737 C738 1.349 . S
C737 C739 1.327 . S
C737 H760 0.950 . S
C738 C737 1.349 . S
C738 C750 1.349 . S
C739 C737 1.327 . S
C739 C755 1.429 . S
C739 H761 0.950 . S
C740 H736 0.949 . S
C740 C748 1.574 . S
C740 C756 1.368 . S
H741 C749 0.950 . S
H742 C747 0.950 . S
H743 C748 0.949 . S
H744 C750 0.950 . S
H745 C751 0.950 . S
H746 C752 0.949 1_554 S
C747 H742 0.950 . S
C747 C749 1.327 . S
C747 C753 1.429 1_554 S
C748 C740 1.574 . S
C748 H743 0.949 . S
C748 C754 1.368 . S
C749 C733 1.349 . S
C749 H741 0.950 . S
C749 C747 1.327 . S
C750 C738 1.349 . S
C750 H744 0.950 . S
C750 C751 1.327 . S
C751 H745 0.950 . S
C751 C750 1.327 . S
C751 C755 1.429 . S
C752 C735 1.574 1_556 S
C752 H746 0.949 1_556 S
C752 C756 1.368 . S
C753 C734 1.429 . S
C753 C747 1.429 1_556 S
C753 C754 1.523 . S
C754 C735 1.368 1_556 S
C754 C748 1.368 . S
C754 C753 1.523 . S
C755 C739 1.429 . S
C755 C751 1.429 . S
C755 C756 1.523 . S
C756 C740 1.368 . S
C756 C752 1.368 . S
C756 C755 1.523 . S
H757 C732 0.950 . S
H758 C734 0.950 . S
H759 C735 0.949 . S
H760 C737 0.950 . S
H761 C739 0.950 . S
C762 C763 1.349 . S
C762 C764 1.327 . S
C762 H787 0.950 . S
C763 C762 1.349 . S
C763 C779 1.349 . S
C764 C762 1.327 . S
C764 C783 1.429 . S
C764 H788 0.950 . S
C765 C782 1.574 . S
C765 C784 1.368 . S
C765 H789 0.949 . S
H766 C770 0.949 . S
C767 C768 1.349 . S
C767 C769 1.327 . S
C767 H790 0.950 . S
C768 C767 1.349 . S
C768 C780 1.349 . S
C769 C767 1.327 . S
C769 C785 1.429 . S
C769 H791 0.950 . S
C770 H766 0.949 . S
C770 C778 1.574 . S
C770 C786 1.368 . S
H771 C779 0.950 . S
H772 C777 0.950 . S
H773 C778 0.949 . S
H774 C780 0.950 1_556 S
H775 C781 0.950 . S
H776 C782 0.949 . S
C777 H772 0.950 . S
C777 C779 1.327 . S
C777 C783 1.429 . S
C778 C770 1.574 . S
C778 H773 0.949 . S
C778 C784 1.368 . S
C779 C763 1.349 . S
C779 H771 0.950 . S
C779 C777 1.327 . S
C780 C768 1.349 . S
C780 H774 0.950 1_554 S
C780 C781 1.327 . S
C781 H775 0.950 . S
C781 C780 1.327 . S
C781 C785 1.429 . S
C782 C765 1.574 . S
C782 H776 0.949 . S
C782 C786 1.368 . S
C783 C764 1.429 . S
C783 C777 1.429 . S
C783 C784 1.523 . S
C784 C765 1.368 . S
C784 C778 1.368 . S
C784 C783 1.523 . S
C785 C769 1.429 . S
C785 C781 1.429 . S
C785 C786 1.523 . S
C786 C770 1.368 . S
C786 C782 1.368 . S
C786 C785 1.523 . S
H787 C762 0.950 . S
H788 C764 0.950 . S
H789 C765 0.949 . S
H790 C767 0.950 . S
H791 C769 0.950 . S
C792 C793 1.349 1_554 S
C792 C794 1.327 1_554 S
C792 H817 0.950 . S
C793 C792 1.349 1_556 S
C793 C809 1.349 . S
C794 C792 1.327 1_556 S
C794 C813 1.429 . S
C794 H818 0.950 1_556 S
C795 C812 1.574 . S
C795 C814 1.368 . S
C795 H819 0.949 . S
H796 C800 0.949 . S
C797 C798 1.349 . S
C797 C799 1.327 . S
C797 H820 0.950 . S
C798 C797 1.349 . S
C798 C810 1.349 . S
C799 C797 1.327 . S
C799 C815 1.429 . S
C799 H821 0.950 . S
C800 H796 0.949 . S
C800 C808 1.574 . S
C800 C816 1.368 . S
H801 C809 0.950 . S
H802 C807 0.950 . S
H803 C808 0.949 . S
H804 C810 0.950 . S
H805 C811 0.950 . S
H806 C812 0.949 . S
C807 H802 0.950 . S
C807 C809 1.327 . S
C807 C813 1.429 . S
C808 C800 1.574 . S
C808 H803 0.949 . S
C808 C814 1.368 . S
C809 C793 1.349 . S
C809 H801 0.950 . S
C809 C807 1.327 . S
C810 C798 1.349 . S
C810 H804 0.950 . S
C810 C811 1.327 . S
C811 H805 0.950 . S
C811 C810 1.327 . S
C811 C815 1.429 . S
C812 C795 1.574 . S
C812 H806 0.949 . S
C812 C816 1.368 . S
C813 C794 1.429 . S
C813 C807 1.429 . S
C813 C814 1.523 . S
C814 C795 1.368 . S
C814 C808 1.368 . S
C814 C813 1.523 . S
C815 C799 1.429 . S
C815 C811 1.429 . S
C815 C816 1.523 . S
C816 C800 1.368 . S
C816 C812 1.368 . S
C816 C815 1.523 . S
H817 C792 0.950 . S
H818 C794 0.950 1_554 S
H819 C795 0.949 . S
H820 C797 0.950 . S
H821 C799 0.950 . S
C822 C823 1.349 . S
C822 C824 1.327 . S
C822 H847 0.950 . S
C823 C822 1.349 . S
C823 C839 1.349 1_545 S
C824 C822 1.327 . S
C824 C843 1.429 . S
C824 H848 0.950 . S
C825 C842 1.574 . S
C825 C844 1.368 1_565 S
C825 H849 0.949 . S
H826 C830 0.949 . S
C827 C828 1.349 1_565 S
C827 C829 1.327 . S
C827 H850 0.950 . S
C828 C827 1.349 1_545 S
C828 C840 1.349 . S
C829 C827 1.327 . S
C829 C845 1.429 1_565 S
C829 H851 0.950 . S
C830 H826 0.949 . S
C830 C838 1.574 1_556 S
C830 C846 1.368 . S
H831 C839 0.950 1_556 S
H832 C837 0.950 . S
H833 C838 0.949 . S
H834 C840 0.950 . S
H835 C841 0.950 . S
H836 C842 0.949 . S
C837 H832 0.950 . S
C837 C839 1.327 1_556 S
C837 C843 1.429 1_566 S
C838 C830 1.574 1_554 S
C838 H833 0.949 . S
C838 C844 1.368 1_554 S
C839 C823 1.349 1_565 S
C839 H831 0.950 1_554 S
C839 C837 1.327 1_554 S
C840 C828 1.349 . S
C840 H834 0.950 . S
C840 C841 1.327 . S
C841 H835 0.950 . S
C841 C840 1.327 . S
C841 C845 1.429 . S
C842 C825 1.574 . S
C842 H836 0.949 . S
C842 C846 1.368 1_565 S
C843 C824 1.429 . S
C843 C837 1.429 1_544 S
C843 C844 1.523 1_554 S
C844 C825 1.368 1_545 S
C844 C838 1.368 1_556 S
C844 C843 1.523 1_556 S
C845 C829 1.429 1_545 S
C845 C841 1.429 . S
C845 C846 1.523 . S
C846 C830 1.368 . S
C846 C842 1.368 1_545 S
C846 C845 1.523 . S
H847 C822 0.950 . S
H848 C824 0.950 . S
H849 C825 0.949 . S
H850 C827 0.950 . S
H851 C829 0.950 . S
C852 C853 1.349 . S
C852 C854 1.327 . S
C852 H877 0.950 . S
C853 C852 1.349 . S
C853 C869 1.349 . S
C854 C852 1.327 . S
C854 C873 1.429 . S
C854 H878 0.950 . S
C855 C872 1.574 1_554 S
C855 C874 1.368 . S
C855 H879 0.949 . S
H856 C860 0.949 . S
C857 C858 1.349 . S
C857 C859 1.327 . S
C857 H880 0.950 . S
C858 C857 1.349 . S
C858 C870 1.349 . S
C859 C857 1.327 . S
C859 C875 1.429 . S
C859 H881 0.950 . S
C860 H856 0.949 . S
C860 C868 1.574 . S
C860 C876 1.368 . S
H861 C869 0.950 . S
H862 C867 0.950 . S
H863 C868 0.949 . S
H864 C870 0.950 . S
H865 C871 0.950 1_554 S
H866 C872 0.949 . S
C867 H862 0.950 . S
C867 C869 1.327 . S
C867 C873 1.429 . S
C868 C860 1.574 . S
C868 H863 0.949 . S
C868 C874 1.368 . S
C869 C853 1.349 . S
C869 H861 0.950 . S
C869 C867 1.327 . S
C870 C858 1.349 . S
C870 H864 0.950 . S
C870 C871 1.327 . S
C871 H865 0.950 1_556 S
C871 C870 1.327 . S
C871 C875 1.428 . S
C872 C855 1.574 1_556 S
C872 H866 0.949 . S
C872 C876 1.368 1_556 S
C873 C854 1.429 . S
C873 C867 1.429 . S
C873 C874 1.523 . S
C874 C855 1.368 . S
C874 C868 1.368 . S
C874 C873 1.523 . S
C875 C859 1.429 . S
C875 C871 1.428 . S
C875 C876 1.523 1_556 S
C876 C860 1.368 . S
C876 C872 1.368 1_554 S
C876 C875 1.523 1_554 S
H877 C852 0.950 . S
H878 C854 0.950 . S
H879 C855 0.949 . S
H880 C857 0.950 . S
H881 C859 0.950 . S
C882 C883 1.349 . S
C882 C884 1.327 . S
C882 H907 0.950 . S
C883 C882 1.349 . S
C883 C899 1.349 . S
C884 C882 1.327 . S
C884 C903 1.429 . S
C884 H908 0.950 . S
C885 C902 1.574 . S
C885 C904 1.368 . S
C885 H909 0.949 . S
H886 C890 0.949 . S
C887 C888 1.349 . S
C887 C889 1.327 . S
C887 H910 0.950 . S
C888 C887 1.349 . S
C888 C900 1.349 . S
C889 C887 1.327 . S
C889 C905 1.429 . S
C889 H911 0.950 . S
C890 H886 0.949 . S
C890 C898 1.574 . S
C890 C906 1.368 . S
H891 C899 0.950 . S
H892 C897 0.950 . S
H893 C898 0.949 . S
H894 C900 0.950 . S
H895 C901 0.950 . S
H896 C902 0.949 . S
C897 H892 0.950 . S
C897 C899 1.327 . S
C897 C903 1.429 . S
C898 C890 1.574 . S
C898 H893 0.949 . S
C898 C904 1.368 . S
C899 C883 1.349 . S
C899 H891 0.950 . S
C899 C897 1.327 . S
C900 C888 1.349 . S
C900 H894 0.950 . S
C900 C901 1.327 . S
C901 H895 0.950 . S
C901 C900 1.327 . S
C901 C905 1.429 . S
C902 C885 1.574 . S
C902 H896 0.949 . S
C902 C906 1.368 . S
C903 C884 1.429 . S
C903 C897 1.429 . S
C903 C904 1.523 . S
C904 C885 1.368 . S
C904 C898 1.368 . S
C904 C903 1.523 . S
C905 C889 1.429 . S
C905 C901 1.429 . S
C905 C906 1.523 . S
C906 C890 1.368 . S
C906 C902 1.368 . S
C906 C905 1.523 . S
H907 C882 0.950 . S
H908 C884 0.950 . S
H909 C885 0.949 . S
H910 C887 0.950 . S
H911 C889 0.950 . S
C912 C913 1.349 . S
C912 C914 1.327 . S
C912 H937 0.950 . S
C913 C912 1.349 . S
C913 C929 1.349 . S
C914 C912 1.327 . S
C914 C933 1.429 . S
C914 H938 0.950 . S
C915 C932 1.574 . S
C915 C934 1.368 . S
C915 H939 0.949 . S
H916 C920 0.950 1_455 S
C917 C918 1.349 . S
C917 C919 1.321 1_455 S
C917 H940 0.950 1_455 S
C918 C917 1.349 . S
C918 C930 1.349 . S
C919 C917 1.321 1_655 S
C919 C935 1.432 . S
C919 H941 0.950 . S
C920 H916 0.950 1_655 S
C920 C928 1.582 . S
C920 C936 1.362 . S
H921 C929 0.950 . S
H922 C927 0.950 . S
H923 C928 0.949 . S
H924 C930 0.950 . S
H925 C931 0.943 . S
H926 C932 0.949 . S
C927 H922 0.950 . S
C927 C929 1.327 . S
C927 C933 1.429 . S
C928 C920 1.582 . S
C928 H923 0.949 . S
C928 C934 1.368 . S
C929 C913 1.349 . S
C929 H921 0.950 . S
C929 C927 1.327 . S
C930 C918 1.349 . S
C930 H924 0.950 . S
C930 C931 1.338 . S
C931 H925 0.943 . S
C931 C930 1.338 . S
C931 C935 1.430 1_455 S
C932 C915 1.574 . S
C932 H926 0.949 . S
C932 C936 1.368 . S
C933 C914 1.429 . S
C933 C927 1.429 . S
C933 C934 1.523 . S
C934 C915 1.368 . S
C934 C928 1.368 . S
C934 C933 1.523 . S
C935 C919 1.432 . S
C935 C931 1.430 1_655 S
C935 C936 1.526 . S
C936 C920 1.362 . S
C936 C932 1.368 . S
C936 C935 1.526 . S
H937 C912 0.950 . S
H938 C914 0.950 . S
H939 C915 0.949 . S
H940 C917 0.950 1_655 S
H941 C919 0.950 . S
C942 C943 1.349 1_545 S
C942 C944 1.327 . S
C942 H967 0.950 . S
C943 C942 1.349 1_565 S
C943 C959 1.349 . S
C944 C942 1.327 . S
C944 C963 1.429 1_545 S
C944 H968 0.950 . S
C945 C962 1.574 . S
C945 C964 1.368 . S
C945 H969 0.949 . S
H946 C950 0.949 . S
C947 C948 1.349 . S
C947 C949 1.327 . S
C947 H970 0.950 . S
C948 C947 1.349 . S
C948 C960 1.349 1_565 S
C949 C947 1.327 . S
C949 C965 1.429 . S
C949 H971 0.950 . S
C950 H946 0.949 . S
C950 C958 1.574 . S
C950 C966 1.368 1_545 S
H951 C959 0.950 . S
H952 C957 0.950 . S
H953 C958 0.949 . S
H954 C960 0.950 . S
H955 C961 0.950 . S
H956 C962 0.949 . S
C957 H952 0.950 . S
C957 C959 1.327 . S
C957 C963 1.429 . S
C958 C950 1.574 . S
C958 H953 0.949 . S
C958 C964 1.368 1_545 S
C959 C943 1.349 . S
C959 H951 0.950 . S
C959 C957 1.327 . S
C960 C948 1.349 1_545 S
C960 H954 0.950 . S
C960 C961 1.327 . S
C961 H955 0.950 . S
C961 C960 1.327 . S
C961 C965 1.429 1_545 S
C962 C945 1.574 . S
C962 H956 0.949 . S
C962 C966 1.368 . S
C963 C944 1.429 1_565 S
C963 C957 1.429 . S
C963 C964 1.523 . S
C964 C945 1.368 . S
C964 C958 1.368 1_565 S
C964 C963 1.523 . S
C965 C949 1.429 . S
C965 C961 1.429 1_565 S
C965 C966 1.523 . S
C966 C950 1.368 1_565 S
C966 C962 1.368 . S
C966 C965 1.523 . S
H967 C942 0.950 . S
H968 C944 0.950 . S
H969 C945 0.949 . S
H970 C947 0.950 . S
H971 C949 0.950 . S
C972 C973 1.349 . S
C972 C974 1.327 . S
C972 H997 0.950 . S
C973 C972 1.349 . S
C973 C989 1.349 . S
C974 C972 1.327 . S
C974 C993 1.429 . S
C974 H998 0.950 . S
C975 C992 1.574 . S
C975 C994 1.368 . S
C975 H999 0.949 . S
H976 C980 0.949 . S
C977 C978 1.349 . S
C977 C979 1.327 . S
C977 H1000 0.950 . S
C978 C977 1.349 . S
C978 C990 1.349 . S
C979 C977 1.327 . S
C979 C995 1.429 . S
C979 H1001 0.950 . S
C980 H976 0.949 . S
C980 C988 1.574 . S
C980 C996 1.368 . S
H981 C989 0.950 . S
H982 C987 0.950 . S
H983 C988 0.949 . S
H984 C990 0.950 . S
H985 C991 0.950 . S
H986 C992 0.949 . S
C987 H982 0.950 . S
C987 C989 1.327 . S
C987 C993 1.429 . S
C988 C980 1.574 . S
C988 H983 0.949 . S
C988 C994 1.368 . S
C989 C973 1.349 . S
C989 H981 0.950 . S
C989 C987 1.327 . S
C990 C978 1.349 . S
C990 H984 0.950 . S
C990 C991 1.327 . S
C991 H985 0.950 . S
C991 C990 1.327 . S
C991 C995 1.429 . S
C992 C975 1.574 . S
C992 H986 0.949 . S
C992 C996 1.368 . S
C993 C974 1.429 . S
C993 C987 1.429 . S
C993 C994 1.523 . S
C994 C975 1.368 . S
C994 C988 1.368 . S
C994 C993 1.523 . S
C995 C979 1.429 . S
C995 C991 1.429 . S
C995 C996 1.523 . S
C996 C980 1.368 . S
C996 C992 1.368 . S
C996 C995 1.523 . S
H997 C972 0.950 . S
H998 C974 0.950 . S
H999 C975 0.949 . S
H1000 C977 0.950 . S
H1001 C979 0.950 . S
C1002 C1003 1.349 . S
C1002 C1004 1.327 . S
C1002 H1027 0.950 . S
C1003 C1002 1.349 . S
C1003 C1019 1.349 . S
C1004 C1002 1.327 . S
C1004 C1023 1.429 . S
C1004 H1028 0.950 . S
C1005 C1022 1.574 . S
C1005 C1024 1.368 . S
C1005 H1029 0.949 . S
H1006 C1010 0.949 . S
C1007 C1008 1.349 . S
C1007 C1009 1.327 . S
C1007 H1030 0.950 . S
C1008 C1007 1.349 . S
C1008 C1020 1.349 . S
C1009 C1007 1.327 . S
C1009 C1025 1.429 . S
C1009 H1031 0.950 . S
C1010 H1006 0.949 . S
C1010 C1018 1.574 . S
C1010 C1026 1.368 . S
H1011 C1019 0.950 . S
H1012 C1017 0.950 . S
H1013 C1018 0.949 . S
H1014 C1020 0.950 . S
H1015 C1021 0.950 . S
H1016 C1022 0.949 . S
C1017 H1012 0.950 . S
C1017 C1019 1.327 . S
C1017 C1023 1.429 . S
C1018 C1010 1.574 . S
C1018 H1013 0.949 . S
C1018 C1024 1.368 . S
C1019 C1003 1.349 . S
C1019 H1011 0.950 . S
C1019 C1017 1.327 . S
C1020 C1008 1.349 . S
C1020 H1014 0.950 . S
C1020 C1021 1.327 . S
C1021 H1015 0.950 . S
C1021 C1020 1.327 . S
C1021 C1025 1.429 . S
C1022 C1005 1.574 . S
C1022 H1016 0.949 . S
C1022 C1026 1.368 . S
C1023 C1004 1.429 . S
C1023 C1017 1.429 . S
C1023 C1024 1.523 . S
C1024 C1005 1.368 . S
C1024 C1018 1.368 . S
C1024 C1023 1.523 . S
C1025 C1009 1.429 . S
C1025 C1021 1.429 . S
C1025 C1026 1.523 . S
C1026 C1010 1.368 . S
C1026 C1022 1.368 . S
C1026 C1025 1.523 . S
H1027 C1002 0.950 . S
H1028 C1004 0.950 . S
H1029 C1005 0.949 . S
H1030 C1007 0.950 . S
H1031 C1009 0.950 . S
C313 C125 1.894 . S
C318 C154 1.944 1_545 S
C348 C194 2.115 . S
C343 C144 1.997 . S
C378 C258 1.841 . S
C373 C87 1.804 . S
C408 C274 1.471 . S
C403 C106 1.429 . S
C438 C175 1.944 1_565 S
C433 C49 1.904 . S
C463 C68 2.069 . S
C468 C215 2.116 . S
C493 C11 1.857 . S
C498 C249 1.843 . S
C523 C30 1.453 . S
C528 C295 1.469 . S
C558 C169 0.321 . S
C553 C97 0.385 . S
C588 C209 0.674 . S
C583 C116 0.684 . S
C618 C245 0.559 . S
C613 C135 0.579 . S
C643 C78 0.448 . S
C648 C289 0.462 . S
C673 C21 0.383 . S
C678 C178 0.322 . S
C708 C218 0.674 . S
C703 C40 0.684 . S
C738 C256 0.559 . S
C733 C59 0.577 . S
C763 C2 0.445 . S
C768 C298 0.464 . S
C793 C101 1.837 1_556 S
C798 C176 1.979 . S
C823 C120 1.831 . S
C828 C216 1.938 . S
C858 C234 1.470 . S
C853 C139 1.474 . S
C888 C296 2.375 . S
C883 C82 2.197 . S
C913 C25 1.837 . S
C918 C165 1.977 . S
C948 C205 1.938 . S
C943 C44 1.831 . S
C978 C255 1.471 . S
C973 C63 1.478 . S
C1003 C6 2.200 . S
C1008 C285 2.377 . S
