# Generated by pormake.
# Topology anh, (6,3)-cn, num edge types: 1
# Building blocks:
#     Node 0, Type 0, BuildingBlock: PAMTOO_clean_sbu_0, # of connection points: 6
#     Node 1, Type 0, BuildingBlock: PAMTOO_clean_sbu_0, # of connection points: 6
#     Node 2, Type 0, BuildingBlock: PAMTOO_clean_sbu_0, # of connection points: 6
#     Node 3, Type 1, BuildingBlock: KAKCAD_clean_linker_0, # of connection points: 3
#     Node 4, Type 1, BuildingBlock: KAKCAD_clean_linker_0, # of connection points: 3
#     Node 5, Type 1, BuildingBlock: KAKCAD_clean_linker_0, # of connection points: 3
#     Node 6, Type 1, BuildingBlock: KAKCAD_clean_linker_0, # of connection points: 3
#     Node 7, Type 1, BuildingBlock: KAKCAD_clean_linker_0, # of connection points: 3
#     Node 8, Type 1, BuildingBlock: KAKCAD_clean_linker_0, # of connection points: 3
#     Edge 9, Type (0, 1), BuildingBlock: CIFDUS_clean_linker_0, # of connection points: 2
#     Edge 10, Type (0, 1), BuildingBlock: CIFDUS_clean_linker_0, # of connection points: 2
#     Edge 11, Type (0, 1), BuildingBlock: CIFDUS_clean_linker_0, # of connection points: 2
#     Edge 12, Type (0, 1), BuildingBlock: CIFDUS_clean_linker_0, # of connection points: 2
#     Edge 13, Type (0, 1), BuildingBlock: CIFDUS_clean_linker_0, # of connection points: 2
#     Edge 14, Type (0, 1), BuildingBlock: CIFDUS_clean_linker_0, # of connection points: 2
#     Edge 15, Type (0, 1), BuildingBlock: CIFDUS_clean_linker_0, # of connection points: 2
#     Edge 16, Type (0, 1), BuildingBlock: CIFDUS_clean_linker_0, # of connection points: 2
#     Edge 17, Type (0, 1), BuildingBlock: CIFDUS_clean_linker_0, # of connection points: 2
#     Edge 18, Type (0, 1), BuildingBlock: CIFDUS_clean_linker_0, # of connection points: 2
#     Edge 19, Type (0, 1), BuildingBlock: CIFDUS_clean_linker_0, # of connection points: 2
#     Edge 20, Type (0, 1), BuildingBlock: CIFDUS_clean_linker_0, # of connection points: 2
#     Edge 21, Type (0, 1), BuildingBlock: CIFDUS_clean_linker_0, # of connection points: 2
#     Edge 22, Type (0, 1), BuildingBlock: CIFDUS_clean_linker_0, # of connection points: 2
#     Edge 23, Type (0, 1), BuildingBlock: CIFDUS_clean_linker_0, # of connection points: 2
#     Edge 24, Type (0, 1), BuildingBlock: CIFDUS_clean_linker_0, # of connection points: 2
#     Edge 25, Type (0, 1), BuildingBlock: CIFDUS_clean_linker_0, # of connection points: 2
#     Edge 26, Type (0, 1), BuildingBlock: CIFDUS_clean_linker_0, # of connection points: 2
# Relax obj value: 0.191
# Max RMSD: 0.200
# Mean RMSD: 0.159
data_MOF--net-anh--node1-PAMTOO_clean_sbu_0--node2-KAKCAD_clean_linker_0--edge1-CIFDUS_clean_linker_0
_symmetry_space_group_name_H-M    P1
_symmetry_Int_Tables_number       1
_symmetry_cell_setting            triclinic
loop_
_symmetry_equiv_pos_as_xyz
'x, y, z'
_cell_length_a     32.499457
_cell_length_b     31.669762
_cell_length_c     60.441617
_cell_angle_alpha  89.48735
_cell_angle_beta   95.644743
_cell_angle_gamma 103.33914
loop_
_atom_site_label
_atom_site_type_symbol
_atom_site_fract_x
_atom_site_fract_y
_atom_site_fract_z
_atom_type_partial_charge
Dy0 Dy 0.09255 0.59784 0.15274 0.0
Dy1 Dy 1.06257 0.49358 0.13955 0.0
C2 C 0.07595 0.56624 0.10298 0.0
O3 O 1.02183 0.5819 0.15655 0.0
O4 O 1.00184 0.51586 0.13802 0.0
O5 O 0.11593 0.66346 0.14233 0.0
O6 O 0.10432 0.65083 0.17671 0.0
O7 O 1.05321 0.50104 0.17529 0.0
O8 O 0.10738 0.56049 0.18265 0.0
O9 O 0.13348 0.50583 0.14685 0.0
O10 O 0.15273 0.58013 0.14405 0.0
O11 O 1.06479 0.42732 0.14695 0.0
O12 O 1.02566 0.4415 0.118 0.0
C13 C 0.99222 0.54887 0.14774 0.0
O14 O 1.06561 0.59142 0.11746 0.0
O15 O 0.08351 0.52849 0.10875 0.0
C16 C 0.16321 0.70678 0.16949 0.0
C17 C 0.24425 0.7609 0.18158 0.0
C18 C 0.24011 0.72121 0.17031 0.0
C19 C 0.20001 0.69437 0.16441 0.0
C20 C 0.16705 0.74601 0.18089 0.0
C21 C 0.20721 0.77282 0.18694 0.0
C22 C 0.12088 0.67943 0.16248 0.0
C23 C 0.08098 0.52626 0.18948 0.0
C24 C 0.16271 0.54202 0.14529 0.0
C25 C 0.99821 0.37983 0.13853 0.0
C26 C 0.92846 0.31932 0.15326 0.0
C27 C 0.93932 0.36235 0.16141 0.0
C28 C 0.97384 0.39227 0.15412 0.0
C29 C 0.98752 0.33715 0.1302 0.0
C30 C 0.95293 0.30708 0.13752 0.0
C31 C 1.03484 0.41146 0.13123 0.0
H32 H 0.26779 0.71117 0.16567 0.0
H33 H 0.19772 0.66417 0.15561 0.0
H34 H 0.13899 0.756 0.18503 0.0
H35 H 0.20922 0.80275 0.19594 0.0
H36 H 0.92167 0.37275 0.17379 0.0
H37 H 0.98181 0.4251 0.1608 0.0
H38 H 1.00596 0.32706 0.11812 0.0
H39 H 0.94516 0.27435 0.13074 0.0
Dy40 Dy 0.55559 0.01973 0.51672 0.0
Dy41 Dy 0.65842 0.05154 0.53032 0.0
C42 C 0.59471 0.01466 0.56659 0.0
O43 O 0.56759 0.08807 0.52957 0.0
O44 O 0.63567 0.11109 0.52044 0.0
O45 O 0.49076 0.0094 0.52519 0.0
O46 O 0.50367 0.99718 0.49159 0.0
O47 O 0.64888 0.03835 0.49376 0.0
O48 O 0.58361 0.05364 0.48727 0.0
O49 O 0.64425 0.97963 0.53461 0.0
O50 O 0.5818 0.96121 0.51164 0.0
O51 O 0.72325 0.05072 0.52525 0.0
O52 O 0.71041 0.09148 0.55105 0.0
C53 C 0.60011 0.11958 0.52563 0.0
O54 O 0.56684 0.99452 0.55075 0.0
O55 O 0.62786 0.04488 0.56216 0.0
C56 C 0.4433 0.9516 0.50492 0.0
C57 C 0.38012 0.87349 0.50059 0.0
C58 C 0.37106 0.91157 0.50868 0.0
C59 C 0.40234 0.95029 0.51072 0.0
C60 C 0.45305 0.91333 0.49775 0.0
C61 C 0.42173 0.87475 0.49547 0.0
C62 C 0.47492 0.99327 0.50557 0.0
C63 C 0.61898 0.04867 0.48011 0.0
C64 C 0.61445 0.95056 0.52313 0.0
C65 C 0.7695 0.12003 0.53091 0.0
C66 C 0.82519 0.19025 0.51228 0.0
C67 C 0.83063 0.14764 0.51041 0.0
C68 C 0.80318 0.11296 0.51971 0.0
C69 C 0.7643 0.16263 0.53306 0.0
C70 C 0.79193 0.19733 0.52393 0.0
C71 C 0.73908 0.08266 0.53933 0.0
H72 H 0.33965 0.91165 0.51319 0.0
H73 H 0.39433 0.97943 0.51647 0.0
H74 H 0.48458 0.91342 0.49334 0.0
H75 H 0.42988 0.84636 0.48893 0.0
H76 H 0.8555 0.14085 0.50129 0.0
H77 H 0.80776 0.08043 0.51777 0.0
H78 H 0.73861 0.16927 0.54157 0.0
H79 H 0.78719 0.22974 0.52603 0.0
Dy80 Dy 0.61537 0.45955 0.84237 0.0
Dy81 Dy 0.51166 0.43459 0.83528 0.0
C82 C 0.56579 0.45203 0.79449 0.0
O83 O 0.59736 0.52066 0.83105 0.0
O84 O 0.53006 0.50649 0.84216 0.0
O85 O 0.6747 0.4926 0.86014 0.0
O86 O 0.67487 0.45296 0.83125 0.0
O87 O 0.5292 0.42377 0.87121 0.0
O88 O 0.59277 0.4736 0.87462 0.0
O89 O 0.5327 0.37253 0.83144 0.0
O90 O 0.5963 0.3909 0.85307 0.0
O91 O 0.45072 0.42781 0.84779 0.0
O92 O 0.45405 0.41048 0.81357 0.0
C93 C 0.56402 0.53396 0.83619 0.0
O94 O 0.59543 0.43876 0.80697 0.0
O95 O 0.5341 0.4621 0.80332 0.0
C96 C 0.72765 0.51747 0.8364 0.0
C97 C 0.78654 0.58968 0.82213 0.0
C98 C 0.74293 0.58881 0.81977 0.0
C99 C 0.71367 0.5528 0.82672 0.0
C100 C 0.77085 0.51742 0.83797 0.0
C101 C 0.80011 0.55321 0.83082 0.0
C102 C 0.69749 0.48153 0.84561 0.0
C103 C 0.5599 0.45005 0.88346 0.0
C104 C 0.56488 0.36145 0.84311 0.0
C105 C 0.40132 0.4465 0.8212 0.0
C106 C 0.34655 0.50354 0.81425 0.0
C107 C 0.39092 0.51962 0.81701 0.0
C108 C 0.41795 0.49132 0.82023 0.0
C109 C 0.35746 0.42989 0.81718 0.0
C110 C 0.33024 0.45818 0.8135 0.0
C111 C 0.42979 0.41812 0.82828 0.0
H112 H 0.73163 0.6164 0.81309 0.0
H113 H 0.68027 0.55302 0.82513 0.0
H114 H 0.78208 0.49031 0.84532 0.0
H115 H 0.83359 0.55323 0.83317 0.0
H116 H 0.40495 0.55413 0.81799 0.0
H117 H 0.45185 0.50452 0.82304 0.0
H118 H 0.34419 0.39525 0.81764 0.0
H119 H 0.29636 0.44452 0.81084 0.0
C120 C 0.61306 0.11629 0.33596 0.0
C121 C 0.61139 0.07866 0.34867 0.0
C122 C 0.61233 0.11424 0.3128 0.0
C123 C 0.60914 0.07438 0.30198 0.0
C124 C 0.60796 0.0369 0.31472 0.0
C125 C 0.60937 0.03907 0.33785 0.0
C126 C 0.60515 0.07132 0.27739 0.0
C127 C 0.63387 0.09945 0.26503 0.0
C128 C 0.63015 0.09617 0.24168 0.0
C129 C 0.59686 0.06445 0.23077 0.0
C130 C 0.56742 0.03638 0.24297 0.0
C131 C 0.57207 0.04013 0.26628 0.0
C132 C 0.53079 1.00412 0.23166 0.0
C133 C 0.50782 0.01495 0.21235 0.0
C134 C 0.51674 0.96313 0.24102 0.0
C135 C 0.47957 0.93459 0.23201 0.0
C136 C 0.45566 0.94597 0.21317 0.0
C137 C 0.66123 0.12592 0.22885 0.0
C138 C 0.67412 0.17029 0.23449 0.0
C139 C 0.67903 0.11012 0.21127 0.0
C140 C 0.7096 0.13798 0.19987 0.0
C141 C 0.7228 0.18229 0.20569 0.0
C142 C 0.70447 0.19813 0.22304 0.0
C143 C 0.47078 0.98616 0.20317 0.0
H144 H 0.61482 0.14724 0.34394 0.0
H145 H 0.61305 0.14353 0.30331 0.0
H146 H 0.6057 1.00583 0.30675 0.0
H147 H 0.6077 0.00952 0.34724 0.0
H148 H 0.65976 0.12319 0.27367 0.0
H149 H 0.54904 0.01961 0.2759 0.0
H150 H 0.5937 0.06186 0.21279 0.0
H151 H 0.51754 0.04631 0.20475 0.0
H152 H 0.53404 0.95334 0.25567 0.0
H153 H 0.46888 0.90421 0.24034 0.0
H154 H 0.66071 0.18356 0.2478 0.0
H155 H 0.66999 0.07604 0.20663 0.0
H156 H 0.45366 0.99574 0.18842 0.0
H157 H 0.71422 0.23198 0.2281 0.0
H158 H 0.72284 0.12485 0.18645 0.0
C159 C 0.54166 0.52525 0.65128 0.0
C160 C 0.57378 0.51492 0.66628 0.0
C161 C 0.54727 0.53084 0.62871 0.0
C162 C 0.58477 0.52553 0.62059 0.0
C163 C 0.61706 0.51572 0.63548 0.0
C164 C 0.61182 0.51089 0.65809 0.0
C165 C 0.58972 0.52866 0.59652 0.0
C166 C 0.58342 0.56514 0.58458 0.0
C167 C 0.58851 0.56837 0.56173 0.0
C168 C 0.59877 0.53363 0.55067 0.0
C169 C 0.60458 0.49656 0.56253 0.0
C170 C 0.60057 0.49478 0.58544 0.0
C171 C 0.61333 0.4583 0.55153 0.0
C172 C 0.58325 0.43391 0.53547 0.0
C173 C 0.64856 0.44209 0.55969 0.0
C174 C 0.65277 0.40148 0.55267 0.0
C175 C 0.62149 0.37582 0.53756 0.0
C176 C 0.58445 0.60906 0.55014 0.0
C177 C 0.54954 0.62706 0.55285 0.0
C178 C 0.61751 0.63268 0.53852 0.0
C179 C 0.61665 0.67442 0.5308 0.0
C180 C 0.5824 0.69308 0.53426 0.0
C181 C 0.54841 0.66843 0.54491 0.0
C182 C 0.58713 0.39289 0.52866 0.0
H183 H 0.51171 0.528 0.65683 0.0
H184 H 0.52178 0.53806 0.61746 0.0
H185 H 0.64648 0.51195 0.62962 0.0
H186 H 0.63774 0.5041 0.66914 0.0
H187 H 0.57588 0.59174 0.59331 0.0
H188 H 0.60462 0.46615 0.5946 0.0
H189 H 0.6022 0.53543 0.53301 0.0
H190 H 0.55553 0.44548 0.52916 0.0
H191 H 0.67197 0.46014 0.57223 0.0
H192 H 0.67942 0.38922 0.55999 0.0
H193 H 0.5236 0.60957 0.56174 0.0
H194 H 0.64496 0.61975 0.53636 0.0
H195 H 0.56271 0.37403 0.51686 0.0
H196 H 0.52172 0.68189 0.54801 0.0
H197 H 0.64314 0.69244 0.52249 0.0
C198 C 0.15562 0.72262 0.98495 0.0
C199 C 0.11695 0.69813 0.99142 0.0
C200 C 0.1577 0.73967 0.96352 0.0
C201 C 0.12087 0.73344 0.94855 0.0
C202 C 0.0821 0.70977 0.95527 0.0
C203 C 0.08023 0.69198 0.97644 0.0
C204 C 0.12277 0.74753 0.9252 0.0
C205 C 0.1483 0.73114 0.91172 0.0
C206 C 0.14211 0.73397 0.88853 0.0
C207 C 0.11108 0.75462 0.8789 0.0
C208 C 0.08577 0.77233 0.89216 0.0
C209 C 0.09303 0.76974 0.91545 0.0
C210 C 1.04686 0.7849 0.88161 0.0
C211 C 1.04497 0.80001 0.85959 0.0
C212 C 1.00896 0.77447 0.89203 0.0
C213 C 0.97003 0.774 0.88004 0.0
C214 C 0.96785 0.78292 0.85723 0.0
C215 C 0.16236 0.70834 0.87447 0.0
C216 C 0.20652 0.71267 0.87699 0.0
C217 C 0.13683 0.67632 0.85992 0.0
C218 C 0.15494 0.64775 0.84886 0.0
C219 C 0.19893 0.65125 0.85188 0.0
C220 C 0.22476 0.68458 0.86557 0.0
C221 C 1.00572 0.79829 0.84738 0.0
H222 H 0.18432 0.72772 -0.00369 0.0
H223 H 0.18798 0.75743 0.95858 0.0
H224 H 1.0534 0.70387 0.94388 0.0
H225 H 1.05004 0.67345 0.98115 0.0
H226 H 0.16998 0.71234 0.91911 0.0
H227 H 1.07368 0.78238 0.92612 0.0
H228 H 0.10477 0.75378 0.86096 0.0
H229 H 1.07352 0.80994 0.8512 0.0
H230 H 1.00834 0.76233 0.9088 0.0
H231 H 0.94135 0.76164 0.88806 0.0
H232 H 0.22671 0.73703 0.88821 0.0
H233 H 0.10261 0.67201 0.85794 0.0
H234 H 1.00483 0.80567 0.82982 0.0
H235 H 0.25875 0.68747 0.8683 0.0
H236 H 0.13451 0.62214 0.83844 0.0
C237 C 0.07551 0.50099 0.33203 0.0
C238 C 0.11373 0.51219 0.322 0.0
C239 C 0.07606 0.4971 0.35513 0.0
C240 C 0.11484 0.5044 0.36865 0.0
C241 C 0.15298 0.51422 0.35854 0.0
C242 C 0.15243 0.51804 0.3355 0.0
C243 C 0.11565 0.50387 0.39327 0.0
C244 C 0.08758 0.47144 0.40394 0.0
C245 C 0.08779 0.47158 0.42725 0.0
C246 C 0.11626 0.50509 0.4398 0.0
C247 C 0.14487 0.53726 0.42938 0.0
C248 C 0.14437 0.53644 0.40617 0.0
C249 C 0.17545 0.57196 0.44262 0.0
C250 C 0.16155 0.59669 0.45827 0.0
C251 C 0.21865 0.58146 0.43906 0.0
C252 C 0.24736 0.61555 0.45066 0.0
C253 C 0.23333 0.64116 0.46583 0.0
C254 C 1.05904 0.43631 0.43851 0.0
C255 C 1.01714 0.41916 0.42924 0.0
C256 C 1.07352 0.41912 0.45854 0.0
C257 C 1.04682 0.38566 0.46903 0.0
C258 C 1.00504 0.36823 0.45967 0.0
C259 C 0.99051 0.38545 0.43965 0.0
C260 C 0.19021 0.63127 0.46965 0.0
H261 H 1.04517 0.49669 0.32212 0.0
H262 H 1.04615 0.48989 0.36245 0.0
H263 H 0.18336 0.51923 0.36849 0.0
H264 H 0.18241 0.52585 0.32824 0.0
H265 H 1.06637 0.44544 0.39408 0.0
H266 H 0.16571 0.56204 0.39811 0.0
H267 H 0.11648 0.50605 0.45773 0.0
H268 H 0.12834 0.59007 0.46122 0.0
H269 H 0.23015 0.56266 0.42717 0.0
H270 H 0.28035 0.62275 0.44723 0.0
H271 H 1.00477 0.43193 0.41396 0.0
H272 H 0.10576 0.4311 0.46602 0.0
H273 H 0.17866 0.65049 0.48131 0.0
H274 H 0.9587 0.37251 0.43182 0.0
H275 H 1.05892 0.37361 0.48457 0.0
C276 C 0.54972 0.95357 0.70325 0.0
C277 C 0.5883 0.98016 0.69764 0.0
C278 C 0.54341 0.94368 0.72543 0.0
C279 C 0.57519 0.96079 0.74247 0.0
C280 C 0.61396 0.98659 0.73701 0.0
C281 C 0.62065 0.99576 0.71484 0.0
C282 C 0.56686 0.95454 0.76599 0.0
C283 C 0.55569 0.91291 0.77482 0.0
C284 C 0.54781 0.90731 0.79726 0.0
C285 C 0.54973 0.94411 0.81068 0.0
C286 C 0.56022 0.98606 0.80175 0.0
C287 C 0.56934 0.99079 0.77952 0.0
C288 C 0.5596 0.02561 0.81458 0.0
C289 C 0.52248 0.02965 0.82362 0.0
C290 C 0.59364 0.06216 0.81449 0.0
C291 C 0.58965 0.10259 0.82182 0.0
C292 C 0.55139 0.10751 0.82934 0.0
C293 C 0.53924 0.86283 0.80644 0.0
C294 C 0.50851 0.82922 0.79528 0.0
C295 C 0.56479 0.8527 0.82492 0.0
C296 C 0.56114 0.80948 0.83138 0.0
C297 C 0.53138 0.77568 0.81971 0.0
C298 C 0.50439 0.78616 0.80195 0.0
C299 C 0.51834 0.07029 0.83085 0.0
H300 H 0.52375 0.94148 0.69061 0.0
H301 H 0.51308 0.92408 0.72935 0.0
H302 H 0.63898 0.99991 0.74996 0.0
H303 H 0.65115 0.01539 0.71123 0.0
H304 H 0.55439 0.88491 0.76435 0.0
H305 H 0.57684 0.0229 0.7724 0.0
H306 H 0.543 0.94013 0.82788 0.0
H307 H 0.49566 1.00205 0.82372 0.0
H308 H 0.62261 0.0599 0.80759 0.0
H309 H 0.61565 0.13048 0.82025 0.0
H310 H 0.48844 0.83618 0.78097 0.0
H311 H 0.58895 0.87796 0.83369 0.0
H312 H 0.48867 0.07287 0.83684 0.0
H313 H 0.48136 0.76084 0.79255 0.0
H314 H 0.58218 0.80236 0.84522 0.0
C315 C 0.57662 0.48612 0.02613 0.0
C316 C 0.56319 0.51531 0.01102 0.0
C317 C 0.57775 0.49298 0.04901 0.0
C318 C 0.5647 0.52868 0.05718 0.0
C319 C 0.54996 0.5571 0.04208 0.0
C320 C 0.54962 0.55072 0.01918 0.0
C321 C 0.56831 0.53719 0.08142 0.0
C322 C 0.60727 0.54029 0.09405 0.0
C323 C 0.61207 0.54819 0.11711 0.0
C324 C 0.57607 0.55317 0.12764 0.0
C325 C 0.53582 0.5488 0.115 0.0
C326 C 0.53304 0.54174 0.09187 0.0
C327 C 0.49527 0.54957 0.12491 0.0
C328 C 0.45867 0.51648 0.11905 0.0
C329 C 0.49057 0.58549 0.13711 0.0
C330 C 0.45 0.58912 0.14224 0.0
C331 C 0.41299 0.55685 0.13538 0.0
C332 C 0.6553 0.54976 0.12899 0.0
C333 C 0.67581 0.51635 0.12499 0.0
C334 C 0.67949 0.58726 0.14036 0.0
C335 C 0.72352 0.59209 0.14635 0.0
C336 C 0.74467 0.55963 0.14104 0.0
C337 C 0.71953 0.52123 0.13075 0.0
C338 C 0.4184 0.52004 0.12413 0.0
H339 H 0.58747 0.45875 0.02024 0.0
H340 H 0.5891 0.47057 0.06037 0.0
H341 H 0.5399 0.58492 0.04801 0.0
H342 H 0.53899 0.57356 0.00782 0.0
H343 H 0.63448 0.5371 0.0857 0.0
H344 H 0.50288 0.53898 0.0819 0.0
H345 H 0.57893 0.55859 0.14545 0.0
H346 H 0.46097 0.48834 0.1096 0.0
H347 H 0.5179 0.61174 0.14173 0.0
H348 H 0.44761 0.61771 0.15125 0.0
H349 H 0.65831 0.48709 0.11613 0.0
H350 H 0.66495 0.61385 0.14349 0.0
H351 H 0.39123 0.4946 0.11823 0.0
H352 H 0.73378 0.49548 0.12591 0.0
H353 H 0.74111 0.62187 0.15465 0.0
H354 H 0.23451 0.60761 0.14065 0.0
H355 H 0.19427 0.46911 0.14902 0.0
H356 H 0.26691 0.46193 0.14778 0.0
H357 H 0.34209 0.49394 0.14379 0.0
H358 H 0.38317 0.63192 0.13424 0.0
H359 H 0.31093 0.64006 0.1371 0.0
C360 C 0.24155 0.57584 0.14226 0.0
C361 C 0.20823 0.53899 0.14486 0.0
C362 C 0.284 0.57169 0.14149 0.0
C363 C 0.21862 0.4982 0.14693 0.0
C364 C 0.26045 0.49396 0.14625 0.0
C365 C 0.33548 0.52589 0.14215 0.0
C366 C 0.36883 0.56216 0.13871 0.0
C367 C 0.29342 0.53035 0.1434 0.0
C368 C 0.35892 0.60326 0.1372 0.0
C369 C 0.31724 0.60797 0.13861 0.0
H370 H 0.91065 0.20365 0.50989 0.0
H371 H 0.80343 0.25973 0.49087 0.0
H372 H 0.84963 0.32007 0.47362 0.0
H373 H 0.92027 0.35669 0.46362 0.0
H374 H 1.02656 0.29811 0.48049 0.0
H375 H 0.98082 0.23902 0.49882 0.0
C376 C 0.89722 0.22877 0.50176 0.0
C377 C 0.85356 0.22705 0.50178 0.0
C378 C 0.92382 0.26305 0.4915 0.0
C379 C 0.837 0.26046 0.49149 0.0
C380 C 0.86335 0.29487 0.48144 0.0
C381 C 0.93339 0.33077 0.47107 0.0
C382 C 0.9769 0.33205 0.47068 0.0
C383 C 0.90677 0.29644 0.4813 0.0
C384 C 0.99339 0.29846 0.48082 0.0
C385 C 0.96718 0.26443 0.49119 0.0
H386 H 0.49697 0.57311 0.83534 0.0
H387 H 0.63306 0.60102 0.83369 0.0
H388 H 0.63513 0.67807 0.82985 0.0
H389 H 0.59823 0.73755 0.8254 0.0
H390 H 0.46195 0.70994 0.82509 0.0
H391 H 0.45994 0.63293 0.83115 0.0
C392 C 0.52708 0.59599 0.83418 0.0
C393 C 0.56474 0.581 0.83465 0.0
C394 C 0.528 0.64044 0.83158 0.0
C395 C 0.60348 0.61137 0.83317 0.0
C396 C 0.60475 0.65558 0.83102 0.0
C397 C 0.56817 0.71475 0.82699 0.0
C398 C 0.53033 0.72946 0.82495 0.0
C399 C 0.56721 0.67047 0.83002 0.0
C400 C 0.4915 0.69938 0.82657 0.0
C401 C 0.49036 0.65537 0.83005 0.0
H402 H 0.94826 0.61483 0.14628 0.0
H403 H 0.93125 0.47623 0.15262 0.0
H404 H 0.855 0.46776 0.15296 0.0
H405 H 0.79229 0.49844 0.15007 0.0
H406 H 0.80675 0.63611 0.14027 0.0
H407 H 0.88383 0.64599 0.14336 0.0
C408 C 0.92786 0.58288 0.14794 0.0
C409 C 0.9459 0.54622 0.14938 0.0
C410 C 0.88314 0.5779 0.14756 0.0
C411 C 0.91861 0.50505 0.15131 0.0
C412 C 0.87476 0.5001 0.15154 0.0
C413 C 0.81192 0.53072 0.14834 0.0
C414 C 0.79264 0.5663 0.14477 0.0
C415 C 0.8565 0.53613 0.14935 0.0
C416 C 0.81978 0.60786 0.14333 0.0
C417 C 0.86426 0.61359 0.14486 0.0
H418 H 0.3859 0.78926 0.50641 0.0
H419 H 0.29717 0.86729 0.48443 0.0
H420 H 0.2427 0.80194 0.47404 0.0
H421 H 0.22207 0.72303 0.46793 0.0
H422 H 0.31215 0.64531 0.48719 0.0
H423 H 0.36451 0.71015 0.50149 0.0
C424 C 0.35472 0.79207 0.49928 0.0
C425 C 0.34592 0.83335 0.49616 0.0
C426 C 0.32384 0.75436 0.49263 0.0
C427 C 0.30489 0.8361 0.48735 0.0
C428 C 0.27372 0.79869 0.48117 0.0
C429 C 0.25292 0.72028 0.47562 0.0
C430 C 0.26334 0.67959 0.47652 0.0
C431 C 0.28308 0.75774 0.48334 0.0
C432 C 0.30361 0.67643 0.4862 0.0
C433 C 0.33348 0.71343 0.49438 0.0
H434 H 0.50389 0.29022 0.82785 0.0
H435 H 0.63073 0.32815 0.86135 0.0
H436 H 0.63651 0.2528 0.86157 0.0
H437 H 0.60727 0.17648 0.85052 0.0
H438 H 0.48101 0.13852 0.81651 0.0
H439 H 0.47306 0.21309 0.81873 0.0
C440 C 0.53273 0.28203 0.8353 0.0
C441 C 0.56692 0.31507 0.84438 0.0
C442 C 0.53596 0.23844 0.83539 0.0
C443 C 0.60389 0.3036 0.85415 0.0
C444 C 0.6073 0.26042 0.85428 0.0
C445 C 0.57794 0.18448 0.84367 0.0
C446 C 0.54488 0.15182 0.83331 0.0
C447 C 0.57379 0.22764 0.84468 0.0
C448 C 0.50683 0.16275 0.82483 0.0
C449 C 0.50239 0.20556 0.82589 0.0
H450 H 0.55161 0.87912 0.51025 0.0
H451 H 0.6818 0.91734 0.53916 0.0
H452 H 0.68418 0.8413 0.54372 0.0
H453 H 0.64823 0.7639 0.54152 0.0
H454 H 0.51752 0.72548 0.51371 0.0
H455 H 0.51646 0.80144 0.50673 0.0
C456 C 0.58067 0.87087 0.51734 0.0
C457 C 0.61646 0.90412 0.52437 0.0
C458 C 0.58168 0.82691 0.52024 0.0
C459 C 0.65369 0.8926 0.53367 0.0
C460 C 0.65512 0.84903 0.53629 0.0
C461 C 0.61974 0.77208 0.53358 0.0
C462 C 0.58303 0.73895 0.52814 0.0
C463 C 0.61917 0.81591 0.5299 0.0
C464 C 0.54613 0.7503 0.51822 0.0
C465 C 0.54552 0.79375 0.51419 0.0
H466 H 0.78761 0.67071 0.83636 0.0
H467 H 0.85745 0.59881 0.80008 0.0
H468 H 0.91864 0.66076 0.80272 0.0
H469 H 0.95645 0.72726 0.82275 0.0
H470 H 0.88876 0.79581 0.86222 0.0
H471 H 0.82194 0.74424 0.85019 0.0
C472 C 0.81567 0.6692 0.82833 0.0
C473 C 0.81843 0.63009 0.81839 0.0
C474 C 0.85117 0.70433 0.83065 0.0
C475 C 0.85501 0.6284 0.80817 0.0
C476 C 0.88994 0.66378 0.80969 0.0
C477 C 0.92677 0.7321 0.82788 0.0
C478 C 0.92743 0.76489 0.84352 0.0
C479 C 0.88913 0.7009 0.82197 0.0
C480 C 0.88889 0.77059 0.85025 0.0
C481 C 0.85084 0.74081 0.84359 0.0
H482 H 0.26708 0.84928 0.17983 0.0
H483 H 0.31788 0.73736 0.19683 0.0
H484 H 0.38804 0.78439 0.20654 0.0
H485 H 0.43468 0.85723 0.21103 0.0
H486 H 0.3826 0.96935 0.19665 0.0
H487 H 0.31351 0.92221 0.18488 0.0
C488 C 0.29335 0.83513 0.18589 0.0
C489 C 0.28701 0.78975 0.1876 0.0
C490 C 0.33356 0.86239 0.19179 0.0
C491 C 0.32179 0.77208 0.19505 0.0
C492 C 0.36195 0.79898 0.20074 0.0
C493 C 0.4082 0.87148 0.2055 0.0
C494 C 0.41412 0.91695 0.20478 0.0
C495 C 0.36815 0.84419 0.19928 0.0
C496 C 0.37943 0.93458 0.19707 0.0
C497 C 0.33968 0.90761 0.19053 0.0
H498 H 0.66245 0.19304 0.52201 0.0
H499 H 0.52984 0.14966 0.53247 0.0
H500 H 0.52423 0.22484 0.53567 0.0
H501 H 0.5575 0.30303 0.53698 0.0
H502 H 0.6903 0.34643 0.52735 0.0
H503 H 0.69523 0.27125 0.52231 0.0
C504 C 0.63223 0.19994 0.52489 0.0
C505 C 0.59665 0.1655 0.52703 0.0
C506 C 0.62924 0.24337 0.52688 0.0
C507 C 0.55783 0.17532 0.53081 0.0
C508 C 0.55454 0.2184 0.53262 0.0
C509 C 0.58734 0.29608 0.53341 0.0
C510 C 0.62345 0.33038 0.53249 0.0
C511 C 0.59008 0.2527 0.53083 0.0
C512 C 0.66209 0.32067 0.52827 0.0
C513 C 0.66492 0.27767 0.52537 0.0
H514 H 0.27192 0.49036 0.83307 0.0
H515 H 0.35682 0.58595 0.79723 0.0
H516 H 0.31754 0.64018 0.80503 0.0
H517 H 0.26295 0.66205 0.82514 0.0
H518 H 0.17606 0.56496 0.8588 0.0
H519 H 0.21163 0.50926 0.84814 0.0
C520 C 0.28125 0.52255 0.82628 0.0
C521 C 0.31794 0.53401 0.81492 0.0
C522 C 0.25826 0.55345 0.83056 0.0
C523 C 0.32949 0.57635 0.80658 0.0
C524 C 0.30693 0.60743 0.81095 0.0
C525 C 0.25163 0.62854 0.82983 0.0
C526 C 0.21734 0.61744 0.84283 0.0
C527 C 0.27203 0.59665 0.8235 0.0
C528 C 0.20243 0.57402 0.84872 0.0
C529 C 0.22284 0.54228 0.84272 0.0
H530 H 0.85103 0.332 0.16117 0.0
H531 H 0.92478 0.23453 0.16418 0.0
H532 H 0.86692 0.18293 0.17952 0.0
H533 H 0.79685 0.16666 0.19395 0.0
H534 H 0.72375 0.26465 0.19151 0.0
H535 H 0.78021 0.31507 0.17451 0.0
C536 C 0.85456 0.29953 0.16528 0.0
C537 C 0.89233 0.2873 0.16158 0.0
C538 C 0.82138 0.27018 0.17437 0.0
C539 C 0.89595 0.24476 0.16661 0.0
C540 C 0.86296 0.21529 0.17554 0.0
C541 C 0.79302 0.19885 0.18942 0.0
C542 C 0.75617 0.21189 0.19411 0.0
C543 C 0.82569 0.22776 0.17968 0.0
C544 C 0.75201 0.25396 0.18838 0.0
C545 C 0.78421 0.28276 0.17857 0.0
H546 H 0.10604 0.64925 0.09211 0.0
H547 H 1.0613 0.5206 0.06358 0.0
H548 H 1.0704 0.5502 0.02621 0.0
H549 H 0.08947 0.61346 0.00175 0.0
H550 H 0.13862 0.74096 0.03101 0.0
H551 H 0.12971 0.71108 0.06819 0.0
C552 C 0.09815 0.6277 0.07768 0.0
C553 C 0.08236 0.58297 0.08044 0.0
C554 C 0.10443 0.64479 0.0565 0.0
C555 C 1.07327 0.5552 0.06175 0.0
C556 C 0.07844 0.57212 0.04045 0.0
C557 C 0.09835 0.63449 0.01635 0.0
C558 C 0.11441 0.67929 0.01382 0.0
C559 C 0.09374 0.61692 0.03764 0.0
C560 C 0.12633 0.70638 0.0327 0.0
C561 C 0.12106 0.68934 0.05388 0.0
H562 H 0.57523 0.08839 0.44896 0.0
H563 H 0.67598 0.0198 0.45754 0.0
H564 H 0.68336 0.02413 0.41774 0.0
H565 H 0.65947 0.04505 0.38023 0.0
H566 H 0.56018 0.11526 0.37168 0.0
H567 H 0.55421 0.11306 0.41174 0.0
C568 C 0.59886 0.07447 0.44212 0.0
C569 C 0.62476 0.0535 0.45617 0.0
C570 C 0.60323 0.07742 0.41923 0.0
C571 C 0.65561 0.03613 0.4471 0.0
C572 C 0.65981 0.03849 0.42433 0.0
C573 C 0.63663 0.05993 0.3872 0.0
C574 C 0.61015 0.08008 0.37309 0.0
C575 C 0.63352 0.05868 0.41021 0.0
C576 C 0.58107 0.09979 0.38228 0.0
C577 C 0.57749 0.09832 0.40514 0.0
H578 H 0.53259 0.50627 0.76677 0.0
H579 H 0.60775 0.41018 0.76838 0.0
H580 H 0.6157 0.42024 0.72878 0.0
H581 H 0.60158 0.45637 0.69388 0.0
H582 H 0.53161 0.55709 0.69287 0.0
H583 H 0.52061 0.54445 0.73193 0.0
C584 C 0.55043 0.48734 0.75839 0.0
C585 C 0.56933 0.45734 0.77041 0.0
C586 C 0.55572 0.49402 0.73573 0.0
C587 C 0.59293 0.43349 0.75946 0.0
C588 C 0.59747 0.43921 0.73683 0.0
C589 C 0.58446 0.47613 0.70219 0.0
C590 C 0.56748 0.50766 0.69026 0.0
C591 C 0.57923 0.46957 0.72483 0.0
C592 C 0.5445 0.53207 0.70139 0.0
C593 C 0.53843 0.52511 0.72383 0.0
H594 H 0.62826 0.06215 0.60399 0.0
H595 H 0.54933 0.93816 0.58141 0.0
H596 H 0.54158 0.91597 0.61987 0.0
H597 H 0.55779 0.93147 0.65982 0.0
H598 H 0.63196 0.05785 0.68229 0.0
H599 H 0.64186 0.0788 0.64401 0.0
C600 C 0.60941 0.03026 0.6075 0.0
C601 C 0.58946 1.00185 0.58989 0.0
C602 C 0.60454 0.01793 0.62964 0.0
C603 C 0.56481 0.96077 0.59468 0.0
C604 C 0.56049 0.94797 0.61666 0.0
C605 C 0.57567 0.96383 0.65643 0.0
C606 C 0.5943 0.99276 0.67412 0.0
C607 C 0.58017 0.97632 0.63428 0.0
C608 C 0.61801 0.03432 0.66919 0.0
C609 C 0.62338 0.04661 0.64722 0.0
H610 H 0.59407 0.52086 0.90951 0.0
H611 H 0.51767 0.39019 0.91109 0.0
H612 H 0.51219 0.39856 0.95087 0.0
H613 H 0.52938 0.44334 0.98528 0.0
H614 H 0.60205 0.57536 0.98285 0.0
H615 H 0.60859 0.56637 0.94329 0.0
C616 C 0.57642 0.49414 0.9186 0.0
C617 C 0.55667 0.45482 0.90748 0.0
C618 C 0.57258 0.49957 0.94127 0.0
C619 C 0.53321 0.42075 0.91934 0.0
C620 C 0.5301 0.42552 0.94206 0.0
C621 C 0.54659 0.47003 0.97601 0.0
C622 C 0.5653 0.50991 0.98688 0.0
C623 C 0.54965 0.4648 0.9532 0.0
C624 C 0.58717 0.54449 0.97474 0.0
C625 C 0.59107 0.5393 0.95219 0.0
H626 H 0.13408 0.57171 0.22298 0.0
H627 H 1.03039 0.45923 0.21009 0.0
H628 H 1.03159 0.44461 0.24989 0.0
H629 H 1.06188 0.46416 0.28845 0.0
H630 H 0.16475 0.57744 0.30093 0.0
H631 H 0.16432 0.59097 0.26116 0.0
C632 C 0.11175 0.54391 0.22881 0.0
C633 C 0.08217 0.51668 0.21353 0.0
C634 C 0.11254 0.53573 0.25168 0.0
C635 C 1.05352 0.48079 0.22146 0.0
C636 C 1.05415 0.47239 0.24424 0.0
C637 C 0.08403 0.49193 0.28246 0.0
C638 C 0.11341 0.51962 0.29767 0.0
C639 C 0.08343 0.49976 0.25951 0.0
C640 C 0.14225 0.55519 0.2896 0.0
C641 C 0.14185 0.56314 0.26685 0.0
loop_
_geom_bond_atom_site_label_1
_geom_bond_atom_site_label_2
_geom_bond_distance
_geom_bond_site_symmetry_2
_ccdc_geom_bond_type
Dy0 O3 2.307 1_455 S
Dy0 O5 2.395 . S
Dy0 O6 2.379 . S
Dy0 O8 2.339 . S
Dy0 O10 2.298 . S
Dy0 O14 2.275 . S
Dy0 C22 2.738 . S
Dy1 O4 2.298 . S
Dy1 O7 2.275 1_655 S
Dy1 O9 2.307 1_655 S
Dy1 O11 2.395 . S
Dy1 O12 2.379 . S
Dy1 O15 2.339 . S
Dy1 C31 2.738 . S
C2 O14 1.254 . S
C2 O15 1.257 1_455 S
O3 Dy0 2.307 1_655 S
O3 C13 1.266 . S
O4 Dy1 2.298 . S
O4 C13 1.236 . S
O5 Dy0 2.395 . S
O5 C22 1.255 . S
O6 Dy0 2.379 . S
O6 C22 1.249 . S
O7 Dy1 2.275 1_455 S
O7 C23 1.254 . S
O8 Dy0 2.339 . S
O8 C23 1.257 . S
O9 Dy1 2.307 1_455 S
O9 C24 1.266 . S
O10 Dy0 2.298 . S
O10 C24 1.236 . S
O11 Dy1 2.395 . S
O11 C31 1.255 . S
O12 Dy1 2.379 . S
O12 C31 1.249 . S
C13 O3 1.266 . S
C13 O4 1.236 . S
O14 Dy0 2.275 . S
O14 C2 1.254 . S
O15 Dy1 2.339 . S
O15 C2 1.257 1_655 S
C16 C19 1.344 . S
C16 C20 1.328 . S
C16 C22 1.516 . S
C17 C18 1.304 . S
C17 C21 1.323 . S
C18 C17 1.304 . S
C18 C19 1.371 . S
C18 H32 0.930 . S
C19 C16 1.344 . S
C19 C18 1.371 . S
C19 H33 0.931 . S
C20 C16 1.328 . S
C20 C21 1.433 . S
C20 H34 0.931 . S
C21 C17 1.323 . S
C21 C20 1.433 . S
C21 H35 0.933 . S
C22 Dy0 2.738 . S
C22 O5 1.255 . S
C22 O6 1.249 . S
C22 C16 1.516 . S
C23 O7 1.254 . S
C23 O8 1.257 . S
C24 O9 1.266 . S
C24 O10 1.236 . S
C25 C28 1.344 . S
C25 C29 1.328 . S
C25 C31 1.516 . S
C26 C27 1.304 . S
C26 C30 1.323 . S
C27 C26 1.304 . S
C27 C28 1.371 . S
C27 H36 0.930 . S
C28 C25 1.344 . S
C28 C27 1.371 . S
C28 H37 0.931 . S
C29 C25 1.328 . S
C29 C30 1.433 . S
C29 H38 0.931 . S
C30 C26 1.323 . S
C30 C29 1.433 . S
C30 H39 0.933 . S
C31 Dy1 2.738 . S
C31 O11 1.255 . S
C31 O12 1.249 . S
C31 C25 1.516 . S
H32 C18 0.930 . S
H33 C19 0.931 . S
H34 C20 0.931 . S
H35 C21 0.933 . S
H36 C27 0.930 . S
H37 C28 0.931 . S
H38 C29 0.931 . S
H39 C30 0.933 . S
Dy40 O43 2.307 . S
Dy40 O45 2.395 1_545 S
Dy40 O46 2.379 1_545 S
Dy40 O48 2.339 . S
Dy40 O50 2.298 1_545 S
Dy40 O54 2.275 . S
Dy40 C62 2.738 1_545 S
Dy41 O44 2.298 . S
Dy41 O47 2.275 . S
Dy41 O49 2.307 1_545 S
Dy41 O51 2.395 . S
Dy41 O52 2.379 . S
Dy41 O55 2.339 . S
Dy41 C71 2.738 . S
C42 O54 1.254 . S
C42 O55 1.257 . S
O43 Dy40 2.307 . S
O43 C53 1.266 . S
O44 Dy41 2.298 . S
O44 C53 1.236 . S
O45 Dy40 2.395 1_565 S
O45 C62 1.255 . S
O46 Dy40 2.379 1_565 S
O46 C62 1.249 . S
O47 Dy41 2.275 . S
O47 C63 1.254 . S
O48 Dy40 2.339 . S
O48 C63 1.257 . S
O49 Dy41 2.307 1_565 S
O49 C64 1.266 . S
O50 Dy40 2.298 1_565 S
O50 C64 1.236 . S
O51 Dy41 2.395 . S
O51 C71 1.255 . S
O52 Dy41 2.379 . S
O52 C71 1.249 . S
C53 O43 1.266 . S
C53 O44 1.236 . S
O54 Dy40 2.275 . S
O54 C42 1.254 . S
O55 Dy41 2.339 . S
O55 C42 1.257 . S
C56 C59 1.344 . S
C56 C60 1.328 . S
C56 C62 1.516 . S
C57 C58 1.304 . S
C57 C61 1.323 . S
C58 C57 1.304 . S
C58 C59 1.371 . S
C58 H72 0.930 . S
C59 C56 1.344 . S
C59 C58 1.371 . S
C59 H73 0.931 . S
C60 C56 1.328 . S
C60 C61 1.433 . S
C60 H74 0.931 . S
C61 C57 1.323 . S
C61 C60 1.433 . S
C61 H75 0.933 . S
C62 Dy40 2.738 1_565 S
C62 O45 1.255 . S
C62 O46 1.249 . S
C62 C56 1.516 . S
C63 O47 1.254 . S
C63 O48 1.257 . S
C64 O49 1.266 . S
C64 O50 1.236 . S
C65 C68 1.344 . S
C65 C69 1.328 . S
C65 C71 1.516 . S
C66 C67 1.304 . S
C66 C70 1.323 . S
C67 C66 1.304 . S
C67 C68 1.371 . S
C67 H76 0.930 . S
C68 C65 1.344 . S
C68 C67 1.371 . S
C68 H77 0.931 . S
C69 C65 1.328 . S
C69 C70 1.433 . S
C69 H78 0.931 . S
C70 C66 1.323 . S
C70 C69 1.433 . S
C70 H79 0.933 . S
C71 Dy41 2.738 . S
C71 O51 1.255 . S
C71 O52 1.249 . S
C71 C65 1.516 . S
H72 C58 0.930 . S
H73 C59 0.931 . S
H74 C60 0.931 . S
H75 C61 0.933 . S
H76 C67 0.930 . S
H77 C68 0.931 . S
H78 C69 0.931 . S
H79 C70 0.933 . S
Dy80 O83 2.307 . S
Dy80 O85 2.395 . S
Dy80 O86 2.379 . S
Dy80 O88 2.339 . S
Dy80 O90 2.298 . S
Dy80 O94 2.275 . S
Dy80 C102 2.738 . S
Dy81 O84 2.298 . S
Dy81 O87 2.275 . S
Dy81 O89 2.307 . S
Dy81 O91 2.395 . S
Dy81 O92 2.379 . S
Dy81 O95 2.339 . S
Dy81 C111 2.738 . S
C82 O94 1.254 . S
C82 O95 1.257 . S
O83 Dy80 2.307 . S
O83 C93 1.266 . S
O84 Dy81 2.298 . S
O84 C93 1.236 . S
O85 Dy80 2.395 . S
O85 C102 1.255 . S
O86 Dy80 2.379 . S
O86 C102 1.249 . S
O87 Dy81 2.275 . S
O87 C103 1.254 . S
O88 Dy80 2.339 . S
O88 C103 1.257 . S
O89 Dy81 2.307 . S
O89 C104 1.266 . S
O90 Dy80 2.298 . S
O90 C104 1.236 . S
O91 Dy81 2.395 . S
O91 C111 1.255 . S
O92 Dy81 2.379 . S
O92 C111 1.249 . S
C93 O83 1.266 . S
C93 O84 1.236 . S
O94 Dy80 2.275 . S
O94 C82 1.254 . S
O95 Dy81 2.339 . S
O95 C82 1.257 . S
C96 C99 1.344 . S
C96 C100 1.328 . S
C96 C102 1.516 . S
C97 C98 1.304 . S
C97 C101 1.323 . S
C98 C97 1.304 . S
C98 C99 1.371 . S
C98 H112 0.930 . S
C99 C96 1.344 . S
C99 C98 1.371 . S
C99 H113 0.931 . S
C100 C96 1.328 . S
C100 C101 1.433 . S
C100 H114 0.931 . S
C101 C97 1.323 . S
C101 C100 1.433 . S
C101 H115 0.933 . S
C102 Dy80 2.738 . S
C102 O85 1.255 . S
C102 O86 1.249 . S
C102 C96 1.516 . S
C103 O87 1.254 . S
C103 O88 1.257 . S
C104 O89 1.266 . S
C104 O90 1.236 . S
C105 C108 1.344 . S
C105 C109 1.328 . S
C105 C111 1.516 . S
C106 C107 1.304 . S
C106 C110 1.323 . S
C107 C106 1.304 . S
C107 C108 1.371 . S
C107 H116 0.930 . S
C108 C105 1.344 . S
C108 C107 1.371 . S
C108 H117 0.931 . S
C109 C105 1.328 . S
C109 C110 1.433 . S
C109 H118 0.931 . S
C110 C106 1.323 . S
C110 C109 1.433 . S
C110 H119 0.933 . S
C111 Dy81 2.738 . S
C111 O91 1.255 . S
C111 O92 1.249 . S
C111 C105 1.516 . S
H112 C98 0.930 . S
H113 C99 0.931 . S
H114 C100 0.931 . S
H115 C101 0.933 . S
H116 C107 0.930 . S
H117 C108 0.931 . S
H118 C109 0.931 . S
H119 C110 0.933 . S
C120 C121 1.386 . S
C120 C122 1.397 . S
C120 H144 0.931 . S
C121 C120 1.386 . S
C121 C125 1.397 . S
C122 C120 1.397 . S
C122 C123 1.384 . S
C122 H145 0.930 . S
C123 C122 1.384 . S
C123 C124 1.377 . S
C123 C126 1.481 . S
C124 C123 1.377 . S
C124 C125 1.389 . S
C124 H146 0.929 1_545 S
C125 C121 1.397 . S
C125 C124 1.389 . S
C125 H147 0.931 1_545 S
C126 C123 1.481 . S
C126 C127 1.387 . S
C126 C131 1.390 . S
C127 C126 1.387 . S
C127 C128 1.401 . S
C127 H148 0.930 . S
C128 C127 1.401 . S
C128 C129 1.376 . S
C128 C137 1.511 . S
C129 C128 1.376 . S
C129 C130 1.392 . S
C129 H150 0.931 . S
C130 C129 1.392 . S
C130 C131 1.361 . S
C130 C132 1.500 1_545 S
C131 C126 1.390 . S
C131 C130 1.361 . S
C131 H149 0.931 . S
C132 C130 1.500 1_565 S
C132 C133 1.371 1_565 S
C132 C134 1.365 . S
C133 C132 1.371 1_545 S
C133 C143 1.386 1_545 S
C133 H151 0.931 . S
C134 C132 1.365 . S
C134 C135 1.409 . S
C134 H152 0.929 . S
C135 C134 1.409 . S
C135 C136 1.380 . S
C135 H153 0.930 . S
C136 C135 1.380 . S
C136 C143 1.357 . S
C137 C128 1.511 . S
C137 C138 1.341 . S
C137 C139 1.371 . S
C138 C137 1.341 . S
C138 C142 1.394 . S
C138 H154 0.930 . S
C139 C137 1.371 . S
C139 C140 1.392 . S
C139 H155 0.931 . S
C140 C139 1.392 . S
C140 C141 1.331 . S
C140 H158 0.932 . S
C141 C140 1.331 . S
C141 C142 1.336 . S
C142 C138 1.394 . S
C142 C141 1.336 . S
C142 H157 0.929 . S
C143 C133 1.386 1_565 S
C143 C136 1.357 . S
C143 H156 0.928 . S
H144 C120 0.931 . S
H145 C122 0.930 . S
H146 C124 0.929 1_565 S
H147 C125 0.931 1_565 S
H148 C127 0.930 . S
H149 C131 0.931 . S
H150 C129 0.931 . S
H151 C133 0.931 . S
H152 C134 0.929 . S
H153 C135 0.930 . S
H154 C138 0.930 . S
H155 C139 0.931 . S
H156 C143 0.928 . S
H157 C142 0.929 . S
H158 C140 0.932 . S
C159 C160 1.386 . S
C159 C161 1.397 . S
C159 H183 0.931 . S
C160 C159 1.386 . S
C160 C164 1.397 . S
C161 C159 1.397 . S
C161 C162 1.384 . S
C161 H184 0.930 . S
C162 C161 1.384 . S
C162 C163 1.377 . S
C162 C165 1.481 . S
C163 C162 1.377 . S
C163 C164 1.389 . S
C163 H185 0.929 . S
C164 C160 1.397 . S
C164 C163 1.389 . S
C164 H186 0.931 . S
C165 C162 1.481 . S
C165 C166 1.387 . S
C165 C170 1.390 . S
C166 C165 1.387 . S
C166 C167 1.401 . S
C166 H187 0.930 . S
C167 C166 1.401 . S
C167 C168 1.376 . S
C167 C176 1.511 . S
C168 C167 1.376 . S
C168 C169 1.392 . S
C168 H189 0.931 . S
C169 C168 1.392 . S
C169 C170 1.361 . S
C169 C171 1.500 . S
C170 C165 1.390 . S
C170 C169 1.361 . S
C170 H188 0.931 . S
C171 C169 1.500 . S
C171 C172 1.371 . S
C171 C173 1.365 . S
C172 C171 1.371 . S
C172 C182 1.386 . S
C172 H190 0.931 . S
C173 C171 1.365 . S
C173 C174 1.409 . S
C173 H191 0.929 . S
C174 C173 1.409 . S
C174 C175 1.380 . S
C174 H192 0.930 . S
C175 C174 1.380 . S
C175 C182 1.357 . S
C176 C167 1.511 . S
C176 C177 1.341 . S
C176 C178 1.371 . S
C177 C176 1.341 . S
C177 C181 1.394 . S
C177 H193 0.930 . S
C178 C176 1.371 . S
C178 C179 1.392 . S
C178 H194 0.931 . S
C179 C178 1.392 . S
C179 C180 1.331 . S
C179 H197 0.932 . S
C180 C179 1.331 . S
C180 C181 1.336 . S
C181 C177 1.394 . S
C181 C180 1.336 . S
C181 H196 0.929 . S
C182 C172 1.386 . S
C182 C175 1.357 . S
C182 H195 0.928 . S
H183 C159 0.931 . S
H184 C161 0.930 . S
H185 C163 0.929 . S
H186 C164 0.931 . S
H187 C166 0.930 . S
H188 C170 0.931 . S
H189 C168 0.931 . S
H190 C172 0.931 . S
H191 C173 0.929 . S
H192 C174 0.930 . S
H193 C177 0.930 . S
H194 C178 0.931 . S
H195 C182 0.928 . S
H196 C181 0.929 . S
H197 C179 0.932 . S
C198 C199 1.386 1_556 S
C198 C200 1.397 . S
C198 H222 0.931 1_556 S
C199 C198 1.386 1_554 S
C199 C203 1.397 1_454 S
C200 C198 1.397 . S
C200 C201 1.384 . S
C200 H223 0.930 . S
C201 C200 1.384 . S
C201 C202 1.377 1_455 S
C201 C204 1.481 . S
C202 C201 1.377 1_655 S
C202 C203 1.389 . S
C202 H224 0.929 . S
C203 C199 1.397 1_656 S
C203 C202 1.389 . S
C203 H225 0.909 1_556 S
C204 C201 1.481 . S
C204 C205 1.387 . S
C204 C209 1.390 1_455 S
C205 C204 1.387 . S
C205 C206 1.401 . S
C205 H226 0.930 . S
C206 C205 1.401 . S
C206 C207 1.376 . S
C206 C215 1.511 . S
C207 C206 1.376 . S
C207 C208 1.392 1_455 S
C207 H228 0.931 . S
C208 C207 1.392 1_655 S
C208 C209 1.361 . S
C208 C210 1.500 . S
C209 C204 1.390 1_655 S
C209 C208 1.361 . S
C209 H227 0.931 . S
C210 C208 1.500 . S
C210 C211 1.371 . S
C210 C212 1.365 . S
C211 C210 1.371 . S
C211 C221 1.386 . S
C211 H229 0.931 . S
C212 C210 1.365 . S
C212 C213 1.409 . S
C212 H230 0.929 . S
C213 C212 1.409 . S
C213 C214 1.380 . S
C213 H231 0.930 . S
C214 C213 1.380 . S
C214 C221 1.357 . S
C215 C206 1.511 . S
C215 C216 1.341 . S
C215 C217 1.371 . S
C216 C215 1.341 . S
C216 C220 1.394 . S
C216 H232 0.930 . S
C217 C215 1.371 . S
C217 C218 1.392 . S
C217 H233 0.931 . S
C218 C217 1.392 . S
C218 C219 1.331 . S
C218 H236 0.932 . S
C219 C218 1.331 . S
C219 C220 1.336 . S
C220 C216 1.394 . S
C220 C219 1.336 . S
C220 H235 0.929 . S
C221 C211 1.386 . S
C221 C214 1.357 . S
C221 H234 0.928 . S
H222 C198 0.931 1_554 S
H223 C200 0.930 . S
H224 C202 0.929 . S
H225 C203 0.909 1_554 S
H226 C205 0.930 . S
H227 C209 0.931 . S
H228 C207 0.931 . S
H229 C211 0.931 . S
H230 C212 0.929 . S
H231 C213 0.930 . S
H232 C216 0.930 . S
H233 C217 0.931 . S
H234 C221 0.928 . S
H235 C220 0.929 . S
H236 C218 0.932 . S
C237 C238 1.386 . S
C237 C239 1.397 . S
C237 H261 0.931 . S
C238 C237 1.386 . S
C238 C242 1.397 1_655 S
C239 C237 1.397 . S
C239 C240 1.384 1_655 S
C239 H262 0.930 . S
C240 C239 1.384 1_455 S
C240 C241 1.377 . S
C240 C243 1.481 . S
C241 C240 1.377 . S
C241 C242 1.389 . S
C241 H263 0.929 . S
C242 C238 1.397 1_455 S
C242 C241 1.389 . S
C242 H264 0.931 . S
C243 C240 1.481 . S
C243 C244 1.387 1_455 S
C243 C248 1.390 . S
C244 C243 1.387 1_655 S
C244 C245 1.401 . S
C244 H265 0.930 . S
C245 C244 1.401 . S
C245 C246 1.376 1_655 S
C245 C254 1.511 . S
C246 C245 1.376 1_455 S
C246 C247 1.392 . S
C246 H267 0.931 . S
C247 C246 1.392 . S
C247 C248 1.361 . S
C247 C249 1.500 . S
C248 C243 1.390 . S
C248 C247 1.361 . S
C248 H266 0.931 . S
C249 C247 1.500 . S
C249 C250 1.371 . S
C249 C251 1.365 . S
C250 C249 1.371 . S
C250 C260 1.386 . S
C250 H268 0.931 . S
C251 C249 1.365 . S
C251 C252 1.409 . S
C251 H269 0.929 . S
C252 C251 1.409 . S
C252 C253 1.380 . S
C252 H270 0.930 . S
C253 C252 1.380 . S
C253 C260 1.357 . S
C254 C245 1.511 . S
C254 C255 1.341 . S
C254 C256 1.371 . S
C255 C254 1.341 . S
C255 C259 1.394 . S
C255 H271 0.930 . S
C256 C254 1.371 . S
C256 C257 1.392 . S
C256 H272 0.931 . S
C257 C256 1.392 . S
C257 C258 1.331 . S
C257 H275 0.932 . S
C258 C257 1.331 . S
C258 C259 1.336 . S
C259 C255 1.394 . S
C259 C258 1.336 . S
C259 H274 0.929 . S
C260 C250 1.386 . S
C260 C253 1.357 . S
C260 H273 0.928 . S
H261 C237 0.931 . S
H262 C239 0.930 . S
H263 C241 0.929 . S
H264 C242 0.931 . S
H265 C244 0.930 . S
H266 C248 0.931 . S
H267 C246 0.931 . S
H268 C250 0.931 . S
H269 C251 0.929 . S
H270 C252 0.930 . S
H271 C255 0.930 . S
H272 C256 0.931 . S
H273 C260 0.928 . S
H274 C259 0.929 . S
H275 C257 0.932 . S
C276 C277 1.386 1_565 S
C276 C278 1.397 . S
C276 H300 0.931 . S
C277 C276 1.386 1_545 S
C277 C281 1.397 . S
C278 C276 1.397 . S
C278 C279 1.384 1_565 S
C278 H301 0.930 . S
C279 C278 1.384 1_545 S
C279 C280 1.377 . S
C279 C282 1.481 . S
C280 C279 1.377 . S
C280 C281 1.389 . S
C280 H302 0.929 . S
C281 C277 1.397 . S
C281 C280 1.389 . S
C281 H303 0.931 . S
C282 C279 1.481 . S
C282 C283 1.387 1_545 S
C282 C287 1.390 . S
C283 C282 1.387 1_565 S
C283 C284 1.401 . S
C283 H304 0.930 . S
C284 C283 1.401 . S
C284 C285 1.376 1_565 S
C284 C293 1.511 . S
C285 C284 1.376 1_545 S
C285 C286 1.392 . S
C285 H306 0.931 . S
C286 C285 1.392 . S
C286 C287 1.361 . S
C286 C288 1.500 . S
C287 C282 1.390 . S
C287 C286 1.361 . S
C287 H305 0.931 . S
C288 C286 1.500 . S
C288 C289 1.371 . S
C288 C290 1.365 . S
C289 C288 1.371 . S
C289 C299 1.386 . S
C289 H307 0.931 . S
C290 C288 1.365 . S
C290 C291 1.409 . S
C290 H308 0.929 . S
C291 C290 1.409 . S
C291 C292 1.380 . S
C291 H309 0.930 . S
C292 C291 1.380 . S
C292 C299 1.357 . S
C293 C284 1.511 . S
C293 C294 1.341 . S
C293 C295 1.371 . S
C294 C293 1.341 . S
C294 C298 1.394 . S
C294 H310 0.930 . S
C295 C293 1.371 . S
C295 C296 1.392 . S
C295 H311 0.931 . S
C296 C295 1.392 . S
C296 C297 1.331 . S
C296 H314 0.932 . S
C297 C296 1.331 . S
C297 C298 1.336 . S
C298 C294 1.394 . S
C298 C297 1.336 . S
C298 H313 0.929 . S
C299 C289 1.386 . S
C299 C292 1.357 . S
C299 H312 0.928 . S
H300 C276 0.931 . S
H301 C278 0.930 . S
H302 C280 0.929 . S
H303 C281 0.931 . S
H304 C283 0.930 . S
H305 C287 0.931 . S
H306 C285 0.931 . S
H307 C289 0.931 . S
H308 C290 0.929 . S
H309 C291 0.930 . S
H310 C294 0.930 . S
H311 C295 0.931 . S
H312 C299 0.928 . S
H313 C298 0.929 . S
H314 C296 0.932 . S
C315 C316 1.386 . S
C315 C317 1.397 . S
C315 H339 0.931 . S
C316 C315 1.386 . S
C316 C320 1.397 . S
C317 C315 1.397 . S
C317 C318 1.384 . S
C317 H340 0.930 . S
C318 C317 1.384 . S
C318 C319 1.377 . S
C318 C321 1.481 . S
C319 C318 1.377 . S
C319 C320 1.389 . S
C319 H341 0.929 . S
C320 C316 1.397 . S
C320 C319 1.389 . S
C320 H342 0.931 . S
C321 C318 1.481 . S
C321 C322 1.387 . S
C321 C326 1.390 . S
C322 C321 1.387 . S
C322 C323 1.401 . S
C322 H343 0.930 . S
C323 C322 1.401 . S
C323 C324 1.376 . S
C323 C332 1.511 . S
C324 C323 1.376 . S
C324 C325 1.392 . S
C324 H345 0.931 . S
C325 C324 1.392 . S
C325 C326 1.361 . S
C325 C327 1.500 . S
C326 C321 1.390 . S
C326 C325 1.361 . S
C326 H344 0.931 . S
C327 C325 1.500 . S
C327 C328 1.371 . S
C327 C329 1.365 . S
C328 C327 1.371 . S
C328 C338 1.386 . S
C328 H346 0.931 . S
C329 C327 1.365 . S
C329 C330 1.409 . S
C329 H347 0.929 . S
C330 C329 1.409 . S
C330 C331 1.380 . S
C330 H348 0.930 . S
C331 C330 1.380 . S
C331 C338 1.357 . S
C332 C323 1.511 . S
C332 C333 1.341 . S
C332 C334 1.371 . S
C333 C332 1.341 . S
C333 C337 1.394 . S
C333 H349 0.930 . S
C334 C332 1.371 . S
C334 C335 1.392 . S
C334 H350 0.931 . S
C335 C334 1.392 . S
C335 C336 1.331 . S
C335 H353 0.932 . S
C336 C335 1.331 . S
C336 C337 1.336 . S
C337 C333 1.394 . S
C337 C336 1.336 . S
C337 H352 0.929 . S
C338 C328 1.386 . S
C338 C331 1.357 . S
C338 H351 0.928 . S
H339 C315 0.931 . S
H340 C317 0.930 . S
H341 C319 0.929 . S
H342 C320 0.931 . S
H343 C322 0.930 . S
H344 C326 0.931 . S
H345 C324 0.931 . S
H346 C328 0.931 . S
H347 C329 0.929 . S
H348 C330 0.930 . S
H349 C333 0.930 . S
H350 C334 0.931 . S
H351 C338 0.928 . S
H352 C337 0.929 . S
H353 C335 0.932 . S
H354 C360 0.930 . S
H355 C363 0.930 . S
H356 C364 0.930 . S
H357 C365 0.930 . S
H358 C368 0.930 . S
H359 C369 0.930 . S
C360 H354 0.930 . S
C360 C361 1.355 . S
C360 C362 1.415 . S
C361 C360 1.355 . S
C361 C363 1.419 . S
C362 C360 1.415 . S
C362 C367 1.425 . S
C362 C369 1.409 . S
C363 H355 0.930 . S
C363 C361 1.419 . S
C363 C364 1.362 . S
C364 H356 0.930 . S
C364 C363 1.362 . S
C364 C367 1.409 . S
C365 H357 0.930 . S
C365 C366 1.355 . S
C365 C367 1.415 . S
C366 C365 1.355 . S
C366 C368 1.419 . S
C367 C362 1.425 . S
C367 C364 1.409 . S
C367 C365 1.415 . S
C368 H358 0.930 . S
C368 C366 1.419 . S
C368 C369 1.362 . S
C369 H359 0.930 . S
C369 C362 1.409 . S
C369 C368 1.362 . S
H370 C376 0.930 . S
H371 C379 0.930 . S
H372 C380 0.930 . S
H373 C381 0.930 . S
H374 C384 0.930 . S
H375 C385 0.930 . S
C376 H370 0.930 . S
C376 C377 1.355 . S
C376 C378 1.415 . S
C377 C376 1.355 . S
C377 C379 1.419 . S
C378 C376 1.415 . S
C378 C383 1.425 . S
C378 C385 1.409 . S
C379 H371 0.930 . S
C379 C377 1.419 . S
C379 C380 1.362 . S
C380 H372 0.930 . S
C380 C379 1.362 . S
C380 C383 1.409 . S
C381 H373 0.930 . S
C381 C382 1.355 . S
C381 C383 1.415 . S
C382 C381 1.355 . S
C382 C384 1.419 . S
C383 C378 1.425 . S
C383 C380 1.409 . S
C383 C381 1.415 . S
C384 H374 0.930 . S
C384 C382 1.419 . S
C384 C385 1.362 . S
C385 H375 0.930 . S
C385 C378 1.409 . S
C385 C384 1.362 . S
H386 C392 0.930 . S
H387 C395 0.930 . S
H388 C396 0.930 . S
H389 C397 0.930 . S
H390 C400 0.930 . S
H391 C401 0.930 . S
C392 H386 0.930 . S
C392 C393 1.355 . S
C392 C394 1.415 . S
C393 C392 1.355 . S
C393 C395 1.419 . S
C394 C392 1.415 . S
C394 C399 1.425 . S
C394 C401 1.409 . S
C395 H387 0.930 . S
C395 C393 1.419 . S
C395 C396 1.362 . S
C396 H388 0.930 . S
C396 C395 1.362 . S
C396 C399 1.409 . S
C397 H389 0.930 . S
C397 C398 1.355 . S
C397 C399 1.415 . S
C398 C397 1.355 . S
C398 C400 1.419 . S
C399 C394 1.425 . S
C399 C396 1.409 . S
C399 C397 1.415 . S
C400 H390 0.930 . S
C400 C398 1.419 . S
C400 C401 1.362 . S
C401 H391 0.930 . S
C401 C394 1.409 . S
C401 C400 1.362 . S
H402 C408 0.930 . S
H403 C411 0.930 . S
H404 C412 0.930 . S
H405 C413 0.930 . S
H406 C416 0.930 . S
H407 C417 0.930 . S
C408 H402 0.930 . S
C408 C409 1.355 . S
C408 C410 1.415 . S
C409 C408 1.355 . S
C409 C411 1.419 . S
C410 C408 1.415 . S
C410 C415 1.425 . S
C410 C417 1.409 . S
C411 H403 0.930 . S
C411 C409 1.419 . S
C411 C412 1.362 . S
C412 H404 0.930 . S
C412 C411 1.362 . S
C412 C415 1.409 . S
C413 H405 0.930 . S
C413 C414 1.355 . S
C413 C415 1.415 . S
C414 C413 1.355 . S
C414 C416 1.419 . S
C415 C410 1.425 . S
C415 C412 1.409 . S
C415 C413 1.415 . S
C416 H406 0.930 . S
C416 C414 1.419 . S
C416 C417 1.362 . S
C417 H407 0.930 . S
C417 C410 1.409 . S
C417 C416 1.362 . S
H418 C424 0.930 . S
H419 C427 0.930 . S
H420 C428 0.930 . S
H421 C429 0.930 . S
H422 C432 0.930 . S
H423 C433 0.930 . S
C424 H418 0.930 . S
C424 C425 1.355 . S
C424 C426 1.415 . S
C425 C424 1.355 . S
C425 C427 1.419 . S
C426 C424 1.415 . S
C426 C431 1.425 . S
C426 C433 1.409 . S
C427 H419 0.930 . S
C427 C425 1.419 . S
C427 C428 1.362 . S
C428 H420 0.930 . S
C428 C427 1.362 . S
C428 C431 1.409 . S
C429 H421 0.930 . S
C429 C430 1.355 . S
C429 C431 1.415 . S
C430 C429 1.355 . S
C430 C432 1.419 . S
C431 C426 1.425 . S
C431 C428 1.409 . S
C431 C429 1.415 . S
C432 H422 0.930 . S
C432 C430 1.419 . S
C432 C433 1.362 . S
C433 H423 0.930 . S
C433 C426 1.409 . S
C433 C432 1.362 . S
H434 C440 0.930 . S
H435 C443 0.930 . S
H436 C444 0.930 . S
H437 C445 0.930 . S
H438 C448 0.930 . S
H439 C449 0.930 . S
C440 H434 0.930 . S
C440 C441 1.355 . S
C440 C442 1.415 . S
C441 C440 1.355 . S
C441 C443 1.419 . S
C442 C440 1.415 . S
C442 C447 1.425 . S
C442 C449 1.409 . S
C443 H435 0.930 . S
C443 C441 1.419 . S
C443 C444 1.362 . S
C444 H436 0.930 . S
C444 C443 1.362 . S
C444 C447 1.409 . S
C445 H437 0.930 . S
C445 C446 1.355 . S
C445 C447 1.415 . S
C446 C445 1.355 . S
C446 C448 1.419 . S
C447 C442 1.425 . S
C447 C444 1.409 . S
C447 C445 1.415 . S
C448 H438 0.930 . S
C448 C446 1.419 . S
C448 C449 1.362 . S
C449 H439 0.930 . S
C449 C442 1.409 . S
C449 C448 1.362 . S
H450 C456 0.930 . S
H451 C459 0.930 . S
H452 C460 0.930 . S
H453 C461 0.930 . S
H454 C464 0.930 . S
H455 C465 0.930 . S
C456 H450 0.930 . S
C456 C457 1.355 . S
C456 C458 1.415 . S
C457 C456 1.355 . S
C457 C459 1.419 . S
C458 C456 1.415 . S
C458 C463 1.425 . S
C458 C465 1.409 . S
C459 H451 0.930 . S
C459 C457 1.419 . S
C459 C460 1.362 . S
C460 H452 0.930 . S
C460 C459 1.362 . S
C460 C463 1.409 . S
C461 H453 0.930 . S
C461 C462 1.355 . S
C461 C463 1.415 . S
C462 C461 1.355 . S
C462 C464 1.419 . S
C463 C458 1.425 . S
C463 C460 1.409 . S
C463 C461 1.415 . S
C464 H454 0.930 . S
C464 C462 1.419 . S
C464 C465 1.362 . S
C465 H455 0.930 . S
C465 C458 1.409 . S
C465 C464 1.362 . S
H466 C472 0.930 . S
H467 C475 0.930 . S
H468 C476 0.930 . S
H469 C477 0.930 . S
H470 C480 0.930 . S
H471 C481 0.930 . S
C472 H466 0.930 . S
C472 C473 1.355 . S
C472 C474 1.415 . S
C473 C472 1.355 . S
C473 C475 1.419 . S
C474 C472 1.415 . S
C474 C479 1.425 . S
C474 C481 1.409 . S
C475 H467 0.930 . S
C475 C473 1.419 . S
C475 C476 1.362 . S
C476 H468 0.930 . S
C476 C475 1.362 . S
C476 C479 1.409 . S
C477 H469 0.930 . S
C477 C478 1.355 . S
C477 C479 1.415 . S
C478 C477 1.355 . S
C478 C480 1.419 . S
C479 C474 1.425 . S
C479 C476 1.409 . S
C479 C477 1.415 . S
C480 H470 0.930 . S
C480 C478 1.419 . S
C480 C481 1.362 . S
C481 H471 0.930 . S
C481 C474 1.409 . S
C481 C480 1.362 . S
H482 C488 0.930 . S
H483 C491 0.930 . S
H484 C492 0.930 . S
H485 C493 0.930 . S
H486 C496 0.930 . S
H487 C497 0.930 . S
C488 H482 0.930 . S
C488 C489 1.355 . S
C488 C490 1.415 . S
C489 C488 1.355 . S
C489 C491 1.419 . S
C490 C488 1.415 . S
C490 C495 1.425 . S
C490 C497 1.409 . S
C491 H483 0.930 . S
C491 C489 1.419 . S
C491 C492 1.362 . S
C492 H484 0.930 . S
C492 C491 1.362 . S
C492 C495 1.409 . S
C493 H485 0.930 . S
C493 C494 1.355 . S
C493 C495 1.415 . S
C494 C493 1.355 . S
C494 C496 1.419 . S
C495 C490 1.425 . S
C495 C492 1.409 . S
C495 C493 1.415 . S
C496 H486 0.930 . S
C496 C494 1.419 . S
C496 C497 1.362 . S
C497 H487 0.930 . S
C497 C490 1.409 . S
C497 C496 1.362 . S
H498 C504 0.930 . S
H499 C507 0.930 . S
H500 C508 0.930 . S
H501 C509 0.930 . S
H502 C512 0.930 . S
H503 C513 0.930 . S
C504 H498 0.930 . S
C504 C505 1.355 . S
C504 C506 1.415 . S
C505 C504 1.355 . S
C505 C507 1.419 . S
C506 C504 1.415 . S
C506 C511 1.425 . S
C506 C513 1.409 . S
C507 H499 0.930 . S
C507 C505 1.419 . S
C507 C508 1.362 . S
C508 H500 0.930 . S
C508 C507 1.362 . S
C508 C511 1.409 . S
C509 H501 0.930 . S
C509 C510 1.355 . S
C509 C511 1.415 . S
C510 C509 1.355 . S
C510 C512 1.419 . S
C511 C506 1.425 . S
C511 C508 1.409 . S
C511 C509 1.415 . S
C512 H502 0.930 . S
C512 C510 1.419 . S
C512 C513 1.362 . S
C513 H503 0.930 . S
C513 C506 1.409 . S
C513 C512 1.362 . S
H514 C520 0.930 . S
H515 C523 0.930 . S
H516 C524 0.930 . S
H517 C525 0.930 . S
H518 C528 0.930 . S
H519 C529 0.930 . S
C520 H514 0.930 . S
C520 C521 1.355 . S
C520 C522 1.415 . S
C521 C520 1.355 . S
C521 C523 1.419 . S
C522 C520 1.415 . S
C522 C527 1.425 . S
C522 C529 1.409 . S
C523 H515 0.930 . S
C523 C521 1.419 . S
C523 C524 1.362 . S
C524 H516 0.930 . S
C524 C523 1.362 . S
C524 C527 1.409 . S
C525 H517 0.930 . S
C525 C526 1.355 . S
C525 C527 1.415 . S
C526 C525 1.355 . S
C526 C528 1.419 . S
C527 C522 1.425 . S
C527 C524 1.409 . S
C527 C525 1.415 . S
C528 H518 0.930 . S
C528 C526 1.419 . S
C528 C529 1.362 . S
C529 H519 0.930 . S
C529 C522 1.409 . S
C529 C528 1.362 . S
H530 C536 0.930 . S
H531 C539 0.930 . S
H532 C540 0.930 . S
H533 C541 0.930 . S
H534 C544 0.930 . S
H535 C545 0.930 . S
C536 H530 0.930 . S
C536 C537 1.355 . S
C536 C538 1.415 . S
C537 C536 1.355 . S
C537 C539 1.419 . S
C538 C536 1.415 . S
C538 C543 1.425 . S
C538 C545 1.409 . S
C539 H531 0.930 . S
C539 C537 1.419 . S
C539 C540 1.362 . S
C540 H532 0.930 . S
C540 C539 1.362 . S
C540 C543 1.409 . S
C541 H533 0.930 . S
C541 C542 1.355 . S
C541 C543 1.415 . S
C542 C541 1.355 . S
C542 C544 1.419 . S
C543 C538 1.425 . S
C543 C540 1.409 . S
C543 C541 1.415 . S
C544 H534 0.930 . S
C544 C542 1.419 . S
C544 C545 1.362 . S
C545 H535 0.930 . S
C545 C538 1.409 . S
C545 C544 1.362 . S
H546 C552 0.930 . S
H547 C555 0.930 . S
H548 C556 0.930 . S
H549 C557 0.930 . S
H550 C560 0.946 . S
H551 C561 0.930 . S
C552 H546 0.930 . S
C552 C553 1.355 1_655 S
C552 C554 1.415 1_655 S
C553 C552 1.355 1_455 S
C553 C555 1.419 . S
C554 C552 1.415 1_455 S
C554 C559 1.425 . S
C554 C561 1.409 1_455 S
C555 H547 0.930 . S
C555 C553 1.419 . S
C555 C556 1.362 . S
C556 H548 0.930 . S
C556 C555 1.362 . S
C556 C559 1.409 . S
C557 H549 0.930 . S
C557 C558 1.355 . S
C557 C559 1.415 . S
C558 C557 1.355 . S
C558 C560 1.395 1_455 S
C559 C554 1.425 . S
C559 C556 1.409 . S
C559 C557 1.415 . S
C560 H550 0.946 . S
C560 C558 1.395 1_655 S
C560 C561 1.371 . S
C561 H551 0.930 . S
C561 C554 1.409 1_655 S
C561 C560 1.371 . S
H562 C568 0.930 . S
H563 C571 0.930 . S
H564 C572 0.930 . S
H565 C573 0.930 . S
H566 C576 0.930 . S
H567 C577 0.930 . S
C568 H562 0.930 . S
C568 C569 1.355 . S
C568 C570 1.415 . S
C569 C568 1.355 . S
C569 C571 1.419 . S
C570 C568 1.415 . S
C570 C575 1.425 . S
C570 C577 1.409 . S
C571 H563 0.930 . S
C571 C569 1.419 . S
C571 C572 1.362 . S
C572 H564 0.930 . S
C572 C571 1.362 . S
C572 C575 1.409 . S
C573 H565 0.930 . S
C573 C574 1.355 . S
C573 C575 1.415 . S
C574 C573 1.355 . S
C574 C576 1.419 . S
C575 C570 1.425 . S
C575 C572 1.409 . S
C575 C573 1.415 . S
C576 H566 0.930 . S
C576 C574 1.419 . S
C576 C577 1.362 . S
C577 H567 0.930 . S
C577 C570 1.409 . S
C577 C576 1.362 . S
H578 C584 0.930 . S
H579 C587 0.930 . S
H580 C588 0.930 . S
H581 C589 0.930 . S
H582 C592 0.930 . S
H583 C593 0.930 . S
C584 H578 0.930 . S
C584 C585 1.355 . S
C584 C586 1.415 . S
C585 C584 1.355 . S
C585 C587 1.419 . S
C586 C584 1.415 . S
C586 C591 1.425 . S
C586 C593 1.409 . S
C587 H579 0.930 . S
C587 C585 1.419 . S
C587 C588 1.362 . S
C588 H580 0.930 . S
C588 C587 1.362 . S
C588 C591 1.409 . S
C589 H581 0.930 . S
C589 C590 1.355 . S
C589 C591 1.415 . S
C590 C589 1.355 . S
C590 C592 1.419 . S
C591 C586 1.425 . S
C591 C588 1.409 . S
C591 C589 1.415 . S
C592 H582 0.930 . S
C592 C590 1.419 . S
C592 C593 1.362 . S
C593 H583 0.930 . S
C593 C586 1.409 . S
C593 C592 1.362 . S
H594 C600 0.930 . S
H595 C603 0.930 . S
H596 C604 0.930 . S
H597 C605 0.930 . S
H598 C608 0.930 . S
H599 C609 0.930 . S
C600 H594 0.930 . S
C600 C601 1.355 . S
C600 C602 1.415 . S
C601 C600 1.355 . S
C601 C603 1.419 1_545 S
C602 C600 1.415 . S
C602 C607 1.425 1_545 S
C602 C609 1.409 . S
C603 H595 0.930 . S
C603 C601 1.419 1_565 S
C603 C604 1.362 . S
C604 H596 0.930 . S
C604 C603 1.362 . S
C604 C607 1.409 . S
C605 H597 0.930 . S
C605 C606 1.355 1_565 S
C605 C607 1.415 . S
C606 C605 1.355 1_545 S
C606 C608 1.419 . S
C607 C602 1.425 1_565 S
C607 C604 1.409 . S
C607 C605 1.415 . S
C608 H598 0.930 . S
C608 C606 1.419 . S
C608 C609 1.362 . S
C609 H599 0.930 . S
C609 C602 1.409 . S
C609 C608 1.362 . S
H610 C616 0.930 . S
H611 C619 0.930 . S
H612 C620 0.930 . S
H613 C621 0.930 . S
H614 C624 0.930 . S
H615 C625 0.930 . S
C616 H610 0.930 . S
C616 C617 1.355 . S
C616 C618 1.415 . S
C617 C616 1.355 . S
C617 C619 1.419 . S
C618 C616 1.415 . S
C618 C623 1.425 . S
C618 C625 1.409 . S
C619 H611 0.930 . S
C619 C617 1.419 . S
C619 C620 1.362 . S
C620 H612 0.930 . S
C620 C619 1.362 . S
C620 C623 1.409 . S
C621 H613 0.930 . S
C621 C622 1.355 . S
C621 C623 1.415 . S
C622 C621 1.355 . S
C622 C624 1.419 . S
C623 C618 1.425 . S
C623 C620 1.409 . S
C623 C621 1.415 . S
C624 H614 0.930 . S
C624 C622 1.419 . S
C624 C625 1.362 . S
C625 H615 0.930 . S
C625 C618 1.409 . S
C625 C624 1.362 . S
H626 C632 0.930 . S
H627 C635 0.930 . S
H628 C636 0.930 . S
H629 C637 0.930 . S
H630 C640 0.930 . S
H631 C641 0.930 . S
C632 H626 0.930 . S
C632 C633 1.355 . S
C632 C634 1.415 . S
C633 C632 1.355 . S
C633 C635 1.419 1_455 S
C634 C632 1.415 . S
C634 C639 1.425 1_455 S
C634 C641 1.409 . S
C635 H627 0.930 . S
C635 C633 1.419 1_655 S
C635 C636 1.362 . S
C636 H628 0.930 . S
C636 C635 1.362 . S
C636 C639 1.409 . S
C637 H629 0.930 . S
C637 C638 1.355 . S
C637 C639 1.415 . S
C638 C637 1.355 . S
C638 C640 1.419 1_655 S
C639 C634 1.425 1_655 S
C639 C636 1.409 . S
C639 C637 1.415 . S
C640 H630 0.930 . S
C640 C638 1.419 1_455 S
C640 C641 1.362 . S
C641 H631 0.930 . S
C641 C634 1.409 . S
C641 C640 1.362 . S
C361 C24 2.997 . S
C366 C331 2.946 . S
C377 C66 1.192 . S
C382 C258 1.204 . S
C393 C93 1.896 . S
C398 C297 1.862 . S
C409 C13 3.123 . S
C414 C336 3.041 . S
C430 C253 1.297 . S
C425 C57 1.306 . S
C446 C292 1.954 . S
C441 C104 2.021 . S
C457 C64 2.009 . S
C462 C180 1.949 . S
C473 C97 0.750 . S
C478 C214 0.696 . S
C489 C17 1.328 . S
C494 C136 1.331 . S
C510 C175 1.868 . S
C505 C53 1.899 . S
C526 C219 0.273 . S
C521 C106 0.559 . S
C537 C26 1.204 . S
C542 C141 1.245 . S
C558 C199 1.072 . S
C553 C2 1.049 . S
C569 C63 1.474 . S
C574 C121 1.492 . S
C585 C82 1.367 . S
C590 C160 1.380 . S
C606 C277 1.400 . S
C601 C42 1.397 . S
C622 C316 1.792 1_556 S
C617 C103 1.756 . S
C633 C23 1.494 . S
C638 C238 1.503 . S
