# Generated by pormake.
# Topology zzz, (3,6)-cn, num edge types: 1
# Building blocks:
#     Node 0, Type 0, BuildingBlock: BETDAH_clean_linker_0, # of connection points: 3
#     Node 1, Type 0, BuildingBlock: BETDAH_clean_linker_0, # of connection points: 3
#     Node 2, Type 0, BuildingBlock: BETDAH_clean_linker_0, # of connection points: 3
#     Node 3, Type 0, BuildingBlock: BETDAH_clean_linker_0, # of connection points: 3
#     Node 4, Type 0, BuildingBlock: BETDAH_clean_linker_0, # of connection points: 3
#     Node 5, Type 0, BuildingBlock: BETDAH_clean_linker_0, # of connection points: 3
#     Node 6, Type 0, BuildingBlock: BETDAH_clean_linker_0, # of connection points: 3
#     Node 7, Type 0, BuildingBlock: BETDAH_clean_linker_0, # of connection points: 3
#     Node 8, Type 1, BuildingBlock: JUFBIX_clean_sbu_0, # of connection points: 6
#     Node 9, Type 1, BuildingBlock: JUFBIX_clean_sbu_0, # of connection points: 6
#     Node 10, Type 1, BuildingBlock: JUFBIX_clean_sbu_0, # of connection points: 6
#     Node 11, Type 1, BuildingBlock: JUFBIX_clean_sbu_0, # of connection points: 6
#     Edge 12, Type (0, 1), BuildingBlock: UVAHIK_clean_linker_0, # of connection points: 2
#     Edge 13, Type (0, 1), BuildingBlock: UVAHIK_clean_linker_0, # of connection points: 2
#     Edge 14, Type (0, 1), BuildingBlock: UVAHIK_clean_linker_0, # of connection points: 2
#     Edge 15, Type (0, 1), BuildingBlock: UVAHIK_clean_linker_0, # of connection points: 2
#     Edge 16, Type (0, 1), BuildingBlock: UVAHIK_clean_linker_0, # of connection points: 2
#     Edge 17, Type (0, 1), BuildingBlock: UVAHIK_clean_linker_0, # of connection points: 2
#     Edge 18, Type (0, 1), BuildingBlock: UVAHIK_clean_linker_0, # of connection points: 2
#     Edge 19, Type (0, 1), BuildingBlock: UVAHIK_clean_linker_0, # of connection points: 2
#     Edge 20, Type (0, 1), BuildingBlock: UVAHIK_clean_linker_0, # of connection points: 2
#     Edge 21, Type (0, 1), BuildingBlock: UVAHIK_clean_linker_0, # of connection points: 2
#     Edge 22, Type (0, 1), BuildingBlock: UVAHIK_clean_linker_0, # of connection points: 2
#     Edge 23, Type (0, 1), BuildingBlock: UVAHIK_clean_linker_0, # of connection points: 2
#     Edge 24, Type (0, 1), BuildingBlock: UVAHIK_clean_linker_0, # of connection points: 2
#     Edge 25, Type (0, 1), BuildingBlock: UVAHIK_clean_linker_0, # of connection points: 2
#     Edge 26, Type (0, 1), BuildingBlock: UVAHIK_clean_linker_0, # of connection points: 2
#     Edge 27, Type (0, 1), BuildingBlock: UVAHIK_clean_linker_0, # of connection points: 2
#     Edge 28, Type (0, 1), BuildingBlock: UVAHIK_clean_linker_0, # of connection points: 2
#     Edge 29, Type (0, 1), BuildingBlock: UVAHIK_clean_linker_0, # of connection points: 2
#     Edge 30, Type (0, 1), BuildingBlock: UVAHIK_clean_linker_0, # of connection points: 2
#     Edge 31, Type (0, 1), BuildingBlock: UVAHIK_clean_linker_0, # of connection points: 2
#     Edge 32, Type (0, 1), BuildingBlock: UVAHIK_clean_linker_0, # of connection points: 2
#     Edge 33, Type (0, 1), BuildingBlock: UVAHIK_clean_linker_0, # of connection points: 2
#     Edge 34, Type (0, 1), BuildingBlock: UVAHIK_clean_linker_0, # of connection points: 2
#     Edge 35, Type (0, 1), BuildingBlock: UVAHIK_clean_linker_0, # of connection points: 2
# Relax obj value: 0.129
# Max RMSD: 0.180
# Mean RMSD: 0.087
data_MOF--net-zzz--node1-JUFBIX_clean_sbu_0--node2-BETDAH_clean_linker_0--edge1-UVAHIK_clean_linker_0
_symmetry_space_group_name_H-M    P1
_symmetry_Int_Tables_number       1
_symmetry_cell_setting            triclinic
loop_
_symmetry_equiv_pos_as_xyz
'x, y, z'
_cell_length_a     66.801823
_cell_length_b     66.245307
_cell_length_c     22.429811
_cell_angle_alpha  83.210233
_cell_angle_beta   89.815374
_cell_angle_gamma 91.30651
loop_
_atom_site_label
_atom_site_type_symbol
_atom_site_fract_x
_atom_site_fract_y
_atom_site_fract_z
_atom_type_partial_charge
H0 H 0.83171 0.49851 0.25719 0.0
H1 H 0.77573 0.51382 0.17247 0.0
H2 H 0.7844 0.52103 0.35945 0.0
C3 C 0.81637 0.50333 0.26042 0.0
C4 C 0.80942 0.5092 0.31457 0.0
C5 C 0.80439 0.5051 0.20911 0.0
C6 C 0.78484 0.51219 0.2125 0.0
C7 C 0.77737 0.51751 0.26736 0.0
C8 C 0.78992 0.51643 0.31774 0.0
N9 N 0.75752 0.52431 0.27314 0.0
C10 C 0.74275 0.52268 0.23034 0.0
H11 H 0.96488 0.81419 0.24253 0.0
H12 H 0.97776 0.7581 0.17336 0.0
H13 H 0.96708 0.75889 0.36298 0.0
C14 C 0.96647 0.79781 0.24964 0.0
C15 C 0.96511 0.78777 0.30796 0.0
C16 C 0.97126 0.78727 0.2011 0.0
C17 C 0.97401 0.76619 0.21096 0.0
C18 C 0.97208 0.75575 0.26937 0.0
C19 C 0.968 0.76674 0.31779 0.0
N20 N 0.97447 0.73438 0.28114 0.0
C21 C 0.97708 0.72163 0.23679 0.0
H22 H 0.69191 0.00868 0.14975 0.0
H23 H 0.74707 0.99572 0.06512 0.0
H24 H 0.74099 0.98483 0.2578 0.0
C25 C 0.7073 0.00384 0.15376 0.0
C26 C 0.71508 0.99719 0.21046 0.0
C27 C 0.7187 0.00331 0.10154 0.0
C28 C 0.73838 0.99636 0.10569 0.0
C29 C 0.74652 0.98985 0.16249 0.0
C30 C 0.73471 0.99002 0.21434 0.0
N31 N 0.76632 0.98263 0.16933 0.0
C32 C 0.78126 0.98611 0.1258 0.0
H33 H 0.54421 0.67846 0.1838 0.0
H34 H 0.53039 0.73666 0.08911 0.0
H35 H 0.53329 0.72885 0.28247 0.0
C36 C 0.54142 0.69452 0.18425 0.0
C37 C 0.53961 0.70227 0.23932 0.0
C38 C 0.53791 0.70672 0.13006 0.0
C39 C 0.53334 0.72729 0.13093 0.0
C40 C 0.53213 0.73544 0.18614 0.0
C41 C 0.53487 0.72274 0.23999 0.0
N42 N 0.52756 0.75608 0.18962 0.0
C43 C 0.52769 0.77117 0.141 0.0
H44 H 0.1766 0.47505 0.31105 0.0
H45 H 0.2348 0.48609 0.38287 0.0
H46 H 0.22788 0.48111 0.19384 0.0
C47 C 0.19268 0.47694 0.30474 0.0
C48 C 0.20081 0.47738 0.24709 0.0
C49 C 0.20479 0.48032 0.35356 0.0
C50 C 0.2255 0.48342 0.34498 0.0
C51 C 0.23399 0.48322 0.28735 0.0
C52 C 0.22148 0.48068 0.23845 0.0
N53 N 0.25492 0.48578 0.27682 0.0
C54 C 0.26907 0.48547 0.32223 0.0
H55 H 0.04156 0.19179 0.30529 0.0
H56 H 0.02842 0.24797 0.3729 0.0
H57 H 0.03945 0.24691 0.1836 0.0
C58 C 0.04001 0.20816 0.29753 0.0
C59 C 0.04145 0.21804 0.23888 0.0
C60 C 0.03516 0.2188 0.34575 0.0
C61 C 0.03226 0.23983 0.33547 0.0
C62 C 0.03419 0.25015 0.27694 0.0
C63 C 0.03843 0.23909 0.2288 0.0
N64 N 0.03168 0.2715 0.26485 0.0
C65 C 0.02892 0.28422 0.30917 0.0
H66 H 0.31489 0.99492 0.36896 0.0
H67 H 0.26228 0.00613 0.46967 0.0
H68 H 0.26688 0.0285 0.28148 0.0
C69 C 0.29989 1.0008 0.37038 0.0
C70 C 0.29201 0.01146 0.31848 0.0
C71 C 0.28939 0.99891 0.42508 0.0
C72 C 0.27034 0.00737 0.42737 0.0
C73 C 0.26204 0.0178 0.37507 0.0
C74 C 0.27312 0.02012 0.32129 0.0
N75 N 0.24287 0.02662 0.37504 0.0
C76 C 0.2284 0.0217 0.41939 0.0
H77 H 0.48972 0.32698 0.35474 0.0
H78 H 0.4704 0.27068 0.45526 0.0
H79 H 0.46397 0.27943 0.26262 0.0
C80 C 0.48367 0.3116 0.35559 0.0
C81 C 0.47752 0.30456 0.30203 0.0
C82 C 0.48093 0.29959 0.41076 0.0
C83 C 0.47264 0.27988 0.41243 0.0
C84 C 0.46683 0.27241 0.35856 0.0
C85 C 0.46883 0.28502 0.30384 0.0
N86 N 0.45858 0.25251 0.35781 0.0
C87 C 0.46149 0.23663 0.40304 0.0
Co88 Co 0.01137 0.00815 0.8152 0.0
C89 C 0.96976 1.00184 0.81365 0.0
Co90 Co 0.99966 0.99731 0.73209 0.0
C91 C 0.02705 0.03729 0.8908 0.0
C92 C 0.0168 0.00968 0.94199 0.0
N93 N 0.01978 0.01839 0.88512 0.0
N94 N 0.02824 0.04089 0.94871 0.0
C95 C 0.02197 0.02343 0.98107 0.0
H96 H 0.03011 0.04871 0.8531 0.0
H97 H 0.01018 0.99471 0.95432 0.0
C98 C 0.04133 0.00362 0.73403 0.0
N99 N 0.99124 0.98704 0.66259 0.0
C100 C 0.98199 0.96892 0.65819 0.0
C101 C 0.99591 0.9945 0.60566 0.0
N102 N 0.98109 0.96449 0.6009 0.0
C103 C 0.98972 0.98074 0.56775 0.0
C104 C 1.00116 0.03901 0.72496 0.0
O105 O 0.03814 0.00892 0.78587 0.0
O106 O 0.02658 0.99804 0.70361 0.0
O107 O 0.99634 0.02444 0.69535 0.0
O108 O 0.00783 0.03501 0.77783 0.0
O109 O 0.97281 0.99661 0.76163 0.0
H110 H 0.00435 0.00848 0.59286 0.0
H111 H 0.97677 0.95884 0.69681 0.0
O112 O 0.98458 0.00736 0.84381 0.0
O113 O 0.01472 0.98094 0.85165 0.0
O114 O 0.00309 0.97046 0.76923 0.0
C115 C 0.00977 0.9664 0.82204 0.0
H116 H 0.02042 0.02101 0.02944 0.0
H117 H 0.99255 0.98215 0.51992 0.0
Co118 Co 0.49733 0.00782 0.80828 0.0
C119 C 0.50896 0.96743 0.81047 0.0
Co120 Co 0.50917 0.99996 0.72207 0.0
C121 C 0.46804 0.02004 0.88998 0.0
C122 C 0.4943 0.009 0.93615 0.0
N123 N 0.48655 0.01322 0.8808 0.0
N124 N 0.4637 0.0199 0.94887 0.0
C125 C 0.48031 0.01311 0.97806 0.0
H126 H 0.45771 0.02445 0.854 0.0
H127 H 0.5088 0.00244 0.94554 0.0
C128 C 0.4975 0.04039 0.72006 0.0
N129 N 0.51977 0.99478 0.64901 0.0
C130 C 0.53868 0.98958 0.63702 0.0
C131 C 0.51114 0.99881 0.59476 0.0
N132 N 0.5423 0.99069 0.57751 0.0
C133 C 0.52497 0.99639 0.55075 0.0
C134 C 0.46839 0.99364 0.73266 0.0
O135 O 0.49335 0.03512 0.77512 0.0
O136 O 0.50445 0.02729 0.68888 0.0
O137 O 0.48321 0.99186 0.69821 0.0
O138 O 0.47133 1.00045 0.78252 0.0
O139 O 0.51378 0.97276 0.75585 0.0
H140 H 0.49614 0.00439 0.58752 0.0
H141 H 0.55003 0.98654 0.67103 0.0
O142 O 0.50141 0.98043 0.84091 0.0
O143 O 0.52348 0.01507 0.83335 0.0
O144 O 0.53499 0.00801 0.74683 0.0
C145 C 0.53818 0.01391 0.79784 0.0
H146 H 0.48187 0.01018 0.0263 0.0
H147 H 0.52273 0.9995 0.50279 0.0
Co148 Co 0.52287 0.50161 0.77562 0.0
C149 C 0.49935 0.47812 0.86157 0.0
Co150 Co 0.49024 0.50591 0.76483 0.0
C151 C 0.561 0.49981 0.83554 0.0
C152 C 0.56343 0.49319 0.74474 0.0
N153 N 0.55007 0.49775 0.78601 0.0
N154 N 0.58068 0.49683 0.82683 0.0
C155 C 0.58223 0.49257 0.7697 0.0
H156 H 0.55459 0.50353 0.87714 0.0
H157 H 0.55978 0.4909 0.69903 0.0
C158 C 0.51372 0.5294 0.6789 0.0
N159 N 0.46288 0.51033 0.75331 0.0
C160 C 0.44883 0.49826 0.7311 0.0
C161 C 0.45341 0.52784 0.7584 0.0
N162 N 0.43113 0.50761 0.72174 0.0
C163 C 0.43399 0.52619 0.73939 0.0
C164 C 0.50875 0.53313 0.83356 0.0
O165 O 0.52817 0.52025 0.70614 0.0
O166 O 0.4959 0.52505 0.69682 0.0
O167 O 0.49195 0.52739 0.81432 0.0
O168 O 0.5243 0.52355 0.82251 0.0
O169 O 0.48481 0.48671 0.83296 0.0
H170 H 0.46038 0.54146 0.77183 0.0
H171 H 0.45167 0.48313 0.72011 0.0
O172 O 0.51722 0.48302 0.84499 0.0
O173 O 0.52131 0.4797 0.72857 0.0
O174 O 0.48917 0.48431 0.71577 0.0
C175 C 0.50473 0.47435 0.70702 0.0
H176 H 0.59604 0.48985 0.74688 0.0
H177 H 0.42325 0.53825 0.73522 0.0
Co178 Co 0.00726 0.51857 0.77807 0.0
C179 C 0.03005 0.49622 0.86508 0.0
Co180 Co 0.00463 0.48526 0.77718 0.0
C181 C 0.00585 0.55579 0.83204 0.0
C182 C 0.0123 0.56149 0.738 0.0
N183 N 0.00881 0.54634 0.78269 0.0
N184 N 0.00724 0.57625 0.82008 0.0
C185 C 0.01139 0.57988 0.76083 0.0
H186 H 0.00273 0.54771 0.87601 0.0
H187 H 0.01501 0.55931 0.69164 0.0
C188 C 0.98197 0.5075 0.6899 0.0
N189 N 0.00304 0.4575 0.77251 0.0
C190 C 0.00531 0.44809 0.72277 0.0
C191 C 0.99995 0.44235 0.81741 0.0
N192 N 0.00385 0.42763 0.73467 0.0
C193 C 1.00045 0.42398 0.79435 0.0
C194 C 0.97561 0.4996 0.84682 0.0
O195 O 0.98943 0.5228 0.71193 0.0
O196 O 0.98711 0.48975 0.71113 0.0
O197 O 0.98213 0.48335 0.8297 0.0
O198 O 0.98478 0.51636 0.83048 0.0
O199 O 0.02227 0.48101 0.84336 0.0
H200 H 0.99761 0.44452 0.86395 0.0
H201 H 0.00843 0.45617 0.67881 0.0
O202 O 0.02506 0.51405 0.844 0.0
O203 O 0.02979 0.52046 0.72534 0.0
O204 O 0.02707 0.48743 0.72493 0.0
C205 C 0.03625 0.50416 0.70826 0.0
H206 H 0.01311 0.59474 0.73537 0.0
H207 H 0.99834 0.40913 0.81964 0.0
C208 C 0.21131 0.02464 0.51574 0.0
C209 C 0.21169 0.01715 0.45992 0.0
C210 C 0.19424 0.02157 0.55244 0.0
C211 C 0.14682 0.99084 0.57413 0.0
H212 H 0.12808 0.03678 0.64919 0.0
C213 C 0.06538 0.99623 0.65404 0.0
C214 C 0.06188 0.00395 0.70879 0.0
C215 C 0.08464 0.99669 0.62944 0.0
C216 C 0.13325 0.02371 0.62927 0.0
H217 H 0.1951 1.00054 0.39819 0.0
H218 H 0.1652 0.99529 0.46157 0.0
H219 H 0.1602 0.03934 0.59647 0.0
H220 H 0.07595 0.0182 0.78071 0.0
H221 H 0.10967 0.01907 0.73744 0.0
H222 H 0.11962 0.9754 0.60566 0.0
C223 C 0.17804 0.0032 0.47798 0.0
C224 C 0.15169 0.02515 0.59911 0.0
C225 C 0.19509 0.00627 0.4415 0.0
C226 C 0.07814 0.01212 0.73847 0.0
C227 C 0.09743 0.0127 0.71358 0.0
C228 C 0.12837 0.98943 0.60406 0.0
C229 C 0.17729 0.011 0.53367 0.0
C230 C 0.15856 0.00884 0.57032 0.0
C231 C 0.10089 0.00499 0.65876 0.0
C232 C 0.12121 0.00596 0.63116 0.0
H233 H 0.22405 0.03314 0.53048 0.0
H234 H 0.19427 0.02758 0.59529 0.0
H235 H 0.15181 0.97783 0.55353 0.0
H236 H 0.05321 0.98985 0.62991 0.0
H237 H 0.08673 0.99089 0.58674 0.0
C238 C 0.4495 0.20425 0.45794 0.0
C239 C 0.46484 0.21889 0.44522 0.0
C240 C 0.45326 0.18603 0.4939 0.0
C241 C 0.49476 0.15222 0.54079 0.0
H242 H 0.45538 0.12533 0.65229 0.0
C243 C 0.49915 0.06733 0.63168 0.0
C244 C 0.49424 0.06149 0.69234 0.0
C245 C 0.49602 0.08718 0.60526 0.0
C246 C 0.46663 0.13271 0.62177 0.0
H247 H 0.49588 0.22662 0.46025 0.0
H248 H 0.50254 0.19481 0.52391 0.0
H249 H 0.44909 0.15934 0.6023 0.0
H250 H 0.48218 0.07199 0.77287 0.0
H251 H 0.47683 0.1067 0.72676 0.0
H252 H 0.51234 0.12567 0.56038 0.0
C253 C 0.48766 0.1972 0.50582 0.0
C254 C 0.46293 0.15212 0.59266 0.0
C255 C 0.48386 0.21544 0.46987 0.0
C256 C 0.48612 0.07598 0.726 0.0
C257 C 0.48294 0.09585 0.6995 0.0
C258 C 0.49843 0.13281 0.56978 0.0
C259 C 0.47248 0.18213 0.5175 0.0
C260 C 0.47688 0.16204 0.5514 0.0
C261 C 0.48787 0.10169 0.6388 0.0
C262 C 0.48433 0.12273 0.61016 0.0
H263 H 0.43476 0.20666 0.43873 0.0
H264 H 0.4413 0.17469 0.50132 0.0
H265 H 0.50574 0.1593 0.50883 0.0
H266 H 0.50537 0.05655 0.60437 0.0
H267 H 0.4997 0.09107 0.55818 0.0
C268 C 0.30155 0.47343 0.36129 0.0
C269 C 0.28442 0.48482 0.36732 0.0
C270 C 0.31687 0.4733 0.40363 0.0
C271 C 0.32831 0.48481 0.55791 0.0
H272 H 0.38287 0.49051 0.4977 0.0
C273 C 0.39493 0.50896 0.69932 0.0
C274 C 0.41382 0.5008 0.69057 0.0
C275 C 0.37863 0.50438 0.66401 0.0
C276 C 0.36777 0.48855 0.51549 0.0
H277 H 0.26937 0.50476 0.42162 0.0
H278 H 0.29625 0.50478 0.4958 0.0
H279 H 0.35541 0.48778 0.42794 0.0
H280 H 0.43008 0.48065 0.63922 0.0
H281 H 0.40155 0.47232 0.57853 0.0
H282 H 0.34072 0.48589 0.64546 0.0
C283 C 0.29785 0.49574 0.45896 0.0
C284 C 0.35199 0.48702 0.4754 0.0
C285 C 0.28254 0.49586 0.41648 0.0
C286 C 0.41577 0.48715 0.64749 0.0
C287 C 0.39945 0.48257 0.61213 0.0
C288 C 0.34411 0.48632 0.59808 0.0
C289 C 0.31529 0.4846 0.45273 0.0
C290 C 0.33206 0.48531 0.49602 0.0
C291 C 0.3808 0.49148 0.61905 0.0
C292 C 0.36403 0.48839 0.57727 0.0
H293 H 0.30317 0.46476 0.32356 0.0
H294 H 0.32995 0.46435 0.39791 0.0
H295 H 0.31315 0.48321 0.57537 0.0
H296 H 0.39284 0.51928 0.73266 0.0
H297 H 0.36454 0.51162 0.6704 0.0
C298 C 0.04288 0.30817 0.37508 0.0
C299 C 0.0263 0.29787 0.35404 0.0
C300 C 0.04032 0.32184 0.41739 0.0
C301 C 0.00213 0.35359 0.47833 0.0
H302 H 0.04033 0.3562 0.60713 0.0
C303 C 0.00233 0.41811 0.6311 0.0
C304 C 0.00598 0.41285 0.69266 0.0
C305 C 0.00463 0.40388 0.59034 0.0
C306 C 0.02943 0.35557 0.57173 0.0
H307 H 0.99418 0.29329 0.3601 0.0
H308 H 0.98959 0.31705 0.43463 0.0
H309 H 0.04447 0.33135 0.53632 0.0
H310 H 0.01508 0.38837 0.75922 0.0
H311 H 0.01872 0.3635 0.68844 0.0
H312 H 0.9869 0.37758 0.5143 0.0
C313 C 0.00455 0.31487 0.41816 0.0
C314 C 0.03194 0.34147 0.53068 0.0
C315 C 0.00715 0.30119 0.37588 0.0
C316 C 0.01194 0.39294 0.71235 0.0
C317 C 0.01426 0.37872 0.67158 0.0
C318 C 0.99964 0.36771 0.51933 0.0
C319 C 0.0211 0.32544 0.43929 0.0
C320 C 0.01833 0.34031 0.48342 0.0
C321 C 0.01067 0.38401 0.61003 0.0
C322 C 0.01326 0.3689 0.56654 0.0
H323 H 0.05778 0.3058 0.35843 0.0
H324 H 0.05336 0.32988 0.43205 0.0
H325 H 0.99149 0.35328 0.44212 0.0
H326 H 0.99751 0.4332 0.6143 0.0
H327 H 0.00193 0.40856 0.54321 0.0
C328 C 0.81522 1.00017 0.10707 0.0
C329 C 0.79866 0.9895 0.08747 0.0
C330 C 0.83293 1.00204 0.07346 0.0
C331 C 0.85473 0.99835 0.92378 0.0
H332 H 0.90356 0.98866 0.0147 0.0
C333 C 0.93303 0.99243 0.81232 0.0
C334 C 0.94936 1.00122 0.84008 0.0
C335 C 0.91404 0.99113 0.83952 0.0
C336 C 0.89012 0.99166 0.98857 0.0
H337 H 0.78705 0.97277 0.01748 0.0
H338 H 0.81819 0.97602 0.95797 0.0
H339 H 0.8715 0.9866 0.06682 0.0
H340 H 0.95838 0.01612 0.91719 0.0
H341 H 0.92543 0.01419 0.96368 0.0
H342 H 0.87351 0.00356 0.84543 0.0
C343 C 0.81748 0.98307 -0.00091 0.0
C344 C 0.87172 0.99046 0.01852 0.0
C345 C 0.79973 0.98115 0.03302 0.0
C346 C 0.94619 0.00907 0.89479 0.0
C347 C 0.92728 0.00785 0.92171 0.0
C348 C 0.87323 0.99965 0.89369 0.0
C349 C 0.8344 0.99322 0.01958 0.0
C350 C 0.85382 0.99399 0.98665 0.0
C351 C 0.91101 0.99862 0.89496 0.0
C352 C 0.89117 0.99653 0.92588 0.0
H353 H 0.81461 0.00671 0.1491 0.0
H354 H 0.84557 0.01024 0.08997 0.0
H355 H 0.8412 1.00124 0.89801 0.0
H356 H 0.93498 0.98622 0.77019 0.0
H357 H 0.90186 0.98381 0.81787 0.0
C358 C 0.54501 0.80142 0.08956 0.0
C359 C 0.52801 0.78858 0.09594 0.0
C360 C 0.5446 0.81975 0.05173 0.0
C361 C 0.51643 0.84889 0.92921 0.0
H362 H 0.53727 0.89558 0.00047 0.0
C363 C 0.51857 0.93121 0.80496 0.0
C364 C 0.51215 0.94642 0.83891 0.0
C365 C 0.52151 0.9114 0.83245 0.0
C366 C 0.53136 0.88271 0.97996 0.0
H367 H 0.49751 0.78407 0.06748 0.0
H368 H 0.49667 0.81623 0.00109 0.0
H369 H 0.54073 0.8616 0.05349 0.0
H370 H 0.5038 0.95273 0.92835 0.0
H371 H 0.50895 0.91832 0.976 0.0
H372 H 0.50663 0.87021 0.85626 0.0
C373 C 0.5104 0.81214 0.02458 0.0
C374 C 0.53355 0.8632 0.01002 0.0
C375 C 0.51082 0.7938 0.06259 0.0
C376 C 0.50877 0.94141 0.90083 0.0
C377 C 0.51185 0.9217 0.92828 0.0
C378 C 0.51435 0.86845 0.89888 0.0
C379 C 0.52714 0.82554 0.01981 0.0
C380 C 0.52593 0.84607 0.98536 0.0
C381 C 0.51828 0.90648 0.89449 0.0
C382 C 0.52155 0.88559 0.92439 0.0
H383 H 0.55839 0.79758 0.11522 0.0
H384 H 0.55782 0.8296 0.04842 0.0
H385 H 0.51052 0.83599 0.90887 0.0
H386 H 0.5213 0.93458 0.75715 0.0
H387 H 0.5266 0.90001 0.80534 0.0
C388 C 0.70935 0.53157 0.19115 0.0
C389 C 0.7269 0.52061 0.18792 0.0
C390 C 0.69364 0.52909 0.15141 0.0
C391 C 0.67321 0.49314 0.05153 0.0
H392 H 0.64301 0.53963 0.98426 0.0
C393 C 0.6147 0.48841 0.86383 0.0
C394 C 0.59681 0.49893 0.86844 0.0
C395 C 0.63056 0.49089 0.90303 0.0
C396 C 0.65115 0.52646 0.00318 0.0
H397 H 0.74222 0.49861 0.14151 0.0
H398 H 0.71491 0.49441 0.0711 0.0
H399 H 0.67094 0.54453 0.05116 0.0
H400 H 0.58168 0.52038 0.91794 0.0
H401 H 0.60921 0.52445 0.98682 0.0
H402 H 0.65344 0.47508 0.00336 0.0
C403 C 0.71305 0.50473 0.10461 0.0
C404 C 0.66717 0.52926 0.04153 0.0
C405 C 0.72873 0.50722 0.14447 0.0
C406 C 0.59513 0.51187 0.91349 0.0
C407 C 0.61102 0.5144 0.95254 0.0
C408 C 0.65721 0.49034 0.01308 0.0
C409 C 0.69526 0.51558 0.10777 0.0
C410 C 0.67838 0.51263 0.06628 0.0
C411 C 0.62895 0.504 0.94763 0.0
C412 C 0.64597 0.50696 0.98853 0.0
H413 H 0.70768 0.54189 0.22481 0.0
H414 H 0.68008 0.53747 0.15566 0.0
H415 H 0.6813 0.47995 0.07055 0.0
H416 H 0.61642 0.47819 0.83005 0.0
H417 H 0.64422 0.48278 0.89771 0.0
C418 C 0.99138 0.71294 0.14167 0.0
C419 C 0.97958 0.70755 0.19307 0.0
C420 C 0.99417 0.69898 0.10026 0.0
C421 C 0.99168 0.64375 0.08768 0.0
H422 H 0.99148 0.66103 0.9164 0.0
C423 C 0.99225 0.58624 0.91316 0.0
C424 C 0.0042 0.59107 0.86145 0.0
C425 C 0.98921 0.6006 0.95305 0.0
C426 C 0.99181 0.65599 0.9641 0.0
H427 H 0.96124 0.68384 0.24204 0.0
H428 H 0.96589 0.65942 0.16963 0.0
H429 H 0.98611 0.68588 0.98664 0.0
H430 H 0.02249 0.61483 0.81178 0.0
H431 H 0.01723 0.63986 0.88139 0.0
H432 H 0.99741 0.61389 0.06529 0.0
C433 C 0.97324 0.67423 0.16132 0.0
C434 C 0.98872 0.67024 0.00439 0.0
C435 C 0.97046 0.6882 0.20257 0.0
C436 C 0.013 0.61066 0.85067 0.0
C437 C 0.00996 0.62504 0.89061 0.0
C438 C 0.99478 0.62951 0.04745 0.0
C439 C 0.98523 0.67939 0.10978 0.0
C440 C 0.98858 0.66429 0.0667 0.0
C441 C 0.99804 0.62018 0.94235 0.0
C442 C 0.99485 0.63543 0.98512 0.0
H443 H 0.99858 0.72785 0.1338 0.0
H444 H 0.00366 0.7034 0.06144 0.0
H445 H 0.99203 0.63868 0.13537 0.0
H446 H 0.98493 0.57146 0.92242 0.0
H447 H 0.97966 0.59644 0.99186 0.0
C448 C 0.01275 0.20729 0.43311 0.0
C449 C 0.0316 0.20715 0.40533 0.0
C450 C 0.00767 0.19263 0.48124 0.0
C451 C 0.99714 0.14931 0.53574 0.0
H452 H 0.03423 0.12693 0.65734 0.0
C453 C 0.99527 0.06519 0.63686 0.0
C454 C 1.00031 0.06041 0.69756 0.0
C455 C 0.99643 0.08533 0.60987 0.0
C456 C 0.02353 0.13314 0.62431 0.0
H457 H 0.06045 0.19287 0.40853 0.0
H458 H 0.05176 0.16745 0.49275 0.0
H459 H 0.04196 0.15968 0.59926 0.0
H460 H 0.00954 0.07316 0.77831 0.0
H461 H 0.01147 0.1082 0.73119 0.0
H462 H 0.97898 0.12249 0.55965 0.0
C463 C 0.04085 0.17876 0.47771 0.0
C464 C 0.02804 0.15183 0.59079 0.0
C465 C 0.04583 0.19325 0.42938 0.0
C466 C 0.00573 0.07628 0.73127 0.0
C467 C 0.00691 0.09637 0.70428 0.0
C468 C 0.99267 0.13057 0.56909 0.0
C469 C 0.02146 0.17777 0.5026 0.0
C470 C 0.01514 0.15987 0.54513 0.0
C471 C 0.00264 0.10108 0.64303 0.0
C472 C 0.00605 0.12205 0.61273 0.0
H473 H 0.00149 0.21779 0.41498 0.0
H474 H 0.99269 0.19235 0.49999 0.0
H475 H 0.98699 0.155 0.50046 0.0
H476 H 0.99105 0.05333 0.60967 0.0
H477 H 0.99324 0.08843 0.5624 0.0
C478 C 0.31027 0.97187 0.47858 0.0
C479 C 0.29988 0.99002 0.47972 0.0
C480 C 0.3255 0.96681 0.51966 0.0
C481 C 0.35191 0.97946 0.65525 0.0
H482 H 0.39934 0.97645 0.55691 0.0
C483 C 0.43134 0.99749 0.73869 0.0
C484 C 0.44787 0.98858 0.7142 0.0
C485 C 0.412 0.9939 0.71815 0.0
C486 C 0.38635 0.97671 0.58573 0.0
H487 H 0.29561 0.01588 0.52869 0.0
H488 H 0.32218 0.00691 0.60124 0.0
H489 H 0.3666 0.97531 0.51163 0.0
H490 H 0.45709 0.96797 0.65178 0.0
H491 H 0.42335 0.96082 0.61803 0.0
H492 H 0.37171 0.98086 0.72955 0.0
C493 C 0.31858 0.99664 0.56844 0.0
C494 C 0.3675 0.97612 0.55952 0.0
C495 C 0.30333 1.00175 0.52706 0.0
C496 C 0.44463 0.97528 0.67077 0.0
C497 C 0.42526 0.97131 0.65121 0.0
C498 C 0.37084 0.97968 0.68191 0.0
C499 C 0.33054 0.97977 0.56279 0.0
C500 C 0.3501 0.97781 0.59368 0.0
C501 C 0.40869 0.98097 0.67345 0.0
C502 C 0.38837 0.9787 0.6472 0.0
H503 H 0.30775 0.96249 0.44276 0.0
H504 H 0.33431 0.95355 0.51496 0.0
H505 H 0.3387 0.98079 0.68254 0.0
H506 H 0.4334 0.00785 0.7722 0.0
H507 H 0.39978 1.00189 0.73586 0.0
C508 C 0.4691 0.31675 0.49617 0.0
C509 C 0.48507 0.30915 0.46558 0.0
C510 C 0.47257 0.33185 0.53375 0.0
C511 C 0.50937 0.37343 0.54415 0.0
H512 H 0.47585 0.38496 0.67682 0.0
C513 C 0.52064 0.44509 0.66559 0.0
C514 C 0.50326 0.45548 0.67788 0.0
C515 C 0.51924 0.42618 0.64403 0.0
C516 C 0.48525 0.38195 0.63958 0.0
H517 H 0.51721 0.30981 0.45367 0.0
H518 H 0.5235 0.33539 0.5218 0.0
H519 H 0.47274 0.35191 0.63905 0.0
H520 H 0.47077 0.45429 0.6761 0.0
H521 H 0.46838 0.42126 0.63821 0.0
H522 H 0.52177 0.40348 0.54448 0.0
C523 C 0.50823 0.33026 0.51557 0.0
C524 C 0.48351 0.36302 0.61802 0.0
C525 C 0.50471 0.31538 0.4774 0.0
C526 C 0.48445 0.44673 0.66692 0.0
C527 C 0.48307 0.42771 0.64584 0.0
C528 C 0.51121 0.39224 0.56601 0.0
C529 C 0.49211 0.3395 0.54151 0.0
C530 C 0.49538 0.3586 0.56949 0.0
C531 C 0.50045 0.41715 0.63475 0.0
C532 C 0.49899 0.39682 0.61338 0.0
H533 H 0.45381 0.31241 0.48668 0.0
H534 H 0.45977 0.33864 0.55259 0.0
H535 H 0.51843 0.37085 0.50579 0.0
H536 H 0.53535 0.45139 0.67373 0.0
H537 H 0.53289 0.41836 0.63609 0.0
C538 C 0.19559 0.50092 0.43523 0.0
C539 C 0.19498 0.48222 0.4116 0.0
C540 C 0.18203 0.50459 0.4802 0.0
C541 C 0.14373 0.48008 0.58761 0.0
H542 H 0.11346 0.52856 0.53957 0.0
C543 C 0.06794 0.52142 0.66574 0.0
C544 C 0.05533 0.50402 0.67471 0.0
C545 C 0.08701 0.52035 0.64034 0.0
C546 C 0.12194 0.51515 0.5543 0.0
H547 H 0.18108 0.45221 0.41901 0.0
H548 H 0.15766 0.4584 0.49791 0.0
H549 H 0.14504 0.52345 0.4891 0.0
H550 H 0.05253 0.47211 0.66182 0.0
H551 H 0.08548 0.47039 0.61697 0.0
H552 H 0.12029 0.47143 0.65133 0.0
C553 C 0.16848 0.47027 0.48215 0.0
C554 C 0.14008 0.51225 0.52558 0.0
C555 C 0.18186 0.4667 0.43694 0.0
C556 C 0.0619 0.48578 0.65595 0.0
C557 C 0.08088 0.48472 0.63077 0.0
C558 C 0.12562 0.48298 0.61629 0.0
C559 C 0.16785 0.48953 0.5025 0.0
C560 C 0.15085 0.49438 0.5407 0.0
C561 C 0.09381 0.50187 0.62369 0.0
C562 C 0.11422 0.50022 0.59861 0.0
H563 H 0.20548 0.51316 0.41585 0.0
H564 H 0.182 0.5195 0.49549 0.0
H565 H 0.15184 0.46631 0.60082 0.0
H566 H 0.06333 0.53568 0.67996 0.0
H567 H 0.09664 0.53383 0.63533 0.0
C568 C 0.96125 0.81346 0.11821 0.0
C569 C 0.97507 0.79904 0.14181 0.0
C570 C 0.96659 0.82792 0.07011 0.0
C571 C 0.01103 0.85605 0.01185 0.0
H572 H 0.97449 0.87963 0.89039 0.0
C573 C 0.01533 0.94012 0.91014 0.0
C574 C 0.01031 0.94499 0.84947 0.0
C575 C 0.01367 0.92003 0.93727 0.0
C576 C 0.98503 0.87308 0.92339 0.0
H577 H 0.00478 0.78746 0.13151 0.0
H578 H 0.01418 0.81283 0.04695 0.0
H579 H 0.96581 0.84714 0.94863 0.0
H580 H 1.00058 0.93243 0.76889 0.0
H581 H 0.99778 0.89747 0.81625 0.0
H582 H 0.03 0.88228 0.98776 0.0
C583 C 0.99926 0.81298 0.0659 0.0
C584 C 0.97998 0.85455 0.957 0.0
C585 C 0.99383 0.79837 0.11378 0.0
C586 C 0.00442 0.92924 0.81589 0.0
C587 C 0.00273 0.90919 0.84302 0.0
C588 C 0.01605 0.87465 0.97843 0.0
C589 C 0.98592 0.82833 0.04499 0.0
C590 C 0.99269 0.84608 0.00257 0.0
C591 C 0.00694 0.90442 0.90429 0.0
C592 C 0.00289 0.88359 0.9348 0.0
H593 H 0.9467 0.81425 0.13918 0.0
H594 H 0.95601 0.8396 0.05538 0.0
H595 H 0.02106 0.85003 0.04707 0.0
H596 H 0.0199 0.9519 0.93721 0.0
H597 H 0.01684 0.91687 0.98475 0.0
C598 C 0.7029 0.02865 0.02691 0.0
C599 C 0.70872 0.00858 0.04352 0.0
C600 C 0.68793 0.03285 0.98416 0.0
C601 C 0.6449 0.0337 0.945 0.0
H602 H 0.63075 1.00073 0.81917 0.0
C603 C 0.56323 0.02067 0.87643 0.0
C604 C 0.55895 0.01807 0.81654 0.0
C605 C 0.58305 0.02269 0.89509 0.0
C606 C 0.63455 0.01035 0.85348 0.0
H607 H 0.70458 0.97732 0.02662 0.0
H608 H 0.6782 0.98442 0.95281 0.0
H609 H 0.66434 0.99909 0.86106 0.0
H610 H 0.57207 0.01639 0.72865 0.0
H611 H 0.60657 0.02037 0.76094 0.0
H612 H 0.61519 0.045 0.93741 0.0
C613 C 0.68538 0.99709 0.97129 0.0
C614 C 0.65378 0.00923 0.87798 0.0
C615 C 0.70054 0.99296 0.01349 0.0
C616 C 0.57487 0.01824 0.77526 0.0
C617 C 0.59467 0.02039 0.79384 0.0
C618 C 0.62576 0.03492 0.92023 0.0
C619 C 0.6782 0.01696 0.95829 0.0
C620 C 0.65905 0.0205 0.92517 0.0
C621 C 0.59904 0.02231 0.8542 0.0
C622 C 0.62014 0.02285 0.87533 0.0
H623 H 0.7089 0.04087 0.05016 0.0
H624 H 0.68314 0.04838 0.97418 0.0
H625 H 0.64823 0.04243 0.98176 0.0
H626 H 0.55132 0.02049 0.9094 0.0
H627 H 0.58582 0.02382 0.94213 0.0
C628 C 0.51844 0.69605 0.04409 0.0
C629 C 0.5367 0.69671 0.07467 0.0
C630 C 0.51508 0.68156 0.00439 0.0
C631 C 0.53919 0.6419 0.92587 0.0
H632 H 0.49063 0.61058 0.97165 0.0
C633 C 0.52939 0.55857 0.88194 0.0
C634 C 0.51064 0.55212 0.86202 0.0
C635 C 0.53182 0.57767 0.90181 0.0
C636 C 0.50409 0.61929 0.95753 0.0
H637 H 0.56637 0.68432 0.08381 0.0
H638 H 0.56068 0.65923 0.01418 0.0
H639 H 0.4965 0.64323 0.00898 0.0
H640 H 0.4796 0.56045 0.84902 0.0
H641 H 0.48387 0.59382 0.8835 0.0
H642 H 0.54698 0.61771 0.87548 0.0
C643 C 0.5489 0.66975 0.02061 0.0
C644 C 0.50742 0.63807 0.97871 0.0
C645 C 0.5522 0.68411 0.06051 0.0
C646 C 0.49423 0.56492 0.8643 0.0
C647 C 0.49668 0.58406 0.88407 0.0
C648 C 0.53583 0.62313 0.90454 0.0
C649 C 0.52999 0.66765 0.99443 0.0
C650 C 0.52519 0.6494 0.96411 0.0
C651 C 0.51558 0.59079 0.90212 0.0
C652 C 0.51844 0.6114 0.92119 0.0
H653 H 0.50621 0.70551 0.0547 0.0
H654 H 0.50046 0.68049 0.98415 0.0
H655 H 0.55293 0.65037 0.91337 0.0
H656 H 0.54234 0.54906 0.88098 0.0
H657 H 0.54648 0.58218 0.91675 0.0
C658 C 0.81675 0.51822 0.1069 0.0
C659 C 0.81374 0.50172 0.15153 0.0
C660 C 0.83108 0.51724 0.06185 0.0
C661 C 0.86567 0.48418 0.99112 0.0
H662 H 0.9041 0.52831 0.00241 0.0
C663 C 0.94725 0.48122 0.90551 0.0
C664 C 0.95649 0.49951 0.88019 0.0
C665 C 0.92848 0.4813 0.93336 0.0
C666 C 0.89344 0.51606 0.99749 0.0
H667 H 0.82166 0.47066 0.18116 0.0
H668 H 0.8464 0.46874 0.10165 0.0
H669 H 0.87182 0.52867 0.05202 0.0
H670 H 0.9532 0.53221 0.8636 0.0
H671 H 0.92042 0.53231 0.91009 0.0
H672 H 0.88732 0.47156 0.93638 0.0
C673 C 0.83784 0.48244 0.10146 0.0
C674 C 0.87489 0.51631 0.02599 0.0
C675 C 0.82369 0.48351 0.14689 0.0
C676 C 0.94662 0.51786 0.88339 0.0
C677 C 0.92778 0.51791 0.91031 0.0
C678 C 0.88418 0.48407 0.96172 0.0
C679 C 0.84242 0.49966 0.06053 0.0
C680 C 0.8609 0.50029 0.02366 0.0
C681 C 0.91843 0.49966 0.93574 0.0
C682 C 0.89841 0.49992 0.96514 0.0
H683 H 0.80938 0.53246 0.10998 0.0
H684 H 0.83423 0.53065 0.0304 0.0
H685 H 0.85514 0.47163 0.98877 0.0
H686 H 0.9545 0.46684 0.90369 0.0
H687 H 0.92193 0.46698 0.95339 0.0
C688 C 0.05941 0.19088 0.19325 0.0
C689 C 0.04451 0.20561 0.18892 0.0
C690 C 0.05961 0.17602 0.154 0.0
C691 C 0.02374 0.14814 0.07113 0.0
H692 H 0.07099 0.12246 0.01687 0.0
C693 C 0.02226 0.06505 0.02248 0.0
C694 C 0.03191 0.06032 0.97028 0.0
C695 C 0.02461 0.08432 0.04123 0.0
C696 C 0.05765 0.12958 0.03116 0.0
H697 H 0.01897 0.21721 0.13767 0.0
H698 H 0.01935 0.19124 0.06852 0.0
H699 H 0.07439 0.15491 0.05844 0.0
H700 H 0.05205 0.07203 0.89777 0.0
H701 H 0.05626 0.1058 0.93086 0.0
H702 H 0.00704 0.12268 0.04519 0.0
C703 C 0.03078 0.19111 0.10268 0.0
C704 C 0.0596 0.14809 0.05525 0.0
C705 C 0.03068 0.2061 0.14179 0.0
C706 C 0.04431 0.07525 0.93794 0.0
C707 C 0.04681 0.09453 0.95704 0.0
C708 C 0.02182 0.12961 0.04751 0.0
C709 C 0.04482 0.17548 0.10975 0.0
C710 C 0.04269 0.1574 0.0765 0.0
C711 C 0.03676 0.09934 0.0085 0.0
C712 C 0.03878 0.11991 0.02841 0.0
H713 H 0.07029 0.19023 0.22913 0.0
H714 H 0.07055 0.16417 0.16098 0.0
H715 H 0.01044 0.15474 0.08768 0.0
H716 H 0.0124 0.05407 0.0481 0.0
H717 H 0.01689 0.08747 0.08155 0.0
C718 C 0.30838 0.0339 0.23331 0.0
C719 C 0.30441 0.01435 0.26307 0.0
C720 C 0.32297 0.03693 0.18794 0.0
C721 C 0.35474 0.01001 0.08748 0.0
H722 H 0.39377 0.05285 0.10785 0.0
C723 C 0.42667 0.02067 0.94351 0.0
C724 C 0.4445 0.02337 0.97519 0.0
C725 C 0.40804 0.02234 0.97079 0.0
C726 C 0.383 0.04083 0.10154 0.0
H727 H 0.3115 0.9825 0.26618 0.0
H728 H 0.33687 0.9877 0.18738 0.0
H729 H 0.36301 0.05007 0.16742 0.0
H730 H 0.4566 0.03084 0.05962 0.0
H731 H 0.42413 0.03334 0.10765 0.0
H732 H 0.37513 1.00015 0.02377 0.0
C733 C 0.32879 1.00074 0.19868 0.0
C734 C 0.36524 0.03939 0.13511 0.0
C735 C 0.31435 0.99775 0.24412 0.0
C736 C 0.4432 0.02843 0.03417 0.0
C737 C 0.42456 0.0301 0.06146 0.0
C738 C 0.37248 0.01146 0.05388 0.0
C739 C 0.3337 0.02042 0.17123 0.0
C740 C 0.35111 0.02368 0.12946 0.0
C741 C 0.40675 0.02675 0.03042 0.0
C742 C 0.38702 0.02662 0.06145 0.0
H743 H 0.30101 0.04697 0.24732 0.0
H744 H 0.32626 0.05225 0.16714 0.0
H745 H 0.34407 0.99785 0.08164 0.0
H746 H 0.42701 0.01656 0.89826 0.0
H747 H 0.39462 0.01988 0.94539 0.0
C748 C 0.49778 0.32869 0.23091 0.0
C749 C 0.47948 0.3184 0.2454 0.0
C750 C 0.49903 0.34431 0.18347 0.0
C751 C 0.46811 0.38312 0.10313 0.0
H752 H 0.51439 0.39233 0.99788 0.0
C753 C 0.47639 0.45212 0.91839 0.0
C754 C 0.49565 0.46099 0.90921 0.0
C755 C 0.47346 0.43424 0.95763 0.0
C756 C 0.50146 0.39009 0.02737 0.0
H757 H 0.44834 0.31572 0.22044 0.0
H758 H 0.45051 0.34317 0.13687 0.0
H759 H 0.51103 0.36072 0.06512 0.0
H760 H 0.52674 0.4586 0.93625 0.0
H761 H 0.52155 0.42778 0.00556 0.0
H762 H 0.45876 0.4127 0.06639 0.0
C763 C 0.46385 0.33916 0.16251 0.0
C764 C 0.49949 0.37193 0.06562 0.0
C765 C 0.46265 0.32335 0.20978 0.0
C766 C 0.51173 0.45209 0.94198 0.0
C767 C 0.50879 0.4343 0.9813 0.0
C768 C 0.47011 0.40136 0.06498 0.0
C769 C 0.48197 0.35008 0.14974 0.0
C770 C 0.48295 0.36836 0.10454 0.0
C771 C 0.48971 0.4249 0.98861 0.0
C772 C 0.48698 0.40519 0.02733 0.0
H773 H 0.51096 0.32513 0.25779 0.0
H774 H 0.51316 0.35252 0.17514 0.0
H775 H 0.45532 0.38093 0.1332 0.0
H776 H 0.46369 0.45854 0.89358 0.0
H777 H 0.45859 0.42736 0.96201 0.0
C778 C 0.17388 0.4591 0.1969 0.0
C779 C 0.18705 0.47591 0.19634 0.0
C780 C 0.15804 0.45942 0.15634 0.0
C781 C 0.13628 0.48918 0.02053 0.0
H782 H 0.08627 0.46633 0.09003 0.0
C783 C 0.05935 0.50981 0.91815 0.0
C784 C 0.04659 0.49332 0.90872 0.0
C785 C 0.07664 0.50672 0.95253 0.0
C786 C 0.10016 0.47263 0.06992 0.0
H787 H 0.19461 0.50592 0.15214 0.0
H788 H 0.16666 0.50688 0.08224 0.0
H789 H 0.11704 0.46212 0.14758 0.0
H790 H 0.04153 0.4608 0.93003 0.0
H791 H 0.07155 0.45553 0.99161 0.0
H792 H 0.11901 0.50037 0.94377 0.0
C793 C 0.16872 0.49316 0.11271 0.0
C794 C 0.11787 0.4701 0.10263 0.0
C795 C 0.18477 0.49266 0.1527 0.0
C796 C 0.05104 0.47381 0.93657 0.0
C797 C 0.06821 0.47078 0.97174 0.0
C798 C 0.11849 0.49194 0.98821 0.0
C799 C 0.15478 0.47678 0.11521 0.0
C800 C 0.13618 0.47842 0.07853 0.0
C801 C 0.08138 0.48714 0.97892 0.0
C802 C 0.10026 0.4838 0.01276 0.0
H803 H 0.1754 0.44602 0.23033 0.0
H804 H 0.14798 0.4463 0.1586 0.0
H805 H 0.15008 0.4955 -0.0 0.0
H806 H 0.0564 0.52502 0.89714 0.0
H807 H 0.08642 0.51963 0.95806 0.0
C808 C 0.94434 0.81035 0.36297 0.0
C809 C 0.96227 0.80008 0.35791 0.0
C810 C 0.94313 0.82568 0.40057 0.0
C811 C 0.97141 0.8516 0.51579 0.0
H812 H 0.9427 0.89849 0.44404 0.0
C813 C 0.97332 0.92738 0.62042 0.0
C814 C 0.975 0.94538 0.58025 0.0
C815 C 0.96897 0.90868 0.59955 0.0
C816 C 0.95092 0.88561 0.46461 0.0
H817 H 0.99277 0.79712 0.38892 0.0
H818 H 0.99102 0.82426 0.45321 0.0
H819 H 0.94067 0.86706 0.39893 0.0
H820 H 0.97247 0.95761 0.48651 0.0
H821 H 0.96581 0.92516 0.45012 0.0
H822 H 0.98275 0.87068 0.57905 0.0
C823 C 0.97761 0.82021 0.42996 0.0
C824 C 0.94946 0.86736 0.43928 0.0
C825 C 0.97868 0.80463 0.39311 0.0
C826 C 0.97164 0.94416 0.51888 0.0
C827 C 0.9675 0.92546 0.498 0.0
C828 C 0.97308 0.86997 0.54069 0.0
C829 C 0.96001 0.83142 0.43269 0.0
C830 C 0.95992 0.85015 0.4639 0.0
C831 C 0.96631 0.90741 0.53792 0.0
C832 C 0.96313 0.88735 0.51479 0.0
H833 H 0.93155 0.80713 0.33574 0.0
H834 H 0.92916 0.83356 0.40257 0.0
H835 H 0.97944 0.83865 0.5367 0.0
H836 H 0.97589 0.92748 0.66793 0.0
H837 H 0.96786 0.89519 0.63185 0.0
C838 C 0.6894 0.01345 0.26948 0.0
C839 C 0.70211 0.99712 0.26446 0.0
C840 C 0.675 0.01232 0.31494 0.0
C841 C 0.64542 0.97427 0.41393 0.0
H842 H 0.62564 0.02267 0.474 0.0
C843 C 0.57589 0.976 0.57251 0.0
C844 C 0.56157 0.98997 0.54907 0.0
C845 C 0.5949 0.97595 0.54598 0.0
C846 C 0.63109 0.00902 0.45778 0.0
H847 H 0.71046 0.96725 0.30556 0.0
H848 H 0.68564 0.96551 0.38651 0.0
H849 H 0.6569 0.02461 0.41694 0.0
H850 H 0.55599 0.01504 0.48046 0.0
H851 H 0.58921 0.01516 0.43477 0.0
H852 H 0.61942 0.95879 0.45518 0.0
C853 C 0.68651 0.97902 0.35421 0.0
C854 C 0.64893 0.01011 0.42484 0.0
C855 C 0.70091 0.98011 0.30829 0.0
C856 C 0.56662 0.00393 0.49891 0.0
C857 C 0.58568 0.00414 0.47322 0.0
C858 C 0.6277 0.97312 0.44777 0.0
C859 C 0.67303 0.99491 0.35718 0.0
C860 C 0.65598 0.99293 0.40068 0.0
C861 C 0.6 0.9902 0.49653 0.0
C862 C 0.62009 0.99064 0.46832 0.0
H863 H 0.69015 0.0269 0.23693 0.0
H864 H 0.66481 0.02479 0.31507 0.0
H865 H 0.65023 0.96076 0.39564 0.0
H866 H 0.5723 0.9651 0.61114 0.0
H867 H 0.60571 0.96505 0.56465 0.0
C868 C 0.52443 0.68585 0.33528 0.0
C869 C 0.54073 0.68812 0.29531 0.0
C870 C 0.5236 0.66973 0.38151 0.0
C871 C 0.544 0.61828 0.41821 0.0
H872 H 0.51584 0.62035 0.56867 0.0
C873 C 0.537 0.55044 0.6074 0.0
C874 C 0.51765 0.5465 0.63144 0.0
C875 C 0.54106 0.56789 0.56731 0.0
C876 C 0.52368 0.61957 0.52667 0.0
H877 H 0.56958 0.6764 0.27446 0.0
H878 H 0.56861 0.64874 0.35669 0.0
H879 H 0.5219 0.65163 0.50139 0.0
H880 H 0.48731 0.55756 0.63137 0.0
H881 H 0.49448 0.58802 0.56181 0.0
H882 H 0.5459 0.58619 0.44417 0.0
C883 C 0.55611 0.6589 0.35133 0.0
C884 C 0.52713 0.63747 0.48805 0.0
C885 C 0.55679 0.67485 0.30465 0.0
C886 C 0.50236 0.5601 0.61352 0.0
C887 C 0.50648 0.57765 0.57415 0.0
C888 C 0.54078 0.60044 0.45723 0.0
C889 C 0.53918 0.6557 0.38906 0.0
C890 C 0.53707 0.63702 0.43286 0.0
C891 C 0.52591 0.58184 0.55125 0.0
C892 C 0.53031 0.60088 0.51135 0.0
H893 H 0.51174 0.69575 0.32846 0.0
H894 H 0.51022 0.66767 0.40912 0.0
H895 H 0.55136 0.61721 0.37566 0.0
H896 H 0.5491 0.54026 0.62045 0.0
H897 H 0.55617 0.5708 0.55028 0.0
C898 C 0.82821 0.52683 0.3907 0.0
C899 C 0.82349 0.50891 0.36544 0.0
C900 C 0.84476 0.52766 0.42858 0.0
C901 C 0.89316 0.50291 0.45355 0.0
H902 H 0.89637 0.53072 0.59597 0.0
C903 C 0.95882 0.49304 0.61794 0.0
C904 C 0.96583 0.50994 0.64481 0.0
C905 C 0.9419 0.49442 0.58154 0.0
C906 C 0.89577 0.52316 0.55574 0.0
H907 H 0.83117 0.47742 0.36354 0.0
H908 H 0.85971 0.47867 0.4306 0.0
H909 H 0.86467 0.52957 0.54192 0.0
H910 H 0.96096 0.54177 0.65294 0.0
H911 H 0.93138 0.54421 0.58868 0.0
H912 H 0.92412 0.49641 0.46715 0.0
C913 C 0.85105 0.49224 0.42002 0.0
C914 C 0.8776 0.52243 0.52498 0.0
C915 C 0.83463 0.49145 0.38214 0.0
C916 C 0.95596 0.52849 0.63271 0.0
C917 C 0.93892 0.52984 0.59644 0.0
C918 C 0.91125 0.50364 0.48413 0.0
C919 C 0.85679 0.51056 0.44174 0.0
C920 C 0.87604 0.51201 0.47409 0.0
C921 C 0.93154 0.51272 0.5712 0.0
C922 C 0.91271 0.51351 0.53605 0.0
H923 H 0.81994 0.54053 0.37799 0.0
H924 H 0.84881 0.54198 0.44464 0.0
H925 H 0.89261 0.49523 0.41351 0.0
H926 H 0.96606 0.47851 0.62641 0.0
H927 H 0.93651 0.48089 0.5633 0.0
loop_
_geom_bond_atom_site_label_1
_geom_bond_atom_site_label_2
_geom_bond_distance
_geom_bond_site_symmetry_2
_ccdc_geom_bond_type
H0 C3 0.929 . S
H1 C6 0.929 . S
H2 C8 0.930 . S
C3 H0 0.929 . S
C3 C4 1.398 . S
C3 C5 1.396 . S
C4 C3 1.398 . S
C4 C8 1.407 . S
C5 C3 1.396 . S
C5 C6 1.394 . S
C6 H1 0.929 . S
C6 C5 1.394 . S
C6 C7 1.382 . S
C7 C6 1.382 . S
C7 C8 1.392 . S
C7 N9 1.420 . S
C8 H2 0.930 . S
C8 C4 1.407 . S
C8 C7 1.392 . S
N9 C7 1.420 . S
N9 C10 1.244 . S
C10 N9 1.244 . S
H11 C14 0.929 . S
H12 C17 0.929 . S
H13 C19 0.930 . S
C14 H11 0.929 . S
C14 C15 1.398 . S
C14 C16 1.396 . S
C15 C14 1.398 . S
C15 C19 1.407 . S
C16 C14 1.396 . S
C16 C17 1.394 . S
C17 H12 0.929 . S
C17 C16 1.394 . S
C17 C18 1.382 . S
C18 C17 1.382 . S
C18 C19 1.392 . S
C18 N20 1.420 . S
C19 H13 0.930 . S
C19 C15 1.407 . S
C19 C18 1.392 . S
N20 C18 1.420 . S
N20 C21 1.244 . S
C21 N20 1.244 . S
H22 C25 0.929 . S
H23 C28 0.929 1_556 S
H24 C30 0.930 . S
C25 H22 0.929 . S
C25 C26 1.393 1_565 S
C25 C27 1.396 1_565 S
C26 C25 1.393 1_545 S
C26 C30 1.412 . S
C27 C25 1.396 1_545 S
C27 C28 1.396 . S
C28 H23 0.929 1_554 S
C28 C27 1.396 . S
C28 C29 1.382 . S
C29 C28 1.382 . S
C29 C30 1.392 . S
C29 N31 1.420 . S
C30 H24 0.930 . S
C30 C26 1.412 . S
C30 C29 1.392 . S
N31 C29 1.420 . S
N31 C32 1.229 1_545 S
C32 N31 1.229 1_565 S
H33 C36 0.929 . S
H34 C39 0.929 . S
H35 C41 0.930 . S
C36 H33 0.929 . S
C36 C37 1.398 . S
C36 C38 1.396 . S
C37 C36 1.398 . S
C37 C41 1.407 . S
C38 C36 1.396 . S
C38 C39 1.394 . S
C39 H34 0.929 . S
C39 C38 1.394 . S
C39 C40 1.382 . S
C40 C39 1.382 . S
C40 C41 1.392 . S
C40 N42 1.420 . S
C41 H35 0.930 . S
C41 C37 1.407 . S
C41 C40 1.392 . S
N42 C40 1.420 . S
N42 C43 1.244 . S
C43 N42 1.244 . S
H44 C47 0.929 . S
H45 C50 0.929 . S
H46 C52 0.930 . S
C47 H44 0.929 . S
C47 C48 1.398 . S
C47 C49 1.396 . S
C48 C47 1.398 . S
C48 C52 1.407 . S
C49 C47 1.396 . S
C49 C50 1.394 . S
C50 H45 0.929 . S
C50 C49 1.394 . S
C50 C51 1.382 . S
C51 C50 1.382 . S
C51 C52 1.392 . S
C51 N53 1.420 . S
C52 H46 0.930 . S
C52 C48 1.407 . S
C52 C51 1.392 . S
N53 C51 1.420 . S
N53 C54 1.244 . S
C54 N53 1.244 . S
H55 C58 0.929 . S
H56 C61 0.929 . S
H57 C63 0.930 . S
C58 H55 0.929 . S
C58 C59 1.398 . S
C58 C60 1.396 . S
C59 C58 1.398 . S
C59 C63 1.407 . S
C60 C58 1.396 . S
C60 C61 1.394 . S
C61 H56 0.929 . S
C61 C60 1.394 . S
C61 C62 1.382 . S
C62 C61 1.382 . S
C62 C63 1.392 . S
C62 N64 1.420 . S
C63 H57 0.930 . S
C63 C59 1.407 . S
C63 C62 1.392 . S
N64 C62 1.420 . S
N64 C65 1.244 . S
C65 N64 1.244 . S
H66 C69 0.929 . S
H67 C72 0.929 . S
H68 C74 0.930 . S
C69 H66 0.929 . S
C69 C70 1.398 1_565 S
C69 C71 1.391 1_565 S
C70 C69 1.398 1_545 S
C70 C74 1.417 . S
C71 C69 1.391 1_545 S
C71 C72 1.399 . S
C72 H67 0.929 . S
C72 C71 1.399 . S
C72 C73 1.382 . S
C73 C72 1.382 . S
C73 C74 1.392 . S
C73 N75 1.420 . S
C74 H68 0.930 . S
C74 C70 1.417 . S
C74 C73 1.392 . S
N75 C73 1.420 . S
N75 C76 1.239 1_545 S
C76 N75 1.239 1_565 S
H77 C80 0.929 . S
H78 C83 0.929 . S
H79 C85 0.930 . S
C80 H77 0.929 . S
C80 C81 1.398 . S
C80 C82 1.396 . S
C81 C80 1.398 . S
C81 C85 1.407 . S
C82 C80 1.396 . S
C82 C83 1.394 . S
C83 H78 0.929 . S
C83 C82 1.394 . S
C83 C84 1.382 . S
C84 C83 1.382 . S
C84 C85 1.392 . S
C84 N86 1.420 . S
C85 H79 0.930 . S
C85 C81 1.407 . S
C85 C84 1.392 . S
N86 C84 1.420 . S
N86 C87 1.244 . S
C87 N86 1.244 . S
Co88 N93 2.057 . S
Co88 O105 2.021 . S
Co88 O108 2.062 . S
Co88 O112 2.117 1_455 S
Co88 O113 2.020 1_545 S
C89 O109 1.259 1_545 S
C89 O112 1.258 . S
Co90 N99 2.057 . S
Co90 O106 2.117 1_655 S
Co90 O107 2.020 1_665 S
Co90 O109 2.021 . S
Co90 O114 2.062 . S
C91 N93 1.316 . S
C91 N94 1.347 . S
C91 H96 0.931 . S
C92 N93 1.375 1_655 S
C92 C95 1.350 1_655 S
C92 H97 0.930 . S
N93 Co88 2.057 . S
N93 C91 1.316 . S
N93 C92 1.375 1_455 S
N94 C91 1.347 . S
N94 C95 1.373 . S
C95 C92 1.350 1_455 S
C95 N94 1.373 . S
C95 H116 0.931 1_455 S
H96 C91 0.931 . S
H97 C92 0.930 . S
C98 O105 1.259 1_565 S
C98 O106 1.258 . S
N99 Co90 2.057 . S
N99 C100 1.316 . S
N99 C101 1.375 1_655 S
C100 N99 1.316 . S
C100 N102 1.347 . S
C100 H111 0.931 . S
C101 N99 1.375 1_455 S
C101 C103 1.350 . S
C101 H110 0.930 . S
N102 C100 1.347 . S
N102 C103 1.373 1_655 S
C103 C101 1.350 . S
C103 N102 1.373 1_455 S
C103 H117 0.931 . S
C104 O107 1.256 . S
C104 O108 1.255 . S
O105 Co88 2.021 . S
O105 C98 1.259 1_545 S
O106 Co90 2.117 1_455 S
O106 C98 1.258 . S
O107 Co90 2.020 1_445 S
O107 C104 1.256 . S
O108 Co88 2.062 . S
O108 C104 1.255 . S
O109 C89 1.259 1_565 S
O109 Co90 2.021 . S
H110 C101 0.930 . S
H111 C100 0.931 . S
O112 Co88 2.117 1_655 S
O112 C89 1.258 . S
O113 Co88 2.020 1_565 S
O113 C115 1.256 . S
O114 Co90 2.062 . S
O114 C115 1.255 1_655 S
C115 O113 1.256 . S
C115 O114 1.255 1_455 S
H116 C95 0.931 1_655 S
H117 C103 0.931 . S
Co118 N123 2.057 1_545 S
Co118 O135 2.021 . S
Co118 O138 2.064 . S
Co118 O142 2.117 1_545 S
Co118 O143 2.020 . S
C119 O139 1.259 . S
C119 O142 1.258 . S
Co120 N129 2.057 1_565 S
Co120 O136 2.117 1_565 S
Co120 O137 2.020 . S
Co120 O139 2.021 . S
Co120 O144 2.062 . S
C121 N123 1.317 1_545 S
C121 N124 1.347 . S
C121 H126 0.931 . S
C122 N123 1.374 . S
C122 C125 1.350 . S
C122 H127 0.930 . S
N123 Co118 2.057 1_565 S
N123 C121 1.317 1_565 S
N123 C122 1.374 . S
N124 C121 1.347 . S
N124 C125 1.373 1_545 S
C125 C122 1.350 . S
C125 N124 1.373 1_565 S
C125 H146 0.931 1_556 S
H126 C121 0.931 . S
H127 C122 0.930 . S
C128 O135 1.259 . S
C128 O136 1.258 . S
N129 Co120 2.057 1_545 S
N129 C130 1.308 1_545 S
N129 C131 1.384 . S
C130 N129 1.308 1_565 S
C130 N132 1.347 . S
C130 H141 0.931 . S
C131 N129 1.384 . S
C131 C133 1.350 . S
C131 H140 0.930 . S
N132 C130 1.347 . S
N132 C133 1.373 1_565 S
C133 C131 1.350 . S
C133 N132 1.373 1_545 S
C133 H147 0.931 . S
C134 O137 1.256 . S
C134 O138 1.250 1_565 S
O135 Co118 2.021 . S
O135 C128 1.259 . S
O136 Co120 2.117 1_545 S
O136 C128 1.258 . S
O137 Co120 2.020 . S
O137 C134 1.256 . S
O138 Co118 2.064 . S
O138 C134 1.250 1_545 S
O139 C119 1.259 . S
O139 Co120 2.021 . S
H140 C131 0.930 . S
H141 C130 0.931 . S
O142 Co118 2.117 1_565 S
O142 C119 1.258 . S
O143 Co118 2.020 . S
O143 C145 1.256 . S
O144 Co120 2.062 . S
O144 C145 1.254 1_565 S
C145 O143 1.256 . S
C145 O144 1.254 1_545 S
H146 C125 0.931 1_554 S
H147 C133 0.931 . S
Co148 N153 2.057 . S
Co148 O165 2.021 . S
Co148 O168 2.062 . S
Co148 O172 2.117 . S
Co148 O173 2.020 . S
C149 O169 1.259 . S
C149 O172 1.258 . S
Co150 N159 2.057 . S
Co150 O166 2.117 . S
Co150 O167 2.020 . S
Co150 O169 2.021 . S
Co150 O174 2.062 . S
C151 N153 1.316 . S
C151 N154 1.347 . S
C151 H156 0.931 . S
C152 N153 1.375 . S
C152 C155 1.350 . S
C152 H157 0.930 . S
N153 Co148 2.057 . S
N153 C151 1.316 . S
N153 C152 1.375 . S
N154 C151 1.347 . S
N154 C155 1.373 . S
C155 C152 1.350 . S
C155 N154 1.373 . S
C155 H176 0.931 . S
H156 C151 0.931 . S
H157 C152 0.930 . S
C158 O165 1.259 . S
C158 O166 1.258 . S
N159 Co150 2.057 . S
N159 C160 1.316 . S
N159 C161 1.375 . S
C160 N159 1.316 . S
C160 N162 1.347 . S
C160 H171 0.931 . S
C161 N159 1.375 . S
C161 C163 1.350 . S
C161 H170 0.930 . S
N162 C160 1.347 . S
N162 C163 1.373 . S
C163 C161 1.350 . S
C163 N162 1.373 . S
C163 H177 0.931 . S
C164 O167 1.256 . S
C164 O168 1.255 . S
O165 Co148 2.021 . S
O165 C158 1.259 . S
O166 Co150 2.117 . S
O166 C158 1.258 . S
O167 Co150 2.020 . S
O167 C164 1.256 . S
O168 Co148 2.062 . S
O168 C164 1.255 . S
O169 C149 1.259 . S
O169 Co150 2.021 . S
H170 C161 0.930 . S
H171 C160 0.931 . S
O172 Co148 2.117 . S
O172 C149 1.258 . S
O173 Co148 2.020 . S
O173 C175 1.256 . S
O174 Co150 2.062 . S
O174 C175 1.255 . S
C175 O173 1.256 . S
C175 O174 1.255 . S
H176 C155 0.931 . S
H177 C163 0.931 . S
Co178 N183 2.057 . S
Co178 O195 2.021 1_455 S
Co178 O198 2.062 1_455 S
Co178 O202 2.117 . S
Co178 O203 2.020 . S
C179 O199 1.259 . S
C179 O202 1.258 . S
Co180 N189 2.057 . S
Co180 O196 2.117 1_455 S
Co180 O197 2.020 1_455 S
Co180 O199 2.021 . S
Co180 O204 2.062 . S
C181 N183 1.316 1_655 S
C181 N184 1.347 . S
C181 H186 0.931 . S
C182 N183 1.375 . S
C182 C185 1.350 . S
C182 H187 0.930 . S
N183 Co178 2.057 . S
N183 C181 1.316 1_455 S
N183 C182 1.375 . S
N184 C181 1.347 . S
N184 C185 1.373 1_655 S
C185 C182 1.350 . S
C185 N184 1.373 1_455 S
C185 H206 0.931 . S
H186 C181 0.931 . S
H187 C182 0.930 . S
C188 O195 1.259 . S
C188 O196 1.258 . S
N189 Co180 2.057 . S
N189 C190 1.316 . S
N189 C191 1.375 1_455 S
C190 N189 1.316 . S
C190 N192 1.347 . S
C190 H201 0.931 . S
C191 N189 1.375 1_655 S
C191 C193 1.350 . S
C191 H200 0.930 . S
N192 C190 1.347 . S
N192 C193 1.373 1_455 S
C193 C191 1.350 . S
C193 N192 1.373 1_655 S
C193 H207 0.931 . S
C194 O197 1.256 . S
C194 O198 1.255 . S
O195 Co178 2.021 1_655 S
O195 C188 1.259 . S
O196 Co180 2.117 1_655 S
O196 C188 1.258 . S
O197 Co180 2.020 1_655 S
O197 C194 1.256 . S
O198 Co178 2.062 1_655 S
O198 C194 1.255 . S
O199 C179 1.259 . S
O199 Co180 2.021 . S
H200 C191 0.930 . S
H201 C190 0.931 . S
O202 Co178 2.117 . S
O202 C179 1.258 . S
O203 Co178 2.020 . S
O203 C205 1.256 . S
O204 Co180 2.062 . S
O204 C205 1.255 . S
C205 O203 1.256 . S
C205 O204 1.255 . S
H206 C185 0.931 . S
H207 C193 0.931 . S
C208 C209 1.345 1_545 S
C208 C210 1.327 . S
C208 H233 0.950 . S
C209 C208 1.345 1_565 S
C209 C225 1.352 . S
C210 C208 1.327 . S
C210 C229 1.429 1_545 S
C210 H234 0.950 . S
C211 C228 1.574 . S
C211 C230 1.368 . S
C211 H235 0.949 . S
H212 C216 0.949 . S
C213 C214 1.349 . S
C213 C215 1.327 . S
C213 H236 0.950 . S
C214 C213 1.349 . S
C214 C226 1.349 1_565 S
C215 C213 1.327 . S
C215 C231 1.429 . S
C215 H237 0.950 . S
C216 H212 0.949 . S
C216 C224 1.574 . S
C216 C232 1.368 1_545 S
H217 C225 0.950 . S
H218 C223 0.950 . S
H219 C224 0.949 . S
H220 C226 0.950 . S
H221 C227 0.950 . S
H222 C228 0.949 . S
C223 H218 0.950 . S
C223 C225 1.327 . S
C223 C229 1.429 . S
C224 C216 1.574 . S
C224 H219 0.949 . S
C224 C230 1.368 1_545 S
C225 C209 1.352 . S
C225 H217 0.950 . S
C225 C223 1.327 . S
C226 C214 1.349 1_545 S
C226 H220 0.950 . S
C226 C227 1.327 . S
C227 H221 0.950 . S
C227 C226 1.327 . S
C227 C231 1.429 1_545 S
C228 C211 1.574 . S
C228 H222 0.949 . S
C228 C232 1.368 . S
C229 C210 1.429 1_565 S
C229 C223 1.429 . S
C229 C230 1.523 . S
C230 C211 1.368 . S
C230 C224 1.368 1_565 S
C230 C229 1.523 . S
C231 C215 1.429 . S
C231 C227 1.429 1_565 S
C231 C232 1.523 . S
C232 C216 1.368 1_565 S
C232 C228 1.368 . S
C232 C231 1.523 . S
H233 C208 0.950 . S
H234 C210 0.950 . S
H235 C211 0.949 . S
H236 C213 0.950 . S
H237 C215 0.950 . S
C238 C239 1.349 . S
C238 C240 1.327 . S
C238 H263 0.950 . S
C239 C238 1.349 . S
C239 C255 1.349 . S
C240 C238 1.327 . S
C240 C259 1.429 . S
C240 H264 0.950 . S
C241 C258 1.574 . S
C241 C260 1.368 . S
C241 H265 0.949 . S
H242 C246 0.949 . S
C243 C244 1.349 . S
C243 C245 1.327 . S
C243 H266 0.950 . S
C244 C243 1.349 . S
C244 C256 1.349 . S
C245 C243 1.327 . S
C245 C261 1.429 . S
C245 H267 0.950 . S
C246 H242 0.949 . S
C246 C254 1.574 . S
C246 C262 1.368 . S
H247 C255 0.950 . S
H248 C253 0.950 . S
H249 C254 0.949 . S
H250 C256 0.950 . S
H251 C257 0.950 . S
H252 C258 0.949 . S
C253 H248 0.950 . S
C253 C255 1.327 . S
C253 C259 1.429 . S
C254 C246 1.574 . S
C254 H249 0.949 . S
C254 C260 1.368 . S
C255 C239 1.349 . S
C255 H247 0.950 . S
C255 C253 1.327 . S
C256 C244 1.349 . S
C256 H250 0.950 . S
C256 C257 1.327 . S
C257 H251 0.950 . S
C257 C256 1.327 . S
C257 C261 1.429 . S
C258 C241 1.574 . S
C258 H252 0.949 . S
C258 C262 1.368 . S
C259 C240 1.429 . S
C259 C253 1.429 . S
C259 C260 1.523 . S
C260 C241 1.368 . S
C260 C254 1.368 . S
C260 C259 1.523 . S
C261 C245 1.429 . S
C261 C257 1.429 . S
C261 C262 1.523 . S
C262 C246 1.368 . S
C262 C258 1.368 . S
C262 C261 1.523 . S
H263 C238 0.950 . S
H264 C240 0.950 . S
H265 C241 0.949 . S
H266 C243 0.950 . S
H267 C245 0.950 . S
C268 C269 1.349 . S
C268 C270 1.327 . S
C268 H293 0.950 . S
C269 C268 1.349 . S
C269 C285 1.349 . S
C270 C268 1.327 . S
C270 C289 1.429 . S
C270 H294 0.950 . S
C271 C288 1.574 . S
C271 C290 1.368 . S
C271 H295 0.949 . S
H272 C276 0.949 . S
C273 C274 1.349 . S
C273 C275 1.327 . S
C273 H296 0.950 . S
C274 C273 1.349 . S
C274 C286 1.349 . S
C275 C273 1.327 . S
C275 C291 1.429 . S
C275 H297 0.950 . S
C276 H272 0.949 . S
C276 C284 1.574 . S
C276 C292 1.368 . S
H277 C285 0.950 . S
H278 C283 0.950 . S
H279 C284 0.949 . S
H280 C286 0.950 . S
H281 C287 0.950 . S
H282 C288 0.949 . S
C283 H278 0.950 . S
C283 C285 1.327 . S
C283 C289 1.429 . S
C284 C276 1.574 . S
C284 H279 0.949 . S
C284 C290 1.368 . S
C285 C269 1.349 . S
C285 H277 0.950 . S
C285 C283 1.327 . S
C286 C274 1.349 . S
C286 H280 0.950 . S
C286 C287 1.327 . S
C287 H281 0.950 . S
C287 C286 1.327 . S
C287 C291 1.429 . S
C288 C271 1.574 . S
C288 H282 0.949 . S
C288 C292 1.368 . S
C289 C270 1.429 . S
C289 C283 1.429 . S
C289 C290 1.523 . S
C290 C271 1.368 . S
C290 C284 1.368 . S
C290 C289 1.523 . S
C291 C275 1.429 . S
C291 C287 1.429 . S
C291 C292 1.523 . S
C292 C276 1.368 . S
C292 C288 1.368 . S
C292 C291 1.523 . S
H293 C268 0.950 . S
H294 C270 0.950 . S
H295 C271 0.949 . S
H296 C273 0.950 . S
H297 C275 0.950 . S
C298 C299 1.349 . S
C298 C300 1.327 . S
C298 H323 0.950 . S
C299 C298 1.349 . S
C299 C315 1.349 . S
C300 C298 1.327 . S
C300 C319 1.429 . S
C300 H324 0.950 . S
C301 C318 1.574 . S
C301 C320 1.368 . S
C301 H325 0.949 . S
H302 C306 0.949 . S
C303 C304 1.349 . S
C303 C305 1.327 . S
C303 H326 0.950 . S
C304 C303 1.349 . S
C304 C316 1.349 . S
C305 C303 1.327 . S
C305 C321 1.429 . S
C305 H327 0.950 . S
C306 H302 0.949 . S
C306 C314 1.574 . S
C306 C322 1.368 . S
H307 C315 0.950 . S
H308 C313 0.950 . S
H309 C314 0.949 . S
H310 C316 0.950 . S
H311 C317 0.950 . S
H312 C318 0.949 . S
C313 H308 0.950 . S
C313 C315 1.327 . S
C313 C319 1.429 . S
C314 C306 1.574 . S
C314 H309 0.949 . S
C314 C320 1.368 . S
C315 C299 1.349 . S
C315 H307 0.950 . S
C315 C313 1.327 . S
C316 C304 1.349 . S
C316 H310 0.950 . S
C316 C317 1.327 . S
C317 H311 0.950 . S
C317 C316 1.327 . S
C317 C321 1.429 . S
C318 C301 1.574 . S
C318 H312 0.949 . S
C318 C322 1.368 . S
C319 C300 1.429 . S
C319 C313 1.429 . S
C319 C320 1.523 . S
C320 C301 1.368 . S
C320 C314 1.368 . S
C320 C319 1.523 . S
C321 C305 1.429 . S
C321 C317 1.429 . S
C321 C322 1.523 . S
C322 C306 1.368 . S
C322 C318 1.368 . S
C322 C321 1.523 . S
H323 C298 0.950 . S
H324 C300 0.950 . S
H325 C301 0.949 . S
H326 C303 0.950 . S
H327 C305 0.950 . S
C328 C329 1.361 . S
C328 C330 1.327 . S
C328 H353 0.950 . S
C329 C328 1.361 . S
C329 C345 1.336 1_544 S
C330 C328 1.327 . S
C330 C349 1.429 1_554 S
C330 H354 0.950 . S
C331 C348 1.574 . S
C331 C350 1.368 1_565 S
C331 H355 0.949 . S
H332 C336 0.949 . S
C333 C334 1.349 1_565 S
C333 C335 1.327 . S
C333 H356 0.950 . S
C334 C333 1.349 1_545 S
C334 C346 1.349 . S
C335 C333 1.327 . S
C335 C351 1.429 1_565 S
C335 H357 0.950 . S
C336 H332 0.949 . S
C336 C344 1.574 . S
C336 C352 1.368 . S
H337 C345 0.950 . S
H338 C343 0.950 . S
H339 C344 0.949 . S
H340 C346 0.950 . S
H341 C347 0.950 . S
H342 C348 0.949 . S
C343 H338 0.950 . S
C343 C345 1.327 . S
C343 C349 1.429 1_565 S
C344 C336 1.574 . S
C344 H339 0.949 . S
C344 C350 1.368 . S
C345 C329 1.336 1_566 S
C345 H337 0.950 . S
C345 C343 1.327 . S
C346 C334 1.349 . S
C346 H340 0.950 . S
C346 C347 1.327 . S
C347 H341 0.950 . S
C347 C346 1.327 . S
C347 C351 1.429 . S
C348 C331 1.574 . S
C348 H342 0.949 . S
C348 C352 1.368 1_565 S
C349 C330 1.429 1_556 S
C349 C343 1.429 1_545 S
C349 C350 1.523 . S
C350 C331 1.368 1_545 S
C350 C344 1.368 . S
C350 C349 1.523 . S
C351 C335 1.429 1_545 S
C351 C347 1.429 . S
C351 C352 1.523 . S
C352 C336 1.368 . S
C352 C348 1.368 1_545 S
C352 C351 1.523 . S
H353 C328 0.950 . S
H354 C330 0.950 . S
H355 C331 0.949 . S
H356 C333 0.950 . S
H357 C335 0.950 . S
C358 C359 1.349 . S
C358 C360 1.327 . S
C358 H383 0.950 . S
C359 C358 1.349 . S
C359 C375 1.349 . S
C360 C358 1.327 . S
C360 C379 1.429 1_554 S
C360 H384 0.950 . S
C361 C378 1.574 . S
C361 C380 1.368 . S
C361 H385 0.949 . S
H362 C366 0.949 . S
C363 C364 1.349 . S
C363 C365 1.327 . S
C363 H386 0.950 . S
C364 C363 1.349 . S
C364 C376 1.349 . S
C365 C363 1.327 . S
C365 C381 1.429 . S
C365 H387 0.950 . S
C366 H362 0.949 . S
C366 C374 1.574 . S
C366 C382 1.368 . S
H367 C375 0.950 1_556 S
H368 C373 0.950 . S
H369 C374 0.949 1_554 S
H370 C376 0.950 . S
H371 C377 0.950 . S
H372 C378 0.949 . S
C373 H368 0.950 . S
C373 C375 1.327 1_556 S
C373 C379 1.429 . S
C374 C366 1.574 . S
C374 H369 0.949 1_556 S
C374 C380 1.368 . S
C375 C359 1.349 . S
C375 H367 0.950 1_554 S
C375 C373 1.327 1_554 S
C376 C364 1.349 . S
C376 H370 0.950 . S
C376 C377 1.327 . S
C377 H371 0.950 . S
C377 C376 1.327 . S
C377 C381 1.429 . S
C378 C361 1.574 . S
C378 H372 0.949 . S
C378 C382 1.368 . S
C379 C360 1.429 1_556 S
C379 C373 1.429 . S
C379 C380 1.523 . S
C380 C361 1.368 . S
C380 C374 1.368 . S
C380 C379 1.523 . S
C381 C365 1.429 . S
C381 C377 1.429 . S
C381 C382 1.523 . S
C382 C366 1.368 . S
C382 C378 1.368 . S
C382 C381 1.523 . S
H383 C358 0.950 . S
H384 C360 0.950 . S
H385 C361 0.949 . S
H386 C363 0.950 . S
H387 C365 0.950 . S
C388 C389 1.349 . S
C388 C390 1.327 . S
C388 H413 0.950 . S
C389 C388 1.349 . S
C389 C405 1.349 . S
C390 C388 1.327 . S
C390 C409 1.429 . S
C390 H414 0.950 1_554 S
C391 C408 1.574 . S
C391 C410 1.368 . S
C391 H415 0.949 . S
H392 C396 0.949 . S
C393 C394 1.349 . S
C393 C395 1.327 . S
C393 H416 0.950 . S
C394 C393 1.349 . S
C394 C406 1.349 . S
C395 C393 1.327 . S
C395 C411 1.429 . S
C395 H417 0.950 . S
C396 H392 0.949 . S
C396 C404 1.574 . S
C396 C412 1.368 . S
H397 C405 0.950 . S
H398 C403 0.950 . S
H399 C404 0.949 . S
H400 C406 0.950 . S
H401 C407 0.950 . S
H402 C408 0.949 . S
C403 H398 0.950 . S
C403 C405 1.327 . S
C403 C409 1.429 . S
C404 C396 1.574 . S
C404 H399 0.949 . S
C404 C410 1.368 1_556 S
C405 C389 1.349 . S
C405 H397 0.950 . S
C405 C403 1.327 . S
C406 C394 1.349 . S
C406 H400 0.950 . S
C406 C407 1.327 . S
C407 H401 0.950 . S
C407 C406 1.327 . S
C407 C411 1.429 . S
C408 C391 1.574 . S
C408 H402 0.949 . S
C408 C412 1.368 1_554 S
C409 C390 1.429 . S
C409 C403 1.429 . S
C409 C410 1.523 . S
C410 C391 1.368 . S
C410 C404 1.368 1_554 S
C410 C409 1.523 . S
C411 C395 1.429 . S
C411 C407 1.429 . S
C411 C412 1.523 . S
C412 C396 1.368 . S
C412 C408 1.368 1_556 S
C412 C411 1.523 . S
H413 C388 0.950 . S
H414 C390 0.950 1_556 S
H415 C391 0.949 . S
H416 C393 0.950 . S
H417 C395 0.950 . S
C418 C419 1.349 . S
C418 C420 1.327 1_554 S
C418 H443 0.950 1_554 S
C419 C418 1.349 . S
C419 C435 1.349 . S
C420 C418 1.327 1_556 S
C420 C439 1.429 1_556 S
C420 H444 0.950 . S
C421 C438 1.574 1_554 S
C421 C440 1.368 1_554 S
C421 H445 0.949 . S
H422 C426 0.949 . S
C423 C424 1.349 . S
C423 C425 1.327 . S
C423 H446 0.950 . S
C424 C423 1.349 . S
C424 C436 1.349 . S
C425 C423 1.327 . S
C425 C441 1.429 . S
C425 H447 0.950 . S
C426 H422 0.949 . S
C426 C434 1.574 . S
C426 C442 1.368 . S
H427 C435 0.950 . S
H428 C433 0.950 . S
H429 C434 0.949 . S
H430 C436 0.950 . S
H431 C437 0.950 . S
H432 C438 0.949 1_554 S
C433 H428 0.950 . S
C433 C435 1.327 . S
C433 C439 1.429 . S
C434 C426 1.574 . S
C434 H429 0.949 . S
C434 C440 1.368 . S
C435 C419 1.349 . S
C435 H427 0.950 . S
C435 C433 1.327 . S
C436 C424 1.349 . S
C436 H430 0.950 . S
C436 C437 1.327 . S
C437 H431 0.950 . S
C437 C436 1.327 . S
C437 C441 1.429 . S
C438 C421 1.574 1_556 S
C438 H432 0.949 1_556 S
C438 C442 1.368 . S
C439 C420 1.429 1_554 S
C439 C433 1.429 . S
C439 C440 1.523 1_554 S
C440 C421 1.368 1_556 S
C440 C434 1.368 . S
C440 C439 1.523 1_556 S
C441 C425 1.429 . S
C441 C437 1.429 . S
C441 C442 1.523 . S
C442 C426 1.368 . S
C442 C438 1.368 . S
C442 C441 1.523 . S
H443 C418 0.950 1_556 S
H444 C420 0.950 . S
H445 C421 0.949 . S
H446 C423 0.950 . S
H447 C425 0.950 . S
C448 C449 1.349 . S
C448 C450 1.327 . S
C448 H473 0.950 . S
C449 C448 1.349 . S
C449 C465 1.349 . S
C450 C448 1.327 . S
C450 C469 1.429 . S
C450 H474 0.950 . S
C451 C468 1.574 . S
C451 C470 1.368 . S
C451 H475 0.949 . S
H452 C456 0.949 . S
C453 C454 1.349 . S
C453 C455 1.327 . S
C453 H476 0.950 . S
C454 C453 1.349 . S
C454 C466 1.349 . S
C455 C453 1.327 . S
C455 C471 1.429 . S
C455 H477 0.950 . S
C456 H452 0.949 . S
C456 C464 1.574 . S
C456 C472 1.368 . S
H457 C465 0.950 . S
H458 C463 0.950 . S
H459 C464 0.949 . S
H460 C466 0.950 1_655 S
H461 C467 0.950 . S
H462 C468 0.949 . S
C463 H458 0.950 . S
C463 C465 1.327 . S
C463 C469 1.429 . S
C464 C456 1.574 . S
C464 H459 0.949 . S
C464 C470 1.368 . S
C465 C449 1.349 . S
C465 H457 0.950 . S
C465 C463 1.327 . S
C466 C454 1.349 . S
C466 H460 0.950 1_455 S
C466 C467 1.327 . S
C467 H461 0.950 . S
C467 C466 1.327 . S
C467 C471 1.429 . S
C468 C451 1.574 . S
C468 H462 0.949 . S
C468 C472 1.368 . S
C469 C450 1.429 . S
C469 C463 1.429 . S
C469 C470 1.523 . S
C470 C451 1.368 . S
C470 C464 1.368 . S
C470 C469 1.523 . S
C471 C455 1.429 . S
C471 C467 1.429 . S
C471 C472 1.523 . S
C472 C456 1.368 . S
C472 C468 1.368 . S
C472 C471 1.523 . S
H473 C448 0.950 . S
H474 C450 0.950 . S
H475 C451 0.949 . S
H476 C453 0.950 . S
H477 C455 0.950 . S
C478 C479 1.341 1_565 S
C478 C480 1.327 . S
C478 H503 0.950 . S
C479 C478 1.341 1_545 S
C479 C495 1.356 . S
C480 C478 1.327 . S
C480 C499 1.429 . S
C480 H504 0.950 . S
C481 C498 1.574 . S
C481 C500 1.368 1_545 S
C481 H505 0.949 . S
H482 C486 0.949 . S
C483 C484 1.349 1_545 S
C483 C485 1.327 . S
C483 H506 0.950 . S
C484 C483 1.349 1_565 S
C484 C496 1.349 . S
C485 C483 1.327 . S
C485 C501 1.429 1_545 S
C485 H507 0.950 . S
C486 H482 0.949 . S
C486 C494 1.574 . S
C486 C502 1.368 . S
H487 C495 0.950 . S
H488 C493 0.950 . S
H489 C494 0.949 . S
H490 C496 0.950 . S
H491 C497 0.950 . S
H492 C498 0.949 . S
C493 H488 0.950 . S
C493 C495 1.327 . S
C493 C499 1.429 1_545 S
C494 C486 1.574 . S
C494 H489 0.949 . S
C494 C500 1.368 . S
C495 C479 1.356 . S
C495 H487 0.950 . S
C495 C493 1.327 . S
C496 C484 1.349 . S
C496 H490 0.950 . S
C496 C497 1.327 . S
C497 H491 0.950 . S
C497 C496 1.327 . S
C497 C501 1.429 . S
C498 C481 1.574 . S
C498 H492 0.949 . S
C498 C502 1.368 1_545 S
C499 C480 1.429 . S
C499 C493 1.429 1_565 S
C499 C500 1.523 . S
C500 C481 1.368 1_565 S
C500 C494 1.368 . S
C500 C499 1.523 . S
C501 C485 1.429 1_565 S
C501 C497 1.429 . S
C501 C502 1.523 . S
C502 C486 1.368 . S
C502 C498 1.368 1_565 S
C502 C501 1.523 . S
H503 C478 0.950 . S
H504 C480 0.950 . S
H505 C481 0.949 . S
H506 C483 0.950 . S
H507 C485 0.950 . S
C508 C509 1.349 . S
C508 C510 1.327 . S
C508 H533 0.950 . S
C509 C508 1.349 . S
C509 C525 1.349 . S
C510 C508 1.327 . S
C510 C529 1.429 . S
C510 H534 0.950 . S
C511 C528 1.574 . S
C511 C530 1.368 . S
C511 H535 0.949 . S
H512 C516 0.949 . S
C513 C514 1.349 . S
C513 C515 1.327 . S
C513 H536 0.950 . S
C514 C513 1.349 . S
C514 C526 1.349 . S
C515 C513 1.327 . S
C515 C531 1.429 . S
C515 H537 0.950 . S
C516 H512 0.949 . S
C516 C524 1.574 . S
C516 C532 1.368 . S
H517 C525 0.950 . S
H518 C523 0.950 . S
H519 C524 0.949 . S
H520 C526 0.950 . S
H521 C527 0.950 . S
H522 C528 0.949 . S
C523 H518 0.950 . S
C523 C525 1.327 . S
C523 C529 1.429 . S
C524 C516 1.574 . S
C524 H519 0.949 . S
C524 C530 1.368 . S
C525 C509 1.349 . S
C525 H517 0.950 . S
C525 C523 1.327 . S
C526 C514 1.349 . S
C526 H520 0.950 . S
C526 C527 1.327 . S
C527 H521 0.950 . S
C527 C526 1.327 . S
C527 C531 1.429 . S
C528 C511 1.574 . S
C528 H522 0.949 . S
C528 C532 1.368 . S
C529 C510 1.429 . S
C529 C523 1.429 . S
C529 C530 1.523 . S
C530 C511 1.368 . S
C530 C524 1.368 . S
C530 C529 1.523 . S
C531 C515 1.429 . S
C531 C527 1.429 . S
C531 C532 1.523 . S
C532 C516 1.368 . S
C532 C528 1.368 . S
C532 C531 1.523 . S
H533 C508 0.950 . S
H534 C510 0.950 . S
H535 C511 0.949 . S
H536 C513 0.950 . S
H537 C515 0.950 . S
C538 C539 1.349 . S
C538 C540 1.327 . S
C538 H563 0.950 . S
C539 C538 1.349 . S
C539 C555 1.349 . S
C540 C538 1.327 . S
C540 C559 1.429 . S
C540 H564 0.950 . S
C541 C558 1.574 . S
C541 C560 1.368 . S
C541 H565 0.949 . S
H542 C546 0.949 . S
C543 C544 1.349 . S
C543 C545 1.327 . S
C543 H566 0.950 . S
C544 C543 1.349 . S
C544 C556 1.349 . S
C545 C543 1.327 . S
C545 C561 1.429 . S
C545 H567 0.950 . S
C546 H542 0.949 . S
C546 C554 1.574 . S
C546 C562 1.368 . S
H547 C555 0.950 . S
H548 C553 0.950 . S
H549 C554 0.949 . S
H550 C556 0.950 . S
H551 C557 0.950 . S
H552 C558 0.949 . S
C553 H548 0.950 . S
C553 C555 1.327 . S
C553 C559 1.429 . S
C554 C546 1.574 . S
C554 H549 0.949 . S
C554 C560 1.368 . S
C555 C539 1.349 . S
C555 H547 0.950 . S
C555 C553 1.327 . S
C556 C544 1.349 . S
C556 H550 0.950 . S
C556 C557 1.327 . S
C557 H551 0.950 . S
C557 C556 1.327 . S
C557 C561 1.429 . S
C558 C541 1.574 . S
C558 H552 0.949 . S
C558 C562 1.368 . S
C559 C540 1.429 . S
C559 C553 1.429 . S
C559 C560 1.523 . S
C560 C541 1.368 . S
C560 C554 1.368 . S
C560 C559 1.523 . S
C561 C545 1.429 . S
C561 C557 1.429 . S
C561 C562 1.523 . S
C562 C546 1.368 . S
C562 C558 1.368 . S
C562 C561 1.523 . S
H563 C538 0.950 . S
H564 C540 0.950 . S
H565 C541 0.949 . S
H566 C543 0.950 . S
H567 C545 0.950 . S
C568 C569 1.349 . S
C568 C570 1.327 1_554 S
C568 H593 0.950 1_554 S
C569 C568 1.349 . S
C569 C585 1.349 . S
C570 C568 1.327 1_556 S
C570 C589 1.429 1_556 S
C570 H594 0.950 . S
C571 C588 1.574 1_554 S
C571 C590 1.368 1_554 S
C571 H595 0.949 . S
H572 C576 0.949 . S
C573 C574 1.349 . S
C573 C575 1.327 1_455 S
C573 H596 0.950 . S
C574 C573 1.349 . S
C574 C586 1.349 1_455 S
C575 C573 1.327 1_655 S
C575 C591 1.429 . S
C575 H597 0.950 . S
C576 H572 0.949 . S
C576 C584 1.574 . S
C576 C592 1.368 . S
H577 C585 0.950 . S
H578 C583 0.950 . S
H579 C584 0.949 . S
H580 C586 0.949 1_455 S
H581 C587 0.950 . S
H582 C588 0.949 1_554 S
C583 H578 0.950 . S
C583 C585 1.327 . S
C583 C589 1.429 . S
C584 C576 1.574 . S
C584 H579 0.949 . S
C584 C590 1.368 . S
C585 C569 1.349 . S
C585 H577 0.950 . S
C585 C583 1.327 . S
C586 C574 1.349 1_655 S
C586 H580 0.949 1_655 S
C586 C587 1.327 . S
C587 H581 0.950 . S
C587 C586 1.327 . S
C587 C591 1.429 . S
C588 C571 1.574 1_556 S
C588 H582 0.949 1_556 S
C588 C592 1.368 . S
C589 C570 1.429 1_554 S
C589 C583 1.429 . S
C589 C590 1.523 1_554 S
C590 C571 1.368 1_556 S
C590 C584 1.368 . S
C590 C589 1.523 1_556 S
C591 C575 1.429 . S
C591 C587 1.429 . S
C591 C592 1.523 . S
C592 C576 1.368 . S
C592 C588 1.368 . S
C592 C591 1.523 . S
H593 C568 0.950 1_556 S
H594 C570 0.950 . S
H595 C571 0.949 . S
H596 C573 0.950 . S
H597 C575 0.950 . S
C598 C599 1.350 1_546 S
C598 C600 1.327 . S
C598 H623 0.950 . S
C599 C598 1.350 1_564 S
C599 C615 1.348 . S
C600 C598 1.327 . S
C600 C619 1.429 . S
C600 H624 0.950 . S
C601 C618 1.574 . S
C601 C620 1.368 1_565 S
C601 H625 0.949 . S
H602 C606 0.949 . S
C603 C604 1.349 1_565 S
C603 C605 1.327 . S
C603 H626 0.950 . S
C604 C603 1.349 1_545 S
C604 C616 1.349 . S
C605 C603 1.327 . S
C605 C621 1.429 1_565 S
C605 H627 0.950 . S
C606 H602 0.949 . S
C606 C614 1.574 . S
C606 C622 1.368 . S
H607 C615 0.950 . S
H608 C613 0.950 . S
H609 C614 0.949 . S
H610 C616 0.950 . S
H611 C617 0.950 . S
H612 C618 0.949 . S
C613 H608 0.950 . S
C613 C615 1.327 . S
C613 C619 1.429 1_564 S
C614 C606 1.574 . S
C614 H609 0.949 . S
C614 C620 1.368 . S
C615 C599 1.348 . S
C615 H607 0.950 . S
C615 C613 1.327 . S
C616 C604 1.349 . S
C616 H610 0.950 . S
C616 C617 1.327 . S
C617 H611 0.950 . S
C617 C616 1.327 . S
C617 C621 1.429 . S
C618 C601 1.574 . S
C618 H612 0.949 . S
C618 C622 1.368 1_565 S
C619 C600 1.429 . S
C619 C613 1.429 1_546 S
C619 C620 1.523 . S
C620 C601 1.368 1_545 S
C620 C614 1.368 . S
C620 C619 1.523 . S
C621 C605 1.429 1_545 S
C621 C617 1.429 . S
C621 C622 1.523 . S
C622 C606 1.368 . S
C622 C618 1.368 1_545 S
C622 C621 1.523 . S
H623 C598 0.950 . S
H624 C600 0.950 . S
H625 C601 0.949 . S
H626 C603 0.950 . S
H627 C605 0.950 . S
C628 C629 1.349 . S
C628 C630 1.327 . S
C628 H653 0.950 . S
C629 C628 1.349 . S
C629 C645 1.349 . S
C630 C628 1.327 . S
C630 C649 1.429 . S
C630 H654 0.950 1_554 S
C631 C648 1.574 . S
C631 C650 1.368 . S
C631 H655 0.949 1_556 S
H632 C636 0.949 . S
C633 C634 1.349 . S
C633 C635 1.327 . S
C633 H656 0.950 . S
C634 C633 1.349 . S
C634 C646 1.349 . S
C635 C633 1.327 . S
C635 C651 1.429 . S
C635 H657 0.950 . S
C636 H632 0.949 . S
C636 C644 1.574 . S
C636 C652 1.368 . S
H637 C645 0.950 . S
H638 C643 0.950 . S
H639 C644 0.949 . S
H640 C646 0.950 . S
H641 C647 0.950 . S
H642 C648 0.949 . S
C643 H638 0.950 . S
C643 C645 1.327 . S
C643 C649 1.429 . S
C644 C636 1.574 . S
C644 H639 0.949 . S
C644 C650 1.368 . S
C645 C629 1.349 . S
C645 H637 0.950 . S
C645 C643 1.327 . S
C646 C634 1.349 . S
C646 H640 0.950 . S
C646 C647 1.327 . S
C647 H641 0.950 . S
C647 C646 1.327 . S
C647 C651 1.429 . S
C648 C631 1.574 . S
C648 H642 0.949 . S
C648 C652 1.368 . S
C649 C630 1.429 . S
C649 C643 1.429 . S
C649 C650 1.523 1_554 S
C650 C631 1.368 . S
C650 C644 1.368 . S
C650 C649 1.523 1_556 S
C651 C635 1.429 . S
C651 C647 1.429 . S
C651 C652 1.523 . S
C652 C636 1.368 . S
C652 C648 1.368 . S
C652 C651 1.523 . S
H653 C628 0.950 . S
H654 C630 0.950 1_556 S
H655 C631 0.949 1_554 S
H656 C633 0.950 . S
H657 C635 0.950 . S
C658 C659 1.349 . S
C658 C660 1.327 . S
C658 H683 0.950 . S
C659 C658 1.349 . S
C659 C675 1.349 . S
C660 C658 1.327 . S
C660 C679 1.429 . S
C660 H684 0.950 . S
C661 C678 1.574 . S
C661 C680 1.368 1_556 S
C661 H685 0.949 . S
H662 C666 0.949 . S
C663 C664 1.349 . S
C663 C665 1.327 . S
C663 H686 0.950 . S
C664 C663 1.349 . S
C664 C676 1.349 . S
C665 C663 1.327 . S
C665 C681 1.429 . S
C665 H687 0.950 . S
C666 H662 0.949 . S
C666 C674 1.574 . S
C666 C682 1.368 1_554 S
H667 C675 0.950 . S
H668 C673 0.950 1_556 S
H669 C674 0.949 . S
H670 C676 0.950 . S
H671 C677 0.950 . S
H672 C678 0.949 . S
C673 H668 0.950 1_554 S
C673 C675 1.327 . S
C673 C679 1.429 . S
C674 C666 1.574 . S
C674 H669 0.949 . S
C674 C680 1.368 . S
C675 C659 1.349 . S
C675 H667 0.950 . S
C675 C673 1.327 . S
C676 C664 1.349 . S
C676 H670 0.950 . S
C676 C677 1.327 . S
C677 H671 0.950 . S
C677 C676 1.327 . S
C677 C681 1.429 . S
C678 C661 1.574 . S
C678 H672 0.949 . S
C678 C682 1.368 . S
C679 C660 1.429 . S
C679 C673 1.429 . S
C679 C680 1.523 . S
C680 C661 1.368 1_554 S
C680 C674 1.368 . S
C680 C679 1.523 . S
C681 C665 1.429 . S
C681 C677 1.429 . S
C681 C682 1.523 . S
C682 C666 1.368 1_556 S
C682 C678 1.368 . S
C682 C681 1.523 . S
H683 C658 0.950 . S
H684 C660 0.950 . S
H685 C661 0.949 . S
H686 C663 0.950 . S
H687 C665 0.950 . S
C688 C689 1.349 . S
C688 C690 1.327 . S
C688 H713 0.950 . S
C689 C688 1.349 . S
C689 C705 1.349 . S
C690 C688 1.327 . S
C690 C709 1.429 . S
C690 H714 0.950 . S
C691 C708 1.574 . S
C691 C710 1.368 . S
C691 H715 0.949 . S
H692 C696 0.949 . S
C693 C694 1.349 1_554 S
C693 C695 1.327 . S
C693 H716 0.950 . S
C694 C693 1.349 1_556 S
C694 C706 1.349 . S
C695 C693 1.327 . S
C695 C711 1.429 . S
C695 H717 0.950 . S
C696 H692 0.949 . S
C696 C704 1.574 . S
C696 C712 1.368 . S
H697 C705 0.950 . S
H698 C703 0.950 . S
H699 C704 0.949 . S
H700 C706 0.950 . S
H701 C707 0.950 1_556 S
H702 C708 0.949 . S
C703 H698 0.950 . S
C703 C705 1.327 . S
C703 C709 1.429 . S
C704 C696 1.574 . S
C704 H699 0.949 . S
C704 C710 1.368 . S
C705 C689 1.349 . S
C705 H697 0.950 . S
C705 C703 1.327 . S
C706 C694 1.349 . S
C706 H700 0.950 . S
C706 C707 1.327 1_556 S
C707 H701 0.950 1_554 S
C707 C706 1.327 1_554 S
C707 C711 1.429 . S
C708 C691 1.574 . S
C708 H702 0.949 . S
C708 C712 1.368 . S
C709 C690 1.429 . S
C709 C703 1.429 . S
C709 C710 1.523 . S
C710 C691 1.368 . S
C710 C704 1.368 . S
C710 C709 1.523 . S
C711 C695 1.429 . S
C711 C707 1.429 . S
C711 C712 1.523 . S
C712 C696 1.368 . S
C712 C708 1.368 . S
C712 C711 1.523 . S
H713 C688 0.950 . S
H714 C690 0.950 . S
H715 C691 0.949 . S
H716 C693 0.950 . S
H717 C695 0.950 . S
C718 C719 1.373 . S
C718 C720 1.327 . S
C718 H743 0.950 . S
C719 C718 1.373 . S
C719 C735 1.323 1_545 S
C720 C718 1.327 . S
C720 C739 1.429 . S
C720 H744 0.950 . S
C721 C738 1.574 . S
C721 C740 1.368 1_565 S
C721 H745 0.949 . S
H722 C726 0.949 . S
C723 C724 1.349 1_565 S
C723 C725 1.327 . S
C723 H746 0.950 1_554 S
C724 C723 1.349 1_545 S
C724 C736 1.349 . S
C725 C723 1.327 . S
C725 C741 1.429 1_565 S
C725 H747 0.950 . S
C726 H722 0.949 . S
C726 C734 1.574 . S
C726 C742 1.368 . S
H727 C735 0.950 . S
H728 C733 0.950 . S
H729 C734 0.949 . S
H730 C736 0.950 . S
H731 C737 0.950 . S
H732 C738 0.949 . S
C733 H728 0.950 . S
C733 C735 1.327 . S
C733 C739 1.429 1_565 S
C734 C726 1.574 . S
C734 H729 0.949 . S
C734 C740 1.368 . S
C735 C719 1.323 1_565 S
C735 H727 0.950 . S
C735 C733 1.327 . S
C736 C724 1.349 . S
C736 H730 0.950 . S
C736 C737 1.327 . S
C737 H731 0.950 . S
C737 C736 1.327 . S
C737 C741 1.429 . S
C738 C721 1.574 . S
C738 H732 0.949 . S
C738 C742 1.368 1_565 S
C739 C720 1.429 . S
C739 C733 1.429 1_545 S
C739 C740 1.523 . S
C740 C721 1.368 1_545 S
C740 C734 1.368 . S
C740 C739 1.523 . S
C741 C725 1.429 1_545 S
C741 C737 1.429 . S
C741 C742 1.523 . S
C742 C726 1.368 . S
C742 C738 1.368 1_545 S
C742 C741 1.523 . S
H743 C718 0.950 . S
H744 C720 0.950 . S
H745 C721 0.949 . S
H746 C723 0.950 1_556 S
H747 C725 0.950 . S
C748 C749 1.349 . S
C748 C750 1.327 . S
C748 H773 0.950 . S
C749 C748 1.349 . S
C749 C765 1.349 . S
C750 C748 1.327 . S
C750 C769 1.429 . S
C750 H774 0.950 . S
C751 C768 1.574 . S
C751 C770 1.368 . S
C751 H775 0.949 . S
H752 C756 0.949 . S
C753 C754 1.349 . S
C753 C755 1.327 . S
C753 H776 0.950 . S
C754 C753 1.349 . S
C754 C766 1.349 . S
C755 C753 1.327 . S
C755 C771 1.429 1_556 S
C755 H777 0.950 . S
C756 H752 0.949 . S
C756 C764 1.574 . S
C756 C772 1.368 . S
H757 C765 0.950 . S
H758 C763 0.950 . S
H759 C764 0.949 . S
H760 C766 0.950 . S
H761 C767 0.950 1_554 S
H762 C768 0.949 . S
C763 H758 0.950 . S
C763 C765 1.327 . S
C763 C769 1.429 . S
C764 C756 1.574 . S
C764 H759 0.949 . S
C764 C770 1.368 . S
C765 C749 1.349 . S
C765 H757 0.950 . S
C765 C763 1.327 . S
C766 C754 1.349 . S
C766 H760 0.950 . S
C766 C767 1.327 . S
C767 H761 0.950 1_556 S
C767 C766 1.327 . S
C767 C771 1.429 1_556 S
C768 C751 1.574 . S
C768 H762 0.949 . S
C768 C772 1.368 . S
C769 C750 1.429 . S
C769 C763 1.429 . S
C769 C770 1.523 . S
C770 C751 1.368 . S
C770 C764 1.368 . S
C770 C769 1.523 . S
C771 C755 1.429 1_554 S
C771 C767 1.429 1_554 S
C771 C772 1.523 . S
C772 C756 1.368 . S
C772 C768 1.368 . S
C772 C771 1.523 . S
H773 C748 0.950 . S
H774 C750 0.950 . S
H775 C751 0.949 . S
H776 C753 0.950 . S
H777 C755 0.950 . S
C778 C779 1.349 . S
C778 C780 1.327 . S
C778 H803 0.950 . S
C779 C778 1.349 . S
C779 C795 1.349 . S
C780 C778 1.327 . S
C780 C799 1.429 . S
C780 H804 0.950 . S
C781 C798 1.574 . S
C781 C800 1.368 . S
C781 H805 0.949 . S
H782 C786 0.949 . S
C783 C784 1.349 . S
C783 C785 1.327 . S
C783 H806 0.950 . S
C784 C783 1.349 . S
C784 C796 1.349 . S
C785 C783 1.327 . S
C785 C801 1.429 . S
C785 H807 0.950 . S
C786 H782 0.949 . S
C786 C794 1.574 . S
C786 C802 1.368 . S
H787 C795 0.950 . S
H788 C793 0.950 . S
H789 C794 0.949 . S
H790 C796 0.950 . S
H791 C797 0.950 1_554 S
H792 C798 0.950 1_556 S
C793 H788 0.950 . S
C793 C795 1.327 . S
C793 C799 1.429 . S
C794 C786 1.574 . S
C794 H789 0.949 . S
C794 C800 1.368 . S
C795 C779 1.349 . S
C795 H787 0.950 . S
C795 C793 1.327 . S
C796 C784 1.349 . S
C796 H790 0.950 . S
C796 C797 1.327 . S
C797 H791 0.950 1_556 S
C797 C796 1.327 . S
C797 C801 1.429 . S
C798 C781 1.574 . S
C798 H792 0.950 1_554 S
C798 C802 1.368 . S
C799 C780 1.429 . S
C799 C793 1.429 . S
C799 C800 1.523 . S
C800 C781 1.368 . S
C800 C794 1.368 . S
C800 C799 1.523 . S
C801 C785 1.429 . S
C801 C797 1.429 . S
C801 C802 1.523 1_556 S
C802 C786 1.368 . S
C802 C798 1.368 . S
C802 C801 1.523 1_554 S
H803 C778 0.950 . S
H804 C780 0.950 . S
H805 C781 0.949 . S
H806 C783 0.950 . S
H807 C785 0.950 . S
C808 C809 1.349 . S
C808 C810 1.327 . S
C808 H833 0.950 . S
C809 C808 1.349 . S
C809 C825 1.349 . S
C810 C808 1.327 . S
C810 C829 1.429 . S
C810 H834 0.950 . S
C811 C828 1.574 . S
C811 C830 1.368 . S
C811 H835 0.949 . S
H812 C816 0.949 . S
C813 C814 1.349 . S
C813 C815 1.327 . S
C813 H836 0.950 1_655 S
C814 C813 1.349 . S
C814 C826 1.349 . S
C815 C813 1.327 . S
C815 C831 1.429 . S
C815 H837 0.950 . S
C816 H812 0.949 . S
C816 C824 1.574 . S
C816 C832 1.368 . S
H817 C825 0.950 . S
H818 C823 0.950 . S
H819 C824 0.949 . S
H820 C826 0.950 . S
H821 C827 0.950 . S
H822 C828 0.949 . S
C823 H818 0.950 . S
C823 C825 1.327 . S
C823 C829 1.429 . S
C824 C816 1.574 . S
C824 H819 0.949 . S
C824 C830 1.368 . S
C825 C809 1.349 . S
C825 H817 0.950 . S
C825 C823 1.327 . S
C826 C814 1.349 . S
C826 H820 0.950 . S
C826 C827 1.327 . S
C827 H821 0.950 . S
C827 C826 1.327 . S
C827 C831 1.429 . S
C828 C811 1.574 . S
C828 H822 0.949 . S
C828 C832 1.368 . S
C829 C810 1.429 . S
C829 C823 1.429 . S
C829 C830 1.523 . S
C830 C811 1.368 . S
C830 C824 1.368 . S
C830 C829 1.523 . S
C831 C815 1.429 . S
C831 C827 1.429 . S
C831 C832 1.523 . S
C832 C816 1.368 . S
C832 C828 1.368 . S
C832 C831 1.523 . S
H833 C808 0.950 . S
H834 C810 0.950 . S
H835 C811 0.949 . S
H836 C813 0.950 1_455 S
H837 C815 0.950 . S
C838 C839 1.333 1_545 S
C838 C840 1.327 . S
C838 H863 0.950 . S
C839 C838 1.333 1_565 S
C839 C855 1.364 . S
C840 C838 1.327 . S
C840 C859 1.429 1_545 S
C840 H864 0.950 . S
C841 C858 1.574 . S
C841 C860 1.368 . S
C841 H865 0.949 . S
H842 C846 0.949 . S
C843 C844 1.349 . S
C843 C845 1.327 . S
C843 H866 0.950 . S
C844 C843 1.349 . S
C844 C856 1.349 1_565 S
C845 C843 1.327 . S
C845 C861 1.429 . S
C845 H867 0.950 . S
C846 H842 0.949 . S
C846 C854 1.574 . S
C846 C862 1.368 1_545 S
H847 C855 0.950 . S
H848 C853 0.950 . S
H849 C854 0.949 . S
H850 C856 0.950 . S
H851 C857 0.950 . S
H852 C858 0.949 . S
C853 H848 0.950 . S
C853 C855 1.327 . S
C853 C859 1.429 . S
C854 C846 1.574 . S
C854 H849 0.949 . S
C854 C860 1.368 1_545 S
C855 C839 1.364 . S
C855 H847 0.950 . S
C855 C853 1.327 . S
C856 C844 1.349 1_545 S
C856 H850 0.950 . S
C856 C857 1.327 . S
C857 H851 0.950 . S
C857 C856 1.327 . S
C857 C861 1.429 1_545 S
C858 C841 1.574 . S
C858 H852 0.949 . S
C858 C862 1.368 . S
C859 C840 1.429 1_565 S
C859 C853 1.429 . S
C859 C860 1.523 . S
C860 C841 1.368 . S
C860 C854 1.368 1_565 S
C860 C859 1.523 . S
C861 C845 1.429 . S
C861 C857 1.429 1_565 S
C861 C862 1.523 . S
C862 C846 1.368 1_565 S
C862 C858 1.368 . S
C862 C861 1.523 . S
H863 C838 0.950 . S
H864 C840 0.950 . S
H865 C841 0.949 . S
H866 C843 0.950 . S
H867 C845 0.950 . S
C868 C869 1.349 . S
C868 C870 1.327 . S
C868 H893 0.950 . S
C869 C868 1.349 . S
C869 C885 1.349 . S
C870 C868 1.327 . S
C870 C889 1.429 . S
C870 H894 0.950 . S
C871 C888 1.574 . S
C871 C890 1.368 . S
C871 H895 0.949 . S
H872 C876 0.949 . S
C873 C874 1.349 . S
C873 C875 1.327 . S
C873 H896 0.950 . S
C874 C873 1.349 . S
C874 C886 1.349 . S
C875 C873 1.327 . S
C875 C891 1.429 . S
C875 H897 0.950 . S
C876 H872 0.949 . S
C876 C884 1.574 . S
C876 C892 1.368 . S
H877 C885 0.950 . S
H878 C883 0.950 . S
H879 C884 0.949 . S
H880 C886 0.950 . S
H881 C887 0.950 . S
H882 C888 0.949 . S
C883 H878 0.950 . S
C883 C885 1.327 . S
C883 C889 1.429 . S
C884 C876 1.574 . S
C884 H879 0.949 . S
C884 C890 1.368 . S
C885 C869 1.349 . S
C885 H877 0.950 . S
C885 C883 1.327 . S
C886 C874 1.349 . S
C886 H880 0.950 . S
C886 C887 1.327 . S
C887 H881 0.950 . S
C887 C886 1.327 . S
C887 C891 1.429 . S
C888 C871 1.574 . S
C888 H882 0.949 . S
C888 C892 1.368 . S
C889 C870 1.429 . S
C889 C883 1.429 . S
C889 C890 1.523 . S
C890 C871 1.368 . S
C890 C884 1.368 . S
C890 C889 1.523 . S
C891 C875 1.429 . S
C891 C887 1.429 . S
C891 C892 1.523 . S
C892 C876 1.368 . S
C892 C888 1.368 . S
C892 C891 1.523 . S
H893 C868 0.950 . S
H894 C870 0.950 . S
H895 C871 0.949 . S
H896 C873 0.950 . S
H897 C875 0.950 . S
C898 C899 1.349 . S
C898 C900 1.327 . S
C898 H923 0.950 . S
C899 C898 1.349 . S
C899 C915 1.349 . S
C900 C898 1.327 . S
C900 C919 1.429 . S
C900 H924 0.950 . S
C901 C918 1.574 . S
C901 C920 1.368 . S
C901 H925 0.949 . S
H902 C906 0.949 . S
C903 C904 1.349 . S
C903 C905 1.327 . S
C903 H926 0.950 . S
C904 C903 1.349 . S
C904 C916 1.349 . S
C905 C903 1.327 . S
C905 C921 1.429 . S
C905 H927 0.950 . S
C906 H902 0.949 . S
C906 C914 1.574 . S
C906 C922 1.368 . S
H907 C915 0.950 . S
H908 C913 0.950 . S
H909 C914 0.949 . S
H910 C916 0.950 . S
H911 C917 0.950 . S
H912 C918 0.949 . S
C913 H908 0.950 . S
C913 C915 1.327 . S
C913 C919 1.429 . S
C914 C906 1.574 . S
C914 H909 0.949 . S
C914 C920 1.368 . S
C915 C899 1.349 . S
C915 H907 0.950 . S
C915 C913 1.327 . S
C916 C904 1.349 . S
C916 H910 0.950 . S
C916 C917 1.327 . S
C917 H911 0.950 . S
C917 C916 1.327 . S
C917 C921 1.429 . S
C918 C901 1.574 . S
C918 H912 0.949 . S
C918 C922 1.368 . S
C919 C900 1.429 . S
C919 C913 1.429 . S
C919 C920 1.523 . S
C920 C901 1.368 . S
C920 C914 1.368 . S
C920 C919 1.523 . S
C921 C905 1.429 . S
C921 C917 1.429 . S
C921 C922 1.523 . S
C922 C906 1.368 . S
C922 C918 1.368 . S
C922 C921 1.523 . S
H923 C898 0.950 . S
H924 C900 0.950 . S
H925 C901 0.949 . S
H926 C903 0.950 . S
H927 C905 0.950 . S
C209 C76 1.623 . S
C214 C98 1.638 . S
C244 C128 1.804 . S
C239 C87 1.774 . S
C274 N162 1.369 . S
C269 C54 1.390 . S
C304 N192 1.372 . S
C299 C65 1.379 . S
C334 C89 1.638 . S
C329 C32 1.626 1_545 S
C359 C43 1.786 . S
C364 C119 1.810 . S
C389 C10 1.392 . S
C394 N154 1.369 . S
C419 C21 1.386 . S
C424 N184 1.372 . S
C454 C104 0.240 . S
C449 C60 0.408 . S
C484 C134 0.457 . S
C479 C71 0.524 . S
C514 C175 0.733 . S
C509 C82 0.735 . S
C539 C49 0.360 . S
C544 C205 0.326 . S
C569 C16 0.433 . S
C574 C115 0.242 . S
C604 C145 0.457 . S
C599 C27 0.520 1_565 S
C634 C164 0.733 . S
C629 C38 0.735 . S
C659 C5 0.368 . S
C664 C194 0.326 . S
C689 C59 1.471 . S
C694 N94 1.469 . S
C719 C70 1.426 . S
C724 N124 1.423 1_554 S
C754 C149 1.648 . S
C749 C81 1.615 . S
C784 C179 1.588 . S
C779 C48 1.549 . S
C809 C15 1.465 . S
C814 N102 1.478 . S
C844 N132 1.423 . S
C839 C26 1.435 1_565 S
C874 C158 1.648 . S
C869 C37 1.609 . S
C899 C4 1.548 . S
C904 C188 1.588 . S
