# Generated by pormake.
# Topology pyr, (3,6)-cn, num edge types: 1
# Building blocks:
#     Node 0, Type 0, BuildingBlock: BETDIP_clean_linker_0, # of connection points: 3
#     Node 1, Type 0, BuildingBlock: BETDIP_clean_linker_0, # of connection points: 3
#     Node 2, Type 0, BuildingBlock: BETDIP_clean_linker_0, # of connection points: 3
#     Node 3, Type 0, BuildingBlock: BETDIP_clean_linker_0, # of connection points: 3
#     Node 4, Type 0, BuildingBlock: BETDIP_clean_linker_0, # of connection points: 3
#     Node 5, Type 0, BuildingBlock: BETDIP_clean_linker_0, # of connection points: 3
#     Node 6, Type 0, BuildingBlock: BETDIP_clean_linker_0, # of connection points: 3
#     Node 7, Type 0, BuildingBlock: BETDIP_clean_linker_0, # of connection points: 3
#     Node 8, Type 1, BuildingBlock: BETGAK_clean_sbu_0, # of connection points: 6
#     Node 9, Type 1, BuildingBlock: BETGAK_clean_sbu_0, # of connection points: 6
#     Node 10, Type 1, BuildingBlock: BETGAK_clean_sbu_0, # of connection points: 6
#     Node 11, Type 1, BuildingBlock: BETGAK_clean_sbu_0, # of connection points: 6
#     Edge 12, Type (0, 1), BuildingBlock: ZUJKAS_clean_linker_0, # of connection points: 2
#     Edge 13, Type (0, 1), BuildingBlock: ZUJKAS_clean_linker_0, # of connection points: 2
#     Edge 14, Type (0, 1), BuildingBlock: ZUJKAS_clean_linker_0, # of connection points: 2
#     Edge 15, Type (0, 1), BuildingBlock: ZUJKAS_clean_linker_0, # of connection points: 2
#     Edge 16, Type (0, 1), BuildingBlock: ZUJKAS_clean_linker_0, # of connection points: 2
#     Edge 17, Type (0, 1), BuildingBlock: ZUJKAS_clean_linker_0, # of connection points: 2
#     Edge 18, Type (0, 1), BuildingBlock: ZUJKAS_clean_linker_0, # of connection points: 2
#     Edge 19, Type (0, 1), BuildingBlock: ZUJKAS_clean_linker_0, # of connection points: 2
#     Edge 20, Type (0, 1), BuildingBlock: ZUJKAS_clean_linker_0, # of connection points: 2
#     Edge 21, Type (0, 1), BuildingBlock: ZUJKAS_clean_linker_0, # of connection points: 2
#     Edge 22, Type (0, 1), BuildingBlock: ZUJKAS_clean_linker_0, # of connection points: 2
#     Edge 23, Type (0, 1), BuildingBlock: ZUJKAS_clean_linker_0, # of connection points: 2
#     Edge 24, Type (0, 1), BuildingBlock: ZUJKAS_clean_linker_0, # of connection points: 2
#     Edge 25, Type (0, 1), BuildingBlock: ZUJKAS_clean_linker_0, # of connection points: 2
#     Edge 26, Type (0, 1), BuildingBlock: ZUJKAS_clean_linker_0, # of connection points: 2
#     Edge 27, Type (0, 1), BuildingBlock: ZUJKAS_clean_linker_0, # of connection points: 2
#     Edge 28, Type (0, 1), BuildingBlock: ZUJKAS_clean_linker_0, # of connection points: 2
#     Edge 29, Type (0, 1), BuildingBlock: ZUJKAS_clean_linker_0, # of connection points: 2
#     Edge 30, Type (0, 1), BuildingBlock: ZUJKAS_clean_linker_0, # of connection points: 2
#     Edge 31, Type (0, 1), BuildingBlock: ZUJKAS_clean_linker_0, # of connection points: 2
#     Edge 32, Type (0, 1), BuildingBlock: ZUJKAS_clean_linker_0, # of connection points: 2
#     Edge 33, Type (0, 1), BuildingBlock: ZUJKAS_clean_linker_0, # of connection points: 2
#     Edge 34, Type (0, 1), BuildingBlock: ZUJKAS_clean_linker_0, # of connection points: 2
#     Edge 35, Type (0, 1), BuildingBlock: ZUJKAS_clean_linker_0, # of connection points: 2
# Relax obj value: 0.101
# Max RMSD: 0.174
# Mean RMSD: 0.137
data_MOF--net-pyr--node1-BETGAK_clean_sbu_0--node2-BETDIP_clean_linker_0--edge1-ZUJKAS_clean_linker_0
_symmetry_space_group_name_H-M    P1
_symmetry_Int_Tables_number       1
_symmetry_cell_setting            triclinic
loop_
_symmetry_equiv_pos_as_xyz
'x, y, z'
_cell_length_a     50.475268
_cell_length_b     49.611725
_cell_length_c     46.912245
_cell_angle_alpha  90.379288
_cell_angle_beta   86.955459
_cell_angle_gamma 105.17803
loop_
_atom_site_label
_atom_site_type_symbol
_atom_site_fract_x
_atom_site_fract_y
_atom_site_fract_z
_atom_type_partial_charge
H0 H 0.28752 0.3167 0.23592 0.0
H1 H 0.34572 0.29979 0.173 0.0
H2 H 0.32002 0.24587 0.24662 0.0
H3 H 0.31233 0.36436 0.21965 0.0
C4 C 0.30745 0.35796 0.19792 0.0
C5 C 0.30161 0.30456 0.22897 0.0
C6 C 0.30189 0.28048 0.24434 0.0
C7 C 0.31778 0.31181 0.20348 0.0
C8 C 0.33425 0.2947 0.19331 0.0
C9 C 0.3353 0.27077 0.2087 0.0
C10 C 0.31926 0.26408 0.2344 0.0
N11 N 0.31558 0.3346 0.18643 0.0
H12 H 0.23761 0.87422 0.68597 0.0
H13 H 0.24429 0.82857 0.60888 0.0
H14 H 0.31342 0.85413 0.66134 0.0
H15 H 0.20142 0.82779 0.60343 0.0
C16 C 0.19598 0.84346 0.61708 0.0
C17 C 0.24971 0.86468 0.67128 0.0
C18 C 0.27695 0.86553 0.67684 0.0
C19 C 0.23777 0.85172 0.64679 0.0
C20 C 0.2532 0.83903 0.6277 0.0
C21 C 0.28037 0.83936 0.63315 0.0
C22 C 0.29215 0.85295 0.65757 0.0
N23 N 0.21075 0.85327 0.64166 0.0
H24 H 0.69922 0.42941 0.85371 0.0
H25 H 0.62967 0.35732 0.85324 0.0
H26 H 0.69312 0.36055 0.9114 0.0
H27 H 0.62514 0.37192 0.80976 0.0
C28 C 0.63297 0.39447 0.80892 0.0
C29 C 0.68831 0.40903 0.86216 0.0
C30 C 0.6995 0.39678 0.88403 0.0
C31 C 0.66347 0.39489 0.85036 0.0
C32 C 0.64917 0.36833 0.86138 0.0
C33 C 0.66003 0.35566 0.8831 0.0
C34 C 0.68515 0.37002 0.89417 0.0
N35 N 0.6535 0.40816 0.82776 0.0
H36 H 0.80752 0.66326 0.36282 0.0
H37 H 0.87862 0.73391 0.35766 0.0
H38 H 0.81348 0.73146 0.42122 0.0
H39 H 0.89854 0.70307 0.33562 0.0
C40 C 0.88257 0.68914 0.32393 0.0
C41 C 0.81878 0.68337 0.37071 0.0
C42 C 0.80746 0.6958 0.39358 0.0
C43 C 0.84448 0.69671 0.35772 0.0
C44 C 0.85896 0.72307 0.36769 0.0
C45 C 0.84799 0.73561 0.39086 0.0
C46 C 0.82218 0.72185 0.40351 0.0
N47 N 0.85466 0.6832 0.33434 0.0
H48 H 0.65927 0.80226 0.91251 0.0
H49 H 0.71583 0.78557 0.84762 0.0
H50 H 0.68317 0.85667 0.83908 0.0
H51 H 0.69119 0.73807 0.8643 0.0
C52 C 0.69699 0.74433 0.88584 0.0
C53 C 0.67059 0.80767 0.89217 0.0
C54 C 0.66878 0.8314 0.8769 0.0
C55 C 0.68684 0.79064 0.88129 0.0
C56 C 0.70196 0.79774 0.85519 0.0
C57 C 0.7009 0.82161 0.83986 0.0
C58 C 0.68393 0.8381 0.85068 0.0
N59 N 0.68966 0.76786 0.89798 0.0
H60 H 0.71184 0.16604 0.4448 0.0
H61 H 0.71431 0.21934 0.51769 0.0
H62 H 0.6683 0.22991 0.44629 0.0
H63 H 0.74486 0.20066 0.53312 0.0
C64 C 0.74948 0.18548 0.5183 0.0
C65 C 0.7057 0.18304 0.45552 0.0
C66 C 0.6884 0.19664 0.44236 0.0
C67 C 0.71562 0.19131 0.48233 0.0
C68 C 0.70745 0.213 0.4967 0.0
C69 C 0.69005 0.22679 0.48398 0.0
C70 C 0.68074 0.21855 0.45676 0.0
N71 N 0.73462 0.17793 0.49332 0.0
H72 H 0.30455 0.67514 0.23198 0.0
H73 H 0.37183 0.74892 0.23553 0.0
H74 H 0.31473 0.74014 0.16902 0.0
H75 H 0.39203 0.72028 0.2578 0.0
C76 C 0.37579 0.70558 0.27009 0.0
C77 C 0.31578 0.69534 0.22331 0.0
C78 C 0.30664 0.70595 0.199 0.0
C79 C 0.33984 0.7101 0.23603 0.0
C80 C 0.35421 0.73661 0.22496 0.0
C81 C 0.34523 0.74788 0.20084 0.0
C82 C 0.32166 0.73205 0.18784 0.0
N83 N 0.34863 0.69789 0.26014 0.0
H84 H 0.12683 0.35749 0.73392 0.0
H85 H 0.19472 0.43135 0.72701 0.0
H86 H 0.19243 0.36326 0.66984 0.0
H87 H 0.18228 0.43888 0.77104 0.0
C88 C 0.16037 0.42958 0.77442 0.0
C89 C 0.14628 0.3689 0.72376 0.0
C90 C 0.15781 0.35725 0.70033 0.0
C91 C 0.15952 0.39541 0.73403 0.0
C92 C 0.18443 0.41057 0.72019 0.0
C93 C 0.19649 0.39885 0.6973 0.0
C94 C 0.1831 0.37226 0.68756 0.0
N95 N 0.14699 0.40629 0.75785 0.0
La96 La 0.01016 0.05973 0.51741 0.0
La97 La 0.00362 1.03076 0.57449 0.0
C98 C 0.01285 0.09396 0.47726 0.0
C99 C 0.03495 0.11773 0.46649 0.0
C100 C 0.05981 0.12548 0.48023 0.0
C101 C 0.08215 0.14568 0.46806 0.0
C102 C 0.08004 0.15835 0.44185 0.0
C103 C 0.05469 0.1513 0.42878 0.0
C104 C 0.03232 0.13108 0.44101 0.0
C105 C 0.04677 1.03187 0.52657 0.0
C106 C 0.03833 0.0921 0.57209 0.0
C107 C 0.0004 0.99637 0.6146 0.0
C108 C 0.97726 0.97391 0.62591 0.0
C109 C 0.9513 0.97001 0.61477 0.0
C110 C 0.92844 0.95088 0.62747 0.0
C111 C 0.93115 0.93521 0.65152 0.0
C112 C 0.95751 0.93839 0.66183 0.0
C113 C 0.98038 0.95768 0.64916 0.0
C114 C 0.96708 0.05866 0.56551 0.0
C115 C 0.9756 0.9983 0.51979 0.0
O116 O 0.01817 0.0697 0.47396 0.0
O117 O 0.00212 0.09664 0.5028 0.0
O118 O 0.03825 1.03519 0.50169 0.0
O119 O 0.03686 0.04592 0.5444 0.0
O120 O 0.02826 0.09363 0.54678 0.0
O121 O 0.03547 0.06776 0.58492 0.0
O122 O 0.99716 1.02148 0.61819 0.0
O123 O 0.00979 0.99284 0.58869 0.0
O124 O 0.9754 0.05493 0.59037 0.0
O125 O 0.97677 0.04456 0.54753 0.0
O126 O 0.98558 0.99685 0.54515 0.0
O127 O 0.97858 1.02258 0.50679 0.0
H128 H 0.06224 0.11523 0.49987 0.0
H129 H 0.10129 0.15088 0.47881 0.0
H130 H 0.05249 0.16044 0.40842 0.0
H131 H 0.01332 0.12515 0.43004 0.0
H132 H 0.94855 0.98251 0.59685 0.0
H133 H 0.90849 0.94931 0.61917 0.0
H134 H 0.9604 0.92634 0.68002 0.0
H135 H 0.00032 0.96044 0.65795 0.0
La136 La 0.52931 0.0611 0.06033 0.0
La137 La 0.47897 0.04384 1.02762 0.0
C138 C 0.57635 0.07964 0.07914 0.0
C139 C 0.58627 0.08926 0.10735 0.0
C140 C 0.57569 0.0735 0.13213 0.0
C141 C 0.58476 0.0832 0.15881 0.0
C142 C 0.60432 0.10897 0.16127 0.0
C143 C 0.61482 0.12479 0.13651 0.0
C144 C 0.60593 0.11493 0.10974 0.0
C145 C 0.49119 1.01842 0.0831 0.0
C146 C 0.48017 0.08306 0.08197 0.0
C147 C 0.43135 1.026 1.00977 0.0
C148 C 0.41979 1.01332 0.98341 0.0
C149 C 0.39236 1.01179 0.97838 0.0
C150 C 0.38127 1.00066 0.95289 0.0
C151 C 0.3975 0.99087 0.93208 0.0
C152 C 0.42502 0.9923 0.93734 0.0
C153 C 0.43612 1.00355 0.9628 0.0
C154 C 0.5174 0.08635 1.00505 0.0
C155 C 0.52792 1.02178 1.00608 0.0
O156 O 0.56415 0.05302 0.077 0.0
O157 O 0.56333 0.09529 0.06632 0.0
O158 O 0.50749 1.03743 0.09768 0.0
O159 O 0.4977 1.02292 0.05695 0.0
O160 O 0.50714 0.08801 0.08161 0.0
O161 O 0.46529 0.06378 0.0655 0.0
O162 O 0.44577 0.05199 1.00744 0.0
O163 O 0.44328 1.01099 1.02494 0.0
O164 O 0.50157 0.06708 0.99032 0.0
O165 O 0.51046 0.08198 1.03113 0.0
O166 O 0.50087 1.01641 1.007 0.0
O167 O 0.54292 0.04165 1.02193 0.0
H168 H 0.56023 0.05377 0.13098 0.0
H169 H 0.57607 0.07078 0.1776 0.0
H170 H 0.63003 0.14466 0.13784 0.0
H171 H 0.61426 0.12744 0.09089 0.0
H172 H 0.37956 1.01934 0.9941 0.0
H173 H 0.35993 0.99951 0.94957 0.0
H174 H 0.43807 0.98519 0.92156 0.0
H175 H 0.45746 1.00484 0.96632 0.0
La176 La 0.50523 0.53182 0.52279 0.0
La177 La 0.49582 0.57381 0.56548 0.0
C178 C 0.52716 0.50135 0.49169 0.0
C179 C 0.54744 0.48566 0.49639 0.0
C180 C 0.54597 0.46085 0.4815 0.0
C181 C 0.56418 0.44486 0.4868 0.0
C182 C 0.58414 0.45345 0.50715 0.0
C183 C 0.58568 0.47848 0.52193 0.0
C184 C 0.5675 0.49453 0.51653 0.0
C185 C 0.45556 0.52071 0.54727 0.0
C186 C 0.52308 0.5297 0.58784 0.0
C187 C 0.47419 0.60601 0.59409 0.0
C188 C 0.45689 0.62391 0.58518 0.0
C189 C 0.46719 0.65304 0.5859 0.0
C190 C 0.4524 0.67035 0.57484 0.0
C191 C 0.42688 0.65883 0.56312 0.0
C192 C 0.4163 0.62971 0.56285 0.0
C193 C 0.43122 0.61237 0.57363 0.0
C194 C 0.5454 0.58462 0.54095 0.0
C195 C 0.47737 0.57575 0.50072 0.0
O196 O 0.50343 0.49218 0.50577 0.0
O197 O 0.53623 0.52859 0.49251 0.0
O198 O 0.46072 0.51476 0.52093 0.0
O199 O 0.47776 0.53072 0.5591 0.0
O200 O 0.52649 0.52322 0.56056 0.0
O201 O 0.50845 0.54732 0.59561 0.0
O202 O 0.49967 0.61326 0.58374 0.0
O203 O 0.46344 0.57895 0.59305 0.0
O204 O 0.5404 0.59038 0.56737 0.0
O205 O 0.52314 0.57487 0.52918 0.0
O206 O 0.47469 0.58275 0.52788 0.0
O207 O 0.4914 0.55765 0.49289 0.0
H208 H 0.53047 0.45364 0.46606 0.0
H209 H 0.56221 0.42543 0.47541 0.0
H210 H 0.60096 0.48569 0.53757 0.0
H211 H 0.56899 0.51371 0.52824 0.0
H212 H 0.48693 0.66242 0.59461 0.0
H213 H 0.46074 0.69277 0.57582 0.0
H214 H 0.39666 0.62036 0.55393 0.0
H215 H 0.42282 0.58996 0.57245 0.0
La216 La 0.00451 0.52279 0.05002 0.0
La217 La 0.00081 0.58051 1.03422 0.0
C218 C 0.02125 0.47949 0.05436 0.0
C219 C 0.04599 0.47267 0.06443 0.0
C220 C 0.05366 0.47739 0.09278 0.0
C221 C 0.07691 0.47026 0.10183 0.0
C222 C 0.09308 0.4584 0.08273 0.0
C223 C 0.08553 0.45411 0.05427 0.0
C224 C 0.06219 0.46107 0.04529 0.0
C225 C 0.97831 0.54691 0.08809 0.0
C226 C 0.05347 0.57699 0.06399 0.0
C227 C 0.98416 0.62381 1.02929 0.0
C228 C 0.95967 0.63064 1.01845 0.0
C229 C 0.95486 0.6297 0.98917 0.0
C230 C 0.93172 0.63659 0.97944 0.0
C231 C 0.91287 0.64452 0.99876 0.0
C232 C 0.91767 0.64523 1.02805 0.0
C233 C 0.94086 0.6385 1.03774 0.0
C234 C 0.02738 0.55642 0.99657 0.0
C235 C 0.9517 0.52632 1.0204 0.0
O236 O 0.00481 0.48704 0.07353 0.0
O237 O 0.02495 0.49484 1.03118 0.0
O238 O 0.97195 0.52019 0.08361 0.0
O239 O 0.99954 0.55845 0.07302 0.0
O240 O 0.0455 0.54959 0.05972 0.0
O241 O 0.03744 0.5934 0.05853 0.0
O242 O 0.00117 0.61645 1.01063 0.0
O243 O 0.97989 0.60831 0.05241 0.0
O244 O 0.03394 0.5831 1.00128 0.0
O245 O 0.00588 0.54493 1.01126 0.0
O246 O 0.95999 0.55378 1.02405 0.0
O247 O 0.96741 0.50976 1.02646 0.0
H248 H 0.04163 0.48639 0.10805 0.0
H249 H 0.08187 0.47353 0.12398 0.0
H250 H 0.09772 0.44549 0.03884 0.0
H251 H 0.05678 0.45736 1.02328 0.0
H252 H 0.969 0.62382 0.97369 0.0
H253 H 0.92891 0.63621 0.95671 0.0
H254 H 0.90341 0.65083 0.04359 0.0
H255 H 0.94408 0.63942 0.06042 0.0
H256 H 0.27077 0.22759 0.25644 0.0
H257 H 0.23493 0.21265 0.29434 0.0
H258 H 0.25126 0.29704 0.32552 0.0
H259 H 0.2878 0.31217 0.28792 0.0
H260 H 0.24264 0.25372 0.36923 0.0
H261 H 0.16067 0.23396 0.29157 0.0
H262 H 0.18747 0.21709 0.2829 0.0
H263 H 0.19529 0.25458 0.28283 0.0
C264 C 0.26719 0.24291 0.27168 0.0
C265 C 0.2821 0.2711 0.26912 0.0
C266 C 0.24649 0.23438 0.29313 0.0
C267 C 0.2402 0.25385 0.31236 0.0
C268 C 0.25573 0.28178 0.31069 0.0
H269 H 0.08392 0.20723 0.41289 0.0
H270 H 0.12367 0.23492 0.38431 0.0
C271 C 0.27646 0.29038 0.28916 0.0
C272 C 0.21675 0.245 0.33348 0.0
H273 H 0.14757 0.21558 0.33851 0.0
C274 C 0.22179 0.24565 0.36263 0.0
C275 C 0.18954 0.23503 0.32477 0.0
C276 C 0.18278 0.23533 0.29384 0.0
C277 C 0.20038 0.23528 0.38327 0.0
C278 C 0.17342 0.22369 0.37437 0.0
C279 C 0.16827 0.22429 0.34531 0.0
C280 C 0.15053 0.20913 0.39439 0.0
C281 C 0.20687 0.23671 0.41434 0.0
C282 C 0.15251 0.18556 0.40963 0.0
C283 C 0.12989 0.16973 0.42589 0.0
C284 C 0.10472 0.177 0.42702 0.0
C285 C 0.10297 0.201 0.41226 0.0
C286 C 0.12567 0.2169 0.39606 0.0
H287 H 0.22548 0.25382 0.41822 0.0
H288 H 0.18941 0.23994 0.42813 0.0
H289 H 0.21101 0.21677 0.42076 0.0
H290 H 0.1712 0.17869 0.40801 0.0
H291 H 0.13178 0.15106 0.43651 0.0
H292 H 0.27282 0.9154 0.69945 0.0
H293 H 0.29412 0.93848 0.74198 0.0
H294 H 0.3311 0.87069 0.75484 0.0
H295 H 0.30963 0.84728 0.71268 0.0
H296 H 0.28774 0.91637 0.79885 0.0
H297 H 0.39623 0.94156 0.75611 0.0
H298 H 0.36745 0.93249 0.7334 0.0
H299 H 0.37743 0.90568 0.75237 0.0
C300 C 0.28533 0.90532 0.71145 0.0
C301 C 0.28963 0.87957 0.70266 0.0
C302 C 0.2976 0.9186 0.73559 0.0
C303 C 0.31448 0.90645 0.75119 0.0
C304 C 0.3186 0.88066 0.74268 0.0
H305 H 0.40344 0.94386 0.90466 0.0
H306 H 0.38309 0.92426 0.86037 0.0
C307 C 0.30633 0.86734 0.7186 0.0
C308 C 0.32713 0.92028 0.77694 0.0
H309 H 0.38891 0.94824 0.80581 0.0
C310 C 0.30984 0.92355 0.80036 0.0
C311 C 0.35596 0.92951 0.77872 0.0
C312 C 0.37541 0.9274 0.75375 0.0
C313 C 0.32066 0.93518 0.82594 0.0
C314 C 0.34951 0.94422 0.82782 0.0
C315 C 0.3668 0.94121 0.80426 0.0
C316 C 0.36218 0.95652 0.85421 0.0
C317 C 0.30113 0.93691 0.85098 0.0
C318 C 0.3575 0.98138 0.86505 0.0
C319 C 0.36906 0.99259 0.8903 0.0
C320 C 0.38572 0.97926 0.90498 0.0
C321 C 0.39084 0.95468 0.89371 0.0
C322 C 0.37918 0.94343 0.86851 0.0
H323 H 0.2803 0.92285 0.84839 0.0
H324 H 0.30896 0.93141 0.87123 0.0
H325 H 0.29913 0.95861 0.85275 0.0
H326 H 0.34496 0.99214 0.85393 0.0
H327 H 0.36518 1.01184 0.8982 0.0
H328 H 0.64827 0.45108 0.7962 0.0
H329 H 0.63059 0.47522 0.75892 0.0
H330 H 0.57771 0.39664 0.73337 0.0
H331 H 0.59507 0.37255 0.77062 0.0
H332 H 0.63096 0.46778 0.69917 0.0
H333 H 0.52421 0.44546 0.74598 0.0
H334 H 0.55246 0.44108 0.76587 0.0
H335 H 0.53656 0.41487 0.74095 0.0
C336 C 0.63283 0.43898 0.78269 0.0
C337 C 0.62293 0.40988 0.78647 0.0
C338 C 0.62277 0.45279 0.76134 0.0
C339 C 0.60248 0.43784 0.74355 0.0
C340 C 0.59292 0.40876 0.74712 0.0
H341 H 0.55292 0.49063 0.58136 0.0
H342 H 0.57295 0.46911 0.61862 0.0
C343 C 0.60297 0.39498 0.76835 0.0
C344 C 0.59135 0.45244 0.72112 0.0
H345 H 0.53174 0.4637 0.69865 0.0
C346 C 0.60928 0.467 0.69912 0.0
C347 C 0.56311 0.45172 0.72115 0.0
C348 C 0.54297 0.43768 0.74488 0.0
C349 C 0.59968 0.48033 0.67691 0.0
C350 C 0.57126 0.47879 0.67642 0.0
C351 C 0.55346 0.46468 0.69876 0.0
C352 C 0.55957 0.49216 0.6534 0.0
C353 C 0.62015 0.49634 0.65444 0.0
C354 C 0.54477 0.51186 0.6604 0.0
C355 C 0.5331 0.52405 0.63916 0.0
C356 C 0.5358 0.51677 0.61028 0.0
C357 C 0.55055 0.49694 0.60328 0.0
C358 C 0.56221 0.4847 0.6246 0.0
H359 H 0.64141 0.50189 0.66192 0.0
H360 H 0.61984 0.48319 0.63517 0.0
H361 H 0.61492 0.5158 0.64821 0.0
H362 H 0.5423 0.51792 0.68241 0.0
H363 H 0.5219 0.53919 0.64546 0.0
H364 H 0.93435 0.69008 0.30451 0.0
H365 H 0.94852 0.66507 0.2636 0.0
H366 H 0.86353 0.62947 0.24606 0.0
H367 H 0.84921 0.6543 0.28695 0.0
H368 H 0.93138 0.60404 0.25446 0.0
H369 H 0.90248 0.66641 0.16883 0.0
H370 H 0.90803 0.67925 0.20474 0.0
H371 H 0.87695 0.65353 0.19722 0.0
C372 C 0.91871 0.67696 0.29187 0.0
C373 C 0.89073 0.67414 0.29892 0.0
C374 C 0.92682 0.66268 0.26858 0.0
C375 C 0.90707 0.6456 0.25172 0.0
C376 C 0.87908 0.64277 0.25865 0.0
H377 H 0.9338 0.52429 0.12416 0.0
H378 H 0.91515 0.54743 0.16396 0.0
C379 C 0.87095 0.6569 0.28208 0.0
C380 C 0.91585 0.63042 0.22718 0.0
H381 H 0.91914 0.62792 0.1543 0.0
C382 C 0.92861 0.60915 0.23256 0.0
C383 C 0.91235 0.63731 0.19867 0.0
C384 C 0.89938 0.66048 0.1918 0.0
C385 C 0.93795 0.59451 0.21011 0.0
C386 C 0.93434 0.60132 0.18161 0.0
C387 C 0.92164 0.62263 0.17621 0.0
C388 C 0.94484 0.58738 0.15711 0.0
C389 C 0.95216 0.57229 0.21693 0.0
C390 C 0.96744 0.6023 0.13994 0.0
C391 C 0.97819 0.58913 0.11742 0.0
C392 C 0.96628 0.56089 0.1114 0.0
C393 C 0.94336 0.54607 0.12833 0.0
C394 C 0.93274 0.55923 0.15105 0.0
H395 H 0.95707 0.5725 0.23975 0.0
H396 H 0.93858 0.55145 0.21212 0.0
H397 H 0.97148 0.57514 0.20347 0.0
H398 H 0.9771 0.62403 0.14432 0.0
H399 H 0.99608 0.601 0.10498 0.0
H400 H 0.38673 0.28528 0.18157 0.0
H401 H 0.41336 0.25393 0.16198 0.0
H402 H 0.34876 0.18263 0.19112 0.0
H403 H 0.32159 0.21355 0.20988 0.0
H404 H 0.41039 0.18664 0.20385 0.0
H405 H 0.3859 0.19824 0.09083 0.0
H406 H 0.39564 0.22913 0.11239 0.0
H407 H 0.36362 0.20382 0.12045 0.0
C408 C 0.37808 0.26294 0.18364 0.0
C409 C 0.35201 0.25198 0.19738 0.0
C410 C 0.3934 0.2451 0.17261 0.0
C411 C 0.38297 0.21607 0.17522 0.0
C412 C 0.35718 0.20503 0.18912 0.0
H413 H 0.42508 0.07889 0.088 0.0
H414 H 0.40255 0.11103 0.11264 0.0
C415 C 0.34177 0.22278 0.19996 0.0
C416 C 0.39853 0.19702 0.1628 0.0
H417 H 0.4142 0.1687 0.09973 0.0
C418 C 0.41143 0.18277 0.18109 0.0
C419 C 0.3995 0.19196 0.13317 0.0
C420 C 0.38538 0.20641 0.1129 0.0
C421 C 0.42531 0.1634 0.17041 0.0
C422 C 0.42632 0.15834 0.14072 0.0
C423 C 0.41343 0.17269 0.12248 0.0
C424 C 0.44003 0.13776 0.12803 0.0
C425 C 0.43822 0.14801 0.19098 0.0
C426 C 0.46857 0.14198 0.12881 0.0
C427 C 0.48158 0.12359 0.11475 0.0
C428 C 0.46625 0.10076 0.09952 0.0
C429 C 0.43755 0.09624 0.09948 0.0
C430 C 0.42461 0.11461 0.11351 0.0
H431 H 0.43063 0.14982 0.21339 0.0
H432 H 0.43398 0.12554 0.18542 0.0
H433 H 0.46083 0.15695 0.18965 0.0
H434 H 0.48089 0.15996 0.13955 0.0
H435 H 0.50372 0.12778 0.11511 0.0
H436 H 0.1741 0.8808 0.64684 0.0
H437 H 0.14623 0.90948 0.62842 0.0
H438 H 0.1455 0.86851 0.54696 0.0
H439 H 0.17336 0.83935 0.56544 0.0
H440 H 0.16535 0.94561 0.58093 0.0
H441 H 0.06443 0.87032 0.56358 0.0
H442 H 0.08896 0.86267 0.58685 0.0
H443 H 0.09445 0.86104 0.54884 0.0
C444 C 0.16768 0.87754 0.62514 0.0
C445 C 0.17604 0.85801 0.60741 0.0
C446 C 0.15174 0.89393 0.61468 0.0
C447 C 0.1438 0.89102 0.58641 0.0
C448 C 0.15113 0.87075 0.56898 0.0
H449 H 0.06093 0.99334 0.49158 0.0
H450 H 0.08551 0.95881 0.50419 0.0
C451 C 0.16706 0.85422 0.57949 0.0
C452 C 0.1301 0.91106 0.5747 0.0
H453 H 0.06991 0.91708 0.54903 0.0
C454 C 0.14449 0.93939 0.57389 0.0
C455 C 0.10304 0.90273 0.56531 0.0
C456 C 0.08663 0.87257 0.5663 0.0
C457 C 0.13239 0.95978 0.56431 0.0
C458 C 0.10506 0.95159 0.55572 0.0
C459 C 0.09087 0.92318 0.55574 0.0
C460 C 0.09049 0.97242 0.54795 0.0
C461 C 0.14893 0.98992 0.56345 0.0
C462 C 0.08513 0.99125 0.56848 0.0
C463 C 0.07125 1.01093 0.56135 0.0
C464 C 0.0624 1.01191 0.53362 0.0
C465 C 0.06774 0.99305 0.51306 0.0
C466 C 0.08161 0.97331 0.52024 0.0
H467 H 0.17136 0.99182 0.56342 0.0
H468 H 0.14471 1.0008 0.54428 0.0
H469 H 0.14313 1.00072 0.58265 0.0
H470 H 0.09149 0.99056 0.5901 0.0
H471 H 0.06726 1.0252 0.57759 0.0
H472 H 0.71806 0.4526 0.89698 0.0
H473 H 0.76106 0.47641 0.91857 0.0
H474 H 0.78351 0.39848 0.92208 0.0
H475 H 0.74125 0.3748 0.89958 0.0
H476 H 0.77951 0.46751 0.97086 0.0
H477 H 0.85269 0.44941 0.88536 0.0
H478 H 0.81648 0.44384 0.88016 0.0
H479 H 0.82874 0.41774 0.89789 0.0
C480 C 0.73236 0.4406 0.90187 0.0
C481 C 0.72608 0.41172 0.89642 0.0
C482 C 0.75687 0.45423 0.91444 0.0
C483 C 0.7758 0.43937 0.92164 0.0
C484 C 0.76958 0.41058 0.91624 0.0
H485 H 0.9287 0.47151 1.00724 0.0
H486 H 0.88578 0.45176 0.98394 0.0
C487 C 0.74516 0.39696 0.90367 0.0
C488 C 0.80159 0.45367 0.93564 0.0
H489 H 0.87151 0.46508 0.92998 0.0
C490 C 0.79964 0.46721 0.96179 0.0
C491 C 0.82793 0.45333 0.92385 0.0
C492 C 0.83168 0.44055 0.89513 0.0
C493 C 0.82314 0.47958 0.97684 0.0
C494 C 0.84942 0.47877 0.96528 0.0
C495 C 0.85139 0.46559 0.93895 0.0
C496 C 0.87511 0.49102 0.9803 0.0
C497 C 0.81958 0.49267 1.00542 0.0
C498 C 0.88356 0.51976 0.986 0.0
C499 C 0.90817 0.53119 0.99939 0.0
C500 C 0.92496 0.51412 1.00728 0.0
C501 C 0.91635 0.48533 1.0016 0.0
C502 C 0.89179 0.47396 0.98819 0.0
H503 H 0.79804 0.4857 1.0144 0.0
H504 H 0.83339 0.48751 1.02097 0.0
H505 H 0.82494 0.51571 1.00285 0.0
H506 H 0.87135 0.53348 0.97965 0.0
H507 H 0.91416 0.55346 1.00322 0.0
H508 H 0.76359 0.71738 0.40393 0.0
H509 H 0.71961 0.69501 0.42893 0.0
H510 H 0.74658 0.62029 0.44028 0.0
H511 H 0.79029 0.64236 0.41426 0.0
H512 H 0.6945 0.60708 0.42704 0.0
H513 H 0.70776 0.68503 0.51343 0.0
H514 H 0.70926 0.70123 0.47915 0.0
H515 H 0.73514 0.6839 0.48754 0.0
C516 C 0.76007 0.69617 0.41176 0.0
C517 C 0.78036 0.68165 0.40742 0.0
C518 C 0.73503 0.68347 0.4262 0.0
C519 C 0.73006 0.65624 0.43722 0.0
C520 C 0.75003 0.6414 0.43218 0.0
H521 H 0.59508 0.59654 0.5647 0.0
H522 H 0.64063 0.61048 0.53998 0.0
C523 C 0.77494 0.65396 0.4173 0.0
C524 C 0.70402 0.64333 0.45396 0.0
H525 H 0.6625 0.65501 0.5099 0.0
C526 C 0.6876 0.61743 0.44533 0.0
C527 C 0.69529 0.65646 0.47827 0.0
C528 C 0.71295 0.68302 0.49033 0.0
C529 C 0.6623 0.60478 0.45973 0.0
C530 C 0.65274 0.61887 0.48283 0.0
C531 C 0.66959 0.64433 0.49198 0.0
C532 C 0.62519 0.60804 0.49756 0.0
C533 C 0.64636 0.57629 0.45026 0.0
C534 C 0.60132 0.60189 0.48202 0.0
C535 C 0.57535 0.59351 0.4961 0.0
C536 C 0.57278 0.59177 0.52602 0.0
C537 C 0.59657 0.59782 0.5416 0.0
C538 C 0.62255 0.60576 0.52749 0.0
H539 H 0.6602 0.56461 0.43984 0.0
H540 H 0.63467 0.56364 0.4685 0.0
H541 H 0.63161 0.57874 0.43438 0.0
H542 H 0.60269 0.6043 0.45902 0.0
H543 H 0.55727 0.58922 0.48363 0.0
H544 H 0.28913 0.40235 0.2151 0.0
H545 H 0.25497 0.42152 0.19291 0.0
H546 H 0.24956 0.36179 0.12487 0.0
H547 H 0.28378 0.34264 0.14678 0.0
H548 H 0.25476 0.44191 0.13152 0.0
H549 H 0.16944 0.34978 0.16528 0.0
H550 H 0.20181 0.35886 0.18237 0.0
H551 H 0.19963 0.34296 0.14783 0.0
C552 C 0.2809 0.39358 0.1952 0.0
C553 C 0.28901 0.371 0.18271 0.0
C554 C 0.26145 0.40453 0.18259 0.0
C555 C 0.24966 0.39287 0.15745 0.0
C556 C 0.25835 0.3709 0.14441 0.0
H557 H 0.11006 0.41188 0.06767 0.0
H558 H 0.14939 0.39761 0.08423 0.0
C559 C 0.27794 0.36005 0.15691 0.0
C560 C 0.22733 0.40284 0.1456 0.0
H561 H 0.15815 0.38414 0.13758 0.0
C562 C 0.23361 0.42936 0.13277 0.0
C563 C 0.19985 0.38632 0.14735 0.0
C564 C 0.19205 0.35794 0.16159 0.0
C565 C 0.21307 0.43968 0.12116 0.0
C566 C 0.18547 0.42325 0.12315 0.0
C567 C 0.17929 0.3967 0.13603 0.0
C568 C 0.16258 0.43303 0.11204 0.0
C569 C 0.22125 0.46776 0.10633 0.0
C570 C 0.15683 0.45768 0.12221 0.0
C571 C 0.13455 0.46616 0.11244 0.0
C572 C 0.11733 0.44994 0.09257 0.0
C573 C 0.12313 0.42518 0.08255 0.0
C574 C 0.1455 0.41685 0.09217 0.0
H575 H 0.24339 0.47369 0.0993 0.0
H576 H 0.20893 0.46787 0.08743 0.0
H577 H 0.21762 0.48392 0.12139 0.0
H578 H 0.16932 0.47018 0.13804 0.0
H579 H 0.13087 0.48544 0.12045 0.0
H580 H 0.68127 0.31116 0.89132 0.0
H581 H 0.65761 0.265 0.91086 0.0
H582 H 0.58228 0.29051 0.92143 0.0
H583 H 0.60573 0.3364 0.90093 0.0
H584 H 0.63443 0.249 0.96098 0.0
H585 H 0.55413 0.218 0.8825 0.0
H586 H 0.58282 0.24836 0.87736 0.0
H587 H 0.55322 0.25009 0.8998 0.0
C588 C 0.6596 0.30684 0.89765 0.0
C589 C 0.64532 0.32737 0.89441 0.0
C590 C 0.64607 0.28043 0.90884 0.0
C591 C 0.61795 0.27391 0.91725 0.0
C592 C 0.60373 0.29456 0.91434 0.0
H593 H 0.53716 0.13553 1.03291 0.0
H594 H 0.56196 0.18074 1.01197 0.0
C595 C 0.61718 0.32087 0.90273 0.0
C596 C 0.60391 0.24587 0.92985 0.0
H597 H 0.54802 0.18989 0.92456 0.0
C598 C 0.61561 0.23603 0.95287 0.0
C599 C 0.57956 0.22857 0.91911 0.0
C600 C 0.56686 0.23665 0.89315 0.0
C601 C 0.60359 0.20974 0.96557 0.0
C602 C 0.57855 0.19302 0.95568 0.0
C603 C 0.56703 0.20271 0.93244 0.0
C604 C 0.56405 0.16533 0.9688 0.0
C605 C 0.61834 0.19995 0.98896 0.0
C606 C 0.55619 0.14155 0.95158 0.0
C607 C 0.54147 0.1158 0.96347 0.0
C608 C 0.53442 0.1132 0.99288 0.0
C609 C 0.54257 0.13683 1.01021 0.0
C610 C 0.55694 0.16269 0.99825 0.0
H611 H 0.64071 0.21043 0.98748 0.0
H612 H 0.60996 0.20523 1.00999 0.0
H613 H 0.61562 0.17702 0.98817 0.0
H614 H 0.56131 0.14292 0.92882 0.0
H615 H 0.53542 0.09794 0.94959 0.0
H616 H 0.85683 0.74955 0.44651 0.0
H617 H 0.87947 0.79527 0.46576 0.0
H618 H 0.89634 0.82932 0.38042 0.0
H619 H 0.87351 0.78351 0.36092 0.0
H620 H 0.93653 0.82993 0.45066 0.0
H621 H 0.85357 0.88022 0.42676 0.0
H622 H 0.84762 0.84276 0.4291 0.0
H623 H 0.8661 0.86137 0.39845 0.0
C624 C 0.86533 0.76678 0.43183 0.0
C625 C 0.86325 0.76301 0.40221 0.0
C626 C 0.87834 0.79283 0.44286 0.0
C627 C 0.88928 0.81568 0.42452 0.0
C628 C 0.88776 0.81195 0.3949 0.0
H629 H 0.96082 0.99115 0.46433 0.0
H630 H 0.94051 0.94715 0.4404 0.0
C631 C 0.87492 0.78577 0.38381 0.0
C632 C 0.90214 0.84338 0.43664 0.0
H633 H 0.89198 0.90794 0.44902 0.0
C634 C 0.92689 0.84706 0.45025 0.0
C635 C 0.88952 0.86564 0.4359 0.0
C636 C 0.86264 0.86247 0.42194 0.0
C637 C 0.93944 0.87249 0.46317 0.0
C638 C 0.92642 0.89456 0.4632 0.0
C639 C 0.90187 0.891 0.44913 0.0
C640 C 0.9378 0.92136 0.47802 0.0
C641 C 0.96675 0.87555 0.47625 0.0
C642 C 0.94232 0.92161 0.50731 0.0
C643 C 0.95407 0.94668 0.521 0.0
C644 C 0.96116 0.9721 0.50577 0.0
C645 C 0.9556 0.97195 0.47669 0.0
C646 C 0.94404 0.9468 0.46296 0.0
H647 H 0.97769 0.86057 0.46692 0.0
H648 H 0.98024 0.89705 0.4732 0.0
H649 H 0.96323 0.87114 0.4995 0.0
H650 H 0.93691 0.90236 0.5196 0.0
H651 H 0.95779 0.94606 0.54349 0.0
H652 H 0.31316 0.80699 0.64865 0.0
H653 H 0.33988 0.78317 0.6178 0.0
H654 H 0.30992 0.81373 0.5434 0.0
H655 H 0.2833 0.83841 0.57438 0.0
H656 H 0.30677 0.75473 0.5435 0.0
H657 H 0.41017 0.81844 0.5674 0.0
H658 H 0.38883 0.80908 0.5995 0.0
H659 H 0.37969 0.83087 0.57317 0.0
C660 C 0.31258 0.80913 0.62574 0.0
C661 C 0.29637 0.82486 0.61396 0.0
C662 C 0.32784 0.79547 0.60814 0.0
C663 C 0.32727 0.79723 0.57838 0.0
C664 C 0.31079 0.81245 0.56636 0.0
H665 H 0.44453 0.70412 0.52755 0.0
H666 H 0.41973 0.73907 0.51742 0.0
C667 C 0.29552 0.82633 0.58406 0.0
C668 C 0.34308 0.78168 0.56054 0.0
H669 H 0.40627 0.76931 0.5572 0.0
C670 C 0.32871 0.75829 0.5456 0.0
C671 C 0.37178 0.78686 0.56247 0.0
C672 C 0.38855 0.81289 0.57625 0.0
C673 C 0.34186 0.73811 0.53564 0.0
C674 C 0.36973 0.74129 0.54149 0.0
C675 C 0.38476 0.76646 0.55315 0.0
C676 C 0.38224 0.71739 0.54101 0.0
C677 C 0.32538 0.71296 0.52033 0.0
C678 C 0.36918 0.69323 0.55693 0.0
C679 C 0.38321 0.67328 0.56256 0.0
C680 C 0.41074 0.67737 0.55284 0.0
C681 C 0.42336 0.7007 0.53555 0.0
C682 C 0.40918 0.72053 0.5296 0.0
H683 H 0.31049 0.71896 0.50668 0.0
H684 H 0.33877 0.70292 0.50683 0.0
H685 H 0.31334 0.69751 0.53627 0.0
H686 H 0.34879 0.69069 0.5668 0.0
H687 H 0.37312 0.65564 0.57619 0.0
H688 H 0.73119 0.87436 0.82523 0.0
H689 H 0.76574 0.88817 0.786 0.0
H690 H 0.74833 0.80285 0.75741 0.0
H691 H 0.71326 0.78883 0.79646 0.0
H692 H 0.80381 0.82701 0.76577 0.0
H693 H 0.76122 0.89589 0.69948 0.0
H694 H 0.76084 0.90461 0.73668 0.0
H695 H 0.74028 0.87137 0.72522 0.0
C696 C 0.73407 0.85863 0.81014 0.0
C697 C 0.71943 0.83047 0.81399 0.0
C698 C 0.75388 0.86657 0.78772 0.0
C699 C 0.75938 0.84658 0.76864 0.0
C700 C 0.74429 0.8186 0.77187 0.0
H701 H 0.88481 0.90169 0.62889 0.0
H702 H 0.84225 0.87631 0.65481 0.0
C703 C 0.72438 0.81063 0.79425 0.0
C704 C 0.78273 0.85461 0.74721 0.0
H705 H 0.80995 0.90115 0.69338 0.0
C706 C 0.80499 0.84288 0.74961 0.0
C707 C 0.78408 0.87506 0.72596 0.0
C708 C 0.76021 0.88728 0.72144 0.0
C709 C 0.8292 0.85221 0.73234 0.0
C710 C 0.83123 0.874 0.71243 0.0
C711 C 0.80841 0.88462 0.70889 0.0
C712 C 0.85747 0.88752 0.69666 0.0
C713 C 0.85262 0.83909 0.73594 0.0
C714 C 0.88003 0.90218 0.71166 0.0
C715 C 0.90421 0.91691 0.69699 0.0
C716 C 0.90632 0.91732 0.66696 0.0
C717 C 0.8838 0.90207 0.652 0.0
C718 C 0.85952 0.88745 0.66674 0.0
H719 H 0.8453 0.81792 0.74571 0.0
H720 H 0.86362 0.83749 0.71512 0.0
H721 H 0.86748 0.85229 0.75023 0.0
H722 H 0.87864 0.90297 0.73476 0.0
H723 H 0.92085 0.92887 0.70923 0.0
H724 H 0.71825 0.18279 0.39675 0.0
H725 H 0.70293 0.16946 0.34899 0.0
H726 H 0.62287 0.18039 0.37366 0.0
H727 H 0.6376 0.19241 0.422 0.0
H728 H 0.6193 0.13266 0.34458 0.0
H729 H 0.69219 0.2204 0.28631 0.0
H730 H 0.70927 0.20107 0.30779 0.0
H731 H 0.68673 0.21987 0.32465 0.0
C732 C 0.69728 0.18209 0.39215 0.0
C733 C 0.67914 0.18868 0.41323 0.0
C734 C 0.6887 0.17489 0.36469 0.0
C735 C 0.66195 0.17452 0.35762 0.0
C736 C 0.6437 0.18083 0.37862 0.0
H737 H 0.60894 0.16112 0.18293 0.0
H738 H 0.62187 0.17753 0.23089 0.0
C739 C 0.6522 0.18786 0.40617 0.0
C740 C 0.65275 0.16657 0.32858 0.0
H741 H 0.6687 0.18221 0.25797 0.0
C742 C 0.62996 0.14362 0.32564 0.0
C743 C 0.6664 0.1812 0.30394 0.0
C744 C 0.68982 0.20718 0.30579 0.0
C745 C 0.62089 0.13438 0.29866 0.0
C746 C 0.63549 0.14805 0.27397 0.0
C747 C 0.65778 0.17152 0.27693 0.0
C748 C 0.62806 0.13823 0.24487 0.0
C749 C 0.59558 0.11028 0.29693 0.0
C750 C 0.62782 0.11091 0.23669 0.0
C751 C 0.62031 0.10149 0.20944 0.0
C752 C 0.61334 0.11937 0.18974 0.0
C753 C 0.61437 0.14697 0.19767 0.0
C754 C 0.62164 0.15631 0.22504 0.0
H755 H 0.58233 0.10796 0.31692 0.0
H756 H 0.58322 0.113 0.27879 0.0
H757 H 0.6019 0.09063 0.29374 0.0
H758 H 0.63349 0.09688 0.25137 0.0
H759 H 0.62011 0.08025 0.2037 0.0
H760 H 0.34236 0.66728 0.30799 0.0
H761 H 0.35636 0.64571 0.34964 0.0
H762 H 0.44068 0.69126 0.3307 0.0
H763 H 0.42672 0.71323 0.28957 0.0
H764 H 0.39046 0.61224 0.35355 0.0
H765 H 0.43208 0.70865 0.41409 0.0
H766 H 0.41156 0.70804 0.38362 0.0
H767 H 0.44774 0.71045 0.3787 0.0
C768 C 0.36385 0.67282 0.31283 0.0
C769 C 0.38345 0.6921 0.29556 0.0
C770 C 0.37185 0.66045 0.33665 0.0
C771 C 0.39955 0.66721 0.34376 0.0
C772 C 0.4191 0.68622 0.32626 0.0
H773 H 0.48219 0.57022 0.44264 0.0
H774 H 0.46173 0.59183 0.40606 0.0
C775 C 0.41112 0.69862 0.30259 0.0
C776 C 0.40829 0.65373 0.36876 0.0
H777 H 0.44508 0.66794 0.42877 0.0
C778 C 0.40218 0.62445 0.37012 0.0
C779 C 0.42318 0.6695 0.39081 0.0
C780 C 0.42877 0.70088 0.39195 0.0
C781 C 0.41138 0.61062 0.39218 0.0
C782 C 0.42774 0.62646 0.41322 0.0
C783 C 0.43294 0.6557 0.41248 0.0
C784 C 0.4401 0.61319 0.43579 0.0
C785 C 0.4032 0.57911 0.3928 0.0
C786 C 0.43565 0.61864 0.46487 0.0
C787 C 0.44767 0.60654 0.48596 0.0
C788 C 0.46452 0.58873 0.47846 0.0
C789 C 0.46914 0.58355 0.44932 0.0
C790 C 0.45725 0.59577 0.42828 0.0
H791 H 0.38401 0.57053 0.38152 0.0
H792 H 0.41972 0.57133 0.38177 0.0
H793 H 0.40006 0.57091 0.41503 0.0
H794 H 0.42271 0.63218 0.47129 0.0
H795 H 0.44371 0.61112 0.50813 0.0
H796 H 0.10662 0.40955 0.79529 0.0
H797 H 0.08286 0.42993 0.8334 0.0
H798 H 0.15647 0.49619 0.84311 0.0
H799 H 0.18036 0.47588 0.80529 0.0
H800 H 0.10261 0.44426 0.89352 0.0
H801 H 0.09194 0.53444 0.82947 0.0
H802 H 0.09671 0.50278 0.81327 0.0
H803 H 0.12528 0.52759 0.82774 0.0
C804 C 0.11771 0.42846 0.80553 0.0
C805 C 0.14534 0.44123 0.79729 0.0
C806 C 0.10414 0.44003 0.82731 0.0
C807 C 0.11788 0.46466 0.84086 0.0
C808 C 0.14546 0.47731 0.83272 0.0
H809 H 0.07648 0.57727 0.9672 0.0
H810 H 0.09836 0.55388 0.93023 0.0
C811 C 0.15906 0.46567 0.81119 0.0
C812 C 0.10361 0.47726 0.86364 0.0
H813 H 0.07992 0.53446 0.87883 0.0
C814 C 0.09743 0.46388 0.89034 0.0
C815 C 0.09714 0.50293 0.85939 0.0
C816 C 0.10288 0.5178 0.83089 0.0
C817 C 0.08549 0.47587 0.9132 0.0
C818 C 0.07895 0.5016 0.90896 0.0
C819 C 0.08496 0.5148 0.88211 0.0
C820 C 0.06599 0.51531 0.93204 0.0
C821 C 0.08082 0.46132 0.94189 0.0
C822 C 0.04042 0.50153 0.94521 0.0
C823 C 0.02802 0.51481 0.96641 0.0
C824 C 0.0408 0.54222 0.97462 0.0
C825 C 0.06623 0.55611 0.9613 0.0
C826 C 0.07871 0.54277 0.9402 0.0
H827 H 0.09393 0.44664 0.94373 0.0
H828 H 0.08511 0.47661 0.95956 0.0
H829 H 0.05904 0.44905 0.94461 0.0
H830 H 0.02984 0.48065 0.93878 0.0
H831 H 0.00821 0.50375 0.97606 0.0
H832 H 0.63506 0.85611 0.84864 0.0
H833 H 0.6097 0.88863 0.86788 0.0
H834 H 0.63948 0.88121 0.95116 0.0
H835 H 0.66505 0.84887 0.9321 0.0
H836 H 0.58298 0.87775 0.95181 0.0
H837 H 0.64485 0.97011 0.88995 0.0
H838 H 0.63028 0.93998 0.86894 0.0
H839 H 0.65593 0.93859 0.8936 0.0
C840 C 0.63633 0.86152 0.87102 0.0
C841 C 0.65219 0.85 0.88881 0.0
C842 C 0.62185 0.88011 0.88196 0.0
C843 C 0.62307 0.88765 0.91083 0.0
C844 C 0.63833 0.87571 0.92879 0.0
H845 H 0.58295 1.02519 1.00026 0.0
H846 H 0.60501 0.99268 0.97546 0.0
C847 C 0.6528 0.85711 0.91789 0.0
C848 C 0.60847 0.90799 0.92245 0.0
H849 H 0.6063 0.97607 0.91776 0.0
C850 C 0.58799 0.89923 0.94433 0.0
C851 C 0.6153 0.93606 0.91282 0.0
C852 C 0.63794 0.94692 0.89021 0.0
C853 C 0.57411 0.91779 0.95685 0.0
C854 C 0.58064 0.94575 0.94693 0.0
C855 C 0.60116 0.95454 0.92509 0.0
C856 C 0.5673 0.96649 0.95996 0.0
C857 C 0.55311 0.90752 0.98114 0.0
C858 C 0.53889 0.96299 0.95874 0.0
C859 C 0.52617 0.98153 0.97291 0.0
C860 C 0.5417 1.00399 0.98847 0.0
C861 C 0.57034 1.00808 0.98859 0.0
C862 C 0.58301 0.98953 0.97442 0.0
H863 H 0.55492 0.88753 0.99032 0.0
H864 H 0.55532 0.92325 0.9984 0.0
H865 H 0.53217 0.90398 0.97317 0.0
H866 H 0.52648 0.94563 0.94723 0.0
H867 H 0.5041 0.97784 0.9722 0.0
H868 H 0.76929 0.14852 0.48525 0.0
H869 H 0.80846 0.13005 0.49414 0.0
H870 H 0.82182 0.17768 0.57172 0.0
H871 H 0.78244 0.19635 0.56301 0.0
H872 H 0.86545 0.16296 0.50314 0.0
H873 H 0.815 0.09418 0.59463 0.0
H874 H 0.79564 0.1073 0.56925 0.0
H875 H 0.81343 0.12999 0.59599 0.0
C876 C 0.78046 0.15505 0.50426 0.0
C877 C 0.77278 0.17376 0.52361 0.0
C878 C 0.80288 0.14454 0.50922 0.0
C879 C 0.81778 0.15242 0.53362 0.0
C880 C 0.81029 0.1712 0.55291 0.0
H881 H 0.94815 0.09251 0.60225 0.0
H882 H 0.91378 0.11797 0.59383 0.0
C883 C 0.7879 0.1818 0.54793 0.0
C884 C 0.84108 0.14074 0.53888 0.0
H885 H 0.861 0.09537 0.58187 0.0
C886 C 0.86462 0.14824 0.52038 0.0
C887 C 0.83975 0.12166 0.56143 0.0
C888 C 0.81458 0.11256 0.58143 0.0
C889 C 0.8871 0.13715 0.52395 0.0
C890 C 0.88556 0.1176 0.54618 0.0
C891 C 0.86209 0.11038 0.56485 0.0
C892 C 0.90777 0.10387 0.55031 0.0
C893 C 0.91237 0.14678 0.50416 0.0
C894 C 0.91577 0.08758 0.52858 0.0
C895 C 0.93553 0.07321 0.53328 0.0
C896 C 0.94718 0.07462 0.55993 0.0
C897 C 0.93933 0.09105 0.58156 0.0
C898 C 0.91977 0.10559 0.57678 0.0
H899 H 0.91354 0.16743 0.49437 0.0
H900 H 0.93142 0.14831 0.51558 0.0
H901 H 0.91153 0.13151 0.48663 0.0
H902 H 0.90628 0.08544 0.50823 0.0
H903 H 0.94125 0.06057 0.51632 0.0
H904 H 0.25588 0.68157 0.22432 0.0
H905 H 0.21378 0.65798 0.20106 0.0
H906 H 0.2584 0.6703 0.11911 0.0
H907 H 0.30023 0.69472 0.14224 0.0
H908 H 0.21227 0.68315 0.11492 0.0
H909 H 0.1885 0.58108 0.17057 0.0
H910 H 0.19087 0.60928 0.1952 0.0
H911 H 0.2208 0.60694 0.17363 0.0
C912 C 0.25674 0.67891 0.20138 0.0
C913 C 0.2814 0.68998 0.18514 0.0
C914 C 0.23267 0.66527 0.18807 0.0
C915 C 0.23284 0.6618 0.15827 0.0
C916 C 0.2576 0.67259 0.1421 0.0
H917 H 0.09597 0.55282 0.07057 0.0
H918 H 0.13982 0.57328 0.09213 0.0
C919 C 0.28154 0.68658 0.15534 0.0
C920 C 0.20706 0.64828 0.14371 0.0
H921 H 0.15253 0.59025 0.14413 0.0
C922 C 0.19935 0.66273 0.12124 0.0
C923 C 0.19026 0.6214 0.15145 0.0
C924 C 0.19817 0.60365 0.17382 0.0
C925 C 0.17528 0.65142 0.10673 0.0
C926 C 0.15771 0.62523 0.1155 0.0
C927 C 0.16568 0.61048 0.13758 0.0
C928 C 0.13102 0.61283 0.10213 0.0
C929 C 0.16936 0.66751 0.08171 0.0
C930 C 0.11114 0.62796 0.10079 0.0
C931 C 0.08623 0.61648 0.08808 0.0
C932 C 0.08027 0.58928 0.0769 0.0
C933 C 0.0999 0.57387 0.07881 0.0
C934 C 0.125 0.58554 0.09122 0.0
H935 H 0.1885 0.68164 0.07201 0.0
H936 H 0.15906 0.65327 0.06493 0.0
H937 H 0.15569 0.68065 0.08918 0.0
H938 H 0.11475 0.64866 0.10984 0.0
H939 H 0.07147 0.62882 0.08742 0.0
H940 H 0.2422 0.38006 0.6886 0.0
H941 H 0.28596 0.4041 0.6642 0.0
H942 H 0.25434 0.4753 0.64909 0.0
H943 H 0.21086 0.45162 0.67461 0.0
H944 H 0.29633 0.41991 0.61112 0.0
H945 H 0.32719 0.51397 0.67841 0.0
H946 H 0.2991 0.48441 0.68895 0.0
H947 H 0.29413 0.50997 0.66415 0.0
C948 C 0.24475 0.40097 0.6803 0.0
C949 C 0.22328 0.41407 0.68354 0.0
C950 C 0.26972 0.41469 0.66635 0.0
C951 C 0.27367 0.4417 0.65508 0.0
C952 C 0.25215 0.45482 0.65826 0.0
H953 H 0.40549 0.50502 0.5242 0.0
H954 H 0.36052 0.48794 0.54959 0.0
C955 C 0.22727 0.44124 0.67268 0.0
C956 C 0.29984 0.45532 0.63884 0.0
H957 H 0.35337 0.51413 0.63468 0.0
C958 C 0.30883 0.44049 0.61637 0.0
C959 C 0.31634 0.48206 0.64582 0.0
C960 C 0.30887 0.49842 0.67083 0.0
C961 C 0.33384 0.45147 0.60082 0.0
C962 C 0.3499 0.4786 0.60715 0.0
C963 C 0.3409 0.4935 0.62958 0.0
C964 C 0.37673 0.49127 0.59169 0.0
C965 C 0.34316 0.43338 0.57849 0.0
C966 C 0.40066 0.50029 0.60692 0.0
C967 C 0.42623 0.51064 0.59248 0.0
C968 C 0.42836 0.51192 0.56253 0.0
C969 C 0.40439 0.50383 0.5473 0.0
C970 C 0.37874 0.4939 0.56178 0.0
H971 H 0.33283 0.41089 0.58212 0.0
H972 H 0.33784 0.43919 0.55714 0.0
H973 H 0.36573 0.43621 0.57826 0.0
H974 H 0.39965 0.49865 0.63 0.0
H975 H 0.44442 0.51686 0.60474 0.0
H976 H 0.72214 0.75845 0.93645 0.0
H977 H 0.75685 0.73862 0.95638 0.0
H978 H 0.74877 0.67993 0.88708 0.0
H979 H 0.71448 0.70008 0.86672 0.0
H980 H 0.75582 0.68493 0.97414 0.0
H981 H 0.83066 0.71886 0.88196 0.0
H982 H 0.80034 0.73144 0.88752 0.0
H983 H 0.79784 0.69753 0.87238 0.0
C984 C 0.72761 0.74119 0.92557 0.0
C985 C 0.7158 0.73088 0.8999 0.0
C986 C 0.74744 0.72989 0.93698 0.0
C987 C 0.75578 0.70818 0.9229 0.0
C988 C 0.74311 0.6971 0.89793 0.0
H989 H 0.87986 0.62061 0.95575 0.0
H990 H 0.84084 0.63489 0.93793 0.0
C991 C 0.7234 0.70847 0.88645 0.0
C992 C 0.77816 0.69759 0.93397 0.0
H993 H 0.84247 0.69018 0.91667 0.0
C994 C 0.77478 0.68611 0.96161 0.0
C995 C 0.80293 0.69924 0.91758 0.0
C996 C 0.80836 0.71266 0.88832 0.0
C997 C 0.79541 0.67592 0.97319 0.0
C998 C 0.82009 0.67754 0.95677 0.0
C999 C 0.82342 0.68885 0.9291 0.0
C1000 C 0.84312 0.66838 0.9682 0.0
C1001 C 0.79056 0.66322 1.00275 0.0
C1002 C 0.85744 0.68269 0.99091 0.0
C1003 C 0.87994 0.67485 1.00091 0.0
C1004 C 0.88857 0.65249 0.98839 0.0
C1005 C 0.87403 0.63813 0.96566 0.0
C1006 C 0.85161 0.64612 0.95557 0.0
H1007 H 0.76845 0.65773 1.00988 0.0
H1008 H 0.79812 0.64414 1.00355 0.0
H1009 H 0.80206 0.67847 1.01805 0.0
H1010 H 0.85153 0.7003 1.00055 0.0
H1011 H 0.89094 0.68673 1.01806 0.0
H1012 H 0.32334 0.78806 0.17882 0.0
H1013 H 0.34759 0.83339 0.15824 0.0
H1014 H 0.4251 0.81854 0.17773 0.0
H1015 H 0.40109 0.7724 0.19691 0.0
H1016 H 0.37957 0.87865 0.18068 0.0
H1017 H 0.44038 0.84069 0.0952 0.0
H1018 H 0.41265 0.81748 0.11588 0.0
H1019 H 0.44612 0.82953 0.13009 0.0
C1020 C 0.34558 0.79412 0.1783 0.0
C1021 C 0.36017 0.77619 0.18927 0.0
C1022 C 0.35944 0.82027 0.16673 0.0
C1023 C 0.38827 0.82931 0.16585 0.0
C1024 C 0.40291 0.81184 0.17744 0.0
H1025 H 0.48311 1.00266 0.13917 0.0
H1026 H 0.45779 0.95723 0.15919 0.0
C1027 C 0.38907 0.78554 0.18883 0.0
C1028 C 0.4028 0.8572 0.15326 0.0
H1029 H 0.45239 0.88971 0.10316 0.0
C1030 C 0.39543 0.88102 0.16366 0.0
C1031 C 0.4232 0.8604 0.13068 0.0
C1032 C 0.43088 0.83565 0.11709 0.0
C1033 C 0.40806 0.90784 0.15246 0.0
C1034 C 0.42927 0.91117 0.1307 0.0
C1035 C 0.43636 0.88731 0.12001 0.0
C1036 C 0.44428 0.93912 0.11861 0.0
C1037 C 0.39803 0.93221 0.16365 0.0
C1038 C 0.44587 0.94407 0.08899 0.0
C1039 C 0.46073 0.96995 0.07746 0.0
C1040 C 0.4743 0.99148 0.09529 0.0
C1041 C 0.47264 0.98659 0.1249 0.0
C1042 C 0.45799 0.96064 0.1364 0.0
H1043 H 0.37669 0.92527 0.17316 0.0
H1044 H 0.41144 0.94272 0.18063 0.0
H1045 H 0.39861 0.94769 0.14649 0.0
H1046 H 0.43567 0.92783 0.07474 0.0
H1047 H 0.46189 0.97296 0.05454 0.0
H1048 H 0.13454 0.30856 0.72999 0.0
H1049 H 0.11496 0.26208 0.71016 0.0
H1050 H 0.12953 0.29708 0.62507 0.0
H1051 H 0.14934 0.34328 0.64466 0.0
H1052 H 0.07139 0.2415 0.67647 0.0
H1053 H 0.16822 0.23525 0.61883 0.0
H1054 H 0.16709 0.26154 0.6453 0.0
H1055 H 0.15793 0.26584 0.60936 0.0
C1056 C 0.13334 0.30631 0.70708 0.0
C1057 C 0.14379 0.32947 0.68885 0.0
C1058 C 0.12228 0.27977 0.69577 0.0
C1059 C 0.12145 0.27598 0.66608 0.0
C1060 C 0.13075 0.29932 0.64798 0.0
H1061 H 0.0553 0.14464 0.54888 0.0
H1062 H 0.07605 0.18826 0.57314 0.0
C1063 C 0.14196 0.32573 0.65921 0.0
C1064 C 0.11081 0.24773 0.65387 0.0
H1065 H 0.12736 0.20146 0.60628 0.0
C1066 C 0.08372 0.2326 0.66138 0.0
C1067 C 0.12697 0.23605 0.63426 0.0
C1068 C 0.15675 0.25038 0.62667 0.0
C1069 C 0.07206 0.20659 0.64901 0.0
C1070 C 0.08798 0.19541 0.62879 0.0
C1071 C 0.11519 0.21022 0.62169 0.0
C1072 C 0.07642 0.16871 0.61412 0.0
C1073 C 0.04256 0.19158 0.65695 0.0
C1074 C 0.07032 0.14323 0.62904 0.0
C1075 C 0.05866 0.11818 0.61519 0.0
C1076 C 0.05277 0.11824 0.5862 0.0
C1077 C 0.05947 0.14382 0.57122 0.0
C1078 C 0.07133 0.16878 0.58503 0.0
H1079 H 0.03182 0.2049 0.66967 0.0
H1080 H 0.03117 0.18462 0.63746 0.0
H1081 H 0.04196 0.1727 0.66979 0.0
H1082 H 0.07438 0.14275 0.65144 0.0
H1083 H 0.0537 0.09887 0.62737 0.0
H1084 H 0.72312 0.26908 0.51377 0.0
H1085 H 0.71162 0.3105 0.53372 0.0
H1086 H 0.6293 0.28075 0.50495 0.0
H1087 H 0.64014 0.23871 0.48646 0.0
H1088 H 0.69923 0.34905 0.50377 0.0
H1089 H 0.61273 0.3092 0.58169 0.0
H1090 H 0.63447 0.28773 0.56832 0.0
H1091 H 0.60546 0.29078 0.54889 0.0
C1092 C 0.70231 0.27094 0.51252 0.0
C1093 C 0.68254 0.25064 0.49844 0.0
C1094 C 0.69582 0.29469 0.52382 0.0
C1095 C 0.66949 0.29854 0.52127 0.0
C1096 C 0.64953 0.27792 0.50794 0.0
H1097 H 0.61097 0.42723 0.46874 0.0
H1098 H 0.63714 0.39384 0.47862 0.0
C1099 C 0.65591 0.2541 0.49688 0.0
C1100 C 0.66369 0.32553 0.52882 0.0
H1101 H 0.61223 0.35236 0.55623 0.0
C1102 C 0.68061 0.34992 0.51596 0.0
C1103 C 0.63986 0.32699 0.54536 0.0
C1104 C 0.62234 0.30226 0.5621 0.0
C1105 C 0.67279 0.37501 0.51672 0.0
C1106 C 0.64711 0.37542 0.53002 0.0
C1107 C 0.63166 0.35188 0.54545 0.0
C1108 C 0.63407 0.39819 0.52458 0.0
C1109 C 0.69156 0.40048 0.50219 0.0
C1110 C 0.62328 0.41146 0.54715 0.0
C1111 C 0.60784 0.43028 0.54153 0.0
C1112 C 0.60276 0.43584 0.51324 0.0
C1113 C 0.61431 0.42313 0.49074 0.0
C1114 C 0.62964 0.40437 0.49636 0.0
H1115 H 0.71345 0.40036 0.50351 0.0
H1116 H 0.68721 0.40028 0.47923 0.0
H1117 H 0.68861 0.42008 0.51177 0.0
H1118 H 0.62619 0.4067 0.56908 0.0
H1119 H 0.59895 0.43958 0.55931 0.0
loop_
_geom_bond_atom_site_label_1
_geom_bond_atom_site_label_2
_geom_bond_distance
_geom_bond_site_symmetry_2
_ccdc_geom_bond_type
H0 C5 0.930 . S
H1 C8 0.930 . S
H2 C10 0.930 . S
H3 C4 1.016 . S
C4 H3 1.016 . S
C4 N11 1.286 . S
C5 H0 0.930 . S
C5 C6 1.397 . S
C5 C7 1.361 . S
C6 C5 1.397 . S
C6 C10 1.390 . S
C7 C5 1.361 . S
C7 C8 1.393 . S
C7 N11 1.413 . S
C8 H1 0.930 . S
C8 C7 1.393 . S
C8 C9 1.399 . S
C9 C8 1.399 . S
C9 C10 1.381 . S
C10 H2 0.930 . S
C10 C6 1.390 . S
C10 C9 1.381 . S
N11 C4 1.286 . S
N11 C7 1.413 . S
H12 C17 0.930 . S
H13 C20 0.930 . S
H14 C22 0.930 . S
H15 C16 1.016 . S
C16 H15 1.016 . S
C16 N23 1.286 . S
C17 H12 0.930 . S
C17 C18 1.397 . S
C17 C19 1.361 . S
C18 C17 1.397 . S
C18 C22 1.390 . S
C19 C17 1.361 . S
C19 C20 1.393 . S
C19 N23 1.413 . S
C20 H13 0.930 . S
C20 C19 1.393 . S
C20 C21 1.399 . S
C21 C20 1.399 . S
C21 C22 1.381 . S
C22 H14 0.930 . S
C22 C18 1.390 . S
C22 C21 1.381 . S
N23 C16 1.286 . S
N23 C19 1.413 . S
H24 C29 0.930 . S
H25 C32 0.930 . S
H26 C34 0.930 . S
H27 C28 1.016 . S
C28 H27 1.016 . S
C28 N35 1.286 . S
C29 H24 0.930 . S
C29 C30 1.397 . S
C29 C31 1.361 . S
C30 C29 1.397 . S
C30 C34 1.390 . S
C31 C29 1.361 . S
C31 C32 1.393 . S
C31 N35 1.413 . S
C32 H25 0.930 . S
C32 C31 1.393 . S
C32 C33 1.399 . S
C33 C32 1.399 . S
C33 C34 1.381 . S
C34 H26 0.930 . S
C34 C30 1.390 . S
C34 C33 1.381 . S
N35 C28 1.286 . S
N35 C31 1.413 . S
H36 C41 0.930 . S
H37 C44 0.930 . S
H38 C46 0.930 . S
H39 C40 1.016 . S
C40 H39 1.016 . S
C40 N47 1.286 . S
C41 H36 0.930 . S
C41 C42 1.397 . S
C41 C43 1.361 . S
C42 C41 1.397 . S
C42 C46 1.390 . S
C43 C41 1.361 . S
C43 C44 1.393 . S
C43 N47 1.413 . S
C44 H37 0.930 . S
C44 C43 1.393 . S
C44 C45 1.399 . S
C45 C44 1.399 . S
C45 C46 1.381 . S
C46 H38 0.930 . S
C46 C42 1.390 . S
C46 C45 1.381 . S
N47 C40 1.286 . S
N47 C43 1.413 . S
H48 C53 0.930 . S
H49 C56 0.930 . S
H50 C58 0.930 . S
H51 C52 1.016 . S
C52 H51 1.016 . S
C52 N59 1.286 . S
C53 H48 0.930 . S
C53 C54 1.397 . S
C53 C55 1.361 . S
C54 C53 1.397 . S
C54 C58 1.390 . S
C55 C53 1.361 . S
C55 C56 1.393 . S
C55 N59 1.413 . S
C56 H49 0.930 . S
C56 C55 1.393 . S
C56 C57 1.399 . S
C57 C56 1.399 . S
C57 C58 1.381 . S
C58 H50 0.930 . S
C58 C54 1.390 . S
C58 C57 1.381 . S
N59 C52 1.286 . S
N59 C55 1.413 . S
H60 C65 0.930 . S
H61 C68 0.930 . S
H62 C70 0.930 . S
H63 C64 1.016 . S
C64 H63 1.016 . S
C64 N71 1.286 . S
C65 H60 0.930 . S
C65 C66 1.397 . S
C65 C67 1.361 . S
C66 C65 1.397 . S
C66 C70 1.390 . S
C67 C65 1.361 . S
C67 C68 1.393 . S
C67 N71 1.413 . S
C68 H61 0.930 . S
C68 C67 1.393 . S
C68 C69 1.399 . S
C69 C68 1.399 . S
C69 C70 1.381 . S
C70 H62 0.930 . S
C70 C66 1.390 . S
C70 C69 1.381 . S
N71 C64 1.286 . S
N71 C67 1.413 . S
H72 C77 0.930 . S
H73 C80 0.930 . S
H74 C82 0.930 . S
H75 C76 1.016 . S
C76 H75 1.016 . S
C76 N83 1.286 . S
C77 H72 0.930 . S
C77 C78 1.397 . S
C77 C79 1.361 . S
C78 C77 1.397 . S
C78 C82 1.390 . S
C79 C77 1.361 . S
C79 C80 1.393 . S
C79 N83 1.413 . S
C80 H73 0.930 . S
C80 C79 1.393 . S
C80 C81 1.399 . S
C81 C80 1.399 . S
C81 C82 1.381 . S
C82 H74 0.930 . S
C82 C78 1.390 . S
C82 C81 1.381 . S
N83 C76 1.286 . S
N83 C79 1.413 . S
H84 C89 0.930 . S
H85 C92 0.930 . S
H86 C94 0.930 . S
H87 C88 1.016 . S
C88 H87 1.016 . S
C88 N95 1.286 . S
C89 H84 0.930 . S
C89 C90 1.397 . S
C89 C91 1.361 . S
C90 C89 1.397 . S
C90 C94 1.390 . S
C91 C89 1.361 . S
C91 C92 1.393 . S
C91 N95 1.413 . S
C92 H85 0.930 . S
C92 C91 1.393 . S
C92 C93 1.399 . S
C93 C92 1.399 . S
C93 C94 1.381 . S
C94 H86 0.930 . S
C94 C90 1.390 . S
C94 C93 1.381 . S
N95 C88 1.286 . S
N95 C91 1.413 . S
La96 C98 2.928 . S
La96 O116 2.521 . S
La96 O117 2.628 . S
La96 O118 2.554 1_545 S
La96 O119 2.757 1_545 S
La96 O120 2.470 . S
La96 O125 2.482 1_455 S
La96 O127 2.503 1_445 S
La97 C107 2.928 . S
La97 O119 2.482 1_655 S
La97 O121 2.503 1_665 S
La97 O122 2.521 . S
La97 O123 2.628 . S
La97 O124 2.554 1_565 S
La97 O125 2.757 1_565 S
La97 O126 2.470 . S
C98 La96 2.928 . S
C98 C99 1.503 . S
C98 O116 1.261 . S
C98 O117 1.243 . S
C99 C98 1.503 . S
C99 C100 1.394 . S
C99 C104 1.373 . S
C100 C99 1.394 . S
C100 C101 1.380 . S
C100 H128 0.930 . S
C101 C100 1.380 . S
C101 C102 1.376 . S
C101 H129 0.930 . S
C102 C101 1.376 . S
C102 C103 1.370 . S
C103 C102 1.370 . S
C103 C104 1.396 . S
C103 H130 0.929 . S
C104 C99 1.373 . S
C104 C103 1.396 . S
C104 H131 0.929 . S
C105 O118 1.240 . S
C105 O119 1.289 . S
C106 O120 1.258 . S
C106 O121 1.256 . S
C107 La97 2.928 . S
C107 C108 1.503 . S
C107 O122 1.261 . S
C107 O123 1.243 . S
C108 C107 1.503 . S
C108 C109 1.394 . S
C108 C113 1.373 . S
C109 C108 1.394 . S
C109 C110 1.380 . S
C109 H132 0.930 . S
C110 C109 1.380 . S
C110 C111 1.376 . S
C110 H133 0.930 . S
C111 C110 1.376 . S
C111 C112 1.370 . S
C112 C111 1.370 . S
C112 C113 1.396 . S
C112 H134 0.929 . S
C113 C108 1.373 . S
C113 C112 1.396 . S
C113 H135 0.929 . S
C114 O124 1.240 . S
C114 O125 1.289 . S
C115 O126 1.258 . S
C115 O127 1.256 . S
O116 La96 2.521 . S
O116 C98 1.261 . S
O117 La96 2.628 . S
O117 C98 1.243 . S
O118 La96 2.554 1_565 S
O118 C105 1.240 . S
O119 La96 2.757 1_565 S
O119 La97 2.482 1_455 S
O119 C105 1.289 . S
O120 La96 2.470 . S
O120 C106 1.258 . S
O121 La97 2.503 1_445 S
O121 C106 1.256 . S
O122 La97 2.521 . S
O122 C107 1.261 . S
O123 La97 2.628 . S
O123 C107 1.243 . S
O124 La97 2.554 1_545 S
O124 C114 1.240 . S
O125 La96 2.482 1_655 S
O125 La97 2.757 1_545 S
O125 C114 1.289 . S
O126 La97 2.470 . S
O126 C115 1.258 . S
O127 La96 2.503 1_665 S
O127 C115 1.256 . S
H128 C100 0.930 . S
H129 C101 0.930 . S
H130 C103 0.929 . S
H131 C104 0.929 . S
H132 C109 0.930 . S
H133 C110 0.930 . S
H134 C112 0.929 . S
H135 C113 0.929 . S
La136 C138 2.928 . S
La136 O156 2.521 . S
La136 O157 2.628 . S
La136 O158 2.554 1_545 S
La136 O159 2.757 1_545 S
La136 O160 2.470 . S
La136 O165 2.473 1_554 S
La136 O167 2.503 1_544 S
La137 C147 2.928 1_545 S
La137 O159 2.482 1_546 S
La137 O161 2.503 1_556 S
La137 O162 2.521 1_545 S
La137 O163 2.628 1_545 S
La137 O164 2.554 . S
La137 O165 2.761 . S
La137 O166 2.470 1_545 S
C138 La136 2.928 . S
C138 C139 1.503 . S
C138 O156 1.261 . S
C138 O157 1.243 . S
C139 C138 1.503 . S
C139 C140 1.394 . S
C139 C144 1.373 . S
C140 C139 1.394 . S
C140 C141 1.380 . S
C140 H168 0.930 . S
C141 C140 1.380 . S
C141 C142 1.376 . S
C141 H169 0.930 . S
C142 C141 1.376 . S
C142 C143 1.370 . S
C143 C142 1.370 . S
C143 C144 1.396 . S
C143 H170 0.929 . S
C144 C139 1.373 . S
C144 C143 1.396 . S
C144 H171 0.929 . S
C145 O158 1.240 . S
C145 O159 1.289 . S
C146 O160 1.258 . S
C146 O161 1.256 . S
C147 La137 2.928 1_565 S
C147 C148 1.503 . S
C147 O162 1.261 . S
C147 O163 1.243 . S
C148 C147 1.503 . S
C148 C149 1.394 . S
C148 C153 1.373 . S
C149 C148 1.394 . S
C149 C150 1.380 . S
C149 H172 0.930 . S
C150 C149 1.380 . S
C150 C151 1.376 . S
C150 H173 0.930 . S
C151 C150 1.376 . S
C151 C152 1.370 . S
C152 C151 1.370 . S
C152 C153 1.396 . S
C152 H174 0.929 . S
C153 C148 1.373 . S
C153 C152 1.396 . S
C153 H175 0.929 . S
C154 O164 1.240 . S
C154 O165 1.299 . S
C155 O166 1.258 . S
C155 O167 1.256 . S
O156 La136 2.521 . S
O156 C138 1.261 . S
O157 La136 2.628 . S
O157 C138 1.243 . S
O158 La136 2.554 1_565 S
O158 C145 1.240 . S
O159 La136 2.757 1_565 S
O159 La137 2.482 1_564 S
O159 C145 1.289 . S
O160 La136 2.470 . S
O160 C146 1.258 . S
O161 La137 2.503 1_554 S
O161 C146 1.256 . S
O162 La137 2.521 1_565 S
O162 C147 1.261 . S
O163 La137 2.628 1_565 S
O163 C147 1.243 . S
O164 La137 2.554 . S
O164 C154 1.240 . S
O165 La136 2.473 1_556 S
O165 La137 2.761 . S
O165 C154 1.299 . S
O166 La137 2.470 1_565 S
O166 C155 1.258 . S
O167 La136 2.503 1_566 S
O167 C155 1.256 . S
H168 C140 0.930 . S
H169 C141 0.930 . S
H170 C143 0.929 . S
H171 C144 0.929 . S
H172 C149 0.930 . S
H173 C150 0.930 . S
H174 C152 0.929 . S
H175 C153 0.929 . S
La176 C178 2.928 . S
La176 O196 2.521 . S
La176 O197 2.628 . S
La176 O198 2.554 . S
La176 O199 2.757 . S
La176 O200 2.470 . S
La176 O205 2.482 . S
La176 O207 2.503 . S
La177 C187 2.928 . S
La177 O199 2.482 . S
La177 O201 2.503 . S
La177 O202 2.521 . S
La177 O203 2.628 . S
La177 O204 2.554 . S
La177 O205 2.757 . S
La177 O206 2.470 . S
C178 La176 2.928 . S
C178 C179 1.503 . S
C178 O196 1.261 . S
C178 O197 1.243 . S
C179 C178 1.503 . S
C179 C180 1.394 . S
C179 C184 1.373 . S
C180 C179 1.394 . S
C180 C181 1.380 . S
C180 H208 0.930 . S
C181 C180 1.380 . S
C181 C182 1.376 . S
C181 H209 0.930 . S
C182 C181 1.376 . S
C182 C183 1.370 . S
C183 C182 1.370 . S
C183 C184 1.396 . S
C183 H210 0.929 . S
C184 C179 1.373 . S
C184 C183 1.396 . S
C184 H211 0.929 . S
C185 O198 1.240 . S
C185 O199 1.289 . S
C186 O200 1.258 . S
C186 O201 1.256 . S
C187 La177 2.928 . S
C187 C188 1.503 . S
C187 O202 1.261 . S
C187 O203 1.243 . S
C188 C187 1.503 . S
C188 C189 1.394 . S
C188 C193 1.373 . S
C189 C188 1.394 . S
C189 C190 1.380 . S
C189 H212 0.930 . S
C190 C189 1.380 . S
C190 C191 1.376 . S
C190 H213 0.930 . S
C191 C190 1.376 . S
C191 C192 1.370 . S
C192 C191 1.370 . S
C192 C193 1.396 . S
C192 H214 0.929 . S
C193 C188 1.373 . S
C193 C192 1.396 . S
C193 H215 0.929 . S
C194 O204 1.240 . S
C194 O205 1.289 . S
C195 O206 1.258 . S
C195 O207 1.256 . S
O196 La176 2.521 . S
O196 C178 1.261 . S
O197 La176 2.628 . S
O197 C178 1.243 . S
O198 La176 2.554 . S
O198 C185 1.240 . S
O199 La176 2.757 . S
O199 La177 2.482 . S
O199 C185 1.289 . S
O200 La176 2.470 . S
O200 C186 1.258 . S
O201 La177 2.503 . S
O201 C186 1.256 . S
O202 La177 2.521 . S
O202 C187 1.261 . S
O203 La177 2.628 . S
O203 C187 1.243 . S
O204 La177 2.554 . S
O204 C194 1.240 . S
O205 La176 2.482 . S
O205 La177 2.757 . S
O205 C194 1.289 . S
O206 La177 2.470 . S
O206 C195 1.258 . S
O207 La176 2.503 . S
O207 C195 1.256 . S
H208 C180 0.930 . S
H209 C181 0.930 . S
H210 C183 0.929 . S
H211 C184 0.929 . S
H212 C189 0.930 . S
H213 C190 0.930 . S
H214 C192 0.929 . S
H215 C193 0.929 . S
La216 C218 2.928 . S
La216 O236 2.521 . S
La216 O237 2.628 . S
La216 O238 2.554 1_455 S
La216 O239 2.757 1_455 S
La216 O240 2.470 . S
La216 O245 2.482 1_554 S
La216 O247 2.503 1_454 S
La217 C227 2.928 1_455 S
La217 O239 2.482 1_456 S
La217 O241 2.503 1_556 S
La217 O242 2.521 1_455 S
La217 O243 2.628 1_455 S
La217 O244 2.554 . S
La217 O245 2.757 . S
La217 O246 2.470 1_455 S
C218 La216 2.928 . S
C218 C219 1.503 . S
C218 O236 1.261 . S
C218 O237 1.243 . S
C219 C218 1.503 . S
C219 C220 1.394 . S
C219 C224 1.373 . S
C220 C219 1.394 . S
C220 C221 1.380 . S
C220 H248 0.930 . S
C221 C220 1.380 . S
C221 C222 1.376 . S
C221 H249 0.930 . S
C222 C221 1.376 . S
C222 C223 1.370 . S
C223 C222 1.370 . S
C223 C224 1.396 . S
C223 H250 0.929 . S
C224 C219 1.373 . S
C224 C223 1.396 . S
C224 H251 0.929 . S
C225 O238 1.240 . S
C225 O239 1.289 . S
C226 O240 1.258 . S
C226 O241 1.256 . S
C227 La217 2.928 1_655 S
C227 C228 1.503 . S
C227 O242 1.261 . S
C227 O243 1.243 . S
C228 C227 1.503 . S
C228 C229 1.394 . S
C228 C233 1.373 . S
C229 C228 1.394 . S
C229 C230 1.380 . S
C229 H252 0.930 . S
C230 C229 1.380 . S
C230 C231 1.376 . S
C230 H253 0.930 . S
C231 C230 1.376 . S
C231 C232 1.370 . S
C232 C231 1.370 . S
C232 C233 1.396 . S
C232 H254 0.929 . S
C233 C228 1.373 . S
C233 C232 1.396 . S
C233 H255 0.929 . S
C234 O244 1.240 . S
C234 O245 1.289 . S
C235 O246 1.258 . S
C235 O247 1.256 . S
O236 La216 2.521 . S
O236 C218 1.261 . S
O237 La216 2.628 . S
O237 C218 1.243 . S
O238 La216 2.554 1_655 S
O238 C225 1.240 . S
O239 La216 2.757 1_655 S
O239 La217 2.482 1_654 S
O239 C225 1.289 . S
O240 La216 2.470 . S
O240 C226 1.258 . S
O241 La217 2.503 1_554 S
O241 C226 1.256 . S
O242 La217 2.521 1_655 S
O242 C227 1.261 . S
O243 La217 2.628 1_655 S
O243 C227 1.243 . S
O244 La217 2.554 . S
O244 C234 1.240 . S
O245 La216 2.482 1_556 S
O245 La217 2.757 . S
O245 C234 1.289 . S
O246 La217 2.470 1_655 S
O246 C235 1.258 . S
O247 La216 2.503 1_656 S
O247 C235 1.256 . S
H248 C220 0.930 . S
H249 C221 0.930 . S
H250 C223 0.929 . S
H251 C224 0.929 . S
H252 C229 0.930 . S
H253 C230 0.930 . S
H254 C232 0.929 . S
H255 C233 0.929 . S
H256 C264 0.929 . S
H257 C266 0.930 . S
H258 C268 0.930 . S
H259 C271 0.929 . S
H260 C274 0.930 . S
H261 C276 0.960 . S
H262 C276 0.960 . S
H263 C276 0.960 . S
C264 H256 0.929 . S
C264 C265 1.377 . S
C264 C266 1.384 . S
C265 C264 1.377 . S
C265 C271 1.390 . S
C266 H257 0.930 . S
C266 C264 1.384 . S
C266 C267 1.372 . S
C267 C266 1.372 . S
C267 C268 1.400 . S
C267 C272 1.490 . S
C268 H258 0.930 . S
C268 C267 1.400 . S
C268 C271 1.386 . S
H269 C285 0.930 . S
H270 C286 0.931 . S
C271 H259 0.929 . S
C271 C265 1.390 . S
C271 C268 1.386 . S
C272 C267 1.490 . S
C272 C274 1.395 . S
C272 C275 1.403 . S
H273 C279 0.930 . S
C274 H260 0.930 . S
C274 C272 1.395 . S
C274 C277 1.403 . S
C275 C272 1.403 . S
C275 C276 1.524 . S
C275 C279 1.400 . S
C276 H261 0.960 . S
C276 H262 0.960 . S
C276 H263 0.960 . S
C276 C275 1.524 . S
C277 C274 1.403 . S
C277 C278 1.392 . S
C277 C281 1.495 . S
C278 C277 1.392 . S
C278 C279 1.385 . S
C278 C280 1.478 . S
C279 H273 0.930 . S
C279 C275 1.400 . S
C279 C278 1.385 . S
C280 C278 1.478 . S
C280 C282 1.381 . S
C280 C286 1.383 . S
C281 C277 1.495 . S
C281 H287 0.959 . S
C281 H288 0.961 . S
C281 H289 0.960 . S
C282 C280 1.381 . S
C282 C283 1.394 . S
C282 H290 0.930 . S
C283 C282 1.394 . S
C283 C284 1.383 . S
C283 H291 0.929 . S
C284 C283 1.383 . S
C284 C285 1.377 . S
C285 H269 0.930 . S
C285 C284 1.377 . S
C285 C286 1.379 . S
C286 H270 0.931 . S
C286 C280 1.383 . S
C286 C285 1.379 . S
H287 C281 0.959 . S
H288 C281 0.961 . S
H289 C281 0.960 . S
H290 C282 0.930 . S
H291 C283 0.929 . S
H292 C300 0.929 . S
H293 C302 0.930 . S
H294 C304 0.930 . S
H295 C307 0.929 . S
H296 C310 0.930 . S
H297 C312 0.960 . S
H298 C312 0.960 . S
H299 C312 0.960 . S
C300 H292 0.929 . S
C300 C301 1.377 . S
C300 C302 1.384 . S
C301 C300 1.377 . S
C301 C307 1.390 . S
C302 H293 0.930 . S
C302 C300 1.384 . S
C302 C303 1.372 . S
C303 C302 1.372 . S
C303 C304 1.400 . S
C303 C308 1.490 . S
C304 H294 0.930 . S
C304 C303 1.400 . S
C304 C307 1.386 . S
H305 C321 0.930 . S
H306 C322 0.931 . S
C307 H295 0.929 . S
C307 C301 1.390 . S
C307 C304 1.386 . S
C308 C303 1.490 . S
C308 C310 1.395 . S
C308 C311 1.403 . S
H309 C315 0.930 . S
C310 H296 0.930 . S
C310 C308 1.395 . S
C310 C313 1.403 . S
C311 C308 1.403 . S
C311 C312 1.524 . S
C311 C315 1.400 . S
C312 H297 0.960 . S
C312 H298 0.960 . S
C312 H299 0.960 . S
C312 C311 1.524 . S
C313 C310 1.403 . S
C313 C314 1.392 . S
C313 C317 1.495 . S
C314 C313 1.392 . S
C314 C315 1.385 . S
C314 C316 1.478 . S
C315 H309 0.930 . S
C315 C311 1.400 . S
C315 C314 1.385 . S
C316 C314 1.478 . S
C316 C318 1.381 . S
C316 C322 1.383 . S
C317 C313 1.495 . S
C317 H323 0.959 . S
C317 H324 0.961 . S
C317 H325 0.960 . S
C318 C316 1.381 . S
C318 C319 1.394 . S
C318 H326 0.930 . S
C319 C318 1.394 . S
C319 C320 1.383 . S
C319 H327 0.929 . S
C320 C319 1.383 . S
C320 C321 1.377 . S
C321 H305 0.930 . S
C321 C320 1.377 . S
C321 C322 1.379 . S
C322 H306 0.931 . S
C322 C316 1.383 . S
C322 C321 1.379 . S
H323 C317 0.959 . S
H324 C317 0.961 . S
H325 C317 0.960 . S
H326 C318 0.930 . S
H327 C319 0.929 . S
H328 C336 0.929 . S
H329 C338 0.930 . S
H330 C340 0.930 . S
H331 C343 0.929 . S
H332 C346 0.930 . S
H333 C348 0.960 . S
H334 C348 0.960 . S
H335 C348 0.960 . S
C336 H328 0.929 . S
C336 C337 1.377 . S
C336 C338 1.384 . S
C337 C336 1.377 . S
C337 C343 1.390 . S
C338 H329 0.930 . S
C338 C336 1.384 . S
C338 C339 1.372 . S
C339 C338 1.372 . S
C339 C340 1.400 . S
C339 C344 1.490 . S
C340 H330 0.930 . S
C340 C339 1.400 . S
C340 C343 1.386 . S
H341 C357 0.930 . S
H342 C358 0.931 . S
C343 H331 0.929 . S
C343 C337 1.390 . S
C343 C340 1.386 . S
C344 C339 1.490 . S
C344 C346 1.395 . S
C344 C347 1.403 . S
H345 C351 0.930 . S
C346 H332 0.930 . S
C346 C344 1.395 . S
C346 C349 1.403 . S
C347 C344 1.403 . S
C347 C348 1.524 . S
C347 C351 1.400 . S
C348 H333 0.960 . S
C348 H334 0.960 . S
C348 H335 0.960 . S
C348 C347 1.524 . S
C349 C346 1.403 . S
C349 C350 1.392 . S
C349 C353 1.495 . S
C350 C349 1.392 . S
C350 C351 1.385 . S
C350 C352 1.478 . S
C351 H345 0.930 . S
C351 C347 1.400 . S
C351 C350 1.385 . S
C352 C350 1.478 . S
C352 C354 1.381 . S
C352 C358 1.383 . S
C353 C349 1.495 . S
C353 H359 0.959 . S
C353 H360 0.961 . S
C353 H361 0.960 . S
C354 C352 1.381 . S
C354 C355 1.394 . S
C354 H362 0.930 . S
C355 C354 1.394 . S
C355 C356 1.383 . S
C355 H363 0.929 . S
C356 C355 1.383 . S
C356 C357 1.377 . S
C357 H341 0.930 . S
C357 C356 1.377 . S
C357 C358 1.379 . S
C358 H342 0.931 . S
C358 C352 1.383 . S
C358 C357 1.379 . S
H359 C353 0.959 . S
H360 C353 0.961 . S
H361 C353 0.960 . S
H362 C354 0.930 . S
H363 C355 0.929 . S
H364 C372 0.929 . S
H365 C374 0.930 . S
H366 C376 0.930 . S
H367 C379 0.929 . S
H368 C382 0.930 . S
H369 C384 0.960 . S
H370 C384 0.960 . S
H371 C384 0.960 . S
C372 H364 0.929 . S
C372 C373 1.377 . S
C372 C374 1.384 . S
C373 C372 1.377 . S
C373 C379 1.390 . S
C374 H365 0.930 . S
C374 C372 1.384 . S
C374 C375 1.372 . S
C375 C374 1.372 . S
C375 C376 1.400 . S
C375 C380 1.490 . S
C376 H366 0.930 . S
C376 C375 1.400 . S
C376 C379 1.386 . S
H377 C393 0.930 . S
H378 C394 0.931 . S
C379 H367 0.929 . S
C379 C373 1.390 . S
C379 C376 1.386 . S
C380 C375 1.490 . S
C380 C382 1.395 . S
C380 C383 1.403 . S
H381 C387 0.930 . S
C382 H368 0.930 . S
C382 C380 1.395 . S
C382 C385 1.403 . S
C383 C380 1.403 . S
C383 C384 1.524 . S
C383 C387 1.400 . S
C384 H369 0.960 . S
C384 H370 0.960 . S
C384 H371 0.960 . S
C384 C383 1.524 . S
C385 C382 1.403 . S
C385 C386 1.392 . S
C385 C389 1.495 . S
C386 C385 1.392 . S
C386 C387 1.385 . S
C386 C388 1.478 . S
C387 H381 0.930 . S
C387 C383 1.400 . S
C387 C386 1.385 . S
C388 C386 1.478 . S
C388 C390 1.381 . S
C388 C394 1.383 . S
C389 C385 1.495 . S
C389 H395 0.959 . S
C389 H396 0.961 . S
C389 H397 0.960 . S
C390 C388 1.381 . S
C390 C391 1.394 . S
C390 H398 0.930 . S
C391 C390 1.394 . S
C391 C392 1.383 . S
C391 H399 0.929 1_655 S
C392 C391 1.383 . S
C392 C393 1.377 . S
C393 H377 0.930 . S
C393 C392 1.377 . S
C393 C394 1.379 . S
C394 H378 0.931 . S
C394 C388 1.383 . S
C394 C393 1.379 . S
H395 C389 0.959 . S
H396 C389 0.961 . S
H397 C389 0.960 . S
H398 C390 0.930 . S
H399 C391 0.929 1_455 S
H400 C408 0.929 . S
H401 C410 0.930 . S
H402 C412 0.930 . S
H403 C415 0.929 . S
H404 C418 0.930 . S
H405 C420 0.960 . S
H406 C420 0.960 . S
H407 C420 0.960 . S
C408 H400 0.929 . S
C408 C409 1.377 . S
C408 C410 1.384 . S
C409 C408 1.377 . S
C409 C415 1.390 . S
C410 H401 0.930 . S
C410 C408 1.384 . S
C410 C411 1.372 . S
C411 C410 1.372 . S
C411 C412 1.400 . S
C411 C416 1.490 . S
C412 H402 0.930 . S
C412 C411 1.400 . S
C412 C415 1.386 . S
H413 C429 0.930 . S
H414 C430 0.931 . S
C415 H403 0.929 . S
C415 C409 1.390 . S
C415 C412 1.386 . S
C416 C411 1.490 . S
C416 C418 1.395 . S
C416 C419 1.403 . S
H417 C423 0.930 . S
C418 H404 0.930 . S
C418 C416 1.395 . S
C418 C421 1.403 . S
C419 C416 1.403 . S
C419 C420 1.524 . S
C419 C423 1.400 . S
C420 H405 0.960 . S
C420 H406 0.960 . S
C420 H407 0.960 . S
C420 C419 1.524 . S
C421 C418 1.403 . S
C421 C422 1.392 . S
C421 C425 1.495 . S
C422 C421 1.392 . S
C422 C423 1.385 . S
C422 C424 1.478 . S
C423 H417 0.930 . S
C423 C419 1.400 . S
C423 C422 1.385 . S
C424 C422 1.478 . S
C424 C426 1.381 . S
C424 C430 1.383 . S
C425 C421 1.495 . S
C425 H431 0.959 . S
C425 H432 0.961 . S
C425 H433 0.960 . S
C426 C424 1.381 . S
C426 C427 1.394 . S
C426 H434 0.930 . S
C427 C426 1.394 . S
C427 C428 1.383 . S
C427 H435 0.929 . S
C428 C427 1.383 . S
C428 C429 1.377 . S
C429 H413 0.930 . S
C429 C428 1.377 . S
C429 C430 1.379 . S
C430 H414 0.931 . S
C430 C424 1.383 . S
C430 C429 1.379 . S
H431 C425 0.959 . S
H432 C425 0.961 . S
H433 C425 0.960 . S
H434 C426 0.930 . S
H435 C427 0.929 . S
H436 C444 0.929 . S
H437 C446 0.930 . S
H438 C448 0.930 . S
H439 C451 0.929 . S
H440 C454 0.930 . S
H441 C456 0.960 . S
H442 C456 0.960 . S
H443 C456 0.960 . S
C444 H436 0.929 . S
C444 C445 1.377 . S
C444 C446 1.384 . S
C445 C444 1.377 . S
C445 C451 1.390 . S
C446 H437 0.930 . S
C446 C444 1.384 . S
C446 C447 1.372 . S
C447 C446 1.372 . S
C447 C448 1.400 . S
C447 C452 1.490 . S
C448 H438 0.930 . S
C448 C447 1.400 . S
C448 C451 1.386 . S
H449 C465 0.930 . S
H450 C466 0.931 . S
C451 H439 0.929 . S
C451 C445 1.390 . S
C451 C448 1.386 . S
C452 C447 1.490 . S
C452 C454 1.395 . S
C452 C455 1.403 . S
H453 C459 0.930 . S
C454 H440 0.930 . S
C454 C452 1.395 . S
C454 C457 1.403 . S
C455 C452 1.403 . S
C455 C456 1.524 . S
C455 C459 1.400 . S
C456 H441 0.960 . S
C456 H442 0.960 . S
C456 H443 0.960 . S
C456 C455 1.524 . S
C457 C454 1.403 . S
C457 C458 1.392 . S
C457 C461 1.495 . S
C458 C457 1.392 . S
C458 C459 1.385 . S
C458 C460 1.478 . S
C459 H453 0.930 . S
C459 C455 1.400 . S
C459 C458 1.385 . S
C460 C458 1.478 . S
C460 C462 1.381 . S
C460 C466 1.383 . S
C461 C457 1.495 . S
C461 H467 0.959 . S
C461 H468 0.961 . S
C461 H469 0.960 . S
C462 C460 1.381 . S
C462 C463 1.394 . S
C462 H470 0.930 . S
C463 C462 1.394 . S
C463 C464 1.383 . S
C463 H471 0.929 . S
C464 C463 1.383 . S
C464 C465 1.377 . S
C465 H449 0.930 . S
C465 C464 1.377 . S
C465 C466 1.379 . S
C466 H450 0.931 . S
C466 C460 1.383 . S
C466 C465 1.379 . S
H467 C461 0.959 . S
H468 C461 0.961 . S
H469 C461 0.960 . S
H470 C462 0.930 . S
H471 C463 0.929 . S
H472 C480 0.929 . S
H473 C482 0.930 . S
H474 C484 0.930 . S
H475 C487 0.929 . S
H476 C490 0.930 . S
H477 C492 0.960 . S
H478 C492 0.960 . S
H479 C492 0.960 . S
C480 H472 0.929 . S
C480 C481 1.377 . S
C480 C482 1.384 . S
C481 C480 1.377 . S
C481 C487 1.390 . S
C482 H473 0.930 . S
C482 C480 1.384 . S
C482 C483 1.372 . S
C483 C482 1.372 . S
C483 C484 1.400 . S
C483 C488 1.490 . S
C484 H474 0.930 . S
C484 C483 1.400 . S
C484 C487 1.386 . S
H485 C501 0.930 . S
H486 C502 0.931 . S
C487 H475 0.929 . S
C487 C481 1.390 . S
C487 C484 1.386 . S
C488 C483 1.490 . S
C488 C490 1.395 . S
C488 C491 1.403 . S
H489 C495 0.930 . S
C490 H476 0.930 . S
C490 C488 1.395 . S
C490 C493 1.403 . S
C491 C488 1.403 . S
C491 C492 1.524 . S
C491 C495 1.400 . S
C492 H477 0.960 . S
C492 H478 0.960 . S
C492 H479 0.960 . S
C492 C491 1.524 . S
C493 C490 1.403 . S
C493 C494 1.392 . S
C493 C497 1.495 . S
C494 C493 1.392 . S
C494 C495 1.385 . S
C494 C496 1.478 . S
C495 H489 0.930 . S
C495 C491 1.400 . S
C495 C494 1.385 . S
C496 C494 1.478 . S
C496 C498 1.381 . S
C496 C502 1.383 . S
C497 C493 1.495 . S
C497 H503 0.959 . S
C497 H504 0.961 . S
C497 H505 0.960 . S
C498 C496 1.381 . S
C498 C499 1.394 . S
C498 H506 0.930 . S
C499 C498 1.394 . S
C499 C500 1.383 . S
C499 H507 0.929 . S
C500 C499 1.383 . S
C500 C501 1.377 . S
C501 H485 0.930 . S
C501 C500 1.377 . S
C501 C502 1.379 . S
C502 H486 0.931 . S
C502 C496 1.383 . S
C502 C501 1.379 . S
H503 C497 0.959 . S
H504 C497 0.961 . S
H505 C497 0.960 . S
H506 C498 0.930 . S
H507 C499 0.929 . S
H508 C516 0.929 . S
H509 C518 0.930 . S
H510 C520 0.930 . S
H511 C523 0.929 . S
H512 C526 0.930 . S
H513 C528 0.960 . S
H514 C528 0.960 . S
H515 C528 0.960 . S
C516 H508 0.929 . S
C516 C517 1.377 . S
C516 C518 1.384 . S
C517 C516 1.377 . S
C517 C523 1.390 . S
C518 H509 0.930 . S
C518 C516 1.384 . S
C518 C519 1.372 . S
C519 C518 1.372 . S
C519 C520 1.400 . S
C519 C524 1.490 . S
C520 H510 0.930 . S
C520 C519 1.400 . S
C520 C523 1.386 . S
H521 C537 0.930 . S
H522 C538 0.931 . S
C523 H511 0.929 . S
C523 C517 1.390 . S
C523 C520 1.386 . S
C524 C519 1.490 . S
C524 C526 1.395 . S
C524 C527 1.403 . S
H525 C531 0.930 . S
C526 H512 0.930 . S
C526 C524 1.395 . S
C526 C529 1.403 . S
C527 C524 1.403 . S
C527 C528 1.524 . S
C527 C531 1.400 . S
C528 H513 0.960 . S
C528 H514 0.960 . S
C528 H515 0.960 . S
C528 C527 1.524 . S
C529 C526 1.403 . S
C529 C530 1.392 . S
C529 C533 1.495 . S
C530 C529 1.392 . S
C530 C531 1.385 . S
C530 C532 1.478 . S
C531 H525 0.930 . S
C531 C527 1.400 . S
C531 C530 1.385 . S
C532 C530 1.478 . S
C532 C534 1.381 . S
C532 C538 1.383 . S
C533 C529 1.495 . S
C533 H539 0.959 . S
C533 H540 0.961 . S
C533 H541 0.960 . S
C534 C532 1.381 . S
C534 C535 1.394 . S
C534 H542 0.930 . S
C535 C534 1.394 . S
C535 C536 1.383 . S
C535 H543 0.929 . S
C536 C535 1.383 . S
C536 C537 1.377 . S
C537 H521 0.930 . S
C537 C536 1.377 . S
C537 C538 1.379 . S
C538 H522 0.931 . S
C538 C532 1.383 . S
C538 C537 1.379 . S
H539 C533 0.959 . S
H540 C533 0.961 . S
H541 C533 0.960 . S
H542 C534 0.930 . S
H543 C535 0.929 . S
H544 C552 0.929 . S
H545 C554 0.930 . S
H546 C556 0.930 . S
H547 C559 0.929 . S
H548 C562 0.930 . S
H549 C564 0.960 . S
H550 C564 0.960 . S
H551 C564 0.960 . S
C552 H544 0.929 . S
C552 C553 1.377 . S
C552 C554 1.384 . S
C553 C552 1.377 . S
C553 C559 1.390 . S
C554 H545 0.930 . S
C554 C552 1.384 . S
C554 C555 1.372 . S
C555 C554 1.372 . S
C555 C556 1.400 . S
C555 C560 1.490 . S
C556 H546 0.930 . S
C556 C555 1.400 . S
C556 C559 1.386 . S
H557 C573 0.930 . S
H558 C574 0.931 . S
C559 H547 0.929 . S
C559 C553 1.390 . S
C559 C556 1.386 . S
C560 C555 1.490 . S
C560 C562 1.395 . S
C560 C563 1.403 . S
H561 C567 0.930 . S
C562 H548 0.930 . S
C562 C560 1.395 . S
C562 C565 1.403 . S
C563 C560 1.403 . S
C563 C564 1.524 . S
C563 C567 1.400 . S
C564 H549 0.960 . S
C564 H550 0.960 . S
C564 H551 0.960 . S
C564 C563 1.524 . S
C565 C562 1.403 . S
C565 C566 1.392 . S
C565 C569 1.495 . S
C566 C565 1.392 . S
C566 C567 1.385 . S
C566 C568 1.478 . S
C567 H561 0.930 . S
C567 C563 1.400 . S
C567 C566 1.385 . S
C568 C566 1.478 . S
C568 C570 1.381 . S
C568 C574 1.383 . S
C569 C565 1.495 . S
C569 H575 0.959 . S
C569 H576 0.961 . S
C569 H577 0.960 . S
C570 C568 1.381 . S
C570 C571 1.394 . S
C570 H578 0.930 . S
C571 C570 1.394 . S
C571 C572 1.383 . S
C571 H579 0.929 . S
C572 C571 1.383 . S
C572 C573 1.377 . S
C573 H557 0.930 . S
C573 C572 1.377 . S
C573 C574 1.379 . S
C574 H558 0.931 . S
C574 C568 1.383 . S
C574 C573 1.379 . S
H575 C569 0.959 . S
H576 C569 0.961 . S
H577 C569 0.960 . S
H578 C570 0.930 . S
H579 C571 0.929 . S
H580 C588 0.929 . S
H581 C590 0.930 . S
H582 C592 0.930 . S
H583 C595 0.929 . S
H584 C598 0.930 . S
H585 C600 0.960 . S
H586 C600 0.960 . S
H587 C600 0.960 . S
C588 H580 0.929 . S
C588 C589 1.377 . S
C588 C590 1.384 . S
C589 C588 1.377 . S
C589 C595 1.390 . S
C590 H581 0.930 . S
C590 C588 1.384 . S
C590 C591 1.372 . S
C591 C590 1.372 . S
C591 C592 1.400 . S
C591 C596 1.490 . S
C592 H582 0.930 . S
C592 C591 1.400 . S
C592 C595 1.386 . S
H593 C609 0.930 . S
H594 C610 0.931 . S
C595 H583 0.929 . S
C595 C589 1.390 . S
C595 C592 1.386 . S
C596 C591 1.490 . S
C596 C598 1.395 . S
C596 C599 1.403 . S
H597 C603 0.930 . S
C598 H584 0.930 . S
C598 C596 1.395 . S
C598 C601 1.403 . S
C599 C596 1.403 . S
C599 C600 1.524 . S
C599 C603 1.400 . S
C600 H585 0.960 . S
C600 H586 0.960 . S
C600 H587 0.960 . S
C600 C599 1.524 . S
C601 C598 1.403 . S
C601 C602 1.392 . S
C601 C605 1.495 . S
C602 C601 1.392 . S
C602 C603 1.385 . S
C602 C604 1.478 . S
C603 H597 0.930 . S
C603 C599 1.400 . S
C603 C602 1.385 . S
C604 C602 1.478 . S
C604 C606 1.381 . S
C604 C610 1.383 . S
C605 C601 1.495 . S
C605 H611 0.959 . S
C605 H612 0.961 . S
C605 H613 0.960 . S
C606 C604 1.381 . S
C606 C607 1.394 . S
C606 H614 0.930 . S
C607 C606 1.394 . S
C607 C608 1.383 . S
C607 H615 0.929 . S
C608 C607 1.383 . S
C608 C609 1.377 . S
C609 H593 0.930 . S
C609 C608 1.377 . S
C609 C610 1.379 . S
C610 H594 0.931 . S
C610 C604 1.383 . S
C610 C609 1.379 . S
H611 C605 0.959 . S
H612 C605 0.961 . S
H613 C605 0.960 . S
H614 C606 0.930 . S
H615 C607 0.929 . S
H616 C624 0.929 . S
H617 C626 0.930 . S
H618 C628 0.930 . S
H619 C631 0.929 . S
H620 C634 0.930 . S
H621 C636 0.960 . S
H622 C636 0.960 . S
H623 C636 0.960 . S
C624 H616 0.929 . S
C624 C625 1.377 . S
C624 C626 1.384 . S
C625 C624 1.377 . S
C625 C631 1.390 . S
C626 H617 0.930 . S
C626 C624 1.384 . S
C626 C627 1.372 . S
C627 C626 1.372 . S
C627 C628 1.400 . S
C627 C632 1.490 . S
C628 H618 0.930 . S
C628 C627 1.400 . S
C628 C631 1.386 . S
H629 C645 0.930 . S
H630 C646 0.931 . S
C631 H619 0.929 . S
C631 C625 1.390 . S
C631 C628 1.386 . S
C632 C627 1.490 . S
C632 C634 1.395 . S
C632 C635 1.403 . S
H633 C639 0.930 . S
C634 H620 0.930 . S
C634 C632 1.395 . S
C634 C637 1.403 . S
C635 C632 1.403 . S
C635 C636 1.524 . S
C635 C639 1.400 . S
C636 H621 0.960 . S
C636 H622 0.960 . S
C636 H623 0.960 . S
C636 C635 1.524 . S
C637 C634 1.403 . S
C637 C638 1.392 . S
C637 C641 1.495 . S
C638 C637 1.392 . S
C638 C639 1.385 . S
C638 C640 1.478 . S
C639 H633 0.930 . S
C639 C635 1.400 . S
C639 C638 1.385 . S
C640 C638 1.478 . S
C640 C642 1.381 . S
C640 C646 1.383 . S
C641 C637 1.495 . S
C641 H647 0.959 . S
C641 H648 0.961 . S
C641 H649 0.960 . S
C642 C640 1.381 . S
C642 C643 1.394 . S
C642 H650 0.930 . S
C643 C642 1.394 . S
C643 C644 1.383 . S
C643 H651 0.929 . S
C644 C643 1.383 . S
C644 C645 1.377 . S
C645 H629 0.930 . S
C645 C644 1.377 . S
C645 C646 1.379 . S
C646 H630 0.931 . S
C646 C640 1.383 . S
C646 C645 1.379 . S
H647 C641 0.959 . S
H648 C641 0.961 . S
H649 C641 0.960 . S
H650 C642 0.930 . S
H651 C643 0.929 . S
H652 C660 0.929 . S
H653 C662 0.930 . S
H654 C664 0.930 . S
H655 C667 0.929 . S
H656 C670 0.930 . S
H657 C672 0.960 . S
H658 C672 0.960 . S
H659 C672 0.960 . S
C660 H652 0.929 . S
C660 C661 1.377 . S
C660 C662 1.384 . S
C661 C660 1.377 . S
C661 C667 1.390 . S
C662 H653 0.930 . S
C662 C660 1.384 . S
C662 C663 1.372 . S
C663 C662 1.372 . S
C663 C664 1.400 . S
C663 C668 1.490 . S
C664 H654 0.930 . S
C664 C663 1.400 . S
C664 C667 1.386 . S
H665 C681 0.930 . S
H666 C682 0.931 . S
C667 H655 0.929 . S
C667 C661 1.390 . S
C667 C664 1.386 . S
C668 C663 1.490 . S
C668 C670 1.395 . S
C668 C671 1.403 . S
H669 C675 0.930 . S
C670 H656 0.930 . S
C670 C668 1.395 . S
C670 C673 1.403 . S
C671 C668 1.403 . S
C671 C672 1.524 . S
C671 C675 1.400 . S
C672 H657 0.960 . S
C672 H658 0.960 . S
C672 H659 0.960 . S
C672 C671 1.524 . S
C673 C670 1.403 . S
C673 C674 1.392 . S
C673 C677 1.495 . S
C674 C673 1.392 . S
C674 C675 1.385 . S
C674 C676 1.478 . S
C675 H669 0.930 . S
C675 C671 1.400 . S
C675 C674 1.385 . S
C676 C674 1.478 . S
C676 C678 1.381 . S
C676 C682 1.383 . S
C677 C673 1.495 . S
C677 H683 0.959 . S
C677 H684 0.961 . S
C677 H685 0.960 . S
C678 C676 1.381 . S
C678 C679 1.394 . S
C678 H686 0.930 . S
C679 C678 1.394 . S
C679 C680 1.383 . S
C679 H687 0.929 . S
C680 C679 1.383 . S
C680 C681 1.377 . S
C681 H665 0.930 . S
C681 C680 1.377 . S
C681 C682 1.379 . S
C682 H666 0.931 . S
C682 C676 1.383 . S
C682 C681 1.379 . S
H683 C677 0.959 . S
H684 C677 0.961 . S
H685 C677 0.960 . S
H686 C678 0.930 . S
H687 C679 0.929 . S
H688 C696 0.929 . S
H689 C698 0.930 . S
H690 C700 0.930 . S
H691 C703 0.929 . S
H692 C706 0.930 . S
H693 C708 0.960 . S
H694 C708 0.960 . S
H695 C708 0.960 . S
C696 H688 0.929 . S
C696 C697 1.377 . S
C696 C698 1.384 . S
C697 C696 1.377 . S
C697 C703 1.390 . S
C698 H689 0.930 . S
C698 C696 1.384 . S
C698 C699 1.372 . S
C699 C698 1.372 . S
C699 C700 1.400 . S
C699 C704 1.490 . S
C700 H690 0.930 . S
C700 C699 1.400 . S
C700 C703 1.386 . S
H701 C717 0.930 . S
H702 C718 0.931 . S
C703 H691 0.929 . S
C703 C697 1.390 . S
C703 C700 1.386 . S
C704 C699 1.490 . S
C704 C706 1.395 . S
C704 C707 1.403 . S
H705 C711 0.930 . S
C706 H692 0.930 . S
C706 C704 1.395 . S
C706 C709 1.403 . S
C707 C704 1.403 . S
C707 C708 1.524 . S
C707 C711 1.400 . S
C708 H693 0.960 . S
C708 H694 0.960 . S
C708 H695 0.960 . S
C708 C707 1.524 . S
C709 C706 1.403 . S
C709 C710 1.392 . S
C709 C713 1.495 . S
C710 C709 1.392 . S
C710 C711 1.385 . S
C710 C712 1.478 . S
C711 H705 0.930 . S
C711 C707 1.400 . S
C711 C710 1.385 . S
C712 C710 1.478 . S
C712 C714 1.381 . S
C712 C718 1.383 . S
C713 C709 1.495 . S
C713 H719 0.959 . S
C713 H720 0.961 . S
C713 H721 0.960 . S
C714 C712 1.381 . S
C714 C715 1.394 . S
C714 H722 0.930 . S
C715 C714 1.394 . S
C715 C716 1.383 . S
C715 H723 0.929 . S
C716 C715 1.383 . S
C716 C717 1.377 . S
C717 H701 0.930 . S
C717 C716 1.377 . S
C717 C718 1.379 . S
C718 H702 0.931 . S
C718 C712 1.383 . S
C718 C717 1.379 . S
H719 C713 0.959 . S
H720 C713 0.961 . S
H721 C713 0.960 . S
H722 C714 0.930 . S
H723 C715 0.929 . S
H724 C732 0.929 . S
H725 C734 0.930 . S
H726 C736 0.930 . S
H727 C739 0.929 . S
H728 C742 0.930 . S
H729 C744 0.960 . S
H730 C744 0.960 . S
H731 C744 0.960 . S
C732 H724 0.929 . S
C732 C733 1.377 . S
C732 C734 1.384 . S
C733 C732 1.377 . S
C733 C739 1.390 . S
C734 H725 0.930 . S
C734 C732 1.384 . S
C734 C735 1.372 . S
C735 C734 1.372 . S
C735 C736 1.400 . S
C735 C740 1.490 . S
C736 H726 0.930 . S
C736 C735 1.400 . S
C736 C739 1.386 . S
H737 C753 0.930 . S
H738 C754 0.931 . S
C739 H727 0.929 . S
C739 C733 1.390 . S
C739 C736 1.386 . S
C740 C735 1.490 . S
C740 C742 1.395 . S
C740 C743 1.403 . S
H741 C747 0.930 . S
C742 H728 0.930 . S
C742 C740 1.395 . S
C742 C745 1.403 . S
C743 C740 1.403 . S
C743 C744 1.524 . S
C743 C747 1.400 . S
C744 H729 0.960 . S
C744 H730 0.960 . S
C744 H731 0.960 . S
C744 C743 1.524 . S
C745 C742 1.403 . S
C745 C746 1.392 . S
C745 C749 1.495 . S
C746 C745 1.392 . S
C746 C747 1.385 . S
C746 C748 1.478 . S
C747 H741 0.930 . S
C747 C743 1.400 . S
C747 C746 1.385 . S
C748 C746 1.478 . S
C748 C750 1.381 . S
C748 C754 1.383 . S
C749 C745 1.495 . S
C749 H755 0.959 . S
C749 H756 0.961 . S
C749 H757 0.960 . S
C750 C748 1.381 . S
C750 C751 1.394 . S
C750 H758 0.930 . S
C751 C750 1.394 . S
C751 C752 1.383 . S
C751 H759 0.929 . S
C752 C751 1.383 . S
C752 C753 1.377 . S
C753 H737 0.930 . S
C753 C752 1.377 . S
C753 C754 1.379 . S
C754 H738 0.931 . S
C754 C748 1.383 . S
C754 C753 1.379 . S
H755 C749 0.959 . S
H756 C749 0.961 . S
H757 C749 0.960 . S
H758 C750 0.930 . S
H759 C751 0.929 . S
H760 C768 0.929 . S
H761 C770 0.930 . S
H762 C772 0.930 . S
H763 C775 0.929 . S
H764 C778 0.930 . S
H765 C780 0.960 . S
H766 C780 0.960 . S
H767 C780 0.960 . S
C768 H760 0.929 . S
C768 C769 1.377 . S
C768 C770 1.384 . S
C769 C768 1.377 . S
C769 C775 1.390 . S
C770 H761 0.930 . S
C770 C768 1.384 . S
C770 C771 1.372 . S
C771 C770 1.372 . S
C771 C772 1.400 . S
C771 C776 1.490 . S
C772 H762 0.930 . S
C772 C771 1.400 . S
C772 C775 1.386 . S
H773 C789 0.930 . S
H774 C790 0.931 . S
C775 H763 0.929 . S
C775 C769 1.390 . S
C775 C772 1.386 . S
C776 C771 1.490 . S
C776 C778 1.395 . S
C776 C779 1.403 . S
H777 C783 0.930 . S
C778 H764 0.930 . S
C778 C776 1.395 . S
C778 C781 1.403 . S
C779 C776 1.403 . S
C779 C780 1.524 . S
C779 C783 1.400 . S
C780 H765 0.960 . S
C780 H766 0.960 . S
C780 H767 0.960 . S
C780 C779 1.524 . S
C781 C778 1.403 . S
C781 C782 1.392 . S
C781 C785 1.495 . S
C782 C781 1.392 . S
C782 C783 1.385 . S
C782 C784 1.478 . S
C783 H777 0.930 . S
C783 C779 1.400 . S
C783 C782 1.385 . S
C784 C782 1.478 . S
C784 C786 1.381 . S
C784 C790 1.383 . S
C785 C781 1.495 . S
C785 H791 0.959 . S
C785 H792 0.961 . S
C785 H793 0.960 . S
C786 C784 1.381 . S
C786 C787 1.394 . S
C786 H794 0.930 . S
C787 C786 1.394 . S
C787 C788 1.383 . S
C787 H795 0.929 . S
C788 C787 1.383 . S
C788 C789 1.377 . S
C789 H773 0.930 . S
C789 C788 1.377 . S
C789 C790 1.379 . S
C790 H774 0.931 . S
C790 C784 1.383 . S
C790 C789 1.379 . S
H791 C785 0.959 . S
H792 C785 0.961 . S
H793 C785 0.960 . S
H794 C786 0.930 . S
H795 C787 0.929 . S
H796 C804 0.929 . S
H797 C806 0.930 . S
H798 C808 0.930 . S
H799 C811 0.929 . S
H800 C814 0.930 . S
H801 C816 0.960 . S
H802 C816 0.960 . S
H803 C816 0.960 . S
C804 H796 0.929 . S
C804 C805 1.377 . S
C804 C806 1.384 . S
C805 C804 1.377 . S
C805 C811 1.390 . S
C806 H797 0.930 . S
C806 C804 1.384 . S
C806 C807 1.372 . S
C807 C806 1.372 . S
C807 C808 1.400 . S
C807 C812 1.490 . S
C808 H798 0.930 . S
C808 C807 1.400 . S
C808 C811 1.386 . S
H809 C825 0.930 . S
H810 C826 0.931 . S
C811 H799 0.929 . S
C811 C805 1.390 . S
C811 C808 1.386 . S
C812 C807 1.490 . S
C812 C814 1.395 . S
C812 C815 1.403 . S
H813 C819 0.930 . S
C814 H800 0.930 . S
C814 C812 1.395 . S
C814 C817 1.403 . S
C815 C812 1.403 . S
C815 C816 1.524 . S
C815 C819 1.400 . S
C816 H801 0.960 . S
C816 H802 0.960 . S
C816 H803 0.960 . S
C816 C815 1.524 . S
C817 C814 1.403 . S
C817 C818 1.392 . S
C817 C821 1.495 . S
C818 C817 1.392 . S
C818 C819 1.385 . S
C818 C820 1.478 . S
C819 H813 0.930 . S
C819 C815 1.400 . S
C819 C818 1.385 . S
C820 C818 1.478 . S
C820 C822 1.381 . S
C820 C826 1.383 . S
C821 C817 1.495 . S
C821 H827 0.959 . S
C821 H828 0.961 . S
C821 H829 0.960 . S
C822 C820 1.381 . S
C822 C823 1.394 . S
C822 H830 0.930 . S
C823 C822 1.394 . S
C823 C824 1.383 . S
C823 H831 0.929 . S
C824 C823 1.383 . S
C824 C825 1.377 . S
C825 H809 0.930 . S
C825 C824 1.377 . S
C825 C826 1.379 . S
C826 H810 0.931 . S
C826 C820 1.383 . S
C826 C825 1.379 . S
H827 C821 0.959 . S
H828 C821 0.961 . S
H829 C821 0.960 . S
H830 C822 0.930 . S
H831 C823 0.929 . S
H832 C840 0.929 . S
H833 C842 0.930 . S
H834 C844 0.930 . S
H835 C847 0.929 . S
H836 C850 0.930 . S
H837 C852 0.960 . S
H838 C852 0.960 . S
H839 C852 0.960 . S
C840 H832 0.929 . S
C840 C841 1.377 . S
C840 C842 1.384 . S
C841 C840 1.377 . S
C841 C847 1.390 . S
C842 H833 0.930 . S
C842 C840 1.384 . S
C842 C843 1.372 . S
C843 C842 1.372 . S
C843 C844 1.400 . S
C843 C848 1.490 . S
C844 H834 0.930 . S
C844 C843 1.400 . S
C844 C847 1.386 . S
H845 C861 0.930 . S
H846 C862 0.931 . S
C847 H835 0.929 . S
C847 C841 1.390 . S
C847 C844 1.386 . S
C848 C843 1.490 . S
C848 C850 1.395 . S
C848 C851 1.403 . S
H849 C855 0.930 . S
C850 H836 0.930 . S
C850 C848 1.395 . S
C850 C853 1.403 . S
C851 C848 1.403 . S
C851 C852 1.524 . S
C851 C855 1.400 . S
C852 H837 0.960 . S
C852 H838 0.960 . S
C852 H839 0.960 . S
C852 C851 1.524 . S
C853 C850 1.403 . S
C853 C854 1.392 . S
C853 C857 1.495 . S
C854 C853 1.392 . S
C854 C855 1.385 . S
C854 C856 1.478 . S
C855 H849 0.930 . S
C855 C851 1.400 . S
C855 C854 1.385 . S
C856 C854 1.478 . S
C856 C858 1.381 . S
C856 C862 1.383 . S
C857 C853 1.495 . S
C857 H863 0.959 . S
C857 H864 0.961 . S
C857 H865 0.960 . S
C858 C856 1.381 . S
C858 C859 1.394 . S
C858 H866 0.930 . S
C859 C858 1.394 . S
C859 C860 1.383 . S
C859 H867 0.929 . S
C860 C859 1.383 . S
C860 C861 1.377 . S
C861 H845 0.930 . S
C861 C860 1.377 . S
C861 C862 1.379 . S
C862 H846 0.931 . S
C862 C856 1.383 . S
C862 C861 1.379 . S
H863 C857 0.959 . S
H864 C857 0.961 . S
H865 C857 0.960 . S
H866 C858 0.930 . S
H867 C859 0.929 . S
H868 C876 0.929 . S
H869 C878 0.930 . S
H870 C880 0.930 . S
H871 C883 0.929 . S
H872 C886 0.930 . S
H873 C888 0.960 . S
H874 C888 0.960 . S
H875 C888 0.960 . S
C876 H868 0.929 . S
C876 C877 1.377 . S
C876 C878 1.384 . S
C877 C876 1.377 . S
C877 C883 1.390 . S
C878 H869 0.930 . S
C878 C876 1.384 . S
C878 C879 1.372 . S
C879 C878 1.372 . S
C879 C880 1.400 . S
C879 C884 1.490 . S
C880 H870 0.930 . S
C880 C879 1.400 . S
C880 C883 1.386 . S
H881 C897 0.930 . S
H882 C898 0.931 . S
C883 H871 0.929 . S
C883 C877 1.390 . S
C883 C880 1.386 . S
C884 C879 1.490 . S
C884 C886 1.395 . S
C884 C887 1.403 . S
H885 C891 0.930 . S
C886 H872 0.930 . S
C886 C884 1.395 . S
C886 C889 1.403 . S
C887 C884 1.403 . S
C887 C888 1.524 . S
C887 C891 1.400 . S
C888 H873 0.960 . S
C888 H874 0.960 . S
C888 H875 0.960 . S
C888 C887 1.524 . S
C889 C886 1.403 . S
C889 C890 1.392 . S
C889 C893 1.495 . S
C890 C889 1.392 . S
C890 C891 1.385 . S
C890 C892 1.478 . S
C891 H885 0.930 . S
C891 C887 1.400 . S
C891 C890 1.385 . S
C892 C890 1.478 . S
C892 C894 1.381 . S
C892 C898 1.383 . S
C893 C889 1.495 . S
C893 H899 0.959 . S
C893 H900 0.961 . S
C893 H901 0.960 . S
C894 C892 1.381 . S
C894 C895 1.394 . S
C894 H902 0.930 . S
C895 C894 1.394 . S
C895 C896 1.383 . S
C895 H903 0.929 . S
C896 C895 1.383 . S
C896 C897 1.377 . S
C897 H881 0.930 . S
C897 C896 1.377 . S
C897 C898 1.379 . S
C898 H882 0.931 . S
C898 C892 1.383 . S
C898 C897 1.379 . S
H899 C893 0.959 . S
H900 C893 0.961 . S
H901 C893 0.960 . S
H902 C894 0.930 . S
H903 C895 0.929 . S
H904 C912 0.929 . S
H905 C914 0.930 . S
H906 C916 0.930 . S
H907 C919 0.929 . S
H908 C922 0.930 . S
H909 C924 0.960 . S
H910 C924 0.960 . S
H911 C924 0.960 . S
C912 H904 0.929 . S
C912 C913 1.377 . S
C912 C914 1.384 . S
C913 C912 1.377 . S
C913 C919 1.390 . S
C914 H905 0.930 . S
C914 C912 1.384 . S
C914 C915 1.372 . S
C915 C914 1.372 . S
C915 C916 1.400 . S
C915 C920 1.490 . S
C916 H906 0.930 . S
C916 C915 1.400 . S
C916 C919 1.386 . S
H917 C933 0.930 . S
H918 C934 0.931 . S
C919 H907 0.929 . S
C919 C913 1.390 . S
C919 C916 1.386 . S
C920 C915 1.490 . S
C920 C922 1.395 . S
C920 C923 1.403 . S
H921 C927 0.930 . S
C922 H908 0.930 . S
C922 C920 1.395 . S
C922 C925 1.403 . S
C923 C920 1.403 . S
C923 C924 1.524 . S
C923 C927 1.400 . S
C924 H909 0.960 . S
C924 H910 0.960 . S
C924 H911 0.960 . S
C924 C923 1.524 . S
C925 C922 1.403 . S
C925 C926 1.392 . S
C925 C929 1.495 . S
C926 C925 1.392 . S
C926 C927 1.385 . S
C926 C928 1.478 . S
C927 H921 0.930 . S
C927 C923 1.400 . S
C927 C926 1.385 . S
C928 C926 1.478 . S
C928 C930 1.381 . S
C928 C934 1.383 . S
C929 C925 1.495 . S
C929 H935 0.959 . S
C929 H936 0.961 . S
C929 H937 0.960 . S
C930 C928 1.381 . S
C930 C931 1.394 . S
C930 H938 0.930 . S
C931 C930 1.394 . S
C931 C932 1.383 . S
C931 H939 0.929 . S
C932 C931 1.383 . S
C932 C933 1.377 . S
C933 H917 0.930 . S
C933 C932 1.377 . S
C933 C934 1.379 . S
C934 H918 0.931 . S
C934 C928 1.383 . S
C934 C933 1.379 . S
H935 C929 0.959 . S
H936 C929 0.961 . S
H937 C929 0.960 . S
H938 C930 0.930 . S
H939 C931 0.929 . S
H940 C948 0.929 . S
H941 C950 0.930 . S
H942 C952 0.930 . S
H943 C955 0.929 . S
H944 C958 0.930 . S
H945 C960 0.960 . S
H946 C960 0.960 . S
H947 C960 0.960 . S
C948 H940 0.929 . S
C948 C949 1.377 . S
C948 C950 1.384 . S
C949 C948 1.377 . S
C949 C955 1.390 . S
C950 H941 0.930 . S
C950 C948 1.384 . S
C950 C951 1.372 . S
C951 C950 1.372 . S
C951 C952 1.400 . S
C951 C956 1.490 . S
C952 H942 0.930 . S
C952 C951 1.400 . S
C952 C955 1.386 . S
H953 C969 0.930 . S
H954 C970 0.931 . S
C955 H943 0.929 . S
C955 C949 1.390 . S
C955 C952 1.386 . S
C956 C951 1.490 . S
C956 C958 1.395 . S
C956 C959 1.403 . S
H957 C963 0.930 . S
C958 H944 0.930 . S
C958 C956 1.395 . S
C958 C961 1.403 . S
C959 C956 1.403 . S
C959 C960 1.524 . S
C959 C963 1.400 . S
C960 H945 0.960 . S
C960 H946 0.960 . S
C960 H947 0.960 . S
C960 C959 1.524 . S
C961 C958 1.403 . S
C961 C962 1.392 . S
C961 C965 1.495 . S
C962 C961 1.392 . S
C962 C963 1.385 . S
C962 C964 1.478 . S
C963 H957 0.930 . S
C963 C959 1.400 . S
C963 C962 1.385 . S
C964 C962 1.478 . S
C964 C966 1.381 . S
C964 C970 1.383 . S
C965 C961 1.495 . S
C965 H971 0.959 . S
C965 H972 0.961 . S
C965 H973 0.960 . S
C966 C964 1.381 . S
C966 C967 1.394 . S
C966 H974 0.930 . S
C967 C966 1.394 . S
C967 C968 1.383 . S
C967 H975 0.929 . S
C968 C967 1.383 . S
C968 C969 1.377 . S
C969 H953 0.930 . S
C969 C968 1.377 . S
C969 C970 1.379 . S
C970 H954 0.931 . S
C970 C964 1.383 . S
C970 C969 1.379 . S
H971 C965 0.959 . S
H972 C965 0.961 . S
H973 C965 0.960 . S
H974 C966 0.930 . S
H975 C967 0.929 . S
H976 C984 0.929 . S
H977 C986 0.930 . S
H978 C988 0.930 . S
H979 C991 0.929 . S
H980 C994 0.930 . S
H981 C996 0.960 . S
H982 C996 0.960 . S
H983 C996 0.960 . S
C984 H976 0.929 . S
C984 C985 1.377 . S
C984 C986 1.384 . S
C985 C984 1.377 . S
C985 C991 1.390 . S
C986 H977 0.930 . S
C986 C984 1.384 . S
C986 C987 1.372 . S
C987 C986 1.372 . S
C987 C988 1.400 . S
C987 C992 1.490 . S
C988 H978 0.930 . S
C988 C987 1.400 . S
C988 C991 1.386 . S
H989 C1005 0.930 . S
H990 C1006 0.931 . S
C991 H979 0.929 . S
C991 C985 1.390 . S
C991 C988 1.386 . S
C992 C987 1.490 . S
C992 C994 1.395 . S
C992 C995 1.403 . S
H993 C999 0.930 . S
C994 H980 0.930 . S
C994 C992 1.395 . S
C994 C997 1.403 . S
C995 C992 1.403 . S
C995 C996 1.524 . S
C995 C999 1.400 . S
C996 H981 0.960 . S
C996 H982 0.960 . S
C996 H983 0.960 . S
C996 C995 1.524 . S
C997 C994 1.403 . S
C997 C998 1.392 . S
C997 C1001 1.495 . S
C998 C997 1.392 . S
C998 C999 1.385 . S
C998 C1000 1.478 . S
C999 H993 0.930 . S
C999 C995 1.400 . S
C999 C998 1.385 . S
C1000 C998 1.478 . S
C1000 C1002 1.381 . S
C1000 C1006 1.383 . S
C1001 C997 1.495 . S
C1001 H1007 0.959 . S
C1001 H1008 0.961 . S
C1001 H1009 0.960 . S
C1002 C1000 1.381 . S
C1002 C1003 1.394 . S
C1002 H1010 0.930 . S
C1003 C1002 1.394 . S
C1003 C1004 1.383 . S
C1003 H1011 0.929 . S
C1004 C1003 1.383 . S
C1004 C1005 1.377 . S
C1005 H989 0.930 . S
C1005 C1004 1.377 . S
C1005 C1006 1.379 . S
C1006 H990 0.931 . S
C1006 C1000 1.383 . S
C1006 C1005 1.379 . S
H1007 C1001 0.959 . S
H1008 C1001 0.961 . S
H1009 C1001 0.960 . S
H1010 C1002 0.930 . S
H1011 C1003 0.929 . S
H1012 C1020 0.929 . S
H1013 C1022 0.930 . S
H1014 C1024 0.930 . S
H1015 C1027 0.929 . S
H1016 C1030 0.930 . S
H1017 C1032 0.960 . S
H1018 C1032 0.960 . S
H1019 C1032 0.960 . S
C1020 H1012 0.929 . S
C1020 C1021 1.377 . S
C1020 C1022 1.384 . S
C1021 C1020 1.377 . S
C1021 C1027 1.390 . S
C1022 H1013 0.930 . S
C1022 C1020 1.384 . S
C1022 C1023 1.372 . S
C1023 C1022 1.372 . S
C1023 C1024 1.400 . S
C1023 C1028 1.490 . S
C1024 H1014 0.930 . S
C1024 C1023 1.400 . S
C1024 C1027 1.386 . S
H1025 C1041 0.930 . S
H1026 C1042 0.931 . S
C1027 H1015 0.929 . S
C1027 C1021 1.390 . S
C1027 C1024 1.386 . S
C1028 C1023 1.490 . S
C1028 C1030 1.395 . S
C1028 C1031 1.403 . S
H1029 C1035 0.930 . S
C1030 H1016 0.930 . S
C1030 C1028 1.395 . S
C1030 C1033 1.403 . S
C1031 C1028 1.403 . S
C1031 C1032 1.524 . S
C1031 C1035 1.400 . S
C1032 H1017 0.960 . S
C1032 H1018 0.960 . S
C1032 H1019 0.960 . S
C1032 C1031 1.524 . S
C1033 C1030 1.403 . S
C1033 C1034 1.392 . S
C1033 C1037 1.495 . S
C1034 C1033 1.392 . S
C1034 C1035 1.385 . S
C1034 C1036 1.478 . S
C1035 H1029 0.930 . S
C1035 C1031 1.400 . S
C1035 C1034 1.385 . S
C1036 C1034 1.478 . S
C1036 C1038 1.381 . S
C1036 C1042 1.383 . S
C1037 C1033 1.495 . S
C1037 H1043 0.959 . S
C1037 H1044 0.961 . S
C1037 H1045 0.960 . S
C1038 C1036 1.381 . S
C1038 C1039 1.394 . S
C1038 H1046 0.930 . S
C1039 C1038 1.394 . S
C1039 C1040 1.383 . S
C1039 H1047 0.929 . S
C1040 C1039 1.383 . S
C1040 C1041 1.377 . S
C1041 H1025 0.930 . S
C1041 C1040 1.377 . S
C1041 C1042 1.379 . S
C1042 H1026 0.931 . S
C1042 C1036 1.383 . S
C1042 C1041 1.379 . S
H1043 C1037 0.959 . S
H1044 C1037 0.961 . S
H1045 C1037 0.960 . S
H1046 C1038 0.930 . S
H1047 C1039 0.929 . S
H1048 C1056 0.929 . S
H1049 C1058 0.930 . S
H1050 C1060 0.930 . S
H1051 C1063 0.929 . S
H1052 C1066 0.930 . S
H1053 C1068 0.960 . S
H1054 C1068 0.960 . S
H1055 C1068 0.960 . S
C1056 H1048 0.929 . S
C1056 C1057 1.377 . S
C1056 C1058 1.384 . S
C1057 C1056 1.377 . S
C1057 C1063 1.390 . S
C1058 H1049 0.930 . S
C1058 C1056 1.384 . S
C1058 C1059 1.372 . S
C1059 C1058 1.372 . S
C1059 C1060 1.400 . S
C1059 C1064 1.490 . S
C1060 H1050 0.930 . S
C1060 C1059 1.400 . S
C1060 C1063 1.386 . S
H1061 C1077 0.930 . S
H1062 C1078 0.931 . S
C1063 H1051 0.929 . S
C1063 C1057 1.390 . S
C1063 C1060 1.386 . S
C1064 C1059 1.490 . S
C1064 C1066 1.395 . S
C1064 C1067 1.403 . S
H1065 C1071 0.930 . S
C1066 H1052 0.930 . S
C1066 C1064 1.395 . S
C1066 C1069 1.403 . S
C1067 C1064 1.403 . S
C1067 C1068 1.524 . S
C1067 C1071 1.400 . S
C1068 H1053 0.960 . S
C1068 H1054 0.960 . S
C1068 H1055 0.960 . S
C1068 C1067 1.524 . S
C1069 C1066 1.403 . S
C1069 C1070 1.392 . S
C1069 C1073 1.495 . S
C1070 C1069 1.392 . S
C1070 C1071 1.385 . S
C1070 C1072 1.478 . S
C1071 H1065 0.930 . S
C1071 C1067 1.400 . S
C1071 C1070 1.385 . S
C1072 C1070 1.478 . S
C1072 C1074 1.381 . S
C1072 C1078 1.383 . S
C1073 C1069 1.495 . S
C1073 H1079 0.959 . S
C1073 H1080 0.961 . S
C1073 H1081 0.960 . S
C1074 C1072 1.381 . S
C1074 C1075 1.394 . S
C1074 H1082 0.930 . S
C1075 C1074 1.394 . S
C1075 C1076 1.383 . S
C1075 H1083 0.929 . S
C1076 C1075 1.383 . S
C1076 C1077 1.377 . S
C1077 H1061 0.930 . S
C1077 C1076 1.377 . S
C1077 C1078 1.379 . S
C1078 H1062 0.931 . S
C1078 C1072 1.383 . S
C1078 C1077 1.379 . S
H1079 C1073 0.959 . S
H1080 C1073 0.961 . S
H1081 C1073 0.960 . S
H1082 C1074 0.930 . S
H1083 C1075 0.929 . S
H1084 C1092 0.929 . S
H1085 C1094 0.930 . S
H1086 C1096 0.930 . S
H1087 C1099 0.929 . S
H1088 C1102 0.930 . S
H1089 C1104 0.960 . S
H1090 C1104 0.960 . S
H1091 C1104 0.960 . S
C1092 H1084 0.929 . S
C1092 C1093 1.377 . S
C1092 C1094 1.384 . S
C1093 C1092 1.377 . S
C1093 C1099 1.390 . S
C1094 H1085 0.930 . S
C1094 C1092 1.384 . S
C1094 C1095 1.372 . S
C1095 C1094 1.372 . S
C1095 C1096 1.400 . S
C1095 C1100 1.490 . S
C1096 H1086 0.930 . S
C1096 C1095 1.400 . S
C1096 C1099 1.386 . S
H1097 C1113 0.930 . S
H1098 C1114 0.931 . S
C1099 H1087 0.929 . S
C1099 C1093 1.390 . S
C1099 C1096 1.386 . S
C1100 C1095 1.490 . S
C1100 C1102 1.395 . S
C1100 C1103 1.403 . S
H1101 C1107 0.930 . S
C1102 H1088 0.930 . S
C1102 C1100 1.395 . S
C1102 C1105 1.403 . S
C1103 C1100 1.403 . S
C1103 C1104 1.524 . S
C1103 C1107 1.400 . S
C1104 H1089 0.960 . S
C1104 H1090 0.960 . S
C1104 H1091 0.960 . S
C1104 C1103 1.524 . S
C1105 C1102 1.403 . S
C1105 C1106 1.392 . S
C1105 C1109 1.495 . S
C1106 C1105 1.392 . S
C1106 C1107 1.385 . S
C1106 C1108 1.478 . S
C1107 H1101 0.930 . S
C1107 C1103 1.400 . S
C1107 C1106 1.385 . S
C1108 C1106 1.478 . S
C1108 C1110 1.381 . S
C1108 C1114 1.383 . S
C1109 C1105 1.495 . S
C1109 H1115 0.959 . S
C1109 H1116 0.961 . S
C1109 H1117 0.960 . S
C1110 C1108 1.381 . S
C1110 C1111 1.394 . S
C1110 H1118 0.930 . S
C1111 C1110 1.394 . S
C1111 C1112 1.383 . S
C1111 H1119 0.929 . S
C1112 C1111 1.383 . S
C1112 C1113 1.377 . S
C1113 H1097 0.930 . S
C1113 C1112 1.377 . S
C1113 C1114 1.379 . S
C1114 H1098 0.931 . S
C1114 C1108 1.383 . S
C1114 C1113 1.379 . S
H1115 C1109 0.959 . S
H1116 C1109 0.961 . S
H1117 C1109 0.960 . S
H1118 C1110 0.930 . S
H1119 C1111 0.929 . S
C265 C6 1.052 . S
C284 C102 1.074 . S
C301 C18 1.265 . S
C320 C151 1.237 . S
C356 C186 2.589 . S
C337 C28 2.634 . S
C373 C40 1.630 . S
C392 C225 1.561 . S
C428 C146 2.463 . S
C409 C9 2.391 . S
C464 C105 0.893 . S
C445 C16 0.876 . S
C500 C235 1.838 . S
C481 C30 1.871 . S
C536 C194 1.150 . S
C517 C42 1.170 . S
C553 C4 1.495 . S
C572 C222 1.507 . S
C608 C154 2.529 . S
C589 C33 2.605 . S
C625 C45 2.046 . S
C644 C115 2.033 . S
C661 C21 0.936 . S
C680 C191 0.938 . S
C716 C111 1.107 . S
C697 C57 1.081 . S
C733 C66 1.282 . S
C752 C142 1.251 . S
C769 C76 2.687 . S
C788 C195 2.628 . S
C805 C88 1.556 . S
C824 C234 1.537 . S
C841 C54 2.370 . S
C860 C155 2.440 . S
C896 C114 0.997 . S
C877 C64 0.997 . S
C932 C226 1.705 . S
C913 C78 1.769 . S
C968 C185 1.155 . S
C949 C93 1.207 . S
C985 C52 1.446 . S
C1004 C231 1.491 . S
C1040 C145 2.509 . S
C1021 C81 2.590 . S
C1076 C106 1.997 . S
C1057 C90 2.021 . S
C1093 C69 0.959 . S
C1112 C182 0.955 . S
