# Generated by pormake.
# Topology rtl, (3,6)-cn, num edge types: 1
# Building blocks:
#     Node 0, Type 0, BuildingBlock: MIDCAF_clean_linker_0, # of connection points: 3
#     Node 1, Type 0, BuildingBlock: MIDCAF_clean_linker_0, # of connection points: 3
#     Node 2, Type 0, BuildingBlock: MIDCAF_clean_linker_0, # of connection points: 3
#     Node 3, Type 0, BuildingBlock: MIDCAF_clean_linker_0, # of connection points: 3
#     Node 4, Type 1, BuildingBlock: KUMJIN_clean_sbu_1, # of connection points: 6
#     Node 5, Type 1, BuildingBlock: KUMJIN_clean_sbu_1, # of connection points: 6
#     Edge 6, Type (0, 1), BuildingBlock: OJICUG_clean_linker_0, # of connection points: 2
#     Edge 7, Type (0, 1), BuildingBlock: OJICUG_clean_linker_0, # of connection points: 2
#     Edge 8, Type (0, 1), BuildingBlock: OJICUG_clean_linker_0, # of connection points: 2
#     Edge 9, Type (0, 1), BuildingBlock: OJICUG_clean_linker_0, # of connection points: 2
#     Edge 10, Type (0, 1), BuildingBlock: OJICUG_clean_linker_0, # of connection points: 2
#     Edge 11, Type (0, 1), BuildingBlock: OJICUG_clean_linker_0, # of connection points: 2
#     Edge 12, Type (0, 1), BuildingBlock: OJICUG_clean_linker_0, # of connection points: 2
#     Edge 13, Type (0, 1), BuildingBlock: OJICUG_clean_linker_0, # of connection points: 2
#     Edge 14, Type (0, 1), BuildingBlock: OJICUG_clean_linker_0, # of connection points: 2
#     Edge 15, Type (0, 1), BuildingBlock: OJICUG_clean_linker_0, # of connection points: 2
#     Edge 16, Type (0, 1), BuildingBlock: OJICUG_clean_linker_0, # of connection points: 2
#     Edge 17, Type (0, 1), BuildingBlock: OJICUG_clean_linker_0, # of connection points: 2
# Relax obj value: 0.019
# Max RMSD: 0.113
# Mean RMSD: 0.067
data_MOF--net-rtl--node1-KUMJIN_clean_sbu_1--node2-MIDCAF_clean_linker_0--edge1-OJICUG_clean_linker_0
_symmetry_space_group_name_H-M    P1
_symmetry_Int_Tables_number       1
_symmetry_cell_setting            triclinic
loop_
_symmetry_equiv_pos_as_xyz
'x, y, z'
_cell_length_a     30.894382
_cell_length_b     31.699252
_cell_length_c     28.273074
_cell_angle_alpha  76.966
_cell_angle_beta   99.620577
_cell_angle_gamma 90.937742
loop_
_atom_site_label
_atom_site_type_symbol
_atom_site_fract_x
_atom_site_fract_y
_atom_site_fract_z
_atom_type_partial_charge
C0 C 0.13918 0.91038 0.12868 0.0
C1 C 0.15985 0.89762 0.17806 0.0
C2 C 0.20034 0.87485 0.18872 0.0
C3 C 0.21944 0.86487 0.15087 0.0
H4 H 0.28203 0.75396 0.10701 0.0
H5 H 0.33181 0.69312 0.11319 0.0
H6 H 0.38242 0.76419 0.98522 0.0
H7 H 0.33115 0.82357 0.97777 0.0
H8 H 0.22067 0.84298 0.89452 0.0
H9 H 0.18039 0.86896 0.81115 0.0
H10 H 0.12359 0.97364 0.85672 0.0
H11 H 0.16344 0.94759 0.94043 0.0
H12 H 0.14105 0.91095 0.05355 0.0
H13 H 0.10751 0.927 0.11899 0.0
H14 H 0.21743 0.86491 0.22627 0.0
H15 H 0.25057 0.84723 0.1603 0.0
N16 N 0.25124 0.8371 0.07037 0.0
N17 N 0.24998 0.8458 0.9854 0.0
N18 N 0.20065 0.88559 0.01351 0.0
C19 C 0.26766 0.8268 0.03254 0.0
C20 C 0.21645 0.87518 0.97557 0.0
C21 C 0.21783 0.86688 0.06097 0.0
C22 C 0.30239 0.79315 0.04155 0.0
C23 C 0.3043 0.75665 0.08072 0.0
C24 C 0.33293 0.72185 0.08427 0.0
C25 C 0.36065 0.72329 0.04913 0.0
C26 C 0.3606 0.76123 0.01199 0.0
C27 C 0.33148 0.79549 0.00793 0.0
C28 C 0.1951 0.89313 0.92419 0.0
C29 C 0.19998 0.8718 0.88676 0.0
C30 C 0.17677 0.88645 0.83912 0.0
C31 C 0.14885 0.92309 0.8278 0.0
C32 C 0.14511 0.94538 0.86462 0.0
C33 C 0.16776 0.93034 0.91249 0.0
C34 C 0.19859 0.87772 0.10155 0.0
C35 C 0.15837 0.90081 0.091 0.0
C36 C 0.60258 0.60908 0.50008 0.0
C37 C 0.61892 0.62541 0.45608 0.0
C38 C 0.64208 0.66425 0.45134 0.0
C39 C 0.65078 0.68496 0.49046 0.0
H40 H 0.71383 0.78823 0.53217 0.0
H41 H 0.77215 0.83973 0.52161 0.0
H42 H 0.81998 0.80583 0.67828 0.0
H43 H 0.76014 0.75475 0.68912 0.0
H44 H 0.69627 0.68159 0.75725 0.0
H45 H 0.66966 0.64991 0.83444 0.0
H46 H 0.54721 0.62005 0.75166 0.0
H47 H 0.57381 0.65064 0.6748 0.0
H48 H 0.5995 0.61555 0.57326 0.0
H49 H 0.58406 0.57956 0.50469 0.0
H50 H 0.65559 0.67758 0.41828 0.0
H51 H 0.67007 0.71399 0.48581 0.0
N52 N 0.68177 0.71765 0.57631 0.0
N53 N 0.68456 0.71708 0.65987 0.0
N54 N 0.63707 0.67079 0.6223 0.0
C55 C 0.69853 0.73333 0.61626 0.0
C56 C 0.65335 0.68608 0.6629 0.0
C57 C 0.65131 0.68632 0.57886 0.0
C58 C 0.73251 0.76697 0.61148 0.0
C59 C 0.73662 0.79173 0.56454 0.0
C60 C 0.77036 0.82117 0.5584 0.0
C61 C 0.80141 0.82646 0.59892 0.0
C62 C 0.79658 0.80273 0.64623 0.0
C63 C 0.76234 0.77339 0.65247 0.0
C64 C 0.63719 0.66855 0.70989 0.0
C65 C 0.66362 0.66841 0.75557 0.0
C66 C 0.64854 0.65015 0.79969 0.0
C67 C 0.60638 0.63271 0.79887 0.0
C68 C 0.57972 0.63357 0.75328 0.0
C69 C 0.59509 0.65089 0.70932 0.0
C70 C 0.63662 0.66737 0.53548 0.0
C71 C 0.61128 0.62986 0.53934 0.0
C72 C 0.85934 0.0854 0.96042 0.0
C73 C 0.84081 0.10336 0.91118 0.0
C74 C 0.80463 0.13226 0.90168 0.0
C75 C 0.78832 0.14383 0.94049 0.0
H76 H 0.68561 0.2177 0.9857 0.0
H77 H 0.63215 0.27604 0.97888 0.0
H78 H 0.70319 0.30504 0.11263 0.0
H79 H 0.75488 0.24641 0.12028 0.0
H80 H 0.80667 0.17155 0.19781 0.0
H81 H 0.8461 0.14249 0.2807 0.0
H82 H 0.8897 0.03208 0.23407 0.0
H83 H 0.85033 0.06107 0.1507 0.0
H84 H 0.85892 0.08261 0.03625 0.0
H85 H 0.88777 0.06378 0.96943 0.0
H86 H 0.78913 0.14629 0.86425 0.0
H87 H 0.761 0.1668 0.93189 0.0
N88 N 0.76417 0.17463 0.02298 0.0
N89 N 0.77423 0.17114 0.10796 0.0
N90 N 0.81269 0.12277 0.07814 0.0
C91 C 0.75447 0.18975 0.06149 0.0
C92 C 0.8031 0.1375 0.11669 0.0
C93 C 0.79358 0.1411 0.03118 0.0
C94 C 0.72399 0.22705 0.05391 0.0
C95 C 0.68971 0.23678 0.01339 0.0
C96 C 0.65921 0.27023 0.00947 0.0
C97 C 0.66284 0.2947 0.04576 0.0
C98 C 0.69842 0.286 0.08489 0.0
C99 C 0.72831 0.25246 0.08912 0.0
C100 C 0.82547 0.11872 0.16749 0.0
C101 C 0.8244 0.14095 0.2051 0.0
C102 C 0.84714 0.12449 0.25253 0.0
C103 C 0.87102 0.08523 0.26353 0.0
C104 C 0.87131 0.06236 0.22645 0.0
C105 C 0.84898 0.0791 0.17874 0.0
C106 C 0.80772 0.12656 0.98964 0.0
C107 C 0.8429 0.0966 0.999 0.0
C108 C 0.40243 0.40541 0.5767 0.0
C109 C 0.39029 0.38983 0.62316 0.0
C110 C 0.36564 0.35192 0.63084 0.0
C111 C 0.35267 0.33064 0.59269 0.0
H112 H 0.28824 0.22409 0.55776 0.0
H113 H 0.23253 0.17008 0.57103 0.0
H114 H 0.18784 0.1933 0.41395 0.0
H115 H 0.24516 0.24679 0.4005 0.0
H116 H 0.31227 0.31407 0.32845 0.0
H117 H 0.34089 0.3442 0.25206 0.0
H118 H 0.45301 0.39209 0.33601 0.0
H119 H 0.425 0.36233 0.41144 0.0
H120 H 0.39914 0.39743 0.50319 0.0
H121 H 0.42087 0.43483 0.56923 0.0
H122 H 0.35635 0.33861 0.6664 0.0
H123 H 0.3334 0.30175 0.59984 0.0
N124 N 0.31922 0.29335 0.50945 0.0
N125 N 0.31825 0.2888 0.42739 0.0
N126 N 0.3635 0.33851 0.46134 0.0
C127 C 0.3037 0.27485 0.47118 0.0
C128 C 0.34866 0.3205 0.42257 0.0
C129 C 0.34891 0.32534 0.50478 0.0
C130 C 0.27097 0.24014 0.47803 0.0
C131 C 0.26666 0.21773 0.52589 0.0
C132 C 0.23441 0.18682 0.53358 0.0
C133 C 0.20504 0.1777 0.49368 0.0
C134 C 0.21001 0.19927 0.44559 0.0
C135 C 0.24278 0.23004 0.43783 0.0
C136 C 0.3662 0.33592 0.37605 0.0
C137 C 0.3432 0.33069 0.33049 0.0
C138 C 0.35943 0.34813 0.2868 0.0
C139 C 0.39926 0.37039 0.2881 0.0
C140 C 0.42253 0.37468 0.33378 0.0
C141 C 0.40619 0.35784 0.37706 0.0
C142 C 0.36425 0.34664 0.546 0.0
C143 C 0.3897 0.38403 0.53866 0.0
Eu144 Eu 0.03784 0.9532 0.52859 0.0
C145 C 0.92542 0.12326 0.47793 0.0
N146 N 0.96351 0.11515 0.51072 0.0
C147 C 0.98959 0.18527 0.47711 0.0
C148 C 0.91843 0.16273 0.44243 0.0
C149 C 0.99523 0.14551 0.51129 0.0
C150 C 0.95112 0.19386 0.44235 0.0
C151 C 0.85456 0.09848 0.44452 0.0
C152 C 0.89403 0.09126 0.47879 0.0
C153 C 0.84769 0.13757 0.4088 0.0
C154 C 0.87951 0.16961 0.40779 0.0
Eu155 Eu 0.97148 0.04654 0.56544 0.0
N156 N 0.90212 0.05312 0.51293 0.0
C157 C 0.82294 0.06635 0.44746 0.0
C158 C 0.86986 0.02338 0.51831 0.0
C159 C 0.83031 0.029 0.48511 0.0
H160 H 0.0247 0.13918 0.53846 0.0
H161 H 0.80523 0.00481 0.48909 0.0
H162 H 0.98209 0.86163 0.55235 0.0
H163 H 0.20522 0.98961 0.60743 0.0
H164 H 0.87356 0.99596 0.54894 0.0
H165 H 0.79222 0.07064 0.42184 0.0
H166 H 0.1365 0.00207 0.54833 0.0
H167 H 0.01492 0.20925 0.47756 0.0
H168 H 0.81775 0.14346 0.38195 0.0
H169 H 0.8737 0.1996 0.38002 0.0
H170 H 0.99055 0.79015 0.61059 0.0
H171 H 0.94698 0.22458 0.41568 0.0
H172 H 0.21755 0.92132 0.67108 0.0
N173 N 0.04414 0.88347 0.58088 0.0
C174 C 0.08239 0.87364 0.61313 0.0
C175 C 0.01652 0.81341 0.61189 0.0
C176 C 0.08872 0.8332 0.64699 0.0
C177 C 0.01159 0.85402 0.5793 0.0
C178 C 0.05516 0.80301 0.64605 0.0
N179 N 0.10735 0.94382 0.58085 0.0
C180 C 0.14003 0.97326 0.5772 0.0
C181 C 0.15439 0.8956 0.64712 0.0
C182 C 0.11476 0.90468 0.61329 0.0
C183 C 0.18672 0.92704 0.64569 0.0
C184 C 0.17975 0.96575 0.61006 0.0
H185 H 0.05879 0.7716 0.67145 0.0
H186 H 0.13326 0.79358 0.70747 0.0
H187 H 0.19073 0.84814 0.70756 0.0
O188 O 0.07714 0.95935 0.46992 0.0
O189 O 0.03317 0.94773 0.60909 0.0
O190 O 0.03331 0.01808 0.61711 0.0
O191 O 0.04063 0.90134 0.48974 0.0
O192 O 0.06151 0.0228 0.50872 0.0
O193 O 0.04435 0.05739 0.56752 0.0
O194 O 0.92943 0.04311 0.62108 0.0
O195 O 0.97904 0.05261 0.48572 0.0
O196 O 0.97582 0.98244 0.47792 0.0
O197 O 0.97015 0.09852 0.60453 0.0
O198 O 0.94998 0.9764 0.58763 0.0
O199 O 0.96492 0.94346 0.52685 0.0
C200 C 0.0437 0.97697 0.63494 0.0
C201 C 0.04671 0.92594 0.40621 0.0
C202 C 0.05937 0.92652 0.32328 0.0
C203 C 0.01456 0.93633 0.30542 0.0
C204 C 1.00192 0.93476 0.38785 0.0
C205 C 0.98602 0.94016 0.33767 0.0
C206 C 0.07531 0.92136 0.3739 0.0
C207 C 0.06726 0.05406 0.53305 0.0
C208 C 0.06387 0.92313 0.45856 0.0
C209 C 0.12793 0.82437 0.68101 0.0
C210 C 0.16063 0.85548 0.68111 0.0
C211 C 0.96844 0.0239 0.45925 0.0
C212 C 0.95914 0.07432 0.6867 0.0
C213 C 0.94242 0.07266 0.76829 0.0
C214 C 0.98612 0.05979 0.78886 0.0
C215 C 0.00287 0.06238 0.7078 0.0
C216 C 0.92906 0.08 0.71701 0.0
C217 C 0.01621 0.05499 0.75865 0.0
C218 C 0.94337 0.9456 0.56275 0.0
C219 C 0.94429 0.07836 0.63367 0.0
H220 H 1.0015 0.94022 0.26663 0.0
H221 H 0.97931 0.93745 0.41238 0.0
H222 H 0.95147 0.94721 0.32374 0.0
H223 H 0.10993 0.91446 0.38795 0.0
H224 H 0.99711 0.05413 0.82826 0.0
H225 H 0.02659 0.05861 0.68495 0.0
H226 H 0.89523 0.08922 0.70092 0.0
H227 H 0.04992 0.04548 0.77467 0.0
Eu228 Eu 0.45206 0.49006 0.99606 0.0
C229 C 0.63447 0.5646 0.04138 0.0
N230 N 0.62149 0.52385 0.05985 0.0
C231 C 0.68581 0.49353 0.04212 0.0
C232 C 0.67345 0.57122 0.02119 0.0
C233 C 0.64671 0.48849 0.06134 0.0
C234 C 0.69914 0.53504 0.02172 0.0
C235 C 0.62054 0.64221 0.02214 0.0
C236 C 0.60787 0.59965 0.04138 0.0
C237 C 0.65895 0.64887 1.00119 0.0
C238 C 0.68532 0.61349 1.00072 0.0
Eu239 Eu 0.55502 0.51838 0.09111 0.0
N240 N 0.5705 0.5923 0.06144 0.0
C241 C 0.59484 0.67694 0.02566 0.0
C242 C 0.54792 0.62613 0.06909 0.0
C243 C 0.55889 0.66884 0.05015 0.0
H244 H 0.63655 0.45644 0.07741 0.0
H245 H 0.54016 0.6955 0.05539 0.0
H246 H 0.37461 0.56811 0.97254 0.0
H247 H 0.44545 0.31704 0.08027 0.0
H248 H 0.52236 0.62061 0.09119 0.0
H249 H 0.60348 0.7101 0.01138 0.0
H250 H 0.4789 0.38321 0.03967 0.0
H251 H 0.70559 0.46542 0.04297 0.0
H252 H 0.66891 0.68134 0.98589 0.0
H253 H 0.71498 0.6192 0.9847 0.0
H254 H 0.29828 0.57635 0.98542 0.0
H255 H 0.7293 0.53881 0.00654 0.0
H256 H 0.36924 0.31948 0.09588 0.0
N257 N 0.37908 0.50092 0.00553 0.0
C258 C 0.35809 0.46517 0.02614 0.0
C259 C 0.31479 0.54496 0.99729 0.0
C260 C 0.3144 0.46824 0.03377 0.0
C261 C 0.35814 0.54037 0.99059 0.0
C262 C 0.29284 0.50877 0.01909 0.0
N263 N 0.42356 0.42385 0.03493 0.0
C264 C 0.44627 0.38531 0.04746 0.0
C265 C 0.36012 0.38815 0.06358 0.0
C266 C 0.38081 0.42552 0.04099 0.0
C267 C 0.38395 0.34889 0.07836 0.0
C268 C 0.42707 0.34743 0.06988 0.0
H269 H 0.25928 0.51245 0.02433 0.0
H270 H 0.26025 0.43279 0.06239 0.0
H271 H 0.30023 0.36275 0.08843 0.0
O272 O 0.45441 0.45613 0.93732 0.0
O273 O 0.44347 0.47919 0.07644 0.0
O274 O 0.51303 0.46245 0.12036 0.0
O275 O 0.40565 0.5069 0.92708 0.0
O276 O 0.51615 0.45203 0.00512 0.0
O277 O 0.54985 0.44868 0.08525 0.0
O278 O 0.56482 0.54073 0.16085 0.0
O279 O 0.56133 0.52346 0.01063 0.0
O280 O 0.49318 0.54765 0.96932 0.0
O281 O 0.60922 0.49237 0.14953 0.0
O282 O 0.48905 0.55227 0.08546 0.0
O283 O 0.45794 0.55941 0.00387 0.0
C284 C 0.47015 0.46122 0.11701 0.0
C285 C 0.4328 0.49755 0.85687 0.0
C286 C 0.43387 0.48801 0.77388 0.0
C287 C 0.45328 0.5287 0.76244 0.0
C288 C 0.45149 0.53833 0.84462 0.0
C289 C 0.46188 0.55371 0.79766 0.0
C290 C 0.42393 0.47258 0.82145 0.0
C291 C 0.54485 0.43465 0.04442 0.0
C292 C 0.42337 0.48013 0.90669 0.0
C293 C 0.29378 0.43102 0.05617 0.0
C294 C 0.31656 0.39112 0.07102 0.0
C295 C 0.53592 0.54634 0.97181 0.0
C296 C 0.62565 0.51224 0.22832 0.0
C297 C 0.63788 0.52967 0.30947 0.0
C298 C 0.67563 0.50256 0.32278 0.0
C299 C 0.66352 0.48538 0.24272 0.0
C300 C 0.61308 0.53465 0.26181 0.0
C301 C 0.68828 0.4807 0.28958 0.0
C302 C 0.46167 0.57172 0.04581 0.0
C303 C 0.59921 0.51534 0.17895 0.0
H304 H 0.461 0.54154 0.72601 0.0
H305 H 0.45785 0.55816 0.87136 0.0
H306 H 0.47636 0.58519 0.78843 0.0
H307 H 0.40971 0.44094 0.83115 0.0
H308 H 0.69584 0.49875 0.35874 0.0
H309 H 0.67405 0.46777 0.21781 0.0
H310 H 0.58378 0.5552 0.25122 0.0
H311 H 0.71746 0.46003 0.30023 0.0
C312 C 0.14758 0.14466 0.54334 0.0
C313 C 0.16906 0.14645 0.50278 0.0
H314 H 0.09955 0.11398 0.58514 0.0
C315 C 0.15621 0.11785 0.47177 0.0
H316 H 0.15591 0.16665 0.56757 0.0
C317 C 0.12303 0.08804 0.48136 0.0
C318 C 0.10201 0.08603 0.52228 0.0
H319 H 0.17228 0.11792 0.44053 0.0
H320 H 0.11406 0.06641 0.4568 0.0
C321 C 0.11479 0.11468 0.55314 0.0
C322 C 0.40701 0.65662 0.0932 0.0
C323 C 0.38744 0.68466 0.04901 0.0
H324 H 0.4455 0.59869 0.12694 0.0
C325 C 0.39273 0.67502 0.00408 0.0
H326 H 0.40407 0.66321 0.12849 0.0
C327 C 0.41715 0.6387 0.00325 0.0
C328 C 0.43626 0.61045 0.04729 0.0
H329 H 0.37744 0.69517 0.96924 0.0
H330 H 0.42092 0.63278 0.96788 0.0
C331 C 0.43103 0.6198 0.09234 0.0
C332 C 0.85923 0.85877 0.54949 0.0
C333 C 0.83897 0.85597 0.59111 0.0
H334 H 0.90723 0.88934 0.50757 0.0
C335 C 0.85439 0.88209 0.62426 0.0
H336 H 0.84891 0.8386 0.5236 0.0
C337 C 0.88867 0.91076 0.61549 0.0
C338 C 0.90826 0.91402 0.57334 0.0
H339 H 0.83937 0.88111 0.65645 0.0
H340 H 0.89948 0.9307 0.64151 0.0
C341 C 0.89315 0.88758 0.54056 0.0
C342 C 0.6173 0.3342 0.08806 0.0
C343 C 0.62963 0.32871 0.04409 0.0
H344 H 0.58103 0.37186 0.12253 0.0
C345 C 0.6112 0.3568 0.99943 0.0
H346 H 0.62976 0.31245 0.12298 0.0
C347 C 0.58236 0.39055 0.99915 0.0
C348 C 0.57186 0.39698 0.04353 0.0
H349 H 0.62014 0.35364 0.96494 0.0
H350 H 0.56957 0.41249 0.96446 0.0
C351 C 0.58911 0.36811 0.08783 0.0
C352 C 0.13938 0.87635 0.26277 0.0
C353 C 0.1381 0.90699 0.21791 0.0
H354 H 0.11552 0.85875 0.33149 0.0
C355 C 0.11353 0.94568 0.21015 0.0
H356 H 0.15755 0.84603 0.26989 0.0
C357 C 0.08893 0.95248 0.24501 0.0
C358 C 0.08892 0.92113 0.28883 0.0
H359 H 0.11268 0.97053 0.17669 0.0
H360 H 0.06941 0.98207 0.23745 0.0
C361 C 0.1152 0.8835 0.29802 0.0
C362 C 0.5492 0.62571 0.8532 0.0
C363 C 0.59014 0.61284 0.84518 0.0
H364 H 0.50074 0.61581 0.90041 0.0
C365 C 0.61424 0.57936 0.88037 0.0
H366 H 0.53015 0.6517 0.82681 0.0
C367 C 0.59685 0.55794 0.92179 0.0
C368 C 0.55546 0.57022 0.92934 0.0
H369 H 0.64578 0.56867 0.87488 0.0
H370 H 0.61528 0.531 0.94717 0.0
C371 C 0.5323 0.60498 0.89514 0.0
C372 C 0.89299 0.02583 0.33868 0.0
C373 C 0.89651 0.06893 0.31332 0.0
H374 H 0.91214 0.97803 0.40558 0.0
C375 C 0.92448 0.09669 0.33583 0.0
H376 H 0.8713 0.00395 0.3222 0.0
C377 C 0.94854 0.08165 0.38285 0.0
C378 C 0.94456 0.03877 0.4086 0.0
H379 H 0.92807 0.12996 0.31684 0.0
H380 H 0.97023 0.10366 0.39909 0.0
C381 C 0.91654 0.01097 0.38615 0.0
C382 C 0.44326 0.43345 0.6695 0.0
C383 C 0.40219 0.4138 0.66289 0.0
H384 H 0.48558 0.47202 0.70996 0.0
C385 C 0.37203 0.41822 0.6937 0.0
H386 H 0.46754 0.43013 0.64697 0.0
C387 C 0.38253 0.44193 0.72997 0.0
C388 C 0.42333 0.46198 0.73611 0.0
H389 H 0.33981 0.40422 0.68909 0.0
H390 H 0.35827 0.44539 0.7525 0.0
C391 C 0.45365 0.4574 0.70561 0.0
C392 C 0.61028 0.62084 0.36704 0.0
C393 C 0.61617 0.60003 0.41733 0.0
H394 H 0.61235 0.61487 0.29335 0.0
C395 C 0.62413 0.55503 0.43078 0.0
H396 H 0.60349 0.65537 0.35534 0.0
C397 C 0.62881 0.53189 0.3953 0.0
C398 C 0.62574 0.55314 0.34548 0.0
H399 H 0.62918 0.53792 0.46909 0.0
H400 H 0.6364 0.49749 0.40715 0.0
C401 C 0.61494 0.5976 0.33145 0.0
C402 C 0.88059 0.05269 0.87538 0.0
C403 C 0.86131 0.09372 0.87055 0.0
H404 H 0.92159 0.01407 0.84681 0.0
C405 C 0.86529 0.12642 0.82863 0.0
H406 H 0.87727 0.02635 0.90636 0.0
C407 C 0.88985 0.11888 0.79389 0.0
C408 C 0.91136 0.07877 0.80078 0.0
H409 H 0.85133 0.15851 0.82381 0.0
H410 H 0.89393 0.14508 0.76302 0.0
C411 C 0.90574 0.04547 0.84118 0.0
C412 C 0.3888 0.41614 0.20177 0.0
C413 C 0.41638 0.39057 0.24232 0.0
H414 H 0.38426 0.4596 0.13114 0.0
C415 C 0.46132 0.38708 0.24039 0.0
H416 H 0.35413 0.41988 0.20242 0.0
C417 C 0.47856 0.40954 0.19948 0.0
C418 C 0.45129 0.43617 0.15948 0.0
H419 H 0.48332 0.36725 0.27087 0.0
H420 H 0.51341 0.40628 0.19951 0.0
C421 C 0.40613 0.43896 0.16094 0.0
C422 C 0.12184 0.98036 0.75224 0.0
C423 C 0.12232 0.93701 0.7782 0.0
H424 H 0.09753 0.02675 0.68573 0.0
C425 C 0.09662 0.90698 0.75696 0.0
H426 H 0.14166 0.004 0.76779 0.0
C427 C 0.07048 0.92018 0.71075 0.0
C428 C 0.07025 0.96344 0.68448 0.0
H429 H 0.09614 0.87344 0.77652 0.0
H430 H 0.05028 0.89652 0.69573 0.0
C431 C 0.09636 0.99338 0.70554 0.0
loop_
_geom_bond_atom_site_label_1
_geom_bond_atom_site_label_2
_geom_bond_distance
_geom_bond_site_symmetry_2
_ccdc_geom_bond_type
C0 C1 1.384 . S
C0 H13 0.947 . S
C0 C35 1.382 . S
C1 C0 1.384 . S
C1 C2 1.378 . S
C2 C1 1.378 . S
C2 C3 1.378 . S
C2 H14 0.952 . S
C3 C2 1.378 . S
C3 H15 0.950 . S
C3 C34 1.383 . S
H4 C23 0.947 . S
H5 C24 0.946 . S
H6 C26 0.953 . S
H7 C27 0.945 . S
H8 C29 0.952 . S
H9 C30 0.949 . S
H10 C32 0.950 . S
H11 C33 0.948 . S
H12 C35 0.951 . S
H13 C0 0.947 . S
H14 C2 0.952 . S
H15 C3 0.950 . S
N16 C19 1.382 . S
N16 C21 1.363 . S
N17 C19 1.371 1_556 S
N17 C20 1.372 . S
N18 C20 1.361 1_554 S
N18 C21 1.377 . S
C19 N16 1.382 . S
C19 N17 1.371 1_554 S
C19 C22 1.480 . S
C20 N17 1.372 . S
C20 N18 1.361 1_556 S
C20 C28 1.457 . S
C21 N16 1.363 . S
C21 N18 1.377 . S
C21 C34 1.479 . S
C22 C19 1.480 . S
C22 C23 1.383 . S
C22 C27 1.385 1_554 S
C23 H4 0.947 . S
C23 C22 1.383 . S
C23 C24 1.388 . S
C24 H5 0.946 . S
C24 C23 1.388 . S
C24 C25 1.384 . S
C25 C24 1.384 . S
C25 C26 1.377 1_554 S
C26 H6 0.953 . S
C26 C25 1.377 1_556 S
C26 C27 1.369 . S
C27 H7 0.945 . S
C27 C22 1.385 1_556 S
C27 C26 1.369 . S
C28 C20 1.457 . S
C28 C29 1.372 . S
C28 C33 1.364 . S
C29 H8 0.952 . S
C29 C28 1.372 . S
C29 C30 1.389 . S
C30 H9 0.949 . S
C30 C29 1.389 . S
C30 C31 1.387 . S
C31 C30 1.387 . S
C31 C32 1.372 . S
C32 H10 0.950 . S
C32 C31 1.372 . S
C32 C33 1.379 . S
C33 H11 0.948 . S
C33 C28 1.364 . S
C33 C32 1.379 . S
C34 C3 1.383 . S
C34 C21 1.479 . S
C34 C35 1.398 . S
C35 C0 1.382 . S
C35 H12 0.951 . S
C35 C34 1.398 . S
C36 C37 1.384 . S
C36 H49 0.947 . S
C36 C71 1.382 . S
C37 C36 1.384 . S
C37 C38 1.378 . S
C38 C37 1.378 . S
C38 C39 1.378 . S
C38 H50 0.952 . S
C39 C38 1.378 . S
C39 H51 0.950 . S
C39 C70 1.383 . S
H40 C59 0.947 . S
H41 C60 0.946 . S
H42 C62 0.953 . S
H43 C63 0.945 . S
H44 C65 0.952 . S
H45 C66 0.949 . S
H46 C68 0.950 . S
H47 C69 0.948 . S
H48 C71 0.951 . S
H49 C36 0.947 . S
H50 C38 0.952 . S
H51 C39 0.950 . S
N52 C55 1.382 . S
N52 C57 1.363 . S
N53 C55 1.371 . S
N53 C56 1.372 . S
N54 C56 1.361 . S
N54 C57 1.377 . S
C55 N52 1.382 . S
C55 N53 1.371 . S
C55 C58 1.480 . S
C56 N53 1.372 . S
C56 N54 1.361 . S
C56 C64 1.457 . S
C57 N52 1.363 . S
C57 N54 1.377 . S
C57 C70 1.479 . S
C58 C55 1.480 . S
C58 C59 1.383 . S
C58 C63 1.385 . S
C59 H40 0.947 . S
C59 C58 1.383 . S
C59 C60 1.388 . S
C60 H41 0.946 . S
C60 C59 1.388 . S
C60 C61 1.384 . S
C61 C60 1.384 . S
C61 C62 1.377 . S
C62 H42 0.953 . S
C62 C61 1.377 . S
C62 C63 1.369 . S
C63 H43 0.945 . S
C63 C58 1.385 . S
C63 C62 1.369 . S
C64 C56 1.457 . S
C64 C65 1.372 . S
C64 C69 1.364 . S
C65 H44 0.952 . S
C65 C64 1.372 . S
C65 C66 1.389 . S
C66 H45 0.949 . S
C66 C65 1.389 . S
C66 C67 1.387 . S
C67 C66 1.387 . S
C67 C68 1.372 . S
C68 H46 0.950 . S
C68 C67 1.372 . S
C68 C69 1.379 . S
C69 H47 0.948 . S
C69 C64 1.364 . S
C69 C68 1.379 . S
C70 C39 1.383 . S
C70 C57 1.479 . S
C70 C71 1.398 . S
C71 C36 1.382 . S
C71 H48 0.951 . S
C71 C70 1.398 . S
C72 C73 1.384 . S
C72 H85 0.947 . S
C72 C107 1.382 . S
C73 C72 1.384 . S
C73 C74 1.378 . S
C74 C73 1.378 . S
C74 C75 1.378 . S
C74 H86 0.952 . S
C75 C74 1.378 . S
C75 H87 0.950 . S
C75 C106 1.383 . S
H76 C95 0.947 1_556 S
H77 C96 0.946 1_556 S
H78 C98 0.953 . S
H79 C99 0.945 . S
H80 C101 0.952 . S
H81 C102 0.949 . S
H82 C104 0.950 . S
H83 C105 0.948 . S
H84 C107 0.951 1_554 S
H85 C72 0.947 . S
H86 C74 0.952 . S
H87 C75 0.950 . S
N88 C91 1.382 . S
N88 C93 1.363 . S
N89 C91 1.371 . S
N89 C92 1.372 . S
N90 C92 1.361 . S
N90 C93 1.377 . S
C91 N88 1.382 . S
C91 N89 1.371 . S
C91 C94 1.480 . S
C92 N89 1.372 . S
C92 N90 1.361 . S
C92 C100 1.457 . S
C93 N88 1.363 . S
C93 N90 1.377 . S
C93 C106 1.479 1_554 S
C94 C91 1.480 . S
C94 C95 1.383 . S
C94 C99 1.385 . S
C95 H76 0.947 1_554 S
C95 C94 1.383 . S
C95 C96 1.388 . S
C96 H77 0.946 1_554 S
C96 C95 1.388 . S
C96 C97 1.384 . S
C97 C96 1.384 . S
C97 C98 1.377 . S
C98 H78 0.953 . S
C98 C97 1.377 . S
C98 C99 1.369 . S
C99 H79 0.945 . S
C99 C94 1.385 . S
C99 C98 1.369 . S
C100 C92 1.457 . S
C100 C101 1.372 . S
C100 C105 1.364 . S
C101 H80 0.952 . S
C101 C100 1.372 . S
C101 C102 1.389 . S
C102 H81 0.949 . S
C102 C101 1.389 . S
C102 C103 1.387 . S
C103 C102 1.387 . S
C103 C104 1.372 . S
C104 H82 0.950 . S
C104 C103 1.372 . S
C104 C105 1.379 . S
C105 H83 0.948 . S
C105 C100 1.364 . S
C105 C104 1.379 . S
C106 C75 1.383 . S
C106 C93 1.479 1_556 S
C106 C107 1.398 . S
C107 C72 1.382 . S
C107 H84 0.951 1_556 S
C107 C106 1.398 . S
C108 C109 1.384 . S
C108 H121 0.947 . S
C108 C143 1.382 . S
C109 C108 1.384 . S
C109 C110 1.378 . S
C110 C109 1.378 . S
C110 C111 1.378 . S
C110 H122 0.952 . S
C111 C110 1.378 . S
C111 H123 0.950 . S
C111 C142 1.383 . S
H112 C131 0.947 . S
H113 C132 0.946 . S
H114 C134 0.953 . S
H115 C135 0.945 . S
H116 C137 0.952 . S
H117 C138 0.949 . S
H118 C140 0.950 . S
H119 C141 0.948 . S
H120 C143 0.951 . S
H121 C108 0.947 . S
H122 C110 0.952 . S
H123 C111 0.950 . S
N124 C127 1.382 . S
N124 C129 1.363 . S
N125 C127 1.371 . S
N125 C128 1.372 . S
N126 C128 1.361 . S
N126 C129 1.377 . S
C127 N124 1.382 . S
C127 N125 1.371 . S
C127 C130 1.480 . S
C128 N125 1.372 . S
C128 N126 1.361 . S
C128 C136 1.457 . S
C129 N124 1.363 . S
C129 N126 1.377 . S
C129 C142 1.479 . S
C130 C127 1.480 . S
C130 C131 1.383 . S
C130 C135 1.385 . S
C131 H112 0.947 . S
C131 C130 1.383 . S
C131 C132 1.388 . S
C132 H113 0.946 . S
C132 C131 1.388 . S
C132 C133 1.384 . S
C133 C132 1.384 . S
C133 C134 1.377 . S
C134 H114 0.953 . S
C134 C133 1.377 . S
C134 C135 1.369 . S
C135 H115 0.945 . S
C135 C130 1.385 . S
C135 C134 1.369 . S
C136 C128 1.457 . S
C136 C137 1.372 . S
C136 C141 1.364 . S
C137 H116 0.952 . S
C137 C136 1.372 . S
C137 C138 1.389 . S
C138 H117 0.949 . S
C138 C137 1.389 . S
C138 C139 1.387 . S
C139 C138 1.387 . S
C139 C140 1.372 . S
C140 H118 0.950 . S
C140 C139 1.372 . S
C140 C141 1.379 . S
C141 H119 0.948 . S
C141 C136 1.364 . S
C141 C140 1.379 . S
C142 C111 1.383 . S
C142 C129 1.479 . S
C142 C143 1.398 . S
C143 C108 1.382 . S
C143 H120 0.951 . S
C143 C142 1.398 . S
Eu144 N173 2.600 . S
Eu144 N179 2.562 . S
Eu144 O188 2.462 . S
Eu144 O189 2.373 . S
Eu144 O191 2.432 . S
Eu144 O192 2.291 1_565 S
Eu144 O196 2.336 1_465 S
Eu144 O199 2.372 1_455 S
Eu144 C208 2.787 . S
C145 N146 1.365 . S
C145 C148 1.405 . S
C145 C152 1.448 . S
N146 C145 1.365 . S
N146 C149 1.319 . S
N146 Eu155 2.600 . S
C147 C149 1.397 . S
C147 C150 1.367 . S
C147 H167 0.931 1_655 S
C148 C145 1.405 . S
C148 C150 1.403 . S
C148 C154 1.439 . S
C149 N146 1.319 . S
C149 C147 1.397 . S
C149 H160 0.930 1_655 S
C150 C147 1.367 . S
C150 C148 1.403 . S
C150 H171 0.929 . S
C151 C152 1.430 . S
C151 C153 1.387 . S
C151 C157 1.404 . S
C152 C145 1.448 . S
C152 C151 1.430 . S
C152 N156 1.351 . S
C153 C151 1.387 . S
C153 C154 1.374 . S
C153 H168 0.931 . S
C154 C148 1.439 . S
C154 C153 1.374 . S
C154 H169 0.931 . S
Eu155 N146 2.600 . S
Eu155 N156 2.562 . S
Eu155 O190 2.335 1_655 S
Eu155 O193 2.372 1_655 S
Eu155 O194 2.462 . S
Eu155 O195 2.373 . S
Eu155 O197 2.432 . S
Eu155 O198 2.291 1_545 S
Eu155 C219 2.787 . S
N156 C152 1.351 . S
N156 Eu155 2.562 . S
N156 C158 1.325 . S
C157 C151 1.404 . S
C157 C159 1.366 . S
C157 H165 0.930 . S
C158 N156 1.325 . S
C158 C159 1.416 . S
C158 H164 0.929 . S
C159 C157 1.366 . S
C159 C158 1.416 . S
C159 H161 0.930 . S
H160 C149 0.930 1_455 S
H161 C159 0.930 . S
H162 C177 0.930 1_655 S
H163 C184 0.930 . S
H164 C158 0.929 . S
H165 C157 0.930 . S
H166 C180 0.929 . S
H167 C147 0.931 1_455 S
H168 C153 0.931 . S
H169 C154 0.931 . S
H170 C175 0.931 1_655 S
H171 C150 0.929 . S
H172 C183 0.930 . S
N173 Eu144 2.600 . S
N173 C174 1.365 . S
N173 C177 1.319 . S
C174 N173 1.365 . S
C174 C176 1.405 . S
C174 C182 1.448 . S
C175 H170 0.931 1_455 S
C175 C177 1.397 . S
C175 C178 1.367 . S
C176 C174 1.405 . S
C176 C178 1.403 . S
C176 C209 1.439 . S
C177 H162 0.930 1_455 S
C177 N173 1.319 . S
C177 C175 1.397 . S
C178 C175 1.367 . S
C178 C176 1.403 . S
C178 H185 0.929 . S
N179 Eu144 2.562 . S
N179 C180 1.325 . S
N179 C182 1.351 . S
C180 H166 0.929 . S
C180 N179 1.325 . S
C180 C184 1.416 . S
C181 C182 1.430 . S
C181 C183 1.404 . S
C181 C210 1.387 . S
C182 C174 1.448 . S
C182 N179 1.351 . S
C182 C181 1.430 . S
C183 H172 0.930 . S
C183 C181 1.404 . S
C183 C184 1.366 . S
C184 H163 0.930 . S
C184 C180 1.416 . S
C184 C183 1.366 . S
H185 C178 0.929 . S
H186 C209 0.931 . S
H187 C210 0.931 . S
O188 Eu144 2.462 . S
O188 C208 1.252 . S
O189 Eu144 2.373 . S
O189 C200 1.249 . S
O190 Eu155 2.335 1_455 S
O190 C200 1.264 1_545 S
O191 Eu144 2.432 . S
O191 C208 1.268 . S
O192 Eu144 2.291 1_545 S
O192 C207 1.255 . S
O193 Eu155 2.372 1_455 S
O193 C207 1.257 . S
O194 Eu155 2.462 . S
O194 C219 1.252 . S
O195 Eu155 2.373 . S
O195 C211 1.249 . S
O196 Eu144 2.336 1_645 S
O196 C211 1.262 . S
O197 Eu155 2.432 . S
O197 C219 1.268 . S
O198 Eu155 2.291 1_565 S
O198 C218 1.255 . S
O199 Eu144 2.372 1_655 S
O199 C218 1.257 . S
C200 O189 1.249 . S
C200 O190 1.264 1_565 S
C201 C204 1.382 . S
C201 C206 1.390 . S
C201 C208 1.506 . S
C202 C203 1.398 . S
C202 C206 1.392 . S
C203 C202 1.398 . S
C203 C205 1.372 . S
C203 H220 0.931 . S
C204 C201 1.382 . S
C204 C205 1.390 . S
C204 H221 0.931 . S
C205 C203 1.372 . S
C205 C204 1.390 . S
C205 H222 0.929 . S
C206 C201 1.390 . S
C206 C202 1.392 . S
C206 H223 0.930 . S
C207 O192 1.255 . S
C207 O193 1.257 . S
C208 Eu144 2.787 . S
C208 O188 1.252 . S
C208 O191 1.268 . S
C208 C201 1.506 . S
C209 C176 1.439 . S
C209 H186 0.931 . S
C209 C210 1.374 . S
C210 C181 1.387 . S
C210 H187 0.931 . S
C210 C209 1.374 . S
C211 O195 1.249 . S
C211 O196 1.262 . S
C212 C215 1.382 . S
C212 C216 1.390 . S
C212 C219 1.506 . S
C213 C214 1.398 . S
C213 C216 1.392 . S
C214 C213 1.398 . S
C214 C217 1.372 . S
C214 H224 0.931 . S
C215 C212 1.382 . S
C215 C217 1.390 . S
C215 H225 0.931 . S
C216 C212 1.390 . S
C216 C213 1.392 . S
C216 H226 0.930 . S
C217 C214 1.372 . S
C217 C215 1.390 . S
C217 H227 0.929 . S
C218 O198 1.255 . S
C218 O199 1.257 . S
C219 Eu155 2.787 . S
C219 O194 1.252 . S
C219 O197 1.268 . S
C219 C212 1.506 . S
H220 C203 0.931 . S
H221 C204 0.931 . S
H222 C205 0.929 . S
H223 C206 0.930 . S
H224 C214 0.931 . S
H225 C215 0.931 . S
H226 C216 0.930 . S
H227 C217 0.929 . S
Eu228 N257 2.599 1_556 S
Eu228 N263 2.562 1_556 S
Eu228 O272 2.462 . S
Eu228 O273 2.373 1_556 S
Eu228 O275 2.432 . S
Eu228 O276 2.291 1_556 S
Eu228 O280 2.335 . S
Eu228 O283 2.372 1_556 S
Eu228 C292 2.787 . S
C229 N230 1.365 . S
C229 C232 1.405 . S
C229 C236 1.448 . S
N230 C229 1.365 . S
N230 C233 1.319 . S
N230 Eu239 2.600 . S
C231 C233 1.397 . S
C231 C234 1.367 . S
C231 H251 0.931 . S
C232 C229 1.405 . S
C232 C234 1.403 . S
C232 C238 1.439 . S
C233 N230 1.319 . S
C233 C231 1.397 . S
C233 H244 0.930 . S
C234 C231 1.367 . S
C234 C232 1.403 . S
C234 H255 0.929 . S
C235 C236 1.430 . S
C235 C237 1.387 . S
C235 C241 1.404 . S
C236 C229 1.448 . S
C236 C235 1.430 . S
C236 N240 1.351 . S
C237 C235 1.387 . S
C237 C238 1.374 . S
C237 H252 0.931 . S
C238 C232 1.439 . S
C238 C237 1.374 . S
C238 H253 0.931 . S
Eu239 N230 2.600 . S
Eu239 N240 2.562 . S
Eu239 O274 2.335 . S
Eu239 O277 2.372 . S
Eu239 O278 2.462 . S
Eu239 O279 2.373 . S
Eu239 O281 2.432 . S
Eu239 O282 2.291 . S
Eu239 C303 2.787 . S
N240 C236 1.351 . S
N240 Eu239 2.562 . S
N240 C242 1.325 . S
C241 C235 1.404 . S
C241 C243 1.366 . S
C241 H249 0.930 . S
C242 N240 1.325 . S
C242 C243 1.416 . S
C242 H248 0.929 . S
C243 C241 1.366 . S
C243 C242 1.416 . S
C243 H245 0.930 . S
H244 C233 0.930 . S
H245 C243 0.930 . S
H246 C261 0.930 . S
H247 C268 0.930 . S
H248 C242 0.929 . S
H249 C241 0.930 . S
H250 C264 0.929 . S
H251 C231 0.931 . S
H252 C237 0.931 . S
H253 C238 0.931 . S
H254 C259 0.931 . S
H255 C234 0.929 . S
H256 C267 0.930 . S
N257 Eu228 2.599 1_554 S
N257 C258 1.367 . S
N257 C261 1.319 1_554 S
C258 N257 1.367 . S
C258 C260 1.405 . S
C258 C266 1.448 . S
C259 H254 0.931 . S
C259 C261 1.397 . S
C259 C262 1.367 1_556 S
C260 C258 1.405 . S
C260 C262 1.403 . S
C260 C293 1.439 . S
C261 H246 0.930 . S
C261 N257 1.319 1_556 S
C261 C259 1.397 . S
C262 C259 1.367 1_554 S
C262 C260 1.403 . S
C262 H269 0.929 . S
N263 Eu228 2.562 1_554 S
N263 C264 1.325 . S
N263 C266 1.351 . S
C264 H250 0.929 . S
C264 N263 1.325 . S
C264 C268 1.416 . S
C265 C266 1.430 . S
C265 C267 1.404 . S
C265 C294 1.387 . S
C266 C258 1.448 . S
C266 N263 1.351 . S
C266 C265 1.430 . S
C267 H256 0.930 . S
C267 C265 1.404 . S
C267 C268 1.366 . S
C268 H247 0.930 . S
C268 C264 1.416 . S
C268 C267 1.366 . S
H269 C262 0.929 . S
H270 C293 0.931 . S
H271 C294 0.931 . S
O272 Eu228 2.462 . S
O272 C292 1.252 . S
O273 Eu228 2.373 1_554 S
O273 C284 1.249 . S
O274 Eu239 2.335 . S
O274 C284 1.264 . S
O275 Eu228 2.432 . S
O275 C292 1.268 . S
O276 Eu228 2.291 1_554 S
O276 C291 1.255 . S
O277 Eu239 2.372 . S
O277 C291 1.257 . S
O278 Eu239 2.462 . S
O278 C303 1.252 . S
O279 Eu239 2.373 . S
O279 C295 1.249 1_554 S
O280 Eu228 2.335 . S
O280 C295 1.264 . S
O281 Eu239 2.432 . S
O281 C303 1.268 . S
O282 Eu239 2.291 . S
O282 C302 1.255 . S
O283 Eu228 2.372 1_554 S
O283 C302 1.257 . S
C284 O273 1.249 . S
C284 O274 1.264 . S
C285 C288 1.382 . S
C285 C290 1.390 . S
C285 C292 1.506 . S
C286 C287 1.398 . S
C286 C290 1.392 . S
C287 C286 1.398 . S
C287 C289 1.372 . S
C287 H304 0.931 . S
C288 C285 1.382 . S
C288 C289 1.390 . S
C288 H305 0.931 . S
C289 C287 1.372 . S
C289 C288 1.390 . S
C289 H306 0.929 . S
C290 C285 1.390 . S
C290 C286 1.392 . S
C290 H307 0.930 . S
C291 O276 1.255 . S
C291 O277 1.257 . S
C292 Eu228 2.787 . S
C292 O272 1.252 . S
C292 O275 1.268 . S
C292 C285 1.506 . S
C293 C260 1.439 . S
C293 H270 0.931 . S
C293 C294 1.374 . S
C294 C265 1.387 . S
C294 H271 0.931 . S
C294 C293 1.374 . S
C295 O279 1.249 1_556 S
C295 O280 1.264 . S
C296 C299 1.382 . S
C296 C300 1.390 . S
C296 C303 1.506 . S
C297 C298 1.398 . S
C297 C300 1.392 . S
C298 C297 1.398 . S
C298 C301 1.372 . S
C298 H308 0.931 . S
C299 C296 1.382 . S
C299 C301 1.390 . S
C299 H309 0.931 . S
C300 C296 1.390 . S
C300 C297 1.392 . S
C300 H310 0.930 . S
C301 C298 1.372 . S
C301 C299 1.390 . S
C301 H311 0.929 . S
C302 O282 1.255 . S
C302 O283 1.257 . S
C303 Eu239 2.787 . S
C303 O278 1.252 . S
C303 O281 1.268 . S
C303 C296 1.506 . S
H304 C287 0.931 . S
H305 C288 0.931 . S
H306 C289 0.929 . S
H307 C290 0.930 . S
H308 C298 0.931 . S
H309 C299 0.931 . S
H310 C300 0.930 . S
H311 C301 0.929 . S
C312 C313 1.387 . S
C312 H316 0.950 . S
C312 C321 1.390 . S
C313 C312 1.387 . S
C313 C315 1.387 . S
H314 C321 0.950 . S
C315 C313 1.387 . S
C315 C317 1.390 . S
C315 H319 0.950 . S
H316 C312 0.950 . S
C317 C315 1.390 . S
C317 C318 1.387 . S
C317 H320 0.950 . S
C318 C317 1.387 . S
C318 C321 1.387 . S
H319 C315 0.950 . S
H320 C317 0.950 . S
C321 C312 1.390 . S
C321 H314 0.950 . S
C321 C318 1.387 . S
C322 C323 1.387 . S
C322 H326 0.950 . S
C322 C331 1.390 . S
C323 C322 1.387 . S
C323 C325 1.387 . S
H324 C331 0.950 . S
C325 C323 1.387 . S
C325 C327 1.388 1_554 S
C325 H329 0.950 1_554 S
H326 C322 0.950 . S
C327 C325 1.388 1_556 S
C327 C328 1.384 1_556 S
C327 H330 0.955 . S
C328 C327 1.384 1_554 S
C328 C331 1.387 . S
H329 C325 0.950 1_556 S
H330 C327 0.955 . S
C331 C322 1.390 . S
C331 H324 0.950 . S
C331 C328 1.387 . S
C332 C333 1.387 . S
C332 H336 0.950 . S
C332 C341 1.390 . S
C333 C332 1.387 . S
C333 C335 1.387 . S
H334 C341 0.950 . S
C335 C333 1.387 . S
C335 C337 1.390 . S
C335 H339 0.950 . S
H336 C332 0.950 . S
C337 C335 1.390 . S
C337 C338 1.387 . S
C337 H340 0.950 . S
C338 C337 1.387 . S
C338 C341 1.387 . S
H339 C335 0.950 . S
H340 C337 0.950 . S
C341 C332 1.390 . S
C341 H334 0.950 . S
C341 C338 1.387 . S
C342 C343 1.387 . S
C342 H346 0.950 . S
C342 C351 1.390 . S
C343 C342 1.387 . S
C343 C345 1.387 1_554 S
H344 C351 0.950 . S
C345 C343 1.387 1_556 S
C345 C347 1.390 . S
C345 H349 0.950 . S
H346 C342 0.950 . S
C347 C345 1.390 . S
C347 C348 1.387 1_556 S
C347 H350 0.950 . S
C348 C347 1.387 1_554 S
C348 C351 1.387 . S
H349 C345 0.950 . S
H350 C347 0.950 . S
C351 C342 1.390 . S
C351 H344 0.950 . S
C351 C348 1.387 . S
C352 C353 1.387 . S
C352 H356 0.950 . S
C352 C361 1.390 . S
C353 C352 1.387 . S
C353 C355 1.387 . S
H354 C361 0.950 . S
C355 C353 1.387 . S
C355 C357 1.390 . S
C355 H359 0.947 1_565 S
H356 C352 0.950 . S
C357 C355 1.390 . S
C357 C358 1.387 . S
C357 H360 0.950 1_565 S
C358 C357 1.387 . S
C358 C361 1.387 . S
H359 C355 0.947 1_545 S
H360 C357 0.950 1_545 S
C361 C352 1.390 . S
C361 H354 0.950 . S
C361 C358 1.387 . S
C362 C363 1.387 . S
C362 H366 0.950 . S
C362 C371 1.390 . S
C363 C362 1.387 . S
C363 C365 1.387 . S
H364 C371 0.950 . S
C365 C363 1.387 . S
C365 C367 1.390 . S
C365 H369 0.950 . S
H366 C362 0.950 . S
C367 C365 1.390 . S
C367 C368 1.387 . S
C367 H370 0.950 . S
C368 C367 1.387 . S
C368 C371 1.387 . S
H369 C365 0.950 . S
H370 C367 0.950 . S
C371 C362 1.390 . S
C371 H364 0.950 . S
C371 C368 1.387 . S
C372 C373 1.387 . S
C372 H376 0.950 1_545 S
C372 C381 1.390 . S
C373 C372 1.387 . S
C373 C375 1.387 . S
H374 C381 0.950 1_565 S
C375 C373 1.387 . S
C375 C377 1.390 . S
C375 H379 0.950 . S
H376 C372 0.950 1_565 S
C377 C375 1.390 . S
C377 C378 1.387 . S
C377 H380 0.950 . S
C378 C377 1.387 . S
C378 C381 1.387 . S
H379 C375 0.950 . S
H380 C377 0.950 . S
C381 C372 1.390 . S
C381 H374 0.950 1_545 S
C381 C378 1.387 . S
C382 C383 1.387 . S
C382 H386 0.950 . S
C382 C391 1.390 . S
C383 C382 1.387 . S
C383 C385 1.387 . S
H384 C391 0.950 . S
C385 C383 1.387 . S
C385 C387 1.390 . S
C385 H389 0.950 . S
H386 C382 0.950 . S
C387 C385 1.390 . S
C387 C388 1.387 . S
C387 H390 0.950 . S
C388 C387 1.387 . S
C388 C391 1.387 . S
H389 C385 0.950 . S
H390 C387 0.950 . S
C391 C382 1.390 . S
C391 H384 0.950 . S
C391 C388 1.387 . S
C392 C393 1.387 . S
C392 H396 0.950 . S
C392 C401 1.390 . S
C393 C392 1.387 . S
C393 C395 1.387 . S
H394 C401 0.950 . S
C395 C393 1.387 . S
C395 C397 1.390 . S
C395 H399 0.950 . S
H396 C392 0.950 . S
C397 C395 1.390 . S
C397 C398 1.387 . S
C397 H400 0.950 . S
C398 C397 1.387 . S
C398 C401 1.387 . S
H399 C395 0.950 . S
H400 C397 0.950 . S
C401 C392 1.390 . S
C401 H394 0.950 . S
C401 C398 1.387 . S
C402 C403 1.387 . S
C402 H406 0.950 . S
C402 C411 1.390 . S
C403 C402 1.387 . S
C403 C405 1.387 . S
H404 C411 0.950 1_565 S
C405 C403 1.387 . S
C405 C407 1.390 . S
C405 H409 0.950 . S
H406 C402 0.950 . S
C407 C405 1.390 . S
C407 C408 1.387 . S
C407 H410 0.950 . S
C408 C407 1.387 . S
C408 C411 1.387 . S
H409 C405 0.950 . S
H410 C407 0.950 . S
C411 C402 1.390 . S
C411 H404 0.950 1_545 S
C411 C408 1.387 . S
C412 C413 1.387 . S
C412 H416 0.950 . S
C412 C421 1.390 . S
C413 C412 1.387 . S
C413 C415 1.387 . S
H414 C421 0.950 . S
C415 C413 1.387 . S
C415 C417 1.390 . S
C415 H419 0.950 . S
H416 C412 0.950 . S
C417 C415 1.390 . S
C417 C418 1.387 . S
C417 H420 0.950 . S
C418 C417 1.387 . S
C418 C421 1.387 . S
H419 C415 0.950 . S
H420 C417 0.950 . S
C421 C412 1.390 . S
C421 H414 0.950 . S
C421 C418 1.387 . S
C422 C423 1.387 1_545 S
C422 H426 0.950 . S
C422 C431 1.390 . S
C423 C422 1.387 1_565 S
C423 C425 1.387 . S
H424 C431 0.950 . S
C425 C423 1.387 . S
C425 C427 1.390 . S
C425 H429 0.950 . S
H426 C422 0.950 . S
C427 C425 1.390 . S
C427 C428 1.387 . S
C427 H430 0.950 . S
C428 C427 1.387 . S
C428 C431 1.387 1_565 S
H429 C425 0.950 . S
H430 C427 0.950 . S
C431 C422 1.390 . S
C431 H424 0.950 . S
C431 C428 1.387 1_545 S
C318 C207 1.679 . S
C313 C133 1.670 . S
C323 C25 1.656 . S
C328 C302 1.666 . S
C333 C61 1.638 . S
C338 C218 1.678 . S
C343 C97 1.605 . S
C348 C291 1.666 . S
C358 C202 1.433 . S
C353 C1 1.558 . S
C368 C295 1.634 . S
C363 C67 1.588 . S
C373 C103 1.603 . S
C378 C211 1.672 . S
C383 C109 1.534 . S
C388 C286 1.413 . S
C398 C297 1.413 . S
C393 C37 1.523 . S
C408 C213 1.432 . S
C403 C73 1.538 . S
C418 C284 1.634 . S
C413 C139 1.617 . S
C423 C31 1.655 . S
C428 C200 1.672 . S
