# Generated by pormake.
# Topology nom, (4,4)-cn, num edge types: 1
# Building blocks:
#     Node 0, Type 0, BuildingBlock: NAWXER_clean_linker_0, # of connection points: 4
#     Node 1, Type 0, BuildingBlock: NAWXER_clean_linker_0, # of connection points: 4
#     Node 2, Type 0, BuildingBlock: NAWXER_clean_linker_0, # of connection points: 4
#     Node 3, Type 0, BuildingBlock: NAWXER_clean_linker_0, # of connection points: 4
#     Node 4, Type 0, BuildingBlock: NAWXER_clean_linker_0, # of connection points: 4
#     Node 5, Type 0, BuildingBlock: NAWXER_clean_linker_0, # of connection points: 4
#     Node 6, Type 1, BuildingBlock: UXUYUI_clean_sbu_0, # of connection points: 4
#     Node 7, Type 1, BuildingBlock: UXUYUI_clean_sbu_0, # of connection points: 4
#     Node 8, Type 1, BuildingBlock: UXUYUI_clean_sbu_0, # of connection points: 4
#     Node 9, Type 1, BuildingBlock: UXUYUI_clean_sbu_0, # of connection points: 4
#     Node 10, Type 1, BuildingBlock: UXUYUI_clean_sbu_0, # of connection points: 4
#     Node 11, Type 1, BuildingBlock: UXUYUI_clean_sbu_0, # of connection points: 4
#     Edge 12, Type (0, 1), BuildingBlock: UVAHIK_clean_linker_0, # of connection points: 2
#     Edge 13, Type (0, 1), BuildingBlock: UVAHIK_clean_linker_0, # of connection points: 2
#     Edge 14, Type (0, 1), BuildingBlock: UVAHIK_clean_linker_0, # of connection points: 2
#     Edge 15, Type (0, 1), BuildingBlock: UVAHIK_clean_linker_0, # of connection points: 2
#     Edge 16, Type (0, 1), BuildingBlock: UVAHIK_clean_linker_0, # of connection points: 2
#     Edge 17, Type (0, 1), BuildingBlock: UVAHIK_clean_linker_0, # of connection points: 2
#     Edge 18, Type (0, 1), BuildingBlock: UVAHIK_clean_linker_0, # of connection points: 2
#     Edge 19, Type (0, 1), BuildingBlock: UVAHIK_clean_linker_0, # of connection points: 2
#     Edge 20, Type (0, 1), BuildingBlock: UVAHIK_clean_linker_0, # of connection points: 2
#     Edge 21, Type (0, 1), BuildingBlock: UVAHIK_clean_linker_0, # of connection points: 2
#     Edge 22, Type (0, 1), BuildingBlock: UVAHIK_clean_linker_0, # of connection points: 2
#     Edge 23, Type (0, 1), BuildingBlock: UVAHIK_clean_linker_0, # of connection points: 2
#     Edge 24, Type (0, 1), BuildingBlock: UVAHIK_clean_linker_0, # of connection points: 2
#     Edge 25, Type (0, 1), BuildingBlock: UVAHIK_clean_linker_0, # of connection points: 2
#     Edge 26, Type (0, 1), BuildingBlock: UVAHIK_clean_linker_0, # of connection points: 2
#     Edge 27, Type (0, 1), BuildingBlock: UVAHIK_clean_linker_0, # of connection points: 2
#     Edge 28, Type (0, 1), BuildingBlock: UVAHIK_clean_linker_0, # of connection points: 2
#     Edge 29, Type (0, 1), BuildingBlock: UVAHIK_clean_linker_0, # of connection points: 2
#     Edge 30, Type (0, 1), BuildingBlock: UVAHIK_clean_linker_0, # of connection points: 2
#     Edge 31, Type (0, 1), BuildingBlock: UVAHIK_clean_linker_0, # of connection points: 2
#     Edge 32, Type (0, 1), BuildingBlock: UVAHIK_clean_linker_0, # of connection points: 2
#     Edge 33, Type (0, 1), BuildingBlock: UVAHIK_clean_linker_0, # of connection points: 2
#     Edge 34, Type (0, 1), BuildingBlock: UVAHIK_clean_linker_0, # of connection points: 2
#     Edge 35, Type (0, 1), BuildingBlock: UVAHIK_clean_linker_0, # of connection points: 2
# Relax obj value: 0.041
# Max RMSD: 0.144
# Mean RMSD: 0.123
data_MOF--net-nom--node1-UXUYUI_clean_sbu_0--node2-NAWXER_clean_linker_0--edge1-UVAHIK_clean_linker_0
_symmetry_space_group_name_H-M    P1
_symmetry_Int_Tables_number       1
_symmetry_cell_setting            triclinic
loop_
_symmetry_equiv_pos_as_xyz
'x, y, z'
_cell_length_a     74.842052
_cell_length_b     74.851542
_cell_length_c     83.238198
_cell_angle_alpha  89.932921
_cell_angle_beta   90.072809
_cell_angle_gamma 120.01452
loop_
_atom_site_label
_atom_site_type_symbol
_atom_site_fract_x
_atom_site_fract_y
_atom_site_fract_z
_atom_type_partial_charge
C0 C 0.94692 0.4903 0.3323 0.0
C1 C 0.93787 0.47717 0.34553 0.0
C2 C 0.96697 0.4961 0.32756 0.0
C3 C 0.97823 0.48847 0.33571 0.0
C4 C 0.94924 0.46981 0.35387 0.0
C5 C 0.96927 0.47544 0.34901 0.0
C6 C -0.0001 0.49547 0.33125 0.0
C7 C 0.9615 0.46141 0.28837 0.0
C8 C 0.96576 0.47349 0.2744 0.0
C9 C 0.97475 0.46885 0.30162 0.0
C10 C 0.99235 0.48863 0.30126 0.0
C11 C 0.9837 0.49302 0.27394 0.0
C12 C 0.99684 0.50047 0.28721 0.0
C13 C 0.00657 0.49696 0.31518 0.0
C14 C 0.09969 0.53648 0.32163 0.0
C15 C 0.105 0.55109 0.30927 0.0
C16 C 0.07905 0.52413 0.32626 0.0
C17 C 0.06355 0.52673 0.31896 0.0
C18 C 0.08937 0.55301 0.30155 0.0
C19 C 0.06889 0.54099 0.30636 0.0
C20 C 0.04165 0.51484 0.32399 0.0
C21 C 0.07821 0.54862 0.36796 0.0
C22 C 0.07587 0.53541 0.38083 0.0
C23 C 0.06482 0.54133 0.35479 0.0
C24 C 0.04914 0.52056 0.35404 0.0
C25 C 0.05966 0.5148 0.38026 0.0
C26 C 0.04644 0.50749 0.36701 0.0
C27 C 0.03496 0.5124 0.34014 0.0
H28 H 0.93871 0.4966 0.32588 0.0
H29 H 0.97381 0.5069 0.31772 0.0
H30 H 0.94262 0.45966 0.36412 0.0
H31 H 0.97778 0.46965 0.35565 0.0
H32 H 0.9478 0.44633 0.28915 0.0
H33 H 0.97123 0.45912 0.31214 0.0
H34 H 0.98772 0.50254 0.26327 0.0
H35 H 0.01046 0.51565 0.28652 0.0
H36 H 0.11148 0.53456 0.32762 0.0
H37 H 0.07528 0.51274 0.33562 0.0
H38 H 0.09305 0.56426 0.29208 0.0
H39 H 0.05723 0.54319 0.30043 0.0
H40 H 0.09054 0.56455 0.36793 0.0
H41 H 0.06681 0.5519 0.34515 0.0
H42 H 0.05704 0.50431 0.39011 0.0
H43 H 0.03418 0.49152 0.36684 0.0
N44 N 0.01434 0.50285 0.34311 0.0
N45 N 0.02716 0.50688 0.31221 0.0
C46 C 0.47566 0.94778 0.50027 0.0
C47 C 0.48085 0.93939 0.51334 0.0
C48 C 0.48932 0.96771 0.49491 0.0
C49 C 0.50872 0.97951 0.50223 0.0
C50 C 0.50002 0.95135 0.52097 0.0
C51 C 0.51384 0.97127 0.51545 0.0
C52 C 0.52296 0.0009 0.49682 0.0
C53 C 0.5161 0.9599 0.45532 0.0
C54 C 0.50688 0.96281 0.44158 0.0
C55 C 0.52278 0.97415 0.46791 0.0
C56 C 0.52009 0.99142 0.46713 0.0
C57 C 0.50478 0.98044 0.44064 0.0
C58 C 0.51136 0.99459 0.45326 0.0
C59 C 0.52678 0.00655 0.48044 0.0
C60 C 0.58152 0.09954 0.48237 0.0
C61 C 0.57096 0.10452 0.47082 0.0
C62 C 0.57319 0.07923 0.48787 0.0
C63 C 0.554 0.06368 0.48212 0.0
C64 C 0.55201 0.08879 0.46485 0.0
C65 C 0.54368 0.0686 0.47039 0.0
C66 C 0.54442 0.04211 0.48785 0.0
C67 C 0.54975 0.08066 0.53122 0.0
C68 C 0.5621 0.07953 0.54348 0.0
C69 C 0.5431 0.06672 0.51841 0.0
C70 C 0.54888 0.05157 0.51753 0.0
C71 C 0.56759 0.06412 0.54266 0.0
C72 C 0.56095 0.05022 0.52985 0.0
C73 C 0.54171 0.03645 0.50425 0.0
H74 H 0.46079 0.9391 0.49442 0.0
H75 H 0.48455 0.97399 0.48517 0.0
H76 H 0.50437 0.94525 0.53109 0.0
H77 H 0.52855 0.98021 0.52147 0.0
H78 H 0.51789 0.94648 0.45646 0.0
H79 H 0.53003 0.97164 0.47827 0.0
H80 H 0.49818 0.9834 0.4301 0.0
H81 H 0.50937 0.00793 0.45226 0.0
H82 H 0.59629 0.11129 0.48703 0.0
H83 H 0.58174 0.0757 0.49659 0.0
H84 H 0.54335 0.09215 0.45611 0.0
H85 H 0.5289 0.05685 0.46572 0.0
H86 H 0.54532 0.09239 0.53146 0.0
H87 H 0.53335 0.06773 0.50924 0.0
H88 H 0.57676 0.06259 0.55206 0.0
H89 H 0.56531 0.03843 0.52952 0.0
N90 N 0.53099 0.01606 0.5081 0.0
N91 N 0.537 0.02692 0.47662 0.0
C92 C 0.57591 0.51687 0.62053 0.0
C93 C 0.56365 0.50841 0.60676 0.0
C94 C 0.56839 0.52266 0.63369 0.0
C95 C 0.54828 0.51965 0.63348 0.0
C96 C 0.54366 0.50568 0.60647 0.0
C97 C 0.53607 0.51126 0.6197 0.0
C98 C 0.54021 0.52626 0.64711 0.0
C99 C 0.54985 0.47636 0.66735 0.0
C100 C 0.5648 0.4826 0.67955 0.0
C101 C 0.54299 0.48956 0.66198 0.0
C102 C 0.55109 0.5094 0.66856 0.0
C103 C 0.57273 0.5024 0.68626 0.0
C104 C 0.56585 0.51563 0.68086 0.0
C105 C 0.54309 0.52301 0.6634 0.0
C106 C 0.49164 0.55051 0.69958 0.0
C107 C 0.5056 0.56214 0.71182 0.0
C108 C 0.49819 0.54367 0.68643 0.0
C109 C 0.51893 0.54878 0.6851 0.0
C110 C 0.52623 0.56688 0.7106 0.0
C111 C 0.53281 0.56021 0.69739 0.0
C112 C 0.5262 0.54144 0.67147 0.0
C113 C 0.50174 0.58073 0.65041 0.0
C114 C 0.48606 0.57021 0.63897 0.0
C115 C 0.51388 0.57245 0.65564 0.0
C116 C 0.51016 0.55328 0.64978 0.0
C117 C 0.4828 0.55134 0.63284 0.0
C118 C 0.49474 0.543 0.63817 0.0
C119 C 0.52236 0.54376 0.65517 0.0
H120 H 0.59149 0.51945 0.62096 0.0
H121 H 0.57844 0.52981 0.64391 0.0
H122 H 0.53382 0.49906 0.59606 0.0
H123 H 0.52058 0.50893 0.61917 0.0
H124 H 0.54305 0.46105 0.6622 0.0
H125 H 0.53104 0.48409 0.65289 0.0
H126 H 0.58433 0.5077 0.69562 0.0
H127 H 0.57211 0.53077 0.68624 0.0
H128 H 0.47556 0.54632 0.70035 0.0
H129 H 0.48702 0.53425 0.67739 0.0
H130 H 0.53736 0.57591 0.71981 0.0
H131 H 0.54882 0.56412 0.69671 0.0
H132 H 0.50474 0.59544 0.65518 0.0
H133 H 0.52611 0.581 0.66422 0.0
H134 H 0.4707 0.54278 0.62415 0.0
H135 H 0.49167 0.52827 0.63339 0.0
N136 N 0.52966 0.5362 0.64369 0.0
N137 N 0.53635 0.53107 0.67492 0.0
C138 C 0.94466 0.47644 0.81983 0.0
C139 C 0.93582 0.48246 0.80759 0.0
C140 C 0.96465 0.48987 0.8252 0.0
C141 C 0.97613 0.50977 0.81866 0.0
C142 C 0.94744 0.50227 0.80085 0.0
C143 C 0.96747 0.51578 0.80631 0.0
C144 C 0.99767 0.52365 0.82388 0.0
C145 C 0.95797 0.51521 0.86679 0.0
C146 C 0.96207 0.50688 0.88054 0.0
C147 C 0.97147 0.52177 0.8537 0.0
C148 C 0.98909 0.51962 0.85387 0.0
C149 C 0.98002 0.5053 0.88082 0.0
C150 C 0.99332 0.51154 0.86764 0.0
C151 C 0.00378 0.52665 0.8402 0.0
C152 C 0.0971 0.57911 0.83672 0.0
C153 C 0.1018 0.56766 0.84762 0.0
C154 C 0.07671 0.57178 0.83176 0.0
C155 C 0.0608 0.5527 0.83739 0.0
C156 C 0.08573 0.54886 0.85351 0.0
C157 C 0.06548 0.54151 0.84848 0.0
C158 C 0.03913 0.54405 0.83213 0.0
C159 C 0.07586 0.55009 0.78747 0.0
C160 C 0.07541 0.5639 0.77621 0.0
C161 C 0.06208 0.54296 0.80038 0.0
C162 C 0.04775 0.54968 0.80236 0.0
C163 C 0.06079 0.57032 0.77813 0.0
C164 C 0.04702 0.56316 0.79103 0.0
C165 C 0.03301 0.54221 0.81587 0.0
H166 H 0.9363 0.46111 0.82499 0.0
H167 H 0.97126 0.48454 0.8343 0.0
H168 H 0.94102 0.50736 0.79143 0.0
H169 H 0.97617 0.53094 0.80092 0.0
H170 H 0.94426 0.51659 0.86606 0.0
H171 H 0.96815 0.52863 0.8435 0.0
H172 H 0.98403 0.49948 0.89132 0.0
H173 H 0.00696 0.51001 0.86823 0.0
H174 H 0.10914 0.59378 0.83216 0.0
H175 H 0.07342 0.58101 0.82356 0.0
H176 H 0.08888 0.53956 0.86175 0.0
H177 H 0.05347 0.5268 0.85304 0.0
H178 H 0.08663 0.54451 0.78616 0.0
H179 H 0.06255 0.53212 0.80876 0.0
H180 H 0.06015 0.58109 0.76978 0.0
H181 H 0.03595 0.56838 0.79229 0.0
N182 N 0.01251 0.53197 0.81237 0.0
N183 N 0.02426 0.53638 0.84362 0.0
C184 C 0.48836 0.94676 0.98782 0.0
C185 C 0.47398 0.93793 0.97528 0.0
C186 C 0.49412 0.96644 0.99347 0.0
C187 C 0.48545 0.97764 0.98684 0.0
C188 C 0.46507 0.94902 0.96876 0.0
C189 C 0.47091 0.9688 0.97441 0.0
C190 C 0.49322 -0.0007 0.99171 0.0
C191 C 0.46043 0.96124 0.03489 0.0
C192 C 0.47271 0.96492 0.04864 0.0
C193 C 0.4681 0.97442 0.02162 0.0
C194 C 0.48834 0.9913 0.02172 0.0
C195 C 0.49284 0.98196 0.0488 0.0
C196 C 0.50056 0.99502 0.0355 0.0
C197 C 0.49659 0.00576 0.00793 0.0
C198 C 0.54021 0.09894 0.00334 0.0
C199 C 0.55807 0.10361 0.01215 0.0
C200 C 0.526 0.07847 -0.00068 0.0
C201 C 0.52946 0.06246 0.00414 0.0
C202 C 0.56112 0.08747 0.01731 0.0
C203 C 0.54687 0.06709 0.01345 0.0
C204 C 0.51553 0.04084 -0.00065 0.0
C205 C 0.54662 0.07677 0.95455 0.0
C206 C 0.53269 0.07583 0.94275 0.0
C207 C 0.53966 0.06332 0.96767 0.0
C208 C 0.51857 0.04893 0.96944 0.0
C209 C 0.51164 0.06107 0.9444 0.0
C210 C 0.50469 0.04772 0.95758 0.0
C211 C 0.51094 0.03445 0.98318 0.0
H212 H 0.49537 0.93853 0.99316 0.0
H213 H 0.50584 0.97313 0.00273 0.0
H214 H 0.45411 0.94267 0.95897 0.0
H215 H 0.46429 0.97731 0.96894 0.0
H216 H 0.44473 0.94843 0.03453 0.0
H217 H 0.45805 0.97156 0.0114 0.0
H218 H 0.50273 0.98508 0.05918 0.0
H219 H 0.51617 0.00799 0.03595 0.0
H220 H 0.53751 0.11114 -0.00075 0.0
H221 H 0.51248 0.07517 0.9923 0.0
H222 H 0.57459 0.09063 0.02433 0.0
H223 H 0.54974 0.05494 0.01737 0.0
H224 H 0.56291 0.088 0.95373 0.0
H225 H 0.5508 0.06412 0.97638 0.0
H226 H 0.50055 0.05961 0.93538 0.0
H227 H 0.4884 0.03648 0.95857 0.0
N228 N 0.50008 0.0139 0.97998 0.0
N229 N 0.508 0.02628 0.01108 0.0
C230 C 0.48422 0.56063 0.16706 0.0
C231 C 0.46899 0.55406 0.17902 0.0
C232 C 0.49165 0.54782 0.162 0.0
C233 C 0.48373 0.52798 0.16855 0.0
C234 C 0.4613 0.53433 0.18579 0.0
C235 C 0.46867 0.52142 0.18062 0.0
C236 C 0.49234 0.51481 0.16365 0.0
C237 C 0.46111 0.52179 0.12007 0.0
C238 C 0.47449 0.53246 0.10726 0.0
C239 C 0.46798 0.51504 0.13311 0.0
C240 C 0.48842 0.51902 0.13368 0.0
C241 C 0.49479 0.53599 0.10771 0.0
C242 C 0.50164 0.52927 0.12074 0.0
C243 C 0.49606 0.51214 0.14744 0.0
C244 C 0.53907 0.46195 0.15154 0.0
C245 C 0.55605 0.47441 0.14162 0.0
C246 C 0.52531 0.46855 0.15611 0.0
C247 C 0.52845 0.48778 0.15091 0.0
C248 C 0.55863 0.49327 0.13602 0.0
C249 C 0.54495 0.49984 0.14058 0.0
C250 C 0.51484 0.49578 0.15593 0.0
C251 C 0.54508 0.48915 0.20063 0.0
C252 C 0.5311 0.47717 0.21271 0.0
C253 C 0.53847 0.49601 0.1875 0.0
C254 C 0.51759 0.4904 0.18595 0.0
C255 C 0.51039 0.47217 0.21143 0.0
C256 C 0.50371 0.47871 0.19816 0.0
C257 C 0.51017 0.49744 0.17214 0.0
H258 H 0.49084 0.57594 0.16192 0.0
H259 H 0.50391 0.55363 0.15317 0.0
H260 H 0.44955 0.52887 0.19503 0.0
H261 H 0.46259 0.5063 0.18602 0.0
H262 H 0.44541 0.51887 0.12012 0.0
H263 H 0.45729 0.50668 0.14274 0.0
H264 H 0.50537 0.5438 0.0979 0.0
H265 H 0.5174 0.53231 0.1208 0.0
H266 H 0.53667 0.44732 0.15602 0.0
H267 H 0.51239 0.45879 0.1638 0.0
H268 H 0.57126 0.50299 0.12807 0.0
H269 H 0.54752 0.51461 0.13627 0.0
H270 H 0.56121 0.49355 0.2015 0.0
H271 H 0.54971 0.50578 0.17863 0.0
H272 H 0.4993 0.46294 0.22059 0.0
H273 H 0.48761 0.47448 0.19737 0.0
N274 N 0.49915 0.50697 0.17535 0.0
N275 N 0.50747 0.50307 0.14426 0.0
Li276 Li 0.64007 0.40782 0.42461 0.0
Li277 Li 0.63691 0.3774 0.41314 0.0
Li278 Li 0.66683 0.41023 0.40726 0.0
Li279 Li 0.63231 0.40046 0.39499 0.0
C280 C 0.66207 0.39975 0.4442 0.0
N281 N 0.66869 0.4072 0.4768 0.0
C282 C 0.64972 0.38446 0.45528 0.0
C283 C 0.67789 0.41876 0.44972 0.0
C284 C 0.6533 0.38853 0.4717 0.0
C285 C 0.68096 0.42226 0.46624 0.0
C286 C 0.59718 0.36656 0.41509 0.0
C287 C 0.56573 0.33948 0.40337 0.0
N288 N 0.56109 0.32899 0.41752 0.0
C289 C 0.59207 0.35549 0.42951 0.0
C290 C 0.58391 0.35847 0.4019 0.0
C291 C 0.57378 0.33653 0.43049 0.0
C292 C 0.64273 0.44076 0.44328 0.0
N293 N 0.63449 0.41994 0.44272 0.0
C294 C 0.61844 0.41616 0.46827 0.0
C295 C 0.62232 0.40761 0.45478 0.0
C296 C 0.62684 0.4376 0.46923 0.0
C297 C 0.63904 0.44997 0.45648 0.0
H298 H 0.65213 0.45023 0.43347 0.0
H299 H 0.61572 0.39113 0.45401 0.0
C300 C 0.64292 0.34659 0.42643 0.0
N301 N 0.62971 0.34918 0.41678 0.0
C302 C 0.63929 0.32689 0.43008 0.0
C303 C 0.60907 0.31266 0.4131 0.0
C304 C 0.6133 0.33272 0.40978 0.0
C305 C 0.62203 0.30957 0.42356 0.0
H306 H 0.65641 0.35989 0.43126 0.0
H307 H 0.60349 0.33508 0.40158 0.0
C308 C 0.66806 0.44558 0.40082 0.0
N309 N 0.69974 0.48308 0.39007 0.0
C310 C 0.6676 0.45232 0.38524 0.0
C311 C 0.68452 0.45804 0.411 0.0
C312 C 0.68379 0.4713 0.38002 0.0
C313 C 0.70042 0.4769 0.40532 0.0
C314 C 0.64878 0.37131 0.3848 0.0
C315 C 0.66408 0.3663 0.38799 0.0
C316 C 0.63213 0.35854 0.37491 0.0
C317 C 0.66234 0.34838 0.38132 0.0
C318 C 0.63097 0.34077 0.36845 0.0
N319 N 0.64596 0.33609 0.37178 0.0
C320 C 0.70782 0.42025 0.41301 0.0
C321 C 0.7024 0.43169 0.38787 0.0
C322 C 0.72833 0.42696 0.40906 0.0
N323 N 0.69535 0.42268 0.40243 0.0
C324 C 0.72286 0.4388 0.38347 0.0
C325 C 0.73607 0.43617 0.39402 0.0
H326 H 0.70162 0.41236 0.42427 0.0
H327 H 0.69198 0.43284 0.37949 0.0
C328 C 0.6028 0.40672 0.37865 0.0
N329 N 0.61931 0.40403 0.37671 0.0
C330 C 0.59389 0.4107 0.36538 0.0
C331 C 0.6194 0.40938 0.34841 0.0
C332 C 0.62759 0.4051 0.36199 0.0
C333 C 0.60234 0.41237 0.34998 0.0
H334 H 0.59664 0.40591 0.39056 0.0
H335 H 0.64097 0.40323 0.36087 0.0
O336 O 0.6586 0.39617 0.42806 0.0
O337 O 0.6149 0.38528 0.41392 0.0
O338 O 0.65246 0.42693 0.40609 0.0
O339 O 0.64992 0.38847 0.39155 0.0
H340 H 0.63727 0.36971 0.45127 0.0
H341 H 0.68768 0.43073 0.44136 0.0
H342 H 0.64376 0.37689 0.48039 0.0
H343 H 0.69309 0.43694 0.47067 0.0
H344 H 0.55536 0.33304 0.39325 0.0
H345 H 0.60229 0.36124 0.43974 0.0
H346 H 0.58766 0.36664 0.39058 0.0
H347 H 0.56973 0.32776 0.44155 0.0
H348 H 0.60868 0.40606 0.47774 0.0
H349 H 0.64582 0.46658 0.45679 0.0
H350 H 0.65004 0.32526 0.43781 0.0
H351 H 0.59565 0.29975 0.40773 0.0
H352 H 0.65493 0.44303 0.37724 0.0
H353 H 0.68507 0.45315 0.42311 0.0
H354 H 0.68367 0.47666 0.36796 0.0
H355 H 0.71331 0.48663 0.41304 0.0
H356 H 0.67702 0.37603 0.39568 0.0
H357 H 0.6201 0.36218 0.37243 0.0
H358 H 0.67399 0.34421 0.38376 0.0
H359 H 0.61811 0.33066 0.36085 0.0
H360 H 0.73774 0.42416 0.41743 0.0
H361 H 0.72816 0.44595 0.37182 0.0
H362 H 0.58056 0.4125 0.36721 0.0
H363 H 0.62676 0.41091 0.33691 0.0
Li364 Li 0.25393 0.64127 0.59425 0.0
Li365 Li 0.2804 0.63751 0.58198 0.0
Li366 Li 0.27839 0.66816 0.57711 0.0
Li367 Li 0.25271 0.63436 0.56448 0.0
C368 C 0.28422 0.66128 0.61377 0.0
N369 N 0.28324 0.66534 0.64671 0.0
C370 C 0.28657 0.64775 0.62399 0.0
C371 C 0.28152 0.67696 0.62032 0.0
C372 C 0.28601 0.65005 0.64061 0.0
C373 C 0.28101 0.67872 0.63699 0.0
C374 C 0.25049 0.59791 0.58305 0.0
C375 C 0.24445 0.56667 0.56987 0.0
N376 N 0.25019 0.56083 0.5835 0.0
C377 C 0.25632 0.59158 0.59693 0.0
C378 C 0.24453 0.58537 0.56939 0.0
C379 C 0.25609 0.57279 0.59692 0.0
C380 C 0.22577 0.64539 0.61467 0.0
N381 N 0.23668 0.63549 0.61271 0.0
C382 C 0.2234 0.61718 0.63736 0.0
C383 C 0.23556 0.62147 0.62364 0.0
C384 C 0.21204 0.62723 0.63977 0.0
C385 C 0.21326 0.64146 0.62818 0.0
H386 H 0.22675 0.65633 0.60576 0.0
H387 H 0.2442 0.61368 0.62179 0.0
C388 C 0.31752 0.64278 0.59385 0.0
N389 N 0.30104 0.6296 0.58477 0.0
C390 C 0.3336 0.63889 0.59673 0.0
C391 C 0.31594 0.60822 0.58039 0.0
C392 C 0.30025 0.61283 0.5777 0.0
C393 C 0.33283 0.62129 0.59012 0.0
H394 H 0.31824 0.65643 0.59886 0.0
H395 H 0.28758 0.60308 0.56987 0.0
C396 C 0.24506 0.67086 0.57143 0.0
N397 N 0.24087 0.70376 0.56133 0.0
C398 C 0.23767 0.67093 0.55601 0.0
C399 C 0.25011 0.68743 0.58176 0.0
C400 C 0.2357 0.68772 0.55112 0.0
C401 C 0.24795 0.70395 0.57642 0.0
C402 C 0.29796 0.64992 0.55359 0.0
C403 C 0.31846 0.66505 0.55637 0.0
C404 C 0.29351 0.63315 0.54366 0.0
C405 C 0.33426 0.66303 0.54926 0.0
C406 C 0.30974 0.63172 0.53675 0.0
N407 N 0.32961 0.64654 0.53968 0.0
C408 C 0.30989 0.70899 0.58328 0.0
C409 C 0.29341 0.70392 0.55801 0.0
C410 C 0.32401 0.72945 0.57937 0.0
N411 N 0.29505 0.69672 0.5726 0.0
C412 C 0.30706 0.72433 0.55367 0.0
C413 C 0.32288 0.73732 0.5643 0.0
H414 H 0.31127 0.70266 0.59459 0.0
H415 H 0.28182 0.69365 0.54958 0.0
C416 C 0.21597 0.60696 0.54812 0.0
N417 N 0.23579 0.62238 0.5462 0.0
C418 C 0.203 0.59879 0.5348 0.0
C419 C 0.23104 0.62273 0.51785 0.0
C420 C 0.24352 0.63029 0.53147 0.0
C421 C 0.21041 0.60681 0.51939 0.0
H422 H 0.21025 0.6011 0.56003 0.0
H423 H 0.25925 0.64282 0.53037 0.0
O424 O 0.28428 0.65902 0.59746 0.0
O425 O 0.25032 0.61612 0.58287 0.0
O426 O 0.24733 0.65465 0.57637 0.0
O427 O 0.28232 0.65133 0.56079 0.0
H428 H 0.28849 0.63541 0.61916 0.0
H429 H 0.27971 0.68758 0.61261 0.0
H430 H 0.28767 0.63961 0.64865 0.0
H431 H 0.27882 0.69071 0.64222 0.0
H432 H 0.23991 0.55684 0.55938 0.0
H433 H 0.26141 0.60122 0.6075 0.0
H434 H 0.24015 0.59004 0.55849 0.0
H435 H 0.26069 0.56778 0.60755 0.0
H436 H 0.22266 0.60587 0.64587 0.0
H437 H 0.20482 0.64962 0.62962 0.0
H438 H 0.34633 0.64937 0.60431 0.0
H439 H 0.315 0.59472 0.57479 0.0
H440 H 0.23353 0.6582 0.54788 0.0
H441 H 0.25585 0.68764 0.59372 0.0
H442 H 0.23008 0.68801 0.5392 0.0
H443 H 0.25195 0.71694 0.58426 0.0
H444 H 0.32212 0.67807 0.56409 0.0
H445 H 0.27769 0.62124 0.5415 0.0
H446 H 0.35022 0.67454 0.55138 0.0
H447 H 0.30655 0.61877 0.52911 0.0
H448 H 0.33617 0.7387 0.58783 0.0
H449 H 0.30542 0.72975 0.54199 0.0
H450 H 0.18734 0.58633 0.53659 0.0
H451 H 0.23736 0.6297 0.50631 0.0
Li452 Li 0.66468 0.27764 0.74635 0.0
Li453 Li 0.63233 0.2519 0.75892 0.0
Li454 Li 0.63759 0.25224 0.72901 0.0
Li455 Li 0.63169 0.27835 0.74165 0.0
C456 C 0.66859 0.24347 0.74806 0.0
N457 N 0.70155 0.23675 0.75096 0.0
C458 C 0.6713 0.23492 0.76215 0.0
C459 C 0.68245 0.24829 0.73536 0.0
C460 C 0.68811 0.23172 0.76341 0.0
C461 C 0.69907 0.24487 0.73708 0.0
C462 C 0.64615 0.28773 0.77734 0.0
C463 C 0.62841 0.29506 0.79822 0.0
N464 N 0.64397 0.29892 0.8086 0.0
C465 C 0.66212 0.2921 0.78816 0.0
C466 C 0.62928 0.2895 0.78235 0.0
C467 C 0.66067 0.29759 0.80394 0.0
C468 C 0.70314 0.31283 0.74099 0.0
N469 N 0.69345 0.2952 0.74979 0.0
C470 C 0.72398 0.30541 0.76524 0.0
C471 C 0.70343 0.2912 0.76167 0.0
C472 C 0.73428 0.32401 0.75659 0.0
C473 C 0.72368 0.32748 0.74414 0.0
H474 H 0.69469 0.31586 0.73187 0.0
H475 H 0.69525 0.27734 0.76879 0.0
C476 C 0.60139 0.21924 0.77769 0.0
N477 N 0.62123 0.23508 0.77757 0.0
C478 C 0.59345 0.20666 0.79125 0.0
C479 C 0.62667 0.22656 0.80412 0.0
C480 C 0.63389 0.23882 0.79038 0.0
C481 C 0.6062 0.21022 0.80467 0.0
H482 H 0.59179 0.21615 0.76719 0.0
H483 H 0.64977 0.25108 0.78981 0.0
C484 C 0.6584 0.28651 0.71026 0.0
N485 N 0.66771 0.294 0.67795 0.0
C486 C 0.64596 0.29057 0.70011 0.0
C487 C 0.67581 0.28666 0.70402 0.0
C488 C 0.65085 0.2942 0.6838 0.0
C489 C 0.68019 0.29037 0.68765 0.0
C490 C 0.59272 0.2437 0.74163 0.0
C491 C 0.57985 0.23521 0.72827 0.0
C492 C 0.58498 0.24776 0.75556 0.0
C493 C 0.55955 0.23131 0.72899 0.0
C494 C 0.5646 0.24363 0.75582 0.0
N495 N 0.55242 0.23559 0.74262 0.0
C496 C 0.63788 0.22166 0.70888 0.0
C497 C 0.62059 0.23831 0.6983 0.0
C498 C 0.63324 0.20948 0.6951 0.0
N499 N 0.63163 0.23581 0.71016 0.0
C500 C 0.6156 0.22648 0.68433 0.0
C501 C 0.6219 0.21179 0.6826 0.0
H502 H 0.64623 0.21961 0.71862 0.0
H503 H 0.6155 0.24941 0.69973 0.0
C504 C 0.63112 0.31514 0.74595 0.0
N505 N 0.62123 0.29657 0.7384 0.0
C506 C 0.62563 0.33009 0.74281 0.0
C507 C 0.59979 0.30649 0.72419 0.0
C508 C 0.60573 0.29197 0.72775 0.0
C509 C 0.60998 0.32595 0.7316 0.0
H510 H 0.64374 0.31858 0.75407 0.0
H511 H 0.59852 0.27736 0.72153 0.0
O512 O 0.65233 0.24692 0.74667 0.0
O513 O 0.64737 0.28239 0.76181 0.0
O514 O 0.65378 0.2828 0.72626 0.0
O515 O 0.61271 0.24784 0.74107 0.0
H516 H 0.66058 0.2308 0.77201 0.0
H517 H 0.68035 0.25451 0.72428 0.0
H518 H 0.69046 0.22521 0.77428 0.0
H519 H 0.70997 0.24862 0.72736 0.0
H520 H 0.6154 0.29641 0.80225 0.0
H521 H 0.67541 0.29106 0.78447 0.0
H522 H 0.6171 0.28687 0.77404 0.0
H523 H 0.67284 0.30081 0.81246 0.0
H524 H 0.7316 0.30204 0.77486 0.0
H525 H 0.73088 0.34174 0.73736 0.0
H526 H 0.57769 0.19398 0.79107 0.0
H527 H 0.637 0.22986 0.81422 0.0
H528 H 0.63254 0.29069 0.70473 0.0
H529 H 0.68594 0.28414 0.71175 0.0
H530 H 0.64123 0.29717 0.67579 0.0
H531 H 0.69357 0.29045 0.68266 0.0
H532 H 0.58546 0.23171 0.71745 0.0
H533 H 0.59454 0.25379 0.76613 0.0
H534 H 0.54947 0.22485 0.7187 0.0
H535 H 0.55845 0.24675 0.76653 0.0
H536 H 0.6381 0.19809 0.69439 0.0
H537 H 0.60698 0.22891 0.67496 0.0
H538 H 0.63413 0.345 0.74859 0.0
H539 H 0.58759 0.30264 0.71553 0.0
Li540 Li 0.3998 0.63462 0.92408 0.0
Li541 Li 0.40631 0.66708 0.91179 0.0
Li542 Li 0.37384 0.63355 0.90613 0.0
Li543 Li 0.40662 0.6405 0.89439 0.0
C544 C 0.37967 0.64824 0.94271 0.0
N545 N 0.37205 0.64671 0.97531 0.0
C546 C 0.39155 0.66549 0.95235 0.0
C547 C 0.36368 0.63034 0.94961 0.0
C548 C 0.38752 0.66438 0.96882 0.0
C549 C 0.36014 0.62983 0.96612 0.0
C550 C 0.44554 0.67083 0.91272 0.0
C551 C 0.47521 0.6975 0.89882 0.0
N552 N 0.4865 0.70164 0.91253 0.0
C553 C 0.45752 0.67516 0.92662 0.0
C554 C 0.45452 0.68193 0.89866 0.0
C555 C 0.47816 0.69087 0.9263 0.0
C556 C 0.39853 0.60287 0.9436 0.0
N557 N 0.40483 0.62333 0.9429 0.0
C558 C 0.41985 0.62866 0.96905 0.0
C559 C 0.41532 0.63622 0.95524 0.0
C560 C 0.4137 0.60762 0.97011 0.0
C561 C 0.40277 0.59463 0.95719 0.0
H562 H 0.39052 0.593 0.93351 0.0
H563 H 0.42037 0.65246 0.95431 0.0
C564 C 0.40541 0.70361 0.90822 0.0
N565 N 0.41638 0.69567 0.91516 0.0
C566 C 0.41065 0.72401 0.91108 0.0
C567 C 0.43838 0.72774 0.92825 0.0
C568 C 0.43264 0.70726 0.925 0.0
C569 C 0.42719 0.73632 0.92137 0.0
H570 H 0.39232 0.69393 0.90066 0.0
H571 H 0.44067 0.70044 0.93083 0.0
C572 C 0.36938 0.59604 0.90301 0.0
N573 N 0.33548 0.55772 0.89694 0.0
C574 C 0.36721 0.58654 0.88812 0.0
C575 C 0.35448 0.5859 0.91489 0.0
C576 C 0.34992 0.5672 0.88526 0.0
C577 C 0.3374 0.56658 0.91157 0.0
C578 C 0.39506 0.66503 0.87629 0.0
C579 C 0.38016 0.65597 0.86423 0.0
C580 C 0.41307 0.68375 0.87325 0.0
C581 C 0.38378 0.66547 0.84919 0.0
C582 C 0.41611 0.6928 0.85808 0.0
N583 N 0.40155 0.68353 0.84644 0.0
C584 C 0.33414 0.62725 0.91182 0.0
C585 C 0.33697 0.61142 0.88807 0.0
C586 C 0.31373 0.62138 0.90813 0.0
N587 N 0.34531 0.62235 0.90176 0.0
C588 C 0.31662 0.60524 0.88389 0.0
C589 C 0.30483 0.6105 0.89387 0.0
H590 H 0.34129 0.63636 0.92244 0.0
H591 H 0.34631 0.60805 0.88012 0.0
C592 C 0.43768 0.63726 0.87724 0.0
N593 N 0.41873 0.63546 0.8761 0.0
C594 C 0.44637 0.63303 0.86397 0.0
C595 C 0.41564 0.62464 0.84875 0.0
C596 C 0.40764 0.62917 0.86226 0.0
C597 C 0.43529 0.62655 0.84946 0.0
H598 H 0.446 0.6418 0.88849 0.0
H599 H 0.39229 0.62708 0.86184 0.0
O600 O 0.38352 0.64898 0.92658 0.0
O601 O 0.42526 0.65555 0.91285 0.0
O602 O 0.3861 0.61508 0.90598 0.0
O603 O 0.3917 0.65594 0.89112 0.0
H604 H 0.40389 0.67951 0.94723 0.0
H605 H 0.35406 0.617 0.9423 0.0
H606 H 0.39671 0.67756 0.97643 0.0
H607 H 0.34788 0.61604 0.97162 0.0
H608 H 0.48232 0.70623 0.88802 0.0
H609 H 0.45096 0.66657 0.93755 0.0
H610 H 0.44571 0.67837 0.88767 0.0
H611 H 0.48756 0.69447 0.93701 0.0
H612 H 0.4281 0.6392 0.97878 0.0
H613 H 0.39801 0.57838 0.95738 0.0
H614 H 0.40172 0.73002 0.90539 0.0
H615 H 0.45096 0.7365 0.93652 0.0
H616 H 0.37871 0.59399 0.87886 0.0
H617 H 0.35609 0.59286 0.92655 0.0
H618 H 0.34799 0.55973 0.87376 0.0
H619 H 0.3257 0.55863 0.92063 0.0
H620 H 0.366 0.64165 0.86639 0.0
H621 H 0.42446 0.6914 0.88256 0.0
H622 H 0.37245 0.65851 0.83972 0.0
H623 H 0.43002 0.70725 0.85557 0.0
H624 H 0.30533 0.62606 0.91603 0.0
H625 H 0.31031 0.59671 0.87286 0.0
H626 H 0.46161 0.63485 0.86508 0.0
H627 H 0.40627 0.61918 0.83799 0.0
Li628 Li 0.76032 0.40556 0.08251 0.0
Li629 Li 0.78642 0.39998 0.09327 0.0
Li630 Li 0.78699 0.40869 0.06399 0.0
Li631 Li 0.76098 0.37465 0.0758 0.0
C632 C 0.79154 0.44473 0.08402 0.0
N633 N 0.79407 0.48282 0.08573 0.0
C634 C 0.78605 0.45088 0.09816 0.0
C635 C 0.79839 0.45801 0.07078 0.0
C636 C 0.78741 0.47017 0.09877 0.0
C637 C 0.79955 0.47719 0.07188 0.0
C638 C 0.75696 0.37985 0.11308 0.0
C639 C 0.76129 0.36132 0.13506 0.0
N640 N 0.75968 0.37428 0.14563 0.0
C641 C 0.75531 0.39297 0.12417 0.0
C642 C 0.75992 0.36386 0.11856 0.0
C643 C 0.75672 0.38989 0.14057 0.0
C644 C 0.72424 0.40124 0.09576 0.0
N645 N 0.74068 0.41439 0.08664 0.0
C646 C 0.7266 0.43665 0.08328 0.0
C647 C 0.74192 0.43167 0.08014 0.0
C648 C 0.70966 0.42351 0.09293 0.0
C649 C 0.70856 0.40555 0.09914 0.0
H650 H 0.72317 0.38721 0.10031 0.0
H651 H 0.75458 0.44143 0.0723 0.0
C652 C 0.8148 0.39432 0.11258 0.0
N653 N 0.80426 0.40467 0.11117 0.0
C654 C 0.82811 0.39818 0.12557 0.0
C655 C 0.81935 0.4232 0.13541 0.0
C656 C 0.80635 0.41892 0.12222 0.0
C657 C 0.83061 0.41292 0.13716 0.0
H658 H 0.81308 0.38324 0.10353 0.0
H659 H 0.79784 0.42694 0.12085 0.0
C660 C 0.73981 0.39282 0.05526 0.0
N661 N 0.70484 0.39329 0.04522 0.0
C662 C 0.72025 0.37642 0.05909 0.0
C663 C 0.74159 0.40945 0.04631 0.0
C664 C 0.70276 0.37696 0.05391 0.0
C665 C 0.72372 0.40939 0.04134 0.0
C666 C 0.79303 0.37091 0.06817 0.0
C667 C 0.7984 0.3711 0.05206 0.0
C668 C 0.78875 0.35393 0.07782 0.0
C669 C 0.79925 0.35421 0.04585 0.0
C670 C 0.78973 0.33733 0.07115 0.0
N671 N 0.79491 0.33781 0.05544 0.0
C672 C 0.82481 0.43017 0.04813 0.0
C673 C 0.79589 0.4213 0.03138 0.0
C674 C 0.83818 0.43865 0.0351 0.0
N675 N 0.80412 0.42163 0.04602 0.0
C676 C 0.80873 0.42991 0.01805 0.0
C677 C 0.83013 0.4385 0.01983 0.0
H678 H 0.83084 0.43 0.05992 0.0
H679 H 0.77935 0.41394 0.02997 0.0
C680 C 0.72988 0.33348 0.08155 0.0
N681 N 0.74368 0.34642 0.07053 0.0
C682 C 0.71534 0.3133 0.0773 0.0
C683 C 0.72972 0.32007 0.0505 0.0
C684 C 0.74383 0.34018 0.05522 0.0
C685 C 0.71504 0.30646 0.06155 0.0
H686 H 0.72969 0.33904 0.09349 0.0
H687 H 0.75451 0.35103 0.04656 0.0
O688 O 0.7906 0.42602 0.08321 0.0
O689 O 0.75607 0.38288 0.09694 0.0
O690 O 0.7571 0.39283 0.0606 0.0
O691 O 0.79185 0.38719 0.07442 0.0
H692 H 0.78033 0.44071 0.10843 0.0
H693 H 0.80275 0.45359 0.05976 0.0
H694 H 0.78304 0.47504 0.10959 0.0
H695 H 0.80479 0.4876 0.06171 0.0
H696 H 0.76369 0.34907 0.13946 0.0
H697 H 0.75328 0.40559 0.12017 0.0
H698 H 0.76133 0.35362 0.11017 0.0
H699 H 0.75559 0.4 0.14928 0.0
H700 H 0.7278 0.45043 0.07797 0.0
H701 H 0.69582 0.39502 0.10667 0.0
H702 H 0.83667 0.39007 0.12634 0.0
H703 H 0.82051 0.43442 0.14416 0.0
H704 H 0.71857 0.36354 0.06616 0.0
H705 H 0.7566 0.42248 0.04353 0.0
H706 H 0.68753 0.36442 0.05686 0.0
H707 H 0.72487 0.42222 0.0345 0.0
H708 H 0.8017 0.38405 0.04437 0.0
H709 H 0.78449 0.35347 0.09028 0.0
H710 H 0.8033 0.35412 0.03339 0.0
H711 H 0.78633 0.32404 0.07846 0.0
H712 H 0.85462 0.4452 0.03691 0.0
H713 H 0.80196 0.42927 0.0064 0.0
H714 H 0.70428 0.30325 0.08616 0.0
H715 H 0.72975 0.31547 0.03817 0.0
Li716 Li 0.40717 0.78659 0.25859 0.0
Li717 Li 0.3744 0.75985 0.24799 0.0
Li718 Li 0.40729 0.762 0.24047 0.0
Li719 Li 0.39936 0.78728 0.23001 0.0
C720 C 0.39606 0.75444 0.27773 0.0
N721 N 0.40077 0.75142 0.31037 0.0
C722 C 0.38102 0.753 0.28842 0.0
C723 C 0.41334 0.75401 0.28361 0.0
C724 C 0.38372 0.75158 0.30489 0.0
C725 C 0.41548 0.75256 0.30016 0.0
C726 C 0.36976 0.79432 0.24401 0.0
C727 C 0.34087 0.78719 0.22695 0.0
N728 N 0.34023 0.80349 0.23352 0.0
C729 C 0.3688 0.81098 0.2506 0.0
C730 C 0.35568 0.7823 0.2321 0.0
C731 C 0.35376 0.81537 0.24513 0.0
C732 C 0.43934 0.81387 0.27991 0.0
N733 N 0.41867 0.80309 0.27721 0.0
C734 C 0.41221 0.81569 0.30158 0.0
C735 C 0.40513 0.80393 0.2876 0.0
C736 C 0.4335 0.82704 0.30477 0.0
C737 C 0.44714 0.826 0.2937 0.0
H738 H 0.44982 0.8133 0.27131 0.0
H739 H 0.38878 0.79536 0.28503 0.0
C740 C 0.33883 0.72145 0.24738 0.0
N741 N 0.34648 0.74099 0.25292 0.0
C742 C 0.31884 0.70617 0.25134 0.0
C743 C 0.31505 0.73139 0.26684 0.0
C744 C 0.33508 0.74627 0.26243 0.0
C745 C 0.30676 0.71103 0.26132 0.0
H746 H 0.34849 0.71765 0.2402 0.0
H747 H 0.34172 0.76188 0.26687 0.0
C748 C 0.4448 0.79536 0.23668 0.0
N749 N 0.48329 0.80055 0.23002 0.0
C750 C 0.45473 0.80451 0.22225 0.0
C751 C 0.45456 0.78907 0.24779 0.0
C752 C 0.47415 0.80695 0.21909 0.0
C753 C 0.47398 0.79175 0.24418 0.0
C754 C 0.38593 0.75066 0.21132 0.0
C755 C 0.40359 0.76282 0.20218 0.0
C756 C 0.3705 0.73183 0.2052 0.0
C757 C 0.40559 0.7559 0.18708 0.0
C758 C 0.37306 0.72542 0.19004 0.0
N759 N 0.39042 0.73748 0.18137 0.0
C760 C 0.40978 0.72653 0.24452 0.0
C761 C 0.43131 0.74757 0.22345 0.0
C762 C 0.41483 0.71137 0.24111 0.0
N763 N 0.41793 0.74416 0.23568 0.0
C764 C 0.4368 0.7328 0.21962 0.0
C765 C 0.42832 0.71428 0.22838 0.0
H766 H 0.39883 0.72397 0.25394 0.0
H767 H 0.4374 0.76151 0.2164 0.0
C768 C 0.41845 0.82439 0.21288 0.0
N769 N 0.40217 0.80484 0.21251 0.0
C770 C 0.42211 0.83777 0.20002 0.0
C771 C 0.39172 0.81083 0.18688 0.0
C772 C 0.38871 0.79794 0.19998 0.0
C773 C 0.40875 0.83099 0.1867 0.0
H774 H 0.42885 0.82945 0.22305 0.0
H775 H 0.37578 0.78235 0.20005 0.0
O776 O 0.39386 0.75621 0.26158 0.0
O777 O 0.38449 0.78995 0.24925 0.0
O778 O 0.42574 0.7928 0.23998 0.0
O779 O 0.38369 0.75711 0.22618 0.0
H780 H 0.36754 0.75328 0.28408 0.0
H781 H 0.42493 0.75469 0.2755 0.0
H782 H 0.37229 0.75065 0.31331 0.0
H783 H 0.42882 0.75231 0.30489 0.0
H784 H 0.3299 0.77804 0.21773 0.0
H785 H 0.3796 0.82041 0.25985 0.0
H786 H 0.35614 0.76932 0.22687 0.0
H787 H 0.35284 0.82823 0.25012 0.0
H788 H 0.40108 0.81577 0.30983 0.0
H789 H 0.46368 0.83477 0.29549 0.0
H790 H 0.31314 0.69058 0.24706 0.0
H791 H 0.30617 0.73573 0.27452 0.0
H792 H 0.44751 0.80962 0.21353 0.0
H793 H 0.44717 0.78206 0.25902 0.0
H794 H 0.48196 0.81391 0.20794 0.0
H795 H 0.48164 0.78682 0.25264 0.0
H796 H 0.41566 0.77741 0.20672 0.0
H797 H 0.35665 0.72225 0.21204 0.0
H798 H 0.41922 0.76515 0.17991 0.0
H799 H 0.36125 0.71086 0.18516 0.0
H800 H 0.40764 0.69719 0.248 0.0
H801 H 0.4474 0.73575 0.20979 0.0
H802 H 0.43557 0.85306 0.20035 0.0
H803 H 0.38085 0.80505 0.177 0.0
C804 C 0.14168 0.57639 0.31636 0.0
C805 C 0.12678 0.56495 0.30465 0.0
C806 C 0.16162 0.59142 0.31181 0.0
C807 C 0.18952 0.62436 0.27696 0.0
H808 H 0.23827 0.63642 0.30163 0.0
C809 C 0.27219 0.68054 0.25501 0.0
C810 C 0.28591 0.6947 0.26631 0.0
C811 C 0.25285 0.66461 0.25981 0.0
C812 C 0.22475 0.63331 0.29471 0.0
H813 H 0.12125 0.55926 0.27913 0.0
H814 H 0.15616 0.58499 0.27117 0.0
H815 H 0.20471 0.60781 0.30969 0.0
H816 H 0.29024 0.70327 0.29148 0.0
H817 H 0.25635 0.67535 0.29988 0.0
H818 H 0.20963 0.64971 0.26188 0.0
C819 C 0.15236 0.58292 0.28384 0.0
C820 C 0.20552 0.61695 0.29932 0.0
C821 C 0.13241 0.56809 0.28838 0.0
C822 C 0.27988 0.69268 0.28249 0.0
C823 C 0.26061 0.67661 0.28732 0.0
C824 C 0.20874 0.64058 0.27228 0.0
C825 C 0.16707 0.59514 0.29547 0.0
C826 C 0.18766 0.61227 0.2905 0.0
C827 C 0.24693 0.66239 0.27603 0.0
C828 C 0.22654 0.64524 0.28111 0.0
H829 H 0.13765 0.57439 0.32899 0.0
H830 H 0.17248 0.60065 0.32109 0.0
H831 H 0.17606 0.62154 0.27009 0.0
H832 H 0.27641 0.68181 0.24244 0.0
H833 H 0.24266 0.6538 0.25086 0.0
C834 C 0.57794 0.13023 0.44892 0.0
C835 C 0.57923 0.12608 0.46522 0.0
C836 C 0.58408 0.15025 0.4438 0.0
C837 C 0.61432 0.20516 0.45563 0.0
H838 H 0.5777 0.21148 0.42612 0.0
C839 C 0.62029 0.28378 0.44365 0.0
C840 C 0.61764 0.28847 0.42777 0.0
C841 C 0.61644 0.26407 0.44769 0.0
C842 C 0.58824 0.20998 0.43419 0.0
H843 H 0.58843 0.13977 0.48888 0.0
H844 H 0.59918 0.17479 0.47995 0.0
H845 H 0.57008 0.17704 0.43409 0.0
H846 H 0.60902 0.27615 0.40366 0.0
H847 H 0.60225 0.24163 0.41073 0.0
H848 H 0.63238 0.23813 0.45584 0.0
C849 C 0.59359 0.16257 0.4711 0.0
C850 C 0.58388 0.19024 0.43876 0.0
C851 C 0.58745 0.14252 0.47622 0.0
C852 C 0.61095 0.27294 0.41604 0.0
C853 C 0.60709 0.25319 0.42009 0.0
C854 C 0.61869 0.22491 0.45106 0.0
C855 C 0.59167 0.1666 0.45487 0.0
C856 C 0.59681 0.1876 0.4496 0.0
C857 C 0.60984 0.24855 0.43596 0.0
C858 C 0.60562 0.22755 0.44037 0.0
H859 H 0.57202 0.11794 0.44011 0.0
H860 H 0.58278 0.15291 0.43117 0.0
H861 H 0.62474 0.20364 0.46383 0.0
H862 H 0.62508 0.29529 0.45303 0.0
H863 H 0.61832 0.26089 0.46009 0.0
C864 C 0.46779 0.57805 0.61726 0.0
C865 C 0.47271 0.57848 0.63361 0.0
C866 C 0.45384 0.58419 0.6123 0.0
C867 C 0.40994 0.58813 0.62708 0.0
H868 H 0.41836 0.62067 0.58858 0.0
C869 C 0.3445 0.59645 0.59807 0.0
C870 C 0.34941 0.61653 0.59367 0.0
C871 C 0.36005 0.59228 0.60254 0.0
C872 C 0.41584 0.61165 0.59939 0.0
H873 H 0.46726 0.58609 0.65754 0.0
H874 H 0.44289 0.59694 0.64884 0.0
H875 H 0.4454 0.61375 0.59766 0.0
H876 H 0.37448 0.64778 0.58989 0.0
H877 H 0.40165 0.64049 0.59771 0.0
H878 H 0.38042 0.58604 0.62885 0.0
C879 C 0.44976 0.59172 0.6399 0.0
C880 C 0.43125 0.60758 0.60452 0.0
C881 C 0.46384 0.58572 0.64485 0.0
C882 C 0.37023 0.63221 0.59339 0.0
C883 C 0.38579 0.628 0.59773 0.0
C884 C 0.39449 0.59207 0.62189 0.0
C885 C 0.44442 0.59077 0.62359 0.0
C886 C 0.42844 0.59576 0.61841 0.0
C887 C 0.38084 0.60805 0.60256 0.0
C888 C 0.39725 0.60383 0.60798 0.0
H889 H 0.47454 0.57271 0.60831 0.0
H890 H 0.44994 0.58316 0.59967 0.0
H891 H 0.40724 0.57878 0.63773 0.0
H892 H 0.32859 0.5841 0.5985 0.0
H893 H 0.3558 0.5767 0.60603 0.0
C894 C 0.91037 0.46538 0.78516 0.0
C895 C 0.91472 0.46784 0.80171 0.0
C896 C 0.89078 0.45072 0.77965 0.0
C897 C 0.83649 0.41886 0.79258 0.0
H898 H 0.83265 0.3835 0.75714 0.0
C899 C 0.76087 0.34461 0.77746 0.0
C900 C 0.75545 0.34025 0.76118 0.0
C901 C 0.78037 0.36058 0.78187 0.0
C902 C 0.83345 0.39341 0.76692 0.0
H903 H 0.90176 0.45735 0.82545 0.0
H904 H 0.86769 0.43162 0.81585 0.0
H905 H 0.86641 0.41126 0.76571 0.0
H906 H 0.76646 0.349 0.73675 0.0
H907 H 0.80047 0.37714 0.74447 0.0
H908 H 0.80357 0.40097 0.79388 0.0
C909 C 0.87937 0.44107 0.80712 0.0
C910 C 0.85278 0.40933 0.77182 0.0
C911 C 0.89894 0.45566 0.81262 0.0
C912 C 0.7701 0.35208 0.7494 0.0
C913 C 0.78965 0.36807 0.75382 0.0
C914 C 0.81718 0.40297 0.78768 0.0
C915 C 0.87511 0.43829 0.79057 0.0
C916 C 0.85452 0.4221 0.7848 0.0
C917 C 0.79492 0.37261 0.77011 0.0
C918 C 0.81544 0.38993 0.7749 0.0
H919 H 0.92226 0.47443 0.77646 0.0
H920 H 0.88791 0.44908 0.76683 0.0
H921 H 0.83729 0.42866 0.80245 0.0
H922 H 0.74988 0.33598 0.78685 0.0
H923 H 0.78405 0.36349 0.79453 0.0
C924 C 0.4485 0.90246 0.96525 0.0
C925 C 0.46898 0.91756 0.96866 0.0
C926 C 0.44393 0.88312 0.9594 0.0
C927 C 0.46563 0.84833 0.95735 0.0
H928 H 0.42393 0.82034 0.92454 0.0
C929 C 0.45274 0.77351 0.92721 0.0
C930 C 0.43215 0.75762 0.92549 0.0
C931 C 0.45731 0.79332 0.93176 0.0
C932 C 0.43551 0.82792 0.93379 0.0
H933 H 0.5008 0.92454 0.96801 0.0
H934 H 0.49289 0.89096 0.9577 0.0
H935 H 0.43164 0.85439 0.93387 0.0
H936 H 0.4002 0.75015 0.92726 0.0
H937 H 0.40821 0.78473 0.93505 0.0
H938 H 0.46953 0.8219 0.95726 0.0
C939 C 0.48028 0.89381 0.95991 0.0
C940 C 0.4399 0.84739 0.93916 0.0
C941 C 0.48482 0.91307 0.96581 0.0
C942 C 0.41624 0.7621 0.9282 0.0
C943 C 0.42081 0.78191 0.93269 0.0
C944 C 0.4613 0.82892 0.95194 0.0
C945 C 0.45978 0.87853 0.95677 0.0
C946 C 0.45501 0.85782 0.95101 0.0
C947 C 0.44139 0.79769 0.93465 0.0
C948 C 0.44619 0.81849 0.94012 0.0
H949 H 0.43597 0.90546 0.96745 0.0
H950 H 0.42795 0.87161 0.95728 0.0
H951 H 0.47709 0.85575 0.9667 0.0
H952 H 0.46536 0.77067 0.92498 0.0
H953 H 0.47332 0.80525 0.93294 0.0
C954 C 0.56479 0.44769 0.13243 0.0
C955 C 0.57124 0.46806 0.13712 0.0
C956 C 0.57921 0.44221 0.12735 0.0
C957 C 0.63176 0.46514 0.11072 0.0
H958 H 0.6287 0.4142 0.12451 0.0
C959 C 0.69836 0.44866 0.10079 0.0
C960 C 0.69325 0.42846 0.09666 0.0
C961 C 0.68297 0.45311 0.10508 0.0
C962 C 0.62961 0.42835 0.12038 0.0
H963 H 0.59793 0.4984 0.14089 0.0
H964 H 0.62301 0.48886 0.13204 0.0
H965 H 0.60262 0.42239 0.13358 0.0
H966 H 0.66794 0.39724 0.0932 0.0
H967 H 0.64105 0.40502 0.10061 0.0
H968 H 0.65874 0.47117 0.09756 0.0
C969 C 0.6068 0.47723 0.13194 0.0
C970 C 0.61468 0.43304 0.12559 0.0
C971 C 0.59243 0.48268 0.13702 0.0
C972 C 0.67239 0.41289 0.0966 0.0
C973 C 0.65699 0.41734 0.10086 0.0
C974 C 0.64665 0.46045 0.1055 0.0
C975 C 0.60035 0.45701 0.12687 0.0
C976 C 0.61571 0.45158 0.12093 0.0
C977 C 0.66212 0.43746 0.10527 0.0
C978 C 0.64584 0.44208 0.11036 0.0
H979 H 0.54855 0.43613 0.13226 0.0
H980 H 0.57378 0.42653 0.12342 0.0
H981 H 0.63276 0.47938 0.10669 0.0
H982 H 0.71432 0.46093 0.10114 0.0
H983 H 0.68746 0.46872 0.10863 0.0
C984 C 0.45564 0.90214 0.50815 0.0
C985 C 0.46596 0.91837 0.51914 0.0
C986 C 0.44061 0.88262 0.51341 0.0
C987 C 0.42007 0.84972 0.54977 0.0
H988 H 0.37133 0.81982 0.52315 0.0
C989 C 0.3471 0.77484 0.57052 0.0
C990 C 0.33877 0.75854 0.55936 0.0
C991 C 0.36261 0.79455 0.56594 0.0
C992 C 0.38491 0.82793 0.53066 0.0
H993 H 0.46885 0.92688 0.54427 0.0
H994 H 0.4423 0.89283 0.55349 0.0
H995 H 0.39872 0.85369 0.51466 0.0
H996 H 0.34053 0.75026 0.53464 0.0
H997 H 0.36717 0.78469 0.52663 0.0
H998 H 0.40595 0.82394 0.56588 0.0
C999 C 0.44607 0.89506 0.54082 0.0
C1000 C 0.40067 0.84731 0.52577 0.0
C1001 C 0.46126 0.91458 0.53556 0.0
C1002 C 0.34621 0.7625 0.54348 0.0
C1003 C 0.36156 0.78222 0.53889 0.0
C1004 C 0.4042 0.83038 0.55472 0.0
C1005 C 0.43539 0.8789 0.52978 0.0
C1006 C 0.41853 0.85839 0.53519 0.0
C1007 C 0.36999 0.79842 0.55007 0.0
C1008 C 0.38653 0.81924 0.54515 0.0
H1009 H 0.45919 0.90457 0.49544 0.0
H1010 H 0.43307 0.87043 0.50461 0.0
H1011 H 0.4337 0.85769 0.55723 0.0
H1012 H 0.34155 0.77243 0.58278 0.0
H1013 H 0.36867 0.80683 0.57476 0.0
C1014 C 0.57485 0.45574 0.67465 0.0
C1015 C 0.5716 0.46822 0.68548 0.0
C1016 C 0.58015 0.4414 0.68022 0.0
C1017 C 0.57714 0.41137 0.71629 0.0
H1018 H 0.61595 0.4013 0.6928 0.0
C1019 C 0.60417 0.35531 0.73862 0.0
C1020 C 0.60522 0.34228 0.72697 0.0
C1021 C 0.60055 0.37122 0.73408 0.0
C1022 C 0.60496 0.40383 0.69941 0.0
H1023 H 0.57164 0.47561 0.71067 0.0
H1024 H 0.58136 0.45087 0.72039 0.0
H1025 H 0.60953 0.42866 0.68401 0.0
H1026 H 0.60342 0.33581 0.70144 0.0
H1027 H 0.59683 0.36334 0.69357 0.0
H1028 H 0.57257 0.38646 0.73166 0.0
C1029 C 0.57953 0.45199 0.70759 0.0
C1030 C 0.60127 0.4195 0.69438 0.0
C1031 C 0.5742 0.46634 0.702 0.0
C1032 C 0.60245 0.34541 0.71072 0.0
C1033 C 0.59893 0.36136 0.70619 0.0
C1034 C 0.58088 0.39572 0.72135 0.0
C1035 C 0.58239 0.43923 0.69676 0.0
C1036 C 0.58716 0.42332 0.70265 0.0
C1037 C 0.59806 0.37451 0.7178 0.0
C1038 C 0.59466 0.39164 0.71286 0.0
H1039 H 0.57321 0.45697 0.66183 0.0
H1040 H 0.58204 0.43168 0.67156 0.0
H1041 H 0.56596 0.41372 0.7228 0.0
H1042 H 0.60612 0.35319 0.75124 0.0
H1043 H 0.60007 0.38118 0.74329 0.0
C1044 C 0.12784 0.57299 0.86876 0.0
C1045 C 0.12336 0.57485 0.85266 0.0
C1046 C 0.14773 0.57789 0.87332 0.0
C1047 C 0.20232 0.60545 0.86048 0.0
H1048 H 0.20658 0.56699 0.88931 0.0
C1049 C 0.27963 0.60845 0.87302 0.0
C1050 C 0.28378 0.6057 0.88903 0.0
C1051 C 0.26012 0.60489 0.86857 0.0
C1052 C 0.20566 0.578 0.8814 0.0
H1053 H 0.13633 0.58383 0.82876 0.0
H1054 H 0.17115 0.59239 0.83672 0.0
H1055 H 0.17268 0.56127 0.88171 0.0
H1056 H 0.27057 0.59668 0.91286 0.0
H1057 H 0.23657 0.59074 0.90514 0.0
H1058 H 0.23535 0.62214 0.86016 0.0
C1059 C 0.1593 0.5873 0.84585 0.0
C1060 C 0.18624 0.57475 0.87705 0.0
C1061 C 0.13937 0.58242 0.84129 0.0
C1062 C 0.2679 0.59909 0.90046 0.0
C1063 C 0.24838 0.5955 0.896 0.0
C1064 C 0.22177 0.60872 0.86484 0.0
C1065 C 0.1636 0.58473 0.86187 0.0
C1066 C 0.18433 0.58844 0.86656 0.0
C1067 C 0.2443 0.59848 0.88003 0.0
C1068 C 0.22365 0.59502 0.87535 0.0
H1069 H 0.11589 0.56755 0.87784 0.0
H1070 H 0.15064 0.57617 0.88582 0.0
H1071 H 0.20137 0.61641 0.85253 0.0
H1072 H 0.2916 0.61378 0.86396 0.0
H1073 H 0.25741 0.6071 0.85614 0.0
C1074 C 0.56813 0.13885 0.02257 0.0
C1075 C 0.57379 0.12521 0.01584 0.0
C1076 C 0.58326 0.15879 0.02704 0.0
C1077 C 0.63898 0.18908 0.03702 0.0
H1078 H 0.63069 0.23598 0.03238 0.0
C1079 C 0.70399 0.27314 0.04712 0.0
C1080 C 0.69888 0.28559 0.05644 0.0
C1081 C 0.68863 0.25364 0.04204 0.0
C1082 C 0.63313 0.22297 0.03385 0.0
H1083 H 0.5995 0.12194 0.00773 0.0
H1084 H 0.62585 0.1568 0.01511 0.0
H1085 H 0.60398 0.202 0.02322 0.0
H1086 H 0.67374 0.28756 0.06755 0.0
H1087 H 0.64689 0.25345 0.05866 0.0
H1088 H 0.66826 0.21016 0.04744 0.0
C1089 C 0.60984 0.152 0.01746 0.0
C1090 C 0.61782 0.2035 0.02864 0.0
C1091 C 0.59476 0.13206 0.01316 0.0
C1092 C 0.67813 0.27819 0.06053 0.0
C1093 C 0.66276 0.25879 0.05531 0.0
C1094 C 0.65434 0.20856 0.04208 0.0
C1095 C 0.60433 0.16551 0.02472 0.0
C1096 C 0.62057 0.1863 0.03016 0.0
C1097 C 0.66786 0.24632 0.04603 0.0
C1098 C 0.65156 0.22569 0.04056 0.0
H1099 H 0.55206 0.13388 0.02484 0.0
H1100 H 0.57846 0.1687 0.03274 0.0
H1101 H 0.64146 0.17613 0.03871 0.0
H1102 H 0.71987 0.27844 0.04386 0.0
H1103 H 0.69297 0.2444 0.03481 0.0
C1104 C 0.45792 0.58003 0.17363 0.0
C1105 C 0.46181 0.56818 0.18469 0.0
C1106 C 0.45278 0.59456 0.17895 0.0
C1107 C 0.45889 0.62712 0.21377 0.0
H1108 H 0.41809 0.63572 0.19179 0.0
C1109 C 0.43555 0.68593 0.23568 0.0
C1110 C 0.43265 0.69765 0.22383 0.0
C1111 C 0.43855 0.66958 0.23136 0.0
C1112 C 0.42968 0.63364 0.19795 0.0
H1113 H 0.46292 0.56195 0.21001 0.0
H1114 H 0.45367 0.58722 0.21932 0.0
H1115 H 0.42336 0.60743 0.18358 0.0
H1116 H 0.43066 0.70138 0.19816 0.0
H1117 H 0.43638 0.6732 0.19063 0.0
H1118 H 0.4654 0.65349 0.22802 0.0
C1119 C 0.4548 0.58537 0.20653 0.0
C1120 C 0.43265 0.61741 0.19327 0.0
C1121 C 0.45987 0.57076 0.2012 0.0
C1122 C 0.43309 0.69282 0.20758 0.0
C1123 C 0.43607 0.67648 0.20327 0.0
C1124 C 0.45594 0.64339 0.21844 0.0
C1125 C 0.45145 0.5976 0.19546 0.0
C1126 C 0.44741 0.61407 0.20104 0.0
C1127 C 0.43868 0.66457 0.21511 0.0
C1128 C 0.44142 0.64694 0.21049 0.0
H1129 H 0.45909 0.57822 0.16083 0.0
H1130 H 0.45046 0.60384 0.17012 0.0
H1131 H 0.4706 0.62514 0.21984 0.0
H1132 H 0.43549 0.68937 0.2483 0.0
H1133 H 0.44038 0.66062 0.24078 0.0
C1134 C 0.90097 0.46616 0.33959 0.0
C1135 C 0.91689 0.47183 0.35086 0.0
C1136 C 0.88149 0.46223 0.34446 0.0
C1137 C 0.84803 0.45071 0.38034 0.0
H1138 H 0.81911 0.46997 0.353 0.0
C1139 C 0.77364 0.44991 0.40025 0.0
C1140 C 0.75735 0.44184 0.38906 0.0
C1141 C 0.79335 0.45408 0.39575 0.0
C1142 C 0.82695 0.46439 0.3607 0.0
H1143 H 0.9249 0.47774 0.37608 0.0
H1144 H 0.89097 0.47119 0.38461 0.0
H1145 H 0.8529 0.47579 0.34494 0.0
H1146 H 0.74915 0.43185 0.36432 0.0
H1147 H 0.7836 0.43957 0.35645 0.0
H1148 H 0.82208 0.43955 0.39618 0.0
C1149 C 0.89339 0.46939 0.37203 0.0
C1150 C 0.84628 0.46764 0.35607 0.0
C1151 C 0.91284 0.47316 0.36716 0.0
C1152 C 0.76138 0.43843 0.37319 0.0
C1153 C 0.78111 0.44276 0.36867 0.0
C1154 C 0.82876 0.44761 0.38503 0.0
C1155 C 0.87752 0.46405 0.36072 0.0
C1156 C 0.85701 0.46072 0.36577 0.0
C1157 C 0.79725 0.45046 0.37993 0.0
C1158 C 0.81798 0.45432 0.37521 0.0
H1159 H 0.9036 0.46475 0.32697 0.0
H1160 H 0.86952 0.45772 0.33547 0.0
H1161 H 0.85572 0.44492 0.388 0.0
H1162 H 0.77118 0.45303 0.4125 0.0
H1163 H 0.80558 0.46027 0.40463 0.0
C1164 C 0.0976 0.56305 0.40087 0.0
C1165 C 0.09019 0.54302 0.39483 0.0
C1166 C 0.11091 0.57007 0.41409 0.0
C1167 C 0.1461 0.5589 0.43815 0.0
H1168 H 0.14015 0.59369 0.46962 0.0
C1169 C 0.2043 0.59733 0.49008 0.0
C1170 C 0.19663 0.59899 0.50508 0.0
C1171 C 0.19148 0.59056 0.47657 0.0
C1172 C 0.14191 0.58381 0.46105 0.0
H1173 H 0.09137 0.51482 0.39788 0.0
H1174 H 0.11382 0.52673 0.42126 0.0
H1175 H 0.11733 0.5815 0.44645 0.0
H1176 H 0.16931 0.5948 0.51753 0.0
H1177 H 0.14683 0.58218 0.4942 0.0
H1178 H 0.17015 0.56054 0.45308 0.0
C1179 C 0.10966 0.53719 0.41562 0.0
C1180 C 0.129 0.57706 0.4476 0.0
C1181 C 0.0965 0.53023 0.40233 0.0
C1182 C 0.17574 0.59347 0.50625 0.0
C1183 C 0.16288 0.58653 0.49277 0.0
C1184 C 0.1589 0.5655 0.45167 0.0
C1185 C 0.11704 0.5572 0.42169 0.0
C1186 C 0.13092 0.56453 0.43596 0.0
C1187 C 0.17061 0.5851 0.47773 0.0
C1188 C 0.15698 0.57805 0.46331 0.0
H1189 H 0.09291 0.57326 0.39554 0.0
H1190 H 0.11649 0.58567 0.41828 0.0
H1191 H 0.14824 0.54949 0.42935 0.0
H1192 H 0.22022 0.60119 0.48874 0.0
H1193 H 0.19806 0.58989 0.46516 0.0
C1194 C 0.55536 0.09949 0.5645 0.0
C1195 C 0.56898 0.09413 0.55724 0.0
C1196 C 0.56167 0.11282 0.57768 0.0
C1197 C 0.60005 0.13287 0.61041 0.0
H1198 H 0.58389 0.17451 0.61393 0.0
C1199 C 0.63068 0.19426 0.66079 0.0
C1200 C 0.61636 0.19872 0.66796 0.0
C1201 C 0.6254 0.18195 0.64702 0.0
C1202 C 0.58836 0.16283 0.6132 0.0
H1203 H 0.60007 0.09899 0.5579 0.0
H1204 H 0.61108 0.12226 0.58091 0.0
H1205 H 0.5738 0.15233 0.5903 0.0
H1206 H 0.58514 0.19342 0.66645 0.0
H1207 H 0.57594 0.17198 0.64248 0.0
H1208 H 0.61451 0.14329 0.63336 0.0
C1209 C 0.59541 0.11588 0.57656 0.0
C1210 C 0.58258 0.15012 0.59966 0.0
C1211 C 0.58911 0.10255 0.56338 0.0
C1212 C 0.59665 0.19058 0.66107 0.0
C1213 C 0.59138 0.17828 0.64732 0.0
C1214 C 0.60583 0.14558 0.62396 0.0
C1215 C 0.58174 0.12111 0.5839 0.0
C1216 C 0.58828 0.13494 0.59813 0.0
C1217 C 0.60568 0.17383 0.64012 0.0
C1218 C 0.59997 0.16064 0.62555 0.0
H1219 H 0.53965 0.09302 0.56022 0.0
H1220 H 0.55066 0.11629 0.5832 0.0
H1221 H 0.60444 0.12113 0.60972 0.0
H1222 H 0.64608 0.20052 0.66568 0.0
H1223 H 0.63687 0.17904 0.64165 0.0
C1224 C 0.50464 0.56705 0.74152 0.0
C1225 C 0.49864 0.56911 0.72594 0.0
C1226 C 0.49814 0.57361 0.75484 0.0
C1227 C 0.47967 0.6087 0.76697 0.0
H1228 H 0.45858 0.57316 0.80435 0.0
C1229 C 0.44037 0.6259 0.81965 0.0
C1230 C 0.4438 0.62119 0.83531 0.0
C1231 C 0.44759 0.62006 0.80632 0.0
C1232 C 0.46472 0.58343 0.79412 0.0
H1233 H 0.48131 0.57985 0.71207 0.0
H1234 H 0.46991 0.59135 0.73541 0.0
H1235 H 0.47011 0.56194 0.78107 0.0
H1236 H 0.45773 0.60672 0.84916 0.0
H1237 H 0.47094 0.59723 0.82599 0.0
H1238 H 0.47454 0.63032 0.78005 0.0
C1239 C 0.47968 0.58468 0.73728 0.0
C1240 C 0.47125 0.57695 0.78076 0.0
C1241 C 0.48604 0.57793 0.72395 0.0
C1242 C 0.45497 0.61082 0.83731 0.0
C1243 C 0.4623 0.6051 0.82399 0.0
C1244 C 0.47328 0.61526 0.78038 0.0
C1245 C 0.48563 0.58253 0.75286 0.0
C1246 C 0.47875 0.58949 0.76704 0.0
C1247 C 0.45854 0.60947 0.80832 0.0
C1248 C 0.46568 0.60269 0.79412 0.0
H1249 H 0.5142 0.56015 0.74342 0.0
H1250 H 0.50309 0.57191 0.7667 0.0
H1251 H 0.48563 0.6188 0.75663 0.0
H1252 H 0.43207 0.63411 0.81766 0.0
H1253 H 0.44422 0.62352 0.79444 0.0
C1254 C 0.94461 0.48289 0.9038 0.0
C1255 C 0.94788 0.50008 0.89462 0.0
C1256 C 0.93194 0.47692 0.91735 0.0
C1257 C 0.8887 0.47844 0.93572 0.0
H1258 H 0.91012 0.47025 0.97579 0.0
C1259 C 0.84246 0.46017 0.99492 0.0
C1260 C 0.84392 0.44652 0.0057 0.0
C1261 C 0.8554 0.46753 0.9815 0.0
C1262 C 0.90373 0.47214 0.96467 0.0
H1263 H 0.94011 0.52434 0.8926 0.0
H1264 H 0.91736 0.51334 0.91596 0.0
H1265 H 0.93175 0.48092 0.95187 0.0
H1266 H 0.85963 0.42948 0.0108 0.0
H1267 H 0.88169 0.44165 0.98717 0.0
H1268 H 0.86044 0.469 0.94825 0.0
C1269 C 0.92478 0.50464 0.91261 0.0
C1270 C 0.9162 0.47837 0.951 0.0
C1271 C 0.93774 0.51085 0.89918 0.0
C1272 C 0.85842 0.44025 0.00279 0.0
C1273 C 0.87112 0.44733 0.98926 0.0
C1274 C 0.87608 0.47189 0.94934 0.0
C1275 C 0.92195 0.48776 0.92189 0.0
C1276 C 0.90878 0.48152 0.9364 0.0
C1277 C 0.86985 0.46112 0.97844 0.0
C1278 C 0.8834 0.46859 0.964 0.0
H1279 H 0.95173 0.4739 0.90048 0.0
H1280 H 0.92976 0.46366 0.9242 0.0
H1281 H 0.88259 0.48063 0.92455 0.0
H1282 H 0.8315 0.46536 0.99699 0.0
H1283 H 0.85418 0.4784 0.97363 0.0
C1284 C 0.45359 0.92962 0.06098 0.0
C1285 C 0.46454 0.95116 0.06284 0.0
C1286 C 0.44639 0.91669 0.07441 0.0
C1287 C 0.45519 0.91653 0.11818 0.0
H1288 H 0.40247 0.86567 0.11731 0.0
C1289 C 0.42081 0.86597 0.17456 0.0
C1290 C 0.41299 0.84468 0.17254 0.0
C1291 C 0.42595 0.879 0.16124 0.0
C1292 C 0.41728 0.87977 0.11768 0.0
H1293 H 0.47593 0.97606 0.08018 0.0
H1294 H 0.46314 0.95356 0.1036 0.0
H1295 H 0.41359 0.88844 0.09393 0.0
H1296 H 0.40427 0.82041 0.15485 0.0
H1297 H 0.41299 0.84315 0.13163 0.0
H1298 H 0.45884 0.90789 0.14194 0.0
C1299 C 0.46054 0.9466 0.09181 0.0
C1300 C 0.42369 0.89279 0.10428 0.0
C1301 C 0.46784 0.9595 0.07839 0.0
C1302 C 0.40996 0.83667 0.15686 0.0
C1303 C 0.415 0.8497 0.14354 0.0
C1304 C 0.44873 0.90358 0.13159 0.0
C1305 C 0.44986 0.92502 0.09 0.0
C1306 C 0.44277 0.91131 0.10434 0.0
C1307 C 0.42328 0.87104 0.14559 0.0
C1308 C 0.42975 0.88503 0.13147 0.0
H1309 H 0.451 0.92275 0.04914 0.0
H1310 H 0.4385 0.90015 0.07258 0.0
H1311 H 0.47014 0.93046 0.11856 0.0
H1312 H 0.42298 0.87261 0.18645 0.0
H1313 H 0.432 0.89534 0.16319 0.0
C1314 C 0.54973 0.46021 0.22443 0.0
C1315 C 0.5381 0.47001 0.22669 0.0
C1316 C 0.5561 0.4532 0.23761 0.0
C1317 C 0.54585 0.44125 0.28132 0.0
H1318 H 0.59893 0.44392 0.28012 0.0
C1319 C 0.58614 0.43144 0.33729 0.0
C1320 C 0.59388 0.41782 0.33575 0.0
C1321 C 0.57865 0.43695 0.32391 0.0
C1322 C 0.584 0.44295 0.28055 0.0
H1323 H 0.52436 0.48058 0.24443 0.0
H1324 H 0.53608 0.4691 0.26749 0.0
H1325 H 0.58759 0.45573 0.25702 0.0
H1326 H 0.59933 0.39903 0.31877 0.0
H1327 H 0.58693 0.4093 0.29536 0.0
H1328 H 0.54274 0.42912 0.30515 0.0
C1329 C 0.53976 0.46614 0.25557 0.0
C1330 C 0.57742 0.44962 0.26729 0.0
C1331 C 0.53312 0.47285 0.24237 0.0
C1332 C 0.59388 0.40985 0.32043 0.0
C1333 C 0.58669 0.41564 0.30701 0.0
C1334 C 0.5526 0.43489 0.29466 0.0
C1335 C 0.55126 0.45613 0.25338 0.0
C1336 C 0.55824 0.44886 0.26748 0.0
C1337 C 0.57902 0.42924 0.30863 0.0
C1338 C 0.57172 0.43566 0.2944 0.0
H1339 H 0.55357 0.45763 0.21243 0.0
H1340 H 0.56458 0.44523 0.23538 0.0
H1341 H 0.53081 0.44 0.28183 0.0
H1342 H 0.58625 0.43827 0.34877 0.0
H1343 H 0.57303 0.44766 0.32545 0.0
C1344 C 0.51071 0.93817 0.4233 0.0
C1345 C 0.49937 0.94753 0.42826 0.0
C1346 C 0.50371 0.92404 0.41061 0.0
C1347 C 0.45676 0.89027 0.38676 0.0
H1348 H 0.49599 0.89265 0.35522 0.0
C1349 C 0.43193 0.85115 0.32492 0.0
C1350 C 0.44138 0.84012 0.31939 0.0
C1351 C 0.43913 0.86332 0.33871 0.0
C1352 C 0.48489 0.89165 0.36404 0.0
H1353 H 0.47153 0.94899 0.42397 0.0
H1354 H 0.45971 0.92496 0.40157 0.0
H1355 H 0.5083 0.91558 0.37846 0.0
H1356 H 0.46583 0.83325 0.32416 0.0
H1357 H 0.47865 0.85488 0.34812 0.0
H1358 H 0.43333 0.86667 0.37211 0.0
C1359 C 0.47386 0.92827 0.40761 0.0
C1360 C 0.49193 0.90475 0.37737 0.0
C1361 C 0.48081 0.9423 0.42032 0.0
C1362 C 0.45836 0.84174 0.32794 0.0
C1363 C 0.46568 0.85407 0.34169 0.0
C1364 C 0.44973 0.8773 0.37339 0.0
C1365 C 0.48523 0.91898 0.40257 0.0
C1366 C 0.47792 0.90435 0.38882 0.0
C1367 C 0.45607 0.8649 0.34724 0.0
C1368 C 0.4637 0.87799 0.36181 0.0
H1369 H 0.52517 0.94198 0.42906 0.0
H1370 H 0.51274 0.91702 0.40715 0.0
H1371 H 0.44558 0.88924 0.39551 0.0
H1372 H 0.41911 0.85063 0.31847 0.0
H1373 H 0.43165 0.87178 0.34255 0.0
C1374 C 0.58188 0.49131 0.59455 0.0
C1375 C 0.57171 0.50266 0.59263 0.0
C1376 C 0.58897 0.48543 0.58116 0.0
C1377 C 0.58131 0.47807 0.53713 0.0
H1378 H 0.6324 0.4767 0.53893 0.0
C1379 C 0.61649 0.46174 0.48129 0.0
C1380 C 0.62253 0.44688 0.48335 0.0
C1381 C 0.61137 0.46967 0.49458 0.0
C1382 C 0.61805 0.47692 0.5383 0.0
H1383 H 0.56157 0.51734 0.57529 0.0
H1384 H 0.5743 0.50749 0.55194 0.0
H1385 H 0.6215 0.48863 0.56222 0.0
H1386 H 0.6286 0.42915 0.5009 0.0
H1387 H 0.6197 0.44308 0.52415 0.0
H1388 H 0.57801 0.46653 0.51315 0.0
C1389 C 0.57633 0.50261 0.56373 0.0
C1390 C 0.61176 0.48368 0.55165 0.0
C1391 C 0.56908 0.50831 0.5771 0.0
C1392 C 0.62382 0.44047 0.49897 0.0
C1393 C 0.6189 0.44855 0.51226 0.0
C1394 C 0.58771 0.4715 0.52375 0.0
C1395 C 0.58621 0.49094 0.56557 0.0
C1396 C 0.59324 0.48423 0.55126 0.0
C1397 C 0.6124 0.46306 0.51019 0.0
C1398 C 0.60608 0.47075 0.52423 0.0
H1399 H 0.58393 0.48658 0.60639 0.0
H1400 H 0.59622 0.47619 0.58303 0.0
H1401 H 0.56678 0.47791 0.53648 0.0
H1402 H 0.61524 0.46686 0.46938 0.0
H1403 H 0.60656 0.48097 0.49265 0.0
C1404 C 0.08336 0.57354 0.7471 0.0
C1405 C 0.09001 0.57145 0.76244 0.0
C1406 C 0.09704 0.58056 0.73414 0.0
C1407 C 0.14567 0.58509 0.72002 0.0
H1408 H 0.1455 0.62453 0.68986 0.0
C1409 C 0.20589 0.6206 0.66934 0.0
C1410 C 0.19878 0.62259 0.65418 0.0
C1411 C 0.19313 0.6154 0.68281 0.0
C1412 C 0.1456 0.61335 0.69807 0.0
H1413 H 0.11641 0.57551 0.77621 0.0
H1414 H 0.14025 0.58759 0.75354 0.0
H1415 H 0.12218 0.61332 0.71285 0.0
H1416 H 0.17274 0.62076 0.64127 0.0
H1417 H 0.15037 0.61149 0.66475 0.0
H1418 H 0.16885 0.58485 0.70517 0.0
C1419 C 0.12436 0.58356 0.75153 0.0
C1420 C 0.13225 0.60695 0.71126 0.0
C1421 C 0.11069 0.5766 0.7645 0.0
C1422 C 0.17874 0.61958 0.65283 0.0
C1423 C 0.16594 0.61429 0.6663 0.0
C1424 C 0.15896 0.59142 0.70681 0.0
C1425 C 0.11768 0.5856 0.7362 0.0
C1426 C 0.13211 0.59271 0.72235 0.0
C1427 C 0.17293 0.61198 0.68144 0.0
C1428 C 0.15906 0.6056 0.69566 0.0
H1429 H 0.06745 0.56939 0.74502 0.0
H1430 H 0.09135 0.58167 0.72242 0.0
H1431 H 0.14572 0.57387 0.72822 0.0
H1432 H 0.22138 0.62316 0.6708 0.0
H1433 H 0.19915 0.61415 0.69434 0.0
C1434 C 0.55895 0.0952 0.92123 0.0
C1435 C 0.54011 0.09003 0.9287 0.0
C1436 C 0.56593 0.10854 0.90805 0.0
C1437 C 0.54804 0.12867 0.8753 0.0
H1438 H 0.60542 0.17187 0.87318 0.0
C1439 C 0.57873 0.19062 0.82528 0.0
C1440 C 0.59838 0.19667 0.81902 0.0
C1441 C 0.57146 0.17792 0.83884 0.0
C1442 C 0.58941 0.15973 0.87347 0.0
H1443 H 0.51401 0.09513 0.9282 0.0
H1444 H 0.52609 0.11817 0.90502 0.0
H1445 H 0.59306 0.14904 0.89644 0.0
H1446 H 0.62562 0.19378 0.82184 0.0
H1447 H 0.61288 0.17142 0.84532 0.0
H1448 H 0.54441 0.13911 0.85223 0.0
C1449 C 0.53534 0.11174 0.90934 0.0
C1450 C 0.58233 0.14669 0.88682 0.0
C1451 C 0.52841 0.0985 0.9226 0.0
C1452 C 0.61055 0.18965 0.82654 0.0
C1453 C 0.60325 0.17687 0.84002 0.0
C1454 C 0.55515 0.14164 0.86188 0.0
C1455 C 0.55419 0.11692 0.90194 0.0
C1456 C 0.56159 0.13098 0.88786 0.0
C1457 C 0.58363 0.17088 0.84638 0.0
C1458 C 0.57594 0.1573 0.86078 0.0
H1459 H 0.56818 0.08869 0.92541 0.0
H1460 H 0.58038 0.11201 0.90245 0.0
H1461 H 0.53203 0.11654 0.87567 0.0
H1462 H 0.5691 0.19598 0.81984 0.0
H1463 H 0.55641 0.17387 0.84354 0.0
C1464 C 0.48049 0.55941 0.08667 0.0
C1465 C 0.46739 0.53991 0.09345 0.0
C1466 C 0.47411 0.56628 0.07344 0.0
C1467 C 0.42795 0.55817 0.05126 0.0
H1468 H 0.46709 0.58577 0.01678 0.0
C1469 C 0.40513 0.58009 0.99093 0.0
C1470 C 0.41921 0.59945 0.9844 0.0
C1471 C 0.41053 0.57239 0.00426 0.0
C1472 C 0.45604 0.5783 0.02638 0.0
H1473 H 0.43727 0.51237 0.09161 0.0
H1474 H 0.4261 0.52445 0.06851 0.0
H1475 H 0.47731 0.57323 0.04005 0.0
H1476 H 0.4501 0.6258 0.98671 0.0
H1477 H 0.45932 0.61261 0.01011 0.0
H1478 H 0.40669 0.56335 0.03758 0.0
C1479 C 0.44124 0.53447 0.07356 0.0
C1480 C 0.4619 0.5711 0.03972 0.0
C1481 C 0.44764 0.52757 0.0868 0.0
C1482 C 0.43878 0.61094 0.99154 0.0
C1483 C 0.44417 0.60326 0.00484 0.0
C1484 C 0.42208 0.56541 0.03791 0.0
C1485 C 0.45447 0.55385 0.06667 0.0
C1486 C 0.44798 0.56107 0.05236 0.0
C1487 C 0.43015 0.58386 0.01133 0.0
C1488 C 0.43611 0.57567 0.02536 0.0
H1489 H 0.49564 0.56947 0.09169 0.0
H1490 H 0.48452 0.58145 0.0686 0.0
H1491 H 0.41694 0.5507 0.06089 0.0
H1492 H 0.38987 0.57093 0.98581 0.0
H1493 H 0.39944 0.55732 0.00888 0.0
C1494 C 0.94222 0.44513 0.25548 0.0
C1495 C 0.95161 0.4659 0.26033 0.0
C1496 C 0.92936 0.43827 0.24197 0.0
C1497 C 0.91879 0.45728 0.20445 0.0
H1498 H 0.86572 0.40684 0.20556 0.0
C1499 C 0.85739 0.43851 0.15592 0.0
C1500 C 0.84518 0.41796 0.15082 0.0
C1501 C 0.87081 0.44339 0.16892 0.0
C1502 C 0.88063 0.42079 0.20496 0.0
H1503 H 0.9542 0.49551 0.25508 0.0
H1504 H 0.93207 0.48361 0.23146 0.0
H1505 H 0.88824 0.41702 0.2291 0.0
H1506 H 0.83761 0.38641 0.15539 0.0
H1507 H 0.86148 0.39501 0.17793 0.0
H1508 H 0.91133 0.46113 0.18038 0.0
C1509 C 0.9349 0.47272 0.23796 0.0
C1510 C 0.8935 0.42663 0.21846 0.0
C1511 C 0.94761 0.47954 0.25149 0.0
C1512 C 0.84691 0.40241 0.15894 0.0
C1513 C 0.86042 0.40731 0.17197 0.0
C1514 C 0.90602 0.4514 0.19096 0.0
C1515 C 0.92575 0.45206 0.23299 0.0
C1516 C 0.91257 0.4451 0.21842 0.0
C1517 C 0.8725 0.42788 0.17713 0.0
C1518 C 0.88664 0.43326 0.19112 0.0
H1519 H 0.94515 0.43427 0.26191 0.0
H1520 H 0.92262 0.42229 0.23834 0.0
H1521 H 0.93358 0.4714 0.20396 0.0
H1522 H 0.85667 0.45092 0.14981 0.0
H1523 H 0.87966 0.45935 0.17269 0.0
loop_
_geom_bond_atom_site_label_1
_geom_bond_atom_site_label_2
_geom_bond_distance
_geom_bond_site_symmetry_2
_ccdc_geom_bond_type
C0 C1 1.384 . S
C0 C2 1.384 . S
C0 H28 0.931 . S
C1 C0 1.384 . S
C1 C4 1.382 . S
C2 C0 1.384 . S
C2 C3 1.381 . S
C2 H29 0.930 . S
C3 C2 1.381 . S
C3 C5 1.381 . S
C3 C6 1.487 1_655 S
C4 C1 1.382 . S
C4 C5 1.387 . S
C4 H30 0.930 . S
C5 C3 1.381 . S
C5 C4 1.387 . S
C5 H31 0.931 . S
C6 C3 1.487 1_455 S
C6 C13 1.399 . S
C6 N44 1.343 . S
C7 C8 1.384 . S
C7 C9 1.384 . S
C7 H32 0.931 . S
C8 C7 1.384 . S
C8 C11 1.382 . S
C9 C7 1.384 . S
C9 C10 1.381 . S
C9 H33 0.930 . S
C10 C9 1.381 . S
C10 C12 1.381 . S
C10 C13 1.487 1_655 S
C11 C8 1.382 . S
C11 C12 1.387 . S
C11 H34 0.930 . S
C12 C10 1.381 . S
C12 C11 1.387 . S
C12 H35 0.931 1_655 S
C13 C6 1.399 . S
C13 C10 1.487 1_455 S
C13 N45 1.343 . S
C14 C15 1.384 . S
C14 C16 1.384 . S
C14 H36 0.931 . S
C15 C14 1.384 . S
C15 C18 1.382 . S
C16 C14 1.384 . S
C16 C17 1.381 . S
C16 H37 0.930 . S
C17 C16 1.381 . S
C17 C19 1.381 . S
C17 C20 1.487 . S
C18 C15 1.382 . S
C18 C19 1.387 . S
C18 H38 0.930 . S
C19 C17 1.381 . S
C19 C18 1.387 . S
C19 H39 0.931 . S
C20 C17 1.487 . S
C20 C27 1.399 . S
C20 N45 1.343 . S
C21 C22 1.384 . S
C21 C23 1.384 . S
C21 H40 0.931 . S
C22 C21 1.384 . S
C22 C25 1.382 . S
C23 C21 1.384 . S
C23 C24 1.381 . S
C23 H41 0.930 . S
C24 C23 1.381 . S
C24 C26 1.381 . S
C24 C27 1.487 . S
C25 C22 1.382 . S
C25 C26 1.387 . S
C25 H42 0.930 . S
C26 C24 1.381 . S
C26 C25 1.387 . S
C26 H43 0.931 . S
C27 C20 1.399 . S
C27 C24 1.487 . S
C27 N44 1.343 . S
H28 C0 0.931 . S
H29 C2 0.930 . S
H30 C4 0.930 . S
H31 C5 0.931 . S
H32 C7 0.931 . S
H33 C9 0.930 . S
H34 C11 0.930 . S
H35 C12 0.931 1_455 S
H36 C14 0.931 . S
H37 C16 0.930 . S
H38 C18 0.930 . S
H39 C19 0.931 . S
H40 C21 0.931 . S
H41 C23 0.930 . S
H42 C25 0.930 . S
H43 C26 0.931 . S
N44 C6 1.343 . S
N44 C27 1.343 . S
N45 C13 1.343 . S
N45 C20 1.343 . S
C46 C47 1.384 . S
C46 C48 1.384 . S
C46 H74 0.931 . S
C47 C46 1.384 . S
C47 C50 1.382 . S
C48 C46 1.384 . S
C48 C49 1.381 . S
C48 H75 0.930 . S
C49 C48 1.381 . S
C49 C51 1.381 . S
C49 C52 1.487 1_565 S
C50 C47 1.382 . S
C50 C51 1.387 . S
C50 H76 0.930 . S
C51 C49 1.381 . S
C51 C50 1.387 . S
C51 H77 0.931 . S
C52 C49 1.487 1_545 S
C52 C59 1.399 . S
C52 N90 1.343 . S
C53 C54 1.384 . S
C53 C55 1.384 . S
C53 H78 0.931 . S
C54 C53 1.384 . S
C54 C57 1.382 . S
C55 C53 1.384 . S
C55 C56 1.381 . S
C55 H79 0.930 . S
C56 C55 1.381 . S
C56 C58 1.381 . S
C56 C59 1.487 1_565 S
C57 C54 1.382 . S
C57 C58 1.387 . S
C57 H80 0.930 . S
C58 C56 1.381 . S
C58 C57 1.387 . S
C58 H81 0.931 1_565 S
C59 C52 1.399 . S
C59 C56 1.487 1_545 S
C59 N91 1.343 . S
C60 C61 1.384 . S
C60 C62 1.384 . S
C60 H82 0.931 . S
C61 C60 1.384 . S
C61 C64 1.382 . S
C62 C60 1.384 . S
C62 C63 1.381 . S
C62 H83 0.930 . S
C63 C62 1.381 . S
C63 C65 1.381 . S
C63 C66 1.487 . S
C64 C61 1.382 . S
C64 C65 1.387 . S
C64 H84 0.930 . S
C65 C63 1.381 . S
C65 C64 1.387 . S
C65 H85 0.931 . S
C66 C63 1.487 . S
C66 C73 1.399 . S
C66 N91 1.343 . S
C67 C68 1.384 . S
C67 C69 1.384 . S
C67 H86 0.931 . S
C68 C67 1.384 . S
C68 C71 1.382 . S
C69 C67 1.384 . S
C69 C70 1.381 . S
C69 H87 0.930 . S
C70 C69 1.381 . S
C70 C72 1.381 . S
C70 C73 1.487 . S
C71 C68 1.382 . S
C71 C72 1.387 . S
C71 H88 0.930 . S
C72 C70 1.381 . S
C72 C71 1.387 . S
C72 H89 0.931 . S
C73 C66 1.399 . S
C73 C70 1.487 . S
C73 N90 1.343 . S
H74 C46 0.931 . S
H75 C48 0.930 . S
H76 C50 0.930 . S
H77 C51 0.931 . S
H78 C53 0.931 . S
H79 C55 0.930 . S
H80 C57 0.930 . S
H81 C58 0.931 1_545 S
H82 C60 0.931 . S
H83 C62 0.930 . S
H84 C64 0.930 . S
H85 C65 0.931 . S
H86 C67 0.931 . S
H87 C69 0.930 . S
H88 C71 0.930 . S
H89 C72 0.931 . S
N90 C52 1.343 . S
N90 C73 1.343 . S
N91 C59 1.343 . S
N91 C66 1.343 . S
C92 C93 1.384 . S
C92 C94 1.384 . S
C92 H120 0.931 . S
C93 C92 1.384 . S
C93 C96 1.382 . S
C94 C92 1.384 . S
C94 C95 1.381 . S
C94 H121 0.930 . S
C95 C94 1.381 . S
C95 C97 1.381 . S
C95 C98 1.487 . S
C96 C93 1.382 . S
C96 C97 1.387 . S
C96 H122 0.930 . S
C97 C95 1.381 . S
C97 C96 1.387 . S
C97 H123 0.931 . S
C98 C95 1.487 . S
C98 C105 1.399 . S
C98 N136 1.343 . S
C99 C100 1.384 . S
C99 C101 1.384 . S
C99 H124 0.931 . S
C100 C99 1.384 . S
C100 C103 1.382 . S
C101 C99 1.384 . S
C101 C102 1.381 . S
C101 H125 0.930 . S
C102 C101 1.381 . S
C102 C104 1.381 . S
C102 C105 1.487 . S
C103 C100 1.382 . S
C103 C104 1.387 . S
C103 H126 0.930 . S
C104 C102 1.381 . S
C104 C103 1.387 . S
C104 H127 0.931 . S
C105 C98 1.399 . S
C105 C102 1.487 . S
C105 N137 1.343 . S
C106 C107 1.384 . S
C106 C108 1.384 . S
C106 H128 0.931 . S
C107 C106 1.384 . S
C107 C110 1.382 . S
C108 C106 1.384 . S
C108 C109 1.381 . S
C108 H129 0.930 . S
C109 C108 1.381 . S
C109 C111 1.381 . S
C109 C112 1.487 . S
C110 C107 1.382 . S
C110 C111 1.387 . S
C110 H130 0.930 . S
C111 C109 1.381 . S
C111 C110 1.387 . S
C111 H131 0.931 . S
C112 C109 1.487 . S
C112 C119 1.399 . S
C112 N137 1.343 . S
C113 C114 1.384 . S
C113 C115 1.384 . S
C113 H132 0.931 . S
C114 C113 1.384 . S
C114 C117 1.382 . S
C115 C113 1.384 . S
C115 C116 1.381 . S
C115 H133 0.930 . S
C116 C115 1.381 . S
C116 C118 1.381 . S
C116 C119 1.487 . S
C117 C114 1.382 . S
C117 C118 1.387 . S
C117 H134 0.930 . S
C118 C116 1.381 . S
C118 C117 1.387 . S
C118 H135 0.931 . S
C119 C112 1.399 . S
C119 C116 1.487 . S
C119 N136 1.343 . S
H120 C92 0.931 . S
H121 C94 0.930 . S
H122 C96 0.930 . S
H123 C97 0.931 . S
H124 C99 0.931 . S
H125 C101 0.930 . S
H126 C103 0.930 . S
H127 C104 0.931 . S
H128 C106 0.931 . S
H129 C108 0.930 . S
H130 C110 0.930 . S
H131 C111 0.931 . S
H132 C113 0.931 . S
H133 C115 0.930 . S
H134 C117 0.930 . S
H135 C118 0.931 . S
N136 C98 1.343 . S
N136 C119 1.343 . S
N137 C105 1.343 . S
N137 C112 1.343 . S
C138 C139 1.384 . S
C138 C140 1.384 . S
C138 H166 0.931 . S
C139 C138 1.384 . S
C139 C142 1.382 . S
C140 C138 1.384 . S
C140 C141 1.381 . S
C140 H167 0.930 . S
C141 C140 1.381 . S
C141 C143 1.381 . S
C141 C144 1.487 1_655 S
C142 C139 1.382 . S
C142 C143 1.387 . S
C142 H168 0.930 . S
C143 C141 1.381 . S
C143 C142 1.387 . S
C143 H169 0.931 . S
C144 C141 1.487 1_455 S
C144 C151 1.399 . S
C144 N182 1.343 . S
C145 C146 1.384 . S
C145 C147 1.384 . S
C145 H170 0.931 . S
C146 C145 1.384 . S
C146 C149 1.382 . S
C147 C145 1.384 . S
C147 C148 1.381 . S
C147 H171 0.930 . S
C148 C147 1.381 . S
C148 C150 1.381 . S
C148 C151 1.487 1_655 S
C149 C146 1.382 . S
C149 C150 1.387 . S
C149 H172 0.930 . S
C150 C148 1.381 . S
C150 C149 1.387 . S
C150 H173 0.931 1_655 S
C151 C144 1.399 . S
C151 C148 1.487 1_455 S
C151 N183 1.343 . S
C152 C153 1.384 . S
C152 C154 1.384 . S
C152 H174 0.931 . S
C153 C152 1.384 . S
C153 C156 1.382 . S
C154 C152 1.384 . S
C154 C155 1.381 . S
C154 H175 0.930 . S
C155 C154 1.381 . S
C155 C157 1.381 . S
C155 C158 1.487 . S
C156 C153 1.382 . S
C156 C157 1.387 . S
C156 H176 0.930 . S
C157 C155 1.381 . S
C157 C156 1.387 . S
C157 H177 0.931 . S
C158 C155 1.487 . S
C158 C165 1.399 . S
C158 N183 1.343 . S
C159 C160 1.384 . S
C159 C161 1.384 . S
C159 H178 0.931 . S
C160 C159 1.384 . S
C160 C163 1.382 . S
C161 C159 1.384 . S
C161 C162 1.381 . S
C161 H179 0.930 . S
C162 C161 1.381 . S
C162 C164 1.381 . S
C162 C165 1.487 . S
C163 C160 1.382 . S
C163 C164 1.387 . S
C163 H180 0.930 . S
C164 C162 1.381 . S
C164 C163 1.387 . S
C164 H181 0.931 . S
C165 C158 1.399 . S
C165 C162 1.487 . S
C165 N182 1.343 . S
H166 C138 0.931 . S
H167 C140 0.930 . S
H168 C142 0.930 . S
H169 C143 0.931 . S
H170 C145 0.931 . S
H171 C147 0.930 . S
H172 C149 0.930 . S
H173 C150 0.931 1_455 S
H174 C152 0.931 . S
H175 C154 0.930 . S
H176 C156 0.930 . S
H177 C157 0.931 . S
H178 C159 0.931 . S
H179 C161 0.930 . S
H180 C163 0.930 . S
H181 C164 0.931 . S
N182 C144 1.343 . S
N182 C165 1.343 . S
N183 C151 1.343 . S
N183 C158 1.343 . S
C184 C185 1.384 . S
C184 C186 1.384 . S
C184 H212 0.931 . S
C185 C184 1.384 . S
C185 C188 1.382 . S
C186 C184 1.384 . S
C186 C187 1.381 . S
C186 H213 0.930 1_556 S
C187 C186 1.381 . S
C187 C189 1.381 . S
C187 C190 1.487 1_565 S
C188 C185 1.382 . S
C188 C189 1.387 . S
C188 H214 0.930 . S
C189 C187 1.381 . S
C189 C188 1.387 . S
C189 H215 0.931 . S
C190 C187 1.487 1_545 S
C190 C197 1.399 1_556 S
C190 N228 1.343 . S
C191 C192 1.384 . S
C191 C193 1.384 . S
C191 H216 0.931 . S
C192 C191 1.384 . S
C192 C195 1.382 . S
C193 C191 1.384 . S
C193 C194 1.381 . S
C193 H217 0.930 . S
C194 C193 1.381 . S
C194 C196 1.381 . S
C194 C197 1.487 1_565 S
C195 C192 1.382 . S
C195 C196 1.387 . S
C195 H218 0.930 . S
C196 C194 1.381 . S
C196 C195 1.387 . S
C196 H219 0.931 1_565 S
C197 C190 1.399 1_554 S
C197 C194 1.487 1_545 S
C197 N229 1.343 . S
C198 C199 1.384 . S
C198 C200 1.384 1_554 S
C198 H220 0.919 1_554 S
C199 C198 1.384 . S
C199 C202 1.382 . S
C200 C198 1.384 1_556 S
C200 C201 1.381 1_556 S
C200 H221 0.930 . S
C201 C200 1.381 1_554 S
C201 C203 1.381 . S
C201 C204 1.487 1_554 S
C202 C199 1.382 . S
C202 C203 1.387 . S
C202 H222 0.930 . S
C203 C201 1.381 . S
C203 C202 1.387 . S
C203 H223 0.931 . S
C204 C201 1.487 1_556 S
C204 C211 1.399 . S
C204 N229 1.343 1_556 S
C205 C206 1.384 . S
C205 C207 1.384 . S
C205 H224 0.931 . S
C206 C205 1.384 . S
C206 C209 1.382 . S
C207 C205 1.384 . S
C207 C208 1.381 . S
C207 H225 0.930 . S
C208 C207 1.381 . S
C208 C210 1.381 . S
C208 C211 1.487 . S
C209 C206 1.382 . S
C209 C210 1.387 . S
C209 H226 0.930 . S
C210 C208 1.381 . S
C210 C209 1.387 . S
C210 H227 0.931 . S
C211 C204 1.399 . S
C211 C208 1.487 . S
C211 N228 1.343 . S
H212 C184 0.931 . S
H213 C186 0.930 1_554 S
H214 C188 0.930 . S
H215 C189 0.931 . S
H216 C191 0.931 . S
H217 C193 0.930 . S
H218 C195 0.930 . S
H219 C196 0.931 1_545 S
H220 C198 0.919 1_556 S
H221 C200 0.930 . S
H222 C202 0.930 . S
H223 C203 0.931 . S
H224 C205 0.931 . S
H225 C207 0.930 . S
H226 C209 0.930 . S
H227 C210 0.931 . S
N228 C190 1.343 . S
N228 C211 1.343 . S
N229 C197 1.343 . S
N229 C204 1.343 1_554 S
C230 C231 1.384 . S
C230 C232 1.384 . S
C230 H258 0.931 . S
C231 C230 1.384 . S
C231 C234 1.382 . S
C232 C230 1.384 . S
C232 C233 1.381 . S
C232 H259 0.930 . S
C233 C232 1.381 . S
C233 C235 1.381 . S
C233 C236 1.487 . S
C234 C231 1.382 . S
C234 C235 1.387 . S
C234 H260 0.930 . S
C235 C233 1.381 . S
C235 C234 1.387 . S
C235 H261 0.931 . S
C236 C233 1.487 . S
C236 C243 1.399 . S
C236 N274 1.343 . S
C237 C238 1.384 . S
C237 C239 1.384 . S
C237 H262 0.931 . S
C238 C237 1.384 . S
C238 C241 1.382 . S
C239 C237 1.384 . S
C239 C240 1.381 . S
C239 H263 0.930 . S
C240 C239 1.381 . S
C240 C242 1.381 . S
C240 C243 1.487 . S
C241 C238 1.382 . S
C241 C242 1.387 . S
C241 H264 0.930 . S
C242 C240 1.381 . S
C242 C241 1.387 . S
C242 H265 0.931 . S
C243 C236 1.399 . S
C243 C240 1.487 . S
C243 N275 1.343 . S
C244 C245 1.384 . S
C244 C246 1.384 . S
C244 H266 0.931 . S
C245 C244 1.384 . S
C245 C248 1.382 . S
C246 C244 1.384 . S
C246 C247 1.381 . S
C246 H267 0.930 . S
C247 C246 1.381 . S
C247 C249 1.381 . S
C247 C250 1.487 . S
C248 C245 1.382 . S
C248 C249 1.387 . S
C248 H268 0.930 . S
C249 C247 1.381 . S
C249 C248 1.387 . S
C249 H269 0.931 . S
C250 C247 1.487 . S
C250 C257 1.399 . S
C250 N275 1.343 . S
C251 C252 1.384 . S
C251 C253 1.384 . S
C251 H270 0.931 . S
C252 C251 1.384 . S
C252 C255 1.382 . S
C253 C251 1.384 . S
C253 C254 1.381 . S
C253 H271 0.930 . S
C254 C253 1.381 . S
C254 C256 1.381 . S
C254 C257 1.487 . S
C255 C252 1.382 . S
C255 C256 1.387 . S
C255 H272 0.930 . S
C256 C254 1.381 . S
C256 C255 1.387 . S
C256 H273 0.931 . S
C257 C250 1.399 . S
C257 C254 1.487 . S
C257 N274 1.343 . S
H258 C230 0.931 . S
H259 C232 0.930 . S
H260 C234 0.930 . S
H261 C235 0.931 . S
H262 C237 0.931 . S
H263 C239 0.930 . S
H264 C241 0.930 . S
H265 C242 0.931 . S
H266 C244 0.931 . S
H267 C246 0.930 . S
H268 C248 0.930 . S
H269 C249 0.931 . S
H270 C251 0.931 . S
H271 C253 0.930 . S
H272 C255 0.930 . S
H273 C256 0.931 . S
N274 C236 1.343 . S
N274 C257 1.343 . S
N275 C243 1.343 . S
N275 C250 1.343 . S
Li276 N293 1.990 . S
Li276 O336 1.956 . S
Li276 O337 1.970 . S
Li276 O338 1.961 . S
Li277 N301 1.990 . S
Li277 O336 1.970 . S
Li277 O337 1.956 . S
Li277 O339 1.961 . S
Li278 N323 1.990 . S
Li278 O336 1.961 . S
Li278 O338 1.956 . S
Li278 O339 1.970 . S
Li279 N329 1.990 . S
Li279 O337 1.961 . S
Li279 O338 1.970 . S
Li279 O339 1.956 . S
C280 C282 1.348 . S
C280 C283 1.356 . S
C280 O336 1.325 . S
N281 C284 1.314 . S
N281 C285 1.279 . S
C282 C280 1.348 . S
C282 C284 1.353 . S
C282 H340 0.929 . S
C283 C280 1.356 . S
C283 C285 1.358 . S
C283 H341 0.930 . S
C284 N281 1.314 . S
C284 C282 1.353 . S
C284 H342 0.930 . S
C285 N281 1.279 . S
C285 C283 1.358 . S
C285 H343 0.930 . S
C286 C289 1.348 . S
C286 C290 1.356 . S
C286 O337 1.325 . S
C287 N288 1.279 . S
C287 C290 1.358 . S
C287 H344 0.930 . S
N288 C287 1.279 . S
N288 C291 1.314 . S
C289 C286 1.348 . S
C289 C291 1.353 . S
C289 H345 0.929 . S
C290 C286 1.356 . S
C290 C287 1.358 . S
C290 H346 0.930 . S
C291 N288 1.314 . S
C291 C289 1.353 . S
C291 H347 0.930 . S
C292 N293 1.314 . S
C292 C297 1.353 . S
C292 H298 0.930 . S
N293 Li276 1.990 . S
N293 C292 1.314 . S
N293 C295 1.279 . S
C294 C295 1.358 . S
C294 C296 1.356 . S
C294 H348 0.930 . S
C295 N293 1.279 . S
C295 C294 1.358 . S
C295 H299 0.930 . S
C296 C294 1.356 . S
C296 C297 1.348 . S
C297 C292 1.353 . S
C297 C296 1.348 . S
C297 H349 0.929 . S
H298 C292 0.930 . S
H299 C295 0.930 . S
C300 N301 1.314 . S
C300 C302 1.353 . S
C300 H306 0.930 . S
N301 Li277 1.990 . S
N301 C300 1.314 . S
N301 C304 1.279 . S
C302 C300 1.353 . S
C302 C305 1.348 . S
C302 H350 0.929 . S
C303 C304 1.358 . S
C303 C305 1.356 . S
C303 H351 0.930 . S
C304 N301 1.279 . S
C304 C303 1.358 . S
C304 H307 0.930 . S
C305 C302 1.348 . S
C305 C303 1.356 . S
H306 C300 0.930 . S
H307 C304 0.930 . S
C308 C310 1.348 . S
C308 C311 1.356 . S
C308 O338 1.325 . S
N309 C312 1.314 . S
N309 C313 1.279 . S
C310 C308 1.348 . S
C310 C312 1.353 . S
C310 H352 0.929 . S
C311 C308 1.356 . S
C311 C313 1.358 . S
C311 H353 0.930 . S
C312 N309 1.314 . S
C312 C310 1.353 . S
C312 H354 0.930 . S
C313 N309 1.279 . S
C313 C311 1.358 . S
C313 H355 0.930 . S
C314 C315 1.348 . S
C314 C316 1.356 . S
C314 O339 1.325 . S
C315 C314 1.348 . S
C315 C317 1.353 . S
C315 H356 0.929 . S
C316 C314 1.356 . S
C316 C318 1.358 . S
C316 H357 0.930 . S
C317 C315 1.353 . S
C317 N319 1.314 . S
C317 H358 0.930 . S
C318 C316 1.358 . S
C318 N319 1.279 . S
C318 H359 0.930 . S
N319 C317 1.314 . S
N319 C318 1.279 . S
C320 C322 1.353 . S
C320 N323 1.314 . S
C320 H326 0.930 . S
C321 N323 1.279 . S
C321 C324 1.358 . S
C321 H327 0.930 . S
C322 C320 1.353 . S
C322 C325 1.348 . S
C322 H360 0.929 . S
N323 Li278 1.990 . S
N323 C320 1.314 . S
N323 C321 1.279 . S
C324 C321 1.358 . S
C324 C325 1.356 . S
C324 H361 0.930 . S
C325 C322 1.348 . S
C325 C324 1.356 . S
H326 C320 0.930 . S
H327 C321 0.930 . S
C328 N329 1.314 . S
C328 C330 1.353 . S
C328 H334 0.930 . S
N329 Li279 1.990 . S
N329 C328 1.314 . S
N329 C332 1.279 . S
C330 C328 1.353 . S
C330 C333 1.348 . S
C330 H362 0.929 . S
C331 C332 1.358 . S
C331 C333 1.356 . S
C331 H363 0.930 . S
C332 N329 1.279 . S
C332 C331 1.358 . S
C332 H335 0.930 . S
C333 C330 1.348 . S
C333 C331 1.356 . S
H334 C328 0.930 . S
H335 C332 0.930 . S
O336 Li276 1.956 . S
O336 Li277 1.970 . S
O336 Li278 1.961 . S
O336 C280 1.325 . S
O337 Li276 1.970 . S
O337 Li277 1.956 . S
O337 Li279 1.961 . S
O337 C286 1.325 . S
O338 Li276 1.961 . S
O338 Li278 1.956 . S
O338 Li279 1.970 . S
O338 C308 1.325 . S
O339 Li277 1.961 . S
O339 Li278 1.970 . S
O339 Li279 1.956 . S
O339 C314 1.325 . S
H340 C282 0.929 . S
H341 C283 0.930 . S
H342 C284 0.930 . S
H343 C285 0.930 . S
H344 C287 0.930 . S
H345 C289 0.929 . S
H346 C290 0.930 . S
H347 C291 0.930 . S
H348 C294 0.930 . S
H349 C297 0.929 . S
H350 C302 0.929 . S
H351 C303 0.930 . S
H352 C310 0.929 . S
H353 C311 0.930 . S
H354 C312 0.930 . S
H355 C313 0.930 . S
H356 C315 0.929 . S
H357 C316 0.930 . S
H358 C317 0.930 . S
H359 C318 0.930 . S
H360 C322 0.929 . S
H361 C324 0.930 . S
H362 C330 0.929 . S
H363 C331 0.930 . S
Li364 N381 1.990 . S
Li364 O424 1.956 . S
Li364 O425 1.970 . S
Li364 O426 1.961 . S
Li365 N389 1.990 . S
Li365 O424 1.970 . S
Li365 O425 1.956 . S
Li365 O427 1.961 . S
Li366 N411 1.990 . S
Li366 O424 1.961 . S
Li366 O426 1.956 . S
Li366 O427 1.970 . S
Li367 N417 1.990 . S
Li367 O425 1.961 . S
Li367 O426 1.970 . S
Li367 O427 1.956 . S
C368 C370 1.348 . S
C368 C371 1.356 . S
C368 O424 1.325 . S
N369 C372 1.314 . S
N369 C373 1.279 . S
C370 C368 1.348 . S
C370 C372 1.353 . S
C370 H428 0.929 . S
C371 C368 1.356 . S
C371 C373 1.358 . S
C371 H429 0.930 . S
C372 N369 1.314 . S
C372 C370 1.353 . S
C372 H430 0.930 . S
C373 N369 1.279 . S
C373 C371 1.358 . S
C373 H431 0.930 . S
C374 C377 1.348 . S
C374 C378 1.356 . S
C374 O425 1.325 . S
C375 N376 1.279 . S
C375 C378 1.358 . S
C375 H432 0.930 . S
N376 C375 1.279 . S
N376 C379 1.314 . S
C377 C374 1.348 . S
C377 C379 1.353 . S
C377 H433 0.929 . S
C378 C374 1.356 . S
C378 C375 1.358 . S
C378 H434 0.930 . S
C379 N376 1.314 . S
C379 C377 1.353 . S
C379 H435 0.930 . S
C380 N381 1.314 . S
C380 C385 1.353 . S
C380 H386 0.930 . S
N381 Li364 1.990 . S
N381 C380 1.314 . S
N381 C383 1.279 . S
C382 C383 1.358 . S
C382 C384 1.356 . S
C382 H436 0.930 . S
C383 N381 1.279 . S
C383 C382 1.358 . S
C383 H387 0.930 . S
C384 C382 1.356 . S
C384 C385 1.348 . S
C385 C380 1.353 . S
C385 C384 1.348 . S
C385 H437 0.929 . S
H386 C380 0.930 . S
H387 C383 0.930 . S
C388 N389 1.314 . S
C388 C390 1.353 . S
C388 H394 0.930 . S
N389 Li365 1.990 . S
N389 C388 1.314 . S
N389 C392 1.279 . S
C390 C388 1.353 . S
C390 C393 1.348 . S
C390 H438 0.929 . S
C391 C392 1.358 . S
C391 C393 1.356 . S
C391 H439 0.930 . S
C392 N389 1.279 . S
C392 C391 1.358 . S
C392 H395 0.930 . S
C393 C390 1.348 . S
C393 C391 1.356 . S
H394 C388 0.930 . S
H395 C392 0.930 . S
C396 C398 1.348 . S
C396 C399 1.356 . S
C396 O426 1.325 . S
N397 C400 1.314 . S
N397 C401 1.279 . S
C398 C396 1.348 . S
C398 C400 1.353 . S
C398 H440 0.929 . S
C399 C396 1.356 . S
C399 C401 1.358 . S
C399 H441 0.930 . S
C400 N397 1.314 . S
C400 C398 1.353 . S
C400 H442 0.930 . S
C401 N397 1.279 . S
C401 C399 1.358 . S
C401 H443 0.930 . S
C402 C403 1.348 . S
C402 C404 1.356 . S
C402 O427 1.325 . S
C403 C402 1.348 . S
C403 C405 1.353 . S
C403 H444 0.929 . S
C404 C402 1.356 . S
C404 C406 1.358 . S
C404 H445 0.930 . S
C405 C403 1.353 . S
C405 N407 1.314 . S
C405 H446 0.930 . S
C406 C404 1.358 . S
C406 N407 1.279 . S
C406 H447 0.930 . S
N407 C405 1.314 . S
N407 C406 1.279 . S
C408 C410 1.353 . S
C408 N411 1.314 . S
C408 H414 0.930 . S
C409 N411 1.279 . S
C409 C412 1.358 . S
C409 H415 0.930 . S
C410 C408 1.353 . S
C410 C413 1.348 . S
C410 H448 0.929 . S
N411 Li366 1.990 . S
N411 C408 1.314 . S
N411 C409 1.279 . S
C412 C409 1.358 . S
C412 C413 1.356 . S
C412 H449 0.930 . S
C413 C410 1.348 . S
C413 C412 1.356 . S
H414 C408 0.930 . S
H415 C409 0.930 . S
C416 N417 1.314 . S
C416 C418 1.353 . S
C416 H422 0.930 . S
N417 Li367 1.990 . S
N417 C416 1.314 . S
N417 C420 1.279 . S
C418 C416 1.353 . S
C418 C421 1.348 . S
C418 H450 0.929 . S
C419 C420 1.358 . S
C419 C421 1.356 . S
C419 H451 0.930 . S
C420 N417 1.279 . S
C420 C419 1.358 . S
C420 H423 0.930 . S
C421 C418 1.348 . S
C421 C419 1.356 . S
H422 C416 0.930 . S
H423 C420 0.930 . S
O424 Li364 1.956 . S
O424 Li365 1.970 . S
O424 Li366 1.961 . S
O424 C368 1.325 . S
O425 Li364 1.970 . S
O425 Li365 1.956 . S
O425 Li367 1.961 . S
O425 C374 1.325 . S
O426 Li364 1.961 . S
O426 Li366 1.956 . S
O426 Li367 1.970 . S
O426 C396 1.325 . S
O427 Li365 1.961 . S
O427 Li366 1.970 . S
O427 Li367 1.956 . S
O427 C402 1.325 . S
H428 C370 0.929 . S
H429 C371 0.930 . S
H430 C372 0.930 . S
H431 C373 0.930 . S
H432 C375 0.930 . S
H433 C377 0.929 . S
H434 C378 0.930 . S
H435 C379 0.930 . S
H436 C382 0.930 . S
H437 C385 0.929 . S
H438 C390 0.929 . S
H439 C391 0.930 . S
H440 C398 0.929 . S
H441 C399 0.930 . S
H442 C400 0.930 . S
H443 C401 0.930 . S
H444 C403 0.929 . S
H445 C404 0.930 . S
H446 C405 0.930 . S
H447 C406 0.930 . S
H448 C410 0.929 . S
H449 C412 0.930 . S
H450 C418 0.929 . S
H451 C419 0.930 . S
Li452 N469 1.990 . S
Li452 O512 1.956 . S
Li452 O513 1.970 . S
Li452 O514 1.961 . S
Li453 N477 1.990 . S
Li453 O512 1.970 . S
Li453 O513 1.956 . S
Li453 O515 1.961 . S
Li454 N499 1.990 . S
Li454 O512 1.961 . S
Li454 O514 1.956 . S
Li454 O515 1.970 . S
Li455 N505 1.990 . S
Li455 O513 1.961 . S
Li455 O514 1.970 . S
Li455 O515 1.956 . S
C456 C458 1.348 . S
C456 C459 1.356 . S
C456 O512 1.325 . S
N457 C460 1.314 . S
N457 C461 1.279 . S
C458 C456 1.348 . S
C458 C460 1.353 . S
C458 H516 0.929 . S
C459 C456 1.356 . S
C459 C461 1.358 . S
C459 H517 0.930 . S
C460 N457 1.314 . S
C460 C458 1.353 . S
C460 H518 0.930 . S
C461 N457 1.279 . S
C461 C459 1.358 . S
C461 H519 0.930 . S
C462 C465 1.348 . S
C462 C466 1.356 . S
C462 O513 1.325 . S
C463 N464 1.279 . S
C463 C466 1.358 . S
C463 H520 0.930 . S
N464 C463 1.279 . S
N464 C467 1.314 . S
C465 C462 1.348 . S
C465 C467 1.353 . S
C465 H521 0.929 . S
C466 C462 1.356 . S
C466 C463 1.358 . S
C466 H522 0.930 . S
C467 N464 1.314 . S
C467 C465 1.353 . S
C467 H523 0.930 . S
C468 N469 1.314 . S
C468 C473 1.353 . S
C468 H474 0.930 . S
N469 Li452 1.990 . S
N469 C468 1.314 . S
N469 C471 1.279 . S
C470 C471 1.358 . S
C470 C472 1.356 . S
C470 H524 0.930 . S
C471 N469 1.279 . S
C471 C470 1.358 . S
C471 H475 0.930 . S
C472 C470 1.356 . S
C472 C473 1.348 . S
C473 C468 1.353 . S
C473 C472 1.348 . S
C473 H525 0.929 . S
H474 C468 0.930 . S
H475 C471 0.930 . S
C476 N477 1.314 . S
C476 C478 1.353 . S
C476 H482 0.930 . S
N477 Li453 1.990 . S
N477 C476 1.314 . S
N477 C480 1.279 . S
C478 C476 1.353 . S
C478 C481 1.348 . S
C478 H526 0.929 . S
C479 C480 1.358 . S
C479 C481 1.356 . S
C479 H527 0.930 . S
C480 N477 1.279 . S
C480 C479 1.358 . S
C480 H483 0.930 . S
C481 C478 1.348 . S
C481 C479 1.356 . S
H482 C476 0.930 . S
H483 C480 0.930 . S
C484 C486 1.348 . S
C484 C487 1.356 . S
C484 O514 1.325 . S
N485 C488 1.314 . S
N485 C489 1.279 . S
C486 C484 1.348 . S
C486 C488 1.353 . S
C486 H528 0.929 . S
C487 C484 1.356 . S
C487 C489 1.358 . S
C487 H529 0.930 . S
C488 N485 1.314 . S
C488 C486 1.353 . S
C488 H530 0.930 . S
C489 N485 1.279 . S
C489 C487 1.358 . S
C489 H531 0.930 . S
C490 C491 1.348 . S
C490 C492 1.356 . S
C490 O515 1.325 . S
C491 C490 1.348 . S
C491 C493 1.353 . S
C491 H532 0.929 . S
C492 C490 1.356 . S
C492 C494 1.358 . S
C492 H533 0.930 . S
C493 C491 1.353 . S
C493 N495 1.314 . S
C493 H534 0.930 . S
C494 C492 1.358 . S
C494 N495 1.279 . S
C494 H535 0.930 . S
N495 C493 1.314 . S
N495 C494 1.279 . S
C496 C498 1.353 . S
C496 N499 1.314 . S
C496 H502 0.930 . S
C497 N499 1.279 . S
C497 C500 1.358 . S
C497 H503 0.930 . S
C498 C496 1.353 . S
C498 C501 1.348 . S
C498 H536 0.929 . S
N499 Li454 1.990 . S
N499 C496 1.314 . S
N499 C497 1.279 . S
C500 C497 1.358 . S
C500 C501 1.356 . S
C500 H537 0.930 . S
C501 C498 1.348 . S
C501 C500 1.356 . S
H502 C496 0.930 . S
H503 C497 0.930 . S
C504 N505 1.314 . S
C504 C506 1.353 . S
C504 H510 0.930 . S
N505 Li455 1.990 . S
N505 C504 1.314 . S
N505 C508 1.279 . S
C506 C504 1.353 . S
C506 C509 1.348 . S
C506 H538 0.929 . S
C507 C508 1.358 . S
C507 C509 1.356 . S
C507 H539 0.930 . S
C508 N505 1.279 . S
C508 C507 1.358 . S
C508 H511 0.930 . S
C509 C506 1.348 . S
C509 C507 1.356 . S
H510 C504 0.930 . S
H511 C508 0.930 . S
O512 Li452 1.956 . S
O512 Li453 1.970 . S
O512 Li454 1.961 . S
O512 C456 1.325 . S
O513 Li452 1.970 . S
O513 Li453 1.956 . S
O513 Li455 1.961 . S
O513 C462 1.325 . S
O514 Li452 1.961 . S
O514 Li454 1.956 . S
O514 Li455 1.970 . S
O514 C484 1.325 . S
O515 Li453 1.961 . S
O515 Li454 1.970 . S
O515 Li455 1.956 . S
O515 C490 1.325 . S
H516 C458 0.929 . S
H517 C459 0.930 . S
H518 C460 0.930 . S
H519 C461 0.930 . S
H520 C463 0.930 . S
H521 C465 0.929 . S
H522 C466 0.930 . S
H523 C467 0.930 . S
H524 C470 0.930 . S
H525 C473 0.929 . S
H526 C478 0.929 . S
H527 C479 0.930 . S
H528 C486 0.929 . S
H529 C487 0.930 . S
H530 C488 0.930 . S
H531 C489 0.930 . S
H532 C491 0.929 . S
H533 C492 0.930 . S
H534 C493 0.930 . S
H535 C494 0.930 . S
H536 C498 0.929 . S
H537 C500 0.930 . S
H538 C506 0.929 . S
H539 C507 0.930 . S
Li540 N557 1.990 . S
Li540 O600 1.956 . S
Li540 O601 1.970 . S
Li540 O602 1.961 . S
Li541 N565 1.990 . S
Li541 O600 1.970 . S
Li541 O601 1.956 . S
Li541 O603 1.961 . S
Li542 N587 1.990 . S
Li542 O600 1.961 . S
Li542 O602 1.956 . S
Li542 O603 1.970 . S
Li543 N593 1.990 . S
Li543 O601 1.961 . S
Li543 O602 1.970 . S
Li543 O603 1.956 . S
C544 C546 1.348 . S
C544 C547 1.356 . S
C544 O600 1.325 . S
N545 C548 1.314 . S
N545 C549 1.279 . S
C546 C544 1.348 . S
C546 C548 1.353 . S
C546 H604 0.929 . S
C547 C544 1.356 . S
C547 C549 1.358 . S
C547 H605 0.930 . S
C548 N545 1.314 . S
C548 C546 1.353 . S
C548 H606 0.930 . S
C549 N545 1.279 . S
C549 C547 1.358 . S
C549 H607 0.930 . S
C550 C553 1.348 . S
C550 C554 1.356 . S
C550 O601 1.325 . S
C551 N552 1.279 . S
C551 C554 1.358 . S
C551 H608 0.930 . S
N552 C551 1.279 . S
N552 C555 1.314 . S
C553 C550 1.348 . S
C553 C555 1.353 . S
C553 H609 0.929 . S
C554 C550 1.356 . S
C554 C551 1.358 . S
C554 H610 0.930 . S
C555 N552 1.314 . S
C555 C553 1.353 . S
C555 H611 0.930 . S
C556 N557 1.314 . S
C556 C561 1.353 . S
C556 H562 0.930 . S
N557 Li540 1.990 . S
N557 C556 1.314 . S
N557 C559 1.279 . S
C558 C559 1.358 . S
C558 C560 1.356 . S
C558 H612 0.930 . S
C559 N557 1.279 . S
C559 C558 1.358 . S
C559 H563 0.930 . S
C560 C558 1.356 . S
C560 C561 1.348 . S
C561 C556 1.353 . S
C561 C560 1.348 . S
C561 H613 0.929 . S
H562 C556 0.930 . S
H563 C559 0.930 . S
C564 N565 1.314 . S
C564 C566 1.353 . S
C564 H570 0.930 . S
N565 Li541 1.990 . S
N565 C564 1.314 . S
N565 C568 1.279 . S
C566 C564 1.353 . S
C566 C569 1.348 . S
C566 H614 0.929 . S
C567 C568 1.358 . S
C567 C569 1.356 . S
C567 H615 0.930 . S
C568 N565 1.279 . S
C568 C567 1.358 . S
C568 H571 0.930 . S
C569 C566 1.348 . S
C569 C567 1.356 . S
H570 C564 0.930 . S
H571 C568 0.930 . S
C572 C574 1.348 . S
C572 C575 1.356 . S
C572 O602 1.325 . S
N573 C576 1.314 . S
N573 C577 1.279 . S
C574 C572 1.348 . S
C574 C576 1.353 . S
C574 H616 0.929 . S
C575 C572 1.356 . S
C575 C577 1.358 . S
C575 H617 0.930 . S
C576 N573 1.314 . S
C576 C574 1.353 . S
C576 H618 0.930 . S
C577 N573 1.279 . S
C577 C575 1.358 . S
C577 H619 0.930 . S
C578 C579 1.348 . S
C578 C580 1.356 . S
C578 O603 1.325 . S
C579 C578 1.348 . S
C579 C581 1.353 . S
C579 H620 0.929 . S
C580 C578 1.356 . S
C580 C582 1.358 . S
C580 H621 0.930 . S
C581 C579 1.353 . S
C581 N583 1.314 . S
C581 H622 0.930 . S
C582 C580 1.358 . S
C582 N583 1.279 . S
C582 H623 0.930 . S
N583 C581 1.314 . S
N583 C582 1.279 . S
C584 C586 1.353 . S
C584 N587 1.314 . S
C584 H590 0.930 . S
C585 N587 1.279 . S
C585 C588 1.358 . S
C585 H591 0.930 . S
C586 C584 1.353 . S
C586 C589 1.348 . S
C586 H624 0.929 . S
N587 Li542 1.990 . S
N587 C584 1.314 . S
N587 C585 1.279 . S
C588 C585 1.358 . S
C588 C589 1.356 . S
C588 H625 0.930 . S
C589 C586 1.348 . S
C589 C588 1.356 . S
H590 C584 0.930 . S
H591 C585 0.930 . S
C592 N593 1.314 . S
C592 C594 1.353 . S
C592 H598 0.930 . S
N593 Li543 1.990 . S
N593 C592 1.314 . S
N593 C596 1.279 . S
C594 C592 1.353 . S
C594 C597 1.348 . S
C594 H626 0.929 . S
C595 C596 1.358 . S
C595 C597 1.356 . S
C595 H627 0.930 . S
C596 N593 1.279 . S
C596 C595 1.358 . S
C596 H599 0.930 . S
C597 C594 1.348 . S
C597 C595 1.356 . S
H598 C592 0.930 . S
H599 C596 0.930 . S
O600 Li540 1.956 . S
O600 Li541 1.970 . S
O600 Li542 1.961 . S
O600 C544 1.325 . S
O601 Li540 1.970 . S
O601 Li541 1.956 . S
O601 Li543 1.961 . S
O601 C550 1.325 . S
O602 Li540 1.961 . S
O602 Li542 1.956 . S
O602 Li543 1.970 . S
O602 C572 1.325 . S
O603 Li541 1.961 . S
O603 Li542 1.970 . S
O603 Li543 1.956 . S
O603 C578 1.325 . S
H604 C546 0.929 . S
H605 C547 0.930 . S
H606 C548 0.930 . S
H607 C549 0.930 . S
H608 C551 0.930 . S
H609 C553 0.929 . S
H610 C554 0.930 . S
H611 C555 0.930 . S
H612 C558 0.930 . S
H613 C561 0.929 . S
H614 C566 0.929 . S
H615 C567 0.930 . S
H616 C574 0.929 . S
H617 C575 0.930 . S
H618 C576 0.930 . S
H619 C577 0.930 . S
H620 C579 0.929 . S
H621 C580 0.930 . S
H622 C581 0.930 . S
H623 C582 0.930 . S
H624 C586 0.929 . S
H625 C588 0.930 . S
H626 C594 0.929 . S
H627 C595 0.930 . S
Li628 N645 1.990 . S
Li628 O688 1.956 . S
Li628 O689 1.970 . S
Li628 O690 1.961 . S
Li629 N653 1.990 . S
Li629 O688 1.970 . S
Li629 O689 1.956 . S
Li629 O691 1.961 . S
Li630 N675 1.990 . S
Li630 O688 1.961 . S
Li630 O690 1.956 . S
Li630 O691 1.970 . S
Li631 N681 1.990 . S
Li631 O689 1.961 . S
Li631 O690 1.970 . S
Li631 O691 1.956 . S
C632 C634 1.348 . S
C632 C635 1.356 . S
C632 O688 1.325 . S
N633 C636 1.314 . S
N633 C637 1.279 . S
C634 C632 1.348 . S
C634 C636 1.353 . S
C634 H692 0.929 . S
C635 C632 1.356 . S
C635 C637 1.358 . S
C635 H693 0.930 . S
C636 N633 1.314 . S
C636 C634 1.353 . S
C636 H694 0.930 . S
C637 N633 1.279 . S
C637 C635 1.358 . S
C637 H695 0.930 . S
C638 C641 1.348 . S
C638 C642 1.356 . S
C638 O689 1.325 . S
C639 N640 1.279 . S
C639 C642 1.358 . S
C639 H696 0.930 . S
N640 C639 1.279 . S
N640 C643 1.314 . S
C641 C638 1.348 . S
C641 C643 1.353 . S
C641 H697 0.929 . S
C642 C638 1.356 . S
C642 C639 1.358 . S
C642 H698 0.930 . S
C643 N640 1.314 . S
C643 C641 1.353 . S
C643 H699 0.930 . S
C644 N645 1.314 . S
C644 C649 1.353 . S
C644 H650 0.930 . S
N645 Li628 1.990 . S
N645 C644 1.314 . S
N645 C647 1.279 . S
C646 C647 1.358 . S
C646 C648 1.356 . S
C646 H700 0.930 . S
C647 N645 1.279 . S
C647 C646 1.358 . S
C647 H651 0.930 . S
C648 C646 1.356 . S
C648 C649 1.348 . S
C649 C644 1.353 . S
C649 C648 1.348 . S
C649 H701 0.929 . S
H650 C644 0.930 . S
H651 C647 0.930 . S
C652 N653 1.314 . S
C652 C654 1.353 . S
C652 H658 0.930 . S
N653 Li629 1.990 . S
N653 C652 1.314 . S
N653 C656 1.279 . S
C654 C652 1.353 . S
C654 C657 1.348 . S
C654 H702 0.929 . S
C655 C656 1.358 . S
C655 C657 1.356 . S
C655 H703 0.930 . S
C656 N653 1.279 . S
C656 C655 1.358 . S
C656 H659 0.930 . S
C657 C654 1.348 . S
C657 C655 1.356 . S
H658 C652 0.930 . S
H659 C656 0.930 . S
C660 C662 1.348 . S
C660 C663 1.356 . S
C660 O690 1.325 . S
N661 C664 1.314 . S
N661 C665 1.279 . S
C662 C660 1.348 . S
C662 C664 1.353 . S
C662 H704 0.929 . S
C663 C660 1.356 . S
C663 C665 1.358 . S
C663 H705 0.930 . S
C664 N661 1.314 . S
C664 C662 1.353 . S
C664 H706 0.930 . S
C665 N661 1.279 . S
C665 C663 1.358 . S
C665 H707 0.930 . S
C666 C667 1.348 . S
C666 C668 1.356 . S
C666 O691 1.325 . S
C667 C666 1.348 . S
C667 C669 1.353 . S
C667 H708 0.929 . S
C668 C666 1.356 . S
C668 C670 1.358 . S
C668 H709 0.930 . S
C669 C667 1.353 . S
C669 N671 1.314 . S
C669 H710 0.930 . S
C670 C668 1.358 . S
C670 N671 1.279 . S
C670 H711 0.930 . S
N671 C669 1.314 . S
N671 C670 1.279 . S
C672 C674 1.353 . S
C672 N675 1.314 . S
C672 H678 0.930 . S
C673 N675 1.279 . S
C673 C676 1.358 . S
C673 H679 0.930 . S
C674 C672 1.353 . S
C674 C677 1.348 . S
C674 H712 0.929 . S
N675 Li630 1.990 . S
N675 C672 1.314 . S
N675 C673 1.279 . S
C676 C673 1.358 . S
C676 C677 1.356 . S
C676 H713 0.930 . S
C677 C674 1.348 . S
C677 C676 1.356 . S
H678 C672 0.930 . S
H679 C673 0.930 . S
C680 N681 1.314 . S
C680 C682 1.353 . S
C680 H686 0.930 . S
N681 Li631 1.990 . S
N681 C680 1.314 . S
N681 C684 1.279 . S
C682 C680 1.353 . S
C682 C685 1.348 . S
C682 H714 0.929 . S
C683 C684 1.358 . S
C683 C685 1.356 . S
C683 H715 0.930 . S
C684 N681 1.279 . S
C684 C683 1.358 . S
C684 H687 0.930 . S
C685 C682 1.348 . S
C685 C683 1.356 . S
H686 C680 0.930 . S
H687 C684 0.930 . S
O688 Li628 1.956 . S
O688 Li629 1.970 . S
O688 Li630 1.961 . S
O688 C632 1.325 . S
O689 Li628 1.970 . S
O689 Li629 1.956 . S
O689 Li631 1.961 . S
O689 C638 1.325 . S
O690 Li628 1.961 . S
O690 Li630 1.956 . S
O690 Li631 1.970 . S
O690 C660 1.325 . S
O691 Li629 1.961 . S
O691 Li630 1.970 . S
O691 Li631 1.956 . S
O691 C666 1.325 . S
H692 C634 0.929 . S
H693 C635 0.930 . S
H694 C636 0.930 . S
H695 C637 0.930 . S
H696 C639 0.930 . S
H697 C641 0.929 . S
H698 C642 0.930 . S
H699 C643 0.930 . S
H700 C646 0.930 . S
H701 C649 0.929 . S
H702 C654 0.929 . S
H703 C655 0.930 . S
H704 C662 0.929 . S
H705 C663 0.930 . S
H706 C664 0.930 . S
H707 C665 0.930 . S
H708 C667 0.929 . S
H709 C668 0.930 . S
H710 C669 0.930 . S
H711 C670 0.930 . S
H712 C674 0.929 . S
H713 C676 0.930 . S
H714 C682 0.929 . S
H715 C683 0.930 . S
Li716 N733 1.990 . S
Li716 O776 1.956 . S
Li716 O777 1.970 . S
Li716 O778 1.961 . S
Li717 N741 1.990 . S
Li717 O776 1.970 . S
Li717 O777 1.956 . S
Li717 O779 1.961 . S
Li718 N763 1.990 . S
Li718 O776 1.961 . S
Li718 O778 1.956 . S
Li718 O779 1.970 . S
Li719 N769 1.990 . S
Li719 O777 1.961 . S
Li719 O778 1.970 . S
Li719 O779 1.956 . S
C720 C722 1.348 . S
C720 C723 1.356 . S
C720 O776 1.325 . S
N721 C724 1.314 . S
N721 C725 1.279 . S
C722 C720 1.348 . S
C722 C724 1.353 . S
C722 H780 0.929 . S
C723 C720 1.356 . S
C723 C725 1.358 . S
C723 H781 0.930 . S
C724 N721 1.314 . S
C724 C722 1.353 . S
C724 H782 0.930 . S
C725 N721 1.279 . S
C725 C723 1.358 . S
C725 H783 0.930 . S
C726 C729 1.348 . S
C726 C730 1.356 . S
C726 O777 1.325 . S
C727 N728 1.279 . S
C727 C730 1.358 . S
C727 H784 0.930 . S
N728 C727 1.279 . S
N728 C731 1.314 . S
C729 C726 1.348 . S
C729 C731 1.353 . S
C729 H785 0.929 . S
C730 C726 1.356 . S
C730 C727 1.358 . S
C730 H786 0.930 . S
C731 N728 1.314 . S
C731 C729 1.353 . S
C731 H787 0.930 . S
C732 N733 1.314 . S
C732 C737 1.353 . S
C732 H738 0.930 . S
N733 Li716 1.990 . S
N733 C732 1.314 . S
N733 C735 1.279 . S
C734 C735 1.358 . S
C734 C736 1.356 . S
C734 H788 0.930 . S
C735 N733 1.279 . S
C735 C734 1.358 . S
C735 H739 0.930 . S
C736 C734 1.356 . S
C736 C737 1.348 . S
C737 C732 1.353 . S
C737 C736 1.348 . S
C737 H789 0.929 . S
H738 C732 0.930 . S
H739 C735 0.930 . S
C740 N741 1.314 . S
C740 C742 1.353 . S
C740 H746 0.930 . S
N741 Li717 1.990 . S
N741 C740 1.314 . S
N741 C744 1.279 . S
C742 C740 1.353 . S
C742 C745 1.348 . S
C742 H790 0.929 . S
C743 C744 1.358 . S
C743 C745 1.356 . S
C743 H791 0.930 . S
C744 N741 1.279 . S
C744 C743 1.358 . S
C744 H747 0.930 . S
C745 C742 1.348 . S
C745 C743 1.356 . S
H746 C740 0.930 . S
H747 C744 0.930 . S
C748 C750 1.348 . S
C748 C751 1.356 . S
C748 O778 1.325 . S
N749 C752 1.314 . S
N749 C753 1.279 . S
C750 C748 1.348 . S
C750 C752 1.353 . S
C750 H792 0.929 . S
C751 C748 1.356 . S
C751 C753 1.358 . S
C751 H793 0.930 . S
C752 N749 1.314 . S
C752 C750 1.353 . S
C752 H794 0.930 . S
C753 N749 1.279 . S
C753 C751 1.358 . S
C753 H795 0.930 . S
C754 C755 1.348 . S
C754 C756 1.356 . S
C754 O779 1.325 . S
C755 C754 1.348 . S
C755 C757 1.353 . S
C755 H796 0.929 . S
C756 C754 1.356 . S
C756 C758 1.358 . S
C756 H797 0.930 . S
C757 C755 1.353 . S
C757 N759 1.314 . S
C757 H798 0.930 . S
C758 C756 1.358 . S
C758 N759 1.279 . S
C758 H799 0.930 . S
N759 C757 1.314 . S
N759 C758 1.279 . S
C760 C762 1.353 . S
C760 N763 1.314 . S
C760 H766 0.930 . S
C761 N763 1.279 . S
C761 C764 1.358 . S
C761 H767 0.930 . S
C762 C760 1.353 . S
C762 C765 1.348 . S
C762 H800 0.929 . S
N763 Li718 1.990 . S
N763 C760 1.314 . S
N763 C761 1.279 . S
C764 C761 1.358 . S
C764 C765 1.356 . S
C764 H801 0.930 . S
C765 C762 1.348 . S
C765 C764 1.356 . S
H766 C760 0.930 . S
H767 C761 0.930 . S
C768 N769 1.314 . S
C768 C770 1.353 . S
C768 H774 0.930 . S
N769 Li719 1.990 . S
N769 C768 1.314 . S
N769 C772 1.279 . S
C770 C768 1.353 . S
C770 C773 1.348 . S
C770 H802 0.929 . S
C771 C772 1.358 . S
C771 C773 1.356 . S
C771 H803 0.930 . S
C772 N769 1.279 . S
C772 C771 1.358 . S
C772 H775 0.930 . S
C773 C770 1.348 . S
C773 C771 1.356 . S
H774 C768 0.930 . S
H775 C772 0.930 . S
O776 Li716 1.956 . S
O776 Li717 1.970 . S
O776 Li718 1.961 . S
O776 C720 1.325 . S
O777 Li716 1.970 . S
O777 Li717 1.956 . S
O777 Li719 1.961 . S
O777 C726 1.325 . S
O778 Li716 1.961 . S
O778 Li718 1.956 . S
O778 Li719 1.970 . S
O778 C748 1.325 . S
O779 Li717 1.961 . S
O779 Li718 1.970 . S
O779 Li719 1.956 . S
O779 C754 1.325 . S
H780 C722 0.929 . S
H781 C723 0.930 . S
H782 C724 0.930 . S
H783 C725 0.930 . S
H784 C727 0.930 . S
H785 C729 0.929 . S
H786 C730 0.930 . S
H787 C731 0.930 . S
H788 C734 0.930 . S
H789 C737 0.929 . S
H790 C742 0.929 . S
H791 C743 0.930 . S
H792 C750 0.929 . S
H793 C751 0.930 . S
H794 C752 0.930 . S
H795 C753 0.930 . S
H796 C755 0.929 . S
H797 C756 0.930 . S
H798 C757 0.930 . S
H799 C758 0.930 . S
H800 C762 0.929 . S
H801 C764 0.930 . S
H802 C770 0.929 . S
H803 C771 0.930 . S
C804 C805 1.349 . S
C804 C806 1.327 . S
C804 H829 0.950 . S
C805 C804 1.349 . S
C805 C821 1.349 . S
C806 C804 1.327 . S
C806 C825 1.429 . S
C806 H830 0.950 . S
C807 C824 1.574 . S
C807 C826 1.368 . S
C807 H831 0.949 . S
H808 C812 0.949 . S
C809 C810 1.349 . S
C809 C811 1.327 . S
C809 H832 0.950 . S
C810 C809 1.349 . S
C810 C822 1.349 . S
C811 C809 1.327 . S
C811 C827 1.429 . S
C811 H833 0.950 . S
C812 H808 0.949 . S
C812 C820 1.574 . S
C812 C828 1.368 . S
H813 C821 0.950 . S
H814 C819 0.950 . S
H815 C820 0.949 . S
H816 C822 0.950 . S
H817 C823 0.950 . S
H818 C824 0.949 . S
C819 H814 0.950 . S
C819 C821 1.327 . S
C819 C825 1.429 . S
C820 C812 1.574 . S
C820 H815 0.949 . S
C820 C826 1.368 . S
C821 C805 1.349 . S
C821 H813 0.950 . S
C821 C819 1.327 . S
C822 C810 1.349 . S
C822 H816 0.950 . S
C822 C823 1.327 . S
C823 H817 0.950 . S
C823 C822 1.327 . S
C823 C827 1.429 . S
C824 C807 1.574 . S
C824 H818 0.949 . S
C824 C828 1.368 . S
C825 C806 1.429 . S
C825 C819 1.429 . S
C825 C826 1.523 . S
C826 C807 1.368 . S
C826 C820 1.368 . S
C826 C825 1.523 . S
C827 C811 1.429 . S
C827 C823 1.429 . S
C827 C828 1.523 . S
C828 C812 1.368 . S
C828 C824 1.368 . S
C828 C827 1.523 . S
H829 C804 0.950 . S
H830 C806 0.950 . S
H831 C807 0.949 . S
H832 C809 0.950 . S
H833 C811 0.950 . S
C834 C835 1.349 . S
C834 C836 1.327 . S
C834 H859 0.950 . S
C835 C834 1.349 . S
C835 C851 1.349 . S
C836 C834 1.327 . S
C836 C855 1.429 . S
C836 H860 0.950 . S
C837 C854 1.574 . S
C837 C856 1.368 . S
C837 H861 0.949 . S
H838 C842 0.949 . S
C839 C840 1.349 . S
C839 C841 1.327 . S
C839 H862 0.950 . S
C840 C839 1.349 . S
C840 C852 1.349 . S
C841 C839 1.327 . S
C841 C857 1.429 . S
C841 H863 0.950 . S
C842 H838 0.949 . S
C842 C850 1.574 . S
C842 C858 1.368 . S
H843 C851 0.950 . S
H844 C849 0.950 . S
H845 C850 0.949 . S
H846 C852 0.950 . S
H847 C853 0.950 . S
H848 C854 0.949 . S
C849 H844 0.950 . S
C849 C851 1.327 . S
C849 C855 1.429 . S
C850 C842 1.574 . S
C850 H845 0.949 . S
C850 C856 1.368 . S
C851 C835 1.349 . S
C851 H843 0.950 . S
C851 C849 1.327 . S
C852 C840 1.349 . S
C852 H846 0.950 . S
C852 C853 1.327 . S
C853 H847 0.950 . S
C853 C852 1.327 . S
C853 C857 1.429 . S
C854 C837 1.574 . S
C854 H848 0.949 . S
C854 C858 1.368 . S
C855 C836 1.429 . S
C855 C849 1.429 . S
C855 C856 1.523 . S
C856 C837 1.368 . S
C856 C850 1.368 . S
C856 C855 1.523 . S
C857 C841 1.429 . S
C857 C853 1.429 . S
C857 C858 1.523 . S
C858 C842 1.368 . S
C858 C854 1.368 . S
C858 C857 1.523 . S
H859 C834 0.950 . S
H860 C836 0.950 . S
H861 C837 0.949 . S
H862 C839 0.950 . S
H863 C841 0.950 . S
C864 C865 1.349 . S
C864 C866 1.327 . S
C864 H889 0.950 . S
C865 C864 1.349 . S
C865 C881 1.349 . S
C866 C864 1.327 . S
C866 C885 1.429 . S
C866 H890 0.950 . S
C867 C884 1.574 . S
C867 C886 1.368 . S
C867 H891 0.949 . S
H868 C872 0.949 . S
C869 C870 1.349 . S
C869 C871 1.327 . S
C869 H892 0.950 . S
C870 C869 1.349 . S
C870 C882 1.349 . S
C871 C869 1.327 . S
C871 C887 1.429 . S
C871 H893 0.950 . S
C872 H868 0.949 . S
C872 C880 1.574 . S
C872 C888 1.368 . S
H873 C881 0.950 . S
H874 C879 0.950 . S
H875 C880 0.949 . S
H876 C882 0.950 . S
H877 C883 0.950 . S
H878 C884 0.949 . S
C879 H874 0.950 . S
C879 C881 1.327 . S
C879 C885 1.429 . S
C880 C872 1.574 . S
C880 H875 0.949 . S
C880 C886 1.368 . S
C881 C865 1.349 . S
C881 H873 0.950 . S
C881 C879 1.327 . S
C882 C870 1.349 . S
C882 H876 0.950 . S
C882 C883 1.327 . S
C883 H877 0.950 . S
C883 C882 1.327 . S
C883 C887 1.429 . S
C884 C867 1.574 . S
C884 H878 0.949 . S
C884 C888 1.368 . S
C885 C866 1.429 . S
C885 C879 1.429 . S
C885 C886 1.523 . S
C886 C867 1.368 . S
C886 C880 1.368 . S
C886 C885 1.523 . S
C887 C871 1.429 . S
C887 C883 1.429 . S
C887 C888 1.523 . S
C888 C872 1.368 . S
C888 C884 1.368 . S
C888 C887 1.523 . S
H889 C864 0.950 . S
H890 C866 0.950 . S
H891 C867 0.949 . S
H892 C869 0.950 . S
H893 C871 0.950 . S
C894 C895 1.349 . S
C894 C896 1.327 . S
C894 H919 0.950 . S
C895 C894 1.349 . S
C895 C911 1.349 . S
C896 C894 1.327 . S
C896 C915 1.429 . S
C896 H920 0.950 . S
C897 C914 1.574 . S
C897 C916 1.368 . S
C897 H921 0.949 . S
H898 C902 0.949 . S
C899 C900 1.349 . S
C899 C901 1.327 . S
C899 H922 0.950 . S
C900 C899 1.349 . S
C900 C912 1.349 . S
C901 C899 1.327 . S
C901 C917 1.429 . S
C901 H923 0.950 . S
C902 H898 0.949 . S
C902 C910 1.574 . S
C902 C918 1.368 . S
H903 C911 0.950 . S
H904 C909 0.950 . S
H905 C910 0.949 . S
H906 C912 0.950 . S
H907 C913 0.950 . S
H908 C914 0.949 . S
C909 H904 0.950 . S
C909 C911 1.327 . S
C909 C915 1.429 . S
C910 C902 1.574 . S
C910 H905 0.949 . S
C910 C916 1.368 . S
C911 C895 1.349 . S
C911 H903 0.950 . S
C911 C909 1.327 . S
C912 C900 1.349 . S
C912 H906 0.950 . S
C912 C913 1.327 . S
C913 H907 0.950 . S
C913 C912 1.327 . S
C913 C917 1.429 . S
C914 C897 1.574 . S
C914 H908 0.949 . S
C914 C918 1.368 . S
C915 C896 1.429 . S
C915 C909 1.429 . S
C915 C916 1.523 . S
C916 C897 1.368 . S
C916 C910 1.368 . S
C916 C915 1.523 . S
C917 C901 1.429 . S
C917 C913 1.429 . S
C917 C918 1.523 . S
C918 C902 1.368 . S
C918 C914 1.368 . S
C918 C917 1.523 . S
H919 C894 0.950 . S
H920 C896 0.950 . S
H921 C897 0.949 . S
H922 C899 0.950 . S
H923 C901 0.950 . S
C924 C925 1.349 . S
C924 C926 1.327 . S
C924 H949 0.950 . S
C925 C924 1.349 . S
C925 C941 1.349 . S
C926 C924 1.327 . S
C926 C945 1.429 . S
C926 H950 0.950 . S
C927 C944 1.574 . S
C927 C946 1.368 . S
C927 H951 0.949 . S
H928 C932 0.949 . S
C929 C930 1.349 . S
C929 C931 1.327 . S
C929 H952 0.950 . S
C930 C929 1.349 . S
C930 C942 1.349 . S
C931 C929 1.327 . S
C931 C947 1.429 . S
C931 H953 0.950 . S
C932 H928 0.949 . S
C932 C940 1.574 . S
C932 C948 1.368 . S
H933 C941 0.950 . S
H934 C939 0.950 . S
H935 C940 0.949 . S
H936 C942 0.950 . S
H937 C943 0.950 . S
H938 C944 0.949 . S
C939 H934 0.950 . S
C939 C941 1.327 . S
C939 C945 1.429 . S
C940 C932 1.574 . S
C940 H935 0.949 . S
C940 C946 1.368 . S
C941 C925 1.349 . S
C941 H933 0.950 . S
C941 C939 1.327 . S
C942 C930 1.349 . S
C942 H936 0.950 . S
C942 C943 1.327 . S
C943 H937 0.950 . S
C943 C942 1.327 . S
C943 C947 1.429 . S
C944 C927 1.574 . S
C944 H938 0.949 . S
C944 C948 1.368 . S
C945 C926 1.429 . S
C945 C939 1.429 . S
C945 C946 1.523 . S
C946 C927 1.368 . S
C946 C940 1.368 . S
C946 C945 1.523 . S
C947 C931 1.429 . S
C947 C943 1.429 . S
C947 C948 1.523 . S
C948 C932 1.368 . S
C948 C944 1.368 . S
C948 C947 1.523 . S
H949 C924 0.950 . S
H950 C926 0.950 . S
H951 C927 0.949 . S
H952 C929 0.950 . S
H953 C931 0.950 . S
C954 C955 1.349 . S
C954 C956 1.327 . S
C954 H979 0.950 . S
C955 C954 1.349 . S
C955 C971 1.349 . S
C956 C954 1.327 . S
C956 C975 1.429 . S
C956 H980 0.950 . S
C957 C974 1.574 . S
C957 C976 1.368 . S
C957 H981 0.949 . S
H958 C962 0.949 . S
C959 C960 1.349 . S
C959 C961 1.327 . S
C959 H982 0.950 . S
C960 C959 1.349 . S
C960 C972 1.349 . S
C961 C959 1.327 . S
C961 C977 1.429 . S
C961 H983 0.950 . S
C962 H958 0.949 . S
C962 C970 1.574 . S
C962 C978 1.368 . S
H963 C971 0.950 . S
H964 C969 0.950 . S
H965 C970 0.949 . S
H966 C972 0.950 . S
H967 C973 0.950 . S
H968 C974 0.949 . S
C969 H964 0.950 . S
C969 C971 1.327 . S
C969 C975 1.429 . S
C970 C962 1.574 . S
C970 H965 0.949 . S
C970 C976 1.368 . S
C971 C955 1.349 . S
C971 H963 0.950 . S
C971 C969 1.327 . S
C972 C960 1.349 . S
C972 H966 0.950 . S
C972 C973 1.327 . S
C973 H967 0.950 . S
C973 C972 1.327 . S
C973 C977 1.429 . S
C974 C957 1.574 . S
C974 H968 0.949 . S
C974 C978 1.368 . S
C975 C956 1.429 . S
C975 C969 1.429 . S
C975 C976 1.523 . S
C976 C957 1.368 . S
C976 C970 1.368 . S
C976 C975 1.523 . S
C977 C961 1.429 . S
C977 C973 1.429 . S
C977 C978 1.523 . S
C978 C962 1.368 . S
C978 C974 1.368 . S
C978 C977 1.523 . S
H979 C954 0.950 . S
H980 C956 0.950 . S
H981 C957 0.949 . S
H982 C959 0.950 . S
H983 C961 0.950 . S
C984 C985 1.349 . S
C984 C986 1.327 . S
C984 H1009 0.950 . S
C985 C984 1.349 . S
C985 C1001 1.349 . S
C986 C984 1.327 . S
C986 C1005 1.429 . S
C986 H1010 0.950 . S
C987 C1004 1.574 . S
C987 C1006 1.368 . S
C987 H1011 0.949 . S
H988 C992 0.949 . S
C989 C990 1.349 . S
C989 C991 1.327 . S
C989 H1012 0.950 . S
C990 C989 1.349 . S
C990 C1002 1.349 . S
C991 C989 1.327 . S
C991 C1007 1.429 . S
C991 H1013 0.950 . S
C992 H988 0.949 . S
C992 C1000 1.574 . S
C992 C1008 1.368 . S
H993 C1001 0.950 . S
H994 C999 0.950 . S
H995 C1000 0.949 . S
H996 C1002 0.950 . S
H997 C1003 0.950 . S
H998 C1004 0.949 . S
C999 H994 0.950 . S
C999 C1001 1.327 . S
C999 C1005 1.429 . S
C1000 C992 1.574 . S
C1000 H995 0.949 . S
C1000 C1006 1.368 . S
C1001 C985 1.349 . S
C1001 H993 0.950 . S
C1001 C999 1.327 . S
C1002 C990 1.349 . S
C1002 H996 0.950 . S
C1002 C1003 1.327 . S
C1003 H997 0.950 . S
C1003 C1002 1.327 . S
C1003 C1007 1.429 . S
C1004 C987 1.574 . S
C1004 H998 0.949 . S
C1004 C1008 1.368 . S
C1005 C986 1.429 . S
C1005 C999 1.429 . S
C1005 C1006 1.523 . S
C1006 C987 1.368 . S
C1006 C1000 1.368 . S
C1006 C1005 1.523 . S
C1007 C991 1.429 . S
C1007 C1003 1.429 . S
C1007 C1008 1.523 . S
C1008 C992 1.368 . S
C1008 C1004 1.368 . S
C1008 C1007 1.523 . S
H1009 C984 0.950 . S
H1010 C986 0.950 . S
H1011 C987 0.949 . S
H1012 C989 0.950 . S
H1013 C991 0.950 . S
C1014 C1015 1.349 . S
C1014 C1016 1.327 . S
C1014 H1039 0.950 . S
C1015 C1014 1.349 . S
C1015 C1031 1.349 . S
C1016 C1014 1.327 . S
C1016 C1035 1.429 . S
C1016 H1040 0.950 . S
C1017 C1034 1.574 . S
C1017 C1036 1.368 . S
C1017 H1041 0.949 . S
H1018 C1022 0.949 . S
C1019 C1020 1.349 . S
C1019 C1021 1.327 . S
C1019 H1042 0.950 . S
C1020 C1019 1.349 . S
C1020 C1032 1.349 . S
C1021 C1019 1.327 . S
C1021 C1037 1.429 . S
C1021 H1043 0.950 . S
C1022 H1018 0.949 . S
C1022 C1030 1.574 . S
C1022 C1038 1.368 . S
H1023 C1031 0.950 . S
H1024 C1029 0.950 . S
H1025 C1030 0.949 . S
H1026 C1032 0.950 . S
H1027 C1033 0.950 . S
H1028 C1034 0.949 . S
C1029 H1024 0.950 . S
C1029 C1031 1.327 . S
C1029 C1035 1.429 . S
C1030 C1022 1.574 . S
C1030 H1025 0.949 . S
C1030 C1036 1.368 . S
C1031 C1015 1.349 . S
C1031 H1023 0.950 . S
C1031 C1029 1.327 . S
C1032 C1020 1.349 . S
C1032 H1026 0.950 . S
C1032 C1033 1.327 . S
C1033 H1027 0.950 . S
C1033 C1032 1.327 . S
C1033 C1037 1.429 . S
C1034 C1017 1.574 . S
C1034 H1028 0.949 . S
C1034 C1038 1.368 . S
C1035 C1016 1.429 . S
C1035 C1029 1.429 . S
C1035 C1036 1.523 . S
C1036 C1017 1.368 . S
C1036 C1030 1.368 . S
C1036 C1035 1.523 . S
C1037 C1021 1.429 . S
C1037 C1033 1.429 . S
C1037 C1038 1.523 . S
C1038 C1022 1.368 . S
C1038 C1034 1.368 . S
C1038 C1037 1.523 . S
H1039 C1014 0.950 . S
H1040 C1016 0.950 . S
H1041 C1017 0.949 . S
H1042 C1019 0.950 . S
H1043 C1021 0.950 . S
C1044 C1045 1.349 . S
C1044 C1046 1.327 . S
C1044 H1069 0.950 . S
C1045 C1044 1.349 . S
C1045 C1061 1.349 . S
C1046 C1044 1.327 . S
C1046 C1065 1.429 . S
C1046 H1070 0.950 . S
C1047 C1064 1.574 . S
C1047 C1066 1.368 . S
C1047 H1071 0.949 . S
H1048 C1052 0.949 . S
C1049 C1050 1.349 . S
C1049 C1051 1.327 . S
C1049 H1072 0.950 . S
C1050 C1049 1.349 . S
C1050 C1062 1.349 . S
C1051 C1049 1.327 . S
C1051 C1067 1.429 . S
C1051 H1073 0.950 . S
C1052 H1048 0.949 . S
C1052 C1060 1.574 . S
C1052 C1068 1.368 . S
H1053 C1061 0.950 . S
H1054 C1059 0.950 . S
H1055 C1060 0.949 . S
H1056 C1062 0.950 . S
H1057 C1063 0.950 . S
H1058 C1064 0.949 . S
C1059 H1054 0.950 . S
C1059 C1061 1.327 . S
C1059 C1065 1.429 . S
C1060 C1052 1.574 . S
C1060 H1055 0.949 . S
C1060 C1066 1.368 . S
C1061 C1045 1.349 . S
C1061 H1053 0.950 . S
C1061 C1059 1.327 . S
C1062 C1050 1.349 . S
C1062 H1056 0.950 . S
C1062 C1063 1.327 . S
C1063 H1057 0.950 . S
C1063 C1062 1.327 . S
C1063 C1067 1.429 . S
C1064 C1047 1.574 . S
C1064 H1058 0.949 . S
C1064 C1068 1.368 . S
C1065 C1046 1.429 . S
C1065 C1059 1.429 . S
C1065 C1066 1.523 . S
C1066 C1047 1.368 . S
C1066 C1060 1.368 . S
C1066 C1065 1.523 . S
C1067 C1051 1.429 . S
C1067 C1063 1.429 . S
C1067 C1068 1.523 . S
C1068 C1052 1.368 . S
C1068 C1064 1.368 . S
C1068 C1067 1.523 . S
H1069 C1044 0.950 . S
H1070 C1046 0.950 . S
H1071 C1047 0.949 . S
H1072 C1049 0.950 . S
H1073 C1051 0.950 . S
C1074 C1075 1.349 . S
C1074 C1076 1.327 . S
C1074 H1099 0.950 . S
C1075 C1074 1.349 . S
C1075 C1091 1.349 . S
C1076 C1074 1.327 . S
C1076 C1095 1.429 . S
C1076 H1100 0.950 . S
C1077 C1094 1.574 . S
C1077 C1096 1.368 . S
C1077 H1101 0.949 . S
H1078 C1082 0.949 . S
C1079 C1080 1.349 . S
C1079 C1081 1.327 . S
C1079 H1102 0.950 . S
C1080 C1079 1.349 . S
C1080 C1092 1.349 . S
C1081 C1079 1.327 . S
C1081 C1097 1.429 . S
C1081 H1103 0.950 . S
C1082 H1078 0.949 . S
C1082 C1090 1.574 . S
C1082 C1098 1.368 . S
H1083 C1091 0.950 . S
H1084 C1089 0.950 . S
H1085 C1090 0.949 . S
H1086 C1092 0.950 . S
H1087 C1093 0.950 . S
H1088 C1094 0.949 . S
C1089 H1084 0.950 . S
C1089 C1091 1.327 . S
C1089 C1095 1.429 . S
C1090 C1082 1.574 . S
C1090 H1085 0.949 . S
C1090 C1096 1.368 . S
C1091 C1075 1.349 . S
C1091 H1083 0.950 . S
C1091 C1089 1.327 . S
C1092 C1080 1.349 . S
C1092 H1086 0.950 . S
C1092 C1093 1.327 . S
C1093 H1087 0.950 . S
C1093 C1092 1.327 . S
C1093 C1097 1.429 . S
C1094 C1077 1.574 . S
C1094 H1088 0.949 . S
C1094 C1098 1.368 . S
C1095 C1076 1.429 . S
C1095 C1089 1.429 . S
C1095 C1096 1.523 . S
C1096 C1077 1.368 . S
C1096 C1090 1.368 . S
C1096 C1095 1.523 . S
C1097 C1081 1.429 . S
C1097 C1093 1.429 . S
C1097 C1098 1.523 . S
C1098 C1082 1.368 . S
C1098 C1094 1.368 . S
C1098 C1097 1.523 . S
H1099 C1074 0.950 . S
H1100 C1076 0.950 . S
H1101 C1077 0.949 . S
H1102 C1079 0.950 . S
H1103 C1081 0.950 . S
C1104 C1105 1.349 . S
C1104 C1106 1.327 . S
C1104 H1129 0.950 . S
C1105 C1104 1.349 . S
C1105 C1121 1.349 . S
C1106 C1104 1.327 . S
C1106 C1125 1.429 . S
C1106 H1130 0.950 . S
C1107 C1124 1.574 . S
C1107 C1126 1.368 . S
C1107 H1131 0.949 . S
H1108 C1112 0.949 . S
C1109 C1110 1.349 . S
C1109 C1111 1.327 . S
C1109 H1132 0.950 . S
C1110 C1109 1.349 . S
C1110 C1122 1.349 . S
C1111 C1109 1.327 . S
C1111 C1127 1.429 . S
C1111 H1133 0.950 . S
C1112 H1108 0.949 . S
C1112 C1120 1.574 . S
C1112 C1128 1.368 . S
H1113 C1121 0.950 . S
H1114 C1119 0.950 . S
H1115 C1120 0.949 . S
H1116 C1122 0.950 . S
H1117 C1123 0.950 . S
H1118 C1124 0.949 . S
C1119 H1114 0.950 . S
C1119 C1121 1.327 . S
C1119 C1125 1.429 . S
C1120 C1112 1.574 . S
C1120 H1115 0.949 . S
C1120 C1126 1.368 . S
C1121 C1105 1.349 . S
C1121 H1113 0.950 . S
C1121 C1119 1.327 . S
C1122 C1110 1.349 . S
C1122 H1116 0.950 . S
C1122 C1123 1.327 . S
C1123 H1117 0.950 . S
C1123 C1122 1.327 . S
C1123 C1127 1.429 . S
C1124 C1107 1.574 . S
C1124 H1118 0.949 . S
C1124 C1128 1.368 . S
C1125 C1106 1.429 . S
C1125 C1119 1.429 . S
C1125 C1126 1.523 . S
C1126 C1107 1.368 . S
C1126 C1120 1.368 . S
C1126 C1125 1.523 . S
C1127 C1111 1.429 . S
C1127 C1123 1.429 . S
C1127 C1128 1.523 . S
C1128 C1112 1.368 . S
C1128 C1124 1.368 . S
C1128 C1127 1.523 . S
H1129 C1104 0.950 . S
H1130 C1106 0.950 . S
H1131 C1107 0.949 . S
H1132 C1109 0.950 . S
H1133 C1111 0.950 . S
C1134 C1135 1.349 . S
C1134 C1136 1.327 . S
C1134 H1159 0.950 . S
C1135 C1134 1.349 . S
C1135 C1151 1.349 . S
C1136 C1134 1.327 . S
C1136 C1155 1.429 . S
C1136 H1160 0.950 . S
C1137 C1154 1.574 . S
C1137 C1156 1.368 . S
C1137 H1161 0.949 . S
H1138 C1142 0.949 . S
C1139 C1140 1.349 . S
C1139 C1141 1.327 . S
C1139 H1162 0.950 . S
C1140 C1139 1.349 . S
C1140 C1152 1.349 . S
C1141 C1139 1.327 . S
C1141 C1157 1.429 . S
C1141 H1163 0.950 . S
C1142 H1138 0.949 . S
C1142 C1150 1.574 . S
C1142 C1158 1.368 . S
H1143 C1151 0.950 . S
H1144 C1149 0.950 . S
H1145 C1150 0.949 . S
H1146 C1152 0.950 . S
H1147 C1153 0.950 . S
H1148 C1154 0.949 . S
C1149 H1144 0.950 . S
C1149 C1151 1.327 . S
C1149 C1155 1.429 . S
C1150 C1142 1.574 . S
C1150 H1145 0.949 . S
C1150 C1156 1.368 . S
C1151 C1135 1.349 . S
C1151 H1143 0.950 . S
C1151 C1149 1.327 . S
C1152 C1140 1.349 . S
C1152 H1146 0.950 . S
C1152 C1153 1.327 . S
C1153 H1147 0.950 . S
C1153 C1152 1.327 . S
C1153 C1157 1.429 . S
C1154 C1137 1.574 . S
C1154 H1148 0.949 . S
C1154 C1158 1.368 . S
C1155 C1136 1.429 . S
C1155 C1149 1.429 . S
C1155 C1156 1.523 . S
C1156 C1137 1.368 . S
C1156 C1150 1.368 . S
C1156 C1155 1.523 . S
C1157 C1141 1.429 . S
C1157 C1153 1.429 . S
C1157 C1158 1.523 . S
C1158 C1142 1.368 . S
C1158 C1154 1.368 . S
C1158 C1157 1.523 . S
H1159 C1134 0.950 . S
H1160 C1136 0.950 . S
H1161 C1137 0.949 . S
H1162 C1139 0.950 . S
H1163 C1141 0.950 . S
C1164 C1165 1.349 . S
C1164 C1166 1.327 . S
C1164 H1189 0.950 . S
C1165 C1164 1.349 . S
C1165 C1181 1.349 . S
C1166 C1164 1.327 . S
C1166 C1185 1.429 . S
C1166 H1190 0.950 . S
C1167 C1184 1.574 . S
C1167 C1186 1.368 . S
C1167 H1191 0.949 . S
H1168 C1172 0.949 . S
C1169 C1170 1.349 . S
C1169 C1171 1.327 . S
C1169 H1192 0.950 . S
C1170 C1169 1.349 . S
C1170 C1182 1.349 . S
C1171 C1169 1.327 . S
C1171 C1187 1.429 . S
C1171 H1193 0.950 . S
C1172 H1168 0.949 . S
C1172 C1180 1.574 . S
C1172 C1188 1.368 . S
H1173 C1181 0.950 . S
H1174 C1179 0.950 . S
H1175 C1180 0.949 . S
H1176 C1182 0.950 . S
H1177 C1183 0.950 . S
H1178 C1184 0.949 . S
C1179 H1174 0.950 . S
C1179 C1181 1.327 . S
C1179 C1185 1.429 . S
C1180 C1172 1.574 . S
C1180 H1175 0.949 . S
C1180 C1186 1.368 . S
C1181 C1165 1.349 . S
C1181 H1173 0.950 . S
C1181 C1179 1.327 . S
C1182 C1170 1.349 . S
C1182 H1176 0.950 . S
C1182 C1183 1.327 . S
C1183 H1177 0.950 . S
C1183 C1182 1.327 . S
C1183 C1187 1.429 . S
C1184 C1167 1.574 . S
C1184 H1178 0.949 . S
C1184 C1188 1.368 . S
C1185 C1166 1.429 . S
C1185 C1179 1.429 . S
C1185 C1186 1.523 . S
C1186 C1167 1.368 . S
C1186 C1180 1.368 . S
C1186 C1185 1.523 . S
C1187 C1171 1.429 . S
C1187 C1183 1.429 . S
C1187 C1188 1.523 . S
C1188 C1172 1.368 . S
C1188 C1184 1.368 . S
C1188 C1187 1.523 . S
H1189 C1164 0.950 . S
H1190 C1166 0.950 . S
H1191 C1167 0.949 . S
H1192 C1169 0.950 . S
H1193 C1171 0.950 . S
C1194 C1195 1.349 . S
C1194 C1196 1.327 . S
C1194 H1219 0.950 . S
C1195 C1194 1.349 . S
C1195 C1211 1.349 . S
C1196 C1194 1.327 . S
C1196 C1215 1.429 . S
C1196 H1220 0.950 . S
C1197 C1214 1.574 . S
C1197 C1216 1.368 . S
C1197 H1221 0.949 . S
H1198 C1202 0.949 . S
C1199 C1200 1.349 . S
C1199 C1201 1.327 . S
C1199 H1222 0.950 . S
C1200 C1199 1.349 . S
C1200 C1212 1.349 . S
C1201 C1199 1.327 . S
C1201 C1217 1.429 . S
C1201 H1223 0.950 . S
C1202 H1198 0.949 . S
C1202 C1210 1.574 . S
C1202 C1218 1.368 . S
H1203 C1211 0.950 . S
H1204 C1209 0.950 . S
H1205 C1210 0.949 . S
H1206 C1212 0.950 . S
H1207 C1213 0.950 . S
H1208 C1214 0.949 . S
C1209 H1204 0.950 . S
C1209 C1211 1.327 . S
C1209 C1215 1.429 . S
C1210 C1202 1.574 . S
C1210 H1205 0.949 . S
C1210 C1216 1.368 . S
C1211 C1195 1.349 . S
C1211 H1203 0.950 . S
C1211 C1209 1.327 . S
C1212 C1200 1.349 . S
C1212 H1206 0.950 . S
C1212 C1213 1.327 . S
C1213 H1207 0.950 . S
C1213 C1212 1.327 . S
C1213 C1217 1.429 . S
C1214 C1197 1.574 . S
C1214 H1208 0.949 . S
C1214 C1218 1.368 . S
C1215 C1196 1.429 . S
C1215 C1209 1.429 . S
C1215 C1216 1.523 . S
C1216 C1197 1.368 . S
C1216 C1210 1.368 . S
C1216 C1215 1.523 . S
C1217 C1201 1.429 . S
C1217 C1213 1.429 . S
C1217 C1218 1.523 . S
C1218 C1202 1.368 . S
C1218 C1214 1.368 . S
C1218 C1217 1.523 . S
H1219 C1194 0.950 . S
H1220 C1196 0.950 . S
H1221 C1197 0.949 . S
H1222 C1199 0.950 . S
H1223 C1201 0.950 . S
C1224 C1225 1.349 . S
C1224 C1226 1.327 . S
C1224 H1249 0.950 . S
C1225 C1224 1.349 . S
C1225 C1241 1.349 . S
C1226 C1224 1.327 . S
C1226 C1245 1.429 . S
C1226 H1250 0.950 . S
C1227 C1244 1.574 . S
C1227 C1246 1.368 . S
C1227 H1251 0.949 . S
H1228 C1232 0.949 . S
C1229 C1230 1.349 . S
C1229 C1231 1.327 . S
C1229 H1252 0.950 . S
C1230 C1229 1.349 . S
C1230 C1242 1.349 . S
C1231 C1229 1.327 . S
C1231 C1247 1.429 . S
C1231 H1253 0.950 . S
C1232 H1228 0.949 . S
C1232 C1240 1.574 . S
C1232 C1248 1.368 . S
H1233 C1241 0.950 . S
H1234 C1239 0.950 . S
H1235 C1240 0.949 . S
H1236 C1242 0.950 . S
H1237 C1243 0.950 . S
H1238 C1244 0.949 . S
C1239 H1234 0.950 . S
C1239 C1241 1.327 . S
C1239 C1245 1.429 . S
C1240 C1232 1.574 . S
C1240 H1235 0.949 . S
C1240 C1246 1.368 . S
C1241 C1225 1.349 . S
C1241 H1233 0.950 . S
C1241 C1239 1.327 . S
C1242 C1230 1.349 . S
C1242 H1236 0.950 . S
C1242 C1243 1.327 . S
C1243 H1237 0.950 . S
C1243 C1242 1.327 . S
C1243 C1247 1.429 . S
C1244 C1227 1.574 . S
C1244 H1238 0.949 . S
C1244 C1248 1.368 . S
C1245 C1226 1.429 . S
C1245 C1239 1.429 . S
C1245 C1246 1.523 . S
C1246 C1227 1.368 . S
C1246 C1240 1.368 . S
C1246 C1245 1.523 . S
C1247 C1231 1.429 . S
C1247 C1243 1.429 . S
C1247 C1248 1.523 . S
C1248 C1232 1.368 . S
C1248 C1244 1.368 . S
C1248 C1247 1.523 . S
H1249 C1224 0.950 . S
H1250 C1226 0.950 . S
H1251 C1227 0.949 . S
H1252 C1229 0.950 . S
H1253 C1231 0.950 . S
C1254 C1255 1.349 . S
C1254 C1256 1.327 . S
C1254 H1279 0.950 . S
C1255 C1254 1.349 . S
C1255 C1271 1.349 . S
C1256 C1254 1.327 . S
C1256 C1275 1.429 . S
C1256 H1280 0.950 . S
C1257 C1274 1.574 . S
C1257 C1276 1.368 . S
C1257 H1281 0.949 . S
H1258 C1262 0.949 . S
C1259 C1260 1.349 1_556 S
C1259 C1261 1.327 . S
C1259 H1282 0.950 . S
C1260 C1259 1.349 1_554 S
C1260 C1272 1.353 . S
C1261 C1259 1.327 . S
C1261 C1277 1.429 . S
C1261 H1283 0.950 . S
C1262 H1258 0.949 . S
C1262 C1270 1.574 . S
C1262 C1278 1.368 . S
H1263 C1271 0.950 . S
H1264 C1269 0.950 . S
H1265 C1270 0.949 . S
H1266 C1272 0.970 . S
H1267 C1273 0.950 . S
H1268 C1274 0.949 . S
C1269 H1264 0.950 . S
C1269 C1271 1.327 . S
C1269 C1275 1.429 . S
C1270 C1262 1.574 . S
C1270 H1265 0.949 . S
C1270 C1276 1.368 . S
C1271 C1255 1.349 . S
C1271 H1263 0.950 . S
C1271 C1269 1.327 . S
C1272 C1260 1.353 . S
C1272 H1266 0.970 . S
C1272 C1273 1.304 1_554 S
C1273 H1267 0.950 . S
C1273 C1272 1.304 1_556 S
C1273 C1277 1.429 . S
C1274 C1257 1.574 . S
C1274 H1268 0.949 . S
C1274 C1278 1.368 . S
C1275 C1256 1.429 . S
C1275 C1269 1.429 . S
C1275 C1276 1.523 . S
C1276 C1257 1.368 . S
C1276 C1270 1.368 . S
C1276 C1275 1.523 . S
C1277 C1261 1.429 . S
C1277 C1273 1.429 . S
C1277 C1278 1.523 . S
C1278 C1262 1.368 . S
C1278 C1274 1.368 . S
C1278 C1277 1.523 . S
H1279 C1254 0.950 . S
H1280 C1256 0.950 . S
H1281 C1257 0.949 . S
H1282 C1259 0.950 . S
H1283 C1261 0.950 . S
C1284 C1285 1.349 . S
C1284 C1286 1.327 . S
C1284 H1309 0.950 . S
C1285 C1284 1.349 . S
C1285 C1301 1.349 . S
C1286 C1284 1.327 . S
C1286 C1305 1.429 . S
C1286 H1310 0.950 . S
C1287 C1304 1.574 . S
C1287 C1306 1.368 . S
C1287 H1311 0.949 . S
H1288 C1292 0.949 . S
C1289 C1290 1.349 . S
C1289 C1291 1.327 . S
C1289 H1312 0.950 . S
C1290 C1289 1.349 . S
C1290 C1302 1.349 . S
C1291 C1289 1.327 . S
C1291 C1307 1.429 . S
C1291 H1313 0.950 . S
C1292 H1288 0.949 . S
C1292 C1300 1.574 . S
C1292 C1308 1.368 . S
H1293 C1301 0.950 . S
H1294 C1299 0.950 . S
H1295 C1300 0.949 . S
H1296 C1302 0.950 . S
H1297 C1303 0.950 . S
H1298 C1304 0.949 . S
C1299 H1294 0.950 . S
C1299 C1301 1.327 . S
C1299 C1305 1.429 . S
C1300 C1292 1.574 . S
C1300 H1295 0.949 . S
C1300 C1306 1.368 . S
C1301 C1285 1.349 . S
C1301 H1293 0.950 . S
C1301 C1299 1.327 . S
C1302 C1290 1.349 . S
C1302 H1296 0.950 . S
C1302 C1303 1.327 . S
C1303 H1297 0.950 . S
C1303 C1302 1.327 . S
C1303 C1307 1.429 . S
C1304 C1287 1.574 . S
C1304 H1298 0.949 . S
C1304 C1308 1.368 . S
C1305 C1286 1.429 . S
C1305 C1299 1.429 . S
C1305 C1306 1.523 . S
C1306 C1287 1.368 . S
C1306 C1300 1.368 . S
C1306 C1305 1.523 . S
C1307 C1291 1.429 . S
C1307 C1303 1.429 . S
C1307 C1308 1.523 . S
C1308 C1292 1.368 . S
C1308 C1304 1.368 . S
C1308 C1307 1.523 . S
H1309 C1284 0.950 . S
H1310 C1286 0.950 . S
H1311 C1287 0.949 . S
H1312 C1289 0.950 . S
H1313 C1291 0.950 . S
C1314 C1315 1.349 . S
C1314 C1316 1.327 . S
C1314 H1339 0.950 . S
C1315 C1314 1.349 . S
C1315 C1331 1.349 . S
C1316 C1314 1.327 . S
C1316 C1335 1.429 . S
C1316 H1340 0.950 . S
C1317 C1334 1.574 . S
C1317 C1336 1.368 . S
C1317 H1341 0.949 . S
H1318 C1322 0.949 . S
C1319 C1320 1.349 . S
C1319 C1321 1.327 . S
C1319 H1342 0.950 . S
C1320 C1319 1.349 . S
C1320 C1332 1.349 . S
C1321 C1319 1.327 . S
C1321 C1337 1.429 . S
C1321 H1343 0.950 . S
C1322 H1318 0.949 . S
C1322 C1330 1.574 . S
C1322 C1338 1.368 . S
H1323 C1331 0.950 . S
H1324 C1329 0.950 . S
H1325 C1330 0.949 . S
H1326 C1332 0.950 . S
H1327 C1333 0.950 . S
H1328 C1334 0.949 . S
C1329 H1324 0.950 . S
C1329 C1331 1.327 . S
C1329 C1335 1.429 . S
C1330 C1322 1.574 . S
C1330 H1325 0.949 . S
C1330 C1336 1.368 . S
C1331 C1315 1.349 . S
C1331 H1323 0.950 . S
C1331 C1329 1.327 . S
C1332 C1320 1.349 . S
C1332 H1326 0.950 . S
C1332 C1333 1.327 . S
C1333 H1327 0.950 . S
C1333 C1332 1.327 . S
C1333 C1337 1.429 . S
C1334 C1317 1.574 . S
C1334 H1328 0.949 . S
C1334 C1338 1.368 . S
C1335 C1316 1.429 . S
C1335 C1329 1.429 . S
C1335 C1336 1.523 . S
C1336 C1317 1.368 . S
C1336 C1330 1.368 . S
C1336 C1335 1.523 . S
C1337 C1321 1.429 . S
C1337 C1333 1.429 . S
C1337 C1338 1.523 . S
C1338 C1322 1.368 . S
C1338 C1334 1.368 . S
C1338 C1337 1.523 . S
H1339 C1314 0.950 . S
H1340 C1316 0.950 . S
H1341 C1317 0.949 . S
H1342 C1319 0.950 . S
H1343 C1321 0.950 . S
C1344 C1345 1.349 . S
C1344 C1346 1.327 . S
C1344 H1369 0.950 . S
C1345 C1344 1.349 . S
C1345 C1361 1.349 . S
C1346 C1344 1.327 . S
C1346 C1365 1.429 . S
C1346 H1370 0.950 . S
C1347 C1364 1.574 . S
C1347 C1366 1.368 . S
C1347 H1371 0.949 . S
H1348 C1352 0.949 . S
C1349 C1350 1.349 . S
C1349 C1351 1.327 . S
C1349 H1372 0.950 . S
C1350 C1349 1.349 . S
C1350 C1362 1.349 . S
C1351 C1349 1.327 . S
C1351 C1367 1.429 . S
C1351 H1373 0.950 . S
C1352 H1348 0.949 . S
C1352 C1360 1.574 . S
C1352 C1368 1.368 . S
H1353 C1361 0.950 . S
H1354 C1359 0.950 . S
H1355 C1360 0.949 . S
H1356 C1362 0.950 . S
H1357 C1363 0.950 . S
H1358 C1364 0.949 . S
C1359 H1354 0.950 . S
C1359 C1361 1.327 . S
C1359 C1365 1.429 . S
C1360 C1352 1.574 . S
C1360 H1355 0.949 . S
C1360 C1366 1.368 . S
C1361 C1345 1.349 . S
C1361 H1353 0.950 . S
C1361 C1359 1.327 . S
C1362 C1350 1.349 . S
C1362 H1356 0.950 . S
C1362 C1363 1.327 . S
C1363 H1357 0.950 . S
C1363 C1362 1.327 . S
C1363 C1367 1.429 . S
C1364 C1347 1.574 . S
C1364 H1358 0.949 . S
C1364 C1368 1.368 . S
C1365 C1346 1.429 . S
C1365 C1359 1.429 . S
C1365 C1366 1.523 . S
C1366 C1347 1.368 . S
C1366 C1360 1.368 . S
C1366 C1365 1.523 . S
C1367 C1351 1.429 . S
C1367 C1363 1.429 . S
C1367 C1368 1.523 . S
C1368 C1352 1.368 . S
C1368 C1364 1.368 . S
C1368 C1367 1.523 . S
H1369 C1344 0.950 . S
H1370 C1346 0.950 . S
H1371 C1347 0.949 . S
H1372 C1349 0.950 . S
H1373 C1351 0.950 . S
C1374 C1375 1.349 . S
C1374 C1376 1.327 . S
C1374 H1399 0.950 . S
C1375 C1374 1.349 . S
C1375 C1391 1.349 . S
C1376 C1374 1.327 . S
C1376 C1395 1.429 . S
C1376 H1400 0.950 . S
C1377 C1394 1.574 . S
C1377 C1396 1.368 . S
C1377 H1401 0.949 . S
H1378 C1382 0.949 . S
C1379 C1380 1.349 . S
C1379 C1381 1.327 . S
C1379 H1402 0.950 . S
C1380 C1379 1.349 . S
C1380 C1392 1.349 . S
C1381 C1379 1.327 . S
C1381 C1397 1.429 . S
C1381 H1403 0.950 . S
C1382 H1378 0.949 . S
C1382 C1390 1.574 . S
C1382 C1398 1.368 . S
H1383 C1391 0.950 . S
H1384 C1389 0.950 . S
H1385 C1390 0.949 . S
H1386 C1392 0.950 . S
H1387 C1393 0.950 . S
H1388 C1394 0.949 . S
C1389 H1384 0.950 . S
C1389 C1391 1.327 . S
C1389 C1395 1.429 . S
C1390 C1382 1.574 . S
C1390 H1385 0.949 . S
C1390 C1396 1.368 . S
C1391 C1375 1.349 . S
C1391 H1383 0.950 . S
C1391 C1389 1.327 . S
C1392 C1380 1.349 . S
C1392 H1386 0.950 . S
C1392 C1393 1.327 . S
C1393 H1387 0.950 . S
C1393 C1392 1.327 . S
C1393 C1397 1.429 . S
C1394 C1377 1.574 . S
C1394 H1388 0.949 . S
C1394 C1398 1.368 . S
C1395 C1376 1.429 . S
C1395 C1389 1.429 . S
C1395 C1396 1.523 . S
C1396 C1377 1.368 . S
C1396 C1390 1.368 . S
C1396 C1395 1.523 . S
C1397 C1381 1.429 . S
C1397 C1393 1.429 . S
C1397 C1398 1.523 . S
C1398 C1382 1.368 . S
C1398 C1394 1.368 . S
C1398 C1397 1.523 . S
H1399 C1374 0.950 . S
H1400 C1376 0.950 . S
H1401 C1377 0.949 . S
H1402 C1379 0.950 . S
H1403 C1381 0.950 . S
C1404 C1405 1.349 . S
C1404 C1406 1.327 . S
C1404 H1429 0.950 . S
C1405 C1404 1.349 . S
C1405 C1421 1.349 . S
C1406 C1404 1.327 . S
C1406 C1425 1.429 . S
C1406 H1430 0.950 . S
C1407 C1424 1.574 . S
C1407 C1426 1.368 . S
C1407 H1431 0.949 . S
H1408 C1412 0.949 . S
C1409 C1410 1.349 . S
C1409 C1411 1.327 . S
C1409 H1432 0.950 . S
C1410 C1409 1.349 . S
C1410 C1422 1.349 . S
C1411 C1409 1.327 . S
C1411 C1427 1.429 . S
C1411 H1433 0.950 . S
C1412 H1408 0.949 . S
C1412 C1420 1.574 . S
C1412 C1428 1.368 . S
H1413 C1421 0.950 . S
H1414 C1419 0.950 . S
H1415 C1420 0.949 . S
H1416 C1422 0.950 . S
H1417 C1423 0.950 . S
H1418 C1424 0.949 . S
C1419 H1414 0.950 . S
C1419 C1421 1.327 . S
C1419 C1425 1.429 . S
C1420 C1412 1.574 . S
C1420 H1415 0.949 . S
C1420 C1426 1.368 . S
C1421 C1405 1.349 . S
C1421 H1413 0.950 . S
C1421 C1419 1.327 . S
C1422 C1410 1.349 . S
C1422 H1416 0.950 . S
C1422 C1423 1.327 . S
C1423 H1417 0.950 . S
C1423 C1422 1.327 . S
C1423 C1427 1.429 . S
C1424 C1407 1.574 . S
C1424 H1418 0.949 . S
C1424 C1428 1.368 . S
C1425 C1406 1.429 . S
C1425 C1419 1.429 . S
C1425 C1426 1.523 . S
C1426 C1407 1.368 . S
C1426 C1420 1.368 . S
C1426 C1425 1.523 . S
C1427 C1411 1.429 . S
C1427 C1423 1.429 . S
C1427 C1428 1.523 . S
C1428 C1412 1.368 . S
C1428 C1424 1.368 . S
C1428 C1427 1.523 . S
H1429 C1404 0.950 . S
H1430 C1406 0.950 . S
H1431 C1407 0.949 . S
H1432 C1409 0.950 . S
H1433 C1411 0.950 . S
C1434 C1435 1.349 . S
C1434 C1436 1.327 . S
C1434 H1459 0.950 . S
C1435 C1434 1.349 . S
C1435 C1451 1.349 . S
C1436 C1434 1.327 . S
C1436 C1455 1.429 . S
C1436 H1460 0.950 . S
C1437 C1454 1.574 . S
C1437 C1456 1.368 . S
C1437 H1461 0.949 . S
H1438 C1442 0.949 . S
C1439 C1440 1.349 . S
C1439 C1441 1.327 . S
C1439 H1462 0.950 . S
C1440 C1439 1.349 . S
C1440 C1452 1.349 . S
C1441 C1439 1.327 . S
C1441 C1457 1.429 . S
C1441 H1463 0.950 . S
C1442 H1438 0.949 . S
C1442 C1450 1.574 . S
C1442 C1458 1.368 . S
H1443 C1451 0.950 . S
H1444 C1449 0.950 . S
H1445 C1450 0.949 . S
H1446 C1452 0.950 . S
H1447 C1453 0.950 . S
H1448 C1454 0.949 . S
C1449 H1444 0.950 . S
C1449 C1451 1.327 . S
C1449 C1455 1.429 . S
C1450 C1442 1.574 . S
C1450 H1445 0.949 . S
C1450 C1456 1.368 . S
C1451 C1435 1.349 . S
C1451 H1443 0.950 . S
C1451 C1449 1.327 . S
C1452 C1440 1.349 . S
C1452 H1446 0.950 . S
C1452 C1453 1.327 . S
C1453 H1447 0.950 . S
C1453 C1452 1.327 . S
C1453 C1457 1.429 . S
C1454 C1437 1.574 . S
C1454 H1448 0.949 . S
C1454 C1458 1.368 . S
C1455 C1436 1.429 . S
C1455 C1449 1.429 . S
C1455 C1456 1.523 . S
C1456 C1437 1.368 . S
C1456 C1450 1.368 . S
C1456 C1455 1.523 . S
C1457 C1441 1.429 . S
C1457 C1453 1.429 . S
C1457 C1458 1.523 . S
C1458 C1442 1.368 . S
C1458 C1454 1.368 . S
C1458 C1457 1.523 . S
H1459 C1434 0.950 . S
H1460 C1436 0.950 . S
H1461 C1437 0.949 . S
H1462 C1439 0.950 . S
H1463 C1441 0.950 . S
C1464 C1465 1.349 . S
C1464 C1466 1.327 . S
C1464 H1489 0.950 . S
C1465 C1464 1.349 . S
C1465 C1481 1.349 . S
C1466 C1464 1.327 . S
C1466 C1485 1.429 . S
C1466 H1490 0.950 . S
C1467 C1484 1.574 . S
C1467 C1486 1.368 . S
C1467 H1491 0.949 . S
H1468 C1472 0.949 . S
C1469 C1470 1.349 . S
C1469 C1471 1.327 1_556 S
C1469 H1492 0.950 . S
C1470 C1469 1.349 . S
C1470 C1482 1.349 . S
C1471 C1469 1.327 1_554 S
C1471 C1487 1.429 . S
C1471 H1493 0.950 . S
C1472 H1468 0.949 . S
C1472 C1480 1.574 . S
C1472 C1488 1.368 . S
H1473 C1481 0.950 . S
H1474 C1479 0.950 . S
H1475 C1480 0.949 . S
H1476 C1482 0.950 . S
H1477 C1483 0.950 . S
H1478 C1484 0.949 . S
C1479 H1474 0.950 . S
C1479 C1481 1.327 . S
C1479 C1485 1.429 . S
C1480 C1472 1.574 . S
C1480 H1475 0.949 . S
C1480 C1486 1.368 . S
C1481 C1465 1.349 . S
C1481 H1473 0.950 . S
C1481 C1479 1.327 . S
C1482 C1470 1.349 . S
C1482 H1476 0.950 . S
C1482 C1483 1.327 1_556 S
C1483 H1477 0.950 . S
C1483 C1482 1.327 1_554 S
C1483 C1487 1.429 . S
C1484 C1467 1.574 . S
C1484 H1478 0.949 . S
C1484 C1488 1.368 . S
C1485 C1466 1.429 . S
C1485 C1479 1.429 . S
C1485 C1486 1.523 . S
C1486 C1467 1.368 . S
C1486 C1480 1.368 . S
C1486 C1485 1.523 . S
C1487 C1471 1.429 . S
C1487 C1483 1.429 . S
C1487 C1488 1.523 . S
C1488 C1472 1.368 . S
C1488 C1484 1.368 . S
C1488 C1487 1.523 . S
H1489 C1464 0.950 . S
H1490 C1466 0.950 . S
H1491 C1467 0.949 . S
H1492 C1469 0.950 . S
H1493 C1471 0.950 . S
C1494 C1495 1.349 . S
C1494 C1496 1.327 . S
C1494 H1519 0.950 . S
C1495 C1494 1.349 . S
C1495 C1511 1.349 . S
C1496 C1494 1.327 . S
C1496 C1515 1.429 . S
C1496 H1520 0.950 . S
C1497 C1514 1.574 . S
C1497 C1516 1.368 . S
C1497 H1521 0.949 . S
H1498 C1502 0.949 . S
C1499 C1500 1.349 . S
C1499 C1501 1.327 . S
C1499 H1522 0.950 . S
C1500 C1499 1.349 . S
C1500 C1512 1.349 . S
C1501 C1499 1.327 . S
C1501 C1517 1.429 . S
C1501 H1523 0.950 . S
C1502 H1498 0.949 . S
C1502 C1510 1.574 . S
C1502 C1518 1.368 . S
H1503 C1511 0.950 . S
H1504 C1509 0.950 . S
H1505 C1510 0.949 . S
H1506 C1512 0.950 . S
H1507 C1513 0.950 . S
H1508 C1514 0.949 . S
C1509 H1504 0.950 . S
C1509 C1511 1.327 . S
C1509 C1515 1.429 . S
C1510 C1502 1.574 . S
C1510 H1505 0.949 . S
C1510 C1516 1.368 . S
C1511 C1495 1.349 . S
C1511 H1503 0.950 . S
C1511 C1509 1.327 . S
C1512 C1500 1.349 . S
C1512 H1506 0.950 . S
C1512 C1513 1.327 . S
C1513 H1507 0.950 . S
C1513 C1512 1.327 . S
C1513 C1517 1.429 . S
C1514 C1497 1.574 . S
C1514 H1508 0.949 . S
C1514 C1518 1.368 . S
C1515 C1496 1.429 . S
C1515 C1509 1.429 . S
C1515 C1516 1.523 . S
C1516 C1497 1.368 . S
C1516 C1510 1.368 . S
C1516 C1515 1.523 . S
C1517 C1501 1.429 . S
C1517 C1513 1.429 . S
C1517 C1518 1.523 . S
C1518 C1502 1.368 . S
C1518 C1514 1.368 . S
C1518 C1517 1.523 . S
H1519 C1494 0.950 . S
H1520 C1496 0.950 . S
H1521 C1497 0.949 . S
H1522 C1499 0.950 . S
H1523 C1501 0.950 . S
C810 C745 1.596 . S
C805 C15 1.574 . S
C835 C61 1.574 . S
C840 C305 1.596 . S
C865 C114 1.574 . S
C870 C393 1.596 . S
C895 C139 1.588 . S
C900 C472 1.595 . S
C930 C569 1.596 . S
C925 C185 1.589 . S
C955 C245 1.574 . S
C960 C648 1.596 . S
C985 C47 1.588 . S
C990 C413 1.596 . S
C1015 C100 1.589 . S
C1020 C509 1.596 . S
C1045 C153 1.574 . S
C1050 C589 1.596 . S
C1080 C685 1.596 . S
C1075 C199 1.574 . S
C1110 C765 1.596 . S
C1105 C231 1.589 . S
C1140 C325 1.596 . S
C1135 C1 1.589 . S
C1165 C22 1.440 . S
C1170 C421 1.439 . S
C1195 C68 1.440 . S
C1200 C501 1.439 . S
C1230 C597 1.440 . S
C1225 C107 1.440 . S
C1255 C146 1.441 . S
C1260 C677 1.439 . S
C1290 C773 1.439 . S
C1285 C192 1.441 . S
C1320 C333 1.440 . S
C1315 C252 1.440 . S
C1350 C736 1.439 . S
C1345 C54 1.441 . S
C1375 C93 1.441 . S
C1380 C296 1.440 . S
C1410 C384 1.439 . S
C1405 C160 1.440 . S
C1435 C206 1.440 . S
C1440 C481 1.439 . S
C1465 C238 1.441 . S
C1470 C560 1.440 . S
C1495 C8 1.441 . S
C1500 C657 1.439 . S
