# Generated by pormake.
# Topology ptr, (4,4)-cn, num edge types: 1
# Building blocks:
#     Node 0, Type 0, BuildingBlock: GALJAG_clean_sbu_0, # of connection points: 4
#     Node 1, Type 0, BuildingBlock: GALJAG_clean_sbu_0, # of connection points: 4
#     Node 2, Type 0, BuildingBlock: GALJAG_clean_sbu_0, # of connection points: 4
#     Node 3, Type 0, BuildingBlock: GALJAG_clean_sbu_0, # of connection points: 4
#     Node 4, Type 0, BuildingBlock: GALJAG_clean_sbu_0, # of connection points: 4
#     Node 5, Type 0, BuildingBlock: GALJAG_clean_sbu_0, # of connection points: 4
#     Node 6, Type 0, BuildingBlock: GALJAG_clean_sbu_0, # of connection points: 4
#     Node 7, Type 0, BuildingBlock: GALJAG_clean_sbu_0, # of connection points: 4
#     Node 8, Type 0, BuildingBlock: GALJAG_clean_sbu_0, # of connection points: 4
#     Node 9, Type 0, BuildingBlock: GALJAG_clean_sbu_0, # of connection points: 4
#     Node 10, Type 0, BuildingBlock: GALJAG_clean_sbu_0, # of connection points: 4
#     Node 11, Type 0, BuildingBlock: GALJAG_clean_sbu_0, # of connection points: 4
#     Node 12, Type 0, BuildingBlock: GALJAG_clean_sbu_0, # of connection points: 4
#     Node 13, Type 0, BuildingBlock: GALJAG_clean_sbu_0, # of connection points: 4
#     Node 14, Type 0, BuildingBlock: GALJAG_clean_sbu_0, # of connection points: 4
#     Node 15, Type 0, BuildingBlock: GALJAG_clean_sbu_0, # of connection points: 4
#     Node 16, Type 0, BuildingBlock: GALJAG_clean_sbu_0, # of connection points: 4
#     Node 17, Type 0, BuildingBlock: GALJAG_clean_sbu_0, # of connection points: 4
#     Node 18, Type 1, BuildingBlock: NAWXER_clean_linker_0, # of connection points: 4
#     Node 19, Type 1, BuildingBlock: NAWXER_clean_linker_0, # of connection points: 4
#     Node 20, Type 1, BuildingBlock: NAWXER_clean_linker_0, # of connection points: 4
#     Node 21, Type 1, BuildingBlock: NAWXER_clean_linker_0, # of connection points: 4
#     Node 22, Type 1, BuildingBlock: NAWXER_clean_linker_0, # of connection points: 4
#     Node 23, Type 1, BuildingBlock: NAWXER_clean_linker_0, # of connection points: 4
#     Node 24, Type 1, BuildingBlock: NAWXER_clean_linker_0, # of connection points: 4
#     Node 25, Type 1, BuildingBlock: NAWXER_clean_linker_0, # of connection points: 4
#     Node 26, Type 1, BuildingBlock: NAWXER_clean_linker_0, # of connection points: 4
#     Node 27, Type 1, BuildingBlock: NAWXER_clean_linker_0, # of connection points: 4
#     Node 28, Type 1, BuildingBlock: NAWXER_clean_linker_0, # of connection points: 4
#     Node 29, Type 1, BuildingBlock: NAWXER_clean_linker_0, # of connection points: 4
#     Node 30, Type 1, BuildingBlock: NAWXER_clean_linker_0, # of connection points: 4
#     Node 31, Type 1, BuildingBlock: NAWXER_clean_linker_0, # of connection points: 4
#     Node 32, Type 1, BuildingBlock: NAWXER_clean_linker_0, # of connection points: 4
#     Node 33, Type 1, BuildingBlock: NAWXER_clean_linker_0, # of connection points: 4
#     Node 34, Type 1, BuildingBlock: NAWXER_clean_linker_0, # of connection points: 4
#     Node 35, Type 1, BuildingBlock: NAWXER_clean_linker_0, # of connection points: 4
#     Edge 36, Type (0, 1), BuildingBlock: TEMPAE_clean_linker_10, # of connection points: 2
#     Edge 37, Type (0, 1), BuildingBlock: TEMPAE_clean_linker_10, # of connection points: 2
#     Edge 38, Type (0, 1), BuildingBlock: TEMPAE_clean_linker_10, # of connection points: 2
#     Edge 39, Type (0, 1), BuildingBlock: TEMPAE_clean_linker_10, # of connection points: 2
#     Edge 40, Type (0, 1), BuildingBlock: TEMPAE_clean_linker_10, # of connection points: 2
#     Edge 41, Type (0, 1), BuildingBlock: TEMPAE_clean_linker_10, # of connection points: 2
#     Edge 42, Type (0, 1), BuildingBlock: TEMPAE_clean_linker_10, # of connection points: 2
#     Edge 43, Type (0, 1), BuildingBlock: TEMPAE_clean_linker_10, # of connection points: 2
#     Edge 44, Type (0, 1), BuildingBlock: TEMPAE_clean_linker_10, # of connection points: 2
#     Edge 45, Type (0, 1), BuildingBlock: TEMPAE_clean_linker_10, # of connection points: 2
#     Edge 46, Type (0, 1), BuildingBlock: TEMPAE_clean_linker_10, # of connection points: 2
#     Edge 47, Type (0, 1), BuildingBlock: TEMPAE_clean_linker_10, # of connection points: 2
#     Edge 48, Type (0, 1), BuildingBlock: TEMPAE_clean_linker_10, # of connection points: 2
#     Edge 49, Type (0, 1), BuildingBlock: TEMPAE_clean_linker_10, # of connection points: 2
#     Edge 50, Type (0, 1), BuildingBlock: TEMPAE_clean_linker_10, # of connection points: 2
#     Edge 51, Type (0, 1), BuildingBlock: TEMPAE_clean_linker_10, # of connection points: 2
#     Edge 52, Type (0, 1), BuildingBlock: TEMPAE_clean_linker_10, # of connection points: 2
#     Edge 53, Type (0, 1), BuildingBlock: TEMPAE_clean_linker_10, # of connection points: 2
#     Edge 54, Type (0, 1), BuildingBlock: TEMPAE_clean_linker_10, # of connection points: 2
#     Edge 55, Type (0, 1), BuildingBlock: TEMPAE_clean_linker_10, # of connection points: 2
#     Edge 56, Type (0, 1), BuildingBlock: TEMPAE_clean_linker_10, # of connection points: 2
#     Edge 57, Type (0, 1), BuildingBlock: TEMPAE_clean_linker_10, # of connection points: 2
#     Edge 58, Type (0, 1), BuildingBlock: TEMPAE_clean_linker_10, # of connection points: 2
#     Edge 59, Type (0, 1), BuildingBlock: TEMPAE_clean_linker_10, # of connection points: 2
#     Edge 60, Type (0, 1), BuildingBlock: TEMPAE_clean_linker_10, # of connection points: 2
#     Edge 61, Type (0, 1), BuildingBlock: TEMPAE_clean_linker_10, # of connection points: 2
#     Edge 62, Type (0, 1), BuildingBlock: TEMPAE_clean_linker_10, # of connection points: 2
#     Edge 63, Type (0, 1), BuildingBlock: TEMPAE_clean_linker_10, # of connection points: 2
#     Edge 64, Type (0, 1), BuildingBlock: TEMPAE_clean_linker_10, # of connection points: 2
#     Edge 65, Type (0, 1), BuildingBlock: TEMPAE_clean_linker_10, # of connection points: 2
#     Edge 66, Type (0, 1), BuildingBlock: TEMPAE_clean_linker_10, # of connection points: 2
#     Edge 67, Type (0, 1), BuildingBlock: TEMPAE_clean_linker_10, # of connection points: 2
#     Edge 68, Type (0, 1), BuildingBlock: TEMPAE_clean_linker_10, # of connection points: 2
#     Edge 69, Type (0, 1), BuildingBlock: TEMPAE_clean_linker_10, # of connection points: 2
#     Edge 70, Type (0, 1), BuildingBlock: TEMPAE_clean_linker_10, # of connection points: 2
#     Edge 71, Type (0, 1), BuildingBlock: TEMPAE_clean_linker_10, # of connection points: 2
#     Edge 72, Type (0, 1), BuildingBlock: TEMPAE_clean_linker_10, # of connection points: 2
#     Edge 73, Type (0, 1), BuildingBlock: TEMPAE_clean_linker_10, # of connection points: 2
#     Edge 74, Type (0, 1), BuildingBlock: TEMPAE_clean_linker_10, # of connection points: 2
#     Edge 75, Type (0, 1), BuildingBlock: TEMPAE_clean_linker_10, # of connection points: 2
#     Edge 76, Type (0, 1), BuildingBlock: TEMPAE_clean_linker_10, # of connection points: 2
#     Edge 77, Type (0, 1), BuildingBlock: TEMPAE_clean_linker_10, # of connection points: 2
#     Edge 78, Type (0, 1), BuildingBlock: TEMPAE_clean_linker_10, # of connection points: 2
#     Edge 79, Type (0, 1), BuildingBlock: TEMPAE_clean_linker_10, # of connection points: 2
#     Edge 80, Type (0, 1), BuildingBlock: TEMPAE_clean_linker_10, # of connection points: 2
#     Edge 81, Type (0, 1), BuildingBlock: TEMPAE_clean_linker_10, # of connection points: 2
#     Edge 82, Type (0, 1), BuildingBlock: TEMPAE_clean_linker_10, # of connection points: 2
#     Edge 83, Type (0, 1), BuildingBlock: TEMPAE_clean_linker_10, # of connection points: 2
#     Edge 84, Type (0, 1), BuildingBlock: TEMPAE_clean_linker_10, # of connection points: 2
#     Edge 85, Type (0, 1), BuildingBlock: TEMPAE_clean_linker_10, # of connection points: 2
#     Edge 86, Type (0, 1), BuildingBlock: TEMPAE_clean_linker_10, # of connection points: 2
#     Edge 87, Type (0, 1), BuildingBlock: TEMPAE_clean_linker_10, # of connection points: 2
#     Edge 88, Type (0, 1), BuildingBlock: TEMPAE_clean_linker_10, # of connection points: 2
#     Edge 89, Type (0, 1), BuildingBlock: TEMPAE_clean_linker_10, # of connection points: 2
#     Edge 90, Type (0, 1), BuildingBlock: TEMPAE_clean_linker_10, # of connection points: 2
#     Edge 91, Type (0, 1), BuildingBlock: TEMPAE_clean_linker_10, # of connection points: 2
#     Edge 92, Type (0, 1), BuildingBlock: TEMPAE_clean_linker_10, # of connection points: 2
#     Edge 93, Type (0, 1), BuildingBlock: TEMPAE_clean_linker_10, # of connection points: 2
#     Edge 94, Type (0, 1), BuildingBlock: TEMPAE_clean_linker_10, # of connection points: 2
#     Edge 95, Type (0, 1), BuildingBlock: TEMPAE_clean_linker_10, # of connection points: 2
#     Edge 96, Type (0, 1), BuildingBlock: TEMPAE_clean_linker_10, # of connection points: 2
#     Edge 97, Type (0, 1), BuildingBlock: TEMPAE_clean_linker_10, # of connection points: 2
#     Edge 98, Type (0, 1), BuildingBlock: TEMPAE_clean_linker_10, # of connection points: 2
#     Edge 99, Type (0, 1), BuildingBlock: TEMPAE_clean_linker_10, # of connection points: 2
#     Edge 100, Type (0, 1), BuildingBlock: TEMPAE_clean_linker_10, # of connection points: 2
#     Edge 101, Type (0, 1), BuildingBlock: TEMPAE_clean_linker_10, # of connection points: 2
#     Edge 102, Type (0, 1), BuildingBlock: TEMPAE_clean_linker_10, # of connection points: 2
#     Edge 103, Type (0, 1), BuildingBlock: TEMPAE_clean_linker_10, # of connection points: 2
#     Edge 104, Type (0, 1), BuildingBlock: TEMPAE_clean_linker_10, # of connection points: 2
#     Edge 105, Type (0, 1), BuildingBlock: TEMPAE_clean_linker_10, # of connection points: 2
#     Edge 106, Type (0, 1), BuildingBlock: TEMPAE_clean_linker_10, # of connection points: 2
#     Edge 107, Type (0, 1), BuildingBlock: TEMPAE_clean_linker_10, # of connection points: 2
# Relax obj value: 0.045
# Max RMSD: 0.081
# Mean RMSD: 0.066
data_MOF--net-ptr--node1-GALJAG_clean_sbu_0--node2-NAWXER_clean_linker_0--edge1-TEMPAE_clean_linker_10
_symmetry_space_group_name_H-M    P1
_symmetry_Int_Tables_number       1
_symmetry_cell_setting            triclinic
loop_
_symmetry_equiv_pos_as_xyz
'x, y, z'
_cell_length_a     86.836509
_cell_length_b     86.933154
_cell_length_c     68.213659
_cell_angle_alpha  90.045498
_cell_angle_beta   89.970313
_cell_angle_gamma 120.04969
loop_
_atom_site_label
_atom_site_type_symbol
_atom_site_fract_x
_atom_site_fract_y
_atom_site_fract_z
_atom_type_partial_charge
In0 In 0.00487 0.35092 0.00583 0.0
O1 O 0.98546 0.35144 0.02826 0.0
O2 O 0.01277 0.37157 0.02971 0.0
C3 C 0.97899 0.32104 0.98855 0.0
C4 C 0.02751 0.34333 0.02474 0.0
C5 C 0.01588 0.37536 0.97664 0.0
O6 O 0.97667 0.33371 0.99351 0.0
O7 O 0.99411 0.3233 0.99268 0.0
O8 O 0.00755 0.37573 0.99154 0.0
O9 O 0.01915 0.36276 0.97645 0.0
C10 C 0.99735 0.3652 0.03685 0.0
O11 O 0.03221 0.35327 0.00979 0.0
O12 O 0.01149 0.33711 0.02974 0.0
In13 In 0.6501 0.65307 0.00618 0.0
O14 O 0.64803 0.6322 0.02831 0.0
O15 O 0.62964 0.64146 0.03055 0.0
C16 C 0.67988 0.66007 0.98657 0.0
C17 C 0.65955 0.68469 0.02298 0.0
C18 C 0.62575 0.63606 0.97774 0.0
O19 O 0.67535 0.65132 0.00238 0.0
O20 O 0.66946 0.66531 0.98084 0.0
O21 O 0.63081 0.65192 0.98259 0.0
O22 O 0.63288 0.62886 0.98733 0.0
C23 C 0.63493 0.63142 0.0373 0.0
O24 O 0.64561 0.6763 0.01281 0.0
O25 O 0.66883 0.6773 0.02433 0.0
In26 In 0.34538 0.99742 0.00985 0.0
O27 O 0.34963 0.02539 0.00587 0.0
O28 O 0.32943 0.00431 0.98898 0.0
C29 C 0.37155 0.00552 0.03628 0.0
C30 C 0.35858 0.98803 0.9792 0.0
C31 C 0.31508 0.97624 0.02977 0.0
O32 O 0.36745 0.01685 0.03062 0.0
O33 O 0.36268 0.99045 0.02841 0.0
O34 O 0.31817 0.97214 0.01306 0.0
O35 O 0.32711 0.991 0.03618 0.0
C36 C 0.33765 0.02071 0.99294 0.0
O37 O 0.3497 0.97722 0.99263 0.0
O38 O 0.36076 0.0034 0.98121 0.0
In39 In 0.99938 0.65036 0.01216 0.0
O40 O 0.01745 0.64987 0.98787 0.0
O41 O 0.99034 0.62928 0.98862 0.0
C42 C 0.02365 0.68018 0.03058 0.0
C43 C 0.9767 0.65868 0.99474 0.0
C44 C 0.99161 0.62669 0.04152 0.0
O45 O 0.02813 0.67159 0.01923 0.0
O46 O 0.00711 0.6738 0.03238 0.0
O47 O 0.98362 0.63537 0.03958 0.0
O48 O 0.00323 0.62985 0.02866 0.0
C49 C 0.00521 0.63579 0.98015 0.0
O50 O 0.97139 0.64462 0.00463 0.0
O51 O 0.99337 0.66861 0.99395 0.0
In52 In 0.35085 0.35273 0.00884 0.0
O53 O 0.35021 0.37106 0.98521 0.0
O54 O 0.37301 0.36796 0.98697 0.0
C55 C 0.32087 0.34708 0.02731 0.0
C56 C 0.3441 0.32307 0.98924 0.0
C57 C 0.3746 0.36676 0.03851 0.0
O58 O 0.33147 0.3617 0.0193 0.0
O59 O 0.3252 0.33532 0.02561 0.0
O60 O 0.36467 0.35021 0.0364 0.0
O61 O 0.37265 0.37602 0.02565 0.0
C62 C 0.36535 0.37516 0.97839 0.0
O63 O 0.35521 0.32928 0.00312 0.0
O64 O 0.33631 0.33169 0.98551 0.0
In65 In 0.65409 0.00079 0.00896 0.0
O66 O 0.65548 0.01503 0.03794 0.0
O67 O 0.63055 0.00087 0.02365 0.0
C68 C 0.68465 0.02425 0.99106 0.0
C69 C 0.65903 0.9763 0.02777 0.0
C70 C 0.63309 0.99204 0.977 0.0
O71 O 0.67542 0.02906 0.00081 0.0
O72 O 0.67864 0.0077 0.99067 0.0
O73 O 0.63566 0.98076 0.98589 0.0
O74 O 0.64112 0.00746 0.98423 0.0
C75 C 0.63915 0.01014 0.03815 0.0
O76 O 0.64496 0.97218 0.01836 0.0
O77 O 0.67054 0.9926 0.02738 0.0
In78 In 0.66735 0.68337 0.34395 0.0
O79 O 0.64885 0.68243 0.36854 0.0
O80 O 0.67451 0.70539 0.366 0.0
C81 C 0.64333 0.65372 0.32502 0.0
C82 C 0.6903 0.67587 0.36231 0.0
C83 C 0.67575 0.70663 0.31406 0.0
O84 O 0.63875 0.6626 0.33576 0.0
O85 O 0.65987 0.65969 0.32411 0.0
O86 O 0.68374 0.69804 0.31673 0.0
O87 O 0.66379 0.70357 0.32645 0.0
C88 C 0.65993 0.69764 0.37513 0.0
O89 O 0.69543 0.69001 0.35267 0.0
O90 O 0.67369 0.66548 0.36245 0.0
In91 In 0.31834 0.98249 0.34279 0.0
O92 O 0.31985 0.96838 0.37068 0.0
O93 O 0.2944 0.96114 0.35934 0.0
C94 C 0.3482 0.98897 0.32371 0.0
C95 C 0.32499 0.01263 0.36134 0.0
C96 C 0.29648 0.96986 0.31153 0.0
O97 O 0.3389 0.97488 0.33336 0.0
O98 O 0.34261 -0.00015 0.32402 0.0
O99 O 0.29972 0.98409 0.32007 0.0
O100 O 0.30423 0.96221 0.31879 0.0
C101 C 0.30321 0.95887 0.37252 0.0
O102 O 0.31109 0.00355 0.35128 0.0
O103 O 0.33549 0.00659 0.36183 0.0
In104 In 0.01238 0.32823 0.34267 0.0
O105 O 0.0136 0.35507 0.33937 0.0
O106 O 0.00366 0.33692 0.31552 0.0
C107 C 0.03436 0.33706 0.37384 0.0
C108 C 0.0289 0.31928 0.31516 0.0
C109 C 0.98065 0.30541 0.3591 0.0
O110 O 0.03377 0.34864 0.3632 0.0
O111 O 0.0239 0.32121 0.36873 0.0
O112 O 0.99028 0.30027 0.35083 0.0
O113 O 0.98683 0.32198 0.35867 0.0
C114 C 0.00743 0.35194 0.32215 0.0
O115 O 0.01217 0.31137 0.31673 0.0
O116 O 0.0372 0.33141 0.3276 0.0
In117 In 0.66223 0.98063 0.34577 0.0
O118 O 0.68172 0.97914 0.32407 0.0
O119 O 0.65412 0.96078 0.32088 0.0
C120 C 0.6849 0.01058 0.36511 0.0
C121 C 0.63914 0.98904 0.32929 0.0
C122 C 0.65541 0.95651 0.37431 0.0
O123 O 0.68859 0.00676 0.34852 0.0
O124 O 0.6698 0.99938 0.37174 0.0
O125 O 0.64457 0.96166 0.36992 0.0
O126 O 0.66946 0.9634 0.3642 0.0
C127 C 0.66966 0.96624 0.31459 0.0
O128 O 0.63409 0.97449 0.33802 0.0
O129 O 0.65573 0.99947 0.32932 0.0
In130 In 0.0149 0.67845 0.34501 0.0
O131 O 0.01516 0.69791 0.32208 0.0
O132 O 0.03599 0.69184 0.3215 0.0
C133 C 0.9845 0.66939 0.36434 0.0
C134 C 0.00764 0.64729 0.32861 0.0
C135 C 0.03799 0.69715 0.37389 0.0
O136 O 0.98873 0.67836 0.34867 0.0
O137 O 0.99547 0.66481 0.36997 0.0
O138 O 0.03539 0.68213 0.36844 0.0
O139 O 0.02915 0.70267 0.36463 0.0
C140 C 0.02928 0.70035 0.31393 0.0
O141 O 0.02121 0.65629 0.33916 0.0
O142 O 0.99766 0.65385 0.32669 0.0
In143 In 0.32177 0.33408 0.34467 0.0
O144 O 0.31571 0.30584 0.35121 0.0
O145 O 0.3381 0.32723 0.36521 0.0
C146 C 0.29943 0.32825 0.31434 0.0
C147 C 0.30667 0.34161 0.37508 0.0
C148 C 0.35269 0.35609 0.32651 0.0
O149 O 0.30234 0.31632 0.32073 0.0
O150 O 0.30766 0.34287 0.32327 0.0
O151 O 0.34527 0.36161 0.33825 0.0
O152 O 0.34465 0.33944 0.32419 0.0
C153 C 0.32856 0.31064 0.36297 0.0
O154 O 0.32179 0.35278 0.36847 0.0
O155 O 0.29929 0.32687 0.36631 0.0
In156 In 0.33413 0.01651 0.68092 0.0
O157 O 0.36192 0.02027 0.68582 0.0
O158 O 0.34103 0.00251 0.70457 0.0
C159 C 0.34115 0.03988 0.65158 0.0
C160 C 0.32657 0.03282 0.70978 0.0
C161 C 0.31133 0.98588 0.66242 0.0
O162 O 0.35118 0.03363 0.65538 0.0
O163 O 0.32781 0.03451 0.66267 0.0
O164 O 0.30717 0.99079 0.67798 0.0
O165 O 0.32693 0.9962 0.65653 0.0
C166 C 0.35729 0.00981 0.70025 0.0
O167 O 0.3149 0.01824 0.70241 0.0
O168 O 0.34193 0.03914 0.70246 0.0
In169 In 0.98494 0.3193 0.67321 0.0
O170 O 0.98406 0.34509 0.67632 0.0
O171 O 0.9983 0.3394 0.69769 0.0
C172 C 0.96129 0.30269 0.64415 0.0
C173 C 0.96823 0.29526 0.70194 0.0
C174 C 0.01564 0.32797 0.65457 0.0
O175 O 0.96325 0.31668 0.65215 0.0
O176 O 0.97111 0.29711 0.65097 0.0
O177 O 0.01094 0.31877 0.67005 0.0
O178 O 0.00507 0.33298 0.64884 0.0
C179 C 0.99317 0.34985 0.69187 0.0
O180 O 0.98279 0.29804 0.69464 0.0
O181 O 0.96215 0.30446 0.6946 0.0
In182 In 0.68607 0.66627 0.67836 0.0
O183 O 0.69811 0.69338 0.66331 0.0
O184 O 0.67028 0.67936 0.66862 0.0
C185 C 0.70997 0.67614 0.70771 0.0
C186 C 0.69676 0.65342 0.64832 0.0
C187 C 0.6557 0.64317 0.69697 0.0
O188 O 0.70656 0.68707 0.69937 0.0
O189 O 0.70139 0.66048 0.70118 0.0
O190 O 0.66082 0.63901 0.68155 0.0
O191 O 0.66573 0.6589 0.70269 0.0
C192 C 0.68344 0.69297 0.66148 0.0
O193 O 0.68317 0.65509 0.64719 0.0
O194 O 0.70453 0.65775 0.66465 0.0
In195 In 0.32995 0.31553 0.67745 0.0
O196 O 0.34839 0.31231 0.65598 0.0
O197 O 0.32076 0.29312 0.65538 0.0
C198 C 0.3527 0.34613 0.69583 0.0
C199 C 0.30856 0.3247 0.65834 0.0
C200 C 0.32253 0.29171 0.70645 0.0
O201 O 0.35723 0.34055 0.68105 0.0
O202 O 0.33673 0.33642 0.70104 0.0
O203 O 0.31093 0.29498 0.69965 0.0
O204 O 0.33764 0.30034 0.69853 0.0
C205 C 0.33601 0.29837 0.64823 0.0
O206 O 0.30358 0.31523 0.67363 0.0
O207 O 0.32429 0.32974 0.65306 0.0
In208 In 0.68311 0.01556 0.67766 0.0
O209 O 0.69803 0.04442 0.66697 0.0
O210 O 0.68308 0.02426 0.64615 0.0
C211 C 0.65351 0.01009 0.69666 0.0
C212 C 0.67813 0.98554 0.65992 0.0
C213 C 0.70871 0.02782 0.70548 0.0
O214 O 0.66112 0.02221 0.68401 0.0
O215 O 0.66062 0.0007 0.69934 0.0
O216 O 0.71232 0.02947 0.68738 0.0
O217 O 0.69232 0.01959 0.70937 0.0
C218 C 0.69334 0.04057 0.64931 0.0
O219 O 0.69124 0.99463 0.671 0.0
O220 O 0.66752 0.99134 0.65828 0.0
In221 In 0.98178 0.66742 0.67706 0.0
O222 O 0.97134 0.63861 0.68682 0.0
O223 O 0.99807 0.65775 0.69359 0.0
C224 C 0.95705 0.65292 0.64826 0.0
C225 C 0.97228 0.68199 0.70646 0.0
C226 C 0.01137 0.69283 0.65891 0.0
O227 O 0.9734 0.65892 0.64527 0.0
O228 O 0.95309 0.65362 0.66589 0.0
O229 O 0.00041 0.6962 0.66725 0.0
O230 O 0.00752 0.67682 0.66005 0.0
C231 C 0.98574 0.64182 0.69487 0.0
O232 O 0.98212 0.67536 0.7091 0.0
O233 O 0.96782 0.68193 0.68886 0.0
C234 C 0.2214 0.3379 0.13083 0.0
C235 C 0.21851 0.32677 0.1146 0.0
C236 C 0.20725 0.33519 0.14291 0.0
C237 C 0.18996 0.3212 0.13908 0.0
C238 C 0.20119 0.31271 0.11093 0.0
C239 C 0.18705 0.31005 0.12297 0.0
C240 C 0.17463 0.31907 0.15068 0.0
C241 C 0.20759 0.30752 0.19321 0.0
C242 C 0.21255 0.3178 0.21042 0.0
C243 C 0.19534 0.30797 0.18022 0.0
C244 C 0.18815 0.31903 0.18402 0.0
C245 C 0.20539 0.32885 0.21414 0.0
C246 C 0.19333 0.32944 0.2011 0.0
C247 C 0.17417 0.31889 0.17139 0.0
C248 C 0.10035 0.30116 0.19236 0.0
C249 C 0.10408 0.31413 0.20677 0.0
C250 C 0.11389 0.30256 0.18002 0.0
C251 C 0.13135 0.31678 0.1822 0.0
C252 C 0.12149 0.32849 0.20864 0.0
C253 C 0.13504 0.32968 0.19662 0.0
C254 C 0.14613 0.31779 0.17052 0.0
C255 C 0.11524 0.33261 0.12927 0.0
C256 C 0.11023 0.32346 0.11127 0.0
C257 C 0.12678 0.33069 0.14197 0.0
C258 C 0.13314 0.31911 0.13734 0.0
C259 C 0.11672 0.31197 0.10659 0.0
C260 C 0.12801 0.30982 0.11949 0.0
C261 C 0.14658 0.31802 0.14982 0.0
H262 H 0.23451 0.34904 0.13388 0.0
H263 H 0.20974 0.3443 0.15492 0.0
H264 H 0.19854 0.30374 0.09873 0.0
H265 H 0.17379 0.29927 0.11965 0.0
H266 H 0.21277 0.29874 0.19011 0.0
H267 H 0.19115 0.29933 0.16753 0.0
H268 H 0.20913 0.33707 0.22717 0.0
H269 H 0.18794 0.33801 0.20445 0.0
H270 H 0.087 0.28996 0.19073 0.0
H271 H 0.11084 0.29235 0.16914 0.0
H272 H 0.12472 0.33853 0.2198 0.0
H273 H 0.14847 0.34067 0.19862 0.0
H274 H 0.11039 0.34142 0.13354 0.0
H275 H 0.13109 0.33874 0.15512 0.0
H276 H 0.11347 0.30496 0.09274 0.0
H277 H 0.13298 0.30107 0.11534 0.0
N278 N 0.16079 0.31854 0.14076 0.0
N279 N 0.15995 0.31831 0.18042 0.0
C280 C 0.66597 0.88351 0.1291 0.0
C281 C 0.67774 0.89248 0.11355 0.0
C282 C 0.66844 0.87187 0.14102 0.0
C283 C 0.68279 0.86902 0.13772 0.0
C284 C 0.69216 0.88968 0.11038 0.0
C285 C 0.69456 0.87795 0.12226 0.0
C286 C 0.68463 0.85559 0.14916 0.0
C287 C 0.69488 0.89873 0.19313 0.0
C288 C 0.68342 0.89301 0.20943 0.0
C289 C 0.69475 0.88635 0.17988 0.0
C290 C 0.68297 0.86807 0.18256 0.0
C291 C 0.67153 0.87474 0.2119 0.0
C292 C 0.67136 0.86243 0.19866 0.0
C293 C 0.68359 0.85455 0.16985 0.0
C294 C 0.69879 0.79665 0.19046 0.0
C295 C 0.68507 0.7871 0.20403 0.0
C296 C 0.69833 0.80944 0.17841 0.0
C297 C 0.68429 0.81302 0.18001 0.0
C298 C 0.67086 0.79043 0.20525 0.0
C299 C 0.67059 0.80342 0.1935 0.0
C300 C 0.68437 0.82753 0.1687 0.0
C301 C 0.66935 0.78346 0.12531 0.0
C302 C 0.68207 0.78729 0.11051 0.0
C303 C 0.67074 0.79681 0.13779 0.0
C304 C 0.68485 0.81431 0.13577 0.0
C305 C 0.69624 0.80486 0.10857 0.0
C306 C 0.69752 0.81827 0.12098 0.0
C307 C 0.68561 0.82865 0.1481 0.0
H308 H 0.65453 0.88509 0.13173 0.0
H309 H 0.65884 0.8647 0.15248 0.0
H310 H 0.70161 0.89654 0.09871 0.0
H311 H 0.70562 0.87583 0.11934 0.0
H312 H 0.70431 0.91271 0.19097 0.0
H313 H 0.70423 0.89105 0.16793 0.0
H314 H 0.66235 0.86994 0.22415 0.0
H315 H 0.66219 0.84842 0.2011 0.0
H316 H 0.7099 0.79432 0.18932 0.0
H317 H 0.70916 0.81689 0.16826 0.0
H318 H 0.66025 0.78338 0.21577 0.0
H319 H 0.65971 0.80608 0.19503 0.0
H320 H 0.65802 0.77021 0.12695 0.0
H321 H 0.66049 0.79355 0.14871 0.0
H322 H 0.70638 0.80827 0.09749 0.0
H323 H 0.70842 0.83174 0.11907 0.0
N324 N 0.68574 0.84266 0.1391 0.0
N325 N 0.6834 0.84049 0.17876 0.0
C326 C 0.11557 0.78237 0.13081 0.0
C327 C 0.10635 0.78455 0.11508 0.0
C328 C 0.12651 0.7967 0.14293 0.0
C329 C 0.12846 0.81351 0.13956 0.0
C330 C 0.10831 0.80143 0.11185 0.0
C331 C 0.1194 0.8158 0.12386 0.0
C332 C 0.14098 0.829 0.1514 0.0
C333 C 0.09617 0.79418 0.19306 0.0
C334 C 0.10169 0.78925 0.21014 0.0
C335 C 0.10874 0.8069 0.1803 0.0
C336 C 0.12704 0.81464 0.18427 0.0
C337 C 0.11997 0.79686 0.21389 0.0
C338 C 0.13248 0.80942 0.20114 0.0
C339 C 0.1407 0.82918 0.17208 0.0
C340 C 0.1994 0.90333 0.19298 0.0
C341 C 0.20526 0.8987 0.21001 0.0
C342 C 0.18713 0.89008 0.18043 0.0
C343 C 0.18089 0.87204 0.1845 0.0
C344 C 0.19894 0.88068 0.21403 0.0
C345 C 0.1869 0.86753 0.20144 0.0
C346 C 0.16732 0.85755 0.17214 0.0
C347 C 0.21425 0.88793 0.13214 0.0
C348 C 0.21072 0.89422 0.11468 0.0
C349 C 0.20036 0.87614 0.14425 0.0
C350 C 0.18263 0.87074 0.13947 0.0
C351 C 0.19293 0.88866 0.10985 0.0
C352 C 0.17905 0.87703 0.1221 0.0
C353 C 0.1677 0.85729 0.15142 0.0
H354 H 0.11469 0.76968 0.13352 0.0
H355 H 0.13377 0.79475 0.15465 0.0
H356 H 0.10122 0.80356 0.10009 0.0
H357 H 0.12086 0.82871 0.12093 0.0
H358 H 0.08215 0.78863 0.18991 0.0
H359 H 0.10414 0.81104 0.16771 0.0
H360 H 0.12463 0.79312 0.22677 0.0
H361 H 0.14648 0.8152 0.20457 0.0
H362 H 0.20398 0.91714 0.18964 0.0
H363 H 0.18233 0.89394 0.16776 0.0
H364 H 0.20342 0.87673 0.2269 0.0
H365 H 0.18228 0.85374 0.20498 0.0
H366 H 0.22777 0.89204 0.13644 0.0
H367 H 0.20351 0.871 0.15714 0.0
H368 H 0.18968 0.89295 0.09636 0.0
H369 H 0.16547 0.87278 0.11789 0.0
N370 N 0.1544 0.84309 0.1419 0.0
N371 N 0.15388 0.84345 0.18153 0.0
C372 C 0.32142 0.10988 0.83031 0.0
C373 C 0.30733 0.10128 0.81689 0.0
C374 C 0.32198 0.12262 0.84324 0.0
C375 C 0.30833 0.12684 0.84323 0.0
C376 C 0.29349 0.10522 0.8172 0.0
C377 C 0.29403 0.11792 0.83018 0.0
C378 C 0.30995 0.14195 0.8549 0.0
C379 C 0.30591 0.10254 0.90039 0.0
C380 C 0.32176 0.10816 0.9109 0.0
C381 C 0.30394 0.11443 0.88831 0.0
C382 C 0.31774 0.13215 0.88668 0.0
C383 C 0.33557 0.12587 0.90919 0.0
C384 C 0.33348 0.13781 0.89736 0.0
C385 C 0.31551 0.14504 0.87468 0.0
C386 C 0.30798 0.20755 0.89755 0.0
C387 C 0.32405 0.21782 0.90769 0.0
C388 C 0.30535 0.193 0.88627 0.0
C389 C 0.31872 0.18844 0.88506 0.0
C390 C 0.33742 0.21326 0.9064 0.0
C391 C 0.33469 0.19858 0.89534 0.0
C392 C 0.31586 0.17266 0.87391 0.0
C393 C 0.3212 0.21221 0.82776 0.0
C394 C 0.30671 0.20632 0.81484 0.0
C395 C 0.32212 0.20045 0.84102 0.0
C396 C 0.30844 0.18261 0.84184 0.0
C397 C 0.2929 0.18854 0.8159 0.0
C398 C 0.2938 0.1768 0.82921 0.0
C399 C 0.31017 0.16953 0.85418 0.0
H400 H 0.33246 0.10739 0.83017 0.0
H401 H 0.33352 0.12974 0.85259 0.0
H402 H 0.28239 0.09871 0.80714 0.0
H403 H 0.28343 0.12106 0.82976 0.0
H404 H 0.2951 0.08894 0.90144 0.0
H405 H 0.29155 0.10985 0.88047 0.0
H406 H 0.34786 0.13054 0.91728 0.0
H407 H 0.34422 0.15147 0.89643 0.0
H408 H 0.29749 0.21084 0.89828 0.0
H409 H 0.2928 0.18516 0.87873 0.0
H410 H 0.34985 0.22086 0.91424 0.0
H411 H 0.3451 0.19518 0.89472 0.0
H412 H 0.33222 0.22573 0.82705 0.0
H413 H 0.33389 0.20517 0.85005 0.0
H414 H 0.2815 0.18364 0.80623 0.0
H415 H 0.28317 0.16307 0.82942 0.0
N416 N 0.3074 0.15428 0.8455 0.0
N417 N 0.31836 0.16032 0.88337 0.0
C418 C 0.90094 0.20948 0.89178 0.0
C419 C 0.89416 0.21707 0.90497 0.0
C420 C 0.88942 0.19501 0.88009 0.0
C421 C 0.87094 0.18812 0.88108 0.0
C422 C 0.87568 0.21 0.90613 0.0
C423 C 0.86421 0.19568 0.89432 0.0
C424 C 0.85833 0.17245 0.86935 0.0
C425 C 0.89114 0.21376 0.8236 0.0
C426 C 0.89949 0.20838 0.80974 0.0
C427 C 0.87888 0.20154 0.83692 0.0
C428 C 0.87503 0.18379 0.83689 0.0
C429 C 0.8958 0.1907 0.80991 0.0
C430 C 0.88367 0.17853 0.82332 0.0
C431 C 0.86062 0.17017 0.84925 0.0
C432 C 0.79003 0.11121 0.82378 0.0
C433 C 0.79547 0.10252 0.81042 0.0
C434 C 0.80217 0.12374 0.83694 0.0
C435 C 0.81995 0.12768 0.83717 0.0
C436 C 0.8132 0.10628 0.8109 0.0
C437 C 0.82534 0.11882 0.82406 0.0
C438 C 0.8334 0.1423 0.8494 0.0
C439 C 0.79517 0.10105 0.89175 0.0
C440 C 0.78802 0.10733 0.90604 0.0
C441 C 0.80921 0.11299 0.87983 0.0
C442 C 0.81592 0.13141 0.88156 0.0
C443 C 0.79496 0.12569 0.90808 0.0
C444 C 0.80871 0.13759 0.89592 0.0
C445 C 0.83114 0.1445 0.86955 0.0
H446 H 0.91512 0.2145 0.89083 0.0
H447 H 0.89496 0.18906 0.87054 0.0
H448 H 0.8701 0.21565 0.91606 0.0
H449 H 0.85001 0.19054 0.89549 0.0
H450 H 0.89349 0.22723 0.82358 0.0
H451 H 0.87195 0.20583 0.84672 0.0
H452 H 0.90212 0.18621 0.79947 0.0
H453 H 0.88078 0.16488 0.82287 0.0
H454 H 0.77642 0.10852 0.82385 0.0
H455 H 0.79778 0.13072 0.84654 0.0
H456 H 0.81787 0.10001 0.80063 0.0
H457 H 0.83905 0.12185 0.82377 0.0
H458 H 0.79016 0.08693 0.89013 0.0
H459 H 0.81496 0.1078 0.86955 0.0
H460 H 0.78961 0.13082 0.91899 0.0
H461 H 0.81371 0.1517 0.89775 0.0
N462 N 0.84368 0.15953 0.8786 0.0
N463 N 0.84811 0.15515 0.84018 0.0
C464 C 0.79734 0.6987 0.89667 0.0
C465 C 0.78763 0.68298 0.90756 0.0
C466 C 0.81208 0.70151 0.88556 0.0
C467 C 0.81734 0.68865 0.88519 0.0
C468 C 0.79305 0.67022 0.90728 0.0
C469 C 0.80784 0.6731 0.89633 0.0
C470 C 0.83302 0.69141 0.8738 0.0
C471 C 0.79247 0.68486 0.82835 0.0
C472 C 0.7981 0.69907 0.81511 0.0
C473 C 0.80451 0.68417 0.84137 0.0
C474 C 0.82238 0.69783 0.84165 0.0
C475 C 0.81594 0.71284 0.81559 0.0
C476 C 0.82797 0.71219 0.82868 0.0
C477 C 0.83568 0.69634 0.85384 0.0
C478 C 0.89315 0.68204 0.82887 0.0
C479 C 0.90224 0.69601 0.81543 0.0
C480 C 0.88071 0.6821 0.84183 0.0
C481 C 0.87729 0.69628 0.84183 0.0
C482 C 0.89893 0.71028 0.81563 0.0
C483 C 0.88652 0.71035 0.82863 0.0
C484 C 0.86287 0.69569 0.85402 0.0
C485 C 0.90306 0.69684 0.89657 0.0
C486 C 0.89626 0.68321 0.91061 0.0
C487 C 0.89152 0.69954 0.88466 0.0
C488 C 0.87299 0.68823 0.88614 0.0
C489 C 0.8778 0.67219 0.91243 0.0
C490 C 0.86629 0.67464 0.90026 0.0
C491 C 0.86034 0.69099 0.87411 0.0
H492 H 0.79343 0.70873 0.89659 0.0
H493 H 0.81942 0.71377 0.87739 0.0
H494 H 0.78597 0.6581 0.91574 0.0
H495 H 0.81177 0.66307 0.89639 0.0
H496 H 0.77891 0.67386 0.82805 0.0
H497 H 0.79997 0.6726 0.85067 0.0
H498 H 0.82065 0.724 0.80563 0.0
H499 H 0.84173 0.72278 0.82849 0.0
H500 H 0.89546 0.6709 0.82919 0.0
H501 H 0.87341 0.67083 0.85147 0.0
H502 H 0.90547 0.7211 0.80527 0.0
H503 H 0.88391 0.7213 0.82815 0.0
H504 H 0.91728 0.70563 0.89514 0.0
H505 H 0.89711 0.71062 0.87456 0.0
H506 H 0.87229 0.66158 0.92315 0.0
H507 H 0.85208 0.66584 0.90189 0.0
N508 N 0.84544 0.68893 0.88309 0.0
N509 N 0.85051 0.69833 0.84479 0.0
C510 C 0.76562 0.63807 0.45853 0.0
C511 C 0.77221 0.65165 0.44443 0.0
C512 C 0.77732 0.63546 0.47025 0.0
C513 C 0.79582 0.64681 0.46853 0.0
C514 C 0.79066 0.6626 0.44225 0.0
C515 C 0.80234 0.66024 0.45423 0.0
C516 C 0.80862 0.64444 0.48076 0.0
C517 C 0.77517 0.65399 0.52436 0.0
C518 C 0.76637 0.64049 0.5384 0.0
C519 C 0.78799 0.65397 0.51199 0.0
C520 C 0.79198 0.6402 0.51305 0.0
C521 C 0.77042 0.62674 0.53941 0.0
C522 C 0.78311 0.62663 0.5269 0.0
C523 C 0.80641 0.6406 0.50107 0.0
C524 C 0.8774 0.65236 0.52637 0.0
C525 C 0.87203 0.63879 0.54042 0.0
C526 C 0.86508 0.65256 0.51336 0.0
C527 C 0.84716 0.63902 0.5139 0.0
C528 C 0.85413 0.62514 0.54077 0.0
C529 C 0.84181 0.62532 0.52771 0.0
C530 C 0.83364 0.64 0.50155 0.0
C531 C 0.87033 0.63471 0.45872 0.0
C532 C 0.8799 0.64981 0.44685 0.0
C533 C 0.8561 0.6328 0.47015 0.0
C534 C 0.85121 0.64594 0.46985 0.0
C535 C 0.87491 0.66288 0.44653 0.0
C536 C 0.8606 0.66088 0.4578 0.0
C537 C 0.83589 0.64398 0.48133 0.0
H538 H 0.75142 0.6293 0.46023 0.0
H539 H 0.77189 0.62451 0.48053 0.0
H540 H 0.79603 0.67317 0.43147 0.0
H541 H 0.81652 0.66905 0.45241 0.0
H542 H 0.77231 0.66473 0.52308 0.0
H543 H 0.79502 0.66491 0.50187 0.0
H544 H 0.76421 0.61633 0.55028 0.0
H545 H 0.78618 0.61603 0.52822 0.0
H546 H 0.89111 0.66302 0.52562 0.0
H547 H 0.8695 0.66361 0.5033 0.0
H548 H 0.84949 0.61464 0.55159 0.0
H549 H 0.82801 0.61488 0.52861 0.0
H550 H 0.87394 0.62446 0.45926 0.0
H551 H 0.84881 0.62099 0.47905 0.0
H552 H 0.88191 0.67453 0.43733 0.0
H553 H 0.85694 0.67109 0.45721 0.0
N554 N 0.82334 0.64607 0.4718 0.0
N555 N 0.81894 0.63839 0.51057 0.0
C556 C 0.33229 0.21512 0.46183 0.0
C557 C 0.34531 0.2249 0.44758 0.0
C558 C 0.33371 0.20276 0.47363 0.0
C559 C 0.34813 0.19988 0.47142 0.0
C560 C 0.35979 0.222 0.4455 0.0
C561 C 0.36108 0.20948 0.45717 0.0
C562 C 0.34912 0.18605 0.483 0.0
C563 C 0.3589 0.2292 0.5269 0.0
C564 C 0.34731 0.22346 0.54307 0.0
C565 C 0.35882 0.21683 0.51366 0.0
C566 C 0.34688 0.19856 0.51619 0.0
C567 C 0.33526 0.20522 0.54539 0.0
C568 C 0.33507 0.19293 0.53212 0.0
C569 C 0.3476 0.18499 0.50366 0.0
C570 C 0.36253 0.12776 0.52645 0.0
C571 C 0.34857 0.11816 0.53972 0.0
C572 C 0.36197 0.14013 0.51378 0.0
C573 C 0.34762 0.14326 0.51454 0.0
C574 C 0.33398 0.12093 0.54 0.0
C575 C 0.33362 0.13356 0.52768 0.0
C576 C 0.34781 0.15768 0.50295 0.0
C577 C 0.33232 0.11291 0.46074 0.0
C578 C 0.34485 0.11629 0.44586 0.0
C579 C 0.33395 0.12662 0.47279 0.0
C580 C 0.34815 0.14402 0.47029 0.0
C581 C 0.35904 0.13377 0.44334 0.0
C582 C 0.36058 0.14753 0.45535 0.0
C583 C 0.34926 0.15866 0.48236 0.0
H584 H 0.32076 0.21668 0.46358 0.0
H585 H 0.32331 0.19515 0.48419 0.0
H586 H 0.37019 0.22944 0.4349 0.0
H587 H 0.37225 0.20735 0.45516 0.0
H588 H 0.36844 0.24317 0.52489 0.0
H589 H 0.36848 0.22154 0.50189 0.0
H590 H 0.32602 0.20045 0.55758 0.0
H591 H 0.32579 0.17893 0.53446 0.0
H592 H 0.37393 0.12584 0.52607 0.0
H593 H 0.37301 0.14768 0.5039 0.0
H594 H 0.32316 0.11379 0.55027 0.0
H595 H 0.32251 0.13591 0.52855 0.0
H596 H 0.32098 0.09972 0.4628 0.0
H597 H 0.32383 0.12367 0.48377 0.0
H598 H 0.36901 0.13682 0.43215 0.0
H599 H 0.37154 0.1609 0.45305 0.0
N600 N 0.34996 0.17287 0.47314 0.0
N601 N 0.34698 0.17081 0.51277 0.0
C602 C 0.77614 0.11418 0.4633 0.0
C603 C 0.76928 0.11719 0.44596 0.0
C604 C 0.78785 0.12836 0.47513 0.0
C605 C 0.79258 0.14588 0.47024 0.0
C606 C 0.77424 0.13477 0.44095 0.0
C607 C 0.78578 0.14895 0.45295 0.0
C608 C 0.8058 0.16113 0.48205 0.0
C609 C 0.76088 0.1289 0.52483 0.0
C610 C 0.76604 0.12262 0.54113 0.0
C611 C 0.77369 0.14128 0.512 0.0
C612 C 0.79186 0.14749 0.51523 0.0
C613 C 0.78424 0.12895 0.54427 0.0
C614 C 0.79697 0.14125 0.5315 0.0
C615 C 0.80587 0.1614 0.50277 0.0
C616 C 0.86716 0.2336 0.52403 0.0
C617 C 0.87271 0.22825 0.54075 0.0
C618 C 0.85471 0.2209 0.51115 0.0
C619 C 0.84791 0.20268 0.51464 0.0
C620 C 0.86608 0.21006 0.54399 0.0
C621 C 0.85381 0.19744 0.53111 0.0
C622 C 0.83353 0.18877 0.50249 0.0
C623 C 0.87954 0.21684 0.46067 0.0
C624 C 0.87632 0.22539 0.44501 0.0
C625 C 0.86567 0.2052 0.4729 0.0
C626 C 0.8483 0.20189 0.46978 0.0
C627 C 0.85888 0.22205 0.44197 0.0
C628 C 0.84499 0.2103 0.45414 0.0
C629 C 0.83335 0.18869 0.4818 0.0
H630 H 0.77252 0.10083 0.46776 0.0
H631 H 0.79344 0.12559 0.48791 0.0
H632 H 0.76951 0.13766 0.42753 0.0
H633 H 0.78951 0.16237 0.44863 0.0
H634 H 0.74695 0.12425 0.52201 0.0
H635 H 0.76943 0.14621 0.49981 0.0
H636 H 0.78871 0.12469 0.55688 0.0
H637 H 0.8109 0.14598 0.53444 0.0
H638 H 0.87198 0.24756 0.52128 0.0
H639 H 0.85002 0.22531 0.49886 0.0
H640 H 0.87034 0.20556 0.55659 0.0
H641 H 0.84877 0.18348 0.53417 0.0
H642 H 0.89271 0.21878 0.4632 0.0
H643 H 0.86845 0.19844 0.48452 0.0
H644 H 0.85595 0.22855 0.4302 0.0
H645 H 0.83164 0.2078 0.45137 0.0
N646 N 0.81947 0.17491 0.4724 0.0
N647 N 0.81976 0.17514 0.51206 0.0
C648 C 0.9713 0.53593 0.16341 0.0
C649 C 0.98469 0.54531 0.14946 0.0
C650 C 0.97186 0.52306 0.17522 0.0
C651 C 0.98568 0.51924 0.17301 0.0
C652 C 0.9987 0.54172 0.14761 0.0
C653 C 0.99907 0.52865 0.15913 0.0
C654 C 0.98563 0.50463 0.18407 0.0
C655 C 0.00204 0.54896 0.22751 0.0
C656 C 0.9896 0.54524 0.2426 0.0
C657 C 0.00036 0.53551 0.21496 0.0
C658 C 0.98621 0.51805 0.21722 0.0
C659 C 0.97543 0.5277 0.2448 0.0
C660 C 0.97386 0.51421 0.23233 0.0
C661 C 0.98499 0.50362 0.20468 0.0
C662 C 0.00106 0.44534 0.22138 0.0
C663 C 0.99063 0.43814 0.23833 0.0
C664 C 0.99914 0.4575 0.20975 0.0
C665 C 0.98642 0.46239 0.21451 0.0
C666 C 0.97804 0.4432 0.24315 0.0
C667 C 0.97598 0.45519 0.23138 0.0
C668 C 0.98505 0.4762 0.20319 0.0
C669 C 0.97243 0.43255 0.15889 0.0
C670 C 0.98351 0.438 0.14229 0.0
C671 C 0.97312 0.44514 0.17224 0.0
C672 C 0.98518 0.46334 0.1694 0.0
C673 C 0.99556 0.45618 0.13955 0.0
C674 C 0.99635 0.46869 0.15292 0.0
C675 C 0.98545 0.47711 0.18245 0.0
H676 H 0.96035 0.53846 0.16504 0.0
H677 H 0.96126 0.51575 0.18567 0.0
H678 H 0.00907 0.54864 0.1368 0.0
H679 H 0.00977 0.52579 0.15712 0.0
H680 H 0.01335 0.56219 0.22565 0.0
H681 H 0.01036 0.53868 0.20377 0.0
H682 H 0.96548 0.52439 0.25608 0.0
H683 H 0.96294 0.50078 0.23441 0.0
H684 H 0.01079 0.44165 0.21711 0.0
H685 H 0.00787 0.46332 0.19727 0.0
H686 H 0.97002 0.43822 0.25628 0.0
H687 H 0.96631 0.459 0.23558 0.0
H688 H 0.9629 0.41862 0.16125 0.0
H689 H 0.96397 0.44066 0.18451 0.0
H690 H 0.00444 0.46075 0.12704 0.0
H691 H 0.0057 0.48264 0.15033 0.0
N692 N 0.98585 0.49138 0.17378 0.0
N693 N 0.98469 0.48944 0.21345 0.0
C694 C 0.46505 0.43305 0.16216 0.0
C695 C 0.45555 0.43718 0.14851 0.0
C696 C 0.47794 0.44634 0.17413 0.0
C697 C 0.48164 0.46398 0.17241 0.0
C698 C 0.45907 0.45477 0.14712 0.0
C699 C 0.47213 0.46808 0.15882 0.0
C700 C 0.49613 0.47844 0.18378 0.0
C701 C 0.45203 0.44878 0.2269 0.0
C702 C 0.45573 0.43918 0.2409 0.0
C703 C 0.46548 0.46124 0.21484 0.0
C704 C 0.48294 0.46444 0.21655 0.0
C705 C 0.47329 0.44246 0.24255 0.0
C706 C 0.4868 0.45511 0.23061 0.0
C707 C 0.49726 0.47822 0.20437 0.0
C708 C 0.55101 0.55294 0.22402 0.0
C709 C 0.56041 0.55041 0.23929 0.0
C710 C 0.53952 0.53876 0.21203 0.0
C711 C 0.53723 0.52176 0.21502 0.0
C712 C 0.55816 0.53337 0.24212 0.0
C713 C 0.54656 0.51916 0.23021 0.0
C714 C 0.52398 0.5064 0.2035 0.0
C715 C 0.56695 0.54006 0.15961 0.0
C716 C 0.56105 0.54556 0.14328 0.0
C717 C 0.55468 0.5277 0.17287 0.0
C718 C 0.53632 0.52086 0.17019 0.0
C719 C 0.54272 0.53889 0.14084 0.0
C720 C 0.53051 0.52665 0.15409 0.0
C721 C 0.52293 0.50651 0.18282 0.0
H722 H 0.46258 0.41958 0.16346 0.0
H723 H 0.48533 0.44296 0.18434 0.0
H724 H 0.45209 0.45834 0.13653 0.0
H725 H 0.47488 0.48162 0.15719 0.0
H726 H 0.43881 0.44699 0.22552 0.0
H727 H 0.4623 0.46865 0.20444 0.0
H728 H 0.47661 0.4352 0.253 0.0
H729 H 0.50024 0.45751 0.23223 0.0
H730 H 0.55213 0.56578 0.22165 0.0
H731 H 0.53205 0.54098 0.20078 0.0
H732 H 0.56536 0.53098 0.25355 0.0
H733 H 0.54485 0.50611 0.23287 0.0
H734 H 0.58099 0.54485 0.16175 0.0
H735 H 0.55953 0.52309 0.18482 0.0
H736 H 0.53779 0.54308 0.12857 0.0
H737 H 0.51645 0.52155 0.15164 0.0
N738 N 0.50897 0.49255 0.17382 0.0
N739 N 0.51116 0.49218 0.21348 0.0
C740 C 0.45739 0.02163 0.22255 0.0
C741 C 0.45041 0.00836 0.23702 0.0
C742 C 0.47169 0.02399 0.21091 0.0
C743 C 0.47886 0.01273 0.21313 0.0
C744 C 0.45769 0.99727 0.2394 0.0
C745 C 0.47171 0.9994 0.22754 0.0
C746 C 0.49459 0.01535 0.2018 0.0
C747 C 0.4541 0.00656 0.15481 0.0
C748 C 0.45965 0.02077 0.14155 0.0
C749 C 0.46611 0.00618 0.16818 0.0
C750 C 0.48385 0.02011 0.16871 0.0
C751 C 0.47738 0.03476 0.14227 0.0
C752 C 0.48937 0.03437 0.15563 0.0
C753 C 0.49712 0.01924 0.18155 0.0
C754 C 0.55836 0.00829 0.16124 0.0
C755 C 0.56594 0.02091 0.14607 0.0
C756 C 0.5452 0.00791 0.1734 0.0
C757 C 0.53976 0.02055 0.17118 0.0
C758 C 0.56033 0.03345 0.14383 0.0
C759 C 0.54746 0.0333 0.15626 0.0
C760 C 0.52487 0.01963 0.18285 0.0
C761 C 0.56556 0.02467 0.22752 0.0
C762 C 0.55903 0.01141 0.242 0.0
C763 C 0.55382 0.02638 0.21487 0.0
C764 C 0.5354 0.01444 0.21607 0.0
C765 C 0.54064 -0.0002 0.24353 0.0
C766 C 0.52896 0.00127 0.23066 0.0
C767 C 0.52249 0.01603 0.2032 0.0
H768 H 0.45211 0.03049 0.22067 0.0
H769 H 0.47734 0.03486 0.20052 0.0
H770 H 0.45247 0.98691 0.25042 0.0
H771 H 0.47706 0.99062 0.22972 0.0
H772 H 0.44062 0.99542 0.1544 0.0
H773 H 0.46165 0.99478 0.17773 0.0
H774 H 0.48204 0.04598 0.13241 0.0
H775 H 0.50303 0.04518 0.15567 0.0
H776 H 0.5624 0.9985 0.16361 0.0
H777 H 0.53904 0.99746 0.18424 0.0
H778 H 0.56543 0.0431 0.13208 0.0
H779 H 0.54328 0.043 0.15396 0.0
H780 H 0.57971 0.03391 0.22626 0.0
H781 H 0.55914 0.03712 0.20432 0.0
H782 H 0.53531 0.98944 0.25455 0.0
H783 H 0.51482 0.99201 0.23208 0.0
N784 N 0.5074 0.01394 0.2117 0.0
N785 N 0.51216 0.02126 0.17297 0.0
C786 C 0.55341 0.99883 0.80015 0.0
C787 C 0.55013 0.99113 0.78134 0.0
C788 C 0.53935 0.99611 0.81237 0.0
C789 C 0.52164 0.98504 0.80641 0.0
C790 C 0.53236 0.98044 0.77524 0.0
C791 C 0.51832 0.97738 0.78766 0.0
C792 C 0.50645 0.98264 0.81861 0.0
C793 C 0.53709 0.96538 0.85834 0.0
C794 C 0.54266 0.97496 0.87603 0.0
C795 C 0.52502 0.967 0.84609 0.0
C796 C 0.51865 0.9785 0.85117 0.0
C797 C 0.53621 0.98638 0.88103 0.0
C798 C 0.52432 0.98808 0.86878 0.0
C799 C 0.50532 0.98007 0.83913 0.0
C800 C 0.43286 0.97064 0.85952 0.0
C801 C 0.43764 0.97911 0.87795 0.0
C802 C 0.44578 0.9708 0.84706 0.0
C803 C 0.46385 0.98009 0.85239 0.0
C804 C 0.45565 0.98755 0.88356 0.0
C805 C 0.46854 0.9882 0.8709 0.0
C806 C 0.4781 0.98079 0.83969 0.0
C807 C 0.44935 0.00079 0.80135 0.0
C808 C 0.44324 0.99181 0.78333 0.0
C809 C 0.46109 0.9982 0.81303 0.0
C810 C 0.46647 0.98607 0.80731 0.0
C811 C 0.44921 0.98018 0.77737 0.0
C812 C 0.46061 0.97731 0.78925 0.0
C813 C 0.47919 0.98331 0.81912 0.0
H814 H 0.56686 0.007 0.80552 0.0
H815 H 0.54241 0.00292 0.82634 0.0
H816 H 0.52921 0.97466 0.76071 0.0
H817 H 0.5048 0.96912 0.78248 0.0
H818 H 0.54178 0.9564 0.85422 0.0
H819 H 0.5205 0.95911 0.83282 0.0
H820 H 0.54047 0.99415 0.8944 0.0
H821 H 0.51958 0.997 0.87307 0.0
H822 H 0.41919 0.96399 0.85457 0.0
H823 H 0.44158 0.96368 0.8333 0.0
H824 H 0.45991 0.99362 0.89787 0.0
H825 H 0.48229 0.99512 0.87566 0.0
H826 H 0.44501 0.00977 0.80655 0.0
H827 H 0.46596 0.0057 0.8265 0.0
H828 H 0.44528 0.97341 0.76338 0.0
H829 H 0.46491 0.96822 0.78426 0.0
N830 N 0.49324 0.98398 0.80951 0.0
N831 N 0.49126 0.97934 0.84871 0.0
C832 C 0.99237 0.54816 0.79584 0.0
C833 C 0.00303 0.5563 0.77926 0.0
C834 C 0.99546 0.53685 0.80767 0.0
C835 C 0.00937 0.53357 0.80326 0.0
C836 C 0.01696 0.553 0.77495 0.0
C837 C 0.02 0.54166 0.78674 0.0
C838 C 0.01202 0.52066 0.81477 0.0
C839 C 0.02455 0.56557 0.85712 0.0
C840 C 0.01442 0.56038 0.87445 0.0
C841 C 0.02384 0.55276 0.84411 0.0
C842 C 0.01273 0.53456 0.84805 0.0
C843 C 0.00323 0.54218 0.87823 0.0
C844 C 0.00244 0.52944 0.86521 0.0
C845 C 0.01275 0.52067 0.83546 0.0
C846 C 0.03103 0.46407 0.8542 0.0
C847 C 0.01908 0.45556 0.86974 0.0
C848 C 0.02948 0.47645 0.84248 0.0
C849 C 0.01601 0.48056 0.8462 0.0
C850 C 0.00566 0.45973 0.87338 0.0
C851 C 0.00424 0.4722 0.86183 0.0
C852 C 0.01448 0.49409 0.83457 0.0
C853 C -6e-05 0.4482 0.79382 0.0
C854 C 0.0095 0.45236 0.7761 0.0
C855 C 0.00133 0.46164 0.80619 0.0
C856 C 0.01277 0.47959 0.80146 0.0
C857 C 0.02072 0.47036 0.77125 0.0
C858 C 0.02233 0.4838 0.7838 0.0
C859 C 0.01372 0.49405 0.81388 0.0
H860 H 0.98134 0.55016 0.7994 0.0
H861 H 0.98671 0.53034 0.81999 0.0
H862 H 0.02558 0.55924 0.76247 0.0
H863 H 0.0307 0.53921 0.78296 0.0
H864 H 0.03342 0.5795 0.85395 0.0
H865 H 0.03235 0.5571 0.8313 0.0
H866 H 0.99509 0.53779 0.89133 0.0
H867 H 0.99384 0.5155 0.86864 0.0
H868 H 0.04151 0.46111 0.85111 0.0
H869 H 0.03892 0.48299 0.83071 0.0
H870 H 0.99646 0.45362 0.88545 0.0
H871 H 0.99387 0.47529 0.86507 0.0
H872 H 0.99129 0.43452 0.79818 0.0
H873 H 0.99317 0.45793 0.81925 0.0
H874 H 0.02801 0.47411 0.75756 0.0
H875 H 0.03097 0.49754 0.77961 0.0
N876 N 0.01264 0.50742 0.80483 0.0
N877 N 0.01387 0.50733 0.84448 0.0
C878 C 0.53965 0.56493 0.78802 0.0
C879 C 0.54912 0.55851 0.77733 0.0
C880 C 0.5251 0.55341 0.79958 0.0
C881 C 0.51977 0.53528 0.8006 0.0
C882 C 0.54376 0.54037 0.77841 0.0
C883 C 0.52912 0.52885 0.78981 0.0
C884 C 0.5039 0.52275 0.81198 0.0
C885 C 0.54415 0.55633 0.85793 0.0
C886 C 0.53892 0.56578 0.87042 0.0
C887 C 0.53203 0.54372 0.84483 0.0
C888 C 0.51447 0.54041 0.84379 0.0
C889 C 0.52142 0.56267 0.86909 0.0
C890 C 0.5093 0.55003 0.856 0.0
C891 C 0.501 0.52568 0.83167 0.0
C892 C 0.44096 0.4555 0.85676 0.0
C893 C 0.43207 0.46113 0.86958 0.0
C894 C 0.45387 0.46748 0.84384 0.0
C895 C 0.45801 0.4853 0.84328 0.0
C896 C 0.43599 0.47889 0.86874 0.0
C897 C 0.44891 0.49088 0.85578 0.0
C898 C 0.47313 0.49855 0.83139 0.0
C899 C 0.43319 0.46162 0.7872 0.0
C900 C 0.43892 0.45153 0.77661 0.0
C901 C 0.44515 0.47587 0.79883 0.0
C902 C 0.46305 0.48028 0.80002 0.0
C903 C 0.45684 0.456 0.7778 0.0
C904 C 0.46882 0.47035 0.78926 0.0
C905 C 0.47602 0.49569 0.81168 0.0
H906 H 0.54356 0.57887 0.78749 0.0
H907 H 0.51786 0.55861 0.80746 0.0
H908 H 0.5507 0.53505 0.77016 0.0
H909 H 0.52511 0.51487 0.79025 0.0
H910 H 0.5574 0.55813 0.85885 0.0
H911 H 0.53622 0.53606 0.83608 0.0
H912 H 0.51702 0.56984 0.87837 0.0
H913 H 0.49578 0.54758 0.85558 0.0
H914 H 0.43853 0.44201 0.85733 0.0
H915 H 0.46113 0.46295 0.83489 0.0
H916 H 0.42929 0.48361 0.87833 0.0
H917 H 0.452 0.5046 0.85575 0.0
H918 H 0.41943 0.45841 0.78657 0.0
H919 H 0.44048 0.48358 0.8067 0.0
H920 H 0.46164 0.44855 0.76962 0.0
H921 H 0.48261 0.47363 0.78983 0.0
N922 N 0.49133 0.50785 0.80279 0.0
N923 N 0.48569 0.51349 0.84056 0.0
C924 C 0.65934 0.77646 0.49536 0.0
C925 C 0.64415 0.76685 0.48361 0.0
C926 C 0.66071 0.78975 0.50799 0.0
C927 C 0.64679 0.79353 0.50934 0.0
C928 C 0.63014 0.7705 0.48517 0.0
C929 C 0.6315 0.78377 0.49784 0.0
C930 C 0.64879 0.80871 0.52117 0.0
C931 C 0.64975 0.77034 0.56481 0.0
C932 C 0.66524 0.77725 0.57632 0.0
C933 C 0.64651 0.78156 0.55302 0.0
C934 C 0.65886 0.79986 0.55224 0.0
C935 C 0.6775 0.79556 0.57563 0.0
C936 C 0.67432 0.80674 0.56375 0.0
C937 C 0.65535 0.81216 0.5406 0.0
C938 C 0.64646 0.87283 0.56659 0.0
C939 C 0.66295 0.88362 0.57574 0.0
C940 C 0.64395 0.85872 0.55457 0.0
C941 C 0.65783 0.85509 0.55174 0.0
C942 C 0.6769 0.88014 0.57263 0.0
C943 C 0.67428 0.86583 0.56092 0.0
C944 C 0.65494 0.8394 0.54038 0.0
C945 C 0.65821 0.87825 0.49459 0.0
C946 C 0.64307 0.8723 0.48264 0.0
C947 C 0.65967 0.86665 0.50761 0.0
C948 C 0.64597 0.84888 0.50911 0.0
C949 C 0.6292 0.85459 0.48448 0.0
C950 C 0.6307 0.84298 0.49748 0.0
C951 C 0.64834 0.83597 0.52102 0.0
H952 H 0.67052 0.77424 0.4942 0.0
H953 H 0.6729 0.79747 0.51618 0.0
H954 H 0.61822 0.76325 0.4764 0.0
H955 H 0.62067 0.78656 0.4985 0.0
H956 H 0.63992 0.75632 0.56532 0.0
H957 H 0.63418 0.77597 0.54484 0.0
H958 H 0.68961 0.80124 0.58422 0.0
H959 H 0.68398 0.82083 0.56352 0.0
H960 H 0.63554 0.87532 0.56876 0.0
H961 H 0.63107 0.8504 0.54786 0.0
H962 H 0.68968 0.88823 0.57964 0.0
H963 H 0.6851 0.86314 0.55904 0.0
H964 H 0.6693 0.89168 0.49327 0.0
H965 H 0.67188 0.87142 0.51587 0.0
H966 H 0.61728 0.84962 0.47564 0.0
H967 H 0.62002 0.82929 0.49826 0.0
N968 N 0.64546 0.82072 0.51221 0.0
N969 N 0.65822 0.82741 0.54937 0.0
C970 C 0.12638 0.77079 0.49636 0.0
C971 C 0.12166 0.77608 0.47898 0.0
C972 C 0.13831 0.78354 0.50956 0.0
C973 C 0.14539 0.80176 0.50579 0.0
C974 C 0.12863 0.79427 0.47534 0.0
C975 C 0.14036 0.80695 0.48858 0.0
C976 C 0.15929 0.81563 0.51846 0.0
C977 C 0.11176 0.78726 0.55845 0.0
C978 C 0.11444 0.77889 0.57468 0.0
C979 C 0.12607 0.79885 0.54663 0.0
C980 C 0.14334 0.80222 0.55072 0.0
C981 C 0.13177 0.7823 0.57869 0.0
C982 C 0.14607 0.79394 0.56692 0.0
C983 C 0.15879 0.81536 0.53918 0.0
C984 C 0.2193 0.88784 0.5605 0.0
C985 C 0.22474 0.88353 0.57808 0.0
C986 C 0.20723 0.8745 0.54803 0.0
C987 C 0.20072 0.85651 0.55248 0.0
C988 C 0.21804 0.86549 0.58263 0.0
C989 C 0.20618 0.85215 0.56996 0.0
C990 C 0.18705 0.84215 0.54004 0.0
C991 C 0.23337 0.87164 0.49763 0.0
C992 C 0.22968 0.88084 0.48314 0.0
C993 C 0.21978 0.85947 0.50991 0.0
C994 C 0.20231 0.85617 0.50765 0.0
C995 C 0.21223 0.87769 0.48117 0.0
C996 C 0.19865 0.86532 0.49316 0.0
C997 C 0.18748 0.84241 0.51934 0.0
H998 H 0.12133 0.75685 0.4994 0.0
H999 H 0.1424 0.77913 0.52236 0.0
H1000 H 0.12506 0.7987 0.46216 0.0
H1001 H 0.14568 0.8209 0.48525 0.0
H1002 H 0.09866 0.7852 0.55514 0.0
H1003 H 0.12369 0.8055 0.53457 0.0
H1004 H 0.13429 0.77592 0.5909 0.0
H1005 H 0.1593 0.79646 0.57045 0.0
H1006 H 0.22428 0.90155 0.55636 0.0
H1007 H 0.20269 0.87836 0.53516 0.0
H1008 H 0.22162 0.86161 0.59619 0.0
H1009 H 0.20111 0.83838 0.57395 0.0
H1010 H 0.24672 0.87383 0.49937 0.0
H1011 H 0.22282 0.85234 0.52083 0.0
H1012 H 0.209 0.88443 0.46995 0.0
H1013 H 0.18523 0.86285 0.49108 0.0
N1014 N 0.17358 0.82921 0.50944 0.0
N1015 N 0.17274 0.82856 0.54911 0.0
C1016 C 0.23751 0.36794 0.49426 0.0
C1017 C 0.23272 0.3577 0.47702 0.0
C1018 C 0.22436 0.36722 0.50678 0.0
C1019 C 0.20624 0.35591 0.50247 0.0
C1020 C 0.21462 0.34646 0.47277 0.0
C1021 C 0.20156 0.34558 0.48534 0.0
C1022 C 0.19188 0.35546 0.51466 0.0
C1023 C 0.22111 0.33785 0.55508 0.0
C1024 C 0.22704 0.34726 0.57286 0.0
C1025 C 0.20965 0.34029 0.54278 0.0
C1026 C 0.20431 0.35263 0.54762 0.0
C1027 C 0.2214 0.35939 0.57782 0.0
C1028 C 0.2102 0.36204 0.56533 0.0
C1029 C 0.19133 0.35467 0.53538 0.0
C1030 C 0.11699 0.33857 0.55393 0.0
C1031 C 0.1204 0.3483 0.57147 0.0
C1032 C 0.13098 0.34067 0.54196 0.0
C1033 C 0.14868 0.35298 0.5469 0.0
C1034 C 0.13816 0.36039 0.57653 0.0
C1035 C 0.15212 0.3627 0.56437 0.0
C1036 C 0.16377 0.35471 0.53502 0.0
C1037 C 0.13152 0.36741 0.49217 0.0
C1038 C 0.12549 0.35608 0.47576 0.0
C1039 C 0.14398 0.36715 0.50503 0.0
C1040 C 0.15036 0.35535 0.50181 0.0
C1041 C 0.13185 0.34424 0.47274 0.0
C1042 C 0.14418 0.34395 0.48555 0.0
C1043 C 0.16428 0.35534 0.51432 0.0
H1044 H 0.25139 0.37681 0.49776 0.0
H1045 H 0.22836 0.37574 0.51958 0.0
H1046 H 0.21057 0.33826 0.4597 0.0
H1047 H 0.18771 0.3368 0.48161 0.0
H1048 H 0.22526 0.32852 0.55063 0.0
H1049 H 0.20477 0.33227 0.52964 0.0
H1050 H 0.22533 0.36659 0.59156 0.0
H1051 H 0.20597 0.37136 0.56963 0.0
H1052 H 0.10351 0.32925 0.54943 0.0
H1053 H 0.12789 0.3324 0.52904 0.0
H1054 H 0.14137 0.36784 0.5901 0.0
H1055 H 0.16567 0.37201 0.56873 0.0
H1056 H 0.12695 0.37677 0.49478 0.0
H1057 H 0.14885 0.37636 0.51723 0.0
H1058 H 0.12723 0.33512 0.46044 0.0
H1059 H 0.14892 0.33475 0.48273 0.0
N1060 N 0.17829 0.35566 0.50509 0.0
N1061 N 0.17738 0.3545 0.54466 0.0
C1062 C 0.97622 0.36799 0.05969 0.0
C1063 C 0.9937 0.37363 0.05368 0.0
C1064 C 0.97279 0.37675 0.07495 0.0
C1065 C 0.98719 0.39141 0.08441 0.0
C1066 C 0.00487 0.39676 0.07877 0.0
C1067 C 0.00789 0.38785 0.06346 0.0
C1068 C 0.95378 0.3707 0.08055 0.0
C1069 C 0.02061 0.41226 0.08854 0.0
C1070 C 0.98233 0.42837 0.10755 0.0
C1071 C 0.98253 0.42494 0.1276 0.0
C1072 C 0.983 0.41707 0.09334 0.0
C1073 C 0.98397 0.40198 0.09931 0.0
C1074 C 0.98341 0.39802 0.11953 0.0
C1075 C 0.98265 0.40954 0.13346 0.0
C1076 C 0.98341 0.4217 0.07193 0.0
C1077 C 0.98447 0.38209 0.12646 0.0
H1078 H 0.96521 0.35698 0.05219 0.0
H1079 H 0.02144 0.3922 0.05897 0.0
H1080 H 0.95192 0.36835 0.09658 0.0
H1081 H 0.95063 0.38127 0.07697 0.0
H1082 H 0.94416 0.35833 0.07279 0.0
H1083 H 0.03351 0.41407 0.08322 0.0
H1084 H 0.02031 0.42467 0.08565 0.0
H1085 H 0.01991 0.41033 0.10466 0.0
H1086 H 0.98192 0.4401 0.10297 0.0
H1087 H 0.98286 0.40689 0.14896 0.0
H1088 H 0.97316 0.41007 0.06367 0.0
H1089 H 0.99654 0.42524 0.06557 0.0
H1090 H 0.98111 0.43304 0.06969 0.0
H1091 H 0.9746 0.36994 0.11859 0.0
H1092 H 0.98208 0.37986 0.14248 0.0
H1093 H 0.99784 0.38406 0.12312 0.0
C1094 C 0.6122 0.62012 0.06389 0.0
C1095 C 0.62605 0.61945 0.05411 0.0
C1096 C 0.60293 0.60837 0.07924 0.0
C1097 C 0.60758 0.59557 0.08493 0.0
C1098 C 0.62186 0.5951 0.07544 0.0
C1099 C 0.63096 0.60709 0.06013 0.0
C1100 C 0.58783 0.60936 0.08901 0.0
C1101 C 0.62718 0.58162 0.08111 0.0
C1102 C 0.58942 0.57325 0.13416 0.0
C1103 C 0.57381 0.55783 0.12845 0.0
C1104 C 0.60091 0.58544 0.12012 0.0
C1105 C 0.59669 0.58204 0.09995 0.0
C1106 C 0.58128 0.56617 0.09411 0.0
C1107 C 0.57004 0.55428 0.10842 0.0
C1108 C 0.61721 0.60223 0.1269 0.0
C1109 C 0.57636 0.56199 0.07275 0.0
H1110 H 0.6084 0.62972 0.05939 0.0
H1111 H 0.64169 0.60654 0.05263 0.0
H1112 H 0.57511 0.59689 0.08622 0.0
H1113 H 0.58984 0.61066 0.10511 0.0
H1114 H 0.58654 0.62071 0.0836 0.0
H1115 H 0.63929 0.58376 0.07323 0.0
H1116 H 0.62967 0.58221 0.09712 0.0
H1117 H 0.61615 0.56804 0.07775 0.0
H1118 H 0.59235 0.57607 0.14962 0.0
H1119 H 0.55816 0.54221 0.10392 0.0
H1120 H 0.61577 0.61389 0.12328 0.0
H1121 H 0.6292 0.60396 0.11914 0.0
H1122 H 0.61938 0.60222 0.14295 0.0
H1123 H 0.57344 0.572 0.0664 0.0
H1124 H 0.56454 0.54859 0.07062 0.0
H1125 H 0.58767 0.56272 0.0644 0.0
C1126 C 0.38887 0.99579 0.05679 0.0
C1127 C 0.38518 0.00919 0.05141 0.0
C1128 C 0.40124 0.99861 0.07154 0.0
C1129 C 0.41018 0.01525 0.0812 0.0
C1130 C 0.40664 0.0289 0.07575 0.0
C1131 C 0.39417 0.02571 0.06088 0.0
C1132 C 0.40465 0.98371 0.07689 0.0
C1133 C 0.41596 0.04682 0.0857 0.0
C1134 C 0.42943 0.01489 0.1311 0.0
C1135 C 0.44722 0.02057 0.12641 0.0
C1136 C 0.41735 0.01365 0.11664 0.0
C1137 C 0.42319 0.0182 0.09701 0.0
C1138 C 0.44123 0.02441 0.09228 0.0
C1139 C 0.45301 0.02549 0.10702 0.0
C1140 C 0.39822 0.00701 0.12228 0.0
C1141 C 0.44797 0.02933 0.07152 0.0
H1142 H 0.38198 0.98299 0.04953 0.0
H1143 H 0.39134 0.03609 0.0568 0.0
H1144 H 0.41895 0.98811 0.07494 0.0
H1145 H 0.40138 0.98014 0.09256 0.0
H1146 H 0.39669 0.97162 0.06786 0.0
H1147 H 0.41186 0.05608 0.07962 0.0
H1148 H 0.41301 0.04521 0.10163 0.0
H1149 H 0.43057 0.05292 0.08405 0.0
H1150 H 0.42492 0.0113 0.1461 0.0
H1151 H 0.46667 0.02968 0.1032 0.0
H1152 H 0.38947 0.99415 0.11485 0.0
H1153 H 0.39404 0.01652 0.11732 0.0
H1154 H 0.39604 0.00506 0.13835 0.0
H1155 H 0.4415 0.01733 0.06207 0.0
H1156 H 0.46262 0.03514 0.07052 0.0
H1157 H 0.44444 0.03902 0.06552 0.0
C1158 C 0.37489 0.97337 0.96648 0.0
C1159 C 0.36684 0.98359 0.96298 0.0
C1160 C 0.38506 0.97125 0.95186 0.0
C1161 C 0.38658 0.97898 0.93315 0.0
C1162 C 0.3774 0.98826 0.92922 0.0
C1163 C 0.36795 0.9908 0.94435 0.0
C1164 C 0.39513 0.96178 0.95685 0.0
C1165 C 0.37811 0.99611 0.90927 0.0
C1166 C 0.42887 0.9937 0.90405 0.0
C1167 C 0.42411 0.97919 0.89145 0.0
C1168 C 0.41686 0.99362 0.91781 0.0
C1169 C 0.39929 0.97905 0.91847 0.0
C1170 C 0.39405 0.96469 0.90528 0.0
C1171 C 0.40659 0.96478 0.89218 0.0
C1172 C 0.42312 0.00907 0.93186 0.0
C1173 C 0.37522 0.94922 0.90509 0.0
H1174 H 0.37411 0.96795 0.98099 0.0
H1175 H 0.36157 0.9986 0.94168 0.0
H1176 H 0.39246 0.95136 0.94582 0.0
H1177 H 0.40963 0.97141 0.95653 0.0
H1178 H 0.3916 0.95552 0.97159 0.0
H1179 H 0.36816 0.00051 0.90779 0.0
H1180 H 0.39153 0.00776 0.9068 0.0
H1181 H 0.37573 0.98627 0.89758 0.0
H1182 H 0.44209 0.00522 0.90327 0.0
H1183 H 0.40269 0.95338 0.88276 0.0
H1184 H 0.42069 0.00417 0.9472 0.0
H1185 H 0.41548 0.016 0.92945 0.0
H1186 H 0.4375 0.01888 0.93015 0.0
H1187 H 0.37228 0.94187 0.91914 0.0
H1188 H 0.3729 0.93982 0.89291 0.0
H1189 H 0.36567 0.95412 0.90367 0.0
C1190 C 0.02447 0.38444 0.94163 0.0
C1191 C 0.02006 0.38796 0.96023 0.0
C1192 C 0.02619 0.39526 0.92548 0.0
C1193 C 0.02357 0.40996 0.92813 0.0
C1194 C 0.02001 0.41403 0.9471 0.0
C1195 C 0.01822 0.40294 0.96287 0.0
C1196 C 0.02998 0.39049 0.90548 0.0
C1197 C 0.0173 0.42968 0.95062 0.0
C1198 C 0.03729 0.44708 0.89087 0.0
C1199 C 0.0208 0.44277 0.88269 0.0
C1200 C 0.03861 0.43605 0.90504 0.0
C1201 C 0.02309 0.42034 0.91102 0.0
C1202 C 0.00659 0.41546 0.90197 0.0
C1203 C 0.00564 0.42677 0.88797 0.0
C1204 C 0.05643 0.44173 0.91437 0.0
C1205 C 0.98974 0.39873 0.90776 0.0
H1206 H 0.02587 0.37284 0.93952 0.0
H1207 H 0.01494 0.40579 0.97726 0.0
H1208 H 0.01804 0.3858 0.89605 0.0
H1209 H 0.04099 0.40235 0.89829 0.0
H1210 H 0.03353 0.37988 0.9062 0.0
H1211 H 0.01599 0.43182 0.96645 0.0
H1212 H 0.02861 0.44199 0.94451 0.0
H1213 H 0.00507 0.42746 0.94298 0.0
H1214 H 0.04903 0.45949 0.8869 0.0
H1215 H 0.99292 0.42327 0.88144 0.0
H1216 H 0.05905 0.43049 0.91474 0.0
H1217 H 0.05633 0.44582 0.92975 0.0
H1218 H 0.0675 0.45304 0.90648 0.0
H1219 H 0.99182 0.38715 0.90732 0.0
H1220 H 0.97837 0.39599 0.89805 0.0
H1221 H 0.98613 0.40003 0.92304 0.0
C1222 C 0.605 0.63501 0.95157 0.0
C1223 C 0.61277 0.62666 0.96187 0.0
C1224 C 0.59281 0.62617 0.93634 0.0
C1225 C 0.58835 0.60861 0.93132 0.0
C1226 C 0.59615 0.60013 0.94169 0.0
C1227 C 0.60824 0.60925 0.95685 0.0
C1228 C 0.58471 0.6356 0.92564 0.0
C1229 C 0.59175 0.58142 0.93677 0.0
C1230 C 0.54533 0.57769 0.90475 0.0
C1231 C 0.55136 0.57797 0.88558 0.0
C1232 C 0.55713 0.58807 0.91963 0.0
C1233 C 0.57544 0.59894 0.91529 0.0
C1234 C 0.58154 0.59969 0.89587 0.0
C1235 C 0.56943 0.58921 0.88125 0.0
C1236 C 0.55011 0.58689 0.94016 0.0
C1237 C 0.60096 0.61116 0.89066 0.0
H1238 H 0.60846 0.64847 0.9554 0.0
H1239 H 0.61422 0.60273 0.96474 0.0
H1240 H 0.58786 0.63643 0.90978 0.0
H1241 H 0.57001 0.62793 0.92706 0.0
H1242 H 0.58959 0.64925 0.93132 0.0
H1243 H 0.59902 0.57675 0.9462 0.0
H1244 H 0.57726 0.57216 0.93851 0.0
H1245 H 0.59513 0.5807 0.92123 0.0
H1246 H 0.53144 0.56887 0.9083 0.0
H1247 H 0.57414 0.58969 0.86642 0.0
H1248 H 0.55436 0.60038 0.94592 0.0
H1249 H 0.55572 0.58079 0.95003 0.0
H1250 H 0.53536 0.57884 0.94082 0.0
H1251 H 0.60589 0.62507 0.89539 0.0
H1252 H 0.60339 0.61108 0.87468 0.0
H1253 H 0.60891 0.60635 0.89855 0.0
C1254 C 0.99329 0.61241 0.95433 0.0
C1255 C 0.00795 0.62707 0.96296 0.0
C1256 C 0.9955 0.6031 0.93884 0.0
C1257 C 0.01282 0.60852 0.93183 0.0
C1258 C 0.02766 0.62365 0.94006 0.0
C1259 C 0.02504 0.63279 0.95554 0.0
C1260 C 0.97932 0.5871 0.93041 0.0
C1261 C 0.04632 0.62979 0.93297 0.0
C1262 C 0.01717 0.57117 0.90893 0.0
C1263 C 0.01567 0.57375 0.88889 0.0
C1264 C 0.01704 0.58286 0.92299 0.0
C1265 C 0.01532 0.59749 0.91688 0.0
C1266 C 0.01449 0.60057 0.89662 0.0
C1267 C 0.01473 0.58866 0.88283 0.0
C1268 C 0.01808 0.57917 0.94444 0.0
C1269 C 0.0126 0.61599 0.88955 0.0
H1270 H 0.98003 0.60799 0.9599 0.0
H1271 H 0.0364 0.64414 0.96215 0.0
H1272 H 0.97896 0.58836 0.91425 0.0
H1273 H 0.98002 0.57493 0.93345 0.0
H1274 H 0.96671 0.58533 0.93664 0.0
H1275 H 0.05625 0.64257 0.93978 0.0
H1276 H 0.05 0.61959 0.9365 0.0
H1277 H 0.04706 0.63141 0.9168 0.0
H1278 H 0.01824 0.55984 0.91364 0.0
H1279 H 0.01351 0.59066 0.86735 0.0
H1280 H 0.00535 0.57576 0.95178 0.0
H1281 H 0.02874 0.59119 0.95177 0.0
H1282 H 0.02071 0.56803 0.94668 0.0
H1283 H 0.9994 0.61393 0.89394 0.0
H1284 H 0.01386 0.61753 0.87337 0.0
H1285 H 0.02282 0.62854 0.89648 0.0
C1286 C 0.36498 0.39557 0.95269 0.0
C1287 C 0.37366 0.38755 0.96179 0.0
C1288 C 0.37303 0.40756 0.93711 0.0
C1289 C 0.39013 0.4116 0.93055 0.0
C1290 C 0.39886 0.40341 0.9396 0.0
C1291 C 0.39052 0.39149 0.95509 0.0
C1292 C 0.36333 0.41604 0.92779 0.0
C1293 C 0.4171 0.40736 0.93305 0.0
C1294 C 0.40782 0.43097 0.88019 0.0
C1295 C 0.41979 0.44882 0.88475 0.0
C1296 C 0.39749 0.41882 0.89484 0.0
C1297 C 0.39921 0.42467 0.91452 0.0
C1298 C 0.41073 0.4428 0.91908 0.0
C1299 C 0.42089 0.45465 0.90415 0.0
C1300 C 0.38527 0.39961 0.88939 0.0
C1301 C 0.41296 0.44954 0.93989 0.0
H1302 H 0.35194 0.39254 0.9578 0.0
H1303 H 0.39729 0.38532 0.96205 0.0
H1304 H 0.3712 0.43068 0.92964 0.0
H1305 H 0.36185 0.4133 0.91181 0.0
H1306 H 0.34993 0.41115 0.93426 0.0
H1307 H 0.42195 0.39967 0.94143 0.0
H1308 H 0.41685 0.40422 0.91724 0.0
H1309 H 0.42678 0.42173 0.93489 0.0
H1310 H 0.40674 0.42644 0.86518 0.0
H1311 H 0.43027 0.46836 0.90784 0.0
H1312 H 0.37172 0.39489 0.8953 0.0
H1313 H 0.39023 0.39126 0.89602 0.0
H1314 H 0.38432 0.3975 0.87327 0.0
H1315 H 0.3998 0.44544 0.94654 0.0
H1316 H 0.42128 0.46425 0.94075 0.0
H1317 H 0.41933 0.44362 0.94885 0.0
C1318 C 0.61944 0.00114 0.95071 0.0
C1319 C 0.62098 0.98761 0.96004 0.0
C1320 C 0.60702 0.99728 0.93571 0.0
C1321 C 0.59581 0.97942 0.92985 0.0
C1322 C 0.59778 0.96574 0.93864 0.0
C1323 C 0.61036 0.97001 0.95368 0.0
C1324 C 0.6054 0.01228 0.9267 0.0
C1325 C 0.58614 0.94657 0.93269 0.0
C1326 C 0.55195 0.9717 0.90968 0.0
C1327 C 0.55521 0.97332 0.88944 0.0
C1328 C 0.56468 0.9726 0.92294 0.0
C1329 C 0.58111 0.97516 0.91579 0.0
C1330 C 0.58406 0.97569 0.89531 0.0
C1331 C 0.57103 0.97475 0.88234 0.0
C1332 C 0.56095 0.97187 0.94465 0.0
C1333 C 0.60136 0.97831 0.88714 0.0
H1334 H 0.62769 0.0148 0.95545 0.0
H1335 H 0.61155 0.95951 0.96081 0.0
H1336 H 0.60626 0.01195 0.9105 0.0
H1337 H 0.59221 0.01067 0.93035 0.0
H1338 H 0.61588 0.02553 0.93199 0.0
H1339 H 0.59062 0.93781 0.93933 0.0
H1340 H 0.57224 0.94184 0.93741 0.0
H1341 H 0.586 0.94523 0.91651 0.0
H1342 H 0.53957 0.97024 0.91519 0.0
H1343 H 0.57361 0.97603 0.8667 0.0
H1344 H 0.56982 0.98508 0.95131 0.0
H1345 H 0.56379 0.96217 0.95197 0.0
H1346 H 0.54694 0.96813 0.94774 0.0
H1347 H 0.61211 0.99214 0.89 0.0
H1348 H 0.6006 0.97589 0.87108 0.0
H1349 H 0.60516 0.96932 0.89448 0.0
C1350 C 0.61413 0.01329 0.05127 0.0
C1351 C 0.63042 0.01403 0.05443 0.0
C1352 C 0.60491 0.01566 0.06678 0.0
C1353 C 0.61195 0.01837 0.08601 0.0
C1354 C 0.62856 0.01941 0.08924 0.0
C1355 C 0.63773 0.01744 0.07333 0.0
C1356 C 0.58745 0.01488 0.06264 0.0
C1357 C 0.63629 0.02188 0.10959 0.0
C1358 C 0.59252 0.03618 0.12367 0.0
C1359 C 0.57885 0.02043 0.13195 0.0
C1360 C 0.60366 0.03577 0.10899 0.0
C1361 C 0.60141 0.01924 0.10276 0.0
C1362 C 0.58824 0.00336 0.11168 0.0
C1363 C 0.577 0.00412 0.12595 0.0
C1364 C 0.61738 0.05298 0.09964 0.0
C1365 C 0.58563 0.98548 0.10569 0.0
H1366 H 0.60852 0.01076 0.03663 0.0
H1367 H 0.65027 0.01788 0.0758 0.0
H1368 H 0.57645 0.00312 0.06997 0.0
H1369 H 0.58764 0.02683 0.06868 0.0
H1370 H 0.5845 0.01403 0.0467 0.0
H1371 H 0.64974 0.0233 0.1095 0.0
H1372 H 0.63718 0.03381 0.11662 0.0
H1373 H 0.62738 0.01027 0.11881 0.0
H1374 H 0.59439 0.04889 0.12845 0.0
H1375 H 0.56637 0.99182 0.13191 0.0
H1376 H 0.61415 0.05297 0.0839 0.0
H1377 H 0.63074 0.05427 0.10038 0.0
H1378 H 0.61801 0.06478 0.10676 0.0
H1379 H 0.58054 0.98242 0.09043 0.0
H1380 H 0.57607 0.9746 0.11538 0.0
H1381 H 0.59851 0.98569 0.10599 0.0
C1382 C 0.98022 0.6153 0.07523 0.0
C1383 C 0.98826 0.61426 0.05784 0.0
C1384 C 0.97834 0.60439 0.09133 0.0
C1385 C 0.98431 0.59197 0.08977 0.0
C1386 C 0.99186 0.59049 0.07197 0.0
C1387 C 0.99391 0.60177 0.0563 0.0
C1388 C 0.97049 0.60654 0.11017 0.0
C1389 C 0.99809 0.57719 0.06957 0.0
C1390 C 0.99838 0.57515 0.13358 0.0
C1391 C 0.98368 0.55809 0.13598 0.0
C1392 C 0.99834 0.58673 0.1193 0.0
C1393 C 0.98338 0.58092 0.10686 0.0
C1394 C 0.96824 0.56391 0.1097 0.0
C1395 C 0.96852 0.55274 0.12437 0.0
C1396 C 0.01461 0.6049 0.11698 0.0
C1397 C 0.95215 0.55713 0.09655 0.0
H1398 H 0.97594 0.62502 0.07647 0.0
H1399 H 2e-05 0.60087 0.04281 0.0
H1400 H 0.95916 0.59358 0.11488 0.0
H1401 H 0.98064 0.61113 0.12197 0.0
H1402 H 0.96578 0.61625 0.10874 0.0
H1403 H 0.00265 0.57697 0.0544 0.0
H1404 H 0.00926 0.58045 0.07979 0.0
H1405 H 0.98719 0.56365 0.07332 0.0
H1406 H 0.01005 0.57931 0.14268 0.0
H1407 H 0.95721 0.53946 0.12614 0.0
H1408 H 0.01073 0.61526 0.11643 0.0
H1409 H 0.02136 0.6055 0.10295 0.0
H1410 H 0.02428 0.60809 0.12913 0.0
H1411 H 0.94763 0.56698 0.09558 0.0
H1412 H 0.94091 0.5443 0.10177 0.0
H1413 H 0.95576 0.5552 0.0815 0.0
C1414 C 0.38522 0.36519 0.07218 0.0
C1415 C 0.38703 0.3749 0.05508 0.0
C1416 C 0.39607 0.37342 0.08859 0.0
C1417 C 0.40916 0.39167 0.08768 0.0
C1418 C 0.41145 0.40131 0.07016 0.0
C1419 C 0.40027 0.39284 0.05414 0.0
C1420 C 0.39311 0.36279 0.10709 0.0
C1421 C 0.42544 0.42071 0.06847 0.0
C1422 C 0.4258 0.42158 0.13229 0.0
C1423 C 0.44269 0.42354 0.13489 0.0
C1424 C 0.41428 0.41034 0.1177 0.0
C1425 C 0.41994 0.4011 0.10522 0.0
C1426 C 0.43668 0.40243 0.10836 0.0
C1427 C 0.44784 0.41357 0.12328 0.0
C1428 C 0.3964 0.40904 0.11504 0.0
C1429 C 0.44328 0.39295 0.09523 0.0
H1430 H 0.37494 0.35133 0.07296 0.0
H1431 H 0.40178 0.40035 0.04089 0.0
H1432 H 0.4058 0.36398 0.11216 0.0
H1433 H 0.38835 0.36816 0.11891 0.0
H1434 H 0.38319 0.34849 0.10503 0.0
H1435 H 0.42626 0.42597 0.05342 0.0
H1436 H 0.42238 0.42867 0.07881 0.0
H1437 H 0.43868 0.42268 0.07252 0.0
H1438 H 0.42177 0.42917 0.14141 0.0
H1439 H 0.46097 0.4152 0.1252 0.0
H1440 H 0.38573 0.39493 0.114 0.0
H1441 H 0.39634 0.41563 0.10114 0.0
H1442 H 0.3932 0.41544 0.12726 0.0
H1443 H 0.43298 0.37875 0.09362 0.0
H1444 H 0.45567 0.3938 0.1009 0.0
H1445 H 0.44599 0.39898 0.08039 0.0
C1446 C 0.66919 0.72313 0.39799 0.0
C1447 C 0.65625 0.70605 0.39196 0.0
C1448 C 0.66599 0.73168 0.41355 0.0
C1449 C 0.64942 0.72293 0.42339 0.0
C1450 C 0.63634 0.70558 0.41756 0.0
C1451 C 0.63991 0.69733 0.40186 0.0
C1452 C 0.68028 0.7502 0.41928 0.0
C1453 C 0.61855 0.69585 0.42777 0.0
C1454 C 0.64979 0.74236 0.47336 0.0
C1455 C 0.64353 0.754 0.4688 0.0
C1456 C 0.65095 0.73147 0.45891 0.0
C1457 C 0.64581 0.73231 0.43943 0.0
C1458 C 0.63877 0.74347 0.43492 0.0
C1459 C 0.63772 0.75418 0.44966 0.0
C1460 C 0.6584 0.71964 0.46432 0.0
C1461 C 0.6332 0.74481 0.41431 0.0
H1462 H 0.68186 0.72994 0.39041 0.0
H1463 H 0.62987 0.68411 0.39727 0.0
H1464 H 0.67525 0.7596 0.41749 0.0
H1465 H 0.68382 0.75047 0.43495 0.0
H1466 H 0.69254 0.75502 0.41034 0.0
H1467 H 0.61006 0.6822 0.42192 0.0
H1468 H 0.62049 0.69498 0.44372 0.0
H1469 H 0.61138 0.70333 0.42602 0.0
H1470 H 0.65406 0.74198 0.48819 0.0
H1471 H 0.63306 0.76328 0.44595 0.0
H1472 H 0.67154 0.72461 0.45718 0.0
H1473 H 0.64955 0.70592 0.45892 0.0
H1474 H 0.66012 0.71918 0.48041 0.0
H1475 H 0.64509 0.75108 0.40468 0.0
H1476 H 0.62649 0.75281 0.4136 0.0
H1477 H 0.62408 0.73138 0.40833 0.0
C1478 C 0.27643 0.93378 0.38796 0.0
C1479 C 0.2945 0.94665 0.38916 0.0
C1480 C 0.26745 0.92289 0.40402 0.0
C1481 C 0.27669 0.92513 0.42185 0.0
C1482 C 0.29506 0.93784 0.42302 0.0
C1483 C 0.30381 0.94838 0.40657 0.0
C1484 C 0.24793 0.90929 0.40203 0.0
C1485 C 0.3053 0.94076 0.44184 0.0
C1486 C 0.2461 0.9101 0.46603 0.0
C1487 C 0.24363 0.89311 0.46936 0.0
C1488 C 0.25767 0.92109 0.45132 0.0
C1489 C 0.26673 0.91479 0.43943 0.0
C1490 C 0.26484 0.89791 0.44328 0.0
C1491 C 0.25338 0.88731 0.45833 0.0
C1492 C 0.25955 0.93911 0.44792 0.0
C1493 C 0.27409 0.89063 0.4308 0.0
H1494 H 0.26921 0.93233 0.37448 0.0
H1495 H 0.31777 0.95839 0.40756 0.0
H1496 H 0.24547 0.89599 0.40657 0.0
H1497 H 0.24 0.91284 0.41186 0.0
H1498 H 0.24302 0.90837 0.38679 0.0
H1499 H 0.31974 0.95032 0.43999 0.0
H1500 H 0.29998 0.94597 0.45324 0.0
H1501 H 0.30359 0.928 0.44734 0.0
H1502 H 0.23866 0.91463 0.47469 0.0
H1503 H 0.25136 0.8741 0.46082 0.0
H1504 H 0.25331 0.93911 0.43373 0.0
H1505 H 0.2738 0.94948 0.44705 0.0
H1506 H 0.25314 0.94279 0.4597 0.0
H1507 H 0.26832 0.88786 0.41583 0.0
H1508 H 0.2727 0.87816 0.43692 0.0
H1509 H 0.28844 0.90055 0.42937 0.0
C1510 C 0.04704 0.32787 0.40117 0.0
C1511 C 0.04687 0.34152 0.39041 0.0
C1512 C 0.05958 0.33166 0.41603 0.0
C1513 C 0.07228 0.34957 0.4203 0.0
C1514 C 0.0718 0.36345 0.40998 0.0
C1515 C 0.05909 0.35926 0.3951 0.0
C1516 C 0.05966 0.31646 0.42667 0.0
C1517 C 0.08505 0.3827 0.4142 0.0
C1518 C 0.09748 0.35665 0.46811 0.0
C1519 C 0.11271 0.35647 0.4616 0.0
C1520 C 0.08449 0.35521 0.45476 0.0
C1521 C 0.08683 0.35354 0.43447 0.0
C1522 C 0.10257 0.35418 0.42778 0.0
C1523 C 0.11532 0.35568 0.44141 0.0
C1524 C 0.06792 0.35467 0.46242 0.0
C1525 C 0.10563 0.35252 0.40627 0.0
H1526 H 0.03758 0.31413 0.39768 0.0
H1527 H 0.05897 0.36986 0.38688 0.0
H1528 H 0.07216 0.31645 0.42336 0.0
H1529 H 0.05921 0.31812 0.44275 0.0
H1530 H 0.04824 0.30335 0.42243 0.0
H1531 H 0.08189 0.3919 0.40619 0.0
H1532 H 0.08544 0.38541 0.43014 0.0
H1533 H 0.09857 0.38562 0.40986 0.0
H1534 H 0.09537 0.35721 0.4837 0.0
H1535 H 0.12725 0.35591 0.43627 0.0
H1536 H 0.05632 0.34115 0.46033 0.0
H1537 H 0.06521 0.36402 0.4541 0.0
H1538 H 0.06899 0.35808 0.47825 0.0
H1539 H 0.09558 0.33913 0.40092 0.0
H1540 H 0.11909 0.35447 0.40337 0.0
H1541 H 0.104 0.36239 0.3976 0.0
C1542 C 0.05636 0.32159 0.30083 0.0
C1543 C 0.03814 0.31559 0.29925 0.0
C1544 C 0.06575 0.31956 0.28527 0.0
C1545 C 0.05675 0.31166 0.26754 0.0
C1546 C 0.03824 0.30519 0.26602 0.0
C1547 C 0.0291 0.30708 0.282 0.0
C1548 C 0.08541 0.32633 0.28762 0.0
C1549 C 0.02826 0.29695 0.24727 0.0
C1550 C 0.0872 0.32674 0.22325 0.0
C1551 C 0.09018 0.31247 0.22057 0.0
C1552 C 0.07558 0.32622 0.23786 0.0
C1553 C 0.06705 0.31122 0.25033 0.0
C1554 C 0.06956 0.29651 0.24723 0.0
C1555 C 0.08102 0.29726 0.23224 0.0
C1556 C 0.07299 0.34204 0.24043 0.0
C1557 C 0.06092 0.28041 0.26039 0.0
H1558 H 0.06335 0.32807 0.31421 0.0
H1559 H 0.01501 0.30252 0.28072 0.0
H1560 H 0.08849 0.31577 0.28369 0.0
H1561 H 0.09306 0.33764 0.2775 0.0
H1562 H 0.0901 0.33085 0.30281 0.0
H1563 H 0.01371 0.29153 0.24888 0.0
H1564 H 0.03327 0.30709 0.23547 0.0
H1565 H 0.03058 0.28609 0.24246 0.0
H1566 H 0.09424 0.33845 0.21411 0.0
H1567 H 0.08347 0.28629 0.23024 0.0
H1568 H 0.07902 0.34879 0.25449 0.0
H1569 H 0.0586 0.33765 0.24108 0.0
H1570 H 0.07916 0.35183 0.22835 0.0
H1571 H 0.0666 0.28418 0.27536 0.0
H1572 H 0.06298 0.2695 0.25501 0.0
H1573 H 0.04643 0.27535 0.26161 0.0
C1574 C 0.67375 0.73133 0.29824 0.0
C1575 C 0.67951 0.7189 0.29746 0.0
C1576 C 0.67622 0.74248 0.28229 0.0
C1577 C 0.68432 0.74091 0.26497 0.0
C1578 C 0.69041 0.72855 0.26418 0.0
C1579 C 0.68808 0.71778 0.28056 0.0
C1580 C 0.66983 0.75573 0.28386 0.0
C1581 C 0.69884 0.72631 0.24586 0.0
C1582 C 0.67128 0.75727 0.21995 0.0
C1583 C 0.68593 0.7744 0.21779 0.0
C1584 C 0.67105 0.7458 0.23455 0.0
C1585 C 0.68567 0.75179 0.24753 0.0
C1586 C 0.7008 0.76885 0.2449 0.0
C1587 C 0.7008 0.77992 0.22992 0.0
C1588 C 0.65481 0.72759 0.23664 0.0
C1589 C 0.71653 0.77582 0.25861 0.0
H1590 H 0.66723 0.73231 0.31135 0.0
H1591 H 0.69246 0.7081 0.2799 0.0
H1592 H 0.6808 0.76926 0.28021 0.0
H1593 H 0.65897 0.75233 0.27317 0.0
H1594 H 0.66482 0.75603 0.29876 0.0
H1595 H 0.7036 0.7167 0.24791 0.0
H1596 H 0.68904 0.72155 0.2337 0.0
H1597 H 0.71024 0.73927 0.24127 0.0
H1598 H 0.65984 0.75299 0.21045 0.0
H1599 H 0.71207 0.79324 0.22832 0.0
H1600 H 0.64761 0.72702 0.2503 0.0
H1601 H 0.65877 0.71731 0.23779 0.0
H1602 H 0.6455 0.72423 0.22409 0.0
H1603 H 0.71252 0.77791 0.27337 0.0
H1604 H 0.7279 0.7886 0.25346 0.0
H1605 H 0.72106 0.766 0.26021 0.0
C1606 C 0.27356 0.96941 0.28879 0.0
C1607 C 0.28408 0.96221 0.29481 0.0
C1608 C 0.26083 0.96128 0.27384 0.0
C1609 C 0.25868 0.94567 0.26475 0.0
C1610 C 0.26975 0.93878 0.2703 0.0
C1611 C 0.28227 0.94711 0.28527 0.0
C1612 C 0.24927 0.96901 0.26829 0.0
C1613 C 0.26794 0.9222 0.26091 0.0
C1614 C 0.21468 0.91023 0.24398 0.0
C1615 C 0.21794 0.91241 0.22376 0.0
C1616 C 0.22748 0.92166 0.25746 0.0
C1617 C 0.24399 0.93558 0.25056 0.0
C1618 C 0.24697 0.93847 0.23013 0.0
C1619 C 0.23385 0.92684 0.21693 0.0
C1620 C 0.22369 0.91821 0.27912 0.0
C1621 C 0.26438 0.95318 0.22221 0.0
H1622 H 0.27495 0.98112 0.29609 0.0
H1623 H 0.29046 0.94156 0.28976 0.0
H1624 H 0.24927 0.97062 0.25216 0.0
H1625 H 0.23534 0.95975 0.27279 0.0
H1626 H 0.25374 0.98209 0.27536 0.0
H1627 H 0.27834 0.91925 0.26599 0.0
H1628 H 0.2547 0.91066 0.26445 0.0
H1629 H 0.2688 0.92362 0.24473 0.0
H1630 H 0.20225 0.89924 0.24927 0.0
H1631 H 0.2364 0.92852 0.20129 0.0
H1632 H 0.22668 0.93063 0.28684 0.0
H1633 H 0.23241 0.91356 0.28547 0.0
H1634 H 0.20962 0.90799 0.28206 0.0
H1635 H 0.26825 0.96588 0.22984 0.0
H1636 H 0.26375 0.95511 0.2062 0.0
H1637 H 0.27502 0.94992 0.22497 0.0
C1638 C 0.69067 0.9627 0.29232 0.0
C1639 C 0.67322 0.95768 0.29783 0.0
C1640 C 0.69397 0.95379 0.27711 0.0
C1641 C 0.67946 0.93959 0.26724 0.0
C1642 C 0.66184 0.93486 0.27238 0.0
C1643 C 0.65894 0.94394 0.28761 0.0
C1644 C 0.71293 0.95921 0.27201 0.0
C1645 C 0.64599 0.91983 0.2622 0.0
C1646 C 0.68444 0.92155 0.21831 0.0
C1647 C 0.684 0.90587 0.22416 0.0
C1648 C 0.68366 0.93308 0.23223 0.0
C1649 C 0.68248 0.92882 0.25241 0.0
C1650 C 0.68276 0.91338 0.25841 0.0
C1651 C 0.68352 0.90211 0.24422 0.0
C1652 C 0.68338 0.94942 0.22529 0.0
C1653 C 0.68163 0.90841 0.27979 0.0
H1654 H 0.70175 0.97334 0.30015 0.0
H1655 H 0.64542 0.94006 0.29172 0.0
H1656 H 0.71547 0.94824 0.27563 0.0
H1657 H 0.7152 0.96171 0.25603 0.0
H1658 H 0.72271 0.97132 0.28004 0.0
H1659 H 0.63319 0.91847 0.26719 0.0
H1660 H 0.6471 0.92195 0.24611 0.0
H1661 H 0.64569 0.90712 0.26506 0.0
H1662 H 0.68475 0.92448 0.20283 0.0
H1663 H 0.68354 0.89019 0.24883 0.0
H1664 H 0.69341 0.96134 0.23335 0.0
H1665 H 0.67016 0.94794 0.22838 0.0
H1666 H 0.68606 0.95173 0.20932 0.0
H1667 H 0.69202 0.9197 0.28834 0.0
H1668 H 0.68323 0.89663 0.28208 0.0
H1669 H 0.66853 0.9054 0.28579 0.0
C1670 C 0.03114 0.72337 0.2904 0.0
C1671 C 0.03771 0.71254 0.29719 0.0
C1672 C 0.0398 0.73568 0.27522 0.0
C1673 C 0.05532 0.73708 0.26666 0.0
C1674 C 0.06165 0.72577 0.27308 0.0
C1675 C 0.05279 0.71367 0.28827 0.0
C1676 C 0.03267 0.74753 0.26875 0.0
C1677 C 0.07812 0.72681 0.2643 0.0
C1678 C 0.07417 0.76035 0.21804 0.0
C1679 C 0.0886 0.7765 0.22436 0.0
C1680 C 0.06272 0.74758 0.23164 0.0
C1681 C 0.06576 0.75116 0.25197 0.0
C1682 C 0.07983 0.76778 0.25837 0.0
C1683 C 0.09108 0.78023 0.24449 0.0
C1684 C 0.04786 0.73 0.22428 0.0
C1685 C 0.08346 0.77218 0.2799 0.0
H1686 H 0.01945 0.72251 0.29722 0.0
H1687 H 0.05787 0.70525 0.29337 0.0
H1688 H 0.04239 0.76154 0.27251 0.0
H1689 H 0.03091 0.74684 0.25261 0.0
H1690 H 0.01975 0.74387 0.27581 0.0
H1691 H 0.08067 0.71636 0.27011 0.0
H1692 H 0.07683 0.72544 0.24812 0.0
H1693 H 0.08987 0.73999 0.26751 0.0
H1694 H 0.07225 0.75741 0.20249 0.0
H1695 H 0.10203 0.79285 0.24941 0.0
H1696 H 0.03511 0.72677 0.23143 0.0
H1697 H 0.05071 0.71928 0.22815 0.0
H1698 H 0.04618 0.72995 0.20813 0.0
H1699 H 0.07119 0.76992 0.28747 0.0
H1700 H 0.09408 0.78616 0.2824 0.0
H1701 H 0.08762 0.76327 0.2868 0.0
C1702 C 0.28645 0.34 0.29008 0.0
C1703 C 0.28722 0.32549 0.29787 0.0
C1704 C 0.27456 0.33773 0.27496 0.0
C1705 C 0.26301 0.32048 0.26755 0.0
C1706 C 0.26392 0.30578 0.27511 0.0
C1707 C 0.2761 0.30847 0.29016 0.0
C1708 C 0.27411 0.35378 0.26721 0.0
C1709 C 0.25174 0.28718 0.26766 0.0
C1710 C 0.22076 0.3151 0.24482 0.0
C1711 C 0.22489 0.31689 0.22478 0.0
C1712 C 0.23276 0.31548 0.25883 0.0
C1713 C 0.24939 0.31787 0.25266 0.0
C1714 C 0.25341 0.31909 0.23238 0.0
C1715 C 0.24105 0.3185 0.21866 0.0
C1716 C 0.22787 0.31393 0.28027 0.0
C1717 C 0.27104 0.32177 0.22525 0.0
H1718 H 0.2951 0.35321 0.2959 0.0
H1719 H 0.27665 0.29721 0.29614 0.0
H1720 H 0.27583 0.35462 0.25106 0.0
H1721 H 0.26098 0.35247 0.2704 0.0
H1722 H 0.28463 0.36638 0.2738 0.0
H1723 H 0.25475 0.27732 0.27432 0.0
H1724 H 0.23772 0.28319 0.27102 0.0
H1725 H 0.25285 0.28673 0.25149 0.0
H1726 H 0.20815 0.31355 0.24957 0.0
H1727 H 0.2443 0.31995 0.20317 0.0
H1728 H 0.23684 0.32663 0.28786 0.0
H1729 H 0.22966 0.30344 0.28734 0.0
H1730 H 0.21392 0.31077 0.28254 0.0
H1731 H 0.2819 0.33497 0.23009 0.0
H1732 H 0.27154 0.32103 0.20902 0.0
H1733 H 0.27369 0.31162 0.23173 0.0
C1734 C 0.28225 0.33164 0.3996 0.0
C1735 C 0.29799 0.34541 0.39154 0.0
C1736 C 0.27327 0.33497 0.4146 0.0
C1737 C 0.28011 0.35253 0.42163 0.0
C1738 C 0.29623 0.36644 0.41388 0.0
C1739 C 0.30503 0.3627 0.39894 0.0
C1740 C 0.25619 0.31973 0.42257 0.0
C1741 C 0.30385 0.38534 0.42093 0.0
C1742 C 0.2446 0.36066 0.4431 0.0
C1743 C 0.24634 0.35864 0.46322 0.0
C1744 C 0.25613 0.35962 0.42948 0.0
C1745 C 0.26965 0.35633 0.43614 0.0
C1746 C 0.27198 0.35507 0.45652 0.0
C1747 C 0.26032 0.35633 0.46986 0.0
C1748 C 0.25331 0.36124 0.4079 0.0
C1749 C 0.28619 0.35148 0.46416 0.0
H1750 H 0.27681 0.31823 0.39403 0.0
H1751 H 0.31721 0.37337 0.39276 0.0
H1752 H 0.25693 0.31914 0.43877 0.0
H1753 H 0.24491 0.32185 0.41907 0.0
H1754 H 0.25326 0.30671 0.4164 0.0
H1755 H 0.31709 0.3944 0.41439 0.0
H1756 H 0.29467 0.39027 0.41704 0.0
H1757 H 0.30515 0.38593 0.43713 0.0
H1758 H 0.23393 0.3627 0.43798 0.0
H1759 H 0.26163 0.3547 0.48542 0.0
H1760 H 0.24869 0.34825 0.40059 0.0
H1761 H 0.26601 0.37101 0.40087 0.0
H1762 H 0.2433 0.36541 0.40527 0.0
H1763 H 0.28288 0.33782 0.46 0.0
H1764 H 0.28748 0.35273 0.48037 0.0
H1765 H 0.29925 0.36078 0.45746 0.0
C1766 C 0.66533 0.93948 0.39505 0.0
C1767 C 0.65222 0.94377 0.3903 0.0
C1768 C 0.66281 0.92771 0.41038 0.0
C1769 C 0.64674 0.91996 0.42122 0.0
C1770 C 0.6334 0.92416 0.41645 0.0
C1771 C 0.63632 0.93606 0.40105 0.0
C1772 C 0.67739 0.92361 0.41503 0.0
C1773 C 0.61608 0.91609 0.42762 0.0
C1774 C 0.63609 0.87774 0.44853 0.0
C1775 C 0.64236 0.88421 0.46745 0.0
C1776 C 0.63679 0.88911 0.43353 0.0
C1777 C 0.64403 0.90744 0.43748 0.0
C1778 C 0.64983 0.91397 0.45668 0.0
C1779 C 0.64889 0.90228 0.47144 0.0
C1780 C 0.63045 0.88162 0.41325 0.0
C1781 C 0.6576 0.93343 0.46149 0.0
H1782 H 0.67767 0.94541 0.38683 0.0
H1783 H 0.62614 0.93934 0.39743 0.0
H1784 H 0.68183 0.92733 0.43043 0.0
H1785 H 0.67226 0.90913 0.41359 0.0
H1786 H 0.6891 0.93079 0.40524 0.0
H1787 H 0.60703 0.92067 0.42204 0.0
H1788 H 0.60918 0.90139 0.42657 0.0
H1789 H 0.61871 0.91959 0.44338 0.0
H1790 H 0.63124 0.86386 0.44522 0.0
H1791 H 0.6535 0.90734 0.48608 0.0
H1792 H 0.64193 0.88705 0.40303 0.0
H1793 H 0.621 0.88567 0.40766 0.0
H1794 H 0.62381 0.86689 0.41298 0.0
H1795 H 0.6702 0.94136 0.45327 0.0
H1796 H 0.6604 0.93618 0.47738 0.0
H1797 H 0.64836 0.93807 0.45685 0.0
C1798 C 0.05046 0.72276 0.39706 0.0
C1799 C 0.05019 0.70747 0.39003 0.0
C1800 C 0.06196 0.73289 0.41224 0.0
C1801 C 0.07363 0.72771 0.42048 0.0
C1802 C 0.07334 0.7122 0.41357 0.0
C1803 C 0.06154 0.70219 0.39845 0.0
C1804 C 0.06177 0.74927 0.4193 0.0
C1805 C 0.0857 0.70637 0.42189 0.0
C1806 C 0.11466 0.76525 0.44443 0.0
C1807 C 0.10988 0.7628 0.4643 0.0
C1808 C 0.10326 0.7535 0.43011 0.0
C1809 C 0.08659 0.73903 0.43577 0.0
C1810 C 0.0819 0.73619 0.45588 0.0
C1811 C 0.09367 0.74808 0.46995 0.0
C1812 C 0.10886 0.75687 0.40885 0.0
C1813 C 0.06417 0.721 0.46245 0.0
H1814 H 0.04163 0.72684 0.39068 0.0
H1815 H 0.06136 0.69037 0.39306 0.0
H1816 H 0.05943 0.74848 0.43535 0.0
H1817 H 0.07489 0.76125 0.41651 0.0
H1818 H 0.05135 0.75103 0.41193 0.0
H1819 H 0.08344 0.69369 0.41534 0.0
H1820 H 0.09972 0.71678 0.4192 0.0
H1821 H 0.08393 0.70465 0.438 0.0
H1822 H 0.12733 0.77648 0.44008 0.0
H1823 H 0.08993 0.74622 0.4853 0.0
H1824 H 0.09992 0.76024 0.40064 0.0
H1825 H 0.10766 0.74471 0.40209 0.0
H1826 H 0.12277 0.76792 0.40705 0.0
H1827 H 0.0533 0.72294 0.45674 0.0
H1828 H 0.06305 0.71991 0.47868 0.0
H1829 H 0.06211 0.70826 0.4564 0.0
C1830 C 0.30571 0.03402 0.73427 0.0
C1831 C 0.32268 0.04186 0.72577 0.0
C1832 C 0.30196 0.04255 0.7495 0.0
C1833 C 0.3155 0.05932 0.75628 0.0
C1834 C 0.33266 0.06727 0.74775 0.0
C1835 C 0.33604 0.05843 0.73263 0.0
C1836 C 0.28354 0.03366 0.7583 0.0
C1837 C 0.34744 0.08518 0.75452 0.0
C1838 C 0.304 0.09094 0.78209 0.0
C1839 C 0.30784 0.08929 0.8017 0.0
C1840 C 0.30591 0.08086 0.76724 0.0
C1841 C 0.31178 0.0688 0.7721 0.0
C1842 C 0.31511 0.06663 0.79193 0.0
C1843 C 0.31314 0.07694 0.8065 0.0
C1844 C 0.30232 0.08361 0.74625 0.0
C1845 C 0.32125 0.0538 0.79769 0.0
H1846 H 0.29534 0.0212 0.72905 0.0
H1847 H 0.34919 0.06455 0.72611 0.0
H1848 H 0.28428 0.0319 0.77431 0.0
H1849 H 0.27754 0.04221 0.75627 0.0
H1850 H 0.27459 0.02047 0.7516 0.0
H1851 H 0.36005 0.08948 0.74642 0.0
H1852 H 0.34344 0.09536 0.75249 0.0
H1853 H 0.34995 0.08472 0.77039 0.0
H1854 H 0.30014 0.10063 0.77824 0.0
H1855 H 0.31593 0.07547 0.82165 0.0
H1856 H 0.29286 0.0707 0.73937 0.0
H1857 H 0.31486 0.08939 0.7377 0.0
H1858 H 0.29675 0.09263 0.74506 0.0
H1859 H 0.31203 0.04038 0.79175 0.0
H1860 H 0.3221 0.0528 0.81385 0.0
H1861 H 0.33457 0.05819 0.7913 0.0
C1862 C 0.96622 0.27259 0.72605 0.0
C1863 C 0.95901 0.28245 0.71799 0.0
C1864 C 0.95752 0.26047 0.74136 0.0
C1865 C 0.94124 0.25817 0.74871 0.0
C1866 C 0.93395 0.26814 0.74065 0.0
C1867 C 0.94293 0.28015 0.7254 0.0
C1868 C 0.96569 0.25009 0.74963 0.0
C1869 C 0.9166 0.26603 0.74804 0.0
C1870 C 0.90868 0.21547 0.77466 0.0
C1871 C 0.91109 0.22087 0.79433 0.0
C1872 C 0.9187 0.22737 0.7597 0.0
C1873 C 0.93154 0.24508 0.76456 0.0
C1874 C 0.93437 0.2505 0.78445 0.0
C1875 C 0.92403 0.23834 0.7991 0.0
C1876 C 0.91515 0.22113 0.73866 0.0
C1877 C 0.94805 0.26923 0.7902 0.0
H1878 H 0.97867 0.27435 0.7204 0.0
H1879 H 0.9373 0.28775 0.71925 0.0
H1880 H 0.96785 0.25248 0.76563 0.0
H1881 H 0.95646 0.23565 0.74755 0.0
H1882 H 0.9786 0.25369 0.74258 0.0
H1883 H 0.91282 0.27489 0.7403 0.0
H1884 H 0.90577 0.25207 0.74608 0.0
H1885 H 0.91759 0.26901 0.76395 0.0
H1886 H 0.89852 0.20204 0.77088 0.0
H1887 H 0.92603 0.24251 0.81432 0.0
H1888 H 0.92769 0.2238 0.73142 0.0
H1889 H 0.90998 0.22863 0.73049 0.0
H1890 H 0.90534 0.20671 0.73743 0.0
H1891 H 0.96122 0.27276 0.78396 0.0
H1892 H 0.94938 0.27102 0.80636 0.0
H1893 H 0.94427 0.2787 0.78409 0.0
C1894 C 0.73169 0.69831 0.73162 0.0
C1895 C 0.72298 0.68106 0.72382 0.0
C1896 C 0.74408 0.70293 0.74692 0.0
C1897 C 0.74787 0.69 0.75446 0.0
C1898 C 0.73908 0.67258 0.74664 0.0
C1899 C 0.72672 0.66832 0.73146 0.0
C1900 C 0.75317 0.72161 0.75498 0.0
C1901 C 0.7428 0.65843 0.7542 0.0
C1902 C 0.79123 0.70258 0.78035 0.0
C1903 C 0.7857 0.69877 0.79994 0.0
C1904 C 0.7792 0.70054 0.76547 0.0
C1905 C 0.76123 0.69459 0.77031 0.0
C1906 C 0.75575 0.69148 0.79016 0.0
C1907 C 0.76805 0.69356 0.80475 0.0
C1908 C 0.78554 0.70389 0.74446 0.0
C1909 C 0.73673 0.68525 0.79591 0.0
H1910 H 0.7288 0.70819 0.72579 0.0
H1911 H 0.72005 0.65497 0.72549 0.0
H1912 H 0.75071 0.72131 0.77098 0.0
H1913 H 0.76776 0.72795 0.7529 0.0
H1914 H 0.74848 0.72999 0.74779 0.0
H1915 H 0.73476 0.6455 0.74658 0.0
H1916 H 0.75709 0.66278 0.75225 0.0
H1917 H 0.73989 0.65637 0.77013 0.0
H1918 H 0.8048 0.70641 0.77651 0.0
H1919 H 0.76378 0.69082 0.81991 0.0
H1920 H 0.78157 0.71278 0.73719 0.0
H1921 H 0.7792 0.69115 0.73626 0.0
H1922 H 0.80022 0.70996 0.74332 0.0
H1923 H 0.73219 0.69396 0.7893 0.0
H1924 H 0.735 0.68508 0.81207 0.0
H1925 H 0.72795 0.67162 0.79021 0.0
C1926 C 0.71804 0.64501 0.6344 0.0
C1927 C 0.70405 0.64843 0.63149 0.0
C1928 C 0.72661 0.64229 0.61848 0.0
C1929 C 0.72117 0.64319 0.59915 0.0
C1930 C 0.70659 0.64594 0.59613 0.0
C1931 C 0.69813 0.64845 0.61238 0.0
C1932 C 0.74196 0.63917 0.62234 0.0
C1933 C 0.70049 0.64707 0.57575 0.0
C1934 C 0.75768 0.65755 0.56111 0.0
C1935 C 0.75383 0.64126 0.55272 0.0
C1936 C 0.74673 0.6584 0.57569 0.0
C1937 C 0.73166 0.64256 0.58224 0.0
C1938 C 0.7274 0.62613 0.57349 0.0
C1939 C 0.73849 0.62569 0.55877 0.0
C1940 C 0.75169 0.67621 0.58458 0.0
C1941 C 0.71145 0.60897 0.58011 0.0
H1942 H 0.7226 0.64489 0.64917 0.0
H1943 H 0.68735 0.65113 0.61007 0.0
H1944 H 0.73998 0.62719 0.61435 0.0
H1945 H 0.75448 0.65063 0.61683 0.0
H1946 H 0.7436 0.63744 0.63819 0.0
H1947 H 0.68799 0.64765 0.5759 0.0
H1948 H 0.71097 0.65917 0.56834 0.0
H1949 H 0.69833 0.63548 0.56684 0.0
H1950 H 0.76961 0.66963 0.55679 0.0
H1951 H 0.73524 0.61308 0.55215 0.0
H1952 H 0.75541 0.67648 0.60019 0.0
H1953 H 0.74013 0.67837 0.58419 0.0
H1954 H 0.76302 0.6874 0.57684 0.0
H1955 H 0.71334 0.60624 0.59555 0.0
H1956 H 0.70929 0.59748 0.57095 0.0
H1957 H 0.69928 0.61008 0.57963 0.0
C1958 C 0.35443 0.05241 0.61884 0.0
C1959 C 0.34428 0.052 0.63501 0.0
C1960 C 0.35635 0.06296 0.6024 0.0
C1961 C 0.34827 0.07363 0.60242 0.0
C1962 C 0.33848 0.07367 0.61902 0.0
C1963 C 0.33642 0.06268 0.63501 0.0
C1964 C 0.36656 0.06229 0.58481 0.0
C1965 C 0.33 0.08517 0.61981 0.0
C1966 C 0.3637 0.11273 0.56767 0.0
C1967 C 0.34961 0.10612 0.55425 0.0
C1968 C 0.36373 0.10213 0.58316 0.0
C1969 C 0.34951 0.08441 0.58495 0.0
C1970 C 0.33573 0.07743 0.57078 0.0
C1971 C 0.33582 0.08847 0.55573 0.0
C1972 C 0.37847 0.11016 0.59817 0.0
C1973 C 0.32055 0.0585 0.57193 0.0
H1974 H 0.36041 0.04404 0.61877 0.0
H1975 H 0.32865 0.06245 0.64757 0.0
H1976 H 0.35757 0.05717 0.57193 0.0
H1977 H 0.37741 0.07584 0.58105 0.0
H1978 H 0.37241 0.05366 0.58731 0.0
H1979 H 0.32377 0.08446 0.63425 0.0
H1980 H 0.34011 0.09922 0.6168 0.0
H1981 H 0.31963 0.08092 0.60831 0.0
H1982 H 0.37426 0.12647 0.56658 0.0
H1983 H 0.32498 0.0834 0.54526 0.0
H1984 H 0.38444 0.1016 0.60025 0.0
H1985 H 0.37293 0.11104 0.61252 0.0
H1986 H 0.38916 0.12369 0.59394 0.0
H1987 H 0.32574 0.04923 0.57365 0.0
H1988 H 0.31193 0.0546 0.5587 0.0
H1989 H 0.31224 0.0569 0.58497 0.0
C1990 C 0.94796 0.27865 0.61906 0.0
C1991 C 0.94855 0.29345 0.62805 0.0
C1992 C 0.93574 0.26939 0.60407 0.0
C1993 C 0.92376 0.275 0.59796 0.0
C1994 C 0.92447 0.29011 0.60674 0.0
C1995 C 0.93691 0.29919 0.62169 0.0
C1996 C 0.93543 0.25336 0.59504 0.0
C1997 C 0.91186 0.29643 0.60064 0.0
C1998 C 0.90092 0.25634 0.5491 0.0
C1999 C 0.88508 0.24139 0.55519 0.0
C2000 C 0.91342 0.26786 0.56288 0.0
C2001 C 0.90988 0.26435 0.58316 0.0
C2002 C 0.89353 0.24973 0.58934 0.0
C2003 C 0.88135 0.23842 0.57528 0.0
C2004 C 0.93073 0.2833 0.55574 0.0
C2005 C 0.88916 0.24561 0.61081 0.0
H2006 H 0.95699 0.2742 0.62384 0.0
H2007 H 0.93735 0.31065 0.62858 0.0
H2008 H 0.92245 0.24127 0.59808 0.0
H2009 H 0.93684 0.25488 0.57889 0.0
H2010 H 0.9462 0.25125 0.6008 0.0
H2011 H 0.91476 0.30894 0.60816 0.0
H2012 H 0.91262 0.29864 0.58457 0.0
H2013 H 0.89799 0.28607 0.60408 0.0
H2014 H 0.90384 0.25863 0.53357 0.0
H2015 H 0.86896 0.22704 0.58002 0.0
H2016 H 0.94186 0.28103 0.55955 0.0
H2017 H 0.93334 0.29576 0.56311 0.0
H2018 H 0.93077 0.28516 0.53963 0.0
H2019 H 0.89846 0.24186 0.6175 0.0
H2020 H 0.87534 0.23457 0.61317 0.0
H2021 H 0.8909 0.25755 0.61869 0.0
C2022 C 0.32434 0.27457 0.62282 0.0
C2023 C 0.33894 0.28886 0.632 0.0
C2024 C 0.32673 0.26509 0.60765 0.0
C2025 C 0.34417 0.26993 0.60158 0.0
C2026 C 0.35899 0.2845 0.6106 0.0
C2027 C 0.35619 0.29385 0.62569 0.0
C2028 C 0.31058 0.24968 0.59834 0.0
C2029 C 0.37778 0.28997 0.60458 0.0
C2030 C 0.34808 0.23259 0.57792 0.0
C2031 C 0.34799 0.23624 0.55791 0.0
C2032 C 0.34754 0.24384 0.59228 0.0
C2033 C 0.34677 0.25907 0.5865 0.0
C2034 C 0.34725 0.26316 0.56632 0.0
C2035 C 0.34794 0.25171 0.55224 0.0
C2036 C 0.34724 0.23912 0.61363 0.0
C2037 C 0.34635 0.27923 0.55961 0.0
H2038 H 0.31097 0.27072 0.62756 0.0
H2039 H 0.36752 0.30491 0.63273 0.0
H2040 H 0.3109 0.25151 0.58222 0.0
H2041 H 0.31068 0.23716 0.60111 0.0
H2042 H 0.29793 0.24818 0.6041 0.0
H2043 H 0.38781 0.30208 0.6124 0.0
H2044 H 0.38047 0.27901 0.60769 0.0
H2045 H 0.37947 0.29251 0.58857 0.0
H2046 H 0.34844 0.22079 0.58234 0.0
H2047 H 0.34781 0.25452 0.53678 0.0
H2048 H 0.33431 0.23595 0.62024 0.0
H2049 H 0.35781 0.2506 0.6218 0.0
H2050 H 0.34917 0.22752 0.61569 0.0
H2051 H 0.33324 0.27763 0.56359 0.0
H2052 H 0.3482 0.28127 0.54351 0.0
H2053 H 0.35668 0.29135 0.56713 0.0
C2054 C 0.71527 0.07072 0.63676 0.0
C2055 C 0.70081 0.0537 0.63324 0.0
C2056 C 0.72427 0.08234 0.62118 0.0
C2057 C 0.71855 0.07683 0.60168 0.0
C2058 C 0.70326 0.06009 0.59817 0.0
C2059 C 0.69462 0.04867 0.614 0.0
C2060 C 0.74056 0.10007 0.62553 0.0
C2061 C 0.6966 0.05383 0.57762 0.0
C2062 C 0.73872 0.11221 0.56198 0.0
C2063 C 0.75274 0.10992 0.55528 0.0
C2064 C 0.72712 0.10122 0.57672 0.0
C2065 C 0.72968 0.08773 0.58499 0.0
C2066 C 0.74344 0.08501 0.57783 0.0
C2067 C 0.75472 0.09607 0.56301 0.0
C2068 C 0.71247 0.10437 0.58386 0.0
C2069 C 0.74659 0.07074 0.5862 0.0
H2070 H 0.7201 0.07467 0.6516 0.0
H2071 H 0.68337 0.03555 0.61123 0.0
H2072 H 0.75258 0.10008 0.61995 0.0
H2073 H 0.73975 0.1109 0.61791 0.0
H2074 H 0.7423 0.10304 0.64148 0.0
H2075 H 0.68334 0.04156 0.57754 0.0
H2076 H 0.69572 0.06433 0.56931 0.0
H2077 H 0.70613 0.05104 0.56976 0.0
H2078 H 0.73719 0.12297 0.55618 0.0
H2079 H 0.7653 0.09401 0.55763 0.0
H2080 H 0.71513 0.10915 0.59924 0.0
H2081 H 0.69953 0.09177 0.5837 0.0
H2082 H 0.7113 0.11435 0.57479 0.0
H2083 H 0.7499 0.07331 0.60202 0.0
H2084 H 0.75759 0.07009 0.57866 0.0
H2085 H 0.73433 0.05757 0.58498 0.0
C2086 C 0.92624 0.64258 0.63615 0.0
C2087 C 0.94392 0.64738 0.63215 0.0
C2088 C 0.9142 0.63959 0.62091 0.0
C2089 C 0.91999 0.64142 0.6012 0.0
C2090 C 0.93759 0.64539 0.59707 0.0
C2091 C 0.94936 0.64834 0.61261 0.0
C2092 C 0.89552 0.63532 0.62592 0.0
C2093 C 0.94424 0.64738 0.57625 0.0
C2094 C 0.88485 0.62393 0.56102 0.0
C2095 C 0.88481 0.63943 0.55537 0.0
C2096 C 0.89639 0.62436 0.57574 0.0
C2097 C 0.90812 0.64068 0.58504 0.0
C2098 C 0.90828 0.65639 0.57923 0.0
C2099 C 0.89662 0.65557 0.56451 0.0
C2100 C 0.8959 0.60736 0.58148 0.0
C2101 C 0.92056 0.67406 0.58882 0.0
H2102 H 0.92194 0.64178 0.65123 0.0
H2103 H 0.96301 0.65201 0.60942 0.0
H2104 H 0.89364 0.64655 0.62148 0.0
H2105 H 0.88566 0.62341 0.61772 0.0
H2106 H 0.89266 0.63289 0.64185 0.0
H2107 H 0.95766 0.64877 0.57547 0.0
H2108 H 0.9349 0.63574 0.56732 0.0
H2109 H 0.94493 0.65932 0.56953 0.0
H2110 H 0.87589 0.61144 0.55387 0.0
H2111 H 0.89647 0.66755 0.56049 0.0
H2112 H 0.89206 0.60435 0.59712 0.0
H2113 H 0.90932 0.60891 0.57989 0.0
H2114 H 0.88636 0.59586 0.57246 0.0
H2115 H 0.91751 0.67335 0.6047 0.0
H2116 H 0.91937 0.68511 0.58227 0.0
H2117 H 0.93457 0.6772 0.58745 0.0
C2118 C 0.9526 0.69304 0.71925 0.0
C2119 C 0.96494 0.68746 0.72288 0.0
C2120 C 0.9437 0.69594 0.73472 0.0
C2121 C 0.94722 0.6932 0.75429 0.0
C2122 C 0.9603 0.68841 0.75808 0.0
C2123 C 0.96901 0.68559 0.74232 0.0
C2124 C 0.92989 0.70112 0.73007 0.0
C2125 C 0.96449 0.68543 0.77873 0.0
C2126 C 0.93036 0.71052 0.79544 0.0
C2127 C 0.91432 0.69523 0.80048 0.0
C2128 C 0.94137 0.71005 0.78062 0.0
C2129 C 0.9362 0.69391 0.7706 0.0
C2130 C 0.92016 0.67839 0.77583 0.0
C2131 C 0.90943 0.67924 0.79066 0.0
C2132 C 0.95839 0.72685 0.7755 0.0
C2133 C 0.91416 0.66092 0.76548 0.0
H2134 H 0.94942 0.69453 0.70426 0.0
H2135 H 0.97855 0.6813 0.74522 0.0
H2136 H 0.9165 0.69009 0.73413 0.0
H2137 H 0.93235 0.71291 0.73881 0.0
H2138 H 0.92978 0.70417 0.71428 0.0
H2139 H 0.97616 0.68343 0.77932 0.0
H2140 H 0.96717 0.69689 0.7882 0.0
H2141 H 0.95283 0.67351 0.78499 0.0
H2142 H 0.93432 0.72287 0.80311 0.0
H2143 H 0.89692 0.66744 0.79421 0.0
H2144 H 0.95791 0.73052 0.76003 0.0
H2145 H 0.96987 0.72463 0.77683 0.0
H2146 H 0.96078 0.73818 0.78506 0.0
H2147 H 0.91206 0.66227 0.74968 0.0
H2148 H 0.90161 0.64996 0.77168 0.0
H2149 H 0.92461 0.65717 0.76655 0.0
C2150 C 0.30222 0.27003 0.73164 0.0
C2151 C 0.31893 0.27894 0.72254 0.0
C2152 C 0.29887 0.25801 0.74704 0.0
C2153 C 0.31255 0.25484 0.7534 0.0
C2154 C 0.32944 0.26381 0.74423 0.0
C2155 C 0.33242 0.27575 0.72894 0.0
C2156 C 0.28071 0.24871 0.7565 0.0
C2157 C 0.34437 0.26075 0.75054 0.0
C2158 C 0.31201 0.23615 0.80388 0.0
C2159 C 0.30663 0.2184 0.79948 0.0
C2160 C 0.31335 0.24803 0.78913 0.0
C2161 C 0.30931 0.24202 0.7695 0.0
C2162 C 0.30335 0.22398 0.76506 0.0
C2163 C 0.30208 0.2124 0.7801 0.0
C2164 C 0.31964 0.26713 0.79446 0.0
C2165 C 0.29901 0.21708 0.7443 0.0
H2166 H 0.29176 0.27248 0.72676 0.0
H2167 H 0.34538 0.28259 0.72197 0.0
H2168 H 0.27466 0.23411 0.75488 0.0
H2169 H 0.28194 0.25165 0.77243 0.0
H2170 H 0.27157 0.25278 0.74999 0.0
H2171 H 0.35672 0.26881 0.74192 0.0
H2172 H 0.34742 0.26413 0.76628 0.0
H2173 H 0.34025 0.24651 0.74883 0.0
H2174 H 0.31534 0.24081 0.81887 0.0
H2175 H 0.29813 0.19876 0.77654 0.0
H2176 H 0.31023 0.27117 0.78876 0.0
H2177 H 0.33275 0.27591 0.78754 0.0
H2178 H 0.321 0.26938 0.81056 0.0
H2179 H 0.28937 0.22043 0.73771 0.0
H2180 H 0.29334 0.20246 0.7435 0.0
H2181 H 0.31125 0.22357 0.73523 0.0
C2182 C 0.71733 0.0336 0.74074 0.0
C2183 C 0.72237 0.03631 0.72094 0.0
C2184 C 0.7296 0.04318 0.7556 0.0
C2185 C 0.74732 0.05583 0.75054 0.0
C2186 C 0.75269 0.05805 0.73063 0.0
C2187 C 0.74014 0.04822 0.71605 0.0
C2188 C 0.72337 0.04033 0.77665 0.0
C2189 C 0.77148 0.0714 0.72466 0.0
C2190 C 0.77191 0.09497 0.78507 0.0
C2191 C 0.78295 0.0903 0.79534 0.0
C2192 C 0.76035 0.0839 0.77041 0.0
C2193 C 0.75978 0.06772 0.76589 0.0
C2194 C 0.77087 0.06289 0.7762 0.0
C2195 C 0.78236 0.07427 0.79079 0.0
C2196 C 0.74878 0.08956 0.7597 0.0
C2197 C 0.77055 0.0457 0.77186 0.0
H2198 H 0.70362 0.02434 0.74462 0.0
H2199 H 0.7441 0.05037 0.70077 0.0
H2200 H 0.73243 0.03797 0.786 0.0
H2201 H 0.72364 0.05245 0.78224 0.0
H2202 H 0.70963 0.02891 0.77829 0.0
H2203 H 0.77393 0.07045 0.70884 0.0
H2204 H 0.77408 0.08504 0.72772 0.0
H2205 H 0.78117 0.06947 0.73337 0.0
H2206 H 0.77253 0.10749 0.78827 0.0
H2207 H 0.79077 0.07053 0.79879 0.0
H2208 H 0.73454 0.07946 0.76174 0.0
H2209 H 0.75159 0.09049 0.74375 0.0
H2210 H 0.75091 0.1026 0.76489 0.0
H2211 H 0.757 0.03429 0.77445 0.0
H2212 H 0.78013 0.04398 0.78105 0.0
H2213 H 0.77377 0.04527 0.7562 0.0
C2214 C 0.05615 0.34316 0.02835 0.0
C2215 C 0.03984 0.33981 0.03621 0.0
C2216 C 0.06797 0.34009 0.03948 0.0
C2217 C 0.06351 0.33394 0.05904 0.0
C2218 C 0.04705 0.33056 0.067 0.0
C2219 C 0.03535 0.33336 0.05542 0.0
C2220 C 0.08524 0.34349 0.03038 0.0
C2221 C 0.04194 0.32433 0.0879 0.0
C2222 C 0.08591 0.31212 0.08588 0.0
C2223 C 0.09863 0.32624 0.09729 0.0
C2224 C 0.07482 0.31458 0.07284 0.0
C2225 C 0.07618 0.33147 0.07146 0.0
C2226 C 0.08905 0.3458 0.08277 0.0
C2227 C 0.10024 0.34307 0.09535 0.0
C2228 C 0.06141 0.29903 0.06081 0.0
C2229 C 0.09076 0.36395 0.08192 0.0
H2230 H 0.05961 0.34807 0.01347 0.0
H2231 H 0.0228 0.33086 0.0616 0.0
H2232 H 0.09664 0.35418 0.03852 0.0
H2233 H 0.0864 0.33137 0.03142 0.0
H2234 H 0.08635 0.34744 0.01473 0.0
H2235 H 0.02864 0.32232 0.09185 0.0
H2236 H 0.04182 0.31164 0.09017 0.0
H2237 H 0.05194 0.33423 0.09811 0.0
H2238 H 0.08436 0.29901 0.08738 0.0
H2239 H 0.11028 0.3542 0.10366 0.0
H2240 H 0.06271 0.30274 0.04508 0.0
H2241 H 0.04774 0.29534 0.06543 0.0
H2242 H 0.06302 0.28719 0.06237 0.0
H2243 H 0.09338 0.36901 0.06665 0.0
H2244 H 0.10161 0.37377 0.09146 0.0
H2245 H 0.07807 0.36302 0.08657 0.0
C2246 C 0.65123 0.70634 0.0362 0.0
C2247 C 0.66404 0.7012 0.03367 0.0
C2248 C 0.65475 0.72101 0.04793 0.0
C2249 C 0.67158 0.73091 0.05709 0.0
C2250 C 0.6848 0.7262 0.05393 0.0
C2251 C 0.68082 0.71129 0.04238 0.0
C2252 C 0.64025 0.72551 0.05113 0.0
C2253 C 0.70299 0.73661 0.06317 0.0
C2254 C 0.6841 0.7766 0.07686 0.0
C2255 C 0.6802 0.77306 0.09689 0.0
C2256 C 0.68169 0.7631 0.06377 0.0
C2257 C 0.67498 0.74558 0.07082 0.0
C2258 C 0.6712 0.74194 0.09102 0.0
C2259 C 0.67399 0.75573 0.10382 0.0
C2260 C 0.68608 0.76752 0.04236 0.0
C2261 C 0.66394 0.7234 0.09909 0.0
H2262 H 0.63822 0.69852 0.02955 0.0
H2263 H 0.69079 0.70741 0.04037 0.0
H2264 H 0.63646 0.72383 0.06685 0.0
H2265 H 0.64512 0.73961 0.04731 0.0
H2266 H 0.62818 0.71698 0.04228 0.0
H2267 H 0.7122 0.73205 0.05806 0.0
H2268 H 0.70896 0.75096 0.05976 0.0
H2269 H 0.7018 0.73522 0.07935 0.0
H2270 H 0.68867 0.78987 0.07129 0.0
H2271 H 0.67127 0.75291 0.11931 0.0
H2272 H 0.67383 0.76021 0.03341 0.0
H2273 H 0.6955 0.7632 0.03739 0.0
H2274 H 0.69206 0.78196 0.0394 0.0
H2275 H 0.65118 0.71416 0.09177 0.0
H2276 H 0.66164 0.72278 0.11517 0.0
H2277 H 0.67333 0.71855 0.09598 0.0
C2278 C 0.29808 0.96832 0.06112 0.0
C2279 C 0.29903 0.96451 0.04133 0.0
C2280 C 0.28336 0.95697 0.07267 0.0
C2281 C 0.26912 0.94155 0.06414 0.0
C2282 C 0.26981 0.93783 0.04404 0.0
C2283 C 0.28485 0.94931 0.03289 0.0
C2284 C 0.28321 0.96128 0.0941 0.0
C2285 C 0.25477 0.92164 0.03439 0.0
C2286 C 0.24003 0.90358 0.0984 0.0
C2287 C 0.2255 0.90619 0.10137 0.0
C2288 C 0.25424 0.91491 0.08621 0.0
C2289 C 0.25381 0.92906 0.07648 0.0
C2290 C 0.23906 0.93159 0.07907 0.0
C2291 C 0.22514 0.92021 0.09158 0.0
C2292 C 0.26981 0.91186 0.08394 0.0
C2293 C 0.23808 0.94646 0.0688 0.0
H2294 H 0.30905 0.98003 0.06774 0.0
H2295 H 0.28551 0.94636 0.01757 0.0
H2296 H 0.27123 0.96224 0.09748 0.0
H2297 H 0.28256 0.95043 0.10327 0.0
H2298 H 0.2952 0.97396 0.09839 0.0
H2299 H 0.25699 0.92109 0.01843 0.0
H2300 H 0.25323 0.90942 0.04135 0.0
H2301 H 0.24206 0.92157 0.03651 0.0
H2302 H 0.24029 0.89258 0.10554 0.0
H2303 H 0.21409 0.92248 0.09394 0.0
H2304 H 0.2822 0.92379 0.08893 0.0
H2305 H 0.27165 0.90977 0.06827 0.0
H2306 H 0.26805 0.90019 0.09244 0.0
H2307 H 0.24909 0.95948 0.07388 0.0
H2308 H 0.22527 0.94606 0.07155 0.0
H2309 H 0.23973 0.94571 0.05276 0.0
C2310 C 0.34156 0.05107 0.98876 0.0
C2311 C 0.33433 0.03352 0.98219 0.0
C2312 C 0.33917 0.0635 0.97801 0.0
C2313 C 0.32962 0.0583 0.96011 0.0
C2314 C 0.32217 0.04054 0.95353 0.0
C2315 C 0.32447 0.02832 0.96474 0.0
C2316 C 0.34704 0.08225 0.98566 0.0
C2317 C 0.31213 0.03453 0.93439 0.0
C2318 C 0.31086 0.08548 0.93768 0.0
C2319 C 0.32388 0.0956 0.92372 0.0
C2320 C 0.31274 0.07356 0.94995 0.0
C2321 C 0.32784 0.07151 0.94792 0.0
C2322 C 0.34102 0.0817 0.9338 0.0
C2323 C 0.33895 0.09375 0.92199 0.0
C2324 C 0.29856 0.06315 0.96505 0.0
C2325 C 0.35715 0.07965 0.93095 0.0
H2326 H 0.34913 0.05511 0.00228 0.0
H2327 H 0.31895 0.01479 0.95954 0.0
H2328 H 0.35731 0.09166 0.97533 0.0
H2329 H 0.33658 0.08599 0.98667 0.0
H2330 H 0.35324 0.08391 1.00033 0.0
H2331 H 0.30698 0.02019 0.93147 0.0
H2332 H 0.30076 0.03697 0.93448 0.0
H2333 H 0.32098 0.04235 0.92211 0.0
H2334 H 0.29929 0.08706 0.93915 0.0
H2335 H 0.34896 0.10149 0.91108 0.0
H2336 H 0.30463 0.06543 0.97985 0.0
H2337 H 0.29226 0.04872 0.96194 0.0
H2338 H 0.28803 0.06684 0.96531 0.0
H2339 H 0.3647 0.0825 0.94487 0.0
H2340 H 0.3662 0.08864 0.9194 0.0
H2341 H 0.35289 0.06573 0.92683 0.0
C2342 C 0.95066 0.30495 0.96946 0.0
C2343 C 0.96557 0.30523 0.97774 0.0
C2344 C 0.93858 0.29054 0.9579 0.0
C2345 C 0.9414 0.27603 0.95478 0.0
C2346 C 0.95617 0.27605 0.96357 0.0
C2347 C 0.96814 0.29071 0.97484 0.0
C2348 C 0.92305 0.29105 0.94864 0.0
C2349 C 0.9595 0.26072 0.96081 0.0
C2350 C 0.90261 0.23198 0.93776 0.0
C2351 C 0.90627 0.23217 0.91771 0.0
C2352 C 0.91391 0.24617 0.95001 0.0
C2353 C 0.92914 0.26097 0.94196 0.0
C2354 C 0.93285 0.26128 0.92169 0.0
C2355 C 0.92142 0.24682 0.90983 0.0
C2356 C 0.90964 0.24524 0.97159 0.0
C2357 C 0.94888 0.27692 0.91254 0.0
H2358 H 0.94867 0.31619 0.97159 0.0
H2359 H 0.97962 0.29084 0.98128 0.0
H2360 H 0.924 0.29073 0.93244 0.0
H2361 H 0.91037 0.27915 0.95302 0.0
H2362 H 0.92251 0.30312 0.95286 0.0
H2363 H 0.97115 0.26244 0.96935 0.0
H2364 H 0.94761 0.2481 0.96536 0.0
H2365 H 0.96186 0.25939 0.94508 0.0
H2366 H 0.891 0.22057 0.94394 0.0
H2367 H 0.92418 0.24708 0.89429 0.0
H2368 H 0.90816 0.25676 0.97585 0.0
H2369 H 0.92076 0.246 0.98036 0.0
H2370 H 0.89722 0.23282 0.97552 0.0
H2371 H 0.94843 0.28928 0.91519 0.0
H2372 H 0.94967 0.27526 0.89648 0.0
H2373 H 0.96123 0.2787 0.91944 0.0
C2374 C 0.69889 0.67137 0.95667 0.0
C2375 C 0.69596 0.66374 0.97539 0.0
C2376 C 0.71388 0.67469 0.94564 0.0
C2377 C 0.72633 0.67043 0.9536 0.0
C2378 C 0.72354 0.66288 0.97258 0.0
C2379 C 0.70832 0.65954 0.98322 0.0
C2380 C 0.71631 0.68259 0.92539 0.0
C2381 C 0.73661 0.6583 0.98161 0.0
C2382 C 0.75614 0.66339 0.91839 0.0
C2383 C 0.77193 0.67985 0.91928 0.0
C2384 C 0.7412 0.66014 0.92949 0.0
C2385 C 0.74214 0.67364 0.94192 0.0
C2386 C 0.75807 0.69027 0.94294 0.0
C2387 C 0.77276 0.69321 0.93152 0.0
C2388 C 0.72438 0.64232 0.92782 0.0
C2389 C 0.75961 0.70492 0.95615 0.0
H2390 H 0.68935 0.6746 0.95052 0.0
H2391 H 0.70612 0.65368 0.9977 0.0
H2392 H 0.72914 0.69528 0.92453 0.0
H2393 H 0.7168 0.67345 0.91437 0.0
H2394 H 0.70541 0.68518 0.92135 0.0
H2395 H 0.73272 0.65292 0.9967 0.0
H2396 H 0.7376 0.6483 0.97242 0.0
H2397 H 0.75005 0.67029 0.98214 0.0
H2398 H 0.7554 0.6531 0.90878 0.0
H2399 H 0.78501 0.70588 0.9324 0.0
H2400 H 0.71328 0.64415 0.92269 0.0
H2401 H 0.72058 0.63585 0.94242 0.0
H2402 H 0.72586 0.63324 0.91751 0.0
H2403 H 0.74957 0.70865 0.95194 0.0
H2404 H 0.77302 0.71698 0.95548 0.0
H2405 H 0.75682 0.70019 0.97154 0.0
C2406 C 0.94741 0.64914 0.97888 0.0
C2407 C 0.96448 0.66277 0.98394 0.0
C2408 C 0.93618 0.65262 0.96723 0.0
C2409 C 0.94206 0.67023 0.96094 0.0
C2410 C 0.95907 0.68414 0.96658 0.0
C2411 C 0.97018 0.68019 0.97782 0.0
C2412 C 0.91826 0.6374 0.9612 0.0
C2413 C 0.96562 0.70314 0.96056 0.0
C2414 C 0.92129 0.67727 0.91533 0.0
C2415 C 0.90835 0.68046 0.92347 0.0
C2416 C 0.93231 0.67382 0.92738 0.0
C2417 C 0.93057 0.67402 0.94802 0.0
C2418 C 0.91776 0.67764 0.95629 0.0
C2419 C 0.90663 0.6806 0.94387 0.0
C2420 C 0.94557 0.66967 0.91803 0.0
C2421 C 0.91581 0.67837 0.97821 0.0
H2422 H 0.94304 0.63563 0.98348 0.0
H2423 H 0.98336 0.69076 0.98183 0.0
H2424 H 0.90754 0.63995 0.966 0.0
H2425 H 0.91754 0.63625 0.94498 0.0
H2426 H 0.91563 0.62451 0.96745 0.0
H2427 H 0.97874 0.71252 0.96716 0.0
H2428 H 0.96687 0.70433 0.94438 0.0
H2429 H 0.95587 0.70718 0.96502 0.0
H2430 H 0.92246 0.67704 0.89952 0.0
H2431 H 0.89666 0.6832 0.95009 0.0
H2432 H 0.94292 0.65637 0.92284 0.0
H2433 H 0.95924 0.67947 0.92284 0.0
H2434 H 0.94508 0.66982 0.90176 0.0
H2435 H 0.91194 0.66527 0.9848 0.0
H2436 H 0.90567 0.68205 0.98226 0.0
H2437 H 0.92874 0.6882 0.98479 0.0
C2438 C 0.33141 0.30337 0.96006 0.0
C2439 C 0.34078 0.30727 0.9778 0.0
C2440 C 0.32858 0.28876 0.94865 0.0
C2441 C 0.33505 0.27763 0.95529 0.0
C2442 C 0.3443 0.28134 0.97334 0.0
C2443 C 0.34719 0.29623 0.98432 0.0
C2444 C 0.31887 0.28537 0.92935 0.0
C2445 C 0.35117 0.26961 0.98102 0.0
C2446 C 0.31396 0.23122 0.93354 0.0
C2447 C 0.32682 0.23314 0.91981 0.0
C2448 C 0.31657 0.24553 0.94539 0.0
C2449 C 0.33229 0.26221 0.9432 0.0
C2450 C 0.34526 0.26424 0.92925 0.0
C2451 C 0.34242 0.24962 0.91782 0.0
C2452 C 0.30256 0.2428 0.96029 0.0
C2453 C 0.36205 0.28189 0.92628 0.0
H2454 H 0.32651 0.31193 0.95492 0.0
H2455 H 0.35439 0.29918 0.99806 0.0
H2456 H 0.32753 0.28565 0.91722 0.0
H2457 H 0.30684 0.27197 0.92939 0.0
H2458 H 0.31476 0.29535 0.92625 0.0
H2459 H 0.35764 0.27403 0.99558 0.0
H2460 H 0.34007 0.25571 0.98227 0.0
H2461 H 0.36096 0.2696 0.97058 0.0
H2462 H 0.30198 0.2184 0.93522 0.0
H2463 H 0.3523 0.25113 0.90709 0.0
H2464 H 0.29726 0.25179 0.95708 0.0
H2465 H 0.30854 0.24621 0.97515 0.0
H2466 H 0.29129 0.22889 0.96046 0.0
H2467 H 0.35861 0.29213 0.92207 0.0
H2468 H 0.37076 0.28126 0.91475 0.0
H2469 H 0.36967 0.28631 0.94018 0.0
C2470 C 0.70334 0.05356 0.97475 0.0
C2471 C 0.70068 0.03683 0.97999 0.0
C2472 C 0.71779 0.06511 0.96293 0.0
C2473 C 0.73007 0.05992 0.95662 0.0
C2474 C 0.72773 0.04324 0.96239 0.0
C2475 C 0.71292 0.03179 0.97382 0.0
C2476 C 0.71965 0.08264 0.95677 0.0
C2477 C 0.74077 0.03742 0.95635 0.0
C2478 C 0.75751 0.08139 0.91089 0.0
C2479 C 0.77342 0.09482 0.91895 0.0
C2480 C 0.74325 0.06996 0.92299 0.0
C2481 C 0.74515 0.0718 0.94363 0.0
C2482 C 0.76138 0.08512 0.95182 0.0
C2483 C 0.77526 0.09662 0.93936 0.0
C2484 C 0.72603 0.05615 0.9137 0.0
C2485 C 0.76407 0.08723 0.97374 0.0
H2486 H 0.6938 0.05742 0.97938 0.0
H2487 H 0.71092 0.01887 0.97794 0.0
H2488 H 0.73272 0.09377 0.96154 0.0
H2489 H 0.71919 0.08324 0.94054 0.0
H2490 H 0.70899 0.08471 0.96298 0.0
H2491 H 0.73757 0.02448 0.96297 0.0
H2492 H 0.74075 0.03617 0.94017 0.0
H2493 H 0.75445 0.04759 0.96077 0.0
H2494 H 0.75609 0.08013 0.89508 0.0
H2495 H 0.78766 0.10697 0.94555 0.0
H2496 H 0.715 0.05824 0.91847 0.0
H2497 H 0.72273 0.04267 0.9186 0.0
H2498 H 0.72667 0.05657 0.89743 0.0
H2499 H 0.75444 0.09058 0.98032 0.0
H2500 H 0.77774 0.09778 0.97774 0.0
H2501 H 0.76151 0.0745 0.98036 0.0
C2502 C 0.64761 0.94596 0.04201 0.0
C2503 C 0.6617 0.96332 0.03908 0.0
C2504 C 0.64983 0.93391 0.05371 0.0
C2505 C 0.66656 0.93934 0.0625 0.0
C2506 C 0.68091 0.95674 0.05921 0.0
C2507 C 0.67829 0.96853 0.04761 0.0
C2508 C 0.63419 0.9155 0.05698 0.0
C2509 C 0.699 0.96297 0.06817 0.0
C2510 C 0.66909 0.91574 0.10816 0.0
C2511 C 0.67475 0.90442 0.10044 0.0
C2512 C 0.66612 0.92697 0.09593 0.0
C2513 C 0.66901 0.92701 0.0755 0.0
C2514 C 0.67469 0.91562 0.06759 0.0
C2515 C 0.67742 0.90441 0.08014 0.0
C2516 C 0.66004 0.93891 0.10491 0.0
C2517 C 0.67798 0.91535 0.04589 0.0
H2518 H 0.63475 0.9419 0.03549 0.0
H2519 H 0.68924 0.98192 0.04533 0.0
H2520 H 0.63767 0.90535 0.05247 0.0
H2521 H 0.63085 0.91347 0.07282 0.0
H2522 H 0.6222 0.9132 0.04871 0.0
H2523 H 0.70893 0.97671 0.06364 0.0
H2524 H 0.69797 0.96258 0.08439 0.0
H2525 H 0.70399 0.95394 0.06385 0.0
H2526 H 0.66722 0.916 0.12384 0.0
H2527 H 0.68148 0.8955 0.07399 0.0
H2528 H 0.64749 0.93648 0.09789 0.0
H2529 H 0.67014 0.95303 0.10225 0.0
H2530 H 0.6578 0.93684 0.12097 0.0
H2531 H 0.66571 0.91195 0.03756 0.0
H2532 H 0.68226 0.90563 0.04205 0.0
H2533 H 0.68842 0.92874 0.04101 0.0
C2534 C 0.03094 0.70685 0.0508 0.0
C2535 C 0.0366 0.69614 0.04151 0.0
C2536 C 0.04273 0.72158 0.06207 0.0
C2537 C 0.06055 0.72554 0.06435 0.0
C2538 C 0.06641 0.7149 0.05481 0.0
C2539 C 0.05437 0.70038 0.04336 0.0
C2540 C 0.03605 0.73276 0.07175 0.0
C2541 C 0.08525 0.71861 0.05709 0.0
C2542 C 0.09437 0.77193 0.08172 0.0
C2543 C 0.0949 0.76933 0.10198 0.0
C2544 C 0.08339 0.75778 0.06926 0.0
C2545 C 0.07285 0.74054 0.07718 0.0
C2546 C 0.07355 0.73774 0.09752 0.0
C2547 C 0.08445 0.75217 0.10968 0.0
C2548 C 0.08287 0.76132 0.04767 0.0
C2549 C 0.06259 0.71951 0.10649 0.0
H2550 H 0.01723 0.70367 0.04932 0.0
H2551 H 0.05875 0.69207 0.03626 0.0
H2552 H 0.03694 0.73206 0.08792 0.0
H2553 H 0.0445 0.74689 0.06747 0.0
H2554 H 0.02203 0.72836 0.06779 0.0
H2555 H 0.08784 0.70937 0.0483 0.0
H2556 H 0.0948 0.73243 0.05255 0.0
H2557 H 0.08793 0.71735 0.07274 0.0
H2558 H 0.10264 0.78505 0.07554 0.0
H2559 H 0.08454 0.75004 0.12532 0.0
H2560 H 0.06916 0.75778 0.04338 0.0
H2561 H 0.0865 0.75285 0.0389 0.0
H2562 H 0.09205 0.77545 0.04378 0.0
H2563 H 0.04822 0.71487 0.10464 0.0
H2564 H 0.06537 0.71938 0.12236 0.0
H2565 H 0.06529 0.70984 0.09885 0.0
C2566 C 0.29336 0.32724 0.04624 0.0
C2567 C 0.30515 0.34415 0.03872 0.0
C2568 C 0.27897 0.32439 0.05811 0.0
C2569 C 0.27639 0.33883 0.06267 0.0
C2570 C 0.28809 0.35588 0.05487 0.0
C2571 C 0.30232 0.35833 0.04291 0.0
C2572 C 0.26669 0.30597 0.06601 0.0
C2573 C 0.28579 0.3716 0.05948 0.0
C2574 C 0.23084 0.32838 0.08091 0.0
C2575 C 0.23342 0.33003 0.10129 0.0
C2576 C 0.24473 0.3313 0.06816 0.0
C2577 C 0.26165 0.33611 0.07595 0.0
C2578 C 0.26441 0.33797 0.09647 0.0
C2579 C 0.25025 0.33486 0.1089 0.0
C2580 C 0.24127 0.32914 0.04636 0.0
C2581 C 0.28229 0.3431 0.10532 0.0
H2582 H 0.29548 0.31623 0.04301 0.0
H2583 H 0.31144 0.37144 0.03718 0.0
H2584 H 0.26725 0.30616 0.08226 0.0
H2585 H 0.25275 0.30156 0.06179 0.0
H2586 H 0.27019 0.29607 0.06055 0.0
H2587 H 0.29574 0.38388 0.05183 0.0
H2588 H 0.27227 0.3687 0.05519 0.0
H2589 H 0.28709 0.37414 0.07551 0.0
H2590 H 0.21797 0.32496 0.07488 0.0
H2591 H 0.25231 0.33596 0.12462 0.0
H2592 H 0.24389 0.31874 0.04059 0.0
H2593 H 0.25045 0.34171 0.03869 0.0
H2594 H 0.22737 0.32542 0.04265 0.0
H2595 H 0.28596 0.33291 0.10169 0.0
H2596 H 0.28239 0.3445 0.12151 0.0
H2597 H 0.29271 0.35587 0.099 0.0
C2598 C 0.71958 0.68578 0.37848 0.0
C2599 C 0.70263 0.672 0.37325 0.0
C2600 C 0.731 0.68242 0.38992 0.0
C2601 C 0.72546 0.66479 0.39585 0.0
C2602 C 0.70853 0.65076 0.39015 0.0
C2603 C 0.69722 0.65458 0.37911 0.0
C2604 C 0.74882 0.69776 0.39603 0.0
C2605 C 0.70231 0.63174 0.39582 0.0
C2606 C 0.76148 0.65475 0.41154 0.0
C2607 C 0.75993 0.65449 0.43199 0.0
C2608 C 0.75014 0.65779 0.39956 0.0
C2609 C 0.73726 0.66106 0.40832 0.0
C2610 C 0.73571 0.66087 0.429 0.0
C2611 C 0.74695 0.65738 0.4406 0.0
C2612 C 0.75192 0.65749 0.37757 0.0
C2613 C 0.72237 0.66463 0.43888 0.0
H2614 H 0.72373 0.69929 0.37407 0.0
H2615 H 0.68414 0.64389 0.37498 0.0
H2616 H 0.74968 0.69858 0.41226 0.0
H2617 H 0.75968 0.6956 0.39079 0.0
H2618 H 0.75111 0.71068 0.39022 0.0
H2619 H 0.68913 0.62229 0.38941 0.0
H2620 H 0.71212 0.62793 0.39087 0.0
H2621 H 0.70136 0.63037 0.412 0.0
H2622 H 0.77147 0.6524 0.40494 0.0
H2623 H 0.7459 0.65732 0.45645 0.0
H2624 H 0.75548 0.67064 0.37134 0.0
H2625 H 0.739 0.64759 0.37102 0.0
H2626 H 0.7622 0.65415 0.3731 0.0
H2627 H 0.72478 0.67794 0.43444 0.0
H2628 H 0.72304 0.66424 0.45512 0.0
H2629 H 0.7087 0.65476 0.43414 0.0
C2630 C 0.31504 0.03302 0.37471 0.0
C2631 C 0.32849 0.02874 0.37227 0.0
C2632 C 0.31793 0.0477 0.38609 0.0
C2633 C 0.33473 0.05843 0.39502 0.0
C2634 C 0.3485 0.05445 0.39214 0.0
C2635 C 0.34517 0.03958 0.3809 0.0
C2636 C 0.30287 0.05144 0.38899 0.0
C2637 C 0.36665 0.06571 0.40122 0.0
C2638 C 0.34628 0.10448 0.41268 0.0
C2639 C 0.34282 0.10163 0.43285 0.0
C2640 C 0.34387 0.09059 0.4002 0.0
C2641 C 0.33768 0.0734 0.40804 0.0
C2642 C 0.33425 0.07045 0.42838 0.0
C2643 C 0.33697 0.08461 0.44054 0.0
C2644 C 0.34781 0.09426 0.3786 0.0
C2645 C 0.32759 0.0523 0.43729 0.0
H2646 H 0.30211 0.02465 0.3681 0.0
H2647 H 0.35564 0.03637 0.37896 0.0
H2648 H 0.29932 0.05026 0.40477 0.0
H2649 H 0.30708 0.06524 0.38446 0.0
H2650 H 0.29081 0.04217 0.38054 0.0
H2651 H 0.37618 0.06138 0.3967 0.0
H2652 H 0.37218 0.07984 0.39701 0.0
H2653 H 0.36552 0.06502 0.41743 0.0
H2654 H 0.35056 0.1175 0.40654 0.0
H2655 H 0.33456 0.08235 0.45614 0.0
H2656 H 0.33554 0.08608 0.36996 0.0
H2657 H 0.3577 0.09045 0.37396 0.0
H2658 H 0.35305 0.10847 0.37491 0.0
H2659 H 0.31489 0.04251 0.43024 0.0
H2660 H 0.32537 0.05218 0.45334 0.0
H2661 H 0.33731 0.04779 0.43459 0.0
C2662 C 0.95324 0.29945 0.37731 0.0
C2663 C 0.96412 0.29322 0.36973 0.0
C2664 C 0.93827 0.28844 0.38876 0.0
C2665 C 0.93423 0.27084 0.39287 0.0
C2666 C 0.94494 0.26436 0.38487 0.0
C2667 C 0.95972 0.27561 0.3733 0.0
C2668 C 0.92703 0.29575 0.39682 0.0
C2669 C 0.94112 0.24571 0.38905 0.0
C2670 C 0.90807 0.24894 0.43914 0.0
C2671 C 0.89104 0.23739 0.43166 0.0
C2672 C 0.92222 0.2599 0.42667 0.0
C2673 C 0.91924 0.25946 0.40623 0.0
C2674 C 0.90205 0.24805 0.39858 0.0
C2675 C 0.88818 0.23709 0.41137 0.0
C2676 C 0.94039 0.27187 0.43538 0.0
C2677 C 0.89835 0.24731 0.37687 0.0
H2678 H 0.95656 0.31305 0.37453 0.0
H2679 H 0.96813 0.27075 0.36751 0.0
H2680 H 0.91287 0.2869 0.39284 0.0
H2681 H 0.92783 0.29624 0.41306 0.0
H2682 H 0.93134 0.30934 0.39129 0.0
H2683 H 0.9503 0.24247 0.3811 0.0
H2684 H 0.9424 0.24413 0.40501 0.0
H2685 H 0.92726 0.23592 0.38483 0.0
H2686 H 0.91035 0.24949 0.45481 0.0
H2687 H 0.87514 0.22803 0.4054 0.0
H2688 H 0.94491 0.28593 0.43174 0.0
H2689 H 0.95019 0.26865 0.42897 0.0
H2690 H 0.94051 0.27057 0.45158 0.0
H2691 H 0.90219 0.26077 0.37136 0.0
H2692 H 0.88411 0.23817 0.37334 0.0
H2693 H 0.9065 0.24282 0.36883 0.0
C2694 C 0.00614 0.37997 0.31912 0.0
C2695 C 0.00499 0.36483 0.3104 0.0
C2696 C 0.00372 0.39218 0.30796 0.0
C2697 C 0.00035 0.38926 0.28759 0.0
C2698 C 0.99932 0.37406 0.27871 0.0
C2699 C 0.00153 0.36196 0.29025 0.0
C2700 C 0.00468 0.40813 0.31796 0.0
C2701 C 0.996 0.37061 0.25699 0.0
C2702 C 0.97846 0.41122 0.26006 0.0
C2703 C 0.99313 0.4257 0.25116 0.0
C2704 C 0.98066 0.39947 0.27228 0.0
C2705 C 0.99791 0.40209 0.27546 0.0
C2706 C 0.01278 0.41666 0.26655 0.0
C2707 C 0.01023 0.42835 0.25464 0.0
C2708 C 0.96448 0.38415 0.28164 0.0
C2709 C 0.03138 0.41979 0.26945 0.0
H2710 H 0.00876 0.38219 0.3347 0.0
H2711 H 0.00072 0.35031 0.28342 0.0
H2712 H 0.01545 0.42053 0.31137 0.0
H2713 H 0.99203 0.40815 0.31573 0.0
H2714 H 0.00718 0.40835 0.33396 0.0
H2715 H 0.99582 0.35827 0.25232 0.0
H2716 H 0.98308 0.36946 0.25302 0.0
H2717 H 0.00648 0.38195 0.24858 0.0
H2718 H 0.96518 0.40889 0.25727 0.0
H2719 H 0.0217 0.43967 0.24817 0.0
H2720 H 0.96626 0.38441 0.29776 0.0
H2721 H 0.96283 0.37138 0.27622 0.0
H2722 H 0.9521 0.38447 0.27846 0.0
H2723 H 0.03477 0.4214 0.28528 0.0
H2724 H 0.04154 0.43177 0.26154 0.0
H2725 H 0.03212 0.4081 0.26419 0.0
C2726 C 0.63623 0.62723 0.30451 0.0
C2727 C 0.63052 0.63791 0.31376 0.0
C2728 C 0.62455 0.61265 0.29297 0.0
C2729 C 0.60679 0.60879 0.29043 0.0
C2730 C 0.60089 0.61941 0.29992 0.0
C2731 C 0.61281 0.6338 0.31159 0.0
C2732 C 0.63129 0.60151 0.2833 0.0
C2733 C 0.58209 0.61579 0.29739 0.0
C2734 C 0.58289 0.58259 0.24486 0.0
C2735 C 0.57223 0.56541 0.25244 0.0
C2736 C 0.59397 0.59687 0.25711 0.0
C2737 C 0.59457 0.5939 0.27743 0.0
C2738 C 0.58387 0.57663 0.2852 0.0
C2739 C 0.57276 0.56262 0.27264 0.0
C2740 C 0.60514 0.61513 0.24829 0.0
C2741 C 0.58425 0.57292 0.30677 0.0
H2742 H 0.64989 0.63031 0.30622 0.0
H2743 H 0.60838 0.64208 0.31866 0.0
H2744 H 0.62279 0.58735 0.28748 0.0
H2745 H 0.63052 0.60229 0.26713 0.0
H2746 H 0.64527 0.60586 0.28739 0.0
H2747 H 0.57947 0.62503 0.30613 0.0
H2748 H 0.57957 0.61712 0.28171 0.0
H2749 H 0.57246 0.60196 0.30184 0.0
H2750 H 0.58277 0.58485 0.22925 0.0
H2751 H 0.56434 0.54949 0.27871 0.0
H2752 H 0.61946 0.61971 0.25043 0.0
H2753 H 0.60236 0.62479 0.25583 0.0
H2754 H 0.60261 0.61535 0.23236 0.0
H2755 H 0.59794 0.57646 0.31117 0.0
H2756 H 0.57508 0.55875 0.3105 0.0
H2757 H 0.58051 0.58128 0.31557 0.0
C2758 C 0.36618 0.97791 0.30654 0.0
C2759 C 0.36386 0.99214 0.31206 0.0
C2760 C 0.38035 0.98061 0.29435 0.0
C2761 C 0.39268 0.99801 0.28791 0.0
C2762 C 0.39063 0.01249 0.29387 0.0
C2763 C 0.37612 0.00935 0.3057 0.0
C2764 C 0.38192 0.9648 0.28803 0.0
C2765 C 0.40372 0.03128 0.28767 0.0
C2766 C 0.4377 0.00627 0.27037 0.0
C2767 C 0.4358 0.00624 0.24997 0.0
C2768 C 0.42387 0.0039 0.28291 0.0
C2769 C 0.40764 0.00105 0.2748 0.0
C2770 C 0.40566 0.00098 0.25418 0.0
C2771 C 0.41988 0.00378 0.24199 0.0
C2772 C 0.42662 0.00445 0.30481 0.0
C2773 C 0.38845 0.99767 0.24499 0.0
H2774 H 0.35663 0.96457 0.31132 0.0
H2775 H 0.37438 0.02039 0.31002 0.0
H2776 H 0.38139 0.96376 0.2718 0.0
H2777 H 0.39494 0.96656 0.2927 0.0
H2778 H 0.37118 0.95213 0.29423 0.0
H2779 H 0.40064 0.04113 0.29423 0.0
H2780 H 0.41739 0.03475 0.29204 0.0
H2781 H 0.40364 0.03241 0.27148 0.0
H2782 H 0.45011 0.00832 0.27651 0.0
H2783 H 0.41841 0.00363 0.22619 0.0
H2784 H 0.41689 0.99151 0.3114 0.0
H2785 H 0.42426 0.01473 0.3115 0.0
H2786 H 0.44025 0.0074 0.30874 0.0
H2787 H 0.37738 0.98458 0.2498 0.0
H2788 H 0.38902 0.99786 0.22872 0.0
H2789 H 0.38525 0.00791 0.24995 0.0
C2790 C 0.61014 0.97923 0.31255 0.0
C2791 C 0.62684 0.99303 0.31847 0.0
C2792 C 0.59905 0.98262 0.30055 0.0
C2793 C 0.60465 0.00029 0.29473 0.0
C2794 C 0.62122 0.01436 0.30131 0.0
C2795 C 0.63222 0.01053 0.31291 0.0
C2796 C 0.58161 0.96723 0.29357 0.0
C2797 C 0.62745 0.03341 0.2958 0.0
C2798 C 0.58503 0.00722 0.24807 0.0
C2799 C 0.57129 0.00952 0.2555 0.0
C2800 C 0.59603 0.00424 0.2607 0.0
C2801 C 0.59342 0.00395 0.28123 0.0
C2802 C 0.57985 0.00677 0.28881 0.0
C2803 C 0.5688 0.00932 0.27582 0.0
C2804 C 0.61015 0.00096 0.25205 0.0
C2805 C 0.57692 0.00696 0.31061 0.0
H2806 H 0.60602 0.96567 0.3167 0.0
H2807 H 0.64511 0.02124 0.31755 0.0
H2808 H 0.57044 0.9693 0.29778 0.0
H2809 H 0.58164 0.96644 0.27733 0.0
H2810 H 0.57907 0.95432 0.29969 0.0
H2811 H 0.64009 0.0429 0.30321 0.0
H2812 H 0.62951 0.03511 0.27972 0.0
H2813 H 0.61715 0.03689 0.29967 0.0
H2814 H 0.58682 0.00723 0.23234 0.0
H2815 H 0.55821 0.01122 0.28152 0.0
H2816 H 0.6077 0.98766 0.25655 0.0
H2817 H 0.62344 0.01091 0.25772 0.0
H2818 H 0.61046 0.00164 0.23578 0.0
H2819 H 0.57305 0.99377 0.31697 0.0
H2820 H 0.56639 0.01024 0.31412 0.0
H2821 H 0.58946 0.01683 0.31787 0.0
C2822 C 0.98774 0.62015 0.3092 0.0
C2823 C 0.00424 0.63099 0.31818 0.0
C2824 C 0.98472 0.60541 0.29789 0.0
C2825 C 0.99865 0.60162 0.29526 0.0
C2826 C 0.01521 0.61227 0.30468 0.0
C2827 C 0.01777 0.62678 0.31617 0.0
C2828 C 0.96678 0.59419 0.28834 0.0
C2829 C 0.03044 0.60875 0.30204 0.0
C2830 C 0.98787 0.5562 0.2762 0.0
C2831 C 0.9916 0.55959 0.25612 0.0
C2832 C 0.98997 0.56971 0.28911 0.0
C2833 C 0.99617 0.58707 0.28183 0.0
C2834 C -2e-05 0.5906 0.26161 0.0
C2835 C 0.99752 0.5768 0.249 0.0
C2836 C 0.9856 0.56542 0.31055 0.0
C2837 C 0.00672 0.60898 0.2533 0.0
H2838 H 0.97721 0.62331 0.31082 0.0
H2839 H 0.03058 0.63518 0.32303 0.0
H2840 H 0.9682 0.59543 0.27217 0.0
H2841 H 0.9614 0.57997 0.292 0.0
H2842 H 0.95699 0.59815 0.29298 0.0
H2843 H 0.04219 0.61776 0.31109 0.0
H2844 H 0.02619 0.59481 0.306 0.0
H2845 H 0.03452 0.61055 0.28641 0.0
H2846 H 0.98356 0.54304 0.28192 0.0
H2847 H 0.00013 0.5795 0.23347 0.0
H2848 H 0.97546 0.5689 0.31515 0.0
H2849 H 0.99765 0.5735 0.31957 0.0
H2850 H 0.98049 0.55114 0.31379 0.0
H2851 H 0.99679 0.61324 0.25584 0.0
H2852 H 0.00944 0.6096 0.23732 0.0
H2853 H 0.01914 0.61866 0.2609 0.0
C2854 C 0.37456 0.38632 0.31418 0.0
C2855 C 0.36899 0.36819 0.31553 0.0
C2856 C 0.38922 0.39774 0.30257 0.0
C2857 C 0.39871 0.39091 0.29237 0.0
C2858 C 0.39351 0.37272 0.29423 0.0
C2859 C 0.37858 0.36153 0.30565 0.0
C2860 C 0.3942 0.417 0.30072 0.0
C2861 C 0.40351 0.36503 0.28387 0.0
C2862 C 0.42399 0.41554 0.24671 0.0
C2863 C 0.44134 0.42613 0.25394 0.0
C2864 C 0.41004 0.40397 0.25904 0.0
C2865 C 0.41355 0.40264 0.27904 0.0
C2866 C 0.4311 0.41284 0.28633 0.0
C2867 C 0.44475 0.42457 0.27375 0.0
C2868 C 0.39147 0.39341 0.25073 0.0
C2869 C 0.43539 0.41157 0.30751 0.0
H2870 H 0.36712 0.39149 0.32174 0.0
H2871 H 0.37436 0.34753 0.30676 0.0
H2872 H 0.40832 0.42578 0.30488 0.0
H2873 H 0.39278 0.42 0.28523 0.0
H2874 H 0.38578 0.42033 0.31004 0.0
H2875 H 0.39851 0.35093 0.28791 0.0
H2876 H 0.40223 0.36581 0.26778 0.0
H2877 H 0.41788 0.37288 0.28746 0.0
H2878 H 0.42125 0.41633 0.23136 0.0
H2879 H 0.45803 0.43282 0.27958 0.0
H2880 H 0.38241 0.3968 0.25867 0.0
H2881 H 0.38629 0.37899 0.25285 0.0
H2882 H 0.39097 0.39596 0.23486 0.0
H2883 H 0.42837 0.41634 0.31717 0.0
H2884 H 0.44989 0.41954 0.31058 0.0
H2885 H 0.43064 0.39752 0.31146 0.0
C2886 C 0.31849 0.27994 0.37513 0.0
C2887 C 0.33174 0.29788 0.37403 0.0
C2888 C 0.32087 0.26794 0.38669 0.0
C2889 C 0.337 0.27399 0.39711 0.0
C2890 C 0.35061 0.29199 0.39559 0.0
C2891 C 0.34775 0.30376 0.38419 0.0
C2892 C 0.30596 0.2489 0.38815 0.0
C2893 C 0.3681 0.29886 0.40622 0.0
C2894 C 0.33684 0.2483 0.44219 0.0
C2895 C 0.34355 0.23777 0.4347 0.0
C2896 C 0.33458 0.26007 0.4301 0.0
C2897 C 0.33942 0.2616 0.41008 0.0
C2898 C 0.34646 0.25126 0.40246 0.0
C2899 C 0.34831 0.23938 0.41481 0.0
C2900 C 0.32691 0.2708 0.43874 0.0
C2901 C 0.35194 0.25267 0.38123 0.0
H2902 H 0.30605 0.27537 0.36737 0.0
H2903 H 0.35806 0.31761 0.38329 0.0
H2904 H 0.31077 0.23974 0.38374 0.0
H2905 H 0.3014 0.24575 0.40358 0.0
H2906 H 0.29441 0.24622 0.3788 0.0
H2907 H 0.37764 0.313 0.40272 0.0
H2908 H 0.3658 0.29763 0.42228 0.0
H2909 H 0.37427 0.29076 0.40231 0.0
H2910 H 0.33341 0.24742 0.45759 0.0
H2911 H 0.35323 0.23112 0.40877 0.0
H2912 H 0.31468 0.268 0.43066 0.0
H2913 H 0.33655 0.2852 0.43714 0.0
H2914 H 0.32355 0.26785 0.45451 0.0
H2915 H 0.34025 0.24871 0.3716 0.0
H2916 H 0.35777 0.24416 0.37775 0.0
H2917 H 0.36186 0.26665 0.37763 0.0
C2918 C 0.69421 0.02818 0.39606 0.0
C2919 C 0.69733 0.0267 0.37618 0.0
C2920 C 0.70602 0.04316 0.40701 0.0
C2921 C 0.72117 0.05712 0.39775 0.0
C2922 C 0.72424 0.05583 0.37758 0.0
C2923 C 0.71235 0.04053 0.36706 0.0
C2924 C 0.70242 0.04392 0.42855 0.0
C2925 C 0.74011 0.07058 0.36715 0.0
C2926 C 0.7428 0.10188 0.42356 0.0
C2927 C 0.75722 0.10205 0.43306 0.0
C2928 C 0.73122 0.08755 0.41161 0.0
C2929 C 0.73394 0.0729 0.40935 0.0
C2930 C 0.74852 0.07302 0.41875 0.0
C2931 C 0.76006 0.08764 0.43034 0.0
C2932 C 0.71591 0.08798 0.40165 0.0
C2933 C 0.75177 0.05757 0.41683 0.0
H2934 H 0.68265 0.01747 0.4032 0.0
H2935 H 0.71475 0.03946 0.35165 0.0
H2936 H 0.71371 0.04514 0.43737 0.0
H2937 H 0.70126 0.05583 0.43165 0.0
H2938 H 0.69003 0.03195 0.43352 0.0
H2939 H 0.74028 0.06777 0.35129 0.0
H2940 H 0.74005 0.08325 0.36875 0.0
H2941 H 0.75259 0.07255 0.37391 0.0
H2942 H 0.74034 0.11282 0.42573 0.0
H2943 H 0.77136 0.08778 0.43723 0.0
H2944 H 0.70311 0.0771 0.4074 0.0
H2945 H 0.71615 0.08573 0.38566 0.0
H2946 H 0.71626 0.1008 0.40393 0.0
H2947 H 0.74012 0.04529 0.42249 0.0
H2948 H 0.7638 0.05979 0.42497 0.0
H2949 H 0.75338 0.05522 0.40117 0.0
C2950 C 0.96595 0.65778 0.3945 0.0
C2951 C 0.96839 0.6652 0.37573 0.0
C2952 C 0.95127 0.65463 0.40602 0.0
C2953 C 0.93864 0.65883 0.39848 0.0
C2954 C 0.94081 0.66592 0.37934 0.0
C2955 C 0.95573 0.66912 0.36821 0.0
C2956 C 0.9495 0.64719 0.42643 0.0
C2957 C 0.92751 0.6704 0.37074 0.0
C2958 C 0.89327 0.63793 0.42294 0.0
C2959 C 0.895 0.65195 0.43469 0.0
C2960 C 0.90733 0.64001 0.41095 0.0
C2961 C 0.92353 0.65642 0.41092 0.0
C2962 C 0.92539 0.67055 0.42292 0.0
C2963 C 0.91107 0.66816 0.43459 0.0
C2964 C 0.9048 0.62471 0.39819 0.0
C2965 C 0.94255 0.68817 0.42348 0.0
H2966 H 0.97573 0.65476 0.4004 0.0
H2967 H 0.95754 0.67481 0.35367 0.0
H2968 H 0.94995 0.65686 0.43737 0.0
H2969 H 0.93646 0.63484 0.42809 0.0
H2970 H 0.96021 0.64418 0.4299 0.0
H2971 H 0.93064 0.67498 0.35529 0.0
H2972 H 0.91394 0.65861 0.37131 0.0
H2973 H 0.92729 0.68103 0.37955 0.0
H2974 H 0.88078 0.62545 0.42284 0.0
H2975 H 0.91248 0.67895 0.44383 0.0
H2976 H 0.91484 0.62087 0.40198 0.0
H2977 H 0.90688 0.62883 0.38258 0.0
H2978 H 0.89133 0.61287 0.39981 0.0
H2979 H 0.95366 0.68614 0.42805 0.0
H2980 H 0.94187 0.69775 0.43373 0.0
H2981 H 0.94576 0.69414 0.40862 0.0
C2982 C 0.36569 0.00058 0.7311 0.0
C2983 C 0.36998 0.00695 0.71185 0.0
C2984 C 0.37778 0.99839 0.7427 0.0
C2985 C 0.39437 0.00224 0.73466 0.0
C2986 C 0.39865 0.00841 0.71511 0.0
C2987 C 0.38647 0.01092 0.70399 0.0
C2988 C 0.37289 0.99216 0.76363 0.0
C2989 C 0.41604 0.01225 0.7059 0.0
C2990 C 0.43207 0.01132 0.7696 0.0
C2991 C 0.4308 0.99458 0.77072 0.0
C2992 C 0.42028 0.01399 0.75796 0.0
C2993 C 0.40718 -0.00028 0.74677 0.0
C2994 C 0.40598 0.9829 0.74754 0.0
C2995 C 0.41762 0.98047 0.75969 0.0
C2996 C 0.42175 0.03205 0.75779 0.0
C2997 C 0.39234 0.96741 0.73559 0.0
H2998 H 0.353 0.99766 0.73727 0.0
H2999 H 0.38976 0.01579 0.68908 0.0
H3000 H 0.37277 0.97946 0.76576 0.0
H3001 H 0.38301 0.00204 0.77377 0.0
H3002 H 0.35964 0.99016 0.76778 0.0
H3003 H 0.41715 0.01655 0.69038 0.0
H3004 H 0.42734 0.02283 0.71425 0.0
H3005 H 0.41735 0.0002 0.7065 0.0
H3006 H 0.44237 0.02243 0.77771 0.0
H3007 H 0.41621 0.96739 0.76068 0.0
H3008 H 0.40897 0.03085 0.76253 0.0
H3009 H 0.42443 0.0375 0.74269 0.0
H3010 H 0.4325 0.04169 0.76757 0.0
H3011 H 0.37875 0.96382 0.74043 0.0
H3012 H 0.39384 0.95549 0.73695 0.0
H3013 H 0.3935 0.97117 0.71989 0.0
C3014 C 0.00271 0.36785 0.72251 0.0
C3015 C 0.99677 0.36585 0.70307 0.0
C3016 C 0.00521 0.38237 0.73386 0.0
C3017 C 0.002 0.39538 0.72545 0.0
C3018 C 0.99647 0.3937 0.70565 0.0
C3019 C 0.99375 0.37883 0.69473 0.0
C3020 C 0.01083 0.38353 0.75502 0.0
C3021 C 0.99324 0.40749 0.69609 0.0
C3022 C 0.99092 0.42249 0.7603 0.0
C3023 C 0.00752 0.43799 0.76261 0.0
C3024 C 0.98893 0.40859 0.74814 0.0
C3025 C 0.0038 0.41035 0.73767 0.0
C3026 C 0.02048 0.42611 0.73949 0.0
C3027 C 0.02218 0.43966 0.75208 0.0
C3028 C 0.97096 0.3919 0.74676 0.0
C3029 C 0.03658 0.42855 0.72835 0.0
H3030 H 0.00498 0.35779 0.72904 0.0
H3031 H 0.98923 0.37735 0.67967 0.0
H3032 H 0.02326 0.39629 0.75771 0.0
H3033 H 0.00044 0.38324 0.76474 0.0
H3034 H 0.01307 0.37246 0.75922 0.0
H3035 H 0.99 0.40476 0.68026 0.0
H3036 H 0.98207 0.40787 0.70352 0.0
H3037 H 0.00518 0.42087 0.69766 0.0
H3038 H 0.97941 0.42119 0.76798 0.0
H3039 H 0.03511 0.45145 0.75391 0.0
H3040 H 0.97202 0.38029 0.75168 0.0
H3041 H 0.96638 0.38942 0.73131 0.0
H3042 H 0.96072 0.39265 0.75581 0.0
H3043 H 0.0402 0.41864 0.73335 0.0
H3044 H 0.04828 0.44205 0.73035 0.0
H3045 H 0.03351 0.42624 0.71246 0.0
C3046 C 0.63622 0.63537 0.72643 0.0
C3047 C 0.63957 0.6306 0.70794 0.0
C3048 C 0.62132 0.62352 0.73742 0.0
C3049 C 0.60936 0.60654 0.72965 0.0
C3050 C 0.61252 0.60172 0.71087 0.0
C3051 C 0.62767 0.61379 0.70026 0.0
C3052 C 0.61849 0.62909 0.75747 0.0
C3053 C 0.59994 0.58379 0.70205 0.0
C3054 C 0.58041 0.57032 0.76585 0.0
C3055 C 0.56445 0.57065 0.76491 0.0
C3056 C 0.59509 0.58182 0.75431 0.0
C3057 C 0.59368 0.59379 0.74138 0.0
C3058 C 0.57752 0.59401 0.74017 0.0
C3059 C 0.56311 0.58249 0.75205 0.0
C3060 C 0.61218 0.58136 0.75619 0.0
C3061 C 0.57547 0.60646 0.72641 0.0
H3062 H 0.64541 0.64833 0.73246 0.0
H3063 H 0.6302 0.61008 0.68595 0.0
H3064 H 0.60542 0.62846 0.75805 0.0
H3065 H 0.61829 0.6198 0.76874 0.0
H3066 H 0.62904 0.64279 0.76136 0.0
H3067 H 0.60404 0.58227 0.68707 0.0
H3068 H 0.59933 0.5731 0.71148 0.0
H3069 H 0.58631 0.58181 0.70133 0.0
H3070 H 0.58151 0.56127 0.77592 0.0
H3071 H 0.55071 0.5826 0.75113 0.0
H3072 H 0.62302 0.59449 0.76127 0.0
H3073 H 0.6162 0.57875 0.74169 0.0
H3074 H 0.61097 0.57103 0.76665 0.0
H3075 H 0.58502 0.62044 0.73044 0.0
H3076 H 0.56181 0.60451 0.7267 0.0
H3077 H 0.57861 0.60444 0.71119 0.0
C3078 C 0.69593 0.71992 0.64011 0.0
C3079 C 0.68154 0.70663 0.65062 0.0
C3080 C 0.69385 0.73203 0.62839 0.0
C3081 C 0.67701 0.73086 0.6273 0.0
C3082 C 0.66257 0.71778 0.63833 0.0
C3083 C 0.665 0.70578 0.64981 0.0
C3084 C 0.70954 0.74577 0.61679 0.0
C3085 C 0.64445 0.7162 0.63767 0.0
C3086 C 0.67419 0.77054 0.60867 0.0
C3087 C 0.66845 0.76545 0.5893 0.0
C3088 C 0.67711 0.75945 0.62119 0.0
C3089 C 0.67431 0.74293 0.61413 0.0
C3090 C 0.66864 0.73778 0.59455 0.0
C3091 C 0.66572 0.74908 0.58239 0.0
C3092 C 0.68299 0.76532 0.64203 0.0
C3093 C 0.66563 0.72031 0.58645 0.0
H3094 H 0.70873 0.7206 0.64065 0.0
H3095 H 0.65384 0.69554 0.65794 0.0
H3096 H 0.70658 0.74357 0.60088 0.0
H3097 H 0.71198 0.75928 0.62027 0.0
H3098 H 0.72189 0.74534 0.6198 0.0
H3099 H 0.63485 0.70586 0.64783 0.0
H3100 H 0.64554 0.72911 0.64153 0.0
H3101 H 0.63902 0.71283 0.62257 0.0
H3102 H 0.67611 0.78309 0.61414 0.0
H3103 H 0.66147 0.7452 0.56736 0.0
H3104 H 0.69572 0.76565 0.64495 0.0
H3105 H 0.67299 0.75562 0.65239 0.0
H3106 H 0.6848 0.77867 0.64516 0.0
H3107 H 0.67799 0.71959 0.58781 0.0
H3108 H 0.66154 0.71843 0.57081 0.0
H3109 H 0.65517 0.70914 0.59507 0.0
C3110 C 0.2828 0.95689 0.65976 0.0
C3111 C 0.29876 0.96989 0.65128 0.0
C3112 C 0.27056 0.942 0.6489 0.0
C3113 C 0.27425 0.94033 0.62903 0.0
C3114 C 0.29041 0.95338 0.62048 0.0
C3115 C 0.30254 0.96791 0.63177 0.0
C3116 C 0.25361 0.92816 0.65861 0.0
C3117 C 0.2947 0.95225 0.59924 0.0
C3118 C 0.25012 0.89614 0.60216 0.0
C3119 C 0.23708 0.89779 0.59175 0.0
C3120 C 0.26196 0.90963 0.61484 0.0
C3121 C 0.26097 0.92532 0.61687 0.0
C3122 C 0.24778 0.92704 0.60656 0.0
C3123 C 0.23589 0.9132 0.59432 0.0
C3124 C 0.27571 0.90723 0.6258 0.0
C3125 C 0.24643 0.94366 0.60817 0.0
H3126 H 0.27989 0.95835 0.67487 0.0
H3127 H 0.31483 0.97799 0.62512 0.0
H3128 H 0.24197 0.9277 0.65134 0.0
H3129 H 0.2522 0.91481 0.65698 0.0
H3130 H 0.25322 0.93089 0.67447 0.0
H3131 H 0.30796 0.96339 0.5949 0.0
H3132 H 0.29443 0.93954 0.59647 0.0
H3133 H 0.28447 0.95244 0.58967 0.0
H3134 H 0.25134 0.88443 0.60015 0.0
H3135 H 0.22562 0.91447 0.58676 0.0
H3136 H 0.27508 0.90957 0.6417 0.0
H3137 H 0.28923 0.91715 0.62066 0.0
H3138 H 0.27388 0.89373 0.62376 0.0
H3139 H 0.24445 0.94608 0.62368 0.0
H3140 H 0.2353 0.94283 0.59931 0.0
H3141 H 0.25903 0.95532 0.60314 0.0
C3142 C 0.03343 0.33734 0.62379 0.0
C3143 C 0.03174 0.33184 0.64337 0.0
C3144 C 0.04814 0.34025 0.6125 0.0
C3145 C 0.06167 0.33795 0.62112 0.0
C3146 C 0.06025 0.3328 0.64104 0.0
C3147 C 0.04518 0.32962 0.65189 0.0
C3148 C 0.04899 0.3454 0.59121 0.0
C3149 C 0.0746 0.33057 0.65083 0.0
C3150 C 0.09055 0.32862 0.58696 0.0
C3151 C 0.10551 0.34561 0.58459 0.0
C3152 C 0.07626 0.32594 0.5989 0.0
C3153 C 0.07705 0.34051 0.60907 0.0
C3154 C 0.09224 0.3576 0.60715 0.0
C3155 C 0.10619 0.35998 0.59478 0.0
C3156 C 0.06018 0.30753 0.60039 0.0
C3157 C 0.09365 0.37342 0.61797 0.0
H3158 H 0.023 0.33897 0.61711 0.0
H3159 H 0.04393 0.32544 0.66706 0.0
H3160 H 0.06132 0.35821 0.58839 0.0
H3161 H 0.04946 0.33524 0.58175 0.0
H3162 H 0.03739 0.3467 0.58676 0.0
H3163 H 0.07189 0.32733 0.66666 0.0
H3164 H 0.07576 0.31979 0.64353 0.0
H3165 H 0.08765 0.34295 0.64931 0.0
H3166 H 0.09001 0.31734 0.57954 0.0
H3167 H 0.11753 0.3732 0.59288 0.0
H3168 H 0.04816 0.30776 0.5953 0.0
H3169 H 0.05787 0.3031 0.61589 0.0
H3170 H 0.06165 0.29761 0.59153 0.0
H3171 H 0.08318 0.37619 0.61275 0.0
H3172 H 0.10682 0.38558 0.61589 0.0
H3173 H 0.09144 0.3705 0.63388 0.0
C3174 C 0.28082 0.32653 0.65483 0.0
C3175 C 0.29671 0.32885 0.64681 0.0
C3176 C 0.26931 0.32999 0.64365 0.0
C3177 C 0.27365 0.33552 0.6239 0.0
C3178 C 0.2897 0.33791 0.61578 0.0
C3179 C 0.30112 0.33472 0.6274 0.0
C3180 C 0.25248 0.32766 0.65291 0.0
C3181 C 0.29465 0.34347 0.59468 0.0
C3182 C 0.23651 0.32713 0.58849 0.0
C3183 C 0.23877 0.3442 0.58633 0.0
C3184 C 0.2477 0.32411 0.60075 0.0
C3185 C 0.26125 0.33842 0.61149 0.0
C3186 C 0.26337 0.3556 0.60978 0.0
C3187 C 0.25224 0.35832 0.59707 0.0
C3188 C 0.24517 0.30564 0.602 0.0
C3189 C 0.27754 0.37115 0.62118 0.0
H3190 H 0.27742 0.32206 0.66986 0.0
H3191 H 0.31334 0.33642 0.6211 0.0
H3192 H 0.25195 0.3401 0.6515 0.0
H3193 H 0.2407 0.31707 0.64514 0.0
H3194 H 0.25145 0.32408 0.66868 0.0
H3195 H 0.30764 0.34477 0.59063 0.0
H3196 H 0.28425 0.33355 0.58481 0.0
H3197 H 0.29534 0.35638 0.592 0.0
H3198 H 0.22593 0.31603 0.58064 0.0
H3199 H 0.25431 0.37161 0.59535 0.0
H3200 H 0.24255 0.30089 0.61738 0.0
H3201 H 0.25752 0.30588 0.59728 0.0
H3202 H 0.23399 0.29594 0.59271 0.0
H3203 H 0.27634 0.3679 0.63704 0.0
H3204 H 0.27669 0.38339 0.6192 0.0
H3205 H 0.2909 0.37395 0.61639 0.0
C3206 C 0.66437 0.96407 0.63244 0.0
C3207 C 0.67581 0.97 0.64867 0.0
C3208 C 0.66251 0.9499 0.62089 0.0
C3209 C 0.67202 0.94119 0.62594 0.0
C3210 C 0.68334 0.94688 0.64255 0.0
C3211 C 0.68526 0.96139 0.65362 0.0
C3212 C 0.65058 0.94446 0.60308 0.0
C3213 C 0.6934 0.93767 0.6486 0.0
C3214 C 0.65388 0.89496 0.60454 0.0
C3215 C 0.66551 0.89828 0.58881 0.0
C3216 C 0.65618 0.90873 0.61714 0.0
C3217 C 0.67021 0.92626 0.61361 0.0
C3218 C 0.68201 0.92965 0.59773 0.0
C3219 C 0.67962 0.91556 0.58563 0.0
C3220 C 0.64355 0.90454 0.63414 0.0
C3221 C 0.69687 0.94822 0.59323 0.0
H3222 H 0.65715 0.97079 0.62848 0.0
H3223 H 0.69407 0.96593 0.6662 0.0
H3224 H 0.65837 0.94554 0.58973 0.0
H3225 H 0.63991 0.93037 0.60439 0.0
H3226 H 0.64429 0.95277 0.60104 0.0
H3227 H 0.70112 0.94328 0.6623 0.0
H3228 H 0.684 0.92328 0.65083 0.0
H3229 H 0.70272 0.93886 0.63678 0.0
H3230 H 0.64309 0.88154 0.60709 0.0
H3231 H 0.68855 0.91808 0.57339 0.0
H3232 H 0.63587 0.91149 0.63221 0.0
H3233 H 0.65113 0.90942 0.64803 0.0
H3234 H 0.63403 0.89006 0.63555 0.0
H3235 H 0.69125 0.95693 0.58999 0.0
H3236 H 0.70504 0.94856 0.58052 0.0
H3237 H 0.70569 0.9539 0.60616 0.0
C3238 C 0.02939 0.72316 0.64424 0.0
C3239 C 0.02701 0.70623 0.64782 0.0
C3240 C 0.04364 0.73556 0.63273 0.0
C3241 C 0.05584 0.73093 0.62474 0.0
C3242 C 0.05368 0.71397 0.62866 0.0
C3243 C 0.03926 0.70181 0.64008 0.0
C3244 C 0.04547 0.75349 0.6288 0.0
C3245 C 0.06648 0.70858 0.62056 0.0
C3246 C 0.08267 0.75484 0.57945 0.0
C3247 C 0.09929 0.76684 0.58755 0.0
C3248 C 0.06834 0.74329 0.59141 0.0
C3249 C 0.07069 0.74365 0.61198 0.0
C3250 C 0.08738 0.75581 0.62028 0.0
C3251 C 0.10145 0.76729 0.60798 0.0
C3252 C 0.05073 0.73053 0.58201 0.0
C3253 C 0.09042 0.75657 0.64214 0.0
H3254 H 0.01992 0.72662 0.65014 0.0
H3255 H 0.03751 0.68875 0.64284 0.0
H3256 H 0.05876 0.76423 0.63356 0.0
H3257 H 0.04442 0.75517 0.61282 0.0
H3258 H 0.03512 0.75519 0.63646 0.0
H3259 H 0.06324 0.6951 0.62545 0.0
H3260 H 0.06624 0.70875 0.6043 0.0
H3261 H 0.08026 0.71823 0.62522 0.0
H3262 H 0.08093 0.75424 0.56368 0.0
H3263 H 0.11414 0.77672 0.61441 0.0
H3264 H 0.03998 0.73231 0.58844 0.0
H3265 H 0.04736 0.71665 0.58501 0.0
H3266 H 0.05088 0.73238 0.56588 0.0
H3267 H 0.08079 0.7593 0.64984 0.0
H3268 H 0.10412 0.76696 0.64629 0.0
H3269 H 0.08813 0.74352 0.64743 0.0
C3270 C 0.97311 0.61156 0.70981 0.0
C3271 C 0.98783 0.62834 0.70592 0.0
C3272 C 0.97485 0.59914 0.72136 0.0
C3273 C 0.99173 0.60359 0.72906 0.0
C3274 C 0.0067 0.62039 0.72481 0.0
C3275 C 0.00455 0.63257 0.71335 0.0
C3276 C 0.95858 0.58139 0.72565 0.0
C3277 C 0.02495 0.62558 0.7326 0.0
C3278 C 0.99514 0.58018 0.77447 0.0
C3279 C -0.00046 0.56803 0.76637 0.0
C3280 C 0.99219 0.59156 0.76246 0.0
C3281 C 0.99378 0.59088 0.74186 0.0
C3282 C 0.99799 0.57851 0.73357 0.0
C3283 C 0.00077 0.56721 0.74591 0.0
C3284 C 0.98768 0.60456 0.77186 0.0
C3285 C -0.00018 0.57739 0.71168 0.0
H3286 H 0.96015 0.60826 0.70414 0.0
H3287 H 0.01599 0.64551 0.71036 0.0
H3288 H 0.96083 0.57045 0.72097 0.0
H3289 H 0.95605 0.57995 0.74167 0.0
H3290 H 0.94651 0.57979 0.71814 0.0
H3291 H 0.0353 0.63894 0.72747 0.0
H3292 H 0.02477 0.6256 0.74886 0.0
H3293 H 0.02876 0.61571 0.72793 0.0
H3294 H 0.99435 0.58104 0.79025 0.0
H3295 H 0.00384 0.55764 0.7395 0.0
H3296 H 0.97516 0.6029 0.76558 0.0
H3297 H 0.99833 0.61836 0.76868 0.0
H3298 H 0.98612 0.60285 0.78801 0.0
H3299 H 0.98741 0.57484 0.70422 0.0
H3300 H 0.00272 0.56673 0.70752 0.0
H3301 H 0.01071 0.59025 0.7061 0.0
C3302 C 0.38231 0.37378 0.6995 0.0
C3303 C 0.36521 0.3623 0.70677 0.0
C3304 C 0.39446 0.38881 0.71021 0.0
C3305 C 0.3894 0.39228 0.7287 0.0
C3306 C 0.37209 0.3808 0.73602 0.0
C3307 C 0.36016 0.36601 0.72491 0.0
C3308 C 0.41274 0.40088 0.70184 0.0
C3309 C 0.36626 0.38395 0.75576 0.0
C3310 C 0.42563 0.42 0.7655 0.0
C3311 C 0.42629 0.43641 0.76426 0.0
C3312 C 0.41372 0.40554 0.75395 0.0
C3313 C 0.40235 0.40762 0.7407 0.0
C3314 C 0.40309 0.42422 0.73925 0.0
C3315 C 0.41498 0.4384 0.75116 0.0
C3316 C 0.41315 0.38797 0.75611 0.0
C3317 C 0.39131 0.427 0.72513 0.0
H3318 H 0.38624 0.37098 0.68546 0.0
H3319 H 0.34697 0.35714 0.73063 0.0
H3320 H 0.41537 0.41474 0.70118 0.0
H3321 H 0.42299 0.40088 0.71155 0.0
H3322 H 0.41433 0.39676 0.6869 0.0
H3323 H 0.35225 0.37391 0.75921 0.0
H3324 H 0.37496 0.38355 0.76742 0.0
H3325 H 0.36764 0.39734 0.7562 0.0
H3326 H 0.43426 0.4184 0.77576 0.0
H3327 H 0.41563 0.45115 0.75004 0.0
H3328 H 0.41591 0.38378 0.74179 0.0
H3329 H 0.39965 0.37756 0.76074 0.0
H3330 H 0.42295 0.38859 0.76701 0.0
H3331 H 0.39348 0.42381 0.70998 0.0
H3332 H 0.39385 0.44086 0.72542 0.0
H3333 H 0.37713 0.41786 0.72877 0.0
C3334 C 0.63498 0.99952 0.72676 0.0
C3335 C 0.63812 0.00759 0.70829 0.0
C3336 C 0.62073 0.99734 0.7384 0.0
C3337 C 0.60904 0.00291 0.73114 0.0
C3338 C 0.61201 0.01087 0.71236 0.0
C3339 C 0.62672 0.01336 0.70125 0.0
C3340 C 0.61829 0.98924 0.75855 0.0
C3341 C 0.59955 0.01653 0.70394 0.0
C3342 C 0.56355 0.981 0.75521 0.0
C3343 C 0.56512 0.99436 0.76805 0.0
C3344 C 0.57751 0.98385 0.74261 0.0
C3345 C 0.59367 0.00026 0.74325 0.0
C3346 C 0.59541 0.0138 0.75614 0.0
C3347 C 0.58105 0.01079 0.76816 0.0
C3348 C 0.57504 0.96919 0.7288 0.0
C3349 C 0.61258 0.03135 0.75752 0.0
H3350 H 0.64392 0.99522 0.7323 0.0
H3351 H 0.62913 0.01954 0.68692 0.0
H3352 H 0.61823 0.99845 0.76977 0.0
H3353 H 0.60528 0.97676 0.75943 0.0
H3354 H 0.62895 0.98621 0.76227 0.0
H3355 H 0.60353 0.02219 0.68897 0.0
H3356 H 0.58583 0.00497 0.70331 0.0
H3357 H 0.59917 0.02663 0.71356 0.0
H3358 H 0.5515 0.96815 0.75517 0.0
H3359 H 0.58234 0.02138 0.77762 0.0
H3360 H 0.58413 0.96425 0.73298 0.0
H3361 H 0.57849 0.97437 0.71361 0.0
H3362 H 0.56118 0.95782 0.72892 0.0
H3363 H 0.62358 0.02906 0.76192 0.0
H3364 H 0.61178 0.04051 0.76829 0.0
H3365 H 0.6161 0.03796 0.743 0.0
loop_
_geom_bond_atom_site_label_1
_geom_bond_atom_site_label_2
_geom_bond_distance
_geom_bond_site_symmetry_2
_ccdc_geom_bond_type
In0 O1 2.294 1_455 S
In0 O2 2.326 . S
In0 O6 2.266 1_455 S
In0 O7 2.326 1_454 S
In0 O8 2.266 1_554 S
In0 O9 2.326 1_454 S
In0 O11 2.294 . S
In0 O12 2.326 . S
O1 In0 2.294 1_655 S
O1 C10 1.239 1_655 S
O2 In0 2.326 . S
O2 C10 1.253 . S
C3 O6 1.252 1_556 S
C3 O7 1.260 . S
C4 O11 1.240 . S
C4 O12 1.252 . S
C5 O8 1.252 . S
C5 O9 1.260 1_455 S
O6 In0 2.266 1_655 S
O6 C3 1.252 1_554 S
O7 In0 2.326 1_656 S
O7 C3 1.260 . S
O8 In0 2.266 1_556 S
O8 C5 1.252 . S
O9 In0 2.326 1_656 S
O9 C5 1.260 1_655 S
C10 O1 1.239 1_455 S
C10 O2 1.253 . S
O11 In0 2.294 . S
O11 C4 1.240 . S
O12 In0 2.326 . S
O12 C4 1.252 . S
In13 O14 2.294 . S
In13 O15 2.326 . S
In13 O19 2.266 . S
In13 O20 2.326 1_554 S
In13 O21 2.266 1_554 S
In13 O22 2.326 1_554 S
In13 O24 2.294 . S
In13 O25 2.326 . S
O14 In13 2.294 . S
O14 C23 1.240 . S
O15 In13 2.326 . S
O15 C23 1.252 . S
C16 O19 1.252 1_556 S
C16 O20 1.260 . S
C17 O24 1.240 . S
C17 O25 1.252 . S
C18 O21 1.252 . S
C18 O22 1.260 . S
O19 In13 2.266 . S
O19 C16 1.252 1_554 S
O20 In13 2.326 1_556 S
O20 C16 1.260 . S
O21 In13 2.266 1_556 S
O21 C18 1.252 . S
O22 In13 2.326 1_556 S
O22 C18 1.260 . S
C23 O14 1.240 . S
C23 O15 1.252 . S
O24 In13 2.294 . S
O24 C17 1.240 . S
O25 In13 2.326 . S
O25 C17 1.252 . S
In26 O27 2.294 . S
In26 O28 2.326 1_554 S
In26 O32 2.266 . S
In26 O33 2.326 1_545 S
In26 O34 2.266 1_545 S
In26 O35 2.326 1_545 S
In26 O37 2.294 1_544 S
In26 O38 2.326 1_554 S
O27 In26 2.294 . S
O27 C36 1.240 1_554 S
O28 In26 2.326 1_556 S
O28 C36 1.252 . S
C29 O32 1.252 . S
C29 O33 1.260 1_545 S
C30 O37 1.232 1_545 S
C30 O38 1.267 . S
C31 O34 1.252 . S
C31 O35 1.260 . S
O32 In26 2.266 . S
O32 C29 1.252 . S
O33 In26 2.326 1_565 S
O33 C29 1.260 1_565 S
O34 In26 2.266 1_565 S
O34 C31 1.252 . S
O35 In26 2.326 1_565 S
O35 C31 1.260 . S
C36 O27 1.240 1_556 S
C36 O28 1.252 . S
O37 In26 2.294 1_566 S
O37 C30 1.232 1_565 S
O38 In26 2.326 1_556 S
O38 C30 1.267 . S
In39 O40 2.293 1_554 S
In39 O41 2.326 1_454 S
In39 O45 2.265 . S
In39 O46 2.326 . S
In39 O47 2.267 1_455 S
In39 O48 2.324 . S
In39 O50 2.296 1_455 S
In39 O51 2.327 1_454 S
O40 In39 2.293 1_556 S
O40 C49 1.273 . S
O41 In39 2.326 1_656 S
O41 C49 1.195 1_655 S
C42 O45 1.252 . S
C42 O46 1.260 . S
C43 O50 1.240 1_556 S
C43 O51 1.252 . S
C44 O47 1.286 . S
C44 O48 1.235 1_655 S
O45 In39 2.265 . S
O45 C42 1.252 . S
O46 In39 2.326 . S
O46 C42 1.260 . S
O47 In39 2.267 1_655 S
O47 C44 1.286 . S
O48 In39 2.324 . S
O48 C44 1.235 1_455 S
C49 O40 1.273 . S
C49 O41 1.195 1_455 S
O50 In39 2.296 1_655 S
O50 C43 1.240 1_554 S
O51 In39 2.327 1_656 S
O51 C43 1.252 . S
In52 O53 2.294 1_554 S
In52 O54 2.326 1_554 S
In52 O58 2.266 . S
In52 O59 2.326 . S
In52 O60 2.266 . S
In52 O61 2.326 . S
In52 O63 2.294 . S
In52 O64 2.326 1_554 S
O53 In52 2.294 1_556 S
O53 C62 1.240 . S
O54 In52 2.326 1_556 S
O54 C62 1.252 . S
C55 O58 1.252 . S
C55 O59 1.260 . S
C56 O63 1.240 1_556 S
C56 O64 1.252 . S
C57 O60 1.252 . S
C57 O61 1.260 . S
O58 In52 2.266 . S
O58 C55 1.252 . S
O59 In52 2.326 . S
O59 C55 1.260 . S
O60 In52 2.266 . S
O60 C57 1.252 . S
O61 In52 2.326 . S
O61 C57 1.260 . S
C62 O53 1.240 . S
C62 O54 1.252 . S
O63 In52 2.294 . S
O63 C56 1.240 1_554 S
O64 In52 2.326 1_556 S
O64 C56 1.252 . S
In65 O66 2.293 . S
In65 O67 2.326 1_545 S
In65 O71 2.265 . S
In65 O72 2.326 1_554 S
In65 O73 2.267 1_544 S
In65 O74 2.324 1_554 S
In65 O76 2.296 1_545 S
In65 O77 2.327 1_545 S
O66 In65 2.293 . S
O66 C75 1.272 . S
O67 In65 2.326 1_565 S
O67 C75 1.196 1_565 S
C68 O71 1.252 1_556 S
C68 O72 1.260 . S
C69 O76 1.240 . S
C69 O77 1.252 . S
C70 O73 1.289 . S
C70 O74 1.233 1_565 S
O71 In65 2.265 . S
O71 C68 1.252 1_554 S
O72 In65 2.326 1_556 S
O72 C68 1.260 . S
O73 In65 2.267 1_566 S
O73 C70 1.289 . S
O74 In65 2.324 1_556 S
O74 C70 1.233 1_545 S
C75 O66 1.272 . S
C75 O67 1.196 1_545 S
O76 In65 2.296 1_565 S
O76 C69 1.240 . S
O77 In65 2.327 1_565 S
O77 C69 1.252 . S
In78 O79 2.294 . S
In78 O80 2.326 . S
In78 O84 2.266 . S
In78 O85 2.326 . S
In78 O86 2.266 . S
In78 O87 2.326 . S
In78 O89 2.294 . S
In78 O90 2.326 . S
O79 In78 2.294 . S
O79 C88 1.240 . S
O80 In78 2.326 . S
O80 C88 1.252 . S
C81 O84 1.252 . S
C81 O85 1.260 . S
C82 O89 1.240 . S
C82 O90 1.252 . S
C83 O86 1.252 . S
C83 O87 1.260 . S
O84 In78 2.266 . S
O84 C81 1.252 . S
O85 In78 2.326 . S
O85 C81 1.260 . S
O86 In78 2.266 . S
O86 C83 1.252 . S
O87 In78 2.326 . S
O87 C83 1.260 . S
C88 O79 1.240 . S
C88 O80 1.252 . S
O89 In78 2.294 . S
O89 C82 1.240 . S
O90 In78 2.326 . S
O90 C82 1.252 . S
In91 O92 2.294 . S
In91 O93 2.326 . S
In91 O97 2.266 . S
In91 O98 2.326 . S
In91 O99 2.266 . S
In91 O100 2.326 . S
In91 O102 2.294 1_565 S
In91 O103 2.326 1_565 S
O92 In91 2.294 . S
O92 C101 1.240 . S
O93 In91 2.326 . S
O93 C101 1.252 . S
C94 O97 1.252 . S
C94 O98 1.260 . S
C95 O102 1.240 . S
C95 O103 1.252 . S
C96 O99 1.252 . S
C96 O100 1.260 . S
O97 In91 2.266 . S
O97 C94 1.252 . S
O98 In91 2.326 . S
O98 C94 1.260 . S
O99 In91 2.266 . S
O99 C96 1.252 . S
O100 In91 2.326 . S
O100 C96 1.260 . S
C101 O92 1.240 . S
C101 O93 1.252 . S
O102 In91 2.294 1_545 S
O102 C95 1.240 . S
O103 In91 2.326 1_545 S
O103 C95 1.252 . S
In104 O105 2.294 . S
In104 O106 2.326 . S
In104 O110 2.266 . S
In104 O111 2.326 . S
In104 O112 2.266 1_455 S
In104 O113 2.326 1_455 S
In104 O115 2.294 . S
In104 O116 2.326 . S
O105 In104 2.294 . S
O105 C114 1.240 . S
O106 In104 2.326 . S
O106 C114 1.252 . S
C107 O110 1.252 . S
C107 O111 1.260 . S
C108 O115 1.240 . S
C108 O116 1.252 . S
C109 O112 1.252 . S
C109 O113 1.260 . S
O110 In104 2.266 . S
O110 C107 1.252 . S
O111 In104 2.326 . S
O111 C107 1.260 . S
O112 In104 2.266 1_655 S
O112 C109 1.252 . S
O113 In104 2.326 1_655 S
O113 C109 1.260 . S
C114 O105 1.240 . S
C114 O106 1.252 . S
O115 In104 2.294 . S
O115 C108 1.240 . S
O116 In104 2.326 . S
O116 C108 1.252 . S
In117 O118 2.294 . S
In117 O119 2.326 . S
In117 O123 2.266 1_565 S
In117 O124 2.326 1_565 S
In117 O125 2.266 . S
In117 O126 2.326 . S
In117 O128 2.294 . S
In117 O129 2.326 . S
O118 In117 2.294 . S
O118 C127 1.240 . S
O119 In117 2.326 . S
O119 C127 1.252 . S
C120 O123 1.252 . S
C120 O124 1.260 . S
C121 O128 1.240 . S
C121 O129 1.252 . S
C122 O125 1.252 . S
C122 O126 1.260 . S
O123 In117 2.266 1_545 S
O123 C120 1.252 . S
O124 In117 2.326 1_545 S
O124 C120 1.260 . S
O125 In117 2.266 . S
O125 C122 1.252 . S
O126 In117 2.326 . S
O126 C122 1.260 . S
C127 O118 1.240 . S
C127 O119 1.252 . S
O128 In117 2.294 . S
O128 C121 1.240 . S
O129 In117 2.326 . S
O129 C121 1.252 . S
In130 O131 2.294 . S
In130 O132 2.326 . S
In130 O136 2.266 1_455 S
In130 O137 2.326 1_455 S
In130 O138 2.266 . S
In130 O139 2.326 . S
In130 O141 2.294 . S
In130 O142 2.326 . S
O131 In130 2.294 . S
O131 C140 1.240 . S
O132 In130 2.326 . S
O132 C140 1.252 . S
C133 O136 1.252 . S
C133 O137 1.260 . S
C134 O141 1.240 . S
C134 O142 1.252 . S
C135 O138 1.252 . S
C135 O139 1.260 . S
O136 In130 2.266 1_655 S
O136 C133 1.252 . S
O137 In130 2.326 1_655 S
O137 C133 1.260 . S
O138 In130 2.266 . S
O138 C135 1.252 . S
O139 In130 2.326 . S
O139 C135 1.260 . S
C140 O131 1.240 . S
C140 O132 1.252 . S
O141 In130 2.294 . S
O141 C134 1.240 . S
O142 In130 2.326 . S
O142 C134 1.252 . S
In143 O144 2.294 . S
In143 O145 2.326 . S
In143 O149 2.266 . S
In143 O150 2.326 . S
In143 O151 2.266 . S
In143 O152 2.326 . S
In143 O154 2.294 . S
In143 O155 2.326 . S
O144 In143 2.294 . S
O144 C153 1.240 . S
O145 In143 2.326 . S
O145 C153 1.252 . S
C146 O149 1.252 . S
C146 O150 1.260 . S
C147 O154 1.240 . S
C147 O155 1.252 . S
C148 O151 1.252 . S
C148 O152 1.260 . S
O149 In143 2.266 . S
O149 C146 1.252 . S
O150 In143 2.326 . S
O150 C146 1.260 . S
O151 In143 2.266 . S
O151 C148 1.252 . S
O152 In143 2.326 . S
O152 C148 1.260 . S
C153 O144 1.240 . S
C153 O145 1.252 . S
O154 In143 2.294 . S
O154 C147 1.240 . S
O155 In143 2.326 . S
O155 C147 1.252 . S
In156 O157 2.294 . S
In156 O158 2.326 . S
In156 O162 2.266 . S
In156 O163 2.326 . S
In156 O164 2.266 1_545 S
In156 O165 2.326 1_545 S
In156 O167 2.294 . S
In156 O168 2.326 . S
O157 In156 2.294 . S
O157 C166 1.240 . S
O158 In156 2.326 . S
O158 C166 1.252 . S
C159 O162 1.252 . S
C159 O163 1.260 . S
C160 O167 1.240 . S
C160 O168 1.252 . S
C161 O164 1.252 . S
C161 O165 1.260 . S
O162 In156 2.266 . S
O162 C159 1.252 . S
O163 In156 2.326 . S
O163 C159 1.260 . S
O164 In156 2.266 1_565 S
O164 C161 1.252 . S
O165 In156 2.326 1_565 S
O165 C161 1.260 . S
C166 O157 1.240 . S
C166 O158 1.252 . S
O167 In156 2.294 . S
O167 C160 1.240 . S
O168 In156 2.326 . S
O168 C160 1.252 . S
In169 O170 2.294 . S
In169 O171 2.326 . S
In169 O175 2.266 . S
In169 O176 2.326 . S
In169 O177 2.266 1_655 S
In169 O178 2.326 1_655 S
In169 O180 2.294 . S
In169 O181 2.326 . S
O170 In169 2.294 . S
O170 C179 1.240 . S
O171 In169 2.326 . S
O171 C179 1.252 . S
C172 O175 1.252 . S
C172 O176 1.260 . S
C173 O180 1.240 . S
C173 O181 1.252 . S
C174 O177 1.252 . S
C174 O178 1.260 . S
O175 In169 2.266 . S
O175 C172 1.252 . S
O176 In169 2.326 . S
O176 C172 1.260 . S
O177 In169 2.266 1_455 S
O177 C174 1.252 . S
O178 In169 2.326 1_455 S
O178 C174 1.260 . S
C179 O170 1.240 . S
C179 O171 1.252 . S
O180 In169 2.294 . S
O180 C173 1.240 . S
O181 In169 2.326 . S
O181 C173 1.252 . S
In182 O183 2.294 . S
In182 O184 2.326 . S
In182 O188 2.266 . S
In182 O189 2.326 . S
In182 O190 2.266 . S
In182 O191 2.326 . S
In182 O193 2.294 . S
In182 O194 2.326 . S
O183 In182 2.294 . S
O183 C192 1.240 . S
O184 In182 2.326 . S
O184 C192 1.252 . S
C185 O188 1.252 . S
C185 O189 1.260 . S
C186 O193 1.240 . S
C186 O194 1.252 . S
C187 O190 1.252 . S
C187 O191 1.260 . S
O188 In182 2.266 . S
O188 C185 1.252 . S
O189 In182 2.326 . S
O189 C185 1.260 . S
O190 In182 2.266 . S
O190 C187 1.252 . S
O191 In182 2.326 . S
O191 C187 1.260 . S
C192 O183 1.240 . S
C192 O184 1.252 . S
O193 In182 2.294 . S
O193 C186 1.240 . S
O194 In182 2.326 . S
O194 C186 1.252 . S
In195 O196 2.294 . S
In195 O197 2.326 . S
In195 O201 2.266 . S
In195 O202 2.326 . S
In195 O203 2.266 . S
In195 O204 2.326 . S
In195 O206 2.294 . S
In195 O207 2.326 . S
O196 In195 2.294 . S
O196 C205 1.240 . S
O197 In195 2.326 . S
O197 C205 1.252 . S
C198 O201 1.252 . S
C198 O202 1.260 . S
C199 O206 1.240 . S
C199 O207 1.252 . S
C200 O203 1.252 . S
C200 O204 1.260 . S
O201 In195 2.266 . S
O201 C198 1.252 . S
O202 In195 2.326 . S
O202 C198 1.260 . S
O203 In195 2.266 . S
O203 C200 1.252 . S
O204 In195 2.326 . S
O204 C200 1.260 . S
C205 O196 1.240 . S
C205 O197 1.252 . S
O206 In195 2.294 . S
O206 C199 1.240 . S
O207 In195 2.326 . S
O207 C199 1.252 . S
In208 O209 2.294 . S
In208 O210 2.326 . S
In208 O214 2.266 . S
In208 O215 2.326 . S
In208 O216 2.266 . S
In208 O217 2.326 . S
In208 O219 2.294 1_545 S
In208 O220 2.326 1_545 S
O209 In208 2.294 . S
O209 C218 1.240 . S
O210 In208 2.326 . S
O210 C218 1.252 . S
C211 O214 1.252 . S
C211 O215 1.260 . S
C212 O219 1.240 . S
C212 O220 1.252 . S
C213 O216 1.252 . S
C213 O217 1.260 . S
O214 In208 2.266 . S
O214 C211 1.252 . S
O215 In208 2.326 . S
O215 C211 1.260 . S
O216 In208 2.266 . S
O216 C213 1.252 . S
O217 In208 2.326 . S
O217 C213 1.260 . S
C218 O209 1.240 . S
C218 O210 1.252 . S
O219 In208 2.294 1_565 S
O219 C212 1.240 . S
O220 In208 2.326 1_565 S
O220 C212 1.252 . S
In221 O222 2.294 . S
In221 O223 2.326 . S
In221 O227 2.266 . S
In221 O228 2.326 . S
In221 O229 2.266 1_655 S
In221 O230 2.326 1_655 S
In221 O232 2.294 . S
In221 O233 2.326 . S
O222 In221 2.294 . S
O222 C231 1.240 . S
O223 In221 2.326 . S
O223 C231 1.252 . S
C224 O227 1.252 . S
C224 O228 1.260 . S
C225 O232 1.240 . S
C225 O233 1.252 . S
C226 O229 1.252 . S
C226 O230 1.260 . S
O227 In221 2.266 . S
O227 C224 1.252 . S
O228 In221 2.326 . S
O228 C224 1.260 . S
O229 In221 2.266 1_455 S
O229 C226 1.252 . S
O230 In221 2.326 1_455 S
O230 C226 1.260 . S
C231 O222 1.240 . S
C231 O223 1.252 . S
O232 In221 2.294 . S
O232 C225 1.240 . S
O233 In221 2.326 . S
O233 C225 1.252 . S
C234 C235 1.384 . S
C234 C236 1.384 . S
C234 H262 0.931 . S
C235 C234 1.384 . S
C235 C238 1.382 . S
C236 C234 1.384 . S
C236 C237 1.381 . S
C236 H263 0.930 . S
C237 C236 1.381 . S
C237 C239 1.381 . S
C237 C240 1.487 . S
C238 C235 1.382 . S
C238 C239 1.387 . S
C238 H264 0.930 . S
C239 C237 1.381 . S
C239 C238 1.387 . S
C239 H265 0.931 . S
C240 C237 1.487 . S
C240 C247 1.399 . S
C240 N278 1.343 . S
C241 C242 1.384 . S
C241 C243 1.384 . S
C241 H266 0.931 . S
C242 C241 1.384 . S
C242 C245 1.382 . S
C243 C241 1.384 . S
C243 C244 1.381 . S
C243 H267 0.930 . S
C244 C243 1.381 . S
C244 C246 1.381 . S
C244 C247 1.487 . S
C245 C242 1.382 . S
C245 C246 1.387 . S
C245 H268 0.930 . S
C246 C244 1.381 . S
C246 C245 1.387 . S
C246 H269 0.931 . S
C247 C240 1.399 . S
C247 C244 1.487 . S
C247 N279 1.343 . S
C248 C249 1.384 . S
C248 C250 1.384 . S
C248 H270 0.931 . S
C249 C248 1.384 . S
C249 C252 1.382 . S
C250 C248 1.384 . S
C250 C251 1.381 . S
C250 H271 0.930 . S
C251 C250 1.381 . S
C251 C253 1.381 . S
C251 C254 1.487 . S
C252 C249 1.382 . S
C252 C253 1.387 . S
C252 H272 0.930 . S
C253 C251 1.381 . S
C253 C252 1.387 . S
C253 H273 0.931 . S
C254 C251 1.487 . S
C254 C261 1.399 . S
C254 N279 1.343 . S
C255 C256 1.384 . S
C255 C257 1.384 . S
C255 H274 0.931 . S
C256 C255 1.384 . S
C256 C259 1.382 . S
C257 C255 1.384 . S
C257 C258 1.381 . S
C257 H275 0.930 . S
C258 C257 1.381 . S
C258 C260 1.381 . S
C258 C261 1.487 . S
C259 C256 1.382 . S
C259 C260 1.387 . S
C259 H276 0.930 . S
C260 C258 1.381 . S
C260 C259 1.387 . S
C260 H277 0.931 . S
C261 C254 1.399 . S
C261 C258 1.487 . S
C261 N278 1.343 . S
H262 C234 0.931 . S
H263 C236 0.930 . S
H264 C238 0.930 . S
H265 C239 0.931 . S
H266 C241 0.931 . S
H267 C243 0.930 . S
H268 C245 0.930 . S
H269 C246 0.931 . S
H270 C248 0.931 . S
H271 C250 0.930 . S
H272 C252 0.930 . S
H273 C253 0.931 . S
H274 C255 0.931 . S
H275 C257 0.930 . S
H276 C259 0.930 . S
H277 C260 0.931 . S
N278 C240 1.343 . S
N278 C261 1.343 . S
N279 C247 1.343 . S
N279 C254 1.343 . S
C280 C281 1.384 . S
C280 C282 1.384 . S
C280 H308 0.931 . S
C281 C280 1.384 . S
C281 C284 1.382 . S
C282 C280 1.384 . S
C282 C283 1.381 . S
C282 H309 0.930 . S
C283 C282 1.381 . S
C283 C285 1.381 . S
C283 C286 1.487 . S
C284 C281 1.382 . S
C284 C285 1.387 . S
C284 H310 0.930 . S
C285 C283 1.381 . S
C285 C284 1.387 . S
C285 H311 0.931 . S
C286 C283 1.487 . S
C286 C293 1.399 . S
C286 N324 1.343 . S
C287 C288 1.384 . S
C287 C289 1.384 . S
C287 H312 0.931 . S
C288 C287 1.384 . S
C288 C291 1.382 . S
C289 C287 1.384 . S
C289 C290 1.381 . S
C289 H313 0.930 . S
C290 C289 1.381 . S
C290 C292 1.381 . S
C290 C293 1.487 . S
C291 C288 1.382 . S
C291 C292 1.387 . S
C291 H314 0.930 . S
C292 C290 1.381 . S
C292 C291 1.387 . S
C292 H315 0.931 . S
C293 C286 1.399 . S
C293 C290 1.487 . S
C293 N325 1.343 . S
C294 C295 1.384 . S
C294 C296 1.384 . S
C294 H316 0.931 . S
C295 C294 1.384 . S
C295 C298 1.382 . S
C296 C294 1.384 . S
C296 C297 1.381 . S
C296 H317 0.930 . S
C297 C296 1.381 . S
C297 C299 1.381 . S
C297 C300 1.487 . S
C298 C295 1.382 . S
C298 C299 1.387 . S
C298 H318 0.930 . S
C299 C297 1.381 . S
C299 C298 1.387 . S
C299 H319 0.931 . S
C300 C297 1.487 . S
C300 C307 1.399 . S
C300 N325 1.343 . S
C301 C302 1.384 . S
C301 C303 1.384 . S
C301 H320 0.931 . S
C302 C301 1.384 . S
C302 C305 1.382 . S
C303 C301 1.384 . S
C303 C304 1.381 . S
C303 H321 0.930 . S
C304 C303 1.381 . S
C304 C306 1.381 . S
C304 C307 1.487 . S
C305 C302 1.382 . S
C305 C306 1.387 . S
C305 H322 0.930 . S
C306 C304 1.381 . S
C306 C305 1.387 . S
C306 H323 0.931 . S
C307 C300 1.399 . S
C307 C304 1.487 . S
C307 N324 1.343 . S
H308 C280 0.931 . S
H309 C282 0.930 . S
H310 C284 0.930 . S
H311 C285 0.931 . S
H312 C287 0.931 . S
H313 C289 0.930 . S
H314 C291 0.930 . S
H315 C292 0.931 . S
H316 C294 0.931 . S
H317 C296 0.930 . S
H318 C298 0.930 . S
H319 C299 0.931 . S
H320 C301 0.931 . S
H321 C303 0.930 . S
H322 C305 0.930 . S
H323 C306 0.931 . S
N324 C286 1.343 . S
N324 C307 1.343 . S
N325 C293 1.343 . S
N325 C300 1.343 . S
C326 C327 1.384 . S
C326 C328 1.384 . S
C326 H354 0.931 . S
C327 C326 1.384 . S
C327 C330 1.382 . S
C328 C326 1.384 . S
C328 C329 1.381 . S
C328 H355 0.930 . S
C329 C328 1.381 . S
C329 C331 1.381 . S
C329 C332 1.487 . S
C330 C327 1.382 . S
C330 C331 1.387 . S
C330 H356 0.930 . S
C331 C329 1.381 . S
C331 C330 1.387 . S
C331 H357 0.931 . S
C332 C329 1.487 . S
C332 C339 1.399 . S
C332 N370 1.343 . S
C333 C334 1.384 . S
C333 C335 1.384 . S
C333 H358 0.931 . S
C334 C333 1.384 . S
C334 C337 1.382 . S
C335 C333 1.384 . S
C335 C336 1.381 . S
C335 H359 0.930 . S
C336 C335 1.381 . S
C336 C338 1.381 . S
C336 C339 1.487 . S
C337 C334 1.382 . S
C337 C338 1.387 . S
C337 H360 0.930 . S
C338 C336 1.381 . S
C338 C337 1.387 . S
C338 H361 0.931 . S
C339 C332 1.399 . S
C339 C336 1.487 . S
C339 N371 1.343 . S
C340 C341 1.384 . S
C340 C342 1.384 . S
C340 H362 0.931 . S
C341 C340 1.384 . S
C341 C344 1.382 . S
C342 C340 1.384 . S
C342 C343 1.381 . S
C342 H363 0.930 . S
C343 C342 1.381 . S
C343 C345 1.381 . S
C343 C346 1.487 . S
C344 C341 1.382 . S
C344 C345 1.387 . S
C344 H364 0.930 . S
C345 C343 1.381 . S
C345 C344 1.387 . S
C345 H365 0.931 . S
C346 C343 1.487 . S
C346 C353 1.399 . S
C346 N371 1.343 . S
C347 C348 1.384 . S
C347 C349 1.384 . S
C347 H366 0.931 . S
C348 C347 1.384 . S
C348 C351 1.382 . S
C349 C347 1.384 . S
C349 C350 1.381 . S
C349 H367 0.930 . S
C350 C349 1.381 . S
C350 C352 1.381 . S
C350 C353 1.487 . S
C351 C348 1.382 . S
C351 C352 1.387 . S
C351 H368 0.930 . S
C352 C350 1.381 . S
C352 C351 1.387 . S
C352 H369 0.931 . S
C353 C346 1.399 . S
C353 C350 1.487 . S
C353 N370 1.343 . S
H354 C326 0.931 . S
H355 C328 0.930 . S
H356 C330 0.930 . S
H357 C331 0.931 . S
H358 C333 0.931 . S
H359 C335 0.930 . S
H360 C337 0.930 . S
H361 C338 0.931 . S
H362 C340 0.931 . S
H363 C342 0.930 . S
H364 C344 0.930 . S
H365 C345 0.931 . S
H366 C347 0.931 . S
H367 C349 0.930 . S
H368 C351 0.930 . S
H369 C352 0.931 . S
N370 C332 1.343 . S
N370 C353 1.343 . S
N371 C339 1.343 . S
N371 C346 1.343 . S
C372 C373 1.384 . S
C372 C374 1.384 . S
C372 H400 0.931 . S
C373 C372 1.384 . S
C373 C376 1.382 . S
C374 C372 1.384 . S
C374 C375 1.381 . S
C374 H401 0.930 . S
C375 C374 1.381 . S
C375 C377 1.381 . S
C375 C378 1.487 . S
C376 C373 1.382 . S
C376 C377 1.387 . S
C376 H402 0.930 . S
C377 C375 1.381 . S
C377 C376 1.387 . S
C377 H403 0.931 . S
C378 C375 1.487 . S
C378 C385 1.399 . S
C378 N416 1.343 . S
C379 C380 1.384 . S
C379 C381 1.384 . S
C379 H404 0.931 . S
C380 C379 1.384 . S
C380 C383 1.382 . S
C381 C379 1.384 . S
C381 C382 1.381 . S
C381 H405 0.930 . S
C382 C381 1.381 . S
C382 C384 1.381 . S
C382 C385 1.487 . S
C383 C380 1.382 . S
C383 C384 1.387 . S
C383 H406 0.930 . S
C384 C382 1.381 . S
C384 C383 1.387 . S
C384 H407 0.931 . S
C385 C378 1.399 . S
C385 C382 1.487 . S
C385 N417 1.343 . S
C386 C387 1.384 . S
C386 C388 1.384 . S
C386 H408 0.931 . S
C387 C386 1.384 . S
C387 C390 1.382 . S
C388 C386 1.384 . S
C388 C389 1.381 . S
C388 H409 0.930 . S
C389 C388 1.381 . S
C389 C391 1.381 . S
C389 C392 1.487 . S
C390 C387 1.382 . S
C390 C391 1.387 . S
C390 H410 0.930 . S
C391 C389 1.381 . S
C391 C390 1.387 . S
C391 H411 0.931 . S
C392 C389 1.487 . S
C392 C399 1.399 . S
C392 N417 1.343 . S
C393 C394 1.384 . S
C393 C395 1.384 . S
C393 H412 0.931 . S
C394 C393 1.384 . S
C394 C397 1.382 . S
C395 C393 1.384 . S
C395 C396 1.381 . S
C395 H413 0.930 . S
C396 C395 1.381 . S
C396 C398 1.381 . S
C396 C399 1.487 . S
C397 C394 1.382 . S
C397 C398 1.387 . S
C397 H414 0.930 . S
C398 C396 1.381 . S
C398 C397 1.387 . S
C398 H415 0.931 . S
C399 C392 1.399 . S
C399 C396 1.487 . S
C399 N416 1.343 . S
H400 C372 0.931 . S
H401 C374 0.930 . S
H402 C376 0.930 . S
H403 C377 0.931 . S
H404 C379 0.931 . S
H405 C381 0.930 . S
H406 C383 0.930 . S
H407 C384 0.931 . S
H408 C386 0.931 . S
H409 C388 0.930 . S
H410 C390 0.930 . S
H411 C391 0.931 . S
H412 C393 0.931 . S
H413 C395 0.930 . S
H414 C397 0.930 . S
H415 C398 0.931 . S
N416 C378 1.343 . S
N416 C399 1.343 . S
N417 C385 1.343 . S
N417 C392 1.343 . S
C418 C419 1.384 . S
C418 C420 1.384 . S
C418 H446 0.931 . S
C419 C418 1.384 . S
C419 C422 1.382 . S
C420 C418 1.384 . S
C420 C421 1.381 . S
C420 H447 0.930 . S
C421 C420 1.381 . S
C421 C423 1.381 . S
C421 C424 1.487 . S
C422 C419 1.382 . S
C422 C423 1.387 . S
C422 H448 0.930 . S
C423 C421 1.381 . S
C423 C422 1.387 . S
C423 H449 0.931 . S
C424 C421 1.487 . S
C424 C431 1.399 . S
C424 N462 1.343 . S
C425 C426 1.384 . S
C425 C427 1.384 . S
C425 H450 0.931 . S
C426 C425 1.384 . S
C426 C429 1.382 . S
C427 C425 1.384 . S
C427 C428 1.381 . S
C427 H451 0.930 . S
C428 C427 1.381 . S
C428 C430 1.381 . S
C428 C431 1.487 . S
C429 C426 1.382 . S
C429 C430 1.387 . S
C429 H452 0.930 . S
C430 C428 1.381 . S
C430 C429 1.387 . S
C430 H453 0.931 . S
C431 C424 1.399 . S
C431 C428 1.487 . S
C431 N463 1.343 . S
C432 C433 1.384 . S
C432 C434 1.384 . S
C432 H454 0.931 . S
C433 C432 1.384 . S
C433 C436 1.382 . S
C434 C432 1.384 . S
C434 C435 1.381 . S
C434 H455 0.930 . S
C435 C434 1.381 . S
C435 C437 1.381 . S
C435 C438 1.487 . S
C436 C433 1.382 . S
C436 C437 1.387 . S
C436 H456 0.930 . S
C437 C435 1.381 . S
C437 C436 1.387 . S
C437 H457 0.931 . S
C438 C435 1.487 . S
C438 C445 1.399 . S
C438 N463 1.343 . S
C439 C440 1.384 . S
C439 C441 1.384 . S
C439 H458 0.931 . S
C440 C439 1.384 . S
C440 C443 1.382 . S
C441 C439 1.384 . S
C441 C442 1.381 . S
C441 H459 0.930 . S
C442 C441 1.381 . S
C442 C444 1.381 . S
C442 C445 1.487 . S
C443 C440 1.382 . S
C443 C444 1.387 . S
C443 H460 0.930 . S
C444 C442 1.381 . S
C444 C443 1.387 . S
C444 H461 0.931 . S
C445 C438 1.399 . S
C445 C442 1.487 . S
C445 N462 1.343 . S
H446 C418 0.931 . S
H447 C420 0.930 . S
H448 C422 0.930 . S
H449 C423 0.931 . S
H450 C425 0.931 . S
H451 C427 0.930 . S
H452 C429 0.930 . S
H453 C430 0.931 . S
H454 C432 0.931 . S
H455 C434 0.930 . S
H456 C436 0.930 . S
H457 C437 0.931 . S
H458 C439 0.931 . S
H459 C441 0.930 . S
H460 C443 0.930 . S
H461 C444 0.931 . S
N462 C424 1.343 . S
N462 C445 1.343 . S
N463 C431 1.343 . S
N463 C438 1.343 . S
C464 C465 1.384 . S
C464 C466 1.384 . S
C464 H492 0.931 . S
C465 C464 1.384 . S
C465 C468 1.382 . S
C466 C464 1.384 . S
C466 C467 1.381 . S
C466 H493 0.930 . S
C467 C466 1.381 . S
C467 C469 1.381 . S
C467 C470 1.487 . S
C468 C465 1.382 . S
C468 C469 1.387 . S
C468 H494 0.930 . S
C469 C467 1.381 . S
C469 C468 1.387 . S
C469 H495 0.931 . S
C470 C467 1.487 . S
C470 C477 1.399 . S
C470 N508 1.343 . S
C471 C472 1.384 . S
C471 C473 1.384 . S
C471 H496 0.931 . S
C472 C471 1.384 . S
C472 C475 1.382 . S
C473 C471 1.384 . S
C473 C474 1.381 . S
C473 H497 0.930 . S
C474 C473 1.381 . S
C474 C476 1.381 . S
C474 C477 1.487 . S
C475 C472 1.382 . S
C475 C476 1.387 . S
C475 H498 0.930 . S
C476 C474 1.381 . S
C476 C475 1.387 . S
C476 H499 0.931 . S
C477 C470 1.399 . S
C477 C474 1.487 . S
C477 N509 1.343 . S
C478 C479 1.384 . S
C478 C480 1.384 . S
C478 H500 0.931 . S
C479 C478 1.384 . S
C479 C482 1.382 . S
C480 C478 1.384 . S
C480 C481 1.381 . S
C480 H501 0.930 . S
C481 C480 1.381 . S
C481 C483 1.381 . S
C481 C484 1.487 . S
C482 C479 1.382 . S
C482 C483 1.387 . S
C482 H502 0.930 . S
C483 C481 1.381 . S
C483 C482 1.387 . S
C483 H503 0.931 . S
C484 C481 1.487 . S
C484 C491 1.399 . S
C484 N509 1.343 . S
C485 C486 1.384 . S
C485 C487 1.384 . S
C485 H504 0.931 . S
C486 C485 1.384 . S
C486 C489 1.382 . S
C487 C485 1.384 . S
C487 C488 1.381 . S
C487 H505 0.930 . S
C488 C487 1.381 . S
C488 C490 1.381 . S
C488 C491 1.487 . S
C489 C486 1.382 . S
C489 C490 1.387 . S
C489 H506 0.930 . S
C490 C488 1.381 . S
C490 C489 1.387 . S
C490 H507 0.931 . S
C491 C484 1.399 . S
C491 C488 1.487 . S
C491 N508 1.343 . S
H492 C464 0.931 . S
H493 C466 0.930 . S
H494 C468 0.930 . S
H495 C469 0.931 . S
H496 C471 0.931 . S
H497 C473 0.930 . S
H498 C475 0.930 . S
H499 C476 0.931 . S
H500 C478 0.931 . S
H501 C480 0.930 . S
H502 C482 0.930 . S
H503 C483 0.931 . S
H504 C485 0.931 . S
H505 C487 0.930 . S
H506 C489 0.930 . S
H507 C490 0.931 . S
N508 C470 1.343 . S
N508 C491 1.343 . S
N509 C477 1.343 . S
N509 C484 1.343 . S
C510 C511 1.384 . S
C510 C512 1.384 . S
C510 H538 0.931 . S
C511 C510 1.384 . S
C511 C514 1.382 . S
C512 C510 1.384 . S
C512 C513 1.381 . S
C512 H539 0.930 . S
C513 C512 1.381 . S
C513 C515 1.381 . S
C513 C516 1.487 . S
C514 C511 1.382 . S
C514 C515 1.387 . S
C514 H540 0.930 . S
C515 C513 1.381 . S
C515 C514 1.387 . S
C515 H541 0.931 . S
C516 C513 1.487 . S
C516 C523 1.399 . S
C516 N554 1.343 . S
C517 C518 1.384 . S
C517 C519 1.384 . S
C517 H542 0.931 . S
C518 C517 1.384 . S
C518 C521 1.382 . S
C519 C517 1.384 . S
C519 C520 1.381 . S
C519 H543 0.930 . S
C520 C519 1.381 . S
C520 C522 1.381 . S
C520 C523 1.487 . S
C521 C518 1.382 . S
C521 C522 1.387 . S
C521 H544 0.930 . S
C522 C520 1.381 . S
C522 C521 1.387 . S
C522 H545 0.931 . S
C523 C516 1.399 . S
C523 C520 1.487 . S
C523 N555 1.343 . S
C524 C525 1.384 . S
C524 C526 1.384 . S
C524 H546 0.931 . S
C525 C524 1.384 . S
C525 C528 1.382 . S
C526 C524 1.384 . S
C526 C527 1.381 . S
C526 H547 0.930 . S
C527 C526 1.381 . S
C527 C529 1.381 . S
C527 C530 1.487 . S
C528 C525 1.382 . S
C528 C529 1.387 . S
C528 H548 0.930 . S
C529 C527 1.381 . S
C529 C528 1.387 . S
C529 H549 0.931 . S
C530 C527 1.487 . S
C530 C537 1.399 . S
C530 N555 1.343 . S
C531 C532 1.384 . S
C531 C533 1.384 . S
C531 H550 0.931 . S
C532 C531 1.384 . S
C532 C535 1.382 . S
C533 C531 1.384 . S
C533 C534 1.381 . S
C533 H551 0.930 . S
C534 C533 1.381 . S
C534 C536 1.381 . S
C534 C537 1.487 . S
C535 C532 1.382 . S
C535 C536 1.387 . S
C535 H552 0.930 . S
C536 C534 1.381 . S
C536 C535 1.387 . S
C536 H553 0.931 . S
C537 C530 1.399 . S
C537 C534 1.487 . S
C537 N554 1.343 . S
H538 C510 0.931 . S
H539 C512 0.930 . S
H540 C514 0.930 . S
H541 C515 0.931 . S
H542 C517 0.931 . S
H543 C519 0.930 . S
H544 C521 0.930 . S
H545 C522 0.931 . S
H546 C524 0.931 . S
H547 C526 0.930 . S
H548 C528 0.930 . S
H549 C529 0.931 . S
H550 C531 0.931 . S
H551 C533 0.930 . S
H552 C535 0.930 . S
H553 C536 0.931 . S
N554 C516 1.343 . S
N554 C537 1.343 . S
N555 C523 1.343 . S
N555 C530 1.343 . S
C556 C557 1.384 . S
C556 C558 1.384 . S
C556 H584 0.931 . S
C557 C556 1.384 . S
C557 C560 1.382 . S
C558 C556 1.384 . S
C558 C559 1.381 . S
C558 H585 0.930 . S
C559 C558 1.381 . S
C559 C561 1.381 . S
C559 C562 1.487 . S
C560 C557 1.382 . S
C560 C561 1.387 . S
C560 H586 0.930 . S
C561 C559 1.381 . S
C561 C560 1.387 . S
C561 H587 0.931 . S
C562 C559 1.487 . S
C562 C569 1.399 . S
C562 N600 1.343 . S
C563 C564 1.384 . S
C563 C565 1.384 . S
C563 H588 0.931 . S
C564 C563 1.384 . S
C564 C567 1.382 . S
C565 C563 1.384 . S
C565 C566 1.381 . S
C565 H589 0.930 . S
C566 C565 1.381 . S
C566 C568 1.381 . S
C566 C569 1.487 . S
C567 C564 1.382 . S
C567 C568 1.387 . S
C567 H590 0.930 . S
C568 C566 1.381 . S
C568 C567 1.387 . S
C568 H591 0.931 . S
C569 C562 1.399 . S
C569 C566 1.487 . S
C569 N601 1.343 . S
C570 C571 1.384 . S
C570 C572 1.384 . S
C570 H592 0.931 . S
C571 C570 1.384 . S
C571 C574 1.382 . S
C572 C570 1.384 . S
C572 C573 1.381 . S
C572 H593 0.930 . S
C573 C572 1.381 . S
C573 C575 1.381 . S
C573 C576 1.487 . S
C574 C571 1.382 . S
C574 C575 1.387 . S
C574 H594 0.930 . S
C575 C573 1.381 . S
C575 C574 1.387 . S
C575 H595 0.931 . S
C576 C573 1.487 . S
C576 C583 1.399 . S
C576 N601 1.343 . S
C577 C578 1.384 . S
C577 C579 1.384 . S
C577 H596 0.931 . S
C578 C577 1.384 . S
C578 C581 1.382 . S
C579 C577 1.384 . S
C579 C580 1.381 . S
C579 H597 0.930 . S
C580 C579 1.381 . S
C580 C582 1.381 . S
C580 C583 1.487 . S
C581 C578 1.382 . S
C581 C582 1.387 . S
C581 H598 0.930 . S
C582 C580 1.381 . S
C582 C581 1.387 . S
C582 H599 0.931 . S
C583 C576 1.399 . S
C583 C580 1.487 . S
C583 N600 1.343 . S
H584 C556 0.931 . S
H585 C558 0.930 . S
H586 C560 0.930 . S
H587 C561 0.931 . S
H588 C563 0.931 . S
H589 C565 0.930 . S
H590 C567 0.930 . S
H591 C568 0.931 . S
H592 C570 0.931 . S
H593 C572 0.930 . S
H594 C574 0.930 . S
H595 C575 0.931 . S
H596 C577 0.931 . S
H597 C579 0.930 . S
H598 C581 0.930 . S
H599 C582 0.931 . S
N600 C562 1.343 . S
N600 C583 1.343 . S
N601 C569 1.343 . S
N601 C576 1.343 . S
C602 C603 1.384 . S
C602 C604 1.384 . S
C602 H630 0.931 . S
C603 C602 1.384 . S
C603 C606 1.382 . S
C604 C602 1.384 . S
C604 C605 1.381 . S
C604 H631 0.930 . S
C605 C604 1.381 . S
C605 C607 1.381 . S
C605 C608 1.487 . S
C606 C603 1.382 . S
C606 C607 1.387 . S
C606 H632 0.930 . S
C607 C605 1.381 . S
C607 C606 1.387 . S
C607 H633 0.931 . S
C608 C605 1.487 . S
C608 C615 1.399 . S
C608 N646 1.343 . S
C609 C610 1.384 . S
C609 C611 1.384 . S
C609 H634 0.931 . S
C610 C609 1.384 . S
C610 C613 1.382 . S
C611 C609 1.384 . S
C611 C612 1.381 . S
C611 H635 0.930 . S
C612 C611 1.381 . S
C612 C614 1.381 . S
C612 C615 1.487 . S
C613 C610 1.382 . S
C613 C614 1.387 . S
C613 H636 0.930 . S
C614 C612 1.381 . S
C614 C613 1.387 . S
C614 H637 0.931 . S
C615 C608 1.399 . S
C615 C612 1.487 . S
C615 N647 1.343 . S
C616 C617 1.384 . S
C616 C618 1.384 . S
C616 H638 0.931 . S
C617 C616 1.384 . S
C617 C620 1.382 . S
C618 C616 1.384 . S
C618 C619 1.381 . S
C618 H639 0.930 . S
C619 C618 1.381 . S
C619 C621 1.381 . S
C619 C622 1.487 . S
C620 C617 1.382 . S
C620 C621 1.387 . S
C620 H640 0.930 . S
C621 C619 1.381 . S
C621 C620 1.387 . S
C621 H641 0.931 . S
C622 C619 1.487 . S
C622 C629 1.399 . S
C622 N647 1.343 . S
C623 C624 1.384 . S
C623 C625 1.384 . S
C623 H642 0.931 . S
C624 C623 1.384 . S
C624 C627 1.382 . S
C625 C623 1.384 . S
C625 C626 1.381 . S
C625 H643 0.930 . S
C626 C625 1.381 . S
C626 C628 1.381 . S
C626 C629 1.487 . S
C627 C624 1.382 . S
C627 C628 1.387 . S
C627 H644 0.930 . S
C628 C626 1.381 . S
C628 C627 1.387 . S
C628 H645 0.931 . S
C629 C622 1.399 . S
C629 C626 1.487 . S
C629 N646 1.343 . S
H630 C602 0.931 . S
H631 C604 0.930 . S
H632 C606 0.930 . S
H633 C607 0.931 . S
H634 C609 0.931 . S
H635 C611 0.930 . S
H636 C613 0.930 . S
H637 C614 0.931 . S
H638 C616 0.931 . S
H639 C618 0.930 . S
H640 C620 0.930 . S
H641 C621 0.931 . S
H642 C623 0.931 . S
H643 C625 0.930 . S
H644 C627 0.930 . S
H645 C628 0.931 . S
N646 C608 1.343 . S
N646 C629 1.343 . S
N647 C615 1.343 . S
N647 C622 1.343 . S
C648 C649 1.384 . S
C648 C650 1.384 . S
C648 H676 0.931 . S
C649 C648 1.384 . S
C649 C652 1.382 1_655 S
C650 C648 1.384 . S
C650 C651 1.387 . S
C650 H677 0.930 . S
C651 C650 1.387 . S
C651 C653 1.378 1_655 S
C651 C654 1.477 1_655 S
C652 C649 1.382 1_455 S
C652 C653 1.387 . S
C652 H678 0.930 . S
C653 C651 1.378 1_455 S
C653 C652 1.387 . S
C653 H679 0.931 . S
C654 C651 1.477 1_455 S
C654 C661 1.399 1_455 S
C654 N692 1.319 . S
C655 C656 1.384 . S
C655 C657 1.384 . S
C655 H680 0.931 . S
C656 C655 1.384 . S
C656 C659 1.382 1_455 S
C657 C655 1.384 . S
C657 C658 1.384 . S
C657 H681 0.930 . S
C658 C657 1.384 . S
C658 C660 1.373 1_455 S
C658 C661 1.494 1_455 S
C659 C656 1.382 1_655 S
C659 C660 1.387 . S
C659 H682 0.930 . S
C660 C658 1.373 1_655 S
C660 C659 1.387 . S
C660 H683 0.931 . S
C661 C654 1.399 1_655 S
C661 C658 1.494 1_655 S
C661 N693 1.364 . S
C662 C663 1.384 . S
C662 C664 1.384 . S
C662 H684 0.931 . S
C663 C662 1.384 . S
C663 C666 1.382 1_455 S
C664 C662 1.384 . S
C664 C665 1.403 . S
C664 H685 0.930 . S
C665 C664 1.403 . S
C665 C667 1.370 1_455 S
C665 C668 1.477 1_455 S
C666 C663 1.382 1_655 S
C666 C667 1.387 . S
C666 H686 0.930 . S
C667 C665 1.370 1_655 S
C667 C666 1.387 . S
C667 H687 0.931 . S
C668 C665 1.477 1_655 S
C668 C675 1.399 1_655 S
C668 N693 1.319 . S
C669 C670 1.384 . S
C669 C671 1.384 . S
C669 H688 0.931 . S
C670 C669 1.384 . S
C670 C673 1.382 1_655 S
C671 C669 1.384 . S
C671 C672 1.381 . S
C671 H689 0.930 . S
C672 C671 1.381 . S
C672 C674 1.382 1_655 S
C672 C675 1.494 1_655 S
C673 C670 1.382 1_455 S
C673 C674 1.387 . S
C673 H690 0.930 . S
C674 C672 1.382 1_455 S
C674 C673 1.387 . S
C674 H691 0.931 . S
C675 C668 1.399 1_455 S
C675 C672 1.494 1_455 S
C675 N692 1.364 . S
H676 C648 0.931 . S
H677 C650 0.930 . S
H678 C652 0.930 . S
H679 C653 0.931 . S
H680 C655 0.931 . S
H681 C657 0.930 . S
H682 C659 0.930 . S
H683 C660 0.931 . S
H684 C662 0.931 . S
H685 C664 0.930 . S
H686 C666 0.930 . S
H687 C667 0.931 . S
H688 C669 0.931 . S
H689 C671 0.930 . S
H690 C673 0.930 . S
H691 C674 0.931 . S
N692 C654 1.319 . S
N692 C675 1.364 . S
N693 C661 1.364 . S
N693 C668 1.319 . S
C694 C695 1.384 . S
C694 C696 1.384 . S
C694 H722 0.931 . S
C695 C694 1.384 . S
C695 C698 1.382 . S
C696 C694 1.384 . S
C696 C697 1.381 . S
C696 H723 0.930 . S
C697 C696 1.381 . S
C697 C699 1.381 . S
C697 C700 1.487 . S
C698 C695 1.382 . S
C698 C699 1.387 . S
C698 H724 0.930 . S
C699 C697 1.381 . S
C699 C698 1.387 . S
C699 H725 0.931 . S
C700 C697 1.487 . S
C700 C707 1.399 . S
C700 N738 1.343 . S
C701 C702 1.384 . S
C701 C703 1.384 . S
C701 H726 0.931 . S
C702 C701 1.384 . S
C702 C705 1.382 . S
C703 C701 1.384 . S
C703 C704 1.381 . S
C703 H727 0.930 . S
C704 C703 1.381 . S
C704 C706 1.381 . S
C704 C707 1.487 . S
C705 C702 1.382 . S
C705 C706 1.387 . S
C705 H728 0.930 . S
C706 C704 1.381 . S
C706 C705 1.387 . S
C706 H729 0.931 . S
C707 C700 1.399 . S
C707 C704 1.487 . S
C707 N739 1.343 . S
C708 C709 1.384 . S
C708 C710 1.384 . S
C708 H730 0.931 . S
C709 C708 1.384 . S
C709 C712 1.382 . S
C710 C708 1.384 . S
C710 C711 1.381 . S
C710 H731 0.930 . S
C711 C710 1.381 . S
C711 C713 1.381 . S
C711 C714 1.487 . S
C712 C709 1.382 . S
C712 C713 1.387 . S
C712 H732 0.930 . S
C713 C711 1.381 . S
C713 C712 1.387 . S
C713 H733 0.931 . S
C714 C711 1.487 . S
C714 C721 1.399 . S
C714 N739 1.343 . S
C715 C716 1.384 . S
C715 C717 1.384 . S
C715 H734 0.931 . S
C716 C715 1.384 . S
C716 C719 1.382 . S
C717 C715 1.384 . S
C717 C718 1.381 . S
C717 H735 0.930 . S
C718 C717 1.381 . S
C718 C720 1.381 . S
C718 C721 1.487 . S
C719 C716 1.382 . S
C719 C720 1.387 . S
C719 H736 0.930 . S
C720 C718 1.381 . S
C720 C719 1.387 . S
C720 H737 0.931 . S
C721 C714 1.399 . S
C721 C718 1.487 . S
C721 N738 1.343 . S
H722 C694 0.931 . S
H723 C696 0.930 . S
H724 C698 0.930 . S
H725 C699 0.931 . S
H726 C701 0.931 . S
H727 C703 0.930 . S
H728 C705 0.930 . S
H729 C706 0.931 . S
H730 C708 0.931 . S
H731 C710 0.930 . S
H732 C712 0.930 . S
H733 C713 0.931 . S
H734 C715 0.931 . S
H735 C717 0.930 . S
H736 C719 0.930 . S
H737 C720 0.931 . S
N738 C700 1.343 . S
N738 C721 1.343 . S
N739 C707 1.343 . S
N739 C714 1.343 . S
C740 C741 1.384 1_545 S
C740 C742 1.384 . S
C740 H768 0.931 . S
C741 C740 1.384 1_565 S
C741 C744 1.382 . S
C742 C740 1.384 . S
C742 C743 1.381 1_545 S
C742 H769 0.930 . S
C743 C742 1.381 1_565 S
C743 C745 1.381 . S
C743 C746 1.487 . S
C744 C741 1.382 . S
C744 C745 1.387 . S
C744 H770 0.930 . S
C745 C743 1.381 . S
C745 C744 1.387 . S
C745 H771 0.931 . S
C746 C743 1.487 . S
C746 C753 1.399 1_565 S
C746 N784 1.343 . S
C747 C748 1.384 1_565 S
C747 C749 1.384 . S
C747 H772 0.931 . S
C748 C747 1.384 1_545 S
C748 C751 1.382 . S
C749 C747 1.384 . S
C749 C750 1.381 1_565 S
C749 H773 0.930 . S
C750 C749 1.381 1_545 S
C750 C752 1.381 . S
C750 C753 1.487 . S
C751 C748 1.382 . S
C751 C752 1.387 . S
C751 H774 0.930 . S
C752 C750 1.381 . S
C752 C751 1.387 . S
C752 H775 0.931 . S
C753 C746 1.399 1_545 S
C753 C750 1.487 . S
C753 N785 1.343 . S
C754 C755 1.384 1_565 S
C754 C756 1.384 . S
C754 H776 0.931 . S
C755 C754 1.384 1_545 S
C755 C758 1.382 . S
C756 C754 1.384 . S
C756 C757 1.381 1_565 S
C756 H777 0.930 . S
C757 C756 1.381 1_545 S
C757 C759 1.381 . S
C757 C760 1.487 . S
C758 C755 1.382 . S
C758 C759 1.387 . S
C758 H778 0.930 . S
C759 C757 1.381 . S
C759 C758 1.387 . S
C759 H779 0.931 . S
C760 C757 1.487 . S
C760 C767 1.399 1_545 S
C760 N785 1.343 . S
C761 C762 1.384 1_545 S
C761 C763 1.384 . S
C761 H780 0.931 . S
C762 C761 1.384 1_565 S
C762 C765 1.382 . S
C763 C761 1.384 . S
C763 C764 1.381 1_545 S
C763 H781 0.930 . S
C764 C763 1.381 1_565 S
C764 C766 1.381 . S
C764 C767 1.487 . S
C765 C762 1.382 . S
C765 C766 1.387 . S
C765 H782 0.930 . S
C766 C764 1.381 . S
C766 C765 1.387 . S
C766 H783 0.931 . S
C767 C760 1.399 1_565 S
C767 C764 1.487 . S
C767 N784 1.343 . S
H768 C740 0.931 . S
H769 C742 0.930 . S
H770 C744 0.930 . S
H771 C745 0.931 . S
H772 C747 0.931 . S
H773 C749 0.930 . S
H774 C751 0.930 . S
H775 C752 0.931 . S
H776 C754 0.931 . S
H777 C756 0.930 . S
H778 C758 0.930 . S
H779 C759 0.931 . S
H780 C761 0.931 . S
H781 C763 0.930 . S
H782 C765 0.930 . S
H783 C766 0.931 . S
N784 C746 1.343 . S
N784 C767 1.343 . S
N785 C753 1.343 . S
N785 C760 1.343 . S
C786 C787 1.384 . S
C786 C788 1.384 . S
C786 H814 0.931 . S
C787 C786 1.384 . S
C787 C790 1.382 1_545 S
C788 C786 1.384 . S
C788 C789 1.384 . S
C788 H815 0.930 . S
C789 C788 1.384 . S
C789 C791 1.374 1_545 S
C789 C792 1.494 1_545 S
C790 C787 1.382 1_565 S
C790 C791 1.387 . S
C790 H816 0.930 . S
C791 C789 1.374 1_565 S
C791 C790 1.387 . S
C791 H817 0.931 . S
C792 C789 1.494 1_565 S
C792 C799 1.399 1_565 S
C792 N830 1.364 . S
C793 C794 1.384 . S
C793 C795 1.384 . S
C793 H818 0.931 . S
C794 C793 1.384 . S
C794 C797 1.382 1_565 S
C795 C793 1.384 . S
C795 C796 1.388 . S
C795 H819 0.930 . S
C796 C795 1.388 . S
C796 C798 1.378 1_565 S
C796 C799 1.477 1_565 S
C797 C794 1.382 1_545 S
C797 C798 1.387 . S
C797 H820 0.930 . S
C798 C796 1.378 1_545 S
C798 C797 1.387 . S
C798 H821 0.931 . S
C799 C792 1.399 1_545 S
C799 C796 1.477 1_545 S
C799 N831 1.318 . S
C800 C801 1.384 . S
C800 C802 1.384 . S
C800 H822 0.931 . S
C801 C800 1.384 . S
C801 C804 1.382 1_565 S
C802 C800 1.384 . S
C802 C803 1.381 . S
C802 H823 0.930 . S
C803 C802 1.381 . S
C803 C805 1.383 1_565 S
C803 C806 1.494 1_565 S
C804 C801 1.382 1_545 S
C804 C805 1.387 . S
C804 H824 0.930 . S
C805 C803 1.383 1_545 S
C805 C804 1.387 . S
C805 H825 0.931 . S
C806 C803 1.494 1_545 S
C806 C813 1.399 1_545 S
C806 N831 1.364 . S
C807 C808 1.384 . S
C807 C809 1.384 . S
C807 H826 0.931 . S
C808 C807 1.384 . S
C808 C811 1.382 1_545 S
C809 C807 1.384 . S
C809 C810 1.404 . S
C809 H827 0.930 . S
C810 C809 1.404 . S
C810 C812 1.369 1_545 S
C810 C813 1.477 1_545 S
C811 C808 1.382 1_565 S
C811 C812 1.387 . S
C811 H828 0.930 . S
C812 C810 1.369 1_565 S
C812 C811 1.387 . S
C812 H829 0.931 . S
C813 C806 1.399 1_565 S
C813 C810 1.477 1_565 S
C813 N830 1.318 . S
H814 C786 0.931 . S
H815 C788 0.930 . S
H816 C790 0.930 . S
H817 C791 0.931 . S
H818 C793 0.931 . S
H819 C795 0.930 . S
H820 C797 0.930 . S
H821 C798 0.931 . S
H822 C800 0.931 . S
H823 C802 0.930 . S
H824 C804 0.930 . S
H825 C805 0.931 . S
H826 C807 0.931 . S
H827 C809 0.930 . S
H828 C811 0.930 . S
H829 C812 0.931 . S
N830 C792 1.364 . S
N830 C813 1.318 . S
N831 C799 1.318 . S
N831 C806 1.364 . S
C832 C833 1.384 . S
C832 C834 1.384 . S
C832 H860 0.931 . S
C833 C832 1.384 . S
C833 C836 1.382 1_655 S
C834 C832 1.384 . S
C834 C835 1.406 . S
C834 H861 0.930 . S
C835 C834 1.406 . S
C835 C837 1.369 1_655 S
C835 C838 1.477 1_655 S
C836 C833 1.382 1_455 S
C836 C837 1.387 . S
C836 H862 0.930 . S
C837 C835 1.369 1_455 S
C837 C836 1.387 . S
C837 H863 0.931 . S
C838 C835 1.477 1_455 S
C838 C845 1.399 1_455 S
C838 N876 1.319 . S
C839 C840 1.384 . S
C839 C841 1.384 . S
C839 H864 0.931 . S
C840 C839 1.384 . S
C840 C843 1.382 1_455 S
C841 C839 1.384 . S
C841 C842 1.381 . S
C841 H865 0.930 . S
C842 C841 1.381 . S
C842 C844 1.381 1_455 S
C842 C845 1.495 1_455 S
C843 C840 1.382 1_655 S
C843 C844 1.387 . S
C843 H866 0.930 . S
C844 C842 1.381 1_655 S
C844 C843 1.387 . S
C844 H867 0.931 . S
C845 C838 1.399 1_655 S
C845 C842 1.495 1_655 S
C845 N877 1.364 . S
C846 C847 1.384 . S
C846 C848 1.384 . S
C846 H868 0.931 . S
C847 C846 1.384 . S
C847 C850 1.382 1_455 S
C848 C846 1.384 . S
C848 C849 1.389 . S
C848 H869 0.930 . S
C849 C848 1.389 . S
C849 C851 1.377 1_455 S
C849 C852 1.477 1_455 S
C850 C847 1.382 1_655 S
C850 C851 1.387 . S
C850 H870 0.930 . S
C851 C849 1.377 1_655 S
C851 C850 1.387 . S
C851 H871 0.931 . S
C852 C849 1.477 1_655 S
C852 C859 1.399 1_655 S
C852 N877 1.319 . S
C853 C854 1.384 . S
C853 C855 1.384 . S
C853 H872 0.931 . S
C854 C853 1.384 . S
C854 C857 1.382 1_655 S
C855 C853 1.384 . S
C855 C856 1.385 . S
C855 H873 0.930 . S
C856 C855 1.385 . S
C856 C858 1.371 1_655 S
C856 C859 1.495 1_655 S
C857 C854 1.382 1_455 S
C857 C858 1.387 . S
C857 H874 0.930 . S
C858 C856 1.371 1_455 S
C858 C857 1.387 . S
C858 H875 0.931 . S
C859 C852 1.399 1_455 S
C859 C856 1.495 1_455 S
C859 N876 1.364 . S
H860 C832 0.931 . S
H861 C834 0.930 . S
H862 C836 0.930 . S
H863 C837 0.931 . S
H864 C839 0.931 . S
H865 C841 0.930 . S
H866 C843 0.930 . S
H867 C844 0.931 . S
H868 C846 0.931 . S
H869 C848 0.930 . S
H870 C850 0.930 . S
H871 C851 0.931 . S
H872 C853 0.931 . S
H873 C855 0.930 . S
H874 C857 0.930 . S
H875 C858 0.931 . S
N876 C838 1.319 . S
N876 C859 1.364 . S
N877 C845 1.364 . S
N877 C852 1.319 . S
C878 C879 1.384 . S
C878 C880 1.384 . S
C878 H906 0.931 . S
C879 C878 1.384 . S
C879 C882 1.382 . S
C880 C878 1.384 . S
C880 C881 1.381 . S
C880 H907 0.930 . S
C881 C880 1.381 . S
C881 C883 1.381 . S
C881 C884 1.487 . S
C882 C879 1.382 . S
C882 C883 1.387 . S
C882 H908 0.930 . S
C883 C881 1.381 . S
C883 C882 1.387 . S
C883 H909 0.931 . S
C884 C881 1.487 . S
C884 C891 1.399 . S
C884 N922 1.343 . S
C885 C886 1.384 . S
C885 C887 1.384 . S
C885 H910 0.931 . S
C886 C885 1.384 . S
C886 C889 1.382 . S
C887 C885 1.384 . S
C887 C888 1.381 . S
C887 H911 0.930 . S
C888 C887 1.381 . S
C888 C890 1.381 . S
C888 C891 1.487 . S
C889 C886 1.382 . S
C889 C890 1.387 . S
C889 H912 0.930 . S
C890 C888 1.381 . S
C890 C889 1.387 . S
C890 H913 0.931 . S
C891 C884 1.399 . S
C891 C888 1.487 . S
C891 N923 1.343 . S
C892 C893 1.384 . S
C892 C894 1.384 . S
C892 H914 0.931 . S
C893 C892 1.384 . S
C893 C896 1.382 . S
C894 C892 1.384 . S
C894 C895 1.381 . S
C894 H915 0.930 . S
C895 C894 1.381 . S
C895 C897 1.381 . S
C895 C898 1.487 . S
C896 C893 1.382 . S
C896 C897 1.387 . S
C896 H916 0.930 . S
C897 C895 1.381 . S
C897 C896 1.387 . S
C897 H917 0.931 . S
C898 C895 1.487 . S
C898 C905 1.399 . S
C898 N923 1.343 . S
C899 C900 1.384 . S
C899 C901 1.384 . S
C899 H918 0.931 . S
C900 C899 1.384 . S
C900 C903 1.382 . S
C901 C899 1.384 . S
C901 C902 1.381 . S
C901 H919 0.930 . S
C902 C901 1.381 . S
C902 C904 1.381 . S
C902 C905 1.487 . S
C903 C900 1.382 . S
C903 C904 1.387 . S
C903 H920 0.930 . S
C904 C902 1.381 . S
C904 C903 1.387 . S
C904 H921 0.931 . S
C905 C898 1.399 . S
C905 C902 1.487 . S
C905 N922 1.343 . S
H906 C878 0.931 . S
H907 C880 0.930 . S
H908 C882 0.930 . S
H909 C883 0.931 . S
H910 C885 0.931 . S
H911 C887 0.930 . S
H912 C889 0.930 . S
H913 C890 0.931 . S
H914 C892 0.931 . S
H915 C894 0.930 . S
H916 C896 0.930 . S
H917 C897 0.931 . S
H918 C899 0.931 . S
H919 C901 0.930 . S
H920 C903 0.930 . S
H921 C904 0.931 . S
N922 C884 1.343 . S
N922 C905 1.343 . S
N923 C891 1.343 . S
N923 C898 1.343 . S
C924 C925 1.384 . S
C924 C926 1.384 . S
C924 H952 0.931 . S
C925 C924 1.384 . S
C925 C928 1.382 . S
C926 C924 1.384 . S
C926 C927 1.381 . S
C926 H953 0.930 . S
C927 C926 1.381 . S
C927 C929 1.381 . S
C927 C930 1.487 . S
C928 C925 1.382 . S
C928 C929 1.387 . S
C928 H954 0.930 . S
C929 C927 1.381 . S
C929 C928 1.387 . S
C929 H955 0.931 . S
C930 C927 1.487 . S
C930 C937 1.399 . S
C930 N968 1.343 . S
C931 C932 1.384 . S
C931 C933 1.384 . S
C931 H956 0.931 . S
C932 C931 1.384 . S
C932 C935 1.382 . S
C933 C931 1.384 . S
C933 C934 1.381 . S
C933 H957 0.930 . S
C934 C933 1.381 . S
C934 C936 1.381 . S
C934 C937 1.487 . S
C935 C932 1.382 . S
C935 C936 1.387 . S
C935 H958 0.930 . S
C936 C934 1.381 . S
C936 C935 1.387 . S
C936 H959 0.931 . S
C937 C930 1.399 . S
C937 C934 1.487 . S
C937 N969 1.343 . S
C938 C939 1.384 . S
C938 C940 1.384 . S
C938 H960 0.931 . S
C939 C938 1.384 . S
C939 C942 1.382 . S
C940 C938 1.384 . S
C940 C941 1.381 . S
C940 H961 0.930 . S
C941 C940 1.381 . S
C941 C943 1.381 . S
C941 C944 1.487 . S
C942 C939 1.382 . S
C942 C943 1.387 . S
C942 H962 0.930 . S
C943 C941 1.381 . S
C943 C942 1.387 . S
C943 H963 0.931 . S
C944 C941 1.487 . S
C944 C951 1.399 . S
C944 N969 1.343 . S
C945 C946 1.384 . S
C945 C947 1.384 . S
C945 H964 0.931 . S
C946 C945 1.384 . S
C946 C949 1.382 . S
C947 C945 1.384 . S
C947 C948 1.381 . S
C947 H965 0.930 . S
C948 C947 1.381 . S
C948 C950 1.381 . S
C948 C951 1.487 . S
C949 C946 1.382 . S
C949 C950 1.387 . S
C949 H966 0.930 . S
C950 C948 1.381 . S
C950 C949 1.387 . S
C950 H967 0.931 . S
C951 C944 1.399 . S
C951 C948 1.487 . S
C951 N968 1.343 . S
H952 C924 0.931 . S
H953 C926 0.930 . S
H954 C928 0.930 . S
H955 C929 0.931 . S
H956 C931 0.931 . S
H957 C933 0.930 . S
H958 C935 0.930 . S
H959 C936 0.931 . S
H960 C938 0.931 . S
H961 C940 0.930 . S
H962 C942 0.930 . S
H963 C943 0.931 . S
H964 C945 0.931 . S
H965 C947 0.930 . S
H966 C949 0.930 . S
H967 C950 0.931 . S
N968 C930 1.343 . S
N968 C951 1.343 . S
N969 C937 1.343 . S
N969 C944 1.343 . S
C970 C971 1.384 . S
C970 C972 1.384 . S
C970 H998 0.931 . S
C971 C970 1.384 . S
C971 C974 1.382 . S
C972 C970 1.384 . S
C972 C973 1.381 . S
C972 H999 0.930 . S
C973 C972 1.381 . S
C973 C975 1.381 . S
C973 C976 1.487 . S
C974 C971 1.382 . S
C974 C975 1.387 . S
C974 H1000 0.930 . S
C975 C973 1.381 . S
C975 C974 1.387 . S
C975 H1001 0.931 . S
C976 C973 1.487 . S
C976 C983 1.399 . S
C976 N1014 1.343 . S
C977 C978 1.384 . S
C977 C979 1.384 . S
C977 H1002 0.931 . S
C978 C977 1.384 . S
C978 C981 1.382 . S
C979 C977 1.384 . S
C979 C980 1.381 . S
C979 H1003 0.930 . S
C980 C979 1.381 . S
C980 C982 1.381 . S
C980 C983 1.487 . S
C981 C978 1.382 . S
C981 C982 1.387 . S
C981 H1004 0.930 . S
C982 C980 1.381 . S
C982 C981 1.387 . S
C982 H1005 0.931 . S
C983 C976 1.399 . S
C983 C980 1.487 . S
C983 N1015 1.343 . S
C984 C985 1.384 . S
C984 C986 1.384 . S
C984 H1006 0.931 . S
C985 C984 1.384 . S
C985 C988 1.382 . S
C986 C984 1.384 . S
C986 C987 1.381 . S
C986 H1007 0.930 . S
C987 C986 1.381 . S
C987 C989 1.381 . S
C987 C990 1.487 . S
C988 C985 1.382 . S
C988 C989 1.387 . S
C988 H1008 0.930 . S
C989 C987 1.381 . S
C989 C988 1.387 . S
C989 H1009 0.931 . S
C990 C987 1.487 . S
C990 C997 1.399 . S
C990 N1015 1.343 . S
C991 C992 1.384 . S
C991 C993 1.384 . S
C991 H1010 0.931 . S
C992 C991 1.384 . S
C992 C995 1.382 . S
C993 C991 1.384 . S
C993 C994 1.381 . S
C993 H1011 0.930 . S
C994 C993 1.381 . S
C994 C996 1.381 . S
C994 C997 1.487 . S
C995 C992 1.382 . S
C995 C996 1.387 . S
C995 H1012 0.930 . S
C996 C994 1.381 . S
C996 C995 1.387 . S
C996 H1013 0.931 . S
C997 C990 1.399 . S
C997 C994 1.487 . S
C997 N1014 1.343 . S
H998 C970 0.931 . S
H999 C972 0.930 . S
H1000 C974 0.930 . S
H1001 C975 0.931 . S
H1002 C977 0.931 . S
H1003 C979 0.930 . S
H1004 C981 0.930 . S
H1005 C982 0.931 . S
H1006 C984 0.931 . S
H1007 C986 0.930 . S
H1008 C988 0.930 . S
H1009 C989 0.931 . S
H1010 C991 0.931 . S
H1011 C993 0.930 . S
H1012 C995 0.930 . S
H1013 C996 0.931 . S
N1014 C976 1.343 . S
N1014 C997 1.343 . S
N1015 C983 1.343 . S
N1015 C990 1.343 . S
C1016 C1017 1.384 . S
C1016 C1018 1.384 . S
C1016 H1044 0.931 . S
C1017 C1016 1.384 . S
C1017 C1020 1.382 . S
C1018 C1016 1.384 . S
C1018 C1019 1.381 . S
C1018 H1045 0.930 . S
C1019 C1018 1.381 . S
C1019 C1021 1.381 . S
C1019 C1022 1.487 . S
C1020 C1017 1.382 . S
C1020 C1021 1.387 . S
C1020 H1046 0.930 . S
C1021 C1019 1.381 . S
C1021 C1020 1.387 . S
C1021 H1047 0.931 . S
C1022 C1019 1.487 . S
C1022 C1029 1.399 . S
C1022 N1060 1.343 . S
C1023 C1024 1.384 . S
C1023 C1025 1.384 . S
C1023 H1048 0.931 . S
C1024 C1023 1.384 . S
C1024 C1027 1.382 . S
C1025 C1023 1.384 . S
C1025 C1026 1.381 . S
C1025 H1049 0.930 . S
C1026 C1025 1.381 . S
C1026 C1028 1.381 . S
C1026 C1029 1.487 . S
C1027 C1024 1.382 . S
C1027 C1028 1.387 . S
C1027 H1050 0.930 . S
C1028 C1026 1.381 . S
C1028 C1027 1.387 . S
C1028 H1051 0.931 . S
C1029 C1022 1.399 . S
C1029 C1026 1.487 . S
C1029 N1061 1.343 . S
C1030 C1031 1.384 . S
C1030 C1032 1.384 . S
C1030 H1052 0.931 . S
C1031 C1030 1.384 . S
C1031 C1034 1.382 . S
C1032 C1030 1.384 . S
C1032 C1033 1.381 . S
C1032 H1053 0.930 . S
C1033 C1032 1.381 . S
C1033 C1035 1.381 . S
C1033 C1036 1.487 . S
C1034 C1031 1.382 . S
C1034 C1035 1.387 . S
C1034 H1054 0.930 . S
C1035 C1033 1.381 . S
C1035 C1034 1.387 . S
C1035 H1055 0.931 . S
C1036 C1033 1.487 . S
C1036 C1043 1.399 . S
C1036 N1061 1.343 . S
C1037 C1038 1.384 . S
C1037 C1039 1.384 . S
C1037 H1056 0.931 . S
C1038 C1037 1.384 . S
C1038 C1041 1.382 . S
C1039 C1037 1.384 . S
C1039 C1040 1.381 . S
C1039 H1057 0.930 . S
C1040 C1039 1.381 . S
C1040 C1042 1.381 . S
C1040 C1043 1.487 . S
C1041 C1038 1.382 . S
C1041 C1042 1.387 . S
C1041 H1058 0.930 . S
C1042 C1040 1.381 . S
C1042 C1041 1.387 . S
C1042 H1059 0.931 . S
C1043 C1036 1.399 . S
C1043 C1040 1.487 . S
C1043 N1060 1.343 . S
H1044 C1016 0.931 . S
H1045 C1018 0.930 . S
H1046 C1020 0.930 . S
H1047 C1021 0.931 . S
H1048 C1023 0.931 . S
H1049 C1025 0.930 . S
H1050 C1027 0.930 . S
H1051 C1028 0.931 . S
H1052 C1030 0.931 . S
H1053 C1032 0.930 . S
H1054 C1034 0.930 . S
H1055 C1035 0.931 . S
H1056 C1037 0.931 . S
H1057 C1039 0.930 . S
H1058 C1041 0.930 . S
H1059 C1042 0.931 . S
N1060 C1022 1.343 . S
N1060 C1043 1.343 . S
N1061 C1029 1.343 . S
N1061 C1036 1.343 . S
C1062 C1063 1.434 . S
C1062 C1064 1.394 . S
C1062 H1078 0.931 . S
C1063 C1062 1.434 . S
C1063 C1067 1.349 1_655 S
C1064 C1062 1.394 . S
C1064 C1065 1.369 . S
C1064 C1068 1.531 . S
C1065 C1064 1.369 . S
C1065 C1066 1.410 1_655 S
C1065 C1073 1.503 . S
C1066 C1065 1.410 1_455 S
C1066 C1067 1.392 . S
C1066 C1069 1.511 . S
C1067 C1063 1.349 1_455 S
C1067 C1066 1.392 . S
C1067 H1079 0.929 . S
C1068 C1064 1.531 . S
C1068 H1080 0.960 . S
C1068 H1081 0.962 . S
C1068 H1082 0.960 . S
C1069 C1066 1.511 . S
C1069 H1083 0.961 . S
C1069 H1084 0.961 . S
C1069 H1085 0.961 . S
C1070 C1071 1.370 . S
C1070 C1072 1.363 . S
C1070 H1086 0.931 . S
C1071 C1070 1.370 . S
C1071 C1075 1.408 . S
C1072 C1070 1.363 . S
C1072 C1073 1.370 . S
C1072 C1076 1.524 . S
C1073 C1065 1.503 . S
C1073 C1072 1.370 . S
C1073 C1074 1.417 . S
C1074 C1073 1.417 . S
C1074 C1075 1.434 . S
C1074 C1077 1.496 1_655 S
C1075 C1071 1.408 . S
C1075 C1074 1.434 . S
C1075 H1087 0.935 . S
C1076 C1072 1.524 . S
C1076 H1088 0.956 . S
C1076 H1089 0.961 1_655 S
C1076 H1090 0.961 . S
C1077 C1074 1.496 1_455 S
C1077 H1091 0.958 1_455 S
C1077 H1092 0.961 . S
C1077 H1093 0.960 . S
H1078 C1062 0.931 . S
H1079 C1067 0.929 . S
H1080 C1068 0.960 . S
H1081 C1068 0.962 . S
H1082 C1068 0.960 . S
H1083 C1069 0.961 . S
H1084 C1069 0.961 . S
H1085 C1069 0.961 . S
H1086 C1070 0.931 . S
H1087 C1075 0.935 . S
H1088 C1076 0.956 . S
H1089 C1076 0.961 1_455 S
H1090 C1076 0.961 . S
H1091 C1077 0.958 1_655 S
H1092 C1077 0.961 . S
H1093 C1077 0.960 . S
C1094 C1095 1.391 . S
C1094 C1096 1.394 . S
C1094 H1110 0.931 . S
C1095 C1094 1.391 . S
C1095 C1099 1.376 . S
C1096 C1094 1.394 . S
C1096 C1097 1.369 . S
C1096 C1100 1.531 . S
C1097 C1096 1.369 . S
C1097 C1098 1.410 . S
C1097 C1105 1.503 . S
C1098 C1097 1.410 . S
C1098 C1099 1.392 . S
C1098 C1101 1.511 . S
C1099 C1095 1.376 . S
C1099 C1098 1.392 . S
C1099 H1111 0.929 . S
C1100 C1096 1.531 . S
C1100 H1112 0.960 . S
C1100 H1113 0.962 . S
C1100 H1114 0.960 . S
C1101 C1098 1.511 . S
C1101 H1115 0.961 . S
C1101 H1116 0.961 . S
C1101 H1117 0.961 . S
C1102 C1103 1.370 . S
C1102 C1104 1.363 . S
C1102 H1118 0.931 . S
C1103 C1102 1.370 . S
C1103 C1107 1.408 . S
C1104 C1102 1.363 . S
C1104 C1105 1.370 . S
C1104 C1108 1.524 . S
C1105 C1097 1.503 . S
C1105 C1104 1.370 . S
C1105 C1106 1.403 . S
C1106 C1105 1.403 . S
C1106 C1107 1.404 . S
C1106 C1109 1.539 . S
C1107 C1103 1.408 . S
C1107 C1106 1.404 . S
C1107 H1119 0.930 . S
C1108 C1104 1.524 . S
C1108 H1120 0.956 . S
C1108 H1121 0.961 . S
C1108 H1122 0.961 . S
C1109 C1106 1.539 . S
C1109 H1123 0.958 . S
C1109 H1124 0.961 . S
C1109 H1125 0.960 . S
H1110 C1094 0.931 . S
H1111 C1099 0.929 . S
H1112 C1100 0.960 . S
H1113 C1100 0.962 . S
H1114 C1100 0.960 . S
H1115 C1101 0.961 . S
H1116 C1101 0.961 . S
H1117 C1101 0.961 . S
H1118 C1102 0.931 . S
H1119 C1107 0.930 . S
H1120 C1108 0.956 . S
H1121 C1108 0.961 . S
H1122 C1108 0.961 . S
H1123 C1109 0.958 . S
H1124 C1109 0.961 . S
H1125 C1109 0.960 . S
C1126 C1127 1.391 1_565 S
C1126 C1128 1.394 . S
C1126 H1142 0.931 . S
C1127 C1126 1.391 1_545 S
C1127 C1131 1.376 . S
C1128 C1126 1.394 . S
C1128 C1129 1.369 1_565 S
C1128 C1132 1.531 . S
C1129 C1128 1.369 1_545 S
C1129 C1130 1.410 . S
C1129 C1137 1.503 . S
C1130 C1129 1.410 . S
C1130 C1131 1.392 . S
C1130 C1133 1.511 . S
C1131 C1127 1.376 . S
C1131 C1130 1.392 . S
C1131 H1143 0.929 . S
C1132 C1128 1.531 . S
C1132 H1144 0.960 . S
C1132 H1145 0.962 . S
C1132 H1146 0.960 . S
C1133 C1130 1.511 . S
C1133 H1147 0.961 . S
C1133 H1148 0.961 . S
C1133 H1149 0.961 . S
C1134 C1135 1.370 . S
C1134 C1136 1.363 . S
C1134 H1150 0.931 . S
C1135 C1134 1.370 . S
C1135 C1139 1.408 . S
C1136 C1134 1.363 . S
C1136 C1137 1.370 . S
C1136 C1140 1.524 . S
C1137 C1129 1.503 . S
C1137 C1136 1.370 . S
C1137 C1138 1.403 . S
C1138 C1137 1.403 . S
C1138 C1139 1.404 . S
C1138 C1141 1.539 . S
C1139 C1135 1.408 . S
C1139 C1138 1.404 . S
C1139 H1151 0.930 . S
C1140 C1136 1.524 . S
C1140 H1152 0.956 1_545 S
C1140 H1153 0.961 . S
C1140 H1154 0.961 . S
C1141 C1138 1.539 . S
C1141 H1155 0.958 1_545 S
C1141 H1156 0.961 . S
C1141 H1157 0.960 . S
H1142 C1126 0.931 . S
H1143 C1131 0.929 . S
H1144 C1132 0.960 . S
H1145 C1132 0.962 . S
H1146 C1132 0.960 . S
H1147 C1133 0.961 . S
H1148 C1133 0.961 . S
H1149 C1133 0.961 . S
H1150 C1134 0.931 . S
H1151 C1139 0.930 . S
H1152 C1140 0.956 1_565 S
H1153 C1140 0.961 . S
H1154 C1140 0.961 . S
H1155 C1141 0.958 1_565 S
H1156 C1141 0.961 . S
H1157 C1141 0.960 . S
C1158 C1159 1.391 . S
C1158 C1160 1.394 . S
C1158 H1174 0.931 . S
C1159 C1158 1.391 . S
C1159 C1163 1.376 1_565 S
C1160 C1158 1.394 . S
C1160 C1161 1.369 . S
C1160 C1164 1.531 . S
C1161 C1160 1.369 . S
C1161 C1162 1.410 1_565 S
C1161 C1169 1.503 . S
C1162 C1161 1.410 1_545 S
C1162 C1163 1.392 . S
C1162 C1165 1.511 . S
C1163 C1159 1.376 1_545 S
C1163 C1162 1.392 . S
C1163 H1175 0.929 . S
C1164 C1160 1.531 . S
C1164 H1176 0.960 . S
C1164 H1177 0.962 . S
C1164 H1178 0.960 . S
C1165 C1162 1.511 . S
C1165 H1179 0.961 . S
C1165 H1180 0.961 . S
C1165 H1181 0.961 . S
C1166 C1167 1.370 1_545 S
C1166 C1168 1.363 . S
C1166 H1182 0.931 . S
C1167 C1166 1.370 1_565 S
C1167 C1171 1.408 . S
C1168 C1166 1.363 . S
C1168 C1169 1.370 1_545 S
C1168 C1172 1.524 . S
C1169 C1161 1.503 . S
C1169 C1168 1.370 1_565 S
C1169 C1170 1.403 . S
C1170 C1169 1.403 . S
C1170 C1171 1.404 . S
C1170 C1173 1.539 . S
C1171 C1167 1.408 . S
C1171 C1170 1.404 . S
C1171 H1183 0.930 . S
C1172 C1168 1.524 . S
C1172 H1184 0.956 . S
C1172 H1185 0.961 . S
C1172 H1186 0.961 . S
C1173 C1170 1.539 . S
C1173 H1187 0.958 . S
C1173 H1188 0.961 . S
C1173 H1189 0.960 . S
H1174 C1158 0.931 . S
H1175 C1163 0.929 . S
H1176 C1164 0.960 . S
H1177 C1164 0.962 . S
H1178 C1164 0.960 . S
H1179 C1165 0.961 . S
H1180 C1165 0.961 . S
H1181 C1165 0.961 . S
H1182 C1166 0.931 . S
H1183 C1171 0.930 . S
H1184 C1172 0.956 . S
H1185 C1172 0.961 . S
H1186 C1172 0.961 . S
H1187 C1173 0.958 . S
H1188 C1173 0.961 . S
H1189 C1173 0.960 . S
C1190 C1191 1.391 1_655 S
C1190 C1192 1.394 . S
C1190 H1206 0.931 . S
C1191 C1190 1.391 1_455 S
C1191 C1195 1.376 . S
C1192 C1190 1.394 . S
C1192 C1193 1.370 . S
C1192 C1196 1.531 . S
C1193 C1192 1.370 . S
C1193 C1194 1.387 1_655 S
C1193 C1201 1.529 1_655 S
C1194 C1193 1.387 1_455 S
C1194 C1195 1.392 . S
C1194 C1197 1.511 . S
C1195 C1191 1.376 . S
C1195 C1194 1.392 . S
C1195 H1207 0.929 . S
C1196 C1192 1.531 . S
C1196 H1208 0.960 . S
C1196 H1209 0.962 . S
C1196 H1210 0.960 . S
C1197 C1194 1.511 . S
C1197 H1211 0.961 . S
C1197 H1212 0.961 . S
C1197 H1213 0.961 . S
C1198 C1199 1.370 . S
C1198 C1200 1.363 . S
C1198 H1214 0.931 . S
C1199 C1198 1.370 . S
C1199 C1203 1.408 1_455 S
C1200 C1198 1.363 . S
C1200 C1201 1.384 . S
C1200 C1204 1.524 . S
C1201 C1193 1.529 1_455 S
C1201 C1200 1.384 . S
C1201 C1202 1.383 1_455 S
C1202 C1201 1.383 1_655 S
C1202 C1203 1.404 . S
C1202 C1205 1.539 . S
C1203 C1199 1.408 1_655 S
C1203 C1202 1.404 . S
C1203 H1215 0.930 . S
C1204 C1200 1.524 . S
C1204 H1216 0.956 . S
C1204 H1217 0.961 . S
C1204 H1218 0.961 . S
C1205 C1202 1.539 . S
C1205 H1219 0.958 . S
C1205 H1220 0.961 . S
C1205 H1221 0.960 . S
H1206 C1190 0.931 . S
H1207 C1195 0.929 . S
H1208 C1196 0.960 . S
H1209 C1196 0.962 . S
H1210 C1196 0.960 . S
H1211 C1197 0.961 . S
H1212 C1197 0.961 . S
H1213 C1197 0.961 . S
H1214 C1198 0.931 . S
H1215 C1203 0.930 . S
H1216 C1204 0.956 . S
H1217 C1204 0.961 . S
H1218 C1204 0.961 . S
H1219 C1205 0.958 . S
H1220 C1205 0.961 . S
H1221 C1205 0.960 . S
C1222 C1223 1.391 . S
C1222 C1224 1.394 . S
C1222 H1238 0.931 . S
C1223 C1222 1.391 . S
C1223 C1227 1.376 . S
C1224 C1222 1.394 . S
C1224 C1225 1.369 . S
C1224 C1228 1.531 . S
C1225 C1224 1.369 . S
C1225 C1226 1.410 . S
C1225 C1233 1.503 . S
C1226 C1225 1.410 . S
C1226 C1227 1.392 . S
C1226 C1229 1.511 . S
C1227 C1223 1.376 . S
C1227 C1226 1.392 . S
C1227 H1239 0.929 . S
C1228 C1224 1.531 . S
C1228 H1240 0.960 . S
C1228 H1241 0.962 . S
C1228 H1242 0.960 . S
C1229 C1226 1.511 . S
C1229 H1243 0.961 . S
C1229 H1244 0.961 . S
C1229 H1245 0.961 . S
C1230 C1231 1.370 . S
C1230 C1232 1.363 . S
C1230 H1246 0.931 . S
C1231 C1230 1.370 . S
C1231 C1235 1.408 . S
C1232 C1230 1.363 . S
C1232 C1233 1.370 . S
C1232 C1236 1.524 . S
C1233 C1225 1.503 . S
C1233 C1232 1.370 . S
C1233 C1234 1.403 . S
C1234 C1233 1.403 . S
C1234 C1235 1.404 . S
C1234 C1237 1.539 . S
C1235 C1231 1.408 . S
C1235 C1234 1.404 . S
C1235 H1247 0.930 . S
C1236 C1232 1.524 . S
C1236 H1248 0.956 . S
C1236 H1249 0.961 . S
C1236 H1250 0.961 . S
C1237 C1234 1.539 . S
C1237 H1251 0.958 . S
C1237 H1252 0.961 . S
C1237 H1253 0.960 . S
H1238 C1222 0.931 . S
H1239 C1227 0.929 . S
H1240 C1228 0.960 . S
H1241 C1228 0.962 . S
H1242 C1228 0.960 . S
H1243 C1229 0.961 . S
H1244 C1229 0.961 . S
H1245 C1229 0.961 . S
H1246 C1230 0.931 . S
H1247 C1235 0.930 . S
H1248 C1236 0.956 . S
H1249 C1236 0.961 . S
H1250 C1236 0.961 . S
H1251 C1237 0.958 . S
H1252 C1237 0.961 . S
H1253 C1237 0.960 . S
C1254 C1255 1.391 1_655 S
C1254 C1256 1.394 . S
C1254 H1270 0.931 . S
C1255 C1254 1.391 1_455 S
C1255 C1259 1.376 . S
C1256 C1254 1.394 . S
C1256 C1257 1.369 1_655 S
C1256 C1260 1.531 . S
C1257 C1256 1.369 1_455 S
C1257 C1258 1.410 . S
C1257 C1265 1.503 . S
C1258 C1257 1.410 . S
C1258 C1259 1.392 . S
C1258 C1261 1.511 . S
C1259 C1255 1.376 . S
C1259 C1258 1.392 . S
C1259 H1271 0.929 . S
C1260 C1256 1.531 . S
C1260 H1272 0.960 . S
C1260 H1273 0.962 . S
C1260 H1274 0.960 . S
C1261 C1258 1.511 . S
C1261 H1275 0.961 . S
C1261 H1276 0.961 . S
C1261 H1277 0.961 . S
C1262 C1263 1.370 1_655 S
C1262 C1264 1.363 . S
C1262 H1278 0.931 . S
C1263 C1262 1.370 1_455 S
C1263 C1267 1.408 . S
C1264 C1262 1.363 . S
C1264 C1265 1.370 1_655 S
C1264 C1268 1.524 . S
C1265 C1257 1.503 . S
C1265 C1264 1.370 1_455 S
C1265 C1266 1.403 . S
C1266 C1265 1.403 . S
C1266 C1267 1.404 . S
C1266 C1269 1.539 . S
C1267 C1263 1.408 . S
C1267 C1266 1.404 . S
C1267 H1279 0.930 . S
C1268 C1264 1.524 . S
C1268 H1280 0.956 . S
C1268 H1281 0.961 . S
C1268 H1282 0.961 . S
C1269 C1266 1.539 . S
C1269 H1283 0.958 . S
C1269 H1284 0.961 . S
C1269 H1285 0.960 . S
H1270 C1254 0.931 . S
H1271 C1259 0.929 . S
H1272 C1260 0.960 . S
H1273 C1260 0.962 . S
H1274 C1260 0.960 . S
H1275 C1261 0.961 . S
H1276 C1261 0.961 . S
H1277 C1261 0.961 . S
H1278 C1262 0.931 . S
H1279 C1267 0.930 . S
H1280 C1268 0.956 . S
H1281 C1268 0.961 . S
H1282 C1268 0.961 . S
H1283 C1269 0.958 . S
H1284 C1269 0.961 . S
H1285 C1269 0.960 . S
C1286 C1287 1.391 . S
C1286 C1288 1.394 . S
C1286 H1302 0.931 . S
C1287 C1286 1.391 . S
C1287 C1291 1.376 . S
C1288 C1286 1.394 . S
C1288 C1289 1.369 . S
C1288 C1292 1.531 . S
C1289 C1288 1.369 . S
C1289 C1290 1.410 . S
C1289 C1297 1.503 . S
C1290 C1289 1.410 . S
C1290 C1291 1.392 . S
C1290 C1293 1.511 . S
C1291 C1287 1.376 . S
C1291 C1290 1.392 . S
C1291 H1303 0.929 . S
C1292 C1288 1.531 . S
C1292 H1304 0.960 . S
C1292 H1305 0.962 . S
C1292 H1306 0.960 . S
C1293 C1290 1.511 . S
C1293 H1307 0.961 . S
C1293 H1308 0.961 . S
C1293 H1309 0.961 . S
C1294 C1295 1.370 . S
C1294 C1296 1.363 . S
C1294 H1310 0.931 . S
C1295 C1294 1.370 . S
C1295 C1299 1.408 . S
C1296 C1294 1.363 . S
C1296 C1297 1.370 . S
C1296 C1300 1.524 . S
C1297 C1289 1.503 . S
C1297 C1296 1.370 . S
C1297 C1298 1.403 . S
C1298 C1297 1.403 . S
C1298 C1299 1.404 . S
C1298 C1301 1.539 . S
C1299 C1295 1.408 . S
C1299 C1298 1.404 . S
C1299 H1311 0.930 . S
C1300 C1296 1.524 . S
C1300 H1312 0.956 . S
C1300 H1313 0.961 . S
C1300 H1314 0.961 . S
C1301 C1298 1.539 . S
C1301 H1315 0.958 . S
C1301 H1316 0.961 . S
C1301 H1317 0.960 . S
H1302 C1286 0.931 . S
H1303 C1291 0.929 . S
H1304 C1292 0.960 . S
H1305 C1292 0.962 . S
H1306 C1292 0.960 . S
H1307 C1293 0.961 . S
H1308 C1293 0.961 . S
H1309 C1293 0.961 . S
H1310 C1294 0.931 . S
H1311 C1299 0.930 . S
H1312 C1300 0.956 . S
H1313 C1300 0.961 . S
H1314 C1300 0.961 . S
H1315 C1301 0.958 . S
H1316 C1301 0.961 . S
H1317 C1301 0.960 . S
C1318 C1319 1.391 1_545 S
C1318 C1320 1.394 . S
C1318 H1334 0.931 . S
C1319 C1318 1.391 1_565 S
C1319 C1323 1.376 . S
C1320 C1318 1.394 . S
C1320 C1321 1.369 1_545 S
C1320 C1324 1.531 . S
C1321 C1320 1.369 1_565 S
C1321 C1322 1.410 . S
C1321 C1329 1.503 . S
C1322 C1321 1.410 . S
C1322 C1323 1.392 . S
C1322 C1325 1.511 . S
C1323 C1319 1.376 . S
C1323 C1322 1.392 . S
C1323 H1335 0.929 . S
C1324 C1320 1.531 . S
C1324 H1336 0.960 . S
C1324 H1337 0.962 . S
C1324 H1338 0.960 . S
C1325 C1322 1.511 . S
C1325 H1339 0.961 . S
C1325 H1340 0.961 . S
C1325 H1341 0.961 . S
C1326 C1327 1.370 1_545 S
C1326 C1328 1.363 . S
C1326 H1342 0.931 . S
C1327 C1326 1.370 1_565 S
C1327 C1331 1.408 . S
C1328 C1326 1.363 . S
C1328 C1329 1.370 1_545 S
C1328 C1332 1.524 . S
C1329 C1321 1.503 . S
C1329 C1328 1.370 1_565 S
C1329 C1330 1.403 . S
C1330 C1329 1.403 . S
C1330 C1331 1.404 . S
C1330 C1333 1.539 . S
C1331 C1327 1.408 . S
C1331 C1330 1.404 . S
C1331 H1343 0.930 . S
C1332 C1328 1.524 . S
C1332 H1344 0.956 . S
C1332 H1345 0.961 . S
C1332 H1346 0.961 . S
C1333 C1330 1.539 . S
C1333 H1347 0.958 . S
C1333 H1348 0.961 . S
C1333 H1349 0.960 . S
H1334 C1318 0.931 . S
H1335 C1323 0.929 . S
H1336 C1324 0.960 . S
H1337 C1324 0.962 . S
H1338 C1324 0.960 . S
H1339 C1325 0.961 . S
H1340 C1325 0.961 . S
H1341 C1325 0.961 . S
H1342 C1326 0.931 . S
H1343 C1331 0.930 . S
H1344 C1332 0.956 . S
H1345 C1332 0.961 . S
H1346 C1332 0.961 . S
H1347 C1333 0.958 . S
H1348 C1333 0.961 . S
H1349 C1333 0.960 . S
C1350 C1351 1.401 . S
C1350 C1352 1.394 . S
C1350 H1366 0.931 . S
C1351 C1350 1.401 . S
C1351 C1355 1.370 1_545 S
C1352 C1350 1.394 . S
C1352 C1353 1.369 1_545 S
C1352 C1356 1.531 . S
C1353 C1352 1.369 1_565 S
C1353 C1354 1.410 . S
C1353 C1361 1.513 . S
C1354 C1353 1.410 . S
C1354 C1355 1.392 . S
C1354 C1357 1.511 . S
C1355 C1351 1.370 1_565 S
C1355 C1354 1.392 . S
C1355 H1367 0.929 . S
C1356 C1352 1.531 . S
C1356 H1368 0.970 . S
C1356 H1369 0.962 . S
C1356 H1370 0.960 . S
C1357 C1354 1.511 . S
C1357 H1371 0.961 . S
C1357 H1372 0.961 . S
C1357 H1373 0.961 . S
C1358 C1359 1.370 . S
C1358 C1360 1.363 . S
C1358 H1374 0.931 . S
C1359 C1358 1.370 . S
C1359 C1363 1.408 1_545 S
C1360 C1358 1.363 . S
C1360 C1361 1.350 1_545 S
C1360 C1364 1.524 . S
C1361 C1353 1.513 . S
C1361 C1360 1.350 1_565 S
C1361 C1362 1.413 . S
C1362 C1361 1.413 . S
C1362 C1363 1.404 . S
C1362 C1365 1.539 . S
C1363 C1359 1.408 1_565 S
C1363 C1362 1.404 . S
C1363 H1375 0.930 . S
C1364 C1360 1.524 . S
C1364 H1376 0.956 . S
C1364 H1377 0.961 . S
C1364 H1378 0.961 . S
C1365 C1362 1.539 . S
C1365 H1379 0.958 . S
C1365 H1380 0.961 . S
C1365 H1381 0.960 . S
H1366 C1350 0.931 . S
H1367 C1355 0.929 . S
H1368 C1356 0.970 . S
H1369 C1356 0.962 . S
H1370 C1356 0.960 . S
H1371 C1357 0.961 . S
H1372 C1357 0.961 . S
H1373 C1357 0.961 . S
H1374 C1358 0.931 . S
H1375 C1363 0.930 . S
H1376 C1364 0.956 . S
H1377 C1364 0.961 . S
H1378 C1364 0.961 . S
H1379 C1365 0.958 . S
H1380 C1365 0.961 . S
H1381 C1365 0.960 . S
C1382 C1383 1.391 . S
C1382 C1384 1.394 . S
C1382 H1398 0.931 . S
C1383 C1382 1.391 . S
C1383 C1387 1.376 1_655 S
C1384 C1382 1.394 . S
C1384 C1385 1.369 . S
C1384 C1388 1.531 . S
C1385 C1384 1.369 . S
C1385 C1386 1.410 1_655 S
C1385 C1393 1.503 . S
C1386 C1385 1.410 1_455 S
C1386 C1387 1.392 . S
C1386 C1389 1.511 . S
C1387 C1383 1.376 1_455 S
C1387 C1386 1.392 . S
C1387 H1399 0.929 . S
C1388 C1384 1.531 . S
C1388 H1400 0.960 . S
C1388 H1401 0.962 . S
C1388 H1402 0.960 . S
C1389 C1386 1.511 . S
C1389 H1403 0.961 . S
C1389 H1404 0.961 . S
C1389 H1405 0.961 . S
C1390 C1391 1.370 1_455 S
C1390 C1392 1.363 . S
C1390 H1406 0.931 . S
C1391 C1390 1.370 1_655 S
C1391 C1395 1.408 . S
C1392 C1390 1.363 . S
C1392 C1393 1.370 1_455 S
C1392 C1396 1.524 . S
C1393 C1385 1.503 . S
C1393 C1392 1.370 1_655 S
C1393 C1394 1.403 . S
C1394 C1393 1.403 . S
C1394 C1395 1.404 . S
C1394 C1397 1.539 . S
C1395 C1391 1.408 . S
C1395 C1394 1.404 . S
C1395 H1407 0.930 . S
C1396 C1392 1.524 . S
C1396 H1408 0.956 . S
C1396 H1409 0.961 . S
C1396 H1410 0.961 . S
C1397 C1394 1.539 . S
C1397 H1411 0.958 . S
C1397 H1412 0.961 . S
C1397 H1413 0.960 . S
H1398 C1382 0.931 . S
H1399 C1387 0.929 . S
H1400 C1388 0.960 . S
H1401 C1388 0.962 . S
H1402 C1388 0.960 . S
H1403 C1389 0.961 . S
H1404 C1389 0.961 . S
H1405 C1389 0.961 . S
H1406 C1390 0.931 . S
H1407 C1395 0.930 . S
H1408 C1396 0.956 . S
H1409 C1396 0.961 . S
H1410 C1396 0.961 . S
H1411 C1397 0.958 . S
H1412 C1397 0.961 . S
H1413 C1397 0.960 . S
C1414 C1415 1.391 . S
C1414 C1416 1.394 . S
C1414 H1430 0.931 . S
C1415 C1414 1.391 . S
C1415 C1419 1.376 . S
C1416 C1414 1.394 . S
C1416 C1417 1.369 . S
C1416 C1420 1.531 . S
C1417 C1416 1.369 . S
C1417 C1418 1.410 . S
C1417 C1425 1.503 . S
C1418 C1417 1.410 . S
C1418 C1419 1.392 . S
C1418 C1421 1.511 . S
C1419 C1415 1.376 . S
C1419 C1418 1.392 . S
C1419 H1431 0.929 . S
C1420 C1416 1.531 . S
C1420 H1432 0.960 . S
C1420 H1433 0.962 . S
C1420 H1434 0.960 . S
C1421 C1418 1.511 . S
C1421 H1435 0.961 . S
C1421 H1436 0.961 . S
C1421 H1437 0.961 . S
C1422 C1423 1.370 . S
C1422 C1424 1.363 . S
C1422 H1438 0.931 . S
C1423 C1422 1.370 . S
C1423 C1427 1.408 . S
C1424 C1422 1.363 . S
C1424 C1425 1.370 . S
C1424 C1428 1.524 . S
C1425 C1417 1.503 . S
C1425 C1424 1.370 . S
C1425 C1426 1.403 . S
C1426 C1425 1.403 . S
C1426 C1427 1.404 . S
C1426 C1429 1.539 . S
C1427 C1423 1.408 . S
C1427 C1426 1.404 . S
C1427 H1439 0.930 . S
C1428 C1424 1.524 . S
C1428 H1440 0.956 . S
C1428 H1441 0.961 . S
C1428 H1442 0.961 . S
C1429 C1426 1.539 . S
C1429 H1443 0.958 . S
C1429 H1444 0.961 . S
C1429 H1445 0.960 . S
H1430 C1414 0.931 . S
H1431 C1419 0.929 . S
H1432 C1420 0.960 . S
H1433 C1420 0.962 . S
H1434 C1420 0.960 . S
H1435 C1421 0.961 . S
H1436 C1421 0.961 . S
H1437 C1421 0.961 . S
H1438 C1422 0.931 . S
H1439 C1427 0.930 . S
H1440 C1428 0.956 . S
H1441 C1428 0.961 . S
H1442 C1428 0.961 . S
H1443 C1429 0.958 . S
H1444 C1429 0.961 . S
H1445 C1429 0.960 . S
C1446 C1447 1.391 . S
C1446 C1448 1.394 . S
C1446 H1462 0.931 . S
C1447 C1446 1.391 . S
C1447 C1451 1.376 . S
C1448 C1446 1.394 . S
C1448 C1449 1.369 . S
C1448 C1452 1.531 . S
C1449 C1448 1.369 . S
C1449 C1450 1.410 . S
C1449 C1457 1.503 . S
C1450 C1449 1.410 . S
C1450 C1451 1.392 . S
C1450 C1453 1.511 . S
C1451 C1447 1.376 . S
C1451 C1450 1.392 . S
C1451 H1463 0.929 . S
C1452 C1448 1.531 . S
C1452 H1464 0.960 . S
C1452 H1465 0.962 . S
C1452 H1466 0.960 . S
C1453 C1450 1.511 . S
C1453 H1467 0.961 . S
C1453 H1468 0.961 . S
C1453 H1469 0.961 . S
C1454 C1455 1.370 . S
C1454 C1456 1.363 . S
C1454 H1470 0.931 . S
C1455 C1454 1.370 . S
C1455 C1459 1.408 . S
C1456 C1454 1.363 . S
C1456 C1457 1.370 . S
C1456 C1460 1.524 . S
C1457 C1449 1.503 . S
C1457 C1456 1.370 . S
C1457 C1458 1.403 . S
C1458 C1457 1.403 . S
C1458 C1459 1.404 . S
C1458 C1461 1.539 . S
C1459 C1455 1.408 . S
C1459 C1458 1.404 . S
C1459 H1471 0.930 . S
C1460 C1456 1.524 . S
C1460 H1472 0.956 . S
C1460 H1473 0.961 . S
C1460 H1474 0.961 . S
C1461 C1458 1.539 . S
C1461 H1475 0.958 . S
C1461 H1476 0.961 . S
C1461 H1477 0.960 . S
H1462 C1446 0.931 . S
H1463 C1451 0.929 . S
H1464 C1452 0.960 . S
H1465 C1452 0.962 . S
H1466 C1452 0.960 . S
H1467 C1453 0.961 . S
H1468 C1453 0.961 . S
H1469 C1453 0.961 . S
H1470 C1454 0.931 . S
H1471 C1459 0.930 . S
H1472 C1460 0.956 . S
H1473 C1460 0.961 . S
H1474 C1460 0.961 . S
H1475 C1461 0.958 . S
H1476 C1461 0.961 . S
H1477 C1461 0.960 . S
C1478 C1479 1.391 . S
C1478 C1480 1.394 . S
C1478 H1494 0.931 . S
C1479 C1478 1.391 . S
C1479 C1483 1.376 . S
C1480 C1478 1.394 . S
C1480 C1481 1.369 . S
C1480 C1484 1.531 . S
C1481 C1480 1.369 . S
C1481 C1482 1.410 . S
C1481 C1489 1.503 . S
C1482 C1481 1.410 . S
C1482 C1483 1.392 . S
C1482 C1485 1.511 . S
C1483 C1479 1.376 . S
C1483 C1482 1.392 . S
C1483 H1495 0.929 . S
C1484 C1480 1.531 . S
C1484 H1496 0.960 . S
C1484 H1497 0.962 . S
C1484 H1498 0.960 . S
C1485 C1482 1.511 . S
C1485 H1499 0.961 . S
C1485 H1500 0.961 . S
C1485 H1501 0.961 . S
C1486 C1487 1.370 . S
C1486 C1488 1.363 . S
C1486 H1502 0.931 . S
C1487 C1486 1.370 . S
C1487 C1491 1.408 . S
C1488 C1486 1.363 . S
C1488 C1489 1.370 . S
C1488 C1492 1.524 . S
C1489 C1481 1.503 . S
C1489 C1488 1.370 . S
C1489 C1490 1.403 . S
C1490 C1489 1.403 . S
C1490 C1491 1.404 . S
C1490 C1493 1.539 . S
C1491 C1487 1.408 . S
C1491 C1490 1.404 . S
C1491 H1503 0.930 . S
C1492 C1488 1.524 . S
C1492 H1504 0.956 . S
C1492 H1505 0.961 . S
C1492 H1506 0.961 . S
C1493 C1490 1.539 . S
C1493 H1507 0.958 . S
C1493 H1508 0.961 . S
C1493 H1509 0.960 . S
H1494 C1478 0.931 . S
H1495 C1483 0.929 . S
H1496 C1484 0.960 . S
H1497 C1484 0.962 . S
H1498 C1484 0.960 . S
H1499 C1485 0.961 . S
H1500 C1485 0.961 . S
H1501 C1485 0.961 . S
H1502 C1486 0.931 . S
H1503 C1491 0.930 . S
H1504 C1492 0.956 . S
H1505 C1492 0.961 . S
H1506 C1492 0.961 . S
H1507 C1493 0.958 . S
H1508 C1493 0.961 . S
H1509 C1493 0.960 . S
C1510 C1511 1.391 . S
C1510 C1512 1.394 . S
C1510 H1526 0.931 . S
C1511 C1510 1.391 . S
C1511 C1515 1.376 . S
C1512 C1510 1.394 . S
C1512 C1513 1.369 . S
C1512 C1516 1.531 . S
C1513 C1512 1.369 . S
C1513 C1514 1.410 . S
C1513 C1521 1.503 . S
C1514 C1513 1.410 . S
C1514 C1515 1.392 . S
C1514 C1517 1.511 . S
C1515 C1511 1.376 . S
C1515 C1514 1.392 . S
C1515 H1527 0.929 . S
C1516 C1512 1.531 . S
C1516 H1528 0.960 . S
C1516 H1529 0.962 . S
C1516 H1530 0.960 . S
C1517 C1514 1.511 . S
C1517 H1531 0.961 . S
C1517 H1532 0.961 . S
C1517 H1533 0.961 . S
C1518 C1519 1.370 . S
C1518 C1520 1.363 . S
C1518 H1534 0.931 . S
C1519 C1518 1.370 . S
C1519 C1523 1.408 . S
C1520 C1518 1.363 . S
C1520 C1521 1.370 . S
C1520 C1524 1.524 . S
C1521 C1513 1.503 . S
C1521 C1520 1.370 . S
C1521 C1522 1.403 . S
C1522 C1521 1.403 . S
C1522 C1523 1.404 . S
C1522 C1525 1.539 . S
C1523 C1519 1.408 . S
C1523 C1522 1.404 . S
C1523 H1535 0.930 . S
C1524 C1520 1.524 . S
C1524 H1536 0.956 . S
C1524 H1537 0.961 . S
C1524 H1538 0.961 . S
C1525 C1522 1.539 . S
C1525 H1539 0.958 . S
C1525 H1540 0.961 . S
C1525 H1541 0.960 . S
H1526 C1510 0.931 . S
H1527 C1515 0.929 . S
H1528 C1516 0.960 . S
H1529 C1516 0.962 . S
H1530 C1516 0.960 . S
H1531 C1517 0.961 . S
H1532 C1517 0.961 . S
H1533 C1517 0.961 . S
H1534 C1518 0.931 . S
H1535 C1523 0.930 . S
H1536 C1524 0.956 . S
H1537 C1524 0.961 . S
H1538 C1524 0.961 . S
H1539 C1525 0.958 . S
H1540 C1525 0.961 . S
H1541 C1525 0.960 . S
C1542 C1543 1.391 . S
C1542 C1544 1.394 . S
C1542 H1558 0.931 . S
C1543 C1542 1.391 . S
C1543 C1547 1.376 . S
C1544 C1542 1.394 . S
C1544 C1545 1.369 . S
C1544 C1548 1.531 . S
C1545 C1544 1.369 . S
C1545 C1546 1.410 . S
C1545 C1553 1.503 . S
C1546 C1545 1.410 . S
C1546 C1547 1.392 . S
C1546 C1549 1.511 . S
C1547 C1543 1.376 . S
C1547 C1546 1.392 . S
C1547 H1559 0.929 . S
C1548 C1544 1.531 . S
C1548 H1560 0.960 . S
C1548 H1561 0.962 . S
C1548 H1562 0.960 . S
C1549 C1546 1.511 . S
C1549 H1563 0.961 . S
C1549 H1564 0.961 . S
C1549 H1565 0.961 . S
C1550 C1551 1.370 . S
C1550 C1552 1.363 . S
C1550 H1566 0.931 . S
C1551 C1550 1.370 . S
C1551 C1555 1.408 . S
C1552 C1550 1.363 . S
C1552 C1553 1.370 . S
C1552 C1556 1.524 . S
C1553 C1545 1.503 . S
C1553 C1552 1.370 . S
C1553 C1554 1.403 . S
C1554 C1553 1.403 . S
C1554 C1555 1.404 . S
C1554 C1557 1.539 . S
C1555 C1551 1.408 . S
C1555 C1554 1.404 . S
C1555 H1567 0.930 . S
C1556 C1552 1.524 . S
C1556 H1568 0.956 . S
C1556 H1569 0.961 . S
C1556 H1570 0.961 . S
C1557 C1554 1.539 . S
C1557 H1571 0.958 . S
C1557 H1572 0.961 . S
C1557 H1573 0.960 . S
H1558 C1542 0.931 . S
H1559 C1547 0.929 . S
H1560 C1548 0.960 . S
H1561 C1548 0.962 . S
H1562 C1548 0.960 . S
H1563 C1549 0.961 . S
H1564 C1549 0.961 . S
H1565 C1549 0.961 . S
H1566 C1550 0.931 . S
H1567 C1555 0.930 . S
H1568 C1556 0.956 . S
H1569 C1556 0.961 . S
H1570 C1556 0.961 . S
H1571 C1557 0.958 . S
H1572 C1557 0.961 . S
H1573 C1557 0.960 . S
C1574 C1575 1.391 . S
C1574 C1576 1.394 . S
C1574 H1590 0.931 . S
C1575 C1574 1.391 . S
C1575 C1579 1.376 . S
C1576 C1574 1.394 . S
C1576 C1577 1.369 . S
C1576 C1580 1.531 . S
C1577 C1576 1.369 . S
C1577 C1578 1.410 . S
C1577 C1585 1.503 . S
C1578 C1577 1.410 . S
C1578 C1579 1.392 . S
C1578 C1581 1.511 . S
C1579 C1575 1.376 . S
C1579 C1578 1.392 . S
C1579 H1591 0.929 . S
C1580 C1576 1.531 . S
C1580 H1592 0.960 . S
C1580 H1593 0.962 . S
C1580 H1594 0.960 . S
C1581 C1578 1.511 . S
C1581 H1595 0.961 . S
C1581 H1596 0.961 . S
C1581 H1597 0.961 . S
C1582 C1583 1.370 . S
C1582 C1584 1.363 . S
C1582 H1598 0.931 . S
C1583 C1582 1.370 . S
C1583 C1587 1.408 . S
C1584 C1582 1.363 . S
C1584 C1585 1.370 . S
C1584 C1588 1.524 . S
C1585 C1577 1.503 . S
C1585 C1584 1.370 . S
C1585 C1586 1.403 . S
C1586 C1585 1.403 . S
C1586 C1587 1.404 . S
C1586 C1589 1.539 . S
C1587 C1583 1.408 . S
C1587 C1586 1.404 . S
C1587 H1599 0.930 . S
C1588 C1584 1.524 . S
C1588 H1600 0.956 . S
C1588 H1601 0.961 . S
C1588 H1602 0.961 . S
C1589 C1586 1.539 . S
C1589 H1603 0.958 . S
C1589 H1604 0.961 . S
C1589 H1605 0.960 . S
H1590 C1574 0.931 . S
H1591 C1579 0.929 . S
H1592 C1580 0.960 . S
H1593 C1580 0.962 . S
H1594 C1580 0.960 . S
H1595 C1581 0.961 . S
H1596 C1581 0.961 . S
H1597 C1581 0.961 . S
H1598 C1582 0.931 . S
H1599 C1587 0.930 . S
H1600 C1588 0.956 . S
H1601 C1588 0.961 . S
H1602 C1588 0.961 . S
H1603 C1589 0.958 . S
H1604 C1589 0.961 . S
H1605 C1589 0.960 . S
C1606 C1607 1.391 . S
C1606 C1608 1.394 . S
C1606 H1622 0.931 . S
C1607 C1606 1.391 . S
C1607 C1611 1.376 . S
C1608 C1606 1.394 . S
C1608 C1609 1.369 . S
C1608 C1612 1.531 . S
C1609 C1608 1.369 . S
C1609 C1610 1.410 . S
C1609 C1617 1.503 . S
C1610 C1609 1.410 . S
C1610 C1611 1.392 . S
C1610 C1613 1.511 . S
C1611 C1607 1.376 . S
C1611 C1610 1.392 . S
C1611 H1623 0.929 . S
C1612 C1608 1.531 . S
C1612 H1624 0.960 . S
C1612 H1625 0.962 . S
C1612 H1626 0.960 . S
C1613 C1610 1.511 . S
C1613 H1627 0.961 . S
C1613 H1628 0.961 . S
C1613 H1629 0.961 . S
C1614 C1615 1.370 . S
C1614 C1616 1.363 . S
C1614 H1630 0.931 . S
C1615 C1614 1.370 . S
C1615 C1619 1.408 . S
C1616 C1614 1.363 . S
C1616 C1617 1.370 . S
C1616 C1620 1.524 . S
C1617 C1609 1.503 . S
C1617 C1616 1.370 . S
C1617 C1618 1.403 . S
C1618 C1617 1.403 . S
C1618 C1619 1.404 . S
C1618 C1621 1.539 . S
C1619 C1615 1.408 . S
C1619 C1618 1.404 . S
C1619 H1631 0.930 . S
C1620 C1616 1.524 . S
C1620 H1632 0.956 . S
C1620 H1633 0.961 . S
C1620 H1634 0.961 . S
C1621 C1618 1.539 . S
C1621 H1635 0.958 . S
C1621 H1636 0.961 . S
C1621 H1637 0.960 . S
H1622 C1606 0.931 . S
H1623 C1611 0.929 . S
H1624 C1612 0.960 . S
H1625 C1612 0.962 . S
H1626 C1612 0.960 . S
H1627 C1613 0.961 . S
H1628 C1613 0.961 . S
H1629 C1613 0.961 . S
H1630 C1614 0.931 . S
H1631 C1619 0.930 . S
H1632 C1620 0.956 . S
H1633 C1620 0.961 . S
H1634 C1620 0.961 . S
H1635 C1621 0.958 . S
H1636 C1621 0.961 . S
H1637 C1621 0.960 . S
C1638 C1639 1.391 . S
C1638 C1640 1.394 . S
C1638 H1654 0.931 . S
C1639 C1638 1.391 . S
C1639 C1643 1.376 . S
C1640 C1638 1.394 . S
C1640 C1641 1.369 . S
C1640 C1644 1.531 . S
C1641 C1640 1.369 . S
C1641 C1642 1.410 . S
C1641 C1649 1.503 . S
C1642 C1641 1.410 . S
C1642 C1643 1.392 . S
C1642 C1645 1.511 . S
C1643 C1639 1.376 . S
C1643 C1642 1.392 . S
C1643 H1655 0.929 . S
C1644 C1640 1.531 . S
C1644 H1656 0.960 . S
C1644 H1657 0.962 . S
C1644 H1658 0.960 . S
C1645 C1642 1.511 . S
C1645 H1659 0.961 . S
C1645 H1660 0.961 . S
C1645 H1661 0.961 . S
C1646 C1647 1.370 . S
C1646 C1648 1.363 . S
C1646 H1662 0.931 . S
C1647 C1646 1.370 . S
C1647 C1651 1.408 . S
C1648 C1646 1.363 . S
C1648 C1649 1.370 . S
C1648 C1652 1.524 . S
C1649 C1641 1.503 . S
C1649 C1648 1.370 . S
C1649 C1650 1.403 . S
C1650 C1649 1.403 . S
C1650 C1651 1.404 . S
C1650 C1653 1.539 . S
C1651 C1647 1.408 . S
C1651 C1650 1.404 . S
C1651 H1663 0.930 . S
C1652 C1648 1.524 . S
C1652 H1664 0.956 . S
C1652 H1665 0.961 . S
C1652 H1666 0.961 . S
C1653 C1650 1.539 . S
C1653 H1667 0.958 . S
C1653 H1668 0.961 . S
C1653 H1669 0.960 . S
H1654 C1638 0.931 . S
H1655 C1643 0.929 . S
H1656 C1644 0.960 . S
H1657 C1644 0.962 . S
H1658 C1644 0.960 . S
H1659 C1645 0.961 . S
H1660 C1645 0.961 . S
H1661 C1645 0.961 . S
H1662 C1646 0.931 . S
H1663 C1651 0.930 . S
H1664 C1652 0.956 . S
H1665 C1652 0.961 . S
H1666 C1652 0.961 . S
H1667 C1653 0.958 . S
H1668 C1653 0.961 . S
H1669 C1653 0.960 . S
C1670 C1671 1.391 . S
C1670 C1672 1.394 . S
C1670 H1686 0.931 . S
C1671 C1670 1.391 . S
C1671 C1675 1.376 . S
C1672 C1670 1.394 . S
C1672 C1673 1.369 . S
C1672 C1676 1.531 . S
C1673 C1672 1.369 . S
C1673 C1674 1.410 . S
C1673 C1681 1.503 . S
C1674 C1673 1.410 . S
C1674 C1675 1.392 . S
C1674 C1677 1.511 . S
C1675 C1671 1.376 . S
C1675 C1674 1.392 . S
C1675 H1687 0.929 . S
C1676 C1672 1.531 . S
C1676 H1688 0.960 . S
C1676 H1689 0.962 . S
C1676 H1690 0.960 . S
C1677 C1674 1.511 . S
C1677 H1691 0.961 . S
C1677 H1692 0.961 . S
C1677 H1693 0.961 . S
C1678 C1679 1.370 . S
C1678 C1680 1.363 . S
C1678 H1694 0.931 . S
C1679 C1678 1.370 . S
C1679 C1683 1.408 . S
C1680 C1678 1.363 . S
C1680 C1681 1.370 . S
C1680 C1684 1.524 . S
C1681 C1673 1.503 . S
C1681 C1680 1.370 . S
C1681 C1682 1.403 . S
C1682 C1681 1.403 . S
C1682 C1683 1.404 . S
C1682 C1685 1.539 . S
C1683 C1679 1.408 . S
C1683 C1682 1.404 . S
C1683 H1695 0.930 . S
C1684 C1680 1.524 . S
C1684 H1696 0.956 . S
C1684 H1697 0.961 . S
C1684 H1698 0.961 . S
C1685 C1682 1.539 . S
C1685 H1699 0.958 . S
C1685 H1700 0.961 . S
C1685 H1701 0.960 . S
H1686 C1670 0.931 . S
H1687 C1675 0.929 . S
H1688 C1676 0.960 . S
H1689 C1676 0.962 . S
H1690 C1676 0.960 . S
H1691 C1677 0.961 . S
H1692 C1677 0.961 . S
H1693 C1677 0.961 . S
H1694 C1678 0.931 . S
H1695 C1683 0.930 . S
H1696 C1684 0.956 . S
H1697 C1684 0.961 . S
H1698 C1684 0.961 . S
H1699 C1685 0.958 . S
H1700 C1685 0.961 . S
H1701 C1685 0.960 . S
C1702 C1703 1.391 . S
C1702 C1704 1.394 . S
C1702 H1718 0.931 . S
C1703 C1702 1.391 . S
C1703 C1707 1.376 . S
C1704 C1702 1.394 . S
C1704 C1705 1.369 . S
C1704 C1708 1.531 . S
C1705 C1704 1.369 . S
C1705 C1706 1.410 . S
C1705 C1713 1.503 . S
C1706 C1705 1.410 . S
C1706 C1707 1.392 . S
C1706 C1709 1.511 . S
C1707 C1703 1.376 . S
C1707 C1706 1.392 . S
C1707 H1719 0.929 . S
C1708 C1704 1.531 . S
C1708 H1720 0.960 . S
C1708 H1721 0.962 . S
C1708 H1722 0.960 . S
C1709 C1706 1.511 . S
C1709 H1723 0.961 . S
C1709 H1724 0.961 . S
C1709 H1725 0.961 . S
C1710 C1711 1.370 . S
C1710 C1712 1.363 . S
C1710 H1726 0.931 . S
C1711 C1710 1.370 . S
C1711 C1715 1.408 . S
C1712 C1710 1.363 . S
C1712 C1713 1.370 . S
C1712 C1716 1.524 . S
C1713 C1705 1.503 . S
C1713 C1712 1.370 . S
C1713 C1714 1.403 . S
C1714 C1713 1.403 . S
C1714 C1715 1.404 . S
C1714 C1717 1.539 . S
C1715 C1711 1.408 . S
C1715 C1714 1.404 . S
C1715 H1727 0.930 . S
C1716 C1712 1.524 . S
C1716 H1728 0.956 . S
C1716 H1729 0.961 . S
C1716 H1730 0.961 . S
C1717 C1714 1.539 . S
C1717 H1731 0.958 . S
C1717 H1732 0.961 . S
C1717 H1733 0.960 . S
H1718 C1702 0.931 . S
H1719 C1707 0.929 . S
H1720 C1708 0.960 . S
H1721 C1708 0.962 . S
H1722 C1708 0.960 . S
H1723 C1709 0.961 . S
H1724 C1709 0.961 . S
H1725 C1709 0.961 . S
H1726 C1710 0.931 . S
H1727 C1715 0.930 . S
H1728 C1716 0.956 . S
H1729 C1716 0.961 . S
H1730 C1716 0.961 . S
H1731 C1717 0.958 . S
H1732 C1717 0.961 . S
H1733 C1717 0.960 . S
C1734 C1735 1.391 . S
C1734 C1736 1.394 . S
C1734 H1750 0.931 . S
C1735 C1734 1.391 . S
C1735 C1739 1.376 . S
C1736 C1734 1.394 . S
C1736 C1737 1.369 . S
C1736 C1740 1.531 . S
C1737 C1736 1.369 . S
C1737 C1738 1.410 . S
C1737 C1745 1.503 . S
C1738 C1737 1.410 . S
C1738 C1739 1.392 . S
C1738 C1741 1.511 . S
C1739 C1735 1.376 . S
C1739 C1738 1.392 . S
C1739 H1751 0.929 . S
C1740 C1736 1.531 . S
C1740 H1752 0.960 . S
C1740 H1753 0.962 . S
C1740 H1754 0.960 . S
C1741 C1738 1.511 . S
C1741 H1755 0.961 . S
C1741 H1756 0.961 . S
C1741 H1757 0.961 . S
C1742 C1743 1.370 . S
C1742 C1744 1.363 . S
C1742 H1758 0.931 . S
C1743 C1742 1.370 . S
C1743 C1747 1.408 . S
C1744 C1742 1.363 . S
C1744 C1745 1.370 . S
C1744 C1748 1.524 . S
C1745 C1737 1.503 . S
C1745 C1744 1.370 . S
C1745 C1746 1.403 . S
C1746 C1745 1.403 . S
C1746 C1747 1.404 . S
C1746 C1749 1.539 . S
C1747 C1743 1.408 . S
C1747 C1746 1.404 . S
C1747 H1759 0.930 . S
C1748 C1744 1.524 . S
C1748 H1760 0.956 . S
C1748 H1761 0.961 . S
C1748 H1762 0.961 . S
C1749 C1746 1.539 . S
C1749 H1763 0.958 . S
C1749 H1764 0.961 . S
C1749 H1765 0.960 . S
H1750 C1734 0.931 . S
H1751 C1739 0.929 . S
H1752 C1740 0.960 . S
H1753 C1740 0.962 . S
H1754 C1740 0.960 . S
H1755 C1741 0.961 . S
H1756 C1741 0.961 . S
H1757 C1741 0.961 . S
H1758 C1742 0.931 . S
H1759 C1747 0.930 . S
H1760 C1748 0.956 . S
H1761 C1748 0.961 . S
H1762 C1748 0.961 . S
H1763 C1749 0.958 . S
H1764 C1749 0.961 . S
H1765 C1749 0.960 . S
C1766 C1767 1.391 . S
C1766 C1768 1.394 . S
C1766 H1782 0.931 . S
C1767 C1766 1.391 . S
C1767 C1771 1.376 . S
C1768 C1766 1.394 . S
C1768 C1769 1.369 . S
C1768 C1772 1.531 . S
C1769 C1768 1.369 . S
C1769 C1770 1.410 . S
C1769 C1777 1.503 . S
C1770 C1769 1.410 . S
C1770 C1771 1.392 . S
C1770 C1773 1.511 . S
C1771 C1767 1.376 . S
C1771 C1770 1.392 . S
C1771 H1783 0.929 . S
C1772 C1768 1.531 . S
C1772 H1784 0.960 . S
C1772 H1785 0.962 . S
C1772 H1786 0.960 . S
C1773 C1770 1.511 . S
C1773 H1787 0.961 . S
C1773 H1788 0.961 . S
C1773 H1789 0.961 . S
C1774 C1775 1.370 . S
C1774 C1776 1.363 . S
C1774 H1790 0.931 . S
C1775 C1774 1.370 . S
C1775 C1779 1.408 . S
C1776 C1774 1.363 . S
C1776 C1777 1.370 . S
C1776 C1780 1.524 . S
C1777 C1769 1.503 . S
C1777 C1776 1.370 . S
C1777 C1778 1.403 . S
C1778 C1777 1.403 . S
C1778 C1779 1.404 . S
C1778 C1781 1.539 . S
C1779 C1775 1.408 . S
C1779 C1778 1.404 . S
C1779 H1791 0.930 . S
C1780 C1776 1.524 . S
C1780 H1792 0.956 . S
C1780 H1793 0.961 . S
C1780 H1794 0.961 . S
C1781 C1778 1.539 . S
C1781 H1795 0.958 . S
C1781 H1796 0.961 . S
C1781 H1797 0.960 . S
H1782 C1766 0.931 . S
H1783 C1771 0.929 . S
H1784 C1772 0.960 . S
H1785 C1772 0.962 . S
H1786 C1772 0.960 . S
H1787 C1773 0.961 . S
H1788 C1773 0.961 . S
H1789 C1773 0.961 . S
H1790 C1774 0.931 . S
H1791 C1779 0.930 . S
H1792 C1780 0.956 . S
H1793 C1780 0.961 . S
H1794 C1780 0.961 . S
H1795 C1781 0.958 . S
H1796 C1781 0.961 . S
H1797 C1781 0.960 . S
C1798 C1799 1.391 . S
C1798 C1800 1.394 . S
C1798 H1814 0.931 . S
C1799 C1798 1.391 . S
C1799 C1803 1.376 . S
C1800 C1798 1.394 . S
C1800 C1801 1.369 . S
C1800 C1804 1.531 . S
C1801 C1800 1.369 . S
C1801 C1802 1.410 . S
C1801 C1809 1.503 . S
C1802 C1801 1.410 . S
C1802 C1803 1.392 . S
C1802 C1805 1.511 . S
C1803 C1799 1.376 . S
C1803 C1802 1.392 . S
C1803 H1815 0.929 . S
C1804 C1800 1.531 . S
C1804 H1816 0.960 . S
C1804 H1817 0.962 . S
C1804 H1818 0.960 . S
C1805 C1802 1.511 . S
C1805 H1819 0.961 . S
C1805 H1820 0.961 . S
C1805 H1821 0.961 . S
C1806 C1807 1.370 . S
C1806 C1808 1.363 . S
C1806 H1822 0.931 . S
C1807 C1806 1.370 . S
C1807 C1811 1.408 . S
C1808 C1806 1.363 . S
C1808 C1809 1.370 . S
C1808 C1812 1.524 . S
C1809 C1801 1.503 . S
C1809 C1808 1.370 . S
C1809 C1810 1.403 . S
C1810 C1809 1.403 . S
C1810 C1811 1.404 . S
C1810 C1813 1.539 . S
C1811 C1807 1.408 . S
C1811 C1810 1.404 . S
C1811 H1823 0.930 . S
C1812 C1808 1.524 . S
C1812 H1824 0.956 . S
C1812 H1825 0.961 . S
C1812 H1826 0.961 . S
C1813 C1810 1.539 . S
C1813 H1827 0.958 . S
C1813 H1828 0.961 . S
C1813 H1829 0.960 . S
H1814 C1798 0.931 . S
H1815 C1803 0.929 . S
H1816 C1804 0.960 . S
H1817 C1804 0.962 . S
H1818 C1804 0.960 . S
H1819 C1805 0.961 . S
H1820 C1805 0.961 . S
H1821 C1805 0.961 . S
H1822 C1806 0.931 . S
H1823 C1811 0.930 . S
H1824 C1812 0.956 . S
H1825 C1812 0.961 . S
H1826 C1812 0.961 . S
H1827 C1813 0.958 . S
H1828 C1813 0.961 . S
H1829 C1813 0.960 . S
C1830 C1831 1.391 . S
C1830 C1832 1.394 . S
C1830 H1846 0.931 . S
C1831 C1830 1.391 . S
C1831 C1835 1.376 . S
C1832 C1830 1.394 . S
C1832 C1833 1.369 . S
C1832 C1836 1.531 . S
C1833 C1832 1.369 . S
C1833 C1834 1.410 . S
C1833 C1841 1.503 . S
C1834 C1833 1.410 . S
C1834 C1835 1.392 . S
C1834 C1837 1.511 . S
C1835 C1831 1.376 . S
C1835 C1834 1.392 . S
C1835 H1847 0.929 . S
C1836 C1832 1.531 . S
C1836 H1848 0.960 . S
C1836 H1849 0.962 . S
C1836 H1850 0.960 . S
C1837 C1834 1.511 . S
C1837 H1851 0.961 . S
C1837 H1852 0.961 . S
C1837 H1853 0.961 . S
C1838 C1839 1.370 . S
C1838 C1840 1.363 . S
C1838 H1854 0.931 . S
C1839 C1838 1.370 . S
C1839 C1843 1.408 . S
C1840 C1838 1.363 . S
C1840 C1841 1.370 . S
C1840 C1844 1.524 . S
C1841 C1833 1.503 . S
C1841 C1840 1.370 . S
C1841 C1842 1.403 . S
C1842 C1841 1.403 . S
C1842 C1843 1.404 . S
C1842 C1845 1.539 . S
C1843 C1839 1.408 . S
C1843 C1842 1.404 . S
C1843 H1855 0.930 . S
C1844 C1840 1.524 . S
C1844 H1856 0.956 . S
C1844 H1857 0.961 . S
C1844 H1858 0.961 . S
C1845 C1842 1.539 . S
C1845 H1859 0.958 . S
C1845 H1860 0.961 . S
C1845 H1861 0.960 . S
H1846 C1830 0.931 . S
H1847 C1835 0.929 . S
H1848 C1836 0.960 . S
H1849 C1836 0.962 . S
H1850 C1836 0.960 . S
H1851 C1837 0.961 . S
H1852 C1837 0.961 . S
H1853 C1837 0.961 . S
H1854 C1838 0.931 . S
H1855 C1843 0.930 . S
H1856 C1844 0.956 . S
H1857 C1844 0.961 . S
H1858 C1844 0.961 . S
H1859 C1845 0.958 . S
H1860 C1845 0.961 . S
H1861 C1845 0.960 . S
C1862 C1863 1.391 . S
C1862 C1864 1.394 . S
C1862 H1878 0.931 . S
C1863 C1862 1.391 . S
C1863 C1867 1.376 . S
C1864 C1862 1.394 . S
C1864 C1865 1.369 . S
C1864 C1868 1.531 . S
C1865 C1864 1.369 . S
C1865 C1866 1.410 . S
C1865 C1873 1.503 . S
C1866 C1865 1.410 . S
C1866 C1867 1.392 . S
C1866 C1869 1.511 . S
C1867 C1863 1.376 . S
C1867 C1866 1.392 . S
C1867 H1879 0.929 . S
C1868 C1864 1.531 . S
C1868 H1880 0.960 . S
C1868 H1881 0.962 . S
C1868 H1882 0.960 . S
C1869 C1866 1.511 . S
C1869 H1883 0.961 . S
C1869 H1884 0.961 . S
C1869 H1885 0.961 . S
C1870 C1871 1.370 . S
C1870 C1872 1.363 . S
C1870 H1886 0.931 . S
C1871 C1870 1.370 . S
C1871 C1875 1.408 . S
C1872 C1870 1.363 . S
C1872 C1873 1.370 . S
C1872 C1876 1.524 . S
C1873 C1865 1.503 . S
C1873 C1872 1.370 . S
C1873 C1874 1.403 . S
C1874 C1873 1.403 . S
C1874 C1875 1.404 . S
C1874 C1877 1.539 . S
C1875 C1871 1.408 . S
C1875 C1874 1.404 . S
C1875 H1887 0.930 . S
C1876 C1872 1.524 . S
C1876 H1888 0.956 . S
C1876 H1889 0.961 . S
C1876 H1890 0.961 . S
C1877 C1874 1.539 . S
C1877 H1891 0.958 . S
C1877 H1892 0.961 . S
C1877 H1893 0.960 . S
H1878 C1862 0.931 . S
H1879 C1867 0.929 . S
H1880 C1868 0.960 . S
H1881 C1868 0.962 . S
H1882 C1868 0.960 . S
H1883 C1869 0.961 . S
H1884 C1869 0.961 . S
H1885 C1869 0.961 . S
H1886 C1870 0.931 . S
H1887 C1875 0.930 . S
H1888 C1876 0.956 . S
H1889 C1876 0.961 . S
H1890 C1876 0.961 . S
H1891 C1877 0.958 . S
H1892 C1877 0.961 . S
H1893 C1877 0.960 . S
C1894 C1895 1.391 . S
C1894 C1896 1.394 . S
C1894 H1910 0.931 . S
C1895 C1894 1.391 . S
C1895 C1899 1.376 . S
C1896 C1894 1.394 . S
C1896 C1897 1.369 . S
C1896 C1900 1.531 . S
C1897 C1896 1.369 . S
C1897 C1898 1.410 . S
C1897 C1905 1.503 . S
C1898 C1897 1.410 . S
C1898 C1899 1.392 . S
C1898 C1901 1.511 . S
C1899 C1895 1.376 . S
C1899 C1898 1.392 . S
C1899 H1911 0.929 . S
C1900 C1896 1.531 . S
C1900 H1912 0.960 . S
C1900 H1913 0.962 . S
C1900 H1914 0.960 . S
C1901 C1898 1.511 . S
C1901 H1915 0.961 . S
C1901 H1916 0.961 . S
C1901 H1917 0.961 . S
C1902 C1903 1.370 . S
C1902 C1904 1.363 . S
C1902 H1918 0.931 . S
C1903 C1902 1.370 . S
C1903 C1907 1.408 . S
C1904 C1902 1.363 . S
C1904 C1905 1.370 . S
C1904 C1908 1.524 . S
C1905 C1897 1.503 . S
C1905 C1904 1.370 . S
C1905 C1906 1.403 . S
C1906 C1905 1.403 . S
C1906 C1907 1.404 . S
C1906 C1909 1.539 . S
C1907 C1903 1.408 . S
C1907 C1906 1.404 . S
C1907 H1919 0.930 . S
C1908 C1904 1.524 . S
C1908 H1920 0.956 . S
C1908 H1921 0.961 . S
C1908 H1922 0.961 . S
C1909 C1906 1.539 . S
C1909 H1923 0.958 . S
C1909 H1924 0.961 . S
C1909 H1925 0.960 . S
H1910 C1894 0.931 . S
H1911 C1899 0.929 . S
H1912 C1900 0.960 . S
H1913 C1900 0.962 . S
H1914 C1900 0.960 . S
H1915 C1901 0.961 . S
H1916 C1901 0.961 . S
H1917 C1901 0.961 . S
H1918 C1902 0.931 . S
H1919 C1907 0.930 . S
H1920 C1908 0.956 . S
H1921 C1908 0.961 . S
H1922 C1908 0.961 . S
H1923 C1909 0.958 . S
H1924 C1909 0.961 . S
H1925 C1909 0.960 . S
C1926 C1927 1.391 . S
C1926 C1928 1.394 . S
C1926 H1942 0.931 . S
C1927 C1926 1.391 . S
C1927 C1931 1.376 . S
C1928 C1926 1.394 . S
C1928 C1929 1.369 . S
C1928 C1932 1.531 . S
C1929 C1928 1.369 . S
C1929 C1930 1.410 . S
C1929 C1937 1.503 . S
C1930 C1929 1.410 . S
C1930 C1931 1.392 . S
C1930 C1933 1.511 . S
C1931 C1927 1.376 . S
C1931 C1930 1.392 . S
C1931 H1943 0.929 . S
C1932 C1928 1.531 . S
C1932 H1944 0.960 . S
C1932 H1945 0.962 . S
C1932 H1946 0.960 . S
C1933 C1930 1.511 . S
C1933 H1947 0.961 . S
C1933 H1948 0.961 . S
C1933 H1949 0.961 . S
C1934 C1935 1.370 . S
C1934 C1936 1.363 . S
C1934 H1950 0.931 . S
C1935 C1934 1.370 . S
C1935 C1939 1.408 . S
C1936 C1934 1.363 . S
C1936 C1937 1.370 . S
C1936 C1940 1.524 . S
C1937 C1929 1.503 . S
C1937 C1936 1.370 . S
C1937 C1938 1.403 . S
C1938 C1937 1.403 . S
C1938 C1939 1.404 . S
C1938 C1941 1.539 . S
C1939 C1935 1.408 . S
C1939 C1938 1.404 . S
C1939 H1951 0.930 . S
C1940 C1936 1.524 . S
C1940 H1952 0.956 . S
C1940 H1953 0.961 . S
C1940 H1954 0.961 . S
C1941 C1938 1.539 . S
C1941 H1955 0.958 . S
C1941 H1956 0.961 . S
C1941 H1957 0.960 . S
H1942 C1926 0.931 . S
H1943 C1931 0.929 . S
H1944 C1932 0.960 . S
H1945 C1932 0.962 . S
H1946 C1932 0.960 . S
H1947 C1933 0.961 . S
H1948 C1933 0.961 . S
H1949 C1933 0.961 . S
H1950 C1934 0.931 . S
H1951 C1939 0.930 . S
H1952 C1940 0.956 . S
H1953 C1940 0.961 . S
H1954 C1940 0.961 . S
H1955 C1941 0.958 . S
H1956 C1941 0.961 . S
H1957 C1941 0.960 . S
C1958 C1959 1.391 . S
C1958 C1960 1.394 . S
C1958 H1974 0.931 . S
C1959 C1958 1.391 . S
C1959 C1963 1.376 . S
C1960 C1958 1.394 . S
C1960 C1961 1.369 . S
C1960 C1964 1.531 . S
C1961 C1960 1.369 . S
C1961 C1962 1.410 . S
C1961 C1969 1.503 . S
C1962 C1961 1.410 . S
C1962 C1963 1.392 . S
C1962 C1965 1.511 . S
C1963 C1959 1.376 . S
C1963 C1962 1.392 . S
C1963 H1975 0.929 . S
C1964 C1960 1.531 . S
C1964 H1976 0.960 . S
C1964 H1977 0.962 . S
C1964 H1978 0.960 . S
C1965 C1962 1.511 . S
C1965 H1979 0.961 . S
C1965 H1980 0.961 . S
C1965 H1981 0.961 . S
C1966 C1967 1.370 . S
C1966 C1968 1.363 . S
C1966 H1982 0.931 . S
C1967 C1966 1.370 . S
C1967 C1971 1.408 . S
C1968 C1966 1.363 . S
C1968 C1969 1.370 . S
C1968 C1972 1.524 . S
C1969 C1961 1.503 . S
C1969 C1968 1.370 . S
C1969 C1970 1.403 . S
C1970 C1969 1.403 . S
C1970 C1971 1.404 . S
C1970 C1973 1.539 . S
C1971 C1967 1.408 . S
C1971 C1970 1.404 . S
C1971 H1983 0.930 . S
C1972 C1968 1.524 . S
C1972 H1984 0.956 . S
C1972 H1985 0.961 . S
C1972 H1986 0.961 . S
C1973 C1970 1.539 . S
C1973 H1987 0.958 . S
C1973 H1988 0.961 . S
C1973 H1989 0.960 . S
H1974 C1958 0.931 . S
H1975 C1963 0.929 . S
H1976 C1964 0.960 . S
H1977 C1964 0.962 . S
H1978 C1964 0.960 . S
H1979 C1965 0.961 . S
H1980 C1965 0.961 . S
H1981 C1965 0.961 . S
H1982 C1966 0.931 . S
H1983 C1971 0.930 . S
H1984 C1972 0.956 . S
H1985 C1972 0.961 . S
H1986 C1972 0.961 . S
H1987 C1973 0.958 . S
H1988 C1973 0.961 . S
H1989 C1973 0.960 . S
C1990 C1991 1.391 . S
C1990 C1992 1.394 . S
C1990 H2006 0.931 . S
C1991 C1990 1.391 . S
C1991 C1995 1.376 . S
C1992 C1990 1.394 . S
C1992 C1993 1.369 . S
C1992 C1996 1.531 . S
C1993 C1992 1.369 . S
C1993 C1994 1.410 . S
C1993 C2001 1.503 . S
C1994 C1993 1.410 . S
C1994 C1995 1.392 . S
C1994 C1997 1.511 . S
C1995 C1991 1.376 . S
C1995 C1994 1.392 . S
C1995 H2007 0.929 . S
C1996 C1992 1.531 . S
C1996 H2008 0.960 . S
C1996 H2009 0.962 . S
C1996 H2010 0.960 . S
C1997 C1994 1.511 . S
C1997 H2011 0.961 . S
C1997 H2012 0.961 . S
C1997 H2013 0.961 . S
C1998 C1999 1.370 . S
C1998 C2000 1.363 . S
C1998 H2014 0.931 . S
C1999 C1998 1.370 . S
C1999 C2003 1.408 . S
C2000 C1998 1.363 . S
C2000 C2001 1.370 . S
C2000 C2004 1.524 . S
C2001 C1993 1.503 . S
C2001 C2000 1.370 . S
C2001 C2002 1.403 . S
C2002 C2001 1.403 . S
C2002 C2003 1.404 . S
C2002 C2005 1.539 . S
C2003 C1999 1.408 . S
C2003 C2002 1.404 . S
C2003 H2015 0.930 . S
C2004 C2000 1.524 . S
C2004 H2016 0.956 . S
C2004 H2017 0.961 . S
C2004 H2018 0.961 . S
C2005 C2002 1.539 . S
C2005 H2019 0.958 . S
C2005 H2020 0.961 . S
C2005 H2021 0.960 . S
H2006 C1990 0.931 . S
H2007 C1995 0.929 . S
H2008 C1996 0.960 . S
H2009 C1996 0.962 . S
H2010 C1996 0.960 . S
H2011 C1997 0.961 . S
H2012 C1997 0.961 . S
H2013 C1997 0.961 . S
H2014 C1998 0.931 . S
H2015 C2003 0.930 . S
H2016 C2004 0.956 . S
H2017 C2004 0.961 . S
H2018 C2004 0.961 . S
H2019 C2005 0.958 . S
H2020 C2005 0.961 . S
H2021 C2005 0.960 . S
C2022 C2023 1.391 . S
C2022 C2024 1.394 . S
C2022 H2038 0.931 . S
C2023 C2022 1.391 . S
C2023 C2027 1.376 . S
C2024 C2022 1.394 . S
C2024 C2025 1.369 . S
C2024 C2028 1.531 . S
C2025 C2024 1.369 . S
C2025 C2026 1.410 . S
C2025 C2033 1.503 . S
C2026 C2025 1.410 . S
C2026 C2027 1.392 . S
C2026 C2029 1.511 . S
C2027 C2023 1.376 . S
C2027 C2026 1.392 . S
C2027 H2039 0.929 . S
C2028 C2024 1.531 . S
C2028 H2040 0.960 . S
C2028 H2041 0.962 . S
C2028 H2042 0.960 . S
C2029 C2026 1.511 . S
C2029 H2043 0.961 . S
C2029 H2044 0.961 . S
C2029 H2045 0.961 . S
C2030 C2031 1.370 . S
C2030 C2032 1.363 . S
C2030 H2046 0.931 . S
C2031 C2030 1.370 . S
C2031 C2035 1.408 . S
C2032 C2030 1.363 . S
C2032 C2033 1.370 . S
C2032 C2036 1.524 . S
C2033 C2025 1.503 . S
C2033 C2032 1.370 . S
C2033 C2034 1.403 . S
C2034 C2033 1.403 . S
C2034 C2035 1.404 . S
C2034 C2037 1.539 . S
C2035 C2031 1.408 . S
C2035 C2034 1.404 . S
C2035 H2047 0.930 . S
C2036 C2032 1.524 . S
C2036 H2048 0.956 . S
C2036 H2049 0.961 . S
C2036 H2050 0.961 . S
C2037 C2034 1.539 . S
C2037 H2051 0.958 . S
C2037 H2052 0.961 . S
C2037 H2053 0.960 . S
H2038 C2022 0.931 . S
H2039 C2027 0.929 . S
H2040 C2028 0.960 . S
H2041 C2028 0.962 . S
H2042 C2028 0.960 . S
H2043 C2029 0.961 . S
H2044 C2029 0.961 . S
H2045 C2029 0.961 . S
H2046 C2030 0.931 . S
H2047 C2035 0.930 . S
H2048 C2036 0.956 . S
H2049 C2036 0.961 . S
H2050 C2036 0.961 . S
H2051 C2037 0.958 . S
H2052 C2037 0.961 . S
H2053 C2037 0.960 . S
C2054 C2055 1.391 . S
C2054 C2056 1.394 . S
C2054 H2070 0.931 . S
C2055 C2054 1.391 . S
C2055 C2059 1.376 . S
C2056 C2054 1.394 . S
C2056 C2057 1.369 . S
C2056 C2060 1.531 . S
C2057 C2056 1.369 . S
C2057 C2058 1.410 . S
C2057 C2065 1.503 . S
C2058 C2057 1.410 . S
C2058 C2059 1.392 . S
C2058 C2061 1.511 . S
C2059 C2055 1.376 . S
C2059 C2058 1.392 . S
C2059 H2071 0.929 . S
C2060 C2056 1.531 . S
C2060 H2072 0.960 . S
C2060 H2073 0.962 . S
C2060 H2074 0.960 . S
C2061 C2058 1.511 . S
C2061 H2075 0.961 . S
C2061 H2076 0.961 . S
C2061 H2077 0.961 . S
C2062 C2063 1.370 . S
C2062 C2064 1.363 . S
C2062 H2078 0.931 . S
C2063 C2062 1.370 . S
C2063 C2067 1.408 . S
C2064 C2062 1.363 . S
C2064 C2065 1.370 . S
C2064 C2068 1.524 . S
C2065 C2057 1.503 . S
C2065 C2064 1.370 . S
C2065 C2066 1.403 . S
C2066 C2065 1.403 . S
C2066 C2067 1.404 . S
C2066 C2069 1.539 . S
C2067 C2063 1.408 . S
C2067 C2066 1.404 . S
C2067 H2079 0.930 . S
C2068 C2064 1.524 . S
C2068 H2080 0.956 . S
C2068 H2081 0.961 . S
C2068 H2082 0.961 . S
C2069 C2066 1.539 . S
C2069 H2083 0.958 . S
C2069 H2084 0.961 . S
C2069 H2085 0.960 . S
H2070 C2054 0.931 . S
H2071 C2059 0.929 . S
H2072 C2060 0.960 . S
H2073 C2060 0.962 . S
H2074 C2060 0.960 . S
H2075 C2061 0.961 . S
H2076 C2061 0.961 . S
H2077 C2061 0.961 . S
H2078 C2062 0.931 . S
H2079 C2067 0.930 . S
H2080 C2068 0.956 . S
H2081 C2068 0.961 . S
H2082 C2068 0.961 . S
H2083 C2069 0.958 . S
H2084 C2069 0.961 . S
H2085 C2069 0.960 . S
C2086 C2087 1.391 . S
C2086 C2088 1.394 . S
C2086 H2102 0.931 . S
C2087 C2086 1.391 . S
C2087 C2091 1.376 . S
C2088 C2086 1.394 . S
C2088 C2089 1.369 . S
C2088 C2092 1.531 . S
C2089 C2088 1.369 . S
C2089 C2090 1.410 . S
C2089 C2097 1.503 . S
C2090 C2089 1.410 . S
C2090 C2091 1.392 . S
C2090 C2093 1.511 . S
C2091 C2087 1.376 . S
C2091 C2090 1.392 . S
C2091 H2103 0.929 . S
C2092 C2088 1.531 . S
C2092 H2104 0.960 . S
C2092 H2105 0.962 . S
C2092 H2106 0.960 . S
C2093 C2090 1.511 . S
C2093 H2107 0.961 . S
C2093 H2108 0.961 . S
C2093 H2109 0.961 . S
C2094 C2095 1.370 . S
C2094 C2096 1.363 . S
C2094 H2110 0.931 . S
C2095 C2094 1.370 . S
C2095 C2099 1.408 . S
C2096 C2094 1.363 . S
C2096 C2097 1.370 . S
C2096 C2100 1.524 . S
C2097 C2089 1.503 . S
C2097 C2096 1.370 . S
C2097 C2098 1.403 . S
C2098 C2097 1.403 . S
C2098 C2099 1.404 . S
C2098 C2101 1.539 . S
C2099 C2095 1.408 . S
C2099 C2098 1.404 . S
C2099 H2111 0.930 . S
C2100 C2096 1.524 . S
C2100 H2112 0.956 . S
C2100 H2113 0.961 . S
C2100 H2114 0.961 . S
C2101 C2098 1.539 . S
C2101 H2115 0.958 . S
C2101 H2116 0.961 . S
C2101 H2117 0.960 . S
H2102 C2086 0.931 . S
H2103 C2091 0.929 . S
H2104 C2092 0.960 . S
H2105 C2092 0.962 . S
H2106 C2092 0.960 . S
H2107 C2093 0.961 . S
H2108 C2093 0.961 . S
H2109 C2093 0.961 . S
H2110 C2094 0.931 . S
H2111 C2099 0.930 . S
H2112 C2100 0.956 . S
H2113 C2100 0.961 . S
H2114 C2100 0.961 . S
H2115 C2101 0.958 . S
H2116 C2101 0.961 . S
H2117 C2101 0.960 . S
C2118 C2119 1.391 . S
C2118 C2120 1.394 . S
C2118 H2134 0.931 . S
C2119 C2118 1.391 . S
C2119 C2123 1.376 . S
C2120 C2118 1.394 . S
C2120 C2121 1.369 . S
C2120 C2124 1.531 . S
C2121 C2120 1.369 . S
C2121 C2122 1.410 . S
C2121 C2129 1.503 . S
C2122 C2121 1.410 . S
C2122 C2123 1.392 . S
C2122 C2125 1.511 . S
C2123 C2119 1.376 . S
C2123 C2122 1.392 . S
C2123 H2135 0.929 . S
C2124 C2120 1.531 . S
C2124 H2136 0.960 . S
C2124 H2137 0.962 . S
C2124 H2138 0.960 . S
C2125 C2122 1.511 . S
C2125 H2139 0.961 . S
C2125 H2140 0.961 . S
C2125 H2141 0.961 . S
C2126 C2127 1.370 . S
C2126 C2128 1.363 . S
C2126 H2142 0.931 . S
C2127 C2126 1.370 . S
C2127 C2131 1.408 . S
C2128 C2126 1.363 . S
C2128 C2129 1.370 . S
C2128 C2132 1.524 . S
C2129 C2121 1.503 . S
C2129 C2128 1.370 . S
C2129 C2130 1.403 . S
C2130 C2129 1.403 . S
C2130 C2131 1.404 . S
C2130 C2133 1.539 . S
C2131 C2127 1.408 . S
C2131 C2130 1.404 . S
C2131 H2143 0.930 . S
C2132 C2128 1.524 . S
C2132 H2144 0.956 . S
C2132 H2145 0.961 . S
C2132 H2146 0.961 . S
C2133 C2130 1.539 . S
C2133 H2147 0.958 . S
C2133 H2148 0.961 . S
C2133 H2149 0.960 . S
H2134 C2118 0.931 . S
H2135 C2123 0.929 . S
H2136 C2124 0.960 . S
H2137 C2124 0.962 . S
H2138 C2124 0.960 . S
H2139 C2125 0.961 . S
H2140 C2125 0.961 . S
H2141 C2125 0.961 . S
H2142 C2126 0.931 . S
H2143 C2131 0.930 . S
H2144 C2132 0.956 . S
H2145 C2132 0.961 . S
H2146 C2132 0.961 . S
H2147 C2133 0.958 . S
H2148 C2133 0.961 . S
H2149 C2133 0.960 . S
C2150 C2151 1.391 . S
C2150 C2152 1.394 . S
C2150 H2166 0.931 . S
C2151 C2150 1.391 . S
C2151 C2155 1.376 . S
C2152 C2150 1.394 . S
C2152 C2153 1.369 . S
C2152 C2156 1.531 . S
C2153 C2152 1.369 . S
C2153 C2154 1.410 . S
C2153 C2161 1.503 . S
C2154 C2153 1.410 . S
C2154 C2155 1.392 . S
C2154 C2157 1.511 . S
C2155 C2151 1.376 . S
C2155 C2154 1.392 . S
C2155 H2167 0.929 . S
C2156 C2152 1.531 . S
C2156 H2168 0.960 . S
C2156 H2169 0.962 . S
C2156 H2170 0.960 . S
C2157 C2154 1.511 . S
C2157 H2171 0.961 . S
C2157 H2172 0.961 . S
C2157 H2173 0.961 . S
C2158 C2159 1.370 . S
C2158 C2160 1.363 . S
C2158 H2174 0.931 . S
C2159 C2158 1.370 . S
C2159 C2163 1.408 . S
C2160 C2158 1.363 . S
C2160 C2161 1.370 . S
C2160 C2164 1.524 . S
C2161 C2153 1.503 . S
C2161 C2160 1.370 . S
C2161 C2162 1.403 . S
C2162 C2161 1.403 . S
C2162 C2163 1.404 . S
C2162 C2165 1.539 . S
C2163 C2159 1.408 . S
C2163 C2162 1.404 . S
C2163 H2175 0.930 . S
C2164 C2160 1.524 . S
C2164 H2176 0.956 . S
C2164 H2177 0.961 . S
C2164 H2178 0.961 . S
C2165 C2162 1.539 . S
C2165 H2179 0.958 . S
C2165 H2180 0.961 . S
C2165 H2181 0.960 . S
H2166 C2150 0.931 . S
H2167 C2155 0.929 . S
H2168 C2156 0.960 . S
H2169 C2156 0.962 . S
H2170 C2156 0.960 . S
H2171 C2157 0.961 . S
H2172 C2157 0.961 . S
H2173 C2157 0.961 . S
H2174 C2158 0.931 . S
H2175 C2163 0.930 . S
H2176 C2164 0.956 . S
H2177 C2164 0.961 . S
H2178 C2164 0.961 . S
H2179 C2165 0.958 . S
H2180 C2165 0.961 . S
H2181 C2165 0.960 . S
C2182 C2183 1.391 . S
C2182 C2184 1.394 . S
C2182 H2198 0.931 . S
C2183 C2182 1.391 . S
C2183 C2187 1.376 . S
C2184 C2182 1.394 . S
C2184 C2185 1.369 . S
C2184 C2188 1.531 . S
C2185 C2184 1.369 . S
C2185 C2186 1.410 . S
C2185 C2193 1.503 . S
C2186 C2185 1.410 . S
C2186 C2187 1.392 . S
C2186 C2189 1.511 . S
C2187 C2183 1.376 . S
C2187 C2186 1.392 . S
C2187 H2199 0.929 . S
C2188 C2184 1.531 . S
C2188 H2200 0.960 . S
C2188 H2201 0.962 . S
C2188 H2202 0.960 . S
C2189 C2186 1.511 . S
C2189 H2203 0.961 . S
C2189 H2204 0.961 . S
C2189 H2205 0.961 . S
C2190 C2191 1.370 . S
C2190 C2192 1.363 . S
C2190 H2206 0.931 . S
C2191 C2190 1.370 . S
C2191 C2195 1.408 . S
C2192 C2190 1.363 . S
C2192 C2193 1.370 . S
C2192 C2196 1.524 . S
C2193 C2185 1.503 . S
C2193 C2192 1.370 . S
C2193 C2194 1.403 . S
C2194 C2193 1.403 . S
C2194 C2195 1.404 . S
C2194 C2197 1.539 . S
C2195 C2191 1.408 . S
C2195 C2194 1.404 . S
C2195 H2207 0.930 . S
C2196 C2192 1.524 . S
C2196 H2208 0.956 . S
C2196 H2209 0.961 . S
C2196 H2210 0.961 . S
C2197 C2194 1.539 . S
C2197 H2211 0.958 . S
C2197 H2212 0.961 . S
C2197 H2213 0.960 . S
H2198 C2182 0.931 . S
H2199 C2187 0.929 . S
H2200 C2188 0.960 . S
H2201 C2188 0.962 . S
H2202 C2188 0.960 . S
H2203 C2189 0.961 . S
H2204 C2189 0.961 . S
H2205 C2189 0.961 . S
H2206 C2190 0.931 . S
H2207 C2195 0.930 . S
H2208 C2196 0.956 . S
H2209 C2196 0.961 . S
H2210 C2196 0.961 . S
H2211 C2197 0.958 . S
H2212 C2197 0.961 . S
H2213 C2197 0.960 . S
C2214 C2215 1.391 . S
C2214 C2216 1.394 . S
C2214 H2230 0.931 . S
C2215 C2214 1.391 . S
C2215 C2219 1.376 . S
C2216 C2214 1.394 . S
C2216 C2217 1.369 . S
C2216 C2220 1.531 . S
C2217 C2216 1.369 . S
C2217 C2218 1.410 . S
C2217 C2225 1.503 . S
C2218 C2217 1.410 . S
C2218 C2219 1.392 . S
C2218 C2221 1.511 . S
C2219 C2215 1.376 . S
C2219 C2218 1.392 . S
C2219 H2231 0.929 . S
C2220 C2216 1.531 . S
C2220 H2232 0.960 . S
C2220 H2233 0.962 . S
C2220 H2234 0.960 . S
C2221 C2218 1.511 . S
C2221 H2235 0.961 . S
C2221 H2236 0.961 . S
C2221 H2237 0.961 . S
C2222 C2223 1.370 . S
C2222 C2224 1.363 . S
C2222 H2238 0.931 . S
C2223 C2222 1.370 . S
C2223 C2227 1.408 . S
C2224 C2222 1.363 . S
C2224 C2225 1.370 . S
C2224 C2228 1.524 . S
C2225 C2217 1.503 . S
C2225 C2224 1.370 . S
C2225 C2226 1.403 . S
C2226 C2225 1.403 . S
C2226 C2227 1.404 . S
C2226 C2229 1.539 . S
C2227 C2223 1.408 . S
C2227 C2226 1.404 . S
C2227 H2239 0.930 . S
C2228 C2224 1.524 . S
C2228 H2240 0.956 . S
C2228 H2241 0.961 . S
C2228 H2242 0.961 . S
C2229 C2226 1.539 . S
C2229 H2243 0.958 . S
C2229 H2244 0.961 . S
C2229 H2245 0.960 . S
H2230 C2214 0.931 . S
H2231 C2219 0.929 . S
H2232 C2220 0.960 . S
H2233 C2220 0.962 . S
H2234 C2220 0.960 . S
H2235 C2221 0.961 . S
H2236 C2221 0.961 . S
H2237 C2221 0.961 . S
H2238 C2222 0.931 . S
H2239 C2227 0.930 . S
H2240 C2228 0.956 . S
H2241 C2228 0.961 . S
H2242 C2228 0.961 . S
H2243 C2229 0.958 . S
H2244 C2229 0.961 . S
H2245 C2229 0.960 . S
C2246 C2247 1.391 . S
C2246 C2248 1.394 . S
C2246 H2262 0.931 . S
C2247 C2246 1.391 . S
C2247 C2251 1.376 . S
C2248 C2246 1.394 . S
C2248 C2249 1.369 . S
C2248 C2252 1.531 . S
C2249 C2248 1.369 . S
C2249 C2250 1.410 . S
C2249 C2257 1.503 . S
C2250 C2249 1.410 . S
C2250 C2251 1.392 . S
C2250 C2253 1.511 . S
C2251 C2247 1.376 . S
C2251 C2250 1.392 . S
C2251 H2263 0.929 . S
C2252 C2248 1.531 . S
C2252 H2264 0.960 . S
C2252 H2265 0.962 . S
C2252 H2266 0.960 . S
C2253 C2250 1.511 . S
C2253 H2267 0.961 . S
C2253 H2268 0.961 . S
C2253 H2269 0.961 . S
C2254 C2255 1.370 . S
C2254 C2256 1.363 . S
C2254 H2270 0.931 . S
C2255 C2254 1.370 . S
C2255 C2259 1.408 . S
C2256 C2254 1.363 . S
C2256 C2257 1.370 . S
C2256 C2260 1.524 . S
C2257 C2249 1.503 . S
C2257 C2256 1.370 . S
C2257 C2258 1.403 . S
C2258 C2257 1.403 . S
C2258 C2259 1.404 . S
C2258 C2261 1.539 . S
C2259 C2255 1.408 . S
C2259 C2258 1.404 . S
C2259 H2271 0.930 . S
C2260 C2256 1.524 . S
C2260 H2272 0.956 . S
C2260 H2273 0.961 . S
C2260 H2274 0.961 . S
C2261 C2258 1.539 . S
C2261 H2275 0.958 . S
C2261 H2276 0.961 . S
C2261 H2277 0.960 . S
H2262 C2246 0.931 . S
H2263 C2251 0.929 . S
H2264 C2252 0.960 . S
H2265 C2252 0.962 . S
H2266 C2252 0.960 . S
H2267 C2253 0.961 . S
H2268 C2253 0.961 . S
H2269 C2253 0.961 . S
H2270 C2254 0.931 . S
H2271 C2259 0.930 . S
H2272 C2260 0.956 . S
H2273 C2260 0.961 . S
H2274 C2260 0.961 . S
H2275 C2261 0.958 . S
H2276 C2261 0.961 . S
H2277 C2261 0.960 . S
C2278 C2279 1.391 . S
C2278 C2280 1.394 . S
C2278 H2294 0.931 . S
C2279 C2278 1.391 . S
C2279 C2283 1.376 . S
C2280 C2278 1.394 . S
C2280 C2281 1.369 . S
C2280 C2284 1.531 . S
C2281 C2280 1.369 . S
C2281 C2282 1.410 . S
C2281 C2289 1.503 . S
C2282 C2281 1.410 . S
C2282 C2283 1.392 . S
C2282 C2285 1.511 . S
C2283 C2279 1.376 . S
C2283 C2282 1.392 . S
C2283 H2295 0.929 . S
C2284 C2280 1.531 . S
C2284 H2296 0.960 . S
C2284 H2297 0.962 . S
C2284 H2298 0.960 . S
C2285 C2282 1.511 . S
C2285 H2299 0.961 . S
C2285 H2300 0.961 . S
C2285 H2301 0.961 . S
C2286 C2287 1.370 . S
C2286 C2288 1.363 . S
C2286 H2302 0.931 . S
C2287 C2286 1.370 . S
C2287 C2291 1.408 . S
C2288 C2286 1.363 . S
C2288 C2289 1.370 . S
C2288 C2292 1.524 . S
C2289 C2281 1.503 . S
C2289 C2288 1.370 . S
C2289 C2290 1.403 . S
C2290 C2289 1.403 . S
C2290 C2291 1.404 . S
C2290 C2293 1.539 . S
C2291 C2287 1.408 . S
C2291 C2290 1.404 . S
C2291 H2303 0.930 . S
C2292 C2288 1.524 . S
C2292 H2304 0.956 . S
C2292 H2305 0.961 . S
C2292 H2306 0.961 . S
C2293 C2290 1.539 . S
C2293 H2307 0.958 . S
C2293 H2308 0.961 . S
C2293 H2309 0.960 . S
H2294 C2278 0.931 . S
H2295 C2283 0.929 . S
H2296 C2284 0.960 . S
H2297 C2284 0.962 . S
H2298 C2284 0.960 . S
H2299 C2285 0.961 . S
H2300 C2285 0.961 . S
H2301 C2285 0.961 . S
H2302 C2286 0.931 . S
H2303 C2291 0.930 . S
H2304 C2292 0.956 . S
H2305 C2292 0.961 . S
H2306 C2292 0.961 . S
H2307 C2293 0.958 . S
H2308 C2293 0.961 . S
H2309 C2293 0.960 . S
C2310 C2311 1.391 . S
C2310 C2312 1.394 . S
C2310 H2326 0.931 1_556 S
C2311 C2310 1.391 . S
C2311 C2315 1.376 . S
C2312 C2310 1.394 . S
C2312 C2313 1.369 . S
C2312 C2316 1.531 . S
C2313 C2312 1.369 . S
C2313 C2314 1.410 . S
C2313 C2321 1.503 . S
C2314 C2313 1.410 . S
C2314 C2315 1.392 . S
C2314 C2317 1.511 . S
C2315 C2311 1.376 . S
C2315 C2314 1.392 . S
C2315 H2327 0.929 . S
C2316 C2312 1.531 . S
C2316 H2328 0.960 . S
C2316 H2329 0.962 . S
C2316 H2330 0.960 1_556 S
C2317 C2314 1.511 . S
C2317 H2331 0.961 . S
C2317 H2332 0.961 . S
C2317 H2333 0.961 . S
C2318 C2319 1.370 . S
C2318 C2320 1.363 . S
C2318 H2334 0.931 . S
C2319 C2318 1.370 . S
C2319 C2323 1.408 . S
C2320 C2318 1.363 . S
C2320 C2321 1.370 . S
C2320 C2324 1.524 . S
C2321 C2313 1.503 . S
C2321 C2320 1.370 . S
C2321 C2322 1.403 . S
C2322 C2321 1.403 . S
C2322 C2323 1.404 . S
C2322 C2325 1.539 . S
C2323 C2319 1.408 . S
C2323 C2322 1.404 . S
C2323 H2335 0.930 . S
C2324 C2320 1.524 . S
C2324 H2336 0.956 . S
C2324 H2337 0.961 . S
C2324 H2338 0.961 . S
C2325 C2322 1.539 . S
C2325 H2339 0.958 . S
C2325 H2340 0.961 . S
C2325 H2341 0.960 . S
H2326 C2310 0.931 1_554 S
H2327 C2315 0.929 . S
H2328 C2316 0.960 . S
H2329 C2316 0.962 . S
H2330 C2316 0.960 1_554 S
H2331 C2317 0.961 . S
H2332 C2317 0.961 . S
H2333 C2317 0.961 . S
H2334 C2318 0.931 . S
H2335 C2323 0.930 . S
H2336 C2324 0.956 . S
H2337 C2324 0.961 . S
H2338 C2324 0.961 . S
H2339 C2325 0.958 . S
H2340 C2325 0.961 . S
H2341 C2325 0.960 . S
C2342 C2343 1.391 . S
C2342 C2344 1.394 . S
C2342 H2358 0.931 . S
C2343 C2342 1.391 . S
C2343 C2347 1.376 . S
C2344 C2342 1.394 . S
C2344 C2345 1.369 . S
C2344 C2348 1.531 . S
C2345 C2344 1.369 . S
C2345 C2346 1.410 . S
C2345 C2353 1.503 . S
C2346 C2345 1.410 . S
C2346 C2347 1.392 . S
C2346 C2349 1.511 . S
C2347 C2343 1.376 . S
C2347 C2346 1.392 . S
C2347 H2359 0.929 . S
C2348 C2344 1.531 . S
C2348 H2360 0.960 . S
C2348 H2361 0.962 . S
C2348 H2362 0.960 . S
C2349 C2346 1.511 . S
C2349 H2363 0.961 . S
C2349 H2364 0.961 . S
C2349 H2365 0.961 . S
C2350 C2351 1.370 . S
C2350 C2352 1.363 . S
C2350 H2366 0.931 . S
C2351 C2350 1.370 . S
C2351 C2355 1.408 . S
C2352 C2350 1.363 . S
C2352 C2353 1.370 . S
C2352 C2356 1.524 . S
C2353 C2345 1.503 . S
C2353 C2352 1.370 . S
C2353 C2354 1.403 . S
C2354 C2353 1.403 . S
C2354 C2355 1.404 . S
C2354 C2357 1.539 . S
C2355 C2351 1.408 . S
C2355 C2354 1.404 . S
C2355 H2367 0.930 . S
C2356 C2352 1.524 . S
C2356 H2368 0.956 . S
C2356 H2369 0.961 . S
C2356 H2370 0.961 . S
C2357 C2354 1.539 . S
C2357 H2371 0.958 . S
C2357 H2372 0.961 . S
C2357 H2373 0.960 . S
H2358 C2342 0.931 . S
H2359 C2347 0.929 . S
H2360 C2348 0.960 . S
H2361 C2348 0.962 . S
H2362 C2348 0.960 . S
H2363 C2349 0.961 . S
H2364 C2349 0.961 . S
H2365 C2349 0.961 . S
H2366 C2350 0.931 . S
H2367 C2355 0.930 . S
H2368 C2356 0.956 . S
H2369 C2356 0.961 . S
H2370 C2356 0.961 . S
H2371 C2357 0.958 . S
H2372 C2357 0.961 . S
H2373 C2357 0.960 . S
C2374 C2375 1.391 . S
C2374 C2376 1.394 . S
C2374 H2390 0.931 . S
C2375 C2374 1.391 . S
C2375 C2379 1.376 . S
C2376 C2374 1.394 . S
C2376 C2377 1.369 . S
C2376 C2380 1.531 . S
C2377 C2376 1.369 . S
C2377 C2378 1.410 . S
C2377 C2385 1.503 . S
C2378 C2377 1.410 . S
C2378 C2379 1.392 . S
C2378 C2381 1.511 . S
C2379 C2375 1.376 . S
C2379 C2378 1.392 . S
C2379 H2391 0.929 . S
C2380 C2376 1.531 . S
C2380 H2392 0.960 . S
C2380 H2393 0.962 . S
C2380 H2394 0.960 . S
C2381 C2378 1.511 . S
C2381 H2395 0.961 . S
C2381 H2396 0.961 . S
C2381 H2397 0.961 . S
C2382 C2383 1.370 . S
C2382 C2384 1.363 . S
C2382 H2398 0.931 . S
C2383 C2382 1.370 . S
C2383 C2387 1.408 . S
C2384 C2382 1.363 . S
C2384 C2385 1.370 . S
C2384 C2388 1.524 . S
C2385 C2377 1.503 . S
C2385 C2384 1.370 . S
C2385 C2386 1.403 . S
C2386 C2385 1.403 . S
C2386 C2387 1.404 . S
C2386 C2389 1.539 . S
C2387 C2383 1.408 . S
C2387 C2386 1.404 . S
C2387 H2399 0.930 . S
C2388 C2384 1.524 . S
C2388 H2400 0.956 . S
C2388 H2401 0.961 . S
C2388 H2402 0.961 . S
C2389 C2386 1.539 . S
C2389 H2403 0.958 . S
C2389 H2404 0.961 . S
C2389 H2405 0.960 . S
H2390 C2374 0.931 . S
H2391 C2379 0.929 . S
H2392 C2380 0.960 . S
H2393 C2380 0.962 . S
H2394 C2380 0.960 . S
H2395 C2381 0.961 . S
H2396 C2381 0.961 . S
H2397 C2381 0.961 . S
H2398 C2382 0.931 . S
H2399 C2387 0.930 . S
H2400 C2388 0.956 . S
H2401 C2388 0.961 . S
H2402 C2388 0.961 . S
H2403 C2389 0.958 . S
H2404 C2389 0.961 . S
H2405 C2389 0.960 . S
C2406 C2407 1.391 . S
C2406 C2408 1.394 . S
C2406 H2422 0.931 . S
C2407 C2406 1.391 . S
C2407 C2411 1.376 . S
C2408 C2406 1.394 . S
C2408 C2409 1.369 . S
C2408 C2412 1.531 . S
C2409 C2408 1.369 . S
C2409 C2410 1.410 . S
C2409 C2417 1.503 . S
C2410 C2409 1.410 . S
C2410 C2411 1.392 . S
C2410 C2413 1.511 . S
C2411 C2407 1.376 . S
C2411 C2410 1.392 . S
C2411 H2423 0.929 . S
C2412 C2408 1.531 . S
C2412 H2424 0.960 . S
C2412 H2425 0.962 . S
C2412 H2426 0.960 . S
C2413 C2410 1.511 . S
C2413 H2427 0.961 . S
C2413 H2428 0.961 . S
C2413 H2429 0.961 . S
C2414 C2415 1.370 . S
C2414 C2416 1.363 . S
C2414 H2430 0.931 . S
C2415 C2414 1.370 . S
C2415 C2419 1.408 . S
C2416 C2414 1.363 . S
C2416 C2417 1.370 . S
C2416 C2420 1.524 . S
C2417 C2409 1.503 . S
C2417 C2416 1.370 . S
C2417 C2418 1.403 . S
C2418 C2417 1.403 . S
C2418 C2419 1.404 . S
C2418 C2421 1.539 . S
C2419 C2415 1.408 . S
C2419 C2418 1.404 . S
C2419 H2431 0.930 . S
C2420 C2416 1.524 . S
C2420 H2432 0.956 . S
C2420 H2433 0.961 . S
C2420 H2434 0.961 . S
C2421 C2418 1.539 . S
C2421 H2435 0.958 . S
C2421 H2436 0.961 . S
C2421 H2437 0.960 . S
H2422 C2406 0.931 . S
H2423 C2411 0.929 . S
H2424 C2412 0.960 . S
H2425 C2412 0.962 . S
H2426 C2412 0.960 . S
H2427 C2413 0.961 . S
H2428 C2413 0.961 . S
H2429 C2413 0.961 . S
H2430 C2414 0.931 . S
H2431 C2419 0.930 . S
H2432 C2420 0.956 . S
H2433 C2420 0.961 . S
H2434 C2420 0.961 . S
H2435 C2421 0.958 . S
H2436 C2421 0.961 . S
H2437 C2421 0.960 . S
C2438 C2439 1.391 . S
C2438 C2440 1.394 . S
C2438 H2454 0.931 . S
C2439 C2438 1.391 . S
C2439 C2443 1.376 . S
C2440 C2438 1.394 . S
C2440 C2441 1.369 . S
C2440 C2444 1.531 . S
C2441 C2440 1.369 . S
C2441 C2442 1.410 . S
C2441 C2449 1.503 . S
C2442 C2441 1.410 . S
C2442 C2443 1.392 . S
C2442 C2445 1.511 . S
C2443 C2439 1.376 . S
C2443 C2442 1.392 . S
C2443 H2455 0.870 1_556 S
C2444 C2440 1.531 . S
C2444 H2456 0.960 . S
C2444 H2457 0.962 . S
C2444 H2458 0.960 . S
C2445 C2442 1.511 . S
C2445 H2459 0.961 1_556 S
C2445 H2460 0.961 . S
C2445 H2461 0.961 . S
C2446 C2447 1.370 . S
C2446 C2448 1.363 . S
C2446 H2462 0.931 . S
C2447 C2446 1.370 . S
C2447 C2451 1.408 . S
C2448 C2446 1.363 . S
C2448 C2449 1.370 . S
C2448 C2452 1.524 . S
C2449 C2441 1.503 . S
C2449 C2448 1.370 . S
C2449 C2450 1.403 . S
C2450 C2449 1.403 . S
C2450 C2451 1.404 . S
C2450 C2453 1.539 . S
C2451 C2447 1.408 . S
C2451 C2450 1.404 . S
C2451 H2463 0.930 . S
C2452 C2448 1.524 . S
C2452 H2464 0.956 . S
C2452 H2465 0.961 . S
C2452 H2466 0.961 . S
C2453 C2450 1.539 . S
C2453 H2467 0.958 . S
C2453 H2468 0.961 . S
C2453 H2469 0.960 . S
H2454 C2438 0.931 . S
H2455 C2443 0.870 1_554 S
H2456 C2444 0.960 . S
H2457 C2444 0.962 . S
H2458 C2444 0.960 . S
H2459 C2445 0.961 1_554 S
H2460 C2445 0.961 . S
H2461 C2445 0.961 . S
H2462 C2446 0.931 . S
H2463 C2451 0.930 . S
H2464 C2452 0.956 . S
H2465 C2452 0.961 . S
H2466 C2452 0.961 . S
H2467 C2453 0.958 . S
H2468 C2453 0.961 . S
H2469 C2453 0.960 . S
C2470 C2471 1.391 . S
C2470 C2472 1.394 . S
C2470 H2486 0.931 . S
C2471 C2470 1.391 . S
C2471 C2475 1.376 . S
C2472 C2470 1.394 . S
C2472 C2473 1.369 . S
C2472 C2476 1.531 . S
C2473 C2472 1.369 . S
C2473 C2474 1.410 . S
C2473 C2481 1.503 . S
C2474 C2473 1.410 . S
C2474 C2475 1.392 . S
C2474 C2477 1.511 . S
C2475 C2471 1.376 . S
C2475 C2474 1.392 . S
C2475 H2487 0.929 . S
C2476 C2472 1.531 . S
C2476 H2488 0.960 . S
C2476 H2489 0.962 . S
C2476 H2490 0.960 . S
C2477 C2474 1.511 . S
C2477 H2491 0.961 . S
C2477 H2492 0.961 . S
C2477 H2493 0.961 . S
C2478 C2479 1.370 . S
C2478 C2480 1.363 . S
C2478 H2494 0.931 . S
C2479 C2478 1.370 . S
C2479 C2483 1.408 . S
C2480 C2478 1.363 . S
C2480 C2481 1.370 . S
C2480 C2484 1.524 . S
C2481 C2473 1.503 . S
C2481 C2480 1.370 . S
C2481 C2482 1.403 . S
C2482 C2481 1.403 . S
C2482 C2483 1.404 . S
C2482 C2485 1.539 . S
C2483 C2479 1.408 . S
C2483 C2482 1.404 . S
C2483 H2495 0.930 . S
C2484 C2480 1.524 . S
C2484 H2496 0.956 . S
C2484 H2497 0.961 . S
C2484 H2498 0.961 . S
C2485 C2482 1.539 . S
C2485 H2499 0.958 . S
C2485 H2500 0.961 . S
C2485 H2501 0.960 . S
H2486 C2470 0.931 . S
H2487 C2475 0.929 . S
H2488 C2476 0.960 . S
H2489 C2476 0.962 . S
H2490 C2476 0.960 . S
H2491 C2477 0.961 . S
H2492 C2477 0.961 . S
H2493 C2477 0.961 . S
H2494 C2478 0.931 . S
H2495 C2483 0.930 . S
H2496 C2484 0.956 . S
H2497 C2484 0.961 . S
H2498 C2484 0.961 . S
H2499 C2485 0.958 . S
H2500 C2485 0.961 . S
H2501 C2485 0.960 . S
C2502 C2503 1.391 . S
C2502 C2504 1.394 . S
C2502 H2518 0.931 . S
C2503 C2502 1.391 . S
C2503 C2507 1.376 . S
C2504 C2502 1.394 . S
C2504 C2505 1.369 . S
C2504 C2508 1.531 . S
C2505 C2504 1.369 . S
C2505 C2506 1.410 . S
C2505 C2513 1.503 . S
C2506 C2505 1.410 . S
C2506 C2507 1.392 . S
C2506 C2509 1.511 . S
C2507 C2503 1.376 . S
C2507 C2506 1.392 . S
C2507 H2519 0.929 . S
C2508 C2504 1.531 . S
C2508 H2520 0.960 . S
C2508 H2521 0.962 . S
C2508 H2522 0.960 . S
C2509 C2506 1.511 . S
C2509 H2523 0.961 . S
C2509 H2524 0.961 . S
C2509 H2525 0.961 . S
C2510 C2511 1.370 . S
C2510 C2512 1.363 . S
C2510 H2526 0.931 . S
C2511 C2510 1.370 . S
C2511 C2515 1.408 . S
C2512 C2510 1.363 . S
C2512 C2513 1.370 . S
C2512 C2516 1.524 . S
C2513 C2505 1.503 . S
C2513 C2512 1.370 . S
C2513 C2514 1.403 . S
C2514 C2513 1.403 . S
C2514 C2515 1.404 . S
C2514 C2517 1.539 . S
C2515 C2511 1.408 . S
C2515 C2514 1.404 . S
C2515 H2527 0.930 . S
C2516 C2512 1.524 . S
C2516 H2528 0.956 . S
C2516 H2529 0.961 . S
C2516 H2530 0.961 . S
C2517 C2514 1.539 . S
C2517 H2531 0.958 . S
C2517 H2532 0.961 . S
C2517 H2533 0.960 . S
H2518 C2502 0.931 . S
H2519 C2507 0.929 . S
H2520 C2508 0.960 . S
H2521 C2508 0.962 . S
H2522 C2508 0.960 . S
H2523 C2509 0.961 . S
H2524 C2509 0.961 . S
H2525 C2509 0.961 . S
H2526 C2510 0.931 . S
H2527 C2515 0.930 . S
H2528 C2516 0.956 . S
H2529 C2516 0.961 . S
H2530 C2516 0.961 . S
H2531 C2517 0.958 . S
H2532 C2517 0.961 . S
H2533 C2517 0.960 . S
C2534 C2535 1.391 . S
C2534 C2536 1.394 . S
C2534 H2550 0.931 . S
C2535 C2534 1.391 . S
C2535 C2539 1.376 . S
C2536 C2534 1.394 . S
C2536 C2537 1.369 . S
C2536 C2540 1.531 . S
C2537 C2536 1.369 . S
C2537 C2538 1.410 . S
C2537 C2545 1.503 . S
C2538 C2537 1.410 . S
C2538 C2539 1.392 . S
C2538 C2541 1.511 . S
C2539 C2535 1.376 . S
C2539 C2538 1.392 . S
C2539 H2551 0.929 . S
C2540 C2536 1.531 . S
C2540 H2552 0.960 . S
C2540 H2553 0.962 . S
C2540 H2554 0.960 . S
C2541 C2538 1.511 . S
C2541 H2555 0.961 . S
C2541 H2556 0.961 . S
C2541 H2557 0.961 . S
C2542 C2543 1.370 . S
C2542 C2544 1.363 . S
C2542 H2558 0.931 . S
C2543 C2542 1.370 . S
C2543 C2547 1.408 . S
C2544 C2542 1.363 . S
C2544 C2545 1.370 . S
C2544 C2548 1.524 . S
C2545 C2537 1.503 . S
C2545 C2544 1.370 . S
C2545 C2546 1.403 . S
C2546 C2545 1.403 . S
C2546 C2547 1.404 . S
C2546 C2549 1.539 . S
C2547 C2543 1.408 . S
C2547 C2546 1.404 . S
C2547 H2559 0.930 . S
C2548 C2544 1.524 . S
C2548 H2560 0.956 . S
C2548 H2561 0.961 . S
C2548 H2562 0.961 . S
C2549 C2546 1.539 . S
C2549 H2563 0.958 . S
C2549 H2564 0.961 . S
C2549 H2565 0.960 . S
H2550 C2534 0.931 . S
H2551 C2539 0.929 . S
H2552 C2540 0.960 . S
H2553 C2540 0.962 . S
H2554 C2540 0.960 . S
H2555 C2541 0.961 . S
H2556 C2541 0.961 . S
H2557 C2541 0.961 . S
H2558 C2542 0.931 . S
H2559 C2547 0.930 . S
H2560 C2548 0.956 . S
H2561 C2548 0.961 . S
H2562 C2548 0.961 . S
H2563 C2549 0.958 . S
H2564 C2549 0.961 . S
H2565 C2549 0.960 . S
C2566 C2567 1.391 . S
C2566 C2568 1.394 . S
C2566 H2582 0.931 . S
C2567 C2566 1.391 . S
C2567 C2571 1.376 . S
C2568 C2566 1.394 . S
C2568 C2569 1.369 . S
C2568 C2572 1.531 . S
C2569 C2568 1.369 . S
C2569 C2570 1.410 . S
C2569 C2577 1.503 . S
C2570 C2569 1.410 . S
C2570 C2571 1.392 . S
C2570 C2573 1.511 . S
C2571 C2567 1.376 . S
C2571 C2570 1.392 . S
C2571 H2583 0.929 . S
C2572 C2568 1.531 . S
C2572 H2584 0.960 . S
C2572 H2585 0.962 . S
C2572 H2586 0.960 . S
C2573 C2570 1.511 . S
C2573 H2587 0.961 . S
C2573 H2588 0.961 . S
C2573 H2589 0.961 . S
C2574 C2575 1.370 . S
C2574 C2576 1.363 . S
C2574 H2590 0.931 . S
C2575 C2574 1.370 . S
C2575 C2579 1.408 . S
C2576 C2574 1.363 . S
C2576 C2577 1.370 . S
C2576 C2580 1.524 . S
C2577 C2569 1.503 . S
C2577 C2576 1.370 . S
C2577 C2578 1.403 . S
C2578 C2577 1.403 . S
C2578 C2579 1.404 . S
C2578 C2581 1.539 . S
C2579 C2575 1.408 . S
C2579 C2578 1.404 . S
C2579 H2591 0.930 . S
C2580 C2576 1.524 . S
C2580 H2592 0.956 . S
C2580 H2593 0.961 . S
C2580 H2594 0.961 . S
C2581 C2578 1.539 . S
C2581 H2595 0.958 . S
C2581 H2596 0.961 . S
C2581 H2597 0.960 . S
H2582 C2566 0.931 . S
H2583 C2571 0.929 . S
H2584 C2572 0.960 . S
H2585 C2572 0.962 . S
H2586 C2572 0.960 . S
H2587 C2573 0.961 . S
H2588 C2573 0.961 . S
H2589 C2573 0.961 . S
H2590 C2574 0.931 . S
H2591 C2579 0.930 . S
H2592 C2580 0.956 . S
H2593 C2580 0.961 . S
H2594 C2580 0.961 . S
H2595 C2581 0.958 . S
H2596 C2581 0.961 . S
H2597 C2581 0.960 . S
C2598 C2599 1.391 . S
C2598 C2600 1.394 . S
C2598 H2614 0.931 . S
C2599 C2598 1.391 . S
C2599 C2603 1.376 . S
C2600 C2598 1.394 . S
C2600 C2601 1.369 . S
C2600 C2604 1.531 . S
C2601 C2600 1.369 . S
C2601 C2602 1.410 . S
C2601 C2609 1.503 . S
C2602 C2601 1.410 . S
C2602 C2603 1.392 . S
C2602 C2605 1.511 . S
C2603 C2599 1.376 . S
C2603 C2602 1.392 . S
C2603 H2615 0.929 . S
C2604 C2600 1.531 . S
C2604 H2616 0.960 . S
C2604 H2617 0.962 . S
C2604 H2618 0.960 . S
C2605 C2602 1.511 . S
C2605 H2619 0.961 . S
C2605 H2620 0.961 . S
C2605 H2621 0.961 . S
C2606 C2607 1.370 . S
C2606 C2608 1.363 . S
C2606 H2622 0.931 . S
C2607 C2606 1.370 . S
C2607 C2611 1.408 . S
C2608 C2606 1.363 . S
C2608 C2609 1.370 . S
C2608 C2612 1.524 . S
C2609 C2601 1.503 . S
C2609 C2608 1.370 . S
C2609 C2610 1.403 . S
C2610 C2609 1.403 . S
C2610 C2611 1.404 . S
C2610 C2613 1.539 . S
C2611 C2607 1.408 . S
C2611 C2610 1.404 . S
C2611 H2623 0.930 . S
C2612 C2608 1.524 . S
C2612 H2624 0.956 . S
C2612 H2625 0.961 . S
C2612 H2626 0.961 . S
C2613 C2610 1.539 . S
C2613 H2627 0.958 . S
C2613 H2628 0.961 . S
C2613 H2629 0.960 . S
H2614 C2598 0.931 . S
H2615 C2603 0.929 . S
H2616 C2604 0.960 . S
H2617 C2604 0.962 . S
H2618 C2604 0.960 . S
H2619 C2605 0.961 . S
H2620 C2605 0.961 . S
H2621 C2605 0.961 . S
H2622 C2606 0.931 . S
H2623 C2611 0.930 . S
H2624 C2612 0.956 . S
H2625 C2612 0.961 . S
H2626 C2612 0.961 . S
H2627 C2613 0.958 . S
H2628 C2613 0.961 . S
H2629 C2613 0.960 . S
C2630 C2631 1.391 . S
C2630 C2632 1.394 . S
C2630 H2646 0.931 . S
C2631 C2630 1.391 . S
C2631 C2635 1.376 . S
C2632 C2630 1.394 . S
C2632 C2633 1.369 . S
C2632 C2636 1.531 . S
C2633 C2632 1.369 . S
C2633 C2634 1.410 . S
C2633 C2641 1.503 . S
C2634 C2633 1.410 . S
C2634 C2635 1.392 . S
C2634 C2637 1.511 . S
C2635 C2631 1.376 . S
C2635 C2634 1.392 . S
C2635 H2647 0.929 . S
C2636 C2632 1.531 . S
C2636 H2648 0.960 . S
C2636 H2649 0.962 . S
C2636 H2650 0.960 . S
C2637 C2634 1.511 . S
C2637 H2651 0.961 . S
C2637 H2652 0.961 . S
C2637 H2653 0.961 . S
C2638 C2639 1.370 . S
C2638 C2640 1.363 . S
C2638 H2654 0.931 . S
C2639 C2638 1.370 . S
C2639 C2643 1.408 . S
C2640 C2638 1.363 . S
C2640 C2641 1.370 . S
C2640 C2644 1.524 . S
C2641 C2633 1.503 . S
C2641 C2640 1.370 . S
C2641 C2642 1.403 . S
C2642 C2641 1.403 . S
C2642 C2643 1.404 . S
C2642 C2645 1.539 . S
C2643 C2639 1.408 . S
C2643 C2642 1.404 . S
C2643 H2655 0.930 . S
C2644 C2640 1.524 . S
C2644 H2656 0.956 . S
C2644 H2657 0.961 . S
C2644 H2658 0.961 . S
C2645 C2642 1.539 . S
C2645 H2659 0.958 . S
C2645 H2660 0.961 . S
C2645 H2661 0.960 . S
H2646 C2630 0.931 . S
H2647 C2635 0.929 . S
H2648 C2636 0.960 . S
H2649 C2636 0.962 . S
H2650 C2636 0.960 . S
H2651 C2637 0.961 . S
H2652 C2637 0.961 . S
H2653 C2637 0.961 . S
H2654 C2638 0.931 . S
H2655 C2643 0.930 . S
H2656 C2644 0.956 . S
H2657 C2644 0.961 . S
H2658 C2644 0.961 . S
H2659 C2645 0.958 . S
H2660 C2645 0.961 . S
H2661 C2645 0.960 . S
C2662 C2663 1.391 . S
C2662 C2664 1.394 . S
C2662 H2678 0.931 . S
C2663 C2662 1.391 . S
C2663 C2667 1.376 . S
C2664 C2662 1.394 . S
C2664 C2665 1.369 . S
C2664 C2668 1.531 . S
C2665 C2664 1.369 . S
C2665 C2666 1.410 . S
C2665 C2673 1.503 . S
C2666 C2665 1.410 . S
C2666 C2667 1.392 . S
C2666 C2669 1.511 . S
C2667 C2663 1.376 . S
C2667 C2666 1.392 . S
C2667 H2679 0.929 . S
C2668 C2664 1.531 . S
C2668 H2680 0.960 . S
C2668 H2681 0.962 . S
C2668 H2682 0.960 . S
C2669 C2666 1.511 . S
C2669 H2683 0.961 . S
C2669 H2684 0.961 . S
C2669 H2685 0.961 . S
C2670 C2671 1.370 . S
C2670 C2672 1.363 . S
C2670 H2686 0.931 . S
C2671 C2670 1.370 . S
C2671 C2675 1.408 . S
C2672 C2670 1.363 . S
C2672 C2673 1.370 . S
C2672 C2676 1.524 . S
C2673 C2665 1.503 . S
C2673 C2672 1.370 . S
C2673 C2674 1.403 . S
C2674 C2673 1.403 . S
C2674 C2675 1.404 . S
C2674 C2677 1.539 . S
C2675 C2671 1.408 . S
C2675 C2674 1.404 . S
C2675 H2687 0.930 . S
C2676 C2672 1.524 . S
C2676 H2688 0.956 . S
C2676 H2689 0.961 . S
C2676 H2690 0.961 . S
C2677 C2674 1.539 . S
C2677 H2691 0.958 . S
C2677 H2692 0.961 . S
C2677 H2693 0.960 . S
H2678 C2662 0.931 . S
H2679 C2667 0.929 . S
H2680 C2668 0.960 . S
H2681 C2668 0.962 . S
H2682 C2668 0.960 . S
H2683 C2669 0.961 . S
H2684 C2669 0.961 . S
H2685 C2669 0.961 . S
H2686 C2670 0.931 . S
H2687 C2675 0.930 . S
H2688 C2676 0.956 . S
H2689 C2676 0.961 . S
H2690 C2676 0.961 . S
H2691 C2677 0.958 . S
H2692 C2677 0.961 . S
H2693 C2677 0.960 . S
C2694 C2695 1.391 . S
C2694 C2696 1.394 . S
C2694 H2710 0.931 1_455 S
C2695 C2694 1.391 . S
C2695 C2699 1.376 . S
C2696 C2694 1.394 . S
C2696 C2697 1.369 . S
C2696 C2700 1.531 1_455 S
C2697 C2696 1.369 . S
C2697 C2698 1.410 . S
C2697 C2705 1.503 . S
C2698 C2697 1.410 . S
C2698 C2699 1.392 . S
C2698 C2701 1.511 . S
C2699 C2695 1.376 . S
C2699 C2698 1.392 . S
C2699 H2711 0.929 . S
C2700 C2696 1.531 1_655 S
C2700 H2712 0.960 . S
C2700 H2713 0.962 . S
C2700 H2714 0.960 . S
C2701 C2698 1.511 . S
C2701 H2715 0.961 . S
C2701 H2716 0.961 . S
C2701 H2717 0.961 . S
C2702 C2703 1.370 1_655 S
C2702 C2704 1.363 . S
C2702 H2718 0.931 . S
C2703 C2702 1.370 1_455 S
C2703 C2707 1.408 . S
C2704 C2702 1.363 . S
C2704 C2705 1.370 1_655 S
C2704 C2708 1.524 . S
C2705 C2697 1.503 . S
C2705 C2704 1.370 1_455 S
C2705 C2706 1.403 . S
C2706 C2705 1.403 . S
C2706 C2707 1.404 . S
C2706 C2709 1.539 . S
C2707 C2703 1.408 . S
C2707 C2706 1.404 . S
C2707 H2719 0.930 . S
C2708 C2704 1.524 . S
C2708 H2720 0.956 . S
C2708 H2721 0.961 . S
C2708 H2722 0.961 . S
C2709 C2706 1.539 . S
C2709 H2723 0.958 . S
C2709 H2724 0.961 . S
C2709 H2725 0.960 . S
H2710 C2694 0.931 1_655 S
H2711 C2699 0.929 . S
H2712 C2700 0.960 . S
H2713 C2700 0.962 . S
H2714 C2700 0.960 . S
H2715 C2701 0.961 . S
H2716 C2701 0.961 . S
H2717 C2701 0.961 . S
H2718 C2702 0.931 . S
H2719 C2707 0.930 . S
H2720 C2708 0.956 . S
H2721 C2708 0.961 . S
H2722 C2708 0.961 . S
H2723 C2709 0.958 . S
H2724 C2709 0.961 . S
H2725 C2709 0.960 . S
C2726 C2727 1.391 . S
C2726 C2728 1.394 . S
C2726 H2742 0.931 . S
C2727 C2726 1.391 . S
C2727 C2731 1.376 . S
C2728 C2726 1.394 . S
C2728 C2729 1.369 . S
C2728 C2732 1.531 . S
C2729 C2728 1.369 . S
C2729 C2730 1.410 . S
C2729 C2737 1.503 . S
C2730 C2729 1.410 . S
C2730 C2731 1.392 . S
C2730 C2733 1.511 . S
C2731 C2727 1.376 . S
C2731 C2730 1.392 . S
C2731 H2743 0.929 . S
C2732 C2728 1.531 . S
C2732 H2744 0.960 . S
C2732 H2745 0.962 . S
C2732 H2746 0.960 . S
C2733 C2730 1.511 . S
C2733 H2747 0.961 . S
C2733 H2748 0.961 . S
C2733 H2749 0.961 . S
C2734 C2735 1.370 . S
C2734 C2736 1.363 . S
C2734 H2750 0.931 . S
C2735 C2734 1.370 . S
C2735 C2739 1.408 . S
C2736 C2734 1.363 . S
C2736 C2737 1.370 . S
C2736 C2740 1.524 . S
C2737 C2729 1.503 . S
C2737 C2736 1.370 . S
C2737 C2738 1.403 . S
C2738 C2737 1.403 . S
C2738 C2739 1.404 . S
C2738 C2741 1.539 . S
C2739 C2735 1.408 . S
C2739 C2738 1.404 . S
C2739 H2751 0.930 . S
C2740 C2736 1.524 . S
C2740 H2752 0.956 . S
C2740 H2753 0.961 . S
C2740 H2754 0.961 . S
C2741 C2738 1.539 . S
C2741 H2755 0.958 . S
C2741 H2756 0.961 . S
C2741 H2757 0.960 . S
H2742 C2726 0.931 . S
H2743 C2731 0.929 . S
H2744 C2732 0.960 . S
H2745 C2732 0.962 . S
H2746 C2732 0.960 . S
H2747 C2733 0.961 . S
H2748 C2733 0.961 . S
H2749 C2733 0.961 . S
H2750 C2734 0.931 . S
H2751 C2739 0.930 . S
H2752 C2740 0.956 . S
H2753 C2740 0.961 . S
H2754 C2740 0.961 . S
H2755 C2741 0.958 . S
H2756 C2741 0.961 . S
H2757 C2741 0.960 . S
C2758 C2759 1.391 . S
C2758 C2760 1.394 . S
C2758 H2774 0.931 . S
C2759 C2758 1.391 . S
C2759 C2763 1.376 1_565 S
C2760 C2758 1.394 . S
C2760 C2761 1.369 . S
C2760 C2764 1.531 . S
C2761 C2760 1.369 . S
C2761 C2762 1.410 1_565 S
C2761 C2769 1.503 . S
C2762 C2761 1.410 1_545 S
C2762 C2763 1.392 . S
C2762 C2765 1.511 . S
C2763 C2759 1.376 1_545 S
C2763 C2762 1.392 . S
C2763 H2775 0.929 . S
C2764 C2760 1.531 . S
C2764 H2776 0.960 . S
C2764 H2777 0.962 . S
C2764 H2778 0.960 . S
C2765 C2762 1.511 . S
C2765 H2779 0.961 . S
C2765 H2780 0.961 . S
C2765 H2781 0.961 . S
C2766 C2767 1.370 . S
C2766 C2768 1.363 . S
C2766 H2782 0.931 . S
C2767 C2766 1.370 . S
C2767 C2771 1.416 . S
C2768 C2766 1.363 . S
C2768 C2769 1.370 . S
C2768 C2772 1.524 . S
C2769 C2761 1.503 . S
C2769 C2768 1.370 . S
C2769 C2770 1.403 . S
C2770 C2769 1.403 . S
C2770 C2771 1.398 . S
C2770 C2773 1.539 1_565 S
C2771 C2767 1.416 . S
C2771 C2770 1.398 . S
C2771 H2783 0.927 1_565 S
C2772 C2768 1.524 . S
C2772 H2784 0.956 . S
C2772 H2785 0.961 . S
C2772 H2786 0.961 . S
C2773 C2770 1.539 1_545 S
C2773 H2787 0.958 1_545 S
C2773 H2788 0.961 . S
C2773 H2789 0.960 . S
H2774 C2758 0.931 . S
H2775 C2763 0.929 . S
H2776 C2764 0.960 . S
H2777 C2764 0.962 . S
H2778 C2764 0.960 . S
H2779 C2765 0.961 . S
H2780 C2765 0.961 . S
H2781 C2765 0.961 . S
H2782 C2766 0.931 . S
H2783 C2771 0.927 1_545 S
H2784 C2772 0.956 . S
H2785 C2772 0.961 . S
H2786 C2772 0.961 . S
H2787 C2773 0.958 1_565 S
H2788 C2773 0.961 . S
H2789 C2773 0.960 . S
C2790 C2791 1.391 . S
C2790 C2792 1.394 . S
C2790 H2806 0.931 . S
C2791 C2790 1.391 . S
C2791 C2795 1.376 1_565 S
C2792 C2790 1.394 . S
C2792 C2793 1.369 . S
C2792 C2796 1.531 . S
C2793 C2792 1.369 . S
C2793 C2794 1.410 1_565 S
C2793 C2801 1.503 . S
C2794 C2793 1.410 1_545 S
C2794 C2795 1.392 . S
C2794 C2797 1.511 . S
C2795 C2791 1.376 1_545 S
C2795 C2794 1.392 . S
C2795 H2807 0.929 . S
C2796 C2792 1.531 . S
C2796 H2808 0.960 . S
C2796 H2809 0.962 . S
C2796 H2810 0.960 . S
C2797 C2794 1.511 . S
C2797 H2811 0.961 . S
C2797 H2812 0.961 . S
C2797 H2813 0.961 . S
C2798 C2799 1.370 . S
C2798 C2800 1.363 . S
C2798 H2814 0.931 . S
C2799 C2798 1.370 . S
C2799 C2803 1.408 1_565 S
C2800 C2798 1.363 . S
C2800 C2801 1.370 . S
C2800 C2804 1.524 . S
C2801 C2793 1.503 . S
C2801 C2800 1.370 . S
C2801 C2802 1.369 1_565 S
C2802 C2801 1.369 1_545 S
C2802 C2803 1.427 . S
C2802 C2805 1.555 . S
C2803 C2799 1.408 1_545 S
C2803 C2802 1.427 . S
C2803 H2815 0.930 . S
C2804 C2800 1.524 . S
C2804 H2816 0.956 . S
C2804 H2817 0.961 . S
C2804 H2818 0.961 . S
C2805 C2802 1.555 . S
C2805 H2819 0.958 1_545 S
C2805 H2820 0.961 . S
C2805 H2821 0.960 . S
H2806 C2790 0.931 . S
H2807 C2795 0.929 . S
H2808 C2796 0.960 . S
H2809 C2796 0.962 . S
H2810 C2796 0.960 . S
H2811 C2797 0.961 . S
H2812 C2797 0.961 . S
H2813 C2797 0.961 . S
H2814 C2798 0.931 . S
H2815 C2803 0.930 . S
H2816 C2804 0.956 . S
H2817 C2804 0.961 . S
H2818 C2804 0.961 . S
H2819 C2805 0.958 1_565 S
H2820 C2805 0.961 . S
H2821 C2805 0.960 . S
C2822 C2823 1.391 1_655 S
C2822 C2824 1.394 . S
C2822 H2838 0.931 . S
C2823 C2822 1.391 1_455 S
C2823 C2827 1.376 . S
C2824 C2822 1.394 . S
C2824 C2825 1.369 1_655 S
C2824 C2828 1.531 . S
C2825 C2824 1.369 1_455 S
C2825 C2826 1.410 . S
C2825 C2833 1.503 . S
C2826 C2825 1.410 . S
C2826 C2827 1.392 . S
C2826 C2829 1.511 . S
C2827 C2823 1.376 . S
C2827 C2826 1.392 . S
C2827 H2839 0.929 . S
C2828 C2824 1.531 . S
C2828 H2840 0.960 . S
C2828 H2841 0.962 . S
C2828 H2842 0.960 . S
C2829 C2826 1.511 . S
C2829 H2843 0.961 . S
C2829 H2844 0.961 . S
C2829 H2845 0.961 . S
C2830 C2831 1.370 . S
C2830 C2832 1.363 . S
C2830 H2846 0.931 . S
C2831 C2830 1.370 . S
C2831 C2835 1.439 . S
C2832 C2830 1.363 . S
C2832 C2833 1.370 . S
C2832 C2836 1.524 . S
C2833 C2825 1.503 . S
C2833 C2832 1.370 . S
C2833 C2834 1.403 . S
C2834 C2833 1.403 . S
C2834 C2835 1.383 . S
C2834 C2837 1.532 1_455 S
C2835 C2831 1.439 . S
C2835 C2834 1.383 . S
C2835 H2847 0.923 1_455 S
C2836 C2832 1.524 . S
C2836 H2848 0.956 . S
C2836 H2849 0.961 . S
C2836 H2850 0.961 . S
C2837 C2834 1.532 1_655 S
C2837 H2851 0.973 . S
C2837 H2852 0.955 1_655 S
C2837 H2853 0.958 1_655 S
H2838 C2822 0.931 . S
H2839 C2827 0.929 . S
H2840 C2828 0.960 . S
H2841 C2828 0.962 . S
H2842 C2828 0.960 . S
H2843 C2829 0.961 . S
H2844 C2829 0.961 . S
H2845 C2829 0.961 . S
H2846 C2830 0.931 . S
H2847 C2835 0.923 1_655 S
H2848 C2836 0.956 . S
H2849 C2836 0.961 . S
H2850 C2836 0.961 . S
H2851 C2837 0.973 . S
H2852 C2837 0.955 1_455 S
H2853 C2837 0.958 1_455 S
C2854 C2855 1.391 . S
C2854 C2856 1.394 . S
C2854 H2870 0.931 . S
C2855 C2854 1.391 . S
C2855 C2859 1.376 . S
C2856 C2854 1.394 . S
C2856 C2857 1.369 . S
C2856 C2860 1.531 . S
C2857 C2856 1.369 . S
C2857 C2858 1.410 . S
C2857 C2865 1.503 . S
C2858 C2857 1.410 . S
C2858 C2859 1.392 . S
C2858 C2861 1.511 . S
C2859 C2855 1.376 . S
C2859 C2858 1.392 . S
C2859 H2871 0.929 . S
C2860 C2856 1.531 . S
C2860 H2872 0.960 . S
C2860 H2873 0.962 . S
C2860 H2874 0.960 . S
C2861 C2858 1.511 . S
C2861 H2875 0.961 . S
C2861 H2876 0.961 . S
C2861 H2877 0.961 . S
C2862 C2863 1.370 . S
C2862 C2864 1.363 . S
C2862 H2878 0.931 . S
C2863 C2862 1.370 . S
C2863 C2867 1.408 . S
C2864 C2862 1.363 . S
C2864 C2865 1.370 . S
C2864 C2868 1.524 . S
C2865 C2857 1.503 . S
C2865 C2864 1.370 . S
C2865 C2866 1.403 . S
C2866 C2865 1.403 . S
C2866 C2867 1.404 . S
C2866 C2869 1.539 . S
C2867 C2863 1.408 . S
C2867 C2866 1.404 . S
C2867 H2879 0.930 . S
C2868 C2864 1.524 . S
C2868 H2880 0.956 . S
C2868 H2881 0.961 . S
C2868 H2882 0.961 . S
C2869 C2866 1.539 . S
C2869 H2883 0.958 . S
C2869 H2884 0.961 . S
C2869 H2885 0.960 . S
H2870 C2854 0.931 . S
H2871 C2859 0.929 . S
H2872 C2860 0.960 . S
H2873 C2860 0.962 . S
H2874 C2860 0.960 . S
H2875 C2861 0.961 . S
H2876 C2861 0.961 . S
H2877 C2861 0.961 . S
H2878 C2862 0.931 . S
H2879 C2867 0.930 . S
H2880 C2868 0.956 . S
H2881 C2868 0.961 . S
H2882 C2868 0.961 . S
H2883 C2869 0.958 . S
H2884 C2869 0.961 . S
H2885 C2869 0.960 . S
C2886 C2887 1.391 . S
C2886 C2888 1.394 . S
C2886 H2902 0.931 . S
C2887 C2886 1.391 . S
C2887 C2891 1.376 . S
C2888 C2886 1.394 . S
C2888 C2889 1.369 . S
C2888 C2892 1.531 . S
C2889 C2888 1.369 . S
C2889 C2890 1.410 . S
C2889 C2897 1.503 . S
C2890 C2889 1.410 . S
C2890 C2891 1.392 . S
C2890 C2893 1.511 . S
C2891 C2887 1.376 . S
C2891 C2890 1.392 . S
C2891 H2903 0.929 . S
C2892 C2888 1.531 . S
C2892 H2904 0.960 . S
C2892 H2905 0.962 . S
C2892 H2906 0.960 . S
C2893 C2890 1.511 . S
C2893 H2907 0.961 . S
C2893 H2908 0.961 . S
C2893 H2909 0.961 . S
C2894 C2895 1.370 . S
C2894 C2896 1.363 . S
C2894 H2910 0.931 . S
C2895 C2894 1.370 . S
C2895 C2899 1.408 . S
C2896 C2894 1.363 . S
C2896 C2897 1.370 . S
C2896 C2900 1.524 . S
C2897 C2889 1.503 . S
C2897 C2896 1.370 . S
C2897 C2898 1.403 . S
C2898 C2897 1.403 . S
C2898 C2899 1.404 . S
C2898 C2901 1.539 . S
C2899 C2895 1.408 . S
C2899 C2898 1.404 . S
C2899 H2911 0.930 . S
C2900 C2896 1.524 . S
C2900 H2912 0.956 . S
C2900 H2913 0.961 . S
C2900 H2914 0.961 . S
C2901 C2898 1.539 . S
C2901 H2915 0.958 . S
C2901 H2916 0.961 . S
C2901 H2917 0.960 . S
H2902 C2886 0.931 . S
H2903 C2891 0.929 . S
H2904 C2892 0.960 . S
H2905 C2892 0.962 . S
H2906 C2892 0.960 . S
H2907 C2893 0.961 . S
H2908 C2893 0.961 . S
H2909 C2893 0.961 . S
H2910 C2894 0.931 . S
H2911 C2899 0.930 . S
H2912 C2900 0.956 . S
H2913 C2900 0.961 . S
H2914 C2900 0.961 . S
H2915 C2901 0.958 . S
H2916 C2901 0.961 . S
H2917 C2901 0.960 . S
C2918 C2919 1.391 . S
C2918 C2920 1.394 . S
C2918 H2934 0.931 . S
C2919 C2918 1.391 . S
C2919 C2923 1.376 . S
C2920 C2918 1.394 . S
C2920 C2921 1.369 . S
C2920 C2924 1.531 . S
C2921 C2920 1.369 . S
C2921 C2922 1.410 . S
C2921 C2929 1.503 . S
C2922 C2921 1.410 . S
C2922 C2923 1.392 . S
C2922 C2925 1.511 . S
C2923 C2919 1.376 . S
C2923 C2922 1.392 . S
C2923 H2935 0.929 . S
C2924 C2920 1.531 . S
C2924 H2936 0.960 . S
C2924 H2937 0.962 . S
C2924 H2938 0.960 . S
C2925 C2922 1.511 . S
C2925 H2939 0.961 . S
C2925 H2940 0.961 . S
C2925 H2941 0.961 . S
C2926 C2927 1.370 . S
C2926 C2928 1.363 . S
C2926 H2942 0.931 . S
C2927 C2926 1.370 . S
C2927 C2931 1.408 . S
C2928 C2926 1.363 . S
C2928 C2929 1.370 . S
C2928 C2932 1.524 . S
C2929 C2921 1.503 . S
C2929 C2928 1.370 . S
C2929 C2930 1.403 . S
C2930 C2929 1.403 . S
C2930 C2931 1.404 . S
C2930 C2933 1.539 . S
C2931 C2927 1.408 . S
C2931 C2930 1.404 . S
C2931 H2943 0.930 . S
C2932 C2928 1.524 . S
C2932 H2944 0.956 . S
C2932 H2945 0.961 . S
C2932 H2946 0.961 . S
C2933 C2930 1.539 . S
C2933 H2947 0.958 . S
C2933 H2948 0.961 . S
C2933 H2949 0.960 . S
H2934 C2918 0.931 . S
H2935 C2923 0.929 . S
H2936 C2924 0.960 . S
H2937 C2924 0.962 . S
H2938 C2924 0.960 . S
H2939 C2925 0.961 . S
H2940 C2925 0.961 . S
H2941 C2925 0.961 . S
H2942 C2926 0.931 . S
H2943 C2931 0.930 . S
H2944 C2932 0.956 . S
H2945 C2932 0.961 . S
H2946 C2932 0.961 . S
H2947 C2933 0.958 . S
H2948 C2933 0.961 . S
H2949 C2933 0.960 . S
C2950 C2951 1.391 . S
C2950 C2952 1.394 . S
C2950 H2966 0.931 . S
C2951 C2950 1.391 . S
C2951 C2955 1.376 . S
C2952 C2950 1.394 . S
C2952 C2953 1.369 . S
C2952 C2956 1.531 . S
C2953 C2952 1.369 . S
C2953 C2954 1.410 . S
C2953 C2961 1.503 . S
C2954 C2953 1.410 . S
C2954 C2955 1.392 . S
C2954 C2957 1.511 . S
C2955 C2951 1.376 . S
C2955 C2954 1.392 . S
C2955 H2967 0.929 . S
C2956 C2952 1.531 . S
C2956 H2968 0.960 . S
C2956 H2969 0.962 . S
C2956 H2970 0.960 . S
C2957 C2954 1.511 . S
C2957 H2971 0.961 . S
C2957 H2972 0.961 . S
C2957 H2973 0.961 . S
C2958 C2959 1.370 . S
C2958 C2960 1.363 . S
C2958 H2974 0.931 . S
C2959 C2958 1.370 . S
C2959 C2963 1.408 . S
C2960 C2958 1.363 . S
C2960 C2961 1.370 . S
C2960 C2964 1.524 . S
C2961 C2953 1.503 . S
C2961 C2960 1.370 . S
C2961 C2962 1.403 . S
C2962 C2961 1.403 . S
C2962 C2963 1.404 . S
C2962 C2965 1.539 . S
C2963 C2959 1.408 . S
C2963 C2962 1.404 . S
C2963 H2975 0.930 . S
C2964 C2960 1.524 . S
C2964 H2976 0.956 . S
C2964 H2977 0.961 . S
C2964 H2978 0.961 . S
C2965 C2962 1.539 . S
C2965 H2979 0.958 . S
C2965 H2980 0.961 . S
C2965 H2981 0.960 . S
H2966 C2950 0.931 . S
H2967 C2955 0.929 . S
H2968 C2956 0.960 . S
H2969 C2956 0.962 . S
H2970 C2956 0.960 . S
H2971 C2957 0.961 . S
H2972 C2957 0.961 . S
H2973 C2957 0.961 . S
H2974 C2958 0.931 . S
H2975 C2963 0.930 . S
H2976 C2964 0.956 . S
H2977 C2964 0.961 . S
H2978 C2964 0.961 . S
H2979 C2965 0.958 . S
H2980 C2965 0.961 . S
H2981 C2965 0.960 . S
C2982 C2983 1.391 . S
C2982 C2984 1.394 . S
C2982 H2998 0.931 . S
C2983 C2982 1.391 . S
C2983 C2987 1.376 . S
C2984 C2982 1.394 . S
C2984 C2985 1.369 . S
C2984 C2988 1.527 1_545 S
C2985 C2984 1.369 . S
C2985 C2986 1.410 . S
C2985 C2993 1.503 . S
C2986 C2985 1.410 . S
C2986 C2987 1.392 . S
C2986 C2989 1.511 . S
C2987 C2983 1.376 . S
C2987 C2986 1.392 . S
C2987 H2999 0.929 . S
C2988 C2984 1.527 1_565 S
C2988 H3000 0.982 . S
C2988 H3001 0.944 1_565 S
C2988 H3002 0.961 . S
C2989 C2986 1.511 . S
C2989 H3003 0.961 . S
C2989 H3004 0.961 . S
C2989 H3005 0.961 1_545 S
C2990 C2991 1.370 . S
C2990 C2992 1.363 . S
C2990 H3006 0.931 . S
C2991 C2990 1.370 . S
C2991 C2995 1.408 1_545 S
C2992 C2990 1.363 . S
C2992 C2993 1.370 . S
C2992 C2996 1.524 . S
C2993 C2985 1.503 . S
C2993 C2992 1.370 . S
C2993 C2994 1.403 1_545 S
C2994 C2993 1.403 1_565 S
C2994 C2995 1.404 . S
C2994 C2997 1.539 . S
C2995 C2991 1.408 1_565 S
C2995 C2994 1.404 . S
C2995 H3007 0.930 . S
C2996 C2992 1.524 . S
C2996 H3008 0.956 . S
C2996 H3009 0.961 . S
C2996 H3010 0.961 . S
C2997 C2994 1.539 . S
C2997 H3011 0.958 . S
C2997 H3012 0.961 . S
C2997 H3013 0.960 . S
H2998 C2982 0.931 . S
H2999 C2987 0.929 . S
H3000 C2988 0.982 . S
H3001 C2988 0.944 1_545 S
H3002 C2988 0.961 . S
H3003 C2989 0.961 . S
H3004 C2989 0.961 . S
H3005 C2989 0.961 1_565 S
H3006 C2990 0.931 . S
H3007 C2995 0.930 . S
H3008 C2996 0.956 . S
H3009 C2996 0.961 . S
H3010 C2996 0.961 . S
H3011 C2997 0.958 . S
H3012 C2997 0.961 . S
H3013 C2997 0.960 . S
C3014 C3015 1.391 . S
C3014 C3016 1.394 . S
C3014 H3030 0.931 . S
C3015 C3014 1.391 . S
C3015 C3019 1.376 . S
C3016 C3014 1.394 . S
C3016 C3017 1.369 . S
C3016 C3020 1.531 . S
C3017 C3016 1.369 . S
C3017 C3018 1.410 . S
C3017 C3025 1.503 . S
C3018 C3017 1.410 . S
C3018 C3019 1.392 . S
C3018 C3021 1.534 1_655 S
C3019 C3015 1.376 . S
C3019 C3018 1.392 . S
C3019 H3031 0.929 . S
C3020 C3016 1.531 . S
C3020 H3032 0.960 1_655 S
C3020 H3033 0.962 . S
C3020 H3034 0.960 . S
C3021 C3018 1.534 1_455 S
C3021 H3035 0.937 1_455 S
C3021 H3036 0.907 1_455 S
C3021 H3037 1.022 . S
C3022 C3023 1.370 . S
C3022 C3024 1.363 . S
C3022 H3038 0.931 . S
C3023 C3022 1.370 . S
C3023 C3027 1.408 1_655 S
C3024 C3022 1.363 . S
C3024 C3025 1.370 . S
C3024 C3028 1.524 . S
C3025 C3017 1.503 . S
C3025 C3024 1.370 . S
C3025 C3026 1.403 1_655 S
C3026 C3025 1.403 1_455 S
C3026 C3027 1.404 . S
C3026 C3029 1.539 . S
C3027 C3023 1.408 1_455 S
C3027 C3026 1.404 . S
C3027 H3039 0.930 . S
C3028 C3024 1.524 . S
C3028 H3040 0.956 . S
C3028 H3041 0.961 . S
C3028 H3042 0.961 . S
C3029 C3026 1.539 . S
C3029 H3043 0.958 . S
C3029 H3044 0.961 . S
C3029 H3045 0.960 . S
H3030 C3014 0.931 . S
H3031 C3019 0.929 . S
H3032 C3020 0.960 1_455 S
H3033 C3020 0.962 . S
H3034 C3020 0.960 . S
H3035 C3021 0.937 1_655 S
H3036 C3021 0.907 1_655 S
H3037 C3021 1.022 . S
H3038 C3022 0.931 . S
H3039 C3027 0.930 . S
H3040 C3028 0.956 . S
H3041 C3028 0.961 . S
H3042 C3028 0.961 . S
H3043 C3029 0.958 . S
H3044 C3029 0.961 . S
H3045 C3029 0.960 . S
C3046 C3047 1.391 . S
C3046 C3048 1.394 . S
C3046 H3062 0.931 . S
C3047 C3046 1.391 . S
C3047 C3051 1.376 . S
C3048 C3046 1.394 . S
C3048 C3049 1.369 . S
C3048 C3052 1.531 . S
C3049 C3048 1.369 . S
C3049 C3050 1.410 . S
C3049 C3057 1.503 . S
C3050 C3049 1.410 . S
C3050 C3051 1.392 . S
C3050 C3053 1.511 . S
C3051 C3047 1.376 . S
C3051 C3050 1.392 . S
C3051 H3063 0.929 . S
C3052 C3048 1.531 . S
C3052 H3064 0.960 . S
C3052 H3065 0.962 . S
C3052 H3066 0.960 . S
C3053 C3050 1.511 . S
C3053 H3067 0.961 . S
C3053 H3068 0.961 . S
C3053 H3069 0.961 . S
C3054 C3055 1.370 . S
C3054 C3056 1.363 . S
C3054 H3070 0.931 . S
C3055 C3054 1.370 . S
C3055 C3059 1.408 . S
C3056 C3054 1.363 . S
C3056 C3057 1.370 . S
C3056 C3060 1.524 . S
C3057 C3049 1.503 . S
C3057 C3056 1.370 . S
C3057 C3058 1.403 . S
C3058 C3057 1.403 . S
C3058 C3059 1.404 . S
C3058 C3061 1.539 . S
C3059 C3055 1.408 . S
C3059 C3058 1.404 . S
C3059 H3071 0.930 . S
C3060 C3056 1.524 . S
C3060 H3072 0.956 . S
C3060 H3073 0.961 . S
C3060 H3074 0.961 . S
C3061 C3058 1.539 . S
C3061 H3075 0.958 . S
C3061 H3076 0.961 . S
C3061 H3077 0.960 . S
H3062 C3046 0.931 . S
H3063 C3051 0.929 . S
H3064 C3052 0.960 . S
H3065 C3052 0.962 . S
H3066 C3052 0.960 . S
H3067 C3053 0.961 . S
H3068 C3053 0.961 . S
H3069 C3053 0.961 . S
H3070 C3054 0.931 . S
H3071 C3059 0.930 . S
H3072 C3060 0.956 . S
H3073 C3060 0.961 . S
H3074 C3060 0.961 . S
H3075 C3061 0.958 . S
H3076 C3061 0.961 . S
H3077 C3061 0.960 . S
C3078 C3079 1.391 . S
C3078 C3080 1.394 . S
C3078 H3094 0.931 . S
C3079 C3078 1.391 . S
C3079 C3083 1.376 . S
C3080 C3078 1.394 . S
C3080 C3081 1.369 . S
C3080 C3084 1.531 . S
C3081 C3080 1.369 . S
C3081 C3082 1.410 . S
C3081 C3089 1.503 . S
C3082 C3081 1.410 . S
C3082 C3083 1.392 . S
C3082 C3085 1.511 . S
C3083 C3079 1.376 . S
C3083 C3082 1.392 . S
C3083 H3095 0.929 . S
C3084 C3080 1.531 . S
C3084 H3096 0.960 . S
C3084 H3097 0.962 . S
C3084 H3098 0.960 . S
C3085 C3082 1.511 . S
C3085 H3099 0.961 . S
C3085 H3100 0.961 . S
C3085 H3101 0.961 . S
C3086 C3087 1.370 . S
C3086 C3088 1.363 . S
C3086 H3102 0.931 . S
C3087 C3086 1.370 . S
C3087 C3091 1.408 . S
C3088 C3086 1.363 . S
C3088 C3089 1.370 . S
C3088 C3092 1.524 . S
C3089 C3081 1.503 . S
C3089 C3088 1.370 . S
C3089 C3090 1.403 . S
C3090 C3089 1.403 . S
C3090 C3091 1.404 . S
C3090 C3093 1.539 . S
C3091 C3087 1.408 . S
C3091 C3090 1.404 . S
C3091 H3103 0.930 . S
C3092 C3088 1.524 . S
C3092 H3104 0.956 . S
C3092 H3105 0.961 . S
C3092 H3106 0.961 . S
C3093 C3090 1.539 . S
C3093 H3107 0.958 . S
C3093 H3108 0.961 . S
C3093 H3109 0.960 . S
H3094 C3078 0.931 . S
H3095 C3083 0.929 . S
H3096 C3084 0.960 . S
H3097 C3084 0.962 . S
H3098 C3084 0.960 . S
H3099 C3085 0.961 . S
H3100 C3085 0.961 . S
H3101 C3085 0.961 . S
H3102 C3086 0.931 . S
H3103 C3091 0.930 . S
H3104 C3092 0.956 . S
H3105 C3092 0.961 . S
H3106 C3092 0.961 . S
H3107 C3093 0.958 . S
H3108 C3093 0.961 . S
H3109 C3093 0.960 . S
C3110 C3111 1.391 . S
C3110 C3112 1.394 . S
C3110 H3126 0.931 . S
C3111 C3110 1.391 . S
C3111 C3115 1.376 . S
C3112 C3110 1.394 . S
C3112 C3113 1.369 . S
C3112 C3116 1.531 . S
C3113 C3112 1.369 . S
C3113 C3114 1.410 . S
C3113 C3121 1.503 . S
C3114 C3113 1.410 . S
C3114 C3115 1.392 . S
C3114 C3117 1.511 . S
C3115 C3111 1.376 . S
C3115 C3114 1.392 . S
C3115 H3127 0.929 . S
C3116 C3112 1.531 . S
C3116 H3128 0.960 . S
C3116 H3129 0.962 . S
C3116 H3130 0.960 . S
C3117 C3114 1.511 . S
C3117 H3131 0.961 . S
C3117 H3132 0.961 . S
C3117 H3133 0.961 . S
C3118 C3119 1.370 . S
C3118 C3120 1.363 . S
C3118 H3134 0.931 . S
C3119 C3118 1.370 . S
C3119 C3123 1.408 . S
C3120 C3118 1.363 . S
C3120 C3121 1.370 . S
C3120 C3124 1.524 . S
C3121 C3113 1.503 . S
C3121 C3120 1.370 . S
C3121 C3122 1.403 . S
C3122 C3121 1.403 . S
C3122 C3123 1.404 . S
C3122 C3125 1.539 . S
C3123 C3119 1.408 . S
C3123 C3122 1.404 . S
C3123 H3135 0.930 . S
C3124 C3120 1.524 . S
C3124 H3136 0.956 . S
C3124 H3137 0.961 . S
C3124 H3138 0.961 . S
C3125 C3122 1.539 . S
C3125 H3139 0.958 . S
C3125 H3140 0.961 . S
C3125 H3141 0.960 . S
H3126 C3110 0.931 . S
H3127 C3115 0.929 . S
H3128 C3116 0.960 . S
H3129 C3116 0.962 . S
H3130 C3116 0.960 . S
H3131 C3117 0.961 . S
H3132 C3117 0.961 . S
H3133 C3117 0.961 . S
H3134 C3118 0.931 . S
H3135 C3123 0.930 . S
H3136 C3124 0.956 . S
H3137 C3124 0.961 . S
H3138 C3124 0.961 . S
H3139 C3125 0.958 . S
H3140 C3125 0.961 . S
H3141 C3125 0.960 . S
C3142 C3143 1.391 . S
C3142 C3144 1.394 . S
C3142 H3158 0.931 . S
C3143 C3142 1.391 . S
C3143 C3147 1.376 . S
C3144 C3142 1.394 . S
C3144 C3145 1.369 . S
C3144 C3148 1.531 . S
C3145 C3144 1.369 . S
C3145 C3146 1.410 . S
C3145 C3153 1.503 . S
C3146 C3145 1.410 . S
C3146 C3147 1.392 . S
C3146 C3149 1.511 . S
C3147 C3143 1.376 . S
C3147 C3146 1.392 . S
C3147 H3159 0.929 . S
C3148 C3144 1.531 . S
C3148 H3160 0.960 . S
C3148 H3161 0.962 . S
C3148 H3162 0.960 . S
C3149 C3146 1.511 . S
C3149 H3163 0.961 . S
C3149 H3164 0.961 . S
C3149 H3165 0.961 . S
C3150 C3151 1.370 . S
C3150 C3152 1.363 . S
C3150 H3166 0.931 . S
C3151 C3150 1.370 . S
C3151 C3155 1.408 . S
C3152 C3150 1.363 . S
C3152 C3153 1.370 . S
C3152 C3156 1.524 . S
C3153 C3145 1.503 . S
C3153 C3152 1.370 . S
C3153 C3154 1.403 . S
C3154 C3153 1.403 . S
C3154 C3155 1.404 . S
C3154 C3157 1.539 . S
C3155 C3151 1.408 . S
C3155 C3154 1.404 . S
C3155 H3167 0.930 . S
C3156 C3152 1.524 . S
C3156 H3168 0.956 . S
C3156 H3169 0.961 . S
C3156 H3170 0.961 . S
C3157 C3154 1.539 . S
C3157 H3171 0.958 . S
C3157 H3172 0.961 . S
C3157 H3173 0.960 . S
H3158 C3142 0.931 . S
H3159 C3147 0.929 . S
H3160 C3148 0.960 . S
H3161 C3148 0.962 . S
H3162 C3148 0.960 . S
H3163 C3149 0.961 . S
H3164 C3149 0.961 . S
H3165 C3149 0.961 . S
H3166 C3150 0.931 . S
H3167 C3155 0.930 . S
H3168 C3156 0.956 . S
H3169 C3156 0.961 . S
H3170 C3156 0.961 . S
H3171 C3157 0.958 . S
H3172 C3157 0.961 . S
H3173 C3157 0.960 . S
C3174 C3175 1.391 . S
C3174 C3176 1.394 . S
C3174 H3190 0.931 . S
C3175 C3174 1.391 . S
C3175 C3179 1.376 . S
C3176 C3174 1.394 . S
C3176 C3177 1.369 . S
C3176 C3180 1.531 . S
C3177 C3176 1.369 . S
C3177 C3178 1.410 . S
C3177 C3185 1.503 . S
C3178 C3177 1.410 . S
C3178 C3179 1.392 . S
C3178 C3181 1.511 . S
C3179 C3175 1.376 . S
C3179 C3178 1.392 . S
C3179 H3191 0.929 . S
C3180 C3176 1.531 . S
C3180 H3192 0.960 . S
C3180 H3193 0.962 . S
C3180 H3194 0.960 . S
C3181 C3178 1.511 . S
C3181 H3195 0.961 . S
C3181 H3196 0.961 . S
C3181 H3197 0.961 . S
C3182 C3183 1.370 . S
C3182 C3184 1.363 . S
C3182 H3198 0.931 . S
C3183 C3182 1.370 . S
C3183 C3187 1.408 . S
C3184 C3182 1.363 . S
C3184 C3185 1.370 . S
C3184 C3188 1.524 . S
C3185 C3177 1.503 . S
C3185 C3184 1.370 . S
C3185 C3186 1.403 . S
C3186 C3185 1.403 . S
C3186 C3187 1.404 . S
C3186 C3189 1.539 . S
C3187 C3183 1.408 . S
C3187 C3186 1.404 . S
C3187 H3199 0.930 . S
C3188 C3184 1.524 . S
C3188 H3200 0.956 . S
C3188 H3201 0.961 . S
C3188 H3202 0.961 . S
C3189 C3186 1.539 . S
C3189 H3203 0.958 . S
C3189 H3204 0.961 . S
C3189 H3205 0.960 . S
H3190 C3174 0.931 . S
H3191 C3179 0.929 . S
H3192 C3180 0.960 . S
H3193 C3180 0.962 . S
H3194 C3180 0.960 . S
H3195 C3181 0.961 . S
H3196 C3181 0.961 . S
H3197 C3181 0.961 . S
H3198 C3182 0.931 . S
H3199 C3187 0.930 . S
H3200 C3188 0.956 . S
H3201 C3188 0.961 . S
H3202 C3188 0.961 . S
H3203 C3189 0.958 . S
H3204 C3189 0.961 . S
H3205 C3189 0.960 . S
C3206 C3207 1.391 . S
C3206 C3208 1.394 . S
C3206 H3222 0.931 . S
C3207 C3206 1.391 . S
C3207 C3211 1.376 . S
C3208 C3206 1.394 . S
C3208 C3209 1.369 . S
C3208 C3212 1.531 . S
C3209 C3208 1.369 . S
C3209 C3210 1.410 . S
C3209 C3217 1.503 . S
C3210 C3209 1.410 . S
C3210 C3211 1.392 . S
C3210 C3213 1.511 . S
C3211 C3207 1.376 . S
C3211 C3210 1.392 . S
C3211 H3223 0.929 . S
C3212 C3208 1.531 . S
C3212 H3224 0.960 . S
C3212 H3225 0.962 . S
C3212 H3226 0.960 . S
C3213 C3210 1.511 . S
C3213 H3227 0.961 . S
C3213 H3228 0.961 . S
C3213 H3229 0.961 . S
C3214 C3215 1.370 . S
C3214 C3216 1.363 . S
C3214 H3230 0.931 . S
C3215 C3214 1.370 . S
C3215 C3219 1.408 . S
C3216 C3214 1.363 . S
C3216 C3217 1.370 . S
C3216 C3220 1.524 . S
C3217 C3209 1.503 . S
C3217 C3216 1.370 . S
C3217 C3218 1.403 . S
C3218 C3217 1.403 . S
C3218 C3219 1.404 . S
C3218 C3221 1.539 . S
C3219 C3215 1.408 . S
C3219 C3218 1.404 . S
C3219 H3231 0.930 . S
C3220 C3216 1.524 . S
C3220 H3232 0.956 . S
C3220 H3233 0.961 . S
C3220 H3234 0.961 . S
C3221 C3218 1.539 . S
C3221 H3235 0.958 . S
C3221 H3236 0.961 . S
C3221 H3237 0.960 . S
H3222 C3206 0.931 . S
H3223 C3211 0.929 . S
H3224 C3212 0.960 . S
H3225 C3212 0.962 . S
H3226 C3212 0.960 . S
H3227 C3213 0.961 . S
H3228 C3213 0.961 . S
H3229 C3213 0.961 . S
H3230 C3214 0.931 . S
H3231 C3219 0.930 . S
H3232 C3220 0.956 . S
H3233 C3220 0.961 . S
H3234 C3220 0.961 . S
H3235 C3221 0.958 . S
H3236 C3221 0.961 . S
H3237 C3221 0.960 . S
C3238 C3239 1.391 . S
C3238 C3240 1.394 . S
C3238 H3254 0.931 . S
C3239 C3238 1.391 . S
C3239 C3243 1.376 . S
C3240 C3238 1.394 . S
C3240 C3241 1.369 . S
C3240 C3244 1.531 . S
C3241 C3240 1.369 . S
C3241 C3242 1.410 . S
C3241 C3249 1.503 . S
C3242 C3241 1.410 . S
C3242 C3243 1.392 . S
C3242 C3245 1.511 . S
C3243 C3239 1.376 . S
C3243 C3242 1.392 . S
C3243 H3255 0.929 . S
C3244 C3240 1.531 . S
C3244 H3256 0.960 . S
C3244 H3257 0.962 . S
C3244 H3258 0.960 . S
C3245 C3242 1.511 . S
C3245 H3259 0.961 . S
C3245 H3260 0.961 . S
C3245 H3261 0.961 . S
C3246 C3247 1.370 . S
C3246 C3248 1.363 . S
C3246 H3262 0.931 . S
C3247 C3246 1.370 . S
C3247 C3251 1.408 . S
C3248 C3246 1.363 . S
C3248 C3249 1.370 . S
C3248 C3252 1.524 . S
C3249 C3241 1.503 . S
C3249 C3248 1.370 . S
C3249 C3250 1.403 . S
C3250 C3249 1.403 . S
C3250 C3251 1.404 . S
C3250 C3253 1.539 . S
C3251 C3247 1.408 . S
C3251 C3250 1.404 . S
C3251 H3263 0.930 . S
C3252 C3248 1.524 . S
C3252 H3264 0.956 . S
C3252 H3265 0.961 . S
C3252 H3266 0.961 . S
C3253 C3250 1.539 . S
C3253 H3267 0.958 . S
C3253 H3268 0.961 . S
C3253 H3269 0.960 . S
H3254 C3238 0.931 . S
H3255 C3243 0.929 . S
H3256 C3244 0.960 . S
H3257 C3244 0.962 . S
H3258 C3244 0.960 . S
H3259 C3245 0.961 . S
H3260 C3245 0.961 . S
H3261 C3245 0.961 . S
H3262 C3246 0.931 . S
H3263 C3251 0.930 . S
H3264 C3252 0.956 . S
H3265 C3252 0.961 . S
H3266 C3252 0.961 . S
H3267 C3253 0.958 . S
H3268 C3253 0.961 . S
H3269 C3253 0.960 . S
C3270 C3271 1.391 . S
C3270 C3272 1.394 . S
C3270 H3286 0.931 . S
C3271 C3270 1.391 . S
C3271 C3275 1.376 1_655 S
C3272 C3270 1.394 . S
C3272 C3273 1.369 . S
C3272 C3276 1.531 . S
C3273 C3272 1.369 . S
C3273 C3274 1.410 1_655 S
C3273 C3281 1.503 . S
C3274 C3273 1.410 1_455 S
C3274 C3275 1.392 . S
C3274 C3277 1.511 . S
C3275 C3271 1.376 1_455 S
C3275 C3274 1.392 . S
C3275 H3287 0.929 . S
C3276 C3272 1.531 . S
C3276 H3288 0.960 . S
C3276 H3289 0.962 . S
C3276 H3290 0.960 . S
C3277 C3274 1.511 . S
C3277 H3291 0.961 . S
C3277 H3292 0.961 . S
C3277 H3293 0.961 . S
C3278 C3279 1.370 . S
C3278 C3280 1.363 . S
C3278 H3294 0.931 . S
C3279 C3278 1.370 . S
C3279 C3283 1.408 1_655 S
C3280 C3278 1.363 . S
C3280 C3281 1.370 . S
C3280 C3284 1.524 . S
C3281 C3273 1.503 . S
C3281 C3280 1.370 . S
C3281 C3282 1.403 1_655 S
C3282 C3281 1.403 1_455 S
C3282 C3283 1.404 . S
C3282 C3285 1.539 . S
C3283 C3279 1.408 1_455 S
C3283 C3282 1.404 . S
C3283 H3295 0.930 . S
C3284 C3280 1.524 . S
C3284 H3296 0.956 . S
C3284 H3297 0.961 . S
C3284 H3298 0.961 . S
C3285 C3282 1.539 . S
C3285 H3299 0.959 . S
C3285 H3300 0.961 . S
C3285 H3301 0.960 . S
H3286 C3270 0.931 . S
H3287 C3275 0.929 . S
H3288 C3276 0.960 . S
H3289 C3276 0.962 . S
H3290 C3276 0.960 . S
H3291 C3277 0.961 . S
H3292 C3277 0.961 . S
H3293 C3277 0.961 . S
H3294 C3278 0.931 . S
H3295 C3283 0.930 . S
H3296 C3284 0.956 . S
H3297 C3284 0.961 . S
H3298 C3284 0.961 . S
H3299 C3285 0.959 . S
H3300 C3285 0.961 . S
H3301 C3285 0.960 . S
C3302 C3303 1.391 . S
C3302 C3304 1.394 . S
C3302 H3318 0.931 . S
C3303 C3302 1.391 . S
C3303 C3307 1.376 . S
C3304 C3302 1.394 . S
C3304 C3305 1.369 . S
C3304 C3308 1.531 . S
C3305 C3304 1.369 . S
C3305 C3306 1.410 . S
C3305 C3313 1.503 . S
C3306 C3305 1.410 . S
C3306 C3307 1.392 . S
C3306 C3309 1.511 . S
C3307 C3303 1.376 . S
C3307 C3306 1.392 . S
C3307 H3319 0.929 . S
C3308 C3304 1.531 . S
C3308 H3320 0.960 . S
C3308 H3321 0.962 . S
C3308 H3322 0.960 . S
C3309 C3306 1.511 . S
C3309 H3323 0.961 . S
C3309 H3324 0.961 . S
C3309 H3325 0.961 . S
C3310 C3311 1.370 . S
C3310 C3312 1.363 . S
C3310 H3326 0.931 . S
C3311 C3310 1.370 . S
C3311 C3315 1.408 . S
C3312 C3310 1.363 . S
C3312 C3313 1.370 . S
C3312 C3316 1.524 . S
C3313 C3305 1.503 . S
C3313 C3312 1.370 . S
C3313 C3314 1.403 . S
C3314 C3313 1.403 . S
C3314 C3315 1.404 . S
C3314 C3317 1.539 . S
C3315 C3311 1.408 . S
C3315 C3314 1.404 . S
C3315 H3327 0.930 . S
C3316 C3312 1.524 . S
C3316 H3328 0.956 . S
C3316 H3329 0.961 . S
C3316 H3330 0.961 . S
C3317 C3314 1.539 . S
C3317 H3331 0.958 . S
C3317 H3332 0.961 . S
C3317 H3333 0.960 . S
H3318 C3302 0.931 . S
H3319 C3307 0.929 . S
H3320 C3308 0.960 . S
H3321 C3308 0.962 . S
H3322 C3308 0.960 . S
H3323 C3309 0.961 . S
H3324 C3309 0.961 . S
H3325 C3309 0.961 . S
H3326 C3310 0.931 . S
H3327 C3315 0.930 . S
H3328 C3316 0.956 . S
H3329 C3316 0.961 . S
H3330 C3316 0.961 . S
H3331 C3317 0.958 . S
H3332 C3317 0.961 . S
H3333 C3317 0.960 . S
C3334 C3335 1.391 . S
C3334 C3336 1.394 . S
C3334 H3350 0.931 . S
C3335 C3334 1.391 . S
C3335 C3339 1.376 . S
C3336 C3334 1.394 . S
C3336 C3337 1.369 . S
C3336 C3340 1.531 . S
C3337 C3336 1.369 . S
C3337 C3338 1.410 . S
C3337 C3345 1.503 . S
C3338 C3337 1.410 . S
C3338 C3339 1.392 . S
C3338 C3341 1.511 . S
C3339 C3335 1.376 . S
C3339 C3338 1.392 . S
C3339 H3351 0.929 . S
C3340 C3336 1.531 . S
C3340 H3352 0.960 . S
C3340 H3353 0.962 . S
C3340 H3354 0.960 . S
C3341 C3338 1.511 . S
C3341 H3355 0.961 1_545 S
C3341 H3356 0.961 1_545 S
C3341 H3357 0.961 . S
C3342 C3343 1.370 1_565 S
C3342 C3344 1.363 . S
C3342 H3358 0.931 . S
C3343 C3342 1.370 1_545 S
C3343 C3347 1.408 . S
C3344 C3342 1.363 . S
C3344 C3345 1.370 1_565 S
C3344 C3348 1.524 . S
C3345 C3337 1.503 . S
C3345 C3344 1.370 1_545 S
C3345 C3346 1.403 . S
C3346 C3345 1.403 . S
C3346 C3347 1.404 . S
C3346 C3349 1.539 . S
C3347 C3343 1.408 . S
C3347 C3346 1.404 . S
C3347 H3359 0.930 . S
C3348 C3344 1.524 . S
C3348 H3360 0.956 . S
C3348 H3361 0.961 . S
C3348 H3362 0.961 . S
C3349 C3346 1.539 . S
C3349 H3363 0.958 . S
C3349 H3364 0.961 . S
C3349 H3365 0.960 . S
H3350 C3334 0.931 . S
H3351 C3339 0.929 . S
H3352 C3340 0.960 . S
H3353 C3340 0.962 . S
H3354 C3340 0.960 . S
H3355 C3341 0.961 1_565 S
H3356 C3341 0.961 1_565 S
H3357 C3341 0.961 . S
H3358 C3342 0.931 . S
H3359 C3347 0.930 . S
H3360 C3348 0.956 . S
H3361 C3348 0.961 . S
H3362 C3348 0.961 . S
H3363 C3349 0.958 . S
H3364 C3349 0.961 . S
H3365 C3349 0.960 . S
C1063 C10 1.543 1_655 S
C1071 C670 1.554 . S
C1095 C23 1.603 . S
C1103 C716 1.596 . S
C1135 C748 1.559 . S
C1127 C29 1.552 . S
C1159 C30 1.551 1_565 S
C1167 C801 1.556 . S
C1191 C5 1.556 . S
C1199 C847 1.566 . S
C1223 C18 1.617 . S
C1231 C886 1.611 . S
C1255 C49 1.588 . S
C1263 C840 1.550 . S
C1295 C893 1.601 . S
C1287 C62 1.603 . S
C1327 C794 1.568 . S
C1319 C70 1.561 . S
C1351 C75 1.565 . S
C1359 C755 1.546 . S
C1391 C649 1.569 . S
C1383 C44 1.557 . S
C1415 C57 1.610 . S
C1423 C695 1.609 . S
C1447 C88 1.647 . S
C1455 C925 1.645 . S
C1479 C101 1.646 . S
C1487 C992 1.643 . S
C1519 C1038 1.617 . S
C1511 C107 1.630 . S
C1543 C108 1.608 . S
C1551 C249 1.604 . S
C1575 C83 1.630 . S
C1583 C295 1.630 . S
C1607 C96 1.636 . S
C1615 C341 1.627 . S
C1639 C127 1.608 . S
C1647 C288 1.592 . S
C1671 C140 1.627 . S
C1679 C334 1.611 . S
C1711 C242 1.623 . S
C1703 C146 1.631 . S
C1743 C1017 1.643 . S
C1735 C147 1.654 . S
C1775 C946 1.641 . S
C1767 C122 1.642 . S
C1807 C971 1.646 . S
C1799 C135 1.662 . S
C1831 C160 1.613 . S
C1839 C373 1.610 . S
C1863 C173 1.626 . S
C1871 C426 1.628 . S
C1895 C185 1.631 . S
C1903 C472 1.628 . S
C1927 C186 1.645 . S
C1935 C518 1.648 . S
C1967 C571 1.627 . S
C1959 C159 1.645 . S
C1999 C617 1.640 . S
C1991 C172 1.654 . S
C2031 C564 1.646 . S
C2023 C205 1.655 . S
C2063 C610 1.634 . S
C2055 C218 1.653 . S
C2087 C224 1.632 . S
C2095 C525 1.626 . S
C2127 C479 1.604 . S
C2119 C225 1.610 . S
C2151 C200 1.631 . S
C2159 C394 1.628 . S
C2191 C433 1.636 . S
C2183 C213 1.635 . S
C2223 C256 1.529 . S
C2215 C4 1.534 . S
C2247 C17 1.493 . S
C2255 C302 1.488 . S
C2287 C348 1.536 . S
C2279 C31 1.533 . S
C2319 C380 1.520 . S
C2311 C36 1.534 . S
C2351 C419 1.530 . S
C2343 C3 1.536 . S
C2383 C465 1.498 . S
C2375 C16 1.500 . S
C2407 C43 1.542 . S
C2415 C486 1.541 . S
C2439 C56 1.493 . S
C2447 C387 1.480 . S
C2471 C68 1.534 . S
C2479 C440 1.519 . S
C2503 C69 1.543 . S
C2511 C281 1.548 . S
C2543 C327 1.529 . S
C2535 C42 1.533 . S
C2567 C55 1.501 . S
C2575 C235 1.493 . S
C2607 C511 1.517 . S
C2599 C82 1.527 . S
C2631 C95 1.556 . S
C2639 C578 1.551 . S
C2663 C109 1.570 . S
C2671 C624 1.569 . S
C2703 C663 1.474 . S
C2695 C114 1.459 . S
C2727 C81 1.538 . S
C2735 C709 1.535 . S
C2759 C94 1.472 . S
C2767 C741 1.473 . S
C2791 C121 1.473 . S
C2799 C762 1.471 . S
C2823 C134 1.463 . S
C2831 C656 1.467 . S
C2863 C702 1.535 . S
C2855 C148 1.534 . S
C2887 C153 1.530 . S
C2895 C557 1.529 . S
C2919 C120 1.571 . S
C2927 C603 1.563 . S
C2959 C532 1.548 . S
C2951 C133 1.561 . S
C2991 C808 1.475 . S
C2983 C166 1.474 . S
C3015 C179 1.471 . S
C3023 C854 1.469 . S
C3047 C187 1.532 . S
C3055 C879 1.530 . S
C3087 C932 1.511 . S
C3079 C192 1.525 . S
C3119 C985 1.565 . S
C3111 C161 1.573 . S
C3143 C174 1.563 . S
C3151 C1031 1.561 . S
C3175 C199 1.531 . S
C3183 C1024 1.527 . S
C3207 C212 1.551 . S
C3215 C939 1.539 . S
C3247 C978 1.568 . S
C3239 C226 1.568 . S
C3279 C833 1.472 . S
C3271 C231 1.466 . S
C3311 C900 1.535 . S
C3303 C198 1.538 . S
C3335 C211 1.469 . S
C3343 C787 1.480 . S
