# Generated by pormake.
# Topology tsx, (6,3)-cn, num edge types: 1
# Building blocks:
#     Node 0, Type 0, BuildingBlock: LEVNOQ01_clean_sbu_1, # of connection points: 6
#     Node 1, Type 0, BuildingBlock: LEVNOQ01_clean_sbu_1, # of connection points: 6
#     Node 2, Type 1, BuildingBlock: MIDCAF_clean_linker_0, # of connection points: 3
#     Node 3, Type 1, BuildingBlock: MIDCAF_clean_linker_0, # of connection points: 3
#     Node 4, Type 1, BuildingBlock: MIDCAF_clean_linker_0, # of connection points: 3
#     Node 5, Type 1, BuildingBlock: MIDCAF_clean_linker_0, # of connection points: 3
#     Edge 6, Type (0, 1), BuildingBlock: TEMPAE_clean_linker_10, # of connection points: 2
#     Edge 7, Type (0, 1), BuildingBlock: TEMPAE_clean_linker_10, # of connection points: 2
#     Edge 8, Type (0, 1), BuildingBlock: TEMPAE_clean_linker_10, # of connection points: 2
#     Edge 9, Type (0, 1), BuildingBlock: TEMPAE_clean_linker_10, # of connection points: 2
#     Edge 10, Type (0, 1), BuildingBlock: TEMPAE_clean_linker_10, # of connection points: 2
#     Edge 11, Type (0, 1), BuildingBlock: TEMPAE_clean_linker_10, # of connection points: 2
#     Edge 12, Type (0, 1), BuildingBlock: TEMPAE_clean_linker_10, # of connection points: 2
#     Edge 13, Type (0, 1), BuildingBlock: TEMPAE_clean_linker_10, # of connection points: 2
#     Edge 14, Type (0, 1), BuildingBlock: TEMPAE_clean_linker_10, # of connection points: 2
#     Edge 15, Type (0, 1), BuildingBlock: TEMPAE_clean_linker_10, # of connection points: 2
#     Edge 16, Type (0, 1), BuildingBlock: TEMPAE_clean_linker_10, # of connection points: 2
#     Edge 17, Type (0, 1), BuildingBlock: TEMPAE_clean_linker_10, # of connection points: 2
# Relax obj value: 0.132
# Max RMSD: 0.159
# Mean RMSD: 0.121
data_MOF--net-tsx--node1-LEVNOQ01_clean_sbu_1--node2-MIDCAF_clean_linker_0--edge1-TEMPAE_clean_linker_10
_symmetry_space_group_name_H-M    P1
_symmetry_Int_Tables_number       1
_symmetry_cell_setting            triclinic
loop_
_symmetry_equiv_pos_as_xyz
'x, y, z'
_cell_length_a     22.467526
_cell_length_b     27.518617
_cell_length_c     45.467129
_cell_angle_alpha  97.600263
_cell_angle_beta   90.955932
_cell_angle_gamma 90.794245
loop_
_atom_site_label
_atom_site_type_symbol
_atom_site_fract_x
_atom_site_fract_y
_atom_site_fract_z
_atom_type_partial_charge
O0 O 0.12484 0.05482 0.08383 0.0
Mg1 Mg 0.18314 0.04699 0.04807 0.0
O2 O 0.05264 0.02142 0.05382 0.0
Mg3 Mg 0.07667 0.02799 0.00425 0.0
O4 O 0.15464 0.08429 0.01451 0.0
O5 O 0.23679 0.10495 0.04201 0.0
O6 O 0.10562 0.03984 0.95508 0.0
O7 O 0.0146 0.09457 0.00644 0.0
Mg8 Mg 0.01166 0.00218 0.9604 0.0
O9 O 0.99415 0.97025 -0.00294 0.0
O10 O 0.07747 0.9691 0.93215 0.0
O11 O 0.98707 0.07711 0.95965 0.0
O12 O 0.93718 0.96095 0.95543 0.0
C13 C 0.18477 0.94605 0.01422 0.0
C14 C 0.07322 0.03582 0.07993 0.0
C15 C 0.19965 0.11402 0.02153 0.0
C16 C 0.10713 0.00812 0.93202 0.0
C17 C 0.98831 0.10666 0.98356 0.0
C18 C 0.94813 0.95064 0.9818 0.0
O19 O 0.21199 0.97544 0.03388 0.0
O20 O 0.13778 0.95895 0.00124 0.0
O21 O 0.62688 0.55122 0.5835 0.0
Mg22 Mg 0.68284 0.54372 0.54655 0.0
O23 O 0.54996 0.52026 0.55568 0.0
Mg24 Mg 0.56725 0.52582 0.50541 0.0
O25 O 0.64734 0.57904 0.51379 0.0
O26 O 0.73317 0.60236 0.53687 0.0
O27 O 0.59149 0.53541 0.45498 0.0
O28 O 0.50903 0.59493 0.51024 0.0
Mg29 Mg 0.49366 0.50524 0.46424 0.0
O30 O 0.48195 0.47087 0.50064 0.0
O31 O 0.54947 0.46921 0.43221 0.0
O32 O 0.47359 0.58112 0.46461 0.0
O33 O 0.41585 0.46873 0.46271 0.0
C34 C 0.67456 0.44189 0.5123 0.0
C35 C 0.57433 0.5336 0.58112 0.0
C36 C 0.69187 0.60981 0.51799 0.0
C37 C 0.58537 0.50444 0.43158 0.0
C38 C 0.48058 0.60941 0.48874 0.0
C39 C 0.43193 0.45486 0.48758 0.0
O40 O 0.7056 0.47115 0.53049 0.0
O41 O 0.62587 0.45522 0.50103 0.0
C42 C 0.83821 0.07791 0.44626 0.0
C43 C 0.86369 0.1117 0.46895 0.0
C44 C 0.92103 0.10306 0.47988 0.0
C45 C 0.95384 0.06319 0.46686 0.0
H46 H 0.07662 0.9344 0.47567 0.0
H47 H 0.15759 0.88718 0.49415 0.0
H48 H 0.22411 0.856 0.40522 0.0
H49 H 0.14366 0.90201 0.38671 0.0
H50 H 0.03687 0.89257 0.33291 0.0
H51 H 0.02868 0.89069 0.27923 0.0
H52 H 0.92847 0.02471 0.29152 0.0
H53 H 0.93398 0.02497 0.3448 0.0
H54 H 0.85151 0.01486 0.4144 0.0
H55 H 0.79424 0.08368 0.43733 0.0
H56 H 0.9414 0.12836 0.4976 0.0
H57 H -0.0009 0.05886 0.47457 0.0
N58 N 0.01521 0.97547 0.43557 0.0
N59 N 0.04104 0.94017 0.38762 0.0
N60 N 0.95867 -0.0089 0.39401 0.0
C61 C 0.05163 0.94627 0.41745 0.0
C62 C 0.99477 0.96254 0.37574 0.0
C63 C 0.96823 -0.0024 0.42384 0.0
C64 C 0.10292 0.92136 0.42961 0.0
C65 C 0.10882 0.91777 0.46012 0.0
C66 C 0.15531 0.89094 0.47075 0.0
C67 C 0.19668 0.86732 0.45106 0.0
C68 C 0.19219 0.87287 0.42085 0.0
C69 C 0.14594 0.89938 0.41026 0.0
C70 C 0.98633 0.95902 0.34315 0.0
C71 C 0.01246 0.92124 0.32406 0.0
C72 C 0.00799 0.92035 0.29326 0.0
C73 C 0.97822 0.95773 0.28084 0.0
C74 C 0.95077 -0.00528 0.30005 0.0
C75 C 0.95435 -0.00489 0.33076 0.0
C76 C 0.93006 0.03201 0.4424 0.0
C77 C 0.87117 0.03866 0.43302 0.0
C78 C 0.81407 0.9695 0.56656 0.0
C79 C 0.82438 0.94438 0.53817 0.0
C80 C 0.87338 0.95888 0.52229 0.0
C81 C 0.91441 -0.00578 0.53582 0.0
H82 H 0.04529 0.11962 0.52876 0.0
H83 H 0.11309 0.18001 0.51102 0.0
H84 H 0.20428 0.20018 0.59611 0.0
H85 H 0.1386 0.1407 0.61373 0.0
H86 H 0.11934 0.04669 0.65333 0.0
H87 H 0.14153 0.04076 0.7051 0.0
H88 H 0.95367 0.05062 0.72421 0.0
H89 H 0.93159 0.05326 0.67158 0.0
H90 H 0.84793 0.02028 0.60282 0.0
H91 H 0.7759 0.96016 0.57908 0.0
H92 H 0.88255 0.94033 0.50035 0.0
H93 H 0.95395 0.00223 0.5239 0.0
N94 N 0.99626 0.07011 0.56933 0.0
N95 N 0.05099 0.08516 0.61403 0.0
N96 N 0.96458 0.03666 0.61174 0.0
C97 C 0.0434 0.09225 0.5853 0.0
C98 C 0.01224 0.05769 0.6274 0.0
C99 C 0.95657 0.04231 0.58259 0.0
C100 C 0.08584 0.1255 0.57277 0.0
C101 C 0.08012 0.13666 0.54354 0.0
C102 C 0.11885 0.17106 0.53338 0.0
C103 C 0.1632 0.19504 0.55243 0.0
C104 C 0.16985 0.18278 0.58118 0.0
C105 C 0.132 0.14841 0.59117 0.0
C106 C 0.02378 0.05057 0.65855 0.0
C107 C 0.08277 0.04715 0.6686 0.0
C108 C 0.09549 0.0443 0.69841 0.0
C109 C 0.04963 0.04612 0.71919 0.0
C110 C 0.99025 0.0486 0.70892 0.0
C111 C 0.97744 0.05025 0.6788 0.0
C112 C 0.90724 0.01505 0.56548 0.0
C113 C 0.85529 0.00402 0.58016 0.0
C114 C 0.33953 0.57956 0.94823 0.0
C115 C 0.36695 0.61242 0.97079 0.0
C116 C 0.4237 0.60165 0.98156 0.0
C117 C 0.45396 0.56024 0.96863 0.0
H118 H 0.59408 0.45116 0.9757 0.0
H119 H 0.67243 0.40267 -0.00443 0.0
H120 H 0.667 0.30216 0.91419 0.0
H121 H 0.5897 0.35018 0.89427 0.0
H122 H 0.52896 0.38539 0.83487 0.0
H123 H 0.52437 0.38615 0.78126 0.0
H124 H 0.43535 0.52547 0.7946 0.0
H125 H 0.43727 0.52338 0.84761 0.0
H126 H 0.34903 0.51565 0.91653 0.0
H127 H 0.29598 0.58704 0.93944 0.0
H128 H 0.44553 0.62631 -0.00087 0.0
H129 H 0.4988 0.554 0.97626 0.0
N130 N 0.50642 0.46672 0.93829 0.0
N131 N 0.53081 0.42912 0.89057 0.0
N132 N 0.45603 0.48763 0.89621 0.0
C133 C 0.53955 0.43409 0.92054 0.0
C134 C 0.4894 0.45609 0.87824 0.0
C135 C 0.46387 0.493 0.92611 0.0
C136 C 0.58563 0.40458 0.93337 0.0
C137 C 0.60946 0.41858 0.96213 0.0
C138 C 0.65444 0.39106 0.97346 0.0
C139 C 0.67546 0.3486 0.95645 0.0
C140 C 0.65116 0.33444 0.92791 0.0
C141 C 0.60708 0.36219 0.91645 0.0
C142 C 0.48359 0.45432 0.84558 0.0
C143 C 0.50778 0.41583 0.82626 0.0
C144 C 0.50541 0.41645 0.7955 0.0
C145 C 0.4796 0.45595 0.7834 0.0
C146 C 0.45443 0.49386 0.80284 0.0
C147 C 0.45596 0.49285 0.83343 0.0
C148 C 0.42825 0.52974 0.94439 0.0
C149 C 0.37004 0.53885 0.93503 0.0
C150 C 0.31597 0.47996 0.06546 0.0
C151 C 0.33128 0.45144 0.03874 0.0
C152 C 0.38382 0.46364 0.02466 0.0
C153 C 0.4226 0.50052 0.03844 0.0
H154 H 0.55215 0.62494 0.02926 0.0
H155 H 0.62344 0.68112 0.01008 0.0
H156 H 0.68811 0.72882 0.09929 0.0
H157 H 0.61824 0.67417 0.11839 0.0
H158 H 0.5749 0.63823 0.17036 0.0
H159 H 0.59588 0.62963 0.22186 0.0
H160 H 0.46999 0.50864 0.21645 0.0
H161 H 0.44815 0.5174 0.16452 0.0
H162 H 0.34352 0.53511 0.10087 0.0
H163 H 0.275 0.47275 0.07645 0.0
H164 H 0.39709 0.44255 0.00407 0.0
H165 H 0.46441 0.5072 0.02802 0.0
N166 N 0.49414 0.58487 0.07127 0.0
N167 N 0.53954 0.60996 0.11767 0.0
N168 N 0.4595 0.55454 0.11417 0.0
C169 C 0.53628 0.61232 0.08813 0.0
C170 C 0.50192 0.58133 0.13094 0.0
C171 C 0.4552 0.55625 0.08437 0.0
C172 C 0.579 0.64506 0.07538 0.0
C173 C 0.5816 0.64747 0.04471 0.0
C174 C 0.62248 0.67937 0.03373 0.0
C175 C 0.66079 0.70956 0.05331 0.0
C176 C 0.65849 0.70659 0.08376 0.0
C177 C 0.61834 0.67487 0.09464 0.0
C178 C 0.51012 0.57815 0.16308 0.0
C179 C 0.5513 0.6098 0.18001 0.0
C180 C 0.56368 0.60479 0.20959 0.0
C181 C 0.53523 0.56809 0.22311 0.0
C182 C 0.4925 0.53742 0.20662 0.0
C183 C 0.48006 0.54239 0.17687 0.0
C184 C 0.40981 0.52516 0.06665 0.0
C185 C 0.35512 0.51586 0.07943 0.0
C186 C 0.16176 0.19055 0.00398 0.0
C187 C 0.209 0.15918 0.00787 0.0
C188 C 0.17306 0.24004 0.0007 0.0
C189 C 0.23272 0.25786 0.00138 0.0
C190 C 0.28 0.22435 0.00111 0.0
C191 C 0.2675 0.17548 0.00453 0.0
C192 C 0.12132 0.27414 -0.00021 0.0
C193 C 0.34427 0.24118 0.00111 0.0
C194 C 0.28809 0.38846 -0.00203 0.0
C195 C 0.2973 0.40521 0.02828 0.0
C196 C 0.26243 0.34181 0.98855 0.0
C197 C 0.24663 0.31105 0.00993 0.0
C198 C 0.25289 0.32898 0.04051 0.0
C199 C 0.27814 0.3755 0.04922 0.0
C200 C 0.25537 0.32474 0.95575 0.0
C201 C 0.23697 0.29763 0.06425 0.0
H202 H 0.11638 0.17785 0.00631 0.0
H203 H 0.30402 0.15085 0.00697 0.0
H204 H 0.11387 0.29329 0.02245 0.0
H205 H 0.13066 0.30242 0.98513 0.0
H206 H 0.07972 0.25381 0.99195 0.0
H207 H 0.37498 0.20989 -0.00349 0.0
H208 H 0.35109 0.26634 0.9843 0.0
H209 H 0.35641 0.26158 0.02316 0.0
H210 H 0.30207 0.4113 0.98159 0.0
H211 H 0.28594 0.3874 0.07267 0.0
H212 H 0.21584 0.3002 0.95087 0.0
H213 H 0.29527 0.30393 0.94788 0.0
H214 H 0.25125 0.35628 0.94295 0.0
H215 H 0.19099 0.28265 0.06053 0.0
H216 H 0.24019 0.31836 0.08692 0.0
H217 H 0.2675 0.2661 0.06324 0.0
C218 C 0.20119 0.86856 0.97969 0.0
C219 C 0.20666 0.89541 0.00802 0.0
C220 C 0.22538 0.82144 0.97381 0.0
C221 C 0.25403 0.80044 -0.00296 0.0
C222 C 0.2574 0.82679 0.02592 0.0
C223 C 0.2344 0.87413 0.03095 0.0
C224 C 0.22191 0.79476 0.9426 0.0
C225 C 0.28612 0.80526 0.05146 0.0
C226 C 0.27863 0.6628 0.98741 0.0
C227 C 0.33904 0.6603 0.9802 0.0
C228 C 0.25033 0.70819 -0.00686 0.0
C229 C 0.28303 0.75193 0.99105 0.0
C230 C 0.34418 0.74953 0.984 0.0
C231 C 0.37155 0.70376 0.97892 0.0
C232 C 0.18545 0.70933 0.00129 0.0
C233 C 0.38044 0.79528 0.98125 0.0
H234 H 0.17979 0.88502 0.96196 0.0
H235 H 0.23785 0.89454 0.05302 0.0
H236 H 0.26752 0.78843 0.93406 0.0
H237 H 0.20018 0.7583 0.94245 0.0
H238 H 0.19681 0.81553 0.92723 0.0
H239 H 0.2813 0.82912 0.07296 0.0
H240 H 0.26605 0.76876 0.05335 0.0
H241 H 0.33425 0.79985 0.04734 0.0
H242 H 0.25348 0.62915 0.98837 0.0
H243 H 0.41798 0.70183 0.9728 0.0
H244 H 0.15912 0.72626 0.98459 0.0
H245 H 0.17986 0.7323 0.02301 0.0
H246 H 0.16677 0.67212 0.00267 0.0
H247 H 0.35972 0.81559 0.9643 0.0
H248 H 0.42714 0.78701 0.97493 0.0
H249 H 0.38104 0.81997 0.00262 0.0
C250 C 0.84981 0.9082 0.9818 0.0
C251 C 0.9073 0.91631 -0.00585 0.0
C252 C 0.81047 0.87452 0.99192 0.0
C253 C 0.8293 0.84761 0.01471 0.0
C254 C 0.88713 0.85582 0.02754 0.0
C255 C 0.9254 0.89054 0.01726 0.0
C256 C 0.74869 0.86774 0.97818 0.0
C257 C 0.90877 0.82744 0.05174 0.0
C258 C 0.7069 0.79314 0.05707 0.0
C259 C 0.70299 0.74486 0.04263 0.0
C260 C 0.74866 0.82665 0.04861 0.0
C261 C 0.78767 0.81146 0.02519 0.0
C262 C 0.78407 0.76271 0.01053 0.0
C263 C 0.7414 0.72999 0.01932 0.0
C264 C 0.7504 0.87852 0.06443 0.0
C265 C 0.82524 0.7452 0.98557 0.0
H266 H 0.83527 0.92845 0.96415 0.0
H267 H 0.96984 0.89664 0.02681 0.0
H268 H 0.74199 0.82928 0.96768 0.0
H269 H 0.71478 0.87499 -0.00439 0.0
H270 H 0.74061 0.89241 0.96111 0.0
H271 H 0.95486 0.83823 0.05943 0.0
H272 H 0.87886 0.83333 0.07101 0.0
H273 H 0.90757 0.78761 0.04357 0.0
H274 H 0.67684 0.80479 0.07495 0.0
H275 H 0.73886 0.69251 0.00841 0.0
H276 H 0.74014 0.90456 0.04845 0.0
H277 H 0.79569 0.88798 0.07371 0.0
H278 H 0.7181 0.88402 0.08277 0.0
H279 H 0.81752 0.76626 0.9667 0.0
H280 H 0.81875 0.70555 0.97749 0.0
H281 H 0.87227 0.75184 0.99303 0.0
C282 C 0.94399 0.17346 0.95892 0.0
C283 C 0.95433 0.15246 0.98494 0.0
C284 C 0.90335 0.21149 0.95826 0.0
C285 C 0.87142 0.22832 0.98413 0.0
C286 C 0.88471 0.20957 0.01101 0.0
C287 C 0.92651 0.17201 0.01116 0.0
C288 C 0.89164 0.23121 0.92929 0.0
C289 C 0.85163 0.22645 0.03904 0.0
C290 C 0.77722 0.34082 0.97882 0.0
C291 C 0.72317 0.31893 0.96782 0.0
C292 C 0.82545 0.31197 0.98571 0.0
C293 C 0.81904 0.26022 0.98168 0.0
C294 C 0.76331 0.23829 0.97229 0.0
C295 C 0.71623 0.26789 0.96536 0.0
C296 C 0.8841 0.33671 -0.00438 0.0
C297 C 0.7542 0.18329 0.96812 0.0
H298 H 0.96613 0.15886 0.93871 0.0
H299 H 0.93443 0.15581 0.03132 0.0
H300 H 0.84697 0.21854 0.92039 0.0
H301 H 0.89171 0.27187 0.93277 0.0
H302 H 0.92521 0.21881 0.91236 0.0
H303 H 0.87352 0.21447 0.0589 0.0
H304 H 0.84812 0.26696 0.0425 0.0
H305 H 0.80567 0.21092 0.03702 0.0
H306 H 0.78272 0.38032 0.98065 0.0
H307 H 0.67417 0.25099 0.95725 0.0
H308 H 0.91641 0.33021 0.97738 0.0
H309 H 0.90307 0.32102 0.01492 0.0
H310 H 0.87956 0.37691 0.00172 0.0
H311 H 0.78134 0.16657 0.94937 0.0
H312 H 0.70687 0.17236 0.96334 0.0
H313 H 0.76928 0.16785 0.98826 0.0
C314 C 0.64876 0.68758 0.50521 0.0
C315 C 0.69585 0.65456 0.50351 0.0
C316 C 0.65955 0.73741 0.50265 0.0
C317 C 0.71849 0.75377 0.49819 0.0
C318 C 0.76377 0.71882 0.49191 0.0
C319 C 0.75193 0.66965 0.4949 0.0
C320 C 0.60967 0.77334 0.50838 0.0
C321 C 0.82701 0.73411 0.48644 0.0
C322 C 0.77151 0.88616 0.49795 0.0
C323 C 0.79013 0.89843 0.52768 0.0
C324 C 0.74442 0.84019 0.48805 0.0
C325 C 0.73671 0.8057 0.5083 0.0
C326 C 0.75368 0.81879 0.5385 0.0
C327 C 0.77996 0.86474 0.54772 0.0
C328 C 0.72523 0.82812 0.45594 0.0
C329 C 0.7473 0.78319 0.56096 0.0
H330 H 0.60522 0.67579 0.51171 0.0
H331 H 0.78814 0.64382 0.49322 0.0
H332 H 0.61634 0.79512 0.53056 0.0
H333 H 0.60972 0.79935 0.49171 0.0
H334 H 0.56548 0.75462 0.50778 0.0
H335 H 0.85359 0.70261 0.47642 0.0
H336 H 0.82815 0.76299 0.47161 0.0
H337 H 0.84859 0.74942 0.50787 0.0
H338 H 0.77879 0.91223 0.48242 0.0
H339 H 0.79526 0.87336 0.57057 0.0
H340 H 0.67649 0.82102 0.45448 0.0
H341 H 0.74694 0.7942 0.44572 0.0
H342 H 0.73607 0.85826 0.4428 0.0
H343 H 0.7007 0.76943 0.56112 0.0
H344 H 0.75994 0.80001 0.58382 0.0
H345 H 0.77608 0.7511 0.55485 0.0
C346 C 0.72009 0.36871 0.52927 0.0
C347 C 0.69432 0.39071 0.50614 0.0
C348 C 0.7432 0.32143 0.52419 0.0
C349 C 0.74202 0.29596 0.49506 0.0
C350 C 0.7147 0.31749 0.47167 0.0
C351 C 0.69029 0.36454 0.47759 0.0
C352 C 0.77042 0.29934 0.54989 0.0
C353 C 0.71354 0.29174 0.44022 0.0
C354 C 0.86412 0.20306 0.47794 0.0
C355 C 0.83322 0.15855 0.47824 0.0
C356 C 0.83471 0.24793 0.48301 0.0
C357 C 0.77303 0.24835 0.48896 0.0
C358 C 0.74184 0.20355 0.49 0.0
C359 C 0.77225 0.15911 0.48438 0.0
C360 C 0.8695 0.29488 0.4815 0.0
C361 C 0.67639 0.2026 0.49693 0.0
H362 H 0.7224 0.38873 0.55149 0.0
H363 H 0.67043 0.38167 0.45973 0.0
H364 H 0.75162 0.26205 0.55067 0.0
H365 H 0.81911 0.29563 0.54687 0.0
H366 H 0.7628 0.32202 0.57155 0.0
H367 H 0.68796 0.31222 0.42488 0.0
H368 H 0.75977 0.28736 0.43217 0.0
H369 H 0.69365 0.25446 0.43938 0.0
H370 H 0.91099 0.20272 0.47263 0.0
H371 H 0.74832 0.12468 0.48463 0.0
H372 H 0.86799 0.31873 0.50314 0.0
H373 H 0.84904 0.31537 0.46458 0.0
H374 H 0.91686 0.28813 0.47586 0.0
H375 H 0.66858 0.22451 0.51878 0.0
H376 H 0.65891 0.16475 0.49741 0.0
H377 H 0.65057 0.21961 0.48008 0.0
C378 C 0.41549 0.3894 0.52028 0.0
C379 C 0.39308 0.41957 0.50032 0.0
C380 C 0.37937 0.35262 0.52988 0.0
C381 C 0.31948 0.34664 0.51954 0.0
C382 C 0.29618 0.37836 0.50034 0.0
C383 C 0.33332 0.41417 0.49084 0.0
C384 C 0.40569 0.31933 0.55036 0.0
C385 C 0.23217 0.37403 0.48941 0.0
C386 C 0.23579 0.2253 0.51759 0.0
C387 C 0.20192 0.234 0.54324 0.0
C388 C 0.27571 0.26121 0.51007 0.0
C389 C 0.28083 0.30701 0.52838 0.0
C390 C 0.24614 0.31603 0.55415 0.0
C391 C 0.20736 0.27928 0.56135 0.0
C392 C 0.31243 0.25019 0.48255 0.0
C393 C 0.24932 0.36474 0.57386 0.0
H394 H 0.46167 0.39343 0.52762 0.0
H395 H 0.31549 0.43783 0.47569 0.0
H396 H 0.37862 0.32011 0.57059 0.0
H397 H 0.40484 0.28098 0.53913 0.0
H398 H 0.45233 0.32984 0.55715 0.0
H399 H 0.22031 0.40309 0.47566 0.0
H400 H 0.2242 0.3378 0.47595 0.0
H401 H 0.20176 0.37632 0.50851 0.0
H402 H 0.23199 0.19005 0.50383 0.0
H403 H 0.18082 0.286 0.58114 0.0
H404 H 0.36042 0.25606 0.4883 0.0
H405 H 0.30073 0.27567 0.46645 0.0
H406 H 0.30547 0.21197 0.47155 0.0
H407 H 0.29578 0.3731 0.58174 0.0
H408 H 0.22036 0.3654 0.59348 0.0
H409 H 0.23551 0.39443 0.56104 0.0
C410 C 0.46802 0.69386 0.4765 0.0
C411 C 0.44969 0.65631 0.49236 0.0
C412 C 0.43185 0.73456 0.47461 0.0
C413 C 0.37512 0.73636 0.48787 0.0
C414 C 0.35828 0.69977 0.50547 0.0
C415 C 0.3962 0.66027 0.5077 0.0
C416 C 0.45235 0.77348 0.45643 0.0
C417 C 0.29793 0.69975 0.51957 0.0
C418 C 0.27683 0.84816 0.48708 0.0
C419 C 0.2423 0.83435 0.46124 0.0
C420 C 0.32079 0.81695 0.49608 0.0
C421 C 0.32974 0.77082 0.47899 0.0
C422 C 0.29447 0.75665 0.4531 0.0
C423 C 0.25136 0.78852 0.44459 0.0
C424 C 0.35794 0.83338 0.52365 0.0
C425 C 0.30205 0.7076 0.43433 0.0
H426 H 0.50951 0.69039 0.4646 0.0
H427 H 0.38202 0.63064 0.51964 0.0
H428 H 0.42892 0.76808 0.43454 0.0
H429 H 0.44146 0.81057 0.46752 0.0
H430 H 0.50107 0.77193 0.45263 0.0
H431 H 0.29508 0.6731 0.53586 0.0
H432 H 0.2875 0.73675 0.53091 0.0
H433 H 0.26329 0.68975 0.50204 0.0
H434 H 0.27017 0.88367 0.49994 0.0
H435 H 0.22407 0.77727 0.42491 0.0
H436 H 0.4058 0.83373 0.51802 0.0
H437 H 0.35225 0.80711 0.53995 0.0
H438 H 0.34589 0.87052 0.53433 0.0
H439 H 0.34803 0.70468 0.42582 0.0
H440 H 0.27041 0.70194 0.4151 0.0
H441 H 0.29522 0.67752 0.448 0.0
C442 C 0.00733 0.98214 0.10609 0.0
C443 C 0.04039 0.02579 0.10636 0.0
C444 C 0.98726 0.96731 0.13272 0.0
C445 C -9e-05 -0.00267 0.15997 0.0
C446 C 0.02891 0.04333 0.1599 0.0
C447 C 0.04931 0.05674 0.13314 0.0
C448 C 0.95682 0.91789 0.13176 0.0
C449 C 0.042 0.07707 0.18835 0.0
C450 C 0.93155 0.97989 0.23368 0.0
C451 C 0.97965 0.96061 0.2483 0.0
C452 C 0.93605 -0.01035 0.20423 0.0
C453 C 0.98949 0.97904 0.18884 0.0
C454 C 0.03645 0.95621 0.20268 0.0
C455 C 0.03125 0.94778 0.23228 0.0
C456 C 0.88502 0.01401 0.19024 0.0
C457 C 0.09384 0.94342 0.18683 0.0
H458 H 0.00073 0.95798 0.0854 0.0
H459 H 0.07443 0.09072 0.13331 0.0
H460 H 0.98958 0.89101 0.13796 0.0
H461 H 0.92011 0.91922 0.14784 0.0
H462 H 0.93867 0.9044 0.10924 0.0
H463 H 0.05842 0.11374 0.18414 0.0
H464 H 0.00148 0.08189 0.20198 0.0
H465 H 0.07642 0.0606 0.20158 0.0
H466 H 0.89085 -0.01122 0.24552 0.0
H467 H 0.06903 0.93337 0.24323 0.0
H468 H 0.87493 -0.00476 0.16755 0.0
H469 H 0.89775 0.0525 0.18817 0.0
H470 H 0.84403 0.01422 0.20359 0.0
H471 H 0.08441 0.9235 0.16435 0.0
H472 H 0.12284 0.92045 0.1992 0.0
H473 H 0.11873 0.97758 0.18405 0.0
C474 C 0.14223 -0.01169 0.8804 0.0
C475 C 0.12075 0.02292 0.90291 0.0
C476 C 0.13849 -0.00375 0.85058 0.0
C477 C 0.11055 0.03895 0.84317 0.0
C478 C 0.09241 0.07551 0.86602 0.0
C479 C 0.09867 0.06735 0.89573 0.0
C480 C 0.16032 0.95721 0.82692 0.0
C481 C 0.06109 0.12097 0.85912 0.0
C482 C 0.11658 0.06881 0.76403 0.0
C483 C 0.06419 0.04579 0.75132 0.0
C484 C 0.13245 0.06682 0.79383 0.0
C485 C 0.0942 0.04255 0.8117 0.0
C486 C 0.04039 0.0206 0.79939 0.0
C487 C 0.02645 0.02191 0.76931 0.0
C488 C 0.19062 0.08996 0.80604 0.0
C489 C 0.99773 -0.00481 0.81793 0.0
H490 H 0.15891 0.95383 0.88601 0.0
H491 H 0.08095 0.09376 0.91309 0.0
H492 H 0.12166 0.93709 0.81538 0.0
H493 H 0.1858 0.974 0.81005 0.0
H494 H 0.18901 0.93035 0.83637 0.0
H495 H 0.05659 0.14844 0.87916 0.0
H496 H 0.08517 0.1383 0.84203 0.0
H497 H 0.01585 0.11066 0.85001 0.0
H498 H 0.14546 0.08852 0.7507 0.0
H499 H 0.98636 0.0034 0.75981 0.0
H500 H 0.21906 0.0617 0.81417 0.0
H501 H 0.18239 0.11815 0.82525 0.0
H502 H 0.21552 0.10737 0.78918 0.0
H503 H 0.01921 0.96271 0.82531 0.0
H504 H 0.95597 0.98291 0.80556 0.0
H505 H 0.98615 0.0202 0.83815 0.0
C506 C 0.55764 0.5538 0.63522 0.0
C507 C 0.54437 0.52394 0.60846 0.0
C508 C 0.53845 0.54083 0.66232 0.0
C509 C 0.50633 0.49628 0.66274 0.0
C510 C 0.49016 0.46716 0.63563 0.0
C511 C 0.50895 0.48164 0.6087 0.0
C512 C 0.55535 0.57361 0.69064 0.0
C513 C 0.45661 0.41914 0.6351 0.0
C514 C 0.53306 0.44452 0.73489 0.0
C515 C 0.48228 0.4597 0.75098 0.0
C516 C 0.53947 0.45327 0.70539 0.0
C517 C 0.49466 0.47877 0.69174 0.0
C518 C 0.44206 0.49211 0.70725 0.0
C519 C 0.43622 0.48194 0.73654 0.0
C520 C 0.59585 0.43762 0.6894 0.0
C521 C 0.39346 0.51964 0.69356 0.0
H522 H 0.58469 0.5867 0.63503 0.0
H523 H 0.4991 0.45826 0.58802 0.0
H524 H 0.51582 0.58083 0.70477 0.0
H525 H 0.58853 0.55502 0.70345 0.0
H526 H 0.57478 0.60926 0.6863 0.0
H527 H 0.43995 0.40463 0.61244 0.0
H528 H 0.48662 0.39168 0.64297 0.0
H529 H 0.41837 0.42327 0.65029 0.0
H530 H 0.56929 0.42779 0.74571 0.0
H531 H 0.39609 0.49272 0.74842 0.0
H532 H 0.6234 0.47047 0.68673 0.0
H533 H 0.58514 0.41844 0.66686 0.0
H534 H 0.62281 0.41298 0.70161 0.0
H535 H 0.40981 0.55717 0.69126 0.0
H536 H 0.35277 0.52268 0.70719 0.0
H537 H 0.38142 0.50137 0.67098 0.0
C538 C 0.60363 0.56525 0.39656 0.0
C539 C 0.60298 0.5164 0.40222 0.0
C540 C 0.60103 0.57643 0.36729 0.0
C541 C 0.59848 0.53779 0.34335 0.0
C542 C 0.60402 0.4887 0.34902 0.0
C543 C 0.60597 0.4786 0.37842 0.0
C544 C 0.59553 0.62927 0.36216 0.0
C545 C 0.60256 0.44646 0.32415 0.0
C546 C 0.50709 0.55354 0.27437 0.0
C547 C 0.55137 0.56136 0.25411 0.0
C548 C 0.52193 0.54691 0.30366 0.0
C549 C 0.58259 0.54786 0.31287 0.0
C550 C 0.6275 0.55616 0.2926 0.0
C551 C 0.61135 0.56282 0.26346 0.0
C552 C 0.47266 0.53839 0.32468 0.0
C553 C 0.69256 0.55708 0.30154 0.0
H554 H 0.60091 0.5946 0.41489 0.0
H555 H 0.60576 0.44079 0.38279 0.0
H556 H 0.62428 0.63736 0.34376 0.0
H557 H 0.54886 0.63615 0.35569 0.0
H558 H 0.60758 0.65502 0.38238 0.0
H559 H 0.61565 0.41146 0.33194 0.0
H560 H 0.55681 0.44179 0.31451 0.0
H561 H 0.63266 0.45397 0.30614 0.0
H562 H 0.4607 0.553 0.26736 0.0
H563 H 0.64584 0.56828 0.24778 0.0
H564 H 0.47595 0.56598 0.3448 0.0
H565 H 0.47727 0.5017 0.332 0.0
H566 H 0.42775 0.54046 0.31436 0.0
H567 H 0.70078 0.58405 0.32163 0.0
H568 H 0.72184 0.56657 0.28361 0.0
H569 H 0.70534 0.52062 0.30726 0.0
loop_
_geom_bond_atom_site_label_1
_geom_bond_atom_site_label_2
_geom_bond_distance
_geom_bond_site_symmetry_2
_ccdc_geom_bond_type
O0 Mg1 1.990 . S
O0 C14 1.253 . S
Mg1 O0 1.990 . S
Mg1 O4 2.180 . S
Mg1 O5 2.117 . S
Mg1 O19 2.030 1_545 S
O2 Mg3 2.072 . S
O2 C14 1.260 . S
Mg3 O2 2.072 . S
Mg3 O4 2.099 . S
Mg3 O6 2.079 1_554 S
Mg3 O7 2.072 . S
Mg3 O9 2.099 1_444 S
Mg3 O20 2.079 1_544 S
O4 Mg1 2.180 . S
O4 Mg3 2.099 . S
O4 C15 1.279 . S
O5 Mg1 2.117 . S
O5 C15 1.250 . S
O6 Mg3 2.079 1_556 S
O6 C16 1.264 . S
O7 Mg3 2.072 . S
O7 C17 1.260 1_455 S
Mg8 O9 2.180 1_545 S
Mg8 O10 2.030 . S
Mg8 O11 1.990 . S
Mg8 O12 2.117 1_545 S
O9 Mg3 2.099 1_666 S
O9 Mg8 2.180 1_565 S
O9 C18 1.279 1_556 S
O10 Mg8 2.030 . S
O10 C16 1.248 1_655 S
O11 Mg8 1.990 . S
O11 C17 1.253 1_556 S
O12 Mg8 2.117 1_565 S
O12 C18 1.250 1_556 S
C13 O19 1.248 . S
C13 O20 1.241 1_554 S
C14 O0 1.253 . S
C14 O2 1.260 . S
C15 O4 1.279 . S
C15 O5 1.250 . S
C16 O6 1.264 . S
C16 O10 1.248 1_455 S
C17 O7 1.260 1_655 S
C17 O11 1.253 1_554 S
C18 O9 1.279 1_554 S
C18 O12 1.250 1_554 S
O19 Mg1 2.030 1_565 S
O19 C13 1.248 . S
O20 Mg3 2.079 1_566 S
O20 C13 1.241 1_556 S
O21 Mg22 1.990 . S
O21 C35 1.253 . S
Mg22 O21 1.990 . S
Mg22 O25 2.180 . S
Mg22 O26 2.117 . S
Mg22 O40 2.030 . S
O23 Mg24 2.072 . S
O23 C35 1.260 . S
Mg24 O23 2.072 . S
Mg24 O25 2.099 . S
Mg24 O27 2.079 . S
Mg24 O28 2.072 . S
Mg24 O30 2.099 . S
Mg24 O41 2.079 . S
O25 Mg22 2.180 . S
O25 Mg24 2.099 . S
O25 C36 1.279 . S
O26 Mg22 2.117 . S
O26 C36 1.250 . S
O27 Mg24 2.079 . S
O27 C37 1.264 . S
O28 Mg24 2.072 . S
O28 C38 1.260 . S
Mg29 O30 2.180 . S
Mg29 O31 2.030 . S
Mg29 O32 1.990 . S
Mg29 O33 2.117 . S
O30 Mg24 2.099 . S
O30 Mg29 2.180 . S
O30 C39 1.279 . S
O31 Mg29 2.030 . S
O31 C37 1.248 . S
O32 Mg29 1.990 . S
O32 C38 1.253 . S
O33 Mg29 2.117 . S
O33 C39 1.250 . S
C34 O40 1.248 . S
C34 O41 1.264 . S
C35 O21 1.253 . S
C35 O23 1.260 . S
C36 O25 1.279 . S
C36 O26 1.250 . S
C37 O27 1.264 . S
C37 O31 1.248 . S
C38 O28 1.260 . S
C38 O32 1.253 . S
C39 O30 1.279 . S
C39 O33 1.250 . S
O40 Mg22 2.030 . S
O40 C34 1.248 . S
O41 Mg24 2.079 . S
O41 C34 1.264 . S
C42 C43 1.384 . S
C42 H55 0.947 . S
C42 C77 1.382 . S
C43 C42 1.384 . S
C43 C44 1.378 . S
C44 C43 1.378 . S
C44 C45 1.378 . S
C44 H56 0.952 . S
C45 C44 1.378 . S
C45 H57 0.950 1_655 S
C45 C76 1.383 . S
H46 C65 0.947 . S
H47 C66 0.946 . S
H48 C68 0.953 . S
H49 C69 0.945 . S
H50 C71 0.952 . S
H51 C72 0.949 . S
H52 C74 0.950 . S
H53 C75 0.948 . S
H54 C77 0.951 . S
H55 C42 0.947 . S
H56 C44 0.952 . S
H57 C45 0.950 1_455 S
N58 C61 1.382 1_545 S
N58 C63 1.363 . S
N59 C61 1.371 . S
N59 C62 1.372 1_565 S
N60 C62 1.361 . S
N60 C63 1.377 . S
C61 N58 1.382 1_565 S
C61 N59 1.371 . S
C61 C64 1.480 . S
C62 N59 1.372 1_545 S
C62 N60 1.361 . S
C62 C70 1.457 . S
C63 N58 1.363 . S
C63 N60 1.377 . S
C63 C76 1.479 1_455 S
C64 C61 1.480 . S
C64 C65 1.383 . S
C64 C69 1.385 . S
C65 H46 0.947 . S
C65 C64 1.383 . S
C65 C66 1.388 . S
C66 H47 0.946 . S
C66 C65 1.388 . S
C66 C67 1.384 . S
C67 C66 1.384 . S
C67 C68 1.377 . S
C68 H48 0.953 . S
C68 C67 1.377 . S
C68 C69 1.369 . S
C69 H49 0.945 . S
C69 C64 1.385 . S
C69 C68 1.369 . S
C70 C62 1.457 . S
C70 C71 1.372 1_545 S
C70 C75 1.364 . S
C71 H50 0.952 . S
C71 C70 1.372 1_565 S
C71 C72 1.389 . S
C72 H51 0.949 . S
C72 C71 1.389 . S
C72 C73 1.387 . S
C73 C72 1.387 . S
C73 C74 1.372 1_565 S
C74 H52 0.950 . S
C74 C73 1.372 1_545 S
C74 C75 1.379 . S
C75 H53 0.948 . S
C75 C70 1.364 . S
C75 C74 1.379 . S
C76 C45 1.383 . S
C76 C63 1.479 1_655 S
C76 C77 1.398 . S
C77 C42 1.382 . S
C77 H54 0.951 . S
C77 C76 1.398 . S
C78 C79 1.384 . S
C78 H91 0.947 . S
C78 C113 1.382 . S
C79 C78 1.384 . S
C79 C80 1.378 . S
C80 C79 1.378 . S
C80 C81 1.378 . S
C80 H92 0.952 . S
C81 C80 1.378 . S
C81 H93 0.950 1_565 S
C81 C112 1.383 1_565 S
H82 C101 0.947 . S
H83 C102 0.946 . S
H84 C104 0.953 . S
H85 C105 0.945 . S
H86 C107 0.952 . S
H87 C108 0.949 . S
H88 C110 0.950 . S
H89 C111 0.948 . S
H90 C113 0.951 . S
H91 C78 0.947 . S
H92 C80 0.952 . S
H93 C81 0.950 1_545 S
N94 C97 1.382 . S
N94 C99 1.363 1_455 S
N95 C97 1.371 . S
N95 C98 1.372 . S
N96 C98 1.361 1_655 S
N96 C99 1.377 . S
C97 N94 1.382 . S
C97 N95 1.371 . S
C97 C100 1.480 . S
C98 N95 1.372 . S
C98 N96 1.361 1_455 S
C98 C106 1.457 . S
C99 N94 1.363 1_655 S
C99 N96 1.377 . S
C99 C112 1.479 . S
C100 C97 1.480 . S
C100 C101 1.383 . S
C100 C105 1.385 . S
C101 H82 0.947 . S
C101 C100 1.383 . S
C101 C102 1.388 . S
C102 H83 0.946 . S
C102 C101 1.388 . S
C102 C103 1.384 . S
C103 C102 1.384 . S
C103 C104 1.377 . S
C104 H84 0.953 . S
C104 C103 1.377 . S
C104 C105 1.369 . S
C105 H85 0.945 . S
C105 C100 1.385 . S
C105 C104 1.369 . S
C106 C98 1.457 . S
C106 C107 1.372 . S
C106 C111 1.364 1_455 S
C107 H86 0.952 . S
C107 C106 1.372 . S
C107 C108 1.389 . S
C108 H87 0.949 . S
C108 C107 1.389 . S
C108 C109 1.387 . S
C109 C108 1.387 . S
C109 C110 1.372 1_455 S
C110 H88 0.950 . S
C110 C109 1.372 1_655 S
C110 C111 1.379 . S
C111 H89 0.948 . S
C111 C106 1.364 1_655 S
C111 C110 1.379 . S
C112 C81 1.383 1_545 S
C112 C99 1.479 . S
C112 C113 1.398 1_545 S
C113 C78 1.382 . S
C113 H90 0.951 . S
C113 C112 1.398 1_565 S
C114 C115 1.384 . S
C114 H127 0.947 . S
C114 C149 1.382 . S
C115 C114 1.384 . S
C115 C116 1.380 1_556 S
C116 C115 1.380 1_554 S
C116 C117 1.379 1_554 S
C116 H128 0.950 . S
C117 C116 1.379 1_556 S
C117 H129 0.950 . S
C117 C148 1.383 . S
H118 C137 0.947 . S
H119 C138 0.946 1_554 S
H120 C140 0.953 . S
H121 C141 0.945 . S
H122 C143 0.952 . S
H123 C144 0.949 . S
H124 C146 0.950 . S
H125 C147 0.948 . S
H126 C149 0.951 . S
H127 C114 0.947 . S
H128 C116 0.950 . S
H129 C117 0.950 . S
N130 C133 1.382 . S
N130 C135 1.363 . S
N131 C133 1.371 . S
N131 C134 1.372 . S
N132 C134 1.361 . S
N132 C135 1.377 . S
C133 N130 1.382 . S
C133 N131 1.371 . S
C133 C136 1.480 . S
C134 N131 1.372 . S
C134 N132 1.361 . S
C134 C142 1.457 . S
C135 N130 1.363 . S
C135 N132 1.377 . S
C135 C148 1.479 . S
C136 C133 1.480 . S
C136 C137 1.383 . S
C136 C141 1.385 . S
C137 H118 0.947 . S
C137 C136 1.383 . S
C137 C138 1.388 . S
C138 H119 0.946 1_556 S
C138 C137 1.388 . S
C138 C139 1.384 . S
C139 C138 1.384 . S
C139 C140 1.377 . S
C140 H120 0.953 . S
C140 C139 1.377 . S
C140 C141 1.369 . S
C141 H121 0.945 . S
C141 C136 1.385 . S
C141 C140 1.369 . S
C142 C134 1.457 . S
C142 C143 1.372 . S
C142 C147 1.364 . S
C143 H122 0.952 . S
C143 C142 1.372 . S
C143 C144 1.389 . S
C144 H123 0.949 . S
C144 C143 1.389 . S
C144 C145 1.387 . S
C145 C144 1.387 . S
C145 C146 1.372 . S
C146 H124 0.950 . S
C146 C145 1.372 . S
C146 C147 1.379 . S
C147 H125 0.948 . S
C147 C142 1.364 . S
C147 C146 1.379 . S
C148 C117 1.383 . S
C148 C135 1.479 . S
C148 C149 1.398 . S
C149 C114 1.382 . S
C149 H126 0.951 . S
C149 C148 1.398 . S
C150 C151 1.384 . S
C150 H163 0.947 . S
C150 C185 1.382 . S
C151 C150 1.384 . S
C151 C152 1.378 . S
C152 C151 1.378 . S
C152 C153 1.378 . S
C152 H164 0.952 1_554 S
C153 C152 1.378 . S
C153 H165 0.950 . S
C153 C184 1.383 . S
H154 C173 0.947 . S
H155 C174 0.946 . S
H156 C176 0.953 . S
H157 C177 0.945 . S
H158 C179 0.952 . S
H159 C180 0.949 . S
H160 C182 0.950 . S
H161 C183 0.948 . S
H162 C185 0.951 . S
H163 C150 0.947 . S
H164 C152 0.952 1_556 S
H165 C153 0.950 . S
N166 C169 1.382 . S
N166 C171 1.363 . S
N167 C169 1.371 . S
N167 C170 1.372 . S
N168 C170 1.361 . S
N168 C171 1.377 . S
C169 N166 1.382 . S
C169 N167 1.371 . S
C169 C172 1.480 . S
C170 N167 1.372 . S
C170 N168 1.361 . S
C170 C178 1.457 . S
C171 N166 1.363 . S
C171 N168 1.377 . S
C171 C184 1.479 . S
C172 C169 1.480 . S
C172 C173 1.383 . S
C172 C177 1.385 . S
C173 H154 0.947 . S
C173 C172 1.383 . S
C173 C174 1.388 . S
C174 H155 0.946 . S
C174 C173 1.388 . S
C174 C175 1.384 . S
C175 C174 1.384 . S
C175 C176 1.377 . S
C176 H156 0.953 . S
C176 C175 1.377 . S
C176 C177 1.369 . S
C177 H157 0.945 . S
C177 C172 1.385 . S
C177 C176 1.369 . S
C178 C170 1.457 . S
C178 C179 1.372 . S
C178 C183 1.364 . S
C179 H158 0.952 . S
C179 C178 1.372 . S
C179 C180 1.389 . S
C180 H159 0.949 . S
C180 C179 1.389 . S
C180 C181 1.387 . S
C181 C180 1.387 . S
C181 C182 1.372 . S
C182 H160 0.950 . S
C182 C181 1.372 . S
C182 C183 1.379 . S
C183 H161 0.948 . S
C183 C178 1.364 . S
C183 C182 1.379 . S
C184 C153 1.383 . S
C184 C171 1.479 . S
C184 C185 1.398 . S
C185 C150 1.382 . S
C185 H162 0.951 . S
C185 C184 1.398 . S
C186 C187 1.391 . S
C186 C188 1.394 . S
C186 H202 0.931 . S
C187 C186 1.391 . S
C187 C191 1.376 . S
C188 C186 1.394 . S
C188 C189 1.369 . S
C188 C192 1.531 . S
C189 C188 1.369 . S
C189 C190 1.410 . S
C189 C197 1.503 . S
C190 C189 1.410 . S
C190 C191 1.392 . S
C190 C193 1.511 . S
C191 C187 1.376 . S
C191 C190 1.392 . S
C191 H203 0.929 . S
C192 C188 1.531 . S
C192 H204 0.960 . S
C192 H205 0.962 . S
C192 H206 0.960 . S
C193 C190 1.511 . S
C193 H207 0.961 . S
C193 H208 0.961 . S
C193 H209 0.961 . S
C194 C195 1.364 1_556 S
C194 C196 1.366 . S
C194 H210 0.938 . S
C195 C194 1.364 1_554 S
C195 C199 1.408 . S
C196 C194 1.366 . S
C196 C197 1.336 1_556 S
C196 C200 1.556 . S
C197 C189 1.503 . S
C197 C196 1.336 1_554 S
C197 C198 1.403 . S
C198 C197 1.403 . S
C198 C199 1.404 . S
C198 C201 1.539 . S
C199 C195 1.408 . S
C199 C198 1.404 . S
C199 H211 0.930 . S
C200 C196 1.556 . S
C200 H212 0.956 . S
C200 H213 0.961 . S
C200 H214 0.961 . S
C201 C198 1.539 . S
C201 H215 0.958 . S
C201 H216 0.961 . S
C201 H217 0.960 . S
H202 C186 0.931 . S
H203 C191 0.929 . S
H204 C192 0.960 . S
H205 C192 0.962 . S
H206 C192 0.960 . S
H207 C193 0.961 . S
H208 C193 0.961 . S
H209 C193 0.961 . S
H210 C194 0.938 . S
H211 C199 0.930 . S
H212 C200 0.956 . S
H213 C200 0.961 . S
H214 C200 0.961 . S
H215 C201 0.958 . S
H216 C201 0.961 . S
H217 C201 0.960 . S
C218 C219 1.391 1_556 S
C218 C220 1.394 . S
C218 H234 0.931 . S
C219 C218 1.391 1_554 S
C219 C223 1.376 . S
C220 C218 1.394 . S
C220 C221 1.369 1_556 S
C220 C224 1.531 . S
C221 C220 1.369 1_554 S
C221 C222 1.410 . S
C221 C229 1.504 1_554 S
C222 C221 1.410 . S
C222 C223 1.392 . S
C222 C225 1.511 . S
C223 C219 1.376 . S
C223 C222 1.392 . S
C223 H235 0.929 . S
C224 C220 1.531 . S
C224 H236 0.960 . S
C224 H237 0.962 . S
C224 H238 0.960 . S
C225 C222 1.511 . S
C225 H239 0.961 . S
C225 H240 0.961 . S
C225 H241 0.961 . S
C226 C227 1.370 . S
C226 C228 1.363 . S
C226 H242 0.931 . S
C227 C226 1.370 . S
C227 C231 1.408 . S
C228 C226 1.363 . S
C228 C229 1.368 . S
C228 C232 1.524 1_556 S
C229 C221 1.504 1_556 S
C229 C228 1.368 . S
C229 C230 1.405 . S
C230 C229 1.405 . S
C230 C231 1.404 . S
C230 C233 1.539 . S
C231 C227 1.408 . S
C231 C230 1.404 . S
C231 H243 0.930 . S
C232 C228 1.524 1_554 S
C232 H244 0.956 1_554 S
C232 H245 0.961 . S
C232 H246 0.961 . S
C233 C230 1.539 . S
C233 H247 0.958 . S
C233 H248 0.961 1_556 S
C233 H249 0.960 1_556 S
H234 C218 0.931 . S
H235 C223 0.929 . S
H236 C224 0.960 . S
H237 C224 0.962 . S
H238 C224 0.960 . S
H239 C225 0.961 . S
H240 C225 0.961 . S
H241 C225 0.961 . S
H242 C226 0.931 . S
H243 C231 0.930 . S
H244 C232 0.956 1_556 S
H245 C232 0.961 . S
H246 C232 0.961 . S
H247 C233 0.958 . S
H248 C233 0.961 1_554 S
H249 C233 0.960 1_554 S
C250 C251 1.390 1_556 S
C250 C252 1.393 1_556 S
C250 H266 0.931 . S
C251 C250 1.390 1_554 S
C251 C255 1.376 . S
C252 C250 1.393 1_554 S
C252 C253 1.369 . S
C252 C256 1.531 1_554 S
C253 C252 1.369 . S
C253 C254 1.410 . S
C253 C261 1.503 . S
C254 C253 1.410 . S
C254 C255 1.392 . S
C254 C257 1.511 . S
C255 C251 1.376 . S
C255 C254 1.392 . S
C255 H267 0.929 . S
C256 C252 1.531 1_556 S
C256 H268 0.960 . S
C256 H269 0.978 . S
C256 H270 0.960 . S
C257 C254 1.511 . S
C257 H271 0.961 . S
C257 H272 0.961 . S
C257 H273 0.961 . S
C258 C259 1.370 . S
C258 C260 1.363 . S
C258 H274 0.931 . S
C259 C258 1.370 . S
C259 C263 1.408 . S
C260 C258 1.363 . S
C260 C261 1.370 . S
C260 C264 1.524 . S
C261 C253 1.503 . S
C261 C260 1.370 . S
C261 C262 1.403 . S
C262 C261 1.403 . S
C262 C263 1.404 . S
C262 C265 1.539 1_554 S
C263 C259 1.408 . S
C263 C262 1.404 . S
C263 H275 0.930 1_554 S
C264 C260 1.524 . S
C264 H276 0.956 . S
C264 H277 0.961 . S
C264 H278 0.961 . S
C265 C262 1.539 1_556 S
C265 H279 0.958 . S
C265 H280 0.961 . S
C265 H281 0.960 . S
H266 C250 0.931 . S
H267 C255 0.929 . S
H268 C256 0.960 . S
H269 C256 0.978 . S
H270 C256 0.960 . S
H271 C257 0.961 . S
H272 C257 0.961 . S
H273 C257 0.961 . S
H274 C258 0.931 . S
H275 C263 0.930 1_556 S
H276 C264 0.956 . S
H277 C264 0.961 . S
H278 C264 0.961 . S
H279 C265 0.958 . S
H280 C265 0.961 . S
H281 C265 0.960 . S
C282 C283 1.391 1_556 S
C282 C284 1.394 . S
C282 H298 0.931 . S
C283 C282 1.391 1_554 S
C283 C287 1.376 . S
C284 C282 1.394 . S
C284 C285 1.369 . S
C284 C288 1.531 . S
C285 C284 1.369 . S
C285 C286 1.410 1_556 S
C285 C293 1.503 . S
C286 C285 1.410 1_554 S
C286 C287 1.392 . S
C286 C289 1.511 . S
C287 C283 1.376 . S
C287 C286 1.392 . S
C287 H299 0.929 . S
C288 C284 1.531 . S
C288 H300 0.960 . S
C288 H301 0.962 . S
C288 H302 0.960 . S
C289 C286 1.511 . S
C289 H303 0.961 . S
C289 H304 0.961 . S
C289 H305 0.936 1_554 S
C290 C291 1.370 1_554 S
C290 C292 1.363 . S
C290 H306 0.931 . S
C291 C290 1.370 1_556 S
C291 C295 1.408 . S
C292 C290 1.363 . S
C292 C293 1.370 1_554 S
C292 C296 1.524 . S
C293 C285 1.503 . S
C293 C292 1.370 1_556 S
C293 C294 1.403 . S
C294 C293 1.403 . S
C294 C295 1.404 . S
C294 C297 1.539 . S
C295 C291 1.408 . S
C295 C294 1.404 . S
C295 H307 0.930 . S
C296 C292 1.524 . S
C296 H308 0.956 . S
C296 H309 0.961 . S
C296 H310 0.961 . S
C297 C294 1.539 . S
C297 H311 0.958 . S
C297 H312 0.961 . S
C297 H313 0.960 . S
H298 C282 0.931 . S
H299 C287 0.929 . S
H300 C288 0.960 . S
H301 C288 0.962 . S
H302 C288 0.960 . S
H303 C289 0.961 . S
H304 C289 0.961 . S
H305 C289 0.936 1_556 S
H306 C290 0.931 . S
H307 C295 0.930 . S
H308 C296 0.956 . S
H309 C296 0.961 . S
H310 C296 0.961 . S
H311 C297 0.958 . S
H312 C297 0.961 . S
H313 C297 0.960 . S
C314 C315 1.391 . S
C314 C316 1.394 . S
C314 H330 0.931 . S
C315 C314 1.391 . S
C315 C319 1.376 . S
C316 C314 1.394 . S
C316 C317 1.369 . S
C316 C320 1.531 . S
C317 C316 1.369 . S
C317 C318 1.410 . S
C317 C325 1.503 . S
C318 C317 1.410 . S
C318 C319 1.392 . S
C318 C321 1.511 . S
C319 C315 1.376 . S
C319 C318 1.392 . S
C319 H331 0.929 . S
C320 C316 1.531 . S
C320 H332 0.960 . S
C320 H333 0.962 . S
C320 H334 0.960 . S
C321 C318 1.511 . S
C321 H335 0.961 . S
C321 H336 0.961 . S
C321 H337 0.961 . S
C322 C323 1.370 . S
C322 C324 1.363 . S
C322 H338 0.931 . S
C323 C322 1.370 . S
C323 C327 1.408 . S
C324 C322 1.363 . S
C324 C325 1.370 . S
C324 C328 1.524 . S
C325 C317 1.503 . S
C325 C324 1.370 . S
C325 C326 1.403 . S
C326 C325 1.403 . S
C326 C327 1.404 . S
C326 C329 1.539 . S
C327 C323 1.408 . S
C327 C326 1.404 . S
C327 H339 0.930 . S
C328 C324 1.524 . S
C328 H340 0.956 . S
C328 H341 0.961 . S
C328 H342 0.961 . S
C329 C326 1.539 . S
C329 H343 0.958 . S
C329 H344 0.961 . S
C329 H345 0.960 . S
H330 C314 0.931 . S
H331 C319 0.929 . S
H332 C320 0.960 . S
H333 C320 0.962 . S
H334 C320 0.960 . S
H335 C321 0.961 . S
H336 C321 0.961 . S
H337 C321 0.961 . S
H338 C322 0.931 . S
H339 C327 0.930 . S
H340 C328 0.956 . S
H341 C328 0.961 . S
H342 C328 0.961 . S
H343 C329 0.958 . S
H344 C329 0.961 . S
H345 C329 0.960 . S
C346 C347 1.391 . S
C346 C348 1.394 . S
C346 H362 0.931 . S
C347 C346 1.391 . S
C347 C351 1.376 . S
C348 C346 1.394 . S
C348 C349 1.369 . S
C348 C352 1.531 . S
C349 C348 1.369 . S
C349 C350 1.410 . S
C349 C357 1.503 . S
C350 C349 1.410 . S
C350 C351 1.392 . S
C350 C353 1.511 . S
C351 C347 1.376 . S
C351 C350 1.392 . S
C351 H363 0.929 . S
C352 C348 1.531 . S
C352 H364 0.960 . S
C352 H365 0.962 . S
C352 H366 0.960 . S
C353 C350 1.511 . S
C353 H367 0.961 . S
C353 H368 0.961 . S
C353 H369 0.961 . S
C354 C355 1.370 . S
C354 C356 1.363 . S
C354 H370 0.931 . S
C355 C354 1.370 . S
C355 C359 1.408 . S
C356 C354 1.363 . S
C356 C357 1.370 . S
C356 C360 1.524 . S
C357 C349 1.503 . S
C357 C356 1.370 . S
C357 C358 1.403 . S
C358 C357 1.403 . S
C358 C359 1.404 . S
C358 C361 1.539 . S
C359 C355 1.408 . S
C359 C358 1.404 . S
C359 H371 0.930 . S
C360 C356 1.524 . S
C360 H372 0.956 . S
C360 H373 0.961 . S
C360 H374 0.961 . S
C361 C358 1.539 . S
C361 H375 0.958 . S
C361 H376 0.961 . S
C361 H377 0.960 . S
H362 C346 0.931 . S
H363 C351 0.929 . S
H364 C352 0.960 . S
H365 C352 0.962 . S
H366 C352 0.960 . S
H367 C353 0.961 . S
H368 C353 0.961 . S
H369 C353 0.961 . S
H370 C354 0.931 . S
H371 C359 0.930 . S
H372 C360 0.956 . S
H373 C360 0.961 . S
H374 C360 0.961 . S
H375 C361 0.958 . S
H376 C361 0.961 . S
H377 C361 0.960 . S
C378 C379 1.391 . S
C378 C380 1.394 . S
C378 H394 0.931 . S
C379 C378 1.391 . S
C379 C383 1.376 . S
C380 C378 1.394 . S
C380 C381 1.369 . S
C380 C384 1.531 . S
C381 C380 1.369 . S
C381 C382 1.410 . S
C381 C389 1.503 . S
C382 C381 1.410 . S
C382 C383 1.392 . S
C382 C385 1.511 . S
C383 C379 1.376 . S
C383 C382 1.392 . S
C383 H395 0.929 . S
C384 C380 1.531 . S
C384 H396 0.960 . S
C384 H397 0.962 . S
C384 H398 0.960 . S
C385 C382 1.511 . S
C385 H399 0.961 . S
C385 H400 0.961 . S
C385 H401 0.961 . S
C386 C387 1.370 . S
C386 C388 1.363 . S
C386 H402 0.931 . S
C387 C386 1.370 . S
C387 C391 1.408 . S
C388 C386 1.363 . S
C388 C389 1.370 . S
C388 C392 1.524 . S
C389 C381 1.503 . S
C389 C388 1.370 . S
C389 C390 1.403 . S
C390 C389 1.403 . S
C390 C391 1.404 . S
C390 C393 1.539 . S
C391 C387 1.408 . S
C391 C390 1.404 . S
C391 H403 0.930 . S
C392 C388 1.524 . S
C392 H404 0.956 . S
C392 H405 0.961 . S
C392 H406 0.961 . S
C393 C390 1.539 . S
C393 H407 0.958 . S
C393 H408 0.961 . S
C393 H409 0.960 . S
H394 C378 0.931 . S
H395 C383 0.929 . S
H396 C384 0.960 . S
H397 C384 0.962 . S
H398 C384 0.960 . S
H399 C385 0.961 . S
H400 C385 0.961 . S
H401 C385 0.961 . S
H402 C386 0.931 . S
H403 C391 0.930 . S
H404 C392 0.956 . S
H405 C392 0.961 . S
H406 C392 0.961 . S
H407 C393 0.958 . S
H408 C393 0.961 . S
H409 C393 0.960 . S
C410 C411 1.391 . S
C410 C412 1.394 . S
C410 H426 0.931 . S
C411 C410 1.391 . S
C411 C415 1.376 . S
C412 C410 1.394 . S
C412 C413 1.369 . S
C412 C416 1.531 . S
C413 C412 1.369 . S
C413 C414 1.410 . S
C413 C421 1.503 . S
C414 C413 1.410 . S
C414 C415 1.392 . S
C414 C417 1.511 . S
C415 C411 1.376 . S
C415 C414 1.392 . S
C415 H427 0.929 . S
C416 C412 1.531 . S
C416 H428 0.960 . S
C416 H429 0.962 . S
C416 H430 0.960 . S
C417 C414 1.511 . S
C417 H431 0.961 . S
C417 H432 0.961 . S
C417 H433 0.961 . S
C418 C419 1.370 . S
C418 C420 1.363 . S
C418 H434 0.931 . S
C419 C418 1.370 . S
C419 C423 1.408 . S
C420 C418 1.363 . S
C420 C421 1.370 . S
C420 C424 1.524 . S
C421 C413 1.503 . S
C421 C420 1.370 . S
C421 C422 1.403 . S
C422 C421 1.403 . S
C422 C423 1.404 . S
C422 C425 1.539 . S
C423 C419 1.408 . S
C423 C422 1.404 . S
C423 H435 0.930 . S
C424 C420 1.524 . S
C424 H436 0.956 . S
C424 H437 0.961 . S
C424 H438 0.961 . S
C425 C422 1.539 . S
C425 H439 0.958 . S
C425 H440 0.961 . S
C425 H441 0.960 . S
H426 C410 0.931 . S
H427 C415 0.929 . S
H428 C416 0.960 . S
H429 C416 0.962 . S
H430 C416 0.960 . S
H431 C417 0.961 . S
H432 C417 0.961 . S
H433 C417 0.961 . S
H434 C418 0.931 . S
H435 C423 0.930 . S
H436 C424 0.956 . S
H437 C424 0.961 . S
H438 C424 0.961 . S
H439 C425 0.958 . S
H440 C425 0.961 . S
H441 C425 0.960 . S
C442 C443 1.391 1_565 S
C442 C444 1.394 . S
C442 H458 0.931 1_455 S
C443 C442 1.391 1_545 S
C443 C447 1.376 . S
C444 C442 1.394 . S
C444 C445 1.369 . S
C444 C448 1.531 1_455 S
C445 C444 1.369 . S
C445 C446 1.410 1_565 S
C445 C453 1.503 . S
C446 C445 1.410 1_545 S
C446 C447 1.392 . S
C446 C449 1.511 . S
C447 C443 1.376 . S
C447 C446 1.392 . S
C447 H459 0.929 . S
C448 C444 1.531 1_655 S
C448 H460 0.960 . S
C448 H461 0.962 . S
C448 H462 0.960 . S
C449 C446 1.511 . S
C449 H463 0.961 . S
C449 H464 0.961 . S
C449 H465 0.961 . S
C450 C451 1.370 1_545 S
C450 C452 1.363 . S
C450 H466 0.931 . S
C451 C450 1.370 1_565 S
C451 C455 1.408 . S
C452 C450 1.363 . S
C452 C453 1.370 1_545 S
C452 C456 1.524 1_455 S
C453 C445 1.503 . S
C453 C452 1.370 1_565 S
C453 C454 1.403 . S
C454 C453 1.403 . S
C454 C455 1.404 . S
C454 C457 1.539 . S
C455 C451 1.408 . S
C455 C454 1.404 . S
C455 H467 0.930 . S
C456 C452 1.524 1_655 S
C456 H468 0.956 . S
C456 H469 0.961 1_655 S
C456 H470 0.961 . S
C457 C454 1.539 . S
C457 H471 0.958 . S
C457 H472 0.961 . S
C457 H473 0.960 . S
H458 C442 0.931 1_655 S
H459 C447 0.929 . S
H460 C448 0.960 . S
H461 C448 0.962 . S
H462 C448 0.960 . S
H463 C449 0.961 . S
H464 C449 0.961 . S
H465 C449 0.961 . S
H466 C450 0.931 . S
H467 C455 0.930 . S
H468 C456 0.956 . S
H469 C456 0.961 1_455 S
H470 C456 0.961 . S
H471 C457 0.958 . S
H472 C457 0.961 . S
H473 C457 0.960 . S
C474 C475 1.391 . S
C474 C476 1.394 . S
C474 H490 0.931 . S
C475 C474 1.391 . S
C475 C479 1.376 1_455 S
C476 C474 1.394 . S
C476 C477 1.369 . S
C476 C480 1.531 . S
C477 C476 1.369 . S
C477 C478 1.410 1_455 S
C477 C485 1.503 . S
C478 C477 1.410 1_655 S
C478 C479 1.392 . S
C478 C481 1.511 . S
C479 C475 1.376 1_655 S
C479 C478 1.392 . S
C479 H491 0.929 . S
C480 C476 1.531 . S
C480 H492 0.962 . S
C480 H493 0.962 . S
C480 H494 0.960 1_545 S
C481 C478 1.511 . S
C481 H495 0.961 . S
C481 H496 0.961 . S
C481 H497 0.961 . S
C482 C483 1.370 . S
C482 C484 1.363 . S
C482 H498 0.931 . S
C483 C482 1.370 . S
C483 C487 1.408 1_455 S
C484 C482 1.363 . S
C484 C485 1.370 . S
C484 C488 1.524 . S
C485 C477 1.503 . S
C485 C484 1.370 . S
C485 C486 1.403 1_455 S
C486 C485 1.403 1_655 S
C486 C487 1.404 . S
C486 C489 1.539 1_545 S
C487 C483 1.408 1_655 S
C487 C486 1.404 . S
C487 H499 0.930 . S
C488 C484 1.524 . S
C488 H500 0.956 . S
C488 H501 0.961 . S
C488 H502 0.961 . S
C489 C486 1.539 1_565 S
C489 H503 0.958 . S
C489 H504 0.961 . S
C489 H505 0.960 . S
H490 C474 0.931 . S
H491 C479 0.929 . S
H492 C480 0.962 . S
H493 C480 0.962 . S
H494 C480 0.960 1_565 S
H495 C481 0.961 . S
H496 C481 0.961 . S
H497 C481 0.961 . S
H498 C482 0.931 . S
H499 C487 0.930 . S
H500 C488 0.956 . S
H501 C488 0.961 . S
H502 C488 0.961 . S
H503 C489 0.958 . S
H504 C489 0.961 . S
H505 C489 0.960 . S
C506 C507 1.391 . S
C506 C508 1.394 . S
C506 H522 0.931 . S
C507 C506 1.391 . S
C507 C511 1.376 . S
C508 C506 1.394 . S
C508 C509 1.369 . S
C508 C512 1.531 . S
C509 C508 1.369 . S
C509 C510 1.410 . S
C509 C517 1.503 . S
C510 C509 1.410 . S
C510 C511 1.392 . S
C510 C513 1.511 . S
C511 C507 1.376 . S
C511 C510 1.392 . S
C511 H523 0.929 . S
C512 C508 1.531 . S
C512 H524 0.960 . S
C512 H525 0.962 . S
C512 H526 0.960 . S
C513 C510 1.511 . S
C513 H527 0.961 . S
C513 H528 0.961 . S
C513 H529 0.961 . S
C514 C515 1.370 . S
C514 C516 1.363 . S
C514 H530 0.931 . S
C515 C514 1.370 . S
C515 C519 1.408 . S
C516 C514 1.363 . S
C516 C517 1.370 . S
C516 C520 1.524 . S
C517 C509 1.503 . S
C517 C516 1.370 . S
C517 C518 1.403 . S
C518 C517 1.403 . S
C518 C519 1.404 . S
C518 C521 1.539 . S
C519 C515 1.408 . S
C519 C518 1.404 . S
C519 H531 0.930 . S
C520 C516 1.524 . S
C520 H532 0.956 . S
C520 H533 0.961 . S
C520 H534 0.961 . S
C521 C518 1.539 . S
C521 H535 0.958 . S
C521 H536 0.961 . S
C521 H537 0.960 . S
H522 C506 0.931 . S
H523 C511 0.929 . S
H524 C512 0.960 . S
H525 C512 0.962 . S
H526 C512 0.960 . S
H527 C513 0.961 . S
H528 C513 0.961 . S
H529 C513 0.961 . S
H530 C514 0.931 . S
H531 C519 0.930 . S
H532 C520 0.956 . S
H533 C520 0.961 . S
H534 C520 0.961 . S
H535 C521 0.958 . S
H536 C521 0.961 . S
H537 C521 0.960 . S
C538 C539 1.391 . S
C538 C540 1.394 . S
C538 H554 0.931 . S
C539 C538 1.391 . S
C539 C543 1.376 . S
C540 C538 1.394 . S
C540 C541 1.369 . S
C540 C544 1.531 . S
C541 C540 1.369 . S
C541 C542 1.410 . S
C541 C549 1.503 . S
C542 C541 1.410 . S
C542 C543 1.392 . S
C542 C545 1.511 . S
C543 C539 1.376 . S
C543 C542 1.392 . S
C543 H555 0.929 . S
C544 C540 1.531 . S
C544 H556 0.960 . S
C544 H557 0.962 . S
C544 H558 0.960 . S
C545 C542 1.511 . S
C545 H559 0.961 . S
C545 H560 0.961 . S
C545 H561 0.961 . S
C546 C547 1.370 . S
C546 C548 1.363 . S
C546 H562 0.931 . S
C547 C546 1.370 . S
C547 C551 1.408 . S
C548 C546 1.363 . S
C548 C549 1.370 . S
C548 C552 1.524 . S
C549 C541 1.503 . S
C549 C548 1.370 . S
C549 C550 1.403 . S
C550 C549 1.403 . S
C550 C551 1.404 . S
C550 C553 1.539 . S
C551 C547 1.408 . S
C551 C550 1.404 . S
C551 H563 0.930 . S
C552 C548 1.524 . S
C552 H564 0.956 . S
C552 H565 0.961 . S
C552 H566 0.961 . S
C553 C550 1.539 . S
C553 H567 0.958 . S
C553 H568 0.961 . S
C553 H569 0.960 . S
H554 C538 0.931 . S
H555 C543 0.929 . S
H556 C544 0.960 . S
H557 C544 0.962 . S
H558 C544 0.960 . S
H559 C545 0.961 . S
H560 C545 0.961 . S
H561 C545 0.961 . S
H562 C546 0.931 . S
H563 C551 0.930 . S
H564 C552 0.956 . S
H565 C552 0.961 . S
H566 C552 0.961 . S
H567 C553 0.958 . S
H568 C553 0.961 . S
H569 C553 0.960 . S
C195 C151 1.457 . S
C187 C15 1.294 . S
C219 C13 1.507 . S
C227 C115 1.512 . S
C251 C18 1.291 . S
C259 C175 1.462 . S
C283 C17 1.306 . S
C291 C139 1.361 . S
C315 C36 1.286 . S
C323 C79 1.459 . S
C347 C34 1.544 . S
C355 C43 1.517 . S
C387 C103 1.459 . S
C379 C39 1.289 . S
C419 C67 1.357 . S
C411 C38 1.319 . S
C443 C14 1.507 . S
C451 C73 1.557 . S
C475 C16 1.363 . S
C483 C109 1.414 . S
C515 C145 1.551 . S
C507 C35 1.518 . S
C539 C37 1.405 . S
C547 C181 1.420 . S
