# Generated by pormake.
# Topology anh, (6,3)-cn, num edge types: 1
# Building blocks:
#     Node 0, Type 0, BuildingBlock: BETFAJ_clean_sbu_0, # of connection points: 6
#     Node 1, Type 0, BuildingBlock: BETFAJ_clean_sbu_0, # of connection points: 6
#     Node 2, Type 0, BuildingBlock: BETFAJ_clean_sbu_0, # of connection points: 6
#     Node 3, Type 1, BuildingBlock: CUQRIR_clean_linker_1, # of connection points: 3
#     Node 4, Type 1, BuildingBlock: CUQRIR_clean_linker_1, # of connection points: 3
#     Node 5, Type 1, BuildingBlock: CUQRIR_clean_linker_1, # of connection points: 3
#     Node 6, Type 1, BuildingBlock: CUQRIR_clean_linker_1, # of connection points: 3
#     Node 7, Type 1, BuildingBlock: CUQRIR_clean_linker_1, # of connection points: 3
#     Node 8, Type 1, BuildingBlock: CUQRIR_clean_linker_1, # of connection points: 3
#     Edge 9, Type (0, 1), BuildingBlock: XUDNAN_clean_linker_2, # of connection points: 2
#     Edge 10, Type (0, 1), BuildingBlock: XUDNAN_clean_linker_2, # of connection points: 2
#     Edge 11, Type (0, 1), BuildingBlock: XUDNAN_clean_linker_2, # of connection points: 2
#     Edge 12, Type (0, 1), BuildingBlock: XUDNAN_clean_linker_2, # of connection points: 2
#     Edge 13, Type (0, 1), BuildingBlock: XUDNAN_clean_linker_2, # of connection points: 2
#     Edge 14, Type (0, 1), BuildingBlock: XUDNAN_clean_linker_2, # of connection points: 2
#     Edge 15, Type (0, 1), BuildingBlock: XUDNAN_clean_linker_2, # of connection points: 2
#     Edge 16, Type (0, 1), BuildingBlock: XUDNAN_clean_linker_2, # of connection points: 2
#     Edge 17, Type (0, 1), BuildingBlock: XUDNAN_clean_linker_2, # of connection points: 2
#     Edge 18, Type (0, 1), BuildingBlock: XUDNAN_clean_linker_2, # of connection points: 2
#     Edge 19, Type (0, 1), BuildingBlock: XUDNAN_clean_linker_2, # of connection points: 2
#     Edge 20, Type (0, 1), BuildingBlock: XUDNAN_clean_linker_2, # of connection points: 2
#     Edge 21, Type (0, 1), BuildingBlock: XUDNAN_clean_linker_2, # of connection points: 2
#     Edge 22, Type (0, 1), BuildingBlock: XUDNAN_clean_linker_2, # of connection points: 2
#     Edge 23, Type (0, 1), BuildingBlock: XUDNAN_clean_linker_2, # of connection points: 2
#     Edge 24, Type (0, 1), BuildingBlock: XUDNAN_clean_linker_2, # of connection points: 2
#     Edge 25, Type (0, 1), BuildingBlock: XUDNAN_clean_linker_2, # of connection points: 2
#     Edge 26, Type (0, 1), BuildingBlock: XUDNAN_clean_linker_2, # of connection points: 2
# Relax obj value: 0.203
# Max RMSD: 0.217
# Mean RMSD: 0.164
data_MOF--net-anh--node1-BETFAJ_clean_sbu_0--node2-CUQRIR_clean_linker_1--edge1-XUDNAN_clean_linker_2
_symmetry_space_group_name_H-M    P1
_symmetry_Int_Tables_number       1
_symmetry_cell_setting            triclinic
loop_
_symmetry_equiv_pos_as_xyz
'x, y, z'
_cell_length_a     28.078795
_cell_length_b     35.182795
_cell_length_c     46.516016
_cell_angle_alpha  87.603512
_cell_angle_beta   89.980601
_cell_angle_gamma 130.49175
loop_
_atom_site_label
_atom_site_type_symbol
_atom_site_fract_x
_atom_site_fract_y
_atom_site_fract_z
_atom_type_partial_charge
Sm0 Sm 0.19858 0.5058 0.15622 0.0
Sm1 Sm 1.10107 0.50766 0.14487 0.0
C2 C 0.30911 0.53092 0.15867 0.0
C3 C 0.36349 0.57472 0.17273 0.0
C4 C 0.42341 0.60299 0.15997 0.0
C5 C 0.47519 0.6432 0.17399 0.0
C6 C 0.468 0.65554 0.20128 0.0
C7 C 0.40714 0.62999 0.2126 0.0
C8 C 0.35533 0.58997 0.19844 0.0
C9 C 0.13533 0.49051 0.20645 0.0
C10 C 0.23719 0.61561 0.15512 0.0
C11 C 1.0082 0.50759 0.13835 0.0
C12 C 0.94557 0.47025 0.12683 0.0
C13 C 0.90455 0.42048 0.13833 0.0
C14 C 0.84265 0.38731 0.1298 0.0
C15 C 0.82133 0.40327 0.10941 0.0
C16 C 0.86422 0.45105 0.09554 0.0
C17 C 0.9259 0.48451 0.10438 0.0
C18 C 0.13931 0.48999 0.09619 0.0
C19 C 1.06187 0.39969 0.15448 0.0
O20 O 0.29159 0.54111 0.13577 0.0
O21 O 0.26203 0.49571 0.17577 0.0
O22 O 0.151 0.52265 0.18645 0.0
O23 O 0.15264 0.46544 0.20012 0.0
O24 O 0.25311 0.58903 0.16306 0.0
O25 O 0.1806 0.59342 0.14586 0.0
O26 O 1.01875 0.49512 0.16294 0.0
O27 O 1.05528 0.5305 0.11969 0.0
O28 O 0.17472 0.5226 0.11394 0.0
O29 O 1.08146 0.46338 0.10486 0.0
O30 O 1.04594 0.42608 0.16152 0.0
O31 O 0.12004 0.42312 0.1453 0.0
H32 H 0.43046 0.5927 0.13978 0.0
H33 H 0.52122 0.66131 0.16464 0.0
H34 H 0.40003 0.63821 0.23357 0.0
H35 H 0.30902 0.56971 0.20821 0.0
H36 H 0.91902 0.40794 0.15512 0.0
H37 H 0.80999 0.35091 0.14109 0.0
H38 H 0.84834 0.46443 0.08019 0.0
H39 H 0.95717 0.52237 0.09482 0.0
Sm40 Sm 0.76642 0.06751 0.47199 0.0
Sm41 Sm 0.69142 0.10565 0.45647 0.0
C42 C 0.81059 0.02674 0.49564 0.0
C43 C 0.7876 0.97883 0.50911 0.0
C44 C 0.83024 0.97591 0.52198 0.0
C45 C 0.81043 0.92997 0.53302 0.0
C46 C 0.74752 0.88609 0.53131 0.0
C47 C 0.70441 0.88946 0.51913 0.0
C48 C 0.72436 0.93554 0.50807 0.0
C49 C 0.77224 0.09492 0.41515 0.0
C50 C 0.61296 0.98461 0.46224 0.0
C51 C 0.64409 0.1425 0.43099 0.0
C52 C 0.64349 0.1823 0.43842 0.0
C53 C 0.61655 0.19603 0.42025 0.0
C54 C 0.61512 0.23337 0.42787 0.0
C55 C 0.64054 0.25741 0.45383 0.0
C56 C 0.66795 0.24357 0.47179 0.0
C57 C 0.66958 0.20652 0.4641 0.0
C58 C 0.7003 0.09824 0.51576 0.0
C59 C 0.84469 0.18807 0.46483 0.0
O60 O 0.80045 0.05221 0.51011 0.0
O61 O 0.80151 0.02696 0.46804 0.0
O62 O 0.72384 0.07142 0.43162 0.0
O63 O 0.81818 0.10203 0.42824 0.0
O64 O 0.66319 0.9931 0.47226 0.0
O65 O 0.61401 0.02103 0.45241 0.0
O66 O 0.69929 0.15738 0.42379 0.0
O67 O 0.6111 0.10246 0.44857 0.0
O68 O 0.72115 0.08959 0.49577 0.0
O69 O 0.67351 0.11415 0.50441 0.0
O70 O 0.79485 0.178 0.45315 0.0
O71 O 0.84347 0.15263 0.47705 0.0
H72 H 0.87919 1.00906 0.52302 0.0
H73 H 0.84452 0.92871 0.54266 0.0
H74 H 0.65578 0.85628 0.51727 0.0
H75 H 0.69081 0.93719 0.49814 0.0
H76 H 0.59647 0.17779 0.40027 0.0
H77 H 0.59437 0.24354 0.41338 0.0
H78 H 0.68702 0.26059 0.49214 0.0
H79 H 0.69068 0.19637 0.47836 0.0
Sm80 Sm 0.66537 0.60651 0.8454 0.0
Sm81 Sm 0.56199 0.48541 0.84944 0.0
C82 C 0.73155 0.70341 0.83152 0.0
C83 C 0.72596 0.73982 0.81929 0.0
C84 C 0.66889 0.72482 0.80959 0.0
C85 C 0.66511 0.7605 0.79838 0.0
C86 C 0.71853 0.81187 0.79647 0.0
C87 C 0.77545 0.82643 0.80634 0.0
C88 C 0.77903 0.79085 0.8176 0.0
C89 C 0.63286 0.5595 0.89935 0.0
C90 C 0.5091 0.54618 0.84682 0.0
C91 C 0.50062 0.39155 0.86774 0.0
C92 C 0.50609 0.35389 0.86018 0.0
C93 C 0.56505 0.36797 0.85455 0.0
C94 C 0.57004 0.33266 0.84661 0.0
C95 C 0.51614 0.28224 0.84409 0.0
C96 C 0.45711 0.26827 0.84977 0.0
C97 C 0.4522 0.30371 0.85768 0.0
C98 C 0.59883 0.52105 0.79273 0.0
C99 C 0.7184 0.54601 0.84557 0.0
O100 O 0.72489 0.67211 0.81403 0.0
O101 O 0.70549 0.68268 0.85707 0.0
O102 O 0.59639 0.54683 0.87902 0.0
O103 O 0.6892 0.60077 0.89223 0.0
O104 O 0.5683 0.58732 0.84022 0.0
O105 O 0.49437 0.50243 0.85392 0.0
O106 O 0.54762 0.42995 0.88138 0.0
O107 O 0.47935 0.40416 0.84777 0.0
O108 O 0.61804 0.54587 0.81485 0.0
O109 O 0.55565 0.47395 0.80037 0.0
O110 O 0.65914 0.50442 0.85082 0.0
O111 O 0.73368 0.59039 0.84087 0.0
H112 H 0.62747 0.68558 0.81061 0.0
H113 H 0.62062 0.74779 0.7908 0.0
H114 H 0.81732 0.86555 0.80572 0.0
H115 H 0.82347 0.8033 0.82511 0.0
H116 H 0.60748 0.40636 0.8563 0.0
H117 H 0.61631 0.34485 0.84283 0.0
H118 H 0.41449 0.23001 0.84768 0.0
H119 H 0.4062 0.29195 0.86168 0.0
C120 C 0.64451 1.00831 0.17114 0.0
N121 N 0.6872 0.04517 0.18857 0.0
N122 N 0.59609 0.96702 0.18688 0.0
C123 C 0.65033 1.01233 0.13884 0.0
C124 C 0.61052 0.98012 0.2145 0.0
N125 N 0.66553 0.02781 0.21559 0.0
C126 C 0.57163 0.94562 0.2404 0.0
H127 H 0.60362 0.98749 0.1292 0.0
H128 H 0.67676 1.00059 0.13202 0.0
H129 H 0.67625 0.05153 0.13057 0.0
H130 H 0.60204 0.95222 0.25824 0.0
H131 H 0.54119 0.90573 0.23535 0.0
H132 H 0.54091 0.95301 0.24786 0.0
C133 C 0.6821 0.55804 0.53997 0.0
N134 N 0.68493 0.58026 0.56373 0.0
N135 N 0.67617 0.5175 0.54744 0.0
C136 C 0.6817 0.57444 0.50965 0.0
C137 C 0.67499 0.51564 0.57658 0.0
N138 N 0.67989 0.55367 0.58651 0.0
C139 C 0.66632 0.47541 0.59523 0.0
H140 H 0.6449 0.57757 0.50807 0.0
H141 H 0.67365 0.54835 0.49375 0.0
H142 H 0.72741 0.61208 0.50419 0.0
H143 H 0.6884 0.46215 0.58489 0.0
H144 H 0.61546 0.44305 0.59834 0.0
H145 H 0.68662 0.4891 0.61662 0.0
C146 C 0.11392 0.54571 0.84951 0.0
N147 N 0.14958 0.54128 0.8671 0.0
N148 N 1.06907 0.5418 0.86487 0.0
C149 C 0.12183 0.55285 0.81732 0.0
C150 C 1.07818 0.53396 0.89234 0.0
N151 N 0.12604 0.53325 0.8937 0.0
C152 C 1.0396 0.52642 0.91805 0.0
H153 H 0.15476 0.59352 0.81123 0.0
H154 H 1.07654 0.53589 0.80727 0.0
H155 H 0.14135 0.53624 0.80887 0.0
H156 H 1.00056 0.48573 0.92247 0.0
H157 H 1.01909 0.54437 0.91421 0.0
H158 H 1.06834 0.54182 0.93743 0.0
C159 C 0.23137 0.58755 0.44633 0.0
N160 N 0.18983 0.55001 0.42885 0.0
N161 N 0.26027 0.63293 0.43274 0.0
C162 C 0.24033 0.58021 0.47729 0.0
C163 C 0.2346 0.62185 0.4066 0.0
N164 N 0.19157 0.57171 0.40425 0.0
C165 C 0.25375 0.66039 0.38293 0.0
H166 H 0.25719 0.61306 0.48957 0.0
H167 H 0.27605 0.57586 0.47825 0.0
H168 H 0.19594 0.546 0.4875 0.0
H169 H 0.30186 0.69608 0.38583 0.0
H170 H 0.22095 0.66783 0.38343 0.0
H171 H 0.25174 0.64666 0.36154 0.0
C172 C 0.62538 0.05584 0.77041 0.0
N173 N 0.64172 0.04256 0.74786 0.0
N174 N 0.60812 0.08229 0.76109 0.0
C175 C 0.63098 0.04646 0.80158 0.0
C176 C 0.6142 0.08441 0.73204 0.0
N177 N 0.63581 0.06118 0.72389 0.0
C178 C 0.59165 0.10392 0.71176 0.0
H179 H 0.58619 1.00999 0.80959 0.0
H180 H 0.64049 0.07612 0.81481 0.0
H181 H 0.66898 0.04492 0.80427 0.0
H182 H 0.63051 0.14437 0.70647 0.0
H183 H 0.55246 0.09956 0.72191 0.0
H184 H 0.5755 0.08387 0.69151 0.0
C185 C 0.53922 0.47493 0.15203 0.0
N186 N 0.53951 0.45766 0.12643 0.0
N187 N 0.55125 0.51888 0.1481 0.0
C188 C 0.5259 0.44827 0.18104 0.0
C189 C 0.55416 0.52592 0.11911 0.0
N190 N 0.54731 0.48918 0.10606 0.0
C191 C 0.56238 0.56818 0.10333 0.0
H192 H 0.51647 0.41259 0.17941 0.0
H193 H 0.48323 0.43847 0.19117 0.0
H194 H 0.56553 0.4732 0.19534 0.0
H195 H 0.61182 0.59694 0.0954 0.0
H196 H 0.55022 0.58556 0.11754 0.0
H197 H 0.53245 0.55436 0.0843 0.0
H198 H 0.46874 0.6203 0.25342 0.0
H199 H 0.59094 0.74679 0.19401 0.0
H200 H 0.66537 0.73271 0.19399 0.0
H201 H 0.58999 0.592 0.26984 0.0
H202 H 0.52312 0.52694 0.26615 0.0
H203 H 0.51482 0.56603 0.28529 0.0
H204 H 0.42486 0.53958 0.25236 0.0
H205 H 0.4339 0.5019 0.23321 0.0
H206 H 0.43915 0.55006 0.21378 0.0
H207 H 0.68619 0.68255 0.17424 0.0
H208 H 0.65776 0.61575 0.14357 0.0
H209 H 0.49657 0.50636 0.19964 0.0
C210 C 0.51346 0.64646 0.24187 0.0
C211 C 0.52127 0.68029 0.22093 0.0
C212 C 0.582 0.7179 0.20871 0.0
C213 C 0.62418 0.70923 0.20821 0.0
C214 C 0.60391 0.66337 0.22018 0.0
C215 C 0.54971 0.63258 0.2379 0.0
C216 C 0.52261 0.5785 0.23844 0.0
C217 C 0.53864 0.56511 0.26659 0.0
C218 C 0.45105 0.54048 0.23408 0.0
C219 C 0.55961 0.58186 0.21337 0.0
C220 C 0.61055 0.63126 0.20549 0.0
C221 C 0.64718 0.6439 0.18071 0.0
C222 C 0.62972 0.60586 0.16294 0.0
C223 C 0.57403 0.55599 0.16902 0.0
C224 C 0.54011 0.54379 0.19502 0.0
H225 H 0.86334 0.271 0.44314 0.0
H226 H 0.96193 0.22578 0.48147 0.0
H227 H 1.06131 0.31344 0.47595 0.0
H228 H 0.98397 0.36132 0.3906 0.0
H229 H 0.97019 0.4044 0.39364 0.0
H230 H 0.90688 0.33826 0.40071 0.0
H231 H 0.88695 0.35472 0.45129 0.0
H232 H 0.94991 0.4209 0.4443 0.0
H233 H 0.95055 0.38938 0.47567 0.0
H234 H 0.15107 0.40665 0.46493 0.0
H235 H 0.22203 0.49751 0.45138 0.0
H236 H 1.06403 0.48173 0.42189 0.0
C237 C 0.90566 0.27931 0.4505 0.0
C238 C 0.90448 0.24112 0.4628 0.0
C239 C 0.96129 0.25412 0.47208 0.0
C240 C 1.01809 0.30388 0.46894 0.0
C241 C 1.01751 0.3404 0.45652 0.0
C242 C 0.96263 0.32869 0.44758 0.0
C243 C 0.97441 0.37479 0.43503 0.0
C244 C 0.95787 0.36934 0.4031 0.0
C245 C 0.93832 0.38558 0.45263 0.0
C246 C 1.04449 0.41443 0.43844 0.0
C247 C 1.06863 0.39383 0.45068 0.0
C248 C 0.13245 0.42311 0.45555 0.0
C249 C 0.17238 0.47467 0.44794 0.0
C250 C 0.14848 0.49664 0.43582 0.0
C251 C 1.08366 0.46588 0.43093 0.0
H252 H 0.62522 0.81712 0.80451 0.0
H253 H 0.80549 0.8943 0.76064 0.0
H254 H 0.80415 0.9604 0.74226 0.0
H255 H 0.55925 0.8457 0.7488 0.0
H256 H 0.51871 0.85387 0.7744 0.0
H257 H 0.53291 0.81173 0.78336 0.0
H258 H 0.5887 0.85939 0.82925 0.0
H259 H 0.57494 0.9018 0.82036 0.0
H260 H 0.65355 0.92591 0.82603 0.0
H261 H 0.78519 0.02054 0.73002 0.0
H262 H 0.749 0.06874 0.72509 0.0
H263 H 0.58022 0.95155 0.77531 0.0
C264 C 0.66401 0.8475 0.79069 0.0
C265 C 0.71562 0.85038 0.7842 0.0
C266 C 0.76581 0.89141 0.76636 0.0
C267 C 0.76533 0.92908 0.75562 0.0
C268 C 0.7142 0.92541 0.76273 0.0
C269 C 0.66433 0.88555 0.77978 0.0
C270 C 0.61578 0.89115 0.78479 0.0
C271 C 0.55294 0.84805 0.77207 0.0
C272 C 0.6078 0.89478 0.81702 0.0
C273 C 0.64633 0.94048 0.76812 0.0
C274 C 0.70305 0.95966 0.75547 0.0
C275 C 0.74057 1.0056 0.73964 0.0
C276 C 0.71971 0.03267 0.73684 0.0
C277 C 0.66185 1.0137 0.74968 0.0
C278 C 0.62471 0.96686 0.76533 0.0
H279 H 0.76706 0.40692 0.15377 0.0
H280 H 0.73329 0.35709 0.06713 0.0
H281 H 0.63625 0.34584 0.06721 0.0
H282 H 0.60243 0.34547 0.18087 0.0
H283 H 0.63216 0.40282 0.19674 0.0
H284 H 0.68001 0.38548 0.19495 0.0
H285 H 0.76848 0.47111 0.16839 0.0
H286 H 0.72107 0.48836 0.16985 0.0
H287 H 0.75153 0.48885 0.13558 0.0
H288 H 0.55041 0.35205 0.07543 0.0
H289 H 0.50135 0.38852 0.08579 0.0
H290 H 0.62134 0.46021 0.15831 0.0
C291 C 0.7368 0.39047 0.13558 0.0
C292 C 0.75537 0.38065 0.11099 0.0
C293 C 0.71788 0.3628 0.08656 0.0
C294 C 0.66293 0.35645 0.0865 0.0
C295 C 0.64803 0.36985 0.11064 0.0
C296 C 0.68506 0.38739 0.13454 0.0
C297 C 0.6725 0.41356 0.15384 0.0
C298 C 0.64512 0.3851 0.18334 0.0
C299 C 0.73185 0.46867 0.15704 0.0
C300 C 0.62416 0.40959 0.13675 0.0
C301 C 0.60762 0.38192 0.11285 0.0
C302 C 0.56356 0.37407 0.09404 0.0
C303 C 0.5369 0.39589 0.09972 0.0
C304 C 0.55762 0.42785 0.12282 0.0
C305 C 0.60202 0.43445 0.14126 0.0
H306 H 0.59278 0.89636 0.46087 0.0
H307 H 0.49597 0.95463 0.46261 0.0
H308 H 0.3947 0.86912 0.46059 0.0
H309 H 0.49584 0.80601 0.4097 0.0
H310 H 0.49668 0.75886 0.42563 0.0
H311 H 0.5616 0.82405 0.4302 0.0
H312 H 0.54806 0.80716 0.48554 0.0
H313 H 0.4828 0.74185 0.48114 0.0
H314 H 0.4732 0.77778 0.50295 0.0
H315 H 0.30449 0.77904 0.45539 0.0
H316 H 0.23111 0.68968 0.44414 0.0
H317 H 0.38334 0.68751 0.44457 0.0
C318 C 0.55016 0.89095 0.46127 0.0
C319 C 0.55244 0.93235 0.46204 0.0
C320 C 0.49563 0.92371 0.46196 0.0
C321 C 0.43771 0.87515 0.461 0.0
C322 C 0.43699 0.83529 0.45998 0.0
C323 C 0.4916 0.84249 0.45992 0.0
C324 C 0.47749 0.79326 0.45644 0.0
C325 C 0.50982 0.79571 0.42885 0.0
C326 C 0.49652 0.77919 0.48311 0.0
C327 C 0.40663 0.7576 0.45407 0.0
C328 C 0.38438 0.78274 0.4566 0.0
C329 C 0.32121 0.75882 0.45373 0.0
C330 C 0.27986 0.70819 0.44747 0.0
C331 C 0.30163 0.68197 0.44405 0.0
C332 C 0.36562 0.7067 0.44784 0.0
H333 H 0.59817 0.29401 0.80397 0.0
H334 H 0.44658 0.18467 0.86523 0.0
H335 H 0.45485 0.12212 0.85134 0.0
H336 H 0.55552 0.20943 0.74918 0.0
H337 H 0.63514 0.23891 0.7389 0.0
H338 H 0.61773 0.27528 0.75383 0.0
H339 H 0.69773 0.30322 0.79354 0.0
H340 H 0.71548 0.267 0.7787 0.0
H341 H 0.69038 0.2565 0.81599 0.0
H342 H 0.47908 0.07065 0.83024 0.0
H343 H 0.51652 0.03486 0.80293 0.0
H344 H 0.65397 0.17809 0.75675 0.0
C345 C 0.56706 0.2571 0.81473 0.0
C346 C 0.52155 0.24447 0.83573 0.0
C347 C 0.48122 0.19529 0.84882 0.0
C348 C 0.48586 0.15951 0.84121 0.0
C349 C 0.53115 0.17326 0.82046 0.0
C350 C 0.57106 0.22091 0.8074 0.0
C351 C 0.61519 0.226 0.78547 0.0
C352 C 0.60527 0.23812 0.75505 0.0
C353 C 0.68375 0.26552 0.79394 0.0
C354 C 0.59375 0.17375 0.78815 0.0
C355 C 0.54531 0.14386 0.8085 0.0
C356 C 0.51722 0.09386 0.81439 0.0
C357 C 0.5389 0.07386 0.79894 0.0
C358 C 0.58815 0.10374 0.77788 0.0
C359 C 0.61603 0.1544 0.77265 0.0
H360 H 0.81001 0.85217 0.52169 0.0
H361 H 0.64028 0.8084 0.56206 0.0
H362 H 0.60731 0.72566 0.57675 0.0
H363 H 0.74145 0.7353 0.49368 0.0
H364 H 0.80794 0.73937 0.49996 0.0
H365 H 0.81913 0.79561 0.49386 0.0
H366 H 0.87549 0.82792 0.54217 0.0
H367 H 0.8646 0.77178 0.54839 0.0
H368 H 0.83648 0.78959 0.57494 0.0
H369 H 0.59221 0.64681 0.58597 0.0
H370 H 0.59494 0.57758 0.58728 0.0
H371 H 0.77485 0.67419 0.54146 0.0
C372 C 0.76638 0.82555 0.53405 0.0
C373 C 0.72791 0.83684 0.54094 0.0
C374 C 0.67034 0.80042 0.55646 0.0
C375 C 0.65145 0.75351 0.56503 0.0
C376 C 0.69064 0.74368 0.55786 0.0
C377 C 0.74686 0.77871 0.54268 0.0
C378 C 0.77949 0.75847 0.5367 0.0
C379 C 0.78744 0.7571 0.50412 0.0
C380 C 0.84276 0.78874 0.55144 0.0
C381 C 0.73261 0.70633 0.55064 0.0
C382 C 0.68181 0.69851 0.56293 0.0
C383 C 0.63191 0.65266 0.57655 0.0
C384 C 0.63382 0.61374 0.5773 0.0
C385 C 0.68505 0.62109 0.56444 0.0
C386 C 0.73516 0.66798 0.55125 0.0
H387 H 0.84538 0.61202 0.86126 0.0
H388 H 0.70412 0.46702 0.82645 0.0
H389 H 0.77957 0.45319 0.82477 0.0
H390 H 0.98123 0.64432 0.82098 0.0
H391 H 1.03293 0.67262 0.8507 0.0
H392 H 0.96922 0.67302 0.84791 0.0
H393 H 0.92782 0.6301 0.89897 0.0
H394 H 0.99155 0.62979 0.90192 0.0
H395 H 0.91179 0.5721 0.90705 0.0
H396 H 0.87073 0.45351 0.82744 0.0
H397 H 0.96679 0.46609 0.83756 0.0
H398 H 1.05092 0.60915 0.87194 0.0
C399 C 0.83056 0.57762 0.85297 0.0
C400 C 0.76791 0.54065 0.8439 0.0
C401 C 0.75098 0.4959 0.83374 0.0
C402 C 0.79396 0.48775 0.83253 0.0
C403 C 0.85476 0.52442 0.84179 0.0
C404 C 0.87309 0.56841 0.85205 0.0
C405 C 0.94056 0.60041 0.86206 0.0
C406 C 0.98353 0.65058 0.84436 0.0
C407 C 0.94306 0.60858 0.89442 0.0
C408 C 0.95712 0.5677 0.8558 0.0
C409 C 0.90694 0.52417 0.84384 0.0
C410 C 0.91027 0.48766 0.83665 0.0
C411 C 0.96532 0.4952 0.84224 0.0
C412 C 1.01713 0.53883 0.85505 0.0
C413 C 1.01273 0.57575 0.86164 0.0
H414 H 0.35687 0.67202 0.1747 0.0
H415 H 0.22461 0.68507 0.13946 0.0
H416 H 0.30419 0.77717 0.14164 0.0
H417 H 0.42521 0.7699 0.22428 0.0
H418 H 0.50281 0.79071 0.21933 0.0
H419 H 0.43524 0.72636 0.21462 0.0
H420 H 0.47734 0.73364 0.16316 0.0
H421 H 0.54464 0.79812 0.16798 0.0
H422 H 0.4955 0.78193 0.13777 0.0
H423 H 0.39862 0.86856 0.14866 0.0
H424 H 0.49851 0.95062 0.16137 0.0
H425 H 0.56871 0.87763 0.19121 0.0
C426 C 0.34436 0.69407 0.16744 0.0
C427 C 0.28415 0.67103 0.1569 0.0
C428 C 0.27018 0.70163 0.14765 0.0
C429 C 0.31522 0.75405 0.14874 0.0
C430 C 0.37413 0.77545 0.15913 0.0
C431 C 0.38863 0.74631 0.16841 0.0
C432 C 0.45484 0.77826 0.17915 0.0
C433 C 0.45447 0.76555 0.21125 0.0
C434 C 0.49548 0.77266 0.16092 0.0
C435 C 0.47551 0.83006 0.17448 0.0
C436 C 0.42833 0.82771 0.16289 0.0
C437 C 0.43591 0.87075 0.15756 0.0
C438 C 0.49263 0.91713 0.16468 0.0
C439 C 0.54094 0.92011 0.17693 0.0
C440 C 0.53247 0.8761 0.18154 0.0
H441 H 0.73008 0.34424 0.48071 0.0
H442 H 0.5429 0.25697 0.44764 0.0
H443 H 0.53488 0.31797 0.46512 0.0
H444 H 0.69591 0.37264 0.54539 0.0
H445 H 0.7709 0.43486 0.54624 0.0
H446 H 0.76432 0.38703 0.52873 0.0
H447 H 0.81294 0.44335 0.48159 0.0
H448 H 0.81978 0.49144 0.49898 0.0
H449 H 0.77797 0.46763 0.4661 0.0
H450 H 0.54413 0.38507 0.48935 0.0
H451 H 0.57095 0.45385 0.5185 0.0
H452 H 0.75056 0.49611 0.53625 0.0
C453 C 0.6874 0.33793 0.47704 0.0
C454 C 0.63718 0.29578 0.46269 0.0
C455 C 0.58245 0.28935 0.45812 0.0
C456 C 0.57731 0.32367 0.46811 0.0
C457 C 0.62731 0.36429 0.48257 0.0
C458 C 0.68137 0.37163 0.48696 0.0
C459 C 0.72711 0.41691 0.50435 0.0
C460 C 0.7403 0.40194 0.53286 0.0
C461 C 0.78805 0.45722 0.48669 0.0
C462 C 0.68994 0.43349 0.50946 0.0
C463 C 0.63262 0.40283 0.49657 0.0
C464 C 0.58912 0.40961 0.49926 0.0
C465 C 0.60455 0.44853 0.51573 0.0
C466 C 0.6627 0.47987 0.52921 0.0
C467 C 0.70604 0.47255 0.52585 0.0
H468 H 0.38645 0.48302 0.87242 0.0
H469 H 0.51642 0.62037 0.81954 0.0
H470 H 0.43932 0.63231 0.81829 0.0
H471 H 0.2434 0.44171 0.8383 0.0
H472 H 0.19686 0.418 0.8714 0.0
H473 H 0.2616 0.41897 0.86801 0.0
H474 H 0.30951 0.47035 0.91338 0.0
H475 H 0.24493 0.46957 0.91684 0.0
H476 H 0.32423 0.52833 0.91469 0.0
H477 H 0.34793 0.63102 0.82293 0.0
H478 H 0.25124 0.61693 0.8341 0.0
H479 H 0.17651 0.4805 0.88374 0.0
C480 C 0.39859 0.51544 0.8604 0.0
C481 C 0.45867 0.55074 0.84601 0.0
C482 C 0.4718 0.59276 0.83091 0.0
C483 C 0.42782 0.59988 0.82998 0.0
C484 C 0.36972 0.56491 0.84441 0.0
C485 C 0.35489 0.5235 0.85946 0.0
C486 C 0.28919 0.49237 0.87362 0.0
C487 C 0.24515 0.43962 0.86214 0.0
C488 C 0.29216 0.49001 0.90659 0.0
C489 C 0.2695 0.52247 0.86398 0.0
C490 C 0.31689 0.56421 0.84712 0.0
C491 C 0.31048 0.59818 0.83595 0.0
C492 C 0.25485 0.58965 0.8422 0.0
C493 C 0.20516 0.54734 0.85948 0.0
C494 C 0.21313 0.51327 0.87043 0.0
H495 H 0.94596 0.34267 0.18154 0.0
H496 H 1.06726 0.33053 0.13306 0.0
H497 H 0.98382 0.23812 0.13604 0.0
H498 H 0.87718 0.23387 0.22984 0.0
H499 H 0.80106 0.21652 0.2309 0.0
H500 H 0.87042 0.2813 0.22497 0.0
H501 H 0.82564 0.28691 0.17778 0.0
H502 H 0.75626 0.22212 0.18354 0.0
H503 H 0.80215 0.24348 0.15038 0.0
H504 H 0.88484 0.14632 0.14355 0.0
H505 H 0.78164 0.06354 0.157 0.0
H506 H 0.72652 0.13611 0.20122 0.0
C507 C 0.95525 0.32071 0.17155 0.0
C508 C 1.01335 0.34404 0.15695 0.0
C509 C 1.02336 0.31365 0.14439 0.0
C510 C 0.9761 0.26111 0.14592 0.0
C511 C 0.91925 0.23944 0.16031 0.0
C512 C 0.90897 0.26838 0.17312 0.0
C513 C 0.84417 0.23614 0.18758 0.0
C514 C 0.8485 0.24235 0.22026 0.0
C515 C 0.80474 0.24787 0.17401 0.0
C516 C 0.81913 0.18439 0.18074 0.0
C517 C 0.86304 0.18704 0.16491 0.0
C518 C 0.85029 0.14397 0.15592 0.0
C519 C 0.79154 0.0972 0.16345 0.0
C520 C 0.74628 0.0937 0.17989 0.0
C521 C 0.76043 0.13794 0.1886 0.0
H522 H 1.06438 0.43052 0.05318 0.0
H523 H 0.25396 0.56375 0.06958 0.0
H524 H 0.2777 0.58206 0.01716 0.0
H525 H 1.1039 0.39924 0.98491 0.0
H526 H 1.03256 0.37862 0.96895 0.0
H527 H 1.03474 0.37083 0.00736 0.0
H528 H 0.99577 0.41934 0.01539 0.0
H529 H 0.99382 0.42745 0.97717 0.0
H530 H 1.03909 0.48136 0.99873 0.0
H531 H 0.27372 0.59473 0.96364 0.0
H532 H 0.24251 0.59849 0.91439 0.0
H533 H 1.05839 0.4549 0.93241 0.0
C534 C 0.11153 0.46258 0.04573 0.0
C535 C 0.15736 0.49566 0.0654 0.0
C536 C 0.21824 0.53772 0.05486 0.0
C537 C 0.23216 0.54837 0.0251 0.0
C538 C 0.18506 0.5161 0.00618 0.0
C539 C 0.12621 0.47352 0.01614 0.0
C540 C 1.08181 0.44773 0.99165 0.0
C541 C 1.06211 0.39604 0.98801 0.0
C542 C 1.02428 0.44378 0.99601 0.0
C543 C 0.12368 0.48382 0.96659 0.0
C544 C 0.1834 0.52273 0.97524 0.0
C545 C 0.22771 0.56372 0.95647 0.0
C546 C 0.20984 0.5656 0.92856 0.0
C547 C 0.14836 0.52679 0.91978 0.0
C548 C 1.10585 0.48466 0.93868 0.0
H549 H 0.67643 0.07143 0.38139 0.0
H550 H 0.86823 0.1301 0.37739 0.0
H551 H 0.86597 0.12927 0.3245 0.0
H552 H 0.62024 0.98793 0.32814 0.0
H553 H 0.56973 0.99733 0.31239 0.0
H554 H 0.58858 1.0089 0.34968 0.0
H555 H 0.63056 0.09944 0.34089 0.0
H556 H 0.61127 0.08795 0.30353 0.0
H557 H 0.69001 0.14003 0.31306 0.0
H558 H 0.83721 0.1078 0.27357 0.0
H559 H 0.78569 0.07297 0.22756 0.0
H560 H 0.61704 0.03748 0.26241 0.0
C561 C 0.71837 0.08528 0.36928 0.0
C562 C 0.77241 0.10065 0.38347 0.0
C563 C 0.82626 0.11811 0.36697 0.0
C564 C 0.82554 0.11791 0.33688 0.0
C565 C 0.77101 0.1011 0.32351 0.0
C566 C 0.71873 0.08596 0.33907 0.0
C567 C 0.66497 0.06676 0.3194 0.0
C568 C 0.60752 1.01199 0.32792 0.0
C569 C 0.64823 0.10058 0.31921 0.0
C570 C 0.69431 0.07121 0.29069 0.0
C571 C 0.75561 0.09132 0.29353 0.0
C572 C 0.78995 0.09356 0.27081 0.0
C573 C 0.76051 0.074 0.24467 0.0
C574 C 0.69776 0.0532 0.2413 0.0
C575 C 0.6651 0.05325 0.26441 0.0
H576 H 0.54017 0.4694 0.74563 0.0
H577 H 0.70308 0.61509 0.77189 0.0
H578 H 0.73871 0.64275 0.72064 0.0
H579 H 0.61553 0.45773 0.6921 0.0
H580 H 0.55133 0.42645 0.66797 0.0
H581 H 0.53612 0.42065 0.70615 0.0
H582 H 0.47662 0.4535 0.69844 0.0
H583 H 0.49126 0.45906 0.66014 0.0
H584 H 0.51499 0.51258 0.67877 0.0
H585 H 0.75999 0.6508 0.66611 0.0
H586 H 0.76431 0.63844 0.6142 0.0
H587 H 0.58621 0.48788 0.62509 0.0
C588 C 0.58286 0.50745 0.7406 0.0
C589 C 0.61875 0.5404 0.76257 0.0
C590 C 0.67456 0.58967 0.75524 0.0
C591 C 0.69511 0.60552 0.72623 0.0
C592 C 0.65887 0.57162 0.70503 0.0
C593 C 0.60363 0.5237 0.71199 0.0
C594 C 0.57451 0.49328 0.6857 0.0
C595 C 0.5691 0.44681 0.68814 0.0
C596 C 0.51056 0.47877 0.68046 0.0
C597 C 0.62271 0.53098 0.66281 0.0
C598 C 0.67091 0.57616 0.67417 0.0
C599 C 0.72215 0.61574 0.65703 0.0
C600 C 0.72431 0.60853 0.6277 0.0
C601 C 0.67585 0.56213 0.61606 0.0
C602 C 0.62405 0.52344 0.63373 0.0
H603 H 0.72727 0.15661 0.56029 0.0
H604 H 0.66771 1.01239 0.54063 0.0
H605 H 0.65033 0.98744 0.59281 0.0
H606 H 0.81217 0.16916 0.62578 0.0
H607 H 0.7917 0.20128 0.64401 0.0
H608 H 0.80162 0.20776 0.60533 0.0
H609 H 0.69007 0.17818 0.60093 0.0
H610 H 0.67959 0.17114 0.63951 0.0
H611 H 0.6242 0.11886 0.61796 0.0
H612 H 0.6228 0.97443 0.64696 0.0
H613 H 0.60334 0.97913 0.69815 0.0
H614 H 0.70032 0.13686 0.68287 0.0
C615 C 0.71172 0.12017 0.56711 0.0
C616 C 0.69854 0.08623 0.54669 0.0
C617 C 0.67835 0.03889 0.55614 0.0
C618 C 0.66817 0.02442 0.58567 0.0
C619 C 0.68055 0.05847 0.6054 0.0
C620 C 0.70379 0.10596 0.59648 0.0
C621 C 0.71412 0.13581 0.62189 0.0
C622 C 0.78407 0.18118 0.6244 0.0
C623 C 0.67464 0.15192 0.61994 0.0
C624 C 0.69065 0.09713 0.6464 0.0
C625 C 0.67067 0.05248 0.63656 0.0
C626 C 0.64026 1.00972 0.65502 0.0
C627 C 0.62973 1.01275 0.68413 0.0
C628 C 0.65089 0.05849 0.69464 0.0
C629 C 0.68329 0.10131 0.6755 0.0
H630 H 0.7011 0.58969 0.9484 0.0
H631 H 0.51422 0.47784 0.91694 0.0
H632 H 0.47374 0.44325 0.96663 0.0
H633 H 0.68818 0.50888 0.00747 0.0
H634 H 0.73215 0.55929 0.03156 0.0
H635 H 0.74787 0.57238 0.99325 0.0
H636 H 0.72875 0.63511 0.99501 0.0
H637 H 0.71273 0.62205 0.03324 0.0
H638 H 0.65565 0.61427 0.0102 0.0
H639 H 0.45107 0.42708 0.01964 0.0
H640 H 0.44942 0.42765 0.07296 0.0
H641 H 0.65036 0.54712 0.07058 0.0
C642 C 0.65193 0.55733 0.95198 0.0
C643 C 0.61078 0.53631 0.92885 0.0
C644 C 0.54659 0.49439 0.93435 0.0
C645 C 0.52315 0.47445 0.9625 0.0
C646 C 0.56457 0.4966 0.98492 0.0
C647 C 0.62772 0.53681 0.98002 0.0
C648 C 0.66141 0.55515 0.00815 0.0
C649 C 0.7103 0.54852 0.01022 0.0
C650 C 0.69138 0.60988 0.01185 0.0
C651 C 0.60709 0.51978 0.02957 0.0
C652 C 0.55168 0.48619 0.01567 0.0
C653 C 0.49435 0.45228 0.03078 0.0
C654 C 0.49369 0.45273 0.06089 0.0
C655 C 0.54992 0.48608 0.07548 0.0
C656 C 0.60725 0.52014 0.05968 0.0
H657 H 0.16251 0.46339 0.2553 0.0
H658 H 1.08102 0.52769 0.22511 0.0
H659 H 1.06844 0.54091 0.27551 0.0
H660 H 1.07225 0.40563 0.32599 0.0
H661 H 0.14002 0.42277 0.3441 0.0
H662 H 0.13037 0.40865 0.30664 0.0
H663 H 0.23944 0.49502 0.29385 0.0
H664 H 0.24938 0.50918 0.33114 0.0
H665 H 0.25565 0.55104 0.30446 0.0
H666 H 1.07581 0.55572 0.32813 0.0
H667 H 0.11344 0.57993 0.37758 0.0
H668 H 0.19632 0.51111 0.37307 0.0
C669 C 0.14017 0.47878 0.25939 0.0
C670 C 0.1217 0.49383 0.23645 0.0
C671 C 1.09479 0.51549 0.24249 0.0
C672 C 1.08715 0.5228 0.27102 0.0
C673 C 0.10704 0.50848 0.29319 0.0
C674 C 0.13339 0.48719 0.28765 0.0
C675 C 0.1593 0.48184 0.31465 0.0
C676 C 0.12332 0.42642 0.32335 0.0
C677 C 0.23012 0.51102 0.31078 0.0
C678 C 0.14587 0.50539 0.33603 0.0
C679 C 0.11394 0.51908 0.32342 0.0
C680 C 1.10007 0.5446 0.33828 0.0
C681 C 0.12153 0.5582 0.36626 0.0
C682 C 0.15742 0.54715 0.37884 0.0
C683 C 0.16783 0.51893 0.36396 0.0
loop_
_geom_bond_atom_site_label_1
_geom_bond_atom_site_label_2
_geom_bond_distance
_geom_bond_site_symmetry_2
_ccdc_geom_bond_type
Sm0 C2 2.846 . S
Sm0 O20 2.543 . S
Sm0 O21 2.450 . S
Sm0 O22 2.681 1_455 S
Sm0 O23 2.464 . S
Sm0 O24 2.396 . S
Sm0 O28 2.386 . S
Sm0 O31 2.408 1_455 S
Sm1 C11 2.846 . S
Sm1 O22 2.386 . S
Sm1 O25 2.408 1_655 S
Sm1 O26 2.543 . S
Sm1 O27 2.450 . S
Sm1 O28 2.681 1_655 S
Sm1 O29 2.464 . S
Sm1 O30 2.396 . S
C2 Sm0 2.846 . S
C2 C3 1.506 . S
C2 O20 1.261 . S
C2 O21 1.242 . S
C3 C2 1.506 . S
C3 C4 1.358 . S
C3 C8 1.382 . S
C4 C3 1.358 . S
C4 C5 1.385 . S
C4 H32 0.930 . S
C5 C4 1.385 . S
C5 C6 1.395 . S
C5 H33 0.929 . S
C6 C5 1.395 . S
C6 C7 1.335 . S
C7 C6 1.335 . S
C7 C8 1.398 . S
C7 H34 0.930 . S
C8 C3 1.382 . S
C8 C7 1.398 . S
C8 H35 0.929 . S
C9 O22 1.271 1_455 S
C9 O23 1.251 . S
C10 O24 1.252 . S
C10 O25 1.272 . S
C11 Sm1 2.846 . S
C11 C12 1.506 . S
C11 O26 1.261 . S
C11 O27 1.242 . S
C12 C11 1.506 . S
C12 C13 1.358 . S
C12 C17 1.382 . S
C13 C12 1.358 . S
C13 C14 1.385 . S
C13 H36 0.930 . S
C14 C13 1.385 . S
C14 C15 1.395 . S
C14 H37 0.929 . S
C15 C14 1.395 . S
C15 C16 1.335 . S
C16 C15 1.335 . S
C16 C17 1.398 . S
C16 H38 0.930 . S
C17 C12 1.382 . S
C17 C16 1.398 . S
C17 H39 0.929 . S
C18 O28 1.271 . S
C18 O29 1.251 1_455 S
C19 O30 1.252 . S
C19 O31 1.272 . S
O20 Sm0 2.543 . S
O20 C2 1.261 . S
O21 Sm0 2.450 . S
O21 C2 1.242 . S
O22 Sm0 2.681 1_655 S
O22 Sm1 2.386 . S
O22 C9 1.271 1_655 S
O23 Sm0 2.464 . S
O23 C9 1.251 . S
O24 Sm0 2.396 . S
O24 C10 1.252 . S
O25 Sm1 2.408 1_455 S
O25 C10 1.272 . S
O26 Sm1 2.543 . S
O26 C11 1.261 . S
O27 Sm1 2.450 . S
O27 C11 1.242 . S
O28 Sm0 2.386 . S
O28 Sm1 2.681 1_455 S
O28 C18 1.271 . S
O29 Sm1 2.464 . S
O29 C18 1.251 1_655 S
O30 Sm1 2.396 . S
O30 C19 1.252 . S
O31 Sm0 2.408 1_655 S
O31 C19 1.272 . S
H32 C4 0.930 . S
H33 C5 0.929 . S
H34 C7 0.930 . S
H35 C8 0.929 . S
H36 C13 0.930 . S
H37 C14 0.929 . S
H38 C16 0.930 . S
H39 C17 0.929 . S
Sm40 C42 2.846 1_545 S
Sm40 O60 2.543 1_545 S
Sm40 O61 2.450 1_545 S
Sm40 O62 2.681 . S
Sm40 O63 2.464 . S
Sm40 O64 2.396 1_545 S
Sm40 O68 2.386 . S
Sm40 O71 2.408 . S
Sm41 C51 2.846 . S
Sm41 O62 2.386 . S
Sm41 O65 2.408 1_545 S
Sm41 O66 2.543 . S
Sm41 O67 2.450 . S
Sm41 O68 2.681 . S
Sm41 O69 2.464 . S
Sm41 O70 2.396 . S
C42 Sm40 2.846 1_565 S
C42 C43 1.506 . S
C42 O60 1.261 . S
C42 O61 1.242 . S
C43 C42 1.506 . S
C43 C44 1.358 . S
C43 C48 1.382 . S
C44 C43 1.358 . S
C44 C45 1.385 . S
C44 H72 0.930 . S
C45 C44 1.385 . S
C45 C46 1.395 . S
C45 H73 0.929 . S
C46 C45 1.395 . S
C46 C47 1.335 . S
C47 C46 1.335 . S
C47 C48 1.398 . S
C47 H74 0.930 . S
C48 C43 1.382 . S
C48 C47 1.398 . S
C48 H75 0.929 . S
C49 O62 1.271 . S
C49 O63 1.251 . S
C50 O64 1.252 . S
C50 O65 1.272 . S
C51 Sm41 2.846 . S
C51 C52 1.506 . S
C51 O66 1.261 . S
C51 O67 1.242 . S
C52 C51 1.506 . S
C52 C53 1.358 . S
C52 C57 1.382 . S
C53 C52 1.358 . S
C53 C54 1.385 . S
C53 H76 0.930 . S
C54 C53 1.385 . S
C54 C55 1.395 . S
C54 H77 0.929 . S
C55 C54 1.395 . S
C55 C56 1.335 . S
C56 C55 1.335 . S
C56 C57 1.398 . S
C56 H78 0.930 . S
C57 C52 1.382 . S
C57 C56 1.398 . S
C57 H79 0.929 . S
C58 O68 1.271 . S
C58 O69 1.251 . S
C59 O70 1.252 . S
C59 O71 1.272 . S
O60 Sm40 2.543 1_565 S
O60 C42 1.261 . S
O61 Sm40 2.450 1_565 S
O61 C42 1.242 . S
O62 Sm40 2.681 . S
O62 Sm41 2.386 . S
O62 C49 1.271 . S
O63 Sm40 2.464 . S
O63 C49 1.251 . S
O64 Sm40 2.396 1_565 S
O64 C50 1.252 . S
O65 Sm41 2.408 1_565 S
O65 C50 1.272 . S
O66 Sm41 2.543 . S
O66 C51 1.261 . S
O67 Sm41 2.450 . S
O67 C51 1.242 . S
O68 Sm40 2.386 . S
O68 Sm41 2.681 . S
O68 C58 1.271 . S
O69 Sm41 2.464 . S
O69 C58 1.251 . S
O70 Sm41 2.396 . S
O70 C59 1.252 . S
O71 Sm40 2.408 . S
O71 C59 1.272 . S
H72 C44 0.930 . S
H73 C45 0.929 . S
H74 C47 0.930 . S
H75 C48 0.929 . S
H76 C53 0.930 . S
H77 C54 0.929 . S
H78 C56 0.930 . S
H79 C57 0.929 . S
Sm80 C82 2.846 . S
Sm80 O100 2.543 . S
Sm80 O101 2.450 . S
Sm80 O102 2.681 . S
Sm80 O103 2.464 . S
Sm80 O104 2.396 . S
Sm80 O108 2.386 . S
Sm80 O111 2.408 . S
Sm81 C91 2.846 . S
Sm81 O102 2.386 . S
Sm81 O105 2.408 . S
Sm81 O106 2.543 . S
Sm81 O107 2.450 . S
Sm81 O108 2.681 . S
Sm81 O109 2.464 . S
Sm81 O110 2.396 . S
C82 Sm80 2.846 . S
C82 C83 1.506 . S
C82 O100 1.261 . S
C82 O101 1.242 . S
C83 C82 1.506 . S
C83 C84 1.358 . S
C83 C88 1.382 . S
C84 C83 1.358 . S
C84 C85 1.385 . S
C84 H112 0.930 . S
C85 C84 1.385 . S
C85 C86 1.395 . S
C85 H113 0.929 . S
C86 C85 1.395 . S
C86 C87 1.335 . S
C87 C86 1.335 . S
C87 C88 1.398 . S
C87 H114 0.930 . S
C88 C83 1.382 . S
C88 C87 1.398 . S
C88 H115 0.929 . S
C89 O102 1.271 . S
C89 O103 1.251 . S
C90 O104 1.252 . S
C90 O105 1.272 . S
C91 Sm81 2.846 . S
C91 C92 1.506 . S
C91 O106 1.261 . S
C91 O107 1.242 . S
C92 C91 1.506 . S
C92 C93 1.358 . S
C92 C97 1.382 . S
C93 C92 1.358 . S
C93 C94 1.385 . S
C93 H116 0.930 . S
C94 C93 1.385 . S
C94 C95 1.395 . S
C94 H117 0.929 . S
C95 C94 1.395 . S
C95 C96 1.335 . S
C96 C95 1.335 . S
C96 C97 1.398 . S
C96 H118 0.930 . S
C97 C92 1.382 . S
C97 C96 1.398 . S
C97 H119 0.929 . S
C98 O108 1.271 . S
C98 O109 1.251 . S
C99 O110 1.252 . S
C99 O111 1.272 . S
O100 Sm80 2.543 . S
O100 C82 1.261 . S
O101 Sm80 2.450 . S
O101 C82 1.242 . S
O102 Sm80 2.681 . S
O102 Sm81 2.386 . S
O102 C89 1.271 . S
O103 Sm80 2.464 . S
O103 C89 1.251 . S
O104 Sm80 2.396 . S
O104 C90 1.252 . S
O105 Sm81 2.408 . S
O105 C90 1.272 . S
O106 Sm81 2.543 . S
O106 C91 1.261 . S
O107 Sm81 2.450 . S
O107 C91 1.242 . S
O108 Sm80 2.386 . S
O108 Sm81 2.681 . S
O108 C98 1.271 . S
O109 Sm81 2.464 . S
O109 C98 1.251 . S
O110 Sm81 2.396 . S
O110 C99 1.252 . S
O111 Sm80 2.408 . S
O111 C99 1.272 . S
H112 C84 0.930 . S
H113 C85 0.929 . S
H114 C87 0.930 . S
H115 C88 0.929 . S
H116 C93 0.930 . S
H117 C94 0.929 . S
H118 C96 0.930 . S
H119 C97 0.929 . S
C120 N121 1.317 1_565 S
C120 N122 1.348 . S
C120 C123 1.485 1_565 S
N121 C120 1.317 1_545 S
N121 N125 1.370 . S
N122 C120 1.348 . S
N122 C124 1.346 . S
C123 C120 1.485 1_545 S
C123 H127 0.960 . S
C123 H128 0.961 1_545 S
C123 H129 0.960 . S
C124 N122 1.346 . S
C124 N125 1.307 1_565 S
C124 C126 1.486 . S
N125 N121 1.370 . S
N125 C124 1.307 1_545 S
C126 C124 1.486 . S
C126 H130 0.960 . S
C126 H131 0.960 . S
C126 H132 0.959 . S
H127 C123 0.960 . S
H128 C123 0.961 1_565 S
H129 C123 0.960 . S
H130 C126 0.960 . S
H131 C126 0.960 . S
H132 C126 0.959 . S
C133 N134 1.317 . S
C133 N135 1.348 . S
C133 C136 1.485 . S
N134 C133 1.317 . S
N134 N138 1.370 . S
N135 C133 1.348 . S
N135 C137 1.346 . S
C136 C133 1.485 . S
C136 H140 0.960 . S
C136 H141 0.961 . S
C136 H142 0.960 . S
C137 N135 1.346 . S
C137 N138 1.307 . S
C137 C139 1.486 . S
N138 N134 1.370 . S
N138 C137 1.307 . S
C139 C137 1.486 . S
C139 H143 0.960 . S
C139 H144 0.960 . S
C139 H145 0.959 . S
H140 C136 0.960 . S
H141 C136 0.961 . S
H142 C136 0.960 . S
H143 C139 0.960 . S
H144 C139 0.960 . S
H145 C139 0.959 . S
C146 N147 1.317 . S
C146 N148 1.348 . S
C146 C149 1.485 . S
N147 C146 1.317 . S
N147 N151 1.370 . S
N148 C146 1.348 . S
N148 C150 1.346 . S
C149 C146 1.485 . S
C149 H153 0.960 . S
C149 H154 0.961 . S
C149 H155 0.960 . S
C150 N148 1.346 . S
C150 N151 1.307 . S
C150 C152 1.486 1_455 S
N151 N147 1.370 . S
N151 C150 1.307 . S
C152 C150 1.486 1_655 S
C152 H156 0.960 . S
C152 H157 0.960 . S
C152 H158 0.959 . S
H153 C149 0.960 . S
H154 C149 0.961 . S
H155 C149 0.960 . S
H156 C152 0.960 . S
H157 C152 0.960 . S
H158 C152 0.959 . S
C159 N160 1.317 . S
C159 N161 1.348 . S
C159 C162 1.485 . S
N160 C159 1.317 . S
N160 N164 1.370 . S
N161 C159 1.348 . S
N161 C163 1.346 . S
C162 C159 1.485 . S
C162 H166 0.960 . S
C162 H167 0.961 . S
C162 H168 0.960 . S
C163 N161 1.346 . S
C163 N164 1.307 . S
C163 C165 1.486 . S
N164 N160 1.370 . S
N164 C163 1.307 . S
C165 C163 1.486 . S
C165 H169 0.960 . S
C165 H170 0.960 . S
C165 H171 0.959 . S
H166 C162 0.960 . S
H167 C162 0.961 . S
H168 C162 0.960 . S
H169 C165 0.960 . S
H170 C165 0.960 . S
H171 C165 0.959 . S
C172 N173 1.317 . S
C172 N174 1.348 . S
C172 C175 1.485 . S
N173 C172 1.317 . S
N173 N177 1.370 . S
N174 C172 1.348 . S
N174 C176 1.346 . S
C175 C172 1.485 . S
C175 H179 0.960 . S
C175 H180 0.961 . S
C175 H181 0.960 . S
C176 N174 1.346 . S
C176 N177 1.307 . S
C176 C178 1.486 . S
N177 N173 1.370 . S
N177 C176 1.307 . S
C178 C176 1.486 . S
C178 H182 0.960 . S
C178 H183 0.960 . S
C178 H184 0.959 . S
H179 C175 0.960 . S
H180 C175 0.961 . S
H181 C175 0.960 . S
H182 C178 0.960 . S
H183 C178 0.960 . S
H184 C178 0.959 . S
C185 N186 1.317 . S
C185 N187 1.348 . S
C185 C188 1.485 . S
N186 C185 1.317 . S
N186 N190 1.370 . S
N187 C185 1.348 . S
N187 C189 1.346 . S
C188 C185 1.485 . S
C188 H192 0.960 . S
C188 H193 0.961 . S
C188 H194 0.960 . S
C189 N187 1.346 . S
C189 N190 1.307 . S
C189 C191 1.486 . S
N190 N186 1.370 . S
N190 C189 1.307 . S
C191 C189 1.486 . S
C191 H195 0.960 . S
C191 H196 0.960 . S
C191 H197 0.959 . S
H192 C188 0.960 . S
H193 C188 0.961 . S
H194 C188 0.960 . S
H195 C191 0.960 . S
H196 C191 0.960 . S
H197 C191 0.959 . S
H198 C210 0.930 . S
H199 C212 0.930 . S
H200 C213 0.930 . S
H201 C217 0.959 . S
H202 C217 0.959 . S
H203 C217 0.961 . S
H204 C218 0.960 . S
H205 C218 0.961 . S
H206 C218 0.959 . S
H207 C221 0.929 . S
H208 C222 0.931 . S
H209 C224 0.930 . S
C210 H198 0.930 . S
C210 C211 1.399 . S
C210 C215 1.399 . S
C211 C210 1.399 . S
C211 C212 1.376 . S
C212 H199 0.930 . S
C212 C211 1.376 . S
C212 C213 1.388 . S
C213 H200 0.930 . S
C213 C212 1.388 . S
C213 C214 1.390 . S
C214 C213 1.390 . S
C214 C215 1.394 . S
C214 C220 1.465 . S
C215 C210 1.399 . S
C215 C214 1.394 . S
C215 C216 1.516 . S
C216 C215 1.516 . S
C216 C217 1.502 . S
C216 C218 1.561 . S
C216 C219 1.526 . S
C217 H201 0.959 . S
C217 H202 0.959 . S
C217 H203 0.961 . S
C217 C216 1.502 . S
C218 H204 0.960 . S
C218 H205 0.961 . S
C218 H206 0.959 . S
C218 C216 1.561 . S
C219 C216 1.526 . S
C219 C220 1.396 . S
C219 C224 1.390 . S
C220 C214 1.465 . S
C220 C219 1.396 . S
C220 C221 1.399 . S
C221 H207 0.929 . S
C221 C220 1.399 . S
C221 C222 1.385 . S
C222 H208 0.931 . S
C222 C221 1.385 . S
C222 C223 1.389 . S
C223 C222 1.389 . S
C223 C224 1.387 . S
C224 H209 0.930 . S
C224 C219 1.390 . S
C224 C223 1.387 . S
H225 C237 0.930 . S
H226 C239 0.930 . S
H227 C240 0.930 . S
H228 C244 0.959 . S
H229 C244 0.959 . S
H230 C244 0.961 . S
H231 C245 0.960 . S
H232 C245 0.961 . S
H233 C245 0.959 . S
H234 C248 0.929 . S
H235 C249 0.931 . S
H236 C251 0.930 . S
C237 H225 0.930 . S
C237 C238 1.399 . S
C237 C242 1.399 . S
C238 C237 1.399 . S
C238 C239 1.376 . S
C239 H226 0.930 . S
C239 C238 1.376 . S
C239 C240 1.388 . S
C240 H227 0.930 . S
C240 C239 1.388 . S
C240 C241 1.390 . S
C241 C240 1.390 . S
C241 C242 1.394 . S
C241 C247 1.465 . S
C242 C237 1.399 . S
C242 C241 1.394 . S
C242 C243 1.516 . S
C243 C242 1.516 . S
C243 C244 1.502 . S
C243 C245 1.561 . S
C243 C246 1.526 . S
C244 H228 0.959 . S
C244 H229 0.959 . S
C244 H230 0.961 . S
C244 C243 1.502 . S
C245 H231 0.960 . S
C245 H232 0.961 . S
C245 H233 0.959 . S
C245 C243 1.561 . S
C246 C243 1.526 . S
C246 C247 1.396 . S
C246 C251 1.390 . S
C247 C241 1.465 . S
C247 C246 1.396 . S
C247 C248 1.399 . S
C248 H234 0.929 . S
C248 C247 1.399 . S
C248 C249 1.385 . S
C249 H235 0.931 . S
C249 C248 1.385 . S
C249 C250 1.389 . S
C250 C249 1.389 . S
C250 C251 1.387 . S
C251 H236 0.930 . S
C251 C246 1.390 . S
C251 C250 1.387 . S
H252 C264 0.930 . S
H253 C266 0.930 . S
H254 C267 0.930 . S
H255 C271 0.959 . S
H256 C271 0.959 . S
H257 C271 0.961 . S
H258 C272 0.960 . S
H259 C272 0.961 . S
H260 C272 0.959 . S
H261 C275 0.929 . S
H262 C276 0.931 . S
H263 C278 0.930 . S
C264 H252 0.930 . S
C264 C265 1.399 . S
C264 C269 1.399 . S
C265 C264 1.399 . S
C265 C266 1.376 . S
C266 H253 0.930 . S
C266 C265 1.376 . S
C266 C267 1.388 . S
C267 H254 0.930 . S
C267 C266 1.388 . S
C267 C268 1.390 . S
C268 C267 1.390 . S
C268 C269 1.394 . S
C268 C274 1.465 . S
C269 C264 1.399 . S
C269 C268 1.394 . S
C269 C270 1.516 . S
C270 C269 1.516 . S
C270 C271 1.502 . S
C270 C272 1.561 . S
C270 C273 1.526 . S
C271 H255 0.959 . S
C271 H256 0.959 . S
C271 H257 0.961 . S
C271 C270 1.502 . S
C272 H258 0.960 . S
C272 H259 0.961 . S
C272 H260 0.959 . S
C272 C270 1.561 . S
C273 C270 1.526 . S
C273 C274 1.396 . S
C273 C278 1.390 . S
C274 C268 1.465 . S
C274 C273 1.396 . S
C274 C275 1.399 . S
C275 H261 0.929 . S
C275 C274 1.399 . S
C275 C276 1.385 1_565 S
C276 H262 0.931 . S
C276 C275 1.385 1_545 S
C276 C277 1.389 1_545 S
C277 C276 1.389 1_565 S
C277 C278 1.387 . S
C278 H263 0.930 . S
C278 C273 1.390 . S
C278 C277 1.387 . S
H279 C291 0.930 . S
H280 C293 0.930 . S
H281 C294 0.930 . S
H282 C298 0.959 . S
H283 C298 0.959 . S
H284 C298 0.961 . S
H285 C299 0.960 . S
H286 C299 0.961 . S
H287 C299 0.959 . S
H288 C302 0.929 . S
H289 C303 0.931 . S
H290 C305 0.930 . S
C291 H279 0.930 . S
C291 C292 1.399 . S
C291 C296 1.399 . S
C292 C291 1.399 . S
C292 C293 1.376 . S
C293 H280 0.930 . S
C293 C292 1.376 . S
C293 C294 1.388 . S
C294 H281 0.930 . S
C294 C293 1.388 . S
C294 C295 1.390 . S
C295 C294 1.390 . S
C295 C296 1.394 . S
C295 C301 1.465 . S
C296 C291 1.399 . S
C296 C295 1.394 . S
C296 C297 1.516 . S
C297 C296 1.516 . S
C297 C298 1.502 . S
C297 C299 1.561 . S
C297 C300 1.526 . S
C298 H282 0.959 . S
C298 H283 0.959 . S
C298 H284 0.961 . S
C298 C297 1.502 . S
C299 H285 0.960 . S
C299 H286 0.961 . S
C299 H287 0.959 . S
C299 C297 1.561 . S
C300 C297 1.526 . S
C300 C301 1.396 . S
C300 C305 1.390 . S
C301 C295 1.465 . S
C301 C300 1.396 . S
C301 C302 1.399 . S
C302 H288 0.929 . S
C302 C301 1.399 . S
C302 C303 1.385 . S
C303 H289 0.931 . S
C303 C302 1.385 . S
C303 C304 1.389 . S
C304 C303 1.389 . S
C304 C305 1.387 . S
C305 H290 0.930 . S
C305 C300 1.390 . S
C305 C304 1.387 . S
H306 C318 0.930 . S
H307 C320 0.930 . S
H308 C321 0.930 . S
H309 C325 0.959 . S
H310 C325 0.959 . S
H311 C325 0.961 . S
H312 C326 0.960 . S
H313 C326 0.961 . S
H314 C326 0.959 . S
H315 C329 0.929 . S
H316 C330 0.931 . S
H317 C332 0.930 . S
C318 H306 0.930 . S
C318 C319 1.399 . S
C318 C323 1.399 . S
C319 C318 1.399 . S
C319 C320 1.376 . S
C320 H307 0.930 . S
C320 C319 1.376 . S
C320 C321 1.388 . S
C321 H308 0.930 . S
C321 C320 1.388 . S
C321 C322 1.390 . S
C322 C321 1.390 . S
C322 C323 1.394 . S
C322 C328 1.465 . S
C323 C318 1.399 . S
C323 C322 1.394 . S
C323 C324 1.516 . S
C324 C323 1.516 . S
C324 C325 1.502 . S
C324 C326 1.561 . S
C324 C327 1.526 . S
C325 H309 0.959 . S
C325 H310 0.959 . S
C325 H311 0.961 . S
C325 C324 1.502 . S
C326 H312 0.960 . S
C326 H313 0.961 . S
C326 H314 0.959 . S
C326 C324 1.561 . S
C327 C324 1.526 . S
C327 C328 1.396 . S
C327 C332 1.390 . S
C328 C322 1.465 . S
C328 C327 1.396 . S
C328 C329 1.399 . S
C329 H315 0.929 . S
C329 C328 1.399 . S
C329 C330 1.385 . S
C330 H316 0.931 . S
C330 C329 1.385 . S
C330 C331 1.389 . S
C331 C330 1.389 . S
C331 C332 1.387 . S
C332 H317 0.930 . S
C332 C327 1.390 . S
C332 C331 1.387 . S
H333 C345 0.930 . S
H334 C347 0.930 . S
H335 C348 0.930 . S
H336 C352 0.959 . S
H337 C352 0.959 . S
H338 C352 0.961 . S
H339 C353 0.960 . S
H340 C353 0.961 . S
H341 C353 0.959 . S
H342 C356 0.929 . S
H343 C357 0.931 . S
H344 C359 0.930 . S
C345 H333 0.930 . S
C345 C346 1.399 . S
C345 C350 1.399 . S
C346 C345 1.399 . S
C346 C347 1.376 . S
C347 H334 0.930 . S
C347 C346 1.376 . S
C347 C348 1.388 . S
C348 H335 0.930 . S
C348 C347 1.388 . S
C348 C349 1.390 . S
C349 C348 1.390 . S
C349 C350 1.394 . S
C349 C355 1.465 . S
C350 C345 1.399 . S
C350 C349 1.394 . S
C350 C351 1.516 . S
C351 C350 1.516 . S
C351 C352 1.502 . S
C351 C353 1.561 . S
C351 C354 1.526 . S
C352 H336 0.959 . S
C352 H337 0.959 . S
C352 H338 0.961 . S
C352 C351 1.502 . S
C353 H339 0.960 . S
C353 H340 0.961 . S
C353 H341 0.959 . S
C353 C351 1.561 . S
C354 C351 1.526 . S
C354 C355 1.396 . S
C354 C359 1.390 . S
C355 C349 1.465 . S
C355 C354 1.396 . S
C355 C356 1.399 . S
C356 H342 0.929 . S
C356 C355 1.399 . S
C356 C357 1.385 . S
C357 H343 0.931 . S
C357 C356 1.385 . S
C357 C358 1.389 . S
C358 C357 1.389 . S
C358 C359 1.387 . S
C359 H344 0.930 . S
C359 C354 1.390 . S
C359 C358 1.387 . S
H360 C372 0.930 . S
H361 C374 0.930 . S
H362 C375 0.930 . S
H363 C379 0.959 . S
H364 C379 0.959 . S
H365 C379 0.961 . S
H366 C380 0.960 . S
H367 C380 0.961 . S
H368 C380 0.959 . S
H369 C383 0.929 . S
H370 C384 0.931 . S
H371 C386 0.930 . S
C372 H360 0.930 . S
C372 C373 1.399 . S
C372 C377 1.399 . S
C373 C372 1.399 . S
C373 C374 1.376 . S
C374 H361 0.930 . S
C374 C373 1.376 . S
C374 C375 1.388 . S
C375 H362 0.930 . S
C375 C374 1.388 . S
C375 C376 1.390 . S
C376 C375 1.390 . S
C376 C377 1.394 . S
C376 C382 1.465 . S
C377 C372 1.399 . S
C377 C376 1.394 . S
C377 C378 1.516 . S
C378 C377 1.516 . S
C378 C379 1.502 . S
C378 C380 1.561 . S
C378 C381 1.526 . S
C379 H363 0.959 . S
C379 H364 0.959 . S
C379 H365 0.961 . S
C379 C378 1.502 . S
C380 H366 0.960 . S
C380 H367 0.961 . S
C380 H368 0.959 . S
C380 C378 1.561 . S
C381 C378 1.526 . S
C381 C382 1.396 . S
C381 C386 1.390 . S
C382 C376 1.465 . S
C382 C381 1.396 . S
C382 C383 1.399 . S
C383 H369 0.929 . S
C383 C382 1.399 . S
C383 C384 1.385 . S
C384 H370 0.931 . S
C384 C383 1.385 . S
C384 C385 1.389 . S
C385 C384 1.389 . S
C385 C386 1.387 . S
C386 H371 0.930 . S
C386 C381 1.390 . S
C386 C385 1.387 . S
H387 C399 0.930 . S
H388 C401 0.930 . S
H389 C402 0.930 . S
H390 C406 0.959 . S
H391 C406 0.959 . S
H392 C406 0.961 . S
H393 C407 0.960 . S
H394 C407 0.961 . S
H395 C407 0.959 . S
H396 C410 0.929 . S
H397 C411 0.931 . S
H398 C413 0.930 . S
C399 H387 0.930 . S
C399 C400 1.399 . S
C399 C404 1.399 . S
C400 C399 1.399 . S
C400 C401 1.376 . S
C401 H388 0.930 . S
C401 C400 1.376 . S
C401 C402 1.388 . S
C402 H389 0.930 . S
C402 C401 1.388 . S
C402 C403 1.390 . S
C403 C402 1.390 . S
C403 C404 1.394 . S
C403 C409 1.465 . S
C404 C399 1.399 . S
C404 C403 1.394 . S
C404 C405 1.516 . S
C405 C404 1.516 . S
C405 C406 1.502 . S
C405 C407 1.561 . S
C405 C408 1.526 . S
C406 H390 0.959 . S
C406 H391 0.959 . S
C406 H392 0.961 . S
C406 C405 1.502 . S
C407 H393 0.960 . S
C407 H394 0.961 . S
C407 H395 0.959 . S
C407 C405 1.561 . S
C408 C405 1.526 . S
C408 C409 1.396 . S
C408 C413 1.390 . S
C409 C403 1.465 . S
C409 C408 1.396 . S
C409 C410 1.399 . S
C410 H396 0.929 . S
C410 C409 1.399 . S
C410 C411 1.385 . S
C411 H397 0.931 . S
C411 C410 1.385 . S
C411 C412 1.389 . S
C412 C411 1.389 . S
C412 C413 1.387 . S
C413 H398 0.930 . S
C413 C408 1.390 . S
C413 C412 1.387 . S
H414 C426 0.930 . S
H415 C428 0.930 . S
H416 C429 0.930 . S
H417 C433 0.959 . S
H418 C433 0.959 . S
H419 C433 0.961 . S
H420 C434 0.960 . S
H421 C434 0.961 . S
H422 C434 0.959 . S
H423 C437 0.929 . S
H424 C438 0.931 . S
H425 C440 0.930 . S
C426 H414 0.930 . S
C426 C427 1.399 . S
C426 C431 1.399 . S
C427 C426 1.399 . S
C427 C428 1.376 . S
C428 H415 0.930 . S
C428 C427 1.376 . S
C428 C429 1.388 . S
C429 H416 0.930 . S
C429 C428 1.388 . S
C429 C430 1.390 . S
C430 C429 1.390 . S
C430 C431 1.394 . S
C430 C436 1.465 . S
C431 C426 1.399 . S
C431 C430 1.394 . S
C431 C432 1.516 . S
C432 C431 1.516 . S
C432 C433 1.502 . S
C432 C434 1.561 . S
C432 C435 1.526 . S
C433 H417 0.959 . S
C433 H418 0.959 . S
C433 H419 0.961 . S
C433 C432 1.502 . S
C434 H420 0.960 . S
C434 H421 0.961 . S
C434 H422 0.959 . S
C434 C432 1.561 . S
C435 C432 1.526 . S
C435 C436 1.396 . S
C435 C440 1.390 . S
C436 C430 1.465 . S
C436 C435 1.396 . S
C436 C437 1.399 . S
C437 H423 0.929 . S
C437 C436 1.399 . S
C437 C438 1.385 . S
C438 H424 0.931 . S
C438 C437 1.385 . S
C438 C439 1.389 . S
C439 C438 1.389 . S
C439 C440 1.387 . S
C440 H425 0.930 . S
C440 C435 1.390 . S
C440 C439 1.387 . S
H441 C453 0.930 . S
H442 C455 0.930 . S
H443 C456 0.930 . S
H444 C460 0.959 . S
H445 C460 0.959 . S
H446 C460 0.961 . S
H447 C461 0.960 . S
H448 C461 0.961 . S
H449 C461 0.959 . S
H450 C464 0.929 . S
H451 C465 0.931 . S
H452 C467 0.930 . S
C453 H441 0.930 . S
C453 C454 1.399 . S
C453 C458 1.399 . S
C454 C453 1.399 . S
C454 C455 1.376 . S
C455 H442 0.930 . S
C455 C454 1.376 . S
C455 C456 1.388 . S
C456 H443 0.930 . S
C456 C455 1.388 . S
C456 C457 1.390 . S
C457 C456 1.390 . S
C457 C458 1.394 . S
C457 C463 1.465 . S
C458 C453 1.399 . S
C458 C457 1.394 . S
C458 C459 1.516 . S
C459 C458 1.516 . S
C459 C460 1.502 . S
C459 C461 1.561 . S
C459 C462 1.526 . S
C460 H444 0.959 . S
C460 H445 0.959 . S
C460 H446 0.961 . S
C460 C459 1.502 . S
C461 H447 0.960 . S
C461 H448 0.961 . S
C461 H449 0.959 . S
C461 C459 1.561 . S
C462 C459 1.526 . S
C462 C463 1.396 . S
C462 C467 1.390 . S
C463 C457 1.465 . S
C463 C462 1.396 . S
C463 C464 1.399 . S
C464 H450 0.929 . S
C464 C463 1.399 . S
C464 C465 1.385 . S
C465 H451 0.931 . S
C465 C464 1.385 . S
C465 C466 1.389 . S
C466 C465 1.389 . S
C466 C467 1.387 . S
C467 H452 0.930 . S
C467 C462 1.390 . S
C467 C466 1.387 . S
H468 C480 0.930 . S
H469 C482 0.930 . S
H470 C483 0.930 . S
H471 C487 0.959 . S
H472 C487 0.959 . S
H473 C487 0.961 . S
H474 C488 0.960 . S
H475 C488 0.961 . S
H476 C488 0.959 . S
H477 C491 0.929 . S
H478 C492 0.931 . S
H479 C494 0.930 . S
C480 H468 0.930 . S
C480 C481 1.399 . S
C480 C485 1.399 . S
C481 C480 1.399 . S
C481 C482 1.376 . S
C482 H469 0.930 . S
C482 C481 1.376 . S
C482 C483 1.388 . S
C483 H470 0.930 . S
C483 C482 1.388 . S
C483 C484 1.390 . S
C484 C483 1.390 . S
C484 C485 1.394 . S
C484 C490 1.465 . S
C485 C480 1.399 . S
C485 C484 1.394 . S
C485 C486 1.516 . S
C486 C485 1.516 . S
C486 C487 1.502 . S
C486 C488 1.561 . S
C486 C489 1.526 . S
C487 H471 0.959 . S
C487 H472 0.959 . S
C487 H473 0.961 . S
C487 C486 1.502 . S
C488 H474 0.960 . S
C488 H475 0.961 . S
C488 H476 0.959 . S
C488 C486 1.561 . S
C489 C486 1.526 . S
C489 C490 1.396 . S
C489 C494 1.390 . S
C490 C484 1.465 . S
C490 C489 1.396 . S
C490 C491 1.399 . S
C491 H477 0.929 . S
C491 C490 1.399 . S
C491 C492 1.385 . S
C492 H478 0.931 . S
C492 C491 1.385 . S
C492 C493 1.389 . S
C493 C492 1.389 . S
C493 C494 1.387 . S
C494 H479 0.930 . S
C494 C489 1.390 . S
C494 C493 1.387 . S
H495 C507 0.930 . S
H496 C509 0.930 . S
H497 C510 0.930 . S
H498 C514 0.959 . S
H499 C514 0.959 . S
H500 C514 0.961 . S
H501 C515 0.960 . S
H502 C515 0.961 . S
H503 C515 0.959 . S
H504 C518 0.929 . S
H505 C519 0.931 . S
H506 C521 0.930 . S
C507 H495 0.930 . S
C507 C508 1.399 . S
C507 C512 1.399 . S
C508 C507 1.399 . S
C508 C509 1.376 . S
C509 H496 0.930 . S
C509 C508 1.376 . S
C509 C510 1.388 . S
C510 H497 0.930 . S
C510 C509 1.388 . S
C510 C511 1.390 . S
C511 C510 1.390 . S
C511 C512 1.394 . S
C511 C517 1.465 . S
C512 C507 1.399 . S
C512 C511 1.394 . S
C512 C513 1.516 . S
C513 C512 1.516 . S
C513 C514 1.502 . S
C513 C515 1.561 . S
C513 C516 1.526 . S
C514 H498 0.959 . S
C514 H499 0.959 . S
C514 H500 0.961 . S
C514 C513 1.502 . S
C515 H501 0.960 . S
C515 H502 0.961 . S
C515 H503 0.959 . S
C515 C513 1.561 . S
C516 C513 1.526 . S
C516 C517 1.396 . S
C516 C521 1.390 . S
C517 C511 1.465 . S
C517 C516 1.396 . S
C517 C518 1.399 . S
C518 H504 0.929 . S
C518 C517 1.399 . S
C518 C519 1.385 . S
C519 H505 0.931 . S
C519 C518 1.385 . S
C519 C520 1.389 . S
C520 C519 1.389 . S
C520 C521 1.387 . S
C521 H506 0.930 . S
C521 C516 1.390 . S
C521 C520 1.387 . S
H522 C534 0.930 . S
H523 C536 0.930 . S
H524 C537 0.930 . S
H525 C541 0.959 . S
H526 C541 0.959 . S
H527 C541 0.961 1_554 S
H528 C542 0.960 1_554 S
H529 C542 0.961 . S
H530 C542 0.959 . S
H531 C545 0.929 . S
H532 C546 0.931 . S
H533 C548 0.930 1_655 S
C534 H522 0.930 . S
C534 C535 1.399 1_655 S
C534 C539 1.399 1_655 S
C535 C534 1.399 1_455 S
C535 C536 1.376 . S
C536 H523 0.930 . S
C536 C535 1.376 . S
C536 C537 1.388 . S
C537 H524 0.930 . S
C537 C536 1.388 . S
C537 C538 1.390 . S
C538 C537 1.390 . S
C538 C539 1.394 . S
C538 C544 1.465 1_554 S
C539 C534 1.399 1_455 S
C539 C538 1.394 . S
C539 C540 1.516 1_454 S
C540 C539 1.516 1_656 S
C540 C541 1.502 . S
C540 C542 1.561 . S
C540 C543 1.526 1_655 S
C541 H525 0.959 . S
C541 H526 0.959 . S
C541 H527 0.961 1_556 S
C541 C540 1.502 . S
C542 H528 0.960 1_556 S
C542 H529 0.961 . S
C542 H530 0.959 . S
C542 C540 1.561 . S
C543 C540 1.526 1_455 S
C543 C544 1.396 . S
C543 C548 1.390 . S
C544 C538 1.465 1_556 S
C544 C543 1.396 . S
C544 C545 1.399 . S
C545 H531 0.929 . S
C545 C544 1.399 . S
C545 C546 1.385 . S
C546 H532 0.931 . S
C546 C545 1.385 . S
C546 C547 1.389 . S
C547 C546 1.389 . S
C547 C548 1.387 . S
C548 H533 0.930 1_455 S
C548 C543 1.390 . S
C548 C547 1.387 . S
H549 C561 0.930 . S
H550 C563 0.930 . S
H551 C564 0.930 . S
H552 C568 0.959 . S
H553 C568 0.959 . S
H554 C568 0.961 . S
H555 C569 0.960 . S
H556 C569 0.961 . S
H557 C569 0.959 . S
H558 C572 0.929 . S
H559 C573 0.931 . S
H560 C575 0.930 . S
C561 H549 0.930 . S
C561 C562 1.399 . S
C561 C566 1.399 . S
C562 C561 1.399 . S
C562 C563 1.376 1_545 S
C563 H550 0.930 . S
C563 C562 1.376 1_565 S
C563 C564 1.388 . S
C564 H551 0.930 . S
C564 C563 1.388 . S
C564 C565 1.390 1_565 S
C565 C564 1.390 1_545 S
C565 C566 1.394 . S
C565 C571 1.465 . S
C566 C561 1.399 . S
C566 C565 1.394 . S
C566 C567 1.516 . S
C567 C566 1.516 . S
C567 C568 1.502 . S
C567 C569 1.561 . S
C567 C570 1.526 . S
C568 H552 0.959 . S
C568 H553 0.959 . S
C568 H554 0.961 . S
C568 C567 1.502 . S
C569 H555 0.960 . S
C569 H556 0.961 . S
C569 H557 0.959 . S
C569 C567 1.561 . S
C570 C567 1.526 . S
C570 C571 1.396 . S
C570 C575 1.390 . S
C571 C565 1.465 . S
C571 C570 1.396 . S
C571 C572 1.399 1_545 S
C572 H558 0.929 . S
C572 C571 1.399 1_565 S
C572 C573 1.385 . S
C573 H559 0.931 . S
C573 C572 1.385 . S
C573 C574 1.389 1_565 S
C574 C573 1.389 1_545 S
C574 C575 1.387 . S
C575 H560 0.930 . S
C575 C570 1.390 . S
C575 C574 1.387 . S
H576 C588 0.930 . S
H577 C590 0.930 . S
H578 C591 0.930 . S
H579 C595 0.959 . S
H580 C595 0.959 . S
H581 C595 0.961 . S
H582 C596 0.960 . S
H583 C596 0.961 . S
H584 C596 0.959 . S
H585 C599 0.929 . S
H586 C600 0.931 . S
H587 C602 0.930 . S
C588 H576 0.930 . S
C588 C589 1.399 . S
C588 C593 1.399 . S
C589 C588 1.399 . S
C589 C590 1.376 . S
C590 H577 0.930 . S
C590 C589 1.376 . S
C590 C591 1.388 . S
C591 H578 0.930 . S
C591 C590 1.388 . S
C591 C592 1.390 . S
C592 C591 1.390 . S
C592 C593 1.394 . S
C592 C598 1.465 . S
C593 C588 1.399 . S
C593 C592 1.394 . S
C593 C594 1.516 . S
C594 C593 1.516 . S
C594 C595 1.502 . S
C594 C596 1.561 . S
C594 C597 1.526 . S
C595 H579 0.959 . S
C595 H580 0.959 . S
C595 H581 0.961 . S
C595 C594 1.502 . S
C596 H582 0.960 . S
C596 H583 0.961 . S
C596 H584 0.959 . S
C596 C594 1.561 . S
C597 C594 1.526 . S
C597 C598 1.396 . S
C597 C602 1.390 . S
C598 C592 1.465 . S
C598 C597 1.396 . S
C598 C599 1.399 . S
C599 H585 0.929 . S
C599 C598 1.399 . S
C599 C600 1.385 . S
C600 H586 0.931 . S
C600 C599 1.385 . S
C600 C601 1.389 . S
C601 C600 1.389 . S
C601 C602 1.387 . S
C602 H587 0.930 . S
C602 C597 1.390 . S
C602 C601 1.387 . S
H603 C615 0.930 . S
H604 C617 0.930 . S
H605 C618 0.930 . S
H606 C622 0.959 . S
H607 C622 0.959 . S
H608 C622 0.961 . S
H609 C623 0.960 . S
H610 C623 0.961 . S
H611 C623 0.959 . S
H612 C626 0.929 . S
H613 C627 0.931 . S
H614 C629 0.930 . S
C615 H603 0.930 . S
C615 C616 1.399 . S
C615 C620 1.399 . S
C616 C615 1.399 . S
C616 C617 1.376 1_545 S
C617 H604 0.930 . S
C617 C616 1.376 1_565 S
C617 C618 1.388 . S
C618 H605 0.930 . S
C618 C617 1.388 . S
C618 C619 1.390 1_565 S
C619 C618 1.390 1_545 S
C619 C620 1.394 . S
C619 C625 1.465 . S
C620 C615 1.399 . S
C620 C619 1.394 . S
C620 C621 1.516 . S
C621 C620 1.516 . S
C621 C622 1.502 . S
C621 C623 1.561 . S
C621 C624 1.526 . S
C622 H606 0.959 . S
C622 H607 0.959 . S
C622 H608 0.961 . S
C622 C621 1.502 . S
C623 H609 0.960 . S
C623 H610 0.961 . S
C623 H611 0.959 . S
C623 C621 1.561 . S
C624 C621 1.526 . S
C624 C625 1.396 . S
C624 C629 1.390 . S
C625 C619 1.465 . S
C625 C624 1.396 . S
C625 C626 1.399 1_545 S
C626 H612 0.929 . S
C626 C625 1.399 1_565 S
C626 C627 1.385 . S
C627 H613 0.931 . S
C627 C626 1.385 . S
C627 C628 1.389 1_565 S
C628 C627 1.389 1_545 S
C628 C629 1.387 . S
C629 H614 0.930 . S
C629 C624 1.390 . S
C629 C628 1.387 . S
H630 C642 0.930 . S
H631 C644 0.930 . S
H632 C645 0.930 . S
H633 C649 0.959 . S
H634 C649 0.959 1_554 S
H635 C649 0.961 . S
H636 C650 0.960 . S
H637 C650 0.961 1_554 S
H638 C650 0.959 . S
H639 C653 0.920 1_556 S
H640 C654 0.931 . S
H641 C656 0.930 . S
C642 H630 0.930 . S
C642 C643 1.399 . S
C642 C647 1.399 . S
C643 C642 1.399 . S
C643 C644 1.376 . S
C644 H631 0.930 . S
C644 C643 1.376 . S
C644 C645 1.388 . S
C645 H632 0.930 . S
C645 C644 1.388 . S
C645 C646 1.390 . S
C646 C645 1.390 . S
C646 C647 1.394 . S
C646 C652 1.465 . S
C647 C642 1.399 . S
C647 C646 1.394 . S
C647 C648 1.516 . S
C648 C647 1.516 . S
C648 C649 1.502 . S
C648 C650 1.561 . S
C648 C651 1.526 1_556 S
C649 H633 0.959 . S
C649 H634 0.959 1_556 S
C649 H635 0.961 . S
C649 C648 1.502 . S
C650 H636 0.960 . S
C650 H637 0.961 1_556 S
C650 H638 0.959 . S
C650 C648 1.561 . S
C651 C648 1.526 1_554 S
C651 C652 1.396 1_554 S
C651 C656 1.390 . S
C652 C646 1.465 . S
C652 C651 1.396 1_556 S
C652 C653 1.399 1_556 S
C653 H639 0.920 1_554 S
C653 C652 1.399 1_554 S
C653 C654 1.385 . S
C654 H640 0.931 . S
C654 C653 1.385 . S
C654 C655 1.389 . S
C655 C654 1.389 . S
C655 C656 1.387 . S
C656 H641 0.930 . S
C656 C651 1.390 . S
C656 C655 1.387 . S
H657 C669 0.930 . S
H658 C671 0.930 . S
H659 C672 0.930 . S
H660 C676 0.959 . S
H661 C676 0.959 . S
H662 C676 0.961 . S
H663 C677 0.960 . S
H664 C677 0.961 . S
H665 C677 0.959 1_455 S
H666 C680 0.929 . S
H667 C681 0.931 . S
H668 C683 0.930 . S
C669 H657 0.930 . S
C669 C670 1.399 1_655 S
C669 C674 1.399 . S
C670 C669 1.399 1_455 S
C670 C671 1.376 . S
C671 H658 0.930 . S
C671 C670 1.376 . S
C671 C672 1.388 . S
C672 H659 0.930 . S
C672 C671 1.388 . S
C672 C673 1.390 . S
C673 C672 1.390 . S
C673 C674 1.394 1_455 S
C673 C679 1.465 . S
C674 C669 1.399 . S
C674 C673 1.394 1_655 S
C674 C675 1.516 . S
C675 C674 1.516 . S
C675 C676 1.502 . S
C675 C677 1.561 . S
C675 C678 1.526 . S
C676 H660 0.959 . S
C676 H661 0.959 . S
C676 H662 0.961 . S
C676 C675 1.502 . S
C677 H663 0.960 . S
C677 H664 0.961 . S
C677 H665 0.959 1_655 S
C677 C675 1.561 . S
C678 C675 1.526 . S
C678 C679 1.396 1_655 S
C678 C683 1.390 . S
C679 C673 1.465 . S
C679 C678 1.396 1_455 S
C679 C680 1.399 . S
C680 H666 0.929 . S
C680 C679 1.399 . S
C680 C681 1.385 . S
C681 H667 0.931 . S
C681 C680 1.385 . S
C681 C682 1.389 . S
C682 C681 1.389 . S
C682 C683 1.387 1_455 S
C683 H668 0.930 . S
C683 C678 1.390 . S
C683 C682 1.387 1_655 S
C211 C6 0.364 . S
C223 N187 0.238 . S
C238 C59 1.790 . S
C250 N160 1.801 1_655 S
C265 C86 1.172 . S
C277 N173 1.151 1_565 S
C292 C15 0.658 . S
C304 N186 0.786 . S
C331 N161 1.961 . S
C319 C50 1.946 . S
C358 N174 1.367 . S
C346 C95 1.337 . S
C373 C46 1.100 . S
C385 N134 1.079 . S
C400 C99 2.819 . S
C412 N148 2.793 1_655 S
C427 C10 2.010 . S
C439 N122 2.020 . S
C466 N135 1.423 . S
C454 C55 1.411 . S
C493 N147 3.278 . S
C481 C90 3.238 . S
C508 C19 1.786 . S
C520 N121 1.810 . S
C547 N151 1.737 . S
C535 C18 1.692 . S
C562 C49 1.422 . S
C574 N125 1.447 . S
C589 C98 1.520 . S
C601 N138 1.590 . S
C628 N177 1.548 . S
C616 C58 1.442 . S
C655 N190 1.243 . S
C643 C89 1.270 . S
C670 C9 1.404 . S
C682 N164 1.427 . S
