# Generated by pormake.
# Topology ctn, (3,4)-cn, num edge types: 1
# Building blocks:
#     Node 0, Type 0, BuildingBlock: VETTIZ_charged_linker_0, # of connection points: 3
#     Node 1, Type 0, BuildingBlock: VETTIZ_charged_linker_0, # of connection points: 3
#     Node 2, Type 0, BuildingBlock: VETTIZ_charged_linker_0, # of connection points: 3
#     Node 3, Type 0, BuildingBlock: VETTIZ_charged_linker_0, # of connection points: 3
#     Node 4, Type 0, BuildingBlock: VETTIZ_charged_linker_0, # of connection points: 3
#     Node 5, Type 0, BuildingBlock: VETTIZ_charged_linker_0, # of connection points: 3
#     Node 6, Type 0, BuildingBlock: VETTIZ_charged_linker_0, # of connection points: 3
#     Node 7, Type 0, BuildingBlock: VETTIZ_charged_linker_0, # of connection points: 3
#     Node 8, Type 0, BuildingBlock: VETTIZ_charged_linker_0, # of connection points: 3
#     Node 9, Type 0, BuildingBlock: VETTIZ_charged_linker_0, # of connection points: 3
#     Node 10, Type 0, BuildingBlock: VETTIZ_charged_linker_0, # of connection points: 3
#     Node 11, Type 0, BuildingBlock: VETTIZ_charged_linker_0, # of connection points: 3
#     Node 12, Type 0, BuildingBlock: VETTIZ_charged_linker_0, # of connection points: 3
#     Node 13, Type 0, BuildingBlock: VETTIZ_charged_linker_0, # of connection points: 3
#     Node 14, Type 0, BuildingBlock: VETTIZ_charged_linker_0, # of connection points: 3
#     Node 15, Type 0, BuildingBlock: VETTIZ_charged_linker_0, # of connection points: 3
#     Node 16, Type 1, BuildingBlock: UXUYUI_clean_sbu_0, # of connection points: 4
#     Node 17, Type 1, BuildingBlock: UXUYUI_clean_sbu_0, # of connection points: 4
#     Node 18, Type 1, BuildingBlock: UXUYUI_clean_sbu_0, # of connection points: 4
#     Node 19, Type 1, BuildingBlock: UXUYUI_clean_sbu_0, # of connection points: 4
#     Node 20, Type 1, BuildingBlock: UXUYUI_clean_sbu_0, # of connection points: 4
#     Node 21, Type 1, BuildingBlock: UXUYUI_clean_sbu_0, # of connection points: 4
#     Node 22, Type 1, BuildingBlock: UXUYUI_clean_sbu_0, # of connection points: 4
#     Node 23, Type 1, BuildingBlock: UXUYUI_clean_sbu_0, # of connection points: 4
#     Node 24, Type 1, BuildingBlock: UXUYUI_clean_sbu_0, # of connection points: 4
#     Node 25, Type 1, BuildingBlock: UXUYUI_clean_sbu_0, # of connection points: 4
#     Node 26, Type 1, BuildingBlock: UXUYUI_clean_sbu_0, # of connection points: 4
#     Node 27, Type 1, BuildingBlock: UXUYUI_clean_sbu_0, # of connection points: 4
#     Edge 28, Type (0, 1), None
#     Edge 29, Type (0, 1), None
#     Edge 30, Type (0, 1), None
#     Edge 31, Type (0, 1), None
#     Edge 32, Type (0, 1), None
#     Edge 33, Type (0, 1), None
#     Edge 34, Type (0, 1), None
#     Edge 35, Type (0, 1), None
#     Edge 36, Type (0, 1), None
#     Edge 37, Type (0, 1), None
#     Edge 38, Type (0, 1), None
#     Edge 39, Type (0, 1), None
#     Edge 40, Type (0, 1), None
#     Edge 41, Type (0, 1), None
#     Edge 42, Type (0, 1), None
#     Edge 43, Type (0, 1), None
#     Edge 44, Type (0, 1), None
#     Edge 45, Type (0, 1), None
#     Edge 46, Type (0, 1), None
#     Edge 47, Type (0, 1), None
#     Edge 48, Type (0, 1), None
#     Edge 49, Type (0, 1), None
#     Edge 50, Type (0, 1), None
#     Edge 51, Type (0, 1), None
#     Edge 52, Type (0, 1), None
#     Edge 53, Type (0, 1), None
#     Edge 54, Type (0, 1), None
#     Edge 55, Type (0, 1), None
#     Edge 56, Type (0, 1), None
#     Edge 57, Type (0, 1), None
#     Edge 58, Type (0, 1), None
#     Edge 59, Type (0, 1), None
#     Edge 60, Type (0, 1), None
#     Edge 61, Type (0, 1), None
#     Edge 62, Type (0, 1), None
#     Edge 63, Type (0, 1), None
#     Edge 64, Type (0, 1), None
#     Edge 65, Type (0, 1), None
#     Edge 66, Type (0, 1), None
#     Edge 67, Type (0, 1), None
#     Edge 68, Type (0, 1), None
#     Edge 69, Type (0, 1), None
#     Edge 70, Type (0, 1), None
#     Edge 71, Type (0, 1), None
#     Edge 72, Type (0, 1), None
#     Edge 73, Type (0, 1), None
#     Edge 74, Type (0, 1), None
#     Edge 75, Type (0, 1), None
# Relax obj value: 0.000
# Max RMSD: 0.002
# Mean RMSD: 0.001
data_MOF--net-ctn--node1-UXUYUI_clean_sbu_0--node2-VETTIZ_charged_linker_0--edge1-none
_symmetry_space_group_name_H-M    P1
_symmetry_Int_Tables_number       1
_symmetry_cell_setting            triclinic
loop_
_symmetry_equiv_pos_as_xyz
'x, y, z'
_cell_length_a     49.147849
_cell_length_b     49.174546
_cell_length_c     49.158505
_cell_angle_alpha  90.025423
_cell_angle_beta   89.942352
_cell_angle_gamma 89.956175
loop_
_atom_site_label
_atom_site_type_symbol
_atom_site_fract_x
_atom_site_fract_y
_atom_site_fract_z
_atom_type_partial_charge
C0 C 0.04873 0.11857 0.98198 0.0
C1 C 0.02767 0.13788 0.98434 0.0
C2 C 0.00881 0.13519 1.00584 0.0
C3 C 0.03191 0.09463 0.02183 0.0
C4 C 0.05042 0.09723 1.00082 0.0
C5 C 0.07136 0.07488 1.00102 0.0
H6 H 0.12412 0.96277 0.06123 0.0
C7 C 0.03925 0.07014 0.03772 0.0
C8 C 0.06236 0.05845 0.0256 0.0
H9 H 0.15137 1.003 0.98776 0.0
H10 H 0.11526 0.03566 0.99198 0.0
H11 H 0.10895 0.01738 0.09575 0.0
H12 H 0.06181 0.96382 0.04503 0.0
H13 H 0.04051 0.97396 0.07183 0.0
H14 H 0.071 0.9548 0.07916 0.0
H15 H 0.10129 0.98284 0.10479 0.0
H16 H 0.07813 0.01016 0.11255 0.0
C17 C 0.09965 0.08804 1.00538 0.0
C18 C 0.06862 0.05848 0.97421 0.0
C19 C 0.98249 0.04328 0.12005 0.0
C20 C 0.98382 0.02138 0.13848 0.0
C21 C 1.00484 1.00202 0.13528 0.0
C22 C 0.02412 1.00447 0.11437 0.0
C23 C 0.02244 0.02644 0.09618 0.0
C24 C 1.0018 0.0453 0.09913 0.0
C25 C 1.00284 0.06698 0.07756 0.0
C26 C 0.02748 0.058 0.06118 0.0
C27 C 0.03899 0.03432 0.07227 0.0
C28 C 1.00762 0.09471 0.09175 0.0
C29 C 0.97624 0.06537 0.06071 0.0
C30 C 0.12227 0.97844 0.04589 0.0
C31 C 0.14111 0.98029 0.02431 0.0
C32 C 0.13776 1.0013 1.005 0.0
C33 C 0.11655 0.02022 1.00734 0.0
C34 C 0.09812 0.01819 0.02909 0.0
C35 C 0.10098 0.99739 0.04776 0.0
C36 C 0.07885 0.99786 0.06897 0.0
C37 C 0.06255 0.02262 0.06018 0.0
C38 C 0.07405 0.03453 0.03689 0.0
C39 C 0.09231 1.00211 0.09712 0.0
C40 C 0.06217 0.97123 0.06642 0.0
H41 H 0.99578 0.11288 0.04033 0.0
H42 H 0.06377 0.12009 0.96595 0.0
H43 H 0.04714 0.05811 0.96708 0.0
H44 H 0.07417 0.03683 0.9766 0.0
H45 H 0.08114 0.06756 0.95773 0.0
H46 H 0.09836 0.10494 0.02039 0.0
H47 H 0.1077 0.09658 0.98607 0.0
H48 H 0.1148 0.07383 0.01388 0.0
H49 H 0.96692 0.05875 0.12194 0.0
H50 H 1.00621 0.98465 0.14874 0.0
H51 H 0.03953 0.98907 0.11311 0.0
H52 H 0.02171 0.09242 0.10931 0.0
H53 H 0.98823 0.1033 0.0996 0.0
H54 H 0.01746 0.10983 0.0784 0.0
H55 H 0.96913 0.04397 0.05883 0.0
H56 H 0.97885 0.07236 0.03952 0.0
H57 H 0.95966 0.07726 0.07046 0.0
H58 H 0.99213 0.14943 0.00799 0.0
C59 C 0.01083 0.11377 0.02455 0.0
C60 C 0.24855 0.63677 0.2408 0.0
C61 C 0.22624 0.62997 0.22414 0.0
C62 C 0.2209 0.64621 0.20106 0.0
C63 C 0.25921 0.67532 0.2118 0.0
C64 C 0.26476 0.65925 0.23416 0.0
C65 C 0.28964 0.66871 0.24927 0.0
H66 H 0.39217 0.7596 0.26306 0.0
C67 C 0.27992 0.69709 0.21059 0.0
C68 C 0.29796 0.69319 0.23237 0.0
H69 H 0.37536 0.68864 0.31233 0.0
H70 H 0.33673 0.67797 0.28432 0.0
H71 H 0.32926 0.77869 0.2555 0.0
H72 H 0.38301 0.72994 0.20631 0.0
H73 H 0.36336 0.74956 0.18389 0.0
H74 H 0.3858 0.76629 0.20766 0.0
H75 H 0.35829 0.79241 0.23807 0.0
H76 H 0.32582 0.78916 0.22145 0.0
C77 C 0.28083 0.67697 0.27839 0.0
C78 C 0.31123 0.64571 0.24813 0.0
C79 C 0.27411 0.76955 0.13703 0.0
C80 C 0.29064 0.79194 0.13019 0.0
C81 C 0.31403 0.79708 0.14607 0.0
C82 C 0.32064 0.78052 0.16832 0.0
C83 C 0.30388 0.75833 0.17485 0.0
C84 C 0.28119 0.75304 0.15916 0.0
C85 C 0.26628 0.728 0.16848 0.0
C86 C 0.28357 0.71937 0.19257 0.0
C87 C 0.30547 0.73731 0.19632 0.0
C88 C 0.23728 0.73662 0.17735 0.0
C89 C 0.26706 0.70675 0.14516 0.0
C90 C 0.38035 0.74162 0.26771 0.0
C91 C 0.38686 0.72513 0.29021 0.0
C92 C 0.37061 0.70207 0.29554 0.0
C93 C 0.34822 0.69575 0.27909 0.0
C94 C 0.34189 0.71254 0.25687 0.0
C95 C 0.35794 0.73494 0.25138 0.0
C96 C 0.34835 0.75019 0.22662 0.0
C97 C 0.32384 0.73333 0.21829 0.0
C98 C 0.32011 0.71136 0.23616 0.0
C99 C 0.3401 0.77924 0.23562 0.0
C100 C 0.37125 0.74924 0.20493 0.0
H101 H 0.2319 0.68028 0.1771 0.0
H102 H 0.25327 0.62504 0.25882 0.0
H103 H 0.30954 0.63385 0.22893 0.0
H104 H 0.33231 0.6535 0.24809 0.0
H105 H 0.30867 0.63128 0.26532 0.0
H106 H 0.26087 0.68766 0.27801 0.0
H107 H 0.27863 0.65881 0.29165 0.0
H108 H 0.29498 0.6914 0.28812 0.0
H109 H 0.25589 0.76497 0.12558 0.0
H110 H 0.32757 0.81369 0.14108 0.0
H111 H 0.33869 0.78556 0.1795 0.0
H112 H 0.23791 0.75603 0.18896 0.0
H113 H 0.22394 0.73977 0.15939 0.0
H114 H 0.22749 0.72185 0.1911 0.0
H115 H 0.28561 0.70918 0.1324 0.0
H116 H 0.26818 0.6856 0.15271 0.0
H117 H 0.24913 0.70886 0.13158 0.0
H118 H 0.20435 0.64127 0.18741 0.0
C119 C 0.23713 0.66881 0.1949 0.0
C120 C 0.99501 0.38706 0.99294 0.0
C121 C 0.97822 0.3796 0.97096 0.0
C122 C 0.95423 0.39474 0.96626 0.0
C123 C 0.96446 0.42423 1.00445 0.0
C124 C 0.98766 0.40915 0.00943 0.0
C125 C 1.00289 0.41919 0.03399 0.0
H126 H 0.0121 0.50723 0.13969 0.0
C127 C 0.9628 0.44595 0.02523 0.0
C128 C 0.98516 0.44294 0.04275 0.0
H129 H 0.06701 0.44181 0.11866 0.0
H130 H 0.03946 0.43072 0.07957 0.0
H131 H 0.9551 0.47509 0.12561 0.0
H132 H 1.00683 0.52955 0.08082 0.0
H133 H 0.97356 0.53649 0.07003 0.0
H134 H 0.98263 0.54186 0.10523 0.0
H135 H 0.9591 0.51046 0.13378 0.0
H136 H 0.93433 0.49927 0.10925 0.0
C137 C 1.00312 0.39612 0.05546 0.0
C138 C 0.03149 0.42864 0.02467 0.0
C139 C 0.88697 0.51643 0.02083 0.0
C140 C 0.88108 0.53965 0.03652 0.0
C141 C 0.89762 0.54566 0.05916 0.0
C142 C 0.91972 0.52901 0.06597 0.0
C143 C 0.92559 0.5061 0.04991 0.0
C144 C 0.90934 0.50011 0.02777 0.0
C145 C 0.91904 0.47523 0.01275 0.0
C146 C 0.94396 0.46752 0.02934 0.0
C147 C 0.94756 0.48559 0.05117 0.0
C148 C 0.8965 0.45327 0.01446 0.0
C149 C 0.92666 0.48383 0.98341 0.0
C150 C 0.01795 0.49032 0.1268 0.0
C151 C 0.04162 0.47524 0.13232 0.0
C152 C 0.04892 0.45378 0.11473 0.0
C153 C 0.03282 0.44731 0.09211 0.0
C154 C 0.00921 0.46256 0.08683 0.0
C155 C 1.00224 0.48379 0.10393 0.0
C156 C 0.97715 0.49853 0.09445 0.0
C157 C 0.96982 0.4822 0.06927 0.0
C158 C 0.98859 0.46109 0.06498 0.0
C159 C 0.95517 0.49597 0.11689 0.0
C160 C 0.9852 0.52822 0.08739 0.0
H161 H 0.92888 0.42759 0.97805 0.0
H162 H 0.01367 0.37616 0.99718 0.0
H163 H 0.03057 0.43812 1.00414 0.0
H164 H 0.04021 0.44453 0.03794 0.0
H165 H 0.04588 0.41125 0.02353 0.0
H166 H 0.98362 0.38462 0.05514 0.0
H167 H 0.01981 0.38142 0.05142 0.0
H168 H 1.00492 0.40369 0.07652 0.0
H169 H 0.87479 0.51138 1.00319 0.0
H170 H 0.89329 0.5632 0.07179 0.0
H171 H 0.93144 0.53471 0.08345 0.0
H172 H 0.88506 0.45483 0.03394 0.0
H173 H 0.88162 0.45553 0.99762 0.0
H174 H 0.90471 0.43235 0.01432 0.0
H175 H 0.93724 0.50383 0.98345 0.0
H176 H 0.94096 0.46967 0.97345 0.0
H177 H 0.90822 0.48583 0.97052 0.0
H178 H 0.94048 0.38922 0.94998 0.0
C179 C 0.94735 0.41697 0.98277 0.0
C180 C 0.64857 0.79273 0.28698 0.0
C181 C 0.63025 0.77072 0.28559 0.0
C182 C 0.634 0.75105 0.26498 0.0
C183 C 0.67292 0.77573 0.24742 0.0
C184 C 0.66971 0.79472 0.26788 0.0
C185 C 0.69122 0.8165 0.26681 0.0
H186 H 0.80096 0.87135 0.20386 0.0
C187 C 0.69646 0.78398 0.23057 0.0
C188 C 0.70736 0.80782 0.24188 0.0
H189 H 0.76247 0.89736 0.27873 0.0
H190 H 0.72962 0.86134 0.2747 0.0
H191 H 0.74672 0.85895 0.17123 0.0
H192 H 0.79889 0.8066 0.21826 0.0
H193 H 0.79073 0.78976 0.18775 0.0
H194 H 0.80907 0.82142 0.18646 0.0
H195 H 0.77892 0.8473 0.15849 0.0
H196 H 0.74822 0.82761 0.15418 0.0
C197 C 0.67693 0.84422 0.26244 0.0
C198 C 0.70838 0.81474 0.29322 0.0
C199 C 0.72211 0.72822 0.14725 0.0
C200 C 0.74163 0.73176 0.12665 0.0
C201 C 0.75888 0.75463 0.12758 0.0
C202 C 0.75695 0.77352 0.1489 0.0
C203 C 0.73741 0.76965 0.16945 0.0
C204 C 0.72021 0.74745 0.16821 0.0
C205 C 0.69987 0.74727 0.1911 0.0
C206 C 0.70799 0.77275 0.20654 0.0
C207 C 0.73014 0.78566 0.19392 0.0
C208 C 0.67103 0.74975 0.17857 0.0
C209 C 0.70452 0.7212 0.20818 0.0
C210 C 0.78566 0.86918 0.21957 0.0
C211 C 0.78443 0.88748 0.24161 0.0
C212 C 0.76376 0.88398 0.26128 0.0
C213 C 0.74477 0.86283 0.25905 0.0
C214 C 0.74639 0.84472 0.23701 0.0
C215 C 0.76664 0.848 0.21777 0.0
C216 C 0.76549 0.8265 0.19599 0.0
C217 C 0.74143 0.8096 0.20554 0.0
C218 C 0.73021 0.8205 0.22948 0.0
C219 C 0.75974 0.84063 0.16841 0.0
C220 C 0.79244 0.81019 0.19686 0.0
H221 H 0.65671 0.73782 0.23082 0.0
H222 H 0.64639 0.80834 0.30236 0.0
H223 H 0.7089 0.7936 0.3013 0.0
H224 H 0.72999 0.82 0.28989 0.0
H225 H 0.69987 0.82801 0.30942 0.0
H226 H 0.6603 0.84229 0.24721 0.0
H227 H 0.66778 0.85177 0.28169 0.0
H228 H 0.69064 0.85999 0.25429 0.0
H229 H 0.70829 0.71108 0.14682 0.0
H230 H 0.77415 0.75769 0.11197 0.0
H231 H 0.77076 0.79039 0.14855 0.0
H232 H 0.67129 0.76304 0.16025 0.0
H233 H 0.66315 0.72956 0.17224 0.0
H234 H 0.6562 0.75942 0.1924 0.0
H235 H 0.72655 0.71606 0.20921 0.0
H236 H 0.69813 0.72351 0.2296 0.0
H237 H 0.69379 0.70351 0.19913 0.0
H238 H 0.62077 0.73351 0.26368 0.0
C239 C 0.65509 0.75347 0.24594 0.0
C240 C 0.04701 0.89694 0.53514 0.0
C241 C 0.02566 0.87791 0.53347 0.0
C242 C 1.00627 0.88081 0.51249 0.0
C243 C 0.02963 0.92077 0.49547 0.0
C244 C 0.04851 0.91813 0.51611 0.0
C245 C 0.0696 0.9403 0.51536 0.0
H246 H 0.12127 0.05232 0.45408 0.0
C247 C 0.03695 0.94499 0.47917 0.0
C248 C 0.0603 0.9566 0.49082 0.0
H249 H 0.15008 0.01196 0.52682 0.0
H250 H 0.11401 0.97914 0.52324 0.0
H251 H 0.0591 0.05083 0.47068 0.0
H252 H 0.10675 0.99753 0.42004 0.0
H253 H 0.07566 1.0037 0.40344 0.0
H254 H 0.09816 0.03172 0.4105 0.0
H255 H 0.0684 0.05986 0.43657 0.0
H256 H 0.03794 0.04065 0.44383 0.0
C257 C 0.0674 0.95691 0.54209 0.0
C258 C 0.09774 0.92689 0.51056 0.0
C259 C 0.98042 0.97057 0.39629 0.0
C260 C 0.98194 0.99211 0.37745 0.0
C261 C 1.00281 0.0116 0.38053 0.0
C262 C 0.02185 0.00955 0.40164 0.0
C263 C 0.0201 0.98787 0.42015 0.0
C264 C 0.99952 0.96894 0.41742 0.0
C265 C 1.00044 0.94767 0.43941 0.0
C266 C 0.02506 0.95686 0.45565 0.0
C267 C 0.03658 0.98034 0.44417 0.0
C268 C 0.97379 0.94966 0.45621 0.0
C269 C 1.0052 0.91967 0.42575 0.0
C270 C 0.11973 0.03658 0.4694 0.0
C271 C 0.13887 0.03477 0.49065 0.0
C272 C 0.13608 0.01365 0.5099 0.0
C273 C 0.11492 0.99466 0.50794 0.0
C274 C 0.09609 0.99671 0.48656 0.0
C275 C 0.09859 0.01751 0.46783 0.0
C276 C 0.07636 0.01682 0.4468 0.0
C277 C 0.06023 0.9921 0.45592 0.0
C278 C 0.07196 0.98033 0.47914 0.0
C279 C 0.05957 0.04342 0.44929 0.0
C280 C 0.08973 0.01239 0.4186 0.0
H281 H 0.99277 0.90302 0.47812 0.0
H282 H 0.06245 0.89531 0.55075 0.0
H283 H 0.09608 0.90982 0.49579 0.0
H284 H 0.11278 0.9409 0.50157 0.0
H285 H 0.10611 0.91853 0.52981 0.0
H286 H 0.04602 0.95761 0.54953 0.0
H287 H 0.08002 0.94777 0.55843 0.0
H288 H 0.07317 0.97846 0.53947 0.0
H289 H 0.9649 0.95506 0.39455 0.0
H290 H 1.00427 0.02874 0.3668 0.0
H291 H 0.03717 0.02504 0.40277 0.0
H292 H 0.96621 0.97098 0.457 0.0
H293 H 0.95746 0.93696 0.44715 0.0
H294 H 0.97658 0.94386 0.47774 0.0
H295 H 0.02005 0.92147 0.40874 0.0
H296 H 0.01408 0.90447 0.43965 0.0
H297 H 0.98596 0.91145 0.41723 0.0
H298 H 0.98929 0.86689 0.5109 0.0
C299 C 0.00818 0.90201 0.49352 0.0
C300 C 0.28684 0.64489 0.79504 0.0
C301 C 0.28543 0.62649 0.77308 0.0
C302 C 0.26472 0.63005 0.75351 0.0
C303 C 0.24763 0.66951 0.7777 0.0
C304 C 0.26793 0.6662 0.79684 0.0
C305 C 0.26694 0.68785 0.81851 0.0
H306 H 0.21017 0.80387 0.86726 0.0
C307 C 0.23164 0.6939 0.78514 0.0
C308 C 0.24299 0.70489 0.80894 0.0
H309 H 0.27585 0.75709 0.90225 0.0
H310 H 0.27242 0.72427 0.86578 0.0
H311 H 0.17293 0.75152 0.85346 0.0
H312 H 0.22858 0.79901 0.80538 0.0
H313 H 0.20086 0.79103 0.78434 0.0
H314 H 0.1954 0.81126 0.81452 0.0
H315 H 0.16544 0.78553 0.84255 0.0
H316 H 0.15785 0.75651 0.8215 0.0
C317 C 0.26113 0.67391 0.84618 0.0
C318 C 0.294 0.70393 0.81748 0.0
C319 C 0.14982 0.7215 0.728 0.0
C320 C 0.13175 0.74377 0.7291 0.0
C321 C 0.13604 0.76391 0.74914 0.0
C322 C 0.15723 0.76159 0.76804 0.0
C323 C 0.17468 0.739 0.76696 0.0
C324 C 0.17111 0.71966 0.74689 0.0
C325 C 0.19249 0.69774 0.74806 0.0
C326 C 0.20886 0.70665 0.77271 0.0
C327 C 0.19821 0.73073 0.78379 0.0
C328 C 0.17806 0.67019 0.75299 0.0
C329 C 0.20947 0.69897 0.72146 0.0
C330 C 0.22394 0.78665 0.86691 0.0
C331 C 0.24341 0.78311 0.88753 0.0
C332 C 0.2606 0.76016 0.88665 0.0
C333 C 0.25864 0.7412 0.86539 0.0
C334 C 0.23916 0.74508 0.84483 0.0
C335 C 0.22202 0.76737 0.846 0.0
C336 C 0.20178 0.76762 0.82307 0.0
C337 C 0.20981 0.74204 0.80772 0.0
C338 C 0.23187 0.72902 0.82041 0.0
C339 C 0.1729 0.76537 0.83557 0.0
C340 C 0.2066 0.79361 0.80591 0.0
H341 H 0.23065 0.65283 0.74019 0.0
H342 H 0.30219 0.64268 0.81067 0.0
H343 H 0.3004 0.70744 0.79605 0.0
H344 H 0.29244 0.72438 0.82658 0.0
H345 H 0.31058 0.69258 0.82782 0.0
H346 H 0.24794 0.65572 0.84351 0.0
H347 H 0.28027 0.66708 0.85605 0.0
H348 H 0.24978 0.68713 0.86041 0.0
H349 H 0.14731 0.70555 0.71304 0.0
H350 H 0.12312 0.78172 0.75017 0.0
H351 H 0.15921 0.77756 0.78278 0.0
H352 H 0.16171 0.67245 0.76851 0.0
H353 H 0.16853 0.66255 0.73399 0.0
H354 H 0.19179 0.65437 0.76101 0.0
H355 H 0.20954 0.71982 0.71267 0.0
H356 H 0.2312 0.69421 0.72481 0.0
H357 H 0.20115 0.68502 0.70576 0.0
H358 H 0.2633 0.61662 0.73611 0.0
C359 C 0.24585 0.65132 0.75575 0.0
C360 C 0.8912 0.49754 0.49074 0.0
C361 C 0.88576 0.47394 0.47553 0.0
C362 C 0.90343 0.46679 0.45407 0.0
C363 C 0.93113 0.50661 0.46298 0.0
C364 C 0.91401 0.51338 0.48426 0.0
C365 C 0.92333 0.53851 0.49904 0.0
H366 H 0.01353 0.64189 0.51138 0.0
C367 C 0.95279 0.52743 0.46146 0.0
C368 C 0.9484 0.54611 0.48263 0.0
H369 H 0.94544 0.62261 0.56369 0.0
H370 H 0.93412 0.58427 0.53533 0.0
H371 H 0.98261 0.63137 0.45518 0.0
H372 H 0.034 0.57964 0.50369 0.0
H373 H 0.04384 0.57619 0.46944 0.0
H374 H 0.04645 0.60888 0.4857 0.0
H375 H 0.01891 0.63509 0.45546 0.0
H376 H 1.00213 0.61188 0.43247 0.0
C377 C 0.90069 0.56029 0.49664 0.0
C378 C 0.93055 0.53044 0.52868 0.0
C379 C 0.02438 0.52215 0.38681 0.0
C380 C 0.04605 0.53927 0.37914 0.0
C381 C 0.05057 0.56325 0.39432 0.0
C382 C 0.03419 0.56981 0.41676 0.0
C383 C 0.01279 0.55239 0.42418 0.0
C384 C 0.00799 0.52919 0.40908 0.0
C385 C 0.98368 0.51363 0.41928 0.0
C386 C 0.97488 0.53117 0.44316 0.0
C387 C 0.99216 0.55373 0.44608 0.0
C388 C 0.96205 0.51322 0.39636 0.0
C389 C 0.9934 0.48513 0.42858 0.0
C390 C 0.99607 0.62951 0.51658 0.0
C391 C 0.98043 0.63525 0.53989 0.0
C392 C 0.95804 0.61843 0.54608 0.0
C393 C 0.95143 0.5962 0.52951 0.0
C394 C 0.96741 0.59053 0.50649 0.0
C395 C 0.98932 0.60704 0.50034 0.0
C396 C 1.00429 0.59755 0.47534 0.0
C397 C 0.98795 0.57245 0.46773 0.0
C398 C 0.96628 0.56856 0.48596 0.0
C399 C 1.00216 0.62009 0.4534 0.0
C400 C 0.03378 0.59029 0.48372 0.0
H401 H 0.93858 0.4765 0.43106 0.0
H402 H 0.87826 0.50328 0.50765 0.0
H403 H 0.93743 0.50891 0.52991 0.0
H404 H 0.94777 0.54229 0.53697 0.0
H405 H 0.91271 0.53269 0.54238 0.0
H406 H 0.89193 0.56038 0.47577 0.0
H407 H 0.88386 0.55614 0.51115 0.0
H408 H 0.90816 0.58117 0.50002 0.0
H409 H 0.02029 0.50346 0.37591 0.0
H410 H 0.0666 0.57724 0.38868 0.0
H411 H 0.03876 0.5883 0.4274 0.0
H412 H 0.96206 0.53273 0.3849 0.0
H413 H 0.96617 0.49662 0.38159 0.0
H414 H 0.94106 0.51115 0.40408 0.0
H415 H 0.01397 0.48628 0.43794 0.0
H416 H 0.98032 0.4762 0.44451 0.0
H417 H 0.99463 0.47084 0.41112 0.0
H418 H 0.89957 0.44877 0.442 0.0
C419 C 0.92599 0.48301 0.44768 0.0
C420 C 0.79718 0.73012 0.86844 0.0
C421 C 0.77447 0.73053 0.88601 0.0
C422 C 0.75379 0.74992 0.88127 0.0
C423 C 0.7789 0.7684 0.84308 0.0
C424 C 0.79883 0.749 0.84711 0.0
C425 C 0.82116 0.7509 0.82618 0.0
H426 H 0.87194 0.81084 0.71269 0.0
C427 C 0.7869 0.78525 0.8195 0.0
C428 C 0.81156 0.77496 0.80932 0.0
H429 H 0.90546 0.74308 0.75746 0.0
H430 H 0.86893 0.74625 0.79028 0.0
H431 H 0.86023 0.84631 0.76398 0.0
H432 H 0.80747 0.79391 0.71797 0.0
H433 H 0.79052 0.82499 0.72388 0.0
H434 H 0.82188 0.82486 0.70498 0.0
H435 H 0.84437 0.85759 0.73315 0.0
H436 H 0.82777 0.86104 0.76578 0.0
C437 C 0.84822 0.75707 0.84107 0.0
C438 C 0.82128 0.72411 0.80957 0.0
C439 C 0.72892 0.86659 0.79252 0.0
C440 C 0.73205 0.88694 0.77269 0.0
C441 C 0.75457 0.88579 0.75496 0.0
C442 C 0.77367 0.86469 0.75691 0.0
C443 C 0.7704 0.84459 0.77697 0.0
C444 C 0.74839 0.84584 0.79445 0.0
C445 C 0.74874 0.82328 0.81511 0.0
C446 C 0.77469 0.8084 0.80725 0.0
C447 C 0.78713 0.82081 0.78474 0.0
C448 C 0.75081 0.83631 0.84374 0.0
C449 C 0.72311 0.80545 0.81071 0.0
C450 C 0.87119 0.79656 0.72945 0.0
C451 C 0.89137 0.77651 0.7324 0.0
C452 C 0.89014 0.75871 0.75483 0.0
C453 C 0.86883 0.7605 0.77376 0.0
C454 C 0.84858 0.78042 0.77037 0.0
C455 C 0.85021 0.79828 0.7487 0.0
C456 C 0.82766 0.81898 0.74907 0.0
C457 C 0.81163 0.80994 0.77389 0.0
C458 C 0.8239 0.78727 0.78623 0.0
C459 C 0.84048 0.84754 0.753 0.0
C460 C 0.81096 0.81579 0.72257 0.0
H461 H 0.73954 0.78303 0.85774 0.0
H462 H 0.81356 0.7157 0.87136 0.0
H463 H 0.80019 0.71651 0.80643 0.0
H464 H 0.82962 0.72659 0.78887 0.0
H465 H 0.83287 0.70795 0.82028 0.0
H466 H 0.84475 0.77104 0.85855 0.0
H467 H 0.85758 0.73816 0.84914 0.0
H468 H 0.86317 0.76765 0.82806 0.0
H469 H 0.71197 0.86712 0.80663 0.0
H470 H 0.75725 0.90112 0.73936 0.0
H471 H 0.79027 0.86488 0.74273 0.0
H472 H 0.7649 0.85401 0.84346 0.0
H473 H 0.73064 0.84371 0.85079 0.0
H474 H 0.75924 0.82243 0.8592 0.0
H475 H 0.71698 0.8052 0.78892 0.0
H476 H 0.72657 0.78384 0.81585 0.0
H477 H 0.70557 0.81324 0.82266 0.0
H478 H 0.73567 0.75039 0.89381 0.0
C479 C 0.75593 0.76882 0.86008 0.0
C480 C 0.29718 0.23012 0.36844 0.0
C481 C 0.27447 0.23052 0.38601 0.0
C482 C 0.25379 0.24991 0.38127 0.0
C483 C 0.2789 0.26839 0.34308 0.0
C484 C 0.29884 0.249 0.34711 0.0
C485 C 0.32116 0.25089 0.32618 0.0
H486 H 0.37193 0.31083 0.21268 0.0
C487 C 0.2869 0.28524 0.31949 0.0
C488 C 0.31156 0.27495 0.30931 0.0
H489 H 0.40546 0.24308 0.25746 0.0
H490 H 0.36893 0.24624 0.29027 0.0
H491 H 0.36022 0.3463 0.26396 0.0
H492 H 0.30746 0.29389 0.21796 0.0
H493 H 0.29051 0.32497 0.22387 0.0
H494 H 0.32187 0.32484 0.20497 0.0
H495 H 0.34436 0.35758 0.23313 0.0
H496 H 0.32776 0.36103 0.26577 0.0
C497 C 0.34822 0.25707 0.34107 0.0
C498 C 0.32128 0.22411 0.30957 0.0
C499 C 0.22891 0.36658 0.29252 0.0
C500 C 0.23203 0.38693 0.27268 0.0
C501 C 0.25456 0.38577 0.25495 0.0
C502 C 0.27366 0.36468 0.2569 0.0
C503 C 0.27039 0.34458 0.27696 0.0
C504 C 0.24838 0.34583 0.29444 0.0
C505 C 0.24874 0.32327 0.3151 0.0
C506 C 0.27468 0.30839 0.30725 0.0
C507 C 0.28712 0.3208 0.28474 0.0
C508 C 0.25081 0.33631 0.34373 0.0
C509 C 0.22311 0.30544 0.31071 0.0
C510 C 0.37119 0.29655 0.22944 0.0
C511 C 0.39137 0.2765 0.23239 0.0
C512 C 0.39013 0.25871 0.25483 0.0
C513 C 0.36883 0.26049 0.27375 0.0
C514 C 0.34858 0.28042 0.27036 0.0
C515 C 0.3502 0.29827 0.24869 0.0
C516 C 0.32765 0.31897 0.24906 0.0
C517 C 0.31162 0.30993 0.27388 0.0
C518 C 0.32389 0.28727 0.28622 0.0
C519 C 0.34046 0.34753 0.25299 0.0
C520 C 0.31095 0.31577 0.22256 0.0
H521 H 0.23954 0.28303 0.35774 0.0
H522 H 0.31357 0.2157 0.37136 0.0
H523 H 0.3002 0.2165 0.30644 0.0
H524 H 0.32962 0.22658 0.28887 0.0
H525 H 0.33288 0.20794 0.32028 0.0
H526 H 0.34475 0.27104 0.35855 0.0
H527 H 0.35758 0.23816 0.34914 0.0
H528 H 0.36316 0.26765 0.32805 0.0
H529 H 0.21196 0.36711 0.30662 0.0
H530 H 0.25724 0.40111 0.23935 0.0
H531 H 0.29026 0.36486 0.24272 0.0
H532 H 0.2649 0.35401 0.34345 0.0
H533 H 0.23063 0.3437 0.35079 0.0
H534 H 0.25924 0.32242 0.35919 0.0
H535 H 0.21698 0.30519 0.28892 0.0
H536 H 0.22657 0.28383 0.31585 0.0
H537 H 0.20556 0.31323 0.32265 0.0
H538 H 0.23568 0.25038 0.39381 0.0
C539 C 0.25593 0.26881 0.36008 0.0
C540 C 0.49503 0.88707 0.49294 0.0
C541 C 0.47824 0.87962 0.47095 0.0
C542 C 0.45426 0.89476 0.46625 0.0
C543 C 0.46448 0.92424 0.50445 0.0
C544 C 0.48768 0.90916 0.50943 0.0
C545 C 0.50291 0.9192 0.53399 0.0
H546 H 0.51211 1.00723 0.6397 0.0
C547 C 0.46281 0.94595 0.52523 0.0
C548 C 0.48517 0.94295 0.54275 0.0
H549 H 0.56702 0.94182 0.61866 0.0
H550 H 0.53947 0.93073 0.57958 0.0
H551 H 0.45511 0.97509 0.62561 0.0
H552 H 0.50684 0.02956 0.58083 0.0
H553 H 0.47356 0.0365 0.57004 0.0
H554 H 0.48264 0.04186 0.60524 0.0
H555 H 0.4591 0.01046 0.63379 0.0
H556 H 0.43433 0.99926 0.60925 0.0
C557 C 0.50313 0.89613 0.55546 0.0
C558 C 0.53151 0.92865 0.52468 0.0
C559 C 0.38698 0.01643 0.52084 0.0
C560 C 0.38109 0.03965 0.53653 0.0
C561 C 0.39762 0.04566 0.55917 0.0
C562 C 0.41973 0.02901 0.56598 0.0
C563 C 0.42559 1.00611 0.54991 0.0
C564 C 0.40935 1.00012 0.52777 0.0
C565 C 0.41906 0.97524 0.51275 0.0
C566 C 0.44397 0.96753 0.52934 0.0
C567 C 0.44757 0.9856 0.55117 0.0
C568 C 0.39652 0.95328 0.51445 0.0
C569 C 0.42668 0.98384 0.48341 0.0
C570 C 0.51796 0.99033 0.62681 0.0
C571 C 0.54163 0.97524 0.63232 0.0
C572 C 0.54893 0.95379 0.61474 0.0
C573 C 0.53284 0.94732 0.59212 0.0
C574 C 0.50922 0.96257 0.58684 0.0
C575 C 0.50225 0.9838 0.60394 0.0
C576 C 0.47716 0.99854 0.59446 0.0
C577 C 0.46983 0.9822 0.56927 0.0
C578 C 0.4886 0.9611 0.56499 0.0
C579 C 0.45518 0.99597 0.6169 0.0
C580 C 0.4852 0.02822 0.5874 0.0
H581 H 0.4289 0.9276 0.47804 0.0
H582 H 0.51369 0.87617 0.49718 0.0
H583 H 0.53059 0.93813 0.50415 0.0
H584 H 0.54022 0.94454 0.53795 0.0
H585 H 0.5459 0.91126 0.52354 0.0
H586 H 0.48364 0.88463 0.55514 0.0
H587 H 0.51983 0.88143 0.55142 0.0
H588 H 0.50494 0.90369 0.57652 0.0
H589 H 0.3748 0.01138 0.50319 0.0
H590 H 0.39329 0.0632 0.5718 0.0
H591 H 0.43145 0.0347 0.58346 0.0
H592 H 0.38507 0.95483 0.53394 0.0
H593 H 0.38163 0.95553 0.49761 0.0
H594 H 0.40473 0.93235 0.51431 0.0
H595 H 0.43725 1.00384 0.48346 0.0
H596 H 0.44098 0.96969 0.47345 0.0
H597 H 0.40824 0.98584 0.47052 0.0
H598 H 0.44051 0.88923 0.44997 0.0
C599 C 0.44737 0.91698 0.48276 0.0
C600 C 0.1486 0.29273 0.78699 0.0
C601 C 0.13027 0.27074 0.78559 0.0
C602 C 0.13401 0.25107 0.76498 0.0
C603 C 0.17293 0.27573 0.74742 0.0
C604 C 0.16973 0.29472 0.76789 0.0
C605 C 0.19125 0.3165 0.76682 0.0
H606 H 0.30099 0.37133 0.70385 0.0
C607 C 0.19647 0.28399 0.73056 0.0
C608 C 0.20738 0.30782 0.74188 0.0
H609 H 0.26251 0.39734 0.77874 0.0
H610 H 0.22966 0.36133 0.7747 0.0
H611 H 0.24675 0.35894 0.67123 0.0
H612 H 0.29891 0.30658 0.71825 0.0
H613 H 0.29075 0.28975 0.68775 0.0
H614 H 0.30909 0.3214 0.68646 0.0
H615 H 0.27894 0.3473 0.65849 0.0
H616 H 0.24824 0.32761 0.65418 0.0
C617 C 0.17696 0.34422 0.76246 0.0
C618 C 0.20842 0.31472 0.79322 0.0
C619 C 0.22211 0.22822 0.64724 0.0
C620 C 0.24163 0.23176 0.62664 0.0
C621 C 0.25888 0.25462 0.62758 0.0
C622 C 0.25696 0.27351 0.64889 0.0
C623 C 0.23742 0.26965 0.66945 0.0
C624 C 0.22021 0.24746 0.66821 0.0
C625 C 0.19987 0.24728 0.69109 0.0
C626 C 0.208 0.27275 0.70654 0.0
C627 C 0.23015 0.28566 0.69391 0.0
C628 C 0.17103 0.24977 0.67857 0.0
C629 C 0.20452 0.22121 0.70817 0.0
C630 C 0.28569 0.36916 0.71957 0.0
C631 C 0.28446 0.38746 0.74161 0.0
C632 C 0.2638 0.38396 0.76128 0.0
C633 C 0.24481 0.36282 0.75906 0.0
C634 C 0.24642 0.34471 0.73701 0.0
C635 C 0.26667 0.34799 0.71777 0.0
C636 C 0.26551 0.32649 0.69599 0.0
C637 C 0.24145 0.30959 0.70554 0.0
C638 C 0.23023 0.32049 0.72948 0.0
C639 C 0.25976 0.34063 0.66841 0.0
C640 C 0.29246 0.31018 0.69686 0.0
H641 H 0.1567 0.23784 0.7308 0.0
H642 H 0.14642 0.30834 0.80237 0.0
H643 H 0.20893 0.29358 0.80129 0.0
H644 H 0.23003 0.31998 0.78989 0.0
H645 H 0.19991 0.32798 0.80943 0.0
H646 H 0.16033 0.34229 0.74724 0.0
H647 H 0.16783 0.35177 0.78172 0.0
H648 H 0.19068 0.35999 0.7543 0.0
H649 H 0.20828 0.21108 0.64681 0.0
H650 H 0.27415 0.25768 0.61196 0.0
H651 H 0.27077 0.29038 0.64854 0.0
H652 H 0.1713 0.26305 0.66024 0.0
H653 H 0.16314 0.22957 0.67225 0.0
H654 H 0.1562 0.25945 0.69239 0.0
H655 H 0.22655 0.21606 0.70921 0.0
H656 H 0.19812 0.22351 0.72959 0.0
H657 H 0.19379 0.20352 0.69911 0.0
H658 H 0.12076 0.23353 0.76367 0.0
C659 C 0.15509 0.25348 0.74593 0.0
C660 C 0.74858 0.13676 0.74079 0.0
C661 C 0.72626 0.12997 0.72414 0.0
C662 C 0.72092 0.14621 0.70106 0.0
C663 C 0.75924 0.17531 0.71179 0.0
C664 C 0.76479 0.15924 0.73415 0.0
C665 C 0.78968 0.16869 0.74925 0.0
H666 H 0.89223 0.25956 0.76303 0.0
C667 C 0.77996 0.19707 0.71058 0.0
C668 C 0.79801 0.19317 0.73235 0.0
H669 H 0.87542 0.18859 0.81229 0.0
H670 H 0.83679 0.17793 0.78428 0.0
H671 H 0.82932 0.27866 0.75548 0.0
H672 H 0.88305 0.22991 0.70627 0.0
H673 H 0.8634 0.24954 0.68387 0.0
H674 H 0.88585 0.26626 0.70763 0.0
H675 H 0.85835 0.29238 0.73805 0.0
H676 H 0.82588 0.28913 0.72144 0.0
C677 C 0.78089 0.17694 0.77837 0.0
C678 C 0.81126 0.14569 0.7481 0.0
C679 C 0.77414 0.26956 0.63703 0.0
C680 C 0.79067 0.29194 0.63018 0.0
C681 C 0.81406 0.29707 0.64606 0.0
C682 C 0.82068 0.2805 0.66831 0.0
C683 C 0.80392 0.25832 0.67484 0.0
C684 C 0.78122 0.25303 0.65915 0.0
C685 C 0.76631 0.228 0.66848 0.0
C686 C 0.7836 0.21936 0.69256 0.0
C687 C 0.80551 0.2373 0.69631 0.0
C688 C 0.73731 0.23662 0.67736 0.0
C689 C 0.76707 0.20675 0.64515 0.0
C690 C 0.8804 0.24158 0.76768 0.0
C691 C 0.88692 0.22508 0.79018 0.0
C692 C 0.87067 0.20202 0.7955 0.0
C693 C 0.84828 0.19571 0.77905 0.0
C694 C 0.84195 0.2125 0.75684 0.0
C695 C 0.858 0.2349 0.75135 0.0
C696 C 0.8484 0.25016 0.7266 0.0
C697 C 0.82388 0.23331 0.71827 0.0
C698 C 0.82016 0.21134 0.73614 0.0
C699 C 0.84016 0.27921 0.73561 0.0
C700 C 0.8713 0.24921 0.7049 0.0
H701 H 0.73192 0.18028 0.6771 0.0
H702 H 0.7533 0.12503 0.75881 0.0
H703 H 0.80956 0.13382 0.72889 0.0
H704 H 0.83235 0.15347 0.74805 0.0
H705 H 0.80872 0.13125 0.76528 0.0
H706 H 0.76093 0.18764 0.778 0.0
H707 H 0.77869 0.15879 0.79163 0.0
H708 H 0.79505 0.19137 0.7881 0.0
H709 H 0.75591 0.26497 0.62558 0.0
H710 H 0.82761 0.31368 0.64107 0.0
H711 H 0.83873 0.28555 0.67948 0.0
H712 H 0.73795 0.25604 0.68897 0.0
H713 H 0.72397 0.23978 0.65941 0.0
H714 H 0.72752 0.22185 0.69112 0.0
H715 H 0.78562 0.20918 0.63238 0.0
H716 H 0.76819 0.1856 0.6527 0.0
H717 H 0.74914 0.20887 0.63158 0.0
H718 H 0.70436 0.14129 0.68742 0.0
C719 C 0.73715 0.16881 0.6949 0.0
C720 C 0.54873 0.61858 0.48197 0.0
C721 C 0.52766 0.63788 0.48432 0.0
C722 C 0.50879 0.63517 0.50581 0.0
C723 C 0.5319 0.59462 0.52181 0.0
C724 C 0.55042 0.59723 0.50081 0.0
C725 C 0.57137 0.57489 0.50101 0.0
H726 H 0.62413 0.46278 0.56123 0.0
C727 C 0.53924 0.57014 0.5377 0.0
C728 C 0.56236 0.55846 0.52559 0.0
H729 H 0.65139 0.50302 0.48776 0.0
H730 H 0.61528 0.53568 0.49199 0.0
H731 H 0.60895 0.5174 0.59575 0.0
H732 H 0.56183 0.46383 0.54502 0.0
H733 H 0.54052 0.47396 0.57182 0.0
H734 H 0.57101 0.4548 0.57915 0.0
H735 H 0.60129 0.48286 0.60479 0.0
H736 H 0.57813 0.51017 0.61254 0.0
C737 C 0.59965 0.58806 0.50539 0.0
C738 C 0.56864 0.5585 0.4742 0.0
C739 C 0.48249 0.54327 0.62003 0.0
C740 C 0.48382 0.52137 0.63846 0.0
C741 C 0.50484 0.50202 0.63527 0.0
C742 C 0.52412 0.50447 0.61435 0.0
C743 C 0.52244 0.52644 0.59616 0.0
C744 C 0.50179 0.5453 0.59911 0.0
C745 C 0.50283 0.56697 0.57753 0.0
C746 C 0.52747 0.558 0.56116 0.0
C747 C 0.53899 0.53432 0.57226 0.0
C748 C 0.5076 0.5947 0.59173 0.0
C749 C 0.47623 0.56535 0.56068 0.0
C750 C 0.62229 0.47845 0.54589 0.0
C751 C 0.64112 0.48031 0.52431 0.0
C752 C 0.63778 0.50133 0.50501 0.0
C753 C 0.61656 0.52024 0.50734 0.0
C754 C 0.59813 0.5182 0.52908 0.0
C755 C 0.60099 0.4974 0.54775 0.0
C756 C 0.57886 0.49787 0.56896 0.0
C757 C 0.56255 0.52262 0.56017 0.0
C758 C 0.57406 0.53454 0.53688 0.0
C759 C 0.59232 0.50212 0.59711 0.0
C760 C 0.56218 0.47123 0.56641 0.0
H761 H 0.49575 0.61286 0.5403 0.0
H762 H 0.56378 0.62011 0.46595 0.0
H763 H 0.54717 0.55812 0.46706 0.0
H764 H 0.5742 0.53685 0.47659 0.0
H765 H 0.58117 0.56758 0.45773 0.0
H766 H 0.59835 0.60495 0.52041 0.0
H767 H 0.6077 0.59662 0.48608 0.0
H768 H 0.6148 0.57385 0.51388 0.0
H769 H 0.46691 0.55874 0.62192 0.0
H770 H 0.50622 0.48465 0.64873 0.0
H771 H 0.53954 0.48907 0.6131 0.0
H772 H 0.5217 0.59242 0.60928 0.0
H773 H 0.48821 0.60329 0.59958 0.0
H774 H 0.51743 0.60983 0.57837 0.0
H775 H 0.46912 0.54395 0.55882 0.0
H776 H 0.47884 0.57232 0.53949 0.0
H777 H 0.45965 0.57725 0.57042 0.0
H778 H 0.49209 0.6494 0.50795 0.0
C779 C 0.51081 0.61375 0.52452 0.0
C780 C 0.54702 0.39693 0.03514 0.0
C781 C 0.52567 0.3779 0.03347 0.0
C782 C 0.50628 0.3808 0.01248 0.0
C783 C 0.52964 0.42077 0.99547 0.0
C784 C 0.54852 0.41812 0.01611 0.0
C785 C 0.56961 0.44029 0.01536 0.0
H786 H 0.62127 0.55232 0.9541 0.0
C787 C 0.53696 0.44498 0.97917 0.0
C788 C 0.56031 0.4566 0.99082 0.0
H789 H 0.65008 0.51196 0.02683 0.0
H790 H 0.61401 0.47914 0.02325 0.0
H791 H 0.55911 0.55083 0.97069 0.0
H792 H 0.60676 0.49754 0.92005 0.0
H793 H 0.57567 0.5037 0.90345 0.0
H794 H 0.59817 0.53172 0.91051 0.0
H795 H 0.5684 0.55986 0.93658 0.0
H796 H 0.53795 0.54065 0.94384 0.0
C797 C 0.5674 0.4569 0.04209 0.0
C798 C 0.59774 0.42689 0.01057 0.0
C799 C 0.48044 0.47056 0.89629 0.0
C800 C 0.48196 0.49211 0.87745 0.0
C801 C 0.50282 0.5116 0.88053 0.0
C802 C 0.52186 0.50955 0.90164 0.0
C803 C 0.52011 0.48787 0.92015 0.0
C804 C 0.49954 0.46894 0.91741 0.0
C805 C 0.50045 0.44766 0.93941 0.0
C806 C 0.52507 0.45686 0.95565 0.0
C807 C 0.53659 0.48034 0.94417 0.0
C808 C 0.4738 0.44966 0.9562 0.0
C809 C 0.50522 0.41967 0.92574 0.0
C810 C 0.61974 0.53659 0.96942 0.0
C811 C 0.63887 0.53478 0.99066 0.0
C812 C 0.63608 0.51365 0.00992 0.0
C813 C 0.61492 0.49466 0.00795 0.0
C814 C 0.59609 0.49671 0.98657 0.0
C815 C 0.59859 0.51751 0.96784 0.0
C816 C 0.57637 0.51683 0.94681 0.0
C817 C 0.56024 0.4921 0.95592 0.0
C818 C 0.57197 0.48033 0.97915 0.0
C819 C 0.55957 0.54342 0.9493 0.0
C820 C 0.58974 0.5124 0.91861 0.0
H821 H 0.49278 0.40302 0.97811 0.0
H822 H 0.56246 0.39531 0.05075 0.0
H823 H 0.59609 0.40982 0.9958 0.0
H824 H 0.61278 0.4409 1.00157 0.0
H825 H 0.60611 0.41852 0.02981 0.0
H826 H 0.54602 0.4576 0.04953 0.0
H827 H 0.58002 0.44776 0.05844 0.0
H828 H 0.57317 0.47845 0.03948 0.0
H829 H 0.46492 0.45505 0.89455 0.0
H830 H 0.50428 0.52874 0.8668 0.0
H831 H 0.53718 0.52504 0.90277 0.0
H832 H 0.46622 0.47097 0.957 0.0
H833 H 0.45747 0.43695 0.94715 0.0
H834 H 0.47659 0.44386 0.97773 0.0
H835 H 0.52007 0.42147 0.90874 0.0
H836 H 0.51409 0.40447 0.93965 0.0
H837 H 0.48598 0.41144 0.91722 0.0
H838 H 0.4893 0.36688 0.01089 0.0
C839 C 0.50819 0.40201 0.99352 0.0
C840 C 0.78684 0.1449 0.29504 0.0
C841 C 0.78543 0.12651 0.27308 0.0
C842 C 0.76472 0.13007 0.25351 0.0
C843 C 0.74763 0.16953 0.2777 0.0
C844 C 0.76793 0.16622 0.29684 0.0
C845 C 0.76694 0.18787 0.31851 0.0
H846 H 0.71017 0.30389 0.36727 0.0
C847 C 0.73164 0.19392 0.28514 0.0
C848 C 0.74299 0.20491 0.30894 0.0
H849 H 0.77585 0.2571 0.40225 0.0
H850 H 0.77242 0.22429 0.36578 0.0
H851 H 0.67293 0.25154 0.35347 0.0
H852 H 0.72858 0.29903 0.30538 0.0
H853 H 0.70085 0.29105 0.28434 0.0
H854 H 0.69541 0.31128 0.31452 0.0
H855 H 0.66544 0.28555 0.34255 0.0
H856 H 0.65785 0.25653 0.3215 0.0
C857 C 0.76113 0.17393 0.34619 0.0
C858 C 0.794 0.20395 0.31749 0.0
C859 C 0.64982 0.22152 0.228 0.0
C860 C 0.63175 0.24379 0.2291 0.0
C861 C 0.63603 0.26393 0.24915 0.0
C862 C 0.65723 0.26161 0.26805 0.0
C863 C 0.67468 0.23902 0.26696 0.0
C864 C 0.67112 0.21968 0.24689 0.0
C865 C 0.69249 0.19776 0.24806 0.0
C866 C 0.70886 0.20667 0.27272 0.0
C867 C 0.69821 0.23075 0.2838 0.0
C868 C 0.67806 0.17022 0.25299 0.0
C869 C 0.70947 0.19899 0.22146 0.0
C870 C 0.72394 0.28667 0.36691 0.0
C871 C 0.74342 0.28313 0.38753 0.0
C872 C 0.7606 0.26018 0.38665 0.0
C873 C 0.75864 0.24122 0.36539 0.0
C874 C 0.73915 0.2451 0.34483 0.0
C875 C 0.72202 0.26739 0.346 0.0
C876 C 0.70178 0.26764 0.32308 0.0
C877 C 0.70981 0.24206 0.30772 0.0
C878 C 0.73187 0.22904 0.32042 0.0
C879 C 0.6729 0.26539 0.33557 0.0
C880 C 0.7066 0.29363 0.30591 0.0
H881 H 0.73065 0.15285 0.24019 0.0
H882 H 0.80219 0.1427 0.31067 0.0
H883 H 0.8004 0.20746 0.29605 0.0
H884 H 0.79244 0.2244 0.32658 0.0
H885 H 0.81058 0.1926 0.32782 0.0
H886 H 0.74794 0.15574 0.34351 0.0
H887 H 0.78027 0.1671 0.35605 0.0
H888 H 0.74978 0.18715 0.36041 0.0
H889 H 0.64731 0.20557 0.21304 0.0
H890 H 0.62311 0.28174 0.25017 0.0
H891 H 0.6592 0.27758 0.28278 0.0
H892 H 0.66171 0.17247 0.2685 0.0
H893 H 0.66853 0.16257 0.23398 0.0
H894 H 0.6918 0.15439 0.26101 0.0
H895 H 0.70954 0.21985 0.21267 0.0
H896 H 0.73121 0.19423 0.22481 0.0
H897 H 0.70115 0.18505 0.20576 0.0
H898 H 0.7633 0.11664 0.23611 0.0
C899 C 0.74585 0.15134 0.25575 0.0
C900 C 0.3912 0.99753 0.99074 0.0
C901 C 0.38575 0.97393 0.97552 0.0
C902 C 0.40342 0.96678 0.95407 0.0
C903 C 0.43113 1.00659 0.96298 0.0
C904 C 0.41401 0.01337 0.98427 0.0
C905 C 0.42333 0.03849 0.99905 0.0
H906 H 0.51353 0.14188 0.01139 0.0
C907 C 0.45279 0.02742 0.96146 0.0
C908 C 0.4484 0.0461 0.98264 0.0
H909 H 0.44545 0.1226 0.0637 0.0
H910 H 0.43412 0.08425 0.03534 0.0
H911 H 0.4826 0.13136 0.95519 0.0
H912 H 0.53399 0.07964 1.00369 0.0
H913 H 0.54384 0.07617 0.96944 0.0
H914 H 0.54645 0.10887 0.9857 0.0
H915 H 0.51891 0.13508 0.95546 0.0
H916 H 0.50212 0.11187 0.93247 0.0
C917 C 0.40069 0.06027 0.99665 0.0
C918 C 0.43055 0.03042 0.02868 0.0
C919 C 0.52437 0.02214 0.88681 0.0
C920 C 0.54605 0.03927 0.87915 0.0
C921 C 0.55057 0.06324 0.89433 0.0
C922 C 0.53418 0.06981 0.91676 0.0
C923 C 0.51279 0.05239 0.92418 0.0
C924 C 0.50799 0.02918 0.90908 0.0
C925 C 0.48367 0.01362 0.91928 0.0
C926 C 0.47488 0.03116 0.94316 0.0
C927 C 0.49215 0.05372 0.94609 0.0
C928 C 0.46204 0.01321 0.89636 0.0
C929 C 0.4934 0.98513 0.92857 0.0
C930 C 0.49607 0.1295 0.01659 0.0
C931 C 0.48043 0.13524 0.0399 0.0
C932 C 0.45804 0.11841 0.04609 0.0
C933 C 0.45143 0.09619 0.02952 0.0
C934 C 0.46741 0.09051 1.00649 0.0
C935 C 0.48932 0.10703 1.00035 0.0
C936 C 0.50428 0.09754 0.97534 0.0
C937 C 0.48795 0.07244 0.96773 0.0
C938 C 0.46628 0.06855 0.98596 0.0
C939 C 0.50216 0.12008 0.95341 0.0
C940 C 0.53378 0.09028 0.98372 0.0
H941 H 0.43857 0.97649 0.93106 0.0
H942 H 0.37825 1.00326 1.00765 0.0
H943 H 0.43743 0.00889 0.02991 0.0
H944 H 0.44776 0.04227 0.03697 0.0
H945 H 0.41271 0.03267 0.04238 0.0
H946 H 0.39193 0.06037 0.97578 0.0
H947 H 0.38386 0.05612 0.01116 0.0
H948 H 0.40816 0.08115 1.00003 0.0
H949 H 0.52029 1.00346 0.87591 0.0
H950 H 0.56659 0.07724 0.88868 0.0
H951 H 0.53876 0.08829 0.9274 0.0
H952 H 0.46206 0.03273 0.8849 0.0
H953 H 0.46616 0.99661 0.88159 0.0
H954 H 0.44105 0.01115 0.90408 0.0
H955 H 0.51397 0.98627 0.93794 0.0
H956 H 0.48031 0.97619 0.9445 0.0
H957 H 0.49463 0.97083 0.91111 0.0
H958 H 0.39957 0.94876 0.942 0.0
C959 C 0.42599 0.983 0.94767 0.0
Li960 Li 0.28639 0.9015 0.99974 0.0
Li961 Li 0.26575 0.86451 0.03073 0.0
Li962 Li 0.25717 0.86549 0.98177 0.0
Li963 Li 0.23709 0.89967 0.01003 0.0
C964 C 0.30561 0.842 0.98518 0.0
N965 N 0.32932 0.80234 0.95311 0.0
C966 C 0.30854 0.81551 0.99505 0.0
C967 C 0.31509 0.8484 0.95914 0.0
C968 C 0.32052 0.79573 0.97849 0.0
C969 C 0.3269 0.82805 0.94319 0.0
C970 C 0.25582 0.92117 0.05496 0.0
C971 C 0.22348 0.92751 0.09133 0.0
N972 N 0.22909 0.95459 0.09141 0.0
C973 C 0.26136 0.94903 0.05546 0.0
C974 C 0.23681 0.91026 0.07308 0.0
C975 C 0.2476 0.9656 0.07403 0.0
C976 C 0.31376 0.95152 0.99152 0.0
N977 N 0.31709 0.92413 0.99329 0.0
C978 C 0.36464 0.92831 0.98398 0.0
C979 C 0.34189 0.91236 0.98982 0.0
C980 C 0.36188 0.95667 0.98204 0.0
C981 C 0.33607 0.96831 0.98609 0.0
H982 H 0.29372 0.96027 0.99403 0.0
H983 H 0.34397 0.89053 0.99144 0.0
C984 C 0.266 0.81558 0.06079 0.0
N985 N 0.27232 0.84246 0.06177 0.0
C986 C 0.27178 0.79869 0.0829 0.0
C987 C 0.28951 0.83769 0.10698 0.0
C988 C 0.28376 0.85373 0.08424 0.0
C989 C 0.2838 0.80964 0.10647 0.0
H990 H 0.25691 0.80719 0.04259 0.0
H991 H 0.28852 0.8752 0.08447 0.0
C992 C 0.25418 0.91716 0.95024 0.0
N993 N 0.25167 0.9418 0.89979 0.0
C994 C 0.22938 0.92693 0.94033 0.0
C995 C 0.27777 0.92023 0.93461 0.0
C996 C 0.22852 0.93924 0.91474 0.0
C997 C 0.27606 0.93266 0.90913 0.0
C998 C 0.20557 0.85232 1.00254 0.0
C999 C 0.19534 0.8638 0.97866 0.0
C1000 C 0.19008 0.83321 0.01675 0.0
C1001 C 0.16962 0.85606 0.96942 0.0
C1002 C 0.16443 0.82601 1.00687 0.0
N1003 N 0.15481 0.83749 0.98361 0.0
C1004 C 0.25017 0.81423 0.95766 0.0
C1005 C 0.24966 0.84993 0.92532 0.0
C1006 C 0.24761 0.79485 0.93704 0.0
N1007 N 0.2516 0.84117 0.9515 0.0
C1008 C 0.24663 0.83126 0.9041 0.0
C1009 C 0.24588 0.80331 0.90983 0.0
H1010 H 0.25139 0.8078 0.97866 0.0
H1011 H 0.25065 0.87131 0.92073 0.0
C1012 C 0.21036 0.94986 0.00815 0.0
N1013 N 0.20663 0.92349 0.01548 0.0
C1014 C 0.18939 0.96878 0.01125 0.0
C1015 C 0.16093 0.93308 0.02937 0.0
C1016 C 0.18263 0.9149 0.02625 0.0
C1017 C 0.16405 0.96049 0.02171 0.0
H1018 H 0.22978 0.95622 0.99996 0.0
H1019 H 0.18024 0.89394 0.03237 0.0
O1020 O 0.29329 0.86148 1.00082 0.0
O1021 O 0.26836 0.90472 0.03635 0.0
O1022 O 0.25543 0.90524 0.97534 0.0
O1023 O 0.23071 0.85952 0.01201 0.0
H1024 H 0.30151 0.81023 0.0152 0.0
H1025 H 0.31302 0.86878 0.9512 0.0
H1026 H 0.32275 0.77511 0.98581 0.0
H1027 H 0.33408 0.83267 0.92291 0.0
H1028 H 0.20859 0.91938 0.10535 0.0
H1029 H 0.27597 0.95779 0.04152 0.0
H1030 H 0.23213 0.88875 0.07275 0.0
H1031 H 0.25158 0.98722 0.07458 0.0
H1032 H 0.38425 0.9186 0.98123 0.0
H1033 H 0.33309 0.99007 0.9845 0.0
H1034 H 0.26735 0.7772 0.08125 0.0
H1035 H 0.29824 0.84726 0.12478 0.0
H1036 H 0.21096 0.92507 0.95226 0.0
H1037 H 0.29718 0.9131 0.94202 0.0
H1038 H 0.20944 0.9468 0.90678 0.0
H1039 H 0.29413 0.93507 0.89679 0.0
H1040 H 0.20715 0.87842 0.96733 0.0
H1041 H 0.19779 0.8241 0.03525 0.0
H1042 H 0.16145 0.86479 0.95096 0.0
H1043 H 0.15217 0.81128 0.01768 0.0
H1044 H 0.24676 0.77348 0.94233 0.0
H1045 H 0.24545 0.83859 0.88336 0.0
H1046 H 0.19315 0.98973 1.00568 0.0
H1047 H 0.14181 0.92556 0.03728 0.0
Li1048 Li 0.11848 0.51189 0.27968 0.0
Li1049 Li 0.15089 0.48213 0.25924 0.0
Li1050 Li 0.15339 0.53086 0.24945 0.0
Li1051 Li 0.11484 0.50041 0.23072 0.0
C1052 C 0.16768 0.50329 0.30915 0.0
N1053 N 0.18634 0.48405 0.3585 0.0
C1054 C 0.15479 0.48131 0.32169 0.0
C1055 C 0.19012 0.51544 0.32161 0.0
C1056 C 0.1645 0.47189 0.34666 0.0
C1057 C 0.19923 0.50544 0.3466 0.0
C1058 C 0.0991 0.45185 0.26427 0.0
C1059 C 0.08325 0.41052 0.24315 0.0
N1060 N 0.07459 0.40142 0.2678 0.0
C1061 C 0.08978 0.44221 0.28935 0.0
C1062 C 0.09559 0.436 0.24092 0.0
C1063 C 0.07755 0.41661 0.29073 0.0
C1064 C 0.07 0.51289 0.31044 0.0
N1065 N 0.09678 0.51971 0.31107 0.0
C1066 C 0.09163 0.5389 0.35548 0.0
C1067 C 0.10775 0.5326 0.33292 0.0
C1068 C 0.06376 0.53231 0.35544 0.0
C1069 C 0.05303 0.51914 0.33239 0.0
H1070 H 0.06174 0.50296 0.29263 0.0
H1071 H 0.129 0.53823 0.33278 0.0
C1072 C 0.20162 0.45726 0.26582 0.0
N1073 N 0.17457 0.45145 0.265 0.0
C1074 C 0.22078 0.43645 0.26828 0.0
C1075 C 0.18397 0.40401 0.27049 0.0
C1076 C 0.16551 0.42543 0.26755 0.0
C1077 C 0.21201 0.4094 0.27052 0.0
H1078 H 0.2083 0.47815 0.26415 0.0
H1079 H 0.14406 0.42109 0.26708 0.0
C1080 C 0.09685 0.55638 0.2601 0.0
N1081 N 0.06357 0.59327 0.2864 0.0
C1082 C 0.06877 0.55597 0.25567 0.0
C1083 C 0.10804 0.57563 0.27775 0.0
C1084 C 0.05228 0.57478 0.2692 0.0
C1085 C 0.09086 0.59409 0.2909 0.0
C1086 C 0.17375 0.48402 0.21037 0.0
C1087 C 0.2004 0.49331 0.20697 0.0
C1088 C 0.16674 0.45798 0.20138 0.0
C1089 C 0.21974 0.47619 0.19506 0.0
C1090 C 0.18666 0.44145 0.18961 0.0
N1091 N 0.21254 0.45081 0.18674 0.0
C1092 C 0.20285 0.56025 0.24808 0.0
C1093 C 0.1646 0.58383 0.23067 0.0
C1094 C 0.21972 0.5824 0.24236 0.0
N1095 N 0.17591 0.56132 0.24199 0.0
C1096 C 0.1806 0.60659 0.22499 0.0
C1097 C 0.20868 0.60607 0.23062 0.0
H1098 H 0.21126 0.54204 0.25714 0.0
H1099 H 0.14307 0.58415 0.22613 0.0
C1100 C 0.06428 0.49173 0.20408 0.0
N1101 N 0.09163 0.49386 0.20053 0.0
C1102 C 0.04739 0.48601 0.18192 0.0
C1103 C 0.08722 0.48435 0.15306 0.0
C1104 C 0.10326 0.49048 0.17565 0.0
C1105 C 0.05892 0.48203 0.15606 0.0
H1106 H 0.05564 0.49413 0.22419 0.0
H1107 H 0.12506 0.49236 0.17339 0.0
O1108 O 0.15871 0.5127 0.28457 0.0
O1109 O 0.11091 0.47697 0.26254 0.0
O1110 O 0.11325 0.53755 0.24781 0.0
O1111 O 0.1547 0.50023 0.22264 0.0
H1112 H 0.13756 0.47157 0.31219 0.0
H1113 H 0.20038 0.53241 0.31206 0.0
H1114 H 0.15471 0.45488 0.3566 0.0
H1115 H 0.21656 0.51466 0.35651 0.0
H1116 H 0.08052 0.39799 0.22526 0.0
H1117 H 0.0919 0.45437 0.30757 0.0
H1118 H 0.10233 0.44321 0.22129 0.0
H1119 H 0.07036 0.40885 0.31003 0.0
H1120 H 0.10103 0.54868 0.37281 0.0
H1121 H 0.03163 0.51412 0.33104 0.0
H1122 H 0.24223 0.44148 0.2686 0.0
H1123 H 0.17642 0.38338 0.27211 0.0
H1124 H 0.0598 0.54115 0.24213 0.0
H1125 H 0.12972 0.57601 0.2816 0.0
H1126 H 0.03049 0.57463 0.26608 0.0
H1127 H 0.0992 0.60897 0.30478 0.0
H1128 H 0.20615 0.51346 0.21361 0.0
H1129 H 0.14622 0.45049 0.20378 0.0
H1130 H 0.24048 0.48306 0.19247 0.0
H1131 H 0.18156 0.42117 0.18281 0.0
H1132 H 0.24124 0.58075 0.24672 0.0
H1133 H 0.17095 0.62446 0.2165 0.0
H1134 H 0.02566 0.48414 0.18506 0.0
H1135 H 0.09683 0.48168 0.13339 0.0
Li1136 Li 0.73397 0.61598 1.00338 0.0
Li1137 Li 0.75515 0.65024 0.0317 0.0
Li1138 Li 0.76267 0.65145 0.98303 0.0
Li1139 Li 0.78407 0.61513 0.01228 0.0
C1140 C 0.70289 0.66306 0.01267 0.0
N1141 N 0.65244 0.67712 0.03312 0.0
C1142 C 0.69331 0.65106 0.03659 0.0
C1143 C 0.68688 0.68227 0.99919 0.0
C1144 C 0.66775 0.65843 0.0466 0.0
C1145 C 0.6614 0.68909 0.00984 0.0
C1146 C 0.75354 0.59831 0.06252 0.0
C1147 C 0.77707 0.58334 0.10286 0.0
N1148 N 0.75333 0.57318 0.11278 0.0
C1149 C 0.72941 0.58752 0.07302 0.0
C1150 C 0.77762 0.59605 0.07746 0.0
C1151 C 0.7297 0.57497 0.0985 0.0
C1152 C 0.7083 0.56555 1.00458 0.0
N1153 N 0.70382 0.59208 0.99833 0.0
C1154 C 0.65773 0.58231 0.9862 0.0
C1155 C 0.67927 0.60068 0.98893 0.0
C1156 C 0.6616 0.55475 0.9929 0.0
C1157 C 0.68744 0.54647 1.00197 0.0
H1158 H 0.72816 0.55925 0.01167 0.0
H1159 H 0.67629 0.6218 0.98364 0.0
C1160 C 0.74794 0.70111 0.05632 0.0
N1161 N 0.74976 0.67416 0.0623 0.0
C1162 C 0.74541 0.72034 0.07707 0.0
C1163 C 0.7451 0.68372 0.10981 0.0
C1164 C 0.74813 0.66521 0.08844 0.0
C1165 C 0.74404 0.7117 0.10423 0.0
H1166 H 0.74883 0.70767 0.03534 0.0
H1167 H 0.74932 0.6438 0.09288 0.0
C1168 C 0.7537 0.60375 0.95196 0.0
N1169 N 0.73199 0.58878 0.90237 0.0
C1170 C 0.76479 0.58191 0.93754 0.0
C1171 C 0.73149 0.61793 0.94124 0.0
C1172 C 0.75355 0.57467 0.91247 0.0
C1173 C 0.72083 0.61006 0.91612 0.0
C1174 C 0.80285 0.67493 0.0269 0.0
C1175 C 0.80503 0.70126 0.01644 0.0
C1176 C 0.81273 0.66929 0.05295 0.0
C1177 C 0.81667 0.72166 0.03244 0.0
C1178 C 0.82418 0.69025 0.06833 0.0
N1179 N 0.82588 0.71579 0.05785 0.0
C1180 C 0.7573 0.70045 0.95507 0.0
C1181 C 0.77988 0.66655 0.92928 0.0
C1182 C 0.75975 0.71901 0.93375 0.0
N1183 N 0.76733 0.67484 0.9525 0.0
C1184 C 0.78239 0.68434 0.90721 0.0
C1185 C 0.77223 0.71105 0.90922 0.0
H1186 H 0.74759 0.70652 0.97388 0.0
H1187 H 0.78775 0.64606 0.92778 0.0
C1188 C 0.81081 0.56452 0.01675 0.0
N1189 N 0.81445 0.5919 0.01781 0.0
C1190 C 0.83248 0.54695 0.02234 0.0
C1191 C 0.86116 0.58616 0.02989 0.0
C1192 C 0.83903 0.60294 0.02392 0.0
C1193 C 0.85799 0.55777 0.02934 0.0
H1194 H 0.79093 0.55637 0.01198 0.0
H1195 H 0.84138 0.62478 0.02449 0.0
O1196 O 0.72786 0.65623 1.00243 0.0
O1197 O 0.75361 0.61049 0.03751 0.0
O1198 O 0.76432 0.61088 0.97665 0.0
O1199 O 0.79091 0.65484 0.01179 0.0
H1200 H 0.70549 0.63629 0.04733 0.0
H1201 H 0.69405 0.69175 0.98065 0.0
H1202 H 0.66008 0.64929 0.06509 0.0
H1203 H 0.64875 0.70389 0.99959 0.0
H1204 H 0.79554 0.58154 0.11468 0.0
H1205 H 0.71063 0.5888 0.06161 0.0
H1206 H 0.79652 0.60403 0.0696 0.0
H1207 H 0.71116 0.56662 0.10691 0.0
H1208 H 0.63818 0.58975 0.97933 0.0
H1209 H 0.69165 0.52541 1.00681 0.0
H1210 H 0.74429 0.74173 0.07193 0.0
H1211 H 0.74415 0.67628 0.13052 0.0
H1212 H 0.7819 0.57067 0.94566 0.0
H1213 H 0.72256 0.63481 0.95219 0.0
H1214 H 0.76194 0.55782 0.90105 0.0
H1215 H 0.70367 0.62085 0.90757 0.0
H1216 H 0.7977 0.70595 0.99626 0.0
H1217 H 0.81121 0.64906 0.06137 0.0
H1218 H 0.81834 0.74216 0.02466 0.0
H1219 H 0.83165 0.68623 0.08863 0.0
H1220 H 0.75214 0.73947 0.93665 0.0
H1221 H 0.79184 0.67705 0.88869 0.0
H1222 H 0.82914 0.52519 0.02189 0.0
H1223 H 0.88058 0.59531 0.03482 0.0
Li1224 Li 0.8666 0.0311 0.26025 0.0
Li1225 Li 0.90095 1.00342 0.28186 0.0
Li1226 Li 0.9013 0.00938 0.23292 0.0
Li1227 Li 0.86634 0.98216 0.25421 0.0
C1228 C 0.913 0.06182 0.24916 0.0
N1229 N 0.92639 0.11049 0.2245 0.0
C1230 C 0.93449 0.07746 0.25918 0.0
C1231 C 0.89832 0.07091 0.22657 0.0
C1232 C 0.94094 0.10202 0.24644 0.0
C1233 C 0.90541 0.09557 0.21439 0.0
C1234 C 0.85463 0.01495 0.31269 0.0
C1235 C 0.8267 0.01789 0.35293 0.0
N1236 N 0.84145 0.03969 0.36142 0.0
C1237 C 0.86952 0.0374 0.3218 0.0
C1238 C 0.83304 1.00512 0.32834 0.0
C1239 C 0.86253 0.04962 0.34649 0.0
C1240 C 0.81643 0.05751 0.25726 0.0
N1241 N 0.8428 0.0616 0.26442 0.0
C1242 C 0.83286 0.10735 0.27776 0.0
C1243 C 0.85125 0.08583 0.27474 0.0
C1244 C 0.80543 0.10382 0.27038 0.0
C1245 C 0.79733 0.07836 0.26013 0.0
H1246 H 0.81022 0.03789 0.24948 0.0
H1247 H 0.87225 0.0885 0.28068 0.0
C1248 C 0.95106 1.00652 0.30814 0.0
N1249 N 0.92471 0.99935 0.31234 0.0
C1250 C 0.97011 1.00411 0.32906 0.0
C1251 C 0.93455 0.98693 0.35834 0.0
C1252 C 0.91622 0.98944 0.33673 0.0
C1253 C 0.96197 0.99437 0.35471 0.0
H1254 H 0.95729 0.014 0.2884 0.0
H1255 H 0.89523 0.98351 0.3395 0.0
C1256 C 0.85522 0.99845 0.20164 0.0
N1257 N 0.8424 0.97387 0.15276 0.0
C1258 C 0.87001 0.97586 0.19266 0.0
C1259 C 0.8339 0.00851 0.18578 0.0
C1260 C 0.86322 0.96373 0.16789 0.0
C1261 C 0.82774 0.99582 0.16111 0.0
C1262 C 0.91225 0.95082 0.26574 0.0
C1263 C 0.93358 0.93483 0.25584 0.0
C1264 C 0.89725 0.94198 0.28824 0.0
C1265 C 0.93955 0.91016 0.26862 0.0
C1266 C 0.90386 0.9172 0.30046 0.0
N1267 N 0.9247 0.90194 0.29048 0.0
C1268 C 0.95182 1.00592 0.20714 0.0
C1269 C 0.91744 0.02346 0.17831 0.0
C1270 C 0.97119 0.0085 0.18649 0.0
N1271 N 0.92555 0.01327 0.20271 0.0
C1272 C 0.9361 0.02617 0.15698 0.0
C1273 C 0.96347 0.01865 0.16088 0.0
H1274 H 0.95775 0.99822 0.22688 0.0
H1275 H 0.89651 0.02953 0.17535 0.0
C1276 C 0.81593 0.95622 0.25734 0.0
N1277 N 0.84224 0.95194 0.24999 0.0
C1278 C 0.79669 0.93551 0.25458 0.0
C1279 C 0.83197 0.90628 0.2367 0.0
C1280 C 0.8505 0.92765 0.23961 0.0
C1281 C 0.80459 0.91001 0.24427 0.0
H1282 H 0.80988 0.97588 0.26519 0.0
H1283 H 0.87147 0.92482 0.23358 0.0
O1284 O 0.90665 0.03768 0.26143 0.0
O1285 O 0.86089 1.00265 0.28851 0.0
O1286 O 0.8613 0.01068 0.22587 0.0
O1287 O 0.90635 0.97505 0.25342 0.0
H1288 H 0.94607 0.07066 0.27664 0.0
H1289 H 0.8816 0.05914 0.21852 0.0
H1290 H 0.95752 0.11434 0.25399 0.0
H1291 H 0.89421 0.10285 0.19691 0.0
H1292 H 0.81004 0.01049 0.36527 0.0
H1293 H 0.88632 0.04529 0.31002 0.0
H1294 H 0.82131 0.98778 0.32153 0.0
H1295 H 0.87388 0.06698 0.35379 0.0
H1296 H 0.84018 0.12662 0.28548 0.0
H1297 H 0.77637 0.07441 0.25468 0.0
H1298 H 0.99107 0.00955 0.32501 0.0
H1299 H 0.92718 0.97958 0.37774 0.0
H1300 H 0.88661 0.96779 0.2046 0.0
H1301 H 0.82224 0.02597 0.19248 0.0
H1302 H 0.8745 0.94625 0.1607 0.0
H1303 H 0.8113 1.0034 0.14862 0.0
H1304 H 0.94539 0.94143 0.23846 0.0
H1305 H 0.88064 0.95402 0.29618 0.0
H1306 H 0.95601 0.89757 0.26117 0.0
H1307 H 0.89242 0.91011 0.31787 0.0
H1308 H 0.99208 1.00296 0.19074 0.0
H1309 H 0.92904 0.0338 0.13758 0.0
H1310 H 0.77578 0.93961 0.26019 0.0
H1311 H 0.83914 0.88696 0.22892 0.0
Li1312 Li 0.25515 0.15024 0.5317 0.0
Li1313 Li 0.23398 0.11597 0.50338 0.0
Li1314 Li 0.28408 0.11512 0.51228 0.0
Li1315 Li 0.26268 0.15144 0.48303 0.0
C1316 C 0.25352 0.09831 0.56252 0.0
N1317 N 0.2533 0.07318 0.61278 0.0
C1318 C 0.22939 0.08752 0.57301 0.0
C1319 C 0.2776 0.09604 0.57746 0.0
C1320 C 0.22968 0.07497 0.5985 0.0
C1321 C 0.27705 0.08334 0.60287 0.0
C1322 C 0.20289 0.16305 0.51266 0.0
C1323 C 0.1614 0.18908 0.50981 0.0
N1324 N 0.15244 0.17712 0.53309 0.0
C1325 C 0.19331 0.15106 0.53657 0.0
C1326 C 0.18688 0.18226 0.49916 0.0
C1327 C 0.16774 0.15843 0.54658 0.0
C1328 C 0.24794 0.2011 0.55631 0.0
N1329 N 0.24975 0.17415 0.56229 0.0
C1330 C 0.24509 0.18372 0.6098 0.0
C1331 C 0.24812 0.1652 0.58843 0.0
C1332 C 0.24403 0.2117 0.60423 0.0
C1333 C 0.2454 0.22034 0.57707 0.0
H1334 H 0.24883 0.20766 0.53533 0.0
H1335 H 0.24931 0.1438 0.59287 0.0
C1336 C 0.2083 0.06555 0.50456 0.0
N1337 N 0.20382 0.09208 0.49831 0.0
C1338 C 0.18744 0.04647 0.50195 0.0
C1339 C 0.15774 0.0823 0.48618 0.0
C1340 C 0.17927 0.10068 0.48892 0.0
C1341 C 0.1616 0.05474 0.49288 0.0
H1342 H 0.22816 0.05924 0.51166 0.0
H1343 H 0.1763 0.12179 0.48363 0.0
C1344 C 0.30285 0.17492 0.52691 0.0
N1345 N 0.32587 0.21577 0.55787 0.0
C1346 C 0.30504 0.20125 0.51645 0.0
C1347 C 0.31272 0.16928 0.55296 0.0
C1348 C 0.31667 0.22165 0.53245 0.0
C1349 C 0.32417 0.19024 0.56834 0.0
C1350 C 0.25371 0.10375 0.45195 0.0
C1351 C 0.26481 0.08192 0.43752 0.0
C1352 C 0.2315 0.11792 0.44124 0.0
C1353 C 0.25357 0.07468 0.41245 0.0
C1354 C 0.22085 0.11006 0.41611 0.0
N1355 N 0.23201 0.08879 0.40235 0.0
C1356 C 0.31081 0.06452 0.51675 0.0
C1357 C 0.33903 0.10293 0.52393 0.0
C1358 C 0.33248 0.04695 0.52235 0.0
N1359 N 0.31445 0.0919 0.51781 0.0
C1360 C 0.36117 0.08616 0.5299 0.0
C1361 C 0.358 0.05776 0.52934 0.0
H1362 H 0.29094 0.05636 0.51198 0.0
H1363 H 0.34137 0.12477 0.5245 0.0
C1364 C 0.25731 0.20045 0.45507 0.0
N1365 N 0.26733 0.17484 0.4525 0.0
C1366 C 0.25975 0.219 0.43375 0.0
C1367 C 0.2824 0.18434 0.40721 0.0
C1368 C 0.27989 0.16654 0.42928 0.0
C1369 C 0.27224 0.21105 0.40922 0.0
H1370 H 0.2476 0.20652 0.47388 0.0
H1371 H 0.28776 0.14606 0.42778 0.0
O1372 O 0.25361 0.11049 0.53751 0.0
O1373 O 0.22786 0.15622 0.50242 0.0
O1374 O 0.29091 0.15483 0.51179 0.0
O1375 O 0.26433 0.11087 0.47664 0.0
H1376 H 0.21061 0.08881 0.5616 0.0
H1377 H 0.29651 0.10402 0.56961 0.0
H1378 H 0.21113 0.06663 0.6069 0.0
H1379 H 0.29551 0.08153 0.61469 0.0
H1380 H 0.14876 0.20388 0.49955 0.0
H1381 H 0.20549 0.1363 0.54732 0.0
H1382 H 0.19405 0.19173 0.48062 0.0
H1383 H 0.16007 0.1493 0.56507 0.0
H1384 H 0.24414 0.17628 0.63052 0.0
H1385 H 0.24429 0.24172 0.57192 0.0
H1386 H 0.19165 0.02541 0.5068 0.0
H1387 H 0.13818 0.08974 0.47931 0.0
H1388 H 0.29771 0.20594 0.49627 0.0
H1389 H 0.3112 0.14905 0.56137 0.0
H1390 H 0.31834 0.24215 0.52468 0.0
H1391 H 0.33164 0.18621 0.58864 0.0
H1392 H 0.28193 0.07068 0.44564 0.0
H1393 H 0.22256 0.1348 0.45219 0.0
H1394 H 0.26197 0.05784 0.40103 0.0
H1395 H 0.20368 0.12085 0.40756 0.0
H1396 H 0.32914 0.02519 0.52189 0.0
H1397 H 0.38058 0.09531 0.53484 0.0
H1398 H 0.25215 0.23946 0.43665 0.0
H1399 H 0.29185 0.17705 0.38869 0.0
Li1400 Li 0.40097 0.50342 0.78185 0.0
Li1401 Li 0.36661 0.53109 0.76025 0.0
Li1402 Li 0.36636 0.48215 0.75421 0.0
Li1403 Li 0.40132 0.50938 0.73292 0.0
C1404 C 0.35465 0.51495 0.81268 0.0
N1405 N 0.34147 0.53969 0.86142 0.0
C1406 C 0.36954 0.53739 0.82179 0.0
C1407 C 0.33306 0.50511 0.82834 0.0
C1408 C 0.36255 0.54961 0.84648 0.0
C1409 C 0.32672 0.51789 0.85293 0.0
C1410 C 0.41301 0.56182 0.74915 0.0
C1411 C 0.40541 0.59556 0.71438 0.0
N1412 N 0.42638 0.61048 0.72448 0.0
C1413 C 0.4345 0.57746 0.75917 0.0
C1414 C 0.39833 0.5709 0.72656 0.0
C1415 C 0.44094 0.60202 0.74643 0.0
C1416 C 0.45108 0.50652 0.80814 0.0
N1417 N 0.42473 0.49935 0.81233 0.0
C1418 C 0.43457 0.48692 0.85833 0.0
C1419 C 0.41624 0.48943 0.83673 0.0
C1420 C 0.46198 0.49437 0.85471 0.0
C1421 C 0.47013 0.50411 0.82906 0.0
H1422 H 0.45731 0.51401 0.7884 0.0
H1423 H 0.39525 0.48351 0.83949 0.0
C1424 C 0.31644 0.5575 0.75726 0.0
N1425 N 0.34281 0.56159 0.76442 0.0
C1426 C 0.29734 0.57834 0.76013 0.0
C1427 C 0.33287 0.60733 0.77776 0.0
C1428 C 0.35126 0.58582 0.77474 0.0
C1429 C 0.30543 0.6038 0.77037 0.0
H1430 H 0.31023 0.53787 0.74948 0.0
H1431 H 0.37226 0.58849 0.78068 0.0
C1432 C 0.41228 0.45082 0.76573 0.0
N1433 N 0.42474 0.40194 0.79048 0.0
C1434 C 0.43361 0.43483 0.75584 0.0
C1435 C 0.39728 0.44197 0.78823 0.0
C1436 C 0.43959 0.41017 0.76862 0.0
C1437 C 0.4039 0.4172 0.80045 0.0
C1438 C 0.35523 0.49844 0.70163 0.0
C1439 C 0.37003 0.47585 0.69266 0.0
C1440 C 0.33391 0.5085 0.68578 0.0
C1441 C 0.36323 0.46371 0.66789 0.0
C1442 C 0.32775 0.4958 0.66111 0.0
N1443 N 0.34242 0.47385 0.65276 0.0
C1444 C 0.31596 0.45621 0.75733 0.0
C1445 C 0.35053 0.42764 0.73961 0.0
C1446 C 0.29672 0.4355 0.75458 0.0
N1447 N 0.34227 0.45193 0.74999 0.0
C1448 C 0.332 0.40627 0.73669 0.0
C1449 C 0.30462 0.40999 0.74427 0.0
H1450 H 0.3099 0.47586 0.76519 0.0
H1451 H 0.37149 0.42481 0.73357 0.0
C1452 C 0.45183 0.50592 0.70713 0.0
N1453 N 0.42556 0.51327 0.7027 0.0
C1454 C 0.4712 0.50851 0.68648 0.0
C1455 C 0.4361 0.52616 0.65697 0.0
C1456 C 0.41745 0.52345 0.6783 0.0
C1457 C 0.46347 0.51864 0.66086 0.0
H1458 H 0.45777 0.49823 0.72687 0.0
H1459 H 0.39652 0.52952 0.67534 0.0
O1460 O 0.36091 0.50265 0.78851 0.0
O1461 O 0.40667 0.53768 0.76142 0.0
O1462 O 0.40637 0.47505 0.75341 0.0
O1463 O 0.36131 0.51067 0.72587 0.0
H1464 H 0.38634 0.54529 0.81001 0.0
H1465 H 0.32133 0.48777 0.82152 0.0
H1466 H 0.3739 0.56698 0.85378 0.0
H1467 H 0.31006 0.51048 0.86527 0.0
H1468 H 0.39421 0.60284 0.6969 0.0
H1469 H 0.44608 0.57066 0.77662 0.0
H1470 H 0.38161 0.55913 0.71851 0.0
H1471 H 0.45752 0.61435 0.75398 0.0
H1472 H 0.42719 0.47957 0.87774 0.0
H1473 H 0.49108 0.50955 0.82501 0.0
H1474 H 0.27638 0.57439 0.75468 0.0
H1475 H 0.34019 0.62661 0.78548 0.0
H1476 H 0.44542 0.44143 0.73846 0.0
H1477 H 0.38067 0.45401 0.79618 0.0
H1478 H 0.45605 0.39758 0.76117 0.0
H1479 H 0.39246 0.41011 0.81786 0.0
H1480 H 0.38663 0.46778 0.7046 0.0
H1481 H 0.32225 0.52595 0.69248 0.0
H1482 H 0.37452 0.44623 0.6607 0.0
H1483 H 0.31131 0.50338 0.64862 0.0
H1484 H 0.27581 0.4396 0.76019 0.0
H1485 H 0.33917 0.38695 0.72892 0.0
H1486 H 0.49209 0.50296 0.69073 0.0
H1487 H 0.42903 0.53379 0.63757 0.0
Li1488 Li 0.78641 0.40151 0.49975 0.0
Li1489 Li 0.76576 0.36452 0.53074 0.0
Li1490 Li 0.75718 0.3655 0.48177 0.0
Li1491 Li 0.7371 0.39968 0.51005 0.0
C1492 C 0.80562 0.34201 0.48519 0.0
N1493 N 0.82933 0.30235 0.45311 0.0
C1494 C 0.80855 0.31552 0.49505 0.0
C1495 C 0.8151 0.34841 0.45915 0.0
C1496 C 0.82052 0.29574 0.47849 0.0
C1497 C 0.82691 0.32806 0.4432 0.0
C1498 C 0.75584 0.42118 0.55497 0.0
C1499 C 0.7235 0.42751 0.59135 0.0
N1500 N 0.72911 0.45459 0.59143 0.0
C1501 C 0.76138 0.44904 0.55547 0.0
C1502 C 0.73683 0.41026 0.57309 0.0
C1503 C 0.74762 0.4656 0.57405 0.0
C1504 C 0.81377 0.45153 0.49153 0.0
N1505 N 0.8171 0.42414 0.4933 0.0
C1506 C 0.86465 0.42832 0.48398 0.0
C1507 C 0.8419 0.41237 0.48983 0.0
C1508 C 0.86188 0.45668 0.48204 0.0
C1509 C 0.83608 0.46832 0.4861 0.0
H1510 H 0.79373 0.46028 0.49404 0.0
H1511 H 0.84398 0.39055 0.49145 0.0
C1512 C 0.76602 0.31559 0.56079 0.0
N1513 N 0.77234 0.34246 0.56177 0.0
C1514 C 0.77179 0.2987 0.58291 0.0
C1515 C 0.78954 0.33769 0.60698 0.0
C1516 C 0.78379 0.35373 0.58425 0.0
C1517 C 0.78383 0.30964 0.60648 0.0
H1518 H 0.75692 0.3072 0.5426 0.0
H1519 H 0.78855 0.3752 0.58448 0.0
C1520 C 0.75419 0.41718 0.45025 0.0
N1521 N 0.75168 0.44183 0.3998 0.0
C1522 C 0.72939 0.42695 0.44034 0.0
C1523 C 0.77777 0.42024 0.43462 0.0
C1524 C 0.72852 0.43926 0.41475 0.0
C1525 C 0.77607 0.43268 0.40914 0.0
C1526 C 0.70558 0.35234 0.50255 0.0
C1527 C 0.69535 0.36381 0.47867 0.0
C1528 C 0.69008 0.33323 0.51676 0.0
C1529 C 0.66963 0.35608 0.46943 0.0
C1530 C 0.66443 0.32603 0.50688 0.0
N1531 N 0.65482 0.33751 0.48362 0.0
C1532 C 0.75018 0.31425 0.45766 0.0
C1533 C 0.74967 0.34994 0.42533 0.0
C1534 C 0.74761 0.29486 0.43704 0.0
N1535 N 0.75161 0.34118 0.45151 0.0
C1536 C 0.74663 0.33128 0.40411 0.0
C1537 C 0.74588 0.30332 0.40984 0.0
H1538 H 0.7514 0.30781 0.47867 0.0
H1539 H 0.75065 0.37132 0.42074 0.0
C1540 C 0.71038 0.44988 0.50816 0.0
N1541 N 0.70664 0.42351 0.5155 0.0
C1542 C 0.68941 0.46879 0.51126 0.0
C1543 C 0.66094 0.4331 0.52937 0.0
C1544 C 0.68264 0.41492 0.52626 0.0
C1545 C 0.66407 0.46051 0.52172 0.0
H1546 H 0.7298 0.45623 0.49998 0.0
H1547 H 0.68025 0.39396 0.53237 0.0
O1548 O 0.7933 0.36149 0.50082 0.0
O1549 O 0.76837 0.40473 0.53636 0.0
O1550 O 0.75544 0.40525 0.47536 0.0
O1551 O 0.73072 0.35953 0.51202 0.0
H1552 H 0.80152 0.31024 0.5152 0.0
H1553 H 0.81303 0.36879 0.45121 0.0
H1554 H 0.82276 0.27511 0.48581 0.0
H1555 H 0.83409 0.33268 0.42291 0.0
H1556 H 0.70861 0.41938 0.60537 0.0
H1557 H 0.77598 0.45779 0.54154 0.0
H1558 H 0.73214 0.38875 0.57276 0.0
H1559 H 0.7516 0.48723 0.5746 0.0
H1560 H 0.88426 0.41862 0.48123 0.0
H1561 H 0.83309 0.49008 0.4845 0.0
H1562 H 0.76736 0.2772 0.58125 0.0
H1563 H 0.79827 0.34726 0.62478 0.0
H1564 H 0.71097 0.42509 0.45228 0.0
H1565 H 0.79719 0.41311 0.44203 0.0
H1566 H 0.70945 0.44682 0.4068 0.0
H1567 H 0.79414 0.43509 0.3968 0.0
H1568 H 0.70716 0.37844 0.46735 0.0
H1569 H 0.6978 0.32411 0.53526 0.0
H1570 H 0.66146 0.36481 0.45097 0.0
H1571 H 0.65218 0.3113 0.51769 0.0
H1572 H 0.74676 0.2735 0.44233 0.0
H1573 H 0.74545 0.33861 0.38336 0.0
H1574 H 0.69318 0.48974 0.50569 0.0
H1575 H 0.64182 0.42557 0.53729 0.0
Li1576 Li 0.6509 0.98214 0.75924 0.0
Li1577 Li 0.61849 0.0119 0.77968 0.0
Li1578 Li 0.61485 1.00042 0.73073 0.0
Li1579 Li 0.6534 0.03087 0.74945 0.0
C1580 C 0.59911 0.95187 0.76428 0.0
N1581 N 0.5746 0.90143 0.76784 0.0
C1582 C 0.5898 0.94223 0.78937 0.0
C1583 C 0.59559 0.936 0.74094 0.0
C1584 C 0.57757 0.91663 0.79076 0.0
C1585 C 0.58325 0.91052 0.74318 0.0
C1586 C 0.66769 1.00331 0.80915 0.0
C1587 C 0.69924 1.00548 0.84661 0.0
N1588 N 0.68635 0.98409 0.85851 0.0
C1589 C 0.65481 0.98132 0.8217 0.0
C1590 C 0.69013 0.01547 0.82162 0.0
C1591 C 0.66453 0.97191 0.84667 0.0
C1592 C 0.70163 0.95728 0.76583 0.0
N1593 N 0.67459 0.95146 0.76501 0.0
C1594 C 0.68399 0.90402 0.77049 0.0
C1595 C 0.66552 0.92544 0.76756 0.0
C1596 C 0.71202 0.90941 0.77053 0.0
C1597 C 0.7208 0.93647 0.76829 0.0
H1598 H 0.70831 0.97816 0.76416 0.0
H1599 H 0.64407 0.9211 0.76708 0.0
C1600 C 0.57 0.0129 0.81044 0.0
N1601 N 0.59678 0.01972 0.81108 0.0
C1602 C 0.55303 0.01915 0.83239 0.0
C1603 C 0.59163 0.0389 0.85548 0.0
C1604 C 0.60775 0.03261 0.83293 0.0
C1605 C 0.56376 0.03231 0.85544 0.0
H1606 H 0.56174 1.00297 0.79263 0.0
H1607 H 0.629 0.03823 0.83279 0.0
C1608 C 0.67375 0.98402 0.71038 0.0
N1609 N 0.71253 0.95081 0.68675 0.0
C1610 C 0.70041 0.99331 0.70698 0.0
C1611 C 0.66673 0.95799 0.70139 0.0
C1612 C 0.71974 0.97618 0.69506 0.0
C1613 C 0.68665 0.94145 0.68962 0.0
C1614 C 0.59685 0.05639 0.7601 0.0
C1615 C 0.56878 0.05598 0.75567 0.0
C1616 C 0.60804 0.07564 0.77776 0.0
C1617 C 0.55228 0.07479 0.7692 0.0
C1618 C 0.59086 0.09409 0.79091 0.0
N1619 N 0.56357 0.09328 0.78641 0.0
C1620 C 0.56429 0.99173 0.70409 0.0
C1621 C 0.60327 0.99049 0.67566 0.0
C1622 C 0.5474 0.98602 0.68193 0.0
N1623 N 0.59164 0.99387 0.70053 0.0
C1624 C 0.58723 0.98436 0.65306 0.0
C1625 C 0.55893 0.98203 0.65606 0.0
H1626 H 0.55565 0.99413 0.72419 0.0
H1627 H 0.62507 0.99237 0.6734 0.0
C1628 C 0.70286 0.06025 0.74808 0.0
N1629 N 0.67592 0.06133 0.74199 0.0
C1630 C 0.71974 0.0824 0.74235 0.0
C1631 C 0.68062 0.1066 0.725 0.0
C1632 C 0.66461 0.08385 0.73068 0.0
C1633 C 0.70869 0.10607 0.73062 0.0
H1634 H 0.71127 0.04204 0.75713 0.0
H1635 H 0.64308 0.08417 0.72615 0.0
O1636 O 0.61092 0.97699 0.76255 0.0
O1637 O 0.65872 0.01271 0.78458 0.0
O1638 O 0.65471 1.00025 0.72265 0.0
O1639 O 0.61326 0.03756 0.74782 0.0
H1640 H 0.59193 0.95439 0.80759 0.0
H1641 H 0.60233 0.94322 0.72131 0.0
H1642 H 0.57038 0.90888 0.81006 0.0
H1643 H 0.58051 0.89799 0.7253 0.0
H1644 H 0.71656 0.01471 0.85652 0.0
H1645 H 0.63759 0.97158 0.8122 0.0
H1646 H 0.70038 0.03245 0.81207 0.0
H1647 H 0.65475 0.9549 0.85661 0.0
H1648 H 0.67643 0.88339 0.77211 0.0
H1649 H 0.74225 0.94149 0.76862 0.0
H1650 H 0.53164 0.01412 0.83104 0.0
H1651 H 0.60102 0.04868 0.87282 0.0
H1652 H 0.70616 0.01345 0.71361 0.0
H1653 H 0.64621 0.9505 0.70379 0.0
H1654 H 0.74048 0.98305 0.69247 0.0
H1655 H 0.68154 0.92117 0.68282 0.0
H1656 H 0.55981 0.04116 0.74213 0.0
H1657 H 0.62972 0.07602 0.78161 0.0
H1658 H 0.5305 0.07464 0.76608 0.0
H1659 H 0.5992 0.10898 0.80479 0.0
H1660 H 0.52567 0.98414 0.68507 0.0
H1661 H 0.59684 0.98169 0.6334 0.0
H1662 H 0.74126 0.08074 0.74671 0.0
H1663 H 0.67097 0.12447 0.71651 0.0
Li1664 Li 0.03382 0.25888 0.86576 0.0
Li1665 Li 1.0048 0.28019 0.89833 0.0
Li1666 Li 0.01298 0.2321 0.90203 0.0
Li1667 Li 0.98456 0.25101 0.86486 0.0
C1668 C 0.0645 0.2508 0.91269 0.0
N1669 N 0.11405 0.22822 0.92665 0.0
C1670 C 0.08024 0.26253 0.93322 0.0
C1671 C 0.07394 0.22755 0.89927 0.0
C1672 C 0.10525 0.25083 0.93998 0.0
C1673 C 0.09904 0.21645 0.90663 0.0
C1674 C 0.01576 0.30964 0.85076 0.0
C1675 C 0.01815 0.34822 0.8206 0.0
N1676 N 0.03933 0.35823 0.83531 0.0
C1677 C 0.03757 0.3203 0.86558 0.0
C1678 C 1.00598 0.32366 0.82807 0.0
C1679 C 0.04919 0.34489 0.85743 0.0
C1680 C 0.06093 0.25502 0.81596 0.0
N1681 N 0.06454 0.2629 0.84219 0.0
C1682 C 0.11033 0.27637 0.83263 0.0
C1683 C 0.08852 0.27372 0.85072 0.0
C1684 C 0.10733 0.26821 0.80536 0.0
C1685 C 0.08206 0.25759 0.79712 0.0
H1686 H 0.04147 0.24693 0.80964 0.0
H1687 H 0.09078 0.28035 0.87156 0.0
C1688 C 1.00452 0.31099 0.94674 0.0
N1689 N 0.99808 0.31197 0.91988 0.0
C1690 C 0.9983 0.33287 0.96381 0.0
C1691 C 0.97943 0.35659 0.92514 0.0
C1692 C 0.9857 0.33413 0.90891 0.0
C1693 C 0.9855 0.35614 0.9531 0.0
H1694 H 0.01394 0.2929 0.955 0.0
H1695 H 0.98024 0.33423 0.88763 0.0
C1696 C 1.00393 0.19933 0.85442 0.0
N1697 N 0.98183 0.1503 0.83823 0.0
C1698 C 0.98197 0.18818 0.86865 0.0
C1699 C 0.01459 0.18561 0.83191 0.0
C1700 C 0.9711 0.16336 0.86016 0.0
C1701 C 1.00316 0.16082 0.82406 0.0
C1702 C 0.95699 0.26497 0.91696 0.0
C1703 C 0.95245 0.26195 0.94486 0.0
C1704 C 0.94117 0.28332 0.90207 0.0
C1705 C 0.93222 0.27747 0.95745 0.0
C1706 C 0.92113 0.29846 0.91541 0.0
N1707 N 0.91712 0.29526 0.9426 0.0
C1708 C 0.01374 0.20734 0.95359 0.0
C1709 C 0.02717 0.17764 0.91811 0.0
C1710 C 0.01687 0.18662 0.97278 0.0
N1711 N 0.0184 0.20242 0.92679 0.0
C1712 C 0.03047 0.15629 0.93657 0.0
C1713 C 0.02506 0.16053 0.96435 0.0
H1714 H 1.00776 0.22747 0.96008 0.0
H1715 H 0.03162 0.17434 0.89684 0.0
C1716 C 0.95647 0.24828 0.81468 0.0
N1717 N 0.95423 0.24379 0.84187 0.0
C1718 C 0.9347 0.2424 0.79735 0.0
C1719 C 0.90874 0.22756 0.8364 0.0
C1720 C 0.93103 0.23357 0.85291 0.0
C1721 C 0.91037 0.23183 0.80816 0.0
H1722 H 0.9753 0.25618 0.80646 0.0
H1723 H 0.92987 0.22997 0.87457 0.0
O1724 O 0.03994 0.26211 0.90606 0.0
O1725 O 1.0041 0.28547 0.85811 0.0
O1726 O 0.01462 0.22384 0.86202 0.0
O1727 O 0.97728 0.25062 0.90435 0.0
H1728 H 0.07318 0.28052 0.94382 0.0
H1729 H 0.06214 0.21818 0.88328 0.0
H1730 H 0.11765 0.25971 0.95582 0.0
H1731 H 0.1066 0.19848 0.8964 0.0
H1732 H 0.01078 0.3593 0.80309 0.0
H1733 H 0.04544 0.30976 0.88319 0.0
H1734 H 0.98916 0.31562 0.81637 0.0
H1735 H 0.06607 0.35338 0.86871 0.0
H1736 H 0.1294 0.28445 0.84009 0.0
H1737 H 0.07844 0.25161 0.77624 0.0
H1738 H 1.00293 0.33125 0.98527 0.0
H1739 H 0.96994 0.3741 0.91579 0.0
H1740 H 0.97342 0.19857 0.88608 0.0
H1741 H 0.03151 0.19406 0.82061 0.0
H1742 H 0.95412 0.15449 0.87098 0.0
H1743 H 0.01122 0.14995 0.80669 0.0
H1744 H 0.96445 0.24786 0.95671 0.0
H1745 H 0.94468 0.28622 0.88053 0.0
H1746 H 0.92855 0.27541 0.97906 0.0
H1747 H 0.90888 0.31286 0.90417 0.0
H1748 H 0.01316 0.19109 0.99403 0.0
H1749 H 0.03676 0.13656 0.92905 0.0
H1750 H 0.93709 0.24566 0.7757 0.0
H1751 H 0.89036 0.21984 0.84576 0.0
Li1752 Li 0.5338 0.75887 0.36575 0.0
Li1753 Li 0.5048 0.7802 0.39832 0.0
Li1754 Li 0.51297 0.7321 0.40201 0.0
Li1755 Li 0.48453 0.75103 0.36486 0.0
C1756 C 0.56449 0.75078 0.41266 0.0
N1757 N 0.61403 0.72815 0.42661 0.0
C1758 C 0.58024 0.76248 0.43321 0.0
C1759 C 0.57392 0.72753 0.39922 0.0
C1760 C 0.60524 0.75075 0.43995 0.0
C1761 C 0.59902 0.71641 0.40657 0.0
C1762 C 0.51576 0.80963 0.35074 0.0
C1763 C 0.51818 0.84818 0.32054 0.0
N1764 N 0.53935 0.8582 0.33525 0.0
C1765 C 0.53756 0.8203 0.36556 0.0
C1766 C 0.506 0.82363 0.32804 0.0
C1767 C 0.5492 0.84488 0.3574 0.0
C1768 C 0.56092 0.75498 0.31596 0.0
N1769 N 0.56451 0.76288 0.34218 0.0
C1770 C 0.6103 0.77638 0.33262 0.0
C1771 C 0.58849 0.77373 0.35071 0.0
C1772 C 0.60731 0.7682 0.30535 0.0
C1773 C 0.58205 0.75754 0.29712 0.0
H1774 H 0.54147 0.74686 0.30964 0.0
H1775 H 0.59074 0.78038 0.37154 0.0
C1776 C 0.50453 0.811 0.44674 0.0
N1777 N 0.49809 0.81198 0.41988 0.0
C1778 C 0.49831 0.83288 0.46381 0.0
C1779 C 0.47946 0.8566 0.42514 0.0
C1780 C 0.48573 0.83414 0.40891 0.0
C1781 C 0.48552 0.85615 0.4531 0.0
H1782 H 0.51394 0.7929 0.455 0.0
H1783 H 0.48027 0.83425 0.38762 0.0
C1784 C 0.50386 0.69929 0.35451 0.0
N1785 N 0.48173 0.6502 0.33856 0.0
C1786 C 0.48188 0.68824 0.36879 0.0
C1787 C 0.51452 0.68545 0.33208 0.0
C1788 C 0.471 0.66339 0.36042 0.0
C1789 C 0.50307 0.66063 0.32435 0.0
C1790 C 0.45698 0.76499 0.41695 0.0
C1791 C 0.45241 0.76196 0.44484 0.0
C1792 C 0.44118 0.78335 0.40205 0.0
C1793 C 0.43217 0.77749 0.45742 0.0
C1794 C 0.42113 0.79849 0.41537 0.0
N1795 N 0.41709 0.79529 0.44256 0.0
C1796 C 0.5137 0.70733 0.45357 0.0
C1797 C 0.52719 0.67765 0.4181 0.0
C1798 C 0.51683 0.68661 0.47276 0.0
N1799 N 0.51839 0.70242 0.42677 0.0
C1800 C 0.53049 0.6563 0.43656 0.0
C1801 C 0.52505 0.66053 0.46433 0.0
H1802 H 0.50769 0.72746 0.46006 0.0
H1803 H 0.53166 0.67436 0.39684 0.0
C1804 C 0.45642 0.74831 0.3147 0.0
N1805 N 0.45418 0.74383 0.34188 0.0
C1806 C 0.43464 0.74244 0.29738 0.0
C1807 C 0.40869 0.72761 0.33643 0.0
C1808 C 0.43099 0.73361 0.35293 0.0
C1809 C 0.41032 0.73188 0.30818 0.0
H1810 H 0.47525 0.7562 0.30647 0.0
H1811 H 0.42983 0.73002 0.3746 0.0
O1812 O 0.53993 0.76209 0.40604 0.0
O1813 O 0.50409 0.78548 0.35811 0.0
O1814 O 0.51458 0.72383 0.36199 0.0
O1815 O 0.47727 0.75065 0.40436 0.0
H1816 H 0.57319 0.78045 0.44382 0.0
H1817 H 0.56212 0.71818 0.38323 0.0
H1818 H 0.61765 0.75962 0.45581 0.0
H1819 H 0.60657 0.69845 0.39633 0.0
H1820 H 0.51082 0.85925 0.30301 0.0
H1821 H 0.54542 0.80978 0.38318 0.0
H1822 H 0.48918 0.81559 0.31633 0.0
H1823 H 0.56607 0.85337 0.36867 0.0
H1824 H 0.62936 0.78448 0.34007 0.0
H1825 H 0.57844 0.75155 0.27625 0.0
H1826 H 0.50293 0.83125 0.48527 0.0
H1827 H 0.46998 0.87413 0.41578 0.0
H1828 H 0.47333 0.69872 0.38616 0.0
H1829 H 0.53146 0.69383 0.32075 0.0
H1830 H 0.454 0.65458 0.37128 0.0
H1831 H 0.51113 0.64966 0.30704 0.0
H1832 H 0.46439 0.74787 0.4567 0.0
H1833 H 0.44471 0.78627 0.38052 0.0
H1834 H 0.42847 0.77542 0.47902 0.0
H1835 H 0.4089 0.81291 0.40413 0.0
H1836 H 0.51309 0.69108 0.49401 0.0
H1837 H 0.5368 0.63658 0.42904 0.0
H1838 H 0.43703 0.74568 0.27572 0.0
H1839 H 0.3903 0.7199 0.34579 0.0
Li1840 Li 0.01317 0.78309 0.61508 0.0
Li1841 Li 0.98531 0.76214 0.64981 0.0
Li1842 Li 0.03408 0.75478 0.65065 0.0
Li1843 Li 1.0044 0.73293 0.61468 0.0
C1844 C 1.00441 0.8144 0.66232 0.0
N1845 N 0.98398 0.86465 0.67697 0.0
C1846 C 0.98057 0.82417 0.65035 0.0
C1847 C 0.01783 0.83011 0.68181 0.0
C1848 C 0.97056 0.84964 0.65801 0.0
C1849 C 1.00719 0.8555 0.68893 0.0
C1850 C 0.95385 0.76334 0.59828 0.0
C1851 C 0.91327 0.73976 0.58407 0.0
N1852 N 0.90319 0.76345 0.57395 0.0
C1853 C 0.9432 0.78741 0.58752 0.0
C1854 C 0.93887 0.73926 0.59637 0.0
C1855 C 0.91751 0.78706 0.57539 0.0
C1856 C 0.01155 0.80863 0.56449 0.0
N1857 N 0.01807 0.81309 0.59096 0.0
C1858 C 0.0304 0.85907 0.581 0.0
C1859 C 0.0277 0.83759 0.59943 0.0
C1860 C 0.02344 0.85522 0.55349 0.0
C1861 C 0.01412 0.82943 0.54534 0.0
H1862 H 1.00427 0.78881 0.55828 0.0
H1863 H 0.0332 0.84054 0.6205 0.0
C1864 C 0.96129 0.76925 0.70098 0.0
N1865 N 0.95502 0.76777 0.67407 0.0
C1866 C 0.94077 0.77202 0.72046 0.0
C1867 C 0.9077 0.77333 0.68416 0.0
C1868 C 0.92883 0.77002 0.6654 0.0
C1869 C 0.91356 0.77401 0.7121 0.0
H1870 H 0.98231 0.76794 0.70733 0.0
H1871 H 0.92417 0.76914 0.64402 0.0
C1872 C 0.06424 0.76337 0.60171 0.0
N1873 N 0.113 0.78517 0.58428 0.0
C1874 C 0.07742 0.75253 0.57897 0.0
C1875 C 0.07576 0.78538 0.61553 0.0
C1876 C 0.10209 0.76381 0.57049 0.0
C1877 C 0.10044 0.79609 0.60641 0.0
C1878 C 0.99043 0.71447 0.67471 0.0
C1879 C 1.00121 0.71202 0.70089 0.0
C1880 C 0.96426 0.70475 0.66934 0.0
C1881 C 0.98541 0.70029 0.72141 0.0
C1882 C 0.94908 0.69321 0.69042 0.0
N1883 N 0.95987 0.69126 0.71581 0.0
C1884 C 0.06219 0.76003 0.69959 0.0
C1885 C 0.08834 0.73867 0.66517 0.0
C1886 C 0.08367 0.75777 0.718 0.0
N1887 N 0.06485 0.75048 0.6738 0.0
C1888 C 0.11056 0.73641 0.68279 0.0
C1889 C 0.10845 0.74601 0.70971 0.0
H1890 H 0.04319 0.76918 0.70593 0.0
H1891 H 0.08991 0.73117 0.64454 0.0
C1892 C 0.99979 0.7058 0.56429 0.0
N1893 N 0.99878 0.70235 0.59171 0.0
C1894 C 0.99426 0.684 0.54688 0.0
C1895 C 0.98686 0.65556 0.5863 0.0
C1896 C 0.99274 0.67783 0.60292 0.0
C1897 C 0.98741 0.65853 0.55787 0.0
H1898 H 1.0045 0.72563 0.55598 0.0
H1899 H 0.9922 0.67564 0.62479 0.0
O1900 O 0.01459 0.7895 0.65524 0.0
O1901 O 0.97905 0.76331 0.61007 0.0
O1902 O 0.03991 0.75278 0.61004 0.0
O1903 O 1.00537 0.72648 0.65451 0.0
H1904 H 0.96987 0.8122 0.63538 0.0
H1905 H 0.03631 0.82278 0.69129 0.0
H1906 H 0.95212 0.85746 0.6489 0.0
H1907 H 0.01739 0.86791 0.70395 0.0
H1908 H 0.90142 0.72129 0.58253 0.0
H1909 H 0.95464 0.80618 0.58851 0.0
H1910 H 0.94688 0.7204 0.60426 0.0
H1911 H 0.90898 0.80556 0.56708 0.0
H1912 H 0.03745 0.87858 0.58835 0.0
H1913 H 0.00906 0.82523 0.52433 0.0
H1914 H 0.94613 0.77281 0.74181 0.0
H1915 H 0.88693 0.77476 0.67694 0.0
H1916 H 0.06864 0.73559 0.56798 0.0
H1917 H 0.06572 0.79415 0.63306 0.0
H1918 H 0.11255 0.75561 0.55294 0.0
H1919 H 0.10961 0.81311 0.6169 0.0
H1920 H 0.0215 0.7192 0.70537 0.0
H1921 H 0.9556 0.70647 0.64923 0.0
H1922 H 0.99344 0.69842 0.74181 0.0
H1923 H 0.9287 0.68587 0.6866 0.0
H1924 H 0.08067 0.76492 0.73862 0.0
H1925 H 0.12926 0.72755 0.67522 0.0
H1926 H 0.9947 0.6872 0.52509 0.0
H1927 H 0.98204 0.6362 0.59561 0.0
Li1928 Li 0.51317 0.28309 0.11508 0.0
Li1929 Li 0.48531 0.26213 0.14981 0.0
Li1930 Li 0.53407 0.25479 0.15065 0.0
Li1931 Li 0.5044 0.23292 0.11468 0.0
C1932 C 0.5044 0.3144 0.16232 0.0
N1933 N 0.48396 0.36465 0.17697 0.0
C1934 C 0.48056 0.32417 0.15033 0.0
C1935 C 0.51781 0.33011 0.18181 0.0
C1936 C 0.47055 0.34964 0.158 0.0
C1937 C 0.50717 0.35549 0.18893 0.0
C1938 C 0.45385 0.26333 0.09827 0.0
C1939 C 0.41326 0.23974 0.08406 0.0
N1940 N 0.40319 0.26343 0.07394 0.0
C1941 C 0.44319 0.2874 0.08751 0.0
C1942 C 0.43887 0.23925 0.09636 0.0
C1943 C 0.41751 0.28705 0.07538 0.0
C1944 C 0.51155 0.30862 0.06448 0.0
N1945 N 0.51807 0.31308 0.09095 0.0
C1946 C 0.53041 0.35906 0.08099 0.0
C1947 C 0.5277 0.33758 0.09943 0.0
C1948 C 0.52345 0.35521 0.05349 0.0
C1949 C 0.51412 0.32943 0.04534 0.0
H1950 H 0.50427 0.28881 0.05827 0.0
H1951 H 0.53321 0.34053 0.12049 0.0
C1952 C 0.46128 0.26925 0.20098 0.0
N1953 N 0.45501 0.26777 0.17407 0.0
C1954 C 0.44076 0.27201 0.22045 0.0
C1955 C 0.40769 0.27332 0.18415 0.0
C1956 C 0.42883 0.27002 0.16539 0.0
C1957 C 0.41355 0.274 0.21209 0.0
H1958 H 0.48231 0.26794 0.20732 0.0
H1959 H 0.42416 0.26913 0.14401 0.0
C1960 C 0.56422 0.26336 0.10167 0.0
N1961 N 0.61292 0.28518 0.08412 0.0
C1962 C 0.57732 0.25255 0.07887 0.0
C1963 C 0.57577 0.28536 0.11548 0.0
C1964 C 0.60197 0.26384 0.07034 0.0
C1965 C 0.60044 0.29608 0.1063 0.0
C1966 C 0.49043 0.21447 0.17471 0.0
C1967 C 0.50121 0.21202 0.2009 0.0
C1968 C 0.46426 0.20475 0.16934 0.0
C1969 C 0.48541 0.2003 0.22141 0.0
C1970 C 0.44908 0.19321 0.19041 0.0
N1971 N 0.45987 0.19126 0.21581 0.0
C1972 C 0.56219 0.26003 0.1996 0.0
C1973 C 0.58834 0.23869 0.16517 0.0
C1974 C 0.58367 0.25778 0.21801 0.0
N1975 N 0.56485 0.25049 0.1738 0.0
C1976 C 0.61056 0.23643 0.18279 0.0
C1977 C 0.60845 0.24603 0.20972 0.0
H1978 H 0.54318 0.26918 0.20593 0.0
H1979 H 0.58991 0.23119 0.14454 0.0
C1980 C 0.49979 0.20579 0.06429 0.0
N1981 N 0.49878 0.20234 0.09171 0.0
C1982 C 0.49426 0.18399 0.04688 0.0
C1983 C 0.48686 0.15555 0.08631 0.0
C1984 C 0.49274 0.17782 0.10292 0.0
C1985 C 0.4874 0.15851 0.05787 0.0
H1986 H 0.5045 0.22561 0.05598 0.0
H1987 H 0.4922 0.17563 0.12479 0.0
O1988 O 0.51458 0.2895 0.15524 0.0
O1989 O 0.47905 0.26331 0.11006 0.0
O1990 O 0.5399 0.25278 0.11004 0.0
O1991 O 0.50537 0.22648 0.15451 0.0
H1992 H 0.46987 0.3122 0.13536 0.0
H1993 H 0.53628 0.32277 0.1913 0.0
H1994 H 0.45211 0.35745 0.14888 0.0
H1995 H 0.51736 0.36791 0.20396 0.0
H1996 H 0.40142 0.22127 0.08253 0.0
H1997 H 0.45463 0.30617 0.0885 0.0
H1998 H 0.44688 0.22038 0.10425 0.0
H1999 H 0.40897 0.30554 0.06707 0.0
H2000 H 0.53746 0.37857 0.08835 0.0
H2001 H 0.50907 0.32523 0.02432 0.0
H2002 H 0.44612 0.27281 0.2418 0.0
H2003 H 0.38692 0.27475 0.17694 0.0
H2004 H 0.56851 0.23563 0.06788 0.0
H2005 H 0.56578 0.29411 0.13305 0.0
H2006 H 0.61238 0.25567 0.05274 0.0
H2007 H 0.60963 0.31308 0.1168 0.0
H2008 H 0.52149 0.2192 0.20537 0.0
H2009 H 0.4556 0.20646 0.14923 0.0
H2010 H 0.49343 0.19842 0.24181 0.0
H2011 H 0.4287 0.18586 0.1866 0.0
H2012 H 0.58067 0.26492 0.23862 0.0
H2013 H 0.62926 0.22758 0.17522 0.0
H2014 H 0.49469 0.18719 0.02509 0.0
H2015 H 0.48204 0.13619 0.09561 0.0
loop_
_geom_bond_atom_site_label_1
_geom_bond_atom_site_label_2
_geom_bond_distance
_geom_bond_site_symmetry_2
_ccdc_geom_bond_type
C0 C1 1.391 . S
C0 C4 1.391 . S
C0 H42 0.948 . S
C1 C0 1.391 . S
C1 C2 1.391 1_455 S
C2 C1 1.391 1_655 S
C2 H58 0.947 . S
C2 C59 1.392 1_556 S
C3 C4 1.373 1_554 S
C3 C7 1.410 . S
C3 C59 1.420 1_455 S
C4 C0 1.391 . S
C4 C3 1.373 1_556 S
C4 C5 1.399 . S
C5 C4 1.399 . S
C5 C8 1.396 1_556 S
C5 C17 1.453 . S
C5 C18 1.684 . S
H6 C30 0.948 . S
C7 C3 1.410 . S
C7 C8 1.394 . S
C7 C26 1.723 . S
C8 C5 1.396 1_554 S
C8 C7 1.394 . S
C8 C38 1.723 . S
H9 C32 0.947 . S
H10 C33 0.948 . S
H11 C39 0.982 . S
H12 C40 0.979 . S
H13 C40 0.980 . S
H14 C40 0.983 . S
H15 C39 0.979 . S
H16 C39 0.977 . S
C17 C5 1.453 . S
C17 H46 0.982 . S
C17 H47 0.979 . S
C17 H48 0.977 . S
C18 C5 1.684 . S
C18 H43 0.979 . S
C18 H44 0.980 . S
C18 H45 0.983 . S
C19 C20 1.391 . S
C19 C24 1.391 . S
C19 H49 0.948 . S
C20 C19 1.391 . S
C20 C21 1.391 1_545 S
C21 C20 1.391 1_565 S
C21 C22 1.392 1_655 S
C21 H50 0.947 . S
C22 C21 1.392 1_455 S
C22 C23 1.420 1_565 S
C22 H51 0.948 . S
C23 C22 1.420 1_545 S
C23 C24 1.373 1_455 S
C23 C27 1.410 . S
C24 C19 1.391 . S
C24 C23 1.373 1_655 S
C24 C25 1.399 . S
C25 C24 1.399 . S
C25 C26 1.396 1_655 S
C25 C28 1.453 . S
C25 C29 1.684 . S
C26 C7 1.723 . S
C26 C25 1.396 1_455 S
C26 C27 1.394 . S
C27 C23 1.410 . S
C27 C26 1.394 . S
C27 C37 1.723 . S
C28 C25 1.453 . S
C28 H52 0.982 . S
C28 H53 0.979 . S
C28 H54 0.977 . S
C29 C25 1.684 . S
C29 H55 0.979 . S
C29 H56 0.980 . S
C29 H57 0.983 . S
C30 H6 0.948 . S
C30 C31 1.391 . S
C30 C35 1.391 . S
C31 C30 1.391 . S
C31 C32 1.391 1_554 S
C32 H9 0.947 . S
C32 C31 1.391 1_556 S
C32 C33 1.392 1_565 S
C33 H10 0.948 . S
C33 C32 1.392 1_545 S
C33 C34 1.420 1_556 S
C34 C33 1.420 1_554 S
C34 C35 1.373 1_545 S
C34 C38 1.410 . S
C35 C30 1.391 . S
C35 C34 1.373 1_565 S
C35 C36 1.399 . S
C36 C35 1.399 . S
C36 C37 1.396 1_565 S
C36 C39 1.453 . S
C36 C40 1.684 . S
C37 C27 1.723 . S
C37 C36 1.396 1_545 S
C37 C38 1.394 . S
C38 C8 1.723 . S
C38 C34 1.410 . S
C38 C37 1.394 . S
C39 H11 0.982 . S
C39 H15 0.979 . S
C39 H16 0.977 . S
C39 C36 1.453 . S
C40 H12 0.979 . S
C40 H13 0.980 . S
C40 H14 0.983 . S
C40 C36 1.684 . S
H41 C59 0.948 . S
H42 C0 0.948 . S
H43 C18 0.979 . S
H44 C18 0.980 . S
H45 C18 0.983 . S
H46 C17 0.982 . S
H47 C17 0.979 . S
H48 C17 0.977 . S
H49 C19 0.948 . S
H50 C21 0.947 . S
H51 C22 0.948 . S
H52 C28 0.982 . S
H53 C28 0.979 . S
H54 C28 0.977 . S
H55 C29 0.979 . S
H56 C29 0.980 . S
H57 C29 0.983 . S
H58 C2 0.947 . S
C59 C2 1.392 1_554 S
C59 C3 1.420 1_655 S
C59 H41 0.948 . S
C60 C61 1.391 . S
C60 C64 1.391 . S
C60 H102 0.948 . S
C61 C60 1.391 . S
C61 C62 1.391 . S
C62 C61 1.391 . S
C62 H118 0.947 . S
C62 C119 1.392 . S
C63 C64 1.391 . S
C63 C67 1.397 . S
C63 C119 1.419 . S
C64 C60 1.391 . S
C64 C63 1.391 . S
C64 C65 1.399 . S
C65 C64 1.399 . S
C65 C68 1.396 . S
C65 C77 1.453 . S
C65 C78 1.684 . S
H66 C90 0.948 . S
C67 C63 1.397 . S
C67 C68 1.394 . S
C67 C86 1.723 . S
C68 C65 1.396 . S
C68 C67 1.394 . S
C68 C98 1.723 . S
H69 C92 0.947 . S
H70 C93 0.948 . S
H71 C99 0.982 . S
H72 C100 0.979 . S
H73 C100 0.980 . S
H74 C100 0.983 . S
H75 C99 0.979 . S
H76 C99 0.977 . S
C77 C65 1.453 . S
C77 H106 0.982 . S
C77 H107 0.979 . S
C77 H108 0.977 . S
C78 C65 1.684 . S
C78 H103 0.979 . S
C78 H104 0.980 . S
C78 H105 0.983 . S
C79 C80 1.391 . S
C79 C84 1.391 . S
C79 H109 0.948 . S
C80 C79 1.391 . S
C80 C81 1.391 . S
C81 C80 1.391 . S
C81 C82 1.392 . S
C81 H110 0.947 . S
C82 C81 1.392 . S
C82 C83 1.419 . S
C82 H111 0.948 . S
C83 C82 1.419 . S
C83 C84 1.391 . S
C83 C87 1.397 . S
C84 C79 1.391 . S
C84 C83 1.391 . S
C84 C85 1.399 . S
C85 C84 1.399 . S
C85 C86 1.396 . S
C85 C88 1.453 . S
C85 C89 1.684 . S
C86 C67 1.723 . S
C86 C85 1.396 . S
C86 C87 1.394 . S
C87 C83 1.397 . S
C87 C86 1.394 . S
C87 C97 1.723 . S
C88 C85 1.453 . S
C88 H112 0.982 . S
C88 H113 0.979 . S
C88 H114 0.977 . S
C89 C85 1.684 . S
C89 H115 0.979 . S
C89 H116 0.980 . S
C89 H117 0.983 . S
C90 H66 0.948 . S
C90 C91 1.391 . S
C90 C95 1.391 . S
C91 C90 1.391 . S
C91 C92 1.391 . S
C92 H69 0.947 . S
C92 C91 1.391 . S
C92 C93 1.392 . S
C93 H70 0.948 . S
C93 C92 1.392 . S
C93 C94 1.419 . S
C94 C93 1.419 . S
C94 C95 1.391 . S
C94 C98 1.397 . S
C95 C90 1.391 . S
C95 C94 1.391 . S
C95 C96 1.399 . S
C96 C95 1.399 . S
C96 C97 1.396 . S
C96 C99 1.453 . S
C96 C100 1.684 . S
C97 C87 1.723 . S
C97 C96 1.396 . S
C97 C98 1.394 . S
C98 C68 1.723 . S
C98 C94 1.397 . S
C98 C97 1.394 . S
C99 H71 0.982 . S
C99 H75 0.979 . S
C99 H76 0.977 . S
C99 C96 1.453 . S
C100 H72 0.979 . S
C100 H73 0.980 . S
C100 H74 0.983 . S
C100 C96 1.684 . S
H101 C119 0.948 . S
H102 C60 0.948 . S
H103 C78 0.979 . S
H104 C78 0.980 . S
H105 C78 0.983 . S
H106 C77 0.982 . S
H107 C77 0.979 . S
H108 C77 0.977 . S
H109 C79 0.948 . S
H110 C81 0.947 . S
H111 C82 0.948 . S
H112 C88 0.982 . S
H113 C88 0.979 . S
H114 C88 0.977 . S
H115 C89 0.979 . S
H116 C89 0.980 . S
H117 C89 0.983 . S
H118 C62 0.947 . S
C119 C62 1.392 . S
C119 C63 1.419 . S
C119 H101 0.948 . S
C120 C121 1.389 . S
C120 C124 1.391 . S
C120 H162 0.951 1_655 S
C121 C120 1.389 . S
C121 C122 1.391 . S
C122 C121 1.391 . S
C122 H178 0.947 . S
C122 C179 1.392 . S
C123 C124 1.391 . S
C123 C127 1.397 1_556 S
C123 C179 1.419 . S
C124 C120 1.391 . S
C124 C123 1.391 . S
C124 C125 1.399 1_656 S
C125 C124 1.399 1_454 S
C125 C128 1.396 1_455 S
C125 C137 1.453 . S
C125 C138 1.684 . S
H126 C150 0.948 . S
C127 C123 1.397 1_554 S
C127 C128 1.394 . S
C127 C146 1.723 . S
C128 C125 1.396 1_655 S
C128 C127 1.394 . S
C128 C158 1.723 . S
H129 C152 0.947 . S
H130 C153 0.948 . S
H131 C159 0.982 . S
H132 C160 0.979 . S
H133 C160 0.980 . S
H134 C160 0.983 . S
H135 C159 0.979 . S
H136 C159 0.977 . S
C137 C125 1.453 . S
C137 H166 0.982 1_455 S
C137 H167 0.979 . S
C137 H168 0.977 . S
C138 C125 1.684 . S
C138 H163 0.979 . S
C138 H164 0.980 . S
C138 H165 0.983 . S
C139 C140 1.389 . S
C139 C144 1.391 . S
C139 H169 0.951 1_554 S
C140 C139 1.389 . S
C140 C141 1.391 . S
C141 C140 1.391 . S
C141 C142 1.392 . S
C141 H170 0.947 . S
C142 C141 1.392 . S
C142 C143 1.419 . S
C142 H171 0.948 . S
C143 C142 1.419 . S
C143 C144 1.391 . S
C143 C147 1.397 . S
C144 C139 1.391 . S
C144 C143 1.391 . S
C144 C145 1.399 1_554 S
C145 C144 1.399 1_556 S
C145 C146 1.396 1_556 S
C145 C148 1.453 . S
C145 C149 1.684 . S
C146 C127 1.723 . S
C146 C145 1.396 1_554 S
C146 C147 1.394 . S
C147 C143 1.397 . S
C147 C146 1.394 . S
C147 C157 1.723 . S
C148 C145 1.453 . S
C148 H172 0.982 1_556 S
C148 H173 0.979 . S
C148 H174 0.977 . S
C149 C145 1.684 . S
C149 H175 0.979 . S
C149 H176 0.980 . S
C149 H177 0.983 . S
C150 H126 0.948 . S
C150 C151 1.391 . S
C150 C155 1.391 . S
C151 C150 1.391 . S
C151 C152 1.391 . S
C152 H129 0.947 . S
C152 C151 1.391 . S
C152 C153 1.392 . S
C153 H130 0.948 . S
C153 C152 1.392 . S
C153 C154 1.419 . S
C154 C153 1.419 . S
C154 C155 1.391 . S
C154 C158 1.397 1_455 S
C155 C150 1.391 . S
C155 C154 1.391 . S
C155 C156 1.399 1_455 S
C156 C155 1.399 1_655 S
C156 C157 1.396 . S
C156 C159 1.453 . S
C156 C160 1.684 . S
C157 C147 1.723 . S
C157 C156 1.396 . S
C157 C158 1.394 . S
C158 C128 1.723 . S
C158 C154 1.397 1_655 S
C158 C157 1.394 . S
C159 H131 0.982 . S
C159 H135 0.979 . S
C159 H136 0.977 . S
C159 C156 1.453 . S
C160 H132 0.979 . S
C160 H133 0.980 . S
C160 H134 0.983 . S
C160 C156 1.684 . S
H161 C179 0.948 . S
H162 C120 0.951 1_455 S
H163 C138 0.979 . S
H164 C138 0.980 . S
H165 C138 0.983 . S
H166 C137 0.982 1_655 S
H167 C137 0.979 . S
H168 C137 0.977 . S
H169 C139 0.951 1_556 S
H170 C141 0.947 . S
H171 C142 0.948 . S
H172 C148 0.982 1_554 S
H173 C148 0.979 . S
H174 C148 0.977 . S
H175 C149 0.979 . S
H176 C149 0.980 . S
H177 C149 0.983 . S
H178 C122 0.947 . S
C179 C122 1.392 . S
C179 C123 1.419 . S
C179 H161 0.948 . S
C180 C181 1.391 . S
C180 C184 1.391 . S
C180 H222 0.948 . S
C181 C180 1.391 . S
C181 C182 1.391 . S
C182 C181 1.391 . S
C182 H238 0.947 . S
C182 C239 1.392 . S
C183 C184 1.391 . S
C183 C187 1.397 . S
C183 C239 1.419 . S
C184 C180 1.391 . S
C184 C183 1.391 . S
C184 C185 1.399 . S
C185 C184 1.399 . S
C185 C188 1.396 . S
C185 C197 1.453 . S
C185 C198 1.684 . S
H186 C210 0.948 . S
C187 C183 1.397 . S
C187 C188 1.394 . S
C187 C206 1.723 . S
C188 C185 1.396 . S
C188 C187 1.394 . S
C188 C218 1.723 . S
H189 C212 0.947 . S
H190 C213 0.948 . S
H191 C219 0.982 . S
H192 C220 0.979 . S
H193 C220 0.980 . S
H194 C220 0.983 . S
H195 C219 0.979 . S
H196 C219 0.977 . S
C197 C185 1.453 . S
C197 H226 0.982 . S
C197 H227 0.979 . S
C197 H228 0.977 . S
C198 C185 1.684 . S
C198 H223 0.979 . S
C198 H224 0.980 . S
C198 H225 0.983 . S
C199 C200 1.391 . S
C199 C204 1.391 . S
C199 H229 0.948 . S
C200 C199 1.391 . S
C200 C201 1.391 . S
C201 C200 1.391 . S
C201 C202 1.392 . S
C201 H230 0.947 . S
C202 C201 1.392 . S
C202 C203 1.419 . S
C202 H231 0.948 . S
C203 C202 1.419 . S
C203 C204 1.391 . S
C203 C207 1.397 . S
C204 C199 1.391 . S
C204 C203 1.391 . S
C204 C205 1.399 . S
C205 C204 1.399 . S
C205 C206 1.396 . S
C205 C208 1.453 . S
C205 C209 1.684 . S
C206 C187 1.723 . S
C206 C205 1.396 . S
C206 C207 1.394 . S
C207 C203 1.397 . S
C207 C206 1.394 . S
C207 C217 1.723 . S
C208 C205 1.453 . S
C208 H232 0.982 . S
C208 H233 0.979 . S
C208 H234 0.977 . S
C209 C205 1.684 . S
C209 H235 0.979 . S
C209 H236 0.980 . S
C209 H237 0.983 . S
C210 H186 0.948 . S
C210 C211 1.391 . S
C210 C215 1.391 . S
C211 C210 1.391 . S
C211 C212 1.391 . S
C212 H189 0.947 . S
C212 C211 1.391 . S
C212 C213 1.392 . S
C213 H190 0.948 . S
C213 C212 1.392 . S
C213 C214 1.419 . S
C214 C213 1.419 . S
C214 C215 1.391 . S
C214 C218 1.397 . S
C215 C210 1.391 . S
C215 C214 1.391 . S
C215 C216 1.399 . S
C216 C215 1.399 . S
C216 C217 1.396 . S
C216 C219 1.453 . S
C216 C220 1.684 . S
C217 C207 1.723 . S
C217 C216 1.396 . S
C217 C218 1.394 . S
C218 C188 1.723 . S
C218 C214 1.397 . S
C218 C217 1.394 . S
C219 H191 0.982 . S
C219 H195 0.979 . S
C219 H196 0.977 . S
C219 C216 1.453 . S
C220 H192 0.979 . S
C220 H193 0.980 . S
C220 H194 0.983 . S
C220 C216 1.684 . S
H221 C239 0.948 . S
H222 C180 0.948 . S
H223 C198 0.979 . S
H224 C198 0.980 . S
H225 C198 0.983 . S
H226 C197 0.982 . S
H227 C197 0.979 . S
H228 C197 0.977 . S
H229 C199 0.948 . S
H230 C201 0.947 . S
H231 C202 0.948 . S
H232 C208 0.982 . S
H233 C208 0.979 . S
H234 C208 0.977 . S
H235 C209 0.979 . S
H236 C209 0.980 . S
H237 C209 0.983 . S
H238 C182 0.947 . S
C239 C182 1.392 . S
C239 C183 1.419 . S
C239 H221 0.948 . S
C240 C241 1.391 . S
C240 C244 1.391 . S
C240 H282 0.948 . S
C241 C240 1.391 . S
C241 C242 1.391 1_455 S
C242 C241 1.391 1_655 S
C242 H298 0.947 . S
C242 C299 1.392 . S
C243 C244 1.391 . S
C243 C247 1.397 . S
C243 C299 1.419 1_455 S
C244 C240 1.391 . S
C244 C243 1.391 . S
C244 C245 1.399 . S
C245 C244 1.399 . S
C245 C248 1.396 . S
C245 C257 1.453 . S
C245 C258 1.684 . S
H246 C270 0.948 . S
C247 C243 1.397 . S
C247 C248 1.394 . S
C247 C266 1.723 . S
C248 C245 1.396 . S
C248 C247 1.394 . S
C248 C278 1.723 . S
H249 C272 0.947 . S
H250 C273 0.948 . S
H251 C279 0.982 . S
H252 C280 0.979 . S
H253 C280 0.980 . S
H254 C280 0.983 . S
H255 C279 0.979 . S
H256 C279 0.977 . S
C257 C245 1.453 . S
C257 H286 0.982 . S
C257 H287 0.979 . S
C257 H288 0.977 . S
C258 C245 1.684 . S
C258 H283 0.979 . S
C258 H284 0.980 . S
C258 H285 0.983 . S
C259 C260 1.391 . S
C259 C264 1.391 . S
C259 H289 0.948 . S
C260 C259 1.391 . S
C260 C261 1.391 1_565 S
C261 C260 1.391 1_545 S
C261 C262 1.392 1_655 S
C261 H290 0.947 . S
C262 C261 1.392 1_455 S
C262 C263 1.419 1_545 S
C262 H291 0.948 . S
C263 C262 1.419 1_565 S
C263 C264 1.391 1_455 S
C263 C267 1.397 . S
C264 C259 1.391 . S
C264 C263 1.391 1_655 S
C264 C265 1.399 . S
C265 C264 1.399 . S
C265 C266 1.396 1_655 S
C265 C268 1.453 . S
C265 C269 1.684 . S
C266 C247 1.723 . S
C266 C265 1.396 1_455 S
C266 C267 1.394 . S
C267 C263 1.397 . S
C267 C266 1.394 . S
C267 C277 1.723 . S
C268 C265 1.453 . S
C268 H292 0.982 . S
C268 H293 0.979 . S
C268 H294 0.977 . S
C269 C265 1.684 . S
C269 H295 0.979 . S
C269 H296 0.980 . S
C269 H297 0.983 . S
C270 H246 0.948 . S
C270 C271 1.391 . S
C270 C275 1.391 . S
C271 C270 1.391 . S
C271 C272 1.391 . S
C272 H249 0.947 . S
C272 C271 1.391 . S
C272 C273 1.392 1_545 S
C273 H250 0.948 . S
C273 C272 1.392 1_565 S
C273 C274 1.419 . S
C274 C273 1.419 . S
C274 C275 1.391 1_565 S
C274 C278 1.397 . S
C275 C270 1.391 . S
C275 C274 1.391 1_545 S
C275 C276 1.399 . S
C276 C275 1.399 . S
C276 C277 1.396 1_545 S
C276 C279 1.453 . S
C276 C280 1.684 . S
C277 C267 1.723 . S
C277 C276 1.396 1_565 S
C277 C278 1.394 . S
C278 C248 1.723 . S
C278 C274 1.397 . S
C278 C277 1.394 . S
C279 H251 0.982 . S
C279 H255 0.979 . S
C279 H256 0.977 . S
C279 C276 1.453 . S
C280 H252 0.979 . S
C280 H253 0.980 . S
C280 H254 0.983 . S
C280 C276 1.684 . S
H281 C299 0.948 . S
H282 C240 0.948 . S
H283 C258 0.979 . S
H284 C258 0.980 . S
H285 C258 0.983 . S
H286 C257 0.982 . S
H287 C257 0.979 . S
H288 C257 0.977 . S
H289 C259 0.948 . S
H290 C261 0.947 . S
H291 C262 0.948 . S
H292 C268 0.982 . S
H293 C268 0.979 . S
H294 C268 0.977 . S
H295 C269 0.979 . S
H296 C269 0.980 . S
H297 C269 0.983 . S
H298 C242 0.947 . S
C299 C242 1.392 . S
C299 C243 1.419 1_655 S
C299 H281 0.948 . S
C300 C301 1.391 . S
C300 C304 1.391 . S
C300 H342 0.948 . S
C301 C300 1.391 . S
C301 C302 1.391 . S
C302 C301 1.391 . S
C302 H358 0.947 . S
C302 C359 1.392 . S
C303 C304 1.391 . S
C303 C307 1.397 . S
C303 C359 1.419 . S
C304 C300 1.391 . S
C304 C303 1.391 . S
C304 C305 1.399 . S
C305 C304 1.399 . S
C305 C308 1.396 . S
C305 C317 1.453 . S
C305 C318 1.684 . S
H306 C330 0.948 . S
C307 C303 1.397 . S
C307 C308 1.394 . S
C307 C326 1.723 . S
C308 C305 1.396 . S
C308 C307 1.394 . S
C308 C338 1.723 . S
H309 C332 0.947 . S
H310 C333 0.948 . S
H311 C339 0.982 . S
H312 C340 0.979 . S
H313 C340 0.980 . S
H314 C340 0.983 . S
H315 C339 0.979 . S
H316 C339 0.977 . S
C317 C305 1.453 . S
C317 H346 0.982 . S
C317 H347 0.979 . S
C317 H348 0.977 . S
C318 C305 1.684 . S
C318 H343 0.979 . S
C318 H344 0.980 . S
C318 H345 0.983 . S
C319 C320 1.391 . S
C319 C324 1.391 . S
C319 H349 0.948 . S
C320 C319 1.391 . S
C320 C321 1.391 . S
C321 C320 1.391 . S
C321 C322 1.392 . S
C321 H350 0.947 . S
C322 C321 1.392 . S
C322 C323 1.419 . S
C322 H351 0.948 . S
C323 C322 1.419 . S
C323 C324 1.391 . S
C323 C327 1.397 . S
C324 C319 1.391 . S
C324 C323 1.391 . S
C324 C325 1.399 . S
C325 C324 1.399 . S
C325 C326 1.396 . S
C325 C328 1.453 . S
C325 C329 1.684 . S
C326 C307 1.723 . S
C326 C325 1.396 . S
C326 C327 1.394 . S
C327 C323 1.397 . S
C327 C326 1.394 . S
C327 C337 1.723 . S
C328 C325 1.453 . S
C328 H352 0.982 . S
C328 H353 0.979 . S
C328 H354 0.977 . S
C329 C325 1.684 . S
C329 H355 0.979 . S
C329 H356 0.980 . S
C329 H357 0.983 . S
C330 H306 0.948 . S
C330 C331 1.391 . S
C330 C335 1.391 . S
C331 C330 1.391 . S
C331 C332 1.391 . S
C332 H309 0.947 . S
C332 C331 1.391 . S
C332 C333 1.392 . S
C333 H310 0.948 . S
C333 C332 1.392 . S
C333 C334 1.419 . S
C334 C333 1.419 . S
C334 C335 1.391 . S
C334 C338 1.397 . S
C335 C330 1.391 . S
C335 C334 1.391 . S
C335 C336 1.399 . S
C336 C335 1.399 . S
C336 C337 1.396 . S
C336 C339 1.453 . S
C336 C340 1.684 . S
C337 C327 1.723 . S
C337 C336 1.396 . S
C337 C338 1.394 . S
C338 C308 1.723 . S
C338 C334 1.397 . S
C338 C337 1.394 . S
C339 H311 0.982 . S
C339 H315 0.979 . S
C339 H316 0.977 . S
C339 C336 1.453 . S
C340 H312 0.979 . S
C340 H313 0.980 . S
C340 H314 0.983 . S
C340 C336 1.684 . S
H341 C359 0.948 . S
H342 C300 0.948 . S
H343 C318 0.979 . S
H344 C318 0.980 . S
H345 C318 0.983 . S
H346 C317 0.982 . S
H347 C317 0.979 . S
H348 C317 0.977 . S
H349 C319 0.948 . S
H350 C321 0.947 . S
H351 C322 0.948 . S
H352 C328 0.982 . S
H353 C328 0.979 . S
H354 C328 0.977 . S
H355 C329 0.979 . S
H356 C329 0.980 . S
H357 C329 0.983 . S
H358 C302 0.947 . S
C359 C302 1.392 . S
C359 C303 1.419 . S
C359 H341 0.948 . S
C360 C361 1.391 . S
C360 C364 1.391 . S
C360 H402 0.948 . S
C361 C360 1.391 . S
C361 C362 1.391 . S
C362 C361 1.391 . S
C362 H418 0.947 . S
C362 C419 1.392 . S
C363 C364 1.391 . S
C363 C367 1.397 . S
C363 C419 1.419 . S
C364 C360 1.391 . S
C364 C363 1.391 . S
C364 C365 1.399 . S
C365 C364 1.399 . S
C365 C368 1.396 . S
C365 C377 1.453 . S
C365 C378 1.684 . S
H366 C390 0.951 1_455 S
C367 C363 1.397 . S
C367 C368 1.394 . S
C367 C386 1.723 . S
C368 C365 1.396 . S
C368 C367 1.394 . S
C368 C398 1.723 . S
H369 C392 0.947 . S
H370 C393 0.948 . S
H371 C399 0.982 1_655 S
H372 C400 0.979 . S
H373 C400 0.980 . S
H374 C400 0.983 . S
H375 C399 0.979 . S
H376 C399 0.977 . S
C377 C365 1.453 . S
C377 H406 0.982 . S
C377 H407 0.979 . S
C377 H408 0.977 . S
C378 C365 1.684 . S
C378 H403 0.979 . S
C378 H404 0.980 . S
C378 H405 0.983 . S
C379 C380 1.391 . S
C379 C384 1.391 . S
C379 H409 0.948 . S
C380 C379 1.391 . S
C380 C381 1.391 . S
C381 C380 1.391 . S
C381 C382 1.392 . S
C381 H410 0.947 . S
C382 C381 1.392 . S
C382 C383 1.419 . S
C382 H411 0.948 . S
C383 C382 1.419 . S
C383 C384 1.391 . S
C383 C387 1.397 1_455 S
C384 C379 1.391 . S
C384 C383 1.391 . S
C384 C385 1.399 1_455 S
C385 C384 1.399 1_655 S
C385 C386 1.396 . S
C385 C388 1.453 . S
C385 C389 1.684 . S
C386 C367 1.723 . S
C386 C385 1.396 . S
C386 C387 1.394 . S
C387 C383 1.397 1_655 S
C387 C386 1.394 . S
C387 C397 1.723 . S
C388 C385 1.453 . S
C388 H412 0.982 . S
C388 H413 0.979 . S
C388 H414 0.977 . S
C389 C385 1.684 . S
C389 H415 0.979 . S
C389 H416 0.980 . S
C389 H417 0.983 . S
C390 H366 0.951 1_655 S
C390 C391 1.389 . S
C390 C395 1.391 . S
C391 C390 1.389 . S
C391 C392 1.391 . S
C392 H369 0.947 . S
C392 C391 1.391 . S
C392 C393 1.392 . S
C393 H370 0.948 . S
C393 C392 1.392 . S
C393 C394 1.419 . S
C394 C393 1.419 . S
C394 C395 1.391 . S
C394 C398 1.397 . S
C395 C390 1.391 . S
C395 C394 1.391 . S
C395 C396 1.399 1_655 S
C396 C395 1.399 1_455 S
C396 C397 1.396 1_455 S
C396 C399 1.453 . S
C396 C400 1.684 . S
C397 C387 1.723 . S
C397 C396 1.396 1_655 S
C397 C398 1.394 . S
C398 C368 1.723 . S
C398 C394 1.397 . S
C398 C397 1.394 . S
C399 H371 0.982 1_455 S
C399 H375 0.979 . S
C399 H376 0.977 . S
C399 C396 1.453 . S
C400 H372 0.979 . S
C400 H373 0.980 . S
C400 H374 0.983 . S
C400 C396 1.684 . S
H401 C419 0.948 . S
H402 C360 0.948 . S
H403 C378 0.979 . S
H404 C378 0.980 . S
H405 C378 0.983 . S
H406 C377 0.982 . S
H407 C377 0.979 . S
H408 C377 0.977 . S
H409 C379 0.948 . S
H410 C381 0.947 . S
H411 C382 0.948 . S
H412 C388 0.982 . S
H413 C388 0.979 . S
H414 C388 0.977 . S
H415 C389 0.979 . S
H416 C389 0.980 . S
H417 C389 0.983 . S
H418 C362 0.947 . S
C419 C362 1.392 . S
C419 C363 1.419 . S
C419 H401 0.948 . S
C420 C421 1.391 . S
C420 C424 1.391 . S
C420 H462 0.948 . S
C421 C420 1.391 . S
C421 C422 1.391 . S
C422 C421 1.391 . S
C422 H478 0.947 . S
C422 C479 1.392 . S
C423 C424 1.391 . S
C423 C427 1.397 . S
C423 C479 1.419 . S
C424 C420 1.391 . S
C424 C423 1.391 . S
C424 C425 1.399 . S
C425 C424 1.399 . S
C425 C428 1.396 . S
C425 C437 1.453 . S
C425 C438 1.684 . S
H426 C450 0.948 . S
C427 C423 1.397 . S
C427 C428 1.394 . S
C427 C446 1.723 . S
C428 C425 1.396 . S
C428 C427 1.394 . S
C428 C458 1.723 . S
H429 C452 0.947 . S
H430 C453 0.948 . S
H431 C459 0.982 . S
H432 C460 0.979 . S
H433 C460 0.980 . S
H434 C460 0.983 . S
H435 C459 0.979 . S
H436 C459 0.977 . S
C437 C425 1.453 . S
C437 H466 0.982 . S
C437 H467 0.979 . S
C437 H468 0.977 . S
C438 C425 1.684 . S
C438 H463 0.979 . S
C438 H464 0.980 . S
C438 H465 0.983 . S
C439 C440 1.391 . S
C439 C444 1.391 . S
C439 H469 0.948 . S
C440 C439 1.391 . S
C440 C441 1.391 . S
C441 C440 1.391 . S
C441 C442 1.392 . S
C441 H470 0.947 . S
C442 C441 1.392 . S
C442 C443 1.419 . S
C442 H471 0.948 . S
C443 C442 1.419 . S
C443 C444 1.391 . S
C443 C447 1.397 . S
C444 C439 1.391 . S
C444 C443 1.391 . S
C444 C445 1.399 . S
C445 C444 1.399 . S
C445 C446 1.396 . S
C445 C448 1.453 . S
C445 C449 1.684 . S
C446 C427 1.723 . S
C446 C445 1.396 . S
C446 C447 1.394 . S
C447 C443 1.397 . S
C447 C446 1.394 . S
C447 C457 1.723 . S
C448 C445 1.453 . S
C448 H472 0.982 . S
C448 H473 0.979 . S
C448 H474 0.977 . S
C449 C445 1.684 . S
C449 H475 0.979 . S
C449 H476 0.980 . S
C449 H477 0.983 . S
C450 H426 0.948 . S
C450 C451 1.391 . S
C450 C455 1.391 . S
C451 C450 1.391 . S
C451 C452 1.391 . S
C452 H429 0.947 . S
C452 C451 1.391 . S
C452 C453 1.392 . S
C453 H430 0.948 . S
C453 C452 1.392 . S
C453 C454 1.419 . S
C454 C453 1.419 . S
C454 C455 1.391 . S
C454 C458 1.397 . S
C455 C450 1.391 . S
C455 C454 1.391 . S
C455 C456 1.399 . S
C456 C455 1.399 . S
C456 C457 1.396 . S
C456 C459 1.453 . S
C456 C460 1.684 . S
C457 C447 1.723 . S
C457 C456 1.396 . S
C457 C458 1.394 . S
C458 C428 1.723 . S
C458 C454 1.397 . S
C458 C457 1.394 . S
C459 H431 0.982 . S
C459 H435 0.979 . S
C459 H436 0.977 . S
C459 C456 1.453 . S
C460 H432 0.979 . S
C460 H433 0.980 . S
C460 H434 0.983 . S
C460 C456 1.684 . S
H461 C479 0.948 . S
H462 C420 0.948 . S
H463 C438 0.979 . S
H464 C438 0.980 . S
H465 C438 0.983 . S
H466 C437 0.982 . S
H467 C437 0.979 . S
H468 C437 0.977 . S
H469 C439 0.948 . S
H470 C441 0.947 . S
H471 C442 0.948 . S
H472 C448 0.982 . S
H473 C448 0.979 . S
H474 C448 0.977 . S
H475 C449 0.979 . S
H476 C449 0.980 . S
H477 C449 0.983 . S
H478 C422 0.947 . S
C479 C422 1.392 . S
C479 C423 1.419 . S
C479 H461 0.948 . S
C480 C481 1.391 . S
C480 C484 1.391 . S
C480 H522 0.948 . S
C481 C480 1.391 . S
C481 C482 1.391 . S
C482 C481 1.391 . S
C482 H538 0.947 . S
C482 C539 1.392 . S
C483 C484 1.391 . S
C483 C487 1.397 . S
C483 C539 1.419 . S
C484 C480 1.391 . S
C484 C483 1.391 . S
C484 C485 1.399 . S
C485 C484 1.399 . S
C485 C488 1.396 . S
C485 C497 1.453 . S
C485 C498 1.684 . S
H486 C510 0.948 . S
C487 C483 1.397 . S
C487 C488 1.394 . S
C487 C506 1.723 . S
C488 C485 1.396 . S
C488 C487 1.394 . S
C488 C518 1.723 . S
H489 C512 0.947 . S
H490 C513 0.948 . S
H491 C519 0.982 . S
H492 C520 0.979 . S
H493 C520 0.980 . S
H494 C520 0.983 . S
H495 C519 0.979 . S
H496 C519 0.977 . S
C497 C485 1.453 . S
C497 H526 0.982 . S
C497 H527 0.979 . S
C497 H528 0.977 . S
C498 C485 1.684 . S
C498 H523 0.979 . S
C498 H524 0.980 . S
C498 H525 0.983 . S
C499 C500 1.391 . S
C499 C504 1.391 . S
C499 H529 0.948 . S
C500 C499 1.391 . S
C500 C501 1.391 . S
C501 C500 1.391 . S
C501 C502 1.392 . S
C501 H530 0.947 . S
C502 C501 1.392 . S
C502 C503 1.419 . S
C502 H531 0.948 . S
C503 C502 1.419 . S
C503 C504 1.391 . S
C503 C507 1.397 . S
C504 C499 1.391 . S
C504 C503 1.391 . S
C504 C505 1.399 . S
C505 C504 1.399 . S
C505 C506 1.396 . S
C505 C508 1.453 . S
C505 C509 1.684 . S
C506 C487 1.723 . S
C506 C505 1.396 . S
C506 C507 1.394 . S
C507 C503 1.397 . S
C507 C506 1.394 . S
C507 C517 1.723 . S
C508 C505 1.453 . S
C508 H532 0.982 . S
C508 H533 0.979 . S
C508 H534 0.977 . S
C509 C505 1.684 . S
C509 H535 0.979 . S
C509 H536 0.980 . S
C509 H537 0.983 . S
C510 H486 0.948 . S
C510 C511 1.391 . S
C510 C515 1.391 . S
C511 C510 1.391 . S
C511 C512 1.391 . S
C512 H489 0.947 . S
C512 C511 1.391 . S
C512 C513 1.392 . S
C513 H490 0.948 . S
C513 C512 1.392 . S
C513 C514 1.419 . S
C514 C513 1.419 . S
C514 C515 1.391 . S
C514 C518 1.397 . S
C515 C510 1.391 . S
C515 C514 1.391 . S
C515 C516 1.399 . S
C516 C515 1.399 . S
C516 C517 1.396 . S
C516 C519 1.453 . S
C516 C520 1.684 . S
C517 C507 1.723 . S
C517 C516 1.396 . S
C517 C518 1.394 . S
C518 C488 1.723 . S
C518 C514 1.397 . S
C518 C517 1.394 . S
C519 H491 0.982 . S
C519 H495 0.979 . S
C519 H496 0.977 . S
C519 C516 1.453 . S
C520 H492 0.979 . S
C520 H493 0.980 . S
C520 H494 0.983 . S
C520 C516 1.684 . S
H521 C539 0.948 . S
H522 C480 0.948 . S
H523 C498 0.979 . S
H524 C498 0.980 . S
H525 C498 0.983 . S
H526 C497 0.982 . S
H527 C497 0.979 . S
H528 C497 0.977 . S
H529 C499 0.948 . S
H530 C501 0.947 . S
H531 C502 0.948 . S
H532 C508 0.982 . S
H533 C508 0.979 . S
H534 C508 0.977 . S
H535 C509 0.979 . S
H536 C509 0.980 . S
H537 C509 0.983 . S
H538 C482 0.947 . S
C539 C482 1.392 . S
C539 C483 1.419 . S
C539 H521 0.948 . S
C540 C541 1.391 . S
C540 C544 1.391 . S
C540 H582 0.948 . S
C541 C540 1.391 . S
C541 C542 1.391 . S
C542 C541 1.391 . S
C542 H598 0.947 . S
C542 C599 1.392 . S
C543 C544 1.391 . S
C543 C547 1.397 . S
C543 C599 1.419 . S
C544 C540 1.391 . S
C544 C543 1.391 . S
C544 C545 1.399 . S
C545 C544 1.399 . S
C545 C548 1.396 . S
C545 C557 1.453 . S
C545 C558 1.684 . S
H546 C570 0.951 1_545 S
C547 C543 1.397 . S
C547 C548 1.394 . S
C547 C566 1.723 . S
C548 C545 1.396 . S
C548 C547 1.394 . S
C548 C578 1.723 . S
H549 C572 0.947 . S
H550 C573 0.948 . S
H551 C579 0.982 1_565 S
H552 C580 0.979 . S
H553 C580 0.980 . S
H554 C580 0.983 . S
H555 C579 0.979 . S
H556 C579 0.977 . S
C557 C545 1.453 . S
C557 H586 0.982 . S
C557 H587 0.979 . S
C557 H588 0.977 . S
C558 C545 1.684 . S
C558 H583 0.979 . S
C558 H584 0.980 . S
C558 H585 0.983 . S
C559 C560 1.391 . S
C559 C564 1.391 . S
C559 H589 0.948 . S
C560 C559 1.391 . S
C560 C561 1.391 . S
C561 C560 1.391 . S
C561 C562 1.392 . S
C561 H590 0.947 . S
C562 C561 1.392 . S
C562 C563 1.419 . S
C562 H591 0.948 . S
C563 C562 1.419 . S
C563 C564 1.391 . S
C563 C567 1.397 1_545 S
C564 C559 1.391 . S
C564 C563 1.391 . S
C564 C565 1.399 1_545 S
C565 C564 1.399 1_565 S
C565 C566 1.396 . S
C565 C568 1.453 . S
C565 C569 1.684 . S
C566 C547 1.723 . S
C566 C565 1.396 . S
C566 C567 1.394 . S
C567 C563 1.397 1_565 S
C567 C566 1.394 . S
C567 C577 1.723 . S
C568 C565 1.453 . S
C568 H592 0.982 . S
C568 H593 0.979 . S
C568 H594 0.977 . S
C569 C565 1.684 . S
C569 H595 0.979 . S
C569 H596 0.980 . S
C569 H597 0.983 . S
C570 H546 0.951 1_565 S
C570 C571 1.389 . S
C570 C575 1.391 . S
C571 C570 1.389 . S
C571 C572 1.391 . S
C572 H549 0.947 . S
C572 C571 1.391 . S
C572 C573 1.392 . S
C573 H550 0.948 . S
C573 C572 1.392 . S
C573 C574 1.419 . S
C574 C573 1.419 . S
C574 C575 1.391 . S
C574 C578 1.397 . S
C575 C570 1.391 . S
C575 C574 1.391 . S
C575 C576 1.399 1_565 S
C576 C575 1.399 1_545 S
C576 C577 1.396 1_545 S
C576 C579 1.453 . S
C576 C580 1.684 . S
C577 C567 1.723 . S
C577 C576 1.396 1_565 S
C577 C578 1.394 . S
C578 C548 1.723 . S
C578 C574 1.397 . S
C578 C577 1.394 . S
C579 H551 0.982 1_545 S
C579 H555 0.979 . S
C579 H556 0.977 . S
C579 C576 1.453 . S
C580 H552 0.979 . S
C580 H553 0.980 . S
C580 H554 0.983 . S
C580 C576 1.684 . S
H581 C599 0.948 . S
H582 C540 0.948 . S
H583 C558 0.979 . S
H584 C558 0.980 . S
H585 C558 0.983 . S
H586 C557 0.982 . S
H587 C557 0.979 . S
H588 C557 0.977 . S
H589 C559 0.948 . S
H590 C561 0.947 . S
H591 C562 0.948 . S
H592 C568 0.982 . S
H593 C568 0.979 . S
H594 C568 0.977 . S
H595 C569 0.979 . S
H596 C569 0.980 . S
H597 C569 0.983 . S
H598 C542 0.947 . S
C599 C542 1.392 . S
C599 C543 1.419 . S
C599 H581 0.948 . S
C600 C601 1.391 . S
C600 C604 1.391 . S
C600 H642 0.948 . S
C601 C600 1.391 . S
C601 C602 1.391 . S
C602 C601 1.391 . S
C602 H658 0.947 . S
C602 C659 1.392 . S
C603 C604 1.391 . S
C603 C607 1.397 . S
C603 C659 1.419 . S
C604 C600 1.391 . S
C604 C603 1.391 . S
C604 C605 1.399 . S
C605 C604 1.399 . S
C605 C608 1.396 . S
C605 C617 1.453 . S
C605 C618 1.684 . S
H606 C630 0.948 . S
C607 C603 1.397 . S
C607 C608 1.394 . S
C607 C626 1.723 . S
C608 C605 1.396 . S
C608 C607 1.394 . S
C608 C638 1.723 . S
H609 C632 0.947 . S
H610 C633 0.948 . S
H611 C639 0.982 . S
H612 C640 0.979 . S
H613 C640 0.980 . S
H614 C640 0.983 . S
H615 C639 0.979 . S
H616 C639 0.977 . S
C617 C605 1.453 . S
C617 H646 0.982 . S
C617 H647 0.979 . S
C617 H648 0.977 . S
C618 C605 1.684 . S
C618 H643 0.979 . S
C618 H644 0.980 . S
C618 H645 0.983 . S
C619 C620 1.391 . S
C619 C624 1.391 . S
C619 H649 0.948 . S
C620 C619 1.391 . S
C620 C621 1.391 . S
C621 C620 1.391 . S
C621 C622 1.392 . S
C621 H650 0.947 . S
C622 C621 1.392 . S
C622 C623 1.419 . S
C622 H651 0.948 . S
C623 C622 1.419 . S
C623 C624 1.391 . S
C623 C627 1.397 . S
C624 C619 1.391 . S
C624 C623 1.391 . S
C624 C625 1.399 . S
C625 C624 1.399 . S
C625 C626 1.396 . S
C625 C628 1.453 . S
C625 C629 1.684 . S
C626 C607 1.723 . S
C626 C625 1.396 . S
C626 C627 1.394 . S
C627 C623 1.397 . S
C627 C626 1.394 . S
C627 C637 1.723 . S
C628 C625 1.453 . S
C628 H652 0.982 . S
C628 H653 0.979 . S
C628 H654 0.977 . S
C629 C625 1.684 . S
C629 H655 0.979 . S
C629 H656 0.980 . S
C629 H657 0.983 . S
C630 H606 0.948 . S
C630 C631 1.391 . S
C630 C635 1.391 . S
C631 C630 1.391 . S
C631 C632 1.391 . S
C632 H609 0.947 . S
C632 C631 1.391 . S
C632 C633 1.392 . S
C633 H610 0.948 . S
C633 C632 1.392 . S
C633 C634 1.419 . S
C634 C633 1.419 . S
C634 C635 1.391 . S
C634 C638 1.397 . S
C635 C630 1.391 . S
C635 C634 1.391 . S
C635 C636 1.399 . S
C636 C635 1.399 . S
C636 C637 1.396 . S
C636 C639 1.453 . S
C636 C640 1.684 . S
C637 C627 1.723 . S
C637 C636 1.396 . S
C637 C638 1.394 . S
C638 C608 1.723 . S
C638 C634 1.397 . S
C638 C637 1.394 . S
C639 H611 0.982 . S
C639 H615 0.979 . S
C639 H616 0.977 . S
C639 C636 1.453 . S
C640 H612 0.979 . S
C640 H613 0.980 . S
C640 H614 0.983 . S
C640 C636 1.684 . S
H641 C659 0.948 . S
H642 C600 0.948 . S
H643 C618 0.979 . S
H644 C618 0.980 . S
H645 C618 0.983 . S
H646 C617 0.982 . S
H647 C617 0.979 . S
H648 C617 0.977 . S
H649 C619 0.948 . S
H650 C621 0.947 . S
H651 C622 0.948 . S
H652 C628 0.982 . S
H653 C628 0.979 . S
H654 C628 0.977 . S
H655 C629 0.979 . S
H656 C629 0.980 . S
H657 C629 0.983 . S
H658 C602 0.947 . S
C659 C602 1.392 . S
C659 C603 1.419 . S
C659 H641 0.948 . S
C660 C661 1.391 . S
C660 C664 1.391 . S
C660 H702 0.948 . S
C661 C660 1.391 . S
C661 C662 1.391 . S
C662 C661 1.391 . S
C662 H718 0.947 . S
C662 C719 1.392 . S
C663 C664 1.391 . S
C663 C667 1.397 . S
C663 C719 1.419 . S
C664 C660 1.391 . S
C664 C663 1.391 . S
C664 C665 1.399 . S
C665 C664 1.399 . S
C665 C668 1.396 . S
C665 C677 1.453 . S
C665 C678 1.684 . S
H666 C690 0.948 . S
C667 C663 1.397 . S
C667 C668 1.394 . S
C667 C686 1.723 . S
C668 C665 1.396 . S
C668 C667 1.394 . S
C668 C698 1.723 . S
H669 C692 0.947 . S
H670 C693 0.948 . S
H671 C699 0.982 . S
H672 C700 0.979 . S
H673 C700 0.980 . S
H674 C700 0.983 . S
H675 C699 0.979 . S
H676 C699 0.977 . S
C677 C665 1.453 . S
C677 H706 0.982 . S
C677 H707 0.979 . S
C677 H708 0.977 . S
C678 C665 1.684 . S
C678 H703 0.979 . S
C678 H704 0.980 . S
C678 H705 0.983 . S
C679 C680 1.391 . S
C679 C684 1.391 . S
C679 H709 0.948 . S
C680 C679 1.391 . S
C680 C681 1.391 . S
C681 C680 1.391 . S
C681 C682 1.392 . S
C681 H710 0.947 . S
C682 C681 1.392 . S
C682 C683 1.419 . S
C682 H711 0.948 . S
C683 C682 1.419 . S
C683 C684 1.391 . S
C683 C687 1.397 . S
C684 C679 1.391 . S
C684 C683 1.391 . S
C684 C685 1.399 . S
C685 C684 1.399 . S
C685 C686 1.396 . S
C685 C688 1.453 . S
C685 C689 1.684 . S
C686 C667 1.723 . S
C686 C685 1.396 . S
C686 C687 1.394 . S
C687 C683 1.397 . S
C687 C686 1.394 . S
C687 C697 1.723 . S
C688 C685 1.453 . S
C688 H712 0.982 . S
C688 H713 0.979 . S
C688 H714 0.977 . S
C689 C685 1.684 . S
C689 H715 0.979 . S
C689 H716 0.980 . S
C689 H717 0.983 . S
C690 H666 0.948 . S
C690 C691 1.391 . S
C690 C695 1.391 . S
C691 C690 1.391 . S
C691 C692 1.391 . S
C692 H669 0.947 . S
C692 C691 1.391 . S
C692 C693 1.392 . S
C693 H670 0.948 . S
C693 C692 1.392 . S
C693 C694 1.419 . S
C694 C693 1.419 . S
C694 C695 1.391 . S
C694 C698 1.397 . S
C695 C690 1.391 . S
C695 C694 1.391 . S
C695 C696 1.399 . S
C696 C695 1.399 . S
C696 C697 1.396 . S
C696 C699 1.453 . S
C696 C700 1.684 . S
C697 C687 1.723 . S
C697 C696 1.396 . S
C697 C698 1.394 . S
C698 C668 1.723 . S
C698 C694 1.397 . S
C698 C697 1.394 . S
C699 H671 0.982 . S
C699 H675 0.979 . S
C699 H676 0.977 . S
C699 C696 1.453 . S
C700 H672 0.979 . S
C700 H673 0.980 . S
C700 H674 0.983 . S
C700 C696 1.684 . S
H701 C719 0.948 . S
H702 C660 0.948 . S
H703 C678 0.979 . S
H704 C678 0.980 . S
H705 C678 0.983 . S
H706 C677 0.982 . S
H707 C677 0.979 . S
H708 C677 0.977 . S
H709 C679 0.948 . S
H710 C681 0.947 . S
H711 C682 0.948 . S
H712 C688 0.982 . S
H713 C688 0.979 . S
H714 C688 0.977 . S
H715 C689 0.979 . S
H716 C689 0.980 . S
H717 C689 0.983 . S
H718 C662 0.947 . S
C719 C662 1.392 . S
C719 C663 1.419 . S
C719 H701 0.948 . S
C720 C721 1.391 . S
C720 C724 1.391 . S
C720 H762 0.948 . S
C721 C720 1.391 . S
C721 C722 1.391 . S
C722 C721 1.391 . S
C722 H778 0.947 . S
C722 C779 1.392 . S
C723 C724 1.391 . S
C723 C727 1.397 . S
C723 C779 1.419 . S
C724 C720 1.391 . S
C724 C723 1.391 . S
C724 C725 1.399 . S
C725 C724 1.399 . S
C725 C728 1.396 . S
C725 C737 1.453 . S
C725 C738 1.684 . S
H726 C750 0.948 . S
C727 C723 1.397 . S
C727 C728 1.394 . S
C727 C746 1.723 . S
C728 C725 1.396 . S
C728 C727 1.394 . S
C728 C758 1.723 . S
H729 C752 0.947 . S
H730 C753 0.948 . S
H731 C759 0.982 . S
H732 C760 0.979 . S
H733 C760 0.980 . S
H734 C760 0.983 . S
H735 C759 0.979 . S
H736 C759 0.977 . S
C737 C725 1.453 . S
C737 H766 0.982 . S
C737 H767 0.979 . S
C737 H768 0.977 . S
C738 C725 1.684 . S
C738 H763 0.979 . S
C738 H764 0.980 . S
C738 H765 0.983 . S
C739 C740 1.391 . S
C739 C744 1.391 . S
C739 H769 0.948 . S
C740 C739 1.391 . S
C740 C741 1.391 . S
C741 C740 1.391 . S
C741 C742 1.392 . S
C741 H770 0.947 . S
C742 C741 1.392 . S
C742 C743 1.419 . S
C742 H771 0.948 . S
C743 C742 1.419 . S
C743 C744 1.391 . S
C743 C747 1.397 . S
C744 C739 1.391 . S
C744 C743 1.391 . S
C744 C745 1.399 . S
C745 C744 1.399 . S
C745 C746 1.396 . S
C745 C748 1.453 . S
C745 C749 1.684 . S
C746 C727 1.723 . S
C746 C745 1.396 . S
C746 C747 1.394 . S
C747 C743 1.397 . S
C747 C746 1.394 . S
C747 C757 1.723 . S
C748 C745 1.453 . S
C748 H772 0.982 . S
C748 H773 0.979 . S
C748 H774 0.977 . S
C749 C745 1.684 . S
C749 H775 0.979 . S
C749 H776 0.980 . S
C749 H777 0.983 . S
C750 H726 0.948 . S
C750 C751 1.391 . S
C750 C755 1.391 . S
C751 C750 1.391 . S
C751 C752 1.391 . S
C752 H729 0.947 . S
C752 C751 1.391 . S
C752 C753 1.392 . S
C753 H730 0.948 . S
C753 C752 1.392 . S
C753 C754 1.419 . S
C754 C753 1.419 . S
C754 C755 1.391 . S
C754 C758 1.397 . S
C755 C750 1.391 . S
C755 C754 1.391 . S
C755 C756 1.399 . S
C756 C755 1.399 . S
C756 C757 1.396 . S
C756 C759 1.453 . S
C756 C760 1.684 . S
C757 C747 1.723 . S
C757 C756 1.396 . S
C757 C758 1.394 . S
C758 C728 1.723 . S
C758 C754 1.397 . S
C758 C757 1.394 . S
C759 H731 0.982 . S
C759 H735 0.979 . S
C759 H736 0.977 . S
C759 C756 1.453 . S
C760 H732 0.979 . S
C760 H733 0.980 . S
C760 H734 0.983 . S
C760 C756 1.684 . S
H761 C779 0.948 . S
H762 C720 0.948 . S
H763 C738 0.979 . S
H764 C738 0.980 . S
H765 C738 0.983 . S
H766 C737 0.982 . S
H767 C737 0.979 . S
H768 C737 0.977 . S
H769 C739 0.948 . S
H770 C741 0.947 . S
H771 C742 0.948 . S
H772 C748 0.982 . S
H773 C748 0.979 . S
H774 C748 0.977 . S
H775 C749 0.979 . S
H776 C749 0.980 . S
H777 C749 0.983 . S
H778 C722 0.947 . S
C779 C722 1.392 . S
C779 C723 1.419 . S
C779 H761 0.948 . S
C780 C781 1.391 . S
C780 C784 1.391 . S
C780 H822 0.948 . S
C781 C780 1.391 . S
C781 C782 1.391 . S
C782 C781 1.391 . S
C782 H838 0.947 . S
C782 C839 1.392 1_554 S
C783 C784 1.391 1_556 S
C783 C787 1.397 . S
C783 C839 1.419 . S
C784 C780 1.391 . S
C784 C783 1.391 1_554 S
C784 C785 1.399 . S
C785 C784 1.399 . S
C785 C788 1.396 1_554 S
C785 C797 1.453 . S
C785 C798 1.684 . S
H786 C810 0.948 . S
C787 C783 1.397 . S
C787 C788 1.394 . S
C787 C806 1.723 . S
C788 C785 1.396 1_556 S
C788 C787 1.394 . S
C788 C818 1.723 . S
H789 C812 0.947 . S
H790 C813 0.948 . S
H791 C819 0.982 . S
H792 C820 0.979 . S
H793 C820 0.980 . S
H794 C820 0.983 . S
H795 C819 0.979 . S
H796 C819 0.977 . S
C797 C785 1.453 . S
C797 H826 0.982 . S
C797 H827 0.979 . S
C797 H828 0.977 . S
C798 C785 1.684 . S
C798 H823 0.979 . S
C798 H824 0.980 . S
C798 H825 0.983 . S
C799 C800 1.391 . S
C799 C804 1.391 . S
C799 H829 0.948 . S
C800 C799 1.391 . S
C800 C801 1.391 . S
C801 C800 1.391 . S
C801 C802 1.392 . S
C801 H830 0.947 . S
C802 C801 1.392 . S
C802 C803 1.419 . S
C802 H831 0.948 . S
C803 C802 1.419 . S
C803 C804 1.391 . S
C803 C807 1.397 . S
C804 C799 1.391 . S
C804 C803 1.391 . S
C804 C805 1.399 . S
C805 C804 1.399 . S
C805 C806 1.396 . S
C805 C808 1.453 . S
C805 C809 1.684 . S
C806 C787 1.723 . S
C806 C805 1.396 . S
C806 C807 1.394 . S
C807 C803 1.397 . S
C807 C806 1.394 . S
C807 C817 1.723 . S
C808 C805 1.453 . S
C808 H832 0.982 . S
C808 H833 0.979 . S
C808 H834 0.977 . S
C809 C805 1.684 . S
C809 H835 0.979 . S
C809 H836 0.980 . S
C809 H837 0.983 . S
C810 H786 0.948 . S
C810 C811 1.391 . S
C810 C815 1.391 . S
C811 C810 1.391 . S
C811 C812 1.391 1_556 S
C812 H789 0.947 . S
C812 C811 1.391 1_554 S
C812 C813 1.392 . S
C813 H790 0.948 . S
C813 C812 1.392 . S
C813 C814 1.419 1_554 S
C814 C813 1.419 1_556 S
C814 C815 1.391 . S
C814 C818 1.397 . S
C815 C810 1.391 . S
C815 C814 1.391 . S
C815 C816 1.399 . S
C816 C815 1.399 . S
C816 C817 1.396 . S
C816 C819 1.453 . S
C816 C820 1.684 . S
C817 C807 1.723 . S
C817 C816 1.396 . S
C817 C818 1.394 . S
C818 C788 1.723 . S
C818 C814 1.397 . S
C818 C817 1.394 . S
C819 H791 0.982 . S
C819 H795 0.979 . S
C819 H796 0.977 . S
C819 C816 1.453 . S
C820 H792 0.979 . S
C820 H793 0.980 . S
C820 H794 0.983 . S
C820 C816 1.684 . S
H821 C839 0.948 . S
H822 C780 0.948 . S
H823 C798 0.979 . S
H824 C798 0.980 . S
H825 C798 0.983 . S
H826 C797 0.982 . S
H827 C797 0.979 . S
H828 C797 0.977 . S
H829 C799 0.948 . S
H830 C801 0.947 . S
H831 C802 0.948 . S
H832 C808 0.982 . S
H833 C808 0.979 . S
H834 C808 0.977 . S
H835 C809 0.979 . S
H836 C809 0.980 . S
H837 C809 0.983 . S
H838 C782 0.947 . S
C839 C782 1.392 1_556 S
C839 C783 1.419 . S
C839 H821 0.948 . S
C840 C841 1.391 . S
C840 C844 1.391 . S
C840 H882 0.948 . S
C841 C840 1.391 . S
C841 C842 1.391 . S
C842 C841 1.391 . S
C842 H898 0.947 . S
C842 C899 1.392 . S
C843 C844 1.391 . S
C843 C847 1.397 . S
C843 C899 1.419 . S
C844 C840 1.391 . S
C844 C843 1.391 . S
C844 C845 1.399 . S
C845 C844 1.399 . S
C845 C848 1.396 . S
C845 C857 1.453 . S
C845 C858 1.684 . S
H846 C870 0.948 . S
C847 C843 1.397 . S
C847 C848 1.394 . S
C847 C866 1.723 . S
C848 C845 1.396 . S
C848 C847 1.394 . S
C848 C878 1.723 . S
H849 C872 0.947 . S
H850 C873 0.948 . S
H851 C879 0.982 . S
H852 C880 0.979 . S
H853 C880 0.980 . S
H854 C880 0.983 . S
H855 C879 0.979 . S
H856 C879 0.977 . S
C857 C845 1.453 . S
C857 H886 0.982 . S
C857 H887 0.979 . S
C857 H888 0.977 . S
C858 C845 1.684 . S
C858 H883 0.979 . S
C858 H884 0.980 . S
C858 H885 0.983 . S
C859 C860 1.391 . S
C859 C864 1.391 . S
C859 H889 0.948 . S
C860 C859 1.391 . S
C860 C861 1.391 . S
C861 C860 1.391 . S
C861 C862 1.392 . S
C861 H890 0.947 . S
C862 C861 1.392 . S
C862 C863 1.419 . S
C862 H891 0.948 . S
C863 C862 1.419 . S
C863 C864 1.391 . S
C863 C867 1.397 . S
C864 C859 1.391 . S
C864 C863 1.391 . S
C864 C865 1.399 . S
C865 C864 1.399 . S
C865 C866 1.396 . S
C865 C868 1.453 . S
C865 C869 1.684 . S
C866 C847 1.723 . S
C866 C865 1.396 . S
C866 C867 1.394 . S
C867 C863 1.397 . S
C867 C866 1.394 . S
C867 C877 1.723 . S
C868 C865 1.453 . S
C868 H892 0.982 . S
C868 H893 0.979 . S
C868 H894 0.977 . S
C869 C865 1.684 . S
C869 H895 0.979 . S
C869 H896 0.980 . S
C869 H897 0.983 . S
C870 H846 0.948 . S
C870 C871 1.391 . S
C870 C875 1.391 . S
C871 C870 1.391 . S
C871 C872 1.391 . S
C872 H849 0.947 . S
C872 C871 1.391 . S
C872 C873 1.392 . S
C873 H850 0.948 . S
C873 C872 1.392 . S
C873 C874 1.419 . S
C874 C873 1.419 . S
C874 C875 1.391 . S
C874 C878 1.397 . S
C875 C870 1.391 . S
C875 C874 1.391 . S
C875 C876 1.399 . S
C876 C875 1.399 . S
C876 C877 1.396 . S
C876 C879 1.453 . S
C876 C880 1.684 . S
C877 C867 1.723 . S
C877 C876 1.396 . S
C877 C878 1.394 . S
C878 C848 1.723 . S
C878 C874 1.397 . S
C878 C877 1.394 . S
C879 H851 0.982 . S
C879 H855 0.979 . S
C879 H856 0.977 . S
C879 C876 1.453 . S
C880 H852 0.979 . S
C880 H853 0.980 . S
C880 H854 0.983 . S
C880 C876 1.684 . S
H881 C899 0.948 . S
H882 C840 0.948 . S
H883 C858 0.979 . S
H884 C858 0.980 . S
H885 C858 0.983 . S
H886 C857 0.982 . S
H887 C857 0.979 . S
H888 C857 0.977 . S
H889 C859 0.948 . S
H890 C861 0.947 . S
H891 C862 0.948 . S
H892 C868 0.982 . S
H893 C868 0.979 . S
H894 C868 0.977 . S
H895 C869 0.979 . S
H896 C869 0.980 . S
H897 C869 0.983 . S
H898 C842 0.947 . S
C899 C842 1.392 . S
C899 C843 1.419 . S
C899 H881 0.948 . S
C900 C901 1.389 . S
C900 C904 1.391 . S
C900 H942 0.951 1_556 S
C901 C900 1.389 . S
C901 C902 1.391 . S
C902 C901 1.391 . S
C902 H958 0.947 . S
C902 C959 1.392 . S
C903 C904 1.391 . S
C903 C907 1.397 1_565 S
C903 C959 1.419 . S
C904 C900 1.391 . S
C904 C903 1.391 . S
C904 C905 1.399 1_566 S
C905 C904 1.399 1_544 S
C905 C908 1.396 1_554 S
C905 C917 1.453 . S
C905 C918 1.684 . S
H906 C930 0.948 . S
C907 C903 1.397 1_545 S
C907 C908 1.394 . S
C907 C926 1.723 . S
C908 C905 1.396 1_556 S
C908 C907 1.394 . S
C908 C938 1.723 . S
H909 C932 0.947 . S
H910 C933 0.948 . S
H911 C939 0.982 . S
H912 C940 0.979 . S
H913 C940 0.980 . S
H914 C940 0.983 . S
H915 C939 0.979 . S
H916 C939 0.977 . S
C917 C905 1.453 . S
C917 H946 0.982 1_554 S
C917 H947 0.979 . S
C917 H948 0.977 . S
C918 C905 1.684 . S
C918 H943 0.979 . S
C918 H944 0.980 . S
C918 H945 0.983 . S
C919 C920 1.389 . S
C919 C924 1.391 . S
C919 H949 0.951 1_545 S
C920 C919 1.389 . S
C920 C921 1.391 . S
C921 C920 1.391 . S
C921 C922 1.392 . S
C921 H950 0.947 . S
C922 C921 1.392 . S
C922 C923 1.419 . S
C922 H951 0.948 . S
C923 C922 1.419 . S
C923 C924 1.391 . S
C923 C927 1.397 . S
C924 C919 1.391 . S
C924 C923 1.391 . S
C924 C925 1.399 1_545 S
C925 C924 1.399 1_565 S
C925 C926 1.396 1_565 S
C925 C928 1.453 . S
C925 C929 1.684 . S
C926 C907 1.723 . S
C926 C925 1.396 1_545 S
C926 C927 1.394 . S
C927 C923 1.397 . S
C927 C926 1.394 . S
C927 C937 1.723 . S
C928 C925 1.453 . S
C928 H952 0.982 1_565 S
C928 H953 0.979 . S
C928 H954 0.977 . S
C929 C925 1.684 . S
C929 H955 0.979 . S
C929 H956 0.980 . S
C929 H957 0.983 . S
C930 H906 0.948 . S
C930 C931 1.391 . S
C930 C935 1.391 . S
C931 C930 1.391 . S
C931 C932 1.391 . S
C932 H909 0.947 . S
C932 C931 1.391 . S
C932 C933 1.392 . S
C933 H910 0.948 . S
C933 C932 1.392 . S
C933 C934 1.419 . S
C934 C933 1.419 . S
C934 C935 1.391 . S
C934 C938 1.397 1_554 S
C935 C930 1.391 . S
C935 C934 1.391 . S
C935 C936 1.399 1_554 S
C936 C935 1.399 1_556 S
C936 C937 1.396 . S
C936 C939 1.453 . S
C936 C940 1.684 . S
C937 C927 1.723 . S
C937 C936 1.396 . S
C937 C938 1.394 . S
C938 C908 1.723 . S
C938 C934 1.397 1_556 S
C938 C937 1.394 . S
C939 H911 0.982 . S
C939 H915 0.979 . S
C939 H916 0.977 . S
C939 C936 1.453 . S
C940 H912 0.979 . S
C940 H913 0.980 . S
C940 H914 0.983 . S
C940 C936 1.684 . S
H941 C959 0.948 . S
H942 C900 0.951 1_554 S
H943 C918 0.979 . S
H944 C918 0.980 . S
H945 C918 0.983 . S
H946 C917 0.982 1_556 S
H947 C917 0.979 . S
H948 C917 0.977 . S
H949 C919 0.951 1_565 S
H950 C921 0.947 . S
H951 C922 0.948 . S
H952 C928 0.982 1_545 S
H953 C928 0.979 . S
H954 C928 0.977 . S
H955 C929 0.979 . S
H956 C929 0.980 . S
H957 C929 0.983 . S
H958 C902 0.947 . S
C959 C902 1.392 . S
C959 C903 1.419 . S
C959 H941 0.948 . S
Li960 N977 1.990 . S
Li960 O1020 1.956 . S
Li960 O1021 1.970 1_556 S
Li960 O1022 1.961 . S
Li961 N985 1.990 . S
Li961 O1020 1.970 1_554 S
Li961 O1021 1.956 . S
Li961 O1023 1.961 . S
Li962 N1007 1.990 . S
Li962 O1020 1.961 . S
Li962 O1022 1.956 . S
Li962 O1023 1.970 1_556 S
Li963 N1013 1.990 . S
Li963 O1021 1.961 . S
Li963 O1022 1.970 1_554 S
Li963 O1023 1.956 . S
C964 C966 1.348 1_556 S
C964 C967 1.356 . S
C964 O1020 1.325 . S
N965 C968 1.314 1_556 S
N965 C969 1.279 . S
C966 C964 1.348 1_554 S
C966 C968 1.353 . S
C966 H1024 0.929 . S
C967 C964 1.356 . S
C967 C969 1.358 . S
C967 H1025 0.930 . S
C968 N965 1.314 1_554 S
C968 C966 1.353 . S
C968 H1026 0.930 . S
C969 N965 1.279 . S
C969 C967 1.358 . S
C969 H1027 0.930 . S
C970 C973 1.348 . S
C970 C974 1.356 . S
C970 O1021 1.325 . S
C971 N972 1.279 . S
C971 C974 1.358 . S
C971 H1028 0.930 . S
N972 C971 1.279 . S
N972 C975 1.314 . S
C973 C970 1.348 . S
C973 C975 1.353 . S
C973 H1029 0.929 . S
C974 C970 1.356 . S
C974 C971 1.358 . S
C974 H1030 0.930 . S
C975 N972 1.314 . S
C975 C973 1.353 . S
C975 H1031 0.930 . S
C976 N977 1.314 . S
C976 C981 1.353 . S
C976 H982 0.930 . S
N977 Li960 1.990 . S
N977 C976 1.314 . S
N977 C979 1.279 . S
C978 C979 1.358 . S
C978 C980 1.356 . S
C978 H1032 0.930 . S
C979 N977 1.279 . S
C979 C978 1.358 . S
C979 H983 0.930 . S
C980 C978 1.356 . S
C980 C981 1.348 . S
C981 C976 1.353 . S
C981 C980 1.348 . S
C981 H1033 0.929 . S
H982 C976 0.930 . S
H983 C979 0.930 . S
C984 N985 1.314 . S
C984 C986 1.353 . S
C984 H990 0.930 . S
N985 Li961 1.990 . S
N985 C984 1.314 . S
N985 C988 1.279 . S
C986 C984 1.353 . S
C986 C989 1.348 . S
C986 H1034 0.929 . S
C987 C988 1.358 . S
C987 C989 1.356 . S
C987 H1035 0.930 . S
C988 N985 1.279 . S
C988 C987 1.358 . S
C988 H991 0.930 . S
C989 C986 1.348 . S
C989 C987 1.356 . S
H990 C984 0.930 . S
H991 C988 0.930 . S
C992 C994 1.348 . S
C992 C995 1.356 . S
C992 O1022 1.325 . S
N993 C996 1.314 . S
N993 C997 1.279 . S
C994 C992 1.348 . S
C994 C996 1.353 . S
C994 H1036 0.929 . S
C995 C992 1.356 . S
C995 C997 1.358 . S
C995 H1037 0.930 . S
C996 N993 1.314 . S
C996 C994 1.353 . S
C996 H1038 0.930 . S
C997 N993 1.279 . S
C997 C995 1.358 . S
C997 H1039 0.930 . S
C998 C999 1.348 1_554 S
C998 C1000 1.356 . S
C998 O1023 1.325 . S
C999 C998 1.348 1_556 S
C999 C1001 1.353 . S
C999 H1040 0.929 . S
C1000 C998 1.356 . S
C1000 C1002 1.358 . S
C1000 H1041 0.930 . S
C1001 C999 1.353 . S
C1001 N1003 1.314 1_556 S
C1001 H1042 0.930 . S
C1002 C1000 1.358 . S
C1002 N1003 1.279 . S
C1002 H1043 0.930 . S
N1003 C1001 1.314 1_554 S
N1003 C1002 1.279 . S
C1004 C1006 1.353 . S
C1004 N1007 1.314 . S
C1004 H1010 0.930 . S
C1005 N1007 1.279 . S
C1005 C1008 1.358 . S
C1005 H1011 0.930 . S
C1006 C1004 1.353 . S
C1006 C1009 1.348 . S
C1006 H1044 0.929 . S
N1007 Li962 1.990 . S
N1007 C1004 1.314 . S
N1007 C1005 1.279 . S
C1008 C1005 1.358 . S
C1008 C1009 1.356 . S
C1008 H1045 0.930 . S
C1009 C1006 1.348 . S
C1009 C1008 1.356 . S
H1010 C1004 0.930 . S
H1011 C1005 0.930 . S
C1012 N1013 1.314 . S
C1012 C1014 1.353 . S
C1012 H1018 0.930 . S
N1013 Li963 1.990 . S
N1013 C1012 1.314 . S
N1013 C1016 1.279 . S
C1014 C1012 1.353 . S
C1014 C1017 1.348 . S
C1014 H1046 0.929 . S
C1015 C1016 1.358 . S
C1015 C1017 1.356 . S
C1015 H1047 0.930 . S
C1016 N1013 1.279 . S
C1016 C1015 1.358 . S
C1016 H1019 0.930 . S
C1017 C1014 1.348 . S
C1017 C1015 1.356 . S
H1018 C1012 0.930 . S
H1019 C1016 0.930 . S
O1020 Li960 1.956 . S
O1020 Li961 1.970 1_556 S
O1020 Li962 1.961 . S
O1020 C964 1.325 . S
O1021 Li960 1.970 1_554 S
O1021 Li961 1.956 . S
O1021 Li963 1.961 . S
O1021 C970 1.325 . S
O1022 Li960 1.961 . S
O1022 Li962 1.956 . S
O1022 Li963 1.970 1_556 S
O1022 C992 1.325 . S
O1023 Li961 1.961 . S
O1023 Li962 1.970 1_554 S
O1023 Li963 1.956 . S
O1023 C998 1.325 . S
H1024 C966 0.929 . S
H1025 C967 0.930 . S
H1026 C968 0.930 . S
H1027 C969 0.930 . S
H1028 C971 0.930 . S
H1029 C973 0.929 . S
H1030 C974 0.930 . S
H1031 C975 0.930 . S
H1032 C978 0.930 . S
H1033 C981 0.929 . S
H1034 C986 0.929 . S
H1035 C987 0.930 . S
H1036 C994 0.929 . S
H1037 C995 0.930 . S
H1038 C996 0.930 . S
H1039 C997 0.930 . S
H1040 C999 0.929 . S
H1041 C1000 0.930 . S
H1042 C1001 0.930 . S
H1043 C1002 0.930 . S
H1044 C1006 0.929 . S
H1045 C1008 0.930 . S
H1046 C1014 0.929 . S
H1047 C1015 0.930 . S
Li1048 N1065 1.990 . S
Li1048 O1108 1.956 . S
Li1048 O1109 1.970 . S
Li1048 O1110 1.961 . S
Li1049 N1073 1.990 . S
Li1049 O1108 1.970 . S
Li1049 O1109 1.956 . S
Li1049 O1111 1.961 . S
Li1050 N1095 1.990 . S
Li1050 O1108 1.961 . S
Li1050 O1110 1.956 . S
Li1050 O1111 1.970 . S
Li1051 N1101 1.990 . S
Li1051 O1109 1.961 . S
Li1051 O1110 1.970 . S
Li1051 O1111 1.956 . S
C1052 C1054 1.348 . S
C1052 C1055 1.356 . S
C1052 O1108 1.325 . S
N1053 C1056 1.314 . S
N1053 C1057 1.279 . S
C1054 C1052 1.348 . S
C1054 C1056 1.353 . S
C1054 H1112 0.929 . S
C1055 C1052 1.356 . S
C1055 C1057 1.358 . S
C1055 H1113 0.930 . S
C1056 N1053 1.314 . S
C1056 C1054 1.353 . S
C1056 H1114 0.930 . S
C1057 N1053 1.279 . S
C1057 C1055 1.358 . S
C1057 H1115 0.930 . S
C1058 C1061 1.348 . S
C1058 C1062 1.356 . S
C1058 O1109 1.325 . S
C1059 N1060 1.279 . S
C1059 C1062 1.358 . S
C1059 H1116 0.930 . S
N1060 C1059 1.279 . S
N1060 C1063 1.314 . S
C1061 C1058 1.348 . S
C1061 C1063 1.353 . S
C1061 H1117 0.929 . S
C1062 C1058 1.356 . S
C1062 C1059 1.358 . S
C1062 H1118 0.930 . S
C1063 N1060 1.314 . S
C1063 C1061 1.353 . S
C1063 H1119 0.930 . S
C1064 N1065 1.314 . S
C1064 C1069 1.353 . S
C1064 H1070 0.930 . S
N1065 Li1048 1.990 . S
N1065 C1064 1.314 . S
N1065 C1067 1.279 . S
C1066 C1067 1.358 . S
C1066 C1068 1.356 . S
C1066 H1120 0.930 . S
C1067 N1065 1.279 . S
C1067 C1066 1.358 . S
C1067 H1071 0.930 . S
C1068 C1066 1.356 . S
C1068 C1069 1.348 . S
C1069 C1064 1.353 . S
C1069 C1068 1.348 . S
C1069 H1121 0.929 . S
H1070 C1064 0.930 . S
H1071 C1067 0.930 . S
C1072 N1073 1.314 . S
C1072 C1074 1.353 . S
C1072 H1078 0.930 . S
N1073 Li1049 1.990 . S
N1073 C1072 1.314 . S
N1073 C1076 1.279 . S
C1074 C1072 1.353 . S
C1074 C1077 1.348 . S
C1074 H1122 0.929 . S
C1075 C1076 1.358 . S
C1075 C1077 1.356 . S
C1075 H1123 0.930 . S
C1076 N1073 1.279 . S
C1076 C1075 1.358 . S
C1076 H1079 0.930 . S
C1077 C1074 1.348 . S
C1077 C1075 1.356 . S
H1078 C1072 0.930 . S
H1079 C1076 0.930 . S
C1080 C1082 1.348 . S
C1080 C1083 1.356 . S
C1080 O1110 1.325 . S
N1081 C1084 1.314 . S
N1081 C1085 1.279 . S
C1082 C1080 1.348 . S
C1082 C1084 1.353 . S
C1082 H1124 0.929 . S
C1083 C1080 1.356 . S
C1083 C1085 1.358 . S
C1083 H1125 0.930 . S
C1084 N1081 1.314 . S
C1084 C1082 1.353 . S
C1084 H1126 0.930 . S
C1085 N1081 1.279 . S
C1085 C1083 1.358 . S
C1085 H1127 0.930 . S
C1086 C1087 1.348 . S
C1086 C1088 1.356 . S
C1086 O1111 1.325 . S
C1087 C1086 1.348 . S
C1087 C1089 1.353 . S
C1087 H1128 0.929 . S
C1088 C1086 1.356 . S
C1088 C1090 1.358 . S
C1088 H1129 0.930 . S
C1089 C1087 1.353 . S
C1089 N1091 1.314 . S
C1089 H1130 0.930 . S
C1090 C1088 1.358 . S
C1090 N1091 1.279 . S
C1090 H1131 0.930 . S
N1091 C1089 1.314 . S
N1091 C1090 1.279 . S
C1092 C1094 1.353 . S
C1092 N1095 1.314 . S
C1092 H1098 0.930 . S
C1093 N1095 1.279 . S
C1093 C1096 1.358 . S
C1093 H1099 0.930 . S
C1094 C1092 1.353 . S
C1094 C1097 1.348 . S
C1094 H1132 0.929 . S
N1095 Li1050 1.990 . S
N1095 C1092 1.314 . S
N1095 C1093 1.279 . S
C1096 C1093 1.358 . S
C1096 C1097 1.356 . S
C1096 H1133 0.930 . S
C1097 C1094 1.348 . S
C1097 C1096 1.356 . S
H1098 C1092 0.930 . S
H1099 C1093 0.930 . S
C1100 N1101 1.314 . S
C1100 C1102 1.353 . S
C1100 H1106 0.930 . S
N1101 Li1051 1.990 . S
N1101 C1100 1.314 . S
N1101 C1104 1.279 . S
C1102 C1100 1.353 . S
C1102 C1105 1.348 . S
C1102 H1134 0.929 . S
C1103 C1104 1.358 . S
C1103 C1105 1.356 . S
C1103 H1135 0.930 . S
C1104 N1101 1.279 . S
C1104 C1103 1.358 . S
C1104 H1107 0.930 . S
C1105 C1102 1.348 . S
C1105 C1103 1.356 . S
H1106 C1100 0.930 . S
H1107 C1104 0.930 . S
O1108 Li1048 1.956 . S
O1108 Li1049 1.970 . S
O1108 Li1050 1.961 . S
O1108 C1052 1.325 . S
O1109 Li1048 1.970 . S
O1109 Li1049 1.956 . S
O1109 Li1051 1.961 . S
O1109 C1058 1.325 . S
O1110 Li1048 1.961 . S
O1110 Li1050 1.956 . S
O1110 Li1051 1.970 . S
O1110 C1080 1.325 . S
O1111 Li1049 1.961 . S
O1111 Li1050 1.970 . S
O1111 Li1051 1.956 . S
O1111 C1086 1.325 . S
H1112 C1054 0.929 . S
H1113 C1055 0.930 . S
H1114 C1056 0.930 . S
H1115 C1057 0.930 . S
H1116 C1059 0.930 . S
H1117 C1061 0.929 . S
H1118 C1062 0.930 . S
H1119 C1063 0.930 . S
H1120 C1066 0.930 . S
H1121 C1069 0.929 . S
H1122 C1074 0.929 . S
H1123 C1075 0.930 . S
H1124 C1082 0.929 . S
H1125 C1083 0.930 . S
H1126 C1084 0.930 . S
H1127 C1085 0.930 . S
H1128 C1087 0.929 . S
H1129 C1088 0.930 . S
H1130 C1089 0.930 . S
H1131 C1090 0.930 . S
H1132 C1094 0.929 . S
H1133 C1096 0.930 . S
H1134 C1102 0.929 . S
H1135 C1103 0.930 . S
Li1136 N1153 1.990 . S
Li1136 O1196 1.956 . S
Li1136 O1197 1.970 1_556 S
Li1136 O1198 1.961 . S
Li1137 N1161 1.990 . S
Li1137 O1196 1.970 1_554 S
Li1137 O1197 1.956 . S
Li1137 O1199 1.961 . S
Li1138 N1183 1.990 . S
Li1138 O1196 1.961 . S
Li1138 O1198 1.956 . S
Li1138 O1199 1.970 1_556 S
Li1139 N1189 1.990 . S
Li1139 O1197 1.961 . S
Li1139 O1198 1.970 1_554 S
Li1139 O1199 1.956 . S
C1140 C1142 1.348 1_556 S
C1140 C1143 1.356 . S
C1140 O1196 1.325 . S
N1141 C1144 1.314 1_556 S
N1141 C1145 1.279 . S
C1142 C1140 1.348 1_554 S
C1142 C1144 1.353 . S
C1142 H1200 0.929 . S
C1143 C1140 1.356 . S
C1143 C1145 1.358 . S
C1143 H1201 0.930 . S
C1144 N1141 1.314 1_554 S
C1144 C1142 1.353 . S
C1144 H1202 0.930 . S
C1145 N1141 1.279 . S
C1145 C1143 1.358 . S
C1145 H1203 0.930 . S
C1146 C1149 1.348 . S
C1146 C1150 1.356 . S
C1146 O1197 1.325 . S
C1147 N1148 1.279 . S
C1147 C1150 1.358 . S
C1147 H1204 0.930 . S
N1148 C1147 1.279 . S
N1148 C1151 1.314 . S
C1149 C1146 1.348 . S
C1149 C1151 1.353 . S
C1149 H1205 0.929 . S
C1150 C1146 1.356 . S
C1150 C1147 1.358 . S
C1150 H1206 0.930 . S
C1151 N1148 1.314 . S
C1151 C1149 1.353 . S
C1151 H1207 0.930 . S
C1152 N1153 1.314 . S
C1152 C1157 1.353 . S
C1152 H1158 0.930 . S
N1153 Li1136 1.990 . S
N1153 C1152 1.314 . S
N1153 C1155 1.279 . S
C1154 C1155 1.358 . S
C1154 C1156 1.356 . S
C1154 H1208 0.930 . S
C1155 N1153 1.279 . S
C1155 C1154 1.358 . S
C1155 H1159 0.930 . S
C1156 C1154 1.356 . S
C1156 C1157 1.348 . S
C1157 C1152 1.353 . S
C1157 C1156 1.348 . S
C1157 H1209 0.929 . S
H1158 C1152 0.930 . S
H1159 C1155 0.930 . S
C1160 N1161 1.314 . S
C1160 C1162 1.353 . S
C1160 H1166 0.930 . S
N1161 Li1137 1.990 . S
N1161 C1160 1.314 . S
N1161 C1164 1.279 . S
C1162 C1160 1.353 . S
C1162 C1165 1.348 . S
C1162 H1210 0.929 . S
C1163 C1164 1.358 . S
C1163 C1165 1.356 . S
C1163 H1211 0.930 . S
C1164 N1161 1.279 . S
C1164 C1163 1.358 . S
C1164 H1167 0.930 . S
C1165 C1162 1.348 . S
C1165 C1163 1.356 . S
H1166 C1160 0.930 . S
H1167 C1164 0.930 . S
C1168 C1170 1.348 . S
C1168 C1171 1.356 . S
C1168 O1198 1.325 . S
N1169 C1172 1.314 . S
N1169 C1173 1.279 . S
C1170 C1168 1.348 . S
C1170 C1172 1.353 . S
C1170 H1212 0.929 . S
C1171 C1168 1.356 . S
C1171 C1173 1.358 . S
C1171 H1213 0.930 . S
C1172 N1169 1.314 . S
C1172 C1170 1.353 . S
C1172 H1214 0.930 . S
C1173 N1169 1.279 . S
C1173 C1171 1.358 . S
C1173 H1215 0.930 . S
C1174 C1175 1.348 1_554 S
C1174 C1176 1.356 . S
C1174 O1199 1.325 . S
C1175 C1174 1.348 1_556 S
C1175 C1177 1.353 . S
C1175 H1216 0.929 . S
C1176 C1174 1.356 . S
C1176 C1178 1.358 . S
C1176 H1217 0.930 . S
C1177 C1175 1.353 . S
C1177 N1179 1.314 1_556 S
C1177 H1218 0.930 . S
C1178 C1176 1.358 . S
C1178 N1179 1.279 . S
C1178 H1219 0.930 . S
N1179 C1177 1.314 1_554 S
N1179 C1178 1.279 . S
C1180 C1182 1.353 . S
C1180 N1183 1.314 . S
C1180 H1186 0.930 . S
C1181 N1183 1.279 . S
C1181 C1184 1.358 . S
C1181 H1187 0.930 . S
C1182 C1180 1.353 . S
C1182 C1185 1.348 . S
C1182 H1220 0.929 . S
N1183 Li1138 1.990 . S
N1183 C1180 1.314 . S
N1183 C1181 1.279 . S
C1184 C1181 1.358 . S
C1184 C1185 1.356 . S
C1184 H1221 0.930 . S
C1185 C1182 1.348 . S
C1185 C1184 1.356 . S
H1186 C1180 0.930 . S
H1187 C1181 0.930 . S
C1188 N1189 1.314 . S
C1188 C1190 1.353 . S
C1188 H1194 0.930 . S
N1189 Li1139 1.990 . S
N1189 C1188 1.314 . S
N1189 C1192 1.279 . S
C1190 C1188 1.353 . S
C1190 C1193 1.348 . S
C1190 H1222 0.929 . S
C1191 C1192 1.358 . S
C1191 C1193 1.356 . S
C1191 H1223 0.930 . S
C1192 N1189 1.279 . S
C1192 C1191 1.358 . S
C1192 H1195 0.930 . S
C1193 C1190 1.348 . S
C1193 C1191 1.356 . S
H1194 C1188 0.930 . S
H1195 C1192 0.930 . S
O1196 Li1136 1.956 . S
O1196 Li1137 1.970 1_556 S
O1196 Li1138 1.961 . S
O1196 C1140 1.325 . S
O1197 Li1136 1.970 1_554 S
O1197 Li1137 1.956 . S
O1197 Li1139 1.961 . S
O1197 C1146 1.325 . S
O1198 Li1136 1.961 . S
O1198 Li1138 1.956 . S
O1198 Li1139 1.970 1_556 S
O1198 C1168 1.325 . S
O1199 Li1137 1.961 . S
O1199 Li1138 1.970 1_554 S
O1199 Li1139 1.956 . S
O1199 C1174 1.325 . S
H1200 C1142 0.929 . S
H1201 C1143 0.930 . S
H1202 C1144 0.930 . S
H1203 C1145 0.930 . S
H1204 C1147 0.930 . S
H1205 C1149 0.929 . S
H1206 C1150 0.930 . S
H1207 C1151 0.930 . S
H1208 C1154 0.930 . S
H1209 C1157 0.929 . S
H1210 C1162 0.929 . S
H1211 C1163 0.930 . S
H1212 C1170 0.929 . S
H1213 C1171 0.930 . S
H1214 C1172 0.930 . S
H1215 C1173 0.930 . S
H1216 C1175 0.929 . S
H1217 C1176 0.930 . S
H1218 C1177 0.930 . S
H1219 C1178 0.930 . S
H1220 C1182 0.929 . S
H1221 C1184 0.930 . S
H1222 C1190 0.929 . S
H1223 C1191 0.930 . S
Li1224 N1241 1.990 . S
Li1224 O1284 1.956 . S
Li1224 O1285 1.970 1_545 S
Li1224 O1286 1.961 . S
Li1225 N1249 1.990 . S
Li1225 O1284 1.970 1_565 S
Li1225 O1285 1.956 . S
Li1225 O1287 1.961 . S
Li1226 N1271 1.990 . S
Li1226 O1284 1.961 . S
Li1226 O1286 1.956 . S
Li1226 O1287 1.970 1_545 S
Li1227 N1277 1.990 . S
Li1227 O1285 1.961 . S
Li1227 O1286 1.970 1_565 S
Li1227 O1287 1.956 . S
C1228 C1230 1.348 . S
C1228 C1231 1.356 . S
C1228 O1284 1.325 . S
N1229 C1232 1.314 . S
N1229 C1233 1.279 . S
C1230 C1228 1.348 . S
C1230 C1232 1.353 . S
C1230 H1288 0.929 . S
C1231 C1228 1.356 . S
C1231 C1233 1.358 . S
C1231 H1289 0.930 . S
C1232 N1229 1.314 . S
C1232 C1230 1.353 . S
C1232 H1290 0.930 . S
C1233 N1229 1.279 . S
C1233 C1231 1.358 . S
C1233 H1291 0.930 . S
C1234 C1237 1.348 1_565 S
C1234 C1238 1.356 . S
C1234 O1285 1.325 . S
C1235 N1236 1.279 . S
C1235 C1238 1.358 . S
C1235 H1292 0.930 . S
N1236 C1235 1.279 . S
N1236 C1239 1.314 1_565 S
C1237 C1234 1.348 1_545 S
C1237 C1239 1.353 . S
C1237 H1293 0.929 . S
C1238 C1234 1.356 . S
C1238 C1235 1.358 . S
C1238 H1294 0.930 . S
C1239 N1236 1.314 1_545 S
C1239 C1237 1.353 . S
C1239 H1295 0.930 . S
C1240 N1241 1.314 . S
C1240 C1245 1.353 . S
C1240 H1246 0.930 . S
N1241 Li1224 1.990 . S
N1241 C1240 1.314 . S
N1241 C1243 1.279 . S
C1242 C1243 1.358 . S
C1242 C1244 1.356 . S
C1242 H1296 0.930 . S
C1243 N1241 1.279 . S
C1243 C1242 1.358 . S
C1243 H1247 0.930 . S
C1244 C1242 1.356 . S
C1244 C1245 1.348 . S
C1245 C1240 1.353 . S
C1245 C1244 1.348 . S
C1245 H1297 0.929 . S
H1246 C1240 0.930 . S
H1247 C1243 0.930 . S
C1248 N1249 1.314 . S
C1248 C1250 1.353 . S
C1248 H1254 0.930 . S
N1249 Li1225 1.990 . S
N1249 C1248 1.314 . S
N1249 C1252 1.279 . S
C1250 C1248 1.353 . S
C1250 C1253 1.348 . S
C1250 H1298 0.929 . S
C1251 C1252 1.358 . S
C1251 C1253 1.356 . S
C1251 H1299 0.930 . S
C1252 N1249 1.279 . S
C1252 C1251 1.358 . S
C1252 H1255 0.930 . S
C1253 C1250 1.348 . S
C1253 C1251 1.356 . S
H1254 C1248 0.930 . S
H1255 C1252 0.930 . S
C1256 C1258 1.348 1_545 S
C1256 C1259 1.356 . S
C1256 O1286 1.325 . S
N1257 C1260 1.314 1_545 S
N1257 C1261 1.279 . S
C1258 C1256 1.348 1_565 S
C1258 C1260 1.353 . S
C1258 H1300 0.929 . S
C1259 C1256 1.356 . S
C1259 C1261 1.358 . S
C1259 H1301 0.930 . S
C1260 N1257 1.314 1_565 S
C1260 C1258 1.353 . S
C1260 H1302 0.930 . S
C1261 N1257 1.279 . S
C1261 C1259 1.358 . S
C1261 H1303 0.930 . S
C1262 C1263 1.348 . S
C1262 C1264 1.356 . S
C1262 O1287 1.325 . S
C1263 C1262 1.348 . S
C1263 C1265 1.353 . S
C1263 H1304 0.929 . S
C1264 C1262 1.356 . S
C1264 C1266 1.358 . S
C1264 H1305 0.930 . S
C1265 C1263 1.353 . S
C1265 N1267 1.314 . S
C1265 H1306 0.930 . S
C1266 C1264 1.358 . S
C1266 N1267 1.279 . S
C1266 H1307 0.930 . S
N1267 C1265 1.314 . S
N1267 C1266 1.279 . S
C1268 C1270 1.353 . S
C1268 N1271 1.314 . S
C1268 H1274 0.930 . S
C1269 N1271 1.279 . S
C1269 C1272 1.358 . S
C1269 H1275 0.930 . S
C1270 C1268 1.353 . S
C1270 C1273 1.348 . S
C1270 H1308 0.929 . S
N1271 Li1226 1.990 . S
N1271 C1268 1.314 . S
N1271 C1269 1.279 . S
C1272 C1269 1.358 . S
C1272 C1273 1.356 . S
C1272 H1309 0.930 . S
C1273 C1270 1.348 . S
C1273 C1272 1.356 . S
H1274 C1268 0.930 . S
H1275 C1269 0.930 . S
C1276 N1277 1.314 . S
C1276 C1278 1.353 . S
C1276 H1282 0.930 . S
N1277 Li1227 1.990 . S
N1277 C1276 1.314 . S
N1277 C1280 1.279 . S
C1278 C1276 1.353 . S
C1278 C1281 1.348 . S
C1278 H1310 0.929 . S
C1279 C1280 1.358 . S
C1279 C1281 1.356 . S
C1279 H1311 0.930 . S
C1280 N1277 1.279 . S
C1280 C1279 1.358 . S
C1280 H1283 0.930 . S
C1281 C1278 1.348 . S
C1281 C1279 1.356 . S
H1282 C1276 0.930 . S
H1283 C1280 0.930 . S
O1284 Li1224 1.956 . S
O1284 Li1225 1.970 1_545 S
O1284 Li1226 1.961 . S
O1284 C1228 1.325 . S
O1285 Li1224 1.970 1_565 S
O1285 Li1225 1.956 . S
O1285 Li1227 1.961 . S
O1285 C1234 1.325 . S
O1286 Li1224 1.961 . S
O1286 Li1226 1.956 . S
O1286 Li1227 1.970 1_545 S
O1286 C1256 1.325 . S
O1287 Li1225 1.961 . S
O1287 Li1226 1.970 1_565 S
O1287 Li1227 1.956 . S
O1287 C1262 1.325 . S
H1288 C1230 0.929 . S
H1289 C1231 0.930 . S
H1290 C1232 0.930 . S
H1291 C1233 0.930 . S
H1292 C1235 0.930 . S
H1293 C1237 0.929 . S
H1294 C1238 0.930 . S
H1295 C1239 0.930 . S
H1296 C1242 0.930 . S
H1297 C1245 0.929 . S
H1298 C1250 0.929 . S
H1299 C1251 0.930 . S
H1300 C1258 0.929 . S
H1301 C1259 0.930 . S
H1302 C1260 0.930 . S
H1303 C1261 0.930 . S
H1304 C1263 0.929 . S
H1305 C1264 0.930 . S
H1306 C1265 0.930 . S
H1307 C1266 0.930 . S
H1308 C1270 0.929 . S
H1309 C1272 0.930 . S
H1310 C1278 0.929 . S
H1311 C1279 0.930 . S
Li1312 N1329 1.990 . S
Li1312 O1372 1.956 . S
Li1312 O1373 1.970 . S
Li1312 O1374 1.961 . S
Li1313 N1337 1.990 . S
Li1313 O1372 1.970 . S
Li1313 O1373 1.956 . S
Li1313 O1375 1.961 . S
Li1314 N1359 1.990 . S
Li1314 O1372 1.961 . S
Li1314 O1374 1.956 . S
Li1314 O1375 1.970 . S
Li1315 N1365 1.990 . S
Li1315 O1373 1.961 . S
Li1315 O1374 1.970 . S
Li1315 O1375 1.956 . S
C1316 C1318 1.348 . S
C1316 C1319 1.356 . S
C1316 O1372 1.325 . S
N1317 C1320 1.314 . S
N1317 C1321 1.279 . S
C1318 C1316 1.348 . S
C1318 C1320 1.353 . S
C1318 H1376 0.929 . S
C1319 C1316 1.356 . S
C1319 C1321 1.358 . S
C1319 H1377 0.930 . S
C1320 N1317 1.314 . S
C1320 C1318 1.353 . S
C1320 H1378 0.930 . S
C1321 N1317 1.279 . S
C1321 C1319 1.358 . S
C1321 H1379 0.930 . S
C1322 C1325 1.348 . S
C1322 C1326 1.356 . S
C1322 O1373 1.325 . S
C1323 N1324 1.279 . S
C1323 C1326 1.358 . S
C1323 H1380 0.930 . S
N1324 C1323 1.279 . S
N1324 C1327 1.314 . S
C1325 C1322 1.348 . S
C1325 C1327 1.353 . S
C1325 H1381 0.929 . S
C1326 C1322 1.356 . S
C1326 C1323 1.358 . S
C1326 H1382 0.930 . S
C1327 N1324 1.314 . S
C1327 C1325 1.353 . S
C1327 H1383 0.930 . S
C1328 N1329 1.314 . S
C1328 C1333 1.353 . S
C1328 H1334 0.930 . S
N1329 Li1312 1.990 . S
N1329 C1328 1.314 . S
N1329 C1331 1.279 . S
C1330 C1331 1.358 . S
C1330 C1332 1.356 . S
C1330 H1384 0.930 . S
C1331 N1329 1.279 . S
C1331 C1330 1.358 . S
C1331 H1335 0.930 . S
C1332 C1330 1.356 . S
C1332 C1333 1.348 . S
C1333 C1328 1.353 . S
C1333 C1332 1.348 . S
C1333 H1385 0.929 . S
H1334 C1328 0.930 . S
H1335 C1331 0.930 . S
C1336 N1337 1.314 . S
C1336 C1338 1.353 . S
C1336 H1342 0.930 . S
N1337 Li1313 1.990 . S
N1337 C1336 1.314 . S
N1337 C1340 1.279 . S
C1338 C1336 1.353 . S
C1338 C1341 1.348 . S
C1338 H1386 0.929 . S
C1339 C1340 1.358 . S
C1339 C1341 1.356 . S
C1339 H1387 0.930 . S
C1340 N1337 1.279 . S
C1340 C1339 1.358 . S
C1340 H1343 0.930 . S
C1341 C1338 1.348 . S
C1341 C1339 1.356 . S
H1342 C1336 0.930 . S
H1343 C1340 0.930 . S
C1344 C1346 1.348 . S
C1344 C1347 1.356 . S
C1344 O1374 1.325 . S
N1345 C1348 1.314 . S
N1345 C1349 1.279 . S
C1346 C1344 1.348 . S
C1346 C1348 1.353 . S
C1346 H1388 0.929 . S
C1347 C1344 1.356 . S
C1347 C1349 1.358 . S
C1347 H1389 0.930 . S
C1348 N1345 1.314 . S
C1348 C1346 1.353 . S
C1348 H1390 0.930 . S
C1349 N1345 1.279 . S
C1349 C1347 1.358 . S
C1349 H1391 0.930 . S
C1350 C1351 1.348 . S
C1350 C1352 1.356 . S
C1350 O1375 1.325 . S
C1351 C1350 1.348 . S
C1351 C1353 1.353 . S
C1351 H1392 0.929 . S
C1352 C1350 1.356 . S
C1352 C1354 1.358 . S
C1352 H1393 0.930 . S
C1353 C1351 1.353 . S
C1353 N1355 1.314 . S
C1353 H1394 0.930 . S
C1354 C1352 1.358 . S
C1354 N1355 1.279 . S
C1354 H1395 0.930 . S
N1355 C1353 1.314 . S
N1355 C1354 1.279 . S
C1356 C1358 1.353 . S
C1356 N1359 1.314 . S
C1356 H1362 0.930 . S
C1357 N1359 1.279 . S
C1357 C1360 1.358 . S
C1357 H1363 0.930 . S
C1358 C1356 1.353 . S
C1358 C1361 1.348 . S
C1358 H1396 0.929 . S
N1359 Li1314 1.990 . S
N1359 C1356 1.314 . S
N1359 C1357 1.279 . S
C1360 C1357 1.358 . S
C1360 C1361 1.356 . S
C1360 H1397 0.930 . S
C1361 C1358 1.348 . S
C1361 C1360 1.356 . S
H1362 C1356 0.930 . S
H1363 C1357 0.930 . S
C1364 N1365 1.314 . S
C1364 C1366 1.353 . S
C1364 H1370 0.930 . S
N1365 Li1315 1.990 . S
N1365 C1364 1.314 . S
N1365 C1368 1.279 . S
C1366 C1364 1.353 . S
C1366 C1369 1.348 . S
C1366 H1398 0.929 . S
C1367 C1368 1.358 . S
C1367 C1369 1.356 . S
C1367 H1399 0.930 . S
C1368 N1365 1.279 . S
C1368 C1367 1.358 . S
C1368 H1371 0.930 . S
C1369 C1366 1.348 . S
C1369 C1367 1.356 . S
H1370 C1364 0.930 . S
H1371 C1368 0.930 . S
O1372 Li1312 1.956 . S
O1372 Li1313 1.970 . S
O1372 Li1314 1.961 . S
O1372 C1316 1.325 . S
O1373 Li1312 1.970 . S
O1373 Li1313 1.956 . S
O1373 Li1315 1.961 . S
O1373 C1322 1.325 . S
O1374 Li1312 1.961 . S
O1374 Li1314 1.956 . S
O1374 Li1315 1.970 . S
O1374 C1344 1.325 . S
O1375 Li1313 1.961 . S
O1375 Li1314 1.970 . S
O1375 Li1315 1.956 . S
O1375 C1350 1.325 . S
H1376 C1318 0.929 . S
H1377 C1319 0.930 . S
H1378 C1320 0.930 . S
H1379 C1321 0.930 . S
H1380 C1323 0.930 . S
H1381 C1325 0.929 . S
H1382 C1326 0.930 . S
H1383 C1327 0.930 . S
H1384 C1330 0.930 . S
H1385 C1333 0.929 . S
H1386 C1338 0.929 . S
H1387 C1339 0.930 . S
H1388 C1346 0.929 . S
H1389 C1347 0.930 . S
H1390 C1348 0.930 . S
H1391 C1349 0.930 . S
H1392 C1351 0.929 . S
H1393 C1352 0.930 . S
H1394 C1353 0.930 . S
H1395 C1354 0.930 . S
H1396 C1358 0.929 . S
H1397 C1360 0.930 . S
H1398 C1366 0.929 . S
H1399 C1367 0.930 . S
Li1400 N1417 1.990 . S
Li1400 O1460 1.956 . S
Li1400 O1461 1.970 . S
Li1400 O1462 1.961 . S
Li1401 N1425 1.990 . S
Li1401 O1460 1.970 . S
Li1401 O1461 1.956 . S
Li1401 O1463 1.961 . S
Li1402 N1447 1.990 . S
Li1402 O1460 1.961 . S
Li1402 O1462 1.956 . S
Li1402 O1463 1.970 . S
Li1403 N1453 1.990 . S
Li1403 O1461 1.961 . S
Li1403 O1462 1.970 . S
Li1403 O1463 1.956 . S
C1404 C1406 1.348 . S
C1404 C1407 1.356 . S
C1404 O1460 1.325 . S
N1405 C1408 1.314 . S
N1405 C1409 1.279 . S
C1406 C1404 1.348 . S
C1406 C1408 1.353 . S
C1406 H1464 0.929 . S
C1407 C1404 1.356 . S
C1407 C1409 1.358 . S
C1407 H1465 0.930 . S
C1408 N1405 1.314 . S
C1408 C1406 1.353 . S
C1408 H1466 0.930 . S
C1409 N1405 1.279 . S
C1409 C1407 1.358 . S
C1409 H1467 0.930 . S
C1410 C1413 1.348 . S
C1410 C1414 1.356 . S
C1410 O1461 1.325 . S
C1411 N1412 1.279 . S
C1411 C1414 1.358 . S
C1411 H1468 0.930 . S
N1412 C1411 1.279 . S
N1412 C1415 1.314 . S
C1413 C1410 1.348 . S
C1413 C1415 1.353 . S
C1413 H1469 0.929 . S
C1414 C1410 1.356 . S
C1414 C1411 1.358 . S
C1414 H1470 0.930 . S
C1415 N1412 1.314 . S
C1415 C1413 1.353 . S
C1415 H1471 0.930 . S
C1416 N1417 1.314 . S
C1416 C1421 1.353 . S
C1416 H1422 0.930 . S
N1417 Li1400 1.990 . S
N1417 C1416 1.314 . S
N1417 C1419 1.279 . S
C1418 C1419 1.358 . S
C1418 C1420 1.356 . S
C1418 H1472 0.930 . S
C1419 N1417 1.279 . S
C1419 C1418 1.358 . S
C1419 H1423 0.930 . S
C1420 C1418 1.356 . S
C1420 C1421 1.348 . S
C1421 C1416 1.353 . S
C1421 C1420 1.348 . S
C1421 H1473 0.929 . S
H1422 C1416 0.930 . S
H1423 C1419 0.930 . S
C1424 N1425 1.314 . S
C1424 C1426 1.353 . S
C1424 H1430 0.930 . S
N1425 Li1401 1.990 . S
N1425 C1424 1.314 . S
N1425 C1428 1.279 . S
C1426 C1424 1.353 . S
C1426 C1429 1.348 . S
C1426 H1474 0.929 . S
C1427 C1428 1.358 . S
C1427 C1429 1.356 . S
C1427 H1475 0.930 . S
C1428 N1425 1.279 . S
C1428 C1427 1.358 . S
C1428 H1431 0.930 . S
C1429 C1426 1.348 . S
C1429 C1427 1.356 . S
H1430 C1424 0.930 . S
H1431 C1428 0.930 . S
C1432 C1434 1.348 . S
C1432 C1435 1.356 . S
C1432 O1462 1.325 . S
N1433 C1436 1.314 . S
N1433 C1437 1.279 . S
C1434 C1432 1.348 . S
C1434 C1436 1.353 . S
C1434 H1476 0.929 . S
C1435 C1432 1.356 . S
C1435 C1437 1.358 . S
C1435 H1477 0.930 . S
C1436 N1433 1.314 . S
C1436 C1434 1.353 . S
C1436 H1478 0.930 . S
C1437 N1433 1.279 . S
C1437 C1435 1.358 . S
C1437 H1479 0.930 . S
C1438 C1439 1.348 . S
C1438 C1440 1.356 . S
C1438 O1463 1.325 . S
C1439 C1438 1.348 . S
C1439 C1441 1.353 . S
C1439 H1480 0.929 . S
C1440 C1438 1.356 . S
C1440 C1442 1.358 . S
C1440 H1481 0.930 . S
C1441 C1439 1.353 . S
C1441 N1443 1.314 . S
C1441 H1482 0.930 . S
C1442 C1440 1.358 . S
C1442 N1443 1.279 . S
C1442 H1483 0.930 . S
N1443 C1441 1.314 . S
N1443 C1442 1.279 . S
C1444 C1446 1.353 . S
C1444 N1447 1.314 . S
C1444 H1450 0.930 . S
C1445 N1447 1.279 . S
C1445 C1448 1.358 . S
C1445 H1451 0.930 . S
C1446 C1444 1.353 . S
C1446 C1449 1.348 . S
C1446 H1484 0.929 . S
N1447 Li1402 1.990 . S
N1447 C1444 1.314 . S
N1447 C1445 1.279 . S
C1448 C1445 1.358 . S
C1448 C1449 1.356 . S
C1448 H1485 0.930 . S
C1449 C1446 1.348 . S
C1449 C1448 1.356 . S
H1450 C1444 0.930 . S
H1451 C1445 0.930 . S
C1452 N1453 1.314 . S
C1452 C1454 1.353 . S
C1452 H1458 0.930 . S
N1453 Li1403 1.990 . S
N1453 C1452 1.314 . S
N1453 C1456 1.279 . S
C1454 C1452 1.353 . S
C1454 C1457 1.348 . S
C1454 H1486 0.929 . S
C1455 C1456 1.358 . S
C1455 C1457 1.356 . S
C1455 H1487 0.930 . S
C1456 N1453 1.279 . S
C1456 C1455 1.358 . S
C1456 H1459 0.930 . S
C1457 C1454 1.348 . S
C1457 C1455 1.356 . S
H1458 C1452 0.930 . S
H1459 C1456 0.930 . S
O1460 Li1400 1.956 . S
O1460 Li1401 1.970 . S
O1460 Li1402 1.961 . S
O1460 C1404 1.325 . S
O1461 Li1400 1.970 . S
O1461 Li1401 1.956 . S
O1461 Li1403 1.961 . S
O1461 C1410 1.325 . S
O1462 Li1400 1.961 . S
O1462 Li1402 1.956 . S
O1462 Li1403 1.970 . S
O1462 C1432 1.325 . S
O1463 Li1401 1.961 . S
O1463 Li1402 1.970 . S
O1463 Li1403 1.956 . S
O1463 C1438 1.325 . S
H1464 C1406 0.929 . S
H1465 C1407 0.930 . S
H1466 C1408 0.930 . S
H1467 C1409 0.930 . S
H1468 C1411 0.930 . S
H1469 C1413 0.929 . S
H1470 C1414 0.930 . S
H1471 C1415 0.930 . S
H1472 C1418 0.930 . S
H1473 C1421 0.929 . S
H1474 C1426 0.929 . S
H1475 C1427 0.930 . S
H1476 C1434 0.929 . S
H1477 C1435 0.930 . S
H1478 C1436 0.930 . S
H1479 C1437 0.930 . S
H1480 C1439 0.929 . S
H1481 C1440 0.930 . S
H1482 C1441 0.930 . S
H1483 C1442 0.930 . S
H1484 C1446 0.929 . S
H1485 C1448 0.930 . S
H1486 C1454 0.929 . S
H1487 C1455 0.930 . S
Li1488 N1505 1.990 . S
Li1488 O1548 1.956 . S
Li1488 O1549 1.970 . S
Li1488 O1550 1.961 . S
Li1489 N1513 1.990 . S
Li1489 O1548 1.970 . S
Li1489 O1549 1.956 . S
Li1489 O1551 1.961 . S
Li1490 N1535 1.990 . S
Li1490 O1548 1.961 . S
Li1490 O1550 1.956 . S
Li1490 O1551 1.970 . S
Li1491 N1541 1.990 . S
Li1491 O1549 1.961 . S
Li1491 O1550 1.970 . S
Li1491 O1551 1.956 . S
C1492 C1494 1.348 . S
C1492 C1495 1.356 . S
C1492 O1548 1.325 . S
N1493 C1496 1.314 . S
N1493 C1497 1.279 . S
C1494 C1492 1.348 . S
C1494 C1496 1.353 . S
C1494 H1552 0.929 . S
C1495 C1492 1.356 . S
C1495 C1497 1.358 . S
C1495 H1553 0.930 . S
C1496 N1493 1.314 . S
C1496 C1494 1.353 . S
C1496 H1554 0.930 . S
C1497 N1493 1.279 . S
C1497 C1495 1.358 . S
C1497 H1555 0.930 . S
C1498 C1501 1.348 . S
C1498 C1502 1.356 . S
C1498 O1549 1.325 . S
C1499 N1500 1.279 . S
C1499 C1502 1.358 . S
C1499 H1556 0.930 . S
N1500 C1499 1.279 . S
N1500 C1503 1.314 . S
C1501 C1498 1.348 . S
C1501 C1503 1.353 . S
C1501 H1557 0.929 . S
C1502 C1498 1.356 . S
C1502 C1499 1.358 . S
C1502 H1558 0.930 . S
C1503 N1500 1.314 . S
C1503 C1501 1.353 . S
C1503 H1559 0.930 . S
C1504 N1505 1.314 . S
C1504 C1509 1.353 . S
C1504 H1510 0.930 . S
N1505 Li1488 1.990 . S
N1505 C1504 1.314 . S
N1505 C1507 1.279 . S
C1506 C1507 1.358 . S
C1506 C1508 1.356 . S
C1506 H1560 0.930 . S
C1507 N1505 1.279 . S
C1507 C1506 1.358 . S
C1507 H1511 0.930 . S
C1508 C1506 1.356 . S
C1508 C1509 1.348 . S
C1509 C1504 1.353 . S
C1509 C1508 1.348 . S
C1509 H1561 0.929 . S
H1510 C1504 0.930 . S
H1511 C1507 0.930 . S
C1512 N1513 1.314 . S
C1512 C1514 1.353 . S
C1512 H1518 0.930 . S
N1513 Li1489 1.990 . S
N1513 C1512 1.314 . S
N1513 C1516 1.279 . S
C1514 C1512 1.353 . S
C1514 C1517 1.348 . S
C1514 H1562 0.929 . S
C1515 C1516 1.358 . S
C1515 C1517 1.356 . S
C1515 H1563 0.930 . S
C1516 N1513 1.279 . S
C1516 C1515 1.358 . S
C1516 H1519 0.930 . S
C1517 C1514 1.348 . S
C1517 C1515 1.356 . S
H1518 C1512 0.930 . S
H1519 C1516 0.930 . S
C1520 C1522 1.348 . S
C1520 C1523 1.356 . S
C1520 O1550 1.325 . S
N1521 C1524 1.314 . S
N1521 C1525 1.279 . S
C1522 C1520 1.348 . S
C1522 C1524 1.353 . S
C1522 H1564 0.929 . S
C1523 C1520 1.356 . S
C1523 C1525 1.358 . S
C1523 H1565 0.930 . S
C1524 N1521 1.314 . S
C1524 C1522 1.353 . S
C1524 H1566 0.930 . S
C1525 N1521 1.279 . S
C1525 C1523 1.358 . S
C1525 H1567 0.930 . S
C1526 C1527 1.348 . S
C1526 C1528 1.356 . S
C1526 O1551 1.325 . S
C1527 C1526 1.348 . S
C1527 C1529 1.353 . S
C1527 H1568 0.929 . S
C1528 C1526 1.356 . S
C1528 C1530 1.358 . S
C1528 H1569 0.930 . S
C1529 C1527 1.353 . S
C1529 N1531 1.314 . S
C1529 H1570 0.930 . S
C1530 C1528 1.358 . S
C1530 N1531 1.279 . S
C1530 H1571 0.930 . S
N1531 C1529 1.314 . S
N1531 C1530 1.279 . S
C1532 C1534 1.353 . S
C1532 N1535 1.314 . S
C1532 H1538 0.930 . S
C1533 N1535 1.279 . S
C1533 C1536 1.358 . S
C1533 H1539 0.930 . S
C1534 C1532 1.353 . S
C1534 C1537 1.348 . S
C1534 H1572 0.929 . S
N1535 Li1490 1.990 . S
N1535 C1532 1.314 . S
N1535 C1533 1.279 . S
C1536 C1533 1.358 . S
C1536 C1537 1.356 . S
C1536 H1573 0.930 . S
C1537 C1534 1.348 . S
C1537 C1536 1.356 . S
H1538 C1532 0.930 . S
H1539 C1533 0.930 . S
C1540 N1541 1.314 . S
C1540 C1542 1.353 . S
C1540 H1546 0.930 . S
N1541 Li1491 1.990 . S
N1541 C1540 1.314 . S
N1541 C1544 1.279 . S
C1542 C1540 1.353 . S
C1542 C1545 1.348 . S
C1542 H1574 0.929 . S
C1543 C1544 1.358 . S
C1543 C1545 1.356 . S
C1543 H1575 0.930 . S
C1544 N1541 1.279 . S
C1544 C1543 1.358 . S
C1544 H1547 0.930 . S
C1545 C1542 1.348 . S
C1545 C1543 1.356 . S
H1546 C1540 0.930 . S
H1547 C1544 0.930 . S
O1548 Li1488 1.956 . S
O1548 Li1489 1.970 . S
O1548 Li1490 1.961 . S
O1548 C1492 1.325 . S
O1549 Li1488 1.970 . S
O1549 Li1489 1.956 . S
O1549 Li1491 1.961 . S
O1549 C1498 1.325 . S
O1550 Li1488 1.961 . S
O1550 Li1490 1.956 . S
O1550 Li1491 1.970 . S
O1550 C1520 1.325 . S
O1551 Li1489 1.961 . S
O1551 Li1490 1.970 . S
O1551 Li1491 1.956 . S
O1551 C1526 1.325 . S
H1552 C1494 0.929 . S
H1553 C1495 0.930 . S
H1554 C1496 0.930 . S
H1555 C1497 0.930 . S
H1556 C1499 0.930 . S
H1557 C1501 0.929 . S
H1558 C1502 0.930 . S
H1559 C1503 0.930 . S
H1560 C1506 0.930 . S
H1561 C1509 0.929 . S
H1562 C1514 0.929 . S
H1563 C1515 0.930 . S
H1564 C1522 0.929 . S
H1565 C1523 0.930 . S
H1566 C1524 0.930 . S
H1567 C1525 0.930 . S
H1568 C1527 0.929 . S
H1569 C1528 0.930 . S
H1570 C1529 0.930 . S
H1571 C1530 0.930 . S
H1572 C1534 0.929 . S
H1573 C1536 0.930 . S
H1574 C1542 0.929 . S
H1575 C1543 0.930 . S
Li1576 N1593 1.990 . S
Li1576 O1636 1.956 . S
Li1576 O1637 1.970 1_565 S
Li1576 O1638 1.961 . S
Li1577 N1601 1.990 . S
Li1577 O1636 1.970 1_545 S
Li1577 O1637 1.956 . S
Li1577 O1639 1.961 . S
Li1578 N1623 1.990 . S
Li1578 O1636 1.961 . S
Li1578 O1638 1.956 . S
Li1578 O1639 1.970 1_565 S
Li1579 N1629 1.990 . S
Li1579 O1637 1.961 . S
Li1579 O1638 1.970 1_545 S
Li1579 O1639 1.956 . S
C1580 C1582 1.348 . S
C1580 C1583 1.356 . S
C1580 O1636 1.325 . S
N1581 C1584 1.314 . S
N1581 C1585 1.279 . S
C1582 C1580 1.348 . S
C1582 C1584 1.353 . S
C1582 H1640 0.929 . S
C1583 C1580 1.356 . S
C1583 C1585 1.358 . S
C1583 H1641 0.930 . S
C1584 N1581 1.314 . S
C1584 C1582 1.353 . S
C1584 H1642 0.930 . S
C1585 N1581 1.279 . S
C1585 C1583 1.358 . S
C1585 H1643 0.930 . S
C1586 C1589 1.348 1_545 S
C1586 C1590 1.356 . S
C1586 O1637 1.325 . S
C1587 N1588 1.279 . S
C1587 C1590 1.358 . S
C1587 H1644 0.930 . S
N1588 C1587 1.279 . S
N1588 C1591 1.314 1_545 S
C1589 C1586 1.348 1_565 S
C1589 C1591 1.353 . S
C1589 H1645 0.929 . S
C1590 C1586 1.356 . S
C1590 C1587 1.358 . S
C1590 H1646 0.930 . S
C1591 N1588 1.314 1_565 S
C1591 C1589 1.353 . S
C1591 H1647 0.930 . S
C1592 N1593 1.314 . S
C1592 C1597 1.353 . S
C1592 H1598 0.930 . S
N1593 Li1576 1.990 . S
N1593 C1592 1.314 . S
N1593 C1595 1.279 . S
C1594 C1595 1.358 . S
C1594 C1596 1.356 . S
C1594 H1648 0.930 . S
C1595 N1593 1.279 . S
C1595 C1594 1.358 . S
C1595 H1599 0.930 . S
C1596 C1594 1.356 . S
C1596 C1597 1.348 . S
C1597 C1592 1.353 . S
C1597 C1596 1.348 . S
C1597 H1649 0.929 . S
H1598 C1592 0.930 . S
H1599 C1595 0.930 . S
C1600 N1601 1.314 . S
C1600 C1602 1.353 . S
C1600 H1606 0.930 . S
N1601 Li1577 1.990 . S
N1601 C1600 1.314 . S
N1601 C1604 1.279 . S
C1602 C1600 1.353 . S
C1602 C1605 1.348 . S
C1602 H1650 0.929 . S
C1603 C1604 1.358 . S
C1603 C1605 1.356 . S
C1603 H1651 0.930 . S
C1604 N1601 1.279 . S
C1604 C1603 1.358 . S
C1604 H1607 0.930 . S
C1605 C1602 1.348 . S
C1605 C1603 1.356 . S
H1606 C1600 0.930 . S
H1607 C1604 0.930 . S
C1608 C1610 1.348 1_565 S
C1608 C1611 1.356 . S
C1608 O1638 1.325 . S
N1609 C1612 1.314 1_565 S
N1609 C1613 1.279 . S
C1610 C1608 1.348 1_545 S
C1610 C1612 1.353 . S
C1610 H1652 0.929 . S
C1611 C1608 1.356 . S
C1611 C1613 1.358 . S
C1611 H1653 0.930 . S
C1612 N1609 1.314 1_545 S
C1612 C1610 1.353 . S
C1612 H1654 0.930 . S
C1613 N1609 1.279 . S
C1613 C1611 1.358 . S
C1613 H1655 0.930 . S
C1614 C1615 1.348 . S
C1614 C1616 1.356 . S
C1614 O1639 1.325 . S
C1615 C1614 1.348 . S
C1615 C1617 1.353 . S
C1615 H1656 0.929 . S
C1616 C1614 1.356 . S
C1616 C1618 1.358 . S
C1616 H1657 0.930 . S
C1617 C1615 1.353 . S
C1617 N1619 1.314 . S
C1617 H1658 0.930 . S
C1618 C1616 1.358 . S
C1618 N1619 1.279 . S
C1618 H1659 0.930 . S
N1619 C1617 1.314 . S
N1619 C1618 1.279 . S
C1620 C1622 1.353 . S
C1620 N1623 1.314 . S
C1620 H1626 0.930 . S
C1621 N1623 1.279 . S
C1621 C1624 1.358 . S
C1621 H1627 0.930 . S
C1622 C1620 1.353 . S
C1622 C1625 1.348 . S
C1622 H1660 0.929 . S
N1623 Li1578 1.990 . S
N1623 C1620 1.314 . S
N1623 C1621 1.279 . S
C1624 C1621 1.358 . S
C1624 C1625 1.356 . S
C1624 H1661 0.930 . S
C1625 C1622 1.348 . S
C1625 C1624 1.356 . S
H1626 C1620 0.930 . S
H1627 C1621 0.930 . S
C1628 N1629 1.314 . S
C1628 C1630 1.353 . S
C1628 H1634 0.930 . S
N1629 Li1579 1.990 . S
N1629 C1628 1.314 . S
N1629 C1632 1.279 . S
C1630 C1628 1.353 . S
C1630 C1633 1.348 . S
C1630 H1662 0.929 . S
C1631 C1632 1.358 . S
C1631 C1633 1.356 . S
C1631 H1663 0.930 . S
C1632 N1629 1.279 . S
C1632 C1631 1.358 . S
C1632 H1635 0.930 . S
C1633 C1630 1.348 . S
C1633 C1631 1.356 . S
H1634 C1628 0.930 . S
H1635 C1632 0.930 . S
O1636 Li1576 1.956 . S
O1636 Li1577 1.970 1_565 S
O1636 Li1578 1.961 . S
O1636 C1580 1.325 . S
O1637 Li1576 1.970 1_545 S
O1637 Li1577 1.956 . S
O1637 Li1579 1.961 . S
O1637 C1586 1.325 . S
O1638 Li1576 1.961 . S
O1638 Li1578 1.956 . S
O1638 Li1579 1.970 1_565 S
O1638 C1608 1.325 . S
O1639 Li1577 1.961 . S
O1639 Li1578 1.970 1_545 S
O1639 Li1579 1.956 . S
O1639 C1614 1.325 . S
H1640 C1582 0.929 . S
H1641 C1583 0.930 . S
H1642 C1584 0.930 . S
H1643 C1585 0.930 . S
H1644 C1587 0.930 . S
H1645 C1589 0.929 . S
H1646 C1590 0.930 . S
H1647 C1591 0.930 . S
H1648 C1594 0.930 . S
H1649 C1597 0.929 . S
H1650 C1602 0.929 . S
H1651 C1603 0.930 . S
H1652 C1610 0.929 . S
H1653 C1611 0.930 . S
H1654 C1612 0.930 . S
H1655 C1613 0.930 . S
H1656 C1615 0.929 . S
H1657 C1616 0.930 . S
H1658 C1617 0.930 . S
H1659 C1618 0.930 . S
H1660 C1622 0.929 . S
H1661 C1624 0.930 . S
H1662 C1630 0.929 . S
H1663 C1631 0.930 . S
Li1664 N1681 1.990 . S
Li1664 O1724 1.956 . S
Li1664 O1725 1.970 1_455 S
Li1664 O1726 1.961 . S
Li1665 N1689 1.990 . S
Li1665 O1724 1.970 1_655 S
Li1665 O1725 1.956 . S
Li1665 O1727 1.961 . S
Li1666 N1711 1.990 . S
Li1666 O1724 1.961 . S
Li1666 O1726 1.956 . S
Li1666 O1727 1.970 1_455 S
Li1667 N1717 1.990 . S
Li1667 O1725 1.961 . S
Li1667 O1726 1.970 1_655 S
Li1667 O1727 1.956 . S
C1668 C1670 1.348 . S
C1668 C1671 1.356 . S
C1668 O1724 1.325 . S
N1669 C1672 1.314 . S
N1669 C1673 1.279 . S
C1670 C1668 1.348 . S
C1670 C1672 1.353 . S
C1670 H1728 0.929 . S
C1671 C1668 1.356 . S
C1671 C1673 1.358 . S
C1671 H1729 0.930 . S
C1672 N1669 1.314 . S
C1672 C1670 1.353 . S
C1672 H1730 0.930 . S
C1673 N1669 1.279 . S
C1673 C1671 1.358 . S
C1673 H1731 0.930 . S
C1674 C1677 1.348 1_655 S
C1674 C1678 1.356 . S
C1674 O1725 1.325 . S
C1675 N1676 1.279 . S
C1675 C1678 1.358 . S
C1675 H1732 0.930 . S
N1676 C1675 1.279 . S
N1676 C1679 1.314 1_655 S
C1677 C1674 1.348 1_455 S
C1677 C1679 1.353 . S
C1677 H1733 0.929 . S
C1678 C1674 1.356 . S
C1678 C1675 1.358 . S
C1678 H1734 0.930 . S
C1679 N1676 1.314 1_455 S
C1679 C1677 1.353 . S
C1679 H1735 0.930 . S
C1680 N1681 1.314 . S
C1680 C1685 1.353 . S
C1680 H1686 0.930 . S
N1681 Li1664 1.990 . S
N1681 C1680 1.314 . S
N1681 C1683 1.279 . S
C1682 C1683 1.358 . S
C1682 C1684 1.356 . S
C1682 H1736 0.930 . S
C1683 N1681 1.279 . S
C1683 C1682 1.358 . S
C1683 H1687 0.930 . S
C1684 C1682 1.356 . S
C1684 C1685 1.348 . S
C1685 C1680 1.353 . S
C1685 C1684 1.348 . S
C1685 H1737 0.929 . S
H1686 C1680 0.930 . S
H1687 C1683 0.930 . S
C1688 N1689 1.314 . S
C1688 C1690 1.353 . S
C1688 H1694 0.930 . S
N1689 Li1665 1.990 . S
N1689 C1688 1.314 . S
N1689 C1692 1.279 . S
C1690 C1688 1.353 . S
C1690 C1693 1.348 . S
C1690 H1738 0.929 . S
C1691 C1692 1.358 . S
C1691 C1693 1.356 . S
C1691 H1739 0.930 . S
C1692 N1689 1.279 . S
C1692 C1691 1.358 . S
C1692 H1695 0.930 . S
C1693 C1690 1.348 . S
C1693 C1691 1.356 . S
H1694 C1688 0.930 . S
H1695 C1692 0.930 . S
C1696 C1698 1.348 1_455 S
C1696 C1699 1.356 . S
C1696 O1726 1.325 . S
N1697 C1700 1.314 1_455 S
N1697 C1701 1.279 . S
C1698 C1696 1.348 1_655 S
C1698 C1700 1.353 . S
C1698 H1740 0.929 . S
C1699 C1696 1.356 . S
C1699 C1701 1.358 . S
C1699 H1741 0.930 . S
C1700 N1697 1.314 1_655 S
C1700 C1698 1.353 . S
C1700 H1742 0.930 . S
C1701 N1697 1.279 . S
C1701 C1699 1.358 . S
C1701 H1743 0.930 . S
C1702 C1703 1.348 . S
C1702 C1704 1.356 . S
C1702 O1727 1.325 . S
C1703 C1702 1.348 . S
C1703 C1705 1.353 . S
C1703 H1744 0.929 . S
C1704 C1702 1.356 . S
C1704 C1706 1.358 . S
C1704 H1745 0.930 . S
C1705 C1703 1.353 . S
C1705 N1707 1.314 . S
C1705 H1746 0.930 . S
C1706 C1704 1.358 . S
C1706 N1707 1.279 . S
C1706 H1747 0.930 . S
N1707 C1705 1.314 . S
N1707 C1706 1.279 . S
C1708 C1710 1.353 . S
C1708 N1711 1.314 . S
C1708 H1714 0.930 . S
C1709 N1711 1.279 . S
C1709 C1712 1.358 . S
C1709 H1715 0.930 . S
C1710 C1708 1.353 . S
C1710 C1713 1.348 . S
C1710 H1748 0.929 . S
N1711 Li1666 1.990 . S
N1711 C1708 1.314 . S
N1711 C1709 1.279 . S
C1712 C1709 1.358 . S
C1712 C1713 1.356 . S
C1712 H1749 0.930 . S
C1713 C1710 1.348 . S
C1713 C1712 1.356 . S
H1714 C1708 0.930 . S
H1715 C1709 0.930 . S
C1716 N1717 1.314 . S
C1716 C1718 1.353 . S
C1716 H1722 0.930 . S
N1717 Li1667 1.990 . S
N1717 C1716 1.314 . S
N1717 C1720 1.279 . S
C1718 C1716 1.353 . S
C1718 C1721 1.348 . S
C1718 H1750 0.929 . S
C1719 C1720 1.358 . S
C1719 C1721 1.356 . S
C1719 H1751 0.930 . S
C1720 N1717 1.279 . S
C1720 C1719 1.358 . S
C1720 H1723 0.930 . S
C1721 C1718 1.348 . S
C1721 C1719 1.356 . S
H1722 C1716 0.930 . S
H1723 C1720 0.930 . S
O1724 Li1664 1.956 . S
O1724 Li1665 1.970 1_455 S
O1724 Li1666 1.961 . S
O1724 C1668 1.325 . S
O1725 Li1664 1.970 1_655 S
O1725 Li1665 1.956 . S
O1725 Li1667 1.961 . S
O1725 C1674 1.325 . S
O1726 Li1664 1.961 . S
O1726 Li1666 1.956 . S
O1726 Li1667 1.970 1_455 S
O1726 C1696 1.325 . S
O1727 Li1665 1.961 . S
O1727 Li1666 1.970 1_655 S
O1727 Li1667 1.956 . S
O1727 C1702 1.325 . S
H1728 C1670 0.929 . S
H1729 C1671 0.930 . S
H1730 C1672 0.930 . S
H1731 C1673 0.930 . S
H1732 C1675 0.930 . S
H1733 C1677 0.929 . S
H1734 C1678 0.930 . S
H1735 C1679 0.930 . S
H1736 C1682 0.930 . S
H1737 C1685 0.929 . S
H1738 C1690 0.929 . S
H1739 C1691 0.930 . S
H1740 C1698 0.929 . S
H1741 C1699 0.930 . S
H1742 C1700 0.930 . S
H1743 C1701 0.930 . S
H1744 C1703 0.929 . S
H1745 C1704 0.930 . S
H1746 C1705 0.930 . S
H1747 C1706 0.930 . S
H1748 C1710 0.929 . S
H1749 C1712 0.930 . S
H1750 C1718 0.929 . S
H1751 C1719 0.930 . S
Li1752 N1769 1.990 . S
Li1752 O1812 1.956 . S
Li1752 O1813 1.970 . S
Li1752 O1814 1.961 . S
Li1753 N1777 1.990 . S
Li1753 O1812 1.970 . S
Li1753 O1813 1.956 . S
Li1753 O1815 1.961 . S
Li1754 N1799 1.990 . S
Li1754 O1812 1.961 . S
Li1754 O1814 1.956 . S
Li1754 O1815 1.970 . S
Li1755 N1805 1.990 . S
Li1755 O1813 1.961 . S
Li1755 O1814 1.970 . S
Li1755 O1815 1.956 . S
C1756 C1758 1.348 . S
C1756 C1759 1.356 . S
C1756 O1812 1.325 . S
N1757 C1760 1.314 . S
N1757 C1761 1.279 . S
C1758 C1756 1.348 . S
C1758 C1760 1.353 . S
C1758 H1816 0.929 . S
C1759 C1756 1.356 . S
C1759 C1761 1.358 . S
C1759 H1817 0.930 . S
C1760 N1757 1.314 . S
C1760 C1758 1.353 . S
C1760 H1818 0.930 . S
C1761 N1757 1.279 . S
C1761 C1759 1.358 . S
C1761 H1819 0.930 . S
C1762 C1765 1.348 . S
C1762 C1766 1.356 . S
C1762 O1813 1.325 . S
C1763 N1764 1.279 . S
C1763 C1766 1.358 . S
C1763 H1820 0.930 . S
N1764 C1763 1.279 . S
N1764 C1767 1.314 . S
C1765 C1762 1.348 . S
C1765 C1767 1.353 . S
C1765 H1821 0.929 . S
C1766 C1762 1.356 . S
C1766 C1763 1.358 . S
C1766 H1822 0.930 . S
C1767 N1764 1.314 . S
C1767 C1765 1.353 . S
C1767 H1823 0.930 . S
C1768 N1769 1.314 . S
C1768 C1773 1.353 . S
C1768 H1774 0.930 . S
N1769 Li1752 1.990 . S
N1769 C1768 1.314 . S
N1769 C1771 1.279 . S
C1770 C1771 1.358 . S
C1770 C1772 1.356 . S
C1770 H1824 0.930 . S
C1771 N1769 1.279 . S
C1771 C1770 1.358 . S
C1771 H1775 0.930 . S
C1772 C1770 1.356 . S
C1772 C1773 1.348 . S
C1773 C1768 1.353 . S
C1773 C1772 1.348 . S
C1773 H1825 0.929 . S
H1774 C1768 0.930 . S
H1775 C1771 0.930 . S
C1776 N1777 1.314 . S
C1776 C1778 1.353 . S
C1776 H1782 0.930 . S
N1777 Li1753 1.990 . S
N1777 C1776 1.314 . S
N1777 C1780 1.279 . S
C1778 C1776 1.353 . S
C1778 C1781 1.348 . S
C1778 H1826 0.929 . S
C1779 C1780 1.358 . S
C1779 C1781 1.356 . S
C1779 H1827 0.930 . S
C1780 N1777 1.279 . S
C1780 C1779 1.358 . S
C1780 H1783 0.930 . S
C1781 C1778 1.348 . S
C1781 C1779 1.356 . S
H1782 C1776 0.930 . S
H1783 C1780 0.930 . S
C1784 C1786 1.348 . S
C1784 C1787 1.356 . S
C1784 O1814 1.325 . S
N1785 C1788 1.314 . S
N1785 C1789 1.279 . S
C1786 C1784 1.348 . S
C1786 C1788 1.353 . S
C1786 H1828 0.929 . S
C1787 C1784 1.356 . S
C1787 C1789 1.358 . S
C1787 H1829 0.930 . S
C1788 N1785 1.314 . S
C1788 C1786 1.353 . S
C1788 H1830 0.930 . S
C1789 N1785 1.279 . S
C1789 C1787 1.358 . S
C1789 H1831 0.930 . S
C1790 C1791 1.348 . S
C1790 C1792 1.356 . S
C1790 O1815 1.325 . S
C1791 C1790 1.348 . S
C1791 C1793 1.353 . S
C1791 H1832 0.929 . S
C1792 C1790 1.356 . S
C1792 C1794 1.358 . S
C1792 H1833 0.930 . S
C1793 C1791 1.353 . S
C1793 N1795 1.314 . S
C1793 H1834 0.930 . S
C1794 C1792 1.358 . S
C1794 N1795 1.279 . S
C1794 H1835 0.930 . S
N1795 C1793 1.314 . S
N1795 C1794 1.279 . S
C1796 C1798 1.353 . S
C1796 N1799 1.314 . S
C1796 H1802 0.930 . S
C1797 N1799 1.279 . S
C1797 C1800 1.358 . S
C1797 H1803 0.930 . S
C1798 C1796 1.353 . S
C1798 C1801 1.348 . S
C1798 H1836 0.929 . S
N1799 Li1754 1.990 . S
N1799 C1796 1.314 . S
N1799 C1797 1.279 . S
C1800 C1797 1.358 . S
C1800 C1801 1.356 . S
C1800 H1837 0.930 . S
C1801 C1798 1.348 . S
C1801 C1800 1.356 . S
H1802 C1796 0.930 . S
H1803 C1797 0.930 . S
C1804 N1805 1.314 . S
C1804 C1806 1.353 . S
C1804 H1810 0.930 . S
N1805 Li1755 1.990 . S
N1805 C1804 1.314 . S
N1805 C1808 1.279 . S
C1806 C1804 1.353 . S
C1806 C1809 1.348 . S
C1806 H1838 0.929 . S
C1807 C1808 1.358 . S
C1807 C1809 1.356 . S
C1807 H1839 0.930 . S
C1808 N1805 1.279 . S
C1808 C1807 1.358 . S
C1808 H1811 0.930 . S
C1809 C1806 1.348 . S
C1809 C1807 1.356 . S
H1810 C1804 0.930 . S
H1811 C1808 0.930 . S
O1812 Li1752 1.956 . S
O1812 Li1753 1.970 . S
O1812 Li1754 1.961 . S
O1812 C1756 1.325 . S
O1813 Li1752 1.970 . S
O1813 Li1753 1.956 . S
O1813 Li1755 1.961 . S
O1813 C1762 1.325 . S
O1814 Li1752 1.961 . S
O1814 Li1754 1.956 . S
O1814 Li1755 1.970 . S
O1814 C1784 1.325 . S
O1815 Li1753 1.961 . S
O1815 Li1754 1.970 . S
O1815 Li1755 1.956 . S
O1815 C1790 1.325 . S
H1816 C1758 0.929 . S
H1817 C1759 0.930 . S
H1818 C1760 0.930 . S
H1819 C1761 0.930 . S
H1820 C1763 0.930 . S
H1821 C1765 0.929 . S
H1822 C1766 0.930 . S
H1823 C1767 0.930 . S
H1824 C1770 0.930 . S
H1825 C1773 0.929 . S
H1826 C1778 0.929 . S
H1827 C1779 0.930 . S
H1828 C1786 0.929 . S
H1829 C1787 0.930 . S
H1830 C1788 0.930 . S
H1831 C1789 0.930 . S
H1832 C1791 0.929 . S
H1833 C1792 0.930 . S
H1834 C1793 0.930 . S
H1835 C1794 0.930 . S
H1836 C1798 0.929 . S
H1837 C1800 0.930 . S
H1838 C1806 0.929 . S
H1839 C1807 0.930 . S
Li1840 N1857 1.990 . S
Li1840 O1900 1.956 . S
Li1840 O1901 1.970 1_455 S
Li1840 O1902 1.961 . S
Li1841 N1865 1.990 . S
Li1841 O1900 1.970 1_655 S
Li1841 O1901 1.956 . S
Li1841 O1903 1.961 . S
Li1842 N1887 1.990 . S
Li1842 O1900 1.961 . S
Li1842 O1902 1.956 . S
Li1842 O1903 1.970 1_455 S
Li1843 N1893 1.990 . S
Li1843 O1901 1.961 . S
Li1843 O1902 1.970 1_655 S
Li1843 O1903 1.956 . S
C1844 C1846 1.348 1_455 S
C1844 C1847 1.356 . S
C1844 O1900 1.325 . S
N1845 C1848 1.314 1_455 S
N1845 C1849 1.279 . S
C1846 C1844 1.348 1_655 S
C1846 C1848 1.353 . S
C1846 H1904 0.929 . S
C1847 C1844 1.356 . S
C1847 C1849 1.358 . S
C1847 H1905 0.930 . S
C1848 N1845 1.314 1_655 S
C1848 C1846 1.353 . S
C1848 H1906 0.930 . S
C1849 N1845 1.279 . S
C1849 C1847 1.358 . S
C1849 H1907 0.930 . S
C1850 C1853 1.348 . S
C1850 C1854 1.356 . S
C1850 O1901 1.325 . S
C1851 N1852 1.279 . S
C1851 C1854 1.358 . S
C1851 H1908 0.930 . S
N1852 C1851 1.279 . S
N1852 C1855 1.314 . S
C1853 C1850 1.348 . S
C1853 C1855 1.353 . S
C1853 H1909 0.929 . S
C1854 C1850 1.356 . S
C1854 C1851 1.358 . S
C1854 H1910 0.930 . S
C1855 N1852 1.314 . S
C1855 C1853 1.353 . S
C1855 H1911 0.930 . S
C1856 N1857 1.314 . S
C1856 C1861 1.353 . S
C1856 H1862 0.930 . S
N1857 Li1840 1.990 . S
N1857 C1856 1.314 . S
N1857 C1859 1.279 . S
C1858 C1859 1.358 . S
C1858 C1860 1.356 . S
C1858 H1912 0.930 . S
C1859 N1857 1.279 . S
C1859 C1858 1.358 . S
C1859 H1863 0.930 . S
C1860 C1858 1.356 . S
C1860 C1861 1.348 . S
C1861 C1856 1.353 . S
C1861 C1860 1.348 . S
C1861 H1913 0.929 . S
H1862 C1856 0.930 . S
H1863 C1859 0.930 . S
C1864 N1865 1.314 . S
C1864 C1866 1.353 . S
C1864 H1870 0.930 . S
N1865 Li1841 1.990 . S
N1865 C1864 1.314 . S
N1865 C1868 1.279 . S
C1866 C1864 1.353 . S
C1866 C1869 1.348 . S
C1866 H1914 0.929 . S
C1867 C1868 1.358 . S
C1867 C1869 1.356 . S
C1867 H1915 0.930 . S
C1868 N1865 1.279 . S
C1868 C1867 1.358 . S
C1868 H1871 0.930 . S
C1869 C1866 1.348 . S
C1869 C1867 1.356 . S
H1870 C1864 0.930 . S
H1871 C1868 0.930 . S
C1872 C1874 1.348 . S
C1872 C1875 1.356 . S
C1872 O1902 1.325 . S
N1873 C1876 1.314 . S
N1873 C1877 1.279 . S
C1874 C1872 1.348 . S
C1874 C1876 1.353 . S
C1874 H1916 0.929 . S
C1875 C1872 1.356 . S
C1875 C1877 1.358 . S
C1875 H1917 0.930 . S
C1876 N1873 1.314 . S
C1876 C1874 1.353 . S
C1876 H1918 0.930 . S
C1877 N1873 1.279 . S
C1877 C1875 1.358 . S
C1877 H1919 0.930 . S
C1878 C1879 1.348 1_655 S
C1878 C1880 1.356 . S
C1878 O1903 1.325 . S
C1879 C1878 1.348 1_455 S
C1879 C1881 1.353 . S
C1879 H1920 0.929 . S
C1880 C1878 1.356 . S
C1880 C1882 1.358 . S
C1880 H1921 0.930 . S
C1881 C1879 1.353 . S
C1881 N1883 1.314 1_455 S
C1881 H1922 0.930 . S
C1882 C1880 1.358 . S
C1882 N1883 1.279 . S
C1882 H1923 0.930 . S
N1883 C1881 1.314 1_655 S
N1883 C1882 1.279 . S
C1884 C1886 1.353 . S
C1884 N1887 1.314 . S
C1884 H1890 0.930 . S
C1885 N1887 1.279 . S
C1885 C1888 1.358 . S
C1885 H1891 0.930 . S
C1886 C1884 1.353 . S
C1886 C1889 1.348 . S
C1886 H1924 0.929 . S
N1887 Li1842 1.990 . S
N1887 C1884 1.314 . S
N1887 C1885 1.279 . S
C1888 C1885 1.358 . S
C1888 C1889 1.356 . S
C1888 H1925 0.930 . S
C1889 C1886 1.348 . S
C1889 C1888 1.356 . S
H1890 C1884 0.930 . S
H1891 C1885 0.930 . S
C1892 N1893 1.314 . S
C1892 C1894 1.353 . S
C1892 H1898 0.930 . S
N1893 Li1843 1.990 . S
N1893 C1892 1.314 . S
N1893 C1896 1.279 . S
C1894 C1892 1.353 . S
C1894 C1897 1.348 . S
C1894 H1926 0.929 . S
C1895 C1896 1.358 . S
C1895 C1897 1.356 . S
C1895 H1927 0.930 . S
C1896 N1893 1.279 . S
C1896 C1895 1.358 . S
C1896 H1899 0.930 . S
C1897 C1894 1.348 . S
C1897 C1895 1.356 . S
H1898 C1892 0.930 . S
H1899 C1896 0.930 . S
O1900 Li1840 1.956 . S
O1900 Li1841 1.970 1_455 S
O1900 Li1842 1.961 . S
O1900 C1844 1.325 . S
O1901 Li1840 1.970 1_655 S
O1901 Li1841 1.956 . S
O1901 Li1843 1.961 . S
O1901 C1850 1.325 . S
O1902 Li1840 1.961 . S
O1902 Li1842 1.956 . S
O1902 Li1843 1.970 1_455 S
O1902 C1872 1.325 . S
O1903 Li1841 1.961 . S
O1903 Li1842 1.970 1_655 S
O1903 Li1843 1.956 . S
O1903 C1878 1.325 . S
H1904 C1846 0.929 . S
H1905 C1847 0.930 . S
H1906 C1848 0.930 . S
H1907 C1849 0.930 . S
H1908 C1851 0.930 . S
H1909 C1853 0.929 . S
H1910 C1854 0.930 . S
H1911 C1855 0.930 . S
H1912 C1858 0.930 . S
H1913 C1861 0.929 . S
H1914 C1866 0.929 . S
H1915 C1867 0.930 . S
H1916 C1874 0.929 . S
H1917 C1875 0.930 . S
H1918 C1876 0.930 . S
H1919 C1877 0.930 . S
H1920 C1879 0.929 . S
H1921 C1880 0.930 . S
H1922 C1881 0.930 . S
H1923 C1882 0.930 . S
H1924 C1886 0.929 . S
H1925 C1888 0.930 . S
H1926 C1894 0.929 . S
H1927 C1895 0.930 . S
Li1928 N1945 1.990 . S
Li1928 O1988 1.956 . S
Li1928 O1989 1.970 . S
Li1928 O1990 1.961 . S
Li1929 N1953 1.990 . S
Li1929 O1988 1.970 . S
Li1929 O1989 1.956 . S
Li1929 O1991 1.961 . S
Li1930 N1975 1.990 . S
Li1930 O1988 1.961 . S
Li1930 O1990 1.956 . S
Li1930 O1991 1.970 . S
Li1931 N1981 1.990 . S
Li1931 O1989 1.961 . S
Li1931 O1990 1.970 . S
Li1931 O1991 1.956 . S
C1932 C1934 1.348 . S
C1932 C1935 1.356 . S
C1932 O1988 1.325 . S
N1933 C1936 1.314 . S
N1933 C1937 1.279 . S
C1934 C1932 1.348 . S
C1934 C1936 1.353 . S
C1934 H1992 0.929 . S
C1935 C1932 1.356 . S
C1935 C1937 1.358 . S
C1935 H1993 0.930 . S
C1936 N1933 1.314 . S
C1936 C1934 1.353 . S
C1936 H1994 0.930 . S
C1937 N1933 1.279 . S
C1937 C1935 1.358 . S
C1937 H1995 0.930 . S
C1938 C1941 1.348 . S
C1938 C1942 1.356 . S
C1938 O1989 1.325 . S
C1939 N1940 1.279 . S
C1939 C1942 1.358 . S
C1939 H1996 0.930 . S
N1940 C1939 1.279 . S
N1940 C1943 1.314 . S
C1941 C1938 1.348 . S
C1941 C1943 1.353 . S
C1941 H1997 0.929 . S
C1942 C1938 1.356 . S
C1942 C1939 1.358 . S
C1942 H1998 0.930 . S
C1943 N1940 1.314 . S
C1943 C1941 1.353 . S
C1943 H1999 0.930 . S
C1944 N1945 1.314 . S
C1944 C1949 1.353 . S
C1944 H1950 0.930 . S
N1945 Li1928 1.990 . S
N1945 C1944 1.314 . S
N1945 C1947 1.279 . S
C1946 C1947 1.358 . S
C1946 C1948 1.356 . S
C1946 H2000 0.930 . S
C1947 N1945 1.279 . S
C1947 C1946 1.358 . S
C1947 H1951 0.930 . S
C1948 C1946 1.356 . S
C1948 C1949 1.348 . S
C1949 C1944 1.353 . S
C1949 C1948 1.348 . S
C1949 H2001 0.929 . S
H1950 C1944 0.930 . S
H1951 C1947 0.930 . S
C1952 N1953 1.314 . S
C1952 C1954 1.353 . S
C1952 H1958 0.930 . S
N1953 Li1929 1.990 . S
N1953 C1952 1.314 . S
N1953 C1956 1.279 . S
C1954 C1952 1.353 . S
C1954 C1957 1.348 . S
C1954 H2002 0.929 . S
C1955 C1956 1.358 . S
C1955 C1957 1.356 . S
C1955 H2003 0.930 . S
C1956 N1953 1.279 . S
C1956 C1955 1.358 . S
C1956 H1959 0.930 . S
C1957 C1954 1.348 . S
C1957 C1955 1.356 . S
H1958 C1952 0.930 . S
H1959 C1956 0.930 . S
C1960 C1962 1.348 . S
C1960 C1963 1.356 . S
C1960 O1990 1.325 . S
N1961 C1964 1.314 . S
N1961 C1965 1.279 . S
C1962 C1960 1.348 . S
C1962 C1964 1.353 . S
C1962 H2004 0.929 . S
C1963 C1960 1.356 . S
C1963 C1965 1.358 . S
C1963 H2005 0.930 . S
C1964 N1961 1.314 . S
C1964 C1962 1.353 . S
C1964 H2006 0.930 . S
C1965 N1961 1.279 . S
C1965 C1963 1.358 . S
C1965 H2007 0.930 . S
C1966 C1967 1.348 . S
C1966 C1968 1.356 . S
C1966 O1991 1.325 . S
C1967 C1966 1.348 . S
C1967 C1969 1.353 . S
C1967 H2008 0.929 . S
C1968 C1966 1.356 . S
C1968 C1970 1.358 . S
C1968 H2009 0.930 . S
C1969 C1967 1.353 . S
C1969 N1971 1.314 . S
C1969 H2010 0.930 . S
C1970 C1968 1.358 . S
C1970 N1971 1.279 . S
C1970 H2011 0.930 . S
N1971 C1969 1.314 . S
N1971 C1970 1.279 . S
C1972 C1974 1.353 . S
C1972 N1975 1.314 . S
C1972 H1978 0.930 . S
C1973 N1975 1.279 . S
C1973 C1976 1.358 . S
C1973 H1979 0.930 . S
C1974 C1972 1.353 . S
C1974 C1977 1.348 . S
C1974 H2012 0.929 . S
N1975 Li1930 1.990 . S
N1975 C1972 1.314 . S
N1975 C1973 1.279 . S
C1976 C1973 1.358 . S
C1976 C1977 1.356 . S
C1976 H2013 0.930 . S
C1977 C1974 1.348 . S
C1977 C1976 1.356 . S
H1978 C1972 0.930 . S
H1979 C1973 0.930 . S
C1980 N1981 1.314 . S
C1980 C1982 1.353 . S
C1980 H1986 0.930 . S
N1981 Li1931 1.990 . S
N1981 C1980 1.314 . S
N1981 C1984 1.279 . S
C1982 C1980 1.353 . S
C1982 C1985 1.348 . S
C1982 H2014 0.929 . S
C1983 C1984 1.358 . S
C1983 C1985 1.356 . S
C1983 H2015 0.930 . S
C1984 N1981 1.279 . S
C1984 C1983 1.358 . S
C1984 H1987 0.930 . S
C1985 C1982 1.348 . S
C1985 C1983 1.356 . S
H1986 C1980 0.930 . S
H1987 C1984 0.930 . S
O1988 Li1928 1.956 . S
O1988 Li1929 1.970 . S
O1988 Li1930 1.961 . S
O1988 C1932 1.325 . S
O1989 Li1928 1.970 . S
O1989 Li1929 1.956 . S
O1989 Li1931 1.961 . S
O1989 C1938 1.325 . S
O1990 Li1928 1.961 . S
O1990 Li1930 1.956 . S
O1990 Li1931 1.970 . S
O1990 C1960 1.325 . S
O1991 Li1929 1.961 . S
O1991 Li1930 1.970 . S
O1991 Li1931 1.956 . S
O1991 C1966 1.325 . S
H1992 C1934 0.929 . S
H1993 C1935 0.930 . S
H1994 C1936 0.930 . S
H1995 C1937 0.930 . S
H1996 C1939 0.930 . S
H1997 C1941 0.929 . S
H1998 C1942 0.930 . S
H1999 C1943 0.930 . S
H2000 C1946 0.930 . S
H2001 C1949 0.929 . S
H2002 C1954 0.929 . S
H2003 C1955 0.930 . S
H2004 C1962 0.929 . S
H2005 C1963 0.930 . S
H2006 C1964 0.930 . S
H2007 C1965 0.930 . S
H2008 C1967 0.929 . S
H2009 C1968 0.930 . S
H2010 C1969 0.930 . S
H2011 C1970 0.930 . S
H2012 C1974 0.929 . S
H2013 C1976 0.930 . S
H2014 C1982 0.929 . S
H2015 C1983 0.930 . S
C1009 C331 1.560 . S
C1068 C380 1.579 . S
C421 C1185 1.560 . S
C1253 C260 1.503 . S
C1332 C620 1.556 . S
C1457 C740 1.583 . S
C680 C1517 1.480 . S
C1625 C571 1.579 . S
C691 C1721 1.485 . S
C1781 C541 1.579 . S
C601 C1684 1.551 . S
C1801 C721 1.583 . S
C451 C1869 1.560 . S
C241 C1860 1.504 . S
C320 C1889 1.552 . S
C391 C1897 1.579 . S
C211 C1281 1.560 . S
C841 C1244 1.551 . S
C980 C901 1.579 . S
C1077 C500 1.556 . S
C271 C1341 1.504 . S
C1633 C661 1.476 . S
C1361 C560 1.579 . S
C1545 C751 1.583 . S
C1537 C871 1.556 . S
C920 C1605 1.579 . S
C481 C1369 1.556 . S
C1420 C800 1.504 . S
C200 C1165 1.552 . S
C1273 C20 1.584 . S
C989 C80 1.476 . S
C1105 C151 1.579 . S
C91 C1809 1.481 . S
C121 C1693 1.579 . S
C181 C1772 1.555 . S
C1 C1713 1.584 . S
C1957 C511 1.556 . S
C1948 C781 1.504 . S
C1977 C860 1.556 . S
C931 C1985 1.579 . S
C631 C1449 1.556 . S
C1429 C301 1.555 . S
C1508 C361 1.579 . S
C1596 C440 1.560 . S
C811 C1156 1.503 . S
C1097 C61 1.480 . S
C140 C1193 1.579 . S
C1017 C31 1.584 . S
