# Generated by pormake.
# Topology pyr, (3,6)-cn, num edge types: 1
# Building blocks:
#     Node 0, Type 0, BuildingBlock: QEWDON_clean_linker_0, # of connection points: 3
#     Node 1, Type 0, BuildingBlock: QEWDON_clean_linker_0, # of connection points: 3
#     Node 2, Type 0, BuildingBlock: QEWDON_clean_linker_0, # of connection points: 3
#     Node 3, Type 0, BuildingBlock: QEWDON_clean_linker_0, # of connection points: 3
#     Node 4, Type 0, BuildingBlock: QEWDON_clean_linker_0, # of connection points: 3
#     Node 5, Type 0, BuildingBlock: QEWDON_clean_linker_0, # of connection points: 3
#     Node 6, Type 0, BuildingBlock: QEWDON_clean_linker_0, # of connection points: 3
#     Node 7, Type 0, BuildingBlock: QEWDON_clean_linker_0, # of connection points: 3
#     Node 8, Type 1, BuildingBlock: INOVEN_clean_sbu_0, # of connection points: 6
#     Node 9, Type 1, BuildingBlock: INOVEN_clean_sbu_0, # of connection points: 6
#     Node 10, Type 1, BuildingBlock: INOVEN_clean_sbu_0, # of connection points: 6
#     Node 11, Type 1, BuildingBlock: INOVEN_clean_sbu_0, # of connection points: 6
#     Edge 12, Type (0, 1), BuildingBlock: EZIPEK_clean_linker_0, # of connection points: 2
#     Edge 13, Type (0, 1), BuildingBlock: EZIPEK_clean_linker_0, # of connection points: 2
#     Edge 14, Type (0, 1), BuildingBlock: EZIPEK_clean_linker_0, # of connection points: 2
#     Edge 15, Type (0, 1), BuildingBlock: EZIPEK_clean_linker_0, # of connection points: 2
#     Edge 16, Type (0, 1), BuildingBlock: EZIPEK_clean_linker_0, # of connection points: 2
#     Edge 17, Type (0, 1), BuildingBlock: EZIPEK_clean_linker_0, # of connection points: 2
#     Edge 18, Type (0, 1), BuildingBlock: EZIPEK_clean_linker_0, # of connection points: 2
#     Edge 19, Type (0, 1), BuildingBlock: EZIPEK_clean_linker_0, # of connection points: 2
#     Edge 20, Type (0, 1), BuildingBlock: EZIPEK_clean_linker_0, # of connection points: 2
#     Edge 21, Type (0, 1), BuildingBlock: EZIPEK_clean_linker_0, # of connection points: 2
#     Edge 22, Type (0, 1), BuildingBlock: EZIPEK_clean_linker_0, # of connection points: 2
#     Edge 23, Type (0, 1), BuildingBlock: EZIPEK_clean_linker_0, # of connection points: 2
#     Edge 24, Type (0, 1), BuildingBlock: EZIPEK_clean_linker_0, # of connection points: 2
#     Edge 25, Type (0, 1), BuildingBlock: EZIPEK_clean_linker_0, # of connection points: 2
#     Edge 26, Type (0, 1), BuildingBlock: EZIPEK_clean_linker_0, # of connection points: 2
#     Edge 27, Type (0, 1), BuildingBlock: EZIPEK_clean_linker_0, # of connection points: 2
#     Edge 28, Type (0, 1), BuildingBlock: EZIPEK_clean_linker_0, # of connection points: 2
#     Edge 29, Type (0, 1), BuildingBlock: EZIPEK_clean_linker_0, # of connection points: 2
#     Edge 30, Type (0, 1), BuildingBlock: EZIPEK_clean_linker_0, # of connection points: 2
#     Edge 31, Type (0, 1), BuildingBlock: EZIPEK_clean_linker_0, # of connection points: 2
#     Edge 32, Type (0, 1), BuildingBlock: EZIPEK_clean_linker_0, # of connection points: 2
#     Edge 33, Type (0, 1), BuildingBlock: EZIPEK_clean_linker_0, # of connection points: 2
#     Edge 34, Type (0, 1), BuildingBlock: EZIPEK_clean_linker_0, # of connection points: 2
#     Edge 35, Type (0, 1), BuildingBlock: EZIPEK_clean_linker_0, # of connection points: 2
# Relax obj value: 0.218
# Max RMSD: 0.263
# Mean RMSD: 0.197
data_MOF--net-pyr--node1-INOVEN_clean_sbu_0--node2-QEWDON_clean_linker_0--edge1-EZIPEK_clean_linker_0
_symmetry_space_group_name_H-M    P1
_symmetry_Int_Tables_number       1
_symmetry_cell_setting            triclinic
loop_
_symmetry_equiv_pos_as_xyz
'x, y, z'
_cell_length_a     28.547066
_cell_length_b     30.942808
_cell_length_c     29.676039
_cell_angle_alpha  91.343392
_cell_angle_beta   89.726329
_cell_angle_gamma 111.71765
loop_
_atom_site_label
_atom_site_type_symbol
_atom_site_fract_x
_atom_site_fract_y
_atom_site_fract_z
_atom_type_partial_charge
H0 H 0.47519 0.36015 0.19559 0.0
C1 C 0.44804 0.34926 0.22269 0.0
C2 C 0.43607 0.30473 0.24054 0.0
C3 C 0.4228 0.37835 0.23786 0.0
H4 H 0.38848 0.25445 0.28657 0.0
C5 C 0.39918 0.28941 0.27399 0.0
C6 C 0.37334 0.31774 0.28875 0.0
C7 C 0.38575 0.36218 0.27127 0.0
C8 C 0.43346 0.42483 0.21812 0.0
H9 H 0.36571 0.3838 0.28345 0.0
C10 C 0.39403 0.44107 0.2107 0.0
C11 C 0.40429 0.48609 0.195 0.0
C12 C 0.48316 0.454 0.20805 0.0
H13 H 0.51435 0.44283 0.21373 0.0
C14 C 0.49331 0.49857 0.19178 0.0
H15 H 0.35528 0.41903 0.21741 0.0
C16 C 0.45421 0.51476 0.18563 0.0
H17 H 0.46283 0.54968 0.17369 0.0
H18 H 0.53175 0.5209 0.18451 0.0
H19 H 0.17754 0.91529 0.75527 0.0
C20 C 0.19653 0.89203 0.74531 0.0
C21 C 0.23152 0.88571 0.77467 0.0
C22 C 0.19014 0.87246 0.70148 0.0
H23 H 0.28688 0.85479 0.78333 0.0
C24 C 0.25805 0.85779 0.76128 0.0
C25 C 0.25194 0.83812 0.71783 0.0
C26 C 0.21739 0.84479 0.68797 0.0
C27 C 0.16156 0.88747 0.66816 0.0
H28 H 0.21484 0.83173 0.65349 0.0
C29 C 0.17453 0.93521 0.66121 0.0
C30 C 0.1455 0.95082 0.63266 0.0
C31 C 0.12107 0.85506 0.64416 0.0
H32 H 0.11089 0.81809 0.64885 0.0
C33 C 0.09263 0.87044 0.61482 0.0
H34 H 0.2065 0.9604 0.67898 0.0
C35 C 0.10438 0.91808 0.6094 0.0
H36 H 0.08139 0.92946 0.5872 0.0
H37 H 0.06099 0.84541 0.59672 0.0
H38 H 0.74608 0.51351 0.93821 0.0
C39 C 0.73229 0.47739 0.94778 0.0
C40 C 0.75953 0.46276 0.98045 0.0
C41 C 0.68582 0.44595 0.92971 0.0
H42 H 0.7585 0.40545 1.02143 0.0
C43 C 0.73926 0.41632 0.99518 0.0
C44 C 0.69342 0.38434 0.97791 0.0
C45 C 0.66834 0.39909 0.9443 0.0
C46 C 0.64999 0.46154 0.90224 0.0
H47 H 0.63293 0.37419 0.93145 0.0
C48 C 0.66338 0.49214 0.86447 0.0
C49 C 0.62501 0.50137 0.83947 0.0
C50 C 0.59885 0.44342 0.91502 0.0
H51 H 0.58681 0.42209 0.94446 0.0
C52 C 0.56194 0.45184 0.89053 0.0
H53 H 0.70245 0.50792 0.85445 0.0
C54 C 0.57462 0.47968 0.85303 0.0
H55 H 0.54455 0.48527 0.83489 0.0
H56 H 0.52291 0.43665 0.90086 0.0
H57 H 0.95332 0.86028 0.43055 0.0
C58 C 0.91867 0.83778 0.44598 0.0
C59 C 0.90034 0.85395 0.48508 0.0
C60 C 0.89053 0.79442 0.4243 0.0
H61 H 0.83775 0.8364 0.5316 0.0
C62 C 0.85371 0.82449 0.50289 0.0
C63 C 0.82662 0.78009 0.48401 0.0
C64 C 0.84506 0.76555 0.4445 0.0
C65 C 0.89927 0.78655 0.37505 0.0
H66 H 0.82218 0.73312 0.42778 0.0
C67 C 0.92342 0.75652 0.35749 0.0
C68 C 0.9276 0.75052 0.30967 0.0
C69 C 0.87987 0.80959 0.34442 0.0
H70 H 0.86114 0.83234 0.35653 0.0
C71 C 0.88339 0.80333 0.29811 0.0
H72 H 0.93894 0.73854 0.38042 0.0
C73 C 0.90676 0.7742 0.28097 0.0
H74 H 0.90907 0.77044 0.2447 0.0
H75 H 0.86785 0.82133 0.27521 0.0
H76 H 0.70995 0.84761 0.96534 0.0
C77 C 0.72095 0.84332 0.93103 0.0
C78 C 0.763 0.83116 0.92302 0.0
C79 C 0.69317 0.84962 0.89443 0.0
H80 H 0.8117 0.81898 0.87451 0.0
C81 C 0.77752 0.82604 0.87884 0.0
C82 C 0.75121 0.83288 0.84134 0.0
C83 C 0.70857 0.84443 0.85006 0.0
C84 C 0.64804 0.86202 0.90147 0.0
H85 H 0.68751 0.85103 0.82291 0.0
C86 C 0.64946 0.89947 0.93026 0.0
C87 C 0.60733 0.91281 0.93328 0.0
C88 C 0.60368 0.83755 0.87696 0.0
H89 H 0.60144 0.80844 0.8549 0.0
C90 C 0.56186 0.8504 0.88044 0.0
H91 H 0.68334 0.91881 0.94931 0.0
C92 C 0.56368 0.88791 0.90823 0.0
H93 H 0.53085 0.89748 0.91042 0.0
H94 H 0.52798 0.83133 0.86134 0.0
H95 H 0.76852 0.1869 0.6244 0.0
C96 C 0.76321 0.1876 0.58833 0.0
C97 C 0.79729 0.17846 0.55902 0.0
C98 C 0.72265 0.19764 0.57109 0.0
H99 H 0.81719 0.17192 0.48974 0.0
C100 C 0.79126 0.17966 0.51241 0.0
C101 C 0.75079 0.18903 0.49491 0.0
C102 C 0.71663 0.19805 0.52408 0.0
C103 C 0.68642 0.2074 0.60186 0.0
H104 H 0.68477 0.20423 0.50997 0.0
C105 C 0.66808 0.24237 0.59165 0.0
C106 C 0.63369 0.25177 0.62022 0.0
C107 C 0.66977 0.18199 0.6414 0.0
H108 H 0.68262 0.15436 0.64993 0.0
C109 C 0.63557 0.19154 0.67002 0.0
H110 H 0.68103 0.26297 0.56181 0.0
C111 C 0.61754 0.22637 0.65956 0.0
H112 H 0.59108 0.23352 0.68196 0.0
H113 H 0.62291 0.17179 0.70031 0.0
H114 H 0.47781 0.8696 0.27048 0.0
C115 C 0.44019 0.84816 0.25902 0.0
C116 C 0.41579 0.86645 0.22734 0.0
C117 C 0.41772 0.80174 0.27433 0.0
H118 H 0.34926 0.85037 0.18592 0.0
C119 C 0.36804 0.83725 0.21077 0.0
C120 C 0.34444 0.79111 0.22542 0.0
C121 C 0.36933 0.77388 0.25759 0.0
C122 C 0.44969 0.77997 0.29869 0.0
H123 H 0.35224 0.73795 0.26756 0.0
C124 C 0.43966 0.76035 0.3427 0.0
C125 C 0.47275 0.74051 0.36244 0.0
C126 C 0.49218 0.77861 0.27554 0.0
H127 H 0.50082 0.79275 0.2421 0.0
C128 C 0.52373 0.75868 0.29445 0.0
H129 H 0.40741 0.76123 0.36149 0.0
C130 C 0.51422 0.73993 0.33725 0.0
H131 H 0.53997 0.72527 0.35116 0.0
H132 H 0.55612 0.75796 0.27578 0.0
H133 H 0.2834 0.53 0.79201 0.0
C134 C 0.25768 0.49807 0.77642 0.0
C135 C 0.2708 0.48262 0.73443 0.0
C136 C 0.21344 0.47093 0.79994 0.0
H137 H 0.24812 0.42659 0.68449 0.0
C138 C 0.2383 0.43929 0.71612 0.0
C139 C 0.19575 0.41023 0.73964 0.0
C140 C 0.18341 0.42662 0.78129 0.0
C141 C 0.20672 0.48198 0.84895 0.0
H142 H 0.15191 0.40377 0.80041 0.0
C143 C 0.18119 0.51151 0.86506 0.0
C144 C 0.17611 0.51854 0.91261 0.0
C145 C 0.22666 0.4606 0.8808 0.0
H146 H 0.24612 0.43806 0.86985 0.0
C147 C 0.22192 0.46763 0.92687 0.0
H148 H 0.1653 0.52832 0.84122 0.0
C149 C 0.19698 0.49608 0.94257 0.0
H150 H 0.19389 0.50063 0.97865 0.0
H151 H 0.23765 0.45069 0.95073 0.0
Gd152 Gd 0.06338 0.15201 0.57124 0.0
Gd153 Gd 0.03416 0.10786 0.66122 0.0
C154 C 0.09862 0.22128 0.65788 0.0
C155 C 0.0733 0.18354 0.49033 0.0
C156 C 0.1177 0.20779 0.46284 0.0
C157 C 0.16468 0.20631 0.47443 0.0
C158 C 0.11324 0.23096 0.42404 0.0
C159 C 0.20176 0.24853 0.40746 0.0
C160 C 0.15521 0.25149 0.39652 0.0
C161 C 0.20634 0.22624 0.44679 0.0
C162 C 0.13257 0.12236 0.60914 0.0
C163 C 0.99759 1.04077 0.5737 0.0
C164 C 1.02486 0.0683 0.73788 0.0
C165 C 0.99383 1.02044 0.75 0.0
C166 C 0.96305 1.01329 0.78817 0.0
C167 C 0.98708 0.98322 0.71931 0.0
C168 C 0.91389 0.93506 0.76088 0.0
C169 C 0.94725 0.94069 0.72479 0.0
C170 C 0.92329 0.97082 0.79358 0.0
C171 C 0.9594 0.12506 0.62023 0.0
O172 O 0.09345 0.21832 0.61352 0.0
O173 O 0.08269 0.18311 0.68246 0.0
O174 O 0.06683 0.14068 0.49945 0.0
O175 O 0.06619 0.20669 0.52537 0.0
O176 O 0.14475 0.15886 0.58452 0.0
O177 O 0.08579 0.10332 0.60926 0.0
O178 O 1.01325 0.04307 0.616 0.0
O179 O 1.00423 0.08002 0.55254 0.0
O180 O 0.99881 0.0934 0.72663 0.0
O181 O 0.06287 0.07357 0.71088 0.0
O182 O 0.95253 0.08895 0.6445 0.0
O183 O 1.00526 0.15193 0.62064 0.0
H184 H 0.16895 0.18891 0.50437 0.0
H185 H 0.07725 0.23248 0.4147 0.0
H186 H 0.1512 0.26866 0.3662 0.0
H187 H 0.24198 0.22368 0.45567 0.0
H188 H 0.96741 1.04162 0.81198 0.0
H189 H 1.01031 0.98788 0.6895 0.0
H190 H 0.94069 0.91319 0.69958 0.0
H191 H 0.89777 0.9669 0.82169 0.0
Gd192 Gd 0.59156 0.12999 0.12313 0.0
Gd193 Gd 0.50632 0.11411 0.06952 0.0
C194 C 0.51022 0.17055 0.15681 0.0
C195 C 0.67799 0.15563 0.16358 0.0
C196 C 0.69181 0.16433 0.21123 0.0
C197 C 0.65426 0.16012 0.24333 0.0
C198 C 0.74188 0.1757 0.22512 0.0
C199 C 0.71629 0.17724 0.30305 0.0
C200 C 0.75414 0.18217 0.27101 0.0
C201 C 0.66642 0.16655 0.28901 0.0
C202 C 0.51114 0.05624 0.15559 0.0
C203 C 0.57775 0.06107 0.03751 0.0
C204 C 0.4244 0.09176 1.02261 0.0
C205 C 0.38755 0.05453 0.99596 0.0
C206 C 0.34353 0.06052 0.98215 0.0
C207 C 0.39752 1.01556 0.98078 0.0
C208 C 0.32267 0.99208 0.93362 0.0
C209 C 0.36503 0.98432 0.94963 0.0
C210 C 0.31119 1.02943 0.95102 0.0
C211 C 0.57917 0.20158 0.0564 0.0
O212 O 0.55917 0.18098 0.15321 0.0
O213 O 0.47989 0.13382 0.13497 0.0
O214 O 0.65122 0.11241 0.15269 0.0
O215 O 0.66042 0.18485 0.14585 0.0
O216 O 0.54251 0.0895 0.18005 0.0
O217 O 0.52294 0.06458 0.11457 0.0
O218 O 0.53311 0.06365 1.03245 0.0
O219 O 0.60987 0.08702 0.06811 0.0
O220 O 0.46953 0.11043 1.00543 0.0
O221 O 0.42469 0.08604 0.06607 0.0
O222 O 0.53184 0.19236 0.06199 0.0
O223 O 0.58672 0.16382 0.05905 0.0
H224 H 0.61545 0.15123 0.23303 0.0
H225 H 0.7712 0.17898 0.20063 0.0
H226 H 0.79277 0.19022 0.28159 0.0
H227 H 0.63688 0.1625 0.31348 0.0
H228 H 0.33552 0.09054 0.99371 0.0
H229 H 0.43145 1.0106 0.99129 0.0
H230 H 0.37447 0.9558 0.93599 0.0
H231 H 0.27889 1.03599 0.93853 0.0
Gd232 Gd 0.54631 0.58966 0.58181 0.0
Gd233 Gd 0.55024 0.66777 0.62866 0.0
C234 C 0.59262 0.59591 0.68019 0.0
C235 C 0.55048 0.52392 0.52863 0.0
C236 C 0.55348 0.47867 0.53806 0.0
C237 C 0.53059 0.45444 0.57672 0.0
C238 C 0.58451 0.46235 0.51153 0.0
C239 C 0.5721 0.3998 0.56358 0.0
C240 C 0.59389 0.42311 0.52429 0.0
C241 C 0.53956 0.415 0.58921 0.0
C242 C 0.46473 0.57043 0.63825 0.0
C243 C 0.50543 0.66103 0.53155 0.0
C244 C 0.53756 0.72771 0.6846 0.0
C245 C 0.4968 0.74576 0.68704 0.0
C246 C 0.48371 0.76105 0.72832 0.0
C247 C 0.46827 0.74463 0.64828 0.0
C248 C 0.4137 0.77316 0.69189 0.0
C249 C 0.42674 0.75781 0.65075 0.0
C250 C 0.44241 0.77503 0.7307 0.0
C251 C 0.63191 0.68804 0.57308 0.0
O252 O 0.58285 0.57136 0.64214 0.0
O253 O 0.58422 0.63526 0.68224 0.0
O254 O 0.50827 0.52898 0.53916 0.0
O255 O 0.5902 0.55979 0.54093 0.0
O256 O 0.49474 0.54781 0.63579 0.0
O257 O 0.48157 0.60504 0.61243 0.0
O258 O 0.49868 0.67305 0.57312 0.0
O259 O 0.52938 0.63202 0.52579 0.0
O260 O 0.56638 0.73946 0.64916 0.0
O261 O 0.52417 0.68366 0.69351 0.0
O262 O 0.60582 0.71393 0.57955 0.0
O263 O 0.61434 0.65226 0.59727 0.0
H264 H 0.50731 0.46695 0.59819 0.0
H265 H 0.603 0.48099 0.48199 0.0
H266 H 0.61927 0.41173 0.50435 0.0
H267 H 0.5228 0.39743 0.61978 0.0
H268 H 0.50506 0.76177 0.75861 0.0
H269 H 0.47767 0.7331 0.6161 0.0
H270 H 0.40499 0.75643 0.62056 0.0
H271 H 0.4326 0.78695 0.76269 0.0
Gd272 Gd 0.04549 0.58684 0.13498 0.0
Gd273 Gd 0.04816 0.67459 0.08752 0.0
C274 C 0.14811 0.68214 0.14207 0.0
C275 C 0.07121 0.52076 0.16382 0.0
C276 C 0.12149 0.51724 0.16737 0.0
C277 C 0.14238 0.51618 0.2097 0.0
C278 C 0.15013 0.51703 0.12889 0.0
C279 C 0.22386 0.5247 0.17542 0.0
C280 C 0.19975 0.51924 0.13287 0.0
C281 C 0.19218 0.51868 0.21361 0.0
C282 C 1.00588 0.64145 0.18491 0.0
C283 C 0.95036 0.57669 0.07125 0.0
C284 C 1.02321 0.74617 0.07894 0.0
C285 C 0.99003 0.76452 0.0549 0.0
C286 C 0.96472 0.74323 1.01514 0.0
C287 C 0.97796 0.79998 0.07622 0.0
C288 C 0.91452 0.79204 1.01922 0.0
C289 C 0.94033 0.81351 0.05868 0.0
C290 C 0.92734 0.75718 0.99721 0.0
C291 C 0.08352 0.62353 1.02801 0.0
O292 O 0.12737 0.63625 0.14579 0.0
O293 O 0.1237 0.70598 0.12295 0.0
O294 O 0.06349 0.5515 0.19082 0.0
O295 O 0.05374 0.52072 0.12306 0.0
O296 O 0.986 0.59624 0.18123 0.0
O297 O 0.04465 0.6546 0.15986 0.0
O298 O 0.97064 0.62242 0.0667 0.0
O299 O 0.97275 0.55408 0.09515 0.0
O300 O 0.06203 0.74202 0.05785 0.0
O301 O 0.99943 0.71111 0.10474 0.0
O302 O 0.08016 0.66332 1.01886 0.0
O303 O 0.06786 0.61427 0.06804 0.0
H304 H 0.12033 0.51397 0.23999 0.0
H305 H 0.13448 0.51549 0.09544 0.0
H306 H 0.218 0.51585 0.10188 0.0
H307 H 0.20493 0.5153 0.24704 0.0
H308 H 0.97277 0.71505 0.99886 0.0
H309 H 0.99642 0.81606 0.10749 0.0
H310 H 0.93077 0.84022 0.07621 0.0
H311 H 0.90758 0.7401 0.96681 0.0
C312 C 0.28458 0.26421 0.30385 0.0
C313 C 0.3298 0.29947 0.31959 0.0
C314 C 0.28871 0.30547 0.39077 0.0
C315 C 0.24547 0.26684 0.37681 0.0
N316 N 0.20617 0.2032 0.32392 0.0
N317 N 0.3781 0.34849 0.38049 0.0
C318 C 0.24447 0.24438 0.33441 0.0
C319 C 0.33282 0.31867 0.36383 0.0
N320 N 0.27911 0.25091 0.25931 0.0
N321 N 0.28708 0.33039 0.429 0.0
H322 H 0.41128 0.35864 0.36174 0.0
H323 H 0.38368 0.35987 0.41405 0.0
H324 H 0.25513 0.32206 0.44928 0.0
H325 H 0.31566 0.36166 0.43838 0.0
H326 H 0.24499 0.22897 0.24522 0.0
H327 H 0.30718 0.26521 0.23545 0.0
H328 H 0.20654 0.18288 0.29552 0.0
H329 H 0.17628 0.18701 0.34563 0.0
C330 C 0.2879 0.95976 0.8111 0.0
C331 C 0.24877 0.91552 0.81552 0.0
C332 C 0.25292 0.92463 0.89779 0.0
C333 C 0.2956 0.96629 0.89325 0.0
N334 N 0.35671 1.02268 0.84671 0.0
N335 N 0.19454 0.85416 0.86155 0.0
C336 C 0.31365 0.98387 0.85019 0.0
C337 C 0.23109 0.89758 0.85851 0.0
N338 N 0.3004 0.9787 0.76943 0.0
N339 N 0.2332 0.91139 0.93959 0.0
H340 H 0.17633 0.8345 0.8333 0.0
H341 H 0.18376 0.83663 0.89164 0.0
H342 H 0.24919 0.93008 0.96899 0.0
H343 H 0.19934 0.88386 0.94508 0.0
H344 H 0.32417 1.013 0.7644 0.0
H345 H 0.28421 0.9614 0.73954 0.0
H346 H 0.37563 1.03376 0.81655 0.0
H347 H 0.3759 0.04254 0.87446 0.0
C348 C 0.64556 0.52327 0.75615 0.0
C349 C 0.63316 0.5345 0.80025 0.0
C350 C 0.59481 0.58586 0.76631 0.0
C351 C 0.60994 0.57742 0.722 0.0
N352 N 0.66474 0.54832 0.67893 0.0
N353 N 0.61212 0.58936 0.84659 0.0
C354 C 0.63996 0.54924 0.71818 0.0
C355 C 0.61403 0.57073 0.8048 0.0
N356 N 0.6608 0.48668 0.74994 0.0
N357 N 0.55817 0.60396 0.7723 0.0
H358 H 0.62584 0.57884 0.8752 0.0
H359 H 0.60217 0.61831 0.85169 0.0
H360 H 0.53712 0.60934 0.74603 0.0
H361 H 0.54342 0.60713 0.80387 0.0
H362 H 0.66465 0.47341 0.71815 0.0
H363 H 0.66641 0.46784 0.77667 0.0
H364 H 0.68987 0.53117 0.67539 0.0
H365 H 0.66514 0.56938 0.65191 0.0
C366 C 0.93452 0.67285 0.28479 0.0
C367 C 0.95508 0.72214 0.2868 0.0
C368 C 1.01303 0.72062 0.22465 0.0
C369 C 0.99303 0.67054 0.22285 0.0
N370 N 0.95174 0.60329 0.26916 0.0
N371 N 1.02477 0.79152 0.26837 0.0
C372 C 0.95864 0.64781 0.2581 0.0
C373 C 0.99785 0.74536 0.25982 0.0
N374 N 0.89129 0.64943 0.30764 0.0
N375 N 0.0455 0.74564 0.19257 0.0
H376 H 1.01502 0.81027 0.29401 0.0
H377 H 0.05952 0.80971 0.25365 0.0
H378 H 0.06205 0.73156 0.1683 0.0
H379 H 0.05417 0.78111 0.18848 0.0
H380 H 0.87157 0.61374 0.30329 0.0
H381 H 0.8733 0.66622 0.32827 0.0
H382 H 0.92953 0.58653 0.29621 0.0
H383 H 0.97463 0.58617 0.25703 0.0
C384 C 0.43233 0.24659 0.1795 0.0
C385 C 0.45577 0.27095 0.21925 0.0
C386 C 0.50879 0.2241 0.22206 0.0
C387 C 0.48969 0.20358 0.17928 0.0
N388 N 0.43875 0.20306 0.11335 0.0
N389 N 0.52032 0.28753 0.27604 0.0
C390 C 0.45278 0.21669 0.15699 0.0
C391 C 0.49531 0.26113 0.23982 0.0
N392 N 0.38947 0.25106 0.16357 0.0
N393 N 0.5376 0.20655 0.24685 0.0
H394 H 0.5107 0.31429 0.29023 0.0
H395 H 0.55295 0.28543 0.28964 0.0
H396 H 0.54569 0.17776 0.23617 0.0
H397 H 0.54888 0.21716 0.27992 0.0
H398 H 0.3668 0.22925 0.13849 0.0
H399 H 0.37395 0.27383 0.17783 0.0
H400 H 0.41803 0.21747 0.09409 0.0
H401 H 0.45068 0.18059 0.09439 0.0
C402 C 0.15484 1.02978 0.66519 0.0
C403 C 0.1576 1.00152 0.62757 0.0
C404 C 0.16814 0.0659 0.57707 0.0
C405 C 0.16257 0.09286 0.61454 0.0
N406 N 0.17229 0.1083 0.69387 0.0
N407 N 0.18427 0.99788 0.5508 0.0
C408 C 0.16418 0.07744 0.65854 0.0
C409 C 0.17021 1.02141 0.58444 0.0
N410 N 0.13927 1.01069 0.70629 0.0
N411 N 0.16807 0.08138 0.53441 0.0
H412 H 0.18695 0.96556 0.55557 0.0
H413 H 0.19792 1.01231 0.51979 0.0
H414 H 0.17001 0.11493 0.52803 0.0
H415 H 0.16465 0.06054 0.50559 0.0
H416 H 0.13216 1.02927 0.73346 0.0
H417 H 0.12882 0.97533 0.7123 0.0
H418 H 0.17744 0.10022 0.72692 0.0
H419 H 0.17888 0.14328 0.68862 0.0
C420 C 0.85374 0.51304 0.97789 0.0
C421 C 0.80779 0.4961 1.00244 0.0
C422 C 0.85548 0.5308 0.0724 0.0
C423 C 0.90095 0.54972 0.04747 0.0
N424 N 0.94123 0.56615 0.97485 0.0
N425 N 0.76373 0.49755 0.07151 0.0
C426 C 0.89929 0.54322 0.99969 0.0
C427 C 0.80845 0.5075 0.04932 0.0
N428 N 0.85453 0.49846 0.93416 0.0
N429 N 0.85716 0.53486 0.11838 0.0
H430 H 0.72883 0.48172 0.05558 0.0
H431 H 0.76093 0.50886 0.10436 0.0
H432 H 0.89006 0.55366 0.13625 0.0
H433 H 0.8268 0.51723 0.13899 0.0
H434 H 0.88759 0.50479 0.91596 0.0
H435 H 0.82233 0.47674 0.91701 0.0
H436 H 0.94108 0.56716 0.93981 0.0
H437 H 0.97547 0.58737 0.98928 0.0
C438 C 0.73092 0.75104 0.48476 0.0
C439 C 0.77631 0.75104 0.50404 0.0
C440 C 0.72759 0.70744 0.56863 0.0
C441 C 0.68164 0.70524 0.54811 0.0
N442 N 0.63974 0.71667 0.4815 0.0
N443 N 0.81694 0.72174 0.55991 0.0
C444 C 0.68351 0.72461 0.50464 0.0
C445 C 0.77421 0.72671 0.54454 0.0
N446 N 0.73307 0.77795 0.44832 0.0
N447 N 0.72761 0.69419 0.61224 0.0
H448 H 0.85155 0.73587 0.54355 0.0
H449 H 0.81717 0.70028 0.58636 0.0
H450 H 0.69516 0.68103 0.63165 0.0
H451 H 0.7604 0.70005 0.63069 0.0
H452 H 0.70212 0.78432 0.43619 0.0
H453 H 0.76667 0.79702 0.43217 0.0
H454 H 0.63852 0.72531 0.44794 0.0
H455 H 0.60444 0.69722 0.4943 0.0
C456 C 0.34206 0.51801 0.2285 0.0
C457 C 0.36293 0.504 0.18982 0.0
C458 C 0.30951 0.5303 0.14215 0.0
C459 C 0.27935 0.53097 0.18007 0.0
N460 N 0.29454 0.56387 0.25526 0.0
N461 N 0.36681 0.49797 0.10857 0.0
C462 C 0.30317 0.53581 0.22277 0.0
C463 C 0.34708 0.51085 0.14621 0.0
N464 N 0.35902 0.51425 0.27062 0.0
N465 N 0.30864 0.5554 0.10525 0.0
H466 H 0.39429 0.48329 0.10988 0.0
H467 H 0.3527 0.49866 0.07634 0.0
H468 H 0.2887 0.57771 0.10532 0.0
H469 H 0.33319 0.55942 0.07817 0.0
H470 H 0.34105 0.51902 0.29991 0.0
H471 H 0.38935 0.50392 0.27626 0.0
H472 H 0.31427 0.57245 0.28569 0.0
H473 H 0.27266 0.58363 0.24872 0.0
C474 C 0.67297 0.29647 0.98107 0.0
C475 C 0.66782 0.33737 0.99943 0.0
C476 C 0.61425 0.29002 0.05962 0.0
C477 C 0.61432 0.24809 0.03846 0.0
N478 N 0.63884 0.21203 0.97412 0.0
N479 N 0.62805 0.37196 0.05336 0.0
C480 C 0.64286 0.25149 0.99809 0.0
C481 C 0.63699 0.33372 0.03797 0.0
N482 N 0.70702 0.30063 0.94737 0.0
N483 N 0.59383 0.28849 0.10156 0.0
H484 H 0.64495 0.40482 0.03961 0.0
H485 H 0.60084 0.37048 0.0774 0.0
H486 H 0.57756 0.25781 0.11898 0.0
H487 H 0.59751 0.31798 0.12107 0.0
H488 H 0.71699 0.27321 0.93574 0.0
H489 H 0.72844 0.33259 0.93354 0.0
H490 H 0.65392 0.21234 0.94207 0.0
H491 H 0.61673 0.17872 0.98425 0.0
C492 C 0.93097 0.90806 0.55476 0.0
C493 C 0.92767 0.90221 0.5069 0.0
C494 C 0.97784 0.98661 0.50277 0.0
C495 C 0.97262 0.99336 0.55004 0.0
N496 N 0.92618 0.95806 0.61665 0.0
N497 N 0.93633 0.94245 0.4364 0.0
C498 C 0.94404 0.95339 0.57487 0.0
C499 C 0.94777 0.94336 0.48107 0.0
N500 N 0.92341 0.87083 0.58152 0.0
N501 N 1.01303 1.02005 0.47846 0.0
H502 H 0.91063 0.9132 0.41999 0.0
H503 H 0.94738 0.97252 0.41742 0.0
H504 H 0.03967 0.04969 0.49336 0.0
H505 H 1.02009 1.01494 0.44463 0.0
H506 H 0.92866 0.87447 0.61638 0.0
H507 H 0.91813 0.83776 0.56846 0.0
H508 H 0.9011 0.92963 0.63353 0.0
H509 H 0.93021 0.99021 0.63125 0.0
C510 C 0.337 0.85013 0.68706 0.0
C511 C 0.28951 0.81887 0.70208 0.0
C512 C 0.32262 0.75675 0.70823 0.0
C513 C 0.37032 0.78824 0.69387 0.0
N514 N 0.42167 0.86168 0.66208 0.0
N515 N 0.23339 0.74143 0.71904 0.0
C516 C 0.37702 0.83391 0.68071 0.0
C517 C 0.28113 0.77168 0.71 0.0
N518 N 0.34439 0.89593 0.68114 0.0
N519 N 0.31757 0.71311 0.72119 0.0
H520 H 0.20255 0.75184 0.72051 0.0
H521 H 0.22336 0.70568 0.72171 0.0
H522 H 0.34678 0.70059 0.71885 0.0
H523 H 0.28546 0.68989 0.73631 0.0
H524 H 0.37958 0.92194 0.67635 0.0
H525 H 0.31536 0.90871 0.68316 0.0
H526 H 0.42701 0.89309 0.64684 0.0
H527 H 0.45296 0.85211 0.6592 0.0
C528 C 0.81385 0.81883 0.78925 0.0
C529 C 0.77396 0.83507 0.79491 0.0
C530 C 0.82018 0.90335 0.75202 0.0
C531 C 0.86501 0.89533 0.76153 0.0
N532 N 0.90436 0.84128 0.78102 0.0
N533 N 0.72902 0.86786 0.74716 0.0
C534 C 0.8618 0.85099 0.77616 0.0
C535 C 0.7734 0.86998 0.76559 0.0
N536 N 0.80578 0.77392 0.79927 0.0
N537 N 0.82253 0.94309 0.73148 0.0
H538 H 0.69588 0.83903 0.75199 0.0
H539 H 0.72657 0.89074 0.7229 0.0
H540 H 0.85612 0.96688 0.7188 0.0
H541 H 0.79143 0.9528 0.72841 0.0
H542 H 0.83235 0.75865 0.79392 0.0
H543 H 0.77033 0.75155 0.80996 0.0
H544 H 0.9046 0.81119 0.79583 0.0
H545 H 0.93988 0.86439 0.77163 0.0
C546 C 0.75769 0.22793 0.42073 0.0
C547 C 0.74255 0.18646 0.44564 0.0
C548 C 0.71718 0.13946 0.37618 0.0
C549 C 0.72793 0.18084 0.35176 0.0
N550 N 0.75281 0.26421 0.35022 0.0
N551 N 0.70132 0.10303 0.44896 0.0
C552 C 0.74679 0.22511 0.37385 0.0
C553 C 0.72053 0.14223 0.42388 0.0
N554 N 0.78355 0.26979 0.44174 0.0
N555 N 0.7048 0.09763 0.35362 0.0
H556 H 0.70317 0.10363 0.48407 0.0
H557 H 0.67987 0.07038 0.43538 0.0
H558 H 0.70151 0.09419 0.3186 0.0
H559 H 0.70191 0.06691 0.36911 0.0
H560 H 0.80042 0.30069 0.42465 0.0
H561 H 0.79142 0.27317 0.47623 0.0
H562 H 0.76093 0.29692 0.36527 0.0
H563 H 0.7463 0.26351 0.3156 0.0
C564 C 0.44683 0.67282 0.41631 0.0
C565 C 0.46839 0.72168 0.4099 0.0
C566 C 0.5057 0.73156 0.48672 0.0
C567 C 0.48919 0.68214 0.49115 0.0
N568 N 0.44094 0.60568 0.46091 0.0
N569 N 0.51908 0.79778 0.43843 0.0
C570 C 0.45864 0.65285 0.45611 0.0
C571 C 0.49715 0.75102 0.44543 0.0
N572 N 0.41461 0.64565 0.38403 0.0
N573 N 0.53038 0.7604 0.52169 0.0
H574 H 0.51126 0.81337 0.41012 0.0
H575 H 0.54661 0.82098 0.45928 0.0
H576 H 0.54253 0.7491 0.55045 0.0
H577 H 0.53676 0.79575 0.5235 0.0
H578 H 0.39433 0.61016 0.38667 0.0
H579 H 0.4053 0.65961 0.35529 0.0
H580 H 0.42339 0.58159 0.43541 0.0
H581 H 0.44464 0.5901 0.49077 0.0
C582 C 0.17801 0.59497 0.94868 0.0
C583 C 0.14952 0.5485 0.93402 0.0
C584 C 0.07932 0.54957 0.98337 0.0
C585 C 0.10694 0.59677 0.99696 0.0
N586 N 0.18226 0.6655 0.98956 0.0
N587 N 0.07013 0.48436 0.93164 0.0
C588 C 0.15599 0.6198 0.97831 0.0
C589 C 0.09925 0.52684 0.9497 0.0
N590 N 0.2273 0.6147 0.9358 0.0
N591 N 0.03416 0.52585 1.00324 0.0
H592 H 0.08364 0.46715 0.90722 0.0
H593 H 0.03168 0.46805 0.93754 0.0
H594 H 1.01762 0.54136 1.02644 0.0
H595 H 1.01462 0.49018 0.9993 0.0
H596 H 0.25285 0.64569 0.94944 0.0
H597 H 0.24353 0.59872 0.91247 0.0
H598 H 0.21459 0.68639 0.97294 0.0
H599 H 0.17098 0.68338 1.0149 0.0
C600 C 0.63228 0.99884 0.95128 0.0
C601 C 0.60692 0.95179 0.96357 0.0
C602 C 0.56205 0.97644 1.02322 0.0
C603 C 0.58907 1.02381 1.01259 0.0
N604 N 0.65568 0.08078 0.97145 0.0
N605 N 0.55822 0.89694 1.01807 0.0
C606 C 0.62638 1.03523 0.97839 0.0
C607 C 0.57515 0.94104 1.00177 0.0
N608 N 0.65987 1.00862 0.91249 0.0
N609 N 0.52277 0.96486 0.05288 0.0
H610 H 0.56763 0.87028 1.00335 0.0
H611 H 0.53934 0.88801 0.0486 0.0
H612 H 0.51212 0.98929 0.07027 0.0
H613 H 0.49812 0.93079 0.05776 0.0
H614 H 0.67444 1.04161 0.89881 0.0
H615 H 0.66548 0.98303 0.89216 0.0
H616 H 0.68702 0.09119 0.95044 0.0
H617 H 0.6507 0.10831 0.98909 0.0
C618 C 0.83419 0.11787 0.57047 0.0
C619 C 0.83774 0.16451 0.57684 0.0
C620 C 0.91638 0.18268 0.61875 0.0
C621 C 0.91712 0.13843 0.60599 0.0
N622 N 0.87832 0.06476 0.56584 0.0
N623 N 0.88564 0.24348 0.60135 0.0
C624 C 0.87635 0.10612 0.58091 0.0
C625 C 0.87985 0.19763 0.59933 0.0
N626 N 0.78994 0.08447 0.55581 0.0
N627 N 0.94805 0.20912 0.6517 0.0
H628 H 0.85954 0.25582 0.58758 0.0
H629 H 0.91846 0.26968 0.61322 0.0
H630 H 0.97282 0.19799 0.6694 0.0
H631 H 0.94563 0.23966 0.66507 0.0
H632 H 0.78342 0.04904 0.55513 0.0
H633 H 0.75787 0.09161 0.54849 0.0
H634 H 0.85263 0.04265 0.5428 0.0
H635 H 0.90769 0.05395 0.5735 0.0
C636 C 0.24909 0.76612 0.2213 0.0
C637 C 0.29382 0.76075 0.20564 0.0
C638 C 0.24334 0.70398 0.14745 0.0
C639 C 0.19847 0.70818 0.16435 0.0
N640 N 0.15761 0.73465 0.22416 0.0
N641 N 0.33297 0.72013 0.15755 0.0
C642 C 0.20115 0.73702 0.20309 0.0
C643 C 0.29066 0.72815 0.16991 0.0
N644 N 0.25237 0.79949 0.25347 0.0
N645 N 0.24098 0.67822 0.10885 0.0
H646 H 0.3684 0.73855 0.17157 0.0
H647 H 0.33266 0.6933 0.1356 0.0
H648 H 0.20718 0.65981 0.09206 0.0
H649 H 0.2725 0.67738 0.09168 0.0
H650 H 0.22236 0.80942 0.26218 0.0
H651 H 0.28608 0.81954 0.26959 0.0
H652 H 0.15664 0.75104 0.255 0.0
H653 H 0.12213 0.71226 0.2132 0.0
C654 C 0.33613 0.55492 0.69687 0.0
C655 C 0.32116 0.50806 0.71135 0.0
C656 C 0.39152 0.50118 0.66752 0.0
C657 C 0.41236 0.54988 0.65956 0.0
N658 N 0.40402 0.62437 0.67182 0.0
N659 N 0.34668 0.44258 0.72063 0.0
C660 C 0.38451 0.57721 0.67569 0.0
C661 C 0.35274 0.48322 0.69993 0.0
N662 N 0.30351 0.57772 0.70142 0.0
N663 N 0.4057 0.47094 0.64184 0.0
H664 H 0.32117 0.42975 0.74683 0.0
H665 H 0.37134 0.42509 0.71549 0.0
H666 H 0.42742 0.48104 0.61286 0.0
H667 H 0.38907 0.43493 0.64499 0.0
H668 H 0.30999 0.60996 0.68736 0.0
H669 H 0.26781 0.56251 0.71556 0.0
H670 H 0.38847 0.64624 0.68781 0.0
H671 H 0.43751 0.64202 0.65521 0.0
C672 C 0.78424 0.78188 0.97928 0.0
C673 C 0.7956 0.82589 0.95967 0.0
C674 C 0.8841 0.84942 0.98229 0.0
C675 C 0.87302 0.80519 1.00162 0.0
N676 N 0.81087 0.73442 1.02942 0.0
N677 N 0.85157 0.90552 0.95313 0.0
C678 C 0.82242 0.77303 1.00368 0.0
C679 C 0.84402 0.86111 0.9652 0.0
N680 N 0.7378 0.74783 0.97256 0.0
N681 N 0.93308 0.87907 0.97768 0.0
H682 H 0.82252 0.91464 0.94041 0.0
H683 H 0.88479 0.93383 0.95973 0.0
H684 H 0.96366 0.87152 0.98897 0.0
H685 H 0.94374 0.90951 0.95942 0.0
H686 H 0.72912 0.71324 0.98093 0.0
H687 H 0.70847 0.75385 0.95643 0.0
H688 H 0.77408 0.71194 0.03565 0.0
H689 H 0.8379 0.72711 0.04796 0.0
C690 C 0.48499 0.9275 0.18251 0.0
C691 C 0.44088 0.91554 0.20961 0.0
C692 C 0.44023 0.99454 0.19767 0.0
C693 C 0.48654 1.00751 0.17372 0.0
N694 N 0.55864 0.98865 0.15286 0.0
N695 N 0.3814 0.941 0.24911 0.0
C696 C 0.51048 0.97461 0.1689 0.0
C697 C 0.41983 0.95006 0.21876 0.0
N698 N 0.50159 0.89346 0.16798 0.0
N699 N 0.41507 1.02447 0.19956 0.0
H700 H 0.36605 0.90944 0.26558 0.0
H701 H 0.36774 0.96598 0.26103 0.0
H702 H 0.42929 0.0574 0.18555 0.0
H703 H 0.37856 1.01545 0.21189 0.0
H704 H 0.5299 0.89894 0.14404 0.0
H705 H 0.4839 0.85866 0.17649 0.0
H706 H 0.58013 0.96782 0.15323 0.0
H707 H 0.57874 1.02248 0.14263 0.0
C708 C 0.12409 0.34966 0.69489 0.0
C709 C 0.1679 0.36063 0.7222 0.0
C710 C 0.16468 0.27978 0.71015 0.0
C711 C 0.12222 0.26927 0.68075 0.0
N712 N 0.0627 0.29556 0.64365 0.0
N713 N 0.23023 0.33676 0.75648 0.0
C714 C 0.10234 0.30469 0.6728 0.0
C715 C 0.18792 0.3256 0.73024 0.0
N716 N 0.10247 0.38217 0.69103 0.0
N717 N 0.1834 0.24594 0.71834 0.0
H718 H 0.24575 0.36834 0.77425 0.0
H719 H 0.2511 0.31576 0.76021 0.0
H720 H 0.17164 0.21433 0.70061 0.0
H721 H 0.20992 0.24828 0.74309 0.0
H722 H 0.06763 0.37576 0.67604 0.0
H723 H 0.11796 0.41541 0.70575 0.0
H724 H 0.05034 0.32073 0.63142 0.0
H725 H 0.0428 0.26269 0.62979 0.0
C726 C 0.57218 0.27839 0.58085 0.0
C727 C 0.61547 0.28913 0.60869 0.0
C728 C 0.62714 0.37167 0.61043 0.0
C729 C 0.58626 0.36141 0.57972 0.0
N730 N 0.52219 0.30687 0.5323 0.0
N731 N 0.6871 0.34522 0.64729 0.0
C732 C 0.55926 0.31521 0.56407 0.0
C733 C 0.64367 0.33558 0.62294 0.0
N734 N 0.54316 0.23291 0.57108 0.0
N735 N 0.6497 0.41585 0.62798 0.0
H736 H 0.69928 0.31947 0.65863 0.0
H737 H 0.71279 0.37871 0.65418 0.0
H738 H 0.63989 0.44364 0.61845 0.0
H739 H 0.67607 0.42472 0.65401 0.0
H740 H 0.50834 0.22226 0.55489 0.0
H741 H 0.55221 0.20514 0.58201 0.0
H742 H 0.50483 0.27499 0.51557 0.0
H743 H 0.51064 0.33282 0.52041 0.0
loop_
_geom_bond_atom_site_label_1
_geom_bond_atom_site_label_2
_geom_bond_distance
_geom_bond_site_symmetry_2
_ccdc_geom_bond_type
H0 C1 0.949 . S
C1 H0 0.949 . S
C1 C2 1.395 . S
C1 C3 1.391 . S
C2 C1 1.395 . S
C2 C5 1.390 . S
C3 C1 1.391 . S
C3 C7 1.387 . S
C3 C8 1.491 . S
H4 C5 0.950 . S
C5 C2 1.390 . S
C5 H4 0.950 . S
C5 C6 1.378 . S
C6 C5 1.378 . S
C6 C7 1.409 . S
C7 C3 1.387 . S
C7 C6 1.409 . S
C7 H9 0.951 . S
C8 C3 1.491 . S
C8 C10 1.382 . S
C8 C12 1.404 . S
H9 C7 0.951 . S
C10 C8 1.382 . S
C10 C11 1.390 . S
C10 H15 0.949 . S
C11 C10 1.390 . S
C11 C16 1.399 . S
C12 C8 1.404 . S
C12 H13 0.950 . S
C12 C14 1.375 . S
H13 C12 0.950 . S
C14 C12 1.375 . S
C14 C16 1.382 . S
C14 H18 0.950 . S
H15 C10 0.949 . S
C16 C11 1.399 . S
C16 C14 1.382 . S
C16 H17 0.952 . S
H17 C16 0.952 . S
H18 C14 0.950 . S
H19 C20 0.949 . S
C20 H19 0.949 . S
C20 C21 1.395 . S
C20 C22 1.391 . S
C21 C20 1.395 . S
C21 C24 1.390 . S
C22 C20 1.391 . S
C22 C26 1.387 . S
C22 C27 1.491 . S
H23 C24 0.950 . S
C24 C21 1.390 . S
C24 H23 0.950 . S
C24 C25 1.378 . S
C25 C24 1.378 . S
C25 C26 1.409 . S
C26 C22 1.387 . S
C26 C25 1.409 . S
C26 H28 0.951 . S
C27 C22 1.491 . S
C27 C29 1.382 . S
C27 C31 1.404 . S
H28 C26 0.951 . S
C29 C27 1.382 . S
C29 C30 1.390 . S
C29 H34 0.949 . S
C30 C29 1.390 . S
C30 C35 1.399 . S
C31 C27 1.404 . S
C31 H32 0.950 . S
C31 C33 1.375 . S
H32 C31 0.950 . S
C33 C31 1.375 . S
C33 C35 1.382 . S
C33 H37 0.950 . S
H34 C29 0.949 . S
C35 C30 1.399 . S
C35 C33 1.382 . S
C35 H36 0.952 . S
H36 C35 0.952 . S
H37 C33 0.950 . S
H38 C39 0.949 . S
C39 H38 0.949 . S
C39 C40 1.395 . S
C39 C41 1.391 . S
C40 C39 1.395 . S
C40 C43 1.390 . S
C41 C39 1.391 . S
C41 C45 1.387 . S
C41 C46 1.491 . S
H42 C43 0.950 . S
C43 C40 1.390 . S
C43 H42 0.950 . S
C43 C44 1.378 . S
C44 C43 1.378 . S
C44 C45 1.409 . S
C45 C41 1.387 . S
C45 C44 1.409 . S
C45 H47 0.951 . S
C46 C41 1.491 . S
C46 C48 1.382 . S
C46 C50 1.404 . S
H47 C45 0.951 . S
C48 C46 1.382 . S
C48 C49 1.390 . S
C48 H53 0.949 . S
C49 C48 1.390 . S
C49 C54 1.399 . S
C50 C46 1.404 . S
C50 H51 0.950 . S
C50 C52 1.375 . S
H51 C50 0.950 . S
C52 C50 1.375 . S
C52 C54 1.382 . S
C52 H56 0.950 . S
H53 C48 0.949 . S
C54 C49 1.399 . S
C54 C52 1.382 . S
C54 H55 0.952 . S
H55 C54 0.952 . S
H56 C52 0.950 . S
H57 C58 0.949 . S
C58 H57 0.949 . S
C58 C59 1.395 . S
C58 C60 1.391 . S
C59 C58 1.395 . S
C59 C62 1.390 . S
C60 C58 1.391 . S
C60 C64 1.387 . S
C60 C65 1.491 . S
H61 C62 0.950 . S
C62 C59 1.390 . S
C62 H61 0.950 . S
C62 C63 1.378 . S
C63 C62 1.378 . S
C63 C64 1.409 . S
C64 C60 1.387 . S
C64 C63 1.409 . S
C64 H66 0.951 . S
C65 C60 1.491 . S
C65 C67 1.382 . S
C65 C69 1.404 . S
H66 C64 0.951 . S
C67 C65 1.382 . S
C67 C68 1.390 . S
C67 H72 0.949 . S
C68 C67 1.390 . S
C68 C73 1.399 . S
C69 C65 1.404 . S
C69 H70 0.950 . S
C69 C71 1.375 . S
H70 C69 0.950 . S
C71 C69 1.375 . S
C71 C73 1.382 . S
C71 H75 0.950 . S
H72 C67 0.949 . S
C73 C68 1.399 . S
C73 C71 1.382 . S
C73 H74 0.952 . S
H74 C73 0.952 . S
H75 C71 0.950 . S
H76 C77 0.949 . S
C77 H76 0.949 . S
C77 C78 1.395 . S
C77 C79 1.391 . S
C78 C77 1.395 . S
C78 C81 1.390 . S
C79 C77 1.391 . S
C79 C83 1.387 . S
C79 C84 1.491 . S
H80 C81 0.950 . S
C81 C78 1.390 . S
C81 H80 0.950 . S
C81 C82 1.378 . S
C82 C81 1.378 . S
C82 C83 1.409 . S
C83 C79 1.387 . S
C83 C82 1.409 . S
C83 H85 0.951 . S
C84 C79 1.491 . S
C84 C86 1.382 . S
C84 C88 1.404 . S
H85 C83 0.951 . S
C86 C84 1.382 . S
C86 C87 1.390 . S
C86 H91 0.949 . S
C87 C86 1.390 . S
C87 C92 1.399 . S
C88 C84 1.404 . S
C88 H89 0.950 . S
C88 C90 1.375 . S
H89 C88 0.950 . S
C90 C88 1.375 . S
C90 C92 1.382 . S
C90 H94 0.950 . S
H91 C86 0.949 . S
C92 C87 1.399 . S
C92 C90 1.382 . S
C92 H93 0.952 . S
H93 C92 0.952 . S
H94 C90 0.950 . S
H95 C96 0.949 . S
C96 H95 0.949 . S
C96 C97 1.395 . S
C96 C98 1.391 . S
C97 C96 1.395 . S
C97 C100 1.390 . S
C98 C96 1.391 . S
C98 C102 1.387 . S
C98 C103 1.491 . S
H99 C100 0.950 . S
C100 C97 1.390 . S
C100 H99 0.950 . S
C100 C101 1.378 . S
C101 C100 1.378 . S
C101 C102 1.409 . S
C102 C98 1.387 . S
C102 C101 1.409 . S
C102 H104 0.951 . S
C103 C98 1.491 . S
C103 C105 1.382 . S
C103 C107 1.404 . S
H104 C102 0.951 . S
C105 C103 1.382 . S
C105 C106 1.390 . S
C105 H110 0.949 . S
C106 C105 1.390 . S
C106 C111 1.399 . S
C107 C103 1.404 . S
C107 H108 0.950 . S
C107 C109 1.375 . S
H108 C107 0.950 . S
C109 C107 1.375 . S
C109 C111 1.382 . S
C109 H113 0.950 . S
H110 C105 0.949 . S
C111 C106 1.399 . S
C111 C109 1.382 . S
C111 H112 0.952 . S
H112 C111 0.952 . S
H113 C109 0.950 . S
H114 C115 0.949 . S
C115 H114 0.949 . S
C115 C116 1.395 . S
C115 C117 1.391 . S
C116 C115 1.395 . S
C116 C119 1.390 . S
C117 C115 1.391 . S
C117 C121 1.387 . S
C117 C122 1.491 . S
H118 C119 0.950 . S
C119 C116 1.390 . S
C119 H118 0.950 . S
C119 C120 1.378 . S
C120 C119 1.378 . S
C120 C121 1.409 . S
C121 C117 1.387 . S
C121 C120 1.409 . S
C121 H123 0.951 . S
C122 C117 1.491 . S
C122 C124 1.382 . S
C122 C126 1.404 . S
H123 C121 0.951 . S
C124 C122 1.382 . S
C124 C125 1.390 . S
C124 H129 0.949 . S
C125 C124 1.390 . S
C125 C130 1.399 . S
C126 C122 1.404 . S
C126 H127 0.950 . S
C126 C128 1.375 . S
H127 C126 0.950 . S
C128 C126 1.375 . S
C128 C130 1.382 . S
C128 H132 0.950 . S
H129 C124 0.949 . S
C130 C125 1.399 . S
C130 C128 1.382 . S
C130 H131 0.952 . S
H131 C130 0.952 . S
H132 C128 0.950 . S
H133 C134 0.949 . S
C134 H133 0.949 . S
C134 C135 1.395 . S
C134 C136 1.391 . S
C135 C134 1.395 . S
C135 C138 1.390 . S
C136 C134 1.391 . S
C136 C140 1.387 . S
C136 C141 1.491 . S
H137 C138 0.950 . S
C138 C135 1.390 . S
C138 H137 0.950 . S
C138 C139 1.378 . S
C139 C138 1.378 . S
C139 C140 1.409 . S
C140 C136 1.387 . S
C140 C139 1.409 . S
C140 H142 0.951 . S
C141 C136 1.491 . S
C141 C143 1.382 . S
C141 C145 1.404 . S
H142 C140 0.951 . S
C143 C141 1.382 . S
C143 C144 1.390 . S
C143 H148 0.949 . S
C144 C143 1.390 . S
C144 C149 1.399 . S
C145 C141 1.404 . S
C145 H146 0.950 . S
C145 C147 1.375 . S
H146 C145 0.950 . S
C147 C145 1.375 . S
C147 C149 1.382 . S
C147 H151 0.950 . S
H148 C143 0.949 . S
C149 C144 1.399 . S
C149 C147 1.382 . S
C149 H150 0.952 . S
H150 C149 0.952 . S
H151 C147 0.950 . S
Gd152 C155 2.818 . S
Gd152 O172 2.377 . S
Gd152 O174 2.448 . S
Gd152 O175 2.506 . S
Gd152 O176 2.435 . S
Gd152 O177 2.717 . S
Gd152 O179 2.395 1_445 S
Gd152 O183 2.327 1_455 S
Gd153 C164 2.818 1_545 S
Gd153 O173 2.395 1_655 S
Gd153 O177 2.327 1_655 S
Gd153 O178 2.377 1_545 S
Gd153 O180 2.448 1_545 S
Gd153 O181 2.506 1_545 S
Gd153 O182 2.435 . S
Gd153 O183 2.717 . S
C154 O172 1.240 . S
C154 O173 1.240 . S
C155 Gd152 2.818 . S
C155 C156 1.510 . S
C155 O174 1.249 . S
C155 O175 1.252 . S
C156 C155 1.510 . S
C156 C157 1.404 . S
C156 C158 1.352 . S
C157 C156 1.404 . S
C157 C161 1.389 . S
C157 H184 0.930 . S
C158 C156 1.352 . S
C158 C160 1.374 . S
C158 H185 0.931 . S
C159 C160 1.359 . S
C159 C161 1.364 . S
C160 C158 1.374 . S
C160 C159 1.359 . S
C160 H186 0.931 . S
C161 C157 1.389 . S
C161 C159 1.364 . S
C161 H187 0.931 . S
C162 O176 1.256 . S
C162 O177 1.257 . S
C163 O178 1.240 . S
C163 O179 1.240 . S
C164 Gd153 2.818 1_565 S
C164 C165 1.510 . S
C164 O180 1.249 . S
C164 O181 1.252 . S
C165 C164 1.510 . S
C165 C166 1.404 . S
C165 C167 1.352 . S
C166 C165 1.404 . S
C166 C170 1.389 . S
C166 H188 0.930 . S
C167 C165 1.352 . S
C167 C169 1.374 . S
C167 H189 0.931 . S
C168 C169 1.359 . S
C168 C170 1.364 . S
C169 C167 1.374 . S
C169 C168 1.359 . S
C169 H190 0.931 . S
C170 C166 1.389 . S
C170 C168 1.364 . S
C170 H191 0.931 . S
C171 O182 1.256 . S
C171 O183 1.257 . S
O172 Gd152 2.377 . S
O172 C154 1.240 . S
O173 Gd153 2.395 1_455 S
O173 C154 1.240 . S
O174 Gd152 2.448 . S
O174 C155 1.249 . S
O175 Gd152 2.506 . S
O175 C155 1.252 . S
O176 Gd152 2.435 . S
O176 C162 1.256 . S
O177 Gd152 2.717 . S
O177 Gd153 2.327 1_455 S
O177 C162 1.257 . S
O178 Gd153 2.377 1_565 S
O178 C163 1.240 . S
O179 Gd152 2.395 1_665 S
O179 C163 1.240 . S
O180 Gd153 2.448 1_565 S
O180 C164 1.249 . S
O181 Gd153 2.506 1_565 S
O181 C164 1.252 . S
O182 Gd153 2.435 . S
O182 C171 1.256 . S
O183 Gd152 2.327 1_655 S
O183 Gd153 2.717 . S
O183 C171 1.257 . S
H184 C157 0.930 . S
H185 C158 0.931 . S
H186 C160 0.931 . S
H187 C161 0.931 . S
H188 C166 0.930 . S
H189 C167 0.931 . S
H190 C169 0.931 . S
H191 C170 0.931 . S
Gd192 C195 2.818 . S
Gd192 O212 2.377 . S
Gd192 O214 2.448 . S
Gd192 O215 2.506 . S
Gd192 O216 2.435 1_545 S
Gd192 O217 2.717 1_545 S
Gd192 O219 2.395 1_545 S
Gd192 O223 2.327 . S
Gd193 C204 2.818 1_544 S
Gd193 O213 2.395 . S
Gd193 O217 2.327 1_545 S
Gd193 O218 2.377 . S
Gd193 O220 2.448 1_554 S
Gd193 O221 2.506 1_545 S
Gd193 O222 2.435 . S
Gd193 O223 2.717 . S
C194 O212 1.240 . S
C194 O213 1.240 . S
C195 Gd192 2.818 . S
C195 C196 1.510 . S
C195 O214 1.249 . S
C195 O215 1.252 . S
C196 C195 1.510 . S
C196 C197 1.404 . S
C196 C198 1.352 . S
C197 C196 1.404 . S
C197 C201 1.389 . S
C197 H224 0.930 . S
C198 C196 1.352 . S
C198 C200 1.374 . S
C198 H225 0.931 . S
C199 C200 1.359 . S
C199 C201 1.364 . S
C200 C198 1.374 . S
C200 C199 1.359 . S
C200 H226 0.931 . S
C201 C197 1.389 . S
C201 C199 1.364 . S
C201 H227 0.931 . S
C202 O216 1.256 . S
C202 O217 1.257 . S
C203 O218 1.240 1_565 S
C203 O219 1.240 . S
C204 Gd193 2.818 1_566 S
C204 C205 1.510 . S
C204 O220 1.249 1_565 S
C204 O221 1.252 1_556 S
C205 C204 1.510 . S
C205 C206 1.404 . S
C205 C207 1.352 . S
C206 C205 1.404 . S
C206 C210 1.389 . S
C206 H228 0.930 . S
C207 C205 1.352 . S
C207 C209 1.374 . S
C207 H229 0.931 . S
C208 C209 1.359 . S
C208 C210 1.364 . S
C209 C207 1.374 . S
C209 C208 1.359 . S
C209 H230 0.931 . S
C210 C206 1.389 . S
C210 C208 1.364 . S
C210 H231 0.931 . S
C211 O222 1.256 . S
C211 O223 1.257 . S
O212 Gd192 2.377 . S
O212 C194 1.240 . S
O213 Gd193 2.395 . S
O213 C194 1.240 . S
O214 Gd192 2.448 . S
O214 C195 1.249 . S
O215 Gd192 2.506 . S
O215 C195 1.252 . S
O216 Gd192 2.435 1_565 S
O216 C202 1.256 . S
O217 Gd192 2.717 1_565 S
O217 Gd193 2.327 1_565 S
O217 C202 1.257 . S
O218 Gd193 2.377 . S
O218 C203 1.240 1_545 S
O219 Gd192 2.395 1_565 S
O219 C203 1.240 . S
O220 Gd193 2.448 1_556 S
O220 C204 1.249 1_545 S
O221 Gd193 2.506 1_565 S
O221 C204 1.252 1_554 S
O222 Gd193 2.435 . S
O222 C211 1.256 . S
O223 Gd192 2.327 . S
O223 Gd193 2.717 . S
O223 C211 1.257 . S
H224 C197 0.930 . S
H225 C198 0.931 . S
H226 C200 0.931 . S
H227 C201 0.931 . S
H228 C206 0.930 . S
H229 C207 0.931 . S
H230 C209 0.931 . S
H231 C210 0.931 . S
Gd232 C235 2.818 . S
Gd232 O252 2.377 . S
Gd232 O254 2.448 . S
Gd232 O255 2.506 . S
Gd232 O256 2.435 . S
Gd232 O257 2.717 . S
Gd232 O259 2.395 . S
Gd232 O263 2.327 . S
Gd233 C244 2.818 . S
Gd233 O253 2.395 . S
Gd233 O257 2.327 . S
Gd233 O258 2.377 . S
Gd233 O260 2.448 . S
Gd233 O261 2.506 . S
Gd233 O262 2.435 . S
Gd233 O263 2.717 . S
C234 O252 1.240 . S
C234 O253 1.240 . S
C235 Gd232 2.818 . S
C235 C236 1.510 . S
C235 O254 1.249 . S
C235 O255 1.252 . S
C236 C235 1.510 . S
C236 C237 1.404 . S
C236 C238 1.352 . S
C237 C236 1.404 . S
C237 C241 1.389 . S
C237 H264 0.930 . S
C238 C236 1.352 . S
C238 C240 1.374 . S
C238 H265 0.931 . S
C239 C240 1.359 . S
C239 C241 1.364 . S
C240 C238 1.374 . S
C240 C239 1.359 . S
C240 H266 0.931 . S
C241 C237 1.389 . S
C241 C239 1.364 . S
C241 H267 0.931 . S
C242 O256 1.256 . S
C242 O257 1.257 . S
C243 O258 1.240 . S
C243 O259 1.240 . S
C244 Gd233 2.818 . S
C244 C245 1.510 . S
C244 O260 1.249 . S
C244 O261 1.252 . S
C245 C244 1.510 . S
C245 C246 1.404 . S
C245 C247 1.352 . S
C246 C245 1.404 . S
C246 C250 1.389 . S
C246 H268 0.930 . S
C247 C245 1.352 . S
C247 C249 1.374 . S
C247 H269 0.931 . S
C248 C249 1.359 . S
C248 C250 1.364 . S
C249 C247 1.374 . S
C249 C248 1.359 . S
C249 H270 0.931 . S
C250 C246 1.389 . S
C250 C248 1.364 . S
C250 H271 0.931 . S
C251 O262 1.256 . S
C251 O263 1.257 . S
O252 Gd232 2.377 . S
O252 C234 1.240 . S
O253 Gd233 2.395 . S
O253 C234 1.240 . S
O254 Gd232 2.448 . S
O254 C235 1.249 . S
O255 Gd232 2.506 . S
O255 C235 1.252 . S
O256 Gd232 2.435 . S
O256 C242 1.256 . S
O257 Gd232 2.717 . S
O257 Gd233 2.327 . S
O257 C242 1.257 . S
O258 Gd233 2.377 . S
O258 C243 1.240 . S
O259 Gd232 2.395 . S
O259 C243 1.240 . S
O260 Gd233 2.448 . S
O260 C244 1.249 . S
O261 Gd233 2.506 . S
O261 C244 1.252 . S
O262 Gd233 2.435 . S
O262 C251 1.256 . S
O263 Gd232 2.327 . S
O263 Gd233 2.717 . S
O263 C251 1.257 . S
H264 C237 0.930 . S
H265 C238 0.931 . S
H266 C240 0.931 . S
H267 C241 0.931 . S
H268 C246 0.930 . S
H269 C247 0.931 . S
H270 C249 0.931 . S
H271 C250 0.931 . S
Gd272 C275 2.818 . S
Gd272 O292 2.377 . S
Gd272 O294 2.448 . S
Gd272 O295 2.506 . S
Gd272 O296 2.435 . S
Gd272 O297 2.717 . S
Gd272 O299 2.395 1_455 S
Gd272 O303 2.327 1_554 S
Gd273 C284 2.818 1_454 S
Gd273 O293 2.396 . S
Gd273 O297 2.328 . S
Gd273 O298 2.377 1_454 S
Gd273 O300 2.448 1_554 S
Gd273 O301 2.506 1_454 S
Gd273 O302 2.435 1_554 S
Gd273 O303 2.717 1_554 S
C274 O292 1.240 . S
C274 O293 1.240 . S
C275 Gd272 2.818 . S
C275 C276 1.510 . S
C275 O294 1.249 . S
C275 O295 1.252 . S
C276 C275 1.510 . S
C276 C277 1.404 . S
C276 C278 1.352 . S
C277 C276 1.404 . S
C277 C281 1.389 . S
C277 H304 0.930 . S
C278 C276 1.352 . S
C278 C280 1.374 . S
C278 H305 0.931 . S
C279 C280 1.359 . S
C279 C281 1.364 . S
C280 C278 1.374 . S
C280 C279 1.359 . S
C280 H306 0.931 . S
C281 C277 1.389 . S
C281 C279 1.364 . S
C281 H307 0.931 . S
C282 O296 1.256 1_655 S
C282 O297 1.257 1_655 S
C283 O298 1.240 . S
C283 O299 1.240 1_556 S
C284 Gd273 2.818 1_656 S
C284 C285 1.510 . S
C284 O300 1.249 1_655 S
C284 O301 1.259 . S
C285 C284 1.510 . S
C285 C286 1.404 . S
C285 C287 1.352 . S
C286 C285 1.404 . S
C286 C290 1.389 . S
C286 H308 0.930 . S
C287 C285 1.352 . S
C287 C289 1.374 . S
C287 H309 0.931 . S
C288 C289 1.359 . S
C288 C290 1.364 . S
C289 C287 1.374 . S
C289 C288 1.359 . S
C289 H310 0.931 . S
C290 C286 1.389 . S
C290 C288 1.364 . S
C290 H311 0.931 . S
C291 O302 1.256 . S
C291 O303 1.257 . S
O292 Gd272 2.377 . S
O292 C274 1.240 . S
O293 Gd273 2.396 . S
O293 C274 1.240 . S
O294 Gd272 2.448 . S
O294 C275 1.249 . S
O295 Gd272 2.506 . S
O295 C275 1.252 . S
O296 Gd272 2.435 . S
O296 C282 1.256 1_455 S
O297 Gd272 2.717 . S
O297 Gd273 2.328 . S
O297 C282 1.257 1_455 S
O298 Gd273 2.377 1_656 S
O298 C283 1.240 . S
O299 Gd272 2.395 1_655 S
O299 C283 1.240 1_554 S
O300 Gd273 2.448 1_556 S
O300 C284 1.249 1_455 S
O301 Gd273 2.506 1_656 S
O301 C284 1.259 . S
O302 Gd273 2.435 1_556 S
O302 C291 1.256 . S
O303 Gd272 2.327 1_556 S
O303 Gd273 2.717 1_556 S
O303 C291 1.257 . S
H304 C277 0.930 . S
H305 C278 0.931 . S
H306 C280 0.931 . S
H307 C281 0.931 . S
H308 C286 0.930 . S
H309 C287 0.931 . S
H310 C289 0.931 . S
H311 C290 0.931 . S
C312 C313 1.363 . S
C312 C318 1.379 . S
C312 N320 1.356 . S
C313 C312 1.363 . S
C313 C319 1.363 . S
C314 C315 1.363 . S
C314 C319 1.379 . S
C314 N321 1.356 . S
C315 C314 1.363 . S
C315 C318 1.363 . S
N316 C318 1.356 . S
N316 H328 0.984 . S
N316 H329 0.985 . S
N317 C319 1.356 . S
N317 H322 0.984 . S
N317 H323 0.985 . S
C318 C312 1.379 . S
C318 C315 1.363 . S
C318 N316 1.356 . S
C319 C313 1.363 . S
C319 C314 1.379 . S
C319 N317 1.356 . S
N320 C312 1.356 . S
N320 H326 0.984 . S
N320 H327 0.984 . S
N321 C314 1.356 . S
N321 H324 0.984 . S
N321 H325 0.985 . S
H322 N317 0.984 . S
H323 N317 0.985 . S
H324 N321 0.984 . S
H325 N321 0.985 . S
H326 N320 0.984 . S
H327 N320 0.984 . S
H328 N316 0.984 . S
H329 N316 0.985 . S
C330 C331 1.363 . S
C330 C336 1.379 . S
C330 N338 1.356 . S
C331 C330 1.363 . S
C331 C337 1.363 . S
C332 C333 1.363 . S
C332 C337 1.379 . S
C332 N339 1.356 . S
C333 C332 1.363 . S
C333 C336 1.363 . S
N334 C336 1.356 . S
N334 H346 0.984 . S
N334 H347 0.985 . S
N335 C337 1.356 . S
N335 H340 0.984 . S
N335 H341 0.985 . S
C336 C330 1.379 . S
C336 C333 1.363 . S
C336 N334 1.356 . S
C337 C331 1.363 . S
C337 C332 1.379 . S
C337 N335 1.356 . S
N338 C330 1.356 . S
N338 H344 0.984 . S
N338 H345 0.984 . S
N339 C332 1.356 . S
N339 H342 0.984 . S
N339 H343 0.985 . S
H340 N335 0.984 . S
H341 N335 0.985 . S
H342 N339 0.984 . S
H343 N339 0.985 . S
H344 N338 0.984 . S
H345 N338 0.984 . S
H346 N334 0.984 . S
H347 N334 0.985 . S
C348 C349 1.363 . S
C348 C354 1.379 . S
C348 N356 1.356 . S
C349 C348 1.363 . S
C349 C355 1.363 . S
C350 C351 1.363 . S
C350 C355 1.379 . S
C350 N357 1.356 . S
C351 C350 1.363 . S
C351 C354 1.363 . S
N352 C354 1.356 . S
N352 H364 0.984 . S
N352 H365 0.985 . S
N353 C355 1.356 . S
N353 H358 0.984 . S
N353 H359 0.985 . S
C354 C348 1.379 . S
C354 C351 1.363 . S
C354 N352 1.356 . S
C355 C349 1.363 . S
C355 C350 1.379 . S
C355 N353 1.356 . S
N356 C348 1.356 . S
N356 H362 0.984 . S
N356 H363 0.984 . S
N357 C350 1.356 . S
N357 H360 0.984 . S
N357 H361 0.985 . S
H358 N353 0.984 . S
H359 N353 0.985 . S
H360 N357 0.984 . S
H361 N357 0.985 . S
H362 N356 0.984 . S
H363 N356 0.984 . S
H364 N352 0.984 . S
H365 N352 0.985 . S
C366 C367 1.363 . S
C366 C372 1.379 . S
C366 N374 1.356 . S
C367 C366 1.363 . S
C367 C373 1.363 . S
C368 C369 1.363 . S
C368 C373 1.379 . S
C368 N375 1.356 . S
C369 C368 1.363 . S
C369 C372 1.363 . S
N370 C372 1.356 . S
N370 H382 0.984 . S
N370 H383 0.985 . S
N371 C373 1.356 . S
N371 H376 0.984 . S
N371 H377 0.985 . S
C372 C366 1.379 . S
C372 C369 1.363 . S
C372 N370 1.356 . S
C373 C367 1.363 . S
C373 C368 1.379 . S
C373 N371 1.356 . S
N374 C366 1.356 . S
N374 H380 0.984 . S
N374 H381 0.984 . S
N375 C368 1.356 . S
N375 H378 0.984 . S
N375 H379 0.985 . S
H376 N371 0.984 . S
H377 N371 0.985 . S
H378 N375 0.984 . S
H379 N375 0.985 . S
H380 N374 0.984 . S
H381 N374 0.984 . S
H382 N370 0.984 . S
H383 N370 0.985 . S
C384 C385 1.363 . S
C384 C390 1.379 . S
C384 N392 1.356 . S
C385 C384 1.363 . S
C385 C391 1.363 . S
C386 C387 1.363 . S
C386 C391 1.379 . S
C386 N393 1.356 . S
C387 C386 1.363 . S
C387 C390 1.363 . S
N388 C390 1.356 . S
N388 H400 0.984 . S
N388 H401 0.985 . S
N389 C391 1.356 . S
N389 H394 0.984 . S
N389 H395 0.985 . S
C390 C384 1.379 . S
C390 C387 1.363 . S
C390 N388 1.356 . S
C391 C385 1.363 . S
C391 C386 1.379 . S
C391 N389 1.356 . S
N392 C384 1.356 . S
N392 H398 0.984 . S
N392 H399 0.984 . S
N393 C386 1.356 . S
N393 H396 0.984 . S
N393 H397 0.985 . S
H394 N389 0.984 . S
H395 N389 0.985 . S
H396 N393 0.984 . S
H397 N393 0.985 . S
H398 N392 0.984 . S
H399 N392 0.984 . S
H400 N388 0.984 . S
H401 N388 0.985 . S
C402 C403 1.363 . S
C402 C408 1.379 . S
C402 N410 1.356 . S
C403 C402 1.363 . S
C403 C409 1.363 . S
C404 C405 1.363 . S
C404 C409 1.379 . S
C404 N411 1.356 . S
C405 C404 1.363 . S
C405 C408 1.363 . S
N406 C408 1.356 1_545 S
N406 H418 0.984 . S
N406 H419 0.985 . S
N407 C409 1.356 . S
N407 H412 0.984 . S
N407 H413 0.985 . S
C408 C402 1.379 . S
C408 C405 1.363 . S
C408 N406 1.356 1_565 S
C409 C403 1.363 . S
C409 C404 1.379 . S
C409 N407 1.356 . S
N410 C402 1.356 . S
N410 H416 0.984 . S
N410 H417 0.984 . S
N411 C404 1.356 . S
N411 H414 0.984 1_565 S
N411 H415 0.985 . S
H412 N407 0.984 . S
H413 N407 0.985 . S
H414 N411 0.984 1_545 S
H415 N411 0.985 . S
H416 N410 0.984 . S
H417 N410 0.984 . S
H418 N406 0.984 . S
H419 N406 0.985 . S
C420 C421 1.363 . S
C420 C426 1.379 . S
C420 N428 1.356 . S
C421 C420 1.363 . S
C421 C427 1.363 . S
C422 C423 1.363 1_554 S
C422 C427 1.379 1_554 S
C422 N429 1.356 . S
C423 C422 1.363 1_556 S
C423 C426 1.363 . S
N424 C426 1.356 . S
N424 H436 0.984 . S
N424 H437 0.985 . S
N425 C427 1.356 1_554 S
N425 H430 0.984 1_554 S
N425 H431 0.985 . S
C426 C420 1.379 . S
C426 C423 1.363 . S
C426 N424 1.356 . S
C427 C421 1.363 . S
C427 C422 1.379 1_556 S
C427 N425 1.356 1_556 S
N428 C420 1.356 . S
N428 H434 0.984 . S
N428 H435 0.984 . S
N429 C422 1.356 . S
N429 H432 0.984 . S
N429 H433 0.985 . S
H430 N425 0.984 1_556 S
H431 N425 0.985 . S
H432 N429 0.984 . S
H433 N429 0.985 . S
H434 N428 0.984 . S
H435 N428 0.984 . S
H436 N424 0.984 . S
H437 N424 0.985 . S
C438 C439 1.363 . S
C438 C444 1.379 . S
C438 N446 1.356 . S
C439 C438 1.363 . S
C439 C445 1.363 . S
C440 C441 1.363 . S
C440 C445 1.379 . S
C440 N447 1.356 . S
C441 C440 1.363 . S
C441 C444 1.363 . S
N442 C444 1.356 . S
N442 H454 0.984 . S
N442 H455 0.985 . S
N443 C445 1.356 . S
N443 H448 0.984 . S
N443 H449 0.985 . S
C444 C438 1.379 . S
C444 C441 1.363 . S
C444 N442 1.356 . S
C445 C439 1.363 . S
C445 C440 1.379 . S
C445 N443 1.356 . S
N446 C438 1.356 . S
N446 H452 0.984 . S
N446 H453 0.984 . S
N447 C440 1.356 . S
N447 H450 0.984 . S
N447 H451 0.985 . S
H448 N443 0.984 . S
H449 N443 0.985 . S
H450 N447 0.984 . S
H451 N447 0.985 . S
H452 N446 0.984 . S
H453 N446 0.984 . S
H454 N442 0.984 . S
H455 N442 0.985 . S
C456 C457 1.363 . S
C456 C462 1.379 . S
C456 N464 1.356 . S
C457 C456 1.363 . S
C457 C463 1.363 . S
C458 C459 1.363 . S
C458 C463 1.379 . S
C458 N465 1.356 . S
C459 C458 1.363 . S
C459 C462 1.363 . S
N460 C462 1.356 . S
N460 H472 0.984 . S
N460 H473 0.985 . S
N461 C463 1.356 . S
N461 H466 0.984 . S
N461 H467 0.985 . S
C462 C456 1.379 . S
C462 C459 1.363 . S
C462 N460 1.356 . S
C463 C457 1.363 . S
C463 C458 1.379 . S
C463 N461 1.356 . S
N464 C456 1.356 . S
N464 H470 0.984 . S
N464 H471 0.984 . S
N465 C458 1.356 . S
N465 H468 0.984 . S
N465 H469 0.985 . S
H466 N461 0.984 . S
H467 N461 0.985 . S
H468 N465 0.984 . S
H469 N465 0.985 . S
H470 N464 0.984 . S
H471 N464 0.984 . S
H472 N460 0.984 . S
H473 N460 0.985 . S
C474 C475 1.363 . S
C474 C480 1.379 . S
C474 N482 1.356 . S
C475 C474 1.363 . S
C475 C481 1.363 1_556 S
C476 C477 1.363 . S
C476 C481 1.379 . S
C476 N483 1.356 . S
C477 C476 1.363 . S
C477 C480 1.363 1_554 S
N478 C480 1.356 . S
N478 H490 0.984 . S
N478 H491 0.985 . S
N479 C481 1.356 . S
N479 H484 0.984 . S
N479 H485 0.985 . S
C480 C474 1.379 . S
C480 C477 1.363 1_556 S
C480 N478 1.356 . S
C481 C475 1.363 1_554 S
C481 C476 1.379 . S
C481 N479 1.356 . S
N482 C474 1.356 . S
N482 H488 0.984 . S
N482 H489 0.984 . S
N483 C476 1.356 . S
N483 H486 0.984 . S
N483 H487 0.985 . S
H484 N479 0.984 . S
H485 N479 0.985 . S
H486 N483 0.984 . S
H487 N483 0.985 . S
H488 N482 0.984 . S
H489 N482 0.984 . S
H490 N478 0.984 . S
H491 N478 0.985 . S
C492 C493 1.363 . S
C492 C498 1.379 . S
C492 N500 1.356 . S
C493 C492 1.363 . S
C493 C499 1.363 . S
C494 C495 1.363 . S
C494 C499 1.379 . S
C494 N501 1.356 . S
C495 C494 1.363 . S
C495 C498 1.363 . S
N496 C498 1.356 . S
N496 H508 0.984 . S
N496 H509 0.985 . S
N497 C499 1.356 . S
N497 H502 0.984 . S
N497 H503 0.985 . S
C498 C492 1.379 . S
C498 C495 1.363 . S
C498 N496 1.356 . S
C499 C493 1.363 . S
C499 C494 1.379 . S
C499 N497 1.356 . S
N500 C492 1.356 . S
N500 H506 0.984 . S
N500 H507 0.984 . S
N501 C494 1.356 . S
N501 H504 0.984 . S
N501 H505 0.985 . S
H502 N497 0.984 . S
H503 N497 0.985 . S
H504 N501 0.984 . S
H505 N501 0.985 . S
H506 N500 0.984 . S
H507 N500 0.984 . S
H508 N496 0.984 . S
H509 N496 0.985 . S
C510 C511 1.363 . S
C510 C516 1.379 . S
C510 N518 1.356 . S
C511 C510 1.363 . S
C511 C517 1.363 . S
C512 C513 1.363 . S
C512 C517 1.379 . S
C512 N519 1.356 . S
C513 C512 1.363 . S
C513 C516 1.363 . S
N514 C516 1.356 . S
N514 H526 0.984 . S
N514 H527 0.985 . S
N515 C517 1.356 . S
N515 H520 0.984 . S
N515 H521 0.985 . S
C516 C510 1.379 . S
C516 C513 1.363 . S
C516 N514 1.356 . S
C517 C511 1.363 . S
C517 C512 1.379 . S
C517 N515 1.356 . S
N518 C510 1.356 . S
N518 H524 0.984 . S
N518 H525 0.984 . S
N519 C512 1.356 . S
N519 H522 0.984 . S
N519 H523 0.985 . S
H520 N515 0.984 . S
H521 N515 0.985 . S
H522 N519 0.984 . S
H523 N519 0.985 . S
H524 N518 0.984 . S
H525 N518 0.984 . S
H526 N514 0.984 . S
H527 N514 0.985 . S
C528 C529 1.363 . S
C528 C534 1.379 . S
C528 N536 1.356 . S
C529 C528 1.363 . S
C529 C535 1.363 . S
C530 C531 1.363 . S
C530 C535 1.379 . S
C530 N537 1.356 . S
C531 C530 1.363 . S
C531 C534 1.363 . S
N532 C534 1.356 . S
N532 H544 0.984 . S
N532 H545 0.985 . S
N533 C535 1.356 . S
N533 H538 0.984 . S
N533 H539 0.985 . S
C534 C528 1.379 . S
C534 C531 1.363 . S
C534 N532 1.356 . S
C535 C529 1.363 . S
C535 C530 1.379 . S
C535 N533 1.356 . S
N536 C528 1.356 . S
N536 H542 0.984 . S
N536 H543 0.984 . S
N537 C530 1.356 . S
N537 H540 0.984 . S
N537 H541 0.985 . S
H538 N533 0.984 . S
H539 N533 0.985 . S
H540 N537 0.984 . S
H541 N537 0.985 . S
H542 N536 0.984 . S
H543 N536 0.984 . S
H544 N532 0.984 . S
H545 N532 0.985 . S
C546 C547 1.363 . S
C546 C552 1.379 . S
C546 N554 1.356 . S
C547 C546 1.363 . S
C547 C553 1.363 . S
C548 C549 1.363 . S
C548 C553 1.379 . S
C548 N555 1.356 . S
C549 C548 1.363 . S
C549 C552 1.363 . S
N550 C552 1.356 . S
N550 H562 0.984 . S
N550 H563 0.985 . S
N551 C553 1.356 . S
N551 H556 0.984 . S
N551 H557 0.985 . S
C552 C546 1.379 . S
C552 C549 1.363 . S
C552 N550 1.356 . S
C553 C547 1.363 . S
C553 C548 1.379 . S
C553 N551 1.356 . S
N554 C546 1.356 . S
N554 H560 0.984 . S
N554 H561 0.984 . S
N555 C548 1.356 . S
N555 H558 0.984 . S
N555 H559 0.985 . S
H556 N551 0.984 . S
H557 N551 0.985 . S
H558 N555 0.984 . S
H559 N555 0.985 . S
H560 N554 0.984 . S
H561 N554 0.984 . S
H562 N550 0.984 . S
H563 N550 0.985 . S
C564 C565 1.363 . S
C564 C570 1.379 . S
C564 N572 1.356 . S
C565 C564 1.363 . S
C565 C571 1.363 . S
C566 C567 1.363 . S
C566 C571 1.379 . S
C566 N573 1.356 . S
C567 C566 1.363 . S
C567 C570 1.363 . S
N568 C570 1.356 . S
N568 H580 0.984 . S
N568 H581 0.985 . S
N569 C571 1.356 . S
N569 H574 0.984 . S
N569 H575 0.985 . S
C570 C564 1.379 . S
C570 C567 1.363 . S
C570 N568 1.356 . S
C571 C565 1.363 . S
C571 C566 1.379 . S
C571 N569 1.356 . S
N572 C564 1.356 . S
N572 H578 0.984 . S
N572 H579 0.984 . S
N573 C566 1.356 . S
N573 H576 0.984 . S
N573 H577 0.985 . S
H574 N569 0.984 . S
H575 N569 0.985 . S
H576 N573 0.984 . S
H577 N573 0.985 . S
H578 N572 0.984 . S
H579 N572 0.984 . S
H580 N568 0.984 . S
H581 N568 0.985 . S
C582 C583 1.363 . S
C582 C588 1.379 . S
C582 N590 1.356 . S
C583 C582 1.363 . S
C583 C589 1.363 . S
C584 C585 1.363 . S
C584 C589 1.379 . S
C584 N591 1.356 . S
C585 C584 1.363 . S
C585 C588 1.363 . S
N586 C588 1.356 . S
N586 H598 0.984 . S
N586 H599 0.985 . S
N587 C589 1.356 . S
N587 H592 0.984 . S
N587 H593 0.985 . S
C588 C582 1.379 . S
C588 C585 1.363 . S
C588 N586 1.356 . S
C589 C583 1.363 . S
C589 C584 1.379 . S
C589 N587 1.356 . S
N590 C582 1.356 . S
N590 H596 0.984 . S
N590 H597 0.984 . S
N591 C584 1.356 . S
N591 H594 0.984 . S
N591 H595 0.985 1_455 S
H592 N587 0.984 . S
H593 N587 0.985 . S
H594 N591 0.984 . S
H595 N591 0.985 1_655 S
H596 N590 0.984 . S
H597 N590 0.984 . S
H598 N586 0.984 . S
H599 N586 0.985 . S
C600 C601 1.363 . S
C600 C606 1.379 . S
C600 N608 1.356 . S
C601 C600 1.363 . S
C601 C607 1.363 . S
C602 C603 1.363 1_554 S
C602 C607 1.379 1_554 S
C602 N609 1.356 . S
C603 C602 1.363 1_556 S
C603 C606 1.363 . S
N604 C606 1.356 . S
N604 H616 0.984 . S
N604 H617 0.985 . S
N605 C607 1.356 1_554 S
N605 H610 0.984 1_554 S
N605 H611 0.985 . S
C606 C600 1.379 . S
C606 C603 1.363 . S
C606 N604 1.356 . S
C607 C601 1.363 . S
C607 C602 1.379 1_556 S
C607 N605 1.356 1_556 S
N608 C600 1.356 . S
N608 H614 0.984 . S
N608 H615 0.984 . S
N609 C602 1.356 . S
N609 H612 0.984 . S
N609 H613 0.985 . S
H610 N605 0.984 1_556 S
H611 N605 0.985 . S
H612 N609 0.984 . S
H613 N609 0.985 . S
H614 N608 0.984 . S
H615 N608 0.984 . S
H616 N604 0.984 . S
H617 N604 0.985 . S
C618 C619 1.363 . S
C618 C624 1.379 . S
C618 N626 1.356 . S
C619 C618 1.363 . S
C619 C625 1.363 . S
C620 C621 1.363 . S
C620 C625 1.379 . S
C620 N627 1.356 . S
C621 C620 1.363 . S
C621 C624 1.363 . S
N622 C624 1.356 . S
N622 H634 0.984 . S
N622 H635 0.985 . S
N623 C625 1.356 . S
N623 H628 0.984 . S
N623 H629 0.985 . S
C624 C618 1.379 . S
C624 C621 1.363 . S
C624 N622 1.356 . S
C625 C619 1.363 . S
C625 C620 1.379 . S
C625 N623 1.356 . S
N626 C618 1.356 . S
N626 H632 0.984 . S
N626 H633 0.984 . S
N627 C620 1.356 . S
N627 H630 0.984 . S
N627 H631 0.985 1_655 S
H628 N623 0.984 . S
H629 N623 0.985 . S
H630 N627 0.984 . S
H631 N627 0.985 1_455 S
H632 N626 0.984 . S
H633 N626 0.984 . S
H634 N622 0.984 . S
H635 N622 0.985 . S
C636 C637 1.363 . S
C636 C642 1.379 . S
C636 N644 1.356 . S
C637 C636 1.363 . S
C637 C643 1.363 . S
C638 C639 1.363 . S
C638 C643 1.379 . S
C638 N645 1.356 . S
C639 C638 1.363 . S
C639 C642 1.363 . S
N640 C642 1.356 . S
N640 H652 0.984 . S
N640 H653 0.985 . S
N641 C643 1.356 . S
N641 H646 0.984 . S
N641 H647 0.985 . S
C642 C636 1.379 . S
C642 C639 1.363 . S
C642 N640 1.356 . S
C643 C637 1.363 . S
C643 C638 1.379 . S
C643 N641 1.356 . S
N644 C636 1.356 . S
N644 H650 0.984 . S
N644 H651 0.984 . S
N645 C638 1.356 . S
N645 H648 0.984 . S
N645 H649 0.985 . S
H646 N641 0.984 . S
H647 N641 0.985 . S
H648 N645 0.984 . S
H649 N645 0.985 . S
H650 N644 0.984 . S
H651 N644 0.984 . S
H652 N640 0.984 . S
H653 N640 0.985 . S
C654 C655 1.363 . S
C654 C660 1.379 . S
C654 N662 1.356 . S
C655 C654 1.363 . S
C655 C661 1.363 . S
C656 C657 1.363 . S
C656 C661 1.379 . S
C656 N663 1.356 . S
C657 C656 1.363 . S
C657 C660 1.363 . S
N658 C660 1.356 . S
N658 H670 0.984 . S
N658 H671 0.985 . S
N659 C661 1.356 . S
N659 H664 0.984 . S
N659 H665 0.985 . S
C660 C654 1.379 . S
C660 C657 1.363 . S
C660 N658 1.356 . S
C661 C655 1.363 . S
C661 C656 1.379 . S
C661 N659 1.356 . S
N662 C654 1.356 . S
N662 H668 0.984 . S
N662 H669 0.984 . S
N663 C656 1.356 . S
N663 H666 0.984 . S
N663 H667 0.985 . S
H664 N659 0.984 . S
H665 N659 0.985 . S
H666 N663 0.984 . S
H667 N663 0.985 . S
H668 N662 0.984 . S
H669 N662 0.984 . S
H670 N658 0.984 . S
H671 N658 0.985 . S
C672 C673 1.363 . S
C672 C678 1.379 . S
C672 N680 1.356 . S
C673 C672 1.363 . S
C673 C679 1.363 . S
C674 C675 1.363 . S
C674 C679 1.379 . S
C674 N681 1.356 . S
C675 C674 1.363 . S
C675 C678 1.363 . S
N676 C678 1.356 . S
N676 H688 0.984 . S
N676 H689 0.985 . S
N677 C679 1.356 . S
N677 H682 0.984 . S
N677 H683 0.985 . S
C678 C672 1.379 . S
C678 C675 1.363 . S
C678 N676 1.356 . S
C679 C673 1.363 . S
C679 C674 1.379 . S
C679 N677 1.356 . S
N680 C672 1.356 . S
N680 H686 0.984 . S
N680 H687 0.984 . S
N681 C674 1.356 . S
N681 H684 0.984 . S
N681 H685 0.985 . S
H682 N677 0.984 . S
H683 N677 0.985 . S
H684 N681 0.984 . S
H685 N681 0.985 . S
H686 N680 0.984 . S
H687 N680 0.984 . S
H688 N676 0.984 . S
H689 N676 0.985 . S
C690 C691 1.363 . S
C690 C696 1.379 . S
C690 N698 1.356 . S
C691 C690 1.363 . S
C691 C697 1.363 . S
C692 C693 1.363 . S
C692 C697 1.379 . S
C692 N699 1.356 . S
C693 C692 1.363 . S
C693 C696 1.363 . S
N694 C696 1.356 . S
N694 H706 0.984 . S
N694 H707 0.985 . S
N695 C697 1.356 . S
N695 H700 0.984 . S
N695 H701 0.985 . S
C696 C690 1.379 . S
C696 C693 1.363 . S
C696 N694 1.356 . S
C697 C691 1.363 . S
C697 C692 1.379 . S
C697 N695 1.356 . S
N698 C690 1.356 . S
N698 H704 0.984 . S
N698 H705 0.984 . S
N699 C692 1.356 . S
N699 H702 0.984 . S
N699 H703 0.985 . S
H700 N695 0.984 . S
H701 N695 0.985 . S
H702 N699 0.984 . S
H703 N699 0.985 . S
H704 N698 0.984 . S
H705 N698 0.984 . S
H706 N694 0.984 . S
H707 N694 0.985 . S
C708 C709 1.363 . S
C708 C714 1.379 . S
C708 N716 1.356 . S
C709 C708 1.363 . S
C709 C715 1.363 . S
C710 C711 1.363 . S
C710 C715 1.379 . S
C710 N717 1.356 . S
C711 C710 1.363 . S
C711 C714 1.363 . S
N712 C714 1.356 . S
N712 H724 0.984 . S
N712 H725 0.985 . S
N713 C715 1.356 . S
N713 H718 0.984 . S
N713 H719 0.985 . S
C714 C708 1.379 . S
C714 C711 1.363 . S
C714 N712 1.356 . S
C715 C709 1.363 . S
C715 C710 1.379 . S
C715 N713 1.356 . S
N716 C708 1.356 . S
N716 H722 0.984 . S
N716 H723 0.984 . S
N717 C710 1.356 . S
N717 H720 0.984 . S
N717 H721 0.985 . S
H718 N713 0.984 . S
H719 N713 0.985 . S
H720 N717 0.984 . S
H721 N717 0.985 . S
H722 N716 0.984 . S
H723 N716 0.984 . S
H724 N712 0.984 . S
H725 N712 0.985 . S
C726 C727 1.363 . S
C726 C732 1.379 . S
C726 N734 1.356 . S
C727 C726 1.363 . S
C727 C733 1.363 . S
C728 C729 1.363 . S
C728 C733 1.379 . S
C728 N735 1.356 . S
C729 C728 1.363 . S
C729 C732 1.363 . S
N730 C732 1.356 . S
N730 H742 0.984 . S
N730 H743 0.985 . S
N731 C733 1.356 . S
N731 H736 0.984 . S
N731 H737 0.985 . S
C732 C726 1.379 . S
C732 C729 1.363 . S
C732 N730 1.356 . S
C733 C727 1.363 . S
C733 C728 1.379 . S
C733 N731 1.356 . S
N734 C726 1.356 . S
N734 H740 0.984 . S
N734 H741 0.984 . S
N735 C728 1.356 . S
N735 H738 0.984 . S
N735 H739 0.985 . S
H736 N731 0.984 . S
H737 N731 0.985 . S
H738 N735 0.984 . S
H739 N735 0.985 . S
H740 N734 0.984 . S
H741 N734 0.984 . S
H742 N730 0.984 . S
H743 N730 0.985 . S
C313 C6 1.238 . S
C315 C159 1.273 . S
C331 C21 1.447 . S
C333 C208 1.486 . S
C351 C234 2.021 . S
C349 C49 2.039 . S
C367 C68 2.184 . S
C369 C282 2.233 . S
C387 C194 2.822 . S
C385 C2 2.665 . S
C405 C162 0.653 1_565 S
C403 C30 0.644 . S
C423 C283 2.010 . S
C421 C40 2.063 . S
C441 C251 1.722 . S
C439 C63 1.720 . S
C457 C11 1.368 . S
C459 C279 1.581 . S
C477 C211 2.610 . S
C475 C44 2.678 . S
C493 C59 2.033 . S
C495 C163 2.041 . S
C511 C25 1.680 . S
C513 C248 1.628 . S
C531 C168 1.370 . S
C529 C82 1.368 . S
C547 C101 1.378 . S
C549 C199 1.399 . S
C565 C125 2.275 . S
C567 C243 2.391 . S
C583 C144 1.998 . S
C585 C291 2.061 . S
C601 C87 1.968 . S
C603 C203 2.138 1_556 S
C621 C171 1.678 . S
C619 C97 1.686 . S
C639 C274 1.782 . S
C637 C120 1.856 . S
C657 C242 1.742 . S
C655 C135 1.851 . S
C673 C78 1.895 . S
C675 C288 2.050 . S
C693 C202 1.965 . S
C691 C116 2.014 . S
C711 C154 2.627 . S
C709 C139 2.624 . S
C727 C106 0.894 . S
C729 C239 1.180 . S
