# Generated by pormake.
# Topology pto, (3,4)-cn, num edge types: 1
# Building blocks:
#     Node 0, Type 0, BuildingBlock: WUSLED_clean_sbu_0, # of connection points: 3
#     Node 1, Type 0, BuildingBlock: WUSLED_clean_sbu_0, # of connection points: 3
#     Node 2, Type 0, BuildingBlock: WUSLED_clean_sbu_0, # of connection points: 3
#     Node 3, Type 0, BuildingBlock: WUSLED_clean_sbu_0, # of connection points: 3
#     Node 4, Type 0, BuildingBlock: WUSLED_clean_sbu_0, # of connection points: 3
#     Node 5, Type 0, BuildingBlock: WUSLED_clean_sbu_0, # of connection points: 3
#     Node 6, Type 0, BuildingBlock: WUSLED_clean_sbu_0, # of connection points: 3
#     Node 7, Type 0, BuildingBlock: WUSLED_clean_sbu_0, # of connection points: 3
#     Node 8, Type 1, BuildingBlock: KUFVIS_clean_linker_0, # of connection points: 4
#     Node 9, Type 1, BuildingBlock: KUFVIS_clean_linker_0, # of connection points: 4
#     Node 10, Type 1, BuildingBlock: KUFVIS_clean_linker_0, # of connection points: 4
#     Node 11, Type 1, BuildingBlock: KUFVIS_clean_linker_0, # of connection points: 4
#     Node 12, Type 1, BuildingBlock: KUFVIS_clean_linker_0, # of connection points: 4
#     Node 13, Type 1, BuildingBlock: KUFVIS_clean_linker_0, # of connection points: 4
#     Edge 14, Type (0, 1), BuildingBlock: CIFDUS_clean_linker_0, # of connection points: 2
#     Edge 15, Type (0, 1), BuildingBlock: CIFDUS_clean_linker_0, # of connection points: 2
#     Edge 16, Type (0, 1), BuildingBlock: CIFDUS_clean_linker_0, # of connection points: 2
#     Edge 17, Type (0, 1), BuildingBlock: CIFDUS_clean_linker_0, # of connection points: 2
#     Edge 18, Type (0, 1), BuildingBlock: CIFDUS_clean_linker_0, # of connection points: 2
#     Edge 19, Type (0, 1), BuildingBlock: CIFDUS_clean_linker_0, # of connection points: 2
#     Edge 20, Type (0, 1), BuildingBlock: CIFDUS_clean_linker_0, # of connection points: 2
#     Edge 21, Type (0, 1), BuildingBlock: CIFDUS_clean_linker_0, # of connection points: 2
#     Edge 22, Type (0, 1), BuildingBlock: CIFDUS_clean_linker_0, # of connection points: 2
#     Edge 23, Type (0, 1), BuildingBlock: CIFDUS_clean_linker_0, # of connection points: 2
#     Edge 24, Type (0, 1), BuildingBlock: CIFDUS_clean_linker_0, # of connection points: 2
#     Edge 25, Type (0, 1), BuildingBlock: CIFDUS_clean_linker_0, # of connection points: 2
#     Edge 26, Type (0, 1), BuildingBlock: CIFDUS_clean_linker_0, # of connection points: 2
#     Edge 27, Type (0, 1), BuildingBlock: CIFDUS_clean_linker_0, # of connection points: 2
#     Edge 28, Type (0, 1), BuildingBlock: CIFDUS_clean_linker_0, # of connection points: 2
#     Edge 29, Type (0, 1), BuildingBlock: CIFDUS_clean_linker_0, # of connection points: 2
#     Edge 30, Type (0, 1), BuildingBlock: CIFDUS_clean_linker_0, # of connection points: 2
#     Edge 31, Type (0, 1), BuildingBlock: CIFDUS_clean_linker_0, # of connection points: 2
#     Edge 32, Type (0, 1), BuildingBlock: CIFDUS_clean_linker_0, # of connection points: 2
#     Edge 33, Type (0, 1), BuildingBlock: CIFDUS_clean_linker_0, # of connection points: 2
#     Edge 34, Type (0, 1), BuildingBlock: CIFDUS_clean_linker_0, # of connection points: 2
#     Edge 35, Type (0, 1), BuildingBlock: CIFDUS_clean_linker_0, # of connection points: 2
#     Edge 36, Type (0, 1), BuildingBlock: CIFDUS_clean_linker_0, # of connection points: 2
#     Edge 37, Type (0, 1), BuildingBlock: CIFDUS_clean_linker_0, # of connection points: 2
# Relax obj value: 0.002
# Max RMSD: 0.051
# Mean RMSD: 0.028
data_MOF--net-pto--node1-WUSLED_clean_sbu_0--node2-KUFVIS_clean_linker_0--edge1-CIFDUS_clean_linker_0
_symmetry_space_group_name_H-M    P1
_symmetry_Int_Tables_number       1
_symmetry_cell_setting            triclinic
loop_
_symmetry_equiv_pos_as_xyz
'x, y, z'
_cell_length_a     37.404376
_cell_length_b     57.902899
_cell_length_c     47.371257
_cell_angle_alpha  89.525401
_cell_angle_beta   90.607694
_cell_angle_gamma 90.724866
loop_
_atom_site_label
_atom_site_type_symbol
_atom_site_fract_x
_atom_site_fract_y
_atom_site_fract_z
_atom_type_partial_charge
C0 C 0.16681 0.24129 0.36209 0.0
C1 C 0.1753 0.22023 0.34938 0.0
C2 C 0.16031 0.19928 0.39273 0.0
C3 C 0.17203 0.1994 0.36456 0.0
C4 C 0.15242 0.22055 0.40534 0.0
C5 C 0.15555 0.24126 0.39016 0.0
U6 U 0.20693 0.2797 0.30404 0.0
O7 O 0.18239 0.30486 0.27512 0.0
O8 O 0.22342 0.31646 0.30549 0.0
C9 C 0.19962 0.32255 0.28631 0.0
C10 C 0.16974 0.26349 0.3467 0.0
C11 C 0.17801 0.34307 0.29253 0.0
C12 C 0.1737 0.38499 0.29491 0.0
C13 C 0.19431 0.36507 0.29236 0.0
C14 C 0.12032 0.36112 0.29866 0.0
C15 C 0.13637 0.38322 0.29732 0.0
C16 C 0.14091 0.34126 0.29641 0.0
C17 C 0.27661 0.25377 0.25472 0.0
C18 C 0.29116 0.26488 0.20645 0.0
C19 C 0.33262 0.24201 0.23421 0.0
C20 C 0.3093 0.24237 0.257 0.0
C21 C 0.32363 0.25292 0.20847 0.0
C22 C 0.26785 0.26532 0.2294 0.0
C23 C 0.25178 0.25251 0.27865 0.0
O24 O 0.20028 0.27468 0.34984 0.0
O25 O 0.1577 0.26364 0.32051 0.0
O26 O 0.21751 0.2533 0.27231 0.0
O27 O 0.2607 0.26484 0.30087 0.0
H28 H 0.18431 0.21989 0.32773 0.0
H29 H 0.1782 0.18339 0.35412 0.0
H30 H 0.14418 0.22129 0.42716 0.0
H31 H 0.14922 0.25734 0.40044 0.0
H32 H 0.18676 0.40177 0.29375 0.0
H33 H 0.22289 0.36688 0.28937 0.0
H34 H 0.09164 0.35923 0.30095 0.0
H35 H 0.12763 0.32452 0.29687 0.0
H36 H 0.28335 0.2734 0.18694 0.0
H37 H 0.35776 0.23312 0.23679 0.0
H38 H 0.31665 0.23347 0.27638 0.0
H39 H 0.24278 0.27436 0.22719 0.0
C40 C 0.16222 0.83678 0.66791 0.0
C41 C 0.16895 0.85793 0.68142 0.0
C42 C 0.15359 0.87895 0.63812 0.0
C43 C 0.16465 0.87886 0.66665 0.0
C44 C 0.14734 0.8576 0.62477 0.0
C45 C 0.15152 0.83681 0.63952 0.0
U46 U 0.20078 0.79879 0.72742 0.0
O47 O 0.17599 0.76999 0.7512 0.0
O48 O 0.22309 0.7639 0.7252 0.0
C49 C 0.19759 0.75463 0.74066 0.0
C50 C 0.16654 0.81445 0.68265 0.0
C51 C 0.18025 0.73348 0.72952 0.0
C52 C 0.15772 0.71016 0.69054 0.0
C53 C 0.17484 0.73022 0.70044 0.0
C54 C 0.15136 0.69632 0.73862 0.0
C55 C 0.14538 0.69303 0.70952 0.0
C56 C 0.16865 0.7163 0.74846 0.0
C57 C 0.26294 0.8266 0.78375 0.0
C58 C 0.27246 0.82414 0.83473 0.0
C59 C 0.3225 0.8319 0.80395 0.0
C60 C 0.29966 0.83093 0.78049 0.0
C61 C 0.30918 0.82884 0.83141 0.0
C62 C 0.24953 0.82309 0.81114 0.0
C63 C 0.23918 0.82732 0.75852 0.0
O64 O 0.19863 0.80556 0.68164 0.0
O65 O 0.15188 0.81256 0.70769 0.0
O66 O 0.20483 0.82351 0.76241 0.0
O67 O 0.25135 0.81743 0.73572 0.0
H68 H 0.17747 0.85825 0.70335 0.0
H69 H 0.16958 0.89492 0.67765 0.0
H70 H 0.13967 0.85688 0.60268 0.0
H71 H 0.14654 0.82067 0.62864 0.0
H72 H 0.15398 0.70814 0.668 0.0
H73 H 0.18358 0.74324 0.68538 0.0
H74 H 0.1417 0.68381 0.75394 0.0
H75 H 0.17252 0.7185 0.77099 0.0
H76 H 0.26128 0.82185 0.85557 0.0
H77 H 0.35072 0.83509 0.80051 0.0
H78 H 0.31075 0.83386 0.7597 0.0
H79 H 0.2213 0.81988 0.81446 0.0
C80 C 0.6995 0.8262 0.25066 0.0
C81 C 0.70199 0.80481 0.23721 0.0
C82 C 0.65658 0.81635 0.20285 0.0
C83 C 0.68077 0.79993 0.21351 0.0
C84 C 0.6549 0.83802 0.21601 0.0
C85 C 0.67619 0.84288 0.23977 0.0
U86 U 0.7638 0.80523 0.30692 0.0
O87 O 0.81054 0.82227 0.32668 0.0
O88 O 0.76555 0.81069 0.35284 0.0
C89 C 0.79615 0.82207 0.35189 0.0
C90 C 0.72054 0.83084 0.2764 0.0
C91 C 0.79753 0.84408 0.36726 0.0
C92 C 0.78245 0.88467 0.37213 0.0
C93 C 0.78033 0.86393 0.35699 0.0
C94 C 0.81862 0.86574 0.40793 0.0
C95 C 0.80192 0.88586 0.39772 0.0
C96 C 0.81648 0.84514 0.39285 0.0
C97 C 0.79564 0.74203 0.29882 0.0
C98 C 0.85246 0.72474 0.31166 0.0
C99 C 0.80253 0.70025 0.29763 0.0
C100 C 0.78128 0.71985 0.29411 0.0
C101 C 0.83866 0.70256 0.30565 0.0
C102 C 0.83116 0.74428 0.30835 0.0
C103 C 0.77431 0.76245 0.29098 0.0
O104 O 0.7102 0.81923 0.2989 0.0
O105 O 0.75537 0.83091 0.27311 0.0
O106 O 0.79225 0.78034 0.28099 0.0
O107 O 0.7487 0.7682 0.30825 0.0
H108 H 0.72 0.79176 0.24531 0.0
H109 H 0.68301 0.78319 0.20368 0.0
H110 H 0.63626 0.85092 0.20854 0.0
H111 H 0.67396 0.85948 0.24994 0.0
H112 H 0.76938 0.89982 0.36361 0.0
H113 H 0.76545 0.8634 0.33725 0.0
H114 H 0.83316 0.86582 0.42783 0.0
H115 H 0.82969 0.82997 0.40122 0.0
H116 H 0.88007 0.72703 0.31831 0.0
H117 H 0.79119 0.68343 0.29277 0.0
H118 H 0.75394 0.71773 0.28668 0.0
H119 H 0.84282 0.76119 0.31231 0.0
C120 C 0.72525 0.22495 0.70434 0.0
C121 C 0.75738 0.21421 0.69703 0.0
C122 C 0.72487 0.18739 0.66632 0.0
C123 C 0.75716 0.19559 0.67827 0.0
C124 C 0.69279 0.19796 0.67398 0.0
C125 C 0.69298 0.21642 0.69284 0.0
U126 U 0.74775 0.28742 0.72737 0.0
O127 O 0.71384 0.31296 0.74783 0.0
O128 O 0.76227 0.3007 0.76945 0.0
C129 C 0.7335 0.31342 0.77096 0.0
C130 C 0.72439 0.24446 0.72446 0.0
C131 C 0.71361 0.3122 0.79752 0.0
C132 C 0.67987 0.29088 0.83298 0.0
C133 C 0.70083 0.29116 0.80861 0.0
C134 C 0.68492 0.33258 0.83552 0.0
C135 C 0.67116 0.31166 0.84637 0.0
C136 C 0.70596 0.33282 0.81135 0.0
C137 C 0.80137 0.32903 0.68092 0.0
C138 C 0.7991 0.37111 0.68096 0.0
C139 C 0.8529 0.35197 0.66632 0.0
C140 C 0.83649 0.33048 0.67102 0.0
C141 C 0.83446 0.37263 0.67114 0.0
C142 C 0.78277 0.34955 0.68591 0.0
C143 C 0.78502 0.30603 0.68625 0.0
O144 O 0.75472 0.25045 0.73687 0.0
O145 O 0.70515 0.2623 0.71659 0.0
O146 O 0.74989 0.30495 0.68607 0.0
O147 O 0.79961 0.29395 0.70688 0.0
H148 H 0.78274 0.22023 0.70562 0.0
H149 H 0.78236 0.18799 0.67258 0.0
H150 H 0.66743 0.19191 0.6654 0.0
H151 H 0.66778 0.22412 0.6984 0.0
H152 H 0.66932 0.27453 0.8407 0.0
H153 H 0.70638 0.27507 0.7981 0.0
H154 H 0.67894 0.34883 0.8455 0.0
H155 H 0.71568 0.34922 0.80309 0.0
H156 H 0.78392 0.38656 0.68472 0.0
H157 H 0.88041 0.35233 0.65943 0.0
H158 H 0.85143 0.31492 0.66721 0.0
H159 H 0.75566 0.34897 0.6937 0.0
C160 C 0.78662 0.73029 0.73635 0.0
C161 C 0.81758 0.73261 0.7201 0.0
C162 C 0.82173 0.69066 0.71679 0.0
C163 C 0.83503 0.71299 0.71049 0.0
C164 C 0.79022 0.68852 0.73261 0.0
C165 C 0.77288 0.70816 0.7423 0.0
U166 U 0.76586 0.79524 0.73784 0.0
O167 O 0.71511 0.81231 0.74666 0.0
O168 O 0.76131 0.81775 0.77484 0.0
C169 C 0.72684 0.82066 0.77081 0.0
C170 C 0.76901 0.75062 0.7481 0.0
C171 C 0.70432 0.81514 0.79524 0.0
C172 C 0.67287 0.78693 0.82432 0.0
C173 C 0.6959 0.79209 0.80204 0.0
C174 C 0.66749 0.82778 0.83392 0.0
C175 C 0.65803 0.80473 0.84028 0.0
C176 C 0.69041 0.83293 0.81151 0.0
C177 C 0.80503 0.83664 0.68187 0.0
C178 C 0.7982 0.87843 0.6816 0.0
C179 C 0.82421 0.85946 0.64147 0.0
C180 C 0.82009 0.8381 0.65501 0.0
C181 C 0.81349 0.87997 0.65457 0.0
C182 C 0.794 0.85691 0.69515 0.0
C183 C 0.80049 0.81371 0.69512 0.0
O184 O 0.79029 0.76593 0.76019 0.0
O185 O 0.74406 0.76001 0.73219 0.0
O186 O 0.76839 0.8044 0.69274 0.0
O187 O 0.81482 0.811 0.72038 0.0
H188 H 0.82861 0.74956 0.71528 0.0
H189 H 0.85951 0.71536 0.69876 0.0
H190 H 0.77894 0.67166 0.73753 0.0
H191 H 0.7489 0.70606 0.75475 0.0
H192 H 0.66636 0.76901 0.82889 0.0
H193 H 0.70668 0.77812 0.78979 0.0
H194 H 0.65618 0.84188 0.84561 0.0
H195 H 0.69671 0.85081 0.80655 0.0
H196 H 0.78976 0.89383 0.69235 0.0
H197 H 0.83527 0.85982 0.62044 0.0
H198 H 0.82844 0.82263 0.64432 0.0
H199 H 0.78211 0.85608 0.71589 0.0
C200 C 0.71579 0.24258 0.26178 0.0
C201 C 0.72907 0.24799 0.23481 0.0
C202 C 0.67071 0.23959 0.21359 0.0
C203 C 0.70675 0.24648 0.21095 0.0
C204 C 0.65754 0.23444 0.24068 0.0
C205 C 0.67987 0.2358 0.26442 0.0
U206 U 0.77792 0.27388 0.31458 0.0
O207 O 0.78044 0.27085 0.36093 0.0
O208 O 0.82686 0.26156 0.33563 0.0
C209 C 0.81214 0.26133 0.36072 0.0
C210 C 0.73882 0.24324 0.28734 0.0
C211 C 0.81521 0.23962 0.37702 0.0
C212 C 0.8131 0.19761 0.38024 0.0
C213 C 0.81059 0.21798 0.36417 0.0
C214 C 0.82432 0.22033 0.42217 0.0
C215 C 0.82006 0.19852 0.40949 0.0
C216 C 0.82203 0.24061 0.40609 0.0
C217 C 0.79935 0.3391 0.30087 0.0
C218 C 0.80172 0.37613 0.32518 0.0
C219 C 0.84079 0.36938 0.2858 0.0
C220 C 0.82643 0.34715 0.28287 0.0
C221 C 0.82824 0.38432 0.30666 0.0
C222 C 0.78726 0.35378 0.32223 0.0
C223 C 0.78187 0.31646 0.295 0.0
O224 O 0.77337 0.24603 0.28345 0.0
O225 O 0.72672 0.2553 0.30852 0.0
O226 O 0.75683 0.30921 0.31236 0.0
O227 O 0.80279 0.29982 0.28659 0.0
H228 H 0.75671 0.25324 0.23205 0.0
H229 H 0.71786 0.25039 0.19043 0.0
H230 H 0.62978 0.22957 0.24365 0.0
H231 H 0.66899 0.23153 0.28496 0.0
H232 H 0.80988 0.18118 0.3697 0.0
H233 H 0.80501 0.21684 0.34173 0.0
H234 H 0.82884 0.22182 0.4447 0.0
H235 H 0.82528 0.25713 0.41645 0.0
H236 H 0.79139 0.38722 0.3414 0.0
H237 H 0.8617 0.37492 0.27152 0.0
H238 H 0.83607 0.33639 0.26603 0.0
H239 H 0.7661 0.34825 0.33627 0.0
C240 C 0.19406 0.23374 0.67996 0.0
C241 C 0.22791 0.22347 0.6801 0.0
C242 C 0.20528 0.19235 0.65031 0.0
C243 C 0.23351 0.20307 0.66525 0.0
C244 C 0.17108 0.20215 0.65117 0.0
C245 C 0.16558 0.22273 0.66577 0.0
U246 U 0.21637 0.27532 0.73916 0.0
O247 O 0.22733 0.31287 0.73847 0.0
O248 O 0.1839 0.29858 0.76443 0.0
C249 C 0.20051 0.31729 0.75522 0.0
C250 C 0.1885 0.25611 0.69394 0.0
C251 C 0.17804 0.33723 0.74756 0.0
C252 C 0.11991 0.35388 0.73755 0.0
C253 C 0.14161 0.33452 0.74076 0.0
C254 C 0.17098 0.379 0.74641 0.0
C255 C 0.13417 0.37633 0.74101 0.0
C256 C 0.19265 0.35961 0.74978 0.0
C257 C 0.28297 0.25709 0.79551 0.0
C258 C 0.30071 0.28384 0.83242 0.0
C259 C 0.32646 0.24565 0.83114 0.0
C260 C 0.3059 0.24053 0.80712 0.0
C261 C 0.3244 0.26747 0.84387 0.0
C262 C 0.28015 0.27868 0.80844 0.0
C263 C 0.26249 0.25193 0.76971 0.0
O264 O 0.17304 0.25507 0.71873 0.0
O265 O 0.21585 0.2706 0.69322 0.0
O266 O 0.27154 0.26426 0.74743 0.0
O267 O 0.22774 0.25017 0.77301 0.0
H268 H 0.25024 0.23145 0.69123 0.0
H269 H 0.26006 0.19582 0.66515 0.0
H270 H 0.1489 0.1944 0.63964 0.0
H271 H 0.13923 0.2303 0.66552 0.0
H272 H 0.09173 0.35128 0.7329 0.0
H273 H 0.12966 0.31746 0.73876 0.0
H274 H 0.18271 0.39603 0.7493 0.0
H275 H 0.22066 0.3621 0.75513 0.0
H276 H 0.29825 0.3007 0.8419 0.0
H277 H 0.34479 0.23279 0.8392 0.0
H278 H 0.30833 0.22378 0.79735 0.0
H279 H 0.26236 0.29162 0.79977 0.0
C280 C 0.16339 0.74633 0.36096 0.0
C281 C 0.18313 0.72667 0.35415 0.0
C282 C 0.13481 0.70154 0.3709 0.0
C283 C 0.16902 0.70449 0.35916 0.0
C284 C 0.11521 0.72138 0.3775 0.0
C285 C 0.12941 0.74347 0.37267 0.0
U286 U 0.21832 0.78975 0.31779 0.0
O287 O 0.20734 0.82585 0.30599 0.0
O288 O 0.25468 0.81769 0.33168 0.0
C289 C 0.23438 0.83401 0.32096 0.0
C290 C 0.17741 0.7699 0.35581 0.0
C291 C 0.22572 0.85291 0.34024 0.0
C292 C 0.19957 0.86647 0.38368 0.0
C293 C 0.20815 0.84836 0.36571 0.0
C294 C 0.22607 0.89394 0.35096 0.0
C295 C 0.20821 0.88953 0.37648 0.0
C296 C 0.2347 0.87578 0.33301 0.0
C297 C 0.26738 0.76769 0.25207 0.0
C298 C 0.27651 0.7653 0.20128 0.0
C299 C 0.32704 0.772 0.23265 0.0
C300 C 0.30428 0.77164 0.25581 0.0
C301 C 0.31351 0.76849 0.2052 0.0
C302 C 0.25369 0.76473 0.22455 0.0
C303 C 0.24348 0.76479 0.27662 0.0
O304 O 0.21211 0.77283 0.35917 0.0
O305 O 0.16463 0.78044 0.33326 0.0
O306 O 0.21243 0.77515 0.27508 0.0
O307 O 0.25857 0.76611 0.30178 0.0
H308 H 0.20941 0.72846 0.34493 0.0
H309 H 0.18498 0.68968 0.35396 0.0
H310 H 0.08845 0.7199 0.38588 0.0
H311 H 0.11365 0.7584 0.37787 0.0
H312 H 0.18639 0.86235 0.40337 0.0
H313 H 0.20105 0.8308 0.37167 0.0
H314 H 0.23281 0.91146 0.34462 0.0
H315 H 0.24818 0.8796 0.31335 0.0
H316 H 0.26541 0.76247 0.18036 0.0
H317 H 0.3554 0.77487 0.23624 0.0
H318 H 0.31582 0.77401 0.27666 0.0
H319 H 0.22541 0.76145 0.22108 0.0
H320 H -0.02051 0.46122 0.3278 0.0
H321 H 0.92801 0.52511 0.34406 0.0
H322 H 0.04136 0.52397 0.32511 0.0
H323 H 0.04257 0.55551 0.35243 0.0
H324 H -0.00786 0.62113 0.34515 0.0
H325 H 0.93254 0.56016 0.32294 0.0
C326 C -0.01876 0.47987 0.32971 0.0
C327 C 0.01408 0.49118 0.32598 0.0
C328 C 0.95036 0.49203 0.33565 0.0
C329 C 0.95219 0.51608 0.33884 0.0
C330 C -0.01492 0.52821 0.33534 0.0
C331 C 0.01601 0.51534 0.32885 0.0
C332 C -0.01303 0.55411 0.338 0.0
C333 C 0.01902 0.56532 0.34696 0.0
C334 C 0.02072 0.58945 0.34943 0.0
C335 C -0.00947 0.60248 0.34314 0.0
C336 C 0.95883 0.59215 0.33341 0.0
C337 C 0.95695 0.56795 0.33109 0.0
H338 H -0.01635 0.61513 0.69985 0.0
H339 H 0.04058 0.55161 0.69432 0.0
H340 H 0.92603 0.55137 0.70814 0.0
H341 H 0.92755 0.51831 0.68478 0.0
H342 H -0.01954 0.45431 0.69902 0.0
H343 H 0.03683 0.51748 0.71678 0.0
C344 C -0.01644 0.59639 0.69938 0.0
C345 C 0.95124 0.58447 0.70288 0.0
C346 C 0.01588 0.58475 0.69686 0.0
C347 C 0.01556 0.56042 0.69722 0.0
C348 C -0.01687 0.54774 0.70071 0.0
C349 C 0.95114 0.56024 0.70426 0.0
C350 C -0.0175 0.52169 0.70047 0.0
C351 C 0.95127 0.50934 0.69179 0.0
C352 C 0.95064 0.48511 0.69142 0.0
C353 C -0.01885 0.47305 0.69946 0.0
C354 C 0.01215 0.48453 0.70866 0.0
C355 C 0.01292 0.50884 0.70902 0.0
H356 H 0.19075 0.11977 0.51792 0.0
H357 H 0.20093 0.05529 0.56165 0.0
H358 H 0.17953 0.0572 0.47128 0.0
H359 H 0.20371 1.02289 0.4716 0.0
H360 H 0.18281 0.95875 0.51408 0.0
H361 H 0.17486 1.02147 0.56023 0.0
C362 C 0.19093 0.10103 0.51747 0.0
C363 C 0.18549 0.08975 0.49184 0.0
C364 C 0.19597 0.08866 0.54258 0.0
C365 C 0.19599 0.0644 0.54201 0.0
C366 C 0.1904 0.05227 0.51636 0.0
C367 C 0.18511 0.06547 0.49125 0.0
C368 C 0.18918 1.02614 0.51589 0.0
C369 C 0.19592 1.01387 0.49069 0.0
C370 C 0.19241 0.98967 0.48976 0.0
C371 C 0.18406 0.97748 0.51445 0.0
C372 C 0.17864 0.98886 0.53988 0.0
C373 C 0.18071 1.0131 0.54054 0.0
H374 H 0.47808 0.79784 0.11768 0.0
H375 H 0.53199 0.8161 0.04149 0.0
H376 H 0.42229 0.79096 0.0387 0.0
H377 H 0.42038 0.81213 0.99902 0.0
H378 H 0.47867 0.81043 0.92177 0.0
H379 H 0.53427 0.79908 0.99991 0.0
C380 C 0.47791 0.79907 0.09481 0.0
C381 C 0.44652 0.79382 0.07974 0.0
C382 C 0.50889 0.80651 0.08108 0.0
C383 C 0.50815 0.80951 0.05166 0.0
C384 C 0.47714 0.80377 0.03563 0.0
C385 C 0.4463 0.79595 0.05016 0.0
C386 C 0.47732 0.80552 1.00395 0.0
C387 C 0.44546 0.80961 0.98837 0.0
C388 C 0.4459 0.81124 0.95876 0.0
C389 C 0.47828 0.80896 0.94461 0.0
C390 C 0.51017 0.80493 0.95939 0.0
C391 C 0.50955 0.80302 0.98893 0.0
H392 H 0.77229 0.11916 0.53219 0.0
H393 H 0.75615 0.05412 0.57412 0.0
H394 H 0.79399 0.05707 0.4878 0.0
H395 H 0.77005 1.02203 0.4851 0.0
H396 H 0.79142 0.95893 0.52931 0.0
H397 H 0.78633 1.02164 0.57608 0.0
C398 C 0.77277 0.10043 0.53185 0.0
C399 C 0.78323 0.08937 0.50726 0.0
C400 C 0.76328 0.08786 0.55601 0.0
C401 C 0.76439 0.06357 0.55546 0.0
C402 C 0.77527 0.05175 0.53089 0.0
C403 C 0.78455 0.06515 0.50677 0.0
C404 C 0.77807 1.02573 0.5306 0.0
C405 C 0.77587 1.01331 0.50487 0.0
C406 C 0.78169 0.98938 0.50437 0.0
C407 C 0.78792 0.97751 0.52967 0.0
C408 C 0.78861 0.98898 0.55549 0.0
C409 C 0.78408 1.01303 0.55595 0.0
H410 H 0.50092 0.25857 0.12507 0.0
H411 H 0.55872 0.26376 0.04776 0.0
H412 H 0.44515 0.27812 0.04958 0.0
H413 H 0.44613 0.26485 1.00619 0.0
H414 H 0.50099 0.28469 0.93095 0.0
H415 H 0.55775 0.28595 1.00983 0.0
C416 C 0.50119 0.26182 0.10248 0.0
C417 C 0.46936 0.26753 0.08859 0.0
C418 C 0.53349 0.26111 0.08797 0.0
C419 C 0.53372 0.26546 0.05877 0.0
C420 C 0.50187 0.27127 0.04404 0.0
C421 C 0.46989 0.27291 0.05966 0.0
C422 C 0.5018 0.27519 1.0126 0.0
C423 C 0.47032 0.27127 0.99638 0.0
C424 C 0.46965 0.27548 0.96717 0.0
C425 C 0.50106 0.28256 0.95373 0.0
C426 C 0.53294 0.28581 0.96892 0.0
C427 C 0.53315 0.28249 0.99834 0.0
H428 H 0.14411 0.42301 0.32808 0.0
H429 H 0.07793 0.39039 0.26438 0.0
H430 H 0.03744 0.42302 0.26451 0.0
H431 H 0.01773 0.45885 0.28555 0.0
H432 H 0.08041 0.49093 0.35156 0.0
H433 H 0.12611 0.46111 0.34698 0.0
C434 C 0.12103 0.42324 0.31405 0.0
C435 C 0.11369 0.40412 0.29657 0.0
C436 C 0.09739 0.44204 0.31452 0.0
C437 C 0.08373 0.40464 0.27844 0.0
C438 C 0.06068 0.42336 0.27837 0.0
C439 C 0.04167 0.45949 0.29868 0.0
C440 C 0.04554 0.47689 0.31907 0.0
C441 C 0.0668 0.44185 0.29674 0.0
C442 C 0.0769 0.47776 0.33563 0.0
C443 C 0.10277 0.46054 0.33324 0.0
H444 H 0.14675 0.64824 0.72916 0.0
H445 H 0.09545 0.692 0.66696 0.0
H446 H 0.05547 0.66039 0.65369 0.0
H447 H 0.02966 0.62226 0.66394 0.0
H448 H 0.07678 0.57933 0.72872 0.0
H449 H 0.12416 0.60832 0.73629 0.0
C450 C 0.12692 0.65085 0.71263 0.0
C451 C 0.12407 0.67268 0.69933 0.0
C452 C 0.10319 0.63267 0.70552 0.0
C453 C 0.09867 0.67547 0.67748 0.0
C454 C 0.07551 0.6574 0.66996 0.0
C455 C 0.05072 0.61907 0.67936 0.0
C456 C 0.04946 0.59881 0.69599 0.0
C457 C 0.07684 0.63619 0.6844 0.0
C458 C 0.07719 0.59472 0.71557 0.0
C459 C 0.104 0.61146 0.72016 0.0
H460 H 0.82721 0.65939 0.32874 0.0
H461 H 0.90409 0.70018 0.28198 0.0
H462 H 0.94573 0.66818 0.28303 0.0
H463 H 0.96226 0.62994 0.29993 0.0
H464 H 0.88831 0.58925 0.34933 0.0
H465 H 0.84299 0.61937 0.34358 0.0
C466 C 0.85297 0.66113 0.31861 0.0
C467 C 0.86277 0.6823 0.30571 0.0
C468 C 0.87715 0.64261 0.31955 0.0
C469 C 0.89621 0.6843 0.2926 0.0
C470 C 0.91995 0.66595 0.29299 0.0
C471 C 0.93606 0.62755 0.30923 0.0
C472 C 0.92876 0.60754 0.32531 0.0
C473 C 0.91097 0.64523 0.30682 0.0
C474 C 0.89453 0.60447 0.33678 0.0
C475 C 0.86882 0.62182 0.33377 0.0
H476 H 0.82863 0.412 0.70264 0.0
H477 H 0.88143 0.38498 0.62951 0.0
H478 H 0.91834 0.41982 0.6264 0.0
H479 H 0.94132 0.4554 0.64834 0.0
H480 H 0.88885 0.48274 0.72103 0.0
H481 H 0.84503 0.4509 0.71967 0.0
C482 C 0.84751 0.41391 0.68555 0.0
C483 C 0.85277 0.39547 0.66681 0.0
C484 C 0.86862 0.43418 0.6837 0.0
C485 C 0.87755 0.39844 0.64487 0.0
C486 C 0.89852 0.41849 0.64288 0.0
C487 C 0.91941 0.45479 0.66318 0.0
C488 C 0.91809 0.47133 0.68468 0.0
C489 C 0.89511 0.43611 0.66273 0.0
C490 C 0.89 0.47034 0.70407 0.0
C491 C 0.86533 0.45193 0.70353 0.0
H492 H 0.20375 0.16128 0.39276 0.0
H493 H 0.10756 0.18755 0.42981 0.0
H494 H 0.10447 0.15423 0.46137 0.0
H495 H 0.13239 0.11983 0.48197 0.0
H496 H 0.22795 0.0929 0.4454 0.0
H497 H 0.22733 0.12374 0.40949 0.0
C498 C 0.18169 0.15951 0.40731 0.0
C499 C 0.15641 0.17731 0.40926 0.0
C500 C 0.17988 0.14009 0.42544 0.0
C501 C 0.12805 0.17458 0.42836 0.0
C502 C 0.12606 0.1554 0.44632 0.0
C503 C 0.15249 0.12041 0.46562 0.0
C504 C 0.18014 0.1042 0.46619 0.0
C505 C 0.15231 0.13839 0.44556 0.0
C506 C 0.20621 0.10508 0.44511 0.0
C507 C 0.20606 0.12287 0.42483 0.0
H508 H 0.31056 0.8022 0.87959 0.0
H509 H 0.36298 0.8604 0.83929 0.0
H510 H 0.40763 0.86163 0.87703 0.0
H511 H 0.43498 0.84414 0.91904 0.0
H512 H 0.38359 0.78606 0.95987 0.0
H513 H 0.33462 0.78733 0.92501 0.0
C514 C 0.33136 0.81541 0.87933 0.0
C515 C 0.33378 0.83087 0.85624 0.0
C516 C 0.35707 0.8161 0.90126 0.0
C517 C 0.361 0.84786 0.85631 0.0
C518 C 0.38644 0.84871 0.87801 0.0
C519 C 0.4127 0.83202 0.92053 0.0
C520 C 0.41291 0.81493 0.94176 0.0
C521 C 0.38523 0.83259 0.90019 0.0
C522 C 0.38384 0.79944 0.94374 0.0
C523 C 0.35608 0.80003 0.92366 0.0
H524 H 0.75011 0.91798 0.40786 0.0
H525 H 0.86135 0.90325 0.42414 0.0
H526 H 0.86583 0.93598 0.45594 0.0
H527 H 0.83679 0.96613 0.4831 0.0
H528 H 0.72599 0.98149 0.46763 0.0
H529 H 0.72287 0.95173 0.43095 0.0
C530 C 0.7755 0.92221 0.41792 0.0
C531 C 0.80514 0.90777 0.41403 0.0
C532 C 0.77798 0.94123 0.43631 0.0
C533 C 0.83782 0.91359 0.42731 0.0
C534 C 0.84052 0.93243 0.44539 0.0
C535 C 0.81225 0.96332 0.47112 0.0
C536 C 0.78169 0.97591 0.47788 0.0
C537 C 0.81057 0.94596 0.45064 0.0
C538 C 0.74992 0.97213 0.46248 0.0
C539 C 0.74809 0.95495 0.44177 0.0
H540 H 0.67019 0.28388 0.89341 0.0
H541 H 0.61431 0.33982 0.85237 0.0
H542 H 0.56913 0.33884 0.88906 0.0
H543 H 0.54245 0.31986 0.93024 0.0
H544 H 0.59677 0.26344 0.9713 0.0
H545 H 0.64599 0.26714 0.9377 0.0
C546 C 0.6482 0.2959 0.89266 0.0
C547 C 0.64553 0.31182 0.87012 0.0
C548 C 0.62213 0.29522 0.91389 0.0
C549 C 0.61715 0.32752 0.86958 0.0
C550 C 0.5912 0.32691 0.89049 0.0
C551 C 0.56542 0.30866 0.93209 0.0
C552 C 0.56598 0.29132 0.95303 0.0
C553 C 0.59306 0.31058 0.91242 0.0
C554 C 0.59592 0.27702 0.95544 0.0
C555 C 0.62383 0.27896 0.93604 0.0
H556 H 0.19515 0.91843 0.64011 0.0
H557 H 0.10122 0.88922 0.59958 0.0
H558 H 0.09792 0.92247 0.56794 0.0
H559 H 0.12563 0.95752 0.54806 0.0
H560 H 0.21897 0.98731 0.58816 0.0
H561 H 0.21786 0.95669 0.6243 0.0
C562 C 0.17349 0.91955 0.6248 0.0
C563 C 0.14901 0.90095 0.62186 0.0
C564 C 0.17158 0.9389 0.60659 0.0
C565 C 0.12113 0.90285 0.60181 0.0
C566 C 0.11902 0.92197 0.58378 0.0
C567 C 0.1451 0.95761 0.56521 0.0
C568 C 0.17236 0.97454 0.56552 0.0
C569 C 0.14469 0.93974 0.58542 0.0
C570 C 0.19755 0.97454 0.58771 0.0
C571 C 0.19714 0.95688 0.60813 0.0
H572 H 0.63686 0.84291 0.15726 0.0
H573 H 0.61943 0.77606 0.19615 0.0
H574 H 0.57506 0.7664 0.16006 0.0
H575 H 0.53799 0.77781 0.11971 0.0
H576 H 0.55296 0.8448 0.08103 0.0
H577 H 0.60183 0.85346 0.11447 0.0
C578 C 0.62337 0.82622 0.15776 0.0
C579 C 0.63146 0.81026 0.17946 0.0
C580 C 0.59747 0.82081 0.13699 0.0
C581 C 0.6141 0.78857 0.17957 0.0
C582 C 0.58852 0.78307 0.15902 0.0
C583 C 0.55217 0.79425 0.11849 0.0
C584 C 0.54173 0.81076 0.09821 0.0
C585 C 0.5796 0.79917 0.13796 0.0
C586 C 0.56062 0.83183 0.09646 0.0
C587 C 0.58832 0.83682 0.11571 0.0
H588 H 0.76153 0.14665 0.66749 0.0
H589 H 0.68788 0.18637 0.61657 0.0
H590 H 0.68969 0.15742 0.57957 0.0
H591 H 0.7158 0.12257 0.55992 0.0
H592 H 0.79059 0.08291 0.60956 0.0
H593 H 0.78415 0.10968 0.64902 0.0
C594 C 0.74583 0.1489 0.64831 0.0
C595 C 0.72473 0.16875 0.64479 0.0
C596 C 0.74706 0.13212 0.62694 0.0
C597 C 0.70412 0.17123 0.61998 0.0
C598 C 0.70524 0.15471 0.59872 0.0
C599 C 0.73029 0.11961 0.57956 0.0
C600 C 0.75383 0.1009 0.58178 0.0
C601 C 0.72704 0.13531 0.60178 0.0
C602 C 0.77214 0.0971 0.60741 0.0
C603 C 0.76876 0.11256 0.62983 0.0
H604 H 0.34116 0.28671 0.16983 0.0
H605 H 0.36064 0.21533 0.19155 0.0
H606 H 0.40511 0.21315 0.15458 0.0
H607 H 0.44192 0.23218 0.11872 0.0
H608 H 0.42292 0.30314 0.09587 0.0
H609 H 0.37401 0.30467 0.13 0.0
C610 C 0.35469 0.27057 0.16617 0.0
C611 C 0.34805 0.25136 0.18394 0.0
C612 C 0.38024 0.26935 0.14462 0.0
C613 C 0.36591 0.2306 0.17882 0.0
C614 C 0.39119 0.22925 0.15751 0.0
C615 C 0.42662 0.24786 0.12096 0.0
C616 C 0.43595 0.26756 0.10507 0.0
C617 C 0.39911 0.24863 0.14075 0.0
C618 C 0.41597 0.28775 0.10786 0.0
C619 C 0.38828 0.28866 0.12752 0.0
H620 H 0.83262 0.65043 0.74632 0.0
H621 H 0.85533 0.6839 0.66657 0.0
H622 H 0.89389 0.65212 0.65373 0.0
H623 H 0.92604 0.61702 0.66717 0.0
H624 H 0.90418 0.58339 0.74668 0.0
H625 H 0.85922 0.61253 0.75715 0.0
C626 C 0.84533 0.65057 0.72586 0.0
C627 C 0.84152 0.66983 0.70769 0.0
C628 C 0.86751 0.63214 0.71853 0.0
C629 C 0.85847 0.66966 0.68133 0.0
C630 C 0.88036 0.6514 0.67385 0.0
C631 C 0.91078 0.61582 0.6865 0.0
C632 C 0.9184 0.59823 0.70622 0.0
C633 C 0.88581 0.63289 0.69259 0.0
C634 C 0.89852 0.59671 0.73114 0.0
C635 C 0.87316 0.61352 0.73723 0.0
H636 H 0.84744 0.40855 0.35407 0.0
H637 H 0.84161 0.41424 0.26324 0.0
H638 H 0.87314 0.45128 0.26494 0.0
H639 H 0.90994 0.47908 0.29151 0.0
H640 H 0.91862 0.47295 0.38186 0.0
H641 H 0.87732 0.43968 0.38134 0.0
C642 C 0.85236 0.41815 0.33472 0.0
C643 C 0.84286 0.40833 0.30852 0.0
C644 C 0.87085 0.4395 0.33582 0.0
C645 C 0.84949 0.42105 0.28364 0.0
C646 C 0.86732 0.44234 0.28458 0.0
C647 C 0.90144 0.47103 0.31113 0.0
C648 C 0.9166 0.47858 0.33672 0.0
C649 C 0.87913 0.45135 0.31044 0.0
C650 C 0.90649 0.46768 0.36202 0.0
C651 C 0.8834 0.44844 0.36163 0.0
H652 H 0.14417 0.41832 0.71467 0.0
H653 H 0.07048 0.38005 0.76735 0.0
H654 H 0.02882 0.41203 0.76557 0.0
H655 H 0.01092 0.44921 0.74595 0.0
H656 H 0.0818 0.48719 0.69097 0.0
H657 H 0.12765 0.45756 0.6977 0.0
C658 C 0.11915 0.41714 0.72598 0.0
C659 C 0.11016 0.39663 0.7407 0.0
C660 C 0.095 0.43563 0.72467 0.0
C661 C 0.07767 0.39537 0.7553 0.0
C662 C 0.05394 0.41373 0.75449 0.0
C663 C 0.03667 0.45117 0.7358 0.0
C664 C 0.04292 0.4702 0.7178 0.0
C665 C 0.062 0.43369 0.7388 0.0
C666 C 0.07647 0.47274 0.70504 0.0
C667 C 0.10245 0.45564 0.7086 0.0
H668 H 0.14016 0.66343 0.33721 0.0
H669 H 0.09317 0.68656 0.41476 0.0
H670 H 0.05819 0.6509 0.41796 0.0
H671 H 0.03398 0.6162 0.39476 0.0
H672 H 0.08029 0.59297 0.31738 0.0
H673 H 0.12373 0.625 0.31876 0.0
C674 C 0.12306 0.66046 0.35525 0.0
C675 C 0.11864 0.67807 0.37527 0.0
C676 C 0.10299 0.63977 0.35707 0.0
C677 C 0.09625 0.67374 0.39847 0.0
C678 C 0.0764 0.65323 0.40048 0.0
C679 C 0.05463 0.61766 0.3789 0.0
C680 C 0.05415 0.60232 0.35606 0.0
C681 C 0.07854 0.63654 0.37935 0.0
C682 C 0.08057 0.60443 0.33535 0.0
C683 C 0.10497 0.62297 0.33591 0.0
H684 H 0.76703 0.91634 0.65258 0.0
H685 H 0.86981 0.89464 0.62256 0.0
H686 H 0.87334 0.9285 0.59188 0.0
H687 H 0.84407 0.96161 0.56926 0.0
H688 H 0.74186 0.98393 0.59893 0.0
H689 H 0.74179 0.95305 0.63474 0.0
C690 C 0.79059 0.91928 0.63984 0.0
C691 C 0.81769 0.90256 0.63944 0.0
C692 C 0.79257 0.93896 0.62218 0.0
C693 C 0.84801 0.90676 0.62271 0.0
C694 C 0.85021 0.92624 0.60525 0.0
C695 C 0.82231 0.96006 0.58415 0.0
C696 C 0.79301 0.97491 0.58155 0.0
C697 C 0.82218 0.94204 0.60416 0.0
C698 C 0.76484 0.97279 0.60078 0.0
C699 C 0.76463 0.95497 0.621 0.0
H700 H 0.66794 0.26856 0.16763 0.0
H701 H 0.6192 0.20686 0.20276 0.0
H702 H 0.57479 0.20659 0.16479 0.0
H703 H 0.54628 0.2259 0.12438 0.0
H704 H 0.59455 0.28735 0.08879 0.0
H705 H 0.64355 0.28515 0.12345 0.0
C706 C 0.64811 0.25476 0.16668 0.0
C707 C 0.64655 0.23804 0.18845 0.0
C708 C 0.62264 0.2546 0.14461 0.0
C709 C 0.62047 0.22036 0.18682 0.0
C710 C 0.59518 0.22006 0.16497 0.0
C711 C 0.56795 0.23854 0.12393 0.0
C712 C 0.56679 0.25685 0.10431 0.0
C713 C 0.59546 0.23742 0.14421 0.0
C714 C 0.59505 0.27303 0.10366 0.0
C715 C 0.62282 0.27191 0.12365 0.0
H716 H 0.1671 0.15183 0.64669 0.0
H717 H 0.25881 0.18783 0.61255 0.0
H718 H 0.26723 0.15696 0.57862 0.0
H719 H 0.24461 0.12197 0.55521 0.0
H720 H 0.153 0.08568 0.58863 0.0
H721 H 0.14883 0.11402 0.62664 0.0
C722 C 0.18909 0.15274 0.63197 0.0
C723 C 0.21212 0.17218 0.63199 0.0
C724 C 0.19382 0.13484 0.61245 0.0
C725 C 0.24081 0.17303 0.61306 0.0
C726 C 0.24556 0.15542 0.59356 0.0
C727 C 0.22432 0.12 0.57128 0.0
C728 C 0.1991 0.10187 0.56919 0.0
C729 C 0.22177 0.13654 0.59264 0.0
C730 C 0.17288 0.0994 0.59003 0.0
C731 C 0.17026 0.11576 0.61152 0.0
H732 H 0.30818 0.79047 0.15402 0.0
H733 H 0.37473 0.74405 0.20239 0.0
H734 H 0.41948 0.74506 0.16534 0.0
H735 H 0.44244 0.76211 0.12179 0.0
H736 H 0.37845 0.81036 0.07417 0.0
H737 H 0.32936 0.80498 0.10762 0.0
C738 C 0.33224 0.78032 0.15616 0.0
C739 C 0.33845 0.7675 0.18109 0.0
C740 C 0.35823 0.78125 0.13486 0.0
C741 C 0.36972 0.75442 0.18365 0.0
C742 C 0.39523 0.75489 0.16243 0.0
C743 C 0.41754 0.77122 0.11854 0.0
C744 C 0.41421 0.78684 0.09581 0.0
C745 C 0.39019 0.76871 0.13834 0.0
C746 C 0.38161 0.7982 0.0915 0.0
C747 C 0.35373 0.79533 0.1108 0.0
H748 H 0.7796 0.15875 0.40504 0.0
H749 H 0.86588 0.18968 0.45351 0.0
H750 H 0.86484 0.15704 0.48623 0.0
H751 H 0.83538 0.1218 0.50396 0.0
H752 H 0.74998 0.0902 0.45575 0.0
H753 H 0.75555 0.12053 0.41948 0.0
C754 C 0.79872 0.15816 0.42238 0.0
C755 C 0.82222 0.17703 0.42707 0.0
C756 C 0.79822 0.13914 0.44113 0.0
C757 C 0.84671 0.17583 0.44979 0.0
C758 C 0.84637 0.15706 0.46844 0.0
C759 C 0.81865 0.12129 0.48511 0.0
C760 C 0.79232 0.10391 0.48241 0.0
C761 C 0.82162 0.13895 0.46476 0.0
C762 C 0.77066 0.10334 0.45805 0.0
C763 C 0.77359 0.12082 0.43752 0.0
H764 H 0.34169 0.24112 0.89004 0.0
H765 H 0.3618 0.30766 0.85117 0.0
H766 H 0.40561 0.31691 0.88791 0.0
H767 H 0.44189 0.30493 0.92857 0.0
H768 H 0.42419 0.23801 0.96682 0.0
H769 H 0.37543 0.23016 0.93312 0.0
C770 C 0.35562 0.25766 0.88969 0.0
C771 C 0.34859 0.27361 0.86779 0.0
C772 C 0.3812 0.26278 0.91075 0.0
C773 C 0.36641 0.29514 0.86789 0.0
C774 C 0.39166 0.3004 0.8888 0.0
C775 C 0.42712 0.2887 0.92964 0.0
C776 C 0.43677 0.27196 0.9499 0.0
C777 C 0.39976 0.28419 0.90996 0.0
C778 C 0.41712 0.25117 0.95145 0.0
C779 C 0.38948 0.24662 0.93204 0.0
H780 H 0.24753 0.92828 0.39027 0.0
H781 H 0.14606 0.89422 0.40539 0.0
H782 H 0.13096 0.92364 0.43955 0.0
H783 H 0.14808 0.95731 0.46766 0.0
H784 H 0.24927 0.99164 0.4536 0.0
H785 H 0.26241 0.96441 0.41573 0.0
C786 C 0.22188 0.92749 0.40069 0.0
C787 C 0.19826 0.90875 0.39555 0.0
C788 C 0.21322 0.9446 0.4204 0.0
C789 C 0.16518 0.90804 0.40941 0.0
C790 C 0.15636 0.92497 0.42882 0.0
C791 C 0.17283 0.95899 0.45603 0.0
C792 C 0.19781 0.97631 0.46351 0.0
C793 C 0.18044 0.94304 0.43487 0.0
C794 C 0.22956 0.97851 0.44811 0.0
C795 C 0.2372 0.9628 0.42668 0.0
H796 H 0.65304 0.82289 0.89313 0.0
H797 H 0.60165 0.77474 0.83617 0.0
H798 H 0.55339 0.76848 0.86968 0.0
H799 H 0.52294 0.77935 0.91305 0.0
H800 H 0.57292 0.82811 0.9698 0.0
H801 H 0.62483 0.8312 0.9388 0.0
C802 C 0.63134 0.81095 0.88817 0.0
C803 C 0.63083 0.79942 0.8621 0.0
C804 C 0.60343 0.80755 0.90749 0.0
C805 C 0.60285 0.78371 0.85614 0.0
C806 C 0.57511 0.78022 0.87522 0.0
C807 C 0.54542 0.79045 0.91875 0.0
C808 C 0.54402 0.80367 0.94346 0.0
C809 C 0.57475 0.79241 0.90065 0.0
C810 C 0.57348 0.81771 0.9509 0.0
C811 C 0.60298 0.81963 0.93307 0.0
loop_
_geom_bond_atom_site_label_1
_geom_bond_atom_site_label_2
_geom_bond_distance
_geom_bond_site_symmetry_2
_ccdc_geom_bond_type
C0 C1 1.264 . S
C0 C5 1.479 . S
C0 C10 1.465 . S
C1 C0 1.264 . S
C1 C3 1.339 . S
C1 H28 0.931 . S
C2 C3 1.395 . S
C2 C4 1.320 . S
C3 C1 1.339 . S
C3 C2 1.395 . S
C3 H29 0.929 . S
C4 C2 1.320 . S
C4 C5 1.405 . S
C4 H30 0.930 . S
C5 C0 1.479 . S
C5 C4 1.405 . S
C5 H31 0.931 . S
U6 O7 2.454 . S
U6 O8 2.458 . S
U6 C9 2.984 . S
U6 C10 2.847 . S
U6 C23 2.882 . S
U6 O24 2.441 . S
U6 O25 2.420 . S
U6 O26 2.455 . S
U6 O27 2.449 . S
O7 U6 2.454 . S
O7 C9 1.353 . S
O8 U6 2.458 . S
O8 C9 1.286 . S
C9 U6 2.984 . S
C9 O7 1.353 . S
C9 O8 1.286 . S
C9 C11 1.363 . S
C10 C0 1.465 . S
C10 U6 2.847 . S
C10 O24 1.249 . S
C10 O25 1.202 . S
C11 C9 1.363 . S
C11 C13 1.408 . S
C11 C16 1.342 . S
C12 C13 1.310 . S
C12 C15 1.461 . S
C12 H32 0.932 . S
C13 C11 1.408 . S
C13 C12 1.310 . S
C13 H33 0.930 . S
C14 C15 1.474 . S
C14 C16 1.285 . S
C14 H34 0.929 . S
C15 C12 1.461 . S
C15 C14 1.474 . S
C16 C11 1.342 . S
C16 C14 1.285 . S
C16 H35 0.930 . S
C17 C20 1.424 . S
C17 C22 1.245 . S
C17 C23 1.428 . S
C18 C21 1.260 . S
C18 C22 1.477 . S
C18 H36 0.932 . S
C19 C20 1.384 . S
C19 C21 1.479 . S
C19 H37 0.929 . S
C20 C17 1.424 . S
C20 C19 1.384 . S
C20 H38 0.928 . S
C21 C18 1.260 . S
C21 C19 1.479 . S
C22 C17 1.245 . S
C22 C18 1.477 . S
C22 H39 0.932 . S
C23 U6 2.882 . S
C23 C17 1.428 . S
C23 O26 1.301 . S
C23 O27 1.282 . S
O24 U6 2.441 . S
O24 C10 1.249 . S
O25 U6 2.420 . S
O25 C10 1.202 . S
O26 U6 2.455 . S
O26 C23 1.301 . S
O27 U6 2.449 . S
O27 C23 1.282 . S
H28 C1 0.931 . S
H29 C3 0.929 . S
H30 C4 0.930 . S
H31 C5 0.931 . S
H32 C12 0.932 . S
H33 C13 0.930 . S
H34 C14 0.929 . S
H35 C16 0.930 . S
H36 C18 0.932 . S
H37 C19 0.929 . S
H38 C20 0.928 . S
H39 C22 0.932 . S
C40 C41 1.264 . S
C40 C45 1.479 . S
C40 C50 1.465 . S
C41 C40 1.264 . S
C41 C43 1.339 . S
C41 H68 0.931 . S
C42 C43 1.395 . S
C42 C44 1.320 . S
C43 C41 1.339 . S
C43 C42 1.395 . S
C43 H69 0.929 . S
C44 C42 1.320 . S
C44 C45 1.405 . S
C44 H70 0.930 . S
C45 C40 1.479 . S
C45 C44 1.405 . S
C45 H71 0.931 . S
U46 O47 2.454 . S
U46 O48 2.458 . S
U46 C49 2.984 . S
U46 C50 2.847 . S
U46 C63 2.882 . S
U46 O64 2.441 . S
U46 O65 2.420 . S
U46 O66 2.455 . S
U46 O67 2.449 . S
O47 U46 2.454 . S
O47 C49 1.353 . S
O48 U46 2.458 . S
O48 C49 1.286 . S
C49 U46 2.984 . S
C49 O47 1.353 . S
C49 O48 1.286 . S
C49 C51 1.363 . S
C50 C40 1.465 . S
C50 U46 2.847 . S
C50 O64 1.249 . S
C50 O65 1.202 . S
C51 C49 1.363 . S
C51 C53 1.408 . S
C51 C56 1.342 . S
C52 C53 1.310 . S
C52 C55 1.461 . S
C52 H72 0.932 . S
C53 C51 1.408 . S
C53 C52 1.310 . S
C53 H73 0.930 . S
C54 C55 1.474 . S
C54 C56 1.285 . S
C54 H74 0.929 . S
C55 C52 1.461 . S
C55 C54 1.474 . S
C56 C51 1.342 . S
C56 C54 1.285 . S
C56 H75 0.930 . S
C57 C60 1.424 . S
C57 C62 1.245 . S
C57 C63 1.428 . S
C58 C61 1.260 . S
C58 C62 1.477 . S
C58 H76 0.932 . S
C59 C60 1.384 . S
C59 C61 1.479 . S
C59 H77 0.929 . S
C60 C57 1.424 . S
C60 C59 1.384 . S
C60 H78 0.928 . S
C61 C58 1.260 . S
C61 C59 1.479 . S
C62 C57 1.245 . S
C62 C58 1.477 . S
C62 H79 0.932 . S
C63 U46 2.882 . S
C63 C57 1.428 . S
C63 O66 1.301 . S
C63 O67 1.282 . S
O64 U46 2.441 . S
O64 C50 1.249 . S
O65 U46 2.420 . S
O65 C50 1.202 . S
O66 U46 2.455 . S
O66 C63 1.301 . S
O67 U46 2.449 . S
O67 C63 1.282 . S
H68 C41 0.931 . S
H69 C43 0.929 . S
H70 C44 0.930 . S
H71 C45 0.931 . S
H72 C52 0.932 . S
H73 C53 0.930 . S
H74 C54 0.929 . S
H75 C56 0.930 . S
H76 C58 0.932 . S
H77 C59 0.929 . S
H78 C60 0.928 . S
H79 C62 0.932 . S
C80 C81 1.264 . S
C80 C85 1.479 . S
C80 C90 1.465 . S
C81 C80 1.264 . S
C81 C83 1.339 . S
C81 H108 0.931 . S
C82 C83 1.395 . S
C82 C84 1.320 . S
C83 C81 1.339 . S
C83 C82 1.395 . S
C83 H109 0.929 . S
C84 C82 1.320 . S
C84 C85 1.405 . S
C84 H110 0.930 . S
C85 C80 1.479 . S
C85 C84 1.405 . S
C85 H111 0.931 . S
U86 O87 2.454 . S
U86 O88 2.458 . S
U86 C89 2.984 . S
U86 C90 2.847 . S
U86 C103 2.882 . S
U86 O104 2.441 . S
U86 O105 2.420 . S
U86 O106 2.455 . S
U86 O107 2.449 . S
O87 U86 2.454 . S
O87 C89 1.353 . S
O88 U86 2.458 . S
O88 C89 1.286 . S
C89 U86 2.984 . S
C89 O87 1.353 . S
C89 O88 1.286 . S
C89 C91 1.363 . S
C90 C80 1.465 . S
C90 U86 2.847 . S
C90 O104 1.249 . S
C90 O105 1.202 . S
C91 C89 1.363 . S
C91 C93 1.408 . S
C91 C96 1.342 . S
C92 C93 1.310 . S
C92 C95 1.461 . S
C92 H112 0.932 . S
C93 C91 1.408 . S
C93 C92 1.310 . S
C93 H113 0.930 . S
C94 C95 1.474 . S
C94 C96 1.285 . S
C94 H114 0.929 . S
C95 C92 1.461 . S
C95 C94 1.474 . S
C96 C91 1.342 . S
C96 C94 1.285 . S
C96 H115 0.930 . S
C97 C100 1.424 . S
C97 C102 1.245 . S
C97 C103 1.428 . S
C98 C101 1.260 . S
C98 C102 1.477 . S
C98 H116 0.932 . S
C99 C100 1.384 . S
C99 C101 1.479 . S
C99 H117 0.929 . S
C100 C97 1.424 . S
C100 C99 1.384 . S
C100 H118 0.928 . S
C101 C98 1.260 . S
C101 C99 1.479 . S
C102 C97 1.245 . S
C102 C98 1.477 . S
C102 H119 0.932 . S
C103 U86 2.882 . S
C103 C97 1.428 . S
C103 O106 1.301 . S
C103 O107 1.282 . S
O104 U86 2.441 . S
O104 C90 1.249 . S
O105 U86 2.420 . S
O105 C90 1.202 . S
O106 U86 2.455 . S
O106 C103 1.301 . S
O107 U86 2.449 . S
O107 C103 1.282 . S
H108 C81 0.931 . S
H109 C83 0.929 . S
H110 C84 0.930 . S
H111 C85 0.931 . S
H112 C92 0.932 . S
H113 C93 0.930 . S
H114 C94 0.929 . S
H115 C96 0.930 . S
H116 C98 0.932 . S
H117 C99 0.929 . S
H118 C100 0.928 . S
H119 C102 0.932 . S
C120 C121 1.264 . S
C120 C125 1.479 . S
C120 C130 1.465 . S
C121 C120 1.264 . S
C121 C123 1.339 . S
C121 H148 0.931 . S
C122 C123 1.395 . S
C122 C124 1.320 . S
C123 C121 1.339 . S
C123 C122 1.395 . S
C123 H149 0.929 . S
C124 C122 1.320 . S
C124 C125 1.405 . S
C124 H150 0.930 . S
C125 C120 1.479 . S
C125 C124 1.405 . S
C125 H151 0.931 . S
U126 O127 2.454 . S
U126 O128 2.458 . S
U126 C129 2.984 . S
U126 C130 2.847 . S
U126 C143 2.882 . S
U126 O144 2.441 . S
U126 O145 2.420 . S
U126 O146 2.455 . S
U126 O147 2.449 . S
O127 U126 2.454 . S
O127 C129 1.353 . S
O128 U126 2.458 . S
O128 C129 1.286 . S
C129 U126 2.984 . S
C129 O127 1.353 . S
C129 O128 1.286 . S
C129 C131 1.363 . S
C130 C120 1.465 . S
C130 U126 2.847 . S
C130 O144 1.249 . S
C130 O145 1.202 . S
C131 C129 1.363 . S
C131 C133 1.408 . S
C131 C136 1.342 . S
C132 C133 1.310 . S
C132 C135 1.461 . S
C132 H152 0.932 . S
C133 C131 1.408 . S
C133 C132 1.310 . S
C133 H153 0.930 . S
C134 C135 1.474 . S
C134 C136 1.285 . S
C134 H154 0.929 . S
C135 C132 1.461 . S
C135 C134 1.474 . S
C136 C131 1.342 . S
C136 C134 1.285 . S
C136 H155 0.930 . S
C137 C140 1.424 . S
C137 C142 1.245 . S
C137 C143 1.428 . S
C138 C141 1.260 . S
C138 C142 1.477 . S
C138 H156 0.932 . S
C139 C140 1.384 . S
C139 C141 1.479 . S
C139 H157 0.929 . S
C140 C137 1.424 . S
C140 C139 1.384 . S
C140 H158 0.928 . S
C141 C138 1.260 . S
C141 C139 1.479 . S
C142 C137 1.245 . S
C142 C138 1.477 . S
C142 H159 0.932 . S
C143 U126 2.882 . S
C143 C137 1.428 . S
C143 O146 1.301 . S
C143 O147 1.282 . S
O144 U126 2.441 . S
O144 C130 1.249 . S
O145 U126 2.420 . S
O145 C130 1.202 . S
O146 U126 2.455 . S
O146 C143 1.301 . S
O147 U126 2.449 . S
O147 C143 1.282 . S
H148 C121 0.931 . S
H149 C123 0.929 . S
H150 C124 0.930 . S
H151 C125 0.931 . S
H152 C132 0.932 . S
H153 C133 0.930 . S
H154 C134 0.929 . S
H155 C136 0.930 . S
H156 C138 0.932 . S
H157 C139 0.929 . S
H158 C140 0.928 . S
H159 C142 0.932 . S
C160 C161 1.264 . S
C160 C165 1.479 . S
C160 C170 1.465 . S
C161 C160 1.264 . S
C161 C163 1.339 . S
C161 H188 0.931 . S
C162 C163 1.395 . S
C162 C164 1.320 . S
C163 C161 1.339 . S
C163 C162 1.395 . S
C163 H189 0.929 . S
C164 C162 1.320 . S
C164 C165 1.405 . S
C164 H190 0.930 . S
C165 C160 1.479 . S
C165 C164 1.405 . S
C165 H191 0.931 . S
U166 O167 2.454 . S
U166 O168 2.458 . S
U166 C169 2.984 . S
U166 C170 2.847 . S
U166 C183 2.882 . S
U166 O184 2.441 . S
U166 O185 2.420 . S
U166 O186 2.455 . S
U166 O187 2.449 . S
O167 U166 2.454 . S
O167 C169 1.353 . S
O168 U166 2.458 . S
O168 C169 1.286 . S
C169 U166 2.984 . S
C169 O167 1.353 . S
C169 O168 1.286 . S
C169 C171 1.363 . S
C170 C160 1.465 . S
C170 U166 2.847 . S
C170 O184 1.249 . S
C170 O185 1.202 . S
C171 C169 1.363 . S
C171 C173 1.408 . S
C171 C176 1.342 . S
C172 C173 1.310 . S
C172 C175 1.461 . S
C172 H192 0.932 . S
C173 C171 1.408 . S
C173 C172 1.310 . S
C173 H193 0.930 . S
C174 C175 1.474 . S
C174 C176 1.285 . S
C174 H194 0.929 . S
C175 C172 1.461 . S
C175 C174 1.474 . S
C176 C171 1.342 . S
C176 C174 1.285 . S
C176 H195 0.930 . S
C177 C180 1.424 . S
C177 C182 1.245 . S
C177 C183 1.428 . S
C178 C181 1.260 . S
C178 C182 1.477 . S
C178 H196 0.932 . S
C179 C180 1.384 . S
C179 C181 1.479 . S
C179 H197 0.929 . S
C180 C177 1.424 . S
C180 C179 1.384 . S
C180 H198 0.928 . S
C181 C178 1.260 . S
C181 C179 1.479 . S
C182 C177 1.245 . S
C182 C178 1.477 . S
C182 H199 0.932 . S
C183 U166 2.882 . S
C183 C177 1.428 . S
C183 O186 1.301 . S
C183 O187 1.282 . S
O184 U166 2.441 . S
O184 C170 1.249 . S
O185 U166 2.420 . S
O185 C170 1.202 . S
O186 U166 2.455 . S
O186 C183 1.301 . S
O187 U166 2.449 . S
O187 C183 1.282 . S
H188 C161 0.931 . S
H189 C163 0.929 . S
H190 C164 0.930 . S
H191 C165 0.931 . S
H192 C172 0.932 . S
H193 C173 0.930 . S
H194 C174 0.929 . S
H195 C176 0.930 . S
H196 C178 0.932 . S
H197 C179 0.929 . S
H198 C180 0.928 . S
H199 C182 0.932 . S
C200 C201 1.264 . S
C200 C205 1.479 . S
C200 C210 1.465 . S
C201 C200 1.264 . S
C201 C203 1.339 . S
C201 H228 0.931 . S
C202 C203 1.395 . S
C202 C204 1.320 . S
C203 C201 1.339 . S
C203 C202 1.395 . S
C203 H229 0.929 . S
C204 C202 1.320 . S
C204 C205 1.405 . S
C204 H230 0.930 . S
C205 C200 1.479 . S
C205 C204 1.405 . S
C205 H231 0.931 . S
U206 O207 2.454 . S
U206 O208 2.458 . S
U206 C209 2.984 . S
U206 C210 2.847 . S
U206 C223 2.882 . S
U206 O224 2.441 . S
U206 O225 2.420 . S
U206 O226 2.455 . S
U206 O227 2.449 . S
O207 U206 2.454 . S
O207 C209 1.353 . S
O208 U206 2.458 . S
O208 C209 1.286 . S
C209 U206 2.984 . S
C209 O207 1.353 . S
C209 O208 1.286 . S
C209 C211 1.363 . S
C210 C200 1.465 . S
C210 U206 2.847 . S
C210 O224 1.249 . S
C210 O225 1.202 . S
C211 C209 1.363 . S
C211 C213 1.408 . S
C211 C216 1.342 . S
C212 C213 1.310 . S
C212 C215 1.461 . S
C212 H232 0.932 . S
C213 C211 1.408 . S
C213 C212 1.310 . S
C213 H233 0.930 . S
C214 C215 1.474 . S
C214 C216 1.285 . S
C214 H234 0.929 . S
C215 C212 1.461 . S
C215 C214 1.474 . S
C216 C211 1.342 . S
C216 C214 1.285 . S
C216 H235 0.930 . S
C217 C220 1.424 . S
C217 C222 1.245 . S
C217 C223 1.428 . S
C218 C221 1.260 . S
C218 C222 1.477 . S
C218 H236 0.932 . S
C219 C220 1.384 . S
C219 C221 1.479 . S
C219 H237 0.929 . S
C220 C217 1.424 . S
C220 C219 1.384 . S
C220 H238 0.928 . S
C221 C218 1.260 . S
C221 C219 1.479 . S
C222 C217 1.245 . S
C222 C218 1.477 . S
C222 H239 0.932 . S
C223 U206 2.882 . S
C223 C217 1.428 . S
C223 O226 1.301 . S
C223 O227 1.282 . S
O224 U206 2.441 . S
O224 C210 1.249 . S
O225 U206 2.420 . S
O225 C210 1.202 . S
O226 U206 2.455 . S
O226 C223 1.301 . S
O227 U206 2.449 . S
O227 C223 1.282 . S
H228 C201 0.931 . S
H229 C203 0.929 . S
H230 C204 0.930 . S
H231 C205 0.931 . S
H232 C212 0.932 . S
H233 C213 0.930 . S
H234 C214 0.929 . S
H235 C216 0.930 . S
H236 C218 0.932 . S
H237 C219 0.929 . S
H238 C220 0.928 . S
H239 C222 0.932 . S
C240 C241 1.264 . S
C240 C245 1.479 . S
C240 C250 1.465 . S
C241 C240 1.264 . S
C241 C243 1.339 . S
C241 H268 0.931 . S
C242 C243 1.395 . S
C242 C244 1.320 . S
C243 C241 1.339 . S
C243 C242 1.395 . S
C243 H269 0.929 . S
C244 C242 1.320 . S
C244 C245 1.405 . S
C244 H270 0.930 . S
C245 C240 1.479 . S
C245 C244 1.405 . S
C245 H271 0.931 . S
U246 O247 2.454 . S
U246 O248 2.458 . S
U246 C249 2.984 . S
U246 C250 2.847 . S
U246 C263 2.882 . S
U246 O264 2.441 . S
U246 O265 2.420 . S
U246 O266 2.455 . S
U246 O267 2.449 . S
O247 U246 2.454 . S
O247 C249 1.353 . S
O248 U246 2.458 . S
O248 C249 1.286 . S
C249 U246 2.984 . S
C249 O247 1.353 . S
C249 O248 1.286 . S
C249 C251 1.363 . S
C250 C240 1.465 . S
C250 U246 2.847 . S
C250 O264 1.249 . S
C250 O265 1.202 . S
C251 C249 1.363 . S
C251 C253 1.408 . S
C251 C256 1.342 . S
C252 C253 1.310 . S
C252 C255 1.461 . S
C252 H272 0.932 . S
C253 C251 1.408 . S
C253 C252 1.310 . S
C253 H273 0.930 . S
C254 C255 1.474 . S
C254 C256 1.285 . S
C254 H274 0.929 . S
C255 C252 1.461 . S
C255 C254 1.474 . S
C256 C251 1.342 . S
C256 C254 1.285 . S
C256 H275 0.930 . S
C257 C260 1.424 . S
C257 C262 1.245 . S
C257 C263 1.428 . S
C258 C261 1.260 . S
C258 C262 1.477 . S
C258 H276 0.932 . S
C259 C260 1.384 . S
C259 C261 1.479 . S
C259 H277 0.929 . S
C260 C257 1.424 . S
C260 C259 1.384 . S
C260 H278 0.928 . S
C261 C258 1.260 . S
C261 C259 1.479 . S
C262 C257 1.245 . S
C262 C258 1.477 . S
C262 H279 0.932 . S
C263 U246 2.882 . S
C263 C257 1.428 . S
C263 O266 1.301 . S
C263 O267 1.282 . S
O264 U246 2.441 . S
O264 C250 1.249 . S
O265 U246 2.420 . S
O265 C250 1.202 . S
O266 U246 2.455 . S
O266 C263 1.301 . S
O267 U246 2.449 . S
O267 C263 1.282 . S
H268 C241 0.931 . S
H269 C243 0.929 . S
H270 C244 0.930 . S
H271 C245 0.931 . S
H272 C252 0.932 . S
H273 C253 0.930 . S
H274 C254 0.929 . S
H275 C256 0.930 . S
H276 C258 0.932 . S
H277 C259 0.929 . S
H278 C260 0.928 . S
H279 C262 0.932 . S
C280 C281 1.264 . S
C280 C285 1.479 . S
C280 C290 1.465 . S
C281 C280 1.264 . S
C281 C283 1.339 . S
C281 H308 0.931 . S
C282 C283 1.395 . S
C282 C284 1.320 . S
C283 C281 1.339 . S
C283 C282 1.395 . S
C283 H309 0.929 . S
C284 C282 1.320 . S
C284 C285 1.405 . S
C284 H310 0.930 . S
C285 C280 1.479 . S
C285 C284 1.405 . S
C285 H311 0.931 . S
U286 O287 2.454 . S
U286 O288 2.458 . S
U286 C289 2.984 . S
U286 C290 2.847 . S
U286 C303 2.882 . S
U286 O304 2.441 . S
U286 O305 2.420 . S
U286 O306 2.455 . S
U286 O307 2.449 . S
O287 U286 2.454 . S
O287 C289 1.353 . S
O288 U286 2.458 . S
O288 C289 1.286 . S
C289 U286 2.984 . S
C289 O287 1.353 . S
C289 O288 1.286 . S
C289 C291 1.363 . S
C290 C280 1.465 . S
C290 U286 2.847 . S
C290 O304 1.249 . S
C290 O305 1.202 . S
C291 C289 1.363 . S
C291 C293 1.408 . S
C291 C296 1.342 . S
C292 C293 1.310 . S
C292 C295 1.461 . S
C292 H312 0.932 . S
C293 C291 1.408 . S
C293 C292 1.310 . S
C293 H313 0.930 . S
C294 C295 1.474 . S
C294 C296 1.285 . S
C294 H314 0.929 . S
C295 C292 1.461 . S
C295 C294 1.474 . S
C296 C291 1.342 . S
C296 C294 1.285 . S
C296 H315 0.930 . S
C297 C300 1.424 . S
C297 C302 1.245 . S
C297 C303 1.428 . S
C298 C301 1.260 . S
C298 C302 1.477 . S
C298 H316 0.932 . S
C299 C300 1.384 . S
C299 C301 1.479 . S
C299 H317 0.929 . S
C300 C297 1.424 . S
C300 C299 1.384 . S
C300 H318 0.928 . S
C301 C298 1.260 . S
C301 C299 1.479 . S
C302 C297 1.245 . S
C302 C298 1.477 . S
C302 H319 0.932 . S
C303 U286 2.882 . S
C303 C297 1.428 . S
C303 O306 1.301 . S
C303 O307 1.282 . S
O304 U286 2.441 . S
O304 C290 1.249 . S
O305 U286 2.420 . S
O305 C290 1.202 . S
O306 U286 2.455 . S
O306 C303 1.301 . S
O307 U286 2.449 . S
O307 C303 1.282 . S
H308 C281 0.931 . S
H309 C283 0.929 . S
H310 C284 0.930 . S
H311 C285 0.931 . S
H312 C292 0.932 . S
H313 C293 0.930 . S
H314 C294 0.929 . S
H315 C296 0.930 . S
H316 C298 0.932 . S
H317 C299 0.929 . S
H318 C300 0.928 . S
H319 C302 0.932 . S
H320 C326 0.930 . S
H321 C329 0.931 . S
H322 C331 0.931 . S
H323 C333 0.930 . S
H324 C335 0.930 . S
H325 C337 0.931 . S
C326 H320 0.930 . S
C326 C327 1.380 . S
C326 C328 1.394 1_455 S
C327 C326 1.380 . S
C327 C331 1.382 . S
C328 C326 1.394 1_655 S
C328 C329 1.400 . S
C329 H321 0.931 . S
C329 C328 1.400 . S
C329 C330 1.375 1_655 S
C330 C329 1.375 1_455 S
C330 C331 1.415 . S
C330 C332 1.501 . S
C331 H322 0.931 . S
C331 C327 1.382 . S
C331 C330 1.415 . S
C332 C330 1.501 . S
C332 C333 1.384 . S
C332 C337 1.408 1_455 S
C333 H323 0.930 . S
C333 C332 1.384 . S
C333 C334 1.389 . S
C334 C333 1.389 . S
C334 C335 1.405 . S
C335 H324 0.930 . S
C335 C334 1.405 . S
C335 C336 1.364 1_455 S
C336 C335 1.364 1_655 S
C336 C337 1.400 . S
C337 H325 0.931 . S
C337 C332 1.408 1_655 S
C337 C336 1.400 . S
H338 C344 0.930 . S
H339 C347 0.931 . S
H340 C349 0.931 . S
H341 C351 0.930 . S
H342 C353 0.930 . S
H343 C355 0.931 . S
C344 H338 0.930 . S
C344 C345 1.380 1_455 S
C344 C346 1.394 . S
C345 C344 1.380 1_655 S
C345 C349 1.382 . S
C346 C344 1.394 . S
C346 C347 1.400 . S
C347 H339 0.931 . S
C347 C346 1.400 . S
C347 C348 1.375 . S
C348 C347 1.375 . S
C348 C349 1.415 1_455 S
C348 C350 1.501 . S
C349 H340 0.931 . S
C349 C345 1.382 . S
C349 C348 1.415 1_655 S
C350 C348 1.501 . S
C350 C351 1.384 1_455 S
C350 C355 1.408 . S
C351 H341 0.930 . S
C351 C350 1.384 1_655 S
C351 C352 1.389 . S
C352 C351 1.389 . S
C352 C353 1.405 1_655 S
C353 H342 0.930 . S
C353 C352 1.405 1_455 S
C353 C354 1.364 . S
C354 C353 1.364 . S
C354 C355 1.400 . S
C355 H343 0.931 . S
C355 C350 1.408 . S
C355 C354 1.400 . S
H356 C362 0.930 . S
H357 C365 0.931 . S
H358 C367 0.931 . S
H359 C369 0.930 . S
H360 C371 0.930 . S
H361 C373 0.931 . S
C362 H356 0.930 . S
C362 C363 1.380 . S
C362 C364 1.394 . S
C363 C362 1.380 . S
C363 C367 1.382 . S
C364 C362 1.394 . S
C364 C365 1.400 . S
C365 H357 0.931 . S
C365 C364 1.400 . S
C365 C366 1.375 . S
C366 C365 1.375 . S
C366 C367 1.415 . S
C366 C368 1.501 1_545 S
C367 H358 0.931 . S
C367 C363 1.382 . S
C367 C366 1.415 . S
C368 C366 1.501 1_565 S
C368 C369 1.384 . S
C368 C373 1.408 . S
C369 H359 0.930 . S
C369 C368 1.384 . S
C369 C370 1.389 . S
C370 C369 1.389 . S
C370 C371 1.405 . S
C371 H360 0.930 . S
C371 C370 1.405 . S
C371 C372 1.364 . S
C372 C371 1.364 . S
C372 C373 1.400 . S
C373 H361 0.931 . S
C373 C368 1.408 . S
C373 C372 1.400 . S
H374 C380 0.930 . S
H375 C383 0.931 . S
H376 C385 0.931 . S
H377 C387 0.930 . S
H378 C389 0.930 . S
H379 C391 0.931 . S
C380 H374 0.930 . S
C380 C381 1.380 . S
C380 C382 1.394 . S
C381 C380 1.380 . S
C381 C385 1.382 . S
C382 C380 1.394 . S
C382 C383 1.400 . S
C383 H375 0.931 . S
C383 C382 1.400 . S
C383 C384 1.375 . S
C384 C383 1.375 . S
C384 C385 1.415 . S
C384 C386 1.501 1_554 S
C385 H376 0.931 . S
C385 C381 1.382 . S
C385 C384 1.415 . S
C386 C384 1.501 1_556 S
C386 C387 1.384 . S
C386 C391 1.408 . S
C387 H377 0.930 . S
C387 C386 1.384 . S
C387 C388 1.389 . S
C388 C387 1.389 . S
C388 C389 1.405 . S
C389 H378 0.930 . S
C389 C388 1.405 . S
C389 C390 1.364 . S
C390 C389 1.364 . S
C390 C391 1.400 . S
C391 H379 0.931 . S
C391 C386 1.408 . S
C391 C390 1.400 . S
H392 C398 0.930 . S
H393 C401 0.931 . S
H394 C403 0.931 . S
H395 C405 0.930 . S
H396 C407 0.930 . S
H397 C409 0.931 . S
C398 H392 0.930 . S
C398 C399 1.380 . S
C398 C400 1.394 . S
C399 C398 1.380 . S
C399 C403 1.382 . S
C400 C398 1.394 . S
C400 C401 1.400 . S
C401 H393 0.931 . S
C401 C400 1.400 . S
C401 C402 1.375 . S
C402 C401 1.375 . S
C402 C403 1.415 . S
C402 C404 1.501 1_545 S
C403 H394 0.931 . S
C403 C399 1.382 . S
C403 C402 1.415 . S
C404 C402 1.501 1_565 S
C404 C405 1.384 . S
C404 C409 1.408 . S
C405 H395 0.930 . S
C405 C404 1.384 . S
C405 C406 1.389 . S
C406 C405 1.389 . S
C406 C407 1.405 . S
C407 H396 0.930 . S
C407 C406 1.405 . S
C407 C408 1.364 . S
C408 C407 1.364 . S
C408 C409 1.400 . S
C409 H397 0.931 . S
C409 C404 1.408 . S
C409 C408 1.400 . S
H410 C416 0.930 . S
H411 C419 0.931 . S
H412 C421 0.931 . S
H413 C423 0.930 . S
H414 C425 0.930 . S
H415 C427 0.931 . S
C416 H410 0.930 . S
C416 C417 1.380 . S
C416 C418 1.394 . S
C417 C416 1.380 . S
C417 C421 1.382 . S
C418 C416 1.394 . S
C418 C419 1.400 . S
C419 H411 0.931 . S
C419 C418 1.400 . S
C419 C420 1.375 . S
C420 C419 1.375 . S
C420 C421 1.415 . S
C420 C422 1.501 1_554 S
C421 H412 0.931 . S
C421 C417 1.382 . S
C421 C420 1.415 . S
C422 C420 1.501 1_556 S
C422 C423 1.384 . S
C422 C427 1.408 . S
C423 H413 0.930 . S
C423 C422 1.384 . S
C423 C424 1.389 . S
C424 C423 1.389 . S
C424 C425 1.405 . S
C425 H414 0.930 . S
C425 C424 1.405 . S
C425 C426 1.364 . S
C426 C425 1.364 . S
C426 C427 1.400 . S
C427 H415 0.931 . S
C427 C422 1.408 . S
C427 C426 1.400 . S
H428 C434 0.930 . S
H429 C437 0.930 . S
H430 C438 0.930 . S
H431 C439 0.930 . S
H432 C442 0.930 . S
H433 C443 0.930 . S
C434 H428 0.930 . S
C434 C435 1.355 . S
C434 C436 1.415 . S
C435 C434 1.355 . S
C435 C437 1.419 . S
C436 C434 1.415 . S
C436 C441 1.425 . S
C436 C443 1.409 . S
C437 H429 0.930 . S
C437 C435 1.419 . S
C437 C438 1.362 . S
C438 H430 0.930 . S
C438 C437 1.362 . S
C438 C441 1.409 . S
C439 H431 0.930 . S
C439 C440 1.355 . S
C439 C441 1.415 . S
C440 C439 1.355 . S
C440 C442 1.419 . S
C441 C436 1.425 . S
C441 C438 1.409 . S
C441 C439 1.415 . S
C442 H432 0.930 . S
C442 C440 1.419 . S
C442 C443 1.362 . S
C443 H433 0.930 . S
C443 C436 1.409 . S
C443 C442 1.362 . S
H444 C450 0.930 . S
H445 C453 0.930 . S
H446 C454 0.930 . S
H447 C455 0.930 . S
H448 C458 0.930 . S
H449 C459 0.930 . S
C450 H444 0.930 . S
C450 C451 1.355 . S
C450 C452 1.415 . S
C451 C450 1.355 . S
C451 C453 1.419 . S
C452 C450 1.415 . S
C452 C457 1.425 . S
C452 C459 1.409 . S
C453 H445 0.930 . S
C453 C451 1.419 . S
C453 C454 1.362 . S
C454 H446 0.930 . S
C454 C453 1.362 . S
C454 C457 1.409 . S
C455 H447 0.930 . S
C455 C456 1.355 . S
C455 C457 1.415 . S
C456 C455 1.355 . S
C456 C458 1.419 . S
C457 C452 1.425 . S
C457 C454 1.409 . S
C457 C455 1.415 . S
C458 H448 0.930 . S
C458 C456 1.419 . S
C458 C459 1.362 . S
C459 H449 0.930 . S
C459 C452 1.409 . S
C459 C458 1.362 . S
H460 C466 0.930 . S
H461 C469 0.930 . S
H462 C470 0.930 . S
H463 C471 0.930 . S
H464 C474 0.930 . S
H465 C475 0.930 . S
C466 H460 0.930 . S
C466 C467 1.355 . S
C466 C468 1.415 . S
C467 C466 1.355 . S
C467 C469 1.419 . S
C468 C466 1.415 . S
C468 C473 1.425 . S
C468 C475 1.409 . S
C469 H461 0.930 . S
C469 C467 1.419 . S
C469 C470 1.362 . S
C470 H462 0.930 . S
C470 C469 1.362 . S
C470 C473 1.409 . S
C471 H463 0.930 . S
C471 C472 1.355 . S
C471 C473 1.415 . S
C472 C471 1.355 . S
C472 C474 1.419 . S
C473 C468 1.425 . S
C473 C470 1.409 . S
C473 C471 1.415 . S
C474 H464 0.930 . S
C474 C472 1.419 . S
C474 C475 1.362 . S
C475 H465 0.930 . S
C475 C468 1.409 . S
C475 C474 1.362 . S
H476 C482 0.930 . S
H477 C485 0.930 . S
H478 C486 0.930 . S
H479 C487 0.930 . S
H480 C490 0.930 . S
H481 C491 0.930 . S
C482 H476 0.930 . S
C482 C483 1.355 . S
C482 C484 1.415 . S
C483 C482 1.355 . S
C483 C485 1.419 . S
C484 C482 1.415 . S
C484 C489 1.425 . S
C484 C491 1.409 . S
C485 H477 0.930 . S
C485 C483 1.419 . S
C485 C486 1.362 . S
C486 H478 0.930 . S
C486 C485 1.362 . S
C486 C489 1.409 . S
C487 H479 0.930 . S
C487 C488 1.355 . S
C487 C489 1.415 . S
C488 C487 1.355 . S
C488 C490 1.419 . S
C489 C484 1.425 . S
C489 C486 1.409 . S
C489 C487 1.415 . S
C490 H480 0.930 . S
C490 C488 1.419 . S
C490 C491 1.362 . S
C491 H481 0.930 . S
C491 C484 1.409 . S
C491 C490 1.362 . S
H492 C498 0.930 . S
H493 C501 0.930 . S
H494 C502 0.930 . S
H495 C503 0.930 . S
H496 C506 0.930 . S
H497 C507 0.930 . S
C498 H492 0.930 . S
C498 C499 1.355 . S
C498 C500 1.415 . S
C499 C498 1.355 . S
C499 C501 1.419 . S
C500 C498 1.415 . S
C500 C505 1.425 . S
C500 C507 1.409 . S
C501 H493 0.930 . S
C501 C499 1.419 . S
C501 C502 1.362 . S
C502 H494 0.930 . S
C502 C501 1.362 . S
C502 C505 1.409 . S
C503 H495 0.930 . S
C503 C504 1.355 . S
C503 C505 1.415 . S
C504 C503 1.355 . S
C504 C506 1.419 . S
C505 C500 1.425 . S
C505 C502 1.409 . S
C505 C503 1.415 . S
C506 H496 0.930 . S
C506 C504 1.419 . S
C506 C507 1.362 . S
C507 H497 0.930 . S
C507 C500 1.409 . S
C507 C506 1.362 . S
H508 C514 0.930 . S
H509 C517 0.930 . S
H510 C518 0.930 . S
H511 C519 0.930 . S
H512 C522 0.930 . S
H513 C523 0.930 . S
C514 H508 0.930 . S
C514 C515 1.355 . S
C514 C516 1.415 . S
C515 C514 1.355 . S
C515 C517 1.419 . S
C516 C514 1.415 . S
C516 C521 1.425 . S
C516 C523 1.409 . S
C517 H509 0.930 . S
C517 C515 1.419 . S
C517 C518 1.362 . S
C518 H510 0.930 . S
C518 C517 1.362 . S
C518 C521 1.409 . S
C519 H511 0.930 . S
C519 C520 1.355 . S
C519 C521 1.415 . S
C520 C519 1.355 . S
C520 C522 1.419 . S
C521 C516 1.425 . S
C521 C518 1.409 . S
C521 C519 1.415 . S
C522 H512 0.930 . S
C522 C520 1.419 . S
C522 C523 1.362 . S
C523 H513 0.930 . S
C523 C516 1.409 . S
C523 C522 1.362 . S
H524 C530 0.930 . S
H525 C533 0.930 . S
H526 C534 0.930 . S
H527 C535 0.930 . S
H528 C538 0.930 . S
H529 C539 0.930 . S
C530 H524 0.930 . S
C530 C531 1.355 . S
C530 C532 1.415 . S
C531 C530 1.355 . S
C531 C533 1.419 . S
C532 C530 1.415 . S
C532 C537 1.425 . S
C532 C539 1.409 . S
C533 H525 0.930 . S
C533 C531 1.419 . S
C533 C534 1.362 . S
C534 H526 0.930 . S
C534 C533 1.362 . S
C534 C537 1.409 . S
C535 H527 0.930 . S
C535 C536 1.355 . S
C535 C537 1.415 . S
C536 C535 1.355 . S
C536 C538 1.419 . S
C537 C532 1.425 . S
C537 C534 1.409 . S
C537 C535 1.415 . S
C538 H528 0.930 . S
C538 C536 1.419 . S
C538 C539 1.362 . S
C539 H529 0.930 . S
C539 C532 1.409 . S
C539 C538 1.362 . S
H540 C546 0.930 . S
H541 C549 0.930 . S
H542 C550 0.930 . S
H543 C551 0.930 . S
H544 C554 0.930 . S
H545 C555 0.930 . S
C546 H540 0.930 . S
C546 C547 1.355 . S
C546 C548 1.415 . S
C547 C546 1.355 . S
C547 C549 1.419 . S
C548 C546 1.415 . S
C548 C553 1.425 . S
C548 C555 1.409 . S
C549 H541 0.930 . S
C549 C547 1.419 . S
C549 C550 1.362 . S
C550 H542 0.930 . S
C550 C549 1.362 . S
C550 C553 1.409 . S
C551 H543 0.930 . S
C551 C552 1.355 . S
C551 C553 1.415 . S
C552 C551 1.355 . S
C552 C554 1.419 . S
C553 C548 1.425 . S
C553 C550 1.409 . S
C553 C551 1.415 . S
C554 H544 0.930 . S
C554 C552 1.419 . S
C554 C555 1.362 . S
C555 H545 0.930 . S
C555 C548 1.409 . S
C555 C554 1.362 . S
H556 C562 0.930 . S
H557 C565 0.930 . S
H558 C566 0.930 . S
H559 C567 0.930 . S
H560 C570 0.930 . S
H561 C571 0.930 . S
C562 H556 0.930 . S
C562 C563 1.355 . S
C562 C564 1.415 . S
C563 C562 1.355 . S
C563 C565 1.419 . S
C564 C562 1.415 . S
C564 C569 1.425 . S
C564 C571 1.409 . S
C565 H557 0.930 . S
C565 C563 1.419 . S
C565 C566 1.362 . S
C566 H558 0.930 . S
C566 C565 1.362 . S
C566 C569 1.409 . S
C567 H559 0.930 . S
C567 C568 1.355 . S
C567 C569 1.415 . S
C568 C567 1.355 . S
C568 C570 1.419 . S
C569 C564 1.425 . S
C569 C566 1.409 . S
C569 C567 1.415 . S
C570 H560 0.930 . S
C570 C568 1.419 . S
C570 C571 1.362 . S
C571 H561 0.930 . S
C571 C564 1.409 . S
C571 C570 1.362 . S
H572 C578 0.930 . S
H573 C581 0.930 . S
H574 C582 0.930 . S
H575 C583 0.930 . S
H576 C586 0.930 . S
H577 C587 0.930 . S
C578 H572 0.930 . S
C578 C579 1.355 . S
C578 C580 1.415 . S
C579 C578 1.355 . S
C579 C581 1.419 . S
C580 C578 1.415 . S
C580 C585 1.425 . S
C580 C587 1.409 . S
C581 H573 0.930 . S
C581 C579 1.419 . S
C581 C582 1.362 . S
C582 H574 0.930 . S
C582 C581 1.362 . S
C582 C585 1.409 . S
C583 H575 0.930 . S
C583 C584 1.355 . S
C583 C585 1.415 . S
C584 C583 1.355 . S
C584 C586 1.419 . S
C585 C580 1.425 . S
C585 C582 1.409 . S
C585 C583 1.415 . S
C586 H576 0.930 . S
C586 C584 1.419 . S
C586 C587 1.362 . S
C587 H577 0.930 . S
C587 C580 1.409 . S
C587 C586 1.362 . S
H588 C594 0.930 . S
H589 C597 0.930 . S
H590 C598 0.930 . S
H591 C599 0.930 . S
H592 C602 0.930 . S
H593 C603 0.930 . S
C594 H588 0.930 . S
C594 C595 1.355 . S
C594 C596 1.415 . S
C595 C594 1.355 . S
C595 C597 1.419 . S
C596 C594 1.415 . S
C596 C601 1.425 . S
C596 C603 1.409 . S
C597 H589 0.930 . S
C597 C595 1.419 . S
C597 C598 1.362 . S
C598 H590 0.930 . S
C598 C597 1.362 . S
C598 C601 1.409 . S
C599 H591 0.930 . S
C599 C600 1.355 . S
C599 C601 1.415 . S
C600 C599 1.355 . S
C600 C602 1.419 . S
C601 C596 1.425 . S
C601 C598 1.409 . S
C601 C599 1.415 . S
C602 H592 0.930 . S
C602 C600 1.419 . S
C602 C603 1.362 . S
C603 H593 0.930 . S
C603 C596 1.409 . S
C603 C602 1.362 . S
H604 C610 0.930 . S
H605 C613 0.930 . S
H606 C614 0.930 . S
H607 C615 0.930 . S
H608 C618 0.930 . S
H609 C619 0.930 . S
C610 H604 0.930 . S
C610 C611 1.355 . S
C610 C612 1.415 . S
C611 C610 1.355 . S
C611 C613 1.419 . S
C612 C610 1.415 . S
C612 C617 1.425 . S
C612 C619 1.409 . S
C613 H605 0.930 . S
C613 C611 1.419 . S
C613 C614 1.362 . S
C614 H606 0.930 . S
C614 C613 1.362 . S
C614 C617 1.409 . S
C615 H607 0.930 . S
C615 C616 1.355 . S
C615 C617 1.415 . S
C616 C615 1.355 . S
C616 C618 1.419 . S
C617 C612 1.425 . S
C617 C614 1.409 . S
C617 C615 1.415 . S
C618 H608 0.930 . S
C618 C616 1.419 . S
C618 C619 1.362 . S
C619 H609 0.930 . S
C619 C612 1.409 . S
C619 C618 1.362 . S
H620 C626 0.930 . S
H621 C629 0.930 . S
H622 C630 0.930 . S
H623 C631 0.930 . S
H624 C634 0.930 . S
H625 C635 0.930 . S
C626 H620 0.930 . S
C626 C627 1.355 . S
C626 C628 1.415 . S
C627 C626 1.355 . S
C627 C629 1.419 . S
C628 C626 1.415 . S
C628 C633 1.425 . S
C628 C635 1.409 . S
C629 H621 0.930 . S
C629 C627 1.419 . S
C629 C630 1.362 . S
C630 H622 0.930 . S
C630 C629 1.362 . S
C630 C633 1.409 . S
C631 H623 0.930 . S
C631 C632 1.355 . S
C631 C633 1.415 . S
C632 C631 1.355 . S
C632 C634 1.419 . S
C633 C628 1.425 . S
C633 C630 1.409 . S
C633 C631 1.415 . S
C634 H624 0.930 . S
C634 C632 1.419 . S
C634 C635 1.362 . S
C635 H625 0.930 . S
C635 C628 1.409 . S
C635 C634 1.362 . S
H636 C642 0.930 . S
H637 C645 0.930 . S
H638 C646 0.930 . S
H639 C647 0.930 . S
H640 C650 0.930 . S
H641 C651 0.930 . S
C642 H636 0.930 . S
C642 C643 1.355 . S
C642 C644 1.415 . S
C643 C642 1.355 . S
C643 C645 1.419 . S
C644 C642 1.415 . S
C644 C649 1.425 . S
C644 C651 1.409 . S
C645 H637 0.930 . S
C645 C643 1.419 . S
C645 C646 1.362 . S
C646 H638 0.930 . S
C646 C645 1.362 . S
C646 C649 1.409 . S
C647 H639 0.930 . S
C647 C648 1.355 . S
C647 C649 1.415 . S
C648 C647 1.355 . S
C648 C650 1.419 . S
C649 C644 1.425 . S
C649 C646 1.409 . S
C649 C647 1.415 . S
C650 H640 0.930 . S
C650 C648 1.419 . S
C650 C651 1.362 . S
C651 H641 0.930 . S
C651 C644 1.409 . S
C651 C650 1.362 . S
H652 C658 0.930 . S
H653 C661 0.930 . S
H654 C662 0.930 . S
H655 C663 0.930 . S
H656 C666 0.930 . S
H657 C667 0.930 . S
C658 H652 0.930 . S
C658 C659 1.355 . S
C658 C660 1.415 . S
C659 C658 1.355 . S
C659 C661 1.419 . S
C660 C658 1.415 . S
C660 C665 1.425 . S
C660 C667 1.409 . S
C661 H653 0.930 . S
C661 C659 1.419 . S
C661 C662 1.362 . S
C662 H654 0.930 . S
C662 C661 1.362 . S
C662 C665 1.409 . S
C663 H655 0.930 . S
C663 C664 1.355 . S
C663 C665 1.415 . S
C664 C663 1.355 . S
C664 C666 1.419 . S
C665 C660 1.425 . S
C665 C662 1.409 . S
C665 C663 1.415 . S
C666 H656 0.930 . S
C666 C664 1.419 . S
C666 C667 1.362 . S
C667 H657 0.930 . S
C667 C660 1.409 . S
C667 C666 1.362 . S
H668 C674 0.930 . S
H669 C677 0.930 . S
H670 C678 0.930 . S
H671 C679 0.930 . S
H672 C682 0.930 . S
H673 C683 0.930 . S
C674 H668 0.930 . S
C674 C675 1.355 . S
C674 C676 1.415 . S
C675 C674 1.355 . S
C675 C677 1.419 . S
C676 C674 1.415 . S
C676 C681 1.425 . S
C676 C683 1.409 . S
C677 H669 0.930 . S
C677 C675 1.419 . S
C677 C678 1.362 . S
C678 H670 0.930 . S
C678 C677 1.362 . S
C678 C681 1.409 . S
C679 H671 0.930 . S
C679 C680 1.355 . S
C679 C681 1.415 . S
C680 C679 1.355 . S
C680 C682 1.419 . S
C681 C676 1.425 . S
C681 C678 1.409 . S
C681 C679 1.415 . S
C682 H672 0.930 . S
C682 C680 1.419 . S
C682 C683 1.362 . S
C683 H673 0.930 . S
C683 C676 1.409 . S
C683 C682 1.362 . S
H684 C690 0.930 . S
H685 C693 0.930 . S
H686 C694 0.930 . S
H687 C695 0.930 . S
H688 C698 0.930 . S
H689 C699 0.930 . S
C690 H684 0.930 . S
C690 C691 1.355 . S
C690 C692 1.415 . S
C691 C690 1.355 . S
C691 C693 1.419 . S
C692 C690 1.415 . S
C692 C697 1.425 . S
C692 C699 1.409 . S
C693 H685 0.930 . S
C693 C691 1.419 . S
C693 C694 1.362 . S
C694 H686 0.930 . S
C694 C693 1.362 . S
C694 C697 1.409 . S
C695 H687 0.930 . S
C695 C696 1.355 . S
C695 C697 1.415 . S
C696 C695 1.355 . S
C696 C698 1.419 . S
C697 C692 1.425 . S
C697 C694 1.409 . S
C697 C695 1.415 . S
C698 H688 0.930 . S
C698 C696 1.419 . S
C698 C699 1.362 . S
C699 H689 0.930 . S
C699 C692 1.409 . S
C699 C698 1.362 . S
H700 C706 0.930 . S
H701 C709 0.930 . S
H702 C710 0.930 . S
H703 C711 0.930 . S
H704 C714 0.930 . S
H705 C715 0.930 . S
C706 H700 0.930 . S
C706 C707 1.355 . S
C706 C708 1.415 . S
C707 C706 1.355 . S
C707 C709 1.419 . S
C708 C706 1.415 . S
C708 C713 1.425 . S
C708 C715 1.409 . S
C709 H701 0.930 . S
C709 C707 1.419 . S
C709 C710 1.362 . S
C710 H702 0.930 . S
C710 C709 1.362 . S
C710 C713 1.409 . S
C711 H703 0.930 . S
C711 C712 1.355 . S
C711 C713 1.415 . S
C712 C711 1.355 . S
C712 C714 1.419 . S
C713 C708 1.425 . S
C713 C710 1.409 . S
C713 C711 1.415 . S
C714 H704 0.930 . S
C714 C712 1.419 . S
C714 C715 1.362 . S
C715 H705 0.930 . S
C715 C708 1.409 . S
C715 C714 1.362 . S
H716 C722 0.930 . S
H717 C725 0.930 . S
H718 C726 0.930 . S
H719 C727 0.930 . S
H720 C730 0.930 . S
H721 C731 0.930 . S
C722 H716 0.930 . S
C722 C723 1.355 . S
C722 C724 1.415 . S
C723 C722 1.355 . S
C723 C725 1.419 . S
C724 C722 1.415 . S
C724 C729 1.425 . S
C724 C731 1.409 . S
C725 H717 0.930 . S
C725 C723 1.419 . S
C725 C726 1.362 . S
C726 H718 0.930 . S
C726 C725 1.362 . S
C726 C729 1.409 . S
C727 H719 0.930 . S
C727 C728 1.355 . S
C727 C729 1.415 . S
C728 C727 1.355 . S
C728 C730 1.419 . S
C729 C724 1.425 . S
C729 C726 1.409 . S
C729 C727 1.415 . S
C730 H720 0.930 . S
C730 C728 1.419 . S
C730 C731 1.362 . S
C731 H721 0.930 . S
C731 C724 1.409 . S
C731 C730 1.362 . S
H732 C738 0.930 . S
H733 C741 0.930 . S
H734 C742 0.930 . S
H735 C743 0.930 . S
H736 C746 0.930 . S
H737 C747 0.930 . S
C738 H732 0.930 . S
C738 C739 1.355 . S
C738 C740 1.415 . S
C739 C738 1.355 . S
C739 C741 1.419 . S
C740 C738 1.415 . S
C740 C745 1.425 . S
C740 C747 1.409 . S
C741 H733 0.930 . S
C741 C739 1.419 . S
C741 C742 1.362 . S
C742 H734 0.930 . S
C742 C741 1.362 . S
C742 C745 1.409 . S
C743 H735 0.930 . S
C743 C744 1.355 . S
C743 C745 1.415 . S
C744 C743 1.355 . S
C744 C746 1.419 . S
C745 C740 1.425 . S
C745 C742 1.409 . S
C745 C743 1.415 . S
C746 H736 0.930 . S
C746 C744 1.419 . S
C746 C747 1.362 . S
C747 H737 0.930 . S
C747 C740 1.409 . S
C747 C746 1.362 . S
H748 C754 0.930 . S
H749 C757 0.930 . S
H750 C758 0.930 . S
H751 C759 0.930 . S
H752 C762 0.930 . S
H753 C763 0.930 . S
C754 H748 0.930 . S
C754 C755 1.355 . S
C754 C756 1.415 . S
C755 C754 1.355 . S
C755 C757 1.419 . S
C756 C754 1.415 . S
C756 C761 1.425 . S
C756 C763 1.409 . S
C757 H749 0.930 . S
C757 C755 1.419 . S
C757 C758 1.362 . S
C758 H750 0.930 . S
C758 C757 1.362 . S
C758 C761 1.409 . S
C759 H751 0.930 . S
C759 C760 1.355 . S
C759 C761 1.415 . S
C760 C759 1.355 . S
C760 C762 1.419 . S
C761 C756 1.425 . S
C761 C758 1.409 . S
C761 C759 1.415 . S
C762 H752 0.930 . S
C762 C760 1.419 . S
C762 C763 1.362 . S
C763 H753 0.930 . S
C763 C756 1.409 . S
C763 C762 1.362 . S
H764 C770 0.930 . S
H765 C773 0.930 . S
H766 C774 0.930 . S
H767 C775 0.930 . S
H768 C778 0.930 . S
H769 C779 0.930 . S
C770 H764 0.930 . S
C770 C771 1.355 . S
C770 C772 1.415 . S
C771 C770 1.355 . S
C771 C773 1.419 . S
C772 C770 1.415 . S
C772 C777 1.425 . S
C772 C779 1.409 . S
C773 H765 0.930 . S
C773 C771 1.419 . S
C773 C774 1.362 . S
C774 H766 0.930 . S
C774 C773 1.362 . S
C774 C777 1.409 . S
C775 H767 0.930 . S
C775 C776 1.355 . S
C775 C777 1.415 . S
C776 C775 1.355 . S
C776 C778 1.419 . S
C777 C772 1.425 . S
C777 C774 1.409 . S
C777 C775 1.415 . S
C778 H768 0.930 . S
C778 C776 1.419 . S
C778 C779 1.362 . S
C779 H769 0.930 . S
C779 C772 1.409 . S
C779 C778 1.362 . S
H780 C786 0.930 . S
H781 C789 0.930 . S
H782 C790 0.930 . S
H783 C791 0.930 . S
H784 C794 0.930 . S
H785 C795 0.930 . S
C786 H780 0.930 . S
C786 C787 1.355 . S
C786 C788 1.415 . S
C787 C786 1.355 . S
C787 C789 1.419 . S
C788 C786 1.415 . S
C788 C793 1.425 . S
C788 C795 1.409 . S
C789 H781 0.930 . S
C789 C787 1.419 . S
C789 C790 1.362 . S
C790 H782 0.930 . S
C790 C789 1.362 . S
C790 C793 1.409 . S
C791 H783 0.930 . S
C791 C792 1.355 . S
C791 C793 1.415 . S
C792 C791 1.355 . S
C792 C794 1.419 . S
C793 C788 1.425 . S
C793 C790 1.409 . S
C793 C791 1.415 . S
C794 H784 0.930 . S
C794 C792 1.419 . S
C794 C795 1.362 . S
C795 H785 0.930 . S
C795 C788 1.409 . S
C795 C794 1.362 . S
H796 C802 0.930 . S
H797 C805 0.930 . S
H798 C806 0.930 . S
H799 C807 0.930 . S
H800 C810 0.930 . S
H801 C811 0.930 . S
C802 H796 0.930 . S
C802 C803 1.355 . S
C802 C804 1.415 . S
C803 C802 1.355 . S
C803 C805 1.419 . S
C804 C802 1.415 . S
C804 C809 1.425 . S
C804 C811 1.409 . S
C805 H797 0.930 . S
C805 C803 1.419 . S
C805 C806 1.362 . S
C806 H798 0.930 . S
C806 C805 1.362 . S
C806 C809 1.409 . S
C807 H799 0.930 . S
C807 C808 1.355 . S
C807 C809 1.415 . S
C808 C807 1.355 . S
C808 C810 1.419 . S
C809 C804 1.425 . S
C809 C806 1.409 . S
C809 C807 1.415 . S
C810 H800 0.930 . S
C810 C808 1.419 . S
C810 C811 1.362 . S
C811 H801 0.930 . S
C811 C804 1.409 . S
C811 C810 1.362 . S
C440 C327 1.514 . S
C435 C15 1.572 . S
C456 C346 1.543 . S
C451 C55 1.571 . S
C472 C336 1.608 . S
C467 C101 1.577 . S
C488 C352 1.563 . S
C483 C141 1.641 . S
C504 C363 1.483 . S
C499 C2 1.509 . S
C520 C388 1.428 . S
C515 C61 1.488 . S
C531 C95 1.629 . S
C536 C406 1.534 . S
C552 C426 1.497 . S
C547 C135 1.545 . S
C568 C372 1.494 . S
C563 C42 1.499 . S
C579 C82 1.534 . S
C584 C382 1.490 . S
C600 C400 1.570 . S
C595 C122 1.654 . S
C616 C417 1.431 . S
C611 C21 1.488 . S
C627 C162 1.677 . S
C632 C345 1.578 . S
C648 C328 1.570 . S
C643 C221 1.647 . S
C659 C255 1.619 . S
C664 C354 1.584 . S
C675 C282 1.582 . S
C680 C334 1.554 . S
C696 C408 1.605 . S
C691 C181 1.743 . S
C712 C418 1.451 . S
C707 C202 1.555 . S
C728 C364 1.536 . S
C723 C242 1.626 . S
C739 C301 1.507 . S
C744 C381 1.440 . S
C760 C399 1.589 . S
C755 C215 1.701 . S
C776 C424 1.513 . S
C771 C261 1.562 . S
C792 C370 1.569 . S
C787 C295 1.615 . S
C803 C175 1.568 . S
C808 C390 1.514 . S
