# Generated by pormake.
# Topology ant, (3,6)-cn, num edge types: 1
# Building blocks:
#     Node 0, Type 0, BuildingBlock: ESEHIV_clean_linker_0, # of connection points: 3
#     Node 1, Type 0, BuildingBlock: ESEHIV_clean_linker_0, # of connection points: 3
#     Node 2, Type 0, BuildingBlock: ESEHIV_clean_linker_0, # of connection points: 3
#     Node 3, Type 0, BuildingBlock: ESEHIV_clean_linker_0, # of connection points: 3
#     Node 4, Type 0, BuildingBlock: ESEHIV_clean_linker_0, # of connection points: 3
#     Node 5, Type 0, BuildingBlock: ESEHIV_clean_linker_0, # of connection points: 3
#     Node 6, Type 0, BuildingBlock: ESEHIV_clean_linker_0, # of connection points: 3
#     Node 7, Type 0, BuildingBlock: ESEHIV_clean_linker_0, # of connection points: 3
#     Node 8, Type 1, BuildingBlock: MIDCAF_clean_sbu_0, # of connection points: 6
#     Node 9, Type 1, BuildingBlock: MIDCAF_clean_sbu_0, # of connection points: 6
#     Node 10, Type 1, BuildingBlock: MIDCAF_clean_sbu_0, # of connection points: 6
#     Node 11, Type 1, BuildingBlock: MIDCAF_clean_sbu_0, # of connection points: 6
#     Edge 12, Type (0, 1), BuildingBlock: XIVTED_clean_linker_0, # of connection points: 2
#     Edge 13, Type (0, 1), BuildingBlock: XIVTED_clean_linker_0, # of connection points: 2
#     Edge 14, Type (0, 1), BuildingBlock: XIVTED_clean_linker_0, # of connection points: 2
#     Edge 15, Type (0, 1), BuildingBlock: XIVTED_clean_linker_0, # of connection points: 2
#     Edge 16, Type (0, 1), BuildingBlock: XIVTED_clean_linker_0, # of connection points: 2
#     Edge 17, Type (0, 1), BuildingBlock: XIVTED_clean_linker_0, # of connection points: 2
#     Edge 18, Type (0, 1), BuildingBlock: XIVTED_clean_linker_0, # of connection points: 2
#     Edge 19, Type (0, 1), BuildingBlock: XIVTED_clean_linker_0, # of connection points: 2
#     Edge 20, Type (0, 1), BuildingBlock: XIVTED_clean_linker_0, # of connection points: 2
#     Edge 21, Type (0, 1), BuildingBlock: XIVTED_clean_linker_0, # of connection points: 2
#     Edge 22, Type (0, 1), BuildingBlock: XIVTED_clean_linker_0, # of connection points: 2
#     Edge 23, Type (0, 1), BuildingBlock: XIVTED_clean_linker_0, # of connection points: 2
#     Edge 24, Type (0, 1), BuildingBlock: XIVTED_clean_linker_0, # of connection points: 2
#     Edge 25, Type (0, 1), BuildingBlock: XIVTED_clean_linker_0, # of connection points: 2
#     Edge 26, Type (0, 1), BuildingBlock: XIVTED_clean_linker_0, # of connection points: 2
#     Edge 27, Type (0, 1), BuildingBlock: XIVTED_clean_linker_0, # of connection points: 2
#     Edge 28, Type (0, 1), BuildingBlock: XIVTED_clean_linker_0, # of connection points: 2
#     Edge 29, Type (0, 1), BuildingBlock: XIVTED_clean_linker_0, # of connection points: 2
#     Edge 30, Type (0, 1), BuildingBlock: XIVTED_clean_linker_0, # of connection points: 2
#     Edge 31, Type (0, 1), BuildingBlock: XIVTED_clean_linker_0, # of connection points: 2
#     Edge 32, Type (0, 1), BuildingBlock: XIVTED_clean_linker_0, # of connection points: 2
#     Edge 33, Type (0, 1), BuildingBlock: XIVTED_clean_linker_0, # of connection points: 2
#     Edge 34, Type (0, 1), BuildingBlock: XIVTED_clean_linker_0, # of connection points: 2
#     Edge 35, Type (0, 1), BuildingBlock: XIVTED_clean_linker_0, # of connection points: 2
# Relax obj value: 0.103
# Max RMSD: 0.160
# Mean RMSD: 0.105
data_MOF--net-ant--node1-MIDCAF_clean_sbu_0--node2-ESEHIV_clean_linker_0--edge1-XIVTED_clean_linker_0
_symmetry_space_group_name_H-M    P1
_symmetry_Int_Tables_number       1
_symmetry_cell_setting            triclinic
loop_
_symmetry_equiv_pos_as_xyz
'x, y, z'
_cell_length_a     26.293599
_cell_length_b     26.158164
_cell_length_c     72.703315
_cell_angle_alpha  90.010156
_cell_angle_beta   93.979934
_cell_angle_gamma 90.089916
loop_
_atom_site_label
_atom_site_type_symbol
_atom_site_fract_x
_atom_site_fract_y
_atom_site_fract_z
_atom_type_partial_charge
H0 H 0.21762 0.32221 0.0341 0.0
H1 H 0.26 0.16666 0.04549 0.0
H2 H 0.28793 0.28141 0.08741 0.0
C3 C 0.23384 0.29379 0.04364 0.0
C4 C 0.253 0.30847 0.06138 0.0
C5 C 0.23679 0.24283 0.03786 0.0
C6 C 0.25924 0.20627 0.04986 0.0
C7 C 0.27756 0.21976 0.06781 0.0
C8 C 0.27445 0.27099 0.07349 0.0
H9 H 0.95443 0.80976 0.28 0.0
H10 H 0.11539 0.83791 0.28674 0.0
H11 H 0.02834 0.82563 0.33446 0.0
C12 C 0.98823 0.81774 0.28895 0.0
C13 C 0.98543 0.81779 0.30817 0.0
C14 C 0.03486 0.82583 0.28117 0.0
C15 C 0.07895 0.83445 0.29276 0.0
C16 C 0.07719 0.83368 0.31201 0.0
C17 C 0.03007 0.82602 0.31961 0.0
H18 H 0.69795 0.7736 0.5291 0.0
H19 H 0.74003 0.61644 0.53718 0.0
H20 H 0.79278 0.72907 0.57718 0.0
C21 C 0.7175 0.74434 0.53742 0.0
C22 C 0.74554 0.75798 0.55388 0.0
C23 C 0.71555 0.69342 0.53129 0.0
C24 C 0.74262 0.65597 0.54163 0.0
C25 C 0.77076 0.66848 0.55815 0.0
C26 C 0.77185 0.71952 0.56427 0.0
H27 H 0.4723 0.26234 0.77353 0.0
H28 H 0.63501 0.2538 0.78189 0.0
H29 H 0.54362 0.25712 0.8288 0.0
C30 C 0.50629 0.26113 0.78287 0.0
C31 C 0.50206 0.26116 0.802 0.0
C32 C 0.55402 0.25889 0.77566 0.0
C33 C 0.598 0.25637 0.78757 0.0
C34 C 0.59466 0.25534 0.80671 0.0
C35 C 0.5465 0.25792 0.814 0.0
H36 H 0.02684 0.64753 0.9458 0.0
H37 H 0.06646 0.80602 0.95093 0.0
H38 H 0.98507 0.75088 0.90128 0.0
C39 C 0.02539 0.68595 0.94021 0.0
C40 C 1.00147 0.69472 0.9226 0.0
C41 C 0.04986 0.72562 0.95029 0.0
C42 C 0.04936 0.77506 0.94276 0.0
C43 C 0.02621 0.78506 0.92507 0.0
C44 C 0.00241 0.74431 0.91503 0.0
H45 H 0.61922 0.84332 0.20341 0.0
H46 H 0.77683 0.80033 0.20708 0.0
H47 H 0.70629 0.85677 0.15572 0.0
C48 C 0.65526 0.84074 0.19707 0.0
C49 C 0.6576 0.85303 0.17836 0.0
C50 C 0.69795 0.82175 0.20746 0.0
C51 C 0.74398 0.81566 0.1991 0.0
C52 C 0.74751 0.82857 0.18045 0.0
C53 C 0.70399 0.84688 0.17011 0.0
H54 H 0.52269 0.10466 0.44306 0.0
H55 H 0.56358 0.26157 0.45328 0.0
H56 H 0.47374 0.22014 0.40368 0.0
C57 C 0.52044 0.1445 0.43898 0.0
C58 C 0.49418 0.15811 0.42222 0.0
C59 C 0.54618 0.18138 0.45009 0.0
C60 C 0.54493 0.23277 0.44446 0.0
C61 C 0.51839 0.24743 0.42784 0.0
C62 C 0.49338 0.20963 0.41673 0.0
H63 H 0.14257 0.30285 0.7042 0.0
H64 H 0.30265 0.27021 0.70937 0.0
H65 H 0.22939 0.31021 0.6563 0.0
C66 C 0.17873 0.30039 0.69793 0.0
C67 C 0.1806 0.30885 0.67894 0.0
C68 C 0.22231 0.28624 0.7089 0.0
C69 C 0.26886 0.28054 0.7008 0.0
C70 C 0.27214 0.29011 0.68183 0.0
C71 C 0.22757 0.30373 0.67096 0.0
Zn72 Zn 0.24809 0.72118 0.14501 0.0
Zn73 Zn 0.14689 0.83017 0.09826 0.0
Zn74 Zn 0.19824 0.77655 0.11908 0.0
C75 C 0.18196 0.75537 0.07664 0.0
C76 C 0.2204 0.89319 0.11292 0.0
O77 O 0.15513 0.77238 0.14418 0.0
O78 O 0.19711 0.72028 0.16387 0.0
C79 C 0.23576 0.66156 0.11257 0.0
O80 O 0.18714 0.73424 0.09266 0.0
O81 O 0.17256 0.80254 0.0753 0.0
O82 O 0.1738 0.89696 0.10771 0.0
O83 O 0.24042 0.84871 0.11558 0.0
O84 O 0.25557 0.66121 0.1289 0.0
O85 O 0.21137 0.7012 0.10622 0.0
O86 O 0.27245 0.81456 0.12575 0.0
O87 O 0.30739 0.76829 0.1488 0.0
C88 C 0.30932 0.8057 0.1379 0.0
O89 O 0.12256 0.79255 0.12977 0.0
O90 O 0.07664 0.81089 0.10407 0.0
C91 C 0.15985 0.7495 0.15992 0.0
C92 C 0.07893 0.8009 0.12107 0.0
Zn93 Zn 0.49096 0.6566 0.34203 0.0
Zn94 Zn 0.58616 0.77242 0.38608 0.0
Zn95 Zn 0.53817 0.71804 0.36648 0.0
C96 C 0.51177 0.833 0.37197 0.0
C97 C 0.65488 0.74747 0.36373 0.0
O98 O 0.53377 0.64136 0.37976 0.0
O99 O 0.49936 0.59388 0.35694 0.0
C100 C 0.42162 0.73272 0.35241 0.0
O101 O 0.49222 0.78787 0.37054 0.0
O102 O 0.55909 0.83788 0.37564 0.0
O103 O 0.65719 0.75382 0.38095 0.0
O104 O 0.6113 0.73964 0.35492 0.0
O105 O 0.42402 0.69199 0.34317 0.0
O106 O 0.46145 0.7506 0.36147 0.0
O107 O 0.57816 0.71914 0.34082 0.0
O108 O 0.5343 0.66894 0.32093 0.0
C109 C 0.57082 0.6995 0.32459 0.0
O110 O 0.55477 0.67731 0.39295 0.0
O111 O 0.55987 0.74797 0.40942 0.0
C112 C 0.51756 0.59782 0.37341 0.0
C113 C 0.5564 0.69993 0.40871 0.0
Zn114 Zn 0.66548 0.28895 0.59307 0.0
Zn115 Zn 0.77128 0.16787 0.63987 0.0
Zn116 Zn 0.71968 0.22708 0.61503 0.0
C117 C 0.83261 0.25293 0.63387 0.0
C118 C 0.75541 0.11046 0.60735 0.0
O119 O 0.6442 0.24554 0.62658 0.0
O120 O 0.60332 0.29685 0.60646 0.0
C121 C 0.75609 0.33957 0.60231 0.0
O122 O 0.795 0.26374 0.62219 0.0
O123 O 0.83116 0.21381 0.64398 0.0
O124 O 0.77742 0.10855 0.62333 0.0
O125 O 0.73115 0.15114 0.60183 0.0
O126 O 0.71366 0.34648 0.59351 0.0
O127 O 0.76591 0.29717 0.61085 0.0
O128 O 0.70516 0.18407 0.58913 0.0
O129 O 0.66311 0.24198 0.57182 0.0
C130 C 0.68258 0.19809 0.57369 0.0
O131 O 0.67728 0.22076 0.63984 0.0
O132 O 0.71986 0.16656 0.65859 0.0
C133 C 0.60434 0.27206 0.62135 0.0
C134 C 0.68244 0.19603 0.65518 0.0
Zn135 Zn 0.9908 0.13235 0.83891 0.0
Zn136 Zn 0.11858 0.3196 0.88166 0.0
Zn137 Zn 0.06025 0.24974 0.86961 0.0
C138 C 0.12337 0.24188 0.90832 0.0
C139 C 0.02236 0.36399 0.87691 0.0
O140 O 0.0809 0.21989 0.8413 0.0
O141 O 0.04848 0.1548 0.82315 0.0
C142 C 0.03606 0.14846 0.87947 0.0
O143 O 0.08943 0.22187 0.89693 0.0
O144 O 0.14334 0.28439 0.90481 0.0
O145 O 0.06769 0.37455 0.88243 0.0
O146 O 0.0103 0.31848 0.87141 0.0
O147 O 0.01892 0.16005 0.86336 0.0
O148 O 0.05844 0.18472 0.88851 0.0
O149 O 0.98194 0.27572 0.86478 0.0
O150 O 0.98393 0.2012 0.85233 0.0
C151 C 0.95754 0.23977 0.8562 0.0
O152 O 0.12241 0.25495 0.85117 0.0
O153 O 0.16576 0.32217 0.86194 0.0
C154 C 0.07983 0.19196 0.82638 0.0
C155 C 0.16002 0.28617 0.85047 0.0
H156 H 0.17452 0.37698 0.05476 0.0
H157 H 0.31676 0.59816 0.114 0.0
H158 H 0.3264 0.36427 0.08093 0.0
H159 H 0.16799 0.61885 0.08621 0.0
H160 H 0.32264 0.51468 0.09967 0.0
H161 H 0.1724 0.46677 0.06421 0.0
C162 C 0.20755 0.39312 0.0624 0.0
C163 C 0.25068 0.3629 0.06714 0.0
C164 C 0.28881 0.53744 0.09648 0.0
C165 C 0.24832 0.46556 0.07805 0.0
C166 C 0.28548 0.58524 0.10465 0.0
C167 C 0.24167 0.61525 0.10134 0.0
C168 C 0.2477 0.51886 0.08507 0.0
C169 C 0.2025 0.5969 0.089 0.0
C170 C 0.20624 0.44436 0.06781 0.0
C171 C 0.29205 0.38574 0.07723 0.0
N172 N 0.20611 0.54941 0.08147 0.0
N173 N 0.28977 0.43554 0.08236 0.0
H174 H 0.96936 0.7547 0.33726 0.0
H175 H 0.66934 0.80714 0.33409 0.0
H176 H 0.88999 0.85314 0.29724 0.0
H177 H 0.74737 0.70433 0.37259 0.0
H178 H 0.74891 0.82121 0.31929 0.0
H179 H 0.88821 0.7343 0.34996 0.0
C180 C 0.93489 0.77237 0.33124 0.0
C181 C 0.93649 0.80596 0.31624 0.0
C182 C 0.74862 0.7949 0.33078 0.0
C183 C 0.8433 0.78212 0.33052 0.0
C184 C 0.70293 0.78605 0.33891 0.0
C185 C 0.70159 0.75296 0.35397 0.0
C186 C 0.79349 0.77114 0.33806 0.0
C187 C 0.74693 0.72955 0.36077 0.0
C188 C 0.8885 0.76035 0.3384 0.0
C189 C 0.89046 0.82682 0.30874 0.0
N190 N 0.79115 0.7391 0.35276 0.0
N191 N 0.84577 0.81466 0.31599 0.0
H192 H 0.76601 0.65024 0.59514 0.0
H193 H 0.82832 0.36086 0.57858 0.0
H194 H 0.83068 0.59116 0.54657 0.0
H195 H 0.75984 0.41789 0.62655 0.0
H196 H 0.85641 0.4476 0.57173 0.0
H197 H 0.78886 0.57055 0.61129 0.0
C198 C 0.78635 0.62107 0.58804 0.0
C199 C 0.7954 0.62674 0.56936 0.0
C200 C 0.83684 0.44108 0.58415 0.0
C201 C 0.82088 0.53518 0.58761 0.0
C202 C 0.8215 0.3914 0.58817 0.0
C203 C 0.79192 0.38259 0.60313 0.0
C204 C 0.82119 0.4821 0.59493 0.0
C205 C 0.7829 0.42341 0.61493 0.0
C206 C 0.79918 0.57543 0.59723 0.0
C207 C 0.82185 0.58773 0.56084 0.0
N208 N 0.79634 0.4717 0.61034 0.0
N209 N 0.83277 0.54327 0.5699 0.0
H210 H 0.65515 0.17195 0.80927 0.0
H211 H 0.89122 0.31925 0.86108 0.0
H212 H 0.64357 0.32578 0.82963 0.0
H213 H 0.89776 0.16622 0.8392 0.0
H214 H 0.79943 0.32134 0.85206 0.0
H215 H 0.74214 0.16697 0.82327 0.0
C216 C 0.67079 0.20427 0.81711 0.0
C217 C 0.64233 0.24912 0.81849 0.0
C218 C 0.82101 0.28731 0.84929 0.0
C219 C 0.74251 0.24461 0.83406 0.0
C220 C 0.8734 0.28616 0.85437 0.0
C221 C 0.90229 0.24264 0.85075 0.0
C222 C 0.79745 0.24457 0.84058 0.0
C223 C 0.87719 0.20074 0.84214 0.0
C224 C 0.72057 0.20168 0.82497 0.0
C225 C 0.66433 0.29033 0.82851 0.0
N226 N 0.82641 0.20283 0.83734 0.0
N227 N 0.71345 0.28732 0.83578 0.0
H228 H 0.94048 0.61839 0.93461 0.0
H229 H 0.00933 0.44027 0.85209 0.0
H230 H 0.01235 0.66988 0.88637 0.0
H231 H 0.9576 0.38534 0.90336 0.0
H232 H 0.9822 0.52656 0.85982 0.0
H233 H 0.92045 0.53702 0.91921 0.0
C234 C 0.95126 0.61288 0.92063 0.0
C235 C 0.97919 0.65056 0.91192 0.0
C236 C 0.97499 0.49544 0.86912 0.0
C237 C 0.95639 0.55738 0.8942 0.0
C238 C 0.98971 0.44603 0.86455 0.0
C239 C 0.98533 0.40583 0.87708 0.0
C240 C 0.95671 0.50468 0.88651 0.0
C241 C 0.96105 0.41537 0.89327 0.0
C242 C 0.93967 0.56646 0.91183 0.0
C243 C 0.99111 0.64183 0.89366 0.0
N244 N 0.94868 0.46409 0.89774 0.0
N245 N 0.98052 0.59579 0.88554 0.0
H246 H 0.76337 0.78777 0.14659 0.0
H247 H 0.06235 0.84712 0.15348 0.0
H248 H 0.84322 0.85473 0.19459 0.0
H249 H 0.98725 0.75917 0.10959 0.0
H250 H 0.9827 0.85001 0.169 0.0
H251 H 0.84468 0.77815 0.13255 0.0
C252 C 0.79801 0.80065 0.15413 0.0
C253 C 0.79653 0.82223 0.17176 0.0
C254 C 0.98368 0.82936 0.15612 0.0
C255 C 0.88973 0.811 0.15585 0.0
C256 C 0.02942 0.82685 0.14753 0.0
C257 C 0.0317 0.80104 0.13077 0.0
C258 C 0.93957 0.80681 0.14759 0.0
C259 C 0.98703 0.77885 0.12269 0.0
C260 C 0.84445 0.79481 0.14617 0.0
C261 C 0.84267 0.83751 0.18104 0.0
N262 N 0.9427 0.78226 0.13117 0.0
N263 N 0.88735 0.8318 0.17294 0.0
H264 H 0.43704 0.30073 0.41218 0.0
H265 H 0.58979 0.56304 0.39989 0.0
H266 H 0.59557 0.31907 0.4307 0.0
H267 H 0.44284 0.52732 0.37296 0.0
H268 H 0.58905 0.47963 0.41575 0.0
H269 H 0.43525 0.38928 0.40181 0.0
C270 C 0.47158 0.32331 0.414 0.0
C271 C 0.51666 0.30209 0.42212 0.0
C272 C 0.55679 0.49048 0.40652 0.0
C273 C 0.51477 0.40422 0.41045 0.0
C274 C 0.55705 0.53815 0.39765 0.0
C275 C 0.51642 0.55182 0.38512 0.0
C276 C 0.51536 0.45692 0.40286 0.0
C277 C 0.47518 0.51797 0.3824 0.0
C278 C 0.47047 0.37408 0.40818 0.0
C279 C 0.55989 0.33384 0.42457 0.0
N280 N 0.47579 0.4722 0.39112 0.0
N281 N 0.55799 0.38324 0.41865 0.0
H282 H 0.10397 0.37417 0.68707 0.0
H283 H 0.9066 0.25749 0.60961 0.0
H284 H 0.14665 0.2683 0.64534 0.0
H285 H 0.86605 0.3142 0.66221 0.0
H286 H 0.99478 0.28658 0.61689 0.0
H287 H 0.01776 0.37736 0.67223 0.0
C288 C 0.09543 0.35218 0.67461 0.0
C289 C 0.13231 0.31992 0.6677 0.0
C290 C 0.96621 0.29399 0.62659 0.0
C291 C 0.03365 0.3238 0.65056 0.0
C292 C 0.91593 0.27795 0.62236 0.0
C293 C 0.87936 0.2839 0.63532 0.0
C294 C 0.97953 0.31628 0.64385 0.0
C295 C 0.8933 0.30939 0.65184 0.0
C296 C 0.04623 0.35414 0.66614 0.0
C297 C 0.1194 0.29342 0.65122 0.0
N298 N 0.9424 0.32429 0.65571 0.0
N299 N 0.07086 0.29528 0.64337 0.0
H300 H 0.31133 0.35696 0.65758 0.0
H301 H 0.56492 0.19721 0.64305 0.0
H302 H 0.34738 0.21725 0.68717 0.0
H303 H 0.53868 0.35131 0.62369 0.0
H304 H 0.48569 0.20165 0.65908 0.0
H305 H 0.3936 0.35275 0.64409 0.0
C306 C 0.33645 0.32516 0.66115 0.0
C307 C 0.32223 0.28729 0.67346 0.0
C308 C 0.49761 0.23463 0.65147 0.0
C309 C 0.41717 0.28237 0.65814 0.0
C310 C 0.54309 0.23229 0.6425 0.0
C311 C 0.55892 0.27429 0.63232 0.0
C312 C 0.46733 0.27893 0.64989 0.0
C313 C 0.52806 0.31807 0.63143 0.0
C314 C 0.38369 0.32297 0.65356 0.0
C315 C 0.35689 0.24745 0.67782 0.0
N316 N 0.48383 0.31916 0.64001 0.0
N317 N 0.40264 0.24587 0.6701 0.0
H318 H 0.62325 0.81991 0.14386 0.0
H319 H 0.34312 0.86595 0.16638 0.0
H320 H 0.58306 0.91892 0.18803 0.0
H321 H 0.38092 0.81396 0.11284 0.0
H322 H 0.43017 0.89765 0.1723 0.0
H323 H 0.53666 0.82853 0.12965 0.0
C324 C 0.59667 0.84462 0.15031 0.0
C325 C 0.61003 0.8677 0.16741 0.0
C326 C 0.41931 0.88065 0.15902 0.0
C327 C 0.51062 0.87685 0.15143 0.0
C328 C 0.36958 0.8628 0.15566 0.0
C329 C 0.35534 0.83752 0.13915 0.0
C330 C 0.45541 0.87134 0.14603 0.0
C331 C 0.39079 0.83359 0.12571 0.0
C332 C 0.54711 0.84939 0.14222 0.0
C333 C 0.57391 0.89919 0.17513 0.0
N334 N 0.43977 0.84916 0.12962 0.0
N335 N 0.5256 0.90195 0.16731 0.0
H336 H 0.45846 0.1962 0.826 0.0
H337 H 0.20425 0.35674 0.82954 0.0
H338 H 0.42835 0.33115 0.79302 0.0
H339 H 0.21119 0.19761 0.84477 0.0
H340 H 0.2864 0.34846 0.81606 0.0
H341 H 0.3695 0.19736 0.83452 0.0
C342 C 0.43322 0.22633 0.82076 0.0
C343 C 0.45057 0.26383 0.80892 0.0
C344 C 0.26964 0.31502 0.82202 0.0
C345 C 0.3493 0.26503 0.81829 0.0
C346 C 0.22267 0.3197 0.82959 0.0
C347 C 0.20121 0.27775 0.83817 0.0
C348 C 0.29603 0.26843 0.82359 0.0
C349 C 0.22657 0.23067 0.8381 0.0
C350 C 0.38245 0.22658 0.82538 0.0
C351 C 0.41633 0.30162 0.80222 0.0
N352 N 0.27333 0.22745 0.83125 0.0
N353 N 0.36744 0.30142 0.80707 0.0
H354 H 0.16238 0.8938 0.30926 0.0
H355 H 0.33425 0.68868 0.36131 0.0
H356 H 0.10274 0.77171 0.34143 0.0
H357 H 0.39617 0.83239 0.34438 0.0
H358 H 0.2486 0.7241 0.35709 0.0
H359 H 0.24707 0.87892 0.32455 0.0
C360 C 0.1669 0.86456 0.3198 0.0
C361 C 0.12556 0.83341 0.32386 0.0
C362 C 0.28075 0.74846 0.35461 0.0
C363 C 0.22218 0.81605 0.34128 0.0
C364 C 0.32958 0.72816 0.357 0.0
C365 C 0.37185 0.7577 0.35305 0.0
C366 C 0.27397 0.79824 0.34764 0.0
C367 C 0.36421 0.8086 0.34755 0.0
C368 C 0.21518 0.85625 0.32857 0.0
C369 C 0.13337 0.79667 0.33782 0.0
N370 N 0.3159 0.82707 0.34459 0.0
N371 N 0.18088 0.78841 0.34577 0.0
H372 H 0.6679 0.82877 0.55204 0.0
H373 H 0.83347 0.04356 0.60628 0.0
H374 H 0.82712 0.81168 0.56971 0.0
H375 H 0.68103 0.07113 0.58271 0.0
H376 H 0.83252 0.96005 0.59147 0.0
H377 H 0.67205 0.91809 0.56197 0.0
C378 C 0.70387 0.8438 0.55788 0.0
C379 C 0.74725 0.81237 0.56007 0.0
C380 C 0.7994 0.98442 0.58929 0.0
C381 C 0.75201 0.91475 0.57164 0.0
C382 C 0.79998 0.03223 0.59771 0.0
C383 C 0.75724 0.06428 0.5957 0.0
C384 C 0.75539 0.96788 0.57895 0.0
C385 C 0.71494 0.04778 0.58442 0.0
C386 C 0.70612 0.89485 0.56359 0.0
C387 C 0.79248 0.83399 0.56801 0.0
N388 N 0.71479 1.00032 0.57664 0.0
N389 N 0.79359 0.88365 0.57354 0.0
H390 H 0.34242 0.14004 0.06241 0.0
H391 H 0.1961 0.97895 0.13097 0.0
H392 H 0.24907 0.20528 0.10284 0.0
H393 H 0.31188 0.91459 0.09886 0.0
H394 H 0.23158 0.06383 0.12664 0.0
H395 H 0.34889 0.06115 0.08043 0.0
C396 C 0.32439 0.13815 0.07535 0.0
C397 C 0.2941 0.1787 0.08093 0.0
C398 C 0.25027 0.03125 0.12088 0.0
C399 C 0.30071 0.08846 0.10147 0.0
C400 C 0.23001 0.98278 0.12341 0.0
C401 C 0.25071 0.94025 0.11497 0.0
C402 C 0.29033 0.03733 0.10925 0.0
C403 C 0.29472 0.9468 0.10543 0.0
C404 C 0.32817 0.09315 0.08566 0.0
C405 C 0.27237 0.17475 0.09794 0.0
N406 N 0.31229 0.99481 0.10234 0.0
N407 N 0.27506 0.12993 0.10738 0.0
H408 H 0.50188 0.14663 0.38509 0.0
H409 H 0.4288 0.85346 0.3913 0.0
H410 H 0.43578 0.0764 0.43154 0.0
H411 H 0.52691 0.91891 0.35249 0.0
H412 H 0.40142 0.93995 0.39932 0.0
H413 H 0.48144 0.06986 0.36687 0.0
C414 C 0.48179 0.11563 0.39131 0.0
C415 C 0.47162 0.11735 0.40998 0.0
C416 C 0.42759 0.93526 0.38858 0.0
C417 C 0.44884 0.02913 0.38932 0.0
C418 C 0.44274 0.88595 0.38389 0.0
C419 C 0.48062 0.87956 0.37147 0.0
C420 C 0.45056 0.97786 0.3807 0.0
C421 C 0.498 0.92263 0.36231 0.0
C422 C 0.47034 0.07168 0.38093 0.0
C423 C 0.44553 0.076 0.41731 0.0
N424 N 0.48356 0.97007 0.36735 0.0
N425 N 0.43589 0.03317 0.40707 0.0
H426 H 0.95243 0.83495 0.90284 0.0
H427 H 0.09125 0.10667 0.90913 0.0
H428 H 0.10291 0.85686 0.9295 0.0
H429 H 0.97658 0.06948 0.86584 0.0
H430 H 0.08906 0.0178 0.91982 0.0
H431 H 0.95455 0.92306 0.89156 0.0
C432 C 0.98607 0.85791 0.90624 0.0
C433 C 0.02737 0.83807 0.91733 0.0
C434 C 0.06443 0.02913 0.90797 0.0
C435 C 0.02933 0.93966 0.90479 0.0
C436 C 0.06551 0.07987 0.90192 0.0
C437 C 0.03425 0.0954 0.88652 0.0
C438 C 0.03125 0.99388 0.89874 0.0
C439 C 1.0016 0.05903 0.87769 0.0
C440 C 0.98705 0.90839 0.89988 0.0
C441 C 0.06952 0.87043 0.92144 0.0
N442 N 1.00077 0.01005 0.88397 0.0
N443 N 0.06922 0.91953 0.9153 0.0
H444 H 0.14163 0.2611 0.02193 0.0
H445 H 0.21864 0.22078 0.92249 0.0
H446 H 0.28484 0.18997 0.01179 0.0
H447 H 0.06085 0.21254 0.9347 0.0
H448 H 0.2439 0.20454 0.95496 0.0
H449 H 0.11014 0.24147 0.99019 0.0
C450 C 0.16621 0.24101 0.013 0.0
C451 C 0.21602 0.22769 0.01928 0.0
C452 C 0.20374 0.20482 0.9505 0.0
C453 C 0.18058 0.20531 0.98315 0.0
C454 C 0.1894 0.21395 0.93201 0.0
C455 C 0.13776 0.21802 0.92612 0.0
C456 C 0.16607 0.20168 0.96321 0.0
C457 C 0.10108 0.20941 0.93884 0.0
C458 C 0.14812 0.22935 -0.00499 0.0
C459 C 0.24626 0.20108 0.00736 0.0
N460 N 0.11595 0.20298 0.95699 0.0
N461 N 0.2284 0.19158 0.98971 0.0
H462 H 0.9986 0.74761 0.25904 0.0
H463 H 0.14647 0.84426 0.17312 0.0
H464 H 0.08217 0.88946 0.25794 0.0
H465 H 0.10333 0.6872 0.18079 0.0
H466 H 0.10366 0.86776 0.20073 0.0
H467 H 0.01747 0.73181 0.22698 0.0
C468 C 0.01998 0.77593 0.2519 0.0
C469 C 0.03921 0.81975 0.26112 0.0
C470 C 0.10274 0.82828 0.19623 0.0
C471 C 0.06115 0.80177 0.22466 0.0
C472 C 0.12679 0.81498 0.18045 0.0
C473 C 0.12735 0.76402 0.17463 0.0
C474 C 0.07985 0.79007 0.20641 0.0
C475 C 0.10288 0.72706 0.1848 0.0
C476 C 0.03102 0.76671 0.23369 0.0
C477 C 0.06715 0.85497 0.25134 0.0
N478 N 0.08014 0.74079 0.2003 0.0
N479 N 0.07756 0.84507 0.23367 0.0
H480 H 0.74207 0.62968 0.50354 0.0
H481 H 0.50104 0.71123 0.43837 0.0
H482 H 0.61893 0.72422 0.52012 0.0
H483 H 0.63008 0.63107 0.41917 0.0
H484 H 0.53269 0.69435 0.47015 0.0
H485 H 0.69263 0.61117 0.47451 0.0
C486 C 0.70437 0.64605 0.50116 0.0
C487 C 0.68489 0.67924 0.51412 0.0
C488 C 0.55342 0.67901 0.45903 0.0
C489 C 0.62816 0.65814 0.48099 0.0
C490 C 0.53492 0.68803 0.4409 0.0
C491 C 0.56295 0.67222 0.42624 0.0
C492 C 0.60092 0.65509 0.46246 0.0
C493 C 0.60704 0.64312 0.43015 0.0
C494 C 0.67619 0.63545 0.4846 0.0
C495 C 0.6359 0.69941 0.51032 0.0
N496 N 0.62542 0.63647 0.44795 0.0
N497 N 0.60944 0.68887 0.49406 0.0
H498 H 0.60163 0.32582 0.75397 0.0
H499 H 0.64161 0.12685 0.6779 0.0
H500 H 0.51712 0.18441 0.75237 0.0
H501 H 0.64674 0.28798 0.66569 0.0
H502 H 0.59517 0.14605 0.70516 0.0
H503 H 0.61866 0.31363 0.72151 0.0
C504 C 0.58604 0.29268 0.74661 0.0
C505 C 0.55827 0.25588 0.75565 0.0
C506 C 0.60549 0.17709 0.69628 0.0
C507 C 0.57822 0.24115 0.71899 0.0
C508 C 0.6321 0.16616 0.68085 0.0
C509 C 0.64791 0.20598 0.66973 0.0
C510 C 0.59635 0.22824 0.70085 0.0
C511 C 0.63497 0.25633 0.67401 0.0
C512 C 0.59547 0.28583 0.72815 0.0
C513 C 0.53872 0.2135 0.74572 0.0
N514 N 0.61073 0.26622 0.6895 0.0
N515 N 0.54997 0.20666 0.72794 0.0
H516 H 0.01787 0.66712 0.97872 0.0
H517 H 0.2419 0.76795 0.04832 0.0
H518 H 0.14374 0.76016 0.96336 0.0
H519 H 0.11425 0.68111 0.06543 0.0
H520 H 0.21737 0.74627 0.01627 0.0
H521 H 0.06112 0.6556 0.00939 0.0
C522 C 0.05487 0.68464 0.98173 0.0
C523 C 0.07683 0.71541 0.96857 0.0
C524 C 0.1954 0.73061 0.027 0.0
C525 C 0.12654 0.70232 0.00359 0.0
C526 C 0.20991 0.7424 0.04531 0.0
C527 C 0.18018 0.72595 0.05943 0.0
C528 C 0.15002 0.70332 0.02278 0.0
C529 C 0.13848 0.69387 0.05488 0.0
C530 C 0.07953 0.67804 -0.00077 0.0
C531 C 0.12481 0.73718 0.97322 0.0
N532 N 0.12385 0.6845 0.03686 0.0
N533 N 0.14779 0.73057 0.99036 0.0
H534 H 0.72329 0.72964 0.22339 0.0
H535 H 0.58982 0.79755 0.31596 0.0
H536 H 0.65927 0.8768 0.23504 0.0
H537 H 0.61628 0.64303 0.29858 0.0
H538 H 0.63249 0.82927 0.28939 0.0
H539 H 0.70167 0.69968 0.25392 0.0
C540 C 0.70564 0.75588 0.23255 0.0
C541 C 0.69265 0.80559 0.22673 0.0
C542 C 0.62965 0.7884 0.29147 0.0
C543 C 0.66764 0.77172 0.2614 0.0
C544 C 0.60579 0.77036 0.30671 0.0
C545 C 0.60073 0.71779 0.30957 0.0
C546 C 0.64791 0.75349 0.27884 0.0
C547 C 0.6201 0.68394 0.29686 0.0
C548 C 0.69298 0.7387 0.24986 0.0
C549 C 0.66942 0.83803 0.23899 0.0
N550 N 0.64288 0.70238 0.28197 0.0
N551 N 0.65741 0.82045 0.2557 0.0
H552 H 0.51428 0.11726 0.47676 0.0
H553 H 0.74789 0.19333 0.54672 0.0
H554 H 0.64195 0.21044 0.46322 0.0
H555 H 0.60552 0.13347 0.56327 0.0
H556 H 0.72197 0.17171 0.51466 0.0
H557 H 0.55837 0.09831 0.50675 0.0
C558 C 0.55192 0.13312 0.48 0.0
C559 C 0.57417 0.16621 0.46764 0.0
C560 C 0.69709 0.1616 0.52536 0.0
C561 C 0.62479 0.14454 0.50183 0.0
C562 C 0.71227 0.17315 0.54366 0.0
C563 C 0.67876 0.16483 0.5575 0.0
C564 C 0.64781 0.14234 0.52099 0.0
C565 C 0.63245 0.13997 0.55289 0.0
C566 C 0.57703 0.12229 0.4971 0.0
C567 C 0.62296 0.18571 0.47253 0.0
N568 N 0.61778 0.13048 0.53493 0.0
N569 N 0.64644 0.17496 0.48931 0.0
H570 H 0.18783 0.35172 0.7342 0.0
H571 H 0.13543 0.12945 0.80528 0.0
H572 H 0.24339 0.19816 0.72829 0.0
H573 H 0.09649 0.28744 0.81334 0.0
H574 H 0.18292 0.1545 0.77878 0.0
H575 H 0.1635 0.33062 0.76513 0.0
C576 C 0.19575 0.31376 0.73964 0.0
C577 C 0.21738 0.27651 0.72875 0.0
C578 C 0.16467 0.18379 0.78652 0.0
C579 C 0.18843 0.25148 0.76391 0.0
C580 C 0.1375 0.16947 0.80157 0.0
C581 C 0.11257 0.20655 0.81155 0.0
C582 C 0.16593 0.23545 0.78122 0.0
C583 C 0.11586 0.25779 0.80615 0.0
C584 C 0.18172 0.30161 0.75725 0.0
C585 C 0.2269 0.22791 0.73634 0.0
N586 N 0.14174 0.27068 0.79129 0.0
N587 N 0.21157 0.21647 0.75338 0.0
loop_
_geom_bond_atom_site_label_1
_geom_bond_atom_site_label_2
_geom_bond_distance
_geom_bond_site_symmetry_2
_ccdc_geom_bond_type
H0 C3 0.931 . S
H1 C6 0.928 . S
H2 C8 0.930 . S
C3 H0 0.931 . S
C3 C4 1.413 . S
C3 C5 1.360 . S
C4 C3 1.413 . S
C4 C8 1.429 . S
C5 C3 1.360 . S
C5 C6 1.372 . S
C6 H1 0.928 . S
C6 C5 1.372 . S
C6 C7 1.404 . S
C7 C6 1.404 . S
C7 C8 1.391 . S
C8 H2 0.930 . S
C8 C4 1.429 . S
C8 C7 1.391 . S
H9 C12 0.931 . S
H10 C15 0.928 . S
H11 C17 0.930 . S
C12 H9 0.931 . S
C12 C13 1.413 . S
C12 C14 1.360 . S
C13 C12 1.413 . S
C13 C17 1.429 . S
C14 C12 1.360 . S
C14 C15 1.372 . S
C15 H10 0.928 . S
C15 C14 1.372 . S
C15 C16 1.404 . S
C16 C15 1.404 . S
C16 C17 1.391 . S
C17 H11 0.930 . S
C17 C13 1.429 . S
C17 C16 1.391 . S
H18 C21 0.931 . S
H19 C24 0.928 . S
H20 C26 0.930 . S
C21 H18 0.931 . S
C21 C22 1.413 . S
C21 C23 1.360 . S
C22 C21 1.413 . S
C22 C26 1.429 . S
C23 C21 1.360 . S
C23 C24 1.372 . S
C24 H19 0.928 . S
C24 C23 1.372 . S
C24 C25 1.404 . S
C25 C24 1.404 . S
C25 C26 1.391 . S
C26 H20 0.930 . S
C26 C22 1.429 . S
C26 C25 1.391 . S
H27 C30 0.931 . S
H28 C33 0.928 . S
H29 C35 0.930 . S
C30 H27 0.931 . S
C30 C31 1.413 . S
C30 C32 1.360 . S
C31 C30 1.413 . S
C31 C35 1.429 . S
C32 C30 1.360 . S
C32 C33 1.372 . S
C33 H28 0.928 . S
C33 C32 1.372 . S
C33 C34 1.404 . S
C34 C33 1.404 . S
C34 C35 1.391 . S
C35 H29 0.930 . S
C35 C31 1.429 . S
C35 C34 1.391 . S
H36 C39 0.931 . S
H37 C42 0.928 . S
H38 C44 0.930 . S
C39 H36 0.931 . S
C39 C40 1.413 . S
C39 C41 1.360 . S
C40 C39 1.413 . S
C40 C44 1.429 . S
C41 C39 1.360 . S
C41 C42 1.372 . S
C42 H37 0.928 . S
C42 C41 1.372 . S
C42 C43 1.404 . S
C43 C42 1.404 . S
C43 C44 1.391 . S
C44 H38 0.930 . S
C44 C40 1.429 . S
C44 C43 1.391 . S
H45 C48 0.931 . S
H46 C51 0.928 . S
H47 C53 0.930 . S
C48 H45 0.931 . S
C48 C49 1.413 . S
C48 C50 1.360 . S
C49 C48 1.413 . S
C49 C53 1.429 . S
C50 C48 1.360 . S
C50 C51 1.372 . S
C51 H46 0.928 . S
C51 C50 1.372 . S
C51 C52 1.404 . S
C52 C51 1.404 . S
C52 C53 1.391 . S
C53 H47 0.930 . S
C53 C49 1.429 . S
C53 C52 1.391 . S
H54 C57 0.931 . S
H55 C60 0.928 . S
H56 C62 0.930 . S
C57 H54 0.931 . S
C57 C58 1.413 . S
C57 C59 1.360 . S
C58 C57 1.413 . S
C58 C62 1.429 . S
C59 C57 1.360 . S
C59 C60 1.372 . S
C60 H55 0.928 . S
C60 C59 1.372 . S
C60 C61 1.404 . S
C61 C60 1.404 . S
C61 C62 1.391 . S
C62 H56 0.930 . S
C62 C58 1.429 . S
C62 C61 1.391 . S
H63 C66 0.931 . S
H64 C69 0.928 . S
H65 C71 0.930 . S
C66 H63 0.931 . S
C66 C67 1.413 . S
C66 C68 1.360 . S
C67 C66 1.413 . S
C67 C71 1.429 . S
C68 C66 1.360 . S
C68 C69 1.372 . S
C69 H64 0.928 . S
C69 C68 1.372 . S
C69 C70 1.404 . S
C70 C69 1.404 . S
C70 C71 1.391 . S
C71 H65 0.930 . S
C71 C67 1.429 . S
C71 C70 1.391 . S
Zn72 O78 1.920 . S
Zn72 O84 1.898 . S
Zn72 O87 1.905 . S
Zn73 O81 1.905 . S
Zn73 O82 1.898 . S
Zn73 O90 1.920 . S
Zn74 O77 2.080 . S
Zn74 O80 2.114 . S
Zn74 O83 2.120 . S
Zn74 O85 2.120 . S
Zn74 O86 2.114 . S
Zn74 O89 2.080 . S
C75 O80 1.166 . S
C75 O81 1.182 . S
C76 O82 1.167 . S
C76 O83 1.299 . S
O77 Zn74 2.080 . S
O77 C91 1.305 . S
O78 Zn72 1.920 . S
O78 C91 1.234 . S
C79 O84 1.167 . S
C79 O85 1.299 . S
O80 Zn74 2.114 . S
O80 C75 1.166 . S
O81 Zn73 1.905 . S
O81 C75 1.182 . S
O82 Zn73 1.898 . S
O82 C76 1.167 . S
O83 Zn74 2.120 . S
O83 C76 1.299 . S
O84 Zn72 1.898 . S
O84 C79 1.167 . S
O85 Zn74 2.120 . S
O85 C79 1.299 . S
O86 Zn74 2.114 . S
O86 C88 1.166 . S
O87 Zn72 1.905 . S
O87 C88 1.182 . S
C88 O86 1.166 . S
C88 O87 1.182 . S
O89 Zn74 2.080 . S
O89 C92 1.305 . S
O90 Zn73 1.920 . S
O90 C92 1.234 . S
C91 O77 1.305 . S
C91 O78 1.234 . S
C92 O89 1.305 . S
C92 O90 1.234 . S
Zn93 O99 1.920 . S
Zn93 O105 1.898 . S
Zn93 O108 1.905 . S
Zn94 O102 1.905 . S
Zn94 O103 1.898 . S
Zn94 O111 1.920 . S
Zn95 O98 2.080 . S
Zn95 O101 2.114 . S
Zn95 O104 2.120 . S
Zn95 O106 2.120 . S
Zn95 O107 2.114 . S
Zn95 O110 2.080 . S
C96 O101 1.166 . S
C96 O102 1.182 . S
C97 O103 1.167 . S
C97 O104 1.299 . S
O98 Zn95 2.080 . S
O98 C112 1.305 . S
O99 Zn93 1.920 . S
O99 C112 1.234 . S
C100 O105 1.167 . S
C100 O106 1.299 . S
O101 Zn95 2.114 . S
O101 C96 1.166 . S
O102 Zn94 1.905 . S
O102 C96 1.182 . S
O103 Zn94 1.898 . S
O103 C97 1.167 . S
O104 Zn95 2.120 . S
O104 C97 1.299 . S
O105 Zn93 1.898 . S
O105 C100 1.167 . S
O106 Zn95 2.120 . S
O106 C100 1.299 . S
O107 Zn95 2.114 . S
O107 C109 1.166 . S
O108 Zn93 1.905 . S
O108 C109 1.182 . S
C109 O107 1.166 . S
C109 O108 1.182 . S
O110 Zn95 2.080 . S
O110 C113 1.305 . S
O111 Zn94 1.920 . S
O111 C113 1.234 . S
C112 O98 1.305 . S
C112 O99 1.234 . S
C113 O110 1.305 . S
C113 O111 1.234 . S
Zn114 O120 1.920 . S
Zn114 O126 1.898 . S
Zn114 O129 1.905 . S
Zn115 O123 1.905 . S
Zn115 O124 1.898 . S
Zn115 O132 1.920 . S
Zn116 O119 2.080 . S
Zn116 O122 2.114 . S
Zn116 O125 2.120 . S
Zn116 O127 2.120 . S
Zn116 O128 2.114 . S
Zn116 O131 2.080 . S
C117 O122 1.166 . S
C117 O123 1.182 . S
C118 O124 1.167 . S
C118 O125 1.299 . S
O119 Zn116 2.080 . S
O119 C133 1.305 . S
O120 Zn114 1.920 . S
O120 C133 1.234 . S
C121 O126 1.167 . S
C121 O127 1.299 . S
O122 Zn116 2.114 . S
O122 C117 1.166 . S
O123 Zn115 1.905 . S
O123 C117 1.182 . S
O124 Zn115 1.898 . S
O124 C118 1.167 . S
O125 Zn116 2.120 . S
O125 C118 1.299 . S
O126 Zn114 1.898 . S
O126 C121 1.167 . S
O127 Zn116 2.120 . S
O127 C121 1.299 . S
O128 Zn116 2.114 . S
O128 C130 1.166 . S
O129 Zn114 1.905 . S
O129 C130 1.182 . S
C130 O128 1.166 . S
C130 O129 1.182 . S
O131 Zn116 2.080 . S
O131 C134 1.305 . S
O132 Zn115 1.920 . S
O132 C134 1.234 . S
C133 O119 1.305 . S
C133 O120 1.234 . S
C134 O131 1.305 . S
C134 O132 1.234 . S
Zn135 O141 1.920 . S
Zn135 O147 1.898 . S
Zn135 O150 1.905 1_455 S
Zn136 O144 1.905 . S
Zn136 O145 1.898 . S
Zn136 O153 1.920 . S
Zn137 O140 2.080 . S
Zn137 O143 2.114 . S
Zn137 O146 2.120 . S
Zn137 O148 2.120 . S
Zn137 O149 2.114 . S
Zn137 O152 2.080 . S
C138 O143 1.166 . S
C138 O144 1.182 . S
C139 O145 1.167 . S
C139 O146 1.299 . S
O140 Zn137 2.080 . S
O140 C154 1.305 . S
O141 Zn135 1.920 . S
O141 C154 1.234 . S
C142 O147 1.167 . S
C142 O148 1.299 . S
O143 Zn137 2.114 . S
O143 C138 1.166 . S
O144 Zn136 1.905 . S
O144 C138 1.182 . S
O145 Zn136 1.898 . S
O145 C139 1.167 . S
O146 Zn137 2.120 . S
O146 C139 1.299 . S
O147 Zn135 1.898 . S
O147 C142 1.167 . S
O148 Zn137 2.120 . S
O148 C142 1.299 . S
O149 Zn137 2.114 . S
O149 C151 1.166 . S
O150 Zn135 1.905 1_655 S
O150 C151 1.182 1_655 S
C151 O149 1.166 . S
C151 O150 1.182 1_455 S
O152 Zn137 2.080 . S
O152 C155 1.305 . S
O153 Zn136 1.920 . S
O153 C155 1.234 . S
C154 O140 1.305 . S
C154 O141 1.234 . S
C155 O152 1.305 . S
C155 O153 1.234 . S
H156 C162 0.930 . S
H157 C166 0.930 . S
H158 C171 0.929 . S
H159 C169 0.929 . S
H160 C164 0.929 . S
H161 C170 0.929 . S
C162 H156 0.930 . S
C162 C163 1.367 . S
C162 C170 1.378 . S
C163 C162 1.367 . S
C163 C171 1.433 . S
C164 H160 0.929 . S
C164 C166 1.378 . S
C164 C168 1.350 . S
C165 C168 1.463 . S
C165 C170 1.350 . S
C165 N173 1.427 . S
C166 H157 0.930 . S
C166 C164 1.378 . S
C166 C167 1.367 . S
C167 C166 1.367 . S
C167 C169 1.433 . S
C168 C164 1.350 . S
C168 C165 1.463 . S
C168 N172 1.427 . S
C169 H159 0.929 . S
C169 C167 1.433 . S
C169 N172 1.384 . S
C170 H161 0.929 . S
C170 C162 1.378 . S
C170 C165 1.350 . S
C171 H158 0.929 . S
C171 C163 1.433 . S
C171 N173 1.384 . S
N172 C168 1.427 . S
N172 C169 1.384 . S
N173 C165 1.427 . S
N173 C171 1.384 . S
H174 C180 0.930 . S
H175 C184 0.930 . S
H176 C189 0.929 1_455 S
H177 C187 0.929 . S
H178 C182 0.929 . S
H179 C188 0.929 . S
C180 H174 0.930 . S
C180 C181 1.367 . S
C180 C188 1.378 1_455 S
C181 C180 1.367 . S
C181 C189 1.433 1_455 S
C182 H178 0.929 . S
C182 C184 1.378 . S
C182 C186 1.350 . S
C183 C186 1.463 . S
C183 C188 1.350 . S
C183 N191 1.427 . S
C184 H175 0.930 . S
C184 C182 1.378 . S
C184 C185 1.367 . S
C185 C184 1.367 . S
C185 C187 1.433 . S
C186 C182 1.350 . S
C186 C183 1.463 . S
C186 N190 1.427 . S
C187 H177 0.929 . S
C187 C185 1.433 . S
C187 N190 1.384 . S
C188 H179 0.929 . S
C188 C180 1.378 1_655 S
C188 C183 1.350 . S
C189 H176 0.929 1_655 S
C189 C181 1.433 1_655 S
C189 N191 1.384 . S
N190 C186 1.427 . S
N190 C187 1.384 . S
N191 C183 1.427 . S
N191 C189 1.384 . S
H192 C198 0.930 . S
H193 C202 0.930 . S
H194 C207 0.929 . S
H195 C205 0.929 . S
H196 C200 0.929 . S
H197 C206 0.929 . S
C198 H192 0.930 . S
C198 C199 1.367 . S
C198 C206 1.378 . S
C199 C198 1.367 . S
C199 C207 1.433 . S
C200 H196 0.929 . S
C200 C202 1.378 . S
C200 C204 1.350 . S
C201 C204 1.463 . S
C201 C206 1.350 . S
C201 N209 1.427 . S
C202 H193 0.930 . S
C202 C200 1.378 . S
C202 C203 1.367 . S
C203 C202 1.367 . S
C203 C205 1.433 . S
C204 C200 1.350 . S
C204 C201 1.463 . S
C204 N208 1.427 . S
C205 H195 0.929 . S
C205 C203 1.433 . S
C205 N208 1.384 . S
C206 H197 0.929 . S
C206 C198 1.378 . S
C206 C201 1.350 . S
C207 H194 0.929 . S
C207 C199 1.433 . S
C207 N209 1.384 . S
N208 C204 1.427 . S
N208 C205 1.384 . S
N209 C201 1.427 . S
N209 C207 1.384 . S
H210 C216 0.930 . S
H211 C220 0.930 . S
H212 C225 0.929 . S
H213 C223 0.929 . S
H214 C218 0.929 . S
H215 C224 0.929 . S
C216 H210 0.930 . S
C216 C217 1.367 . S
C216 C224 1.378 . S
C217 C216 1.367 . S
C217 C225 1.433 . S
C218 H214 0.929 . S
C218 C220 1.378 . S
C218 C222 1.350 . S
C219 C222 1.463 . S
C219 C224 1.350 . S
C219 N227 1.427 . S
C220 H211 0.930 . S
C220 C218 1.378 . S
C220 C221 1.367 . S
C221 C220 1.367 . S
C221 C223 1.433 . S
C222 C218 1.350 . S
C222 C219 1.463 . S
C222 N226 1.427 . S
C223 H213 0.929 . S
C223 C221 1.433 . S
C223 N226 1.384 . S
C224 H215 0.929 . S
C224 C216 1.378 . S
C224 C219 1.350 . S
C225 H212 0.929 . S
C225 C217 1.433 . S
C225 N227 1.384 . S
N226 C222 1.427 . S
N226 C223 1.384 . S
N227 C219 1.427 . S
N227 C225 1.384 . S
H228 C234 0.914 1_655 S
H229 C238 0.930 . S
H230 C243 0.929 . S
H231 C241 0.929 . S
H232 C236 0.929 . S
H233 C242 0.929 . S
C234 H228 0.914 1_455 S
C234 C235 1.367 . S
C234 C242 1.378 . S
C235 C234 1.367 . S
C235 C243 1.433 . S
C236 H232 0.929 . S
C236 C238 1.378 . S
C236 C240 1.350 . S
C237 C240 1.463 . S
C237 C242 1.350 . S
C237 N245 1.427 . S
C238 H229 0.930 . S
C238 C236 1.378 . S
C238 C239 1.367 . S
C239 C238 1.367 . S
C239 C241 1.433 . S
C240 C236 1.350 . S
C240 C237 1.463 . S
C240 N244 1.427 . S
C241 H231 0.929 . S
C241 C239 1.433 . S
C241 N244 1.384 . S
C242 H233 0.929 . S
C242 C234 1.378 . S
C242 C237 1.350 . S
C243 H230 0.929 . S
C243 C235 1.433 . S
C243 N245 1.384 . S
N244 C240 1.427 . S
N244 C241 1.384 . S
N245 C237 1.427 . S
N245 C243 1.384 . S
H246 C252 0.930 . S
H247 C256 0.930 . S
H248 C261 0.929 . S
H249 C259 0.929 . S
H250 C254 0.929 . S
H251 C260 0.929 . S
C252 H246 0.930 . S
C252 C253 1.367 . S
C252 C260 1.378 . S
C253 C252 1.367 . S
C253 C261 1.433 . S
C254 H250 0.929 . S
C254 C256 1.378 . S
C254 C258 1.350 . S
C255 C258 1.463 . S
C255 C260 1.350 . S
C255 N263 1.427 . S
C256 H247 0.930 . S
C256 C254 1.378 . S
C256 C257 1.367 . S
C257 C256 1.367 . S
C257 C259 1.433 . S
C258 C254 1.350 . S
C258 C255 1.463 . S
C258 N262 1.427 . S
C259 H249 0.929 . S
C259 C257 1.433 . S
C259 N262 1.384 . S
C260 H251 0.929 . S
C260 C252 1.378 . S
C260 C255 1.350 . S
C261 H248 0.929 . S
C261 C253 1.433 . S
C261 N263 1.384 . S
N262 C258 1.427 . S
N262 C259 1.384 . S
N263 C255 1.427 . S
N263 C261 1.384 . S
H264 C270 0.930 . S
H265 C274 0.930 . S
H266 C279 0.929 . S
H267 C277 0.929 . S
H268 C272 0.929 . S
H269 C278 0.929 . S
C270 H264 0.930 . S
C270 C271 1.367 . S
C270 C278 1.378 . S
C271 C270 1.367 . S
C271 C279 1.433 . S
C272 H268 0.929 . S
C272 C274 1.378 . S
C272 C276 1.350 . S
C273 C276 1.463 . S
C273 C278 1.350 . S
C273 N281 1.427 . S
C274 H265 0.930 . S
C274 C272 1.378 . S
C274 C275 1.367 . S
C275 C274 1.367 . S
C275 C277 1.433 . S
C276 C272 1.350 . S
C276 C273 1.463 . S
C276 N280 1.427 . S
C277 H267 0.929 . S
C277 C275 1.433 . S
C277 N280 1.384 . S
C278 H269 0.929 . S
C278 C270 1.378 . S
C278 C273 1.350 . S
C279 H266 0.929 . S
C279 C271 1.433 . S
C279 N281 1.384 . S
N280 C276 1.427 . S
N280 C277 1.384 . S
N281 C273 1.427 . S
N281 C279 1.384 . S
H282 C288 0.930 . S
H283 C292 0.930 . S
H284 C297 0.929 . S
H285 C295 0.929 . S
H286 C290 0.929 . S
H287 C296 0.929 . S
C288 H282 0.930 . S
C288 C289 1.367 . S
C288 C296 1.378 1_455 S
C289 C288 1.367 . S
C289 C297 1.433 . S
C290 H286 0.929 . S
C290 C292 1.378 . S
C290 C294 1.350 . S
C291 C294 1.463 . S
C291 C296 1.350 . S
C291 N299 1.427 . S
C292 H283 0.930 . S
C292 C290 1.378 . S
C292 C293 1.367 . S
C293 C292 1.367 . S
C293 C295 1.433 . S
C294 C290 1.350 . S
C294 C291 1.463 . S
C294 N298 1.427 . S
C295 H285 0.929 . S
C295 C293 1.433 . S
C295 N298 1.384 . S
C296 H287 0.929 . S
C296 C288 1.378 1_655 S
C296 C291 1.350 . S
C297 H284 0.929 . S
C297 C289 1.433 . S
C297 N299 1.384 1_455 S
N298 C294 1.427 . S
N298 C295 1.384 . S
N299 C291 1.427 . S
N299 C297 1.384 1_655 S
H300 C306 0.930 . S
H301 C310 0.930 . S
H302 C315 0.929 . S
H303 C313 0.929 . S
H304 C308 0.929 . S
H305 C314 0.929 . S
C306 H300 0.930 . S
C306 C307 1.367 . S
C306 C314 1.378 . S
C307 C306 1.367 . S
C307 C315 1.433 . S
C308 H304 0.929 . S
C308 C310 1.378 . S
C308 C312 1.350 . S
C309 C312 1.463 . S
C309 C314 1.350 . S
C309 N317 1.427 . S
C310 H301 0.930 . S
C310 C308 1.378 . S
C310 C311 1.367 . S
C311 C310 1.367 . S
C311 C313 1.433 . S
C312 C308 1.350 . S
C312 C309 1.463 . S
C312 N316 1.427 . S
C313 H303 0.929 . S
C313 C311 1.433 . S
C313 N316 1.384 . S
C314 H305 0.929 . S
C314 C306 1.378 . S
C314 C309 1.350 . S
C315 H302 0.929 . S
C315 C307 1.433 . S
C315 N317 1.384 . S
N316 C312 1.427 . S
N316 C313 1.384 . S
N317 C309 1.427 . S
N317 C315 1.384 . S
H318 C324 0.930 . S
H319 C328 0.930 . S
H320 C333 0.929 . S
H321 C331 0.929 . S
H322 C326 0.929 . S
H323 C332 0.929 . S
C324 H318 0.930 . S
C324 C325 1.367 . S
C324 C332 1.378 . S
C325 C324 1.367 . S
C325 C333 1.433 . S
C326 H322 0.929 . S
C326 C328 1.378 . S
C326 C330 1.350 . S
C327 C330 1.463 . S
C327 C332 1.350 . S
C327 N335 1.427 . S
C328 H319 0.930 . S
C328 C326 1.378 . S
C328 C329 1.367 . S
C329 C328 1.367 . S
C329 C331 1.433 . S
C330 C326 1.350 . S
C330 C327 1.463 . S
C330 N334 1.427 . S
C331 H321 0.929 . S
C331 C329 1.433 . S
C331 N334 1.384 . S
C332 H323 0.929 . S
C332 C324 1.378 . S
C332 C327 1.350 . S
C333 H320 0.929 . S
C333 C325 1.433 . S
C333 N335 1.384 . S
N334 C330 1.427 . S
N334 C331 1.384 . S
N335 C327 1.427 . S
N335 C333 1.384 . S
H336 C342 0.930 . S
H337 C346 0.930 . S
H338 C351 0.929 . S
H339 C349 0.929 . S
H340 C344 0.929 . S
H341 C350 0.929 . S
C342 H336 0.930 . S
C342 C343 1.367 . S
C342 C350 1.378 . S
C343 C342 1.367 . S
C343 C351 1.433 . S
C344 H340 0.929 . S
C344 C346 1.378 . S
C344 C348 1.350 . S
C345 C348 1.463 . S
C345 C350 1.350 . S
C345 N353 1.427 . S
C346 H337 0.930 . S
C346 C344 1.378 . S
C346 C347 1.367 . S
C347 C346 1.367 . S
C347 C349 1.433 . S
C348 C344 1.350 . S
C348 C345 1.463 . S
C348 N352 1.427 . S
C349 H339 0.929 . S
C349 C347 1.433 . S
C349 N352 1.384 . S
C350 H341 0.929 . S
C350 C342 1.378 . S
C350 C345 1.350 . S
C351 H338 0.929 . S
C351 C343 1.433 . S
C351 N353 1.384 . S
N352 C348 1.427 . S
N352 C349 1.384 . S
N353 C345 1.427 . S
N353 C351 1.384 . S
H354 C360 0.930 . S
H355 C364 0.930 . S
H356 C369 0.929 . S
H357 C367 0.929 . S
H358 C362 0.929 . S
H359 C368 0.929 . S
C360 H354 0.930 . S
C360 C361 1.367 . S
C360 C368 1.378 . S
C361 C360 1.367 . S
C361 C369 1.433 . S
C362 H358 0.929 . S
C362 C364 1.378 . S
C362 C366 1.350 . S
C363 C366 1.463 . S
C363 C368 1.350 . S
C363 N371 1.427 . S
C364 H355 0.930 . S
C364 C362 1.378 . S
C364 C365 1.367 . S
C365 C364 1.367 . S
C365 C367 1.433 . S
C366 C362 1.350 . S
C366 C363 1.463 . S
C366 N370 1.427 . S
C367 H357 0.929 . S
C367 C365 1.433 . S
C367 N370 1.384 . S
C368 H359 0.929 . S
C368 C360 1.378 . S
C368 C363 1.350 . S
C369 H356 0.929 . S
C369 C361 1.433 . S
C369 N371 1.384 . S
N370 C366 1.427 . S
N370 C367 1.384 . S
N371 C363 1.427 . S
N371 C369 1.384 . S
H372 C378 0.930 . S
H373 C382 0.930 . S
H374 C387 0.929 . S
H375 C385 0.929 . S
H376 C380 0.929 1_565 S
H377 C386 0.929 . S
C378 H372 0.930 . S
C378 C379 1.367 . S
C378 C386 1.378 . S
C379 C378 1.367 . S
C379 C387 1.433 . S
C380 H376 0.929 1_545 S
C380 C382 1.378 . S
C380 C384 1.350 1_545 S
C381 C384 1.463 . S
C381 C386 1.350 . S
C381 N389 1.427 . S
C382 H373 0.930 . S
C382 C380 1.378 . S
C382 C383 1.367 . S
C383 C382 1.367 . S
C383 C385 1.433 . S
C384 C380 1.350 1_565 S
C384 C381 1.463 . S
C384 N388 1.427 1_565 S
C385 H375 0.929 . S
C385 C383 1.433 . S
C385 N388 1.384 . S
C386 H377 0.929 . S
C386 C378 1.378 . S
C386 C381 1.350 . S
C387 H374 0.929 . S
C387 C379 1.433 . S
C387 N389 1.384 . S
N388 C384 1.427 1_545 S
N388 C385 1.384 . S
N389 C381 1.427 . S
N389 C387 1.384 . S
H390 C396 0.930 . S
H391 C400 0.930 . S
H392 C405 0.929 . S
H393 C403 0.929 . S
H394 C398 0.929 1_545 S
H395 C404 0.929 . S
C396 H390 0.930 . S
C396 C397 1.367 . S
C396 C404 1.378 . S
C397 C396 1.367 . S
C397 C405 1.433 . S
C398 H394 0.929 1_565 S
C398 C400 1.378 . S
C398 C402 1.350 . S
C399 C402 1.463 1_545 S
C399 C404 1.350 . S
C399 N407 1.427 . S
C400 H391 0.930 . S
C400 C398 1.378 . S
C400 C401 1.367 . S
C401 C400 1.367 . S
C401 C403 1.433 . S
C402 C398 1.350 . S
C402 C399 1.463 1_565 S
C402 N406 1.427 . S
C403 H393 0.929 . S
C403 C401 1.433 . S
C403 N406 1.384 . S
C404 H395 0.929 . S
C404 C396 1.378 . S
C404 C399 1.350 . S
C405 H392 0.929 . S
C405 C397 1.433 . S
C405 N407 1.384 . S
N406 C402 1.427 . S
N406 C403 1.384 . S
N407 C399 1.427 . S
N407 C405 1.384 . S
H408 C414 0.930 . S
H409 C418 0.930 . S
H410 C423 0.929 . S
H411 C421 0.929 . S
H412 C416 0.929 . S
H413 C422 0.929 . S
C414 H408 0.930 . S
C414 C415 1.367 . S
C414 C422 1.378 . S
C415 C414 1.367 . S
C415 C423 1.433 . S
C416 H412 0.929 . S
C416 C418 1.378 . S
C416 C420 1.350 . S
C417 C420 1.463 1_545 S
C417 C422 1.350 . S
C417 N425 1.427 . S
C418 H409 0.930 . S
C418 C416 1.378 . S
C418 C419 1.367 . S
C419 C418 1.367 . S
C419 C421 1.433 . S
C420 C416 1.350 . S
C420 C417 1.463 1_565 S
C420 N424 1.427 . S
C421 H411 0.929 . S
C421 C419 1.433 . S
C421 N424 1.384 . S
C422 H413 0.929 . S
C422 C414 1.378 . S
C422 C417 1.350 . S
C423 H410 0.929 . S
C423 C415 1.433 . S
C423 N425 1.384 . S
N424 C420 1.427 . S
N424 C421 1.384 . S
N425 C417 1.427 . S
N425 C423 1.384 . S
H426 C432 0.930 . S
H427 C436 0.930 . S
H428 C441 0.929 . S
H429 C439 0.929 . S
H430 C434 0.929 . S
H431 C440 0.929 . S
C432 H426 0.930 . S
C432 C433 1.367 . S
C432 C440 1.378 . S
C433 C432 1.367 . S
C433 C441 1.433 . S
C434 H430 0.929 . S
C434 C436 1.378 . S
C434 C438 1.350 1_545 S
C435 C438 1.463 . S
C435 C440 1.350 . S
C435 N443 1.427 . S
C436 H427 0.930 . S
C436 C434 1.378 . S
C436 C437 1.367 . S
C437 C436 1.367 . S
C437 C439 1.433 . S
C438 C434 1.350 1_565 S
C438 C435 1.463 . S
C438 N442 1.427 . S
C439 H429 0.929 . S
C439 C437 1.433 . S
C439 N442 1.384 1_545 S
C440 H431 0.929 . S
C440 C432 1.378 . S
C440 C435 1.350 . S
C441 H428 0.929 . S
C441 C433 1.433 . S
C441 N443 1.384 . S
N442 C438 1.427 . S
N442 C439 1.384 1_565 S
N443 C435 1.427 . S
N443 C441 1.384 . S
H444 C450 0.930 . S
H445 C454 0.930 . S
H446 C459 0.929 . S
H447 C457 0.929 . S
H448 C452 0.929 . S
H449 C458 0.929 1_556 S
C450 H444 0.930 . S
C450 C451 1.367 . S
C450 C458 1.378 . S
C451 C450 1.367 . S
C451 C459 1.433 . S
C452 H448 0.929 . S
C452 C454 1.378 . S
C452 C456 1.350 . S
C453 C456 1.463 . S
C453 C458 1.350 1_556 S
C453 N461 1.427 . S
C454 H445 0.930 . S
C454 C452 1.378 . S
C454 C455 1.367 . S
C455 C454 1.367 . S
C455 C457 1.433 . S
C456 C452 1.350 . S
C456 C453 1.463 . S
C456 N460 1.427 . S
C457 H447 0.929 . S
C457 C455 1.433 . S
C457 N460 1.384 . S
C458 H449 0.929 1_554 S
C458 C450 1.378 . S
C458 C453 1.350 1_554 S
C459 H446 0.929 . S
C459 C451 1.433 . S
C459 N461 1.384 1_554 S
N460 C456 1.427 . S
N460 C457 1.384 . S
N461 C453 1.427 . S
N461 C459 1.384 1_556 S
H462 C468 0.930 . S
H463 C472 0.930 . S
H464 C477 0.929 . S
H465 C475 0.929 . S
H466 C470 0.929 . S
H467 C476 0.929 . S
C468 H462 0.930 . S
C468 C469 1.367 . S
C468 C476 1.378 . S
C469 C468 1.367 . S
C469 C477 1.433 . S
C470 H466 0.929 . S
C470 C472 1.378 . S
C470 C474 1.350 . S
C471 C474 1.463 . S
C471 C476 1.350 . S
C471 N479 1.427 . S
C472 H463 0.930 . S
C472 C470 1.378 . S
C472 C473 1.367 . S
C473 C472 1.367 . S
C473 C475 1.433 . S
C474 C470 1.350 . S
C474 C471 1.463 . S
C474 N478 1.427 . S
C475 H465 0.929 . S
C475 C473 1.433 . S
C475 N478 1.384 . S
C476 H467 0.929 . S
C476 C468 1.378 . S
C476 C471 1.350 . S
C477 H464 0.929 . S
C477 C469 1.433 . S
C477 N479 1.384 . S
N478 C474 1.427 . S
N478 C475 1.384 . S
N479 C471 1.427 . S
N479 C477 1.384 . S
H480 C486 0.930 . S
H481 C490 0.930 . S
H482 C495 0.929 . S
H483 C493 0.929 . S
H484 C488 0.929 . S
H485 C494 0.929 . S
C486 H480 0.930 . S
C486 C487 1.367 . S
C486 C494 1.378 . S
C487 C486 1.367 . S
C487 C495 1.433 . S
C488 H484 0.929 . S
C488 C490 1.378 . S
C488 C492 1.350 . S
C489 C492 1.463 . S
C489 C494 1.350 . S
C489 N497 1.427 . S
C490 H481 0.930 . S
C490 C488 1.378 . S
C490 C491 1.367 . S
C491 C490 1.367 . S
C491 C493 1.433 . S
C492 C488 1.350 . S
C492 C489 1.463 . S
C492 N496 1.427 . S
C493 H483 0.929 . S
C493 C491 1.433 . S
C493 N496 1.384 . S
C494 H485 0.929 . S
C494 C486 1.378 . S
C494 C489 1.350 . S
C495 H482 0.929 . S
C495 C487 1.433 . S
C495 N497 1.384 . S
N496 C492 1.427 . S
N496 C493 1.384 . S
N497 C489 1.427 . S
N497 C495 1.384 . S
H498 C504 0.930 . S
H499 C508 0.930 . S
H500 C513 0.929 . S
H501 C511 0.929 . S
H502 C506 0.929 . S
H503 C512 0.929 . S
C504 H498 0.930 . S
C504 C505 1.367 . S
C504 C512 1.378 . S
C505 C504 1.367 . S
C505 C513 1.433 . S
C506 H502 0.929 . S
C506 C508 1.378 . S
C506 C510 1.350 . S
C507 C510 1.463 . S
C507 C512 1.350 . S
C507 N515 1.427 . S
C508 H499 0.930 . S
C508 C506 1.378 . S
C508 C509 1.367 . S
C509 C508 1.367 . S
C509 C511 1.433 . S
C510 C506 1.350 . S
C510 C507 1.463 . S
C510 N514 1.427 . S
C511 H501 0.929 . S
C511 C509 1.433 . S
C511 N514 1.384 . S
C512 H503 0.929 . S
C512 C504 1.378 . S
C512 C507 1.350 . S
C513 H500 0.929 . S
C513 C505 1.433 . S
C513 N515 1.384 . S
N514 C510 1.427 . S
N514 C511 1.384 . S
N515 C507 1.427 . S
N515 C513 1.384 . S
H516 C522 0.930 1_655 S
H517 C526 0.930 . S
H518 C531 0.929 . S
H519 C529 0.929 . S
H520 C524 0.929 . S
H521 C530 0.929 1_655 S
C522 H516 0.930 1_455 S
C522 C523 1.367 . S
C522 C530 1.377 1_556 S
C523 C522 1.367 . S
C523 C531 1.433 . S
C524 H520 0.929 . S
C524 C526 1.378 . S
C524 C528 1.350 . S
C525 C528 1.463 . S
C525 C530 1.350 . S
C525 N533 1.427 1_554 S
C526 H517 0.930 . S
C526 C524 1.378 . S
C526 C527 1.367 . S
C527 C526 1.367 . S
C527 C529 1.433 . S
C528 C524 1.350 . S
C528 C525 1.463 . S
C528 N532 1.427 . S
C529 H519 0.929 . S
C529 C527 1.433 . S
C529 N532 1.384 . S
C530 H521 0.929 1_455 S
C530 C522 1.377 1_554 S
C530 C525 1.350 . S
C531 H518 0.929 . S
C531 C523 1.433 . S
C531 N533 1.384 . S
N532 C528 1.427 . S
N532 C529 1.384 . S
N533 C525 1.427 1_556 S
N533 C531 1.384 . S
H534 C540 0.930 . S
H535 C544 0.930 . S
H536 C549 0.929 . S
H537 C547 0.929 . S
H538 C542 0.929 . S
H539 C548 0.929 . S
C540 H534 0.930 . S
C540 C541 1.367 . S
C540 C548 1.378 . S
C541 C540 1.367 . S
C541 C549 1.433 . S
C542 H538 0.929 . S
C542 C544 1.378 . S
C542 C546 1.350 . S
C543 C546 1.463 . S
C543 C548 1.350 . S
C543 N551 1.427 . S
C544 H535 0.930 . S
C544 C542 1.378 . S
C544 C545 1.367 . S
C545 C544 1.367 . S
C545 C547 1.433 . S
C546 C542 1.350 . S
C546 C543 1.463 . S
C546 N550 1.427 . S
C547 H537 0.929 . S
C547 C545 1.433 . S
C547 N550 1.384 . S
C548 H539 0.929 . S
C548 C540 1.378 . S
C548 C543 1.350 . S
C549 H536 0.929 . S
C549 C541 1.433 . S
C549 N551 1.384 . S
N550 C546 1.427 . S
N550 C547 1.384 . S
N551 C543 1.427 . S
N551 C549 1.384 . S
H552 C558 0.930 . S
H553 C562 0.930 . S
H554 C567 0.929 . S
H555 C565 0.929 . S
H556 C560 0.929 . S
H557 C566 0.929 . S
C558 H552 0.930 . S
C558 C559 1.367 . S
C558 C566 1.378 . S
C559 C558 1.367 . S
C559 C567 1.433 . S
C560 H556 0.929 . S
C560 C562 1.378 . S
C560 C564 1.350 . S
C561 C564 1.463 . S
C561 C566 1.350 . S
C561 N569 1.427 . S
C562 H553 0.930 . S
C562 C560 1.378 . S
C562 C563 1.367 . S
C563 C562 1.367 . S
C563 C565 1.433 . S
C564 C560 1.350 . S
C564 C561 1.463 . S
C564 N568 1.427 . S
C565 H555 0.929 . S
C565 C563 1.433 . S
C565 N568 1.384 . S
C566 H557 0.929 . S
C566 C558 1.378 . S
C566 C561 1.350 . S
C567 H554 0.929 . S
C567 C559 1.433 . S
C567 N569 1.384 . S
N568 C564 1.427 . S
N568 C565 1.384 . S
N569 C561 1.427 . S
N569 C567 1.384 . S
H570 C576 0.930 . S
H571 C580 0.930 . S
H572 C585 0.929 . S
H573 C583 0.929 . S
H574 C578 0.929 . S
H575 C584 0.929 . S
C576 H570 0.930 . S
C576 C577 1.367 . S
C576 C584 1.378 . S
C577 C576 1.367 . S
C577 C585 1.433 . S
C578 H574 0.929 . S
C578 C580 1.378 . S
C578 C582 1.350 . S
C579 C582 1.463 . S
C579 C584 1.350 . S
C579 N587 1.427 . S
C580 H571 0.930 . S
C580 C578 1.378 . S
C580 C581 1.367 . S
C581 C580 1.367 . S
C581 C583 1.433 . S
C582 C578 1.350 . S
C582 C579 1.463 . S
C582 N586 1.427 . S
C583 H573 0.929 . S
C583 C581 1.433 . S
C583 N586 1.384 . S
C584 H575 0.929 . S
C584 C576 1.378 . S
C584 C579 1.350 . S
C585 H572 0.929 . S
C585 C577 1.433 . S
C585 N587 1.384 . S
N586 C582 1.427 . S
N586 C583 1.384 . S
N587 C579 1.427 . S
N587 C585 1.384 . S
C167 C79 1.424 . S
C163 C4 1.540 . S
C185 C97 1.312 . S
C181 C13 1.393 . S
C199 C25 1.358 . S
C203 C121 1.233 . S
C221 C151 1.254 1_655 S
C217 C34 1.405 . S
C239 C139 1.236 . S
C235 C40 1.367 . S
C253 C52 1.392 . S
C257 C92 1.321 1_655 S
C271 C61 1.545 . S
C275 C112 1.448 . S
C289 C67 1.427 . S
C293 C117 1.240 . S
C307 C70 1.386 . S
C311 C133 1.325 . S
C325 C49 1.435 . S
C329 C88 1.263 . S
C347 C155 1.329 . S
C343 C31 1.401 . S
C365 C100 1.235 . S
C361 C16 1.402 . S
C379 C22 1.532 . S
C383 C118 1.416 . S
C397 C7 1.362 . S
C401 C76 1.252 . S
C419 C96 1.238 . S
C415 C58 1.366 . S
C437 C142 1.445 . S
C433 C43 1.550 . S
C455 C138 1.307 . S
C451 C5 1.476 . S
C473 C91 1.350 . S
C469 C14 1.451 . S
C487 C23 1.466 . S
C491 C113 1.300 . S
C505 C32 1.476 . S
C509 C134 1.373 . S
C527 C75 1.320 . S
C523 C41 1.488 . S
C541 C50 1.496 . S
C545 C109 1.387 . S
C563 C130 1.344 . S
C559 C59 1.507 . S
C581 C154 1.364 . S
C577 C68 1.477 . S
