# Generated by pormake.
# Topology zzz, (3,6)-cn, num edge types: 1
# Building blocks:
#     Node 0, Type 0, BuildingBlock: BETDAH_clean_linker_0, # of connection points: 3
#     Node 1, Type 0, BuildingBlock: BETDAH_clean_linker_0, # of connection points: 3
#     Node 2, Type 0, BuildingBlock: BETDAH_clean_linker_0, # of connection points: 3
#     Node 3, Type 0, BuildingBlock: BETDAH_clean_linker_0, # of connection points: 3
#     Node 4, Type 0, BuildingBlock: BETDAH_clean_linker_0, # of connection points: 3
#     Node 5, Type 0, BuildingBlock: BETDAH_clean_linker_0, # of connection points: 3
#     Node 6, Type 0, BuildingBlock: BETDAH_clean_linker_0, # of connection points: 3
#     Node 7, Type 0, BuildingBlock: BETDAH_clean_linker_0, # of connection points: 3
#     Node 8, Type 1, BuildingBlock: KUMBOL_clean_sbu_0, # of connection points: 6
#     Node 9, Type 1, BuildingBlock: KUMBOL_clean_sbu_0, # of connection points: 6
#     Node 10, Type 1, BuildingBlock: KUMBOL_clean_sbu_0, # of connection points: 6
#     Node 11, Type 1, BuildingBlock: KUMBOL_clean_sbu_0, # of connection points: 6
#     Edge 12, Type (0, 1), BuildingBlock: MIFKUJ_clean_linker_0, # of connection points: 2
#     Edge 13, Type (0, 1), BuildingBlock: MIFKUJ_clean_linker_0, # of connection points: 2
#     Edge 14, Type (0, 1), BuildingBlock: MIFKUJ_clean_linker_0, # of connection points: 2
#     Edge 15, Type (0, 1), BuildingBlock: MIFKUJ_clean_linker_0, # of connection points: 2
#     Edge 16, Type (0, 1), BuildingBlock: MIFKUJ_clean_linker_0, # of connection points: 2
#     Edge 17, Type (0, 1), BuildingBlock: MIFKUJ_clean_linker_0, # of connection points: 2
#     Edge 18, Type (0, 1), BuildingBlock: MIFKUJ_clean_linker_0, # of connection points: 2
#     Edge 19, Type (0, 1), BuildingBlock: MIFKUJ_clean_linker_0, # of connection points: 2
#     Edge 20, Type (0, 1), BuildingBlock: MIFKUJ_clean_linker_0, # of connection points: 2
#     Edge 21, Type (0, 1), BuildingBlock: MIFKUJ_clean_linker_0, # of connection points: 2
#     Edge 22, Type (0, 1), BuildingBlock: MIFKUJ_clean_linker_0, # of connection points: 2
#     Edge 23, Type (0, 1), BuildingBlock: MIFKUJ_clean_linker_0, # of connection points: 2
#     Edge 24, Type (0, 1), BuildingBlock: MIFKUJ_clean_linker_0, # of connection points: 2
#     Edge 25, Type (0, 1), BuildingBlock: MIFKUJ_clean_linker_0, # of connection points: 2
#     Edge 26, Type (0, 1), BuildingBlock: MIFKUJ_clean_linker_0, # of connection points: 2
#     Edge 27, Type (0, 1), BuildingBlock: MIFKUJ_clean_linker_0, # of connection points: 2
#     Edge 28, Type (0, 1), BuildingBlock: MIFKUJ_clean_linker_0, # of connection points: 2
#     Edge 29, Type (0, 1), BuildingBlock: MIFKUJ_clean_linker_0, # of connection points: 2
#     Edge 30, Type (0, 1), BuildingBlock: MIFKUJ_clean_linker_0, # of connection points: 2
#     Edge 31, Type (0, 1), BuildingBlock: MIFKUJ_clean_linker_0, # of connection points: 2
#     Edge 32, Type (0, 1), BuildingBlock: MIFKUJ_clean_linker_0, # of connection points: 2
#     Edge 33, Type (0, 1), BuildingBlock: MIFKUJ_clean_linker_0, # of connection points: 2
#     Edge 34, Type (0, 1), BuildingBlock: MIFKUJ_clean_linker_0, # of connection points: 2
#     Edge 35, Type (0, 1), BuildingBlock: MIFKUJ_clean_linker_0, # of connection points: 2
# Relax obj value: 0.146
# Max RMSD: 0.152
# Mean RMSD: 0.113
data_MOF--net-zzz--node1-KUMBOL_clean_sbu_0--node2-BETDAH_clean_linker_0--edge1-MIFKUJ_clean_linker_0
_symmetry_space_group_name_H-M    P1
_symmetry_Int_Tables_number       1
_symmetry_cell_setting            triclinic
loop_
_symmetry_equiv_pos_as_xyz
'x, y, z'
_cell_length_a     65.776351
_cell_length_b     65.795029
_cell_length_c     19.228401
_cell_angle_alpha  90.509372
_cell_angle_beta   89.989565
_cell_angle_gamma 89.965298
loop_
_atom_site_label
_atom_site_type_symbol
_atom_site_fract_x
_atom_site_fract_y
_atom_site_fract_z
_atom_type_partial_charge
H0 H 0.79995 0.57841 0.19211 0.0
H1 H 0.7413 0.56965 0.09862 0.0
H2 H 0.75528 0.54275 0.29712 0.0
C3 C 0.78441 0.57305 0.19551 0.0
C4 C 0.77916 0.56122 0.25275 0.0
C5 C 0.77109 0.57593 0.13923 0.0
C6 C 0.7515 0.56762 0.1422 0.0
C7 C 0.74552 0.55575 0.19915 0.0
C8 C 0.75957 0.55235 0.25408 0.0
N9 N 0.7259 0.54644 0.20102 0.0
C10 C 0.71099 0.54783 0.14892 0.0
H11 H 0.96298 0.81087 0.20673 0.0
H12 H 0.96461 0.75195 0.10685 0.0
H13 H 0.99972 0.76375 0.29243 0.0
C14 C 0.96758 0.79505 0.20596 0.0
C15 C 0.98112 0.78877 0.25721 0.0
C16 C 0.9617 0.78216 0.15076 0.0
C17 C 0.969 0.76201 0.14907 0.0
C18 C 0.98271 0.75513 0.1999 0.0
C19 C 0.98877 0.76869 0.25408 0.0
N20 N 0.99131 0.73512 0.19648 0.0
C21 C 0.98855 0.72053 0.14326 0.0
H22 H 0.7246 0.9653 0.22069 0.0
H23 H 0.78461 0.96869 0.13401 0.0
H24 H 0.7706 0.99952 0.32758 0.0
C25 C 0.7404 0.96986 0.22544 0.0
C26 C 0.74586 0.98249 0.28107 0.0
C27 C 0.75412 0.96505 0.17199 0.0
C28 C 0.77421 0.97207 0.17624 0.0
C29 C 0.78052 0.98419 0.23294 0.0
C30 C 0.76618 0.98942 0.28548 0.0
N31 N 0.80073 0.99217 0.23631 0.0
C32 C 0.81553 0.99007 0.18404 0.0
H33 H 0.57533 0.73172 0.20826 0.0
H34 H 0.56469 0.79116 0.1272 0.0
H35 H 0.55143 0.77851 0.34239 0.0
C36 C 0.57118 0.74745 0.21718 0.0
C37 C 0.56376 0.75336 0.28247 0.0
C38 C 0.57105 0.76088 0.16106 0.0
C39 C 0.56498 0.78104 0.17132 0.0
C40 C 0.55846 0.78778 0.23721 0.0
C41 C 0.55738 0.77369 0.29236 0.0
N42 N 0.55211 0.80829 0.24833 0.0
C43 C 0.55222 0.82324 0.19694 0.0
H44 H 0.2291 0.46717 0.05212 0.0
H45 H 0.29021 0.471 0.12375 0.0
H46 H 0.27728 0.47815 0.9047 0.0
C47 C 0.24508 0.46851 0.03904 0.0
C48 C 0.25103 0.47189 0.96999 0.0
C49 C 0.25916 0.46793 0.09322 0.0
C50 C 0.27972 0.47109 0.0804 0.0
C51 C 0.28656 0.4748 0.01258 0.0
C52 C 0.2721 0.47526 0.95714 0.0
N53 N 0.30772 0.47835 0.99967 0.0
C54 C 0.32294 0.47886 0.05127 0.0
H55 H 0.07153 0.2327 0.01943 0.0
H56 H 0.06061 0.29135 0.11002 0.0
H57 H 0.03081 0.27408 0.91838 0.0
C58 C 0.06475 0.24763 0.01568 0.0
C59 C 0.05126 0.2515 0.96107 0.0
C60 C 0.06758 0.26157 0.07036 0.0
C61 C 0.05844 0.28077 0.06723 0.0
C62 C 0.04549 0.28573 0.0119 0.0
C63 C 0.0415 0.27076 0.95957 0.0
N64 N 0.03562 0.30515 0.00977 0.0
C65 C 0.03758 0.3208 0.05985 0.0
H66 H 0.30695 0.06354 0.02477 0.0
H67 H 0.24642 0.05761 0.10074 0.0
H68 H 0.25768 0.05655 0.87879 0.0
C69 C 0.29083 0.0626 0.01312 0.0
C70 C 0.28433 0.06103 0.94406 0.0
C71 C 0.27724 0.06133 0.06844 0.0
C72 C 0.25652 0.05899 0.05654 0.0
C73 C 0.24909 0.05741 0.98827 0.0
C74 C 0.26317 0.05818 0.93163 0.0
N75 N 0.22779 0.05442 0.97619 0.0
C76 C 0.21306 0.0527 0.02907 0.0
H77 H 0.45958 0.30425 0.03141 0.0
H78 H 0.46679 0.24376 0.10643 0.0
H79 H 0.47517 0.25611 0.88788 0.0
C80 C 0.46199 0.28826 0.01997 0.0
C81 C 0.46681 0.28207 0.95208 0.0
C82 C 0.46207 0.27451 0.07491 0.0
C83 C 0.46637 0.25404 0.06274 0.0
C84 C 0.47073 0.24708 0.99508 0.0
C85 C 0.47127 0.26127 0.93984 0.0
N86 N 0.47512 0.22613 0.982 0.0
C87 C 0.47558 0.21114 0.03344 0.0
Gd88 Gd 0.99939 0.02705 0.55372 0.0
Gd89 Gd 0.03525 0.01016 0.68715 0.0
C90 C 0.04389 0.06159 0.8465 0.0
C91 C 0.07715 0.07456 0.81579 0.0
C92 C 0.06259 0.04605 0.75096 0.0
C93 C 0.04531 0.04685 0.79261 0.0
C94 C 0.07883 0.05971 0.7634 0.0
C95 C 0.05973 0.07551 0.85716 0.0
C96 C 0.02655 0.06201 0.88837 0.0
C97 C 0.01133 0.04771 0.87745 0.0
N98 N 0.02987 0.0335 0.78042 0.0
C99 C 0.01333 0.03339 0.82397 0.0
H100 H 1.00147 0.02231 0.81987 0.0
C101 C 0.08202 0.02871 0.66595 0.0
N102 N 0.06385 0.03174 0.69968 0.0
C103 C 0.09831 0.04197 0.67596 0.0
C104 C 0.09657 0.05782 0.72389 0.0
H105 H 0.08453 0.01569 0.63266 0.0
H106 H 0.05872 0.087 0.89775 0.0
H107 H 0.02894 1.00618 0.42898 0.0
H108 H 0.0249 0.07313 0.9299 0.0
H109 H 0.99803 0.04761 0.9106 0.0
H110 H 0.08938 0.08525 0.82535 0.0
H111 H 0.95128 0.03874 0.59281 0.0
H112 H 0.99412 0.96219 0.3168 0.0
H113 H 0.02636 0.98074 0.3357 0.0
H114 H 0.92735 0.96981 0.41226 0.0
H115 H 0.11237 0.03965 0.64774 0.0
H116 H 0.10931 0.068 0.73199 0.0
H117 H 0.95733 0.95769 0.34752 0.0
H118 H 0.91673 0.02551 0.57079 0.0
N119 N 0.99859 1.00211 0.46499 0.0
C120 C 0.99516 0.97341 0.35821 0.0
C121 C 0.01335 0.98389 0.36855 0.0
C122 C 0.9783 0.97815 0.39959 0.0
C123 C 0.98044 0.993 0.45252 0.0
C124 C 0.01478 0.9983 0.42226 0.0
N125 N 0.966 0.01542 0.53417 0.0
C126 C 0.96361 0.99978 0.48873 0.0
C127 C 0.92978 0.01796 0.54795 0.0
C128 C 0.92717 1.00092 0.50518 0.0
C129 C 0.94935 0.02536 0.56044 0.0
C130 C 0.94414 0.99195 0.47339 0.0
H131 H 0.91197 0.99536 0.4947 0.0
O132 O 0.98214 0.05432 0.52959 0.0
O133 O 0.02151 0.03773 0.636 0.0
O134 O 1.0032 1.00237 0.72386 0.0
O135 O 0.9802 0.01454 0.64121 0.0
O136 O 0.99236 0.05011 0.63656 0.0
O137 O 1.00586 0.04318 0.45797 0.0
O138 O 0.06187 0.99287 0.71604 0.0
O139 O 0.01557 1.00106 0.59892 0.0
O140 O 0.03189 0.03259 0.51746 0.0
O141 O 0.05261 0.01199 0.58501 0.0
O142 O 0.03338 0.97852 0.6386 0.0
O143 O 0.03508 0.9929 0.78246 0.0
C144 C 0.01015 0.05114 0.66439 0.0
C145 C 0.94214 0.97618 0.42422 0.0
C146 C 0.9592 0.96929 0.38733 0.0
C147 C 0.99187 0.05664 0.47148 0.0
C148 C 0.98759 0.07338 0.42494 0.0
C149 C 0.96852 0.07501 0.39321 0.0
C150 C 1.00221 0.0885 0.41571 0.0
C151 C 0.9978 0.10552 0.37506 0.0
C152 C 0.96417 0.0917 0.3515 0.0
C153 C 0.97869 0.10693 0.34247 0.0
C154 C 0.98443 1.00603 0.70164 0.0
C155 C 0.0196 0.98224 0.59318 0.0
C156 C 0.05286 0.98479 0.76954 0.0
C157 C 0.0546 0.96256 0.77488 0.0
C158 C 0.07359 0.95331 0.764 0.0
C159 C 0.03756 0.9504 0.78926 0.0
C160 C 0.03952 0.9292 0.79265 0.0
C161 C 0.07556 0.93225 0.76703 0.0
C162 C 0.05867 0.92023 0.7814 0.0
C163 C 0.04959 0.02379 0.53053 0.0
H164 H 0.95705 0.06342 0.40086 0.0
H165 H 0.01669 0.08736 0.44248 0.0
H166 H 0.94947 0.09292 0.32662 0.0
H167 H 0.97499 0.11977 0.30997 0.0
H168 H 0.0869 0.96241 0.75283 0.0
H169 H 0.02277 0.95732 0.7971 0.0
H170 H 0.09025 0.92523 0.75857 0.0
H171 H 0.06067 0.90392 0.78492 0.0
Gd172 Gd 0.5089 0.99868 0.54913 0.0
Gd173 Gd 0.52148 0.03589 0.68055 0.0
C174 C 0.47752 0.04864 0.8605 0.0
C175 C 0.47514 0.08542 0.8587 0.0
C176 C 0.49473 0.06741 0.7701 0.0
C177 C 0.49012 0.04906 0.80094 0.0
C178 C 0.48703 0.08577 0.79817 0.0
C179 C 0.47043 0.0669 0.88987 0.0
C180 C 0.47195 0.02987 0.8879 0.0
C181 C 0.47828 0.01211 0.85472 0.0
N182 N 0.49677 0.03163 0.77005 0.0
C183 C 0.4906 0.01325 0.79578 0.0
H184 H 0.49437 0.9992 0.77056 0.0
C185 C 0.51089 0.08522 0.67942 0.0
N186 N 0.50611 0.06725 0.71125 0.0
C187 C 0.50341 0.1037 0.70482 0.0
C188 C 0.49143 0.10399 0.76452 0.0
H189 H 0.5215 0.08559 0.63668 0.0
H190 H 0.46093 0.06683 0.93593 0.0
H191 H 0.51245 0.02964 0.40489 0.0
H192 H 0.46231 0.02892 0.93348 0.0
H193 H 0.47358 0.99746 0.87423 0.0
H194 H 0.46929 0.09939 0.88132 0.0
H195 H 0.51932 0.9497 0.59258 0.0
H196 H 0.56569 0.01376 0.29312 0.0
H197 H 0.53565 0.03569 0.31003 0.0
H198 H 0.58986 0.9544 0.40699 0.0
H199 H 0.50735 0.11775 0.67932 0.0
H200 H 0.48581 0.11838 0.78454 0.0
H201 H 0.58603 0.98386 0.33074 0.0
H202 H 0.54679 0.92504 0.57853 0.0
N203 N 0.52999 1.00579 0.45123 0.0
C204 C 0.55573 0.01128 0.33712 0.0
C205 C 0.53891 0.02378 0.34678 0.0
C206 C 0.55911 0.9953 0.38295 0.0
C207 C 0.54569 0.9927 0.43976 0.0
C208 C 0.52599 0.02059 0.4032 0.0
N209 N 0.53373 0.97287 0.5328 0.0
C210 C 0.54789 0.97608 0.48279 0.0
C211 C 0.54769 0.93957 0.55275 0.0
C212 C 0.5637 0.94371 0.50784 0.0
C213 C 0.53239 0.95401 0.56235 0.0
C214 C 0.56349 0.96172 0.46989 0.0
H215 H 0.57537 0.93233 0.49934 0.0
O216 O 0.49151 0.97129 0.52965 0.0
O217 O 0.49532 0.02201 0.62191 0.0
O218 O 0.52824 1.00507 0.72691 0.0
O219 O 0.51604 0.98129 0.64728 0.0
O220 O 0.48158 0.9939 0.61705 0.0
O221 O 0.49226 0.99515 0.45287 0.0
O222 O 0.54064 0.05949 0.72407 0.0
O223 O 0.53461 0.01367 0.60386 0.0
O224 O 0.49807 0.03001 0.51247 0.0
O225 O 0.51412 0.05385 0.58377 0.0
O226 O 0.54516 0.04332 0.59987 0.0
O227 O 0.5448 0.02842 0.75619 0.0
C228 C 0.48006 0.01195 0.64304 0.0
C229 C 0.57764 0.9651 0.41674 0.0
C230 C 0.57539 0.9818 0.3731 0.0
C231 C 0.48389 0.97815 0.47209 0.0
C232 C 0.46175 0.97669 0.46581 0.0
C233 C 0.45203 0.95814 0.47935 0.0
C234 C 0.45017 0.99365 0.44681 0.0
C235 C 0.42918 0.99187 0.43975 0.0
C236 C 0.43095 0.95653 0.47331 0.0
C237 C 0.41952 0.97332 0.45301 0.0
C238 C 0.52464 0.98612 0.70721 0.0
C239 C 0.54748 0.02519 0.57513 0.0
C240 C 0.55216 0.04679 0.75686 0.0
C241 C 0.57419 0.04872 0.74571 0.0
C242 C 0.58229 0.06332 0.70039 0.0
C243 C 0.58735 0.03587 0.78176 0.0
C244 C 0.60841 0.03765 0.77355 0.0
C245 C 0.6033 0.06513 0.69235 0.0
C246 C 0.61636 0.05239 0.72884 0.0
C247 C 0.50395 0.04895 0.52677 0.0
H248 H 0.46075 0.94493 0.49449 0.0
H249 H 0.45737 1.00812 0.43616 0.0
H250 H 0.4235 0.94221 0.48362 0.0
H251 H 0.40321 0.97183 0.44708 0.0
H252 H 0.57249 0.07344 0.67153 0.0
H253 H 0.58123 0.02467 0.81716 0.0
H254 H 0.60948 0.07653 0.65826 0.0
H255 H 0.63263 0.05394 0.72188 0.0
Gd256 Gd 0.49448 0.52569 0.66571 0.0
Gd257 Gd 0.53463 0.50805 0.55191 0.0
C258 C 0.59439 0.49507 0.66703 0.0
C259 C 0.61758 0.51879 0.61281 0.0
C260 C 0.58214 0.51728 0.5763 0.0
C261 C 0.57847 0.502 0.62377 0.0
C262 C 0.60187 0.52554 0.56947 0.0
C263 C 0.61384 0.50362 0.66154 0.0
C264 C 0.59029 0.47994 0.71549 0.0
C265 C 0.57075 0.47204 0.72015 0.0
N266 N 0.55933 0.49437 0.62933 0.0
C267 C 0.55547 0.47935 0.67665 0.0
H268 H 0.54056 0.47336 0.68459 0.0
C269 C 0.57053 0.53684 0.48211 0.0
N270 N 0.56661 0.52388 0.53601 0.0
C271 C 0.58971 0.54548 0.47358 0.0
C272 C 0.6054 0.54008 0.5183 0.0
H273 H 0.55881 0.54045 0.4449 0.0
H274 H 0.62612 0.49857 0.69472 0.0
H275 H 0.48906 0.55867 0.52834 0.0
H276 H 0.60205 0.47438 0.74988 0.0
H277 H 0.56733 0.46047 0.75806 0.0
H278 H 0.63274 0.5251 0.60863 0.0
H279 H 0.47106 0.49239 0.77102 0.0
H280 H 0.42617 0.57048 0.50603 0.0
H281 H 0.4617 0.57747 0.47411 0.0
H282 H 0.39426 0.52127 0.65061 0.0
H283 H 0.59243 0.55608 0.43188 0.0
H284 H 0.62032 0.54672 0.51146 0.0
H285 H 0.40119 0.54912 0.57041 0.0
H286 H 0.43643 0.48083 0.79683 0.0
N287 N 0.46974 0.54063 0.59265 0.0
C288 C 0.43817 0.56154 0.52867 0.0
C289 C 0.45823 0.56581 0.51164 0.0
C290 C 0.43386 0.54593 0.57506 0.0
C291 C 0.45015 0.53556 0.60668 0.0
C292 C 0.47387 0.55521 0.54414 0.0
N293 N 0.46215 0.51142 0.68687 0.0
C294 C 0.44627 0.5203 0.65404 0.0
C295 C 0.43894 0.49172 0.75583 0.0
C296 C 0.42255 0.50001 0.72024 0.0
C297 C 0.45862 0.49806 0.73991 0.0
C298 C 0.42603 0.51484 0.67004 0.0
H299 H 0.40724 0.49543 0.73374 0.0
O300 O 0.4863 0.52781 0.77371 0.0
O301 O 0.52823 0.52379 0.65296 0.0
O302 O 0.51869 0.47988 0.59366 0.0
O303 O 0.49284 0.49115 0.66764 0.0
O304 O 0.51634 0.51427 0.7468 0.0
O305 O 0.48835 0.55525 0.71263 0.0
O306 O 0.54348 0.50583 0.44431 0.0
O307 O 0.50079 0.51021 0.56477 0.0
O308 O 0.51074 0.55386 0.62407 0.0
O309 O 0.5348 0.54235 0.54375 0.0
O310 O 0.51226 0.5182 0.46935 0.0
O311 O 0.54298 0.47875 0.5076 0.0
C312 C 0.53288 0.51808 0.71365 0.0
C313 C 0.40987 0.52503 0.63816 0.0
C314 C 0.4138 0.54077 0.59188 0.0
C315 C 0.48619 0.54754 0.77462 0.0
C316 C 0.49739 0.55709 0.8323 0.0
C317 C 0.50213 0.5459 0.89232 0.0
C318 C 0.50265 0.57767 0.82919 0.0
C319 C 0.51228 0.58703 0.88571 0.0
C320 C 0.512 0.5552 0.94821 0.0
C321 C 0.51702 0.57571 0.94517 0.0
C322 C 0.50361 0.47642 0.63795 0.0
C323 C 0.49574 0.51563 0.50413 0.0
C324 C 0.5454 0.48621 0.44539 0.0
C325 C 0.53625 0.47537 0.38625 0.0
C326 C 0.53834 0.48336 0.319 0.0
C327 C 0.52632 0.45676 0.39527 0.0
C328 C 0.51908 0.44602 0.33741 0.0
C329 C 0.53073 0.47278 0.2615 0.0
C330 C 0.52129 0.45404 0.27048 0.0
C331 C 0.52499 0.55714 0.57646 0.0
H332 H 0.49809 0.53001 0.89647 0.0
H333 H 0.49884 0.58656 0.78376 0.0
H334 H 0.51561 0.54653 0.99416 0.0
H335 H 0.52463 0.58276 0.98914 0.0
H336 H 0.54605 0.49769 0.31085 0.0
H337 H 0.52475 0.45027 0.44665 0.0
H338 H 0.53244 0.47896 0.20986 0.0
H339 H 0.51576 0.44575 0.22536 0.0
Gd340 Gd 1.00649 0.50259 0.6656 0.0
Gd341 Gd 0.02627 0.53889 0.54489 0.0
C342 C 0.04317 0.59953 0.64864 0.0
C343 C 0.02053 0.623 0.59036 0.0
C344 C 0.02012 0.58702 0.55969 0.0
C345 C 0.03534 0.58333 0.60795 0.0
C346 C 0.01299 0.60702 0.54918 0.0
C347 C 0.03552 0.61926 0.64012 0.0
C348 C 0.05834 0.59547 0.69738 0.0
C349 C 0.06556 0.57573 0.70431 0.0
N350 N 0.0422 0.56397 0.61623 0.0
C351 C 0.05744 0.56017 0.66309 0.0
H352 H 0.06316 0.54519 0.67198 0.0
C353 C 0.99998 0.57489 0.4666 0.0
N354 N 0.01256 0.57124 0.52194 0.0
C355 C 0.99257 0.59439 0.45405 0.0
C356 C 0.99879 0.61049 0.49646 0.0
H357 H 0.99519 0.56255 0.43286 0.0
H358 H 0.04124 0.63178 0.67142 0.0
H359 H 0.97914 0.47976 0.53802 0.0
H360 H 0.06457 0.60747 0.7299 0.0
H361 H 0.07728 0.57241 0.74205 0.0
H362 H 0.01503 0.63838 0.58355 0.0
H363 H 0.03159 0.49708 0.81507 0.0
H364 H 0.98251 0.41587 0.56594 0.0
H365 H 0.96984 0.44543 0.50124 0.0
H366 H 0.02364 0.40874 0.76951 0.0
H367 H 0.98211 0.59697 0.4116 0.0
H368 H 0.993 0.62562 0.48677 0.0
H369 H 1.00215 0.40241 0.6675 0.0
H370 H 0.04435 0.46939 0.88887 0.0
N371 N 0.99885 0.47018 0.61979 0.0
C372 C 0.98745 0.43096 0.58098 0.0
C373 C 0.98009 0.44762 0.54471 0.0
C374 C 1.00036 0.43403 0.63788 0.0
C375 C 1.00596 0.45408 0.65612 0.0
C376 C 0.98555 0.46719 0.56593 0.0
N377 N 0.02093 0.47723 0.73494 0.0
C378 C 0.01745 0.45772 0.71523 0.0
C379 C 0.03697 0.4659 0.8399 0.0
C380 C 0.03423 0.44573 0.81898 0.0
C381 C 0.02979 0.48154 0.79774 0.0
C382 C 0.02395 0.44142 0.75695 0.0
H383 H 0.03942 0.43359 0.85214 0.0
O384 O 0.99309 0.51153 0.7637 0.0
O385 O 0.01012 0.53598 0.64549 0.0
O386 O 0.05305 0.52111 0.59256 0.0
O387 O 0.04043 0.49687 0.67003 0.0
O388 O 0.02009 0.52521 0.74038 0.0
O389 O 0.97528 0.49406 0.68943 0.0
O390 O 0.02825 0.5437 0.43438 0.0
O391 O 0.02202 0.50571 0.56313 0.0
O392 O 0.98167 0.51194 0.5895 0.0
O393 O 0.99191 0.54293 0.54571 0.0
O394 O 0.01412 0.51607 0.46632 0.0
O395 O 0.05522 0.54693 0.4989 0.0
C396 C 0.01697 0.54136 0.70459 0.0
C397 C 0.01898 0.42143 0.73771 0.0
C398 C 1.00693 0.41779 0.67903 0.0
C399 C 0.97583 0.50287 0.75026 0.0
C400 C 0.96607 0.49289 0.80861 0.0
C401 C 0.97504 0.47674 0.8446 0.0
C402 C 0.94832 0.50178 0.83373 0.0
C403 C 0.93963 0.49515 0.8957 0.0
C404 C 0.96628 0.46993 0.90655 0.0
C405 C 0.9487 0.47928 0.93269 0.0
C406 C 0.05573 0.50651 0.63963 0.0
C407 C 0.01589 0.5 0.50356 0.0
C408 C 0.0477 0.54711 0.43592 0.0
C409 C 0.05942 0.53757 0.37983 0.0
C410 C 0.05284 0.53985 0.31082 0.0
C411 C 0.07761 0.52731 0.39343 0.0
C412 C 0.08943 0.52002 0.33828 0.0
C413 C 0.06447 0.53218 0.2559 0.0
C414 C 0.08286 0.52247 0.26944 0.0
C415 C 0.9777 0.5291 0.55686 0.0
H416 H 0.98887 0.46975 0.82589 0.0
H417 H 0.94162 0.5145 0.80631 0.0
H418 H 0.97327 0.45761 0.9348 0.0
H419 H 0.94212 0.47407 0.98099 0.0
H420 H 0.03883 0.54784 0.29938 0.0
H421 H 0.083 0.52559 0.44637 0.0
H422 H 0.05939 0.53408 0.20282 0.0
H423 H 0.092 0.51693 0.22638 0.0
H424 H 0.18143 0.07828 0.05467 0.0
H425 H 0.15393 0.07412 0.13976 0.0
H426 H 0.18144 0.01838 0.20961 0.0
H427 H 0.20868 0.0224 0.12324 0.0
H428 H 0.14248 0.01252 0.20079 0.0
H429 H 0.18249 0.06583 0.30497 0.0
H430 H 0.19986 0.099 0.31103 0.0
H431 H 0.14315 0.12957 0.27542 0.0
H432 H 0.1255 0.09655 0.26812 0.0
H433 H 0.08465 1.00128 0.51219 0.0
H434 H 0.11231 1.00694 0.42928 0.0
H435 H 0.08111 0.05957 0.35064 0.0
H436 H 0.05348 0.0541 0.43383 0.0
H437 H 0.12134 0.06743 0.36368 0.0
H438 H 0.0812 0.01511 0.26014 0.0
H439 H 0.06298 0.9824 0.25603 0.0
H440 H 0.11905 0.9505 0.28961 0.0
H441 H 0.13757 0.98308 0.29524 0.0
C442 C 0.18162 0.06519 0.08848 0.0
C443 C 0.19721 0.05067 0.0823 0.0
C444 C 0.16591 0.06285 0.1376 0.0
C445 C 0.16548 0.046 0.1825 0.0
C446 C 0.18121 0.03152 0.17612 0.0
C447 C 0.19688 0.03385 0.12683 0.0
C448 C 0.14853 0.0432 0.23482 0.0
C449 C 0.13816 0.02449 0.237 0.0
C450 C 0.14213 0.05888 0.2813 0.0
C451 C 0.15273 0.07871 0.28523 0.0
C452 C 0.17377 0.07962 0.29782 0.0
C453 C 0.18365 0.09839 0.30159 0.0
C454 C 0.17263 0.11638 0.29342 0.0
C455 C 0.15168 0.11563 0.2816 0.0
C456 C 0.14173 0.09689 0.27766 0.0
C457 C 0.0837 0.01417 0.47772 0.0
C458 C 0.06673 0.02724 0.4803 0.0
C459 C 0.09953 0.01732 0.42975 0.0
C460 C 0.09891 0.03364 0.38278 0.0
C461 C 0.08211 0.04687 0.38596 0.0
C462 C 0.0662 0.04364 0.43356 0.0
C463 C 0.11557 0.03673 0.32997 0.0
C464 C 0.12577 0.05548 0.32753 0.0
C465 C 0.12175 0.02116 0.28303 0.0
C466 C 0.11074 1.00154 0.2788 0.0
C467 C 0.08963 1.00113 0.26717 0.0
C468 C 0.07924 0.98261 0.26453 0.0
C469 C 0.08984 0.96438 0.27272 0.0
C470 C 0.11086 0.96464 0.28338 0.0
C471 C 0.12131 0.98312 0.28629 0.0
H472 H 0.08178 0.95006 0.27067 0.0
H473 H 0.18031 0.1309 0.29642 0.0
H474 H 0.44747 0.20137 0.13154 0.0
H475 H 0.4493 0.17339 0.21545 0.0
H476 H 0.50829 0.15671 0.1349 0.0
H477 H 0.50619 0.18437 0.05044 0.0
H478 H 0.48697 0.12338 0.15509 0.0
H479 H 0.50093 0.18395 0.29334 0.0
H480 H 0.49308 0.21789 0.34188 0.0
H481 H 0.43897 0.19434 0.43674 0.0
H482 H 0.44638 0.16033 0.38791 0.0
H483 H 0.52244 0.08597 0.51311 0.0
H484 H 0.51461 0.11297 0.431 0.0
H485 H 0.46598 0.07676 0.34505 0.0
H486 H 0.47387 0.0495 0.42706 0.0
H487 H 0.47962 0.13576 0.40875 0.0
H488 H 0.46272 0.08121 0.20316 0.0
H489 H 0.47229 0.04701 0.16005 0.0
H490 H 0.53507 0.05982 0.20364 0.0
H491 H 0.52566 0.09387 0.24852 0.0
C492 C 0.4608 0.19169 0.13201 0.0
C493 C 0.47671 0.19498 0.08471 0.0
C494 C 0.46189 0.17574 0.18013 0.0
C495 C 0.47903 0.16288 0.1823 0.0
C496 C 0.49487 0.16626 0.13453 0.0
C497 C 0.49373 0.18214 0.08644 0.0
C498 C 0.48071 0.14601 0.23419 0.0
C499 C 0.48521 0.12621 0.21043 0.0
C500 C 0.47844 0.1493 0.30685 0.0
C501 C 0.47409 0.16969 0.3364 0.0
C502 C 0.48729 0.18606 0.32416 0.0
C503 C 0.48293 0.2053 0.35176 0.0
C504 C 0.46551 0.20829 0.3922 0.0
C505 C 0.45244 0.19202 0.40531 0.0
C506 C 0.45671 0.17277 0.37771 0.0
C507 C 0.50989 0.08378 0.47747 0.0
C508 C 0.49869 0.06555 0.47735 0.0
C509 C 0.50549 0.09926 0.43013 0.0
C510 C 0.48985 0.09692 0.38103 0.0
C511 C 0.47842 0.07883 0.38127 0.0
C512 C 0.48288 0.06327 0.42855 0.0
C513 C 0.48582 0.11336 0.32938 0.0
C514 C 0.481 0.13301 0.35323 0.0
C515 C 0.48776 0.11001 0.25698 0.0
C516 C 0.49351 0.0899 0.22893 0.0
C517 C 0.47853 0.07666 0.20324 0.0
C518 C 0.48391 0.0573 0.17897 0.0
C519 C 0.50428 0.05122 0.17921 0.0
C520 C 0.5193 0.0645 0.20379 0.0
C521 C 0.51394 0.08377 0.22897 0.0
H522 H 0.50844 0.03624 0.16031 0.0
H523 H 0.46215 0.2232 0.41351 0.0
H524 H 0.36339 0.47747 0.02497 0.0
H525 H 0.39147 0.48112 0.1082 0.0
H526 H 0.3482 0.486 0.27617 0.0
H527 H 0.32017 0.48285 0.19244 0.0
H528 H 0.37445 0.51388 0.2926 0.0
H529 H 0.38197 0.44272 0.24641 0.0
H530 H 0.38666 0.41146 0.17644 0.0
H531 H 0.4431 0.43449 0.09738 0.0
H532 H 0.43864 0.46599 0.16621 0.0
H533 H 0.46213 0.49265 0.54456 0.0
H534 H 0.43094 0.4858 0.47678 0.0
H535 H 0.45368 0.52297 0.31092 0.0
H536 H 0.48425 0.53044 0.37895 0.0
H537 H 0.43696 0.47195 0.30171 0.0
H538 H 0.42319 0.54596 0.32226 0.0
H539 H 0.41321 0.57915 0.37206 0.0
H540 H 0.36636 0.55033 0.49152 0.0
H541 H 0.37634 0.51695 0.44307 0.0
C542 C 0.35992 0.47914 0.07979 0.0
C543 C 0.33957 0.47987 0.10207 0.0
C544 C 0.37603 0.48106 0.12768 0.0
C545 C 0.37224 0.48358 0.19941 0.0
C546 C 0.35177 0.48402 0.22154 0.0
C547 C 0.33567 0.48218 0.17356 0.0
C548 C 0.38935 0.48744 0.25048 0.0
C549 C 0.38789 0.50435 0.29518 0.0
C550 C 0.40737 0.47552 0.25358 0.0
C551 C 0.40987 0.45679 0.21102 0.0
C552 C 0.39528 0.4412 0.21358 0.0
C553 C 0.39792 0.42342 0.17425 0.0
C554 C 0.41514 0.42101 0.13238 0.0
C555 C 0.42976 0.43638 0.12978 0.0
C556 C 0.42719 0.45419 0.16899 0.0
C557 C 0.46021 0.49982 0.49454 0.0
C558 C 0.47564 0.51245 0.46801 0.0
C559 C 0.44239 0.4958 0.45552 0.0
C560 C 0.43968 0.50409 0.38872 0.0
C561 C 0.45507 0.51667 0.36254 0.0
C562 C 0.47267 0.52085 0.4016 0.0
C563 C 0.42186 0.49836 0.34341 0.0
C564 C 0.42328 0.48114 0.29971 0.0
C565 C 0.40378 0.51 0.34068 0.0
C566 C 0.40092 0.52895 0.3808 0.0
C567 C 0.41126 0.54663 0.36103 0.0
C568 C 0.40534 0.56552 0.38796 0.0
C569 C 0.38917 0.56686 0.43499 0.0
C570 C 0.37891 0.54929 0.45524 0.0
C571 C 0.38481 0.53038 0.42858 0.0
H572 H 0.38463 0.5815 0.45585 0.0
H573 H 0.41717 0.40724 0.102 0.0
H574 H 0.0156 0.35522 0.04804 0.0
H575 H 0.01474 0.38463 0.12685 0.0
H576 H 0.05951 0.35604 0.25772 0.0
H577 H 0.05981 0.32625 0.17932 0.0
H578 H 0.03482 0.37272 0.33894 0.0
H579 H 0.0699 0.39938 0.14901 0.0
H580 H 0.07852 0.4083 0.02837 0.0
H581 H 0.02425 0.44432 0.01394 0.0
H582 H 0.01515 0.43541 0.13451 0.0
H583 H 0.04136 0.46776 0.54003 0.0
H584 H 0.04849 0.43692 0.47144 0.0
H585 H 1.00371 0.45512 0.32034 0.0
H586 H 0.99759 0.48626 0.38646 0.0
H587 H 0.03384 0.44334 0.2521 0.0
H588 H 0.99828 0.39528 0.43924 0.0
H589 H 0.99661 0.38054 0.55685 0.0
H590 H 0.0614 0.38595 0.57698 0.0
H591 H 0.06348 0.39963 0.45798 0.0
C592 C 0.0253 0.35525 0.09357 0.0
C593 C 0.03778 0.33843 0.1073 0.0
C594 C 0.02495 0.37222 0.1386 0.0
C595 C 0.03731 0.37306 0.19851 0.0
C596 C 0.0498 0.35608 0.21223 0.0
C597 C 0.05005 0.339 0.16719 0.0
C598 C 0.03657 0.39125 0.24751 0.0
C599 C 0.03481 0.38814 0.3195 0.0
C600 C 0.03683 0.41164 0.22386 0.0
C601 C 0.04176 0.41658 0.15063 0.0
C602 C 0.05968 0.40902 0.11991 0.0
C603 C 0.06468 0.41412 0.05163 0.0
C604 C 0.05194 0.42686 0.01361 0.0
C605 C 0.0341 0.43445 0.04358 0.0
C606 C 0.02902 0.42939 0.11193 0.0
C607 C 0.03283 0.46497 0.49273 0.0
C608 C 0.01878 0.47955 0.46915 0.0
C609 C 0.03675 0.44706 0.45347 0.0
C610 C 0.02645 0.44301 0.39018 0.0
C611 C 0.01206 0.45749 0.36827 0.0
C612 C 1.00845 0.4754 0.40655 0.0
C613 C 0.03115 0.4248 0.3435 0.0
C614 C 0.03371 0.42791 0.27144 0.0
C615 C 0.03246 0.40445 0.36726 0.0
C616 C 0.03094 0.39907 0.44114 0.0
C617 C 0.01209 0.3936 0.46935 0.0
C618 C 0.01112 0.38513 0.53565 0.0
C619 C 0.02887 0.38247 0.57456 0.0
C620 C 0.04765 0.38812 0.547 0.0
C621 C 0.04875 0.39606 0.47998 0.0
H622 H 0.02807 0.37598 0.626 0.0
H623 H 0.05601 0.43094 0.96109 0.0
H624 H 0.81998 0.01362 0.07011 0.0
H625 H 0.84865 0.01398 0.98848 0.0
H626 H 0.87692 0.96497 0.10062 0.0
H627 H 0.84837 0.96504 0.18326 0.0
H628 H 0.905 0.99123 0.06921 0.0
H629 H 0.85341 0.95819 0.93579 0.0
H630 H 0.81943 0.95376 0.88376 0.0
H631 H 0.82722 1.00867 0.7677 0.0
H632 H 0.86116 0.01358 0.81983 0.0
H633 H 0.9823 0.97826 0.80851 0.0
H634 H 0.95392 0.97244 0.88873 0.0
H635 H 0.91925 0.01911 0.78628 0.0
H636 H 0.94714 0.02446 0.70567 0.0
H637 H 0.89466 0.99086 0.81383 0.0
H638 H 0.94623 0.02437 0.95448 0.0
H639 H 0.98032 0.02769 0.0069 0.0
H640 H 0.97271 0.9704 0.10891 0.0
H641 H 0.93866 0.96665 0.05651 0.0
C642 C 0.83225 1.00283 0.07688 0.0
C643 C 0.83191 0.98922 0.13267 0.0
C644 C 0.84866 1.00296 0.02998 0.0
C645 C 0.86506 0.98931 0.03724 0.0
C646 C 0.8646 0.97566 0.0933 0.0
C647 C 0.8482 0.9756 0.14037 0.0
C648 C 0.88274 0.98955 0.98725 0.0
C649 C 0.90269 0.99087 0.01336 0.0
C650 C 0.88004 0.98931 0.91405 0.0
C651 C 0.85973 0.98634 0.88217 0.0
C652 C 0.84782 0.96939 0.89951 0.0
C653 C 0.82857 0.96678 0.86996 0.0
C654 C 0.82115 0.98095 0.82258 0.0
C655 C 0.83298 0.99772 0.80447 0.0
C656 C 0.85223 1.00042 0.83395 0.0
C657 C 0.96855 0.98715 0.80277 0.0
C658 C 0.96699 1.0016 0.74941 0.0
C659 C 0.95231 0.98395 0.84925 0.0
C660 C 0.93427 0.99552 0.84492 0.0
C661 C 0.93276 0.00982 0.79122 0.0
C662 C 0.94881 0.01279 0.74439 0.0
C663 C 0.91694 0.99302 0.89564 0.0
C664 C 0.89701 0.99121 0.86966 0.0
C665 C 0.91969 0.99273 0.96891 0.0
C666 C 0.94001 0.99515 1.0011 0.0
C667 C 0.95188 0.01245 0.98784 0.0
C668 C 0.97119 0.0144 0.01751 0.0
C669 C 0.97871 0.99924 0.06098 0.0
C670 C 0.96689 0.98212 0.07512 0.0
C671 C 0.94759 0.98008 0.04552 0.0
H672 H 0.99367 1.00077 0.08384 0.0
H673 H 0.80624 0.97891 0.79979 0.0
H674 H 0.53631 0.8216 0.06694 0.0
H675 H 0.53403 0.84951 0.98328 0.0
H676 H 0.56542 0.88904 0.12786 0.0
H677 H 0.56723 0.86119 0.21185 0.0
H678 H 0.5353 0.90901 0.07611 0.0
H679 H 0.5884 0.86974 0.9764 0.0
H680 H 0.60588 0.83926 0.93089 0.0
H681 H 0.56068 0.83288 0.77109 0.0
H682 H 0.54273 0.86316 0.81636 0.0
H683 H 0.549 0.98768 0.82339 0.0
H684 H 0.55608 0.96046 0.90612 0.0
H685 H 0.51775 0.91975 0.78818 0.0
H686 H 0.5101 0.94693 0.7068 0.0
H687 H 0.55397 0.90145 0.82729 0.0
H688 H 0.50083 0.94173 0.93539 0.0
H689 H 0.48607 0.97366 0.98075 0.0
H690 H 0.53529 0.9795 0.12629 0.0
H691 H 0.55053 0.94777 0.08087 0.0
C692 C 0.54279 0.83625 0.08044 0.0
C693 C 0.55192 0.83934 0.14562 0.0
C694 C 0.5416 0.85219 0.03251 0.0
C695 C 0.54971 0.8715 0.0486 0.0
C696 C 0.55901 0.87441 0.11387 0.0
C697 C 0.56013 0.85848 0.16179 0.0
C698 C 0.54791 0.88878 0.99852 0.0
C699 C 0.5397 0.90737 0.02198 0.0
C700 C 0.55345 0.88686 0.92746 0.0
C701 C 0.56409 0.86858 0.90027 0.0
C702 C 0.58208 0.86172 0.93196 0.0
C703 C 0.59209 0.8445 0.90614 0.0
C704 C 0.58436 0.8341 0.84827 0.0
C705 C 0.56662 0.84093 0.81601 0.0
C706 C 0.55652 0.85812 0.84171 0.0
C707 C 0.54205 0.97295 0.81495 0.0
C708 C 0.52921 0.96951 0.75737 0.0
C709 C 0.54614 0.95736 0.8624 0.0
C710 C 0.53747 0.93798 0.85353 0.0
C711 C 0.5248 0.93448 0.79591 0.0
C712 C 0.52056 0.95007 0.7489 0.0
C713 C 0.54112 0.92141 0.90484 0.0
C714 C 0.54968 0.90301 0.88156 0.0
C715 C 0.53625 0.92363 0.97627 0.0
C716 C 0.52692 0.9425 0.00427 0.0
C717 C 0.50857 0.9499 0.97672 0.0
C718 C 0.50012 0.96796 1.00245 0.0
C719 C 0.50976 0.97863 0.05623 0.0
C720 C 0.52785 0.97124 0.08454 0.0
C721 C 0.53641 0.95322 0.05884 0.0
H722 H 0.5032 0.99261 0.07607 0.0
H723 H 0.59215 0.82078 0.82832 0.0
H724 H 0.67206 0.53958 0.17998 0.0
H725 H 0.64307 0.53699 0.10036 0.0
H726 H 0.68197 0.55261 0.92841 0.0
H727 H 0.71111 0.55544 0.00892 0.0
H728 H 0.64339 0.57102 0.91837 0.0
H729 H 0.66948 0.50316 0.95574 0.0
H730 H 0.68075 0.47512 0.03085 0.0
H731 H 0.62179 0.47316 0.12652 0.0
H732 H 0.61025 0.50136 0.0525 0.0
H733 H 0.56506 0.54295 0.67553 0.0
H734 H 0.59708 0.54826 0.73764 0.0
H735 H 0.5737 0.51351 0.90983 0.0
H736 H 0.54353 0.50544 0.84237 0.0
H737 H 0.60796 0.50458 0.9109 0.0
H738 H 0.5818 0.57373 0.89099 0.0
H739 H 0.56966 0.60368 0.82716 0.0
H740 H 0.62538 0.60545 0.71126 0.0
H741 H 0.63796 0.57552 0.77482 0.0
C742 C 0.67439 0.54262 0.12527 0.0
C743 C 0.69381 0.5476 0.10061 0.0
C744 C 0.65781 0.54108 0.07961 0.0
C745 C 0.66023 0.5443 0.00778 0.0
C746 C 0.67961 0.54998 0.98334 0.0
C747 C 0.69627 0.55153 0.0293 0.0
C748 C 0.64277 0.54065 0.95862 0.0
C749 C 0.6357 0.55645 0.91624 0.0
C750 C 0.63236 0.52182 0.95624 0.0
C751 C 0.63904 0.50438 0.99878 0.0
C752 C 0.65894 0.49675 0.99285 0.0
C753 C 0.66537 0.48085 0.03526 0.0
C754 C 0.652 0.47237 0.08346 0.0
C755 C 0.63213 0.47973 0.08913 0.0
C756 C 0.62562 0.49564 0.04687 0.0
C757 C 0.56714 0.53593 0.7257 0.0
C758 C 0.55213 0.5229 0.75222 0.0
C759 C 0.58532 0.53951 0.76271 0.0
C760 C 0.58826 0.53164 0.8302 0.0
C761 C 0.57253 0.51958 0.85783 0.0
C762 C 0.55499 0.51508 0.81928 0.0
C763 C 0.60749 0.53533 0.87226 0.0
C764 C 0.61524 0.51935 0.91296 0.0
C765 C 0.6181 0.55421 0.87445 0.0
C766 C 0.61072 0.57234 0.83716 0.0
C767 C 0.59144 0.58051 0.85182 0.0
C768 C 0.58447 0.59746 0.81564 0.0
C769 C 0.59665 0.60641 0.76483 0.0
C770 C 0.61593 0.5985 0.7505 0.0
C771 C 0.62303 0.58158 0.78675 0.0
H772 H 0.59116 0.6195 0.73676 0.0
H773 H 0.65703 0.4601 0.11638 0.0
H774 H 0.99663 0.68165 0.17543 0.0
H775 H 0.99898 0.6522 0.09692 0.0
H776 H 0.9828 0.69007 0.92367 0.0
H777 H 0.9802 0.71968 1.00308 0.0
H778 H 0.96479 0.65092 0.91333 0.0
H779 H 0.03276 0.67811 0.95533 0.0
H780 H 0.06068 0.68924 0.03243 0.0
H781 H 0.06249 0.63012 0.12522 0.0
H782 H 0.03443 0.61874 0.04917 0.0
H783 H 0.99412 0.57502 0.66435 0.0
H784 H 0.98998 0.60724 0.72755 0.0
H785 H 0.02364 0.5825 0.90026 0.0
H786 H 0.03091 0.55223 0.83181 0.0
H787 H 0.03217 0.61715 0.9061 0.0
H788 H 0.96537 0.58828 0.87372 0.0
H789 H 0.93894 0.57426 0.7959 0.0
H790 H 0.93288 0.63224 0.6972 0.0
H791 H 0.95971 0.64643 0.77298 0.0
C792 C 0.99335 0.68366 0.1207 0.0
C793 C 0.98829 0.70299 0.0955 0.0
C794 C 0.99475 0.66678 0.07562 0.0
C795 C 0.99134 0.66874 1.00364 0.0
C796 C 0.98554 0.688 0.97869 0.0
C797 C 0.98413 0.70497 0.02407 0.0
C798 C 0.9952 0.65105 0.95471 0.0
C799 C 0.97956 0.64361 0.91141 0.0
C800 C 0.01425 0.64096 0.95268 0.0
C801 C 0.03147 0.64764 0.99689 0.0
C802 C 0.0391 0.66752 0.99231 0.0
C803 C 0.05494 0.67387 0.03583 0.0
C804 C 0.06334 0.6604 0.08376 0.0
C805 C 0.05597 0.64054 0.08808 0.0
C806 C 0.04013 0.63412 0.04472 0.0
C807 C 1.0013 0.57686 0.71463 0.0
C808 C 0.01355 0.56127 0.74151 0.0
C809 C 0.99839 0.59516 0.7522 0.0
C810 C 1.00592 0.59759 0.82076 0.0
C811 C 0.01768 0.58161 0.84785 0.0
C812 C 0.02168 0.56401 0.80862 0.0
C813 C 1.00161 0.61632 0.86534 0.0
C814 C 0.01724 0.62413 0.90795 0.0
C815 C 0.98233 0.62619 0.86836 0.0
C816 C 0.9647 0.61835 0.82843 0.0
C817 C 0.95838 0.59803 0.83541 0.0
C818 C 0.9435 0.59 0.79116 0.0
C819 C 0.93446 0.60229 0.74098 0.0
C820 C 0.94003 0.62271 0.73572 0.0
C821 C 0.95508 0.63075 0.77926 0.0
H822 H 0.92294 0.59609 0.70673 0.0
H823 H 0.07557 0.66536 0.1175 0.0
H824 H 0.10262 0.24 0.09521 0.0
H825 H 0.10545 0.21444 0.18643 0.0
H826 H 0.05096 0.23826 0.28248 0.0
H827 H 0.04879 0.26413 0.19466 0.0
H828 H 0.0692 0.2185 0.37402 0.0
H829 H 0.04971 0.20277 0.13117 0.0
H830 H 0.05526 0.19889 0.0053 0.0
H831 H 0.10801 0.16213 0.04297 0.0
H832 H 0.10231 0.16528 0.16969 0.0
H833 H 0.99078 0.14626 0.3809 0.0
H834 H 0.01515 0.17346 0.3632 0.0
H835 H 0.06349 0.12954 0.34173 0.0
H836 H 0.03886 0.10199 0.35503 0.0
H837 H 0.06065 0.15531 0.23451 0.0
H838 H 0.07666 0.17591 0.49157 0.0
H839 H 0.06539 0.18261 0.61206 0.0
H840 H 0.01115 0.21116 0.53648 0.0
H841 H 0.02296 0.2061 0.41565 0.0
C842 C 0.09202 0.24047 0.13833 0.0
C843 C 0.07519 0.25365 0.13707 0.0
C844 C 0.0935 0.22574 0.18997 0.0
C845 C 0.07786 0.22381 0.23918 0.0
C846 C 0.0631 0.23918 0.24454 0.0
C847 C 0.06189 0.25413 0.19409 0.0
C848 C 0.07381 0.20422 0.27389 0.0
C849 C 0.06771 0.20457 0.3438 0.0
C850 C 0.0719 0.18589 0.23502 0.0
C851 C 0.07586 0.18462 0.1595 0.0
C852 C 0.06263 0.19407 0.11253 0.0
C853 C 0.0658 0.19198 0.04106 0.0
C854 C 0.08223 0.18063 0.01592 0.0
C855 C 0.09539 0.17108 0.06244 0.0
C856 C 0.09215 0.17292 0.13409 0.0
C857 C 1.00661 0.14238 0.37268 0.0
C858 C 0.01288 0.12202 0.36866 0.0
C859 C 0.02065 0.15799 0.36481 0.0
C860 C 0.0413 0.15359 0.35447 0.0
C861 C 0.04769 0.13325 0.3516 0.0
C862 C 0.0336 0.11757 0.35883 0.0
C863 C 0.05522 0.16996 0.33334 0.0
C864 C 0.06318 0.16887 0.26593 0.0
C865 C 0.058 0.18783 0.37335 0.0
C866 C 0.05029 0.18993 0.44502 0.0
C867 C 0.06222 0.18338 0.50086 0.0
C868 C 0.05583 0.18705 0.56914 0.0
C869 C 0.03729 0.19675 0.58203 0.0
C870 C 0.02536 0.20336 0.52653 0.0
C871 C 0.03201 0.20031 0.45818 0.0
H872 H 0.03231 0.19941 0.63498 0.0
H873 H 0.08461 0.17901 0.96046 0.0
H874 H 0.29265 0.02703 0.1168 0.0
H875 H 0.31703 0.02413 0.21032 0.0
H876 H 0.30649 0.08689 0.26831 0.0
H877 H 0.28299 0.09014 0.16929 0.0
H878 H 0.34502 0.08027 0.2527 0.0
H879 H 0.29368 0.04424 0.38215 0.0
H880 H 0.26588 0.01929 0.39259 0.0
H881 H 0.30654 0.97119 0.33237 0.0
H882 H 0.3345 0.99581 0.32095 0.0
H883 H 0.41561 0.0245 0.51354 0.0
H884 H 0.38956 0.04878 0.47491 0.0
H885 H 0.39044 0.02118 0.27054 0.0
H886 H 0.41623 0.99703 0.30896 0.0
H887 H 0.35402 0.01962 0.40078 0.0
H888 H 0.39753 0.05557 0.22505 0.0
H889 H 0.42588 0.07854 0.19723 0.0
H890 H 0.4009 0.12416 0.33367 0.0
H891 H 0.37245 0.10125 0.36282 0.0
C892 C 0.29489 0.03991 0.15151 0.0
C893 C 0.28584 0.05865 0.13755 0.0
C894 C 0.30875 0.03827 0.20529 0.0
C895 C 0.31314 0.05514 0.24791 0.0
C896 C 0.30303 0.07364 0.23667 0.0
C897 C 0.2895 0.07544 0.18105 0.0
C898 C 0.33042 0.05385 0.29643 0.0
C899 C 0.34673 0.06738 0.28701 0.0
C900 C 0.33278 0.03691 0.34057 0.0
C901 C 0.31623 0.0219 0.35139 0.0
C902 C 0.29671 0.02833 0.37154 0.0
C903 C 0.28091 0.01424 0.37742 0.0
C904 C 0.28446 0.99367 0.36335 0.0
C905 C 0.30383 0.98711 0.34365 0.0
C906 C 0.31969 1.00111 0.33782 0.0
C907 C 0.41068 0.02426 0.45978 0.0
C908 C 0.41739 1.00898 0.41402 0.0
C909 C 0.3961 0.03819 0.4377 0.0
C910 C 0.38851 0.03691 0.36975 0.0
C911 C 0.39663 0.02272 0.32256 0.0
C912 C 0.41105 1.00879 0.34463 0.0
C913 C 0.36853 0.04537 0.35379 0.0
C914 C 0.35181 0.03312 0.36961 0.0
C915 C 0.36596 0.06304 0.31414 0.0
C916 C 0.38319 0.07655 0.29738 0.0
C917 C 0.39829 0.07034 0.25009 0.0
C918 C 0.41434 0.08339 0.23384 0.0
C919 C 0.41535 0.10274 0.26425 0.0
C920 C 0.4002 0.10912 0.31057 0.0
C921 C 0.38412 0.09611 0.32697 0.0
H922 H 0.42779 0.11282 0.25159 0.0
H923 H 0.27217 0.98281 0.36759 0.0
H924 H 0.4294 0.29027 0.14355 0.0
H925 H 0.43154 0.31492 0.23962 0.0
H926 H 0.49629 0.30429 0.25239 0.0
H927 H 0.49372 0.2787 0.16103 0.0
H928 H 0.48595 0.31787 0.36751 0.0
H929 H 0.47348 0.33923 0.13099 0.0
H930 H 0.45512 0.34271 0.01983 0.0
H931 H 0.40365 0.36783 0.12792 0.0
H932 H 0.42181 0.36465 0.23969 0.0
H933 H 0.53385 0.41067 0.28751 0.0
H934 H 0.51769 0.37722 0.2929 0.0
H935 H 0.46804 0.40293 0.41101 0.0
H936 H 0.48459 0.4365 0.40767 0.0
H937 H 0.46151 0.38261 0.26697 0.0
H938 H 0.48919 0.37104 0.49617 0.0
H939 H 0.51736 0.37173 0.58081 0.0
H940 H 0.55167 0.33067 0.45143 0.0
H941 H 0.52379 0.32991 0.36578 0.0
C942 C 0.44377 0.29243 0.17012 0.0
C943 C 0.46142 0.28279 0.14568 0.0
C944 C 0.44507 0.30664 0.22421 0.0
C945 C 0.46417 0.31198 0.2514 0.0
C946 C 0.48136 0.30053 0.23226 0.0
C947 C 0.47993 0.28588 0.18001 0.0
C948 C 0.46721 0.33152 0.2885 0.0
C949 C 0.48034 0.332 0.34613 0.0
C950 C 0.46001 0.35007 0.26045 0.0
C951 C 0.44878 0.35125 0.19376 0.0
C952 C 0.45815 0.34526 0.13107 0.0
C953 C 0.44782 0.34725 0.06796 0.0
C954 C 0.42814 0.35526 0.06688 0.0
C955 C 0.41882 0.36146 0.12888 0.0
C956 C 0.42913 0.35961 0.1921 0.0
C957 C 0.51969 0.40902 0.31569 0.0
C958 C 0.51019 0.42589 0.34642 0.0
C959 C 0.51062 0.39001 0.31938 0.0
C960 C 0.49188 0.3878 0.35312 0.0
C961 C 0.48267 0.40451 0.3859 0.0
C962 C 0.49199 0.42352 0.38348 0.0
C963 C 0.48075 0.36875 0.3434 0.0
C964 C 0.46615 0.36841 0.29066 0.0
C965 C 0.48782 0.35046 0.37228 0.0
C966 C 0.50434 0.35036 0.4248 0.0
C967 C 0.50275 0.36218 0.48582 0.0
C968 C 0.51867 0.36259 0.53393 0.0
C969 C 0.53629 0.35123 0.52154 0.0
C970 C 0.53799 0.3394 0.46109 0.0
C971 C 0.52209 0.33893 0.41287 0.0
H972 H 0.54863 0.3516 0.55877 0.0
H973 H 0.42017 0.35678 0.01797 0.0
H974 H 0.2466 0.43416 0.16122 0.0
H975 H 0.22274 0.43419 0.25926 0.0
H976 H 0.22801 0.49959 0.27392 0.0
H977 H 0.25279 0.49919 0.18027 0.0
H978 H 0.21685 0.48788 0.39042 0.0
H979 H 0.19284 0.4741 0.15387 0.0
H980 H 0.18938 0.4551 0.04343 0.0
H981 H 0.17211 0.40158 0.15506 0.0
H982 H 0.17505 0.42047 0.26628 0.0
H983 H 0.12582 0.53434 0.29795 0.0
H984 H 0.15892 0.51796 0.31247 0.0
H985 H 0.1305 0.46889 0.42387 0.0
H986 H 0.09722 0.48565 0.41085 0.0
H987 H 0.15293 0.46058 0.28985 0.0
H988 H 0.16212 0.49156 0.51452 0.0
H989 H 0.16062 0.52063 0.59611 0.0
H990 H 0.20346 0.55327 0.47134 0.0
H991 H 0.20505 0.52458 0.38831 0.0
C992 C 0.24346 0.44829 0.18853 0.0
C993 C 0.25136 0.46669 0.1642 0.0
C994 C 0.2297 0.44836 0.24377 0.0
C995 C 0.22308 0.46694 0.27244 0.0
C996 C 0.23281 0.48503 0.25286 0.0
C997 C 0.24698 0.48486 0.19927 0.0
C998 C 0.20378 0.4684 0.31159 0.0
C999 C 0.20288 0.48164 0.3692 0.0
C1000 C 0.18549 0.46013 0.28436 0.0
C1001 C 0.18462 0.4485 0.21821 0.0
C1002 C 0.18853 0.45821 0.15478 0.0
C1003 C 0.18661 0.44749 0.09208 0.0
C1004 C 0.18084 0.42705 0.09218 0.0
C1005 C 0.17675 0.41736 0.15506 0.0
C1006 C 0.17848 0.42807 0.21793 0.0
C1007 C 0.12678 0.52024 0.3265 0.0
C1008 C 0.10925 0.51094 0.35243 0.0
C1009 C 0.14559 0.51106 0.33553 0.0
C1010 C 0.14699 0.49241 0.36993 0.0
C1011 C 0.12957 0.48343 0.3981 0.0
C1012 C 0.11072 0.49286 0.39023 0.0
C1013 C 0.16611 0.48108 0.36481 0.0
C1014 C 0.16695 0.46585 0.31381 0.0
C1015 C 0.18419 0.48878 0.39429 0.0
C1016 C 0.18379 0.50582 0.44539 0.0
C1017 C 0.1712 0.50494 0.50438 0.0
C1018 C 0.17028 0.52138 0.55074 0.0
C1019 C 0.18189 0.53878 0.53885 0.0
C1020 C 0.1945 0.53976 0.48058 0.0
C1021 C 0.19547 0.52339 0.43392 0.0
H1022 H 0.18113 0.55149 0.57488 0.0
H1023 H 0.17937 0.41878 0.04354 0.0
H1024 H 0.93298 0.81283 0.14729 0.0
H1025 H 0.93472 0.83932 0.06078 0.0
H1026 H 0.96686 0.79853 0.92235 0.0
H1027 H 0.96796 0.77318 0.01237 0.0
H1028 H 0.99105 0.82619 0.96786 0.0
H1029 H 0.92153 0.82933 0.87997 0.0
H1030 H 0.88436 0.83173 0.89525 0.0
H1031 H 0.89141 0.88844 0.00491 0.0
H1032 H 0.92861 0.88624 0.99108 0.0
H1033 H 0.02819 0.8936 0.73106 0.0
H1034 H 1.00335 0.86923 0.77445 0.0
H1035 H 0.98598 0.91139 0.93691 0.0
H1036 H 0.01113 0.93581 0.89452 0.0
H1037 H 0.95271 0.88557 0.88006 0.0
H1038 H 0.01791 0.88246 0.98687 0.0
H1039 H 0.05533 0.88162 0.99371 0.0
H1040 H 0.05631 0.82643 0.87284 0.0
H1041 H 0.01888 0.82716 0.86422 0.0
C1042 C 0.94 0.80928 0.09768 0.0
C1043 C 0.95182 0.79154 0.08909 0.0
C1044 C 0.94062 0.82443 0.04741 0.0
C1045 C 0.95168 0.82121 0.98593 0.0
C1046 C 0.95879 0.80153 0.97051 0.0
C1047 C 0.95924 0.78685 0.02229 0.0
C1048 C 0.96112 0.8387 0.95004 0.0
C1049 C 0.98245 0.83878 0.9466 0.0
C1050 C 0.95021 0.85605 0.92792 0.0
C1051 C 0.92784 0.85757 0.93464 0.0
C1052 C 0.91514 0.84226 0.90755 0.0
C1053 C 0.89408 0.8436 0.91596 0.0
C1054 C 0.88553 0.86022 0.95108 0.0
C1055 C 0.89804 0.87558 0.97766 0.0
C1056 C 0.9191 0.87432 0.96941 0.0
C1057 C 0.01886 0.8978 0.77535 0.0
C1058 C 0.02189 0.91635 0.81046 0.0
C1059 C 1.00456 0.884 0.79954 0.0
C1060 C 0.99307 0.88855 0.85906 0.0
C1061 C 0.9947 0.90775 0.89065 0.0
C1062 C 1.0091 0.9216 0.86652 0.0
C1063 C 0.98218 0.87202 0.89415 0.0
C1064 C 0.96094 0.87249 0.89934 0.0
C1065 C 0.99309 0.8553 0.92029 0.0
C1066 C 0.01563 0.85505 0.92391 0.0
C1067 C 0.02612 0.87031 0.96085 0.0
C1068 C 0.04733 0.86982 0.96527 0.0
C1069 C 0.0582 0.85403 0.93346 0.0
C1070 C 0.04788 0.83869 0.89723 0.0
C1071 C 0.02667 0.83915 0.89252 0.0
H1072 H 0.07461 0.85364 0.93713 0.0
H1073 H 0.86922 0.8612 0.95764 0.0
H1074 H 0.72819 0.93293 0.15402 0.0
H1075 H 0.70133 0.93307 0.06643 0.0
H1076 H 0.73326 0.97963 0.95417 0.0
H1077 H 0.75966 0.98013 0.04241 0.0
H1078 H 0.68551 0.97477 0.07354 0.0
H1079 H 0.71878 0.97962 0.80833 0.0
H1080 H 0.74206 0.96105 0.72935 0.0
H1081 H 0.72069 0.90419 0.80963 0.0
H1082 H 0.69754 0.92252 0.88968 0.0
H1083 H 0.63996 0.04885 0.8561 0.0
H1084 H 0.66316 0.02642 0.91921 0.0
H1085 H 0.63053 0.97404 0.84175 0.0
H1086 H 0.60716 0.99644 0.7789 0.0
H1087 H 0.67389 0.97411 0.81868 0.0
H1088 H 0.62489 0.98466 1.00254 0.0
H1089 H 0.60367 1.00427 0.08486 0.0
H1090 H 0.65706 0.032 0.17214 0.0
H1091 H 0.67859 0.01291 0.08943 0.0
C1092 C 0.73007 0.94232 0.10847 0.0
C1093 C 0.74559 0.95702 0.10612 0.0
C1094 C 0.71472 0.94236 0.0585 0.0
C1095 C 0.71524 0.95659 0.00483 0.0
C1096 C 0.73268 0.96848 0.99527 0.0
C1097 C 0.74786 0.9687 0.04582 0.0
C1098 C 0.69606 0.96366 0.97412 0.0
C1099 C 0.68265 0.97432 0.01795 0.0
C1100 C 0.69268 0.96329 0.90198 0.0
C1101 C 0.70652 0.95234 0.85448 0.0
C1102 C 0.71907 0.96315 0.80881 0.0
C1103 C 0.73227 0.95269 0.76417 0.0
C1104 C 0.73284 0.93145 0.76442 0.0
C1105 C 0.72028 0.92063 0.8096 0.0
C1106 C 0.70721 0.93104 0.85483 0.0
C1107 C 0.63778 0.03255 0.85284 0.0
C1108 C 0.62202 0.02424 0.81255 0.0
C1109 C 0.65084 0.01982 0.88921 0.0
C1110 C 0.64835 0.99869 0.88516 0.0
C1111 C 0.6325 0.99036 0.84549 0.0
C1112 C 0.61926 1.00309 0.80983 0.0
C1113 C 0.66332 0.98534 0.9181 0.0
C1114 C 0.6762 0.97396 0.87457 0.0
C1115 C 0.66638 0.98542 0.99082 0.0
C1116 C 0.65336 0.99741 0.03928 0.0
C1117 C 0.6321 0.99513 0.03862 0.0
C1118 C 0.62001 1.00613 0.08551 0.0
C1119 C 0.629 0.0194 0.1336 0.0
C1120 C 0.6501 0.02174 0.13479 0.0
C1121 C 0.66226 0.01083 0.08791 0.0
H1122 H 0.61962 0.02782 0.17005 0.0
H1123 H 0.743 0.92337 0.72962 0.0
H1124 H 0.54277 0.76222 0.05988 0.0
H1125 H 0.53862 0.73627 0.97023 0.0
H1126 H 0.5988 0.71352 0.01375 0.0
H1127 H 0.60257 0.73897 0.10634 0.0
H1128 H 0.55141 0.71572 0.86087 0.0
H1129 H 0.59706 0.66798 0.05281 0.0
H1130 H 0.60644 0.66601 0.17703 0.0
H1131 H 0.55228 0.69876 0.23299 0.0
H1132 H 0.54293 0.7014 0.10898 0.0
H1133 H 0.53354 0.60715 0.78586 0.0
H1134 H 0.54748 0.64171 0.79648 0.0
H1135 H 0.51484 0.65004 0.98956 0.0
H1136 H 0.50163 0.61551 0.98038 0.0
H1137 H 0.55517 0.65363 0.00493 0.0
H1138 H 0.50194 0.67916 0.86004 0.0
H1139 H 0.48082 0.67914 0.75408 0.0
H1140 H 0.53363 0.69022 0.62971 0.0
H1141 H 0.55525 0.69047 0.73507 0.0
C1142 C 0.55554 0.7524 0.04777 0.0
C1143 C 0.57283 0.75225 0.0905 0.0
C1144 C 0.55316 0.73755 0.99638 0.0
C1145 C 0.56817 0.72262 0.98704 0.0
C1146 C 0.58689 0.72471 0.0214 0.0
C1147 C 0.5891 0.73927 0.07395 0.0
C1148 C 0.56219 0.70282 0.95697 0.0
C1149 C 0.55262 0.70202 0.89156 0.0
C1150 C 0.56302 0.68509 0.99817 0.0
C1151 C 0.56955 0.68521 0.07185 0.0
C1152 C 0.58737 0.67503 0.09167 0.0
C1153 C 0.59266 0.6738 0.16194 0.0
C1154 C 0.58003 0.68237 0.21282 0.0
C1155 C 0.56213 0.69227 0.19351 0.0
C1156 C 0.55694 0.69383 0.12324 0.0
C1157 C 0.52912 0.61662 0.82972 0.0
C1158 C 0.51719 0.60872 0.8837 0.0
C1159 C 0.53695 0.63628 0.83547 0.0
C1160 C 0.53242 0.64811 0.89441 0.0
C1161 C 0.51874 0.64088 0.94435 0.0
C1162 C 0.51128 0.62124 0.93929 0.0
C1163 C 0.54388 0.6667 0.91027 0.0
C1164 C 0.55469 0.66712 0.97279 0.0
C1165 C 0.54292 0.68419 0.8686 0.0
C1166 C 0.53019 0.6847 0.80524 0.0
C1167 C 0.50908 0.68159 0.81001 0.0
C1168 C 0.49705 0.6816 0.75014 0.0
C1169 C 0.50596 0.68473 0.68521 0.0
C1170 C 0.52689 0.68795 0.68013 0.0
C1171 C 0.53902 0.68807 0.73988 0.0
H1172 H 0.49665 0.68467 0.63879 0.0
H1173 H 0.58407 0.6812 0.26716 0.0
H1174 H 0.76476 0.56059 0.00745 0.0
H1175 H 0.79406 0.55448 0.93366 0.0
H1176 H 0.82811 0.599 0.05146 0.0
H1177 H 0.79792 0.60739 0.11757 0.0
H1178 H 0.84987 0.58985 0.95483 0.0
H1179 H 0.81478 0.54666 0.12055 0.0
H1180 H 0.78648 0.52608 0.16616 0.0
H1181 H 0.78622 0.49006 0.97912 0.0
H1182 H 0.81474 0.51022 0.93273 0.0
H1183 H 0.93457 0.51642 0.01671 0.0
H1184 H 0.9049 0.5372 0.04914 0.0
H1185 H 0.87431 0.51786 0.86176 0.0
H1186 H 0.9038 0.49732 0.82891 0.0
H1187 H 0.85323 0.51567 0.99728 0.0
H1188 H 0.87841 0.58653 0.84815 0.0
H1189 H 0.90502 0.61275 0.84042 0.0
H1190 H 0.92748 0.59619 0.04166 0.0
H1191 H 0.89982 0.57131 0.0533 0.0
C1192 C 0.77788 0.57035 0.01396 0.0
C1193 C 0.77986 0.5831 0.07267 0.0
C1194 C 0.79488 0.56647 0.97251 0.0
C1195 C 0.81372 0.57475 0.99204 0.0
C1196 C 0.81398 0.59157 0.03749 0.0
C1197 C 0.79658 0.5964 0.07551 0.0
C1198 C 0.83272 0.56309 0.98064 0.0
C1199 C 0.85053 0.5736 0.96362 0.0
C1200 C 0.83391 0.542 0.99537 0.0
C1201 C 0.81664 0.5301 0.02282 0.0
C1202 C 0.80865 0.53439 0.08914 0.0
C1203 C 0.79259 0.52281 0.11514 0.0
C1204 C 0.78444 0.50694 0.07536 0.0
C1205 C 0.79247 0.50244 0.00973 0.0
C1206 C 0.80861 0.51388 0.98363 0.0
C1207 C 0.92143 0.5167 0.9828 0.0
C1208 C 0.92126 0.50546 0.92049 0.0
C1209 C 0.90481 0.52896 1.00027 0.0
C1210 C 0.88818 0.53022 0.95488 0.0
C1211 C 0.88762 0.51801 0.89493 0.0
C1212 C 0.90418 0.50599 0.8771 0.0
C1213 C 0.87017 0.54247 0.9715 0.0
C1214 C 0.85246 0.53192 0.98829 0.0
C1215 C 0.86937 0.56366 0.96088 0.0
C1216 C 0.88766 0.57628 0.95008 0.0
C1217 C 0.88929 0.5882 0.89011 0.0
C1218 C 0.90435 0.60309 0.88556 0.0
C1219 C 0.91824 0.60583 0.93981 0.0
C1220 C 0.91694 0.59382 0.99913 0.0
C1221 C 0.90151 0.57934 0.00484 0.0
H1222 H 0.92982 0.61745 0.93631 0.0
H1223 H 0.77195 0.49805 0.09556 0.0
H1224 H 0.01392 0.23477 0.9282 0.0
H1225 H 1.00747 0.20163 0.87271 0.0
H1226 H 0.07163 0.19419 0.83525 0.0
H1227 H 0.07798 0.22761 0.88767 0.0
H1228 H 0.05132 0.17837 0.72964 0.0
H1229 H 0.04748 0.15271 0.98397 0.0
H1230 H 0.03576 0.15777 0.10507 0.0
H1231 H 0.97709 0.17631 0.03083 0.0
H1232 H 0.98841 0.1708 0.90955 0.0
H1233 H 0.04666 0.07202 0.65012 0.0
H1234 H 0.05574 0.10498 0.70112 0.0
H1235 H 0.99533 0.11015 0.7878 0.0
H1236 H 0.9876 0.07602 0.74592 0.0
H1237 H 0.01589 0.12707 0.87246 0.0
H1238 H 0.01831 0.13862 0.6184 0.0
H1239 H 0.03125 0.12896 0.50264 0.0
H1240 H 0.09266 0.13612 0.5746 0.0
H1241 H 0.07999 0.14568 0.69136 0.0
C1242 C 0.02658 0.22634 0.90632 0.0
C1243 C 0.04648 0.23402 0.91248 0.0
C1244 C 0.02296 0.20702 0.87624 0.0
C1245 C 0.03913 0.19467 0.85238 0.0
C1246 C 0.05882 0.20302 0.85396 0.0
C1247 C 0.06243 0.22231 0.88363 0.0
C1248 C 0.03576 0.17317 0.82624 0.0
C1249 C 0.04343 0.16722 0.76079 0.0
C1250 C 0.02575 0.15817 0.86624 0.0
C1251 C 0.01901 0.16217 0.93818 0.0
C1252 C 0.03218 0.15813 0.99374 0.0
C1253 C 0.02557 0.1609 0.06229 0.0
C1254 C 1.00581 0.16769 0.07562 0.0
C1255 C 0.99249 0.17132 0.02045 0.0
C1256 C 0.99896 0.1683 0.95187 0.0
C1257 C 0.03562 0.07995 0.68215 0.0
C1258 C 0.01668 0.07096 0.69621 0.0
C1259 C 0.04055 0.09928 0.70962 0.0
C1260 C 0.0261 0.11093 0.74725 0.0
C1261 C 1.00704 0.10189 0.75984 0.0
C1262 C 1.00251 0.08227 0.73531 0.0
C1263 C 0.03031 0.13239 0.77351 0.0
C1264 C 0.02323 0.13825 0.83988 0.0
C1265 C 0.04065 0.14732 0.73387 0.0
C1266 C 0.04823 0.14281 0.6632 0.0
C1267 C 0.03456 0.13822 0.60928 0.0
C1268 C 0.04186 0.13271 0.54358 0.0
C1269 C 0.06279 0.13186 0.53117 0.0
C1270 C 0.07647 0.13671 0.58436 0.0
C1271 C 0.06925 0.14222 0.65025 0.0
H1272 H 0.06845 0.12747 0.48043 0.0
H1273 H 1.00075 0.16994 0.12871 0.0
H1274 H 0.31679 0.0867 0.93444 0.0
H1275 H 0.34859 0.08055 0.87487 0.0
H1276 H 0.32166 0.02967 0.76574 0.0
H1277 H 0.29017 0.03448 0.83267 0.0
H1278 H 0.35505 0.01787 0.80464 0.0
H1279 H 0.33999 0.08249 0.69225 0.0
H1280 H 0.33154 0.11906 0.69204 0.0
H1281 H 0.3846 0.13203 0.81467 0.0
H1282 H 0.39327 0.09557 0.81604 0.0
H1283 H 0.4439 0.99263 0.6266 0.0
H1284 H 0.41006 1.00419 0.65356 0.0
H1285 H 0.43446 0.06048 0.73471 0.0
H1286 H 0.46767 0.05087 0.68702 0.0
H1287 H 0.40155 0.06989 0.70971 0.0
H1288 H 0.4154 1.00706 0.83606 0.0
H1289 H 0.42458 0.97075 0.84466 0.0
H1290 H 0.3749 0.95481 0.7099 0.0
H1291 H 0.36551 0.99098 0.70035 0.0
C1292 C 0.31742 0.07436 0.89681 0.0
C1293 C 0.30076 0.06098 0.88923 0.0
C1294 C 0.33578 0.07099 0.86157 0.0
C1295 C 0.33795 0.05478 0.81397 0.0
C1296 C 0.32073 0.04231 0.80206 0.0
C1297 C 0.30245 0.04527 0.83949 0.0
C1298 C 0.35848 0.04964 0.7823 0.0
C1299 C 0.36499 0.02931 0.78282 0.0
C1300 C 0.37231 0.0644 0.75642 0.0
C1301 C 0.36721 0.08632 0.7544 0.0
C1302 C 0.34981 0.09315 0.71923 0.0
C1303 C 0.34499 0.11386 0.71895 0.0
C1304 C 0.35751 0.12785 0.75337 0.0
C1305 C 0.37492 0.12119 0.78799 0.0
C1306 C 0.37982 0.10052 0.78839 0.0
C1307 C 0.44222 1.00753 0.65035 0.0
C1308 C 0.45928 0.02011 0.66123 0.0
C1309 C 0.42257 0.01398 0.66788 0.0
C1310 C 0.41921 0.03246 0.70369 0.0
C1311 C 0.43612 0.04566 0.71047 0.0
C1312 C 0.45559 0.0399 0.68613 0.0
C1313 C 0.39826 0.03799 0.73214 0.0
C1314 C 0.39168 0.05839 0.73138 0.0
C1315 C 0.38448 0.02336 0.75962 0.0
C1316 C 0.38984 1.00166 0.7673 0.0
C1317 C 0.40644 0.99577 0.80847 0.0
C1318 C 0.41169 0.97524 0.81339 0.0
C1319 C 0.40035 0.96049 0.77779 0.0
C1320 C 0.38366 0.96623 0.73748 0.0
C1321 C 0.37834 0.98672 0.73245 0.0
H1322 H 0.40448 0.94461 0.78147 0.0
H1323 H 0.35373 0.14386 0.75318 0.0
H1324 H 0.4979 0.28865 0.85864 0.0
H1325 H 0.50373 0.31937 0.7898 0.0
H1326 H 0.44623 0.34368 0.85938 0.0
H1327 H 0.44002 0.3128 0.92529 0.0
H1328 H 0.45189 0.35579 0.73351 0.0
H1329 H 0.4926 0.35634 0.93941 0.0
H1330 H 0.51755 0.34256 0.02229 0.0
H1331 H 0.56357 0.34311 0.86378 0.0
H1332 H 0.53877 0.35664 0.77964 0.0
H1333 H 0.46993 0.46127 0.70507 0.0
H1334 H 0.46414 0.42713 0.74721 0.0
H1335 H 0.52054 0.40747 0.65422 0.0
H1336 H 0.52696 0.4422 0.61476 0.0
H1337 H 0.51641 0.39208 0.78373 0.0
H1338 H 0.47313 0.39601 0.58108 0.0
H1339 H 0.44665 0.41228 0.50968 0.0
H1340 H 0.40363 0.40607 0.67597 0.0
H1341 H 0.4299 0.39004 0.74882 0.0
C1342 C 0.48621 0.30024 0.85731 0.0
C1343 C 0.46853 0.29823 0.89784 0.0
C1344 C 0.48968 0.318 0.81874 0.0
C1345 C 0.47567 0.33424 0.82044 0.0
C1346 C 0.45739 0.33158 0.85706 0.0
C1347 C 0.45387 0.31385 0.895 0.0
C1348 C 0.48043 0.35443 0.78823 0.0
C1349 C 0.466 0.36368 0.74477 0.0
C1350 C 0.4988 0.365 0.8024 0.0
C1351 C 0.51381 0.35728 0.8531 0.0
C1352 C 0.50802 0.35342 0.92217 0.0
C1353 C 0.52213 0.34567 0.96936 0.0
C1354 C 0.54212 0.34191 0.94826 0.0
C1355 C 0.54807 0.34599 0.88 0.0
C1356 C 0.53401 0.35372 0.83255 0.0
C1357 C 0.4813 0.44993 0.69421 0.0
C1358 C 0.4991 0.45488 0.65745 0.0
C1359 C 0.4778 0.43015 0.71762 0.0
C1360 C 0.49177 0.41448 0.70353 0.0
C1361 C 0.50947 0.41921 0.66593 0.0
C1362 C 0.51305 0.43912 0.64291 0.0
C1363 C 0.48793 0.39333 0.72879 0.0
C1364 C 0.50248 0.38399 0.77143 0.0
C1365 C 0.46947 0.38291 0.71515 0.0
C1366 C 0.45348 0.39181 0.67035 0.0
C1367 C 0.45801 0.39808 0.60235 0.0
C1368 C 0.44306 0.40728 0.56167 0.0
C1369 C 0.42348 0.41015 0.58818 0.0
C1370 C 0.41879 0.40379 0.65543 0.0
C1371 C 0.43369 0.39461 0.6964 0.0
H1372 H 0.41194 0.41733 0.55663 0.0
H1373 H 0.55302 0.33587 0.98484 0.0
H1374 H 0.24735 0.49627 0.8518 0.0
H1375 H 0.21744 0.50007 0.77707 0.0
H1376 H 0.18602 0.45468 0.89735 0.0
H1377 H 0.21675 0.44829 0.96152 0.0
H1378 H 0.16996 0.45106 0.79243 0.0
H1379 H 0.18268 0.51736 0.90543 0.0
H1380 H 0.20341 0.54789 0.93002 0.0
H1381 H 0.20786 0.55974 0.71119 0.0
H1382 H 0.18745 0.52914 0.68577 0.0
H1383 H 0.06808 0.48279 0.74906 0.0
H1384 H 0.10223 0.4768 0.79189 0.0
H1385 H 0.12669 0.51178 0.62291 0.0
H1386 H 0.09218 0.51894 0.5822 0.0
H1387 H 0.14723 0.52071 0.73516 0.0
H1388 H 0.12752 0.45594 0.63301 0.0
H1389 H 0.10422 0.42679 0.61921 0.0
H1390 H 0.11063 0.413 0.83599 0.0
H1391 H 0.13377 0.44219 0.85122 0.0
C1392 C 0.23425 0.48669 0.8608 0.0
C1393 C 0.23443 0.47253 0.91533 0.0
C1394 C 0.21671 0.4893 0.8191 0.0
C1395 C 0.19846 0.47862 0.83296 0.0
C1396 C 0.19931 0.46359 0.88458 0.0
C1397 C 0.21704 0.4602 0.92304 0.0
C1398 C 0.17841 0.4828 0.79586 0.0
C1399 C 0.1651 0.46645 0.78149 0.0
C1400 C 0.17158 0.50262 0.77791 0.0
C1401 C 0.18363 0.52103 0.79365 0.0
C1402 C 0.18811 0.52651 0.86272 0.0
C1403 C 0.19983 0.54379 0.8768 0.0
C1404 C 0.20696 0.55575 0.82222 0.0
C1405 C 0.20233 0.55049 0.75346 0.0
C1406 C 0.19067 0.53323 0.73918 0.0
C1407 C 0.08059 0.48922 0.72056 0.0
C1408 C 0.07706 0.50132 0.66168 0.0
C1409 C 0.10036 0.48561 0.74502 0.0
C1410 C 0.11746 0.49338 0.71015 0.0
C1411 C 0.11401 0.50544 0.65109 0.0
C1412 C 0.09413 0.50942 0.62737 0.0
C1413 C 0.13875 0.48915 0.73598 0.0
C1414 C 0.15224 0.50542 0.74716 0.0
C1415 C 0.1455 0.46933 0.75324 0.0
C1416 C 0.13233 0.45126 0.74321 0.0
C1417 C 0.12397 0.44666 0.67766 0.0
C1418 C 0.11076 0.43016 0.66964 0.0
C1419 C 0.10594 0.41806 0.72669 0.0
C1420 C 0.11439 0.42236 0.79183 0.0
C1421 C 0.12759 0.43886 0.80015 0.0
H1422 H 0.09566 0.40534 0.7204 0.0
H1423 H 0.21607 0.56909 0.83321 0.0
H1424 H 0.96443 0.7998 0.38275 0.0
H1425 H 0.96977 0.83198 0.44595 0.0
H1426 H 0.01678 0.84807 0.29998 0.0
H1427 H 0.01199 0.81558 0.23927 0.0
H1428 H 0.02761 0.86139 0.41999 0.0
H1429 H 0.96204 0.86494 0.29723 0.0
H1430 H 0.92694 0.85328 0.27535 0.0
H1431 H 0.91202 0.8632 0.49047 0.0
H1432 H 0.94708 0.87469 0.51368 0.0
H1433 H 0.03831 0.96472 0.48306 0.0
H1434 H 0.02999 0.93262 0.42598 0.0
H1435 H 0.97735 0.92671 0.55837 0.0
H1436 H 0.9843 0.96052 0.60817 0.0
H1437 H 0.9683 0.90687 0.45529 0.0
H1438 H 0.02991 0.90231 0.58582 0.0
H1439 H 0.06446 0.91234 0.62224 0.0
H1440 H 0.08648 0.90154 0.41484 0.0
H1441 H 0.05201 0.89159 0.37711 0.0
C1442 C 0.97649 0.80986 0.36613 0.0
C1443 C 0.98824 0.8048 0.30729 0.0
C1444 C 0.97922 0.82857 0.40127 0.0
C1445 C 0.99335 0.84303 0.37713 0.0
C1446 C 1.00572 0.83745 0.32019 0.0
C1447 C 1.00317 0.81868 0.28577 0.0
C1448 C 0.99519 0.86404 0.40928 0.0
C1449 C 0.0146 0.87135 0.42686 0.0
C1450 C 0.97829 0.87705 0.4219 0.0
C1451 C 0.95718 0.87052 0.40722 0.0
C1452 C 0.95127 0.86458 0.33982 0.0
C1453 C 0.93139 0.85799 0.32721 0.0
C1454 C 0.91726 0.85747 0.3815 0.0
C1455 C 0.92297 0.8636 0.44847 0.0
C1456 C 0.94282 0.87016 0.46136 0.0
C1457 C 0.02437 0.95706 0.49736 0.0
C1458 C 0.01142 0.96577 0.54748 0.0
C1459 C 0.01992 0.93821 0.46631 0.0
C1460 C 1.0035 0.92629 0.48952 0.0
C1461 C 0.9902 0.93521 0.53889 0.0
C1462 C 0.99408 0.95472 0.56723 0.0
C1463 C 1.00087 0.90447 0.46455 0.0
C1464 C 0.98134 0.89696 0.44859 0.0
C1465 C 0.0176 0.89094 0.45562 0.0
C1466 C 0.0384 0.89634 0.47861 0.0
C1467 C 0.04213 0.90209 0.54804 0.0
C1468 C 0.06169 0.90777 0.56889 0.0
C1469 C 0.07765 0.90761 0.52087 0.0
C1470 C 0.07411 0.90166 0.45198 0.0
C1471 C 0.05458 0.89595 0.43086 0.0
H1472 H 0.09276 0.91208 0.53706 0.0
H1473 H 0.90189 0.85234 0.37167 0.0
H1474 H 0.73802 0.97504 0.42031 0.0
H1475 H 0.70591 0.98184 0.48264 0.0
H1476 H 0.68226 0.01143 0.30013 0.0
H1477 H 0.71438 1.00575 0.24058 0.0
H1478 H 0.67044 0.03157 0.40188 0.0
H1479 H 0.67186 0.95737 0.36263 0.0
H1480 H 0.68613 0.92312 0.38098 0.0
H1481 H 0.67947 0.93065 0.60192 0.0
H1482 H 0.66533 0.96498 0.58484 0.0
H1483 H 0.56638 0.03904 0.46037 0.0
H1484 H 0.59948 0.0296 0.41442 0.0
H1485 H 0.60975 0.9916 0.59326 0.0
H1486 H 0.57464 0.99793 0.63088 0.0
H1487 H 0.63076 0.97607 0.50895 0.0
H1488 H 0.62932 0.049 0.55375 0.0
H1489 H 0.61612 0.08398 0.54078 0.0
H1490 H 0.62513 0.08029 0.32007 0.0
H1491 H 0.63826 0.04537 0.33136 0.0
C1492 C 0.72616 0.98361 0.39477 0.0
C1493 C 0.72889 0.99018 0.32595 0.0
C1494 C 0.70757 0.9871 0.42977 0.0
C1495 C 0.69119 0.9968 0.39601 0.0
C1496 C 0.69439 1.00393 0.3281 0.0
C1497 C 0.71291 1.00079 0.29396 0.0
C1498 C 0.67069 1.00001 0.42961 0.0
C1499 C 0.66176 0.01932 0.42485 0.0
C1500 C 0.65939 0.98445 0.46275 0.0
C1501 C 0.66774 0.96378 0.47247 0.0
C1502 C 0.67353 0.95173 0.41508 0.0
C1503 C 0.68158 0.93231 0.42527 0.0
C1504 C 0.68375 0.92473 0.49257 0.0
C1505 C 0.67781 0.93653 0.54983 0.0
C1506 C 0.66977 0.95596 0.53992 0.0
C1507 C 0.57557 0.02828 0.48884 0.0
C1508 C 0.5677 0.01883 0.54797 0.0
C1509 C 0.59496 0.02333 0.46377 0.0
C1510 C 0.60822 0.01077 0.5019 0.0
C1511 C 0.60029 1.00142 0.56206 0.0
C1512 C 0.58016 1.0051 0.58403 0.0
C1513 C 0.63015 1.00766 0.47942 0.0
C1514 C 0.6394 0.98842 0.48662 0.0
C1515 C 0.64204 0.02343 0.44959 0.0
C1516 C 0.63468 0.0446 0.44344 0.0
C1517 C 0.6285 0.05569 0.50254 0.0
C1518 C 0.621 0.07546 0.49547 0.0
C1519 C 0.61975 0.08429 0.42979 0.0
C1520 C 0.62611 0.07344 0.37093 0.0
C1521 C 0.63362 0.05369 0.3776 0.0
H1522 H 0.61389 0.09957 0.42453 0.0
H1523 H 0.69 0.9097 0.50033 0.0
H1524 H 0.52811 0.74167 0.34282 0.0
H1525 H 0.52169 0.71012 0.40651 0.0
H1526 H 0.58566 0.69596 0.40041 0.0
H1527 H 0.59204 0.72731 0.3358 0.0
H1528 H 0.52995 0.6718 0.35197 0.0
H1529 H 0.59433 0.66303 0.55571 0.0
H1530 H 0.61703 0.68406 0.62825 0.0
H1531 H 0.57498 0.73384 0.61702 0.0
H1532 H 0.5518 0.71304 0.54574 0.0
H1533 H 0.54247 0.57034 0.45582 0.0
H1534 H 0.55003 0.60486 0.4207 0.0
H1535 H 0.52429 0.62773 0.61222 0.0
H1536 H 0.51752 0.59271 0.64953 0.0
H1537 H 0.55919 0.64867 0.57546 0.0
H1538 H 0.49713 0.62736 0.45912 0.0
H1539 H 0.47694 0.60417 0.38504 0.0
H1540 H 0.51826 0.61353 0.2154 0.0
H1541 H 0.53888 0.63652 0.28878 0.0
C1542 C 0.54087 0.73218 0.3572 0.0
C1543 C 0.56062 0.73717 0.33532 0.0
C1544 C 0.53718 0.71402 0.39288 0.0
C1545 C 0.55318 0.70061 0.40852 0.0
C1546 C 0.57307 0.70609 0.38979 0.0
C1547 C 0.57672 0.72408 0.35314 0.0
C1548 C 0.54881 0.68022 0.439 0.0
C1549 C 0.53633 0.66684 0.40101 0.0
C1550 C 0.5574 0.67348 0.50248 0.0
C1551 C 0.57134 0.68645 0.54452 0.0
C1552 C 0.58986 0.67845 0.56877 0.0
C1553 C 0.60283 0.69034 0.6098 0.0
C1554 C 0.59748 0.7103 0.62706 0.0
C1555 C 0.57916 0.71841 0.6033 0.0
C1556 C 0.56612 0.70658 0.56228 0.0
C1557 C 0.53889 0.58253 0.49163 0.0
C1558 C 0.52968 0.57852 0.55618 0.0
C1559 C 0.54295 0.60243 0.47082 0.0
C1560 C 0.53752 0.61905 0.5132 0.0
C1561 C 0.5286 0.6152 0.57835 0.0
C1562 C 0.52462 0.59516 0.59948 0.0
C1563 C 0.54055 0.64031 0.48799 0.0
C1564 C 0.55281 0.65377 0.52662 0.0
C1565 C 0.53229 0.64701 0.42406 0.0
C1566 C 0.51959 0.63357 0.37958 0.0
C1567 C 0.50194 0.62441 0.40611 0.0
C1568 C 0.49044 0.61129 0.36426 0.0
C1569 C 0.49633 0.60735 0.29561 0.0
C1570 C 0.51372 0.61658 0.26858 0.0
C1571 C 0.5253 0.62967 0.31026 0.0
H1572 H 0.48741 0.59718 0.26332 0.0
H1573 H 0.60753 0.71947 0.65895 0.0
H1574 H 0.80312 0.58914 0.3187 0.0
H1575 H 0.8357 0.58328 0.37638 0.0
H1576 H 0.82632 0.51863 0.36072 0.0
H1577 H 0.7937 0.52443 0.30082 0.0
H1578 H 0.8446 0.53975 0.50203 0.0
H1579 H 0.85478 0.53406 0.24321 0.0
H1580 H 0.85126 0.54914 0.12705 0.0
H1581 H 0.88115 0.6034 0.19809 0.0
H1582 H 0.88514 0.58853 0.31472 0.0
H1583 H 0.94437 0.50393 0.56707 0.0
H1584 H 0.90986 0.5096 0.52407 0.0
H1585 H 0.92789 0.56798 0.44513 0.0
H1586 H 0.96211 0.56266 0.48954 0.0
H1587 H 0.90487 0.55143 0.35234 0.0
H1588 H 0.89804 0.56672 0.58102 0.0
H1589 H 0.90046 0.56639 0.70869 0.0
H1590 H 0.86356 0.5127 0.7151 0.0
H1591 H 0.8611 0.51247 0.58675 0.0
C1592 C 0.80768 0.57363 0.32912 0.0
C1593 C 0.79564 0.55726 0.30515 0.0
C1594 C 0.82642 0.57032 0.3618 0.0
C1595 C 0.83364 0.55053 0.37245 0.0
C1596 C 0.82109 0.53407 0.35313 0.0
C1597 C 0.80231 0.53739 0.31953 0.0
C1598 C 0.85479 0.54726 0.3992 0.0
C1599 C 0.85777 0.54166 0.46879 0.0
C1600 C 0.87211 0.55165 0.35809 0.0
C1601 C 0.87011 0.56025 0.28761 0.0
C1602 C 0.86054 0.54923 0.23407 0.0
C1603 C 0.85846 0.55774 0.16814 0.0
C1604 C 0.86572 0.57731 0.15532 0.0
C1605 C 0.87543 0.58828 0.20815 0.0
C1606 C 0.87771 0.57978 0.27405 0.0
C1607 C 0.94108 0.51802 0.54062 0.0
C1608 C 0.95643 0.5327 0.53109 0.0
C1609 C 0.92121 0.52127 0.51605 0.0
C1610 C 0.91607 0.53923 0.48083 0.0
C1611 C 0.93134 0.55388 0.47125 0.0
C1612 C 0.95111 0.55075 0.49662 0.0
C1613 C 0.89481 0.5427 0.45447 0.0
C1614 C 0.89178 0.54877 0.38535 0.0
C1615 C 0.87749 0.54028 0.49758 0.0
C1616 C 0.87962 0.5394 0.5742 0.0
C1617 C 0.89071 0.55461 0.60943 0.0
C1618 C 0.89204 0.5546 0.68181 0.0
C1619 C 0.8822 0.53957 0.7197 0.0
C1620 C 0.87117 0.52433 0.68539 0.0
C1621 C 0.8698 0.52425 0.61276 0.0
H1622 H 0.88302 0.54001 0.77564 0.0
H1623 H 0.86391 0.58394 0.10446 0.0
loop_
_geom_bond_atom_site_label_1
_geom_bond_atom_site_label_2
_geom_bond_distance
_geom_bond_site_symmetry_2
_ccdc_geom_bond_type
H0 C3 0.929 . S
H1 C6 0.929 . S
H2 C8 0.930 . S
C3 H0 0.929 . S
C3 C4 1.398 . S
C3 C5 1.396 . S
C4 C3 1.398 . S
C4 C8 1.407 . S
C5 C3 1.396 . S
C5 C6 1.394 . S
C6 H1 0.929 . S
C6 C5 1.394 . S
C6 C7 1.382 . S
C7 C6 1.382 . S
C7 C8 1.392 . S
C7 N9 1.420 . S
C8 H2 0.930 . S
C8 C4 1.407 . S
C8 C7 1.392 . S
N9 C7 1.420 . S
N9 C10 1.244 . S
C10 N9 1.244 . S
H11 C14 0.929 . S
H12 C17 0.929 . S
H13 C19 0.930 . S
C14 H11 0.929 . S
C14 C15 1.398 . S
C14 C16 1.396 . S
C15 C14 1.398 . S
C15 C19 1.407 . S
C16 C14 1.396 . S
C16 C17 1.394 . S
C17 H12 0.929 . S
C17 C16 1.394 . S
C17 C18 1.382 . S
C18 C17 1.382 . S
C18 C19 1.392 . S
C18 N20 1.420 . S
C19 H13 0.930 . S
C19 C15 1.407 . S
C19 C18 1.392 . S
N20 C18 1.420 . S
N20 C21 1.244 . S
C21 N20 1.244 . S
H22 C25 0.929 . S
H23 C28 0.929 . S
H24 C30 0.930 . S
C25 H22 0.929 . S
C25 C26 1.398 . S
C25 C27 1.396 . S
C26 C25 1.398 . S
C26 C30 1.407 . S
C27 C25 1.396 . S
C27 C28 1.394 . S
C28 H23 0.929 . S
C28 C27 1.394 . S
C28 C29 1.382 . S
C29 C28 1.382 . S
C29 C30 1.392 . S
C29 N31 1.420 . S
C30 H24 0.930 . S
C30 C26 1.407 . S
C30 C29 1.392 . S
N31 C29 1.420 . S
N31 C32 1.244 . S
C32 N31 1.244 . S
H33 C36 0.929 . S
H34 C39 0.929 . S
H35 C41 0.930 . S
C36 H33 0.929 . S
C36 C37 1.398 . S
C36 C38 1.396 . S
C37 C36 1.398 . S
C37 C41 1.407 . S
C38 C36 1.396 . S
C38 C39 1.394 . S
C39 H34 0.929 . S
C39 C38 1.394 . S
C39 C40 1.382 . S
C40 C39 1.382 . S
C40 C41 1.392 . S
C40 N42 1.420 . S
C41 H35 0.930 . S
C41 C37 1.407 . S
C41 C40 1.392 . S
N42 C40 1.420 . S
N42 C43 1.244 . S
C43 N42 1.244 . S
H44 C47 0.929 . S
H45 C50 0.929 . S
H46 C52 0.930 . S
C47 H44 0.929 . S
C47 C48 1.398 . S
C47 C49 1.396 1_556 S
C48 C47 1.398 . S
C48 C52 1.407 . S
C49 C47 1.396 1_554 S
C49 C50 1.394 . S
C50 H45 0.929 . S
C50 C49 1.394 . S
C50 C51 1.382 . S
C51 C50 1.382 . S
C51 C52 1.392 1_554 S
C51 N53 1.420 . S
C52 H46 0.930 . S
C52 C48 1.407 . S
C52 C51 1.392 1_556 S
N53 C51 1.420 . S
N53 C54 1.244 . S
C54 N53 1.244 . S
H55 C58 0.929 . S
H56 C61 0.929 . S
H57 C63 0.930 . S
C58 H55 0.929 . S
C58 C59 1.398 . S
C58 C60 1.396 1_556 S
C59 C58 1.398 . S
C59 C63 1.407 . S
C60 C58 1.396 1_554 S
C60 C61 1.394 . S
C61 H56 0.929 . S
C61 C60 1.394 . S
C61 C62 1.382 . S
C62 C61 1.382 . S
C62 C63 1.392 1_554 S
C62 N64 1.420 . S
C63 H57 0.930 . S
C63 C59 1.407 . S
C63 C62 1.392 1_556 S
N64 C62 1.420 . S
N64 C65 1.244 . S
C65 N64 1.244 . S
H66 C69 0.929 . S
H67 C72 0.929 . S
H68 C74 0.930 . S
C69 H66 0.929 . S
C69 C70 1.398 . S
C69 C71 1.396 1_556 S
C70 C69 1.398 . S
C70 C74 1.407 . S
C71 C69 1.396 1_554 S
C71 C72 1.394 . S
C72 H67 0.929 . S
C72 C71 1.394 . S
C72 C73 1.382 . S
C73 C72 1.382 . S
C73 C74 1.392 1_554 S
C73 N75 1.420 . S
C74 H68 0.930 . S
C74 C70 1.407 . S
C74 C73 1.392 1_556 S
N75 C73 1.420 . S
N75 C76 1.244 . S
C76 N75 1.244 . S
H77 C80 0.929 . S
H78 C83 0.929 . S
H79 C85 0.930 . S
C80 H77 0.929 . S
C80 C81 1.398 . S
C80 C82 1.396 1_556 S
C81 C80 1.398 . S
C81 C85 1.407 . S
C82 C80 1.396 1_554 S
C82 C83 1.394 . S
C83 H78 0.929 . S
C83 C82 1.394 . S
C83 C84 1.382 . S
C84 C83 1.382 . S
C84 C85 1.392 1_554 S
C84 N86 1.420 . S
C85 H79 0.930 . S
C85 C81 1.407 . S
C85 C84 1.392 1_556 S
N86 C84 1.420 . S
N86 C87 1.244 . S
C87 N86 1.244 . S
Gd88 N119 2.661 . S
Gd88 N125 2.601 . S
Gd88 O132 2.545 . S
Gd88 O133 2.606 1_655 S
Gd88 O135 2.429 . S
Gd88 O136 2.545 1_655 S
Gd88 O137 2.412 1_655 S
Gd88 O139 2.362 1_545 S
Gd88 O140 2.324 1_655 S
Gd88 C147 2.828 . S
Gd89 N98 2.661 1_565 S
Gd89 N102 2.598 1_565 S
Gd89 O133 2.362 1_565 S
Gd89 O134 2.324 1_455 S
Gd89 O138 2.545 . S
Gd89 O139 2.606 1_455 S
Gd89 O141 2.429 . S
Gd89 O142 2.545 . S
Gd89 O143 2.412 . S
Gd89 C156 2.828 . S
C90 C93 1.417 . S
C90 C95 1.431 . S
C90 C96 1.412 . S
C91 C94 1.437 . S
C91 C95 1.317 . S
C91 H110 0.929 . S
C92 C93 1.426 . S
C92 C94 1.413 . S
C92 N102 1.367 . S
C93 C90 1.417 . S
C93 C92 1.426 . S
C93 N98 1.350 . S
C94 C91 1.437 . S
C94 C92 1.413 . S
C94 C104 1.391 . S
C95 C90 1.431 . S
C95 C91 1.317 . S
C95 H106 0.930 . S
C96 C90 1.412 . S
C96 C97 1.355 . S
C96 H108 0.930 . S
C97 C96 1.355 . S
C97 C99 1.402 . S
C97 H109 0.930 1_455 S
N98 Gd89 2.661 1_545 S
N98 C93 1.350 . S
N98 C99 1.307 . S
C99 C97 1.402 . S
C99 N98 1.307 . S
C99 H100 0.930 1_455 S
H100 C99 0.930 1_655 S
C101 N102 1.328 1_565 S
C101 C103 1.394 . S
C101 H105 0.930 . S
N102 Gd89 2.598 1_545 S
N102 C92 1.367 . S
N102 C101 1.328 1_545 S
C103 C101 1.394 . S
C103 C104 1.359 1_565 S
C103 H115 0.930 . S
C104 C94 1.391 . S
C104 C103 1.359 1_545 S
C104 H116 0.929 . S
H105 C101 0.930 . S
H106 C95 0.930 . S
H107 C124 0.930 . S
H108 C96 0.930 . S
H109 C97 0.930 1_655 S
H110 C91 0.929 . S
H111 C129 0.930 . S
H112 C120 0.930 . S
H113 C121 0.930 . S
H114 C145 0.929 . S
H115 C103 0.930 . S
H116 C104 0.929 . S
H117 C146 0.930 . S
H118 C127 0.930 . S
N119 Gd88 2.661 . S
N119 C123 1.342 1_545 S
N119 C124 1.307 1_645 S
C120 H112 0.930 . S
C120 C121 1.355 1_655 S
C120 C122 1.412 . S
C121 H113 0.930 . S
C121 C120 1.355 1_455 S
C121 C124 1.402 . S
C122 C120 1.412 . S
C122 C123 1.446 . S
C122 C146 1.431 . S
C123 N119 1.342 1_565 S
C123 C122 1.446 . S
C123 C126 1.408 1_565 S
C124 H107 0.930 . S
C124 N119 1.307 1_465 S
C124 C121 1.402 . S
N125 Gd88 2.601 . S
N125 C126 1.359 . S
N125 C129 1.334 . S
C126 C123 1.408 1_545 S
C126 N125 1.359 . S
C126 C130 1.413 . S
C127 H118 0.930 . S
C127 C128 1.359 . S
C127 C129 1.394 . S
C128 C127 1.359 . S
C128 C130 1.391 . S
C128 H131 0.929 . S
C129 H111 0.930 . S
C129 N125 1.334 . S
C129 C127 1.394 . S
C130 C126 1.413 . S
C130 C128 1.391 . S
C130 C145 1.437 1_545 S
H131 C128 0.929 . S
O132 Gd88 2.545 . S
O132 C147 1.258 . S
O133 Gd88 2.606 1_455 S
O133 Gd89 2.362 1_545 S
O133 C144 1.284 . S
O134 Gd89 2.324 1_655 S
O134 C154 1.254 1_565 S
O135 Gd88 2.429 . S
O135 C154 1.268 . S
O136 Gd88 2.545 1_455 S
O136 C144 1.250 . S
O137 Gd88 2.412 1_455 S
O137 C147 1.251 1_455 S
O138 Gd89 2.545 . S
O138 C156 1.258 . S
O139 Gd88 2.362 1_565 S
O139 Gd89 2.606 1_655 S
O139 C155 1.284 . S
O140 Gd88 2.324 1_455 S
O140 C163 1.254 . S
O141 Gd89 2.429 . S
O141 C163 1.268 1_565 S
O142 Gd89 2.545 . S
O142 C155 1.250 1_455 S
O143 Gd89 2.412 . S
O143 C156 1.252 . S
C144 O133 1.284 . S
C144 O136 1.250 . S
C145 H114 0.929 . S
C145 C130 1.437 1_565 S
C145 C146 1.317 . S
C146 H117 0.930 . S
C146 C122 1.431 . S
C146 C145 1.317 . S
C147 Gd88 2.828 . S
C147 O132 1.258 . S
C147 O137 1.251 1_655 S
C147 C148 1.497 . S
C148 C147 1.497 . S
C148 C149 1.395 . S
C148 C150 1.338 1_655 S
C149 C148 1.395 . S
C149 C152 1.398 . S
C149 H164 0.930 . S
C150 C148 1.338 1_455 S
C150 C151 1.389 1_455 S
C150 H165 0.975 . S
C151 C150 1.389 1_655 S
C151 C153 1.396 . S
C152 C149 1.398 . S
C152 C153 1.380 . S
C152 H166 0.930 . S
C153 C151 1.396 . S
C153 C152 1.380 . S
C153 H167 0.930 . S
C154 O134 1.254 1_545 S
C154 O135 1.268 . S
C155 O139 1.284 . S
C155 O142 1.250 1_655 S
C156 Gd89 2.828 . S
C156 O138 1.258 . S
C156 O143 1.252 . S
C156 C157 1.497 . S
C157 C156 1.497 . S
C157 C158 1.395 . S
C157 C159 1.380 . S
C158 C157 1.395 . S
C158 C161 1.398 . S
C158 H168 0.930 . S
C159 C157 1.380 . S
C159 C160 1.391 . S
C159 H169 0.930 1_455 S
C160 C159 1.391 . S
C160 C162 1.387 . S
C161 C158 1.398 . S
C161 C162 1.380 . S
C161 H170 0.930 . S
C162 C160 1.387 . S
C162 C161 1.380 . S
C162 H171 0.930 . S
C163 O140 1.254 . S
C163 O141 1.268 1_545 S
H164 C149 0.930 . S
H165 C150 0.975 . S
H166 C152 0.930 . S
H167 C153 0.930 . S
H168 C158 0.930 . S
H169 C159 0.930 1_655 S
H170 C161 0.930 . S
H171 C162 0.930 . S
Gd172 N203 2.661 . S
Gd172 N209 2.601 . S
Gd172 O216 2.545 . S
Gd172 O217 2.606 1_565 S
Gd172 O219 2.429 . S
Gd172 O220 2.545 1_565 S
Gd172 O221 2.412 1_565 S
Gd172 O223 2.361 . S
Gd172 O224 2.324 1_565 S
Gd172 C231 2.828 . S
Gd173 N182 2.661 . S
Gd173 N186 2.601 . S
Gd173 O217 2.362 . S
Gd173 O218 2.324 1_545 S
Gd173 O222 2.545 . S
Gd173 O223 2.608 1_545 S
Gd173 O225 2.429 . S
Gd173 O226 2.545 . S
Gd173 O227 2.412 . S
Gd173 C240 2.828 . S
C174 C177 1.417 . S
C174 C179 1.431 . S
C174 C180 1.412 . S
C175 C178 1.437 . S
C175 C179 1.317 . S
C175 H194 0.929 . S
C176 C177 1.426 . S
C176 C178 1.413 . S
C176 N186 1.359 . S
C177 C174 1.417 . S
C177 C176 1.426 . S
C177 N182 1.350 . S
C178 C175 1.437 . S
C178 C176 1.413 . S
C178 C188 1.391 . S
C179 C174 1.431 . S
C179 C175 1.317 . S
C179 H190 0.930 . S
C180 C174 1.412 . S
C180 C181 1.355 . S
C180 H192 0.930 . S
C181 C180 1.355 . S
C181 C183 1.402 . S
C181 H193 0.930 1_545 S
N182 Gd173 2.661 . S
N182 C177 1.350 . S
N182 C183 1.307 . S
C183 C181 1.402 . S
C183 N182 1.307 . S
C183 H184 0.930 1_545 S
H184 C183 0.930 1_565 S
C185 N186 1.334 . S
C185 C187 1.394 . S
C185 H189 0.930 . S
N186 Gd173 2.601 . S
N186 C176 1.359 . S
N186 C185 1.334 . S
C187 C185 1.394 . S
C187 C188 1.359 . S
C187 H199 0.930 . S
C188 C178 1.391 . S
C188 C187 1.359 . S
C188 H200 0.929 . S
H189 C185 0.930 . S
H190 C179 0.930 . S
H191 C208 0.930 . S
H192 C180 0.930 . S
H193 C181 0.930 1_565 S
H194 C175 0.929 . S
H195 C213 0.930 . S
H196 C204 0.930 . S
H197 C205 0.930 . S
H198 C229 0.929 . S
H199 C187 0.930 . S
H200 C188 0.929 . S
H201 C230 0.930 . S
H202 C211 0.930 . S
N203 Gd172 2.661 . S
N203 C207 1.350 . S
N203 C208 1.307 1_565 S
C204 H196 0.930 . S
C204 C205 1.355 1_565 S
C204 C206 1.412 . S
C205 H197 0.930 . S
C205 C204 1.355 1_545 S
C205 C208 1.402 . S
C206 C204 1.412 . S
C206 C207 1.417 . S
C206 C230 1.431 . S
C207 N203 1.350 . S
C207 C206 1.417 . S
C207 C210 1.426 . S
C208 H191 0.930 . S
C208 N203 1.307 1_545 S
C208 C205 1.402 . S
N209 Gd172 2.601 . S
N209 C210 1.359 . S
N209 C213 1.334 . S
C210 C207 1.426 . S
C210 N209 1.359 . S
C210 C214 1.413 . S
C211 H202 0.930 . S
C211 C212 1.359 . S
C211 C213 1.394 . S
C212 C211 1.359 . S
C212 C214 1.391 . S
C212 H215 0.929 . S
C213 H195 0.930 . S
C213 N209 1.334 . S
C213 C211 1.394 . S
C214 C210 1.413 . S
C214 C212 1.391 . S
C214 C229 1.437 . S
H215 C212 0.929 . S
O216 Gd172 2.545 . S
O216 C231 1.258 . S
O217 Gd172 2.606 1_545 S
O217 Gd173 2.362 . S
O217 C228 1.284 . S
O218 Gd173 2.324 1_565 S
O218 C238 1.254 . S
O219 Gd172 2.429 . S
O219 C238 1.268 . S
O220 Gd172 2.545 1_545 S
O220 C228 1.250 . S
O221 Gd172 2.412 1_545 S
O221 C231 1.252 1_545 S
O222 Gd173 2.545 . S
O222 C240 1.258 . S
O223 Gd172 2.361 . S
O223 Gd173 2.608 1_565 S
O223 C239 1.284 1_565 S
O224 Gd172 2.324 1_545 S
O224 C247 1.254 . S
O225 Gd173 2.429 . S
O225 C247 1.268 . S
O226 Gd173 2.545 . S
O226 C239 1.258 . S
O227 Gd173 2.412 . S
O227 C240 1.252 . S
C228 O217 1.284 . S
C228 O220 1.250 . S
C229 H198 0.929 . S
C229 C214 1.437 . S
C229 C230 1.317 . S
C230 H201 0.930 . S
C230 C206 1.431 . S
C230 C229 1.317 . S
C231 Gd172 2.828 . S
C231 O216 1.258 . S
C231 O221 1.252 1_565 S
C231 C232 1.497 . S
C232 C231 1.497 . S
C232 C233 1.395 . S
C232 C234 1.380 1_565 S
C233 C232 1.395 . S
C233 C236 1.398 . S
C233 H248 0.930 . S
C234 C232 1.380 1_545 S
C234 C235 1.391 . S
C234 H249 0.930 . S
C235 C234 1.391 . S
C235 C237 1.387 1_545 S
C236 C233 1.398 . S
C236 C237 1.380 . S
C236 H250 0.930 . S
C237 C235 1.387 1_565 S
C237 C236 1.380 . S
C237 H251 0.930 . S
C238 O218 1.254 . S
C238 O219 1.268 . S
C239 O223 1.284 1_545 S
C239 O226 1.258 . S
C240 Gd173 2.828 . S
C240 O222 1.258 . S
C240 O227 1.252 . S
C240 C241 1.497 . S
C241 C240 1.497 . S
C241 C242 1.395 . S
C241 C243 1.380 . S
C242 C241 1.395 . S
C242 C245 1.398 . S
C242 H252 0.930 . S
C243 C241 1.380 . S
C243 C244 1.391 . S
C243 H253 0.930 . S
C244 C243 1.391 . S
C244 C246 1.387 . S
C245 C242 1.398 . S
C245 C246 1.380 . S
C245 H254 0.930 . S
C246 C244 1.387 . S
C246 C245 1.380 . S
C246 H255 0.930 . S
C247 O224 1.254 . S
C247 O225 1.268 . S
H248 C233 0.930 . S
H249 C234 0.930 . S
H250 C236 0.930 . S
H251 C237 0.930 . S
H252 C242 0.930 . S
H253 C243 0.930 . S
H254 C245 0.930 . S
H255 C246 0.930 . S
Gd256 N287 2.661 . S
Gd256 N293 2.601 . S
Gd256 O300 2.545 . S
Gd256 O301 2.606 . S
Gd256 O303 2.429 . S
Gd256 O304 2.545 . S
Gd256 O305 2.412 . S
Gd256 O307 2.362 . S
Gd256 O308 2.324 . S
Gd256 C315 2.828 . S
Gd257 N266 2.661 . S
Gd257 N270 2.601 . S
Gd257 O301 2.362 . S
Gd257 O302 2.324 . S
Gd257 O306 2.545 . S
Gd257 O307 2.606 . S
Gd257 O309 2.429 . S
Gd257 O310 2.545 . S
Gd257 O311 2.412 . S
Gd257 C324 2.828 . S
C258 C261 1.417 . S
C258 C263 1.431 . S
C258 C264 1.412 . S
C259 C262 1.437 . S
C259 C263 1.317 . S
C259 H278 0.929 . S
C260 C261 1.426 . S
C260 C262 1.413 . S
C260 N270 1.359 . S
C261 C258 1.417 . S
C261 C260 1.426 . S
C261 N266 1.350 . S
C262 C259 1.437 . S
C262 C260 1.413 . S
C262 C272 1.391 . S
C263 C258 1.431 . S
C263 C259 1.317 . S
C263 H274 0.930 . S
C264 C258 1.412 . S
C264 C265 1.355 . S
C264 H276 0.930 . S
C265 C264 1.355 . S
C265 C267 1.402 . S
C265 H277 0.930 . S
N266 Gd257 2.661 . S
N266 C261 1.350 . S
N266 C267 1.307 . S
C267 C265 1.402 . S
C267 N266 1.307 . S
C267 H268 0.930 . S
H268 C267 0.930 . S
C269 N270 1.334 . S
C269 C271 1.394 . S
C269 H273 0.930 . S
N270 Gd257 2.601 . S
N270 C260 1.359 . S
N270 C269 1.334 . S
C271 C269 1.394 . S
C271 C272 1.359 . S
C271 H283 0.930 . S
C272 C262 1.391 . S
C272 C271 1.359 . S
C272 H284 0.929 . S
H273 C269 0.930 . S
H274 C263 0.930 . S
H275 C292 0.930 . S
H276 C264 0.930 . S
H277 C265 0.930 . S
H278 C259 0.929 . S
H279 C297 0.930 . S
H280 C288 0.930 . S
H281 C289 0.930 . S
H282 C313 0.929 . S
H283 C271 0.930 . S
H284 C272 0.929 . S
H285 C314 0.930 . S
H286 C295 0.930 . S
N287 Gd256 2.661 . S
N287 C291 1.350 . S
N287 C292 1.307 . S
C288 H280 0.930 . S
C288 C289 1.355 . S
C288 C290 1.412 . S
C289 H281 0.930 . S
C289 C288 1.355 . S
C289 C292 1.402 . S
C290 C288 1.412 . S
C290 C291 1.417 . S
C290 C314 1.431 . S
C291 N287 1.350 . S
C291 C290 1.417 . S
C291 C294 1.426 . S
C292 H275 0.930 . S
C292 N287 1.307 . S
C292 C289 1.402 . S
N293 Gd256 2.601 . S
N293 C294 1.359 . S
N293 C297 1.334 . S
C294 C291 1.426 . S
C294 N293 1.359 . S
C294 C298 1.413 . S
C295 H286 0.930 . S
C295 C296 1.359 . S
C295 C297 1.394 . S
C296 C295 1.359 . S
C296 C298 1.391 . S
C296 H299 0.929 . S
C297 H279 0.930 . S
C297 N293 1.334 . S
C297 C295 1.394 . S
C298 C294 1.413 . S
C298 C296 1.391 . S
C298 C313 1.437 . S
H299 C296 0.929 . S
O300 Gd256 2.545 . S
O300 C315 1.258 . S
O301 Gd256 2.606 . S
O301 Gd257 2.362 . S
O301 C312 1.284 . S
O302 Gd257 2.324 . S
O302 C322 1.254 . S
O303 Gd256 2.429 . S
O303 C322 1.268 . S
O304 Gd256 2.545 . S
O304 C312 1.250 . S
O305 Gd256 2.412 . S
O305 C315 1.252 . S
O306 Gd257 2.545 . S
O306 C324 1.258 . S
O307 Gd256 2.362 . S
O307 Gd257 2.606 . S
O307 C323 1.284 . S
O308 Gd256 2.324 . S
O308 C331 1.254 . S
O309 Gd257 2.429 . S
O309 C331 1.268 . S
O310 Gd257 2.545 . S
O310 C323 1.250 . S
O311 Gd257 2.412 . S
O311 C324 1.252 . S
C312 O301 1.284 . S
C312 O304 1.250 . S
C313 H282 0.929 . S
C313 C298 1.437 . S
C313 C314 1.317 . S
C314 H285 0.930 . S
C314 C290 1.431 . S
C314 C313 1.317 . S
C315 Gd256 2.828 . S
C315 O300 1.258 . S
C315 O305 1.252 . S
C315 C316 1.497 . S
C316 C315 1.497 . S
C316 C317 1.395 . S
C316 C318 1.380 . S
C317 C316 1.395 . S
C317 C320 1.398 . S
C317 H332 0.930 . S
C318 C316 1.380 . S
C318 C319 1.391 . S
C318 H333 0.930 . S
C319 C318 1.391 . S
C319 C321 1.387 . S
C320 C317 1.398 . S
C320 C321 1.380 . S
C320 H334 0.930 1_556 S
C321 C319 1.387 . S
C321 C320 1.380 . S
C321 H335 0.930 . S
C322 O302 1.254 . S
C322 O303 1.268 . S
C323 O307 1.284 . S
C323 O310 1.250 . S
C324 Gd257 2.828 . S
C324 O306 1.258 . S
C324 O311 1.252 . S
C324 C325 1.497 . S
C325 C324 1.497 . S
C325 C326 1.395 . S
C325 C327 1.380 . S
C326 C325 1.395 . S
C326 C329 1.398 . S
C326 H336 0.930 . S
C327 C325 1.380 . S
C327 C328 1.391 . S
C327 H337 0.930 . S
C328 C327 1.391 . S
C328 C330 1.387 . S
C329 C326 1.398 . S
C329 C330 1.380 . S
C329 H338 0.930 . S
C330 C328 1.387 . S
C330 C329 1.380 . S
C330 H339 0.930 . S
C331 O308 1.254 . S
C331 O309 1.268 . S
H332 C317 0.930 . S
H333 C318 0.930 . S
H334 C320 0.930 1_554 S
H335 C321 0.930 . S
H336 C326 0.930 . S
H337 C327 0.930 . S
H338 C329 0.930 . S
H339 C330 0.930 . S
Gd340 N371 2.661 . S
Gd340 N377 2.601 . S
Gd340 O384 2.545 . S
Gd340 O385 2.606 1_655 S
Gd340 O387 2.429 1_655 S
Gd340 O388 2.545 . S
Gd340 O389 2.412 . S
Gd340 O391 2.362 1_655 S
Gd340 O392 2.324 . S
Gd340 C399 2.828 . S
Gd341 N350 2.661 . S
Gd341 N354 2.601 . S
Gd341 O385 2.362 . S
Gd341 O386 2.324 . S
Gd341 O390 2.545 . S
Gd341 O391 2.606 . S
Gd341 O393 2.429 1_455 S
Gd341 O394 2.545 . S
Gd341 O395 2.412 . S
Gd341 C408 2.828 . S
C342 C345 1.417 . S
C342 C347 1.431 . S
C342 C348 1.412 . S
C343 C346 1.437 . S
C343 C347 1.317 . S
C343 H362 0.929 . S
C344 C345 1.426 . S
C344 C346 1.413 . S
C344 N354 1.359 . S
C345 C342 1.417 . S
C345 C344 1.426 . S
C345 N350 1.350 . S
C346 C343 1.437 . S
C346 C344 1.413 . S
C346 C356 1.391 . S
C347 C342 1.431 . S
C347 C343 1.317 . S
C347 H358 0.930 . S
C348 C342 1.412 . S
C348 C349 1.355 . S
C348 H360 0.930 . S
C349 C348 1.355 . S
C349 C351 1.402 . S
C349 H361 0.930 . S
N350 Gd341 2.661 . S
N350 C345 1.350 . S
N350 C351 1.307 . S
C351 C349 1.402 . S
C351 N350 1.307 . S
C351 H352 0.930 . S
H352 C351 0.930 . S
C353 N354 1.334 . S
C353 C355 1.394 . S
C353 H357 0.930 1_455 S
N354 Gd341 2.601 . S
N354 C344 1.359 . S
N354 C353 1.334 . S
C355 C353 1.394 . S
C355 C356 1.359 . S
C355 H367 0.930 1_455 S
C356 C346 1.391 . S
C356 C355 1.359 . S
C356 H368 0.929 . S
H357 C353 0.930 1_655 S
H358 C347 0.930 . S
H359 C376 0.930 . S
H360 C348 0.930 . S
H361 C349 0.930 . S
H362 C343 0.929 . S
H363 C381 0.930 . S
H364 C372 0.930 . S
H365 C373 0.930 . S
H366 C397 0.929 . S
H367 C355 0.930 1_655 S
H368 C356 0.929 . S
H369 C398 0.930 . S
H370 C379 0.930 . S
N371 Gd340 2.661 . S
N371 C375 1.350 . S
N371 C376 1.307 . S
C372 H364 0.930 . S
C372 C373 1.355 . S
C372 C374 1.412 . S
C373 H365 0.930 . S
C373 C372 1.355 . S
C373 C376 1.402 . S
C374 C372 1.412 . S
C374 C375 1.417 . S
C374 C398 1.431 . S
C375 N371 1.350 . S
C375 C374 1.417 . S
C375 C378 1.426 . S
C376 H359 0.930 . S
C376 N371 1.307 . S
C376 C373 1.402 . S
N377 Gd340 2.601 . S
N377 C378 1.359 . S
N377 C381 1.334 1_655 S
C378 C375 1.426 . S
C378 N377 1.359 . S
C378 C382 1.413 . S
C379 H370 0.930 . S
C379 C380 1.359 . S
C379 C381 1.394 . S
C380 C379 1.359 . S
C380 C382 1.391 1_455 S
C380 H383 0.929 . S
C381 H363 0.930 . S
C381 N377 1.334 1_455 S
C381 C379 1.394 . S
C382 C378 1.413 . S
C382 C380 1.391 1_655 S
C382 C397 1.437 . S
H383 C380 0.929 . S
O384 Gd340 2.545 . S
O384 C399 1.258 . S
O385 Gd340 2.606 1_455 S
O385 Gd341 2.362 . S
O385 C396 1.284 1_455 S
O386 Gd341 2.324 . S
O386 C406 1.254 . S
O387 Gd340 2.429 1_455 S
O387 C406 1.268 . S
O388 Gd340 2.545 . S
O388 C396 1.250 . S
O389 Gd340 2.412 . S
O389 C399 1.252 . S
O390 Gd341 2.545 . S
O390 C408 1.258 . S
O391 Gd340 2.362 1_455 S
O391 Gd341 2.606 . S
O391 C407 1.284 . S
O392 Gd340 2.324 . S
O392 C415 1.254 . S
O393 Gd341 2.429 1_655 S
O393 C415 1.268 . S
O394 Gd341 2.545 . S
O394 C407 1.250 . S
O395 Gd341 2.412 . S
O395 C408 1.252 . S
C396 O385 1.284 1_655 S
C396 O388 1.250 . S
C397 H366 0.929 . S
C397 C382 1.437 . S
C397 C398 1.317 . S
C398 H369 0.930 . S
C398 C374 1.431 . S
C398 C397 1.317 . S
C399 Gd340 2.828 . S
C399 O384 1.258 . S
C399 O389 1.252 . S
C399 C400 1.497 . S
C400 C399 1.497 . S
C400 C401 1.395 . S
C400 C402 1.380 . S
C401 C400 1.395 . S
C401 C404 1.398 . S
C401 H416 0.930 . S
C402 C400 1.380 . S
C402 C403 1.391 . S
C402 H417 0.930 . S
C403 C402 1.391 . S
C403 C405 1.387 . S
C404 C401 1.398 . S
C404 C405 1.380 . S
C404 H418 0.930 1_556 S
C405 C403 1.387 . S
C405 C404 1.380 . S
C405 H419 0.930 . S
C406 O386 1.254 . S
C406 O387 1.268 . S
C407 O391 1.284 . S
C407 O394 1.250 . S
C408 Gd341 2.828 . S
C408 O390 1.258 . S
C408 O395 1.252 . S
C408 C409 1.497 . S
C409 C408 1.497 . S
C409 C410 1.395 . S
C409 C411 1.380 . S
C410 C409 1.395 . S
C410 C413 1.398 . S
C410 H420 0.930 . S
C411 C409 1.380 . S
C411 C412 1.391 . S
C411 H421 0.930 . S
C412 C411 1.391 . S
C412 C414 1.387 . S
C413 C410 1.398 . S
C413 C414 1.380 . S
C413 H422 0.930 . S
C414 C412 1.387 . S
C414 C413 1.380 . S
C414 H423 0.930 . S
C415 O392 1.254 . S
C415 O393 1.268 . S
H416 C401 0.930 . S
H417 C402 0.930 . S
H418 C404 0.930 1_554 S
H419 C405 0.930 . S
H420 C410 0.930 . S
H421 C411 0.930 . S
H422 C413 0.930 . S
H423 C414 0.930 . S
H424 C442 0.951 . S
H425 C444 0.951 . S
H426 C446 0.950 . S
H427 C447 0.950 . S
H428 C449 0.950 . S
H429 C452 0.950 . S
H430 C453 0.950 . S
H431 C455 0.950 . S
H432 C456 0.950 . S
H433 C457 0.951 1_565 S
H434 C459 0.951 . S
H435 C461 0.950 . S
H436 C462 0.950 . S
H437 C464 0.950 . S
H438 C467 0.950 . S
H439 C468 0.950 . S
H440 C470 0.950 . S
H441 C471 0.950 . S
C442 H424 0.951 . S
C442 C443 1.366 . S
C442 C444 1.388 . S
C443 C442 1.366 . S
C443 C447 1.385 . S
C444 H425 0.951 . S
C444 C442 1.388 . S
C444 C445 1.366 . S
C445 C444 1.366 . S
C445 C446 1.414 . S
C445 C448 1.499 . S
C446 H426 0.950 . S
C446 C445 1.414 . S
C446 C447 1.374 . S
C447 H427 0.950 . S
C447 C443 1.385 . S
C447 C446 1.374 . S
C448 C445 1.499 . S
C448 C449 1.373 . S
C448 C450 1.389 . S
C449 H428 0.950 . S
C449 C448 1.373 . S
C449 C465 1.377 . S
C450 C448 1.389 . S
C450 C451 1.524 . S
C450 C464 1.377 . S
C451 C450 1.524 . S
C451 C452 1.397 . S
C451 C456 1.363 . S
C452 H429 0.950 . S
C452 C451 1.397 . S
C452 C453 1.334 . S
C453 H430 0.950 . S
C453 C452 1.334 . S
C453 C454 1.287 . S
C454 C453 1.287 . S
C454 C455 1.524 . S
C454 H473 0.913 . S
C455 H431 0.950 . S
C455 C454 1.524 . S
C455 C456 1.415 . S
C456 H432 0.950 . S
C456 C451 1.363 . S
C456 C455 1.415 . S
C457 H433 0.951 1_545 S
C457 C458 1.366 . S
C457 C459 1.388 . S
C458 C457 1.366 . S
C458 C462 1.385 . S
C459 H434 0.951 . S
C459 C457 1.388 . S
C459 C460 1.366 . S
C460 C459 1.366 . S
C460 C461 1.414 . S
C460 C463 1.499 . S
C461 H435 0.950 . S
C461 C460 1.414 . S
C461 C462 1.374 . S
C462 H436 0.950 . S
C462 C458 1.385 . S
C462 C461 1.374 . S
C463 C460 1.499 . S
C463 C464 1.373 . S
C463 C465 1.389 . S
C464 H437 0.950 . S
C464 C450 1.377 . S
C464 C463 1.373 . S
C465 C449 1.377 . S
C465 C463 1.389 . S
C465 C466 1.524 . S
C466 C465 1.524 . S
C466 C467 1.397 . S
C466 C471 1.363 1_545 S
C467 H438 0.950 . S
C467 C466 1.397 . S
C467 C468 1.334 1_545 S
C468 H439 0.950 . S
C468 C467 1.334 1_565 S
C468 C469 1.287 . S
C469 C468 1.287 . S
C469 C470 1.524 . S
C469 H472 0.999 . S
C470 H440 0.950 . S
C470 C469 1.524 . S
C470 C471 1.415 . S
C471 H441 0.950 . S
C471 C466 1.363 1_565 S
C471 C470 1.415 . S
H472 C469 0.999 . S
H473 C454 0.913 . S
H474 C492 0.951 . S
H475 C494 0.951 . S
H476 C496 0.950 . S
H477 C497 0.950 . S
H478 C499 0.950 . S
H479 C502 0.950 . S
H480 C503 0.950 . S
H481 C505 0.950 . S
H482 C506 0.950 . S
H483 C507 0.951 . S
H484 C509 0.951 . S
H485 C511 0.950 . S
H486 C512 0.950 . S
H487 C514 0.950 . S
H488 C517 0.950 . S
H489 C518 0.950 . S
H490 C520 0.950 . S
H491 C521 0.950 . S
C492 H474 0.951 . S
C492 C493 1.366 . S
C492 C494 1.388 . S
C493 C492 1.366 . S
C493 C497 1.385 . S
C494 H475 0.951 . S
C494 C492 1.388 . S
C494 C495 1.366 . S
C495 C494 1.366 . S
C495 C496 1.414 . S
C495 C498 1.499 . S
C496 H476 0.950 . S
C496 C495 1.414 . S
C496 C497 1.374 . S
C497 H477 0.950 . S
C497 C493 1.385 . S
C497 C496 1.374 . S
C498 C495 1.499 . S
C498 C499 1.373 . S
C498 C500 1.389 . S
C499 H478 0.950 . S
C499 C498 1.373 . S
C499 C515 1.377 . S
C500 C498 1.389 . S
C500 C501 1.524 . S
C500 C514 1.377 . S
C501 C500 1.524 . S
C501 C502 1.397 . S
C501 C506 1.363 . S
C502 H479 0.950 . S
C502 C501 1.397 . S
C502 C503 1.334 . S
C503 H480 0.950 . S
C503 C502 1.334 . S
C503 C504 1.287 . S
C504 C503 1.287 . S
C504 C505 1.524 . S
C504 H523 0.913 . S
C505 H481 0.950 . S
C505 C504 1.524 . S
C505 C506 1.415 . S
C506 H482 0.950 . S
C506 C501 1.363 . S
C506 C505 1.415 . S
C507 H483 0.951 . S
C507 C508 1.366 . S
C507 C509 1.388 . S
C508 C507 1.366 . S
C508 C512 1.385 . S
C509 H484 0.951 . S
C509 C507 1.388 . S
C509 C510 1.366 . S
C510 C509 1.366 . S
C510 C511 1.414 . S
C510 C513 1.499 . S
C511 H485 0.950 . S
C511 C510 1.414 . S
C511 C512 1.374 . S
C512 H486 0.950 . S
C512 C508 1.385 . S
C512 C511 1.374 . S
C513 C510 1.499 . S
C513 C514 1.373 . S
C513 C515 1.389 . S
C514 H487 0.950 . S
C514 C500 1.377 . S
C514 C513 1.373 . S
C515 C499 1.377 . S
C515 C513 1.389 . S
C515 C516 1.524 . S
C516 C515 1.524 . S
C516 C517 1.397 . S
C516 C521 1.363 . S
C517 H488 0.950 . S
C517 C516 1.397 . S
C517 C518 1.334 . S
C518 H489 0.950 . S
C518 C517 1.334 . S
C518 C519 1.287 . S
C519 C518 1.287 . S
C519 C520 1.524 . S
C519 H522 0.999 . S
C520 H490 0.950 . S
C520 C519 1.524 . S
C520 C521 1.415 . S
C521 H491 0.950 . S
C521 C516 1.363 . S
C521 C520 1.415 . S
H522 C519 0.999 . S
H523 C504 0.913 . S
H524 C542 0.951 . S
H525 C544 0.951 . S
H526 C546 0.950 . S
H527 C547 0.950 . S
H528 C549 0.950 . S
H529 C552 0.950 . S
H530 C553 0.950 . S
H531 C555 0.950 . S
H532 C556 0.950 . S
H533 C557 0.951 . S
H534 C559 0.951 . S
H535 C561 0.950 . S
H536 C562 0.950 . S
H537 C564 0.950 . S
H538 C567 0.950 . S
H539 C568 0.950 . S
H540 C570 0.950 . S
H541 C571 0.950 . S
C542 H524 0.951 . S
C542 C543 1.366 . S
C542 C544 1.388 . S
C543 C542 1.366 . S
C543 C547 1.385 . S
C544 H525 0.951 . S
C544 C542 1.388 . S
C544 C545 1.366 . S
C545 C544 1.366 . S
C545 C546 1.414 . S
C545 C548 1.499 . S
C546 H526 0.950 . S
C546 C545 1.414 . S
C546 C547 1.374 . S
C547 H527 0.950 . S
C547 C543 1.385 . S
C547 C546 1.374 . S
C548 C545 1.499 . S
C548 C549 1.373 . S
C548 C550 1.389 . S
C549 H528 0.950 . S
C549 C548 1.373 . S
C549 C565 1.377 . S
C550 C548 1.389 . S
C550 C551 1.524 . S
C550 C564 1.377 . S
C551 C550 1.524 . S
C551 C552 1.397 . S
C551 C556 1.363 . S
C552 H529 0.950 . S
C552 C551 1.397 . S
C552 C553 1.334 . S
C553 H530 0.950 . S
C553 C552 1.334 . S
C553 C554 1.287 . S
C554 C553 1.287 . S
C554 C555 1.524 . S
C554 H573 0.913 . S
C555 H531 0.950 . S
C555 C554 1.524 . S
C555 C556 1.415 . S
C556 H532 0.950 . S
C556 C551 1.363 . S
C556 C555 1.415 . S
C557 H533 0.951 . S
C557 C558 1.366 . S
C557 C559 1.388 . S
C558 C557 1.366 . S
C558 C562 1.385 . S
C559 H534 0.951 . S
C559 C557 1.388 . S
C559 C560 1.366 . S
C560 C559 1.366 . S
C560 C561 1.414 . S
C560 C563 1.499 . S
C561 H535 0.950 . S
C561 C560 1.414 . S
C561 C562 1.374 . S
C562 H536 0.950 . S
C562 C558 1.385 . S
C562 C561 1.374 . S
C563 C560 1.499 . S
C563 C564 1.373 . S
C563 C565 1.389 . S
C564 H537 0.950 . S
C564 C550 1.377 . S
C564 C563 1.373 . S
C565 C549 1.377 . S
C565 C563 1.389 . S
C565 C566 1.524 . S
C566 C565 1.524 . S
C566 C567 1.397 . S
C566 C571 1.363 . S
C567 H538 0.950 . S
C567 C566 1.397 . S
C567 C568 1.334 . S
C568 H539 0.950 . S
C568 C567 1.334 . S
C568 C569 1.287 . S
C569 C568 1.287 . S
C569 C570 1.524 . S
C569 H572 0.999 . S
C570 H540 0.950 . S
C570 C569 1.524 . S
C570 C571 1.415 . S
C571 H541 0.950 . S
C571 C566 1.363 . S
C571 C570 1.415 . S
H572 C569 0.999 . S
H573 C554 0.913 . S
H574 C592 0.951 . S
H575 C594 0.951 . S
H576 C596 0.950 . S
H577 C597 0.950 . S
H578 C599 0.950 . S
H579 C602 0.950 . S
H580 C603 0.950 . S
H581 C605 0.950 . S
H582 C606 0.950 . S
H583 C607 0.951 . S
H584 C609 0.951 . S
H585 C611 0.950 . S
H586 C612 0.950 1_655 S
H587 C614 0.950 . S
H588 C617 0.950 . S
H589 C618 0.928 1_655 S
H590 C620 0.950 . S
H591 C621 0.950 . S
C592 H574 0.951 . S
C592 C593 1.366 . S
C592 C594 1.388 . S
C593 C592 1.366 . S
C593 C597 1.385 . S
C594 H575 0.951 . S
C594 C592 1.388 . S
C594 C595 1.366 . S
C595 C594 1.366 . S
C595 C596 1.414 . S
C595 C598 1.499 . S
C596 H576 0.950 . S
C596 C595 1.414 . S
C596 C597 1.374 . S
C597 H577 0.950 . S
C597 C593 1.385 . S
C597 C596 1.374 . S
C598 C595 1.499 . S
C598 C599 1.373 . S
C598 C600 1.389 . S
C599 H578 0.950 . S
C599 C598 1.373 . S
C599 C615 1.377 . S
C600 C598 1.389 . S
C600 C601 1.524 . S
C600 C614 1.377 . S
C601 C600 1.524 . S
C601 C602 1.397 . S
C601 C606 1.363 . S
C602 H579 0.950 . S
C602 C601 1.397 . S
C602 C603 1.334 . S
C603 H580 0.950 . S
C603 C602 1.334 . S
C603 C604 1.287 . S
C604 C603 1.287 . S
C604 C605 1.524 . S
C604 H623 0.913 1_554 S
C605 H581 0.950 . S
C605 C604 1.524 . S
C605 C606 1.415 . S
C606 H582 0.950 . S
C606 C601 1.363 . S
C606 C605 1.415 . S
C607 H583 0.951 . S
C607 C608 1.366 . S
C607 C609 1.388 . S
C608 C607 1.366 . S
C608 C612 1.385 . S
C609 H584 0.951 . S
C609 C607 1.388 . S
C609 C610 1.366 . S
C610 C609 1.366 . S
C610 C611 1.414 . S
C610 C613 1.499 . S
C611 H585 0.950 . S
C611 C610 1.414 . S
C611 C612 1.374 . S
C612 H586 0.950 1_455 S
C612 C608 1.385 . S
C612 C611 1.374 . S
C613 C610 1.499 . S
C613 C614 1.373 . S
C613 C615 1.389 . S
C614 H587 0.950 . S
C614 C600 1.377 . S
C614 C613 1.373 . S
C615 C599 1.377 . S
C615 C613 1.389 . S
C615 C616 1.524 . S
C616 C615 1.524 . S
C616 C617 1.397 . S
C616 C621 1.363 . S
C617 H588 0.950 . S
C617 C616 1.397 . S
C617 C618 1.334 . S
C618 H589 0.928 1_455 S
C618 C617 1.334 . S
C618 C619 1.287 . S
C619 C618 1.287 . S
C619 C620 1.524 . S
C619 H622 0.999 . S
C620 H590 0.950 . S
C620 C619 1.524 . S
C620 C621 1.415 . S
C621 H591 0.950 . S
C621 C616 1.363 . S
C621 C620 1.415 . S
H622 C619 0.999 . S
H623 C604 0.913 1_556 S
H624 C642 0.951 . S
H625 C644 0.951 . S
H626 C646 0.950 . S
H627 C647 0.950 . S
H628 C649 0.950 1_554 S
H629 C652 0.950 . S
H630 C653 0.950 . S
H631 C655 0.983 . S
H632 C656 0.950 1_545 S
H633 C657 0.951 . S
H634 C659 0.951 . S
H635 C661 0.950 . S
H636 C662 0.950 . S
H637 C664 0.950 . S
H638 C667 0.950 1_545 S
H639 C668 0.953 1_545 S
H640 C670 0.950 . S
H641 C671 0.950 . S
C642 H624 0.951 . S
C642 C643 1.366 . S
C642 C644 1.388 . S
C643 C642 1.366 . S
C643 C647 1.385 . S
C644 H625 0.951 . S
C644 C642 1.388 . S
C644 C645 1.366 . S
C645 C644 1.366 . S
C645 C646 1.414 . S
C645 C648 1.499 1_554 S
C646 H626 0.950 . S
C646 C645 1.414 . S
C646 C647 1.374 . S
C647 H627 0.950 . S
C647 C643 1.385 . S
C647 C646 1.374 . S
C648 C645 1.499 1_556 S
C648 C649 1.373 . S
C648 C650 1.389 . S
C649 H628 0.950 1_556 S
C649 C648 1.373 . S
C649 C665 1.377 . S
C650 C648 1.389 . S
C650 C651 1.524 . S
C650 C664 1.377 . S
C651 C650 1.524 . S
C651 C652 1.397 . S
C651 C656 1.363 . S
C652 H629 0.950 . S
C652 C651 1.397 . S
C652 C653 1.334 . S
C653 H630 0.950 . S
C653 C652 1.334 . S
C653 C654 1.287 . S
C654 C653 1.287 . S
C654 C655 1.524 . S
C654 H673 0.913 . S
C655 H631 0.983 . S
C655 C654 1.524 . S
C655 C656 1.415 . S
C656 H632 0.950 1_565 S
C656 C651 1.363 . S
C656 C655 1.415 . S
C657 H633 0.951 . S
C657 C658 1.366 . S
C657 C659 1.388 . S
C658 C657 1.366 . S
C658 C662 1.385 1_565 S
C659 H634 0.951 . S
C659 C657 1.388 . S
C659 C660 1.366 . S
C660 C659 1.366 . S
C660 C661 1.414 1_565 S
C660 C663 1.499 . S
C661 H635 0.950 . S
C661 C660 1.414 1_545 S
C661 C662 1.374 . S
C662 H636 0.950 . S
C662 C658 1.385 1_545 S
C662 C661 1.374 . S
C663 C660 1.499 . S
C663 C664 1.373 . S
C663 C665 1.389 . S
C664 H637 0.950 . S
C664 C650 1.377 . S
C664 C663 1.373 . S
C665 C649 1.377 . S
C665 C663 1.389 . S
C665 C666 1.524 . S
C666 C665 1.524 . S
C666 C667 1.397 . S
C666 C671 1.363 1_556 S
C667 H638 0.950 1_565 S
C667 C666 1.397 . S
C667 C668 1.334 . S
C668 H639 0.953 1_565 S
C668 C667 1.334 . S
C668 C669 1.284 1_556 S
C669 C668 1.284 1_554 S
C669 C670 1.524 . S
C669 H672 0.999 . S
C670 H640 0.950 . S
C670 C669 1.524 . S
C670 C671 1.415 . S
C671 H641 0.950 . S
C671 C666 1.363 1_554 S
C671 C670 1.415 . S
H672 C669 0.999 . S
H673 C654 0.913 . S
H674 C692 0.951 . S
H675 C694 0.951 1_556 S
H676 C696 0.950 . S
H677 C697 0.950 . S
H678 C699 0.950 1_554 S
H679 C702 0.950 . S
H680 C703 0.950 . S
H681 C705 0.950 . S
H682 C706 0.950 . S
H683 C707 0.951 . S
H684 C709 0.951 . S
H685 C711 0.950 . S
H686 C712 0.950 . S
H687 C714 0.950 . S
H688 C717 0.950 . S
H689 C718 0.950 . S
H690 C720 0.950 . S
H691 C721 0.950 . S
C692 H674 0.951 . S
C692 C693 1.366 . S
C692 C694 1.388 . S
C693 C692 1.366 . S
C693 C697 1.385 . S
C694 H675 0.951 1_554 S
C694 C692 1.388 . S
C694 C695 1.366 . S
C695 C694 1.366 . S
C695 C696 1.414 . S
C695 C698 1.499 1_554 S
C696 H676 0.950 . S
C696 C695 1.414 . S
C696 C697 1.374 . S
C697 H677 0.950 . S
C697 C693 1.385 . S
C697 C696 1.374 . S
C698 C695 1.499 1_556 S
C698 C699 1.373 . S
C698 C700 1.389 . S
C699 H678 0.950 1_556 S
C699 C698 1.373 . S
C699 C715 1.377 . S
C700 C698 1.389 . S
C700 C701 1.524 . S
C700 C714 1.377 . S
C701 C700 1.524 . S
C701 C702 1.397 . S
C701 C706 1.363 . S
C702 H679 0.950 . S
C702 C701 1.397 . S
C702 C703 1.334 . S
C703 H680 0.950 . S
C703 C702 1.334 . S
C703 C704 1.287 . S
C704 C703 1.287 . S
C704 C705 1.524 . S
C704 H723 0.913 . S
C705 H681 0.950 . S
C705 C704 1.524 . S
C705 C706 1.415 . S
C706 H682 0.950 . S
C706 C701 1.363 . S
C706 C705 1.415 . S
C707 H683 0.951 . S
C707 C708 1.366 . S
C707 C709 1.388 . S
C708 C707 1.366 . S
C708 C712 1.385 . S
C709 H684 0.951 . S
C709 C707 1.388 . S
C709 C710 1.366 . S
C710 C709 1.366 . S
C710 C711 1.414 . S
C710 C713 1.499 . S
C711 H685 0.950 . S
C711 C710 1.414 . S
C711 C712 1.374 . S
C712 H686 0.950 . S
C712 C708 1.385 . S
C712 C711 1.374 . S
C713 C710 1.499 . S
C713 C714 1.373 . S
C713 C715 1.389 . S
C714 H687 0.950 . S
C714 C700 1.377 . S
C714 C713 1.373 . S
C715 C699 1.377 . S
C715 C713 1.389 . S
C715 C716 1.524 . S
C716 C715 1.524 . S
C716 C717 1.397 . S
C716 C721 1.363 1_556 S
C717 H688 0.950 . S
C717 C716 1.397 . S
C717 C718 1.334 . S
C718 H689 0.950 . S
C718 C717 1.334 . S
C718 C719 1.287 1_556 S
C719 C718 1.287 1_554 S
C719 C720 1.524 . S
C719 H722 0.999 . S
C720 H690 0.950 . S
C720 C719 1.524 . S
C720 C721 1.415 . S
C721 H691 0.950 . S
C721 C716 1.363 1_554 S
C721 C720 1.415 . S
H722 C719 0.999 . S
H723 C704 0.913 . S
H724 C742 0.951 . S
H725 C744 0.951 . S
H726 C746 0.950 . S
H727 C747 0.950 . S
H728 C749 0.950 . S
H729 C752 0.950 1_556 S
H730 C753 0.950 . S
H731 C755 0.950 . S
H732 C756 0.950 . S
H733 C757 0.951 . S
H734 C759 0.951 . S
H735 C761 0.950 . S
H736 C762 0.950 . S
H737 C764 0.950 . S
H738 C767 0.950 . S
H739 C768 0.950 . S
H740 C770 0.950 . S
H741 C771 0.950 . S
C742 H724 0.951 . S
C742 C743 1.366 . S
C742 C744 1.388 . S
C743 C742 1.366 . S
C743 C747 1.385 . S
C744 H725 0.951 . S
C744 C742 1.388 . S
C744 C745 1.366 . S
C745 C744 1.366 . S
C745 C746 1.414 1_554 S
C745 C748 1.499 1_554 S
C746 H726 0.950 . S
C746 C745 1.414 1_556 S
C746 C747 1.374 1_556 S
C747 H727 0.950 . S
C747 C743 1.385 . S
C747 C746 1.374 1_554 S
C748 C745 1.499 1_556 S
C748 C749 1.373 . S
C748 C750 1.389 . S
C749 H728 0.950 . S
C749 C748 1.373 . S
C749 C765 1.377 . S
C750 C748 1.389 . S
C750 C751 1.524 1_556 S
C750 C764 1.377 . S
C751 C750 1.524 1_554 S
C751 C752 1.397 . S
C751 C756 1.363 . S
C752 H729 0.950 1_554 S
C752 C751 1.397 . S
C752 C753 1.334 . S
C753 H730 0.950 . S
C753 C752 1.334 . S
C753 C754 1.287 . S
C754 C753 1.287 . S
C754 C755 1.524 . S
C754 H773 0.913 . S
C755 H731 0.950 . S
C755 C754 1.524 . S
C755 C756 1.415 . S
C756 H732 0.950 . S
C756 C751 1.363 . S
C756 C755 1.415 . S
C757 H733 0.951 . S
C757 C758 1.366 . S
C757 C759 1.388 . S
C758 C757 1.366 . S
C758 C762 1.385 . S
C759 H734 0.951 . S
C759 C757 1.388 . S
C759 C760 1.366 . S
C760 C759 1.366 . S
C760 C761 1.414 . S
C760 C763 1.499 . S
C761 H735 0.950 . S
C761 C760 1.414 . S
C761 C762 1.374 . S
C762 H736 0.950 . S
C762 C758 1.385 . S
C762 C761 1.374 . S
C763 C760 1.499 . S
C763 C764 1.373 . S
C763 C765 1.389 . S
C764 H737 0.950 . S
C764 C750 1.377 . S
C764 C763 1.373 . S
C765 C749 1.377 . S
C765 C763 1.389 . S
C765 C766 1.524 . S
C766 C765 1.524 . S
C766 C767 1.397 . S
C766 C771 1.363 . S
C767 H738 0.950 . S
C767 C766 1.397 . S
C767 C768 1.334 . S
C768 H739 0.950 . S
C768 C767 1.334 . S
C768 C769 1.287 . S
C769 C768 1.287 . S
C769 C770 1.524 . S
C769 H772 0.999 . S
C770 H740 0.950 . S
C770 C769 1.524 . S
C770 C771 1.415 . S
C771 H741 0.950 . S
C771 C766 1.363 . S
C771 C770 1.415 . S
H772 C769 0.999 . S
H773 C754 0.913 . S
H774 C792 0.951 . S
H775 C794 0.951 . S
H776 C796 0.950 1_556 S
H777 C797 0.950 . S
H778 C799 0.950 . S
H779 C802 0.950 1_556 S
H780 C803 0.950 . S
H781 C805 0.950 . S
H782 C806 0.950 . S
H783 C807 0.951 . S
H784 C809 0.951 . S
H785 C811 0.950 . S
H786 C812 0.931 1_455 S
H787 C814 0.950 1_455 S
H788 C817 0.950 . S
H789 C818 0.950 . S
H790 C820 0.950 . S
H791 C821 0.950 . S
C792 H774 0.951 . S
C792 C793 1.366 . S
C792 C794 1.388 . S
C793 C792 1.366 . S
C793 C797 1.385 . S
C794 H775 0.951 . S
C794 C792 1.388 . S
C794 C795 1.366 . S
C795 C794 1.366 . S
C795 C796 1.414 . S
C795 C798 1.499 1_554 S
C796 H776 0.950 1_554 S
C796 C795 1.414 . S
C796 C797 1.374 . S
C797 H777 0.950 . S
C797 C793 1.385 . S
C797 C796 1.374 . S
C798 C795 1.499 1_556 S
C798 C799 1.373 . S
C798 C800 1.389 . S
C799 H778 0.950 . S
C799 C798 1.373 . S
C799 C815 1.377 . S
C800 C798 1.389 . S
C800 C801 1.524 1_656 S
C800 C814 1.377 . S
C801 C800 1.524 1_454 S
C801 C802 1.397 . S
C801 C806 1.363 . S
C802 H779 0.950 1_554 S
C802 C801 1.397 . S
C802 C803 1.334 . S
C803 H780 0.950 . S
C803 C802 1.334 . S
C803 C804 1.287 . S
C804 C803 1.287 . S
C804 C805 1.524 . S
C804 H823 0.913 . S
C805 H781 0.950 . S
C805 C804 1.524 . S
C805 C806 1.415 . S
C806 H782 0.950 . S
C806 C801 1.363 . S
C806 C805 1.415 . S
C807 H783 0.951 . S
C807 C808 1.366 . S
C807 C809 1.388 . S
C808 C807 1.366 . S
C808 C812 1.385 . S
C809 H784 0.951 . S
C809 C807 1.388 . S
C809 C810 1.366 . S
C810 C809 1.366 . S
C810 C811 1.414 . S
C810 C813 1.499 . S
C811 H785 0.950 . S
C811 C810 1.414 . S
C811 C812 1.374 . S
C812 H786 0.931 1_655 S
C812 C808 1.385 . S
C812 C811 1.374 . S
C813 C810 1.499 . S
C813 C814 1.373 . S
C813 C815 1.389 . S
C814 H787 0.950 1_655 S
C814 C800 1.377 . S
C814 C813 1.373 . S
C815 C799 1.377 . S
C815 C813 1.389 . S
C815 C816 1.524 . S
C816 C815 1.524 . S
C816 C817 1.397 . S
C816 C821 1.363 . S
C817 H788 0.950 . S
C817 C816 1.397 . S
C817 C818 1.334 . S
C818 H789 0.950 . S
C818 C817 1.334 . S
C818 C819 1.287 . S
C819 C818 1.287 . S
C819 C820 1.524 . S
C819 H822 0.999 . S
C820 H790 0.950 . S
C820 C819 1.524 . S
C820 C821 1.415 . S
C821 H791 0.950 . S
C821 C816 1.363 . S
C821 C820 1.415 . S
H822 C819 0.999 . S
H823 C804 0.913 . S
H824 C842 0.951 . S
H825 C844 0.951 . S
H826 C846 0.950 . S
H827 C847 0.950 . S
H828 C849 0.950 . S
H829 C852 0.950 . S
H830 C853 0.950 . S
H831 C855 0.950 . S
H832 C856 0.950 . S
H833 C857 0.951 . S
H834 C859 0.942 1_655 S
H835 C861 0.950 . S
H836 C862 0.950 . S
H837 C864 0.950 . S
H838 C867 0.950 . S
H839 C868 0.950 . S
H840 C870 0.950 . S
H841 C871 0.950 . S
C842 H824 0.951 . S
C842 C843 1.366 . S
C842 C844 1.388 . S
C843 C842 1.366 . S
C843 C847 1.385 . S
C844 H825 0.951 . S
C844 C842 1.388 . S
C844 C845 1.366 . S
C845 C844 1.366 . S
C845 C846 1.414 . S
C845 C848 1.499 . S
C846 H826 0.950 . S
C846 C845 1.414 . S
C846 C847 1.374 . S
C847 H827 0.950 . S
C847 C843 1.385 . S
C847 C846 1.374 . S
C848 C845 1.499 . S
C848 C849 1.373 . S
C848 C850 1.389 . S
C849 H828 0.950 . S
C849 C848 1.373 . S
C849 C865 1.377 . S
C850 C848 1.389 . S
C850 C851 1.524 . S
C850 C864 1.377 . S
C851 C850 1.524 . S
C851 C852 1.397 . S
C851 C856 1.363 . S
C852 H829 0.950 . S
C852 C851 1.397 . S
C852 C853 1.334 1_554 S
C853 H830 0.950 . S
C853 C852 1.334 1_556 S
C853 C854 1.287 . S
C854 C853 1.287 . S
C854 C855 1.524 . S
C854 H873 0.913 . S
C855 H831 0.950 . S
C855 C854 1.524 . S
C855 C856 1.415 1_556 S
C856 H832 0.950 . S
C856 C851 1.363 . S
C856 C855 1.415 1_554 S
C857 H833 0.951 . S
C857 C858 1.366 1_655 S
C857 C859 1.388 1_655 S
C858 C857 1.366 1_455 S
C858 C862 1.385 . S
C859 H834 0.942 1_455 S
C859 C857 1.388 1_455 S
C859 C860 1.366 . S
C860 C859 1.366 . S
C860 C861 1.414 . S
C860 C863 1.499 . S
C861 H835 0.950 . S
C861 C860 1.414 . S
C861 C862 1.374 . S
C862 H836 0.950 . S
C862 C858 1.385 . S
C862 C861 1.374 . S
C863 C860 1.499 . S
C863 C864 1.373 . S
C863 C865 1.389 . S
C864 H837 0.950 . S
C864 C850 1.377 . S
C864 C863 1.373 . S
C865 C849 1.377 . S
C865 C863 1.389 . S
C865 C866 1.524 . S
C866 C865 1.524 . S
C866 C867 1.397 . S
C866 C871 1.363 . S
C867 H838 0.950 . S
C867 C866 1.397 . S
C867 C868 1.334 . S
C868 H839 0.950 . S
C868 C867 1.334 . S
C868 C869 1.287 . S
C869 C868 1.287 . S
C869 C870 1.524 . S
C869 H872 0.999 . S
C870 H840 0.950 . S
C870 C869 1.524 . S
C870 C871 1.415 . S
C871 H841 0.950 . S
C871 C866 1.363 . S
C871 C870 1.415 . S
H872 C869 0.999 . S
H873 C854 0.913 . S
H874 C892 0.951 . S
H875 C894 0.951 . S
H876 C896 0.950 . S
H877 C897 0.950 . S
H878 C899 0.950 . S
H879 C902 0.950 . S
H880 C903 0.950 1_545 S
H881 C905 0.950 . S
H882 C906 0.950 . S
H883 C907 0.951 . S
H884 C909 0.951 . S
H885 C911 0.950 1_565 S
H886 C912 0.950 . S
H887 C914 0.950 . S
H888 C917 0.950 . S
H889 C918 0.950 . S
H890 C920 0.950 . S
H891 C921 0.950 . S
C892 H874 0.951 . S
C892 C893 1.366 . S
C892 C894 1.388 . S
C893 C892 1.366 . S
C893 C897 1.385 . S
C894 H875 0.951 . S
C894 C892 1.388 . S
C894 C895 1.366 . S
C895 C894 1.366 . S
C895 C896 1.414 . S
C895 C898 1.499 . S
C896 H876 0.950 . S
C896 C895 1.414 . S
C896 C897 1.374 . S
C897 H877 0.950 . S
C897 C893 1.385 . S
C897 C896 1.374 . S
C898 C895 1.499 . S
C898 C899 1.373 . S
C898 C900 1.389 . S
C899 H878 0.950 . S
C899 C898 1.373 . S
C899 C915 1.377 . S
C900 C898 1.389 . S
C900 C901 1.524 . S
C900 C914 1.377 . S
C901 C900 1.524 . S
C901 C902 1.397 . S
C901 C906 1.363 1_545 S
C902 H879 0.950 . S
C902 C901 1.397 . S
C902 C903 1.334 1_545 S
C903 H880 0.950 1_565 S
C903 C902 1.334 1_565 S
C903 C904 1.287 . S
C904 C903 1.287 . S
C904 C905 1.524 . S
C904 H923 0.913 . S
C905 H881 0.950 . S
C905 C904 1.524 . S
C905 C906 1.415 . S
C906 H882 0.950 . S
C906 C901 1.363 1_565 S
C906 C905 1.415 . S
C907 H883 0.951 . S
C907 C908 1.366 . S
C907 C909 1.388 . S
C908 C907 1.366 . S
C908 C912 1.385 1_545 S
C909 H884 0.951 . S
C909 C907 1.388 . S
C909 C910 1.366 . S
C910 C909 1.366 . S
C910 C911 1.414 . S
C910 C913 1.499 . S
C911 H885 0.950 1_545 S
C911 C910 1.414 . S
C911 C912 1.374 1_545 S
C912 H886 0.950 . S
C912 C908 1.385 1_565 S
C912 C911 1.374 1_565 S
C913 C910 1.499 . S
C913 C914 1.373 . S
C913 C915 1.389 . S
C914 H887 0.950 . S
C914 C900 1.377 . S
C914 C913 1.373 . S
C915 C899 1.377 . S
C915 C913 1.389 . S
C915 C916 1.524 . S
C916 C915 1.524 . S
C916 C917 1.397 . S
C916 C921 1.363 . S
C917 H888 0.950 . S
C917 C916 1.397 . S
C917 C918 1.334 . S
C918 H889 0.950 . S
C918 C917 1.334 . S
C918 C919 1.287 . S
C919 C918 1.287 . S
C919 C920 1.524 . S
C919 H922 0.999 . S
C920 H890 0.950 . S
C920 C919 1.524 . S
C920 C921 1.415 . S
C921 H891 0.950 . S
C921 C916 1.363 . S
C921 C920 1.415 . S
H922 C919 0.999 . S
H923 C904 0.913 . S
H924 C942 0.951 . S
H925 C944 0.951 . S
H926 C946 0.950 . S
H927 C947 0.950 . S
H928 C949 0.950 . S
H929 C952 0.950 . S
H930 C953 0.950 1_556 S
H931 C955 0.950 . S
H932 C956 0.950 . S
H933 C957 0.951 . S
H934 C959 0.951 . S
H935 C961 0.950 . S
H936 C962 0.950 . S
H937 C964 0.950 . S
H938 C967 0.950 . S
H939 C968 0.950 . S
H940 C970 0.950 . S
H941 C971 0.950 . S
C942 H924 0.951 . S
C942 C943 1.366 . S
C942 C944 1.388 . S
C943 C942 1.366 . S
C943 C947 1.385 . S
C944 H925 0.951 . S
C944 C942 1.388 . S
C944 C945 1.366 . S
C945 C944 1.366 . S
C945 C946 1.414 . S
C945 C948 1.499 . S
C946 H926 0.950 . S
C946 C945 1.414 . S
C946 C947 1.374 . S
C947 H927 0.950 . S
C947 C943 1.385 . S
C947 C946 1.374 . S
C948 C945 1.499 . S
C948 C949 1.373 . S
C948 C950 1.389 . S
C949 H928 0.950 . S
C949 C948 1.373 . S
C949 C965 1.377 . S
C950 C948 1.389 . S
C950 C951 1.524 . S
C950 C964 1.377 . S
C951 C950 1.524 . S
C951 C952 1.397 . S
C951 C956 1.363 . S
C952 H929 0.950 . S
C952 C951 1.397 . S
C952 C953 1.334 . S
C953 H930 0.950 1_554 S
C953 C952 1.334 . S
C953 C954 1.287 . S
C954 C953 1.287 . S
C954 C955 1.524 . S
C954 H973 0.913 1_554 S
C955 H931 0.950 . S
C955 C954 1.524 . S
C955 C956 1.415 . S
C956 H932 0.950 . S
C956 C951 1.363 . S
C956 C955 1.415 . S
C957 H933 0.951 . S
C957 C958 1.366 . S
C957 C959 1.388 . S
C958 C957 1.366 . S
C958 C962 1.385 . S
C959 H934 0.951 . S
C959 C957 1.388 . S
C959 C960 1.366 . S
C960 C959 1.366 . S
C960 C961 1.414 . S
C960 C963 1.499 . S
C961 H935 0.950 . S
C961 C960 1.414 . S
C961 C962 1.374 . S
C962 H936 0.950 . S
C962 C958 1.385 . S
C962 C961 1.374 . S
C963 C960 1.499 . S
C963 C964 1.373 . S
C963 C965 1.389 . S
C964 H937 0.950 . S
C964 C950 1.377 . S
C964 C963 1.373 . S
C965 C949 1.377 . S
C965 C963 1.389 . S
C965 C966 1.524 . S
C966 C965 1.524 . S
C966 C967 1.397 . S
C966 C971 1.363 . S
C967 H938 0.950 . S
C967 C966 1.397 . S
C967 C968 1.334 . S
C968 H939 0.950 . S
C968 C967 1.334 . S
C968 C969 1.287 . S
C969 C968 1.287 . S
C969 C970 1.524 . S
C969 H972 0.999 . S
C970 H940 0.950 . S
C970 C969 1.524 . S
C970 C971 1.415 . S
C971 H941 0.950 . S
C971 C966 1.363 . S
C971 C970 1.415 . S
H972 C969 0.999 . S
H973 C954 0.913 1_556 S
H974 C992 0.951 . S
H975 C994 0.951 . S
H976 C996 0.950 . S
H977 C997 0.950 . S
H978 C999 0.950 . S
H979 C1002 0.950 . S
H980 C1003 0.950 1_556 S
H981 C1005 0.950 . S
H982 C1006 0.950 . S
H983 C1007 0.951 . S
H984 C1009 0.951 . S
H985 C1011 0.950 . S
H986 C1012 0.950 . S
H987 C1014 0.950 . S
H988 C1017 0.950 . S
H989 C1018 0.950 . S
H990 C1020 0.950 . S
H991 C1021 0.950 . S
C992 H974 0.951 . S
C992 C993 1.366 . S
C992 C994 1.388 . S
C993 C992 1.366 . S
C993 C997 1.385 . S
C994 H975 0.951 . S
C994 C992 1.388 . S
C994 C995 1.366 . S
C995 C994 1.366 . S
C995 C996 1.414 . S
C995 C998 1.499 . S
C996 H976 0.950 . S
C996 C995 1.414 . S
C996 C997 1.374 . S
C997 H977 0.950 . S
C997 C993 1.385 . S
C997 C996 1.374 . S
C998 C995 1.499 . S
C998 C999 1.373 . S
C998 C1000 1.389 . S
C999 H978 0.950 . S
C999 C998 1.373 . S
C999 C1015 1.377 . S
C1000 C998 1.389 . S
C1000 C1001 1.524 . S
C1000 C1014 1.377 . S
C1001 C1000 1.524 . S
C1001 C1002 1.397 . S
C1001 C1006 1.363 . S
C1002 H979 0.950 . S
C1002 C1001 1.397 . S
C1002 C1003 1.334 . S
C1003 H980 0.950 1_554 S
C1003 C1002 1.334 . S
C1003 C1004 1.287 . S
C1004 C1003 1.287 . S
C1004 C1005 1.524 . S
C1004 H1023 0.913 1_554 S
C1005 H981 0.950 . S
C1005 C1004 1.524 . S
C1005 C1006 1.415 . S
C1006 H982 0.950 . S
C1006 C1001 1.363 . S
C1006 C1005 1.415 . S
C1007 H983 0.951 . S
C1007 C1008 1.366 . S
C1007 C1009 1.388 . S
C1008 C1007 1.366 . S
C1008 C1012 1.385 . S
C1009 H984 0.951 . S
C1009 C1007 1.388 . S
C1009 C1010 1.366 . S
C1010 C1009 1.366 . S
C1010 C1011 1.414 . S
C1010 C1013 1.499 . S
C1011 H985 0.950 . S
C1011 C1010 1.414 . S
C1011 C1012 1.374 . S
C1012 H986 0.950 . S
C1012 C1008 1.385 . S
C1012 C1011 1.374 . S
C1013 C1010 1.499 . S
C1013 C1014 1.373 . S
C1013 C1015 1.389 . S
C1014 H987 0.950 . S
C1014 C1000 1.377 . S
C1014 C1013 1.373 . S
C1015 C999 1.377 . S
C1015 C1013 1.389 . S
C1015 C1016 1.524 . S
C1016 C1015 1.524 . S
C1016 C1017 1.397 . S
C1016 C1021 1.363 . S
C1017 H988 0.950 . S
C1017 C1016 1.397 . S
C1017 C1018 1.334 . S
C1018 H989 0.950 . S
C1018 C1017 1.334 . S
C1018 C1019 1.287 . S
C1019 C1018 1.287 . S
C1019 C1020 1.524 . S
C1019 H1022 0.999 . S
C1020 H990 0.950 . S
C1020 C1019 1.524 . S
C1020 C1021 1.415 . S
C1021 H991 0.950 . S
C1021 C1016 1.363 . S
C1021 C1020 1.415 . S
H1022 C1019 0.999 . S
H1023 C1004 0.913 1_556 S
H1024 C1042 0.951 . S
H1025 C1044 0.951 . S
H1026 C1046 0.950 . S
H1027 C1047 0.950 . S
H1028 C1049 0.950 . S
H1029 C1052 0.950 1_556 S
H1030 C1053 0.952 . S
H1031 C1055 0.950 . S
H1032 C1056 0.950 . S
H1033 C1057 0.951 . S
H1034 C1059 0.958 . S
H1035 C1061 0.950 . S
H1036 C1062 0.950 . S
H1037 C1064 0.950 . S
H1038 C1067 0.950 1_554 S
H1039 C1068 0.950 1_554 S
H1040 C1070 0.950 . S
H1041 C1071 0.950 . S
C1042 H1024 0.951 . S
C1042 C1043 1.366 . S
C1042 C1044 1.388 . S
C1043 C1042 1.366 . S
C1043 C1047 1.385 . S
C1044 H1025 0.951 . S
C1044 C1042 1.388 . S
C1044 C1045 1.366 . S
C1045 C1044 1.366 . S
C1045 C1046 1.414 . S
C1045 C1048 1.499 . S
C1046 H1026 0.950 . S
C1046 C1045 1.414 . S
C1046 C1047 1.374 . S
C1047 H1027 0.950 . S
C1047 C1043 1.385 . S
C1047 C1046 1.374 . S
C1048 C1045 1.499 . S
C1048 C1049 1.373 . S
C1048 C1050 1.389 . S
C1049 H1028 0.950 . S
C1049 C1048 1.373 . S
C1049 C1065 1.377 1_554 S
C1050 C1048 1.389 . S
C1050 C1051 1.524 . S
C1050 C1064 1.377 1_554 S
C1051 C1050 1.524 . S
C1051 C1052 1.397 . S
C1051 C1056 1.363 . S
C1052 H1029 0.950 1_554 S
C1052 C1051 1.397 . S
C1052 C1053 1.334 . S
C1053 H1030 0.952 . S
C1053 C1052 1.334 . S
C1053 C1054 1.287 . S
C1054 C1053 1.287 . S
C1054 C1055 1.524 . S
C1054 H1073 0.913 . S
C1055 H1031 0.950 . S
C1055 C1054 1.524 . S
C1055 C1056 1.415 . S
C1056 H1032 0.950 . S
C1056 C1051 1.363 . S
C1056 C1055 1.415 . S
C1057 H1033 0.951 . S
C1057 C1058 1.366 . S
C1057 C1059 1.402 . S
C1058 C1057 1.366 . S
C1058 C1062 1.385 1_455 S
C1059 H1034 0.958 . S
C1059 C1057 1.402 . S
C1059 C1060 1.346 1_455 S
C1060 C1059 1.346 1_655 S
C1060 C1061 1.414 . S
C1060 C1063 1.499 . S
C1061 H1035 0.950 . S
C1061 C1060 1.414 . S
C1061 C1062 1.374 . S
C1062 H1036 0.950 . S
C1062 C1058 1.385 1_655 S
C1062 C1061 1.374 . S
C1063 C1060 1.499 . S
C1063 C1064 1.373 . S
C1063 C1065 1.389 . S
C1064 H1037 0.950 . S
C1064 C1050 1.377 1_556 S
C1064 C1063 1.373 . S
C1065 C1049 1.377 1_556 S
C1065 C1063 1.389 . S
C1065 C1066 1.524 1_655 S
C1066 C1065 1.524 1_455 S
C1066 C1067 1.397 . S
C1066 C1071 1.363 . S
C1067 H1038 0.950 1_556 S
C1067 C1066 1.397 . S
C1067 C1068 1.334 . S
C1068 H1039 0.950 1_556 S
C1068 C1067 1.334 . S
C1068 C1069 1.287 . S
C1069 C1068 1.287 . S
C1069 C1070 1.524 . S
C1069 H1072 0.999 . S
C1070 H1040 0.950 . S
C1070 C1069 1.524 . S
C1070 C1071 1.415 . S
C1071 H1041 0.950 . S
C1071 C1066 1.363 . S
C1071 C1070 1.415 . S
H1072 C1069 0.999 . S
H1073 C1054 0.913 . S
H1074 C1092 0.951 . S
H1075 C1094 0.951 . S
H1076 C1096 0.950 . S
H1077 C1097 0.950 . S
H1078 C1099 0.950 . S
H1079 C1102 0.950 . S
H1080 C1103 0.950 . S
H1081 C1105 0.950 . S
H1082 C1106 0.950 . S
H1083 C1107 0.951 . S
H1084 C1109 0.951 . S
H1085 C1111 0.950 . S
H1086 C1112 0.950 . S
H1087 C1114 0.950 . S
H1088 C1117 0.933 1_565 S
H1089 C1118 0.950 . S
H1090 C1120 0.950 . S
H1091 C1121 0.950 . S
C1092 H1074 0.951 . S
C1092 C1093 1.366 . S
C1092 C1094 1.388 . S
C1093 C1092 1.366 . S
C1093 C1097 1.385 . S
C1094 H1075 0.951 . S
C1094 C1092 1.388 . S
C1094 C1095 1.366 . S
C1095 C1094 1.366 . S
C1095 C1096 1.414 . S
C1095 C1098 1.499 . S
C1096 H1076 0.950 . S
C1096 C1095 1.414 . S
C1096 C1097 1.374 . S
C1097 H1077 0.950 . S
C1097 C1093 1.385 . S
C1097 C1096 1.374 . S
C1098 C1095 1.499 . S
C1098 C1099 1.373 . S
C1098 C1100 1.389 1_554 S
C1099 H1078 0.950 . S
C1099 C1098 1.373 . S
C1099 C1115 1.377 . S
C1100 C1098 1.389 1_556 S
C1100 C1101 1.524 . S
C1100 C1114 1.377 . S
C1101 C1100 1.524 . S
C1101 C1102 1.397 . S
C1101 C1106 1.363 . S
C1102 H1079 0.950 . S
C1102 C1101 1.397 . S
C1102 C1103 1.334 . S
C1103 H1080 0.950 . S
C1103 C1102 1.334 . S
C1103 C1104 1.287 . S
C1104 C1103 1.287 . S
C1104 C1105 1.524 . S
C1104 H1123 0.913 . S
C1105 H1081 0.950 . S
C1105 C1104 1.524 . S
C1105 C1106 1.415 . S
C1106 H1082 0.950 . S
C1106 C1101 1.363 . S
C1106 C1105 1.415 . S
C1107 H1083 0.951 . S
C1107 C1108 1.366 . S
C1107 C1109 1.388 . S
C1108 C1107 1.366 . S
C1108 C1112 1.385 1_545 S
C1109 H1084 0.951 . S
C1109 C1107 1.388 . S
C1109 C1110 1.366 1_545 S
C1110 C1109 1.366 1_565 S
C1110 C1111 1.414 . S
C1110 C1113 1.499 . S
C1111 H1085 0.950 . S
C1111 C1110 1.414 . S
C1111 C1112 1.374 . S
C1112 H1086 0.950 . S
C1112 C1108 1.385 1_565 S
C1112 C1111 1.374 . S
C1113 C1110 1.499 . S
C1113 C1114 1.373 . S
C1113 C1115 1.389 1_556 S
C1114 H1087 0.950 . S
C1114 C1100 1.377 . S
C1114 C1113 1.373 . S
C1115 C1099 1.377 . S
C1115 C1113 1.389 1_554 S
C1115 C1116 1.524 1_565 S
C1116 C1115 1.524 1_545 S
C1116 C1117 1.403 . S
C1116 C1121 1.363 . S
C1117 H1088 0.933 1_545 S
C1117 C1116 1.403 . S
C1117 C1118 1.344 . S
C1118 H1089 0.950 . S
C1118 C1117 1.344 . S
C1118 C1119 1.287 . S
C1119 C1118 1.287 . S
C1119 C1120 1.524 . S
C1119 H1122 0.999 . S
C1120 H1090 0.950 . S
C1120 C1119 1.524 . S
C1120 C1121 1.415 . S
C1121 H1091 0.950 . S
C1121 C1116 1.363 . S
C1121 C1120 1.415 . S
H1122 C1119 0.999 . S
H1123 C1104 0.913 . S
H1124 C1142 0.951 . S
H1125 C1144 0.951 . S
H1126 C1146 0.950 . S
H1127 C1147 0.950 . S
H1128 C1149 0.950 . S
H1129 C1152 0.950 . S
H1130 C1153 0.950 . S
H1131 C1155 0.950 . S
H1132 C1156 0.950 . S
H1133 C1157 0.951 . S
H1134 C1159 0.951 . S
H1135 C1161 0.950 . S
H1136 C1162 0.950 . S
H1137 C1164 0.950 . S
H1138 C1167 0.950 . S
H1139 C1168 0.950 . S
H1140 C1170 0.950 . S
H1141 C1171 0.950 . S
C1142 H1124 0.951 . S
C1142 C1143 1.366 . S
C1142 C1144 1.388 . S
C1143 C1142 1.366 . S
C1143 C1147 1.385 . S
C1144 H1125 0.951 . S
C1144 C1142 1.388 . S
C1144 C1145 1.366 . S
C1145 C1144 1.366 . S
C1145 C1146 1.414 . S
C1145 C1148 1.499 . S
C1146 H1126 0.950 . S
C1146 C1145 1.414 . S
C1146 C1147 1.374 . S
C1147 H1127 0.950 . S
C1147 C1143 1.385 . S
C1147 C1146 1.374 . S
C1148 C1145 1.499 . S
C1148 C1149 1.373 1_554 S
C1148 C1150 1.389 . S
C1149 H1128 0.950 . S
C1149 C1148 1.373 1_556 S
C1149 C1165 1.377 . S
C1150 C1148 1.389 . S
C1150 C1151 1.524 . S
C1150 C1164 1.377 . S
C1151 C1150 1.524 . S
C1151 C1152 1.397 . S
C1151 C1156 1.363 . S
C1152 H1129 0.950 . S
C1152 C1151 1.397 . S
C1152 C1153 1.334 . S
C1153 H1130 0.950 . S
C1153 C1152 1.334 . S
C1153 C1154 1.287 . S
C1154 C1153 1.287 . S
C1154 C1155 1.524 . S
C1154 H1173 0.913 . S
C1155 H1131 0.950 . S
C1155 C1154 1.524 . S
C1155 C1156 1.415 . S
C1156 H1132 0.950 . S
C1156 C1151 1.363 . S
C1156 C1155 1.415 . S
C1157 H1133 0.951 . S
C1157 C1158 1.366 . S
C1157 C1159 1.388 . S
C1158 C1157 1.366 . S
C1158 C1162 1.385 . S
C1159 H1134 0.951 . S
C1159 C1157 1.388 . S
C1159 C1160 1.366 . S
C1160 C1159 1.366 . S
C1160 C1161 1.414 . S
C1160 C1163 1.499 . S
C1161 H1135 0.950 . S
C1161 C1160 1.414 . S
C1161 C1162 1.374 . S
C1162 H1136 0.950 . S
C1162 C1158 1.385 . S
C1162 C1161 1.374 . S
C1163 C1160 1.499 . S
C1163 C1164 1.373 1_556 S
C1163 C1165 1.389 . S
C1164 H1137 0.950 . S
C1164 C1150 1.377 . S
C1164 C1163 1.373 1_554 S
C1165 C1149 1.377 . S
C1165 C1163 1.389 . S
C1165 C1166 1.524 . S
C1166 C1165 1.524 . S
C1166 C1167 1.397 . S
C1166 C1171 1.363 . S
C1167 H1138 0.950 . S
C1167 C1166 1.397 . S
C1167 C1168 1.334 . S
C1168 H1139 0.950 . S
C1168 C1167 1.334 . S
C1168 C1169 1.287 . S
C1169 C1168 1.287 . S
C1169 C1170 1.524 . S
C1169 H1172 0.999 . S
C1170 H1140 0.950 . S
C1170 C1169 1.524 . S
C1170 C1171 1.415 . S
C1171 H1141 0.950 . S
C1171 C1166 1.363 . S
C1171 C1170 1.415 . S
H1172 C1169 0.999 . S
H1173 C1154 0.913 . S
H1174 C1192 0.951 . S
H1175 C1194 0.951 1_556 S
H1176 C1196 0.950 . S
H1177 C1197 0.950 . S
H1178 C1199 0.950 . S
H1179 C1202 0.950 . S
H1180 C1203 0.950 . S
H1181 C1205 0.950 . S
H1182 C1206 0.950 . S
H1183 C1207 0.951 . S
H1184 C1209 0.951 1_554 S
H1185 C1211 0.950 . S
H1186 C1212 0.950 . S
H1187 C1214 0.950 . S
H1188 C1217 0.950 . S
H1189 C1218 0.950 . S
H1190 C1220 0.950 . S
H1191 C1221 0.950 . S
C1192 H1174 0.951 . S
C1192 C1193 1.366 . S
C1192 C1194 1.388 . S
C1193 C1192 1.366 . S
C1193 C1197 1.385 . S
C1194 H1175 0.951 1_554 S
C1194 C1192 1.388 . S
C1194 C1195 1.366 . S
C1195 C1194 1.366 . S
C1195 C1196 1.414 . S
C1195 C1198 1.499 . S
C1196 H1176 0.950 . S
C1196 C1195 1.414 . S
C1196 C1197 1.374 . S
C1197 H1177 0.950 . S
C1197 C1193 1.385 . S
C1197 C1196 1.374 . S
C1198 C1195 1.499 . S
C1198 C1199 1.373 . S
C1198 C1200 1.389 . S
C1199 H1178 0.950 . S
C1199 C1198 1.373 . S
C1199 C1215 1.377 . S
C1200 C1198 1.389 . S
C1200 C1201 1.524 . S
C1200 C1214 1.377 1_554 S
C1201 C1200 1.524 . S
C1201 C1202 1.397 . S
C1201 C1206 1.363 1_554 S
C1202 H1179 0.950 . S
C1202 C1201 1.397 . S
C1202 C1203 1.334 . S
C1203 H1180 0.950 . S
C1203 C1202 1.334 . S
C1203 C1204 1.287 . S
C1204 C1203 1.287 . S
C1204 C1205 1.524 1_554 S
C1204 H1223 0.913 . S
C1205 H1181 0.950 . S
C1205 C1204 1.524 1_556 S
C1205 C1206 1.415 . S
C1206 H1182 0.950 . S
C1206 C1201 1.363 1_556 S
C1206 C1205 1.415 . S
C1207 H1183 0.951 . S
C1207 C1208 1.366 . S
C1207 C1209 1.388 . S
C1208 C1207 1.366 . S
C1208 C1212 1.385 . S
C1209 H1184 0.951 1_556 S
C1209 C1207 1.388 . S
C1209 C1210 1.366 . S
C1210 C1209 1.366 . S
C1210 C1211 1.414 . S
C1210 C1213 1.499 . S
C1211 H1185 0.950 . S
C1211 C1210 1.414 . S
C1211 C1212 1.374 . S
C1212 H1186 0.950 . S
C1212 C1208 1.385 . S
C1212 C1211 1.374 . S
C1213 C1210 1.499 . S
C1213 C1214 1.373 . S
C1213 C1215 1.389 1_556 S
C1214 H1187 0.950 . S
C1214 C1200 1.377 1_556 S
C1214 C1213 1.373 . S
C1215 C1199 1.377 . S
C1215 C1213 1.389 1_554 S
C1215 C1216 1.524 1_554 S
C1216 C1215 1.524 1_556 S
C1216 C1217 1.397 . S
C1216 C1221 1.363 1_556 S
C1217 H1188 0.950 . S
C1217 C1216 1.397 . S
C1217 C1218 1.334 . S
C1218 H1189 0.950 . S
C1218 C1217 1.334 . S
C1218 C1219 1.287 . S
C1219 C1218 1.287 . S
C1219 C1220 1.524 1_556 S
C1219 H1222 0.999 . S
C1220 H1190 0.950 . S
C1220 C1219 1.524 1_554 S
C1220 C1221 1.415 . S
C1221 H1191 0.950 . S
C1221 C1216 1.363 1_554 S
C1221 C1220 1.415 . S
H1222 C1219 0.999 . S
H1223 C1204 0.913 . S
H1224 C1242 0.951 . S
H1225 C1244 0.951 . S
H1226 C1246 0.950 . S
H1227 C1247 0.950 . S
H1228 C1249 0.950 . S
H1229 C1252 0.950 . S
H1230 C1253 0.950 . S
H1231 C1255 0.950 1_655 S
H1232 C1256 0.950 . S
H1233 C1257 0.951 . S
H1234 C1259 0.951 . S
H1235 C1261 0.950 . S
H1236 C1262 0.950 1_655 S
H1237 C1264 0.950 . S
H1238 C1267 0.950 . S
H1239 C1268 0.950 . S
H1240 C1270 0.950 . S
H1241 C1271 0.950 . S
C1242 H1224 0.951 . S
C1242 C1243 1.366 . S
C1242 C1244 1.388 . S
C1243 C1242 1.366 . S
C1243 C1247 1.385 . S
C1244 H1225 0.951 . S
C1244 C1242 1.388 . S
C1244 C1245 1.366 . S
C1245 C1244 1.366 . S
C1245 C1246 1.414 . S
C1245 C1248 1.499 . S
C1246 H1226 0.950 . S
C1246 C1245 1.414 . S
C1246 C1247 1.374 . S
C1247 H1227 0.950 . S
C1247 C1243 1.385 . S
C1247 C1246 1.374 . S
C1248 C1245 1.499 . S
C1248 C1249 1.373 . S
C1248 C1250 1.389 . S
C1249 H1228 0.950 . S
C1249 C1248 1.373 . S
C1249 C1265 1.377 . S
C1250 C1248 1.389 . S
C1250 C1251 1.524 . S
C1250 C1264 1.377 . S
C1251 C1250 1.524 . S
C1251 C1252 1.397 . S
C1251 C1256 1.363 . S
C1252 H1229 0.950 . S
C1252 C1251 1.397 . S
C1252 C1253 1.334 1_556 S
C1253 H1230 0.950 . S
C1253 C1252 1.334 1_554 S
C1253 C1254 1.287 . S
C1254 C1253 1.287 . S
C1254 C1255 1.524 . S
C1254 H1273 0.913 . S
C1255 H1231 0.950 1_455 S
C1255 C1254 1.524 . S
C1255 C1256 1.415 1_554 S
C1256 H1232 0.950 . S
C1256 C1251 1.363 . S
C1256 C1255 1.415 1_556 S
C1257 H1233 0.951 . S
C1257 C1258 1.366 . S
C1257 C1259 1.388 . S
C1258 C1257 1.366 . S
C1258 C1262 1.385 . S
C1259 H1234 0.951 . S
C1259 C1257 1.388 . S
C1259 C1260 1.366 . S
C1260 C1259 1.366 . S
C1260 C1261 1.414 . S
C1260 C1263 1.499 . S
C1261 H1235 0.950 . S
C1261 C1260 1.414 . S
C1261 C1262 1.374 . S
C1262 H1236 0.950 1_455 S
C1262 C1258 1.385 . S
C1262 C1261 1.374 . S
C1263 C1260 1.499 . S
C1263 C1264 1.373 . S
C1263 C1265 1.389 . S
C1264 H1237 0.950 . S
C1264 C1250 1.377 . S
C1264 C1263 1.373 . S
C1265 C1249 1.377 . S
C1265 C1263 1.389 . S
C1265 C1266 1.524 . S
C1266 C1265 1.524 . S
C1266 C1267 1.397 . S
C1266 C1271 1.363 . S
C1267 H1238 0.950 . S
C1267 C1266 1.397 . S
C1267 C1268 1.334 . S
C1268 H1239 0.950 . S
C1268 C1267 1.334 . S
C1268 C1269 1.287 . S
C1269 C1268 1.287 . S
C1269 C1270 1.524 . S
C1269 H1272 0.999 . S
C1270 H1240 0.950 . S
C1270 C1269 1.524 . S
C1270 C1271 1.415 . S
C1271 H1241 0.950 . S
C1271 C1266 1.363 . S
C1271 C1270 1.415 . S
H1272 C1269 0.999 . S
H1273 C1254 0.913 . S
H1274 C1292 0.951 . S
H1275 C1294 0.951 . S
H1276 C1296 0.950 . S
H1277 C1297 0.950 . S
H1278 C1299 0.950 . S
H1279 C1302 0.950 . S
H1280 C1303 0.950 . S
H1281 C1305 0.950 . S
H1282 C1306 0.950 . S
H1283 C1307 0.951 . S
H1284 C1309 0.951 . S
H1285 C1311 0.950 . S
H1286 C1312 0.950 . S
H1287 C1314 0.950 . S
H1288 C1317 0.977 . S
H1289 C1318 0.950 . S
H1290 C1320 0.950 . S
H1291 C1321 0.937 1_545 S
C1292 H1274 0.951 . S
C1292 C1293 1.366 . S
C1292 C1294 1.388 . S
C1293 C1292 1.366 . S
C1293 C1297 1.385 . S
C1294 H1275 0.951 . S
C1294 C1292 1.388 . S
C1294 C1295 1.366 . S
C1295 C1294 1.366 . S
C1295 C1296 1.414 . S
C1295 C1298 1.499 . S
C1296 H1276 0.950 . S
C1296 C1295 1.414 . S
C1296 C1297 1.374 . S
C1297 H1277 0.950 . S
C1297 C1293 1.385 . S
C1297 C1296 1.374 . S
C1298 C1295 1.499 . S
C1298 C1299 1.373 . S
C1298 C1300 1.389 . S
C1299 H1278 0.950 . S
C1299 C1298 1.373 . S
C1299 C1315 1.377 . S
C1300 C1298 1.389 . S
C1300 C1301 1.524 . S
C1300 C1314 1.377 . S
C1301 C1300 1.524 . S
C1301 C1302 1.397 . S
C1301 C1306 1.363 . S
C1302 H1279 0.950 . S
C1302 C1301 1.397 . S
C1302 C1303 1.334 . S
C1303 H1280 0.950 . S
C1303 C1302 1.334 . S
C1303 C1304 1.287 . S
C1304 C1303 1.287 . S
C1304 C1305 1.524 . S
C1304 H1323 0.913 . S
C1305 H1281 0.950 . S
C1305 C1304 1.524 . S
C1305 C1306 1.415 . S
C1306 H1282 0.950 . S
C1306 C1301 1.363 . S
C1306 C1305 1.415 . S
C1307 H1283 0.951 . S
C1307 C1308 1.366 . S
C1307 C1309 1.388 . S
C1308 C1307 1.366 . S
C1308 C1312 1.385 . S
C1309 H1284 0.951 . S
C1309 C1307 1.388 . S
C1309 C1310 1.366 . S
C1310 C1309 1.366 . S
C1310 C1311 1.414 . S
C1310 C1313 1.499 . S
C1311 H1285 0.950 . S
C1311 C1310 1.414 . S
C1311 C1312 1.374 . S
C1312 H1286 0.950 . S
C1312 C1308 1.385 . S
C1312 C1311 1.374 . S
C1313 C1310 1.499 . S
C1313 C1314 1.373 . S
C1313 C1315 1.389 . S
C1314 H1287 0.950 . S
C1314 C1300 1.377 . S
C1314 C1313 1.373 . S
C1315 C1299 1.377 . S
C1315 C1313 1.389 . S
C1315 C1316 1.524 . S
C1316 C1315 1.524 . S
C1316 C1317 1.397 1_545 S
C1316 C1321 1.363 1_545 S
C1317 H1288 0.977 . S
C1317 C1316 1.397 1_565 S
C1317 C1318 1.334 . S
C1318 H1289 0.950 . S
C1318 C1317 1.334 . S
C1318 C1319 1.287 . S
C1319 C1318 1.287 . S
C1319 C1320 1.524 . S
C1319 H1322 0.999 . S
C1320 H1290 0.950 . S
C1320 C1319 1.524 . S
C1320 C1321 1.415 . S
C1321 H1291 0.937 1_565 S
C1321 C1316 1.363 1_565 S
C1321 C1320 1.415 . S
H1322 C1319 0.999 . S
H1323 C1304 0.913 . S
H1324 C1342 0.951 . S
H1325 C1344 0.951 . S
H1326 C1346 0.950 . S
H1327 C1347 0.950 . S
H1328 C1349 0.950 . S
H1329 C1352 0.950 . S
H1330 C1353 0.950 1_554 S
H1331 C1355 0.950 . S
H1332 C1356 0.950 . S
H1333 C1357 0.951 . S
H1334 C1359 0.951 . S
H1335 C1361 0.950 . S
H1336 C1362 0.950 . S
H1337 C1364 0.950 . S
H1338 C1367 0.950 . S
H1339 C1368 0.950 . S
H1340 C1370 0.950 . S
H1341 C1371 0.950 . S
C1342 H1324 0.951 . S
C1342 C1343 1.366 . S
C1342 C1344 1.388 . S
C1343 C1342 1.366 . S
C1343 C1347 1.385 . S
C1344 H1325 0.951 . S
C1344 C1342 1.388 . S
C1344 C1345 1.366 . S
C1345 C1344 1.366 . S
C1345 C1346 1.414 . S
C1345 C1348 1.499 . S
C1346 H1326 0.950 . S
C1346 C1345 1.414 . S
C1346 C1347 1.374 . S
C1347 H1327 0.950 . S
C1347 C1343 1.385 . S
C1347 C1346 1.374 . S
C1348 C1345 1.499 . S
C1348 C1349 1.373 . S
C1348 C1350 1.389 . S
C1349 H1328 0.950 . S
C1349 C1348 1.373 . S
C1349 C1365 1.377 . S
C1350 C1348 1.389 . S
C1350 C1351 1.524 . S
C1350 C1364 1.377 . S
C1351 C1350 1.524 . S
C1351 C1352 1.397 . S
C1351 C1356 1.363 . S
C1352 H1329 0.950 . S
C1352 C1351 1.397 . S
C1352 C1353 1.334 . S
C1353 H1330 0.950 1_556 S
C1353 C1352 1.334 . S
C1353 C1354 1.287 . S
C1354 C1353 1.287 . S
C1354 C1355 1.524 . S
C1354 H1373 0.913 . S
C1355 H1331 0.950 . S
C1355 C1354 1.524 . S
C1355 C1356 1.415 . S
C1356 H1332 0.950 . S
C1356 C1351 1.363 . S
C1356 C1355 1.415 . S
C1357 H1333 0.951 . S
C1357 C1358 1.366 . S
C1357 C1359 1.388 . S
C1358 C1357 1.366 . S
C1358 C1362 1.385 . S
C1359 H1334 0.951 . S
C1359 C1357 1.388 . S
C1359 C1360 1.366 . S
C1360 C1359 1.366 . S
C1360 C1361 1.414 . S
C1360 C1363 1.499 . S
C1361 H1335 0.950 . S
C1361 C1360 1.414 . S
C1361 C1362 1.374 . S
C1362 H1336 0.950 . S
C1362 C1358 1.385 . S
C1362 C1361 1.374 . S
C1363 C1360 1.499 . S
C1363 C1364 1.373 . S
C1363 C1365 1.389 . S
C1364 H1337 0.950 . S
C1364 C1350 1.377 . S
C1364 C1363 1.373 . S
C1365 C1349 1.377 . S
C1365 C1363 1.389 . S
C1365 C1366 1.524 . S
C1366 C1365 1.524 . S
C1366 C1367 1.397 . S
C1366 C1371 1.363 . S
C1367 H1338 0.950 . S
C1367 C1366 1.397 . S
C1367 C1368 1.334 . S
C1368 H1339 0.950 . S
C1368 C1367 1.334 . S
C1368 C1369 1.287 . S
C1369 C1368 1.287 . S
C1369 C1370 1.524 . S
C1369 H1372 0.999 . S
C1370 H1340 0.950 . S
C1370 C1369 1.524 . S
C1370 C1371 1.415 . S
C1371 H1341 0.950 . S
C1371 C1366 1.363 . S
C1371 C1370 1.415 . S
H1372 C1369 0.999 . S
H1373 C1354 0.913 . S
H1374 C1392 0.951 . S
H1375 C1394 0.951 . S
H1376 C1396 0.950 . S
H1377 C1397 0.950 . S
H1378 C1399 0.950 . S
H1379 C1402 0.950 . S
H1380 C1403 0.950 . S
H1381 C1405 0.950 . S
H1382 C1406 0.950 . S
H1383 C1407 0.951 . S
H1384 C1409 0.951 . S
H1385 C1411 0.950 . S
H1386 C1412 0.950 . S
H1387 C1414 0.950 . S
H1388 C1417 0.950 . S
H1389 C1418 0.950 . S
H1390 C1420 0.950 . S
H1391 C1421 0.950 . S
C1392 H1374 0.951 . S
C1392 C1393 1.366 . S
C1392 C1394 1.388 . S
C1393 C1392 1.366 . S
C1393 C1397 1.385 . S
C1394 H1375 0.951 . S
C1394 C1392 1.388 . S
C1394 C1395 1.366 . S
C1395 C1394 1.366 . S
C1395 C1396 1.414 . S
C1395 C1398 1.499 . S
C1396 H1376 0.950 . S
C1396 C1395 1.414 . S
C1396 C1397 1.374 . S
C1397 H1377 0.950 . S
C1397 C1393 1.385 . S
C1397 C1396 1.374 . S
C1398 C1395 1.499 . S
C1398 C1399 1.373 . S
C1398 C1400 1.389 . S
C1399 H1378 0.950 . S
C1399 C1398 1.373 . S
C1399 C1415 1.377 . S
C1400 C1398 1.389 . S
C1400 C1401 1.524 . S
C1400 C1414 1.377 . S
C1401 C1400 1.524 . S
C1401 C1402 1.397 . S
C1401 C1406 1.363 . S
C1402 H1379 0.950 . S
C1402 C1401 1.397 . S
C1402 C1403 1.334 . S
C1403 H1380 0.950 . S
C1403 C1402 1.334 . S
C1403 C1404 1.287 . S
C1404 C1403 1.287 . S
C1404 C1405 1.524 . S
C1404 H1423 0.913 . S
C1405 H1381 0.950 . S
C1405 C1404 1.524 . S
C1405 C1406 1.415 . S
C1406 H1382 0.950 . S
C1406 C1401 1.363 . S
C1406 C1405 1.415 . S
C1407 H1383 0.951 . S
C1407 C1408 1.366 . S
C1407 C1409 1.388 . S
C1408 C1407 1.366 . S
C1408 C1412 1.385 . S
C1409 H1384 0.951 . S
C1409 C1407 1.388 . S
C1409 C1410 1.366 . S
C1410 C1409 1.366 . S
C1410 C1411 1.414 . S
C1410 C1413 1.499 . S
C1411 H1385 0.950 . S
C1411 C1410 1.414 . S
C1411 C1412 1.374 . S
C1412 H1386 0.950 . S
C1412 C1408 1.385 . S
C1412 C1411 1.374 . S
C1413 C1410 1.499 . S
C1413 C1414 1.373 . S
C1413 C1415 1.389 . S
C1414 H1387 0.950 . S
C1414 C1400 1.377 . S
C1414 C1413 1.373 . S
C1415 C1399 1.377 . S
C1415 C1413 1.389 . S
C1415 C1416 1.524 . S
C1416 C1415 1.524 . S
C1416 C1417 1.397 . S
C1416 C1421 1.363 . S
C1417 H1388 0.950 . S
C1417 C1416 1.397 . S
C1417 C1418 1.334 . S
C1418 H1389 0.950 . S
C1418 C1417 1.334 . S
C1418 C1419 1.287 . S
C1419 C1418 1.287 . S
C1419 C1420 1.524 . S
C1419 H1422 0.999 . S
C1420 H1390 0.950 . S
C1420 C1419 1.524 . S
C1420 C1421 1.415 . S
C1421 H1391 0.950 . S
C1421 C1416 1.363 . S
C1421 C1420 1.415 . S
H1422 C1419 0.999 . S
H1423 C1404 0.913 . S
H1424 C1442 0.951 . S
H1425 C1444 0.951 . S
H1426 C1446 0.950 . S
H1427 C1447 0.950 . S
H1428 C1449 0.950 . S
H1429 C1452 0.950 . S
H1430 C1453 0.950 . S
H1431 C1455 0.950 . S
H1432 C1456 0.950 . S
H1433 C1457 0.971 . S
H1434 C1459 0.951 . S
H1435 C1461 0.950 . S
H1436 C1462 0.950 . S
H1437 C1464 0.950 . S
H1438 C1467 0.950 . S
H1439 C1468 0.950 . S
H1440 C1470 0.950 . S
H1441 C1471 0.950 . S
C1442 H1424 0.951 . S
C1442 C1443 1.366 . S
C1442 C1444 1.388 . S
C1443 C1442 1.366 . S
C1443 C1447 1.385 . S
C1444 H1425 0.951 . S
C1444 C1442 1.388 . S
C1444 C1445 1.366 . S
C1445 C1444 1.366 . S
C1445 C1446 1.414 . S
C1445 C1448 1.499 . S
C1446 H1426 0.950 . S
C1446 C1445 1.414 . S
C1446 C1447 1.374 . S
C1447 H1427 0.950 . S
C1447 C1443 1.385 . S
C1447 C1446 1.374 . S
C1448 C1445 1.499 . S
C1448 C1449 1.373 . S
C1448 C1450 1.389 . S
C1449 H1428 0.950 . S
C1449 C1448 1.373 . S
C1449 C1465 1.377 . S
C1450 C1448 1.389 . S
C1450 C1451 1.524 . S
C1450 C1464 1.377 . S
C1451 C1450 1.524 . S
C1451 C1452 1.397 . S
C1451 C1456 1.363 . S
C1452 H1429 0.950 . S
C1452 C1451 1.397 . S
C1452 C1453 1.334 . S
C1453 H1430 0.950 . S
C1453 C1452 1.334 . S
C1453 C1454 1.287 . S
C1454 C1453 1.287 . S
C1454 C1455 1.524 . S
C1454 H1473 0.913 . S
C1455 H1431 0.950 . S
C1455 C1454 1.524 . S
C1455 C1456 1.415 . S
C1456 H1432 0.950 . S
C1456 C1451 1.363 . S
C1456 C1455 1.415 . S
C1457 H1433 0.971 . S
C1457 C1458 1.366 . S
C1457 C1459 1.388 . S
C1458 C1457 1.366 . S
C1458 C1462 1.385 . S
C1459 H1434 0.951 . S
C1459 C1457 1.388 . S
C1459 C1460 1.366 . S
C1460 C1459 1.366 . S
C1460 C1461 1.414 . S
C1460 C1463 1.499 . S
C1461 H1435 0.950 . S
C1461 C1460 1.414 . S
C1461 C1462 1.374 . S
C1462 H1436 0.950 . S
C1462 C1458 1.385 . S
C1462 C1461 1.374 . S
C1463 C1460 1.499 . S
C1463 C1464 1.373 . S
C1463 C1465 1.389 . S
C1464 H1437 0.950 . S
C1464 C1450 1.377 . S
C1464 C1463 1.373 . S
C1465 C1449 1.377 . S
C1465 C1463 1.389 . S
C1465 C1466 1.524 1_655 S
C1466 C1465 1.524 1_455 S
C1466 C1467 1.397 . S
C1466 C1471 1.363 . S
C1467 H1438 0.950 . S
C1467 C1466 1.397 . S
C1467 C1468 1.334 . S
C1468 H1439 0.950 . S
C1468 C1467 1.334 . S
C1468 C1469 1.287 . S
C1469 C1468 1.287 . S
C1469 C1470 1.524 . S
C1469 H1472 0.999 . S
C1470 H1440 0.950 . S
C1470 C1469 1.524 . S
C1470 C1471 1.415 . S
C1471 H1441 0.950 . S
C1471 C1466 1.363 . S
C1471 C1470 1.415 . S
H1472 C1469 0.999 . S
H1473 C1454 0.913 . S
H1474 C1492 0.951 . S
H1475 C1494 0.951 . S
H1476 C1496 0.950 . S
H1477 C1497 0.950 . S
H1478 C1499 0.950 . S
H1479 C1502 0.950 . S
H1480 C1503 0.950 . S
H1481 C1505 0.950 . S
H1482 C1506 0.950 . S
H1483 C1507 0.951 . S
H1484 C1509 0.951 . S
H1485 C1511 0.950 . S
H1486 C1512 0.950 . S
H1487 C1514 0.950 . S
H1488 C1517 0.950 . S
H1489 C1518 0.950 . S
H1490 C1520 0.950 . S
H1491 C1521 0.950 . S
C1492 H1474 0.951 . S
C1492 C1493 1.366 . S
C1492 C1494 1.388 . S
C1493 C1492 1.366 . S
C1493 C1497 1.385 . S
C1494 H1475 0.951 . S
C1494 C1492 1.388 . S
C1494 C1495 1.366 . S
C1495 C1494 1.366 . S
C1495 C1496 1.414 . S
C1495 C1498 1.499 . S
C1496 H1476 0.950 . S
C1496 C1495 1.414 . S
C1496 C1497 1.374 . S
C1497 H1477 0.950 . S
C1497 C1493 1.385 . S
C1497 C1496 1.374 . S
C1498 C1495 1.499 . S
C1498 C1499 1.373 . S
C1498 C1500 1.389 . S
C1499 H1478 0.950 . S
C1499 C1498 1.373 . S
C1499 C1515 1.377 . S
C1500 C1498 1.389 . S
C1500 C1501 1.524 . S
C1500 C1514 1.377 . S
C1501 C1500 1.524 . S
C1501 C1502 1.397 . S
C1501 C1506 1.363 . S
C1502 H1479 0.950 . S
C1502 C1501 1.397 . S
C1502 C1503 1.334 . S
C1503 H1480 0.950 . S
C1503 C1502 1.334 . S
C1503 C1504 1.287 . S
C1504 C1503 1.287 . S
C1504 C1505 1.524 . S
C1504 H1523 0.913 . S
C1505 H1481 0.950 . S
C1505 C1504 1.524 . S
C1505 C1506 1.415 . S
C1506 H1482 0.950 . S
C1506 C1501 1.363 . S
C1506 C1505 1.415 . S
C1507 H1483 0.951 . S
C1507 C1508 1.366 . S
C1507 C1509 1.388 . S
C1508 C1507 1.366 . S
C1508 C1512 1.385 . S
C1509 H1484 0.951 . S
C1509 C1507 1.388 . S
C1509 C1510 1.366 . S
C1510 C1509 1.366 . S
C1510 C1511 1.414 . S
C1510 C1513 1.499 . S
C1511 H1485 0.950 . S
C1511 C1510 1.414 . S
C1511 C1512 1.374 . S
C1512 H1486 0.950 . S
C1512 C1508 1.385 . S
C1512 C1511 1.374 . S
C1513 C1510 1.499 . S
C1513 C1514 1.373 . S
C1513 C1515 1.389 . S
C1514 H1487 0.950 . S
C1514 C1500 1.377 . S
C1514 C1513 1.373 . S
C1515 C1499 1.377 . S
C1515 C1513 1.389 . S
C1515 C1516 1.524 1_565 S
C1516 C1515 1.524 1_545 S
C1516 C1517 1.397 . S
C1516 C1521 1.363 . S
C1517 H1488 0.950 . S
C1517 C1516 1.397 . S
C1517 C1518 1.334 . S
C1518 H1489 0.950 . S
C1518 C1517 1.334 . S
C1518 C1519 1.287 . S
C1519 C1518 1.287 . S
C1519 C1520 1.524 . S
C1519 H1522 0.999 . S
C1520 H1490 0.950 . S
C1520 C1519 1.524 . S
C1520 C1521 1.415 . S
C1521 H1491 0.950 . S
C1521 C1516 1.363 . S
C1521 C1520 1.415 . S
H1522 C1519 0.999 . S
H1523 C1504 0.913 . S
H1524 C1542 0.951 . S
H1525 C1544 0.951 . S
H1526 C1546 0.950 . S
H1527 C1547 0.950 . S
H1528 C1549 0.950 . S
H1529 C1552 0.950 . S
H1530 C1553 0.950 . S
H1531 C1555 0.950 . S
H1532 C1556 0.950 . S
H1533 C1557 0.951 . S
H1534 C1559 0.951 . S
H1535 C1561 0.950 . S
H1536 C1562 0.950 . S
H1537 C1564 0.950 . S
H1538 C1567 0.950 . S
H1539 C1568 0.950 . S
H1540 C1570 0.950 . S
H1541 C1571 0.950 . S
C1542 H1524 0.951 . S
C1542 C1543 1.366 . S
C1542 C1544 1.388 . S
C1543 C1542 1.366 . S
C1543 C1547 1.385 . S
C1544 H1525 0.951 . S
C1544 C1542 1.388 . S
C1544 C1545 1.366 . S
C1545 C1544 1.366 . S
C1545 C1546 1.414 . S
C1545 C1548 1.499 . S
C1546 H1526 0.950 . S
C1546 C1545 1.414 . S
C1546 C1547 1.374 . S
C1547 H1527 0.950 . S
C1547 C1543 1.385 . S
C1547 C1546 1.374 . S
C1548 C1545 1.499 . S
C1548 C1549 1.373 . S
C1548 C1550 1.389 . S
C1549 H1528 0.950 . S
C1549 C1548 1.373 . S
C1549 C1565 1.377 . S
C1550 C1548 1.389 . S
C1550 C1551 1.524 . S
C1550 C1564 1.377 . S
C1551 C1550 1.524 . S
C1551 C1552 1.397 . S
C1551 C1556 1.363 . S
C1552 H1529 0.950 . S
C1552 C1551 1.397 . S
C1552 C1553 1.334 . S
C1553 H1530 0.950 . S
C1553 C1552 1.334 . S
C1553 C1554 1.287 . S
C1554 C1553 1.287 . S
C1554 C1555 1.524 . S
C1554 H1573 0.913 . S
C1555 H1531 0.950 . S
C1555 C1554 1.524 . S
C1555 C1556 1.415 . S
C1556 H1532 0.950 . S
C1556 C1551 1.363 . S
C1556 C1555 1.415 . S
C1557 H1533 0.951 . S
C1557 C1558 1.366 . S
C1557 C1559 1.388 . S
C1558 C1557 1.366 . S
C1558 C1562 1.385 . S
C1559 H1534 0.951 . S
C1559 C1557 1.388 . S
C1559 C1560 1.366 . S
C1560 C1559 1.366 . S
C1560 C1561 1.414 . S
C1560 C1563 1.499 . S
C1561 H1535 0.950 . S
C1561 C1560 1.414 . S
C1561 C1562 1.374 . S
C1562 H1536 0.950 . S
C1562 C1558 1.385 . S
C1562 C1561 1.374 . S
C1563 C1560 1.499 . S
C1563 C1564 1.373 . S
C1563 C1565 1.389 . S
C1564 H1537 0.950 . S
C1564 C1550 1.377 . S
C1564 C1563 1.373 . S
C1565 C1549 1.377 . S
C1565 C1563 1.389 . S
C1565 C1566 1.524 . S
C1566 C1565 1.524 . S
C1566 C1567 1.397 . S
C1566 C1571 1.363 . S
C1567 H1538 0.950 . S
C1567 C1566 1.397 . S
C1567 C1568 1.334 . S
C1568 H1539 0.950 . S
C1568 C1567 1.334 . S
C1568 C1569 1.287 . S
C1569 C1568 1.287 . S
C1569 C1570 1.524 . S
C1569 H1572 0.999 . S
C1570 H1540 0.950 . S
C1570 C1569 1.524 . S
C1570 C1571 1.415 . S
C1571 H1541 0.950 . S
C1571 C1566 1.363 . S
C1571 C1570 1.415 . S
H1572 C1569 0.999 . S
H1573 C1554 0.913 . S
H1574 C1592 0.951 . S
H1575 C1594 0.951 . S
H1576 C1596 0.950 . S
H1577 C1597 0.950 . S
H1578 C1599 0.950 . S
H1579 C1602 0.950 . S
H1580 C1603 0.950 . S
H1581 C1605 0.950 . S
H1582 C1606 0.950 . S
H1583 C1607 0.951 . S
H1584 C1609 0.951 . S
H1585 C1611 0.950 . S
H1586 C1612 0.950 . S
H1587 C1614 0.950 . S
H1588 C1617 0.950 . S
H1589 C1618 0.950 . S
H1590 C1620 0.950 . S
H1591 C1621 0.950 . S
C1592 H1574 0.951 . S
C1592 C1593 1.366 . S
C1592 C1594 1.388 . S
C1593 C1592 1.366 . S
C1593 C1597 1.385 . S
C1594 H1575 0.951 . S
C1594 C1592 1.388 . S
C1594 C1595 1.366 . S
C1595 C1594 1.366 . S
C1595 C1596 1.414 . S
C1595 C1598 1.499 . S
C1596 H1576 0.950 . S
C1596 C1595 1.414 . S
C1596 C1597 1.374 . S
C1597 H1577 0.950 . S
C1597 C1593 1.385 . S
C1597 C1596 1.374 . S
C1598 C1595 1.499 . S
C1598 C1599 1.373 . S
C1598 C1600 1.389 . S
C1599 H1578 0.950 . S
C1599 C1598 1.373 . S
C1599 C1615 1.377 . S
C1600 C1598 1.389 . S
C1600 C1601 1.524 . S
C1600 C1614 1.377 . S
C1601 C1600 1.524 . S
C1601 C1602 1.397 . S
C1601 C1606 1.363 . S
C1602 H1579 0.950 . S
C1602 C1601 1.397 . S
C1602 C1603 1.334 . S
C1603 H1580 0.950 . S
C1603 C1602 1.334 . S
C1603 C1604 1.287 . S
C1604 C1603 1.287 . S
C1604 C1605 1.524 . S
C1604 H1623 0.913 . S
C1605 H1581 0.950 . S
C1605 C1604 1.524 . S
C1605 C1606 1.415 . S
C1606 H1582 0.950 . S
C1606 C1601 1.363 . S
C1606 C1605 1.415 . S
C1607 H1583 0.951 . S
C1607 C1608 1.366 . S
C1607 C1609 1.388 . S
C1608 C1607 1.366 . S
C1608 C1612 1.385 . S
C1609 H1584 0.951 . S
C1609 C1607 1.388 . S
C1609 C1610 1.366 . S
C1610 C1609 1.366 . S
C1610 C1611 1.414 . S
C1610 C1613 1.499 . S
C1611 H1585 0.950 . S
C1611 C1610 1.414 . S
C1611 C1612 1.374 . S
C1612 H1586 0.950 . S
C1612 C1608 1.385 . S
C1612 C1611 1.374 . S
C1613 C1610 1.499 . S
C1613 C1614 1.373 . S
C1613 C1615 1.389 . S
C1614 H1587 0.950 . S
C1614 C1600 1.377 . S
C1614 C1613 1.373 . S
C1615 C1599 1.377 . S
C1615 C1613 1.389 . S
C1615 C1616 1.524 . S
C1616 C1615 1.524 . S
C1616 C1617 1.397 . S
C1616 C1621 1.363 . S
C1617 H1588 0.950 . S
C1617 C1616 1.397 . S
C1617 C1618 1.334 . S
C1618 H1589 0.950 . S
C1618 C1617 1.334 . S
C1618 C1619 1.287 . S
C1619 C1618 1.287 . S
C1619 C1620 1.524 . S
C1619 H1622 0.999 . S
C1620 H1590 0.950 . S
C1620 C1619 1.524 . S
C1620 C1621 1.415 . S
C1621 H1591 0.950 . S
C1621 C1616 1.363 . S
C1621 C1620 1.415 . S
H1622 C1619 0.999 . S
H1623 C1604 0.913 . S
C443 C76 1.801 . S
C458 C163 1.850 . S
C508 C247 1.879 . S
C493 C87 1.829 . S
C558 C323 1.891 . S
C543 C54 1.942 . S
C608 C407 1.865 . S
C593 C65 1.915 . S
C658 C154 1.850 1_565 S
C643 C32 1.809 . S
C693 C43 1.838 . S
C708 C238 1.880 . S
C743 C10 1.951 . S
C758 C312 1.892 . S
C793 C21 1.925 . S
C808 C396 1.867 . S
C858 C151 0.518 1_455 S
C843 C60 0.492 . S
C908 C235 0.512 . S
C893 C71 0.461 . S
C958 C328 0.504 . S
C943 C82 0.442 . S
C993 C49 0.468 . S
C1008 C412 0.515 . S
C1043 C16 0.500 . S
C1058 C160 0.531 . S
C1108 C244 0.514 . S
C1093 C27 0.472 . S
C1158 C319 0.504 . S
C1143 C38 0.458 . S
C1193 C5 0.482 . S
C1208 C403 0.515 . S
C1243 C59 1.949 . S
C1258 C144 1.991 . S
C1293 C70 1.912 . S
C1308 C228 1.954 . S
C1358 C322 1.940 . S
C1343 C81 1.811 . S
C1408 C406 1.973 . S
C1393 C48 1.842 . S
C1443 C15 1.936 . S
C1458 C155 1.990 . S
C1508 C239 1.949 1_565 S
C1493 C26 1.901 . S
C1558 C331 1.941 . S
C1543 C37 1.798 . S
C1593 C4 1.830 . S
C1608 C415 1.974 . S
