# Generated by pormake.
# Topology pyr, (3,6)-cn, num edge types: 1
# Building blocks:
#     Node 0, Type 0, BuildingBlock: PAMTOO_clean_linker_0, # of connection points: 3
#     Node 1, Type 0, BuildingBlock: PAMTOO_clean_linker_0, # of connection points: 3
#     Node 2, Type 0, BuildingBlock: PAMTOO_clean_linker_0, # of connection points: 3
#     Node 3, Type 0, BuildingBlock: PAMTOO_clean_linker_0, # of connection points: 3
#     Node 4, Type 0, BuildingBlock: PAMTOO_clean_linker_0, # of connection points: 3
#     Node 5, Type 0, BuildingBlock: PAMTOO_clean_linker_0, # of connection points: 3
#     Node 6, Type 0, BuildingBlock: PAMTOO_clean_linker_0, # of connection points: 3
#     Node 7, Type 0, BuildingBlock: PAMTOO_clean_linker_0, # of connection points: 3
#     Node 8, Type 1, BuildingBlock: BETDEL_clean_sbu_0, # of connection points: 6
#     Node 9, Type 1, BuildingBlock: BETDEL_clean_sbu_0, # of connection points: 6
#     Node 10, Type 1, BuildingBlock: BETDEL_clean_sbu_0, # of connection points: 6
#     Node 11, Type 1, BuildingBlock: BETDEL_clean_sbu_0, # of connection points: 6
#     Edge 12, Type (0, 1), BuildingBlock: OJICUG_clean_linker_0, # of connection points: 2
#     Edge 13, Type (0, 1), BuildingBlock: OJICUG_clean_linker_0, # of connection points: 2
#     Edge 14, Type (0, 1), BuildingBlock: OJICUG_clean_linker_0, # of connection points: 2
#     Edge 15, Type (0, 1), BuildingBlock: OJICUG_clean_linker_0, # of connection points: 2
#     Edge 16, Type (0, 1), BuildingBlock: OJICUG_clean_linker_0, # of connection points: 2
#     Edge 17, Type (0, 1), BuildingBlock: OJICUG_clean_linker_0, # of connection points: 2
#     Edge 18, Type (0, 1), BuildingBlock: OJICUG_clean_linker_0, # of connection points: 2
#     Edge 19, Type (0, 1), BuildingBlock: OJICUG_clean_linker_0, # of connection points: 2
#     Edge 20, Type (0, 1), BuildingBlock: OJICUG_clean_linker_0, # of connection points: 2
#     Edge 21, Type (0, 1), BuildingBlock: OJICUG_clean_linker_0, # of connection points: 2
#     Edge 22, Type (0, 1), BuildingBlock: OJICUG_clean_linker_0, # of connection points: 2
#     Edge 23, Type (0, 1), BuildingBlock: OJICUG_clean_linker_0, # of connection points: 2
#     Edge 24, Type (0, 1), BuildingBlock: OJICUG_clean_linker_0, # of connection points: 2
#     Edge 25, Type (0, 1), BuildingBlock: OJICUG_clean_linker_0, # of connection points: 2
#     Edge 26, Type (0, 1), BuildingBlock: OJICUG_clean_linker_0, # of connection points: 2
#     Edge 27, Type (0, 1), BuildingBlock: OJICUG_clean_linker_0, # of connection points: 2
#     Edge 28, Type (0, 1), BuildingBlock: OJICUG_clean_linker_0, # of connection points: 2
#     Edge 29, Type (0, 1), BuildingBlock: OJICUG_clean_linker_0, # of connection points: 2
#     Edge 30, Type (0, 1), BuildingBlock: OJICUG_clean_linker_0, # of connection points: 2
#     Edge 31, Type (0, 1), BuildingBlock: OJICUG_clean_linker_0, # of connection points: 2
#     Edge 32, Type (0, 1), BuildingBlock: OJICUG_clean_linker_0, # of connection points: 2
#     Edge 33, Type (0, 1), BuildingBlock: OJICUG_clean_linker_0, # of connection points: 2
#     Edge 34, Type (0, 1), BuildingBlock: OJICUG_clean_linker_0, # of connection points: 2
#     Edge 35, Type (0, 1), BuildingBlock: OJICUG_clean_linker_0, # of connection points: 2
# Relax obj value: 0.101
# Max RMSD: 0.202
# Mean RMSD: 0.139
data_MOF--net-pyr--node1-BETDEL_clean_sbu_0--node2-PAMTOO_clean_linker_0--edge1-OJICUG_clean_linker_0
_symmetry_space_group_name_H-M    P1
_symmetry_Int_Tables_number       1
_symmetry_cell_setting            triclinic
loop_
_symmetry_equiv_pos_as_xyz
'x, y, z'
_cell_length_a     25.796759
_cell_length_b     27.996129
_cell_length_c     25.408484
_cell_angle_alpha  91.910609
_cell_angle_beta   89.628669
_cell_angle_gamma 101.78613
loop_
_atom_site_label
_atom_site_type_symbol
_atom_site_fract_x
_atom_site_fract_y
_atom_site_fract_z
_atom_type_partial_charge
H0 H 0.1163 0.21631 0.21168 0.0
H1 H 0.24417 0.13951 0.22002 0.0
H2 H 0.25105 0.25099 0.10803 0.0
H3 H 0.29744 0.17542 0.06027 0.0
C4 C 0.29425 0.15266 0.09561 0.0
O5 O 0.29564 0.18234 0.14024 0.0
H6 H 0.256 0.12556 0.09324 0.0
C7 C 0.15477 0.21113 0.1983 0.0
C8 C 0.18065 0.23886 0.15704 0.0
C9 C 0.1778 0.17617 0.22239 0.0
C10 C 0.22575 0.1667 0.20261 0.0
C11 C 0.25104 0.19316 0.1608 0.0
C12 C 0.22951 0.22994 0.13914 0.0
H13 H 0.29292 0.94215 0.74059 0.0
H14 H 0.25449 0.83709 0.61151 0.0
H15 H 0.36393 0.81556 0.73007 0.0
H16 H 0.38306 0.82481 0.60291 0.0
C17 C 0.35717 0.78763 0.60129 0.0
O18 O 0.31949 0.78249 0.64074 0.0
H19 H 0.33674 0.78343 0.56252 0.0
C20 C 0.29615 0.90777 0.72125 0.0
C21 C 0.33044 0.87984 0.74183 0.0
C22 C 0.2681 0.89243 0.6743 0.0
C23 C 0.27468 0.84888 0.64841 0.0
C24 C 0.3092 0.82143 0.66858 0.0
C25 C 0.33625 0.83644 0.71557 0.0
H26 H 0.74378 0.29156 0.95809 0.0
H27 H 0.60281 0.29029 0.86682 0.0
H28 H 0.73248 0.41101 0.85865 0.0
H29 H 0.63326 0.4337 0.85705 0.0
C30 C 0.615 0.40771 0.82497 0.0
O31 O 0.64228 0.37026 0.81841 0.0
H32 H 0.5734 0.39201 0.83599 0.0
C33 C 0.72123 0.30916 0.93184 0.0
C34 C 0.74452 0.35518 0.91204 0.0
C35 C 0.66989 0.28485 0.91628 0.0
C36 C 0.64235 0.30739 0.87969 0.0
C37 C 0.666 0.35192 0.85817 0.0
C38 C 0.71622 0.37583 0.87485 0.0
H39 H 0.85714 0.73586 0.46722 0.0
H40 H 0.84754 0.61583 0.35449 0.0
H41 H 0.97617 0.74 0.34737 0.0
H42 H 0.93543 0.69934 0.24189 0.0
C43 C 0.9219 0.66034 0.25175 0.0
O44 O 0.93417 0.65461 0.30387 0.0
H45 H 0.87829 0.65004 0.24595 0.0
C46 C 0.87328 0.71844 0.43402 0.0
C47 C 0.9203 0.74306 0.41073 0.0
C48 C 0.84645 0.67237 0.41478 0.0
C49 C 0.86675 0.6516 0.36979 0.0
C50 C 0.91309 0.67629 0.34506 0.0
C51 C 0.93969 0.72189 0.36565 0.0
H52 H 0.83348 0.91557 0.88302 0.0
H53 H 0.85158 0.89309 0.04782 0.0
H54 H 0.96921 0.86399 0.93864 0.0
H55 H 0.8875 0.81764 0.07733 0.0
C56 C 0.93011 0.82485 0.06605 0.0
O57 O 0.94245 0.86694 0.03789 0.0
H58 H 0.95299 0.83072 0.10339 0.0
C59 C 0.85464 0.90263 0.91449 0.0
C60 C 0.90328 0.88889 0.90399 0.0
C61 C 0.83547 0.90418 0.96614 0.0
C62 C 0.86515 0.89127 1.00749 0.0
C63 C 0.91272 0.87614 0.99736 0.0
C64 C 0.93151 0.87443 0.94573 0.0
H65 H 0.8265 0.10395 0.3625 0.0
H66 H 0.75458 0.22966 0.35102 0.0
H67 H 0.86126 0.22341 0.47688 0.0
H68 H 0.78112 0.27966 0.51368 0.0
C69 C 0.76075 0.27395 0.47487 0.0
O70 O 0.7981 0.2735 0.43578 0.0
H71 H 0.7322 0.23821 0.47601 0.0
C72 C 0.82186 0.13974 0.37668 0.0
C73 C 0.84777 0.16009 0.42344 0.0
C74 C 0.78852 0.16478 0.34932 0.0
C75 C 0.78178 0.21052 0.36945 0.0
C76 C 0.80802 0.23123 0.41508 0.0
C77 C 0.84158 0.20667 0.44133 0.0
H78 H 0.34498 0.75058 0.09832 0.0
H79 H 0.35371 0.62308 0.18708 0.0
H80 H 0.46879 0.7547 0.21202 0.0
H81 H 0.51041 0.66403 0.22248 0.0
C82 C 0.47365 0.63945 0.23599 0.0
O83 O 0.4341 0.66568 0.24315 0.0
H84 H 0.46101 0.60991 0.20554 0.0
C85 C 0.36427 0.73192 0.12657 0.0
C86 C 0.41027 0.75786 0.15223 0.0
C87 C 0.34208 0.6832 0.13936 0.0
C88 C 0.36822 0.66073 0.17711 0.0
C89 C 0.41318 0.68656 0.20341 0.0
C90 C 0.434 0.73498 0.19116 0.0
H91 H 0.08799 0.31588 0.766 0.0
H92 H 0.21471 0.44202 0.74931 0.0
H93 H 0.20961 0.31655 0.64804 0.0
H94 H 0.31177 0.35915 0.68745 0.0
C95 C 0.31082 0.39864 0.6854 0.0
O96 O 0.26091 0.40419 0.67128 0.0
H97 H 0.32072 0.41566 0.72524 0.0
C98 C 0.1244 0.33375 0.7474 0.0
C99 C 0.14578 0.30979 0.70492 0.0
C100 C 0.14856 0.38223 0.76329 0.0
C101 C 0.1953 0.40511 0.73775 0.0
C102 C 0.21696 0.38128 0.69658 0.0
C103 C 0.19221 0.33419 0.68029 0.0
Dy104 Dy 0.07256 0.04318 0.50775 0.0
C105 C 0.98637 0.95191 0.7027 0.0
C106 C 0.09439 0.08311 0.41229 0.0
Dy107 Dy 0.01766 1.00163 0.61413 0.0
O108 O 0.09951 0.03958 0.42414 0.0
O109 O 0.07689 0.10499 0.45262 0.0
O110 O 0.15383 0.02703 0.52322 0.0
O111 O 0.09449 1.01206 0.5782 0.0
C112 C 0.14142 1.0086 0.56895 0.0
C113 C 0.96207 0.05019 0.55385 0.0
O114 O 0.05956 0.07638 0.64243 0.0
O115 O 0.07712 0.1107 0.55996 0.0
O116 O 0.03294 0.9792 0.69564 0.0
O117 O 0.95683 0.95207 0.66149 0.0
O118 O 0.95671 0.04798 0.60472 0.0
O119 O 0.99235 0.02274 0.53797 0.0
O120 O 0.02735 0.96935 0.48057 0.0
O121 O 0.0131 0.93393 0.56251 0.0
C122 C 0.07449 0.11473 0.61229 0.0
C123 C 0.01312 0.93059 0.51015 0.0
Dy124 Dy 0.5864 0.03953 0.09518 0.0
C125 C 0.47388 0.94816 0.91354 0.0
C126 C 0.65417 0.08062 0.17416 0.0
Dy127 Dy 0.53052 0.99745 0.99576 0.0
O128 O 0.63719 0.03421 0.16536 0.0
O129 O 0.63376 0.10503 0.13994 0.0
O130 O 0.52462 0.99062 0.14247 0.0
O131 O 0.54685 0.96543 0.06894 0.0
C132 C 0.51585 0.9552 0.10736 0.0
C133 C 0.56984 0.0943 0.99243 0.0
O134 O 0.46575 0.0179 0.04493 0.0
O135 O 0.51925 0.07845 0.09502 0.0
O136 O 0.51687 0.98128 0.90927 0.0
O137 O 0.46299 0.94036 0.96292 0.0
O138 O 0.52608 0.07187 0.97055 0.0
O139 O 0.59231 0.06345 0.01336 0.0
O140 O 0.65113 1.01108 0.05473 0.0
O141 O 0.60458 0.96818 0.98416 0.0
C142 C 0.47219 0.05738 0.07621 0.0
C143 C 0.64828 0.98136 0.01281 0.0
Dy144 Dy 0.58013 0.49065 0.50311 0.0
C145 C 0.48779 0.64277 0.59226 0.0
C146 C 0.64131 0.42668 0.47023 0.0
Dy147 Dy 0.55021 0.5799 0.55912 0.0
O148 O 0.59 0.41882 0.46598 0.0
O149 O 0.65894 0.46984 0.49111 0.0
O150 O 0.49439 0.45105 0.50187 0.0
O151 O 0.52249 0.50183 0.5621 0.0
C152 C 0.48142 0.47519 0.54292 0.0
C153 C 0.64962 0.5943 0.52181 0.0
O154 O 0.5694 0.54236 0.63087 0.0
O155 O 0.61153 0.48753 0.58588 0.0
O156 O 0.53926 0.65185 0.59559 0.0
O157 O 0.47092 0.59932 0.57191 0.0
O158 O 0.63623 0.61667 0.56397 0.0
O159 O 0.60882 0.56919 0.50003 0.0
O160 O 0.55726 0.52603 0.43139 0.0
O161 O 0.51787 0.58246 0.47718 0.0
C162 C 0.59836 0.50818 0.6306 0.0
C163 C 0.52864 0.56046 0.4325 0.0
Dy164 Dy 0.05839 0.47291 0.04394 0.0
C165 C 0.99335 0.6519 0.98352 0.0
C166 C 0.09118 0.39101 0.0694 0.0
Dy167 Dy 0.03305 0.56936 0.98714 0.0
O168 O 0.0502 0.40518 0.0894 0.0
O169 O 0.11419 0.42119 0.03439 0.0
O170 O 0.02753 0.49212 0.12471 0.0
O171 O 0.02992 0.5379 0.06312 0.0
C172 C 0.01686 0.53327 0.11063 0.0
C173 C 0.07031 0.509 0.91771 0.0
O174 O 0.11123 0.5985 0.02747 0.0
O175 O 0.1348 0.52653 0.05562 0.0
O176 O 0.96672 0.60935 0.99653 0.0
O177 O 0.04167 0.64908 0.97076 0.0
O178 O 0.05837 0.55033 0.90479 0.0
O179 O 0.06244 0.50448 0.96658 0.0
O180 O 0.98206 0.44207 1.00299 0.0
O181 O 0.95696 0.51414 0.97702 0.0
C182 C 0.14482 0.57448 0.0491 0.0
C183 C 0.94776 0.46605 0.98296 0.0
C184 C 0.13144 0.17764 0.30913 0.0
C185 C 0.15272 0.15115 0.26938 0.0
H186 H 0.09583 0.17661 0.38558 0.0
C187 C 0.15162 0.10134 0.2759 0.0
H188 H 0.13229 0.21624 0.30556 0.0
C189 C 0.13107 0.07885 0.32188 0.0
C190 C 0.11124 0.10576 0.36205 0.0
H191 H 0.16699 0.07983 0.24565 0.0
H192 H 0.13165 0.04062 0.32638 0.0
C193 C 0.11077 0.15509 0.35503 0.0
C194 C 0.40535 0.93983 0.78189 0.0
C195 C 0.36517 0.89821 0.78706 0.0
H196 H 0.47235 0.98736 0.81761 0.0
C197 C 0.36155 0.87209 0.83362 0.0
H198 H 0.40924 0.95998 0.7459 0.0
C199 C 0.39719 0.88802 0.87495 0.0
C200 C 0.43782 0.92939 0.86949 0.0
H201 H 0.33112 0.8395 0.83797 0.0
H202 H 0.39325 0.86788 0.91092 0.0
C203 C 0.44172 0.95502 0.82256 0.0
C204 C 0.63684 0.42111 0.72741 0.0
C205 C 0.6152 0.4357 0.77485 0.0
H206 H 0.64953 0.43306 0.64523 0.0
C207 C 0.5916 0.47671 0.77509 0.0
H208 H 0.65546 0.38977 0.72541 0.0
C209 C 0.58827 0.50176 0.72882 0.0
C210 C 0.60844 0.48627 0.68107 0.0
H211 H 0.5747 0.48877 0.81106 0.0
H212 H 0.56842 0.53233 0.73026 0.0
C213 C 0.63362 0.44618 0.68121 0.0
C214 C 0.9688 0.64474 0.16624 0.0
C215 C 0.94787 0.62809 0.21528 0.0
H216 H 0.00786 0.6282 0.09481 0.0
C217 C 0.94824 0.57978 0.22818 0.0
H218 H 0.96813 0.68151 0.15471 0.0
C219 C 0.97058 0.54941 0.19386 0.0
C220 C 0.99216 0.56615 0.14523 0.0
H221 H 0.93129 0.56547 0.26497 0.0
H222 H 0.97071 0.51253 0.2054 0.0
C223 C 0.99098 0.61413 0.13166 0.0
C224 C 0.33212 0.07778 0.07821 0.0
C225 C 0.33971 0.12675 0.09573 0.0
H226 H 0.36807 0.01711 0.05914 0.0
C227 C 0.39087 0.15218 0.10922 0.0
H228 H 0.29311 0.05765 0.06693 0.0
C229 C 0.4338 0.12894 0.10517 0.0
C230 C 0.42637 0.08022 0.08652 0.0
H231 H 0.39777 0.19027 0.12192 0.0
H232 H 0.47299 0.14972 0.11478 0.0
C233 C 0.37503 0.05468 0.0737 0.0
C234 C 0.24685 0.93736 0.59694 0.0
C235 C 0.23608 0.92378 0.64916 0.0
H236 H 0.2258 0.9753 0.5314 0.0
C237 C 0.19452 0.93964 0.67609 0.0
H238 H 0.27897 0.92605 0.57547 0.0
C239 C 0.16333 0.96746 0.65045 0.0
C240 C 0.17403 0.98055 0.59799 0.0
H241 H 0.18555 0.92966 0.71646 0.0
H242 H 0.1312 0.97886 0.67159 0.0
C243 C 0.21651 0.96573 0.57184 0.0
C244 C 0.83118 0.41363 0.89582 0.0
C245 C 0.7981 0.38193 0.92978 0.0
H246 H 0.90369 0.46607 0.88678 0.0
C247 C 0.81604 0.37757 0.98135 0.0
H248 H 0.82018 0.41698 0.8553 0.0
C249 C 0.86524 0.40434 0.99838 0.0
C250 C 0.89666 0.43713 0.96486 0.0
H251 H 0.79175 0.35436 1.00912 0.0
H252 H 0.87811 0.40045 0.03824 0.0
C253 C 0.87938 0.44159 0.91354 0.0
C254 C 0.7932 0.65201 0.49763 0.0
C255 C 0.79754 0.64697 0.44243 0.0
H256 H 0.74318 0.63974 0.56561 0.0
C257 C 0.7537 0.62015 0.41426 0.0
H258 H 0.82646 0.67094 0.52111 0.0
C259 C 0.70617 0.60109 0.44031 0.0
C260 C 0.70129 0.60898 0.49494 0.0
H261 H 0.75529 0.61554 0.37184 0.0
H262 H 0.6726 0.58197 0.41734 0.0
C263 C 0.74557 0.63376 0.52339 0.0
C264 C 0.16478 0.28853 0.07992 0.0
C265 C 0.157 0.27735 0.13348 0.0
H266 H 0.15051 0.33422 0.01758 0.0
C267 C 0.12663 0.3037 0.16476 0.0
H268 H 0.18699 0.2685 0.05422 0.0
C269 C 0.10398 0.33952 0.14304 0.0
C270 C 0.11271 0.35105 0.0901 0.0
H271 H 0.12096 0.29749 0.20641 0.0
H272 H 0.081 0.35933 0.16823 0.0
C273 C 0.14351 0.32572 0.05864 0.0
C274 C 0.65691 0.2214 0.98742 0.0
C275 C 0.64579 0.2354 0.93641 0.0
H276 H 0.64234 0.16537 0.04505 0.0
C277 C 0.61113 0.20141 0.9043 0.0
H278 H 0.68284 0.24646 0.01378 0.0
C279 C 0.58693 0.15597 0.92297 0.0
C280 C 0.59771 0.14227 0.97375 0.0
H281 H 0.60271 0.20949 0.86428 0.0
H282 H 0.56003 0.13118 0.89709 0.0
C283 C 0.63356 0.17504 1.00564 0.0
C284 C 0.9679 0.83104 0.40446 0.0
C285 C 0.94883 0.79026 0.43508 0.0
H286 H 1.00292 0.90742 0.40393 0.0
C287 C 0.95434 0.79545 0.49016 0.0
H288 H 0.96409 0.82828 0.36198 0.0
C289 C 0.97634 0.84058 0.51422 0.0
C290 C 0.99353 0.88194 0.48391 0.0
H291 H 0.9409 0.76455 0.51488 0.0
H292 H 0.97889 0.84309 0.55678 0.0
C293 C 0.98989 0.87644 0.42861 0.0
C294 C 0.36774 0.70037 0.59258 0.0
C295 C 0.39015 0.74935 0.60511 0.0
H296 H 0.38126 0.62801 0.57931 0.0
C297 C 0.44408 0.76228 0.61866 0.0
H298 H 0.32617 0.6896 0.58241 0.0
C299 C 0.47571 0.72716 0.61683 0.0
C300 C 0.45376 0.67859 0.60173 0.0
H301 H 0.4621 0.79983 0.62897 0.0
H302 H 0.51759 0.73833 0.62544 0.0
C303 C 0.39925 0.66527 0.59091 0.0
C304 C 0.89569 0.88584 0.8055 0.0
C305 C 0.92729 0.89647 0.85096 0.0
H306 H 0.88989 0.89511 0.72257 0.0
C307 C 0.9805 0.92043 0.84585 0.0
H308 H 0.85478 0.86683 0.80813 0.0
C309 C 1.00059 0.93633 0.79689 0.0
C310 C 0.96781 0.92867 0.7523 0.0
H311 H 0.00576 0.92964 0.88011 0.0
H312 H 0.041 0.95669 0.79448 0.0
C313 C 0.91577 0.90192 0.75659 0.0
C314 C 0.74716 0.17174 0.26097 0.0
C315 C 0.75761 0.1424 0.30207 0.0
H316 H 0.70578 0.17536 0.18868 0.0
C317 C 0.73527 0.09215 0.29915 0.0
H318 H 0.76445 0.2104 0.26122 0.0
C319 C 0.70245 0.07208 0.25701 0.0
C320 C 0.69068 0.10184 0.21721 0.0
H321 H 0.7416 0.06846 0.33025 0.0
H322 H 0.6852 0.03339 0.25632 0.0
C323 C 0.71371 0.15174 0.21924 0.0
C324 C 0.48092 0.64215 0.33559 0.0
C325 C 0.48523 0.61757 0.28715 0.0
H326 H 0.48989 0.64292 0.41908 0.0
C327 C 0.50402 0.57381 0.28674 0.0
H328 H 0.46794 0.6766 0.33721 0.0
C329 C 0.51743 0.55463 0.33387 0.0
C330 C 0.51234 0.5789 0.38238 0.0
H331 H 0.50876 0.55466 0.24984 0.0
H332 H 0.53208 0.52101 0.33222 0.0
C333 C 0.49365 0.62276 0.3826 0.0
C334 C 0.11794 0.45864 0.79029 0.0
C335 C 0.1242 0.41167 0.80306 0.0
H336 H 0.09649 0.52537 0.8161 0.0
C337 C 0.11087 0.39572 0.85437 0.0
H338 H 0.12733 0.47198 0.7511 0.0
C339 C 0.09336 0.42694 0.89233 0.0
C340 C 0.08847 0.47438 0.8794 0.0
H341 H 0.11544 0.3598 0.86549 0.0
H342 H 0.08378 0.41405 0.9316 0.0
C343 C 0.10028 0.48935 0.82771 0.0
C344 C 0.78689 0.95741 0.01917 0.0
C345 C 0.78704 0.92345 0.97739 0.0
H346 H 0.74361 1.00242 0.06267 0.0
C347 C 0.74136 0.90919 0.94608 0.0
H348 H 0.82182 0.96992 0.04327 0.0
C349 C 0.69609 0.92815 0.95698 0.0
C350 C 0.69596 0.96185 0.99922 0.0
H351 H 0.74045 0.88295 0.91361 0.0
H352 H 0.66126 0.91617 0.93263 0.0
C353 C 0.742 0.97635 0.02995 0.0
C354 C 0.91184 0.10343 0.43314 0.0
C355 C 0.87791 0.13176 0.45609 0.0
H356 H 0.96547 0.05544 0.44613 0.0
C357 C 0.87224 0.13269 0.51124 0.0
H358 H 0.91736 0.10211 0.39086 0.0
C359 C 0.89992 0.10644 0.54264 0.0
C360 C 0.9338 0.07829 0.51982 0.0
H361 H 0.84568 0.15324 0.53029 0.0
H362 H 0.89445 0.10797 0.58493 0.0
C363 C 0.93961 0.07697 0.46475 0.0
C364 C 0.25696 0.62016 0.14409 0.0
C365 C 0.29094 0.65613 0.11547 0.0
H366 H 0.18534 0.56579 0.14493 0.0
C367 C 0.27517 0.66565 0.06442 0.0
H368 H 0.26582 0.6127 0.18418 0.0
C369 C 0.22718 0.63984 0.04287 0.0
C370 C 0.19484 0.60299 0.07121 0.0
H371 H 0.30007 0.69246 0.04061 0.0
H372 H 0.216 0.64782 1.0036 0.0
C373 C 0.21021 0.5934 0.12187 0.0
C374 C 0.38645 0.46545 0.65771 0.0
C375 C 0.35109 0.42141 0.64546 0.0
H376 H 0.45519 0.51701 0.63456 0.0
C377 C 0.35528 0.3978 0.59636 0.0
H378 H 0.38369 0.48465 0.69502 0.0
C379 C 0.39611 0.4165 0.56138 0.0
C380 C 0.43333 0.45911 0.57504 0.0
H381 H 0.32803 0.364 0.58593 0.0
H382 H 0.39978 0.39658 0.52472 0.0
C383 C 0.42724 0.48401 0.62296 0.0
C384 C 0.90747 0.73758 0.03214 0.0
C385 C 0.94423 0.78201 0.03612 0.0
H386 H 0.89423 0.66142 1.01117 0.0
C387 C 0.9958 0.78451 0.01678 0.0
H388 H 0.86755 0.73473 0.04701 0.0
C389 C 0.01102 0.74263 0.99582 0.0
C390 C 0.97498 0.69763 0.99459 0.0
H391 H 0.02483 0.81842 0.01985 0.0
H392 H 0.05167 0.74494 0.98339 0.0
C393 C 0.92271 0.69573 1.01151 0.0
C394 C 0.44887 0.82182 0.08789 0.0
C395 C 0.43334 0.80924 0.13957 0.0
H396 H 0.48819 0.87788 0.03728 0.0
C397 C 0.44271 0.84557 0.17985 0.0
H398 H 0.44232 0.79438 0.05623 0.0
C399 C 0.46788 0.89336 0.1689 0.0
C400 C 0.48526 0.9056 0.11764 0.0
H401 H 0.43093 0.83682 0.21997 0.0
H402 H 0.4751 0.92039 0.20094 0.0
C403 C 0.47515 0.86948 0.07712 0.0
C404 C 0.11392 0.25286 0.62846 0.0
C405 C 0.12015 0.26035 0.68329 0.0
H406 H 0.09518 0.20203 0.56348 0.0
C407 C 0.10775 0.2196 0.71537 0.0
H408 H 0.12256 0.28349 0.60262 0.0
C409 C 0.092 0.17223 0.69271 0.0
C410 C 0.08831 0.16472 0.63752 0.0
H411 H 0.11246 0.22412 0.75768 0.0
H412 H 0.0841 0.14147 0.71837 0.0
C413 C 0.09839 0.20591 0.60596 0.0
C414 C 0.67866 0.30392 0.44946 0.0
C415 C 0.73152 0.31437 0.46674 0.0
H416 H 0.6084 0.33175 0.43669 0.0
C417 C 0.75617 0.36291 0.47879 0.0
H418 H 0.65909 0.26676 0.43926 0.0
C419 C 0.72742 0.40005 0.47693 0.0
C420 C 0.67358 0.38918 0.46293 0.0
H421 H 0.79709 0.37176 0.49158 0.0
H422 H 0.74675 0.43692 0.48865 0.0
C423 C 0.6498 0.34105 0.44777 0.0
loop_
_geom_bond_atom_site_label_1
_geom_bond_atom_site_label_2
_geom_bond_distance
_geom_bond_site_symmetry_2
_ccdc_geom_bond_type
H0 C7 0.929 . S
H1 C10 0.930 . S
H2 C12 0.929 . S
H3 C4 0.969 . S
C4 H3 0.969 . S
C4 O5 1.550 . S
C4 H6 0.973 . S
O5 C4 1.550 . S
O5 C11 1.412 . S
H6 C4 0.973 . S
C7 H0 0.929 . S
C7 C8 1.400 . S
C7 C9 1.364 . S
C8 C7 1.400 . S
C8 C12 1.377 . S
C9 C7 1.364 . S
C9 C10 1.374 . S
C10 H1 0.930 . S
C10 C9 1.374 . S
C10 C11 1.383 . S
C11 O5 1.412 . S
C11 C10 1.383 . S
C11 C12 1.394 . S
C12 H2 0.929 . S
C12 C8 1.377 . S
C12 C11 1.394 . S
H13 C20 0.929 . S
H14 C23 0.930 . S
H15 C25 0.929 . S
H16 C17 0.969 . S
C17 H16 0.969 . S
C17 O18 1.550 . S
C17 H19 0.973 . S
O18 C17 1.550 . S
O18 C24 1.412 . S
H19 C17 0.973 . S
C20 H13 0.929 . S
C20 C21 1.400 . S
C20 C22 1.364 . S
C21 C20 1.400 . S
C21 C25 1.377 . S
C22 C20 1.364 . S
C22 C23 1.374 . S
C23 H14 0.930 . S
C23 C22 1.374 . S
C23 C24 1.383 . S
C24 O18 1.412 . S
C24 C23 1.383 . S
C24 C25 1.394 . S
C25 H15 0.929 . S
C25 C21 1.377 . S
C25 C24 1.394 . S
H26 C33 0.929 . S
H27 C36 0.930 . S
H28 C38 0.929 . S
H29 C30 0.969 . S
C30 H29 0.969 . S
C30 O31 1.550 . S
C30 H32 0.973 . S
O31 C30 1.550 . S
O31 C37 1.412 . S
H32 C30 0.973 . S
C33 H26 0.929 . S
C33 C34 1.400 . S
C33 C35 1.364 . S
C34 C33 1.400 . S
C34 C38 1.377 . S
C35 C33 1.364 . S
C35 C36 1.374 . S
C36 H27 0.930 . S
C36 C35 1.374 . S
C36 C37 1.383 . S
C37 O31 1.412 . S
C37 C36 1.383 . S
C37 C38 1.394 . S
C38 H28 0.929 . S
C38 C34 1.377 . S
C38 C37 1.394 . S
H39 C46 0.929 . S
H40 C49 0.930 . S
H41 C51 0.929 . S
H42 C43 0.969 . S
C43 H42 0.969 . S
C43 O44 1.550 . S
C43 H45 0.973 . S
O44 C43 1.550 . S
O44 C50 1.412 . S
H45 C43 0.973 . S
C46 H39 0.929 . S
C46 C47 1.400 . S
C46 C48 1.364 . S
C47 C46 1.400 . S
C47 C51 1.377 . S
C48 C46 1.364 . S
C48 C49 1.374 . S
C49 H40 0.930 . S
C49 C48 1.374 . S
C49 C50 1.383 . S
C50 O44 1.412 . S
C50 C49 1.383 . S
C50 C51 1.394 . S
C51 H41 0.929 . S
C51 C47 1.377 . S
C51 C50 1.394 . S
H52 C59 0.929 . S
H53 C62 0.930 . S
H54 C64 0.929 . S
H55 C56 0.969 . S
C56 H55 0.969 . S
C56 O57 1.550 . S
C56 H58 0.973 . S
O57 C56 1.550 . S
O57 C63 1.412 . S
H58 C56 0.973 . S
C59 H52 0.929 . S
C59 C60 1.400 . S
C59 C61 1.364 . S
C60 C59 1.400 . S
C60 C64 1.377 . S
C61 C59 1.364 . S
C61 C62 1.374 . S
C62 H53 0.930 . S
C62 C61 1.374 . S
C62 C63 1.383 . S
C63 O57 1.412 . S
C63 C62 1.383 . S
C63 C64 1.394 . S
C64 H54 0.929 . S
C64 C60 1.377 . S
C64 C63 1.394 . S
H65 C72 0.929 . S
H66 C75 0.930 . S
H67 C77 0.929 . S
H68 C69 0.969 . S
C69 H68 0.969 . S
C69 O70 1.550 . S
C69 H71 0.973 . S
O70 C69 1.550 . S
O70 C76 1.412 . S
H71 C69 0.973 . S
C72 H65 0.929 . S
C72 C73 1.400 . S
C72 C74 1.364 . S
C73 C72 1.400 . S
C73 C77 1.377 . S
C74 C72 1.364 . S
C74 C75 1.374 . S
C75 H66 0.930 . S
C75 C74 1.374 . S
C75 C76 1.383 . S
C76 O70 1.412 . S
C76 C75 1.383 . S
C76 C77 1.394 . S
C77 H67 0.929 . S
C77 C73 1.377 . S
C77 C76 1.394 . S
H78 C85 0.929 . S
H79 C88 0.930 . S
H80 C90 0.929 . S
H81 C82 0.969 . S
C82 H81 0.969 . S
C82 O83 1.550 . S
C82 H84 0.973 . S
O83 C82 1.550 . S
O83 C89 1.412 . S
H84 C82 0.973 . S
C85 H78 0.929 . S
C85 C86 1.400 . S
C85 C87 1.364 . S
C86 C85 1.400 . S
C86 C90 1.377 . S
C87 C85 1.364 . S
C87 C88 1.374 . S
C88 H79 0.930 . S
C88 C87 1.374 . S
C88 C89 1.383 . S
C89 O83 1.412 . S
C89 C88 1.383 . S
C89 C90 1.394 . S
C90 H80 0.929 . S
C90 C86 1.377 . S
C90 C89 1.394 . S
H91 C98 0.929 . S
H92 C101 0.930 . S
H93 C103 0.929 . S
H94 C95 0.969 . S
C95 H94 0.969 . S
C95 O96 1.550 . S
C95 H97 0.973 . S
O96 C95 1.550 . S
O96 C102 1.412 . S
H97 C95 0.973 . S
C98 H91 0.929 . S
C98 C99 1.400 . S
C98 C100 1.364 . S
C99 C98 1.400 . S
C99 C103 1.377 . S
C100 C98 1.364 . S
C100 C101 1.374 . S
C101 H92 0.930 . S
C101 C100 1.374 . S
C101 C102 1.383 . S
C102 O96 1.412 . S
C102 C101 1.383 . S
C102 C103 1.394 . S
C103 H93 0.929 . S
C103 C99 1.377 . S
C103 C102 1.394 . S
Dy104 O108 2.398 . S
Dy104 O109 2.491 . S
Dy104 O110 2.403 . S
Dy104 O111 2.664 1_545 S
Dy104 O115 2.326 . S
Dy104 O119 2.310 1_455 S
Dy104 O120 2.351 1_545 S
C105 O116 1.185 . S
C105 O117 1.355 . S
C106 O108 1.185 . S
C106 O109 1.355 . S
Dy107 O111 2.310 1_645 S
Dy107 O114 2.351 1_655 S
Dy107 O116 2.398 1_545 S
Dy107 O117 2.491 1_545 S
Dy107 O118 2.403 . S
Dy107 O119 2.664 . S
Dy107 O121 2.326 1_545 S
O108 Dy104 2.398 . S
O108 C106 1.185 . S
O109 Dy104 2.491 . S
O109 C106 1.355 . S
O110 Dy104 2.403 . S
O110 C112 1.254 1_545 S
O111 Dy104 2.664 1_565 S
O111 Dy107 2.310 1_465 S
O111 C112 1.268 . S
C112 O110 1.254 1_565 S
C112 O111 1.268 . S
C113 O118 1.254 . S
C113 O119 1.268 . S
O114 Dy107 2.351 1_455 S
O114 C122 1.249 . S
O115 Dy104 2.326 . S
O115 C122 1.267 . S
O116 C105 1.185 . S
O116 Dy107 2.398 1_565 S
O117 C105 1.355 . S
O117 Dy107 2.491 1_565 S
O118 Dy107 2.403 . S
O118 C113 1.254 . S
O119 Dy104 2.310 1_655 S
O119 Dy107 2.664 . S
O119 C113 1.268 . S
O120 Dy104 2.351 1_565 S
O120 C123 1.249 1_455 S
O121 Dy107 2.326 1_565 S
O121 C123 1.267 . S
C122 O114 1.249 . S
C122 O115 1.267 . S
C123 O120 1.249 1_655 S
C123 O121 1.267 . S
Dy124 O128 2.398 . S
Dy124 O129 2.491 . S
Dy124 O130 2.403 1_545 S
Dy124 O131 2.664 1_545 S
Dy124 O135 2.326 . S
Dy124 O139 2.310 . S
Dy124 O140 2.351 1_545 S
C125 O136 1.185 . S
C125 O137 1.355 . S
C126 O128 1.185 . S
C126 O129 1.355 . S
Dy127 O131 2.310 1_546 S
Dy127 O134 2.351 1_556 S
Dy127 O136 2.398 1_545 S
Dy127 O137 2.491 1_545 S
Dy127 O138 2.403 . S
Dy127 O139 2.664 1_556 S
Dy127 O141 2.326 1_545 S
O128 Dy124 2.398 . S
O128 C126 1.185 . S
O129 Dy124 2.491 . S
O129 C126 1.355 . S
O130 Dy124 2.403 1_565 S
O130 C132 1.254 . S
O131 Dy124 2.664 1_565 S
O131 Dy127 2.310 1_564 S
O131 C132 1.268 . S
C132 O130 1.254 . S
C132 O131 1.268 . S
C133 O138 1.254 . S
C133 O139 1.268 1_556 S
O134 Dy127 2.351 1_554 S
O134 C142 1.249 . S
O135 Dy124 2.326 . S
O135 C142 1.267 . S
O136 C125 1.185 . S
O136 Dy127 2.398 1_565 S
O137 C125 1.355 . S
O137 Dy127 2.491 1_565 S
O138 Dy127 2.403 . S
O138 C133 1.254 . S
O139 Dy124 2.310 . S
O139 Dy127 2.664 1_554 S
O139 C133 1.268 1_554 S
O140 Dy124 2.351 1_565 S
O140 C143 1.249 1_554 S
O141 Dy127 2.326 1_565 S
O141 C143 1.267 . S
C142 O134 1.249 . S
C142 O135 1.267 . S
C143 O140 1.249 1_556 S
C143 O141 1.267 . S
Dy144 O148 2.398 . S
Dy144 O149 2.491 . S
Dy144 O150 2.403 . S
Dy144 O151 2.664 . S
Dy144 O155 2.326 . S
Dy144 O159 2.310 . S
Dy144 O160 2.351 . S
C145 O156 1.185 . S
C145 O157 1.355 . S
C146 O148 1.185 . S
C146 O149 1.355 . S
Dy147 O151 2.310 . S
Dy147 O154 2.351 . S
Dy147 O156 2.398 . S
Dy147 O157 2.491 . S
Dy147 O158 2.403 . S
Dy147 O159 2.664 . S
Dy147 O161 2.326 . S
O148 Dy144 2.398 . S
O148 C146 1.185 . S
O149 Dy144 2.491 . S
O149 C146 1.355 . S
O150 Dy144 2.403 . S
O150 C152 1.254 . S
O151 Dy144 2.664 . S
O151 Dy147 2.310 . S
O151 C152 1.268 . S
C152 O150 1.254 . S
C152 O151 1.268 . S
C153 O158 1.254 . S
C153 O159 1.268 . S
O154 Dy147 2.351 . S
O154 C162 1.249 . S
O155 Dy144 2.326 . S
O155 C162 1.267 . S
O156 C145 1.185 . S
O156 Dy147 2.398 . S
O157 C145 1.355 . S
O157 Dy147 2.491 . S
O158 Dy147 2.403 . S
O158 C153 1.254 . S
O159 Dy144 2.310 . S
O159 Dy147 2.664 . S
O159 C153 1.268 . S
O160 Dy144 2.351 . S
O160 C163 1.249 . S
O161 Dy147 2.326 . S
O161 C163 1.267 . S
C162 O154 1.249 . S
C162 O155 1.267 . S
C163 O160 1.249 . S
C163 O161 1.267 . S
Dy164 O168 2.398 . S
Dy164 O169 2.491 . S
Dy164 O170 2.403 . S
Dy164 O171 2.664 . S
Dy164 O175 2.326 . S
Dy164 O179 2.310 . S
Dy164 O180 2.351 1_455 S
C165 O176 1.185 . S
C165 O177 1.355 1_556 S
C166 O168 1.185 . S
C166 O169 1.355 . S
Dy167 O171 2.310 . S
Dy167 O174 2.351 . S
Dy167 O176 2.398 1_454 S
Dy167 O177 2.491 1_455 S
Dy167 O178 2.403 1_554 S
Dy167 O179 2.664 . S
Dy167 O181 2.326 1_454 S
O168 Dy164 2.398 . S
O168 C166 1.185 . S
O169 Dy164 2.491 . S
O169 C166 1.355 . S
O170 Dy164 2.403 . S
O170 C172 1.254 1_455 S
O171 Dy164 2.664 . S
O171 Dy167 2.310 . S
O171 C172 1.268 1_455 S
C172 O170 1.254 1_655 S
C172 O171 1.268 1_655 S
C173 O178 1.254 . S
C173 O179 1.268 1_556 S
O174 Dy167 2.351 . S
O174 C182 1.249 . S
O175 Dy164 2.326 . S
O175 C182 1.267 . S
O176 C165 1.185 . S
O176 Dy167 2.398 1_656 S
O177 C165 1.355 1_554 S
O177 Dy167 2.491 1_655 S
O178 Dy167 2.403 1_556 S
O178 C173 1.254 . S
O179 Dy164 2.310 . S
O179 Dy167 2.664 . S
O179 C173 1.268 1_554 S
O180 Dy164 2.351 1_655 S
O180 C183 1.249 . S
O181 Dy167 2.326 1_656 S
O181 C183 1.267 1_556 S
C182 O174 1.249 . S
C182 O175 1.267 . S
C183 O180 1.249 . S
C183 O181 1.267 1_554 S
C184 C185 1.387 . S
C184 H188 0.950 . S
C184 C193 1.390 . S
C185 C184 1.387 . S
C185 C187 1.387 . S
H186 C193 0.950 . S
C187 C185 1.387 . S
C187 C189 1.390 . S
C187 H191 0.950 . S
H188 C184 0.950 . S
C189 C187 1.390 . S
C189 C190 1.387 . S
C189 H192 0.950 . S
C190 C189 1.387 . S
C190 C193 1.387 . S
H191 C187 0.950 . S
H192 C189 0.950 . S
C193 C184 1.390 . S
C193 H186 0.950 . S
C193 C190 1.387 . S
C194 C195 1.387 . S
C194 H198 0.950 1_565 S
C194 C203 1.390 . S
C195 C194 1.387 . S
C195 C197 1.387 . S
H196 C203 0.950 1_545 S
C197 C195 1.387 . S
C197 C199 1.390 . S
C197 H201 0.950 . S
H198 C194 0.950 1_545 S
C199 C197 1.390 . S
C199 C200 1.387 . S
C199 H202 0.950 . S
C200 C199 1.387 . S
C200 C203 1.387 . S
H201 C197 0.950 . S
H202 C199 0.950 . S
C203 C194 1.390 . S
C203 H196 0.950 1_565 S
C203 C200 1.387 . S
C204 C205 1.387 . S
C204 H208 0.950 . S
C204 C213 1.390 . S
C205 C204 1.387 . S
C205 C207 1.387 . S
H206 C213 0.950 . S
C207 C205 1.387 . S
C207 C209 1.390 . S
C207 H211 0.950 . S
H208 C204 0.950 . S
C209 C207 1.390 . S
C209 C210 1.387 . S
C209 H212 0.950 . S
C210 C209 1.387 . S
C210 C213 1.387 . S
H211 C207 0.950 . S
H212 C209 0.950 . S
C213 C204 1.390 . S
C213 H206 0.950 . S
C213 C210 1.387 . S
C214 C215 1.387 . S
C214 H218 0.950 . S
C214 C223 1.390 . S
C215 C214 1.387 . S
C215 C217 1.387 . S
H216 C223 0.950 . S
C217 C215 1.387 . S
C217 C219 1.390 . S
C217 H221 0.950 . S
H218 C214 0.950 . S
C219 C217 1.390 . S
C219 C220 1.387 . S
C219 H222 0.950 1_655 S
C220 C219 1.387 . S
C220 C223 1.387 . S
H221 C217 0.950 . S
H222 C219 0.950 1_455 S
C223 C214 1.390 . S
C223 H216 0.950 . S
C223 C220 1.387 . S
C224 C225 1.387 . S
C224 H228 0.950 . S
C224 C233 1.390 . S
C225 C224 1.387 . S
C225 C227 1.387 . S
H226 C233 0.950 . S
C227 C225 1.387 . S
C227 C229 1.390 . S
C227 H231 0.950 . S
H228 C224 0.950 . S
C229 C227 1.390 . S
C229 C230 1.387 . S
C229 H232 0.950 . S
C230 C229 1.387 . S
C230 C233 1.387 . S
H231 C227 0.950 . S
H232 C229 0.950 . S
C233 C224 1.390 . S
C233 H226 0.950 . S
C233 C230 1.387 . S
C234 C235 1.387 . S
C234 H238 0.950 . S
C234 C243 1.390 . S
C235 C234 1.387 . S
C235 C237 1.387 . S
H236 C243 0.950 . S
C237 C235 1.387 . S
C237 C239 1.390 . S
C237 H241 0.950 . S
H238 C234 0.950 . S
C239 C237 1.390 . S
C239 C240 1.387 . S
C239 H242 0.950 . S
C240 C239 1.387 . S
C240 C243 1.387 . S
H241 C237 0.950 . S
H242 C239 0.950 . S
C243 C234 1.390 . S
C243 H236 0.950 . S
C243 C240 1.387 . S
C244 C245 1.387 . S
C244 H248 0.950 . S
C244 C253 1.390 . S
C245 C244 1.387 . S
C245 C247 1.387 . S
H246 C253 0.950 . S
C247 C245 1.387 . S
C247 C249 1.390 . S
C247 H251 0.950 . S
H248 C244 0.950 . S
C249 C247 1.390 . S
C249 C250 1.387 . S
C249 H252 0.950 1_556 S
C250 C249 1.387 . S
C250 C253 1.387 . S
H251 C247 0.950 . S
H252 C249 0.950 1_554 S
C253 C244 1.390 . S
C253 H246 0.950 . S
C253 C250 1.387 . S
C254 C255 1.387 . S
C254 H258 0.950 . S
C254 C263 1.390 . S
C255 C254 1.387 . S
C255 C257 1.387 . S
H256 C263 0.950 . S
C257 C255 1.387 . S
C257 C259 1.390 . S
C257 H261 0.950 . S
H258 C254 0.950 . S
C259 C257 1.390 . S
C259 C260 1.387 . S
C259 H262 0.950 . S
C260 C259 1.387 . S
C260 C263 1.387 . S
H261 C257 0.950 . S
H262 C259 0.950 . S
C263 C254 1.390 . S
C263 H256 0.950 . S
C263 C260 1.387 . S
C264 C265 1.387 . S
C264 H268 0.950 . S
C264 C273 1.390 . S
C265 C264 1.387 . S
C265 C267 1.387 . S
H266 C273 0.950 . S
C267 C265 1.387 . S
C267 C269 1.390 . S
C267 H271 0.950 . S
H268 C264 0.950 . S
C269 C267 1.390 . S
C269 C270 1.387 . S
C269 H272 0.950 . S
C270 C269 1.387 . S
C270 C273 1.387 . S
H271 C267 0.950 . S
H272 C269 0.950 . S
C273 C264 1.390 . S
C273 H266 0.950 . S
C273 C270 1.387 . S
C274 C275 1.387 . S
C274 H278 0.950 . S
C274 C283 1.390 . S
C275 C274 1.387 . S
C275 C277 1.387 . S
H276 C283 0.950 1_554 S
C277 C275 1.387 . S
C277 C279 1.390 . S
C277 H281 0.950 . S
H278 C274 0.950 . S
C279 C277 1.390 . S
C279 C280 1.387 . S
C279 H282 0.950 . S
C280 C279 1.387 . S
C280 C283 1.387 . S
H281 C277 0.950 . S
H282 C279 0.950 . S
C283 C274 1.390 . S
C283 H276 0.950 1_556 S
C283 C280 1.387 . S
C284 C285 1.387 . S
C284 H288 0.950 . S
C284 C293 1.390 . S
C285 C284 1.387 . S
C285 C287 1.387 . S
H286 C293 0.950 . S
C287 C285 1.387 . S
C287 C289 1.390 . S
C287 H291 0.950 . S
H288 C284 0.950 . S
C289 C287 1.390 . S
C289 C290 1.387 . S
C289 H292 0.950 . S
C290 C289 1.387 . S
C290 C293 1.387 . S
H291 C287 0.950 . S
H292 C289 0.950 . S
C293 C284 1.390 . S
C293 H286 0.950 . S
C293 C290 1.387 . S
C294 C295 1.387 . S
C294 H298 0.950 . S
C294 C303 1.390 . S
C295 C294 1.387 . S
C295 C297 1.387 . S
H296 C303 0.950 . S
C297 C295 1.387 . S
C297 C299 1.390 . S
C297 H301 0.950 . S
H298 C294 0.950 . S
C299 C297 1.390 . S
C299 C300 1.387 . S
C299 H302 0.950 . S
C300 C299 1.387 . S
C300 C303 1.387 . S
H301 C297 0.950 . S
H302 C299 0.950 . S
C303 C294 1.390 . S
C303 H296 0.950 . S
C303 C300 1.387 . S
C304 C305 1.387 . S
C304 H308 0.950 . S
C304 C313 1.390 . S
C305 C304 1.387 . S
C305 C307 1.387 . S
H306 C313 0.950 . S
C307 C305 1.387 . S
C307 C309 1.390 . S
C307 H311 0.950 . S
H308 C304 0.950 . S
C309 C307 1.390 . S
C309 C310 1.387 . S
C309 H312 0.950 . S
C310 C309 1.387 . S
C310 C313 1.387 . S
H311 C307 0.950 . S
H312 C309 0.950 . S
C313 C304 1.390 . S
C313 H306 0.950 . S
C313 C310 1.387 . S
C314 C315 1.387 . S
C314 H318 0.950 . S
C314 C323 1.390 . S
C315 C314 1.387 . S
C315 C317 1.387 . S
H316 C323 0.950 . S
C317 C315 1.387 . S
C317 C319 1.390 . S
C317 H321 0.950 . S
H318 C314 0.950 . S
C319 C317 1.390 . S
C319 C320 1.387 . S
C319 H322 0.950 . S
C320 C319 1.387 . S
C320 C323 1.387 . S
H321 C317 0.950 . S
H322 C319 0.950 . S
C323 C314 1.390 . S
C323 H316 0.950 . S
C323 C320 1.387 . S
C324 C325 1.387 . S
C324 H328 0.950 . S
C324 C333 1.390 . S
C325 C324 1.387 . S
C325 C327 1.387 . S
H326 C333 0.950 . S
C327 C325 1.387 . S
C327 C329 1.390 . S
C327 H331 0.950 . S
H328 C324 0.950 . S
C329 C327 1.390 . S
C329 C330 1.387 . S
C329 H332 0.950 . S
C330 C329 1.387 . S
C330 C333 1.387 . S
H331 C327 0.950 . S
H332 C329 0.950 . S
C333 C324 1.390 . S
C333 H326 0.950 . S
C333 C330 1.387 . S
C334 C335 1.387 . S
C334 H338 0.950 . S
C334 C343 1.390 . S
C335 C334 1.387 . S
C335 C337 1.387 . S
H336 C343 0.950 . S
C337 C335 1.387 . S
C337 C339 1.390 . S
C337 H341 0.950 . S
H338 C334 0.950 . S
C339 C337 1.390 . S
C339 C340 1.387 . S
C339 H342 0.950 . S
C340 C339 1.387 . S
C340 C343 1.387 . S
H341 C337 0.950 . S
H342 C339 0.950 . S
C343 C334 1.390 . S
C343 H336 0.950 . S
C343 C340 1.387 . S
C344 C345 1.387 . S
C344 H348 0.950 . S
C344 C353 1.390 . S
C345 C344 1.387 . S
C345 C347 1.387 . S
H346 C353 0.950 . S
C347 C345 1.387 . S
C347 C349 1.390 . S
C347 H351 0.950 . S
H348 C344 0.950 . S
C349 C347 1.390 . S
C349 C350 1.387 . S
C349 H352 0.950 . S
C350 C349 1.387 . S
C350 C353 1.387 . S
H351 C347 0.950 . S
H352 C349 0.950 . S
C353 C344 1.390 . S
C353 H346 0.950 . S
C353 C350 1.387 . S
C354 C355 1.387 . S
C354 H358 0.950 . S
C354 C363 1.390 . S
C355 C354 1.387 . S
C355 C357 1.387 . S
H356 C363 0.950 . S
C357 C355 1.387 . S
C357 C359 1.390 . S
C357 H361 0.950 . S
H358 C354 0.950 . S
C359 C357 1.390 . S
C359 C360 1.387 . S
C359 H362 0.950 . S
C360 C359 1.387 . S
C360 C363 1.387 . S
H361 C357 0.950 . S
H362 C359 0.950 . S
C363 C354 1.390 . S
C363 H356 0.950 . S
C363 C360 1.387 . S
C364 C365 1.387 . S
C364 H368 0.950 . S
C364 C373 1.390 . S
C365 C364 1.387 . S
C365 C367 1.387 . S
H366 C373 0.950 . S
C367 C365 1.387 . S
C367 C369 1.390 . S
C367 H371 0.950 . S
H368 C364 0.950 . S
C369 C367 1.390 . S
C369 C370 1.387 . S
C369 H372 0.950 . S
C370 C369 1.387 . S
C370 C373 1.387 . S
H371 C367 0.950 . S
H372 C369 0.950 . S
C373 C364 1.390 . S
C373 H366 0.950 . S
C373 C370 1.387 . S
C374 C375 1.387 . S
C374 H378 0.950 . S
C374 C383 1.390 . S
C375 C374 1.387 . S
C375 C377 1.387 . S
H376 C383 0.950 . S
C377 C375 1.387 . S
C377 C379 1.390 . S
C377 H381 0.950 . S
H378 C374 0.950 . S
C379 C377 1.390 . S
C379 C380 1.387 . S
C379 H382 0.950 . S
C380 C379 1.387 . S
C380 C383 1.387 . S
H381 C377 0.950 . S
H382 C379 0.950 . S
C383 C374 1.390 . S
C383 H376 0.950 . S
C383 C380 1.387 . S
C384 C385 1.387 . S
C384 H388 0.950 . S
C384 C393 1.390 . S
C385 C384 1.387 . S
C385 C387 1.387 . S
H386 C393 0.950 . S
C387 C385 1.387 . S
C387 C389 1.390 . S
C387 H391 0.950 . S
H388 C384 0.950 . S
C389 C387 1.390 . S
C389 C390 1.387 . S
C389 H392 0.950 . S
C390 C389 1.387 . S
C390 C393 1.387 . S
H391 C387 0.950 . S
H392 C389 0.950 . S
C393 C384 1.390 . S
C393 H386 0.950 . S
C393 C390 1.387 . S
C394 C395 1.387 . S
C394 H398 0.950 . S
C394 C403 1.390 . S
C395 C394 1.387 . S
C395 C397 1.387 . S
H396 C403 0.950 . S
C397 C395 1.387 . S
C397 C399 1.390 . S
C397 H401 0.950 . S
H398 C394 0.950 . S
C399 C397 1.390 . S
C399 C400 1.387 . S
C399 H402 0.950 . S
C400 C399 1.387 . S
C400 C403 1.387 . S
H401 C397 0.950 . S
H402 C399 0.950 . S
C403 C394 1.390 . S
C403 H396 0.950 . S
C403 C400 1.387 . S
C404 C405 1.387 . S
C404 H408 0.950 . S
C404 C413 1.390 . S
C405 C404 1.387 . S
C405 C407 1.387 . S
H406 C413 0.950 . S
C407 C405 1.387 . S
C407 C409 1.390 . S
C407 H411 0.950 . S
H408 C404 0.950 . S
C409 C407 1.390 . S
C409 C410 1.387 . S
C409 H412 0.950 . S
C410 C409 1.387 . S
C410 C413 1.387 . S
H411 C407 0.950 . S
H412 C409 0.950 . S
C413 C404 1.390 . S
C413 H406 0.950 . S
C413 C410 1.387 . S
C414 C415 1.387 . S
C414 H418 0.950 . S
C414 C423 1.390 . S
C415 C414 1.387 . S
C415 C417 1.387 . S
H416 C423 0.950 . S
C417 C415 1.387 . S
C417 C419 1.390 . S
C417 H421 0.950 . S
H418 C414 0.950 . S
C419 C417 1.390 . S
C419 C420 1.387 . S
C419 H422 0.950 . S
C420 C419 1.387 . S
C420 C423 1.387 . S
H421 C417 0.950 . S
H422 C419 0.950 . S
C423 C414 1.390 . S
C423 H416 0.950 . S
C423 C420 1.387 . S
C185 C9 1.637 . S
C190 C106 1.637 . S
C195 C21 1.460 . S
C200 C125 1.401 . S
C210 C162 1.579 . S
C205 C30 1.614 . S
C215 C43 1.535 . S
C220 C172 1.613 . S
C230 C142 1.715 . S
C225 C4 1.535 . S
C240 C112 1.786 . S
C235 C22 1.864 . S
C250 C183 1.319 1_556 S
C245 C34 1.351 . S
C260 C153 1.391 . S
C255 C48 1.411 . S
C265 C8 1.604 . S
C270 C166 1.639 . S
C280 C133 1.714 . S
C275 C35 1.773 . S
C285 C47 1.867 . S
C290 C123 1.872 . S
C295 C17 1.309 . S
C300 C145 1.314 . S
C310 C105 1.404 . S
C305 C60 1.395 . S
C315 C74 1.506 . S
C320 C126 1.468 . S
C325 C82 1.401 . S
C330 C163 1.428 . S
C335 C100 1.994 . S
C340 C173 1.931 . S
C345 C61 2.001 . S
C350 C143 2.071 . S
C360 C113 1.418 . S
C355 C73 1.460 . S
C370 C182 1.723 . S
C365 C87 1.777 . S
C380 C152 1.237 . S
C375 C95 1.217 . S
C385 C56 1.616 . S
C390 C165 1.612 . S
C400 C132 1.824 . S
C395 C86 1.854 . S
C410 C122 1.763 . S
C405 C99 1.756 . S
C415 C69 1.141 . S
C420 C146 1.191 . S
