# Generated by pormake.
# Topology zzz, (3,6)-cn, num edge types: 1
# Building blocks:
#     Node 0, Type 0, BuildingBlock: ESEHIV_clean_linker_0, # of connection points: 3
#     Node 1, Type 0, BuildingBlock: ESEHIV_clean_linker_0, # of connection points: 3
#     Node 2, Type 0, BuildingBlock: ESEHIV_clean_linker_0, # of connection points: 3
#     Node 3, Type 0, BuildingBlock: ESEHIV_clean_linker_0, # of connection points: 3
#     Node 4, Type 0, BuildingBlock: ESEHIV_clean_linker_0, # of connection points: 3
#     Node 5, Type 0, BuildingBlock: ESEHIV_clean_linker_0, # of connection points: 3
#     Node 6, Type 0, BuildingBlock: ESEHIV_clean_linker_0, # of connection points: 3
#     Node 7, Type 0, BuildingBlock: ESEHIV_clean_linker_0, # of connection points: 3
#     Node 8, Type 1, BuildingBlock: GEDQOX_clean_sbu_0, # of connection points: 6
#     Node 9, Type 1, BuildingBlock: GEDQOX_clean_sbu_0, # of connection points: 6
#     Node 10, Type 1, BuildingBlock: GEDQOX_clean_sbu_0, # of connection points: 6
#     Node 11, Type 1, BuildingBlock: GEDQOX_clean_sbu_0, # of connection points: 6
#     Edge 12, Type (0, 1), BuildingBlock: UVAHIK_clean_linker_0, # of connection points: 2
#     Edge 13, Type (0, 1), BuildingBlock: UVAHIK_clean_linker_0, # of connection points: 2
#     Edge 14, Type (0, 1), BuildingBlock: UVAHIK_clean_linker_0, # of connection points: 2
#     Edge 15, Type (0, 1), BuildingBlock: UVAHIK_clean_linker_0, # of connection points: 2
#     Edge 16, Type (0, 1), BuildingBlock: UVAHIK_clean_linker_0, # of connection points: 2
#     Edge 17, Type (0, 1), BuildingBlock: UVAHIK_clean_linker_0, # of connection points: 2
#     Edge 18, Type (0, 1), BuildingBlock: UVAHIK_clean_linker_0, # of connection points: 2
#     Edge 19, Type (0, 1), BuildingBlock: UVAHIK_clean_linker_0, # of connection points: 2
#     Edge 20, Type (0, 1), BuildingBlock: UVAHIK_clean_linker_0, # of connection points: 2
#     Edge 21, Type (0, 1), BuildingBlock: UVAHIK_clean_linker_0, # of connection points: 2
#     Edge 22, Type (0, 1), BuildingBlock: UVAHIK_clean_linker_0, # of connection points: 2
#     Edge 23, Type (0, 1), BuildingBlock: UVAHIK_clean_linker_0, # of connection points: 2
#     Edge 24, Type (0, 1), BuildingBlock: UVAHIK_clean_linker_0, # of connection points: 2
#     Edge 25, Type (0, 1), BuildingBlock: UVAHIK_clean_linker_0, # of connection points: 2
#     Edge 26, Type (0, 1), BuildingBlock: UVAHIK_clean_linker_0, # of connection points: 2
#     Edge 27, Type (0, 1), BuildingBlock: UVAHIK_clean_linker_0, # of connection points: 2
#     Edge 28, Type (0, 1), BuildingBlock: UVAHIK_clean_linker_0, # of connection points: 2
#     Edge 29, Type (0, 1), BuildingBlock: UVAHIK_clean_linker_0, # of connection points: 2
#     Edge 30, Type (0, 1), BuildingBlock: UVAHIK_clean_linker_0, # of connection points: 2
#     Edge 31, Type (0, 1), BuildingBlock: UVAHIK_clean_linker_0, # of connection points: 2
#     Edge 32, Type (0, 1), BuildingBlock: UVAHIK_clean_linker_0, # of connection points: 2
#     Edge 33, Type (0, 1), BuildingBlock: UVAHIK_clean_linker_0, # of connection points: 2
#     Edge 34, Type (0, 1), BuildingBlock: UVAHIK_clean_linker_0, # of connection points: 2
#     Edge 35, Type (0, 1), BuildingBlock: UVAHIK_clean_linker_0, # of connection points: 2
# Relax obj value: 0.306
# Max RMSD: 0.263
# Mean RMSD: 0.198
data_MOF--net-zzz--node1-GEDQOX_clean_sbu_0--node2-ESEHIV_clean_linker_0--edge1-UVAHIK_clean_linker_0
_symmetry_space_group_name_H-M    P1
_symmetry_Int_Tables_number       1
_symmetry_cell_setting            triclinic
loop_
_symmetry_equiv_pos_as_xyz
'x, y, z'
_cell_length_a     63.766511
_cell_length_b     58.858893
_cell_length_c     21.936909
_cell_angle_alpha  82.335982
_cell_angle_beta   91.13339
_cell_angle_gamma 101.76442
loop_
_atom_site_label
_atom_site_type_symbol
_atom_site_fract_x
_atom_site_fract_y
_atom_site_fract_z
_atom_type_partial_charge
H0 H 0.80258 0.4371 0.17439 0.0
H1 H 0.75384 0.4333 0.03624 0.0
H2 H 0.74666 0.46524 0.19837 0.0
C3 C 0.78691 0.43981 0.15904 0.0
C4 C 0.77531 0.45141 0.19403 0.0
C5 C 0.77936 0.43334 0.10209 0.0
C6 C 0.75971 0.43826 0.08028 0.0
C7 C 0.74764 0.44951 0.1151 0.0
C8 C 0.75559 0.45605 0.17195 0.0
H9 H 0.96266 0.75582 0.31829 0.0
H10 H 0.97551 0.71459 0.1823 0.0
H11 H 0.9516 0.68086 0.36208 0.0
C12 C 0.96271 0.73876 0.30465 0.0
C13 C 0.95634 0.71864 0.34698 0.0
C14 C 0.96963 0.73736 0.24565 0.0
C15 C 0.97003 0.7155 0.22823 0.0
C16 C 0.96316 0.69484 0.26927 0.0
C17 C 0.95672 0.69651 0.32965 0.0
H18 H 0.72064 0.01367 0.1866 0.0
H19 H 0.76916 0.03324 0.04503 0.0
H20 H 0.78147 0.99396 0.21779 0.0
C21 C 0.73653 0.01361 0.16997 0.0
C22 C 0.75014 1.00236 0.20837 0.0
C23 C 0.74309 0.02472 0.11082 0.0
C24 C 0.76401 0.02517 0.09106 0.0
C25 C 0.77795 0.01405 0.12931 0.0
C26 C 0.77092 1.00272 0.18816 0.0
H27 H 0.60329 0.74888 0.37865 0.0
H28 H 0.57559 0.80114 0.44864 0.0
H29 H 0.59776 0.81146 0.26068 0.0
C30 C 0.5995 0.76618 0.37247 0.0
C31 C 0.60189 0.7794 0.31414 0.0
C32 C 0.59033 0.77388 0.42163 0.0
C33 C 0.58336 0.79535 0.41178 0.0
C34 C 0.58662 0.80933 0.35391 0.0
C35 C 0.59607 0.80125 0.30591 0.0
H36 H 0.22357 0.56426 0.5001 0.0
H37 H 0.27035 0.56825 0.64404 0.0
H38 H 0.27963 0.53554 0.48484 0.0
C39 C 0.23895 0.56142 0.51787 0.0
C40 C 0.25089 0.54931 0.48559 0.0
C41 C 0.24583 0.56829 0.57504 0.0
C42 C 0.2652 0.56336 0.59938 0.0
C43 C 0.27758 0.55154 0.56722 0.0
C44 C 0.27024 0.54457 0.51029 0.0
H45 H 0.06741 0.25977 0.33619 0.0
H46 H 0.05597 0.29947 0.47753 0.0
H47 H 0.07766 0.33492 0.29765 0.0
C48 C 0.06749 0.2766 0.35143 0.0
C49 C 0.07334 0.29713 0.31006 0.0
C50 C 0.06109 0.27736 0.41142 0.0
C51 C 0.06093 0.29899 0.43079 0.0
C52 C 0.06726 0.31997 0.39073 0.0
C53 C 0.07303 0.31897 0.32938 0.0
H54 H 0.30237 0.96516 0.48992 0.0
H55 H 0.25495 0.95269 0.63355 0.0
H56 H 0.24676 0.9959 0.4634 0.0
C57 C 0.28702 0.96716 0.50648 0.0
C58 C 0.27521 0.98126 0.46959 0.0
C59 C 0.28 0.95707 0.56599 0.0
C60 C 0.26042 0.9604 0.58749 0.0
C61 C 0.24816 0.97417 0.55064 0.0
C62 C 0.25588 0.98497 0.49197 0.0
H63 H 0.43 0.2586 0.27027 0.0
H64 H 0.46907 0.21041 0.23425 0.0
H65 H 0.43609 0.20137 0.40801 0.0
C66 C 0.43537 0.24236 0.28409 0.0
C67 C 0.43142 0.23094 0.34425 0.0
C68 C 0.44851 0.23485 0.24364 0.0
C69 C 0.45779 0.21538 0.26368 0.0
C70 C 0.4533 0.20324 0.32337 0.0
C71 C 0.4394 0.2106 0.36194 0.0
Nd72 Nd 0.00116 0.9956 0.78931 0.0
Nd73 Nd 0.03072 0.02019 0.88056 0.0
C74 C 0.97176 0.97364 0.71932 0.0
C75 C 0.9681 0.95006 0.69978 0.0
C76 C 0.9472 0.93699 0.69608 0.0
C77 C 0.94372 0.91409 0.68107 0.0
C78 C 0.9611 0.90378 0.66958 0.0
C79 C 0.98201 0.9171 0.67286 0.0
C80 C 0.98546 0.93989 0.68803 0.0
C81 C 0.04338 0.99263 0.77802 0.0
C82 C 0.01661 0.96517 0.90772 0.0
C83 C 0.06112 0.04755 0.93696 0.0
C84 C 0.06655 0.07252 0.94544 0.0
C85 C 0.07509 0.0788 1.00159 0.0
C86 C 0.07872 0.10213 0.01276 0.0
C87 C 0.0738 0.1197 0.96799 0.0
C88 C 0.06559 0.11339 0.91117 0.0
C89 C 0.06205 0.09003 0.89998 0.0
C90 C 0.98832 0.00904 0.91581 0.0
C91 C 0.01176 0.05272 0.7689 0.0
O92 O 0.96871 0.97418 0.77797 0.0
O93 O 0.98892 0.98853 0.69708 0.0
O94 O 0.02746 0.97547 0.77297 0.0
O95 O 0.03682 0.01064 0.7874 0.0
O96 O -0.00025 0.96833 0.87441 0.0
O97 O 0.03375 0.98206 0.90804 0.0
O98 O 0.06342 0.04227 0.88175 0.0
O99 O 0.04355 0.03552 0.96409 0.0
O100 O 0.00407 0.00736 0.95341 0.0
O101 O -0.00484 0.01706 0.86208 0.0
O102 O 0.02237 0.05184 0.82104 0.0
O103 O 0.00246 0.03363 0.74552 0.0
H104 H 0.93358 0.94438 0.70562 0.0
H105 H 0.92741 0.90432 0.67966 0.0
H106 H -0.00421 0.90999 0.66329 0.0
H107 H 0.00177 0.9495 0.69094 0.0
H108 H 0.07852 0.06554 0.03744 0.0
H109 H 0.08474 0.10625 0.05733 0.0
H110 H 0.06183 0.12648 0.87543 0.0
H111 H 0.05551 0.08561 0.85618 0.0
Nd112 Nd 0.5261 0.98201 0.80737 0.0
Nd113 Nd 0.5054 0.02004 0.86717 0.0
C114 C 0.54678 0.9485 0.79275 0.0
C115 C 0.56673 0.948 0.76099 0.0
C116 C 0.57019 0.92706 0.74314 0.0
C117 C 0.58885 0.9268 0.71088 0.0
C118 C 0.60436 0.94749 0.69622 0.0
C119 C 0.60087 0.96837 0.71488 0.0
C120 C 0.5822 0.96863 0.74672 0.0
C121 C 0.51567 0.01556 0.71748 0.0
C122 C 0.55706 0.03192 0.83092 0.0
C123 C 0.4883 0.05379 0.89988 0.0
C124 C 0.46891 0.05289 0.93596 0.0
C125 C 0.4609 0.07314 0.93955 0.0
C126 C 0.44211 0.07185 0.97314 0.0
C127 C 0.43108 0.05023 1.00359 0.0
C128 C 0.43935 0.03004 0.9998 0.0
C129 C 0.45797 0.03135 0.9661 0.0
C130 C 0.51188 0.98144 0.94532 0.0
C131 C 0.47433 0.97339 0.82782 0.0
O132 O 0.549 0.95966 0.84104 0.0
O133 O 0.53101 0.95312 0.75728 0.0
O134 O 0.52414 0.99843 0.70482 0.0
O135 O 0.51334 0.01369 0.7746 0.0
O136 O 0.5556 0.01083 0.8144 0.0
O137 O 0.5404 0.03958 0.84968 0.0
O138 O 0.48489 0.04621 0.84625 0.0
O139 O 0.50384 0.04595 0.93048 0.0
O140 O 0.49594 0.99167 0.95087 0.0
O141 O 0.52408 0.99248 0.9021 0.0
O142 O 0.4762 0.99581 0.83346 0.0
O143 O 0.49103 0.96325 0.82653 0.0
H144 H 0.55838 0.91098 0.75367 0.0
H145 H 0.59114 0.91042 0.69739 0.0
H146 H 0.6123 0.98468 0.70341 0.0
H147 H 0.5797 0.98501 0.75952 0.0
H148 H 0.46907 0.08989 0.91613 0.0
H149 H 0.43609 0.08769 0.97457 0.0
H150 H 0.4316 0.01318 0.02353 0.0
H151 H 0.46386 0.01549 0.96359 0.0
Nd152 Nd 0.50485 0.51214 0.88957 0.0
Nd153 Nd 0.52413 0.4989 0.78372 0.0
C154 C 0.48758 0.53483 0.96414 0.0
C155 C 0.49645 0.55804 0.98291 0.0
C156 C 0.50084 0.57815 0.93889 0.0
C157 C 0.51396 0.59872 0.95354 0.0
C158 C 0.52296 0.5995 0.0123 0.0
C159 C 0.51731 0.57998 0.05751 0.0
C160 C 0.50408 0.55947 0.04301 0.0
C161 C 0.54432 0.5014 0.91479 0.0
C162 C 0.53423 0.5529 0.79082 0.0
C163 C 0.53897 0.47629 0.70438 0.0
C164 C 0.52564 0.45662 0.67836 0.0
C165 C 0.53434 0.44221 0.64441 0.0
C166 C 0.52089 0.42313 0.62235 0.0
C167 C 0.49865 0.4183 0.63429 0.0
C168 C 0.49016 0.43297 0.66817 0.0
C169 C 0.50351 0.45184 0.69012 0.0
C170 C 0.48429 0.50903 0.76045 0.0
C171 C 0.49634 0.4577 0.88496 0.0
O172 O 0.48193 0.53439 0.90657 0.0
O173 O 0.49821 0.51855 0.98382 0.0
O174 O 0.52815 0.49542 0.95232 0.0
O175 O 0.53988 0.51355 0.8663 0.0
O176 O 0.51737 0.5473 0.82784 0.0
O177 O 0.54337 0.53642 0.77472 0.0
O178 O 0.54221 0.47226 0.76352 0.0
O179 O 0.53333 0.49637 0.68834 0.0
O180 O 0.5003 0.51564 0.72263 0.0
O181 O 0.48919 0.49685 0.80812 0.0
O182 O 0.51239 0.46362 0.84512 0.0
O183 O 0.48739 0.47387 0.90378 0.0
H184 H 0.49519 0.57768 0.89213 0.0
H185 H 0.51803 0.61354 0.9179 0.0
H186 H 0.52372 0.58034 0.10356 0.0
H187 H 0.50089 0.54427 0.0778 0.0
H188 H 0.55141 0.44558 0.63546 0.0
H189 H 0.52792 0.41198 0.59683 0.0
H190 H 0.47312 0.43003 0.6773 0.0
H191 H 0.49653 0.46276 0.71659 0.0
Nd192 Nd 0.00106 0.52417 0.79654 0.0
Nd193 Nd 0.02465 0.48428 0.87997 0.0
C194 C 0.97638 0.55399 0.75941 0.0
C195 C 0.95965 0.55326 0.71206 0.0
C196 C 0.94074 0.561 0.72182 0.0
C197 C 0.92381 0.55771 0.68007 0.0
C198 C 0.92558 0.54663 0.6279 0.0
C199 C 0.94477 0.53937 0.61785 0.0
C200 C 0.96157 0.5426 0.65948 0.0
C201 C 0.01392 0.4934 0.72637 0.0
C202 C 0.97366 0.47082 0.84907 0.0
C203 C 0.05031 0.45541 0.91611 0.0
C204 C 0.06865 0.4586 0.95792 0.0
C205 C 0.08423 0.44485 0.95888 0.0
C206 C 0.10265 0.44974 0.99475 0.0
C207 C 0.10574 0.46856 0.02967 0.0
C208 C 0.08977 0.48189 0.02933 0.0
C209 C 0.07151 0.47704 0.99361 0.0
C210 C 0.0118 0.51514 0.9499 0.0
C211 C 0.05205 0.53765 0.82866 0.0
O212 O 0.9718 0.53809 0.80773 0.0
O213 O -0.00387 0.55655 0.73944 0.0
O214 O 0.00509 0.5106 0.70285 0.0
O215 O 0.01525 0.49382 0.7833 0.0
O216 O 0.97377 0.49312 0.82855 0.0
O217 O 0.99118 0.46262 0.86513 0.0
O218 O 0.05305 0.46958 0.86417 0.0
O219 O 0.03144 0.45363 0.94144 0.0
O220 O 0.02053 0.49789 0.97351 0.0
O221 O 0.01049 0.5147 0.89301 0.0
O222 O 0.05195 0.51541 0.84951 0.0
O223 O 0.03454 0.54576 0.81205 0.0
H224 H 0.93887 0.56904 0.7625 0.0
H225 H 0.90927 0.56359 0.68895 0.0
H226 H 0.94655 0.53034 0.57895 0.0
H227 H 0.97584 0.53609 0.65139 0.0
H228 H 0.08238 0.43073 0.93095 0.0
H229 H 0.11472 0.43925 0.99378 0.0
H230 H 0.09141 0.49621 0.05653 0.0
H231 H 0.05978 0.48803 0.99296 0.0
C232 C 0.21265 0.95799 0.60238 0.0
C233 C 0.22749 0.97739 0.57439 0.0
C234 C 0.1935 0.96091 0.62696 0.0
C235 C 0.15708 1.00291 0.62394 0.0
H236 H 0.13434 0.96268 0.7724 0.0
C237 C 0.08105 0.01304 0.75002 0.0
C238 C 0.06568 0.99219 0.76268 0.0
C239 C 0.10172 0.01246 0.7308 0.0
C240 C 0.14049 0.974 0.73087 0.0
H241 H 0.23397 0.01506 0.55016 0.0
H242 H 0.20066 0.0203 0.59428 0.0
H243 H 0.16864 0.95959 0.73076 0.0
H244 H 0.05995 0.95442 0.76748 0.0
H245 H 0.09609 0.95338 0.73492 0.0
H246 H 0.12887 0.01742 0.62475 0.0
C247 C 0.20359 1.00274 0.59618 0.0
C248 C 0.16009 0.97217 0.70672 0.0
C249 C 0.2227 0.99978 0.57096 0.0
C250 C 0.0715 0.97075 0.75782 0.0
C251 C 0.09219 0.97015 0.73948 0.0
C252 C 0.13756 0.00492 0.64854 0.0
C253 C 0.18879 0.98334 0.62483 0.0
C254 C 0.16849 0.98632 0.65235 0.0
C255 C 0.10743 0.991 0.72496 0.0
C256 C 0.12893 0.99024 0.70173 0.0
H257 H 0.21581 0.94049 0.60489 0.0
H258 H 0.18229 0.94548 0.64721 0.0
H259 H 0.16288 0.01392 0.58166 0.0
H260 H 0.07695 0.0298 0.75349 0.0
H261 H 0.11322 0.02878 0.72035 0.0
C262 C 0.46452 0.16447 0.32349 0.0
C263 C 0.46494 0.18491 0.35036 0.0
C264 C 0.47283 0.14593 0.3553 0.0
C265 C 0.50572 0.13092 0.4933 0.0
H266 H 0.47145 0.06844 0.49299 0.0
C267 C 0.50755 0.0555 0.6896 0.0
C268 C 0.51039 0.03429 0.67177 0.0
C269 C 0.50351 0.07354 0.64545 0.0
C270 C 0.48126 0.08578 0.49311 0.0
H271 H 0.47561 0.20269 0.42919 0.0
H272 H 0.48944 0.17065 0.48477 0.0
H273 H 0.46299 0.10086 0.42158 0.0
H274 H 0.51091 0.01507 0.59437 0.0
H275 H 0.50323 0.04641 0.51734 0.0
H276 H 0.52328 0.11592 0.56695 0.0
C277 C 0.48303 0.16864 0.43928 0.0
C278 C 0.47654 0.10436 0.45187 0.0
C279 C 0.47487 0.18702 0.40763 0.0
C280 C 0.50877 0.03128 0.60927 0.0
C281 C 0.50432 0.04914 0.56527 0.0
C282 C 0.51017 0.11245 0.5351 0.0
C283 C 0.48177 0.14762 0.41433 0.0
C284 C 0.48846 0.12729 0.45222 0.0
C285 C 0.50187 0.07053 0.58285 0.0
C286 C 0.49779 0.08978 0.5361 0.0
H287 H 0.45697 0.16244 0.27934 0.0
H288 H 0.47187 0.13014 0.3342 0.0
H289 H 0.51564 0.14816 0.49399 0.0
H290 H 0.50888 0.0583 0.73744 0.0
H291 H 0.50153 0.08982 0.66025 0.0
C292 C 0.31225 0.56231 0.62325 0.0
C293 C 0.29786 0.54593 0.59358 0.0
C294 C 0.33163 0.55723 0.64621 0.0
C295 C 0.37032 0.52103 0.62216 0.0
H296 H 0.39303 0.53702 0.77977 0.0
C297 C 0.44583 0.50575 0.78901 0.0
C298 C 0.46252 0.51277 0.74546 0.0
C299 C 0.4252 0.50926 0.77371 0.0
C300 C 0.3868 0.53231 0.73587 0.0
H301 H 0.2922 0.51094 0.56722 0.0
H302 H 0.32612 0.50227 0.6064 0.0
H303 H 0.35752 0.5438 0.74819 0.0
H304 H 0.47093 0.52918 0.65233 0.0
H305 H 0.43501 0.53514 0.62557 0.0
H306 H 0.39954 0.50967 0.60952 0.0
C307 C 0.32251 0.51916 0.61117 0.0
C308 C 0.36659 0.53638 0.71758 0.0
C309 C 0.30312 0.52418 0.58854 0.0
C310 C 0.45833 0.52348 0.68669 0.0
C311 C 0.43774 0.52679 0.67127 0.0
C312 C 0.39054 0.51715 0.64017 0.0
C313 C 0.33706 0.5357 0.63973 0.0
C314 C 0.35819 0.53084 0.66041 0.0
C315 C 0.42094 0.51964 0.71445 0.0
C316 C 0.39906 0.52289 0.69699 0.0
H317 H 0.30879 0.57932 0.62737 0.0
H318 H 0.34263 0.57042 0.66742 0.0
H319 H 0.36436 0.51678 0.57761 0.0
H320 H 0.4487 0.49753 0.83474 0.0
H321 H 0.41251 0.5035 0.80778 0.0
C322 C 0.07664 0.34567 0.47304 0.0
C323 C 0.06757 0.3424 0.4151 0.0
C324 C 0.0733 0.36409 0.50307 0.0
C325 C 0.05642 0.4206 0.48725 0.0
H326 H 0.03423 0.39901 0.65284 0.0
C327 C 0.01888 0.4793 0.62647 0.0
C328 C 0.02149 0.47703 0.69056 0.0
C329 C 0.02574 0.46391 0.59167 0.0
C330 C 0.04077 0.40554 0.60721 0.0
H331 H 0.04931 0.35695 0.34107 0.0
H332 H 0.04372 0.38966 0.39351 0.0
H333 H 0.04514 0.3716 0.59248 0.0
H334 H 0.03309 0.45674 0.76858 0.0
H335 H 0.04603 0.43044 0.70801 0.0
H336 H 0.05243 0.45467 0.50224 0.0
C337 C 0.05327 0.37773 0.4157 0.0
C338 C 0.04694 0.38974 0.57245 0.0
C339 C 0.05652 0.35909 0.3856 0.0
C340 C 0.03114 0.45908 0.71925 0.0
C341 C 0.03829 0.44382 0.68439 0.0
C342 C 0.05051 0.43654 0.52239 0.0
C343 C 0.06096 0.37984 0.47572 0.0
C344 C 0.0548 0.39706 0.5121 0.0
C345 C 0.03559 0.44595 0.62003 0.0
C346 C 0.04251 0.42921 0.58286 0.0
H347 H 0.08554 0.33329 0.49645 0.0
H348 H 0.07981 0.36557 0.5487 0.0
H349 H 0.06256 0.42674 0.441 0.0
H350 H 0.01131 0.4929 0.6031 0.0
H351 H 0.02292 0.46589 0.5426 0.0
C352 C 0.80629 0.99198 0.11 0.0
C353 C 0.7995 0.01337 0.10657 0.0
C354 C 0.82639 0.99119 0.08712 0.0
C355 C 0.87995 0.02616 0.0569 0.0
H356 H 0.88591 0.98156 0.94629 0.0
C357 C 0.96143 0.00587 0.99911 0.0
C358 C 0.96613 0.00755 0.93621 0.0
C359 C 0.94079 0.00617 0.01859 0.0
C360 C 0.88444 0.99411 0.97703 0.0
H361 H 0.80836 0.05069 0.0772 0.0
H362 H 0.84383 0.0494 0.0384 0.0
H363 H 0.85023 0.98322 0.98293 0.0
H364 H 0.95288 0.01003 0.84441 0.0
H365 H 0.91648 0.00996 0.87878 0.0
H366 H 0.91415 0.03678 0.0519 0.0
C367 C 0.8335 0.03326 0.05835 0.0
C368 C 0.8641 0.99497 0.99821 0.0
C369 C 0.81323 0.03399 0.08026 0.0
C370 C 0.94965 0.00876 0.89319 0.0
C371 C 0.92888 0.00867 0.9128 0.0
C372 C 0.90029 0.02501 0.0366 0.0
C373 C 0.84021 0.01183 0.06133 0.0
C374 C 0.86169 0.01103 0.03829 0.0
C375 C 0.92436 0.00774 0.97563 0.0
C376 C 0.90272 0.00898 0.9965 0.0
H377 H 0.7959 0.97581 0.12958 0.0
H378 H 0.83126 0.97448 0.09031 0.0
H379 H 0.87853 0.0386 0.08802 0.0
H380 H 0.97383 0.00487 0.03328 0.0
H381 H 0.93765 0.00519 0.06733 0.0
C382 C 0.59192 0.85109 0.30718 0.0
C383 C 0.57855 0.83134 0.33918 0.0
C384 C 0.58336 0.86947 0.27684 0.0
C385 C 0.53252 0.87894 0.2047 0.0
H386 H 0.56507 0.94233 0.16496 0.0
C387 C 0.50288 0.9514 0.03798 0.0
C388 C 0.51792 0.96388 0.99339 0.0
C389 C 0.50896 0.93596 0.08608 0.0
C390 C 0.55582 0.92467 0.17558 0.0
H391 H 0.54598 0.81623 0.36908 0.0
H392 H 0.53094 0.84884 0.31783 0.0
H393 H 0.57763 0.91568 0.24558 0.0
H394 H 0.55106 0.96996 0.96386 0.0
H395 H 0.56172 0.94316 0.04811 0.0
H396 H 0.51069 0.88814 0.1345 0.0
C397 C 0.54804 0.84983 0.31473 0.0
C398 C 0.56301 0.90935 0.22177 0.0
C399 C 0.55666 0.83131 0.34501 0.0
C400 C 0.53909 0.96046 0.99736 0.0
C401 C 0.54524 0.94531 0.04591 0.0
C402 C 0.52518 0.89439 0.15904 0.0
C403 C 0.56116 0.86867 0.27801 0.0
C404 C 0.55177 0.88607 0.23592 0.0
C405 C 0.53029 0.93301 0.09103 0.0
C406 C 0.53704 0.91722 0.14298 0.0
H407 H 0.60887 0.85152 0.30195 0.0
H408 H 0.59404 0.88347 0.24889 0.0
H409 H 0.52356 0.8611 0.21339 0.0
H410 H 0.48646 0.95376 0.036 0.0
H411 H 0.49711 0.92674 0.12024 0.0
C412 C 0.70922 0.45144 0.13051 0.0
C413 C 0.72709 0.45516 0.09132 0.0
C414 C 0.69002 0.45724 0.10864 0.0
C415 C 0.66007 0.46946 0.96568 0.0
H416 H 0.62743 0.49697 0.07259 0.0
C417 C 0.58295 0.50378 0.88895 0.0
C418 C 0.56584 0.49711 0.93123 0.0
C419 C 0.60327 0.49958 0.90575 0.0
C420 C 0.63631 0.48918 0.04232 0.0
H421 H 0.73888 0.46802 0.9985 0.0
H422 H 0.70536 0.47833 0.96034 0.0
H423 H 0.66163 0.48781 0.10711 0.0
H424 H 0.55641 0.48064 0.0237 0.0
H425 H 0.5917 0.47341 0.05293 0.0
H426 H 0.6346 0.47093 0.90087 0.0
C427 C 0.70608 0.47056 0.00775 0.0
C428 C 0.65588 0.48386 0.06216 0.0
C429 C 0.72529 0.46466 0.02961 0.0
C430 C 0.56933 0.48611 0.99026 0.0
C431 C 0.58958 0.48207 0.00713 0.0
C432 C 0.64049 0.47491 0.94569 0.0
C433 C 0.68825 0.46703 0.04711 0.0
C434 C 0.66787 0.47363 0.02449 0.0
C435 C 0.6068 0.48883 0.96524 0.0
C436 C 0.62827 0.48451 0.9842 0.0
H437 H 0.71003 0.44383 0.17804 0.0
H438 H 0.67647 0.45384 0.13992 0.0
H439 H 0.66881 0.4614 0.93571 0.0
H440 H 0.58062 0.51222 0.84304 0.0
H441 H 0.61628 0.50504 0.8726 0.0
C442 C 0.95481 0.66835 0.18815 0.0
C443 C 0.96277 0.67197 0.24707 0.0
C444 C 0.95743 0.64878 0.16194 0.0
C445 C 0.99291 0.60612 0.17159 0.0
H446 H 0.95327 0.57843 0.05261 0.0
C447 C 0.00747 0.52953 0.0496 0.0
C448 C 0.00437 0.53159 0.98568 0.0
C449 C 0.00094 0.54506 0.08453 0.0
C450 C 0.96454 0.5861 0.08545 0.0
H451 H 0.97843 0.65702 0.32645 0.0
H452 H 0.98255 0.62225 0.28131 0.0
H453 H 0.94317 0.60676 0.11219 0.0
H454 H 0.99207 0.55153 0.90807 0.0
H455 H 0.9803 0.57865 0.96934 0.0
H456 H 0.01422 0.58534 0.14484 0.0
C457 C 0.97475 0.63497 0.25468 0.0
C458 C 0.95878 0.60235 0.11969 0.0
C459 C 0.97217 0.65471 0.28094 0.0
C460 C 0.99445 0.54942 0.9573 0.0
C461 C 0.9877 0.56488 0.99242 0.0
C462 C -0.00143 0.58971 0.13779 0.0
C463 C 0.96792 0.63209 0.19412 0.0
C464 C 0.97302 0.61288 0.16256 0.0
C465 C 0.99101 0.56294 0.05642 0.0
C466 C 0.98458 0.57975 0.09375 0.0
H467 H 0.94721 0.68119 0.16121 0.0
H468 H 0.9521 0.64739 0.11517 0.0
H469 H 0.00448 0.61411 0.20321 0.0
H470 H 0.01508 0.51594 0.07276 0.0
H471 H 0.00354 0.54297 0.13373 0.0
C472 C 0.03461 0.2504 0.48415 0.0
C473 C 0.05445 0.25538 0.45343 0.0
C474 C 0.02786 0.22893 0.52091 0.0
C475 C 0.01377 0.17555 0.55798 0.0
H476 H 0.05298 0.1532 0.67773 0.0
C477 C 0.00594 0.07917 0.67317 0.0
C478 C 0.01103 0.0761 0.73594 0.0
C479 C 0.00838 0.10173 0.64082 0.0
C480 C 0.04179 0.15929 0.64481 0.0
H481 H 0.08304 0.24235 0.43782 0.0
H482 H 0.07141 0.20496 0.50299 0.0
H483 H 0.06354 0.19178 0.61793 0.0
H484 H 0.02078 0.09418 0.81519 0.0
H485 H 0.02523 0.13326 0.75869 0.0
H486 H 0.99218 0.14273 0.58429 0.0
C487 C 0.06104 0.21755 0.49834 0.0
C488 C 0.0479 0.18126 0.61038 0.0
C489 C 0.06764 0.23882 0.46096 0.0
C490 C 0.01724 0.09592 0.76651 0.0
C491 C 0.01975 0.11833 0.73428 0.0
C492 C 0.00774 0.15337 0.59199 0.0
C493 C 0.04103 0.21234 0.5282 0.0
C494 C 0.034 0.18953 0.56649 0.0
C495 C 0.01597 0.12144 0.67084 0.0
C496 C 0.02174 0.14508 0.63566 0.0
H497 H 0.02414 0.26289 0.47859 0.0
H498 H 0.01242 0.22532 0.54386 0.0
H499 H 0.00286 0.18154 0.52401 0.0
H500 H 0.00106 0.06423 0.64847 0.0
H501 H 0.0054 0.10372 0.5918 0.0
C502 C 0.30554 0.92969 0.5859 0.0
C503 C 0.29441 0.94538 0.60731 0.0
C504 C 0.32211 0.92222 0.62052 0.0
C505 C 0.3505 0.92533 0.77162 0.0
H506 H 0.40102 0.93335 0.66918 0.0
C507 C 0.43475 0.96719 0.84041 0.0
C508 C 0.45258 0.95969 0.81966 0.0
C509 C 0.41406 0.95658 0.82526 0.0
C510 C 0.38702 0.93044 0.69863 0.0
H511 H 0.29096 0.96443 0.68323 0.0
H512 H 0.32003 0.95193 0.74292 0.0
H513 H 0.36608 0.93037 0.62167 0.0
H514 H 0.46272 0.9343 0.76993 0.0
H515 H 0.42635 0.91596 0.74228 0.0
H516 H 0.37191 0.9272 0.8482 0.0
C517 C 0.31582 0.9449 0.70015 0.0
C518 C 0.36689 0.92869 0.67136 0.0
C519 C 0.29914 0.95216 0.66581 0.0
C520 C 0.44926 0.94045 0.78646 0.0
C521 C 0.42849 0.93001 0.77051 0.0
C522 C 0.37069 0.92731 0.79884 0.0
C523 C 0.32804 0.93052 0.67693 0.0
C524 C 0.34846 0.92706 0.70726 0.0
C525 C 0.41074 0.93841 0.78844 0.0
C526 C 0.38922 0.93079 0.76232 0.0
H527 H 0.302 0.92394 0.54124 0.0
H528 H 0.33086 0.91074 0.60184 0.0
H529 H 0.3366 0.92354 0.80079 0.0
H530 H 0.43682 0.98184 0.86661 0.0
H531 H 0.40075 0.96362 0.83924 0.0
C532 C 0.43413 0.24395 0.44838 0.0
C533 C 0.42359 0.24323 0.39151 0.0
C534 C 0.43187 0.26062 0.48581 0.0
C535 C 0.4261 0.32071 0.45868 0.0
H536 H 0.44057 0.31749 0.63165 0.0
C537 C 0.48673 0.39285 0.55199 0.0
C538 C 0.48415 0.39819 0.6115 0.0
C539 C 0.47268 0.37431 0.5301 0.0
C540 C 0.43615 0.31882 0.58358 0.0
H541 H 0.39999 0.25733 0.33386 0.0
H542 H 0.39629 0.28685 0.39923 0.0
H543 H 0.42367 0.28197 0.58987 0.0
H544 H 0.46493 0.38808 0.69504 0.0
H545 H 0.44019 0.356 0.65632 0.0
H546 H 0.43907 0.35743 0.45201 0.0
C547 C 0.40661 0.27468 0.41407 0.0
C548 C 0.42656 0.29842 0.55958 0.0
C549 C 0.40877 0.25782 0.3766 0.0
C550 C 0.46721 0.38458 0.64865 0.0
C551 C 0.45311 0.36608 0.62668 0.0
C552 C 0.43554 0.34111 0.48275 0.0
C553 C 0.41911 0.2771 0.46725 0.0
C554 C 0.42253 0.29895 0.49622 0.0
C555 C 0.45569 0.36072 0.56715 0.0
C556 C 0.44169 0.34018 0.54474 0.0
H557 H 0.44586 0.23327 0.46154 0.0
H558 H 0.44189 0.26201 0.52612 0.0
H559 H 0.42329 0.32181 0.40963 0.0
H560 H 0.49947 0.40313 0.52204 0.0
H561 H 0.47542 0.37035 0.48446 0.0
C562 C 0.22645 0.56872 0.6728 0.0
C563 C 0.23146 0.5783 0.61147 0.0
C564 C 0.20982 0.57475 0.70354 0.0
C565 C 0.15908 0.59249 0.66436 0.0
H566 H 0.15368 0.58768 0.84155 0.0
C567 C 0.07613 0.57365 0.77538 0.0
C568 C 0.07324 0.55351 0.81913 0.0
C569 C 0.09679 0.58575 0.75751 0.0
C570 C 0.15498 0.58928 0.79194 0.0
H571 H 0.22444 0.60335 0.53616 0.0
H572 H 0.19556 0.61418 0.59012 0.0
H573 H 0.18909 0.59296 0.79474 0.0
H574 H 0.08961 0.53171 0.88305 0.0
H575 H 0.12539 0.55255 0.85177 0.0
H576 H 0.125 0.58759 0.66152 0.0
C577 C 0.20412 0.60158 0.61401 0.0
C578 C 0.17524 0.59225 0.76514 0.0
C579 C 0.22067 0.59543 0.58315 0.0
C580 C 0.0913 0.54698 0.84856 0.0
C581 C 0.11187 0.55912 0.83104 0.0
C582 C 0.13888 0.58959 0.69109 0.0
C583 C 0.1979 0.59059 0.67367 0.0
C584 C 0.17742 0.59288 0.70122 0.0
C585 C 0.11488 0.57802 0.78349 0.0
C586 C 0.13649 0.58694 0.75534 0.0
H587 H 0.23437 0.55533 0.69564 0.0
H588 H 0.20536 0.56571 0.74915 0.0
H589 H 0.16005 0.59264 0.61508 0.0
H590 H 0.06252 0.57918 0.75209 0.0
H591 H 0.09862 0.60045 0.72127 0.0
C592 C -0.0029 0.76535 0.17798 0.0
C593 C 0.97631 0.75912 0.20303 0.0
C594 C 0.00435 0.78772 0.14588 0.0
C595 C 0.01164 0.83375 0.0568 0.0
H596 H 0.99242 0.88344 0.12581 0.0
C597 C -0.00453 0.92921 0.96624 0.0
C598 C 0.01555 0.94253 0.94625 0.0
C599 C 0.99386 0.90738 1.00101 0.0
C600 C -0.00197 0.86974 0.10641 0.0
H601 H 0.94629 0.77029 0.21094 0.0
H602 H 0.9586 0.80894 0.15352 0.0
H603 H 0.98326 0.84347 0.17776 0.0
H604 H 0.04973 0.94359 0.94637 0.0
H605 H 0.04678 0.90464 0.00677 0.0
H606 H 0.02625 0.8604 0.98494 0.0
C607 C 0.96961 0.79705 0.16021 0.0
C608 C 0.99265 0.84686 0.1357 0.0
C609 C 0.96248 0.7749 0.19255 0.0
C610 C 0.03408 0.93364 0.96171 0.0
C611 C 0.03241 0.91144 0.99575 0.0
C612 C 0.0172 0.85682 0.02764 0.0
C613 C 0.99083 0.804 0.13833 0.0
C614 C -0.00124 0.82849 0.11016 0.0
C615 C 0.01225 0.89826 0.01578 0.0
C616 C 0.00986 0.87481 0.05139 0.0
H617 H 0.00803 0.7534 0.18591 0.0
H618 H 0.02076 0.79258 0.12943 0.0
H619 H 0.01659 0.81996 0.03614 0.0
H620 H 0.98093 0.93568 0.95515 0.0
H621 H 0.97813 0.89741 0.01555 0.0
C622 C 0.70598 0.02277 0.07027 0.0
C623 C 0.72747 0.03469 0.06969 0.0
C624 C 0.69067 0.0325 0.03597 0.0
C625 C 0.66102 0.06567 0.99594 0.0
H626 H 0.66165 0.07202 0.81782 0.0
C627 C 0.58275 0.06469 0.87128 0.0
C628 C 0.57883 0.04636 0.83489 0.0
C629 C 0.60372 0.07427 0.88745 0.0
C630 C 0.66135 0.07072 0.86752 0.0
H631 H 0.74986 0.06578 0.02979 0.0
H632 H 0.72279 0.08251 0.96733 0.0
H633 H 0.69406 0.06659 0.87507 0.0
H634 H 0.59395 0.02599 0.78014 0.0
H635 H 0.63015 0.04211 0.80934 0.0
H636 H 0.6281 0.06779 0.98967 0.0
C637 C 0.71801 0.06581 0.99593 0.0
C638 C 0.67994 0.06779 0.90012 0.0
C639 C 0.73344 0.05617 0.03129 0.0
C640 C 0.59636 0.03972 0.8094 0.0
C641 C 0.61725 0.04924 0.82558 0.0
C642 C 0.64254 0.06866 0.96358 0.0
C643 C 0.69644 0.05422 0.99925 0.0
C644 C 0.6795 0.06401 0.96462 0.0
C645 C 0.6211 0.06568 0.86755 0.0
C646 C 0.64213 0.06993 0.89911 0.0
H647 H 0.70089 0.00584 0.09756 0.0
H648 H 0.67421 0.02293 0.03796 0.0
H649 H 0.6604 0.06293 0.04577 0.0
H650 H 0.56962 0.07045 0.89102 0.0
H651 H 0.60619 0.08727 0.91887 0.0
C652 C 0.62187 0.75386 0.26492 0.0
C653 C 0.60688 0.76851 0.26039 0.0
C654 C 0.62238 0.73887 0.22089 0.0
C655 C 0.59747 0.72072 0.07438 0.0
H656 H 0.58842 0.65886 0.16827 0.0
C657 C 0.53572 0.64282 0.00895 0.0
C658 C 0.53917 0.62003 0.02555 0.0
C659 C 0.55071 0.66203 0.0242 0.0
C660 C 0.59139 0.67589 0.14063 0.0
H661 H 0.58222 0.78061 0.20283 0.0
H662 H 0.58308 0.75467 0.12674 0.0
H663 H 0.60519 0.69247 0.2167 0.0
H664 H 0.56159 0.59943 0.06689 0.0
H665 H 0.58786 0.63295 0.0931 0.0
H666 H 0.58244 0.704 0.99925 0.0
C667 C 0.5946 0.75476 0.16371 0.0
C668 C 0.60112 0.69525 0.16848 0.0
C669 C 0.59408 0.76969 0.20763 0.0
C670 C 0.55831 0.61683 0.05498 0.0
C671 C 0.57338 0.63601 0.06971 0.0
C672 C 0.58772 0.70128 0.04639 0.0
C673 C 0.60789 0.73828 0.17168 0.0
C674 C 0.60338 0.71798 0.1366 0.0
C675 C 0.56952 0.6588 0.05582 0.0
C676 C 0.58374 0.67877 0.08016 0.0
H677 H 0.63225 0.75293 0.30448 0.0
H678 H 0.63309 0.72665 0.22758 0.0
H679 H 0.59929 0.73801 0.04838 0.0
H680 H 0.52109 0.64574 0.98617 0.0
H681 H 0.54706 0.67931 0.01364 0.0
C682 C 0.80418 0.40632 0.08951 0.0
C683 C 0.79335 0.42375 0.06343 0.0
C684 C 0.82083 0.40091 0.05744 0.0
C685 C 0.85047 0.41365 0.90703 0.0
H686 H 0.90019 0.41736 0.01267 0.0
C687 C 0.93436 0.46164 0.8297 0.0
C688 C 0.95247 0.4549 0.85822 0.0
C689 C 0.91383 0.44904 0.84604 0.0
C690 C 0.88648 0.41564 0.98244 0.0
H691 H 0.79029 0.4479 0.98173 0.0
H692 H 0.81953 0.43884 0.92611 0.0
H693 H 0.86481 0.41064 0.05809 0.0
H694 H 0.96334 0.42851 0.92259 0.0
H695 H 0.92732 0.40644 0.95139 0.0
H696 H 0.87251 0.42017 0.83119 0.0
C697 C 0.81505 0.42901 0.97087 0.0
C698 C 0.86608 0.41177 0.00858 0.0
C699 C 0.79828 0.43429 1.0028 0.0
C700 C 0.94969 0.43423 0.90006 0.0
C701 C 0.92907 0.42165 0.91674 0.0
C702 C 0.87093 0.41758 0.88083 0.0
C703 C 0.82712 0.41299 0.99887 0.0
C704 C 0.84789 0.4117 0.97117 0.0
C705 C 0.9109 0.42942 0.89147 0.0
C706 C 0.88921 0.4196 0.91825 0.0
H707 H 0.80046 0.3977 0.13594 0.0
H708 H 0.82949 0.38811 0.07981 0.0
H709 H 0.83676 0.41323 0.87695 0.0
H710 H 0.93594 0.47733 0.79668 0.0
H711 H 0.90025 0.45568 0.826 0.0
C712 C 0.06339 0.29318 0.20139 0.0
C713 C 0.07913 0.29432 0.24704 0.0
C714 C 0.0649 0.28102 0.15143 0.0
C715 C 0.09962 0.24766 0.07761 0.0
H716 H 0.04579 0.20385 0.06584 0.0
C717 C 0.09406 0.15433 0.01543 0.0
C718 C 0.07635 0.14424 0.9819 0.0
C719 C 0.09551 0.17656 0.03322 0.0
C720 C 0.06088 0.21616 0.06737 0.0
H721 H 0.1096 0.28557 0.27403 0.0
H722 H 0.11243 0.26457 0.18727 0.0
H723 H 0.04693 0.23767 0.11896 0.0
H724 H 0.04659 0.15007 0.93923 0.0
H725 H 0.04928 0.18895 0.96954 0.0
H726 H 0.11367 0.22536 0.0282 0.0
C727 C 0.09898 0.27312 0.18896 0.0
C728 C 0.06154 0.23571 0.09777 0.0
C729 C 0.09746 0.28529 0.23869 0.0
C730 C 0.06052 0.15733 0.96468 0.0
C731 C 0.06195 0.17955 0.9826 0.0
C732 C 0.09896 0.22803 0.04729 0.0
C733 C 0.08212 0.26966 0.14663 0.0
C734 C 0.081 0.25144 0.10469 0.0
C735 C 0.07928 0.18929 0.01804 0.0
C736 C 0.07967 0.21172 0.04311 0.0
H737 H 0.04894 0.29967 0.20743 0.0
H738 H 0.05183 0.27913 0.11899 0.0
H739 H 0.11483 0.25955 0.0813 0.0
H740 H 0.10669 0.14489 0.02879 0.0
H741 H 0.10899 0.18338 0.06094 0.0
C742 C 0.29136 0.01734 0.39952 0.0
C743 C 0.28414 0.99296 0.40923 0.0
C744 C 0.30371 0.02793 0.3474 0.0
C745 C 0.32033 0.01921 0.19347 0.0
H746 H 0.37604 0.05388 0.23504 0.0
C747 C 0.39438 0.02887 0.04036 0.0
C748 C 0.41119 0.04851 0.03994 0.0
C749 C 0.37655 0.02601 0.07864 0.0
C750 C 0.36044 0.04478 0.22196 0.0
H751 H 0.28305 0.96061 0.37154 0.0
H752 H 0.30408 0.97911 0.27952 0.0
H753 H 0.34793 0.04223 0.31307 0.0
H754 H 0.42185 0.08112 0.07779 0.0
H755 H 0.39034 0.07658 0.14292 0.0
H756 H 0.33276 0.02151 0.10255 0.0
C757 C 0.3003 0.99007 0.31198 0.0
C758 C 0.34432 0.03805 0.2669 0.0
C759 C 0.28833 0.97948 0.36453 0.0
C760 C 0.4092 0.0658 0.07671 0.0
C761 C 0.39122 0.06304 0.11471 0.0
C762 C 0.33633 0.02621 0.14824 0.0
C763 C 0.30867 0.0143 0.30383 0.0
C764 C 0.32432 0.02464 0.25356 0.0
C765 C 0.37485 0.04286 0.11712 0.0
C766 C 0.35684 0.03846 0.16238 0.0
H767 H 0.2885 0.028 0.43391 0.0
H768 H 0.30994 0.04664 0.3421 0.0
H769 H 0.30496 0.00907 0.18186 0.0
H770 H 0.39512 0.01542 0.01173 0.0
H771 H 0.36448 0.01009 0.07954 0.0
C772 C 0.43885 0.25597 0.14434 0.0
C773 C 0.4548 0.25035 0.18523 0.0
C774 C 0.44325 0.27575 0.10002 0.0
C775 C 0.45111 0.32747 0.05436 0.0
H776 H 0.50624 0.35408 0.97649 0.0
C777 C 0.47628 0.42602 0.9633 0.0
C778 C 0.48932 0.43269 0.91047 0.0
C779 C 0.47127 0.40257 0.99002 0.0
C780 C 0.49063 0.34683 0.9972 0.0
H781 H 0.48812 0.26011 0.20979 0.0
H782 H 0.49591 0.29479 0.13285 0.0
H783 H 0.49958 0.31419 0.02978 0.0
H784 H 0.5066 0.41972 0.84275 0.0
H785 H 0.49752 0.37891 0.88847 0.0
H786 H 0.44206 0.35995 0.02138 0.0
C787 C 0.48005 0.2838 0.134 0.0
C788 C 0.48689 0.32399 0.02841 0.0
C789 C 0.47566 0.26383 0.17799 0.0
C790 C 0.49668 0.41525 0.88386 0.0
C791 C 0.49158 0.39182 0.91033 0.0
C792 C 0.45481 0.35024 0.023 0.0
C793 C 0.46365 0.29058 0.09624 0.0
C794 C 0.46716 0.31407 0.05805 0.0
C795 C 0.47908 0.38517 0.96431 0.0
C796 C 0.47471 0.36037 0.99466 0.0
H797 H 0.42259 0.24593 0.14943 0.0
H798 H 0.43036 0.28004 0.07074 0.0
H799 H 0.43582 0.32068 0.07736 0.0
H800 H 0.47044 0.43901 0.98513 0.0
H801 H 0.46181 0.39821 0.03197 0.0
C802 C 0.24111 0.51659 0.42139 0.0
C803 C 0.24218 0.54018 0.42846 0.0
C804 C 0.23048 0.50721 0.37122 0.0
C805 C 0.20895 0.52262 0.21699 0.0
H806 H 0.16517 0.46676 0.26036 0.0
C807 C 0.13519 0.49841 0.06723 0.0
C808 C 0.12556 0.47477 0.06583 0.0
C809 C 0.15267 0.50461 0.10511 0.0
C810 C 0.1776 0.48204 0.24695 0.0
H811 H 0.23398 0.57274 0.38716 0.0
H812 H 0.21551 0.55642 0.29933 0.0
H813 H 0.1905 0.48105 0.33788 0.0
H814 H 0.1274 0.43904 0.10116 0.0
H815 H 0.15836 0.44986 0.16649 0.0
H816 H 0.1959 0.52386 0.12632 0.0
C817 C 0.22287 0.54516 0.3325 0.0
C818 C 0.19211 0.49027 0.29151 0.0
C819 C 0.23329 0.55447 0.38296 0.0
C820 C 0.13446 0.45741 0.10117 0.0
C821 C 0.15206 0.46363 0.13906 0.0
C822 C 0.19457 0.51429 0.17226 0.0
C823 C 0.22094 0.52132 0.32683 0.0
C824 C 0.20757 0.51097 0.2774 0.0
C825 C 0.16114 0.48734 0.1423 0.0
C826 C 0.17833 0.49426 0.18712 0.0
H827 H 0.24769 0.50514 0.45604 0.0
H828 H 0.22935 0.48881 0.36777 0.0
H829 H 0.22091 0.53844 0.20463 0.0
H830 H 0.12899 0.51222 0.03968 0.0
H831 H 0.15902 0.52303 0.1068 0.0
C832 C 0.93188 0.73233 0.41331 0.0
C833 C 0.94987 0.7223 0.40867 0.0
C834 C 0.9304 0.7459 0.4601 0.0
C835 C 0.96836 0.78384 0.55005 0.0
H836 H 0.91663 0.80004 0.60566 0.0
C837 C 0.97157 0.86446 0.67627 0.0
C838 C 0.95761 0.87933 0.65407 0.0
C839 C 0.96913 0.84205 0.65894 0.0
C840 C 0.93122 0.79572 0.59042 0.0
H841 H 0.97925 0.71641 0.45272 0.0
H842 H 0.97625 0.73913 0.53658 0.0
H843 H 0.91425 0.76416 0.55892 0.0
H844 H 0.92975 0.88181 0.5971 0.0
H845 H 0.92542 0.84264 0.5673 0.0
H846 H 0.98527 0.81557 0.58036 0.0
C847 C 0.96354 0.73716 0.50304 0.0
C848 C 0.92988 0.77513 0.56367 0.0
C849 C 0.96507 0.72369 0.45582 0.0
C850 C 0.94068 0.87082 0.61567 0.0
C851 C 0.93818 0.84832 0.59857 0.0
C852 C 0.9697 0.80427 0.57719 0.0
C853 C 0.9469 0.74968 0.50345 0.0
C854 C 0.94839 0.76918 0.54168 0.0
C855 C 0.95257 0.83379 0.61924 0.0
C856 C 0.95113 0.81077 0.59642 0.0
H857 H 0.92015 0.73185 0.3768 0.0
H858 H 0.91737 0.75522 0.45838 0.0
H859 H 0.98297 0.78028 0.53265 0.0
H860 H 0.98449 0.87016 0.70706 0.0
H861 H 0.9803 0.83118 0.67644 0.0
C862 C 0.72273 0.97311 0.27173 0.0
C863 C 0.74188 0.98993 0.26884 0.0
C864 C 0.7125 0.96424 0.32801 0.0
C865 C 0.7055 0.9834 0.47534 0.0
H866 H 0.67186 0.92047 0.51421 0.0
C867 C 0.64377 0.96066 0.67351 0.0
C868 C 0.62365 0.94769 0.6591 0.0
C869 C 0.6615 0.96261 0.63526 0.0
C870 C 0.68113 0.93813 0.50398 0.0
H871 H 0.76605 0.00984 0.32226 0.0
H872 H 0.74803 0.99437 0.42154 0.0
H873 H 0.69803 0.92911 0.43024 0.0
H874 H 0.60652 0.92614 0.59401 0.0
H875 H 0.6373 0.92972 0.52697 0.0
H876 H 0.68797 0.99277 0.54683 0.0
C877 C 0.74094 0.98807 0.3801 0.0
C878 C 0.69618 0.94305 0.45607 0.0
C879 C 0.75133 0.99678 0.32357 0.0
C880 C 0.62184 0.93603 0.6068 0.0
C881 C 0.63954 0.93805 0.56842 0.0
C882 C 0.6904 0.97852 0.52307 0.0
C883 C 0.72111 0.97218 0.38264 0.0
C884 C 0.7081 0.96589 0.44012 0.0
C885 C 0.65951 0.95171 0.58156 0.0
C886 C 0.6776 0.95597 0.53686 0.0
H887 H 0.71517 0.96759 0.22997 0.0
H888 H 0.69716 0.95225 0.32818 0.0
H889 H 0.71421 1.00125 0.46371 0.0
H890 H 0.64574 0.96955 0.71406 0.0
H891 H 0.67671 0.97294 0.64731 0.0
C892 C 0.60314 0.74675 0.50461 0.0
C893 C 0.58662 0.75779 0.48042 0.0
C894 C 0.59872 0.72703 0.54891 0.0
C895 C 0.55983 0.69054 0.66152 0.0
H896 H 0.57965 0.63908 0.60355 0.0
C897 C 0.52861 0.59399 0.76567 0.0
C898 C 0.54197 0.57775 0.76494 0.0
C899 C 0.53512 0.61711 0.73768 0.0
C900 C 0.57434 0.65323 0.62153 0.0
H901 H 0.55286 0.75804 0.48762 0.0
H902 H 0.54515 0.72365 0.5666 0.0
H903 H 0.58923 0.6781 0.54695 0.0
H904 H 0.57306 0.57333 0.73653 0.0
H905 H 0.58486 0.61383 0.68995 0.0
H906 H 0.54521 0.66579 0.73678 0.0
C907 C 0.5615 0.73026 0.55068 0.0
C908 C 0.57977 0.67566 0.58869 0.0
C909 C 0.56592 0.75001 0.50577 0.0
C910 C 0.5623 0.58535 0.73732 0.0
C911 C 0.56898 0.6086 0.71017 0.0
C912 C 0.55467 0.66811 0.69514 0.0
C913 C 0.57771 0.71799 0.57056 0.0
C914 C 0.57249 0.69454 0.60802 0.0
C915 C 0.55533 0.62475 0.70888 0.0
C916 C 0.56171 0.64904 0.67533 0.0
H917 H 0.61928 0.75251 0.48628 0.0
H918 H 0.61159 0.71818 0.56417 0.0
H919 H 0.55408 0.70481 0.6776 0.0
H920 H 0.51276 0.58868 0.78612 0.0
H921 H 0.52394 0.62872 0.737 0.0
C922 C 0.78529 0.48349 0.26067 0.0
C923 C 0.78502 0.46032 0.25059 0.0
C924 C 0.79762 0.49313 0.30798 0.0
C925 C 0.8468 0.48702 0.38932 0.0
H926 H 0.83152 0.52862 0.49632 0.0
C927 C 0.91084 0.54306 0.522 0.0
C928 C 0.90725 0.54124 0.58565 0.0
C929 C 0.89428 0.53482 0.48305 0.0
C930 C 0.83594 0.51699 0.46674 0.0
H931 H 0.79595 0.42853 0.2854 0.0
H932 H 0.81754 0.44539 0.36756 0.0
H933 H 0.8044 0.50939 0.42848 0.0
H934 H 0.88308 0.53045 0.65775 0.0
H935 H 0.85401 0.51635 0.58919 0.0
H936 H 0.87826 0.49461 0.42675 0.0
C937 C 0.80852 0.4562 0.33828 0.0
C938 C 0.82049 0.50609 0.42787 0.0
C939 C 0.79616 0.44656 0.29129 0.0
C940 C 0.88636 0.53228 0.60889 0.0
C941 C 0.86971 0.52415 0.56971 0.0
C942 C 0.86222 0.49808 0.42744 0.0
C943 C 0.80994 0.4798 0.34584 0.0
C944 C 0.82579 0.49094 0.3889 0.0
C945 C 0.87369 0.52471 0.50672 0.0
C946 C 0.85701 0.51324 0.46639 0.0
H947 H 0.77702 0.49461 0.22982 0.0
H948 H 0.79848 0.51139 0.31258 0.0
H949 H 0.85145 0.4757 0.35922 0.0
H950 H 0.92662 0.55034 0.50242 0.0
H951 H 0.89769 0.53589 0.43445 0.0
loop_
_geom_bond_atom_site_label_1
_geom_bond_atom_site_label_2
_geom_bond_distance
_geom_bond_site_symmetry_2
_ccdc_geom_bond_type
H0 C3 0.931 . S
H1 C6 0.928 1_556 S
H2 C8 0.930 . S
C3 H0 0.931 . S
C3 C4 1.413 . S
C3 C5 1.360 . S
C4 C3 1.413 . S
C4 C8 1.429 . S
C5 C3 1.360 . S
C5 C6 1.372 . S
C6 H1 0.928 1_554 S
C6 C5 1.372 . S
C6 C7 1.404 . S
C7 C6 1.404 . S
C7 C8 1.391 . S
C8 H2 0.930 . S
C8 C4 1.429 . S
C8 C7 1.391 . S
H9 C12 0.931 . S
H10 C15 0.928 1_556 S
H11 C17 0.930 . S
C12 H9 0.931 . S
C12 C13 1.413 . S
C12 C14 1.360 . S
C13 C12 1.413 . S
C13 C17 1.429 . S
C14 C12 1.360 . S
C14 C15 1.372 . S
C15 H10 0.928 1_554 S
C15 C14 1.372 . S
C15 C16 1.404 . S
C16 C15 1.404 . S
C16 C17 1.391 . S
C17 H11 0.930 . S
C17 C13 1.429 . S
C17 C16 1.391 . S
H18 C21 0.932 . S
H19 C24 0.928 . S
H20 C26 0.931 . S
C21 H18 0.932 . S
C21 C22 1.414 . S
C21 C23 1.360 1_554 S
C22 C21 1.414 . S
C22 C26 1.431 1_565 S
C23 C21 1.360 1_556 S
C23 C24 1.377 . S
C24 H19 0.928 . S
C24 C23 1.377 . S
C24 C25 1.404 . S
C25 C24 1.404 . S
C25 C26 1.388 1_566 S
C26 H20 0.931 . S
C26 C22 1.431 1_545 S
C26 C25 1.388 1_544 S
H27 C30 0.931 . S
H28 C33 0.928 . S
H29 C35 0.930 . S
C30 H27 0.931 . S
C30 C31 1.413 . S
C30 C32 1.360 . S
C31 C30 1.413 . S
C31 C35 1.429 . S
C32 C30 1.360 . S
C32 C33 1.372 . S
C33 H28 0.928 . S
C33 C32 1.372 . S
C33 C34 1.404 . S
C34 C33 1.404 . S
C34 C35 1.391 . S
C35 H29 0.930 . S
C35 C31 1.429 . S
C35 C34 1.391 . S
H36 C39 0.931 . S
H37 C42 0.928 . S
H38 C44 0.930 . S
C39 H36 0.931 . S
C39 C40 1.413 . S
C39 C41 1.360 . S
C40 C39 1.413 . S
C40 C44 1.429 . S
C41 C39 1.360 . S
C41 C42 1.372 . S
C42 H37 0.928 . S
C42 C41 1.372 . S
C42 C43 1.404 . S
C43 C42 1.404 . S
C43 C44 1.391 . S
C44 H38 0.930 . S
C44 C40 1.429 . S
C44 C43 1.391 . S
H45 C48 0.931 . S
H46 C51 0.928 . S
H47 C53 0.930 . S
C48 H45 0.931 . S
C48 C49 1.413 . S
C48 C50 1.360 . S
C49 C48 1.413 . S
C49 C53 1.429 . S
C50 C48 1.360 . S
C50 C51 1.372 . S
C51 H46 0.928 . S
C51 C50 1.372 . S
C51 C52 1.404 . S
C52 C51 1.404 . S
C52 C53 1.391 . S
C53 H47 0.930 . S
C53 C49 1.429 . S
C53 C52 1.391 . S
H54 C57 0.929 . S
H55 C60 0.928 . S
H56 C62 0.929 . S
C57 H54 0.929 . S
C57 C58 1.413 . S
C57 C59 1.360 . S
C58 C57 1.413 . S
C58 C62 1.427 1_565 S
C59 C57 1.360 . S
C59 C60 1.370 . S
C60 H55 0.928 . S
C60 C59 1.370 . S
C60 C61 1.404 . S
C61 C60 1.404 . S
C61 C62 1.393 1_565 S
C62 H56 0.929 . S
C62 C58 1.427 1_545 S
C62 C61 1.393 1_545 S
H63 C66 0.931 . S
H64 C69 0.928 . S
H65 C71 0.930 . S
C66 H63 0.931 . S
C66 C67 1.413 . S
C66 C68 1.360 . S
C67 C66 1.413 . S
C67 C71 1.429 . S
C68 C66 1.360 . S
C68 C69 1.372 . S
C69 H64 0.928 . S
C69 C68 1.372 . S
C69 C70 1.404 . S
C70 C69 1.404 . S
C70 C71 1.391 . S
C71 H65 0.930 . S
C71 C67 1.429 . S
C71 C70 1.391 . S
Nd72 C74 2.836 1_455 S
Nd72 O92 2.500 1_455 S
Nd72 O93 2.492 . S
Nd72 O94 2.487 . S
Nd72 O95 2.682 1_565 S
Nd72 O96 2.410 . S
Nd72 O101 2.431 1_455 S
Nd72 O103 2.424 1_565 S
Nd73 C83 2.836 . S
Nd73 O95 2.414 . S
Nd73 O97 2.424 1_545 S
Nd73 O98 2.500 . S
Nd73 O99 2.492 . S
Nd73 O100 2.487 1_455 S
Nd73 O101 2.678 1_445 S
Nd73 O102 2.410 . S
C74 Nd72 2.836 1_655 S
C74 C75 1.498 . S
C74 O92 1.258 . S
C74 O93 1.239 1_655 S
C75 C74 1.498 . S
C75 C76 1.366 . S
C75 C80 1.407 . S
C76 C75 1.366 . S
C76 C77 1.392 . S
C76 H104 0.930 . S
C77 C76 1.392 . S
C77 C78 1.398 . S
C77 H105 0.929 . S
C78 C77 1.398 . S
C78 C79 1.352 . S
C79 C78 1.352 . S
C79 C80 1.384 . S
C79 H106 0.930 . S
C80 C75 1.407 . S
C80 C79 1.384 . S
C80 H107 0.929 1_655 S
C81 O94 1.241 . S
C81 O95 1.273 1_565 S
C82 O96 1.251 . S
C82 O97 1.268 . S
C83 Nd73 2.836 . S
C83 C84 1.498 1_556 S
C83 O98 1.258 . S
C83 O99 1.239 . S
C84 C83 1.498 1_554 S
C84 C85 1.366 1_554 S
C84 C89 1.407 . S
C85 C84 1.366 1_556 S
C85 C86 1.392 1_556 S
C85 H108 0.930 . S
C86 C85 1.392 1_554 S
C86 C87 1.398 . S
C86 H109 0.929 . S
C87 C86 1.398 . S
C87 C88 1.352 . S
C88 C87 1.352 . S
C88 C89 1.384 . S
C88 H110 0.930 . S
C89 C84 1.407 . S
C89 C88 1.384 . S
C89 H111 0.929 . S
C90 O100 1.241 . S
C90 O101 1.249 1_545 S
C91 O102 1.251 . S
C91 O103 1.268 . S
O92 Nd72 2.500 1_655 S
O92 C74 1.258 . S
O93 Nd72 2.492 . S
O93 C74 1.239 1_455 S
O94 Nd72 2.487 . S
O94 C81 1.241 . S
O95 Nd72 2.682 1_545 S
O95 Nd73 2.414 . S
O95 C81 1.273 1_545 S
O96 Nd72 2.410 . S
O96 C82 1.251 . S
O97 Nd73 2.424 1_565 S
O97 C82 1.268 . S
O98 Nd73 2.500 . S
O98 C83 1.258 . S
O99 Nd73 2.492 . S
O99 C83 1.239 . S
O100 Nd73 2.487 1_655 S
O100 C90 1.241 . S
O101 Nd72 2.431 1_655 S
O101 Nd73 2.678 1_665 S
O101 C90 1.249 1_565 S
O102 Nd73 2.410 . S
O102 C91 1.251 . S
O103 Nd72 2.424 1_545 S
O103 C91 1.268 . S
H104 C76 0.930 . S
H105 C77 0.929 . S
H106 C79 0.930 . S
H107 C80 0.929 1_455 S
H108 C85 0.930 . S
H109 C86 0.929 . S
H110 C88 0.930 . S
H111 C89 0.929 . S
Nd112 C114 2.836 . S
Nd112 O132 2.500 . S
Nd112 O133 2.492 . S
Nd112 O134 2.487 1_565 S
Nd112 O135 2.682 1_565 S
Nd112 O136 2.410 1_565 S
Nd112 O141 2.414 . S
Nd112 O143 2.424 . S
Nd113 C123 2.836 . S
Nd113 O135 2.414 . S
Nd113 O137 2.424 . S
Nd113 O138 2.500 . S
Nd113 O139 2.489 1_556 S
Nd113 O140 2.487 1_545 S
Nd113 O141 2.682 1_545 S
Nd113 O142 2.410 1_545 S
C114 Nd112 2.836 . S
C114 C115 1.498 . S
C114 O132 1.258 . S
C114 O133 1.239 . S
C115 C114 1.498 . S
C115 C116 1.366 . S
C115 C120 1.407 . S
C116 C115 1.366 . S
C116 C117 1.392 . S
C116 H144 0.930 . S
C117 C116 1.392 . S
C117 C118 1.398 . S
C117 H145 0.929 . S
C118 C117 1.398 . S
C118 C119 1.352 . S
C119 C118 1.352 . S
C119 C120 1.384 . S
C119 H146 0.930 . S
C120 C115 1.407 . S
C120 C119 1.384 . S
C120 H147 0.929 1_565 S
C121 O134 1.241 . S
C121 O135 1.273 . S
C122 O136 1.251 . S
C122 O137 1.268 . S
C123 Nd113 2.836 . S
C123 C124 1.498 1_556 S
C123 O138 1.258 . S
C123 O139 1.238 1_556 S
C124 C123 1.498 1_554 S
C124 C125 1.366 1_554 S
C124 C129 1.407 . S
C125 C124 1.366 1_556 S
C125 C126 1.392 1_556 S
C125 H148 0.930 . S
C126 C125 1.392 1_554 S
C126 C127 1.398 . S
C126 H149 0.929 . S
C127 C126 1.398 . S
C127 C128 1.352 . S
C128 C127 1.352 . S
C128 C129 1.384 . S
C128 H150 0.930 . S
C129 C124 1.407 . S
C129 C128 1.384 . S
C129 H151 0.929 1_545 S
C130 O140 1.241 . S
C130 O141 1.273 . S
C131 O142 1.251 . S
C131 O143 1.268 . S
O132 Nd112 2.500 . S
O132 C114 1.258 . S
O133 Nd112 2.492 . S
O133 C114 1.239 . S
O134 Nd112 2.487 1_545 S
O134 C121 1.241 . S
O135 Nd112 2.682 1_545 S
O135 Nd113 2.414 . S
O135 C121 1.273 . S
O136 Nd112 2.410 1_545 S
O136 C122 1.251 . S
O137 Nd113 2.424 . S
O137 C122 1.268 . S
O138 Nd113 2.500 . S
O138 C123 1.258 . S
O139 Nd113 2.489 1_554 S
O139 C123 1.238 1_554 S
O140 Nd113 2.487 1_565 S
O140 C130 1.241 . S
O141 Nd112 2.414 . S
O141 Nd113 2.682 1_565 S
O141 C130 1.273 . S
O142 Nd113 2.410 1_565 S
O142 C131 1.251 . S
O143 Nd112 2.424 . S
O143 C131 1.268 . S
H144 C116 0.930 . S
H145 C117 0.929 . S
H146 C119 0.930 . S
H147 C120 0.929 1_545 S
H148 C125 0.930 . S
H149 C126 0.929 . S
H150 C128 0.930 . S
H151 C129 0.929 1_565 S
Nd152 C154 2.836 . S
Nd152 O172 2.500 . S
Nd152 O173 2.492 . S
Nd152 O174 2.487 . S
Nd152 O175 2.682 . S
Nd152 O176 2.410 . S
Nd152 O181 2.414 . S
Nd152 O183 2.424 . S
Nd153 C163 2.836 . S
Nd153 O175 2.414 . S
Nd153 O177 2.424 . S
Nd153 O178 2.500 . S
Nd153 O179 2.492 . S
Nd153 O180 2.487 . S
Nd153 O181 2.682 . S
Nd153 O182 2.410 . S
C154 Nd152 2.836 . S
C154 C155 1.498 . S
C154 O172 1.258 . S
C154 O173 1.239 . S
C155 C154 1.498 . S
C155 C156 1.366 . S
C155 C160 1.407 . S
C156 C155 1.366 . S
C156 C157 1.392 . S
C156 H184 0.930 . S
C157 C156 1.392 . S
C157 C158 1.398 . S
C157 H185 0.929 . S
C158 C157 1.398 . S
C158 C159 1.352 1_556 S
C159 C158 1.352 1_554 S
C159 C160 1.385 1_554 S
C159 H186 0.930 . S
C160 C155 1.407 . S
C160 C159 1.385 1_556 S
C160 H187 0.929 1_556 S
C161 O174 1.241 . S
C161 O175 1.273 . S
C162 O176 1.251 . S
C162 O177 1.268 . S
C163 Nd153 2.836 . S
C163 C164 1.498 . S
C163 O178 1.258 . S
C163 O179 1.239 . S
C164 C163 1.498 . S
C164 C165 1.366 . S
C164 C169 1.407 . S
C165 C164 1.366 . S
C165 C166 1.392 . S
C165 H188 0.930 . S
C166 C165 1.392 . S
C166 C167 1.398 . S
C166 H189 0.929 . S
C167 C166 1.398 . S
C167 C168 1.352 . S
C168 C167 1.352 . S
C168 C169 1.384 . S
C168 H190 0.930 . S
C169 C164 1.407 . S
C169 C168 1.384 . S
C169 H191 0.929 . S
C170 O180 1.241 . S
C170 O181 1.273 . S
C171 O182 1.251 . S
C171 O183 1.268 . S
O172 Nd152 2.500 . S
O172 C154 1.258 . S
O173 Nd152 2.492 . S
O173 C154 1.239 . S
O174 Nd152 2.487 . S
O174 C161 1.241 . S
O175 Nd152 2.682 . S
O175 Nd153 2.414 . S
O175 C161 1.273 . S
O176 Nd152 2.410 . S
O176 C162 1.251 . S
O177 Nd153 2.424 . S
O177 C162 1.268 . S
O178 Nd153 2.500 . S
O178 C163 1.258 . S
O179 Nd153 2.492 . S
O179 C163 1.239 . S
O180 Nd153 2.487 . S
O180 C170 1.241 . S
O181 Nd152 2.414 . S
O181 Nd153 2.682 . S
O181 C170 1.273 . S
O182 Nd153 2.410 . S
O182 C171 1.251 . S
O183 Nd152 2.424 . S
O183 C171 1.268 . S
H184 C156 0.930 . S
H185 C157 0.929 . S
H186 C159 0.930 . S
H187 C160 0.929 1_554 S
H188 C165 0.930 . S
H189 C166 0.929 . S
H190 C168 0.930 . S
H191 C169 0.929 . S
Nd192 C194 2.836 1_455 S
Nd192 O212 2.500 1_455 S
Nd192 O213 2.492 1_455 S
Nd192 O214 2.487 . S
Nd192 O215 2.682 . S
Nd192 O216 2.410 1_455 S
Nd192 O221 2.414 . S
Nd192 O223 2.424 . S
Nd193 C203 2.836 . S
Nd193 O215 2.414 . S
Nd193 O217 2.424 1_455 S
Nd193 O218 2.500 . S
Nd193 O219 2.492 . S
Nd193 O220 2.487 . S
Nd193 O221 2.682 . S
Nd193 O222 2.410 . S
C194 Nd192 2.836 1_655 S
C194 C195 1.498 . S
C194 O212 1.258 . S
C194 O213 1.239 . S
C195 C194 1.498 . S
C195 C196 1.366 . S
C195 C200 1.407 . S
C196 C195 1.366 . S
C196 C197 1.392 . S
C196 H224 0.930 . S
C197 C196 1.392 . S
C197 C198 1.398 . S
C197 H225 0.929 . S
C198 C197 1.398 . S
C198 C199 1.352 . S
C199 C198 1.352 . S
C199 C200 1.384 . S
C199 H226 0.930 . S
C200 C195 1.407 . S
C200 C199 1.384 . S
C200 H227 0.929 . S
C201 O214 1.241 . S
C201 O215 1.273 . S
C202 O216 1.251 . S
C202 O217 1.268 . S
C203 Nd193 2.836 . S
C203 C204 1.498 1_556 S
C203 O218 1.258 . S
C203 O219 1.239 . S
C204 C203 1.498 1_554 S
C204 C205 1.366 . S
C204 C209 1.407 . S
C205 C204 1.366 . S
C205 C206 1.392 . S
C205 H228 0.930 1_554 S
C206 C205 1.392 . S
C206 C207 1.398 . S
C206 H229 0.929 . S
C207 C206 1.398 . S
C207 C208 1.352 . S
C208 C207 1.352 . S
C208 C209 1.384 . S
C208 H230 0.930 . S
C209 C204 1.407 . S
C209 C208 1.384 . S
C209 H231 0.929 . S
C210 O220 1.241 . S
C210 O221 1.273 . S
C211 O222 1.251 . S
C211 O223 1.268 . S
O212 Nd192 2.500 1_655 S
O212 C194 1.258 . S
O213 Nd192 2.492 1_655 S
O213 C194 1.239 . S
O214 Nd192 2.487 . S
O214 C201 1.241 . S
O215 Nd192 2.682 . S
O215 Nd193 2.414 . S
O215 C201 1.273 . S
O216 Nd192 2.410 1_655 S
O216 C202 1.251 . S
O217 Nd193 2.424 1_655 S
O217 C202 1.268 . S
O218 Nd193 2.500 . S
O218 C203 1.258 . S
O219 Nd193 2.492 . S
O219 C203 1.239 . S
O220 Nd193 2.487 . S
O220 C210 1.241 . S
O221 Nd192 2.414 . S
O221 Nd193 2.682 . S
O221 C210 1.273 . S
O222 Nd193 2.410 . S
O222 C211 1.251 . S
O223 Nd192 2.424 . S
O223 C211 1.268 . S
H224 C196 0.930 . S
H225 C197 0.929 . S
H226 C199 0.930 . S
H227 C200 0.929 . S
H228 C205 0.930 1_556 S
H229 C206 0.929 . S
H230 C208 0.930 . S
H231 C209 0.929 . S
C232 C233 1.350 1_565 S
C232 C234 1.327 . S
C232 H257 0.950 . S
C233 C232 1.350 1_545 S
C233 C249 1.347 . S
C234 C232 1.327 . S
C234 C253 1.455 . S
C234 H258 0.950 . S
C235 C252 1.574 . S
C235 C254 1.368 1_545 S
C235 H259 0.949 . S
H236 C240 0.949 . S
C237 C238 1.349 1_545 S
C237 C239 1.327 . S
C237 H260 0.950 . S
C238 C237 1.349 1_565 S
C238 C250 1.349 . S
C239 C237 1.327 . S
C239 C255 1.429 1_545 S
C239 H261 0.950 . S
C240 H236 0.949 . S
C240 C248 1.574 . S
C240 C256 1.368 . S
H241 C249 0.950 . S
H242 C247 0.950 . S
H243 C248 0.949 . S
H244 C250 0.950 . S
H245 C251 0.950 . S
H246 C252 0.949 . S
C247 H242 0.950 . S
C247 C249 1.327 . S
C247 C253 1.413 1_545 S
C248 C240 1.574 . S
C248 H243 0.949 . S
C248 C254 1.368 . S
C249 C233 1.347 . S
C249 H241 0.950 . S
C249 C247 1.327 . S
C250 C238 1.349 . S
C250 H244 0.950 . S
C250 C251 1.327 . S
C251 H245 0.950 . S
C251 C250 1.327 . S
C251 C255 1.429 . S
C252 C235 1.574 . S
C252 H246 0.949 . S
C252 C256 1.368 1_545 S
C253 C234 1.455 . S
C253 C247 1.413 1_565 S
C253 C254 1.514 . S
C254 C235 1.368 1_565 S
C254 C248 1.368 . S
C254 C253 1.514 . S
C255 C239 1.429 1_565 S
C255 C251 1.429 . S
C255 C256 1.523 . S
C256 C240 1.368 . S
C256 C252 1.368 1_565 S
C256 C255 1.523 . S
H257 C232 0.950 . S
H258 C234 0.950 . S
H259 C235 0.949 . S
H260 C237 0.950 . S
H261 C239 0.950 . S
C262 C263 1.349 . S
C262 C264 1.327 . S
C262 H287 0.950 . S
C263 C262 1.349 . S
C263 C279 1.349 . S
C264 C262 1.327 . S
C264 C283 1.429 . S
C264 H288 0.950 . S
C265 C282 1.574 . S
C265 C284 1.368 . S
C265 H289 0.949 . S
H266 C270 0.949 . S
C267 C268 1.349 . S
C267 C269 1.327 . S
C267 H290 0.950 . S
C268 C267 1.349 . S
C268 C280 1.349 . S
C269 C267 1.327 . S
C269 C285 1.429 . S
C269 H291 0.950 . S
C270 H266 0.949 . S
C270 C278 1.574 . S
C270 C286 1.368 . S
H271 C279 0.950 . S
H272 C277 0.950 . S
H273 C278 0.949 . S
H274 C280 0.950 . S
H275 C281 0.950 . S
H276 C282 0.949 . S
C277 H272 0.950 . S
C277 C279 1.327 . S
C277 C283 1.429 . S
C278 C270 1.574 . S
C278 H273 0.949 . S
C278 C284 1.368 . S
C279 C263 1.349 . S
C279 H271 0.950 . S
C279 C277 1.327 . S
C280 C268 1.349 . S
C280 H274 0.950 . S
C280 C281 1.327 . S
C281 H275 0.950 . S
C281 C280 1.327 . S
C281 C285 1.429 . S
C282 C265 1.574 . S
C282 H276 0.949 . S
C282 C286 1.368 . S
C283 C264 1.429 . S
C283 C277 1.429 . S
C283 C284 1.523 . S
C284 C265 1.368 . S
C284 C278 1.368 . S
C284 C283 1.523 . S
C285 C269 1.429 . S
C285 C281 1.429 . S
C285 C286 1.523 . S
C286 C270 1.368 . S
C286 C282 1.368 . S
C286 C285 1.523 . S
H287 C262 0.950 . S
H288 C264 0.950 . S
H289 C265 0.949 . S
H290 C267 0.950 . S
H291 C269 0.950 . S
C292 C293 1.349 . S
C292 C294 1.327 . S
C292 H317 0.950 . S
C293 C292 1.349 . S
C293 C309 1.349 . S
C294 C292 1.327 . S
C294 C313 1.429 . S
C294 H318 0.950 . S
C295 C312 1.574 . S
C295 C314 1.368 . S
C295 H319 0.949 . S
H296 C300 0.949 . S
C297 C298 1.349 . S
C297 C299 1.327 . S
C297 H320 0.950 . S
C298 C297 1.349 . S
C298 C310 1.349 . S
C299 C297 1.327 . S
C299 C315 1.429 . S
C299 H321 0.950 . S
C300 H296 0.949 . S
C300 C308 1.574 . S
C300 C316 1.368 . S
H301 C309 0.950 . S
H302 C307 0.950 . S
H303 C308 0.949 . S
H304 C310 0.950 . S
H305 C311 0.950 . S
H306 C312 0.949 . S
C307 H302 0.950 . S
C307 C309 1.327 . S
C307 C313 1.429 . S
C308 C300 1.574 . S
C308 H303 0.949 . S
C308 C314 1.368 . S
C309 C293 1.349 . S
C309 H301 0.950 . S
C309 C307 1.327 . S
C310 C298 1.349 . S
C310 H304 0.950 . S
C310 C311 1.327 . S
C311 H305 0.950 . S
C311 C310 1.327 . S
C311 C315 1.429 . S
C312 C295 1.574 . S
C312 H306 0.949 . S
C312 C316 1.368 . S
C313 C294 1.429 . S
C313 C307 1.429 . S
C313 C314 1.523 . S
C314 C295 1.368 . S
C314 C308 1.368 . S
C314 C313 1.523 . S
C315 C299 1.429 . S
C315 C311 1.429 . S
C315 C316 1.523 . S
C316 C300 1.368 . S
C316 C312 1.368 . S
C316 C315 1.523 . S
H317 C292 0.950 . S
H318 C294 0.950 . S
H319 C295 0.949 . S
H320 C297 0.950 . S
H321 C299 0.950 . S
C322 C323 1.349 . S
C322 C324 1.327 . S
C322 H347 0.950 . S
C323 C322 1.349 . S
C323 C339 1.349 . S
C324 C322 1.327 . S
C324 C343 1.429 . S
C324 H348 0.950 . S
C325 C342 1.574 . S
C325 C344 1.368 . S
C325 H349 0.949 . S
H326 C330 0.949 . S
C327 C328 1.349 . S
C327 C329 1.327 . S
C327 H350 0.950 . S
C328 C327 1.349 . S
C328 C340 1.349 . S
C329 C327 1.327 . S
C329 C345 1.429 . S
C329 H351 0.950 . S
C330 H326 0.949 . S
C330 C338 1.574 . S
C330 C346 1.368 . S
H331 C339 0.950 . S
H332 C337 0.950 . S
H333 C338 0.949 . S
H334 C340 0.950 . S
H335 C341 0.950 . S
H336 C342 0.949 . S
C337 H332 0.950 . S
C337 C339 1.327 . S
C337 C343 1.429 . S
C338 C330 1.574 . S
C338 H333 0.949 . S
C338 C344 1.368 . S
C339 C323 1.349 . S
C339 H331 0.950 . S
C339 C337 1.327 . S
C340 C328 1.349 . S
C340 H334 0.950 . S
C340 C341 1.327 . S
C341 H335 0.950 . S
C341 C340 1.327 . S
C341 C345 1.429 . S
C342 C325 1.574 . S
C342 H336 0.949 . S
C342 C346 1.368 . S
C343 C324 1.429 . S
C343 C337 1.429 . S
C343 C344 1.523 . S
C344 C325 1.368 . S
C344 C338 1.368 . S
C344 C343 1.523 . S
C345 C329 1.429 . S
C345 C341 1.429 . S
C345 C346 1.523 . S
C346 C330 1.368 . S
C346 C342 1.368 . S
C346 C345 1.523 . S
H347 C322 0.950 . S
H348 C324 0.950 . S
H349 C325 0.949 . S
H350 C327 0.950 . S
H351 C329 0.950 . S
C352 C353 1.349 1_565 S
C352 C354 1.327 . S
C352 H377 0.950 . S
C353 C352 1.349 1_545 S
C353 C369 1.348 . S
C354 C352 1.327 . S
C354 C373 1.394 1_565 S
C354 H378 0.950 . S
C355 C372 1.574 . S
C355 C374 1.368 . S
C355 H379 0.949 . S
H356 C360 0.949 . S
C357 C358 1.349 . S
C357 C359 1.327 . S
C357 H380 0.950 . S
C358 C357 1.349 . S
C358 C370 1.349 1_545 S
C359 C357 1.327 . S
C359 C375 1.429 . S
C359 H381 0.950 . S
C360 H356 0.949 . S
C360 C368 1.574 . S
C360 C376 1.368 1_565 S
H361 C369 0.950 . S
H362 C367 0.950 . S
H363 C368 0.949 . S
H364 C370 0.950 . S
H365 C371 0.950 . S
H366 C372 0.949 . S
C367 H362 0.950 . S
C367 C369 1.327 . S
C367 C373 1.476 . S
C368 C360 1.574 . S
C368 H363 0.949 . S
C368 C374 1.368 1_565 S
C369 C353 1.348 . S
C369 H361 0.950 . S
C369 C367 1.327 . S
C370 C358 1.349 1_565 S
C370 H364 0.950 . S
C370 C371 1.327 . S
C371 H365 0.950 . S
C371 C370 1.327 . S
C371 C375 1.429 1_565 S
C372 C355 1.574 . S
C372 H366 0.949 . S
C372 C376 1.368 . S
C373 C354 1.394 1_545 S
C373 C367 1.476 . S
C373 C374 1.513 . S
C374 C355 1.368 . S
C374 C368 1.368 1_545 S
C374 C373 1.513 . S
C375 C359 1.429 . S
C375 C371 1.429 1_545 S
C375 C376 1.523 . S
C376 C360 1.368 1_545 S
C376 C372 1.368 . S
C376 C375 1.523 . S
H377 C352 0.950 . S
H378 C354 0.950 . S
H379 C355 0.949 . S
H380 C357 0.950 . S
H381 C359 0.950 . S
C382 C383 1.349 . S
C382 C384 1.327 . S
C382 H407 0.950 . S
C383 C382 1.349 . S
C383 C399 1.349 . S
C384 C382 1.327 . S
C384 C403 1.429 . S
C384 H408 0.950 . S
C385 C402 1.574 . S
C385 C404 1.368 . S
C385 H409 0.949 . S
H386 C390 0.949 . S
C387 C388 1.349 . S
C387 C389 1.327 . S
C387 H410 0.950 . S
C388 C387 1.349 . S
C388 C400 1.349 . S
C389 C387 1.327 . S
C389 C405 1.429 1_556 S
C389 H411 0.950 . S
C390 H386 0.949 . S
C390 C398 1.574 . S
C390 C406 1.368 . S
H391 C399 0.950 . S
H392 C397 0.950 . S
H393 C398 0.949 . S
H394 C400 0.950 . S
H395 C401 0.950 . S
H396 C402 0.949 . S
C397 H392 0.950 . S
C397 C399 1.327 . S
C397 C403 1.429 . S
C398 C390 1.574 . S
C398 H393 0.949 . S
C398 C404 1.368 . S
C399 C383 1.349 . S
C399 H391 0.950 . S
C399 C397 1.327 . S
C400 C388 1.349 . S
C400 H394 0.950 . S
C400 C401 1.327 1_556 S
C401 H395 0.950 . S
C401 C400 1.327 1_554 S
C401 C405 1.429 . S
C402 C385 1.574 . S
C402 H396 0.949 . S
C402 C406 1.368 . S
C403 C384 1.429 . S
C403 C397 1.429 . S
C403 C404 1.523 . S
C404 C385 1.368 . S
C404 C398 1.368 . S
C404 C403 1.523 . S
C405 C389 1.429 1_554 S
C405 C401 1.429 . S
C405 C406 1.523 . S
C406 C390 1.368 . S
C406 C402 1.368 . S
C406 C405 1.523 . S
H407 C382 0.950 . S
H408 C384 0.950 . S
H409 C385 0.949 . S
H410 C387 0.950 . S
H411 C389 0.950 . S
C412 C413 1.349 . S
C412 C414 1.327 . S
C412 H437 0.950 . S
C413 C412 1.349 . S
C413 C429 1.349 1_554 S
C414 C412 1.327 . S
C414 C433 1.429 1_554 S
C414 H438 0.950 . S
C415 C432 1.574 . S
C415 C434 1.368 . S
C415 H439 0.949 . S
H416 C420 0.949 1_554 S
C417 C418 1.349 . S
C417 C419 1.327 . S
C417 H440 0.950 . S
C418 C417 1.349 . S
C418 C430 1.349 . S
C419 C417 1.327 . S
C419 C435 1.429 . S
C419 H441 0.950 . S
C420 H416 0.949 1_556 S
C420 C428 1.574 1_556 S
C420 C436 1.368 . S
H421 C429 0.950 . S
H422 C427 0.950 . S
H423 C428 0.949 . S
H424 C430 0.950 . S
H425 C431 0.950 . S
H426 C432 0.949 . S
C427 H422 0.950 . S
C427 C429 1.327 . S
C427 C433 1.429 . S
C428 C420 1.574 1_554 S
C428 H423 0.949 . S
C428 C434 1.368 1_554 S
C429 C413 1.349 1_556 S
C429 H421 0.950 . S
C429 C427 1.327 . S
C430 C418 1.349 . S
C430 H424 0.950 . S
C430 C431 1.327 . S
C431 H425 0.950 . S
C431 C430 1.327 . S
C431 C435 1.429 . S
C432 C415 1.574 . S
C432 H426 0.949 . S
C432 C436 1.368 . S
C433 C414 1.429 1_556 S
C433 C427 1.429 . S
C433 C434 1.523 . S
C434 C415 1.368 . S
C434 C428 1.368 1_556 S
C434 C433 1.523 . S
C435 C419 1.429 . S
C435 C431 1.429 . S
C435 C436 1.523 . S
C436 C420 1.368 . S
C436 C432 1.368 . S
C436 C435 1.523 . S
H437 C412 0.950 . S
H438 C414 0.950 . S
H439 C415 0.949 . S
H440 C417 0.950 . S
H441 C419 0.950 . S
C442 C443 1.349 . S
C442 C444 1.327 . S
C442 H467 0.950 . S
C443 C442 1.349 . S
C443 C459 1.349 . S
C444 C442 1.327 . S
C444 C463 1.429 1_554 S
C444 H468 0.950 . S
C445 C462 1.574 . S
C445 C464 1.368 . S
C445 H469 0.949 . S
H446 C450 0.949 . S
C447 C448 1.349 1_455 S
C447 C449 1.327 1_455 S
C447 H470 0.950 . S
C448 C447 1.349 1_655 S
C448 C460 1.349 . S
C449 C447 1.327 1_655 S
C449 C465 1.429 . S
C449 H471 0.950 1_655 S
C450 H446 0.949 . S
C450 C458 1.574 . S
C450 C466 1.368 . S
H451 C459 0.950 . S
H452 C457 0.953 . S
H453 C458 0.949 . S
H454 C460 0.950 . S
H455 C461 0.950 . S
H456 C462 0.949 . S
C457 H452 0.953 . S
C457 C459 1.322 1_556 S
C457 C463 1.431 . S
C458 C450 1.574 . S
C458 H453 0.949 . S
C458 C464 1.368 . S
C459 C443 1.349 . S
C459 H451 0.950 . S
C459 C457 1.322 1_554 S
C460 C448 1.349 . S
C460 H454 0.950 . S
C460 C461 1.327 . S
C461 H455 0.950 . S
C461 C460 1.327 . S
C461 C465 1.429 . S
C462 C445 1.574 . S
C462 H456 0.949 . S
C462 C466 1.368 . S
C463 C444 1.429 1_556 S
C463 C457 1.431 . S
C463 C464 1.523 . S
C464 C445 1.368 . S
C464 C458 1.368 . S
C464 C463 1.523 . S
C465 C449 1.429 . S
C465 C461 1.429 . S
C465 C466 1.523 . S
C466 C450 1.368 . S
C466 C462 1.368 . S
C466 C465 1.523 . S
H467 C442 0.950 . S
H468 C444 0.950 . S
H469 C445 0.949 . S
H470 C447 0.950 . S
H471 C449 0.950 1_455 S
C472 C473 1.349 . S
C472 C474 1.327 . S
C472 H497 0.950 . S
C473 C472 1.349 . S
C473 C489 1.349 . S
C474 C472 1.327 . S
C474 C493 1.429 . S
C474 H498 0.950 . S
C475 C492 1.574 . S
C475 C494 1.368 . S
C475 H499 0.949 . S
H476 C480 0.949 . S
C477 C478 1.349 . S
C477 C479 1.327 . S
C477 H500 0.950 . S
C478 C477 1.349 . S
C478 C490 1.349 . S
C479 C477 1.327 . S
C479 C495 1.429 . S
C479 H501 0.950 . S
C480 H476 0.949 . S
C480 C488 1.574 . S
C480 C496 1.368 . S
H481 C489 0.950 . S
H482 C487 0.950 . S
H483 C488 0.949 . S
H484 C490 0.950 . S
H485 C491 0.950 . S
H486 C492 0.949 . S
C487 H482 0.950 . S
C487 C489 1.327 . S
C487 C493 1.429 . S
C488 C480 1.574 . S
C488 H483 0.949 . S
C488 C494 1.368 . S
C489 C473 1.349 . S
C489 H481 0.950 . S
C489 C487 1.327 . S
C490 C478 1.349 . S
C490 H484 0.950 . S
C490 C491 1.327 . S
C491 H485 0.950 . S
C491 C490 1.327 . S
C491 C495 1.429 . S
C492 C475 1.574 . S
C492 H486 0.949 . S
C492 C496 1.368 . S
C493 C474 1.429 . S
C493 C487 1.429 . S
C493 C494 1.523 . S
C494 C475 1.368 . S
C494 C488 1.368 . S
C494 C493 1.523 . S
C495 C479 1.429 . S
C495 C491 1.429 . S
C495 C496 1.523 . S
C496 C480 1.368 . S
C496 C492 1.368 . S
C496 C495 1.523 . S
H497 C472 0.950 . S
H498 C474 0.950 . S
H499 C475 0.949 . S
H500 C477 0.950 . S
H501 C479 0.950 . S
C502 C503 1.319 1_565 S
C502 C504 1.327 . S
C502 H527 0.950 . S
C503 C502 1.319 1_545 S
C503 C519 1.369 . S
C504 C502 1.327 . S
C504 C523 1.429 . S
C504 H528 0.950 . S
C505 C522 1.574 . S
C505 C524 1.368 1_545 S
C505 H529 0.949 . S
H506 C510 0.949 . S
C507 C508 1.349 . S
C507 C509 1.327 . S
C507 H530 0.950 1_565 S
C508 C507 1.349 . S
C508 C520 1.349 . S
C509 C507 1.327 . S
C509 C525 1.429 . S
C509 H531 0.950 1_565 S
C510 H506 0.949 . S
C510 C518 1.574 . S
C510 C526 1.368 . S
H511 C519 0.950 . S
H512 C517 0.950 . S
H513 C518 0.949 . S
H514 C520 0.950 . S
H515 C521 0.950 . S
H516 C522 0.949 . S
C517 H512 0.950 . S
C517 C519 1.327 . S
C517 C523 1.429 1_545 S
C518 C510 1.574 . S
C518 H513 0.949 . S
C518 C524 1.368 . S
C519 C503 1.369 . S
C519 H511 0.950 . S
C519 C517 1.327 . S
C520 C508 1.349 . S
C520 H514 0.950 . S
C520 C521 1.327 . S
C521 H515 0.950 . S
C521 C520 1.327 . S
C521 C525 1.429 . S
C522 C505 1.574 . S
C522 H516 0.949 . S
C522 C526 1.368 1_545 S
C523 C504 1.429 . S
C523 C517 1.429 1_565 S
C523 C524 1.523 . S
C524 C505 1.368 1_565 S
C524 C518 1.368 . S
C524 C523 1.523 . S
C525 C509 1.429 . S
C525 C521 1.429 . S
C525 C526 1.523 . S
C526 C510 1.368 . S
C526 C522 1.368 1_565 S
C526 C525 1.523 . S
H527 C502 0.950 . S
H528 C504 0.950 . S
H529 C505 0.949 . S
H530 C507 0.950 1_545 S
H531 C509 0.950 1_545 S
C532 C533 1.349 . S
C532 C534 1.327 . S
C532 H557 0.950 . S
C533 C532 1.349 . S
C533 C549 1.349 . S
C534 C532 1.327 . S
C534 C553 1.429 . S
C534 H558 0.950 . S
C535 C552 1.574 . S
C535 C554 1.368 . S
C535 H559 0.949 . S
H536 C540 0.949 . S
C537 C538 1.349 . S
C537 C539 1.327 . S
C537 H560 0.950 . S
C538 C537 1.349 . S
C538 C550 1.349 . S
C539 C537 1.327 . S
C539 C555 1.429 . S
C539 H561 0.950 . S
C540 H536 0.949 . S
C540 C548 1.574 . S
C540 C556 1.368 . S
H541 C549 0.950 . S
H542 C547 0.950 . S
H543 C548 0.949 . S
H544 C550 0.950 . S
H545 C551 0.950 . S
H546 C552 0.949 . S
C547 H542 0.950 . S
C547 C549 1.327 . S
C547 C553 1.429 . S
C548 C540 1.574 . S
C548 H543 0.949 . S
C548 C554 1.368 . S
C549 C533 1.349 . S
C549 H541 0.950 . S
C549 C547 1.327 . S
C550 C538 1.349 . S
C550 H544 0.950 . S
C550 C551 1.327 . S
C551 H545 0.950 . S
C551 C550 1.327 . S
C551 C555 1.429 . S
C552 C535 1.574 . S
C552 H546 0.949 . S
C552 C556 1.368 . S
C553 C534 1.429 . S
C553 C547 1.429 . S
C553 C554 1.523 . S
C554 C535 1.368 . S
C554 C548 1.368 . S
C554 C553 1.523 . S
C555 C539 1.429 . S
C555 C551 1.429 . S
C555 C556 1.523 . S
C556 C540 1.368 . S
C556 C552 1.368 . S
C556 C555 1.523 . S
H557 C532 0.950 . S
H558 C534 0.950 . S
H559 C535 0.949 . S
H560 C537 0.950 . S
H561 C539 0.950 . S
C562 C563 1.349 . S
C562 C564 1.327 . S
C562 H587 0.950 . S
C563 C562 1.349 . S
C563 C579 1.349 . S
C564 C562 1.327 . S
C564 C583 1.429 . S
C564 H588 0.950 . S
C565 C582 1.574 . S
C565 C584 1.368 . S
C565 H589 0.949 . S
H566 C570 0.949 . S
C567 C568 1.349 . S
C567 C569 1.327 . S
C567 H590 0.950 . S
C568 C567 1.349 . S
C568 C580 1.349 . S
C569 C567 1.327 . S
C569 C585 1.429 . S
C569 H591 0.950 . S
C570 H566 0.949 . S
C570 C578 1.574 . S
C570 C586 1.368 . S
H571 C579 0.950 . S
H572 C577 0.950 . S
H573 C578 0.949 . S
H574 C580 0.950 . S
H575 C581 0.950 . S
H576 C582 0.949 . S
C577 H572 0.950 . S
C577 C579 1.327 . S
C577 C583 1.429 . S
C578 C570 1.574 . S
C578 H573 0.949 . S
C578 C584 1.368 . S
C579 C563 1.349 . S
C579 H571 0.950 . S
C579 C577 1.327 . S
C580 C568 1.349 . S
C580 H574 0.950 . S
C580 C581 1.327 . S
C581 H575 0.950 . S
C581 C580 1.327 . S
C581 C585 1.429 . S
C582 C565 1.574 . S
C582 H576 0.949 . S
C582 C586 1.368 . S
C583 C564 1.429 . S
C583 C577 1.429 . S
C583 C584 1.523 . S
C584 C565 1.368 . S
C584 C578 1.368 . S
C584 C583 1.523 . S
C585 C569 1.429 . S
C585 C581 1.429 . S
C585 C586 1.523 . S
C586 C570 1.368 . S
C586 C582 1.368 . S
C586 C585 1.523 . S
H587 C562 0.950 . S
H588 C564 0.950 . S
H589 C565 0.949 . S
H590 C567 0.950 . S
H591 C569 0.950 . S
C592 C593 1.349 . S
C592 C594 1.327 . S
C592 H617 0.950 . S
C593 C592 1.349 . S
C593 C609 1.349 1_554 S
C594 C592 1.327 . S
C594 C613 1.429 1_554 S
C594 H618 0.950 . S
C595 C612 1.574 . S
C595 C614 1.368 . S
C595 H619 0.949 . S
H596 C600 0.949 1_554 S
C597 C598 1.320 1_655 S
C597 C599 1.327 . S
C597 H620 0.950 . S
C598 C597 1.320 1_455 S
C598 C610 1.360 . S
C599 C597 1.327 . S
C599 C615 1.429 . S
C599 H621 0.950 . S
C600 H596 0.949 1_556 S
C600 C608 1.574 . S
C600 C616 1.368 . S
H601 C609 0.950 . S
H602 C607 0.950 . S
H603 C608 0.949 1_554 S
H604 C610 0.950 . S
H605 C611 0.950 . S
H606 C612 0.949 . S
C607 H602 0.950 . S
C607 C609 1.327 . S
C607 C613 1.429 . S
C608 C600 1.574 . S
C608 H603 0.949 1_556 S
C608 C614 1.368 . S
C609 C593 1.349 1_556 S
C609 H601 0.950 . S
C609 C607 1.327 . S
C610 C598 1.360 . S
C610 H604 0.950 . S
C610 C611 1.327 1_455 S
C611 H605 0.950 . S
C611 C610 1.327 1_655 S
C611 C615 1.429 . S
C612 C595 1.574 . S
C612 H606 0.949 . S
C612 C616 1.368 . S
C613 C594 1.429 1_556 S
C613 C607 1.429 . S
C613 C614 1.523 . S
C614 C595 1.368 . S
C614 C608 1.368 . S
C614 C613 1.523 . S
C615 C599 1.429 . S
C615 C611 1.429 . S
C615 C616 1.523 . S
C616 C600 1.368 . S
C616 C612 1.368 . S
C616 C615 1.523 . S
H617 C592 0.950 . S
H618 C594 0.950 . S
H619 C595 0.949 . S
H620 C597 0.950 . S
H621 C599 0.950 . S
C622 C623 1.368 . S
C622 C624 1.327 . S
C622 H647 0.950 . S
C623 C622 1.368 . S
C623 C639 1.322 1_565 S
C624 C622 1.327 . S
C624 C643 1.429 1_565 S
C624 H648 0.950 . S
C625 C642 1.574 . S
C625 C644 1.368 . S
C625 H649 0.949 . S
H626 C630 0.949 . S
C627 C628 1.349 . S
C627 C629 1.327 . S
C627 H650 0.950 . S
C628 C627 1.349 . S
C628 C640 1.349 . S
C629 C627 1.327 . S
C629 C645 1.429 . S
C629 H651 0.950 . S
C630 H626 0.949 . S
C630 C638 1.574 . S
C630 C646 1.368 1_565 S
H631 C639 0.950 . S
H632 C637 0.950 . S
H633 C638 0.949 . S
H634 C640 0.950 1_565 S
H635 C641 0.950 . S
H636 C642 0.949 . S
C637 H632 0.950 . S
C637 C639 1.327 . S
C637 C643 1.429 . S
C638 C630 1.574 . S
C638 H633 0.949 . S
C638 C644 1.368 1_565 S
C639 C623 1.322 1_545 S
C639 H631 0.950 . S
C639 C637 1.327 . S
C640 C628 1.349 . S
C640 H634 0.950 1_545 S
C640 C641 1.327 1_545 S
C641 H635 0.950 . S
C641 C640 1.327 1_565 S
C641 C645 1.429 1_565 S
C642 C625 1.574 . S
C642 H636 0.949 . S
C642 C646 1.368 . S
C643 C624 1.429 1_545 S
C643 C637 1.429 . S
C643 C644 1.523 . S
C644 C625 1.368 . S
C644 C638 1.368 1_545 S
C644 C643 1.523 . S
C645 C629 1.429 . S
C645 C641 1.429 1_545 S
C645 C646 1.523 . S
C646 C630 1.368 1_545 S
C646 C642 1.368 . S
C646 C645 1.523 . S
H647 C622 0.950 . S
H648 C624 0.950 . S
H649 C625 0.949 . S
H650 C627 0.950 . S
H651 C629 0.950 . S
C652 C653 1.349 . S
C652 C654 1.327 . S
C652 H677 0.950 . S
C653 C652 1.349 . S
C653 C669 1.349 . S
C654 C652 1.327 . S
C654 C673 1.429 . S
C654 H678 0.950 . S
C655 C672 1.574 . S
C655 C674 1.368 . S
C655 H679 0.949 . S
H656 C660 0.949 . S
C657 C658 1.349 . S
C657 C659 1.319 1_556 S
C657 H680 0.956 . S
C658 C657 1.349 . S
C658 C670 1.342 1_556 S
C659 C657 1.319 1_554 S
C659 C675 1.429 . S
C659 H681 0.950 . S
C660 H656 0.949 . S
C660 C668 1.574 . S
C660 C676 1.368 . S
H661 C669 0.950 . S
H662 C667 0.950 . S
H663 C668 0.949 . S
H664 C670 0.950 . S
H665 C671 0.950 . S
H666 C672 0.949 . S
C667 H662 0.950 . S
C667 C669 1.327 . S
C667 C673 1.429 . S
C668 C660 1.574 . S
C668 H663 0.949 . S
C668 C674 1.368 . S
C669 C653 1.349 . S
C669 H661 0.950 . S
C669 C667 1.327 . S
C670 C658 1.342 1_554 S
C670 H664 0.950 . S
C670 C671 1.327 . S
C671 H665 0.950 . S
C671 C670 1.327 . S
C671 C675 1.429 . S
C672 C655 1.574 . S
C672 H666 0.949 . S
C672 C676 1.368 . S
C673 C654 1.429 . S
C673 C667 1.429 . S
C673 C674 1.523 . S
C674 C655 1.368 . S
C674 C668 1.368 . S
C674 C673 1.523 . S
C675 C659 1.429 . S
C675 C671 1.429 . S
C675 C676 1.523 . S
C676 C660 1.368 . S
C676 C672 1.368 . S
C676 C675 1.523 . S
H677 C652 0.950 . S
H678 C654 0.950 . S
H679 C655 0.949 . S
H680 C657 0.956 . S
H681 C659 0.950 . S
C682 C683 1.349 1_554 S
C682 C684 1.327 . S
C682 H707 0.950 . S
C683 C682 1.349 1_556 S
C683 C699 1.349 . S
C684 C682 1.327 . S
C684 C703 1.429 1_554 S
C684 H708 0.950 . S
C685 C702 1.574 . S
C685 C704 1.368 . S
C685 H709 0.949 . S
H686 C690 0.949 1_554 S
C687 C688 1.349 . S
C687 C689 1.327 . S
C687 H710 0.950 . S
C688 C687 1.349 . S
C688 C700 1.349 . S
C689 C687 1.327 . S
C689 C705 1.429 . S
C689 H711 0.950 . S
C690 H686 0.949 1_556 S
C690 C698 1.574 . S
C690 C706 1.368 . S
H691 C699 0.950 . S
H692 C697 0.950 . S
H693 C698 0.949 1_554 S
H694 C700 0.950 . S
H695 C701 0.950 . S
H696 C702 0.949 . S
C697 H692 0.950 . S
C697 C699 1.327 . S
C697 C703 1.429 . S
C698 C690 1.574 . S
C698 H693 0.949 1_556 S
C698 C704 1.368 . S
C699 C683 1.349 . S
C699 H691 0.950 . S
C699 C697 1.327 . S
C700 C688 1.349 . S
C700 H694 0.950 . S
C700 C701 1.327 . S
C701 H695 0.950 . S
C701 C700 1.327 . S
C701 C705 1.429 . S
C702 C685 1.574 . S
C702 H696 0.949 . S
C702 C706 1.368 . S
C703 C684 1.429 1_556 S
C703 C697 1.429 . S
C703 C704 1.523 . S
C704 C685 1.368 . S
C704 C698 1.368 . S
C704 C703 1.523 . S
C705 C689 1.429 . S
C705 C701 1.429 . S
C705 C706 1.523 . S
C706 C690 1.368 . S
C706 C702 1.368 . S
C706 C705 1.523 . S
H707 C682 0.950 . S
H708 C684 0.950 . S
H709 C685 0.949 . S
H710 C687 0.950 . S
H711 C689 0.950 . S
C712 C713 1.349 . S
C712 C714 1.327 . S
C712 H737 0.950 . S
C713 C712 1.349 . S
C713 C729 1.349 . S
C714 C712 1.327 . S
C714 C733 1.429 . S
C714 H738 0.950 . S
C715 C732 1.574 . S
C715 C734 1.368 . S
C715 H739 0.949 . S
H716 C720 0.949 . S
C717 C718 1.349 . S
C717 C719 1.327 . S
C717 H740 0.950 . S
C718 C717 1.349 . S
C718 C730 1.349 . S
C719 C717 1.327 . S
C719 C735 1.429 . S
C719 H741 0.950 . S
C720 H716 0.949 . S
C720 C728 1.574 . S
C720 C736 1.368 . S
H721 C729 0.950 . S
H722 C727 0.950 . S
H723 C728 0.949 . S
H724 C730 0.950 . S
H725 C731 0.950 . S
H726 C732 0.949 . S
C727 H722 0.950 . S
C727 C729 1.327 . S
C727 C733 1.429 . S
C728 C720 1.574 . S
C728 H723 0.949 . S
C728 C734 1.368 . S
C729 C713 1.349 . S
C729 H721 0.950 . S
C729 C727 1.327 . S
C730 C718 1.349 . S
C730 H724 0.950 . S
C730 C731 1.327 . S
C731 H725 0.950 . S
C731 C730 1.327 . S
C731 C735 1.429 . S
C732 C715 1.574 . S
C732 H726 0.949 . S
C732 C736 1.368 . S
C733 C714 1.429 . S
C733 C727 1.429 . S
C733 C734 1.523 . S
C734 C715 1.368 . S
C734 C728 1.368 . S
C734 C733 1.523 . S
C735 C719 1.429 . S
C735 C731 1.429 . S
C735 C736 1.523 . S
C736 C720 1.368 . S
C736 C732 1.368 . S
C736 C735 1.523 . S
H737 C712 0.950 . S
H738 C714 0.950 . S
H739 C715 0.949 . S
H740 C717 0.950 . S
H741 C719 0.950 . S
C742 C743 1.349 . S
C742 C744 1.327 . S
C742 H767 0.950 . S
C743 C742 1.349 . S
C743 C759 1.349 1_545 S
C744 C742 1.327 . S
C744 C763 1.429 . S
C744 H768 0.950 . S
C745 C762 1.574 . S
C745 C764 1.368 1_565 S
C745 H769 0.949 . S
H746 C750 0.949 . S
C747 C748 1.349 . S
C747 C749 1.327 . S
C747 H770 0.950 1_545 S
C748 C747 1.349 . S
C748 C760 1.349 . S
C749 C747 1.327 . S
C749 C765 1.429 . S
C749 H771 0.950 1_545 S
C750 H746 0.949 . S
C750 C758 1.574 . S
C750 C766 1.368 . S
H751 C759 0.950 . S
H752 C757 0.950 . S
H753 C758 0.949 . S
H754 C760 0.950 . S
H755 C761 0.950 . S
H756 C762 0.949 . S
C757 H752 0.950 . S
C757 C759 1.327 . S
C757 C763 1.429 1_565 S
C758 C750 1.574 . S
C758 H753 0.949 . S
C758 C764 1.368 . S
C759 C743 1.349 1_565 S
C759 H751 0.950 . S
C759 C757 1.327 . S
C760 C748 1.349 . S
C760 H754 0.950 . S
C760 C761 1.327 . S
C761 H755 0.950 . S
C761 C760 1.327 . S
C761 C765 1.429 . S
C762 C745 1.574 . S
C762 H756 0.949 . S
C762 C766 1.368 1_565 S
C763 C744 1.429 . S
C763 C757 1.429 1_545 S
C763 C764 1.523 . S
C764 C745 1.368 1_545 S
C764 C758 1.368 . S
C764 C763 1.523 . S
C765 C749 1.429 . S
C765 C761 1.429 . S
C765 C766 1.523 . S
C766 C750 1.368 . S
C766 C762 1.368 1_545 S
C766 C765 1.523 . S
H767 C742 0.950 . S
H768 C744 0.950 . S
H769 C745 0.949 . S
H770 C747 0.950 1_565 S
H771 C749 0.950 1_565 S
C772 C773 1.349 . S
C772 C774 1.327 . S
C772 H797 0.950 . S
C773 C772 1.349 . S
C773 C789 1.349 . S
C774 C772 1.327 . S
C774 C793 1.429 . S
C774 H798 0.950 . S
C775 C792 1.574 . S
C775 C794 1.368 . S
C775 H799 0.949 . S
H776 C780 0.949 . S
C777 C778 1.349 . S
C777 C779 1.327 1_556 S
C777 H800 0.950 1_556 S
C778 C777 1.349 . S
C778 C790 1.349 . S
C779 C777 1.327 1_554 S
C779 C795 1.429 1_554 S
C779 H801 0.950 . S
C780 H776 0.949 . S
C780 C788 1.574 1_556 S
C780 C796 1.368 1_556 S
H781 C789 0.950 . S
H782 C787 0.950 . S
H783 C788 0.949 . S
H784 C790 0.950 . S
H785 C791 0.950 . S
H786 C792 0.949 . S
C787 H782 0.950 . S
C787 C789 1.327 . S
C787 C793 1.429 . S
C788 C780 1.574 1_554 S
C788 H783 0.949 . S
C788 C794 1.368 . S
C789 C773 1.349 . S
C789 H781 0.950 . S
C789 C787 1.327 . S
C790 C778 1.349 . S
C790 H784 0.950 . S
C790 C791 1.327 . S
C791 H785 0.950 . S
C791 C790 1.327 . S
C791 C795 1.429 . S
C792 C775 1.574 . S
C792 H786 0.949 . S
C792 C796 1.368 . S
C793 C774 1.429 . S
C793 C787 1.429 . S
C793 C794 1.523 . S
C794 C775 1.368 . S
C794 C788 1.368 . S
C794 C793 1.523 . S
C795 C779 1.429 1_556 S
C795 C791 1.429 . S
C795 C796 1.523 1_556 S
C796 C780 1.368 1_554 S
C796 C792 1.368 . S
C796 C795 1.523 1_554 S
H797 C772 0.950 . S
H798 C774 0.950 . S
H799 C775 0.949 . S
H800 C777 0.950 1_554 S
H801 C779 0.950 . S
C802 C803 1.349 . S
C802 C804 1.327 . S
C802 H827 0.950 . S
C803 C802 1.349 . S
C803 C819 1.349 . S
C804 C802 1.327 . S
C804 C823 1.429 . S
C804 H828 0.950 . S
C805 C822 1.574 . S
C805 C824 1.368 . S
C805 H829 0.949 . S
H806 C810 0.949 . S
C807 C808 1.349 . S
C807 C809 1.327 . S
C807 H830 0.950 . S
C808 C807 1.349 . S
C808 C820 1.349 . S
C809 C807 1.327 . S
C809 C825 1.429 . S
C809 H831 0.950 . S
C810 H806 0.949 . S
C810 C818 1.574 . S
C810 C826 1.368 . S
H811 C819 0.950 . S
H812 C817 0.950 . S
H813 C818 0.949 . S
H814 C820 0.950 . S
H815 C821 0.950 . S
H816 C822 0.949 . S
C817 H812 0.950 . S
C817 C819 1.327 . S
C817 C823 1.429 . S
C818 C810 1.574 . S
C818 H813 0.949 . S
C818 C824 1.368 . S
C819 C803 1.349 . S
C819 H811 0.950 . S
C819 C817 1.327 . S
C820 C808 1.349 . S
C820 H814 0.950 . S
C820 C821 1.327 . S
C821 H815 0.950 . S
C821 C820 1.327 . S
C821 C825 1.429 . S
C822 C805 1.574 . S
C822 H816 0.949 . S
C822 C826 1.368 . S
C823 C804 1.429 . S
C823 C817 1.429 . S
C823 C824 1.523 . S
C824 C805 1.368 . S
C824 C818 1.368 . S
C824 C823 1.523 . S
C825 C809 1.429 . S
C825 C821 1.429 . S
C825 C826 1.523 . S
C826 C810 1.368 . S
C826 C822 1.368 . S
C826 C825 1.523 . S
H827 C802 0.950 . S
H828 C804 0.950 . S
H829 C805 0.949 . S
H830 C807 0.950 . S
H831 C809 0.950 . S
C832 C833 1.349 . S
C832 C834 1.327 . S
C832 H857 0.950 . S
C833 C832 1.349 . S
C833 C849 1.349 . S
C834 C832 1.327 . S
C834 C853 1.429 . S
C834 H858 0.950 . S
C835 C852 1.574 . S
C835 C854 1.368 . S
C835 H859 0.949 . S
H836 C840 0.949 . S
C837 C838 1.349 . S
C837 C839 1.327 . S
C837 H860 0.950 . S
C838 C837 1.349 . S
C838 C850 1.349 . S
C839 C837 1.327 . S
C839 C855 1.429 . S
C839 H861 0.950 . S
C840 H836 0.949 . S
C840 C848 1.574 . S
C840 C856 1.368 . S
H841 C849 0.950 . S
H842 C847 0.950 . S
H843 C848 0.949 . S
H844 C850 0.950 . S
H845 C851 0.950 . S
H846 C852 0.949 . S
C847 H842 0.950 . S
C847 C849 1.327 . S
C847 C853 1.429 . S
C848 C840 1.574 . S
C848 H843 0.949 . S
C848 C854 1.368 . S
C849 C833 1.349 . S
C849 H841 0.950 . S
C849 C847 1.327 . S
C850 C838 1.349 . S
C850 H844 0.950 . S
C850 C851 1.327 . S
C851 H845 0.950 . S
C851 C850 1.327 . S
C851 C855 1.429 . S
C852 C835 1.574 . S
C852 H846 0.949 . S
C852 C856 1.368 . S
C853 C834 1.429 . S
C853 C847 1.429 . S
C853 C854 1.523 . S
C854 C835 1.368 . S
C854 C848 1.368 . S
C854 C853 1.523 . S
C855 C839 1.429 . S
C855 C851 1.429 . S
C855 C856 1.523 . S
C856 C840 1.368 . S
C856 C852 1.368 . S
C856 C855 1.523 . S
H857 C832 0.950 . S
H858 C834 0.950 . S
H859 C835 0.949 . S
H860 C837 0.950 . S
H861 C839 0.950 . S
C862 C863 1.349 . S
C862 C864 1.327 . S
C862 H887 0.950 . S
C863 C862 1.349 . S
C863 C879 1.349 1_565 S
C864 C862 1.327 . S
C864 C883 1.429 . S
C864 H888 0.950 . S
C865 C882 1.574 . S
C865 C884 1.368 1_545 S
C865 H889 0.949 . S
H866 C870 0.949 . S
C867 C868 1.349 . S
C867 C869 1.324 . S
C867 H890 0.950 1_565 S
C868 C867 1.349 . S
C868 C880 1.349 . S
C869 C867 1.324 . S
C869 C885 1.455 . S
C869 H891 0.926 1_565 S
C870 H866 0.949 . S
C870 C878 1.574 . S
C870 C886 1.368 . S
H871 C879 0.950 . S
H872 C877 0.950 . S
H873 C878 0.949 . S
H874 C880 0.950 . S
H875 C881 0.950 . S
H876 C882 0.949 . S
C877 H872 0.950 . S
C877 C879 1.327 . S
C877 C883 1.429 1_545 S
C878 C870 1.574 . S
C878 H873 0.949 . S
C878 C884 1.368 . S
C879 C863 1.349 1_545 S
C879 H871 0.950 . S
C879 C877 1.327 . S
C880 C868 1.349 . S
C880 H874 0.950 . S
C880 C881 1.327 . S
C881 H875 0.950 . S
C881 C880 1.327 . S
C881 C885 1.429 . S
C882 C865 1.574 . S
C882 H876 0.949 . S
C882 C886 1.368 1_545 S
C883 C864 1.429 . S
C883 C877 1.429 1_565 S
C883 C884 1.523 . S
C884 C865 1.368 1_565 S
C884 C878 1.368 . S
C884 C883 1.523 . S
C885 C869 1.455 . S
C885 C881 1.429 . S
C885 C886 1.523 . S
C886 C870 1.368 . S
C886 C882 1.368 1_565 S
C886 C885 1.523 . S
H887 C862 0.950 . S
H888 C864 0.950 . S
H889 C865 0.949 . S
H890 C867 0.950 1_545 S
H891 C869 0.926 1_545 S
C892 C893 1.349 . S
C892 C894 1.327 . S
C892 H917 0.950 . S
C893 C892 1.349 . S
C893 C909 1.349 . S
C894 C892 1.327 . S
C894 C913 1.429 . S
C894 H918 0.950 . S
C895 C912 1.574 . S
C895 C914 1.368 . S
C895 H919 0.949 . S
H896 C900 0.949 . S
C897 C898 1.349 . S
C897 C899 1.327 . S
C897 H920 0.950 . S
C898 C897 1.349 . S
C898 C910 1.349 . S
C899 C897 1.327 . S
C899 C915 1.429 . S
C899 H921 0.950 . S
C900 H896 0.949 . S
C900 C908 1.574 . S
C900 C916 1.368 . S
H901 C909 0.950 . S
H902 C907 0.950 . S
H903 C908 0.949 . S
H904 C910 0.950 . S
H905 C911 0.950 . S
H906 C912 0.949 . S
C907 H902 0.950 . S
C907 C909 1.327 . S
C907 C913 1.429 . S
C908 C900 1.574 . S
C908 H903 0.949 . S
C908 C914 1.368 . S
C909 C893 1.349 . S
C909 H901 0.950 . S
C909 C907 1.327 . S
C910 C898 1.349 . S
C910 H904 0.950 . S
C910 C911 1.327 . S
C911 H905 0.950 . S
C911 C910 1.327 . S
C911 C915 1.429 . S
C912 C895 1.574 . S
C912 H906 0.949 . S
C912 C916 1.368 . S
C913 C894 1.429 . S
C913 C907 1.429 . S
C913 C914 1.523 . S
C914 C895 1.368 . S
C914 C908 1.368 . S
C914 C913 1.523 . S
C915 C899 1.429 . S
C915 C911 1.429 . S
C915 C916 1.523 . S
C916 C900 1.368 . S
C916 C912 1.368 . S
C916 C915 1.523 . S
H917 C892 0.950 . S
H918 C894 0.950 . S
H919 C895 0.949 . S
H920 C897 0.950 . S
H921 C899 0.950 . S
C922 C923 1.349 . S
C922 C924 1.327 . S
C922 H947 0.950 . S
C923 C922 1.349 . S
C923 C939 1.349 . S
C924 C922 1.327 . S
C924 C943 1.429 . S
C924 H948 0.950 . S
C925 C942 1.574 . S
C925 C944 1.368 . S
C925 H949 0.949 . S
H926 C930 0.949 . S
C927 C928 1.349 . S
C927 C929 1.327 . S
C927 H950 0.950 . S
C928 C927 1.349 . S
C928 C940 1.349 . S
C929 C927 1.327 . S
C929 C945 1.429 . S
C929 H951 0.950 . S
C930 H926 0.949 . S
C930 C938 1.574 . S
C930 C946 1.368 . S
H931 C939 0.950 . S
H932 C937 0.950 . S
H933 C938 0.949 . S
H934 C940 0.950 . S
H935 C941 0.950 . S
H936 C942 0.949 . S
C937 H932 0.950 . S
C937 C939 1.327 . S
C937 C943 1.429 . S
C938 C930 1.574 . S
C938 H933 0.949 . S
C938 C944 1.368 . S
C939 C923 1.349 . S
C939 H931 0.950 . S
C939 C937 1.327 . S
C940 C928 1.349 . S
C940 H934 0.950 . S
C940 C941 1.327 . S
C941 H935 0.950 . S
C941 C940 1.327 . S
C941 C945 1.429 . S
C942 C925 1.574 . S
C942 H936 0.949 . S
C942 C946 1.368 . S
C943 C924 1.429 . S
C943 C937 1.429 . S
C943 C944 1.523 . S
C944 C925 1.368 . S
C944 C938 1.368 . S
C944 C943 1.523 . S
C945 C929 1.429 . S
C945 C941 1.429 . S
C945 C946 1.523 . S
C946 C930 1.368 . S
C946 C942 1.368 . S
C946 C945 1.523 . S
H947 C922 0.950 . S
H948 C924 0.950 . S
H949 C925 0.949 . S
H950 C927 0.950 . S
H951 C929 0.950 . S
C233 C61 0.940 1_545 S
C238 C81 0.914 . S
C268 C121 1.378 . S
C263 C70 1.404 . S
C298 C170 1.454 . S
C293 C43 1.486 . S
C328 C201 1.850 . S
C323 C52 1.886 . S
C358 C90 0.914 . S
C353 C25 0.942 1_545 S
C383 C34 1.402 . S
C388 C130 1.382 . S
C413 C7 1.480 . S
C418 C161 1.454 . S
C443 C16 1.894 . S
C448 C210 1.850 1_655 S
C478 C91 0.614 . S
C473 C50 0.661 . S
C508 C131 0.326 . S
C503 C59 0.462 1_545 S
C538 C167 0.435 . S
C533 C67 0.438 . S
C563 C41 0.856 . S
C568 C211 0.878 . S
C593 C14 0.657 . S
C598 C82 0.635 . S
C628 C122 0.326 . S
C623 C23 0.466 . S
C658 C158 0.438 . S
C653 C31 0.443 . S
C683 C5 0.854 1_556 S
C688 C202 0.879 . S
C713 C49 1.756 . S
C718 C87 1.805 . S
C743 C58 1.535 1_545 S
C748 C127 1.531 . S
C778 C171 2.030 . S
C773 C68 1.883 . S
C808 C207 1.465 . S
C803 C40 1.446 . S
C833 C13 1.760 . S
C838 C78 1.807 . S
C868 C118 1.531 . S
C863 C22 1.533 . S
C898 C162 2.030 . S
C893 C32 1.875 . S
C923 C4 1.443 . S
C928 C198 1.465 . S
