# Generated by pormake.
# Topology zzz, (3,6)-cn, num edge types: 1
# Building blocks:
#     Node 0, Type 0, BuildingBlock: QEWDON_clean_linker_0, # of connection points: 3
#     Node 1, Type 0, BuildingBlock: QEWDON_clean_linker_0, # of connection points: 3
#     Node 2, Type 0, BuildingBlock: QEWDON_clean_linker_0, # of connection points: 3
#     Node 3, Type 0, BuildingBlock: QEWDON_clean_linker_0, # of connection points: 3
#     Node 4, Type 0, BuildingBlock: QEWDON_clean_linker_0, # of connection points: 3
#     Node 5, Type 0, BuildingBlock: QEWDON_clean_linker_0, # of connection points: 3
#     Node 6, Type 0, BuildingBlock: QEWDON_clean_linker_0, # of connection points: 3
#     Node 7, Type 0, BuildingBlock: QEWDON_clean_linker_0, # of connection points: 3
#     Node 8, Type 1, BuildingBlock: BETDIP_clean_sbu_0, # of connection points: 6
#     Node 9, Type 1, BuildingBlock: BETDIP_clean_sbu_0, # of connection points: 6
#     Node 10, Type 1, BuildingBlock: BETDIP_clean_sbu_0, # of connection points: 6
#     Node 11, Type 1, BuildingBlock: BETDIP_clean_sbu_0, # of connection points: 6
#     Edge 12, Type (0, 1), BuildingBlock: TEMPAE_clean_linker_10, # of connection points: 2
#     Edge 13, Type (0, 1), BuildingBlock: TEMPAE_clean_linker_10, # of connection points: 2
#     Edge 14, Type (0, 1), BuildingBlock: TEMPAE_clean_linker_10, # of connection points: 2
#     Edge 15, Type (0, 1), BuildingBlock: TEMPAE_clean_linker_10, # of connection points: 2
#     Edge 16, Type (0, 1), BuildingBlock: TEMPAE_clean_linker_10, # of connection points: 2
#     Edge 17, Type (0, 1), BuildingBlock: TEMPAE_clean_linker_10, # of connection points: 2
#     Edge 18, Type (0, 1), BuildingBlock: TEMPAE_clean_linker_10, # of connection points: 2
#     Edge 19, Type (0, 1), BuildingBlock: TEMPAE_clean_linker_10, # of connection points: 2
#     Edge 20, Type (0, 1), BuildingBlock: TEMPAE_clean_linker_10, # of connection points: 2
#     Edge 21, Type (0, 1), BuildingBlock: TEMPAE_clean_linker_10, # of connection points: 2
#     Edge 22, Type (0, 1), BuildingBlock: TEMPAE_clean_linker_10, # of connection points: 2
#     Edge 23, Type (0, 1), BuildingBlock: TEMPAE_clean_linker_10, # of connection points: 2
#     Edge 24, Type (0, 1), BuildingBlock: TEMPAE_clean_linker_10, # of connection points: 2
#     Edge 25, Type (0, 1), BuildingBlock: TEMPAE_clean_linker_10, # of connection points: 2
#     Edge 26, Type (0, 1), BuildingBlock: TEMPAE_clean_linker_10, # of connection points: 2
#     Edge 27, Type (0, 1), BuildingBlock: TEMPAE_clean_linker_10, # of connection points: 2
#     Edge 28, Type (0, 1), BuildingBlock: TEMPAE_clean_linker_10, # of connection points: 2
#     Edge 29, Type (0, 1), BuildingBlock: TEMPAE_clean_linker_10, # of connection points: 2
#     Edge 30, Type (0, 1), BuildingBlock: TEMPAE_clean_linker_10, # of connection points: 2
#     Edge 31, Type (0, 1), BuildingBlock: TEMPAE_clean_linker_10, # of connection points: 2
#     Edge 32, Type (0, 1), BuildingBlock: TEMPAE_clean_linker_10, # of connection points: 2
#     Edge 33, Type (0, 1), BuildingBlock: TEMPAE_clean_linker_10, # of connection points: 2
#     Edge 34, Type (0, 1), BuildingBlock: TEMPAE_clean_linker_10, # of connection points: 2
#     Edge 35, Type (0, 1), BuildingBlock: TEMPAE_clean_linker_10, # of connection points: 2
# Relax obj value: 0.166
# Max RMSD: 0.151
# Mean RMSD: 0.109
data_MOF--net-zzz--node1-BETDIP_clean_sbu_0--node2-QEWDON_clean_linker_0--edge1-TEMPAE_clean_linker_10
_symmetry_space_group_name_H-M    P1
_symmetry_Int_Tables_number       1
_symmetry_cell_setting            triclinic
loop_
_symmetry_equiv_pos_as_xyz
'x, y, z'
_cell_length_a     56.220852
_cell_length_b     56.223139
_cell_length_c     13.179212
_cell_angle_alpha  89.777114
_cell_angle_beta   89.990728
_cell_angle_gamma 90.000514
loop_
_atom_site_label
_atom_site_type_symbol
_atom_site_fract_x
_atom_site_fract_y
_atom_site_fract_z
_atom_type_partial_charge
H0 H 0.75708 0.50673 0.25376 0.0
C1 C 0.76927 0.50839 0.31687 0.0
C2 C 0.78876 0.49299 0.32048 0.0
C3 C 0.76659 0.52687 0.38795 0.0
H4 H 0.82124 0.48422 0.39685 0.0
C5 C 0.80578 0.49565 0.39736 0.0
C6 C 0.80506 0.51457 0.46599 0.0
C7 C 0.78508 0.53007 0.46186 0.0
C8 C 0.74581 0.54387 0.37605 0.0
H9 H 0.78418 0.54445 0.51592 0.0
C10 C 0.72416 0.53714 0.32645 0.0
C11 C 0.70578 0.55389 0.3067 0.0
C12 C 0.74806 0.56763 0.4077 0.0
H13 H 0.76419 0.57404 0.44278 0.0
C14 C 0.72986 0.58402 0.39076 0.0
H15 H 0.72141 0.51891 0.3034 0.0
C16 C 0.70913 0.57737 0.34031 0.0
H17 H 0.69593 0.59096 0.32528 0.0
H18 H 0.73212 0.60228 0.41474 0.0
H19 H 0.9897 0.75304 0.25942 0.0
C20 C 0.99443 0.76642 0.31444 0.0
C21 C 0.98285 0.78839 0.30781 0.0
C22 C 1.01222 0.7622 0.388 0.0
H23 H 0.97823 0.82263 0.37695 0.0
C24 C 0.98731 0.8057 0.38162 0.0
C25 C 1.00562 0.80321 0.45239 0.0
C26 C 1.01841 0.78143 0.45448 0.0
C27 C 0.02394 0.73787 0.39418 0.0
H28 H 0.03301 0.77969 0.50737 0.0
C29 C 0.02407 0.7215 0.31108 0.0
C30 C 0.03373 0.69826 0.32109 0.0
C31 C 0.03407 0.73018 0.48637 0.0
H32 H 0.03385 0.74133 0.55302 0.0
C33 C 0.04403 0.70755 0.49584 0.0
H34 H 1.01712 0.72663 0.23779 0.0
C35 C 0.04384 0.69176 0.41457 0.0
H36 H 0.05119 0.67413 0.4258 0.0
H37 H 0.05161 0.70203 0.56769 0.0
H38 H 0.79198 0.98773 0.24086 0.0
C39 C 0.77916 0.99256 0.2981 0.0
C40 C 0.75669 0.9819 0.2923 0.0
C41 C 0.78447 1.00955 0.37381 0.0
H42 H 0.72253 0.97831 0.36429 0.0
C43 C 0.73992 0.98652 0.36827 0.0
C44 C 0.74357 1.00405 0.44102 0.0
C45 C 0.76576 1.01596 0.44258 0.0
C46 C 0.80914 0.0206 0.37928 0.0
H47 H 0.76807 0.03014 0.49677 0.0
C48 C 0.82572 1.01961 0.29698 0.0
C49 C 0.8489 0.02921 0.30576 0.0
C50 C 0.81686 0.03158 0.46961 0.0
H51 H 0.80575 0.03216 0.5364 0.0
C52 C 0.83951 0.04163 0.4771 0.0
H53 H 0.82098 1.01178 0.22513 0.0
C54 C 0.85538 0.04051 0.39605 0.0
H55 H 0.873 0.04805 0.40465 0.0
H56 H 0.84495 0.05001 0.54718 0.0
H57 H 0.49107 0.79301 0.21928 0.0
C58 C 0.49729 0.78067 0.27665 0.0
C59 C 0.49318 0.75643 0.26204 0.0
C60 C 0.50868 0.78881 0.36562 0.0
H61 H 0.49587 0.72131 0.32529 0.0
C62 C 0.4996 0.74002 0.33694 0.0
C63 C 0.51012 0.74705 0.42742 0.0
C64 C 0.5152 0.77154 0.44133 0.0
C65 C 0.51183 0.81531 0.38112 0.0
H66 H 0.52382 0.77695 0.51088 0.0
C67 C 0.51391 0.83166 0.29815 0.0
C68 C 0.51396 0.85663 0.31413 0.0
C69 C 0.5109 0.82473 0.47985 0.0
H70 H 0.50872 0.81331 0.54541 0.0
C71 C 0.51176 0.84923 0.49595 0.0
H72 H 0.51496 0.82518 0.22108 0.0
C73 C 0.51307 0.86501 0.41429 0.0
H74 H 0.51342 0.88392 0.42964 0.0
H75 H 0.51093 0.85608 0.57253 0.0
H76 H 0.29296 0.50872 0.24008 0.0
C77 C 0.28122 0.51014 0.17523 0.0
C78 C 0.26021 0.49672 0.17571 0.0
C79 C 0.28566 0.52728 0.09918 0.0
H80 H 0.2279 0.48895 0.09435 0.0
C81 C 0.24436 0.49894 0.09381 0.0
C82 C 0.24699 0.5167 0.02035 0.0
C83 C 0.26787 0.53085 0.02267 0.0
C84 C 0.30706 0.54341 0.11068 0.0
H85 H 0.26996 0.5446 0.96573 0.0
C86 C 0.32833 0.53591 0.16133 0.0
C87 C 0.34703 0.55217 0.18367 0.0
C88 C 0.30549 0.5673 0.07958 0.0
H89 H 0.28962 0.57418 0.04357 0.0
C90 C 0.32386 0.58323 0.09926 0.0
H91 H 0.3303 0.51748 0.18354 0.0
C92 C 0.34413 0.57595 0.15166 0.0
H93 H 0.35722 0.5894 0.16944 0.0
H94 H 0.32205 0.60165 0.07635 0.0
H95 H 1.00112 0.29016 0.2556 0.0
C96 C 1.00613 0.27658 0.20177 0.0
C97 C 0.9996 0.25318 0.22299 0.0
C98 C 1.01883 0.28225 0.11243 0.0
H99 H 0.99933 0.21704 0.17194 0.0
C100 C 1.00451 0.23514 0.15361 0.0
C101 C 1.0162 0.23968 0.06221 0.0
C102 C 0.02402 0.26331 0.04269 0.0
C103 C 0.02533 0.308 0.09188 0.0
H104 H 0.03378 0.26677 0.97349 0.0
C105 C 0.02794 0.32504 0.17158 0.0
C106 C 0.03203 0.34951 0.1507 0.0
C107 C 0.02752 0.31619 0.99131 0.0
H108 H 0.02507 0.30435 0.92772 0.0
C109 C 0.03205 0.34011 0.97037 0.0
H110 H 0.02711 0.31945 0.25008 0.0
C111 C 0.03413 0.35659 0.04869 0.0
H112 H 0.03685 0.3751 0.02884 0.0
H113 H 0.03346 0.34604 0.89235 0.0
H114 H 0.26099 0.99695 0.23235 0.0
C115 C 0.27385 1.00248 0.17593 0.0
C116 C 0.29739 0.995 0.18746 0.0
C117 C 0.26712 1.01657 0.09143 0.0
H118 H 0.33243 0.99473 0.12428 0.0
C119 C 0.31429 1.0007 0.1139 0.0
C120 C 0.30867 1.01425 0.02874 0.0
C121 C 0.28508 0.02278 0.01851 0.0
C122 C 0.24131 0.02352 0.07771 0.0
H123 H 0.28089 0.03388 0.95374 0.0
C124 C 0.22521 0.02553 0.16114 0.0
C125 C 0.20075 0.03067 0.14574 0.0
C126 C 0.23217 0.02697 0.97928 0.0
H127 H 0.24326 0.02486 0.91288 0.0
C128 C 0.20824 0.0324 0.96395 0.0
H129 H 0.23154 0.02347 0.23816 0.0
C130 C 0.19268 0.03416 0.04587 0.0
H131 H 0.17409 0.03774 0.03056 0.0
H132 H 0.20158 0.03482 0.88753 0.0
H133 H 0.55253 0.25842 0.21107 0.0
C134 C 0.54847 0.27226 0.15665 0.0
C135 C 0.56005 0.29403 0.16786 0.0
C136 C 0.53216 0.2685 0.0769 0.0
H137 H 0.5653 0.32898 0.10669 0.0
C138 C 0.55633 0.31214 0.09656 0.0
C139 C 0.53972 0.30997 0.01835 0.0
C140 C 0.52726 0.28806 0.00952 0.0
C141 C 0.52128 0.24399 0.06364 0.0
H142 H 0.51404 0.28641 0.9504 0.0
C143 C 0.51972 0.22711 0.14504 0.0
C144 C 0.51186 0.20341 0.12882 0.0
C145 C 0.51394 0.23654 0.96675 0.0
H146 H 0.51529 0.24819 0.90153 0.0
C147 C 0.50559 0.21349 0.95086 0.0
H148 H 0.52435 0.23219 0.22151 0.0
C149 C 0.50473 0.19707 0.03035 0.0
H150 H 0.49897 0.17912 0.01374 0.0
H151 H 0.50027 0.2081 0.87542 0.0
Tb152 Tb 0.03877 1.01737 0.82508 0.0
Tb153 Tb 1.01403 0.02823 0.64268 0.0
C154 C 0.04886 0.99684 0.98735 0.0
C155 C 0.03763 0.97459 0.02116 0.0
C156 C 1.01305 0.97135 0.00642 0.0
C157 C 1.00282 0.94898 0.01705 0.0
C158 C 1.01693 0.92933 0.04248 0.0
C159 C 0.0414 0.93263 0.06058 0.0
C160 C 0.05169 0.95512 0.04974 0.0
C161 C 0.06807 0.02865 0.67466 0.0
C162 C 0.02336 0.97522 0.67796 0.0
C163 C 0.99896 0.04669 0.48209 0.0
C164 C 0.98471 0.06832 0.46907 0.0
C165 C 0.98902 0.08322 0.38618 0.0
C166 C 0.97839 0.10558 0.38134 0.0
C167 C 0.96297 0.1134 0.45898 0.0
C168 C 0.95795 0.09792 0.54011 0.0
C169 C 0.96887 0.07563 0.54548 0.0
C170 C 0.98458 1.01791 0.79531 0.0
C171 C 0.02938 0.0712 0.79256 0.0
O172 O 0.0348 1.01535 0.9831 0.0
O173 O 0.06189 0.99481 0.90571 0.0
O174 O 0.04952 1.016 0.66785 0.0
O175 O 0.07111 0.03449 0.76883 0.0
O176 O 0.02511 0.98237 0.77325 0.0
O177 O 0.02264 0.99141 0.60535 0.0
O178 O 1.02047 0.05025 0.51677 0.0
O179 O 0.98831 0.029 0.52775 0.0
O180 O 1.00341 0.03006 0.79974 0.0
O181 O 0.98139 1.01202 0.70175 0.0
O182 O 0.02123 0.06449 0.70249 0.0
O183 O 0.03644 0.05515 0.8594 0.0
H184 H 1.00181 0.98589 0.98201 0.0
H185 H 0.98388 0.947 0.00424 0.0
H186 H 0.0527 0.91767 0.0798 0.0
H187 H 0.07073 0.95711 0.0592 0.0
H188 H 1.00148 0.07803 0.32755 0.0
H189 H 0.98331 0.11717 0.31895 0.0
H190 H 0.94611 0.10323 0.60074 0.0
H191 H 0.96556 0.06445 0.61115 0.0
Tb192 Tb 0.52938 0.04029 0.8075 0.0
Tb193 Tb 0.51869 1.01566 0.60521 0.0
C194 C 0.54707 0.05038 0.97565 0.0
C195 C 0.57013 0.04231 0.01722 0.0
C196 C 0.57233 1.01937 0.05918 0.0
C197 C 0.59471 1.0091 0.07203 0.0
C198 C 0.61517 0.02194 0.04655 0.0
C199 C 0.61323 0.04568 0.015 0.0
C200 C 0.59083 0.05578 0.99975 0.0
C201 C 0.5174 0.06909 0.65545 0.0
C202 C 0.57245 0.02405 0.66339 0.0
C203 C 0.50701 1.00652 0.42701 0.0
C204 C 0.48863 0.99041 0.38795 0.0
C205 C 0.47268 0.99889 0.31499 0.0
C206 C 0.45183 0.98639 0.2947 0.0
C207 C 0.44661 0.96505 0.34676 0.0
C208 C 0.46363 0.9556 0.41362 0.0
C209 C 0.48446 0.96821 0.43428 0.0
C210 C 0.52055 0.98326 0.75584 0.0
C211 C 0.47607 0.02818 0.75846 0.0
O212 O 0.53084 0.03383 0.96401 0.0
O213 O 0.54842 0.06451 0.89648 0.0
O214 O 0.53012 0.05055 0.64958 0.0
O215 O 0.51191 0.07242 0.75003 0.0
O216 O 0.56516 0.02924 0.75654 0.0
O217 O 0.55708 1.02053 0.58883 0.0
O218 O 0.49873 0.02493 0.47701 0.0
O219 O 0.52518 0.99642 0.47246 0.0
O220 O 0.52395 1.00535 0.75801 0.0
O221 O 0.51561 0.97856 0.6623 0.0
O222 O 0.48273 0.0242 0.66303 0.0
O223 O 0.49178 0.03246 0.83123 0.0
H224 H 0.55675 1.00889 0.07718 0.0
H225 H 0.59608 0.991 0.09983 0.0
H226 H 0.62899 0.05601 0.9978 0.0
H227 H 0.58976 0.07365 0.96907 0.0
H228 H 0.47552 1.01601 0.2789 0.0
H229 H 0.43905 0.99446 0.24367 0.0
H230 H 0.46034 0.93904 0.45347 0.0
H231 H 0.49658 0.96118 0.49066 0.0
Tb232 Tb 0.51153 0.53568 0.85378 0.0
Tb233 Tb 0.5395 0.52806 0.66106 0.0
C234 C 0.50004 0.54735 0.02942 0.0
C235 C 0.48364 0.56596 0.06391 0.0
C236 C 0.49125 0.58174 0.13886 0.0
C237 C 0.47895 0.60289 0.1551 0.0
C238 C 0.45865 0.60858 0.09698 0.0
C239 C 0.44998 0.5918 0.02757 0.0
C240 C 0.46242 0.57068 0.01091 0.0
C241 C 0.48098 0.53356 0.69772 0.0
C242 C 0.52272 0.5798 0.70412 0.0
C243 C 0.55697 0.51218 0.50099 0.0
C244 C 0.56053 0.48711 0.47297 0.0
C245 C 0.54091 0.47227 0.45442 0.0
C246 C 0.54396 0.44778 0.44738 0.0
C247 C 0.56662 0.43766 0.45906 0.0
C248 C 0.58636 0.45245 0.4743 0.0
C249 C 0.58336 0.47703 0.48037 0.0
C250 C 0.56487 0.54027 0.82315 0.0
C251 C 0.5245 0.48266 0.79653 0.0
O252 O 0.51917 0.55547 0.98377 0.0
O253 O 0.49045 0.52923 0.982 0.0
O254 O 0.50328 0.5315 0.69729 0.0
O255 O 0.47508 0.53695 0.79122 0.0
O256 O 0.51864 0.57252 0.79895 0.0
O257 O 0.5284 0.56451 0.63193 0.0
O258 O 0.53489 0.51957 0.50747 0.0
O259 O 0.56986 0.51925 0.57767 0.0
O260 O 0.54757 0.52588 0.82078 0.0
O261 O 0.56819 0.54842 0.73212 0.0
O262 O 0.5318 0.49091 0.70724 0.0
O263 O 0.51767 0.49731 0.86953 0.0
H264 H 0.50765 0.57851 0.17987 0.0
H265 H 0.48644 0.61548 0.20823 0.0
H266 H 0.43424 0.59548 0.98287 0.0
H267 H 0.45613 0.55874 0.95257 0.0
H268 H 0.52305 0.47939 0.44898 0.0
H269 H 0.5285 0.43665 0.43501 0.0
H270 H 0.60406 0.44501 0.4812 0.0
H271 H 0.59876 0.48809 0.49474 0.0
Tb272 Tb 0.02267 0.51071 0.83367 0.0
Tb273 Tb 0.03092 0.53584 0.63123 0.0
C274 C 1.00665 0.49604 0.99937 0.0
C275 C 0.98182 0.49114 0.02805 0.0
C276 C 0.9651 0.50968 0.03277 0.0
C277 C 0.94101 0.50459 0.04318 0.0
C278 C 0.9332 0.48093 0.04855 0.0
C279 C 0.94982 0.46238 0.04636 0.0
C280 C 0.97402 0.46747 0.03703 0.0
C281 C 0.03286 0.48287 0.67777 0.0
C282 C 0.9775 0.5265 0.69483 0.0
C283 C 0.04308 0.53955 0.44927 0.0
C284 C 0.06682 0.54317 0.4069 0.0
C285 C 0.07412 0.52846 0.32704 0.0
C286 C 0.09823 0.52364 0.31322 0.0
C287 C 0.11507 0.53363 0.37887 0.0
C288 C 0.10801 0.55058 0.45023 0.0
C289 C 0.08393 0.55529 0.46462 0.0
C290 C 0.02957 0.56836 0.77879 0.0
C291 C 0.07509 0.5252 0.78251 0.0
O292 O 1.01232 0.51834 0.98289 0.0
O293 O 1.01514 0.48195 0.92958 0.0
O294 O 1.0196 0.50106 0.67718 0.0
O295 O 0.0409 0.47984 0.76902 0.0
O296 O 0.98562 0.51792 0.78268 0.0
O297 O 0.99212 0.53395 0.6223 0.0
O298 O 0.04126 0.51924 0.49734 0.0
O299 O 0.03368 0.5572 0.50028 0.0
O300 O 0.02736 0.54604 0.78546 0.0
O301 O 0.03239 0.57311 0.68312 0.0
O302 O 0.0677 0.52896 0.68749 0.0
O303 O 0.05979 0.52049 0.8565 0.0
H304 H 0.97046 0.52811 0.02525 0.0
H305 H 0.92839 0.51915 0.04516 0.0
H306 H 0.94409 0.44402 0.05231 0.0
H307 H 0.98658 0.45288 0.03342 0.0
H308 H 0.06114 0.51873 0.28277 0.0
H309 H 0.10354 0.5106 0.25729 0.0
H310 H 0.12094 0.55885 0.49954 0.0
H311 H 0.07869 0.56653 0.52739 0.0
C312 C 0.16529 0.04936 0.23218 0.0
C313 C 0.18308 0.03175 0.23146 0.0
C314 C 0.14687 0.04926 0.3048 0.0
C315 C 0.14595 0.03108 0.37951 0.0
C316 C 0.1642 1.01361 0.38113 0.0
C317 C 0.18253 1.01419 0.30758 0.0
C318 C 0.12811 0.06845 0.30035 0.0
C319 C 0.16404 0.9939 0.45915 0.0
C320 C 0.10872 0.04195 0.6187 0.0
C321 C 0.08753 0.0297 0.59739 0.0
C322 C 0.12779 0.04246 0.54911 0.0
C323 C 0.12583 0.03037 0.45523 0.0
C324 C 0.10439 1.01806 0.43304 0.0
C325 C 0.08553 1.01792 0.50405 0.0
C326 C 0.15009 0.05597 0.57621 0.0
C327 C 0.10138 1.00494 0.3342 0.0
H328 H 0.16562 0.06322 0.17479 0.0
H329 H 0.19596 1.00036 0.30746 0.0
H330 H 0.11041 0.06034 0.28665 0.0
H331 H 0.12715 0.07786 0.37407 0.0
H332 H 0.13166 0.08171 0.2395 0.0
H333 H 0.17978 0.98207 0.45245 0.0
H334 H 0.16367 1.0015 0.53669 0.0
H335 H 0.14771 0.98302 0.45026 0.0
H336 H 0.11047 0.05115 0.69046 0.0
H337 H 0.06928 1.00837 0.48684 0.0
H338 H 0.15351 0.07004 0.51878 0.0
H339 H 0.16562 0.0438 0.57555 0.0
H340 H 0.1489 0.0644 0.65215 0.0
H341 H 0.10319 1.01751 0.26958 0.0
H342 H 0.08383 0.99595 0.32868 0.0
H343 H 0.11559 0.99138 0.32615 0.0
C344 C 0.4935 0.16771 0.21735 0.0
C345 C 0.51179 0.18479 0.21185 0.0
C346 C 0.49413 0.14878 0.28799 0.0
C347 C 0.51349 0.14662 0.35636 0.0
C348 C 0.53177 0.16405 0.35296 0.0
C349 C 0.53071 0.18283 0.28122 0.0
C350 C 0.47409 0.1309 0.28875 0.0
C351 C 0.55271 0.16266 0.42432 0.0
C352 C 0.50454 0.10994 0.59964 0.0
C353 C 0.51571 0.08826 0.5764 0.0
C354 C 0.50377 0.12893 0.52934 0.0
C355 C 0.51433 0.12638 0.43224 0.0
C356 C 0.52537 0.10439 0.40774 0.0
C357 C 0.52596 0.08566 0.4799 0.0
C358 C 0.49174 0.15185 0.55949 0.0
C359 C 0.53672 0.10067 0.30528 0.0
H360 H 0.47855 0.16908 0.16575 0.0
H361 H 0.54511 0.19562 0.27756 0.0
H362 H 0.48121 0.11283 0.27418 0.0
H363 H 0.46552 0.13049 0.36457 0.0
H364 H 0.46031 0.13498 0.23086 0.0
H365 H 0.5653 0.17769 0.41351 0.0
H366 H 0.54642 0.16269 0.50411 0.0
H367 H 0.56243 0.14573 0.41234 0.0
H368 H 0.49655 0.11221 0.67383 0.0
H369 H 0.53464 0.06904 0.46104 0.0
H370 H 0.47706 0.15595 0.50599 0.0
H371 H 0.50461 0.16677 0.55504 0.0
H372 H 0.48437 0.15107 0.63765 0.0
H373 H 0.52334 0.10337 0.24446 0.0
H374 H 0.54446 0.08259 0.29734 0.0
H375 H 0.55101 0.114 0.29314 0.0
C376 C 0.39059 0.5578 0.23104 0.0
C377 C 0.36898 0.54538 0.24455 0.0
C378 C 0.41 0.55488 0.29778 0.0
C379 C 0.40878 0.53793 0.37744 0.0
C380 C 0.3879 0.52383 0.38647 0.0
C381 C 0.36821 0.52798 0.32162 0.0
C382 C 0.43153 0.5706 0.28362 0.0
C383 C 0.386 0.50486 0.4673 0.0
C384 C 0.46693 0.52267 0.52007 0.0
C385 C 0.46394 0.53527 0.61091 0.0
C386 C 0.44909 0.523 0.4438 0.0
C387 C 0.42809 0.53677 0.45732 0.0
C388 C 0.42563 0.5502 0.54752 0.0
C389 C 0.44323 0.54892 0.62329 0.0
C390 C 0.45261 0.5084 0.34931 0.0
C391 C 0.40448 0.56632 0.56366 0.0
H392 H 0.39228 0.57047 0.1694 0.0
H393 H 0.35195 0.51808 0.33416 0.0
H394 H 0.43956 0.57581 0.35713 0.0
H395 H 0.44515 0.56081 0.23957 0.0
H396 H 0.42696 0.58708 0.2412 0.0
H397 H 0.37037 0.49311 0.45536 0.0
H398 H 0.40235 0.49378 0.46849 0.0
H399 H 0.3843 0.5133 0.54287 0.0
H400 H 0.48279 0.51197 0.51007 0.0
H401 H 0.44084 0.55889 0.69281 0.0
H402 H 0.4552 0.52041 0.28328 0.0
H403 H 0.43656 0.49748 0.33412 0.0
H404 H 0.46831 0.49647 0.35523 0.0
H405 H 0.40299 0.57909 0.49952 0.0
H406 H 0.40575 0.57652 0.63547 0.0
H407 H 0.38787 0.55568 0.5654 0.0
C408 C 0.04966 0.38705 0.22576 0.0
C409 C 0.03338 0.36808 0.2331 0.0
C410 C 0.04982 0.40584 0.29653 0.0
C411 C 0.03335 0.40594 0.37797 0.0
C412 C 1.01717 0.38663 0.38724 0.0
C413 C 1.0174 0.36801 0.31522 0.0
C414 C 0.06758 0.42577 0.28347 0.0
C415 C 0.99929 0.38584 0.47256 0.0
C416 C 0.04761 0.44355 0.61275 0.0
C417 C 0.03352 0.46392 0.5981 0.0
C418 C 0.04769 0.4247 0.54227 0.0
C419 C 0.03333 0.42603 0.45394 0.0
C420 C 1.01923 0.44671 0.43808 0.0
C421 C 1.01946 0.46531 0.51019 0.0
C422 C 0.06311 0.40324 0.56284 0.0
C423 C 1.00373 0.44912 0.34512 0.0
H424 H 0.06237 0.38729 0.16393 0.0
H425 H 1.00455 0.35372 0.32161 0.0
H426 H 0.05811 0.44296 0.27435 0.0
H427 H 0.07886 0.42722 0.35226 0.0
H428 H 0.07931 0.42311 0.21663 0.0
H429 H 0.9881 0.36956 0.4704 0.0
H430 H 1.00858 0.38652 0.54675 0.0
H431 H 0.9875 0.40164 0.46822 0.0
H432 H 0.05853 0.44221 0.68031 0.0
H433 H 1.00837 0.48084 0.49829 0.0
H434 H 0.07582 0.40066 0.49944 0.0
H435 H 0.05191 0.38702 0.56737 0.0
H436 H 0.07333 0.40489 0.6346 0.0
H437 H 1.01479 0.4479 0.2756 0.0
H438 H 0.99385 0.46623 0.34341 0.0
H439 H 0.99073 0.43429 0.34263 0.0
C440 C 0.87557 0.04721 0.17285 0.0
C441 C 0.86703 0.02694 0.22338 0.0
C442 C 0.89447 0.04574 0.1026 0.0
C443 C 0.9057 0.02355 0.08441 0.0
C444 C 0.8971 1.00301 0.13567 0.0
C445 C 0.87774 1.00492 0.20351 0.0
C446 C 0.9025 0.06801 0.04826 0.0
C447 C 0.90878 0.9791 0.12092 0.0
C448 C 0.94129 1.01424 0.83989 0.0
C449 C 0.96474 1.01894 0.87072 0.0
C450 C 0.92203 1.01596 0.90798 0.0
C451 C 0.92621 0.02179 0.01102 0.0
C452 C 0.94994 0.02613 0.04314 0.0
C453 C 0.96881 0.0251 0.97233 0.0
C454 C 0.8971 1.01194 0.869 0.0
C455 C 0.95544 0.03179 0.1525 0.0
H456 H 0.86752 0.06431 0.18894 0.0
H457 H 0.8715 0.98929 0.24396 0.0
H458 H 0.9211 0.07224 0.06959 0.0
H459 H 0.9022 0.06517 0.96498 0.0
H460 H 0.89114 0.08359 0.06644 0.0
H461 H 0.90034 0.96495 0.16766 0.0
H462 H 0.90781 0.97385 0.04001 0.0
H463 H 0.9279 0.98024 0.14129 0.0
H464 H 0.93786 1.00967 0.76141 0.0
H465 H 0.98681 0.02888 0.99682 0.0
H466 H 0.886 0.02787 0.88407 0.0
H467 H 0.88879 0.99676 0.90959 0.0
H468 H 0.89673 1.00824 0.78627 0.0
H469 H 0.94696 0.04886 0.17388 0.0
H470 H 0.97486 0.03318 0.16684 0.0
H471 H 0.94795 1.01781 0.20286 0.0
C472 C 0.53137 0.87335 0.15094 0.0
C473 C 0.51426 0.8744 0.2284 0.0
C474 C 0.53294 0.89137 0.07589 0.0
C475 C 0.51664 0.9107 0.07617 0.0
C476 C 0.49907 0.91157 0.15323 0.0
C477 C 0.49824 0.89364 0.22836 0.0
C478 C 0.55255 0.89015 0.99797 0.0
C479 C 0.48137 0.93171 0.15774 0.0
C480 C 0.53075 0.96913 0.93393 0.0
C481 C 0.51921 0.96564 0.84097 0.0
C482 C 0.53038 0.95144 0.01083 0.0
C483 C 0.51772 0.92982 0.99535 0.0
C484 C 0.5056 0.92658 0.90211 0.0
C485 C 0.50676 0.94426 0.82618 0.0
C486 C 0.54358 0.95635 0.10815 0.0
C487 C 0.49107 0.90447 0.88283 0.0
H488 H 0.54408 0.85885 0.15107 0.0
H489 H 0.48493 0.8947 0.28773 0.0
H490 H 0.54486 0.88956 0.92053 0.0
H491 H 0.56367 0.90644 0.00253 0.0
H492 H 0.56415 0.87435 0.00882 0.0
H493 H 0.46676 0.92801 0.21228 0.0
H494 H 0.49063 0.94821 0.18153 0.0
H495 H 0.47347 0.93508 0.08186 0.0
H496 H 0.5406 0.98542 0.94553 0.0
H497 H 0.49765 0.94139 0.75475 0.0
H498 H 0.54639 0.94027 0.15556 0.0
H499 H 0.53341 0.96956 0.15308 0.0
H500 H 0.56121 0.96426 0.09099 0.0
H501 H 0.50262 0.8885 0.88657 0.0
H502 H 0.48213 0.90487 0.80766 0.0
H503 H 0.4773 0.90248 0.94265 0.0
C504 C 0.68444 0.53318 0.16109 0.0
C505 C 0.68356 0.54782 0.24733 0.0
C506 C 0.66435 0.53013 0.09761 0.0
C507 C 0.64269 0.54209 0.11972 0.0
C508 C 0.6414 0.55599 0.20906 0.0
C509 C 0.66162 0.55851 0.27162 0.0
C510 C 0.6666 0.51482 0.00435 0.0
C511 C 0.6189 0.56914 0.23646 0.0
C512 C 0.60193 0.55825 0.89638 0.0
C513 C 0.58365 0.54131 0.90373 0.0
C514 C 0.62093 0.55875 0.96626 0.0
C515 C 0.62211 0.54169 0.04573 0.0
C516 C 0.60353 0.52464 0.05428 0.0
C517 C 0.58449 0.52475 0.98379 0.0
C518 C 0.6399 0.57757 0.95447 0.0
C519 C 0.60399 0.50598 0.13687 0.0
H520 H 0.70114 0.52488 0.1405 0.0
H521 H 0.66033 0.56941 0.33899 0.0
H522 H 0.65161 0.50202 1.00041 0.0
H523 H 0.6657 0.52618 0.93543 0.0
H524 H 0.68361 0.50477 0.00298 0.0
H525 H 0.62017 0.57796 0.31154 0.0
H526 H 0.61514 0.5829 0.17804 0.0
H527 H 0.60354 0.55677 0.23763 0.0
H528 H 0.60146 0.57115 0.83506 0.0
H529 H 0.57057 0.51148 0.98991 0.0
H530 H 0.65743 0.56904 0.94154 0.0
H531 H 0.64132 0.58812 0.02521 0.0
H532 H 0.6362 0.5899 0.89031 0.0
H533 H 0.62035 0.49508 0.12996 0.0
H534 H 0.58828 0.49402 0.13377 0.0
H535 H 0.60449 0.51459 0.21243 0.0
C536 C 1.01188 0.67573 0.18274 0.0
C537 C 0.03295 0.68023 0.2367 0.0
C538 C 1.01046 0.65714 0.11077 0.0
C539 C 0.03068 0.64274 0.09049 0.0
C540 C 0.05211 0.64755 0.1433 0.0
C541 C 0.05294 0.66601 0.21559 0.0
C542 C 0.98716 0.65268 0.05733 0.0
C543 C 0.0743 0.63317 0.12341 0.0
C544 C 0.02429 0.58145 0.96254 0.0
C545 C 0.02948 0.58678 0.86083 0.0
C546 C 0.02425 0.59941 0.03781 0.0
C547 C 0.02979 0.62334 0.01131 0.0
C548 C 0.03511 0.62869 0.90862 0.0
C549 C 0.03477 0.61051 0.83526 0.0
C550 C 1.01832 0.59276 0.14588 0.0
C551 C 0.04147 0.65368 0.87605 0.0
H552 H 0.99623 0.68631 0.19909 0.0
H553 H 0.06939 0.66934 0.25599 0.0
H554 H 0.98951 0.65472 0.97418 0.0
H555 H 0.98125 0.63413 0.0716 0.0
H556 H 0.97294 0.66503 0.08262 0.0
H557 H 0.0896 0.63915 0.17014 0.0
H558 H 0.0709 0.61411 0.13986 0.0
H559 H 0.07928 0.63457 0.04213 0.0
H560 H 1.02014 0.5633 0.98334 0.0
H561 H 0.03889 0.61493 0.75708 0.0
H562 H 1.00334 0.60383 0.17358 0.0
H563 H 0.03381 0.59639 0.19561 0.0
H564 H 1.01341 0.5737 0.15379 0.0
H565 H 0.02678 0.66605 0.89507 0.0
H566 H 0.0451 0.65501 0.79335 0.0
H567 H 0.05747 0.65977 0.91783 0.0
C568 C 0.96381 0.24778 0.33147 0.0
C569 C 0.9885 0.2462 0.31952 0.0
C570 C 0.95179 0.23131 0.39351 0.0
C571 C 0.96482 0.21236 0.43775 0.0
C572 C 0.99004 0.21376 0.44052 0.0
C573 C 1.00156 0.2311 0.38253 0.0
C574 C 0.9251 0.23279 0.40167 0.0
C575 C 1.00511 0.19529 0.49346 0.0
C576 C 0.95395 0.15198 0.54828 0.0
C577 C 0.95446 0.13846 0.45871 0.0
C578 C 0.95284 0.17694 0.54391 0.0
C579 C 0.95381 0.1884 0.44819 0.0
C580 C 0.95062 0.17469 0.35883 0.0
C581 C 0.95023 0.1499 0.36602 0.0
C582 C 0.95258 0.19075 0.64175 0.0
C583 C 0.95032 0.18575 0.25408 0.0
H584 H 0.95372 0.26008 0.28475 0.0
H585 H 0.02077 0.23061 0.37486 0.0
H586 H 0.91693 0.2306 0.32565 0.0
H587 H 0.91764 0.21934 0.45473 0.0
H588 H 0.92004 0.25078 0.42867 0.0
H589 H 0.02445 0.198 0.48051 0.0
H590 H 1.00185 0.1964 0.57607 0.0
H591 H 1.00043 0.17711 0.46765 0.0
H592 H 0.95624 0.14342 0.62142 0.0
H593 H 0.94886 0.13943 0.29736 0.0
H594 H 0.94944 0.21004 0.62944 0.0
H595 H 0.96963 0.18825 0.6826 0.0
H596 H 0.93839 0.18366 0.69214 0.0
H597 H 0.93469 0.1976 0.24631 0.0
H598 H 0.94938 0.17226 0.1928 0.0
H599 H 0.96655 0.19654 0.24183 0.0
C600 C 0.3084 0.95713 0.26929 0.0
C601 C 0.30613 0.98189 0.27673 0.0
C602 C 0.32871 0.94568 0.30794 0.0
C603 C 0.34717 0.95968 0.34951 0.0
C604 C 0.34261 0.98376 0.37448 0.0
C605 C 0.32158 0.99441 0.34025 0.0
C606 C 0.33201 0.91945 0.28981 0.0
C607 C 0.36136 0.99932 0.42258 0.0
C608 C 0.4102 0.94797 0.42963 0.0
C609 C 0.42225 0.95498 0.34099 0.0
C610 C 0.38531 0.9458 0.4305 0.0
C611 C 0.37234 0.95174 0.34198 0.0
C612 C 0.38476 0.95552 0.24927 0.0
C613 C 0.40959 0.95654 0.24996 0.0
C614 C 0.37314 0.93939 0.52889 0.0
C615 C 0.37245 0.96211 0.15125 0.0
H616 H 0.29618 0.94732 0.22148 0.0
H617 H 0.31945 1.01352 0.34711 0.0
H618 H 0.34278 0.91124 0.35129 0.0
H619 H 0.31458 0.9102 0.28498 0.0
H620 H 0.34153 0.91675 0.21702 0.0
H621 H 0.35446 1.01727 0.4416 0.0
H622 H 0.36811 0.99095 0.49308 0.0
H623 H 0.37662 1.00143 0.36982 0.0
H624 H 0.41981 0.94614 0.50049 0.0
H625 H 0.41896 0.96091 0.18036 0.0
H626 H 0.35429 0.93417 0.51773 0.0
H627 H 0.37388 0.95474 0.58143 0.0
H628 H 0.38271 0.92447 0.56642 0.0
H629 H 0.35445 0.95438 0.14453 0.0
H630 H 0.38304 0.9563 0.08457 0.0
H631 H 0.37103 0.98176 0.14719 0.0
C632 C 0.59367 0.31309 0.25759 0.0
C633 C 0.57228 0.30038 0.26319 0.0
C634 C 0.59809 0.33165 0.32562 0.0
C635 C 0.58061 0.33721 0.399 0.0
C636 C 0.5624 0.32057 0.42019 0.0
C637 C 0.55838 0.30206 0.35121 0.0
C638 C 0.61888 0.34795 0.30616 0.0
C639 C 0.54435 0.32507 0.50245 0.0
C640 C 0.58261 0.39853 0.52035 0.0
C641 C 0.5697 0.4118 0.44882 0.0
C642 C 0.58601 0.37395 0.50751 0.0
C643 C 0.57621 0.36268 0.42116 0.0
C644 C 0.56273 0.37619 0.35021 0.0
C645 C 0.55977 0.40051 0.36499 0.0
C646 C 0.5998 0.36032 0.58683 0.0
C647 C 0.55238 0.36557 0.25481 0.0
H648 H 0.60489 0.31117 0.19115 0.0
H649 H 0.54216 0.29172 0.35736 0.0
H650 H 0.61306 0.36285 0.25649 0.0
H651 H 0.62562 0.35561 0.37814 0.0
H652 H 0.6336 0.33844 0.26734 0.0
H653 H 0.53508 0.30841 0.5249 0.0
H654 H 0.55291 0.33296 0.57027 0.0
H655 H 0.53083 0.33787 0.47402 0.0
H656 H 0.58994 0.40735 0.58634 0.0
H657 H 0.55013 0.41093 0.30903 0.0
H658 H 0.60979 0.34521 0.55364 0.0
H659 H 0.58717 0.35304 0.64372 0.0
H660 H 0.61248 0.37207 0.62751 0.0
H661 H 0.53873 0.37727 0.21967 0.0
H662 H 0.54402 0.34807 0.26965 0.0
H663 H 0.56694 0.36325 0.19902 0.0
C664 C 0.24945 0.50216 0.35537 0.0
C665 C 0.25061 0.48668 0.2721 0.0
C666 C 0.22806 0.50467 0.40889 0.0
C667 C 0.20814 0.49123 0.37752 0.0
C668 C 0.21163 0.47122 0.31447 0.0
C669 C 0.23365 0.46842 0.26601 0.0
C670 C 0.22553 0.52502 0.48229 0.0
C671 C 0.19117 0.45571 0.28166 0.0
C672 C 0.14574 0.50826 0.46026 0.0
C673 C 0.13921 0.5239 0.38203 0.0
C674 C 0.16817 0.49732 0.46049 0.0
C675 C 0.1843 0.50249 0.38118 0.0
C676 C 0.17766 0.51863 0.30268 0.0
C677 C 0.15508 0.52902 0.30406 0.0
C678 C 0.17448 0.48023 0.54486 0.0
C679 C 0.19387 0.52438 0.21455 0.0
H680 H 0.26319 0.51543 0.36625 0.0
H681 H 0.23531 0.45525 0.20649 0.0
H682 H 0.21913 0.54099 0.44066 0.0
H683 H 0.21243 0.52081 0.54261 0.0
H684 H 0.24287 0.52945 0.518 0.0
H685 H 0.19748 0.43773 0.25953 0.0
H686 H 0.17761 0.45387 0.34223 0.0
H687 H 0.18247 0.46395 0.21453 0.0
H688 H 0.1331 0.50432 0.52022 0.0
H689 H 0.14968 0.54108 0.24391 0.0
H690 H 0.18817 0.48837 0.59427 0.0
H691 H 0.18223 0.46363 0.51409 0.0
H692 H 0.15876 0.47557 0.59196 0.0
H693 H 0.21222 0.52819 0.2404 0.0
H694 H 0.18753 0.53998 0.17025 0.0
H695 H 0.19443 0.50885 0.16304 0.0
C696 C 0.95349 0.81344 0.21621 0.0
C697 C 0.97173 0.79645 0.21144 0.0
C698 C 0.95498 0.8341 0.15661 0.0
C699 C 0.97419 0.83652 0.08804 0.0
C700 C 0.98775 0.81623 0.06235 0.0
C701 C 0.98622 0.79603 0.12473 0.0
C702 C 0.93902 0.85481 0.18144 0.0
C703 C 1.00723 0.81752 0.98393 0.0
C704 C 0.98983 0.89725 0.97868 0.0
C705 C 1.00605 0.90553 0.05153 0.0
C706 C 0.97916 0.87477 0.98873 0.0
C707 C 0.98497 0.86038 0.07338 0.0
C708 C 1.00139 0.86883 0.14696 0.0
C709 C 1.01162 0.89127 0.13495 0.0
C710 C 0.96208 0.86646 0.90799 0.0
C711 C 1.00765 0.85482 0.24126 0.0
H712 H 0.94125 0.81304 0.27984 0.0
H713 H 0.99956 0.78223 0.11669 0.0
H714 H 0.94792 0.86618 0.23876 0.0
H715 H 0.93551 0.86588 0.1132 0.0
H716 H 0.92182 0.84867 0.21369 0.0
H717 H 1.01198 0.79954 0.95573 0.0
H718 H 1.00186 0.82885 0.9188 0.0
H719 H 0.02333 0.82551 0.01871 0.0
H720 H 0.98574 0.90822 0.91312 0.0
H721 H 0.02373 0.8979 0.19229 0.0
H722 H 0.94738 0.85573 0.94059 0.0
H723 H 0.9718 0.85508 0.85338 0.0
H724 H 0.95434 0.88169 0.86534 0.0
H725 H 0.02364 0.86197 0.28013 0.0
H726 H 1.01105 0.83588 0.22373 0.0
H727 H 0.99253 0.85592 0.29502 0.0
C728 C 0.74801 0.98643 0.11051 0.0
C729 C 0.7477 0.97152 0.19614 0.0
C730 C 0.72738 0.98912 0.05165 0.0
C731 C 0.70666 0.97655 0.08061 0.0
C732 C 0.70869 0.95704 0.14823 0.0
C733 C 0.72995 0.95402 0.20237 0.0
C734 C 0.72644 1.00876 0.97358 0.0
C735 C 0.68734 0.94242 0.17859 0.0
C736 C 0.65394 1.0167 0.13115 0.0
C737 C 0.63856 1.01051 0.05289 0.0
C738 C 0.67612 1.00571 0.14062 0.0
C739 C 0.68318 0.98831 0.06848 0.0
C740 C 0.66767 0.98227 0.98804 0.0
C741 C 0.64534 0.99338 0.98162 0.0
C742 C 0.69135 1.01219 0.23083 0.0
C743 C 0.67475 0.96451 0.90798 0.0
H744 H 0.76233 0.99916 0.10093 0.0
H745 H 0.73039 0.94143 0.26494 0.0
H746 H 0.71404 1.00424 0.9111 0.0
H747 H 0.71994 0.02529 0.01011 0.0
H748 H 0.74435 1.01237 0.94135 0.0
H749 H 0.69276 0.92484 0.20973 0.0
H750 H 0.67734 0.95202 0.23845 0.0
H751 H 0.67517 0.93961 0.11359 0.0
H752 H 0.64834 0.02988 0.1861 0.0
H753 H 0.63328 0.98894 0.92032 0.0
H754 H 0.71017 1.01491 0.20883 0.0
H755 H 0.69053 0.99746 0.28684 0.0
H756 H 0.68508 0.02863 0.26888 0.0
H757 H 0.68747 0.97306 0.85485 0.0
H758 H 0.65916 0.95822 0.86381 0.0
H759 H 0.68386 0.9489 0.94181 0.0
C760 C 0.4938 0.73026 0.11482 0.0
C761 C 0.48114 0.7469 0.17188 0.0
C762 C 0.48235 0.7101 0.07692 0.0
C763 C 0.4575 0.70753 0.09203 0.0
C764 C 0.44413 0.72706 0.12811 0.0
C765 C 0.45623 0.74653 0.17024 0.0
C766 C 0.49752 0.68996 0.03768 0.0
C767 C 0.41742 0.72588 0.13644 0.0
C768 C 0.44382 0.64541 0.00955 0.0
C769 C 0.449 0.63314 0.10003 0.0
C770 C 0.44257 0.67035 0.00799 0.0
C771 C 0.44766 0.68305 0.0978 0.0
C772 C 0.44933 0.67057 0.19149 0.0
C773 C 0.44939 0.64572 0.19134 0.0
C774 C 0.43856 0.68291 0.9081 0.0
C775 C 0.45486 0.68292 0.29034 0.0
H776 H 0.5131 0.73088 0.1154 0.0
H777 H 0.44639 0.75968 0.21316 0.0
H778 H 0.4895 0.68202 0.9691 0.0
H779 H 0.51585 0.69591 0.01874 0.0
H780 H 0.49873 0.67581 0.09645 0.0
H781 H 0.40951 0.74397 0.13264 0.0
H782 H 0.4097 0.71476 0.07531 0.0
H783 H 0.41242 0.71788 0.2105 0.0
H784 H 0.4429 0.63587 0.93837 0.0
H785 H 0.45229 0.6362 0.26201 0.0
H786 H 0.45561 0.68418 0.8661 0.0
H787 H 0.43151 0.70116 0.91902 0.0
H788 H 0.42596 0.67269 0.86011 0.0
H789 H 0.45032 0.67162 0.35693 0.0
H790 H 0.44525 0.7 0.29754 0.0
H791 H 0.47423 0.68659 0.29333 0.0
C792 C 0.79853 0.48984 0.13829 0.0
C793 C 0.79528 0.47823 0.23173 0.0
C794 C 0.81744 0.48329 0.07491 0.0
C795 C 0.83294 0.46499 0.10739 0.0
C796 C 0.82565 0.44951 0.18618 0.0
C797 C 0.80658 0.4563 0.24808 0.0
C798 C 0.82367 0.49912 0.9862 0.0
C799 C 0.84066 0.42852 0.21734 0.0
C800 C 0.89535 0.46093 0.9962 0.0
C801 C 0.90775 0.47595 0.06234 0.0
C802 C 0.8708 0.45711 0.0085 0.0
C803 C 0.8588 0.46824 0.09 0.0
C804 C 0.87162 0.48319 0.15745 0.0
C805 C 0.89586 0.48682 0.14241 0.0
C806 C 0.85815 0.44086 0.93542 0.0
C807 C 0.86014 0.49499 0.24789 0.0
H808 H 0.78922 0.50635 0.12288 0.0
H809 H 0.80328 0.44666 0.31811 0.0
H810 H 0.83246 0.48886 0.92497 0.0
H811 H 0.8076 0.50803 0.95503 0.0
H812 H 0.83624 0.5131 0.01187 0.0
H813 H 0.82997 0.41516 0.25976 0.0
H814 H 0.84878 0.41993 0.15006 0.0
H815 H 0.85523 0.43471 0.26757 0.0
H816 H 0.90475 0.45252 0.93409 0.0
H817 H 0.90571 0.49808 0.19427 0.0
H818 H 0.83908 0.44548 0.92671 0.0
H819 H 0.85926 0.42234 0.96445 0.0
H820 H 0.86673 0.44131 0.85948 0.0
H821 H 0.84339 0.50404 0.22628 0.0
H822 H 0.87191 0.50841 0.28371 0.0
H823 H 0.85607 0.48118 0.30553 0.0
C824 C 0.04194 0.21031 0.96453 0.0
C825 C 1.01934 0.2188 0.99182 0.0
C826 C 0.04488 0.18736 0.92156 0.0
C827 C 0.02484 0.17229 0.90661 0.0
C828 C 1.00192 0.18149 0.92804 0.0
C829 C 0.99949 0.20445 0.96955 0.0
C830 C 0.06955 0.17884 0.89567 0.0
C831 C 0.97993 0.16652 0.91284 0.0
C832 C 0.02634 0.11496 0.74662 0.0
C833 C 0.02946 0.09715 0.82058 0.0
C834 C 0.02579 0.13937 0.77243 0.0
C835 C 0.02773 0.14648 0.87549 0.0
C836 C 0.03094 0.12853 0.95045 0.0
C837 C 0.03202 0.1043 0.92218 0.0
C838 C 0.02216 0.15724 0.68849 0.0
C839 C 0.03247 0.13485 0.06148 0.0
H840 H 0.05743 0.22102 0.98196 0.0
H841 H 0.98192 0.21075 0.99028 0.0
H842 H 0.07466 0.16411 0.94755 0.0
H843 H 0.06987 0.17172 0.8172 0.0
H844 H 0.08299 0.19324 0.90201 0.0
H845 H 0.96331 0.17671 0.92652 0.0
H846 H 0.97946 0.15939 0.83452 0.0
H847 H 0.98035 0.15109 0.96563 0.0
H848 H 0.02426 0.10988 0.66784 0.0
H849 H 0.03426 0.09085 0.98053 0.0
H850 H 0.02965 0.17493 0.70735 0.0
H851 H 1.0028 0.1592 0.67491 0.0
H852 H 0.03033 0.151 0.61658 0.0
H853 H 0.0354 0.119 0.1105 0.0
H854 H 1.01577 0.14371 0.08562 0.0
H855 H 0.04721 0.14762 0.0741 0.0
C856 C 0.34107 0.99881 0.91692 0.0
C857 C 0.32851 1.01854 0.95467 0.0
C858 C 0.364 1.00112 0.87483 0.0
C859 C 0.37486 0.02383 0.86861 0.0
C860 C 0.36154 0.04407 0.89939 0.0
C861 C 0.33863 0.04119 0.94263 0.0
C862 C 0.37726 0.97894 0.84393 0.0
C863 C 0.37212 0.06867 0.89283 0.0
C864 C 0.44294 0.02562 0.88756 0.0
C865 C 0.45009 0.02762 0.78562 0.0
C866 C 0.4187 0.02457 0.91514 0.0
C867 C 0.40079 0.02593 0.8394 0.0
C868 C 0.40784 0.02817 0.73633 0.0
C869 C 0.43229 0.02883 0.71072 0.0
C870 C 0.41229 0.02139 0.02568 0.0
C871 C 0.38953 0.0299 0.65294 0.0
H872 H 0.33356 0.9812 0.92718 0.0
H873 H 0.32935 0.05646 0.97323 0.0
H874 H 0.38461 0.98098 0.76627 0.0
H875 H 0.39249 0.97603 0.89607 0.0
H876 H 0.36576 0.96287 0.84594 0.0
H877 H 0.35866 0.08273 0.90696 0.0
H878 H 0.38651 0.07043 0.94995 0.0
H879 H 0.38019 0.07165 0.81699 0.0
H880 H 0.45637 0.02441 0.94635 0.0
H881 H 0.43746 0.03046 0.63177 0.0
H882 H 0.40294 1.00418 0.03643 0.0
H883 H 0.39995 0.03566 0.0501 0.0
H884 H 0.42816 0.02161 0.07585 0.0
H885 H 0.37713 1.01459 0.65694 0.0
H886 H 0.39775 0.03037 0.57628 0.0
H887 H 0.37877 0.04625 0.66321 0.0
C888 C 0.55489 0.34526 0.91871 0.0
C889 C 0.53534 0.33187 0.9539 0.0
C890 C 0.55238 0.36888 0.88354 0.0
C891 C 0.52959 0.37967 0.88073 0.0
C892 C 0.5095 0.36562 0.90807 0.0
C893 C 0.5126 0.34204 0.94496 0.0
C894 C 0.57446 0.3828 0.85634 0.0
C895 C 0.48477 0.3759 0.90336 0.0
C896 C 0.5263 0.44751 0.91716 0.0
C897 C 0.52507 0.45624 0.81716 0.0
C898 C 0.52771 0.42286 0.93837 0.0
C899 C 0.52722 0.40607 0.85805 0.0
C900 C 0.52557 0.41474 0.75681 0.0
C901 C 0.52482 0.43958 0.73767 0.0
C902 C 0.53037 0.41481 0.04722 0.0
C903 C 0.52449 0.39776 0.66851 0.0
H904 H 0.57256 0.33766 0.92456 0.0
H905 H 0.49735 0.33213 0.97242 0.0
H906 H 0.57242 0.39148 0.78116 0.0
H907 H 0.57722 0.3971 0.91294 0.0
H908 H 0.59061 0.37142 0.85463 0.0
H909 H 0.47088 0.362 0.91246 0.0
H910 H 0.48252 0.38918 0.96466 0.0
H911 H 0.48194 0.38525 0.83002 0.0
H912 H 0.52678 0.46004 0.97941 0.0
H913 H 0.52374 0.44595 0.66012 0.0
H914 H 0.5472 0.4047 0.05621 0.0
H915 H 0.5156 0.40267 0.06812 0.0
H916 H 0.53052 0.42994 0.1012 0.0
H917 H 0.52283 0.40715 0.59456 0.0
H918 H 0.50909 0.38561 0.67783 0.0
H919 H 0.5407 0.38653 0.66658 0.0
C920 C 0.21427 0.50272 0.90435 0.0
C921 C 0.22555 0.52165 0.95464 0.0
C922 C 0.1906 0.50442 0.86915 0.0
C923 C 0.17745 0.52569 0.88366 0.0
C924 C 0.18921 0.5454 0.92885 0.0
C925 C 0.213 0.54316 0.96363 0.0
C926 C 0.17927 0.48254 0.82422 0.0
C927 C 0.17612 0.56839 0.94721 0.0
C928 C 0.11853 0.53304 0.7361 0.0
C929 C 0.10134 0.5259 0.80776 0.0
C930 C 0.14313 0.53359 0.76018 0.0
C931 C 0.15111 0.52662 0.85812 0.0
C932 C 0.13386 0.51938 0.93056 0.0
C933 C 0.10942 0.51924 0.90498 0.0
C934 C 0.16077 0.5414 0.68055 0.0
C935 C 0.14126 0.5115 0.03542 0.0
H936 H 0.22352 0.48585 0.89851 0.0
H937 H 0.22114 0.5577 0.00473 0.0
H938 H 0.17089 0.47203 0.88605 0.0
H939 H 0.16526 0.48709 0.76833 0.0
H940 H 0.19274 0.47107 0.78687 0.0
H941 H 0.18831 0.58291 0.9707 0.0
H942 H 0.16643 0.57406 0.87792 0.0
H943 H 0.16273 0.56567 0.00805 0.0
H944 H 0.11276 0.53821 0.66096 0.0
H945 H 0.09661 0.5136 0.9616 0.0
H946 H 0.17353 0.52681 0.66535 0.0
H947 H 0.17123 0.55675 0.70869 0.0
H948 H 0.15207 0.54658 0.60835 0.0
H949 H 0.15265 0.49544 0.03025 0.0
H950 H 0.1258 0.5074 0.08499 0.0
H951 H 0.15199 0.52565 0.0715 0.0
C952 C 0.99328 0.83779 0.56139 0.0
C953 C 1.01169 0.82502 0.51381 0.0
C954 C 0.99634 0.86148 0.59404 0.0
C955 C 1.01855 0.87302 0.5809 0.0
C956 C 0.03773 0.85972 0.5392 0.0
C957 C 0.03405 0.83603 0.50567 0.0
C958 C 0.97512 0.87469 0.6356 0.0
C959 C 0.06185 0.87093 0.52476 0.0
C960 C 1.01723 0.94128 0.55426 0.0
C961 C 0.02254 0.94905 0.65304 0.0
C962 C 1.01623 0.9168 0.52975 0.0
C963 C 0.02104 0.89929 0.60505 0.0
C964 C 0.02682 0.90703 0.70452 0.0
C965 C 0.0273 0.93164 0.72743 0.0
C966 C 1.0098 0.90967 0.42291 0.0
C967 C 0.03246 0.88923 0.78705 0.0
H968 H 0.97584 0.82966 0.5673 0.0
H969 H 0.0483 0.82668 0.46736 0.0
H970 H 0.98011 0.88522 0.7033 0.0
H971 H 0.96853 0.88736 0.57725 0.0
H972 H 0.96035 0.86248 0.65632 0.0
H973 H 0.07571 0.8575 0.50675 0.0
H974 H 0.06104 0.88396 0.46142 0.0
H975 H 0.06726 0.88074 0.59393 0.0
H976 H 1.01355 0.95437 0.49581 0.0
H977 H 0.03159 0.93722 0.80389 0.0
H978 H 0.99405 0.89777 0.42375 0.0
H979 H 0.02471 0.89959 0.38877 0.0
H980 H 1.00584 0.92525 0.37362 0.0
H981 H 1.01682 0.87764 0.80093 0.0
H982 H 0.03753 0.89794 0.85939 0.0
H983 H 0.04727 0.87755 0.76255 0.0
C984 C 0.70972 0.99235 0.55467 0.0
C985 C 0.72243 1.01053 0.50501 0.0
C986 C 0.68613 0.99564 0.5879 0.0
C987 C 0.67471 1.01786 0.57288 0.0
C988 C 0.68801 0.03685 0.52943 0.0
C989 C 0.71161 0.03294 0.49553 0.0
C990 C 0.67285 0.97457 0.63099 0.0
C991 C 0.67684 0.06092 0.51275 0.0
C992 C 0.60678 1.01653 0.54343 0.0
C993 C 0.59869 0.02273 0.64085 0.0
C994 C 0.63127 1.01523 0.52026 0.0
C995 C 0.64847 1.02047 0.59572 0.0
C996 C 0.64049 0.02694 0.694 0.0
C997 C 0.61584 0.0279 0.71547 0.0
C998 C 0.63873 1.00811 0.41461 0.0
C999 C 0.65811 0.03261 0.77678 0.0
H1000 H 0.71773 0.97486 0.56097 0.0
H1001 H 0.72096 0.04695 0.4553 0.0
H1002 H 0.6611 0.97994 0.69444 0.0
H1003 H 0.6614 0.96688 0.57088 0.0
H1004 H 0.68516 0.96047 0.65823 0.0
H1005 H 0.69029 0.07466 0.49292 0.0
H1006 H 0.66378 0.05982 0.44988 0.0
H1007 H 0.66709 0.06669 0.58162 0.0
H1008 H 0.59392 1.01251 0.4847 0.0
H1009 H 0.61002 0.03274 0.79099 0.0
H1010 H 0.65054 0.9923 0.41796 0.0
H1011 H 0.64902 0.02276 0.37922 0.0
H1012 H 0.62331 1.00396 0.36502 0.0
H1013 H 0.66912 1.0167 0.79362 0.0
H1014 H 0.64927 0.03841 0.84775 0.0
H1015 H 0.67036 0.04689 0.75111 0.0
C1016 C 0.49413 0.716 0.54528 0.0
C1017 C 0.51408 0.72772 0.50445 0.0
C1018 C 0.49582 0.69304 0.58851 0.0
C1019 C 0.51807 0.68116 0.59153 0.0
C1020 C 0.53857 0.69357 0.55664 0.0
C1021 C 0.53632 0.71653 0.51289 0.0
C1022 C 0.47335 0.68082 0.62347 0.0
C1023 C 0.56273 0.68193 0.5592 0.0
C1024 C 0.52327 0.62366 0.75096 0.0
C1025 C 0.5212 0.6058 0.67703 0.0
C1026 C 0.52263 0.64812 0.72451 0.0
C1027 C 0.51941 0.65515 0.62174 0.0
C1028 C 0.51688 0.63716 0.54721 0.0
C1029 C 0.51806 0.61291 0.57542 0.0
C1030 C 0.5257 0.66647 0.80655 0.0
C1031 C 0.51268 0.6435 0.43717 0.0
H1032 H 0.47676 0.72414 0.53641 0.0
H1033 H 0.5517 0.72503 0.47894 0.0
H1034 H 0.46821 0.66714 0.56708 0.0
H1035 H 0.47619 0.67162 0.69706 0.0
H1036 H 0.45833 0.69351 0.63174 0.0
H1037 H 0.56607 0.67385 0.63481 0.0
H1038 H 0.56334 0.66741 0.50249 0.0
H1039 H 0.57723 0.69475 0.54187 0.0
H1040 H 0.52582 0.61853 0.82957 0.0
H1041 H 0.5162 0.59943 0.51741 0.0
H1042 H 0.511 0.67962 0.80348 0.0
H1043 H 0.54251 0.67637 0.79378 0.0
H1044 H 0.52623 0.65836 0.88351 0.0
H1045 H 0.511 0.62753 0.38832 0.0
H1046 H 0.52756 0.65458 0.40828 0.0
H1047 H 0.49618 0.6542 0.42986 0.0
C1048 C 0.83936 0.49908 0.57232 0.0
C1049 C 0.82699 0.51866 0.53075 0.0
C1050 C 0.86291 0.50108 0.60871 0.0
C1051 C 0.8746 0.52342 0.60737 0.0
C1052 C 0.86146 0.54369 0.57465 0.0
C1053 C 0.83804 0.54107 0.53581 0.0
C1054 C 0.87572 0.47891 0.64357 0.0
C1055 C 0.87252 0.5681 0.57707 0.0
C1056 C 0.93427 0.52719 0.75291 0.0
C1057 C 0.95111 0.52644 0.67401 0.0
C1058 C 0.90946 0.527 0.73303 0.0
C1059 C 0.90098 0.52513 0.63156 0.0
C1060 C 0.91801 0.5239 0.55199 0.0
C1061 C 0.94261 0.525 0.57388 0.0
C1062 C 0.89257 0.52837 0.82182 0.0
C1063 C 0.91026 0.5205 0.44329 0.0
H1064 H 0.83099 0.48172 0.57133 0.0
H1065 H 0.82894 0.5564 0.50434 0.0
H1066 H 0.89211 0.47633 0.59792 0.0
H1067 H 0.8812 0.48083 0.72391 0.0
H1068 H 0.8645 0.46273 0.63694 0.0
H1069 H 0.88103 0.57123 0.65188 0.0
H1070 H 0.88662 0.56937 0.51843 0.0
H1071 H 0.85923 0.58235 0.56272 0.0
H1072 H 0.94045 0.52823 0.83064 0.0
H1073 H 0.95529 0.52398 0.51211 0.0
H1074 H 0.88892 0.51015 0.85039 0.0
H1075 H 0.87539 0.53675 0.80064 0.0
H1076 H 0.90054 0.53858 0.88532 0.0
H1077 H 0.92555 0.51974 0.38997 0.0
H1078 H 0.89835 0.53521 0.41945 0.0
H1079 H 0.90001 0.5037 0.43677 0.0
loop_
_geom_bond_atom_site_label_1
_geom_bond_atom_site_label_2
_geom_bond_distance
_geom_bond_site_symmetry_2
_ccdc_geom_bond_type
H0 C1 0.949 . S
C1 H0 0.949 . S
C1 C2 1.395 . S
C1 C3 1.391 . S
C2 C1 1.395 . S
C2 C5 1.390 . S
C3 C1 1.391 . S
C3 C7 1.387 . S
C3 C8 1.491 . S
H4 C5 0.950 . S
C5 C2 1.390 . S
C5 H4 0.950 . S
C5 C6 1.378 . S
C6 C5 1.378 . S
C6 C7 1.409 . S
C7 C3 1.387 . S
C7 C6 1.409 . S
C7 H9 0.951 . S
C8 C3 1.491 . S
C8 C10 1.382 . S
C8 C12 1.404 . S
H9 C7 0.951 . S
C10 C8 1.382 . S
C10 C11 1.390 . S
C10 H15 0.949 . S
C11 C10 1.390 . S
C11 C16 1.399 . S
C12 C8 1.404 . S
C12 H13 0.950 . S
C12 C14 1.375 . S
H13 C12 0.950 . S
C14 C12 1.375 . S
C14 C16 1.382 . S
C14 H18 0.950 . S
H15 C10 0.949 . S
C16 C11 1.399 . S
C16 C14 1.382 . S
C16 H17 0.952 . S
H17 C16 0.952 . S
H18 C14 0.950 . S
H19 C20 0.949 . S
C20 H19 0.949 . S
C20 C21 1.395 . S
C20 C22 1.391 . S
C21 C20 1.395 . S
C21 C24 1.390 1_655 S
C22 C20 1.391 . S
C22 C26 1.387 . S
C22 C27 1.491 . S
H23 C24 0.950 . S
C24 C21 1.390 1_455 S
C24 H23 0.950 . S
C24 C25 1.377 1_455 S
C25 C24 1.377 1_655 S
C25 C26 1.413 . S
C26 C22 1.387 . S
C26 C25 1.413 . S
C26 H28 0.951 . S
C27 C22 1.491 . S
C27 C29 1.382 . S
C27 C31 1.404 . S
H28 C26 0.951 . S
C29 C27 1.382 . S
C29 C30 1.390 . S
C29 H34 0.949 1_655 S
C30 C29 1.390 . S
C30 C35 1.399 . S
C31 C27 1.404 . S
C31 H32 0.950 . S
C31 C33 1.375 . S
H32 C31 0.950 . S
C33 C31 1.375 . S
C33 C35 1.382 . S
C33 H37 0.950 . S
H34 C29 0.949 1_455 S
C35 C30 1.399 . S
C35 C33 1.382 . S
C35 H36 0.952 . S
H36 C35 0.952 . S
H37 C33 0.950 . S
H38 C39 0.949 . S
C39 H38 0.949 . S
C39 C40 1.395 . S
C39 C41 1.391 . S
C40 C39 1.395 . S
C40 C43 1.390 1_565 S
C41 C39 1.391 . S
C41 C45 1.387 . S
C41 C46 1.491 . S
H42 C43 0.950 . S
C43 C40 1.390 1_545 S
C43 H42 0.950 . S
C43 C44 1.377 1_545 S
C44 C43 1.377 1_565 S
C44 C45 1.413 . S
C45 C41 1.387 . S
C45 C44 1.413 . S
C45 H47 0.951 . S
C46 C41 1.491 . S
C46 C48 1.382 . S
C46 C50 1.404 . S
H47 C45 0.951 . S
C48 C46 1.382 . S
C48 C49 1.390 . S
C48 H53 0.949 1_565 S
C49 C48 1.390 . S
C49 C54 1.399 . S
C50 C46 1.404 . S
C50 H51 0.950 . S
C50 C52 1.375 . S
H51 C50 0.950 . S
C52 C50 1.375 . S
C52 C54 1.382 . S
C52 H56 0.950 . S
H53 C48 0.949 1_545 S
C54 C49 1.399 . S
C54 C52 1.382 . S
C54 H55 0.952 . S
H55 C54 0.952 . S
H56 C52 0.950 . S
H57 C58 0.949 . S
C58 H57 0.949 . S
C58 C59 1.395 . S
C58 C60 1.391 . S
C59 C58 1.395 . S
C59 C62 1.390 . S
C60 C58 1.391 . S
C60 C64 1.387 . S
C60 C65 1.491 . S
H61 C62 0.950 . S
C62 C59 1.390 . S
C62 H61 0.950 . S
C62 C63 1.378 . S
C63 C62 1.378 . S
C63 C64 1.409 . S
C64 C60 1.387 . S
C64 C63 1.409 . S
C64 H66 0.951 . S
C65 C60 1.491 . S
C65 C67 1.382 . S
C65 C69 1.404 . S
H66 C64 0.951 . S
C67 C65 1.382 . S
C67 C68 1.390 . S
C67 H72 0.949 . S
C68 C67 1.390 . S
C68 C73 1.399 . S
C69 C65 1.404 . S
C69 H70 0.950 . S
C69 C71 1.375 . S
H70 C69 0.950 . S
C71 C69 1.375 . S
C71 C73 1.382 . S
C71 H75 0.950 . S
H72 C67 0.949 . S
C73 C68 1.399 . S
C73 C71 1.382 . S
C73 H74 0.952 . S
H74 C73 0.952 . S
H75 C71 0.950 . S
H76 C77 0.949 . S
C77 H76 0.949 . S
C77 C78 1.395 . S
C77 C79 1.391 1_554 S
C78 C77 1.395 . S
C78 C81 1.390 1_554 S
C79 C77 1.391 1_556 S
C79 C83 1.387 . S
C79 C84 1.491 . S
H80 C81 0.950 . S
C81 C78 1.390 1_556 S
C81 H80 0.950 . S
C81 C82 1.378 . S
C82 C81 1.378 . S
C82 C83 1.409 . S
C83 C79 1.387 . S
C83 C82 1.409 . S
C83 H85 0.951 . S
C84 C79 1.491 . S
C84 C86 1.382 1_556 S
C84 C88 1.404 . S
H85 C83 0.951 . S
C86 C84 1.382 1_554 S
C86 C87 1.390 . S
C86 H91 0.949 . S
C87 C86 1.390 . S
C87 C92 1.399 . S
C88 C84 1.404 . S
C88 H89 0.950 . S
C88 C90 1.375 . S
H89 C88 0.950 . S
C90 C88 1.375 . S
C90 C92 1.382 1_556 S
C90 H94 0.950 . S
H91 C86 0.949 . S
C92 C87 1.399 . S
C92 C90 1.382 1_554 S
C92 H93 0.952 . S
H93 C92 0.952 . S
H94 C90 0.950 . S
H95 C96 0.949 . S
C96 H95 0.949 . S
C96 C97 1.395 1_655 S
C96 C98 1.391 1_554 S
C97 C96 1.395 1_455 S
C97 C100 1.390 1_554 S
C98 C96 1.391 1_556 S
C98 C102 1.387 . S
C98 C103 1.491 1_556 S
H99 C100 0.950 . S
C100 C97 1.390 1_556 S
C100 H99 0.950 . S
C100 C101 1.377 1_455 S
C101 C100 1.377 1_655 S
C101 C102 1.411 . S
C102 C98 1.387 . S
C102 C101 1.411 . S
C102 H104 0.951 . S
C103 C98 1.491 1_554 S
C103 C105 1.402 . S
C103 C107 1.404 1_554 S
H104 C102 0.951 . S
C105 C103 1.402 . S
C105 C106 1.400 . S
C105 H110 0.920 1_655 S
C106 C105 1.400 . S
C106 C111 1.399 . S
C107 C103 1.404 1_556 S
C107 H108 0.950 . S
C107 C109 1.375 . S
H108 C107 0.950 . S
C109 C107 1.375 . S
C109 C111 1.382 1_556 S
C109 H113 0.950 . S
H110 C105 0.920 1_455 S
C111 C106 1.399 . S
C111 C109 1.382 1_554 S
C111 H112 0.952 . S
H112 C111 0.952 . S
H113 C109 0.950 . S
H114 C115 0.949 . S
C115 H114 0.949 . S
C115 C116 1.395 1_565 S
C115 C117 1.391 1_554 S
C116 C115 1.395 1_545 S
C116 C119 1.390 1_554 S
C117 C115 1.391 1_556 S
C117 C121 1.387 . S
C117 C122 1.491 . S
H118 C119 0.950 . S
C119 C116 1.390 1_556 S
C119 H118 0.950 . S
C119 C120 1.377 1_545 S
C120 C119 1.377 1_565 S
C120 C121 1.411 . S
C121 C117 1.387 . S
C121 C120 1.411 . S
C121 H123 0.951 . S
C122 C117 1.491 . S
C122 C124 1.399 1_556 S
C122 C126 1.407 . S
H123 C121 0.951 . S
C124 C122 1.399 1_554 S
C124 C125 1.400 . S
C124 H129 0.920 1_565 S
C125 C124 1.400 . S
C125 C130 1.399 . S
C126 C122 1.407 . S
C126 H127 0.950 . S
C126 C128 1.375 . S
H127 C126 0.950 . S
C128 C126 1.375 . S
C128 C130 1.382 1_556 S
C128 H132 0.950 . S
H129 C124 0.920 1_545 S
C130 C125 1.399 . S
C130 C128 1.382 1_554 S
C130 H131 0.952 . S
H131 C130 0.952 . S
H132 C128 0.950 . S
H133 C134 0.949 . S
C134 H133 0.949 . S
C134 C135 1.395 . S
C134 C136 1.391 1_554 S
C135 C134 1.395 . S
C135 C138 1.390 1_554 S
C136 C134 1.391 1_556 S
C136 C140 1.387 . S
C136 C141 1.491 . S
H137 C138 0.950 . S
C138 C135 1.390 1_556 S
C138 H137 0.950 . S
C138 C139 1.378 . S
C139 C138 1.378 . S
C139 C140 1.409 . S
C140 C136 1.387 . S
C140 C139 1.409 . S
C140 H142 0.951 . S
C141 C136 1.491 . S
C141 C143 1.382 1_556 S
C141 C145 1.404 . S
H142 C140 0.951 . S
C143 C141 1.382 1_554 S
C143 C144 1.390 . S
C143 H148 0.949 . S
C144 C143 1.390 . S
C144 C149 1.399 . S
C145 C141 1.404 . S
C145 H146 0.950 . S
C145 C147 1.375 . S
H146 C145 0.950 . S
C147 C145 1.375 . S
C147 C149 1.382 1_556 S
C147 H151 0.950 . S
H148 C143 0.949 . S
C149 C144 1.399 . S
C149 C147 1.382 1_554 S
C149 H150 0.952 . S
H150 C149 0.952 . S
H151 C147 0.950 . S
Tb152 C154 2.809 . S
Tb152 O172 2.471 1_455 S
Tb152 O173 2.440 . S
Tb152 O174 2.658 1_565 S
Tb152 O175 2.409 . S
Tb152 O176 2.378 . S
Tb152 O180 2.325 1_455 S
Tb152 O183 2.341 1_565 S
Tb153 C163 2.809 . S
Tb153 O174 2.325 1_655 S
Tb153 O177 2.341 1_545 S
Tb153 O178 2.466 1_655 S
Tb153 O179 2.440 . S
Tb153 O180 2.658 1_545 S
Tb153 O181 2.409 . S
Tb153 O182 2.378 . S
C154 Tb152 2.809 . S
C154 C155 1.514 . S
C154 O172 1.217 1_455 S
C154 O173 1.266 . S
C155 C154 1.514 . S
C155 C156 1.359 1_556 S
C155 C160 1.348 1_556 S
C156 C155 1.359 1_554 S
C156 C157 1.380 . S
C156 H184 0.929 1_455 S
C157 C156 1.380 . S
C157 C158 1.347 . S
C157 H185 0.931 1_455 S
C158 C157 1.347 . S
C158 C159 1.369 . S
C159 C158 1.369 . S
C159 C160 1.408 . S
C159 H186 0.930 . S
C160 C155 1.348 1_554 S
C160 C159 1.408 . S
C160 H187 0.930 1_554 S
C161 O174 1.281 1_565 S
C161 O175 1.254 . S
C162 O176 1.236 1_655 S
C162 O177 1.266 . S
C163 Tb153 2.809 . S
C163 C164 1.514 . S
C163 O178 1.206 1_655 S
C163 O179 1.266 . S
C164 C163 1.514 . S
C164 C165 1.359 . S
C164 C169 1.348 . S
C165 C164 1.359 . S
C165 C166 1.380 . S
C165 H188 0.929 1_655 S
C166 C165 1.380 . S
C166 C167 1.347 . S
C166 H189 0.931 1_655 S
C167 C166 1.347 . S
C167 C168 1.369 . S
C168 C167 1.369 . S
C168 C169 1.408 . S
C168 H190 0.930 . S
C169 C164 1.348 . S
C169 C168 1.408 . S
C169 H191 0.930 . S
C170 O180 1.281 1_545 S
C170 O181 1.254 . S
C171 O182 1.236 1_455 S
C171 O183 1.266 . S
O172 Tb152 2.471 1_655 S
O172 C154 1.217 1_655 S
O173 Tb152 2.440 . S
O173 C154 1.266 . S
O174 Tb152 2.658 1_545 S
O174 Tb153 2.325 1_455 S
O174 C161 1.281 1_545 S
O175 Tb152 2.409 . S
O175 C161 1.254 . S
O176 Tb152 2.378 . S
O176 C162 1.236 1_455 S
O177 Tb153 2.341 1_565 S
O177 C162 1.266 . S
O178 Tb153 2.466 1_455 S
O178 C163 1.206 1_455 S
O179 Tb153 2.440 . S
O179 C163 1.266 . S
O180 Tb152 2.325 1_655 S
O180 Tb153 2.658 1_565 S
O180 C170 1.281 1_565 S
O181 Tb153 2.409 . S
O181 C170 1.254 . S
O182 Tb153 2.378 . S
O182 C171 1.236 1_655 S
O183 Tb152 2.341 1_545 S
O183 C171 1.266 . S
H184 C156 0.929 1_655 S
H185 C157 0.931 1_655 S
H186 C159 0.930 . S
H187 C160 0.930 1_556 S
H188 C165 0.929 1_455 S
H189 C166 0.931 1_455 S
H190 C168 0.930 . S
H191 C169 0.930 . S
Tb192 C194 2.809 . S
Tb192 O212 2.465 1_545 S
Tb192 O213 2.440 . S
Tb192 O214 2.658 . S
Tb192 O215 2.409 . S
Tb192 O216 2.378 . S
Tb192 O220 2.325 1_545 S
Tb192 O223 2.341 . S
Tb193 C203 2.809 . S
Tb193 O214 2.325 1_565 S
Tb193 O217 2.341 . S
Tb193 O218 2.484 1_565 S
Tb193 O219 2.440 . S
Tb193 O220 2.658 . S
Tb193 O221 2.409 . S
Tb193 O222 2.378 . S
C194 Tb192 2.809 . S
C194 C195 1.514 . S
C194 O212 1.205 1_545 S
C194 O213 1.266 . S
C195 C194 1.514 . S
C195 C196 1.359 1_556 S
C195 C200 1.348 1_556 S
C196 C195 1.359 1_554 S
C196 C197 1.380 . S
C196 H224 0.929 1_545 S
C197 C196 1.380 . S
C197 C198 1.347 . S
C197 H225 0.931 1_545 S
C198 C197 1.347 . S
C198 C199 1.369 . S
C199 C198 1.369 . S
C199 C200 1.408 . S
C199 H226 0.930 . S
C200 C195 1.348 1_554 S
C200 C199 1.408 . S
C200 H227 0.930 1_554 S
C201 O214 1.281 . S
C201 O215 1.254 . S
C202 O216 1.236 1_565 S
C202 O217 1.266 . S
C203 Tb193 2.809 . S
C203 C204 1.514 . S
C203 O218 1.248 1_565 S
C203 O219 1.266 . S
C204 C203 1.514 . S
C204 C205 1.359 . S
C204 C209 1.348 . S
C205 C204 1.359 . S
C205 C206 1.380 . S
C205 H228 0.929 1_565 S
C206 C205 1.380 . S
C206 C207 1.347 . S
C206 H229 0.931 1_565 S
C207 C206 1.347 . S
C207 C208 1.369 . S
C208 C207 1.369 . S
C208 C209 1.408 . S
C208 H230 0.930 . S
C209 C204 1.348 . S
C209 C208 1.408 . S
C209 H231 0.930 . S
C210 O220 1.281 . S
C210 O221 1.254 . S
C211 O222 1.236 1_545 S
C211 O223 1.266 . S
O212 Tb192 2.465 1_565 S
O212 C194 1.205 1_565 S
O213 Tb192 2.440 . S
O213 C194 1.266 . S
O214 Tb192 2.658 . S
O214 Tb193 2.325 1_545 S
O214 C201 1.281 . S
O215 Tb192 2.409 . S
O215 C201 1.254 . S
O216 Tb192 2.378 . S
O216 C202 1.236 1_545 S
O217 Tb193 2.341 . S
O217 C202 1.266 . S
O218 Tb193 2.484 1_545 S
O218 C203 1.248 1_545 S
O219 Tb193 2.440 . S
O219 C203 1.266 . S
O220 Tb192 2.325 1_565 S
O220 Tb193 2.658 . S
O220 C210 1.281 . S
O221 Tb193 2.409 . S
O221 C210 1.254 . S
O222 Tb193 2.378 . S
O222 C211 1.236 1_565 S
O223 Tb192 2.341 . S
O223 C211 1.266 . S
H224 C196 0.929 1_565 S
H225 C197 0.931 1_565 S
H226 C199 0.930 . S
H227 C200 0.930 1_556 S
H228 C205 0.929 1_545 S
H229 C206 0.931 1_545 S
H230 C208 0.930 . S
H231 C209 0.930 . S
Tb232 C234 2.809 . S
Tb232 O252 2.484 . S
Tb232 O253 2.440 . S
Tb232 O254 2.658 . S
Tb232 O255 2.409 . S
Tb232 O256 2.378 . S
Tb232 O260 2.325 . S
Tb232 O263 2.341 . S
Tb233 C243 2.809 . S
Tb233 O254 2.325 . S
Tb233 O257 2.341 . S
Tb233 O258 2.484 . S
Tb233 O259 2.440 . S
Tb233 O260 2.658 . S
Tb233 O261 2.409 . S
Tb233 O262 2.378 . S
C234 Tb232 2.809 . S
C234 C235 1.517 . S
C234 O252 1.248 . S
C234 O253 1.266 . S
C235 C234 1.517 . S
C235 C236 1.355 1_556 S
C235 C240 1.348 1_556 S
C236 C235 1.355 1_554 S
C236 C237 1.380 . S
C236 H264 0.929 . S
C237 C236 1.380 . S
C237 C238 1.347 . S
C237 H265 0.931 . S
C238 C237 1.347 . S
C238 C239 1.369 . S
C239 C238 1.369 . S
C239 C240 1.408 . S
C239 H266 0.930 . S
C240 C235 1.348 1_554 S
C240 C239 1.408 . S
C240 H267 0.930 1_554 S
C241 O254 1.281 . S
C241 O255 1.254 . S
C242 O256 1.236 . S
C242 O257 1.266 . S
C243 Tb233 2.809 . S
C243 C244 1.514 . S
C243 O258 1.248 . S
C243 O259 1.266 . S
C244 C243 1.514 . S
C244 C245 1.359 . S
C244 C249 1.348 . S
C245 C244 1.359 . S
C245 C246 1.380 . S
C245 H268 0.929 . S
C246 C245 1.380 . S
C246 C247 1.347 . S
C246 H269 0.931 . S
C247 C246 1.347 . S
C247 C248 1.369 . S
C248 C247 1.369 . S
C248 C249 1.408 . S
C248 H270 0.930 . S
C249 C244 1.348 . S
C249 C248 1.408 . S
C249 H271 0.930 . S
C250 O260 1.281 . S
C250 O261 1.254 . S
C251 O262 1.236 . S
C251 O263 1.266 . S
O252 Tb232 2.484 . S
O252 C234 1.248 . S
O253 Tb232 2.440 . S
O253 C234 1.266 . S
O254 Tb232 2.658 . S
O254 Tb233 2.325 . S
O254 C241 1.281 . S
O255 Tb232 2.409 . S
O255 C241 1.254 . S
O256 Tb232 2.378 . S
O256 C242 1.236 . S
O257 Tb233 2.341 . S
O257 C242 1.266 . S
O258 Tb233 2.484 . S
O258 C243 1.248 . S
O259 Tb233 2.440 . S
O259 C243 1.266 . S
O260 Tb232 2.325 . S
O260 Tb233 2.658 . S
O260 C250 1.281 . S
O261 Tb233 2.409 . S
O261 C250 1.254 . S
O262 Tb233 2.378 . S
O262 C251 1.236 . S
O263 Tb232 2.341 . S
O263 C251 1.266 . S
H264 C236 0.929 . S
H265 C237 0.931 . S
H266 C239 0.930 . S
H267 C240 0.930 1_556 S
H268 C245 0.929 . S
H269 C246 0.931 . S
H270 C248 0.930 . S
H271 C249 0.930 . S
Tb272 C274 2.809 . S
Tb272 O292 2.484 . S
Tb272 O293 2.440 . S
Tb272 O294 2.658 1_655 S
Tb272 O295 2.409 . S
Tb272 O296 2.378 . S
Tb272 O300 2.325 . S
Tb272 O303 2.341 1_655 S
Tb273 C283 2.809 . S
Tb273 O294 2.325 . S
Tb273 O297 2.341 1_455 S
Tb273 O298 2.484 . S
Tb273 O299 2.440 . S
Tb273 O300 2.658 1_455 S
Tb273 O301 2.409 . S
Tb273 O302 2.378 . S
C274 Tb272 2.809 . S
C274 C275 1.514 . S
C274 O292 1.248 . S
C274 O293 1.266 . S
C275 C274 1.514 . S
C275 C276 1.359 1_556 S
C275 C280 1.348 1_556 S
C276 C275 1.359 1_554 S
C276 C277 1.380 . S
C276 H304 0.929 . S
C277 C276 1.380 . S
C277 C278 1.347 . S
C277 H305 0.931 . S
C278 C277 1.347 . S
C278 C279 1.369 . S
C279 C278 1.369 . S
C279 C280 1.408 . S
C279 H306 0.930 . S
C280 C275 1.348 1_554 S
C280 C279 1.408 . S
C280 H307 0.930 1_554 S
C281 O294 1.270 1_655 S
C281 O295 1.268 . S
C282 O296 1.236 . S
C282 O297 1.266 . S
C283 Tb273 2.809 . S
C283 C284 1.514 . S
C283 O298 1.248 . S
C283 O299 1.266 . S
C284 C283 1.514 . S
C284 C285 1.359 . S
C284 C289 1.348 . S
C285 C284 1.359 . S
C285 C286 1.380 . S
C285 H308 0.929 . S
C286 C285 1.380 . S
C286 C287 1.347 . S
C286 H309 0.931 . S
C287 C286 1.347 . S
C287 C288 1.369 . S
C288 C287 1.369 . S
C288 C289 1.408 . S
C288 H310 0.930 . S
C289 C284 1.348 . S
C289 C288 1.408 . S
C289 H311 0.930 . S
C290 O300 1.267 1_455 S
C290 O301 1.274 . S
C291 O302 1.236 . S
C291 O303 1.266 . S
O292 Tb272 2.484 . S
O292 C274 1.248 . S
O293 Tb272 2.440 . S
O293 C274 1.266 . S
O294 Tb272 2.658 1_455 S
O294 Tb273 2.325 . S
O294 C281 1.270 1_455 S
O295 Tb272 2.409 . S
O295 C281 1.268 . S
O296 Tb272 2.378 . S
O296 C282 1.236 . S
O297 Tb273 2.341 1_655 S
O297 C282 1.266 . S
O298 Tb273 2.484 . S
O298 C283 1.248 . S
O299 Tb273 2.440 . S
O299 C283 1.266 . S
O300 Tb272 2.325 . S
O300 Tb273 2.658 1_655 S
O300 C290 1.267 1_655 S
O301 Tb273 2.409 . S
O301 C290 1.274 . S
O302 Tb273 2.378 . S
O302 C291 1.236 . S
O303 Tb272 2.341 1_455 S
O303 C291 1.266 . S
H304 C276 0.929 . S
H305 C277 0.931 . S
H306 C279 0.930 . S
H307 C280 0.930 1_556 S
H308 C285 0.929 . S
H309 C286 0.931 . S
H310 C288 0.930 . S
H311 C289 0.930 . S
C312 C313 1.371 1_545 S
C312 C314 1.394 . S
C312 H328 0.931 . S
C313 C312 1.371 1_565 S
C313 C317 1.396 . S
C314 C312 1.394 . S
C314 C315 1.369 1_545 S
C314 C318 1.531 . S
C315 C314 1.369 1_565 S
C315 C316 1.410 . S
C315 C323 1.505 . S
C316 C315 1.410 . S
C316 C317 1.392 . S
C316 C319 1.511 . S
C317 C313 1.396 . S
C317 C316 1.392 . S
C317 H329 0.929 . S
C318 C314 1.531 . S
C318 H330 0.960 . S
C318 H331 0.962 . S
C318 H332 0.960 . S
C319 C316 1.511 . S
C319 H333 0.961 . S
C319 H334 0.961 . S
C319 H335 0.961 . S
C320 C321 1.370 1_545 S
C320 C322 1.363 . S
C320 H336 0.931 . S
C321 C320 1.370 1_565 S
C321 C325 1.409 . S
C322 C320 1.363 . S
C322 C323 1.359 1_545 S
C322 C326 1.524 . S
C323 C315 1.505 . S
C323 C322 1.359 1_565 S
C323 C324 1.414 . S
C324 C323 1.414 . S
C324 C325 1.404 . S
C324 C327 1.539 . S
C325 C321 1.409 . S
C325 C324 1.404 . S
C325 H337 0.930 . S
C326 C322 1.524 . S
C326 H338 0.956 . S
C326 H339 0.964 . S
C326 H340 0.961 . S
C327 C324 1.539 . S
C327 H341 0.958 . S
C327 H342 0.961 . S
C327 H343 0.960 . S
H328 C312 0.931 . S
H329 C317 0.929 . S
H330 C318 0.960 . S
H331 C318 0.962 . S
H332 C318 0.960 . S
H333 C319 0.961 . S
H334 C319 0.961 . S
H335 C319 0.961 . S
H336 C320 0.931 . S
H337 C325 0.930 . S
H338 C326 0.956 . S
H339 C326 0.964 . S
H340 C326 0.961 . S
H341 C327 0.958 . S
H342 C327 0.961 . S
H343 C327 0.960 . S
C344 C345 1.391 . S
C344 C346 1.394 . S
C344 H360 0.931 . S
C345 C344 1.391 . S
C345 C349 1.376 . S
C346 C344 1.394 . S
C346 C347 1.369 . S
C346 C350 1.531 . S
C347 C346 1.369 . S
C347 C348 1.410 . S
C347 C355 1.503 . S
C348 C347 1.410 . S
C348 C349 1.392 . S
C348 C351 1.511 . S
C349 C345 1.376 . S
C349 C348 1.392 . S
C349 H361 0.929 . S
C350 C346 1.531 . S
C350 H362 0.960 . S
C350 H363 0.962 . S
C350 H364 0.960 . S
C351 C348 1.511 . S
C351 H365 0.961 . S
C351 H366 0.961 . S
C351 H367 0.961 . S
C352 C353 1.370 . S
C352 C354 1.363 . S
C352 H368 0.931 . S
C353 C352 1.370 . S
C353 C357 1.408 . S
C354 C352 1.363 . S
C354 C355 1.370 . S
C354 C358 1.524 . S
C355 C347 1.503 . S
C355 C354 1.370 . S
C355 C356 1.403 . S
C356 C355 1.403 . S
C356 C357 1.404 . S
C356 C359 1.539 . S
C357 C353 1.408 . S
C357 C356 1.404 . S
C357 H369 0.930 . S
C358 C354 1.524 . S
C358 H370 0.956 . S
C358 H371 0.961 . S
C358 H372 0.961 . S
C359 C356 1.539 . S
C359 H373 0.958 . S
C359 H374 0.961 . S
C359 H375 0.960 . S
H360 C344 0.931 . S
H361 C349 0.929 . S
H362 C350 0.960 . S
H363 C350 0.962 . S
H364 C350 0.960 . S
H365 C351 0.961 . S
H366 C351 0.961 . S
H367 C351 0.961 . S
H368 C352 0.931 . S
H369 C357 0.930 . S
H370 C358 0.956 . S
H371 C358 0.961 . S
H372 C358 0.961 . S
H373 C359 0.958 . S
H374 C359 0.961 . S
H375 C359 0.960 . S
C376 C377 1.391 . S
C376 C378 1.394 . S
C376 H392 0.931 . S
C377 C376 1.391 . S
C377 C381 1.376 . S
C378 C376 1.394 . S
C378 C379 1.369 . S
C378 C382 1.531 . S
C379 C378 1.369 . S
C379 C380 1.410 . S
C379 C387 1.503 . S
C380 C379 1.410 . S
C380 C381 1.392 . S
C380 C383 1.511 . S
C381 C377 1.376 . S
C381 C380 1.392 . S
C381 H393 0.929 . S
C382 C378 1.531 . S
C382 H394 0.960 . S
C382 H395 0.962 . S
C382 H396 0.960 . S
C383 C380 1.511 . S
C383 H397 0.961 . S
C383 H398 0.961 . S
C383 H399 0.961 . S
C384 C385 1.370 . S
C384 C386 1.363 . S
C384 H400 0.931 . S
C385 C384 1.370 . S
C385 C389 1.408 . S
C386 C384 1.363 . S
C386 C387 1.370 . S
C386 C390 1.524 . S
C387 C379 1.503 . S
C387 C386 1.370 . S
C387 C388 1.403 . S
C388 C387 1.403 . S
C388 C389 1.404 . S
C388 C391 1.539 . S
C389 C385 1.408 . S
C389 C388 1.404 . S
C389 H401 0.930 . S
C390 C386 1.524 . S
C390 H402 0.956 . S
C390 H403 0.961 . S
C390 H404 0.961 . S
C391 C388 1.539 . S
C391 H405 0.958 . S
C391 H406 0.961 . S
C391 H407 0.960 . S
H392 C376 0.931 . S
H393 C381 0.929 . S
H394 C382 0.960 . S
H395 C382 0.962 . S
H396 C382 0.960 . S
H397 C383 0.961 . S
H398 C383 0.961 . S
H399 C383 0.961 . S
H400 C384 0.931 . S
H401 C389 0.930 . S
H402 C390 0.956 . S
H403 C390 0.961 . S
H404 C390 0.961 . S
H405 C391 0.958 . S
H406 C391 0.961 . S
H407 C391 0.960 . S
C408 C409 1.391 1_455 S
C408 C410 1.394 . S
C408 H424 0.931 . S
C409 C408 1.391 1_655 S
C409 C413 1.376 . S
C410 C408 1.394 . S
C410 C411 1.369 1_455 S
C410 C414 1.531 . S
C411 C410 1.369 1_655 S
C411 C412 1.410 . S
C411 C419 1.503 . S
C412 C411 1.410 . S
C412 C413 1.392 . S
C412 C415 1.511 . S
C413 C409 1.376 . S
C413 C412 1.392 . S
C413 H425 0.929 . S
C414 C410 1.531 . S
C414 H426 0.960 . S
C414 H427 0.962 . S
C414 H428 0.960 . S
C415 C412 1.511 . S
C415 H429 0.961 . S
C415 H430 0.961 . S
C415 H431 0.961 . S
C416 C417 1.370 . S
C416 C418 1.363 . S
C416 H432 0.931 . S
C417 C416 1.370 . S
C417 C421 1.409 1_455 S
C418 C416 1.363 . S
C418 C419 1.370 1_455 S
C418 C422 1.524 . S
C419 C411 1.503 . S
C419 C418 1.370 1_655 S
C419 C420 1.403 . S
C420 C419 1.403 . S
C420 C421 1.404 . S
C420 C423 1.539 . S
C421 C417 1.409 1_655 S
C421 C420 1.404 . S
C421 H433 0.930 . S
C422 C418 1.524 . S
C422 H434 0.956 . S
C422 H435 0.961 . S
C422 H436 0.961 . S
C423 C420 1.539 . S
C423 H437 0.958 . S
C423 H438 0.961 . S
C423 H439 0.960 . S
H424 C408 0.931 . S
H425 C413 0.929 . S
H426 C414 0.960 . S
H427 C414 0.962 . S
H428 C414 0.960 . S
H429 C415 0.961 . S
H430 C415 0.961 . S
H431 C415 0.961 . S
H432 C416 0.931 . S
H433 C421 0.930 . S
H434 C422 0.956 . S
H435 C422 0.961 . S
H436 C422 0.961 . S
H437 C423 0.958 . S
H438 C423 0.961 . S
H439 C423 0.960 . S
C440 C441 1.391 . S
C440 C442 1.394 . S
C440 H456 0.931 . S
C441 C440 1.391 . S
C441 C445 1.371 1_565 S
C442 C440 1.394 . S
C442 C443 1.369 . S
C442 C446 1.531 . S
C443 C442 1.369 . S
C443 C444 1.417 . S
C443 C451 1.503 . S
C444 C443 1.417 . S
C444 C445 1.388 1_565 S
C444 C447 1.507 1_565 S
C445 C441 1.371 1_545 S
C445 C444 1.388 1_545 S
C445 H457 0.941 . S
C446 C442 1.531 . S
C446 H458 0.960 . S
C446 H459 0.984 . S
C446 H460 0.960 . S
C447 C444 1.507 1_545 S
C447 H461 0.961 . S
C447 H462 0.961 1_554 S
C447 H463 0.961 1_544 S
C448 C449 1.334 1_545 S
C448 C450 1.363 1_556 S
C448 H464 0.931 . S
C449 C448 1.334 1_565 S
C449 C453 1.448 . S
C450 C448 1.363 1_554 S
C450 C451 1.370 1_545 S
C450 C454 1.524 . S
C451 C443 1.503 . S
C451 C450 1.370 1_565 S
C451 C452 1.403 . S
C452 C451 1.403 . S
C452 C453 1.404 1_554 S
C452 C455 1.539 . S
C453 C449 1.448 . S
C453 C452 1.404 1_556 S
C453 H465 0.930 . S
C454 C450 1.524 . S
C454 H466 0.956 . S
C454 H467 0.961 . S
C454 H468 0.961 . S
C455 C452 1.539 . S
C455 H469 0.958 . S
C455 H470 0.961 1_554 S
C455 H471 0.960 . S
H456 C440 0.931 . S
H457 C445 0.941 . S
H458 C446 0.960 . S
H459 C446 0.984 . S
H460 C446 0.960 . S
H461 C447 0.961 . S
H462 C447 0.961 1_556 S
H463 C447 0.961 1_566 S
H464 C448 0.931 . S
H465 C453 0.930 . S
H466 C454 0.956 . S
H467 C454 0.961 . S
H468 C454 0.961 . S
H469 C455 0.958 . S
H470 C455 0.961 1_556 S
H471 C455 0.960 . S
C472 C473 1.391 . S
C472 C474 1.394 . S
C472 H488 0.931 . S
C473 C472 1.391 . S
C473 C477 1.376 . S
C474 C472 1.394 . S
C474 C475 1.369 . S
C474 C478 1.531 . S
C475 C474 1.369 . S
C475 C476 1.410 . S
C475 C483 1.503 . S
C476 C475 1.410 . S
C476 C477 1.392 . S
C476 C479 1.511 . S
C477 C473 1.376 . S
C477 C476 1.392 . S
C477 H489 0.929 . S
C478 C474 1.531 . S
C478 H490 0.960 1_554 S
C478 H491 0.962 . S
C478 H492 0.960 . S
C479 C476 1.511 . S
C479 H493 0.961 . S
C479 H494 0.961 . S
C479 H495 0.961 . S
C480 C481 1.370 . S
C480 C482 1.363 1_556 S
C480 H496 0.931 . S
C481 C480 1.370 . S
C481 C485 1.408 . S
C482 C480 1.363 1_554 S
C482 C483 1.370 . S
C482 C486 1.524 . S
C483 C475 1.503 . S
C483 C482 1.370 . S
C483 C484 1.403 1_554 S
C484 C483 1.403 1_556 S
C484 C485 1.404 . S
C484 C487 1.539 . S
C485 C481 1.408 . S
C485 C484 1.404 . S
C485 H497 0.930 . S
C486 C482 1.524 . S
C486 H498 0.956 . S
C486 H499 0.961 . S
C486 H500 0.961 . S
C487 C484 1.539 . S
C487 H501 0.958 . S
C487 H502 0.961 . S
C487 H503 0.960 1_556 S
H488 C472 0.931 . S
H489 C477 0.929 . S
H490 C478 0.960 1_556 S
H491 C478 0.962 . S
H492 C478 0.960 . S
H493 C479 0.961 . S
H494 C479 0.961 . S
H495 C479 0.961 . S
H496 C480 0.931 . S
H497 C485 0.930 . S
H498 C486 0.956 . S
H499 C486 0.961 . S
H500 C486 0.961 . S
H501 C487 0.958 . S
H502 C487 0.961 . S
H503 C487 0.960 1_554 S
C504 C505 1.391 . S
C504 C506 1.394 . S
C504 H520 0.931 . S
C505 C504 1.391 . S
C505 C509 1.376 . S
C506 C504 1.394 . S
C506 C507 1.369 . S
C506 C510 1.531 . S
C507 C506 1.369 . S
C507 C508 1.410 . S
C507 C515 1.503 . S
C508 C507 1.410 . S
C508 C509 1.392 . S
C508 C511 1.511 . S
C509 C505 1.376 . S
C509 C508 1.392 . S
C509 H521 0.929 . S
C510 C506 1.531 . S
C510 H522 0.960 1_554 S
C510 H523 0.962 1_554 S
C510 H524 0.960 . S
C511 C508 1.511 . S
C511 H525 0.961 . S
C511 H526 0.961 . S
C511 H527 0.961 . S
C512 C513 1.370 . S
C512 C514 1.363 1_556 S
C512 H528 0.931 . S
C513 C512 1.370 . S
C513 C517 1.408 . S
C514 C512 1.363 1_554 S
C514 C515 1.370 . S
C514 C518 1.524 . S
C515 C507 1.503 . S
C515 C514 1.370 . S
C515 C516 1.403 . S
C516 C515 1.403 . S
C516 C517 1.404 1_554 S
C516 C519 1.539 . S
C517 C513 1.408 . S
C517 C516 1.404 1_556 S
C517 H529 0.930 . S
C518 C514 1.524 . S
C518 H530 0.956 . S
C518 H531 0.961 . S
C518 H532 0.961 . S
C519 C516 1.539 . S
C519 H533 0.958 . S
C519 H534 0.961 . S
C519 H535 0.960 . S
H520 C504 0.931 . S
H521 C509 0.929 . S
H522 C510 0.960 1_556 S
H523 C510 0.962 1_556 S
H524 C510 0.960 . S
H525 C511 0.961 . S
H526 C511 0.961 . S
H527 C511 0.961 . S
H528 C512 0.931 . S
H529 C517 0.930 . S
H530 C518 0.956 . S
H531 C518 0.961 . S
H532 C518 0.961 . S
H533 C519 0.958 . S
H534 C519 0.961 . S
H535 C519 0.960 . S
C536 C537 1.391 1_655 S
C536 C538 1.394 . S
C536 H552 0.931 . S
C537 C536 1.391 1_455 S
C537 C541 1.376 . S
C538 C536 1.394 . S
C538 C539 1.369 1_655 S
C538 C542 1.531 . S
C539 C538 1.369 1_455 S
C539 C540 1.410 . S
C539 C547 1.503 . S
C540 C539 1.410 . S
C540 C541 1.392 . S
C540 C543 1.511 . S
C541 C537 1.376 . S
C541 C540 1.392 . S
C541 H553 0.929 . S
C542 C538 1.531 . S
C542 H554 0.960 1_554 S
C542 H555 0.962 . S
C542 H556 0.960 . S
C543 C540 1.511 . S
C543 H557 0.961 . S
C543 H558 0.961 . S
C543 H559 0.961 . S
C544 C545 1.371 . S
C544 C546 1.363 1_556 S
C544 H560 0.931 1_556 S
C545 C544 1.371 . S
C545 C549 1.407 1_655 S
C546 C544 1.363 1_554 S
C546 C547 1.370 1_655 S
C546 C550 1.524 . S
C547 C539 1.503 . S
C547 C546 1.370 1_455 S
C547 C548 1.403 1_554 S
C548 C547 1.403 1_556 S
C548 C549 1.404 . S
C548 C551 1.539 . S
C549 C545 1.407 1_455 S
C549 C548 1.404 . S
C549 H561 0.930 . S
C550 C546 1.524 . S
C550 H562 0.956 . S
C550 H563 0.961 . S
C550 H564 0.961 . S
C551 C548 1.539 . S
C551 H565 0.958 . S
C551 H566 0.961 . S
C551 H567 0.960 1_556 S
H552 C536 0.931 . S
H553 C541 0.929 . S
H554 C542 0.960 1_556 S
H555 C542 0.962 . S
H556 C542 0.960 . S
H557 C543 0.961 . S
H558 C543 0.961 . S
H559 C543 0.961 . S
H560 C544 0.931 1_554 S
H561 C549 0.930 . S
H562 C550 0.956 . S
H563 C550 0.961 . S
H564 C550 0.961 . S
H565 C551 0.958 . S
H566 C551 0.961 . S
H567 C551 0.960 1_554 S
C568 C569 1.391 1_655 S
C568 C570 1.394 . S
C568 H584 0.931 . S
C569 C568 1.391 1_455 S
C569 C573 1.376 . S
C570 C568 1.394 . S
C570 C571 1.369 . S
C570 C574 1.531 . S
C571 C570 1.369 . S
C571 C572 1.410 1_655 S
C571 C579 1.503 . S
C572 C571 1.410 1_455 S
C572 C573 1.392 . S
C572 C575 1.511 . S
C573 C569 1.376 . S
C573 C572 1.392 . S
C573 H585 0.929 . S
C574 C570 1.531 . S
C574 H586 0.960 . S
C574 H587 0.962 . S
C574 H588 0.960 . S
C575 C572 1.511 . S
C575 H589 0.961 . S
C575 H590 0.961 . S
C575 H591 0.961 . S
C576 C577 1.370 . S
C576 C578 1.363 . S
C576 H592 0.931 . S
C577 C576 1.370 . S
C577 C581 1.408 . S
C578 C576 1.363 . S
C578 C579 1.370 . S
C578 C582 1.524 . S
C579 C571 1.503 . S
C579 C578 1.370 . S
C579 C580 1.403 . S
C580 C579 1.403 . S
C580 C581 1.404 . S
C580 C583 1.539 . S
C581 C577 1.408 . S
C581 C580 1.404 . S
C581 H593 0.930 . S
C582 C578 1.524 . S
C582 H594 0.956 . S
C582 H595 0.961 . S
C582 H596 0.961 . S
C583 C580 1.539 . S
C583 H597 0.958 . S
C583 H598 0.961 1_655 S
C583 H599 0.960 1_655 S
H584 C568 0.931 . S
H585 C573 0.929 . S
H586 C574 0.960 . S
H587 C574 0.962 . S
H588 C574 0.960 . S
H589 C575 0.961 . S
H590 C575 0.961 . S
H591 C575 0.961 . S
H592 C576 0.931 . S
H593 C581 0.930 . S
H594 C582 0.956 . S
H595 C582 0.961 . S
H596 C582 0.961 . S
H597 C583 0.958 . S
H598 C583 0.961 1_455 S
H599 C583 0.960 1_455 S
C600 C601 1.383 1_565 S
C600 C602 1.402 . S
C600 H616 0.933 1_554 S
C601 C600 1.383 1_545 S
C601 C605 1.376 . S
C602 C600 1.402 . S
C602 C603 1.369 . S
C602 C606 1.531 . S
C603 C602 1.369 . S
C603 C604 1.403 1_565 S
C603 C611 1.503 . S
C604 C603 1.403 1_545 S
C604 C605 1.397 . S
C604 C607 1.513 . S
C605 C601 1.376 . S
C605 C604 1.397 . S
C605 H617 0.929 . S
C606 C602 1.531 . S
C606 H618 0.960 . S
C606 H619 0.962 . S
C606 H620 0.960 1_554 S
C607 C604 1.513 . S
C607 H621 0.961 1_545 S
C607 H622 0.961 1_545 S
C607 H623 0.961 . S
C608 C609 1.370 . S
C608 C610 1.363 . S
C608 H624 0.931 . S
C609 C608 1.370 . S
C609 C613 1.408 . S
C610 C608 1.363 . S
C610 C611 1.370 . S
C610 C614 1.524 . S
C611 C603 1.503 . S
C611 C610 1.370 . S
C611 C612 1.403 1_565 S
C612 C611 1.403 1_545 S
C612 C613 1.404 1_545 S
C612 C615 1.539 . S
C613 C609 1.408 . S
C613 C612 1.404 1_565 S
C613 H625 0.930 1_565 S
C614 C610 1.524 . S
C614 H626 0.956 . S
C614 H627 0.961 . S
C614 H628 0.961 . S
C615 C612 1.539 . S
C615 H629 0.958 . S
C615 H630 0.961 . S
C615 H631 0.960 . S
H616 C600 0.933 1_556 S
H617 C605 0.929 . S
H618 C606 0.960 . S
H619 C606 0.962 . S
H620 C606 0.960 1_556 S
H621 C607 0.961 1_565 S
H622 C607 0.961 1_565 S
H623 C607 0.961 . S
H624 C608 0.931 . S
H625 C613 0.930 1_545 S
H626 C614 0.956 . S
H627 C614 0.961 . S
H628 C614 0.961 . S
H629 C615 0.958 . S
H630 C615 0.961 . S
H631 C615 0.960 . S
C632 C633 1.391 . S
C632 C634 1.394 . S
C632 H648 0.931 1_554 S
C633 C632 1.391 . S
C633 C637 1.376 . S
C634 C632 1.394 . S
C634 C635 1.369 . S
C634 C638 1.531 . S
C635 C634 1.369 . S
C635 C636 1.410 . S
C635 C643 1.503 . S
C636 C635 1.410 . S
C636 C637 1.392 . S
C636 C639 1.511 . S
C637 C633 1.376 . S
C637 C636 1.392 . S
C637 H649 0.929 . S
C638 C634 1.531 . S
C638 H650 0.960 . S
C638 H651 0.962 . S
C638 H652 0.960 1_554 S
C639 C636 1.511 . S
C639 H653 0.961 . S
C639 H654 0.961 . S
C639 H655 0.961 . S
C640 C641 1.370 . S
C640 C642 1.363 . S
C640 H656 0.931 . S
C641 C640 1.370 . S
C641 C645 1.408 . S
C642 C640 1.363 . S
C642 C643 1.370 . S
C642 C646 1.524 . S
C643 C635 1.503 . S
C643 C642 1.370 . S
C643 C644 1.403 . S
C644 C643 1.403 . S
C644 C645 1.404 . S
C644 C647 1.539 . S
C645 C641 1.408 . S
C645 C644 1.404 . S
C645 H657 0.930 . S
C646 C642 1.524 . S
C646 H658 0.956 . S
C646 H659 0.961 . S
C646 H660 0.961 . S
C647 C644 1.539 . S
C647 H661 0.958 . S
C647 H662 0.961 . S
C647 H663 0.960 . S
H648 C632 0.931 1_556 S
H649 C637 0.929 . S
H650 C638 0.960 . S
H651 C638 0.962 . S
H652 C638 0.960 1_556 S
H653 C639 0.961 . S
H654 C639 0.961 . S
H655 C639 0.961 . S
H656 C640 0.931 . S
H657 C645 0.930 . S
H658 C646 0.956 . S
H659 C646 0.961 . S
H660 C646 0.961 . S
H661 C647 0.958 . S
H662 C647 0.961 . S
H663 C647 0.960 . S
C664 C665 1.391 . S
C664 C666 1.394 . S
C664 H680 0.931 . S
C665 C664 1.391 . S
C665 C669 1.376 . S
C666 C664 1.394 . S
C666 C667 1.369 . S
C666 C670 1.531 . S
C667 C666 1.369 . S
C667 C668 1.410 . S
C667 C675 1.503 . S
C668 C667 1.410 . S
C668 C669 1.392 . S
C668 C671 1.511 . S
C669 C665 1.376 . S
C669 C668 1.392 . S
C669 H681 0.929 . S
C670 C666 1.531 . S
C670 H682 0.960 . S
C670 H683 0.962 . S
C670 H684 0.960 . S
C671 C668 1.511 . S
C671 H685 0.961 . S
C671 H686 0.961 . S
C671 H687 0.961 . S
C672 C673 1.370 . S
C672 C674 1.363 . S
C672 H688 0.931 . S
C673 C672 1.370 . S
C673 C677 1.408 . S
C674 C672 1.363 . S
C674 C675 1.370 . S
C674 C678 1.524 . S
C675 C667 1.503 . S
C675 C674 1.370 . S
C675 C676 1.403 . S
C676 C675 1.403 . S
C676 C677 1.404 . S
C676 C679 1.539 . S
C677 C673 1.408 . S
C677 C676 1.404 . S
C677 H689 0.930 . S
C678 C674 1.524 . S
C678 H690 0.956 . S
C678 H691 0.961 . S
C678 H692 0.961 . S
C679 C676 1.539 . S
C679 H693 0.958 . S
C679 H694 0.961 . S
C679 H695 0.960 . S
H680 C664 0.931 . S
H681 C669 0.929 . S
H682 C670 0.960 . S
H683 C670 0.962 . S
H684 C670 0.960 . S
H685 C671 0.961 . S
H686 C671 0.961 . S
H687 C671 0.961 . S
H688 C672 0.931 . S
H689 C677 0.930 . S
H690 C678 0.956 . S
H691 C678 0.961 . S
H692 C678 0.961 . S
H693 C679 0.958 . S
H694 C679 0.961 . S
H695 C679 0.960 . S
C696 C697 1.385 1_655 S
C696 C698 1.401 . S
C696 H712 0.931 . S
C697 C696 1.385 1_455 S
C697 C701 1.388 . S
C698 C696 1.401 . S
C698 C699 1.354 1_655 S
C698 C702 1.539 . S
C699 C698 1.354 1_455 S
C699 C700 1.410 . S
C699 C707 1.503 . S
C700 C699 1.410 . S
C700 C701 1.392 . S
C700 C703 1.511 . S
C701 C697 1.388 . S
C701 C700 1.392 . S
C701 H713 0.929 . S
C702 C698 1.539 . S
C702 H714 0.960 1_655 S
C702 H715 0.962 . S
C702 H716 0.960 . S
C703 C700 1.511 . S
C703 H717 0.961 . S
C703 H718 0.961 . S
C703 H719 0.961 . S
C704 C705 1.370 . S
C704 C706 1.363 . S
C704 H720 0.931 1_455 S
C705 C704 1.370 . S
C705 C709 1.408 . S
C706 C704 1.363 . S
C706 C707 1.370 . S
C706 C710 1.524 1_455 S
C707 C699 1.503 . S
C707 C706 1.370 . S
C707 C708 1.403 . S
C708 C707 1.403 . S
C708 C709 1.404 . S
C708 C711 1.539 . S
C709 C705 1.408 . S
C709 C708 1.404 . S
C709 H721 0.930 . S
C710 C706 1.524 1_655 S
C710 H722 0.956 . S
C710 H723 0.961 . S
C710 H724 0.961 . S
C711 C708 1.539 . S
C711 H725 0.958 . S
C711 H726 0.961 . S
C711 H727 0.960 . S
H712 C696 0.931 . S
H713 C701 0.929 . S
H714 C702 0.960 1_455 S
H715 C702 0.962 . S
H716 C702 0.960 . S
H717 C703 0.961 . S
H718 C703 0.961 . S
H719 C703 0.961 . S
H720 C704 0.931 1_655 S
H721 C709 0.930 . S
H722 C710 0.956 . S
H723 C710 0.961 . S
H724 C710 0.961 . S
H725 C711 0.958 . S
H726 C711 0.961 . S
H727 C711 0.960 . S
C728 C729 1.391 1_545 S
C728 C730 1.394 . S
C728 H744 0.931 . S
C729 C728 1.391 1_565 S
C729 C733 1.376 . S
C730 C728 1.394 . S
C730 C731 1.369 . S
C730 C734 1.531 . S
C731 C730 1.369 . S
C731 C732 1.410 1_545 S
C731 C739 1.503 . S
C732 C731 1.410 1_565 S
C732 C733 1.392 . S
C732 C735 1.511 . S
C733 C729 1.376 . S
C733 C732 1.392 . S
C733 H745 0.929 . S
C734 C730 1.531 . S
C734 H746 0.960 . S
C734 H747 0.962 . S
C734 H748 0.960 . S
C735 C732 1.511 . S
C735 H749 0.961 1_565 S
C735 H750 0.961 1_565 S
C735 H751 0.961 . S
C736 C737 1.370 . S
C736 C738 1.363 . S
C736 H752 0.931 . S
C737 C736 1.370 . S
C737 C741 1.408 . S
C738 C736 1.363 . S
C738 C739 1.370 . S
C738 C742 1.524 . S
C739 C731 1.503 . S
C739 C738 1.370 . S
C739 C740 1.403 1_545 S
C740 C739 1.403 1_565 S
C740 C741 1.404 1_565 S
C740 C743 1.539 . S
C741 C737 1.408 . S
C741 C740 1.404 1_545 S
C741 H753 0.930 1_545 S
C742 C738 1.524 . S
C742 H754 0.956 . S
C742 H755 0.961 . S
C742 H756 0.961 . S
C743 C740 1.539 . S
C743 H757 0.958 . S
C743 H758 0.961 . S
C743 H759 0.960 . S
H744 C728 0.931 . S
H745 C733 0.929 . S
H746 C734 0.960 . S
H747 C734 0.962 . S
H748 C734 0.960 . S
H749 C735 0.961 1_545 S
H750 C735 0.961 1_545 S
H751 C735 0.961 . S
H752 C736 0.931 . S
H753 C741 0.930 1_565 S
H754 C742 0.956 . S
H755 C742 0.961 . S
H756 C742 0.961 . S
H757 C743 0.958 . S
H758 C743 0.961 . S
H759 C743 0.960 . S
C760 C761 1.391 . S
C760 C762 1.394 . S
C760 H776 0.931 . S
C761 C760 1.391 . S
C761 C765 1.376 . S
C762 C760 1.394 . S
C762 C763 1.369 . S
C762 C766 1.531 . S
C763 C762 1.369 . S
C763 C764 1.410 . S
C763 C771 1.503 . S
C764 C763 1.410 . S
C764 C765 1.392 . S
C764 C767 1.511 . S
C765 C761 1.376 . S
C765 C764 1.392 . S
C765 H777 0.929 . S
C766 C762 1.531 . S
C766 H778 0.960 . S
C766 H779 0.962 . S
C766 H780 0.960 . S
C767 C764 1.511 . S
C767 H781 0.961 . S
C767 H782 0.961 . S
C767 H783 0.961 . S
C768 C769 1.370 . S
C768 C770 1.363 . S
C768 H784 0.929 1_554 S
C769 C768 1.370 . S
C769 C773 1.408 . S
C770 C768 1.363 . S
C770 C771 1.370 . S
C770 C774 1.524 . S
C771 C763 1.503 . S
C771 C770 1.370 . S
C771 C772 1.403 . S
C772 C771 1.403 . S
C772 C773 1.404 . S
C772 C775 1.539 . S
C773 C769 1.408 . S
C773 C772 1.404 . S
C773 H785 0.930 . S
C774 C770 1.524 . S
C774 H786 0.956 . S
C774 H787 0.961 . S
C774 H788 0.961 1_554 S
C775 C772 1.539 . S
C775 H789 0.958 . S
C775 H790 0.961 . S
C775 H791 0.960 . S
H776 C760 0.931 . S
H777 C765 0.929 . S
H778 C766 0.960 . S
H779 C766 0.962 . S
H780 C766 0.960 . S
H781 C767 0.961 . S
H782 C767 0.961 . S
H783 C767 0.961 . S
H784 C768 0.929 1_556 S
H785 C773 0.930 . S
H786 C774 0.956 . S
H787 C774 0.961 . S
H788 C774 0.961 1_556 S
H789 C775 0.958 . S
H790 C775 0.961 . S
H791 C775 0.960 . S
C792 C793 1.391 . S
C792 C794 1.394 . S
C792 H808 0.931 . S
C793 C792 1.391 . S
C793 C797 1.376 . S
C794 C792 1.394 . S
C794 C795 1.369 . S
C794 C798 1.531 . S
C795 C794 1.369 . S
C795 C796 1.410 . S
C795 C803 1.503 . S
C796 C795 1.410 . S
C796 C797 1.392 . S
C796 C799 1.511 . S
C797 C793 1.376 . S
C797 C796 1.392 . S
C797 H809 0.929 . S
C798 C794 1.531 . S
C798 H810 0.960 . S
C798 H811 0.962 . S
C798 H812 0.960 . S
C799 C796 1.511 . S
C799 H813 0.961 . S
C799 H814 0.961 . S
C799 H815 0.961 . S
C800 C801 1.370 . S
C800 C802 1.363 . S
C800 H816 0.931 . S
C801 C800 1.370 . S
C801 C805 1.408 . S
C802 C800 1.363 . S
C802 C803 1.370 . S
C802 C806 1.524 . S
C803 C795 1.503 . S
C803 C802 1.370 . S
C803 C804 1.403 . S
C804 C803 1.403 . S
C804 C805 1.404 . S
C804 C807 1.539 . S
C805 C801 1.408 . S
C805 C804 1.404 . S
C805 H817 0.930 . S
C806 C802 1.524 . S
C806 H818 0.956 . S
C806 H819 0.961 . S
C806 H820 0.961 . S
C807 C804 1.539 . S
C807 H821 0.958 . S
C807 H822 0.961 . S
C807 H823 0.960 . S
H808 C792 0.931 . S
H809 C797 0.929 . S
H810 C798 0.960 . S
H811 C798 0.962 . S
H812 C798 0.960 . S
H813 C799 0.961 . S
H814 C799 0.961 . S
H815 C799 0.961 . S
H816 C800 0.931 . S
H817 C805 0.930 . S
H818 C806 0.956 . S
H819 C806 0.961 . S
H820 C806 0.961 . S
H821 C807 0.958 . S
H822 C807 0.961 . S
H823 C807 0.960 . S
C824 C825 1.433 . S
C824 C826 1.394 . S
C824 H840 0.931 . S
C825 C824 1.433 . S
C825 C829 1.336 1_455 S
C826 C824 1.394 . S
C826 C827 1.369 . S
C826 C830 1.531 . S
C827 C826 1.369 . S
C827 C828 1.410 1_455 S
C827 C835 1.503 . S
C828 C827 1.410 1_655 S
C828 C829 1.392 . S
C828 C831 1.511 . S
C829 C825 1.336 1_655 S
C829 C828 1.392 . S
C829 H841 0.929 . S
C830 C826 1.531 . S
C830 H842 0.960 . S
C830 H843 0.962 . S
C830 H844 0.960 . S
C831 C828 1.511 . S
C831 H845 0.961 . S
C831 H846 0.961 . S
C831 H847 0.961 . S
C832 C833 1.370 . S
C832 C834 1.363 . S
C832 H848 0.931 . S
C833 C832 1.370 . S
C833 C837 1.408 . S
C834 C832 1.363 . S
C834 C835 1.370 . S
C834 C838 1.524 . S
C835 C827 1.503 . S
C835 C834 1.370 . S
C835 C836 1.405 . S
C836 C835 1.405 . S
C836 C837 1.405 . S
C836 C839 1.535 1_456 S
C837 C833 1.408 . S
C837 C836 1.405 . S
C837 H849 0.930 1_455 S
C838 C834 1.524 . S
C838 H850 0.956 . S
C838 H851 0.961 . S
C838 H852 0.961 . S
C839 C836 1.535 1_654 S
C839 H853 0.958 1_655 S
C839 H854 0.961 . S
C839 H855 0.960 . S
H840 C824 0.931 . S
H841 C829 0.929 . S
H842 C830 0.960 . S
H843 C830 0.962 . S
H844 C830 0.960 . S
H845 C831 0.961 . S
H846 C831 0.961 . S
H847 C831 0.961 . S
H848 C832 0.931 . S
H849 C837 0.930 1_655 S
H850 C838 0.956 . S
H851 C838 0.961 . S
H852 C838 0.961 . S
H853 C839 0.958 1_455 S
H854 C839 0.961 . S
H855 C839 0.960 . S
C856 C857 1.388 1_565 S
C856 C858 1.394 . S
C856 H872 0.931 . S
C857 C856 1.388 1_545 S
C857 C861 1.379 . S
C858 C856 1.394 . S
C858 C859 1.366 1_565 S
C858 C862 1.531 . S
C859 C858 1.366 1_545 S
C859 C860 1.413 . S
C859 C867 1.504 . S
C860 C859 1.413 . S
C860 C861 1.392 . S
C860 C863 1.511 . S
C861 C857 1.379 . S
C861 C860 1.392 . S
C861 H873 0.929 . S
C862 C858 1.531 . S
C862 H874 0.960 . S
C862 H875 0.962 1_556 S
C862 H876 0.960 . S
C863 C860 1.511 . S
C863 H877 0.961 . S
C863 H878 0.961 . S
C863 H879 0.961 . S
C864 C865 1.370 . S
C864 C866 1.363 . S
C864 H880 0.931 . S
C865 C864 1.370 . S
C865 C869 1.408 1_545 S
C866 C864 1.363 . S
C866 C867 1.370 . S
C866 C870 1.524 . S
C867 C859 1.504 . S
C867 C866 1.370 . S
C867 C868 1.403 1_545 S
C868 C867 1.403 1_565 S
C868 C869 1.404 . S
C868 C871 1.539 . S
C869 C865 1.408 1_565 S
C869 C868 1.404 . S
C869 H881 0.930 . S
C870 C866 1.524 . S
C870 H882 0.956 1_556 S
C870 H883 0.961 . S
C870 H884 0.961 . S
C871 C868 1.539 . S
C871 H885 0.958 . S
C871 H886 0.961 . S
C871 H887 0.960 . S
H872 C856 0.931 . S
H873 C861 0.929 . S
H874 C862 0.960 . S
H875 C862 0.962 1_554 S
H876 C862 0.960 . S
H877 C863 0.961 . S
H878 C863 0.961 . S
H879 C863 0.961 . S
H880 C864 0.931 . S
H881 C869 0.930 . S
H882 C870 0.956 1_554 S
H883 C870 0.961 . S
H884 C870 0.961 . S
H885 C871 0.958 . S
H886 C871 0.961 . S
H887 C871 0.960 . S
C888 C889 1.391 . S
C888 C890 1.394 . S
C888 H904 0.931 . S
C889 C888 1.391 . S
C889 C893 1.376 . S
C890 C888 1.394 . S
C890 C891 1.369 . S
C890 C894 1.531 . S
C891 C890 1.369 . S
C891 C892 1.410 . S
C891 C899 1.503 . S
C892 C891 1.410 . S
C892 C893 1.392 . S
C892 C895 1.511 . S
C893 C889 1.376 . S
C893 C892 1.392 . S
C893 H905 0.929 . S
C894 C890 1.531 . S
C894 H906 0.960 . S
C894 H907 0.962 . S
C894 H908 0.960 . S
C895 C892 1.511 . S
C895 H909 0.961 1_556 S
C895 H910 0.961 . S
C895 H911 0.961 . S
C896 C897 1.370 . S
C896 C898 1.363 . S
C896 H912 0.931 . S
C897 C896 1.370 . S
C897 C901 1.408 . S
C898 C896 1.363 . S
C898 C899 1.370 . S
C898 C902 1.524 . S
C899 C891 1.503 . S
C899 C898 1.370 . S
C899 C900 1.403 . S
C900 C899 1.403 . S
C900 C901 1.404 . S
C900 C903 1.539 . S
C901 C897 1.408 . S
C901 C900 1.404 . S
C901 H913 0.930 . S
C902 C898 1.524 . S
C902 H914 0.956 . S
C902 H915 0.961 . S
C902 H916 0.961 . S
C903 C900 1.539 . S
C903 H917 0.958 . S
C903 H918 0.961 . S
C903 H919 0.960 . S
H904 C888 0.931 . S
H905 C893 0.929 . S
H906 C894 0.960 . S
H907 C894 0.962 . S
H908 C894 0.960 . S
H909 C895 0.961 1_554 S
H910 C895 0.961 . S
H911 C895 0.961 . S
H912 C896 0.931 . S
H913 C901 0.930 . S
H914 C902 0.956 . S
H915 C902 0.961 . S
H916 C902 0.961 . S
H917 C903 0.958 . S
H918 C903 0.961 . S
H919 C903 0.960 . S
C920 C921 1.391 . S
C920 C922 1.394 . S
C920 H936 0.931 . S
C921 C920 1.391 . S
C921 C925 1.376 . S
C922 C920 1.394 . S
C922 C923 1.369 . S
C922 C926 1.531 . S
C923 C922 1.369 . S
C923 C924 1.410 . S
C923 C931 1.503 . S
C924 C923 1.410 . S
C924 C925 1.392 . S
C924 C927 1.511 . S
C925 C921 1.376 . S
C925 C924 1.392 . S
C925 H937 0.929 . S
C926 C922 1.531 . S
C926 H938 0.960 . S
C926 H939 0.962 . S
C926 H940 0.960 . S
C927 C924 1.511 . S
C927 H941 0.961 . S
C927 H942 0.961 . S
C927 H943 0.961 1_556 S
C928 C929 1.370 . S
C928 C930 1.363 . S
C928 H944 0.931 . S
C929 C928 1.370 . S
C929 C933 1.408 . S
C930 C928 1.363 . S
C930 C931 1.370 . S
C930 C934 1.524 . S
C931 C923 1.503 . S
C931 C930 1.370 . S
C931 C932 1.403 . S
C932 C931 1.403 . S
C932 C933 1.404 . S
C932 C935 1.539 . S
C933 C929 1.408 . S
C933 C932 1.404 . S
C933 H945 0.930 . S
C934 C930 1.524 . S
C934 H946 0.956 . S
C934 H947 0.961 . S
C934 H948 0.961 . S
C935 C932 1.539 . S
C935 H949 0.958 . S
C935 H950 0.961 1_556 S
C935 H951 0.960 1_556 S
H936 C920 0.931 . S
H937 C925 0.929 . S
H938 C926 0.960 . S
H939 C926 0.962 . S
H940 C926 0.960 . S
H941 C927 0.961 . S
H942 C927 0.961 . S
H943 C927 0.961 1_554 S
H944 C928 0.931 . S
H945 C933 0.930 . S
H946 C934 0.956 . S
H947 C934 0.961 . S
H948 C934 0.961 . S
H949 C935 0.958 . S
H950 C935 0.961 1_554 S
H951 C935 0.960 1_554 S
C952 C953 1.392 1_655 S
C952 C954 1.394 . S
C952 H968 0.931 . S
C953 C952 1.392 1_455 S
C953 C957 1.374 . S
C954 C952 1.394 . S
C954 C955 1.368 . S
C954 C958 1.531 . S
C955 C954 1.368 . S
C955 C956 1.411 1_655 S
C955 C963 1.503 . S
C956 C955 1.411 1_455 S
C956 C957 1.392 . S
C956 C959 1.511 . S
C957 C953 1.374 . S
C957 C956 1.392 . S
C957 H969 0.929 . S
C958 C954 1.531 . S
C958 H970 0.960 . S
C958 H971 0.962 . S
C958 H972 0.960 . S
C959 C956 1.511 . S
C959 H973 0.961 . S
C959 H974 0.961 . S
C959 H975 0.961 . S
C960 C961 1.370 . S
C960 C962 1.363 . S
C960 H976 0.931 . S
C961 C960 1.370 . S
C961 C965 1.408 1_655 S
C962 C960 1.363 . S
C962 C963 1.370 . S
C962 C966 1.524 . S
C963 C955 1.503 . S
C963 C962 1.370 . S
C963 C964 1.403 1_655 S
C964 C963 1.403 1_455 S
C964 C965 1.404 . S
C964 C967 1.539 . S
C965 C961 1.408 1_455 S
C965 C964 1.404 . S
C965 H977 0.930 . S
C966 C962 1.524 . S
C966 H978 0.956 . S
C966 H979 0.961 . S
C966 H980 0.961 . S
C967 C964 1.539 . S
C967 H981 0.958 . S
C967 H982 0.961 . S
C967 H983 0.960 . S
H968 C952 0.931 . S
H969 C957 0.929 . S
H970 C958 0.960 . S
H971 C958 0.962 . S
H972 C958 0.960 . S
H973 C959 0.961 . S
H974 C959 0.961 . S
H975 C959 0.961 . S
H976 C960 0.931 . S
H977 C965 0.930 . S
H978 C966 0.956 . S
H979 C966 0.961 . S
H980 C966 0.961 . S
H981 C967 0.958 . S
H982 C967 0.961 . S
H983 C967 0.960 . S
C984 C985 1.421 . S
C984 C986 1.394 . S
C984 H1000 0.931 . S
C985 C984 1.421 . S
C985 C989 1.347 1_565 S
C986 C984 1.394 . S
C986 C987 1.369 . S
C986 C990 1.531 . S
C987 C986 1.369 . S
C987 C988 1.410 1_565 S
C987 C995 1.503 . S
C988 C987 1.410 1_545 S
C988 C989 1.392 . S
C988 C991 1.511 . S
C989 C985 1.347 1_545 S
C989 C988 1.392 . S
C989 H1001 0.929 . S
C990 C986 1.531 . S
C990 H1002 0.960 . S
C990 H1003 0.962 . S
C990 H1004 0.960 . S
C991 C988 1.511 . S
C991 H1005 0.961 . S
C991 H1006 0.961 . S
C991 H1007 0.961 . S
C992 C993 1.370 . S
C992 C994 1.363 . S
C992 H1008 0.931 . S
C993 C992 1.370 . S
C993 C997 1.408 . S
C994 C992 1.363 . S
C994 C995 1.370 . S
C994 C998 1.524 . S
C995 C987 1.503 . S
C995 C994 1.370 . S
C995 C996 1.401 1_565 S
C996 C995 1.401 1_545 S
C996 C997 1.403 1_545 S
C996 C999 1.541 . S
C997 C993 1.408 . S
C997 C996 1.403 1_565 S
C997 H1009 0.930 1_565 S
C998 C994 1.524 . S
C998 H1010 0.956 . S
C998 H1011 0.961 . S
C998 H1012 0.961 . S
C999 C996 1.541 . S
C999 H1013 0.958 1_545 S
C999 H1014 0.961 . S
C999 H1015 0.960 . S
H1000 C984 0.931 . S
H1001 C989 0.929 . S
H1002 C990 0.960 . S
H1003 C990 0.962 . S
H1004 C990 0.960 . S
H1005 C991 0.961 . S
H1006 C991 0.961 . S
H1007 C991 0.961 . S
H1008 C992 0.931 . S
H1009 C997 0.930 1_545 S
H1010 C998 0.956 . S
H1011 C998 0.961 . S
H1012 C998 0.961 . S
H1013 C999 0.958 1_565 S
H1014 C999 0.961 . S
H1015 C999 0.960 . S
C1016 C1017 1.391 . S
C1016 C1018 1.394 . S
C1016 H1032 0.931 . S
C1017 C1016 1.391 . S
C1017 C1021 1.376 . S
C1018 C1016 1.394 . S
C1018 C1019 1.369 . S
C1018 C1022 1.531 . S
C1019 C1018 1.369 . S
C1019 C1020 1.410 . S
C1019 C1027 1.503 . S
C1020 C1019 1.410 . S
C1020 C1021 1.392 . S
C1020 C1023 1.511 . S
C1021 C1017 1.376 . S
C1021 C1020 1.392 . S
C1021 H1033 0.929 . S
C1022 C1018 1.531 . S
C1022 H1034 0.960 . S
C1022 H1035 0.962 . S
C1022 H1036 0.960 . S
C1023 C1020 1.511 . S
C1023 H1037 0.961 . S
C1023 H1038 0.961 . S
C1023 H1039 0.961 . S
C1024 C1025 1.370 . S
C1024 C1026 1.363 . S
C1024 H1040 0.931 . S
C1025 C1024 1.370 . S
C1025 C1029 1.408 . S
C1026 C1024 1.363 . S
C1026 C1027 1.370 . S
C1026 C1030 1.524 . S
C1027 C1019 1.503 . S
C1027 C1026 1.370 . S
C1027 C1028 1.403 . S
C1028 C1027 1.403 . S
C1028 C1029 1.404 . S
C1028 C1031 1.539 . S
C1029 C1025 1.408 . S
C1029 C1028 1.404 . S
C1029 H1041 0.930 . S
C1030 C1026 1.524 . S
C1030 H1042 0.956 . S
C1030 H1043 0.961 . S
C1030 H1044 0.961 . S
C1031 C1028 1.539 . S
C1031 H1045 0.958 . S
C1031 H1046 0.961 . S
C1031 H1047 0.960 . S
H1032 C1016 0.931 . S
H1033 C1021 0.929 . S
H1034 C1022 0.960 . S
H1035 C1022 0.962 . S
H1036 C1022 0.960 . S
H1037 C1023 0.961 . S
H1038 C1023 0.961 . S
H1039 C1023 0.961 . S
H1040 C1024 0.931 . S
H1041 C1029 0.930 . S
H1042 C1030 0.956 . S
H1043 C1030 0.961 . S
H1044 C1030 0.961 . S
H1045 C1031 0.958 . S
H1046 C1031 0.961 . S
H1047 C1031 0.960 . S
C1048 C1049 1.391 . S
C1048 C1050 1.394 . S
C1048 H1064 0.931 . S
C1049 C1048 1.391 . S
C1049 C1053 1.376 . S
C1050 C1048 1.394 . S
C1050 C1051 1.369 . S
C1050 C1054 1.531 . S
C1051 C1050 1.369 . S
C1051 C1052 1.410 . S
C1051 C1059 1.503 . S
C1052 C1051 1.410 . S
C1052 C1053 1.392 . S
C1052 C1055 1.511 . S
C1053 C1049 1.376 . S
C1053 C1052 1.392 . S
C1053 H1065 0.929 . S
C1054 C1050 1.531 . S
C1054 H1066 0.960 . S
C1054 H1067 0.962 . S
C1054 H1068 0.960 . S
C1055 C1052 1.511 . S
C1055 H1069 0.961 . S
C1055 H1070 0.961 . S
C1055 H1071 0.961 . S
C1056 C1057 1.370 . S
C1056 C1058 1.363 . S
C1056 H1072 0.931 . S
C1057 C1056 1.370 . S
C1057 C1061 1.408 . S
C1058 C1056 1.363 . S
C1058 C1059 1.370 . S
C1058 C1062 1.524 . S
C1059 C1051 1.503 . S
C1059 C1058 1.370 . S
C1059 C1060 1.403 . S
C1060 C1059 1.403 . S
C1060 C1061 1.404 . S
C1060 C1063 1.539 . S
C1061 C1057 1.408 . S
C1061 C1060 1.404 . S
C1061 H1073 0.930 . S
C1062 C1058 1.524 . S
C1062 H1074 0.956 . S
C1062 H1075 0.961 . S
C1062 H1076 0.961 . S
C1063 C1060 1.539 . S
C1063 H1077 0.958 . S
C1063 H1078 0.961 . S
C1063 H1079 0.960 . S
H1064 C1048 0.931 . S
H1065 C1053 0.929 . S
H1066 C1054 0.960 . S
H1067 C1054 0.962 . S
H1068 C1054 0.960 . S
H1069 C1055 0.961 . S
H1070 C1055 0.961 . S
H1071 C1055 0.961 . S
H1072 C1056 0.931 . S
H1073 C1061 0.930 . S
H1074 C1062 0.956 . S
H1075 C1062 0.961 . S
H1076 C1062 0.961 . S
H1077 C1063 0.958 . S
H1078 C1063 0.961 . S
H1079 C1063 0.960 . S
C313 C125 1.891 . S
C321 C161 1.942 . S
C353 C201 1.954 . S
C345 C144 1.894 . S
C385 C241 1.957 . S
C377 C87 1.905 . S
C417 C281 1.950 1_455 S
C409 C106 1.887 . S
C449 C170 1.943 1_565 S
C441 C49 1.880 . S
C473 C68 1.920 . S
C481 C210 1.954 . S
C505 C11 1.928 . S
C513 C250 1.960 . S
C537 C30 1.917 1_455 S
C545 C290 1.946 1_655 S
C577 C167 0.502 . S
C569 C97 0.477 . S
C609 C207 0.497 . S
C601 C116 0.586 . S
C641 C247 0.510 . S
C633 C135 0.571 . S
C665 C78 0.492 . S
C673 C287 0.535 . S
C697 C21 0.477 1_455 S
C705 C158 0.534 . S
C737 C198 0.497 . S
C729 C40 0.605 . S
C769 C238 0.542 . S
C761 C59 0.481 . S
C793 C2 0.482 . S
C801 C278 0.526 . S
C825 C101 2.038 1_455 S
C833 C171 2.288 . S
C857 C120 2.076 1_545 S
C865 C211 2.263 . S
C897 C251 2.259 . S
C889 C139 2.054 . S
C929 C291 2.285 . S
C921 C82 2.026 . S
C953 C25 2.099 1_455 S
C961 C162 2.295 . S
C993 C202 2.264 . S
C985 C44 2.082 . S
C1025 C242 2.250 . S
C1017 C63 2.011 . S
C1049 C6 2.036 . S
C1057 C282 2.284 . S
