# Generated by pormake.
# Topology llk, (3,12)-cn, num edge types: 1
# Building blocks:
#     Node 0, Type 0, BuildingBlock: ESEHIV_clean_linker_0, # of connection points: 3
#     Node 1, Type 0, BuildingBlock: ESEHIV_clean_linker_0, # of connection points: 3
#     Node 2, Type 0, BuildingBlock: ESEHIV_clean_linker_0, # of connection points: 3
#     Node 3, Type 0, BuildingBlock: ESEHIV_clean_linker_0, # of connection points: 3
#     Node 4, Type 0, BuildingBlock: ESEHIV_clean_linker_0, # of connection points: 3
#     Node 5, Type 0, BuildingBlock: ESEHIV_clean_linker_0, # of connection points: 3
#     Node 6, Type 0, BuildingBlock: ESEHIV_clean_linker_0, # of connection points: 3
#     Node 7, Type 0, BuildingBlock: ESEHIV_clean_linker_0, # of connection points: 3
#     Node 8, Type 0, BuildingBlock: ESEHIV_clean_linker_0, # of connection points: 3
#     Node 9, Type 0, BuildingBlock: ESEHIV_clean_linker_0, # of connection points: 3
#     Node 10, Type 0, BuildingBlock: ESEHIV_clean_linker_0, # of connection points: 3
#     Node 11, Type 0, BuildingBlock: ESEHIV_clean_linker_0, # of connection points: 3
#     Node 12, Type 0, BuildingBlock: ESEHIV_clean_linker_0, # of connection points: 3
#     Node 13, Type 0, BuildingBlock: ESEHIV_clean_linker_0, # of connection points: 3
#     Node 14, Type 0, BuildingBlock: ESEHIV_clean_linker_0, # of connection points: 3
#     Node 15, Type 0, BuildingBlock: ESEHIV_clean_linker_0, # of connection points: 3
#     Node 16, Type 0, BuildingBlock: ESEHIV_clean_linker_0, # of connection points: 3
#     Node 17, Type 0, BuildingBlock: ESEHIV_clean_linker_0, # of connection points: 3
#     Node 18, Type 0, BuildingBlock: ESEHIV_clean_linker_0, # of connection points: 3
#     Node 19, Type 0, BuildingBlock: ESEHIV_clean_linker_0, # of connection points: 3
#     Node 20, Type 0, BuildingBlock: ESEHIV_clean_linker_0, # of connection points: 3
#     Node 21, Type 0, BuildingBlock: ESEHIV_clean_linker_0, # of connection points: 3
#     Node 22, Type 0, BuildingBlock: ESEHIV_clean_linker_0, # of connection points: 3
#     Node 23, Type 0, BuildingBlock: ESEHIV_clean_linker_0, # of connection points: 3
#     Node 24, Type 1, BuildingBlock: EZIPEK_clean_sbu_0, # of connection points: 12
#     Node 25, Type 1, BuildingBlock: EZIPEK_clean_sbu_0, # of connection points: 12
#     Node 26, Type 1, BuildingBlock: EZIPEK_clean_sbu_0, # of connection points: 12
#     Node 27, Type 1, BuildingBlock: EZIPEK_clean_sbu_0, # of connection points: 12
#     Node 28, Type 1, BuildingBlock: EZIPEK_clean_sbu_0, # of connection points: 12
#     Node 29, Type 1, BuildingBlock: EZIPEK_clean_sbu_0, # of connection points: 12
#     Edge 30, Type (0, 1), BuildingBlock: AJUNOK_clean_linker_0, # of connection points: 2
#     Edge 31, Type (0, 1), BuildingBlock: AJUNOK_clean_linker_0, # of connection points: 2
#     Edge 32, Type (0, 1), BuildingBlock: AJUNOK_clean_linker_0, # of connection points: 2
#     Edge 33, Type (0, 1), BuildingBlock: AJUNOK_clean_linker_0, # of connection points: 2
#     Edge 34, Type (0, 1), BuildingBlock: AJUNOK_clean_linker_0, # of connection points: 2
#     Edge 35, Type (0, 1), BuildingBlock: AJUNOK_clean_linker_0, # of connection points: 2
#     Edge 36, Type (0, 1), BuildingBlock: AJUNOK_clean_linker_0, # of connection points: 2
#     Edge 37, Type (0, 1), BuildingBlock: AJUNOK_clean_linker_0, # of connection points: 2
#     Edge 38, Type (0, 1), BuildingBlock: AJUNOK_clean_linker_0, # of connection points: 2
#     Edge 39, Type (0, 1), BuildingBlock: AJUNOK_clean_linker_0, # of connection points: 2
#     Edge 40, Type (0, 1), BuildingBlock: AJUNOK_clean_linker_0, # of connection points: 2
#     Edge 41, Type (0, 1), BuildingBlock: AJUNOK_clean_linker_0, # of connection points: 2
#     Edge 42, Type (0, 1), BuildingBlock: AJUNOK_clean_linker_0, # of connection points: 2
#     Edge 43, Type (0, 1), BuildingBlock: AJUNOK_clean_linker_0, # of connection points: 2
#     Edge 44, Type (0, 1), BuildingBlock: AJUNOK_clean_linker_0, # of connection points: 2
#     Edge 45, Type (0, 1), BuildingBlock: AJUNOK_clean_linker_0, # of connection points: 2
#     Edge 46, Type (0, 1), BuildingBlock: AJUNOK_clean_linker_0, # of connection points: 2
#     Edge 47, Type (0, 1), BuildingBlock: AJUNOK_clean_linker_0, # of connection points: 2
#     Edge 48, Type (0, 1), BuildingBlock: AJUNOK_clean_linker_0, # of connection points: 2
#     Edge 49, Type (0, 1), BuildingBlock: AJUNOK_clean_linker_0, # of connection points: 2
#     Edge 50, Type (0, 1), BuildingBlock: AJUNOK_clean_linker_0, # of connection points: 2
#     Edge 51, Type (0, 1), BuildingBlock: AJUNOK_clean_linker_0, # of connection points: 2
#     Edge 52, Type (0, 1), BuildingBlock: AJUNOK_clean_linker_0, # of connection points: 2
#     Edge 53, Type (0, 1), BuildingBlock: AJUNOK_clean_linker_0, # of connection points: 2
#     Edge 54, Type (0, 1), BuildingBlock: AJUNOK_clean_linker_0, # of connection points: 2
#     Edge 55, Type (0, 1), BuildingBlock: AJUNOK_clean_linker_0, # of connection points: 2
#     Edge 56, Type (0, 1), BuildingBlock: AJUNOK_clean_linker_0, # of connection points: 2
#     Edge 57, Type (0, 1), BuildingBlock: AJUNOK_clean_linker_0, # of connection points: 2
#     Edge 58, Type (0, 1), BuildingBlock: AJUNOK_clean_linker_0, # of connection points: 2
#     Edge 59, Type (0, 1), BuildingBlock: AJUNOK_clean_linker_0, # of connection points: 2
#     Edge 60, Type (0, 1), BuildingBlock: AJUNOK_clean_linker_0, # of connection points: 2
#     Edge 61, Type (0, 1), BuildingBlock: AJUNOK_clean_linker_0, # of connection points: 2
#     Edge 62, Type (0, 1), BuildingBlock: AJUNOK_clean_linker_0, # of connection points: 2
#     Edge 63, Type (0, 1), BuildingBlock: AJUNOK_clean_linker_0, # of connection points: 2
#     Edge 64, Type (0, 1), BuildingBlock: AJUNOK_clean_linker_0, # of connection points: 2
#     Edge 65, Type (0, 1), BuildingBlock: AJUNOK_clean_linker_0, # of connection points: 2
#     Edge 66, Type (0, 1), BuildingBlock: AJUNOK_clean_linker_0, # of connection points: 2
#     Edge 67, Type (0, 1), BuildingBlock: AJUNOK_clean_linker_0, # of connection points: 2
#     Edge 68, Type (0, 1), BuildingBlock: AJUNOK_clean_linker_0, # of connection points: 2
#     Edge 69, Type (0, 1), BuildingBlock: AJUNOK_clean_linker_0, # of connection points: 2
#     Edge 70, Type (0, 1), BuildingBlock: AJUNOK_clean_linker_0, # of connection points: 2
#     Edge 71, Type (0, 1), BuildingBlock: AJUNOK_clean_linker_0, # of connection points: 2
#     Edge 72, Type (0, 1), BuildingBlock: AJUNOK_clean_linker_0, # of connection points: 2
#     Edge 73, Type (0, 1), BuildingBlock: AJUNOK_clean_linker_0, # of connection points: 2
#     Edge 74, Type (0, 1), BuildingBlock: AJUNOK_clean_linker_0, # of connection points: 2
#     Edge 75, Type (0, 1), BuildingBlock: AJUNOK_clean_linker_0, # of connection points: 2
#     Edge 76, Type (0, 1), BuildingBlock: AJUNOK_clean_linker_0, # of connection points: 2
#     Edge 77, Type (0, 1), BuildingBlock: AJUNOK_clean_linker_0, # of connection points: 2
#     Edge 78, Type (0, 1), BuildingBlock: AJUNOK_clean_linker_0, # of connection points: 2
#     Edge 79, Type (0, 1), BuildingBlock: AJUNOK_clean_linker_0, # of connection points: 2
#     Edge 80, Type (0, 1), BuildingBlock: AJUNOK_clean_linker_0, # of connection points: 2
#     Edge 81, Type (0, 1), BuildingBlock: AJUNOK_clean_linker_0, # of connection points: 2
#     Edge 82, Type (0, 1), BuildingBlock: AJUNOK_clean_linker_0, # of connection points: 2
#     Edge 83, Type (0, 1), BuildingBlock: AJUNOK_clean_linker_0, # of connection points: 2
#     Edge 84, Type (0, 1), BuildingBlock: AJUNOK_clean_linker_0, # of connection points: 2
#     Edge 85, Type (0, 1), BuildingBlock: AJUNOK_clean_linker_0, # of connection points: 2
#     Edge 86, Type (0, 1), BuildingBlock: AJUNOK_clean_linker_0, # of connection points: 2
#     Edge 87, Type (0, 1), BuildingBlock: AJUNOK_clean_linker_0, # of connection points: 2
#     Edge 88, Type (0, 1), BuildingBlock: AJUNOK_clean_linker_0, # of connection points: 2
#     Edge 89, Type (0, 1), BuildingBlock: AJUNOK_clean_linker_0, # of connection points: 2
#     Edge 90, Type (0, 1), BuildingBlock: AJUNOK_clean_linker_0, # of connection points: 2
#     Edge 91, Type (0, 1), BuildingBlock: AJUNOK_clean_linker_0, # of connection points: 2
#     Edge 92, Type (0, 1), BuildingBlock: AJUNOK_clean_linker_0, # of connection points: 2
#     Edge 93, Type (0, 1), BuildingBlock: AJUNOK_clean_linker_0, # of connection points: 2
#     Edge 94, Type (0, 1), BuildingBlock: AJUNOK_clean_linker_0, # of connection points: 2
#     Edge 95, Type (0, 1), BuildingBlock: AJUNOK_clean_linker_0, # of connection points: 2
#     Edge 96, Type (0, 1), BuildingBlock: AJUNOK_clean_linker_0, # of connection points: 2
#     Edge 97, Type (0, 1), BuildingBlock: AJUNOK_clean_linker_0, # of connection points: 2
#     Edge 98, Type (0, 1), BuildingBlock: AJUNOK_clean_linker_0, # of connection points: 2
#     Edge 99, Type (0, 1), BuildingBlock: AJUNOK_clean_linker_0, # of connection points: 2
#     Edge 100, Type (0, 1), BuildingBlock: AJUNOK_clean_linker_0, # of connection points: 2
#     Edge 101, Type (0, 1), BuildingBlock: AJUNOK_clean_linker_0, # of connection points: 2
# Relax obj value: 0.107
# Max RMSD: 0.160
# Mean RMSD: 0.134
data_MOF--net-llk--node1-EZIPEK_clean_sbu_0--node2-ESEHIV_clean_linker_0--edge1-AJUNOK_clean_linker_0
_symmetry_space_group_name_H-M    P1
_symmetry_Int_Tables_number       1
_symmetry_cell_setting            triclinic
loop_
_symmetry_equiv_pos_as_xyz
'x, y, z'
_cell_length_a     32.692402
_cell_length_b     32.750109
_cell_length_c     32.733707
_cell_angle_alpha  90.105967
_cell_angle_beta   90.136705
_cell_angle_gamma 90.16684
loop_
_atom_site_label
_atom_site_type_symbol
_atom_site_fract_x
_atom_site_fract_y
_atom_site_fract_z
_atom_type_partial_charge
H0 H 0.96798 0.24275 0.33388 0.0
H1 H 0.9607 0.33827 0.24451 0.0
H2 H 0.07164 0.26963 0.25891 0.0
C3 C 0.98102 0.26085 0.30976 0.0
C4 C 0.02116 0.25171 0.29848 0.0
C5 C 0.96065 0.2954 0.29479 0.0
C6 C 0.97723 0.31419 0.25985 0.0
C7 C 0.01737 0.30642 0.24703 0.0
C8 C 0.04004 0.2751 0.26703 0.0
H9 H 0.701 0.97774 0.25662 0.0
H10 H 0.78411 0.98125 0.35695 0.0
H11 H 0.82039 0.03162 0.2408 0.0
C12 C 0.73182 0.98329 0.26791 0.0
C13 C 0.76002 1.00307 0.24278 0.0
C14 C 0.73963 0.97825 0.30919 0.0
C15 C 0.77873 0.98559 0.32455 0.0
C16 C 0.80861 1.00463 0.30059 0.0
C17 C 0.79898 1.01434 0.25915 0.0
H18 H 0.05761 0.76328 0.35937 0.0
H19 H 0.07877 0.69756 0.24855 0.0
H20 H 1.00926 0.809 0.24626 0.0
C21 C 0.05503 0.7609 0.32648 0.0
C22 C 0.03748 0.79346 0.30469 0.0
C23 C 0.06635 0.72449 0.30685 0.0
C24 C 0.0661 0.7237 0.2644 0.0
C25 C 0.041 0.75063 0.24294 0.0
C26 C 0.02773 0.78704 0.26265 0.0
H27 H 0.23455 0.95141 0.31595 0.0
H28 H 0.34379 0.95204 0.24503 0.0
H29 H 0.27659 0.06298 0.26047 0.0
C30 C 0.25587 0.96723 0.29615 0.0
C31 C 0.2515 1.00944 0.29107 0.0
C32 C 0.29387 0.9494 0.28826 0.0
C33 C 0.31712 0.96726 0.2569 0.0
C34 C 0.31097 1.00805 0.24549 0.0
C35 C 0.27907 0.03031 0.26478 0.0
H36 H 0.97371 0.78276 0.68334 0.0
H37 H 0.98378 0.68559 0.76976 0.0
H38 H 0.04515 0.79957 0.79297 0.0
C39 C 0.98323 0.77209 0.71329 0.0
C40 C 1.00883 0.79679 0.73721 0.0
C41 C 0.97659 0.73127 0.72347 0.0
C42 C 0.9887 0.71736 0.76181 0.0
C43 C 1.01289 0.7416 0.78755 0.0
C44 C 0.02389 0.78159 0.77494 0.0
H45 H 0.27017 0.09339 0.69437 0.0
H46 H 0.36452 0.09424 0.78343 0.0
H47 H 0.25037 0.03381 0.8098 0.0
C48 C 0.27946 0.08786 0.72561 0.0
C49 C 0.25435 0.06388 0.7503 0.0
C50 C 0.32041 0.09278 0.73553 0.0
C51 C 0.33257 0.08875 0.77601 0.0
C52 C 0.30761 0.06823 0.80407 0.0
C53 C 0.26859 0.05336 0.79034 0.0
H54 H 0.95283 0.33864 0.80077 0.0
H55 H 0.96 0.25068 0.70451 0.0
H56 H 0.05251 0.25295 0.79748 0.0
C57 C 0.96656 0.31133 0.78797 0.0
C58 C 1.00277 0.29645 0.80557 0.0
C59 C 0.95515 0.29924 0.74842 0.0
C60 C 0.97036 0.26221 0.73378 0.0
C61 C 1.00576 0.24504 0.75055 0.0
C62 C 0.02313 0.26319 0.7862 0.0
H63 H 0.68885 0.02331 0.76748 0.0
H64 H 0.78023 1.01338 0.67583 0.0
H65 H 0.81637 0.03198 0.80189 0.0
C66 C 0.72113 0.02313 0.75963 0.0
C67 C 0.75056 0.02903 0.78994 0.0
C68 C 0.73197 0.01815 0.71918 0.0
C69 C 0.77271 0.01742 0.70788 0.0
C70 C 0.80383 0.02166 0.73696 0.0
C71 C 0.79289 0.02801 0.77885 0.0
H72 H 0.24683 0.32832 0.94571 0.0
H73 H 0.32081 0.22251 0.9473 0.0
H74 H 0.27937 0.27468 0.061 0.0
C75 C 0.26158 0.30411 0.96262 0.0
C76 C 0.25668 0.30331 1.00518 0.0
C77 C 0.29265 0.28106 0.94423 0.0
C78 C 0.30205 0.24429 0.96369 0.0
C79 C 0.30222 0.24349 1.0066 0.0
C80 C 0.27923 0.27378 0.02794 0.0
H81 H 0.36839 0.77547 0.05607 0.0
H82 H 0.26363 0.6999 0.07131 0.0
H83 H 0.25005 0.81893 0.01707 0.0
C84 C 0.33532 0.7724 0.05526 0.0
C85 C 0.31129 0.804 0.03929 0.0
C86 C 0.31805 0.73478 0.06489 0.0
C87 C 0.27602 0.72994 0.06451 0.0
C88 C 0.25104 0.7587 0.0456 0.0
C89 C 0.26861 0.79659 0.03281 0.0
H90 H 0.70741 0.26568 0.07746 0.0
H91 H 0.79163 0.36393 0.06478 0.0
H92 H 0.81798 0.24789 1.00885 0.0
C93 C 0.73763 0.27608 0.0689 0.0
C94 C 0.76121 0.25111 0.04357 0.0
C95 C 0.74602 0.31753 0.07173 0.0
C96 C 0.785 0.33158 0.06156 0.0
C97 C 0.81239 0.30643 0.04031 0.0
C98 C 0.79962 0.26611 0.02941 0.0
H99 H 0.68083 0.77178 0.99597 0.0
H100 H 0.76619 0.67461 1.01141 0.0
H101 H 0.80829 0.79966 0.01736 0.0
C102 C 0.71213 0.76189 1.00095 0.0
C103 C 0.74301 0.79094 1.00632 0.0
C104 C 0.72031 0.72044 1.00392 0.0
C105 C 0.76026 0.70716 1.00954 0.0
C106 C 0.79255 0.73493 1.014 0.0
C107 C 0.78398 0.77759 1.01285 0.0
H108 H 0.46171 0.75708 0.85594 0.0
H109 H 0.47543 0.84632 0.76201 0.0
H110 H 0.50596 0.72118 0.73696 0.0
C111 C 0.46803 0.76423 0.82419 0.0
C112 C 0.48267 0.73354 0.79825 0.0
C113 C 0.46798 0.80503 0.81209 0.0
C114 C 0.47516 0.81458 0.77137 0.0
C115 C 0.4885 0.78513 0.74357 0.0
C116 C 0.49302 0.74394 0.75713 0.0
H117 H 0.19329 0.59483 0.73078 0.0
H118 H 0.28414 0.58661 0.82204 0.0
H119 H 0.27238 0.48944 0.73391 0.0
C120 C 0.22012 0.57939 0.74264 0.0
C121 C 0.23249 0.54223 0.72464 0.0
C122 C 0.2319 0.58799 0.78287 0.0
C123 C 0.27053 0.57448 0.7943 0.0
C124 C 0.28411 0.53667 0.77968 0.0
C125 C 0.26424 0.51964 0.74458 0.0
H126 H 0.57836 0.17814 0.74074 0.0
H127 H 0.58304 0.27886 0.82225 0.0
H128 H 0.48787 0.27305 0.73122 0.0
C129 C 0.56797 0.20863 0.7485 0.0
C130 C 0.53379 0.22487 0.72825 0.0
C131 C 0.58075 0.22526 0.78563 0.0
C132 C 0.57097 0.26562 0.79421 0.0
C133 C 0.5357 0.28259 0.77693 0.0
C134 C 0.51651 0.26192 0.74349 0.0
H135 H 0.76172 0.53398 0.85559 0.0
H136 H 0.8425 0.54215 0.75402 0.0
H137 H 0.72119 0.49271 0.73667 0.0
C138 C 0.76641 0.53112 0.82288 0.0
C139 C 0.73539 0.51482 0.79804 0.0
C140 C 0.80492 0.53933 0.80703 0.0
C141 C 0.81189 0.53604 0.76547 0.0
C142 C 0.78268 0.5185 0.73973 0.0
C143 C 0.7437 0.50769 0.75587 0.0
H144 H 0.58036 0.27895 0.19933 0.0
H145 H 0.58923 0.20256 0.30379 0.0
H146 H 0.47406 0.2589 0.27341 0.0
C147 C 0.56694 0.26624 0.22668 0.0
C148 C 0.526 0.27538 0.23512 0.0
C149 C 0.58639 0.23405 0.24685 0.0
C150 C 0.57186 0.22428 0.28577 0.0
C151 C 0.53004 0.22925 0.29409 0.0
C152 C 0.50654 0.25519 0.2683 0.0
H153 H 0.75838 0.48875 0.1719 0.0
H154 H 0.83571 0.47049 0.27516 0.0
H155 H 0.71197 0.51248 0.29308 0.0
C156 C 0.76198 0.48794 0.20485 0.0
C157 C 0.72881 0.49771 0.23015 0.0
C158 C 0.80055 0.48046 0.22129 0.0
C159 C 0.8055 0.47754 0.26316 0.0
C160 C 0.77526 0.49159 0.28948 0.0
C161 C 0.73588 0.50135 0.27319 0.0
H162 H 0.47499 0.83698 0.26447 0.0
H163 H 0.47034 0.74815 0.16967 0.0
H164 H 0.49784 0.71084 0.29346 0.0
C165 C 0.47462 0.80506 0.25561 0.0
C166 C 0.48336 0.77534 0.28478 0.0
C167 C 0.47148 0.79529 0.21453 0.0
C168 C 0.47274 0.75478 0.20212 0.0
C169 C 0.48313 0.72371 0.22957 0.0
C170 C 0.48846 0.73394 0.27179 0.0
H171 H 0.20144 0.57301 0.30156 0.0
H172 H 0.28548 0.56447 0.20206 0.0
H173 H 0.26101 0.45881 0.27505 0.0
C174 C 0.22368 0.55576 0.28416 0.0
C175 C 0.22937 0.5144 0.2937 0.0
C176 C 0.23744 0.57132 0.24664 0.0
C177 C 0.27061 0.55139 0.22841 0.0
C178 C 0.27956 0.51067 0.23764 0.0
C179 C 0.25741 0.49122 0.26969 0.0
H180 H 0.7677 0.85564 0.47894 0.0
H181 H 0.85315 0.7583 0.4661 0.0
H182 H 0.73192 0.73315 0.51158 0.0
C183 C 0.77405 0.82316 0.47966 0.0
C184 C 0.74366 0.79597 0.49293 0.0
C185 C 0.81363 0.80975 0.47173 0.0
C186 C 0.82214 0.76825 0.47255 0.0
C187 C 0.79401 0.74047 0.48862 0.0
C188 C 0.75388 0.75406 0.49832 0.0
H189 H 0.82798 0.27624 0.54515 0.0
H190 H 0.75369 0.17005 0.52929 0.0
H191 H 0.70256 0.28946 0.506 0.0
C192 C 0.79816 0.26308 0.5382 0.0
C193 C 0.76662 0.28825 0.52526 0.0
C194 C 0.79422 0.22113 0.53754 0.0
C195 C 0.75637 0.20308 0.52941 0.0
C196 C 0.72226 0.22711 0.51975 0.0
C197 C 0.72764 0.27043 0.51605 0.0
H198 H 0.17182 0.7383 0.46177 0.0
H199 H 0.27058 0.82318 0.45745 0.0
H200 H 0.28129 0.71469 0.53097 0.0
C201 C 0.20369 0.74529 0.46819 0.0
C202 C 0.22643 0.71884 0.49305 0.0
C203 C 0.21826 0.7844 0.45938 0.0
C204 C 0.25927 0.79318 0.46609 0.0
C205 C 0.28147 0.77046 0.4946 0.0
C206 C 0.26522 0.73234 0.50811 0.0
H207 H 0.20743 0.28954 0.59697 0.0
H208 H 0.2991 0.19942 0.58779 0.0
H209 H 0.25011 0.25257 0.47792 0.0
C210 C 0.22767 0.27134 0.57815 0.0
C211 C 0.22601 0.27614 0.53556 0.0
C212 C 0.24462 0.23554 0.59439 0.0
C213 C 0.27849 0.22049 0.57304 0.0
C214 C 0.27951 0.22354 0.53036 0.0
C215 C 0.25155 0.25079 0.5109 0.0
C216 C 0.03404 0.927 0.62183 0.0
C217 C 0.03218 0.92917 0.42088 0.0
C218 C 0.03513 0.12448 0.6238 0.0
C219 C 0.04294 0.12728 0.42254 0.0
C220 C 0.9374 0.12285 0.53156 0.0
C221 C 0.93687 0.92937 0.50806 0.0
C222 C 0.13355 0.11986 0.54981 0.0
C223 C 0.1305 0.92592 0.50959 0.0
C224 C 0.13575 0.03316 0.42236 0.0
C225 C 0.93873 0.02822 0.42001 0.0
C226 C 0.13332 0.02689 0.62483 0.0
C227 C 0.93696 0.02428 0.62207 0.0
Eu228 Eu 0.03444 0.94932 0.52183 0.0
O229 O 1.00076 0.99202 0.4859 0.0
O230 O 0.0726 0.98844 0.55927 0.0
Eu231 Eu 0.95837 0.0264 0.5212 0.0
Eu232 Eu 0.11448 0.02489 0.52302 0.0
O233 O 0.99739 0.98899 0.55873 0.0
O234 O 0.07172 0.99054 0.48655 0.0
Eu235 Eu 0.03497 0.02535 0.59925 0.0
Eu236 Eu 0.03711 0.02812 0.44525 0.0
O237 O 1.00008 0.06213 0.55757 0.0
O238 O 0.99949 0.0643 0.48557 0.0
O239 O 0.07457 0.06384 0.48679 0.0
O240 O 0.07039 0.05972 0.55671 0.0
Eu241 Eu 0.03668 0.10437 0.52286 0.0
O242 O 0.0348 0.91448 0.58276 0.0
O243 O 0.03097 0.91635 0.45982 0.0
O244 O 0.03489 0.13766 0.58492 0.0
O245 O 0.04322 0.13976 0.46182 0.0
O246 O 0.92513 0.08437 0.52923 0.0
O247 O 0.9244 0.96795 0.50939 0.0
O248 O 0.14727 0.08269 0.54079 0.0
O249 O 0.14546 0.96394 0.51063 0.0
O250 O 0.09684 0.02858 0.41124 0.0
O251 O 0.97795 0.02675 0.40903 0.0
O252 O 0.09398 0.02927 0.63497 0.0
O253 O 0.97564 0.02794 0.6341 0.0
O254 O 0.09618 0.13415 0.54161 0.0
O255 O 0.97552 0.13703 0.52707 0.0
O256 O 0.09216 0.91449 0.51612 0.0
O257 O 0.97458 0.91597 0.51533 0.0
O258 O 0.03571 0.96821 0.40938 0.0
O259 O 0.03955 0.0883 0.411 0.0
O260 O 0.03341 0.9658 0.63404 0.0
O261 O 0.03525 0.08521 0.63481 0.0
O262 O 0.9243 0.0209 0.58302 0.0
O263 O 0.92525 0.03046 0.45878 0.0
O264 O 0.14737 0.02173 0.58637 0.0
O265 O 0.1488 0.03418 0.46151 0.0
C266 C 0.52616 0.9266 0.11465 0.0
C267 C 0.55955 0.11995 0.12305 0.0
C268 C 0.51852 0.93343 0.92107 0.0
C269 C 0.5472 0.12759 0.9258 0.0
C270 C 0.63361 0.02842 0.92074 0.0
C271 C 0.6407 0.02212 0.1162 0.0
C272 C 0.43034 0.03816 0.92852 0.0
C273 C 0.43988 0.03275 0.12539 0.0
C274 C 0.43766 0.13051 0.02994 0.0
C275 C 0.63951 0.12448 0.02073 0.0
C276 C 0.43223 0.93325 0.02151 0.0
C277 C 0.6337 0.92729 1.01484 0.0
Eu278 Eu 0.53897 0.02522 0.09909 0.0
O279 O 0.57337 0.06156 0.05678 0.0
O280 O 0.50048 0.99222 0.05745 0.0
Eu281 Eu 0.61304 0.02586 0.01908 0.0
Eu282 Eu 0.45892 0.03137 0.02541 0.0
O283 O 0.57318 0.98872 0.05616 0.0
O284 O 0.5022 0.06572 0.06183 0.0
Eu285 Eu 0.53389 0.95123 0.01854 0.0
Eu286 Eu 0.53826 0.10674 0.02453 0.0
O287 O 0.57033 0.99164 0.98155 0.0
O288 O 0.57056 0.06389 0.98641 0.0
O289 O 0.49926 0.06777 0.98767 0.0
O290 O 0.49748 0.99523 0.98642 0.0
Eu291 Eu 0.53252 0.03062 0.94404 0.0
O292 O 0.52825 0.96442 0.1296 0.0
O293 O 0.55261 0.08163 0.13421 0.0
O294 O 0.52025 0.97224 0.90888 0.0
O295 O 0.54028 0.09002 0.9122 0.0
O296 O 0.64645 0.02685 0.95921 0.0
O297 O 0.65086 0.02349 0.07689 0.0
O298 O 0.42047 0.03528 0.96787 0.0
O299 O 0.42665 0.03165 0.08677 0.0
O300 O 0.47705 0.14304 0.02888 0.0
O301 O 0.60095 0.13844 0.02178 0.0
O302 O 0.47078 0.91948 0.01803 0.0
O303 O 0.59437 0.91534 1.01475 0.0
O304 O 0.46874 0.03815 0.91364 0.0
O305 O 0.59415 0.02952 0.90861 0.0
O306 O 0.47951 0.03183 0.13634 0.0
O307 O 0.60221 0.02127 0.13068 0.0
O308 O 0.55412 0.13565 0.08575 0.0
O309 O 0.54654 0.14054 0.96451 0.0
O310 O 0.53061 0.91516 0.07603 0.0
O311 O 0.52546 0.91978 0.95864 0.0
O312 O 0.64675 0.96576 0.01654 0.0
O313 O 0.64999 0.08506 0.02038 0.0
O314 O 0.42176 0.97244 0.02561 0.0
O315 O 0.42592 0.09154 0.02895 0.0
C316 C 0.0409 0.43216 0.12166 0.0
C317 C 0.03755 0.42547 0.9242 0.0
C318 C 0.02251 0.63393 0.11435 0.0
C319 C 0.03487 0.62685 0.91851 0.0
C320 C 0.93036 0.62443 0.01789 0.0
C321 C 0.94236 0.42402 0.01741 0.0
C322 C 0.12674 0.63769 0.02013 0.0
C323 C 0.14082 0.43644 0.02663 0.0
C324 C 0.13181 0.54177 0.92079 0.0
C325 C 0.93727 0.53096 0.92045 0.0
C326 C 0.12691 0.55735 0.11981 0.0
C327 C 0.9347 0.51335 0.11429 0.0
Eu328 Eu 0.04013 0.45317 0.02208 0.0
O329 O 1.00099 0.49011 0.98415 0.0
O330 O 0.07342 0.49788 0.0582 0.0
Eu331 Eu 0.95725 0.52551 0.01812 0.0
Eu332 Eu 0.11326 0.53575 0.02081 0.0
O333 O 1.0005 0.49329 0.05547 0.0
O334 O 0.07509 0.4949 0.9846 0.0
Eu335 Eu 0.03237 0.53232 0.09721 0.0
Eu336 Eu 0.03532 0.52699 0.94265 0.0
O337 O 0.99444 0.56572 0.05497 0.0
O338 O 0.99658 0.56293 0.98144 0.0
O339 O 0.06865 0.56658 0.98355 0.0
O340 O 0.06707 0.56833 0.05448 0.0
Eu341 Eu 0.02968 0.60699 0.01735 0.0
O342 O 0.04079 0.41995 0.08277 0.0
O343 O 0.03944 0.41543 0.96369 0.0
O344 O 0.02575 0.6441 0.07518 0.0
O345 O 0.03181 0.63989 0.95692 0.0
O346 O 0.91991 0.58504 0.02289 0.0
O347 O 0.92766 0.46199 1.01267 0.0
O348 O 0.14277 0.59994 0.01898 0.0
O349 O 0.15146 0.47626 0.02554 0.0
O350 O 0.09376 0.5331 0.90989 0.0
O351 O 0.9758 0.52764 0.90785 0.0
O352 O 0.08898 0.54852 0.13131 0.0
O353 O 0.9722 0.52066 0.12868 0.0
O354 O 0.08692 0.6463 0.0208 0.0
O355 O 0.96833 0.63826 1.01294 0.0
O356 O 0.10234 0.42264 0.02497 0.0
O357 O 0.98173 0.41475 0.02351 0.0
O358 O 0.03655 0.46407 0.91015 0.0
O359 O 0.03625 0.58751 0.90688 0.0
O360 O 0.03954 0.47165 0.13345 0.0
O361 O 0.02232 0.5953 0.12862 0.0
O362 O 0.92278 0.51444 0.07556 0.0
O363 O 0.92401 0.53093 0.95873 0.0
O364 O 0.14233 0.5525 0.08219 0.0
O365 O 0.14585 0.54425 0.95925 0.0
C366 C 0.49514 0.39351 0.10727 0.0
C367 C 0.495 0.5901 0.11386 0.0
C368 C 0.50735 0.4002 0.90604 0.0
C369 C 0.49648 0.59732 0.91171 0.0
C370 C 0.60062 0.49873 0.91172 0.0
C371 C 0.59505 0.50118 0.11283 0.0
C372 C 0.40294 0.49825 0.90636 0.0
C373 C 0.39721 0.48429 0.10735 0.0
C374 C 0.3994 0.58976 0.01986 0.0
C375 C 0.59456 0.598 1.00962 0.0
C376 C 0.40888 0.39576 0.97831 0.0
C377 C 0.60257 0.40385 0.02302 0.0
Eu378 Eu 0.49685 0.49271 0.0867 0.0
O379 O 0.53329 0.53198 0.04816 0.0
O380 O 0.46232 0.45502 0.04411 0.0
Eu381 Eu 0.57668 0.49929 1.0115 0.0
Eu382 Eu 0.42145 0.49222 1.0075 0.0
O383 O 0.536 0.46024 0.04532 0.0
O384 O 0.46143 0.52883 0.04503 0.0
Eu385 Eu 0.50315 0.4176 1.00765 0.0
Eu386 Eu 0.49737 0.57288 1.01184 0.0
O387 O 0.53852 0.46145 0.97299 0.0
O388 O 0.53586 0.53507 0.97467 0.0
O389 O 0.46241 0.53174 0.97356 0.0
O390 O 0.46747 0.46061 0.97343 0.0
Eu391 Eu 0.5015 0.49825 0.93229 0.0
O392 O 0.49772 0.43223 0.11949 0.0
O393 O 0.49252 0.55083 0.12425 0.0
O394 O 0.50373 0.43944 0.89577 0.0
O395 O 0.49771 0.55873 0.89867 0.0
O396 O 0.61222 0.49613 0.95101 0.0
O397 O 0.60833 0.50527 0.07422 0.0
O398 O 0.38923 0.49948 0.94511 0.0
O399 O 0.38561 0.4824 0.06783 0.0
O400 O 0.43723 0.6037 0.01547 0.0
O401 O 0.55563 0.60932 1.01232 0.0
O402 O 0.44644 0.38352 0.98845 0.0
O403 O 0.56495 0.38797 0.02003 0.0
O404 O 0.44231 0.49599 0.89598 0.0
O405 O 0.56205 0.50187 0.89878 0.0
O406 O 0.43588 0.48926 0.11973 0.0
O407 O 0.5562 0.49433 0.12358 0.0
O408 O 0.49829 0.6041 0.07534 0.0
O409 O 0.49669 0.60893 0.95116 0.0
O410 O 0.49498 0.38149 0.06789 0.0
O411 O 0.50974 0.3861 0.94464 0.0
O412 O 0.61318 0.44268 0.01852 0.0
O413 O 0.60855 0.55994 1.00814 0.0
O414 O 0.39307 0.43267 0.98558 0.0
O415 O 0.38671 0.55102 0.01861 0.0
C416 C 0.98083 0.40677 0.61416 0.0
C417 C 0.97035 0.40254 0.41691 0.0
C418 C 0.9918 0.60137 0.60742 0.0
C419 C 0.02286 0.59412 0.41384 0.0
C420 C 0.90366 0.60431 0.50627 0.0
C421 C 0.88929 0.40991 0.51456 0.0
C422 C 0.10434 0.59211 0.51319 0.0
C423 C 0.09302 0.39494 0.51384 0.0
C424 C 0.09747 0.48967 0.41211 0.0
C425 C 0.89592 0.5052 0.41484 0.0
C426 C 0.1007 0.50248 0.60927 0.0
C427 C 0.89801 0.50522 0.61005 0.0
Eu428 Eu 0.99252 0.4214 0.51421 0.0
O429 O 0.96073 0.46609 0.47802 0.0
O430 O 0.03219 0.46126 0.54993 0.0
Eu431 Eu 0.9215 0.50549 0.51215 0.0
Eu432 Eu 0.07434 0.49482 0.51148 0.0
O433 O 0.96089 0.46769 0.5486 0.0
O434 O 0.03107 0.45934 0.47555 0.0
Eu435 Eu 0.99892 0.50222 0.58991 0.0
Eu436 Eu 0.99703 0.49843 0.43415 0.0
O437 O 0.9647 0.53954 0.54803 0.0
O438 O 0.96319 0.53936 0.47357 0.0
O439 O 0.03448 0.53216 0.47595 0.0
O440 O 0.03674 0.5351 0.54757 0.0
Eu441 Eu 1.00271 0.57754 0.51062 0.0
O442 O 0.98035 0.39181 0.57608 0.0
O443 O 0.9768 0.38896 0.45487 0.0
O444 O 0.99715 0.61276 0.56884 0.0
O445 O 0.01794 0.60841 0.45157 0.0
O446 O 0.88968 0.56625 0.5084 0.0
O447 O 0.8812 0.44963 0.51498 0.0
O448 O 0.11334 0.55261 0.50831 0.0
O449 O 0.10534 0.43368 0.513 0.0
O450 O 0.05817 0.48905 0.39952 0.0
O451 O 0.93469 0.50757 0.40108 0.0
O452 O 0.06192 0.50367 0.6232 0.0
O453 O 0.93674 0.50107 0.62325 0.0
O454 O 0.06634 0.60715 0.51684 0.0
O455 O 0.94334 0.61517 0.50611 0.0
O456 O 0.05324 0.38326 0.51397 0.0
O457 O 0.927 0.39331 0.51404 0.0
O458 O 0.97897 0.43989 0.40323 0.0
O459 O 1.01461 0.55625 0.40101 0.0
O460 O 0.99107 0.4446 0.62494 0.0
O461 O 0.99235 0.56326 0.62172 0.0
O462 O 0.88663 0.50966 0.57131 0.0
O463 O 0.88523 0.5018 0.45378 0.0
O464 O 0.11121 0.49895 0.5701 0.0
O465 O 0.10896 0.49244 0.45125 0.0
C466 C 0.50543 0.89783 0.60981 0.0
C467 C 0.50075 0.89338 0.41391 0.0
C468 C 0.49854 0.09986 0.60578 0.0
C469 C 0.49883 0.09647 0.40881 0.0
C470 C 0.39679 0.09336 0.50213 0.0
C471 C 0.40627 0.89274 0.51876 0.0
C472 C 0.59438 0.10294 0.50766 0.0
C473 C 0.60326 0.90207 0.50964 0.0
C474 C 0.59836 0.9945 0.41026 0.0
C475 C 0.40295 0.9707 0.41424 0.0
C476 C 0.60125 1.007 0.6044 0.0
C477 C 0.40669 1.01196 0.6086 0.0
Eu478 Eu 0.5037 0.92043 0.51138 0.0
O479 O 0.46663 0.96051 0.47536 0.0
O480 O 0.53992 0.96309 0.54621 0.0
Eu481 Eu 0.42272 0.99407 0.51058 0.0
Eu482 Eu 0.57749 1.00124 0.50774 0.0
O483 O 0.46559 0.96002 0.54789 0.0
O484 O 0.5374 0.96213 0.47301 0.0
Eu485 Eu 0.50265 0.99831 0.58708 0.0
Eu486 Eu 0.49961 0.99539 0.43058 0.0
O487 O 0.46456 0.03136 0.54486 0.0
O488 O 0.46118 0.03113 0.47125 0.0
O489 O 0.53466 0.03458 0.47071 0.0
O490 O 0.53539 0.03562 0.54407 0.0
Eu491 Eu 0.49684 0.07396 0.50741 0.0
O492 O 0.50486 0.88559 0.57102 0.0
O493 O 0.50005 0.88316 0.45323 0.0
O494 O 0.49489 0.11021 0.56653 0.0
O495 O 0.49763 0.10755 0.44786 0.0
O496 O 0.38541 0.05374 0.50155 0.0
O497 O 0.39178 0.93119 0.52086 0.0
O498 O 0.60895 0.06466 0.50509 0.0
O499 O 0.61424 0.94159 0.51071 0.0
O500 O 0.55992 0.99221 0.39671 0.0
O501 O 0.43968 0.98074 0.39961 0.0
O502 O 0.56353 1.00224 0.61887 0.0
O503 O 0.44405 1.00261 0.62137 0.0
O504 O 0.55483 0.11262 0.50985 0.0
O505 O 0.4355 0.10603 0.50552 0.0
O506 O 0.56489 0.88822 0.50882 0.0
O507 O 0.44551 0.88322 0.51383 0.0
O508 O 0.50215 0.93179 0.39934 0.0
O509 O 0.49815 0.05741 0.39541 0.0
O510 O 0.50516 0.93704 0.62222 0.0
O511 O 0.50219 0.06123 0.61936 0.0
O512 O 0.39261 1.01097 0.57035 0.0
O513 O 0.39028 0.97538 0.45268 0.0
O514 O 0.61262 1.00779 0.56557 0.0
O515 O 0.61062 0.99875 0.44867 0.0
C516 C 0.1726 0.21301 0.60595 0.0
C517 C 0.21471 0.20417 0.61036 0.0
C518 C 0.1471 0.18587 0.58514 0.0
C519 C 0.16063 0.14684 0.57403 0.0
H520 H 0.16077 0.24319 0.61149 0.0
H521 H 0.1172 0.19668 0.57598 0.0
S522 S 0.25718 0.09905 0.60958 0.0
N523 N 0.26121 0.14742 0.62332 0.0
N524 N 0.21221 0.09476 0.58707 0.0
C525 C 0.19843 0.13369 0.58999 0.0
C526 C 0.22497 0.16234 0.60951 0.0
C527 C 0.86464 0.20807 0.51373 0.0
C528 C 0.83178 0.19715 0.53938 0.0
C529 C 0.90071 0.18568 0.51365 0.0
C530 C 0.90444 0.15145 0.53869 0.0
H531 H 0.86193 0.23343 0.49268 0.0
H532 H 0.92464 0.19368 0.49222 0.0
S533 S 0.82893 0.11255 0.61386 0.0
N534 N 0.80642 0.15228 0.59257 0.0
N535 N 0.87423 0.10905 0.59188 0.0
C536 C 0.87256 0.14117 0.56569 0.0
C537 C 0.836 0.1642 0.56599 0.0
C538 C 0.878 0.83117 0.50518 0.0
C539 C 0.8478 0.83881 0.47538 0.0
C540 C 0.90713 0.86056 0.51514 0.0
C541 C 0.90661 0.89878 0.49619 0.0
H542 H 0.87808 0.80293 0.52237 0.0
H543 H 0.9293 0.8538 0.53885 0.0
S544 S 0.83756 0.93219 0.41273 0.0
N545 N 0.82155 0.88576 0.42435 0.0
N546 N 0.87643 0.94181 0.44363 0.0
C547 C 0.87777 0.90644 0.46522 0.0
C548 C 0.84828 0.87621 0.4547 0.0
C549 C 0.17241 0.8208 0.50585 0.0
C550 C 0.19091 0.81907 0.46709 0.0
C551 C 0.15558 0.85678 0.52051 0.0
C552 C 0.15668 0.89246 0.49711 0.0
H553 H 0.17259 0.79462 0.52598 0.0
H554 H 0.14109 0.85661 0.55027 0.0
S555 S 0.19772 0.90351 0.39242 0.0
N556 N 0.20775 0.85565 0.40483 0.0
N557 N 0.17445 0.92384 0.4323 0.0
C558 C 0.17412 0.89133 0.45801 0.0
C559 C 0.19155 0.85444 0.44297 0.0
C560 C 0.58034 0.16092 0.22801 0.0
C561 C 0.59882 0.1992 0.22018 0.0
C562 C 0.56799 0.13568 0.19626 0.0
C563 C 0.57565 0.1463 0.15554 0.0
H564 H 0.57035 0.1521 0.25821 0.0
H565 H 0.55047 0.10861 0.2039 0.0
S566 S 0.64148 0.23114 0.12037 0.0
N567 N 0.63755 0.23829 0.17017 0.0
N568 N 0.61453 0.1898 0.10977 0.0
C569 C 0.60101 0.17994 0.14768 0.0
C570 C 0.61349 0.20603 0.18032 0.0
C571 C 0.841 0.46468 0.15902 0.0
C572 C 0.8371 0.48583 0.19601 0.0
C573 C 0.87365 0.47308 0.13299 0.0
C574 C 0.90312 0.5027 0.14348 0.0
H575 H 0.81838 0.44218 0.14992 0.0
H576 H 0.87559 0.45666 0.10426 0.0
S577 S 0.90584 0.56737 0.23609 0.0
N578 N 0.86471 0.53855 0.24126 0.0
N579 N 0.92671 0.55318 0.19252 0.0
C580 C 0.90014 0.52338 0.18064 0.0
C581 C 0.8668 0.51528 0.20689 0.0
C582 C 0.51847 0.82445 0.16401 0.0
C583 C 0.48117 0.82735 0.18512 0.0
C584 C 0.53376 0.85753 0.14227 0.0
C585 C 0.51253 0.89454 0.14173 0.0
H586 H 0.53671 0.7969 0.16555 0.0
H587 H 0.56242 0.85429 0.12601 0.0
S588 S 0.41127 0.91598 0.18726 0.0
N589 N 0.42162 0.86855 0.20101 0.0
N590 N 0.45091 0.93156 0.16019 0.0
C591 C 0.4747 0.89762 0.16157 0.0
C592 C 0.45882 0.8637 0.1833 0.0
C593 C 0.16511 0.58221 0.22557 0.0
C594 C 0.2068 0.59131 0.21881 0.0
C595 C 0.13932 0.57246 0.19319 0.0
C596 C 0.15325 0.57394 0.15258 0.0
H597 H 0.15303 0.5766 0.25577 0.0
H598 H 0.10908 0.5612 0.20064 0.0
S599 S 0.24901 0.62359 0.1186 0.0
N600 N 0.25324 0.62148 0.16887 0.0
N601 N 0.20458 0.60243 0.10723 0.0
C602 C 0.19102 0.59283 0.14522 0.0
C603 C 0.21743 0.60285 0.17858 0.0
C604 C 0.50375 0.83027 0.87365 0.0
C605 C 0.47447 0.83735 0.84291 0.0
C606 C 0.51855 0.86195 0.89775 0.0
C607 C 0.50515 0.90216 0.8919 0.0
H608 H 0.51707 0.80034 0.878 0.0
H609 H 0.54125 0.85485 0.92084 0.0
S610 S 0.4276 0.93693 0.81685 0.0
N611 N 0.43074 0.88718 0.80946 0.0
N612 N 0.4602 0.94763 0.85403 0.0
C613 C 0.47551 0.90991 0.86176 0.0
C614 C 0.45963 0.87726 0.83764 0.0
C615 C 0.2102 0.59759 0.85613 0.0
C616 C 0.20057 0.58434 0.81606 0.0
C617 C 0.18958 0.58206 0.89039 0.0
C618 C 0.15807 0.5532 0.88592 0.0
H619 H 0.23524 0.61872 0.86123 0.0
H620 H 0.19817 0.59295 0.92045 0.0
S621 S 0.11612 0.51253 0.78813 0.0
N622 N 0.15279 0.54408 0.77465 0.0
N623 N 0.11644 0.51353 0.83833 0.0
C624 C 0.14693 0.54093 0.84612 0.0
C625 C 0.16706 0.55729 0.81145 0.0
C626 C 0.5351 0.18538 0.82955 0.0
C627 C 0.5753 0.19845 0.82101 0.0
C628 C 0.52589 0.16494 0.86543 0.0
C629 C 0.55656 0.15657 0.89385 0.0
H630 H 0.51026 0.19179 0.80858 0.0
H631 H 0.49473 0.15473 0.87053 0.0
S632 S 0.66702 0.1804 0.88449 0.0
N633 N 0.64614 0.20062 0.84318 0.0
N634 N 0.62913 0.15908 0.91025 0.0
C635 C 0.59706 0.16839 0.88559 0.0
C636 C 0.60638 0.19018 0.84916 0.0
C637 C 0.84697 0.57055 0.8623 0.0
C638 C 0.84024 0.53887 0.83428 0.0
C639 C 0.87959 0.5683 0.88983 0.0
C640 C 0.90597 0.5345 0.88947 0.0
H641 H 0.82674 0.59668 0.86318 0.0
H642 H 0.88403 0.59279 0.91174 0.0
S643 S 0.8989 0.44254 0.82428 0.0
N644 N 0.8607 0.47187 0.80933 0.0
N645 N 0.92266 0.46835 0.8607 0.0
C646 C 0.89957 0.50281 0.86167 0.0
C647 C 0.86632 0.50481 0.83409 0.0
C648 C 0.68924 0.65551 0.97975 0.0
C649 C 0.68666 0.69078 1.00403 0.0
C650 C 0.65897 0.62557 0.98162 0.0
C651 C 0.62507 0.63038 1.00739 0.0
H652 H 0.71497 0.65094 0.95946 0.0
H653 H 0.66203 0.59856 0.96268 0.0
S654 S 0.60473 0.71656 0.07785 0.0
N655 N 0.64847 0.72828 0.05564 0.0
N656 N 0.59046 0.6725 0.05769 0.0
C657 C 0.62172 0.66575 0.03127 0.0
C658 C 0.65288 0.69589 0.02996 0.0
C659 C 0.34879 0.68972 1.01435 0.0
C660 C 0.341 0.69788 0.05577 0.0
C661 C 0.36371 0.65201 1.00208 0.0
C662 C 0.37086 0.62133 0.03083 0.0
H663 H 0.34273 0.71259 0.99121 0.0
H664 H 0.37144 0.64738 0.97021 0.0
S665 S 0.35605 0.62772 0.14271 0.0
N666 N 0.34104 0.67267 0.12542 0.0
N667 N 0.37023 0.6011 0.10223 0.0
C668 C 0.36265 0.62871 0.07223 0.0
C669 C 0.34743 0.66729 0.08479 0.0
C670 C 0.36785 0.29439 0.94182 0.0
C671 C 0.32831 0.30498 0.92771 0.0
C672 C 0.39393 0.32416 0.9577 0.0
C673 C 0.38338 0.3656 0.95627 0.0
H674 H 0.37654 0.26301 0.947 0.0
H675 H 0.4214 0.31416 0.97324 0.0
S676 S 0.29911 0.40861 0.89372 0.0
N677 N 0.29091 0.35889 0.89311 0.0
N678 N 0.34068 0.41577 0.92171 0.0
C679 C 0.34984 0.37665 0.93164 0.0
C680 C 0.32295 0.34594 0.91612 0.0
C681 C 0.70768 0.361 0.02427 0.0
C682 C 0.7108 0.34423 0.06373 0.0
C683 C 0.67119 0.37764 1.01031 0.0
C684 C 0.6364 0.37786 0.03507 0.0
H685 H 0.73317 0.35973 1.00324 0.0
H686 H 0.67024 0.39087 0.98003 0.0
S687 S 0.62895 0.34136 0.14175 0.0
N688 N 0.6764 0.33063 0.12807 0.0
N689 N 0.60727 0.36296 0.1016 0.0
C690 C 0.63889 0.36201 0.07476 0.0
C691 C 0.67628 0.34499 0.08918 0.0
C692 C 0.9983 0.70443 0.65658 0.0
C693 C 0.97203 0.70089 0.69044 0.0
C694 C 1.00412 0.67198 0.62993 0.0
C695 C 0.98426 0.63459 0.63622 0.0
H696 H 0.01675 0.73152 0.65189 0.0
H697 H 0.02561 0.67581 0.60505 0.0
S698 S 0.90761 0.61117 0.71616 0.0
N699 N 0.92228 0.65853 0.726 0.0
N700 N 0.93385 0.59669 0.67558 0.0
C701 C 0.9562 0.63099 0.66843 0.0
C702 C 0.94983 0.66442 0.69553 0.0
C703 C 0.35743 0.03398 0.70834 0.0
C704 C 0.34789 0.07579 0.70483 0.0
C705 C 0.37462 1.0127 0.67597 0.0
C706 C 0.38213 0.03242 0.63898 0.0
H707 H 0.35002 0.01715 0.73585 0.0
H708 H 0.38217 0.98073 0.67985 0.0
S709 S 0.36756 0.14217 0.61588 0.0
N710 N 0.34985 0.13667 0.66282 0.0
N711 N 0.38306 0.09642 0.60135 0.0
C712 C 0.37397 0.07436 0.63525 0.0
C713 C 0.35657 0.09617 0.66842 0.0
C714 C 0.96929 0.36854 0.72167 0.0
C715 C 0.94742 0.33162 0.71732 0.0
C716 C 0.97996 0.39188 0.68806 0.0
C717 C 0.96804 0.38054 0.64839 0.0
H718 H 0.98196 0.37813 0.75066 0.0
H719 H 0.99914 0.41839 0.69346 0.0
S720 S 0.89726 0.29584 0.62167 0.0
N721 N 0.90484 0.29096 0.67136 0.0
N722 N 0.92467 0.3358 0.60747 0.0
C723 C 0.94147 0.34701 0.64383 0.0
C724 C 0.93069 0.32277 0.67847 0.0
C725 C 0.66866 0.98581 0.69381 0.0
C726 C 0.69983 0.0149 0.68859 0.0
C727 C 0.63588 0.98414 0.66678 0.0
C728 C 0.63399 1.0111 0.63375 0.0
H729 H 0.66962 0.96443 0.71902 0.0
H730 H 0.61238 0.96125 0.67124 0.0
S731 S 0.70657 0.09432 0.60844 0.0
N732 N 0.72594 0.07251 0.6496 0.0
N733 N 0.66439 0.06855 0.59771 0.0
C734 C 0.66479 0.04042 0.62822 0.0
C735 C 0.6979 0.04245 0.65597 0.0
C736 C 0.9308 0.36189 0.31634 0.0
C737 C 0.93297 0.31937 0.32287 0.0
C738 C 0.94216 0.38889 0.34738 0.0
C739 C 0.95145 0.3745 0.38684 0.0
H740 H 0.92668 0.37457 0.28619 0.0
H741 H 0.94554 0.42084 0.33955 0.0
S742 S 0.92189 0.27221 0.42546 0.0
N743 N 0.91603 0.26914 0.37541 0.0
N744 N 0.93901 0.31882 0.43464 0.0
C745 C 0.94016 0.33414 0.3961 0.0
C746 C 0.92849 0.30704 0.36399 0.0
C747 C 0.67223 0.95204 0.33379 0.0
C748 C 0.70445 0.98044 0.33674 0.0
C749 C 0.63612 0.95779 0.35598 0.0
C750 C 0.63159 0.99222 0.38111 0.0
H751 H 0.67501 0.92551 0.31418 0.0
H752 H 0.61231 0.93473 0.35454 0.0
S753 S 0.70483 0.07746 0.39555 0.0
N754 N 0.72786 0.04578 0.36393 0.0
N755 N 0.66037 0.05597 0.40601 0.0
C756 C 0.66297 0.02125 0.3833 0.0
C757 C 0.69943 0.01549 0.36101 0.0
C758 C 0.07845 0.68563 0.37148 0.0
C759 C 0.0665 0.68541 0.33021 0.0
C760 C 0.06522 0.65517 0.39816 0.0
C761 C 0.04046 0.62275 0.38424 0.0
H762 H 0.09594 0.71093 0.38402 0.0
H763 H 0.0734 0.65779 0.43011 0.0
S764 S 1.01061 0.60058 0.27732 0.0
N765 N 0.03515 0.64454 0.27547 0.0
N766 N 1.01154 0.58727 0.32579 0.0
C767 C 0.03298 0.61895 0.3424 0.0
C768 C 0.04591 0.65014 0.31517 0.0
C769 C 0.30355 0.94217 0.36377 0.0
C770 C 0.3164 0.93105 0.32392 0.0
C771 C 0.33182 0.95358 0.39358 0.0
C772 C 0.37377 0.9521 0.38546 0.0
H773 H 0.27201 0.94823 0.37089 0.0
H774 H 0.32045 0.96651 0.42187 0.0
S775 S 0.4218 0.89895 0.29798 0.0
N776 N 0.37251 0.89921 0.28693 0.0
N777 N 0.42642 0.92264 0.34222 0.0
C778 C 0.3867 0.93159 0.35005 0.0
C779 C 0.35759 0.91935 0.31997 0.0
C780 C 0.04955 0.23054 0.36634 0.0
C781 C 0.04169 0.22046 0.32502 0.0
C782 C 0.05148 0.20049 0.39727 0.0
C783 C 0.04554 0.15867 0.38854 0.0
H784 H 0.0508 0.26236 0.37538 0.0
H785 H 0.0558 0.21047 0.42854 0.0
S786 S 0.02732 0.11583 0.28431 0.0
N787 N 0.03031 0.16557 0.27684 0.0
N788 N 0.03474 0.10899 0.33373 0.0
C789 C 0.04035 0.14805 0.34672 0.0
C790 C 0.03827 0.17882 0.31542 0.0
C791 C 0.842 0.04562 0.35619 0.0
C792 C 0.84629 0.01813 0.3231 0.0
C793 C 0.87196 0.04916 0.38708 0.0
C794 C 0.90803 0.02592 0.38595 0.0
H795 H 0.81388 0.06268 0.3596 0.0
H796 H 0.86644 0.06971 0.41244 0.0
S797 S 0.93486 0.94992 0.30595 0.0
N798 N 0.88978 0.96744 0.29137 0.0
N799 N 0.94678 0.97507 0.34814 0.0
C800 C 0.91364 0.99971 0.35207 0.0
C801 C 0.88273 0.99563 0.321 0.0
C802 C 1.00785 0.82828 0.36662 0.0
C803 C 0.02783 0.83161 0.32853 0.0
C804 C 1.00867 0.86011 0.39561 0.0
C805 C 0.02901 0.89726 0.38784 0.0
H806 H 0.99324 0.79979 0.37506 0.0
H807 H 0.99391 0.85511 0.42478 0.0
S808 S 0.08274 0.92346 0.29136 0.0
N809 N 0.06628 0.8763 0.28374 0.0
N810 N 0.06692 0.93659 0.33743 0.0
C811 C 0.04669 0.90216 0.34877 0.0
C812 C 0.04622 0.86937 0.31935 0.0
C813 C 0.23675 0.03218 0.36241 0.0
C814 C 0.22392 0.0297 0.32122 0.0
C815 C 0.20851 0.03505 0.39486 0.0
C816 C 0.16602 0.03587 0.38761 0.0
H817 H 0.26886 0.02856 0.36982 0.0
H818 H 0.22009 0.03442 0.42585 0.0
S819 S 0.11714 0.03579 0.28432 0.0
N820 N 0.16649 0.03157 0.27476 0.0
N821 N 0.11324 0.03892 0.33449 0.0
C822 C 0.15315 0.0367 0.34605 0.0
C823 C 0.18203 0.03318 0.31327 0.0
C824 C 1.00309 0.87083 0.71916 0.0
C825 C 0.02476 0.83391 0.71641 0.0
C826 C 1.00756 0.90145 0.68926 0.0
C827 C 0.03277 0.89568 0.65477 0.0
H828 H 0.98063 0.87497 0.74307 0.0
H829 H 0.9893 0.92888 0.69198 0.0
S830 S 0.09834 0.80573 0.63504 0.0
N831 N 0.07468 0.7947 0.67819 0.0
N832 N 0.08198 0.85144 0.62153 0.0
C833 C 0.05588 0.85969 0.65268 0.0
C834 C 0.0522 0.82911 0.68363 0.0
C835 C 0.22488 0.01546 0.69848 0.0
C836 C 0.21802 0.04621 0.72822 0.0
C837 C 0.19793 1.00913 0.66505 0.0
C838 C 0.16261 0.03308 0.65995 0.0
H839 H 0.25306 0.99815 0.69943 0.0
H840 H 0.20519 0.98581 0.64274 0.0
S841 S 0.13104 0.1185 0.72788 0.0
N842 N 0.17351 0.10131 0.74908 0.0
N843 N 0.12256 0.08909 0.6877 0.0
C844 C 0.15483 0.06311 0.69006 0.0
C845 C 0.18242 0.0697 0.7237 0.0
C846 C 0.01978 0.17222 0.73029 0.0
C847 C 0.02636 0.21416 0.72379 0.0
C848 C 0.02431 0.14349 0.69833 0.0
C849 C 0.03437 0.15551 0.65799 0.0
H850 H 1.00835 0.16183 0.75953 0.0
H851 H 0.01768 0.1118 0.70498 0.0
S852 S 0.0557 0.26218 0.62546 0.0
N853 N 0.0459 0.26604 0.67475 0.0
N854 N 0.0517 0.21312 0.61448 0.0
C855 C 0.04233 0.19735 0.65165 0.0
C856 C 0.0392 0.22623 0.6845 0.0
C857 C 0.85613 0.98485 0.69584 0.0
C858 C 0.8461 0.01956 0.7196 0.0
C859 C 0.88511 0.9867 0.66414 0.0
C860 C 0.9063 0.02299 0.6556 0.0
H861 H 0.83864 0.95693 0.69941 0.0
H862 H 0.8904 0.95973 0.64571 0.0
S863 S 0.89674 0.12071 0.71217 0.0
N864 N 0.86261 0.09045 0.73393 0.0
N865 N 0.91947 0.09293 0.67669 0.0
C866 C 0.89961 0.05677 0.68143 0.0
C867 C 0.86908 0.05528 0.71291 0.0
C868 C 0.33373 0.0304 0.17578 0.0
C869 C 0.34239 0.02618 0.21758 0.0
C870 C 0.36531 0.03428 0.14672 0.0
C871 C 0.40722 0.03369 0.15798 0.0
H872 H 0.30242 0.028 0.16512 0.0
H873 H 0.35654 0.03597 0.11485 0.0
S874 S 0.44581 0.02601 0.26463 0.0
N875 N 0.39558 0.02396 0.26932 0.0
N876 N 0.45479 0.03121 0.21527 0.0
C877 C 0.41606 0.03165 0.20015 0.0
C878 C 0.3838 0.02789 0.22968 0.0
C879 C 0.03885 0.37728 0.22595 0.0
C880 C 0.03438 0.33551 0.21576 0.0
C881 C 0.04229 0.40797 0.19576 0.0
C882 C 0.04125 0.3986 0.15369 0.0
H883 H 0.03727 0.38658 0.25769 0.0
H884 H 0.04416 0.43948 0.20561 0.0
S885 S 0.03072 0.29333 0.1108 0.0
N886 N 0.0297 0.28642 0.16073 0.0
N887 N 0.03672 0.34292 0.10399 0.0
C888 C 0.03834 0.35649 0.14323 0.0
C889 C 0.03477 0.3254 0.17412 0.0
C890 C 0.73904 0.98974 0.17058 0.0
C891 C 0.74207 0.01746 0.20344 0.0
C892 C 0.70696 0.99232 0.14173 0.0
C893 C 0.67566 0.02162 0.14558 0.0
H894 H 0.75968 0.96397 0.16902 0.0
H895 H 0.70536 0.96974 0.11757 0.0
S896 S 0.67184 0.10404 0.22308 0.0
N897 N 0.71319 0.07782 0.23519 0.0
N898 N 0.65234 0.08155 0.18218 0.0
C899 C 0.6797 0.05095 0.17664 0.0
C900 C 0.71308 0.04923 0.20506 0.0
C901 C 0.99753 0.6985 0.20875 0.0
C902 C 0.02349 0.73289 0.20461 0.0
C903 C 0.99689 0.66674 0.17957 0.0
C904 C 0.02038 0.66913 0.14375 0.0
H905 H 0.98097 0.694 0.23704 0.0
H906 H 0.97878 0.63969 0.18568 0.0
S907 S 0.08491 0.7578 0.11332 0.0
N908 N 0.06855 0.76992 0.15943 0.0
N909 N 0.0642 0.71298 0.10244 0.0
C910 C 0.04214 0.70595 0.13683 0.0
C911 C 0.04424 0.73726 0.16754 0.0
C912 C 0.34439 0.01887 0.85047 0.0
C913 C 0.32831 0.05827 0.84382 0.0
C914 C 0.37679 1.01224 0.87852 0.0
C915 C 0.39529 0.04483 0.8999 0.0
H916 H 0.33365 0.99349 0.83205 0.0
H917 H 0.38801 0.98155 0.88293 0.0
S918 S 0.36195 0.15278 0.89733 0.0
N919 N 0.33123 0.12951 0.8645 0.0
N920 N 0.39219 0.11699 0.91592 0.0
C921 C 0.37786 0.08368 0.89555 0.0
C922 C 0.34452 0.09037 0.86782 0.0
C923 C 1.00947 0.32063 0.87856 0.0
C924 C 0.02181 0.32348 0.83751 0.0
C925 C 0.01624 0.35299 0.90648 0.0
C926 C 0.03434 0.39038 0.89435 0.0
H927 H 0.99253 0.29405 0.88867 0.0
H928 H 1.00515 0.34936 0.93743 0.0
S929 S 0.07285 0.41277 0.79024 0.0
N930 N 0.05476 0.36582 0.78663 0.0
N931 N 0.06571 0.42707 0.83811 0.0
C932 C 0.04766 0.39309 0.85355 0.0
C933 C 0.04186 0.35965 0.82554 0.0
C934 C 0.70343 0.06686 0.8359 0.0
C935 C 0.73279 0.0354 0.83155 0.0
C936 C 0.67077 0.0638 0.86373 0.0
C937 C 0.66702 0.0301 0.88985 0.0
H938 H 0.70332 0.09212 0.81455 0.0
H939 H 0.64796 0.08768 0.86435 0.0
S940 S 0.73869 0.94263 0.89588 0.0
N941 N 0.7572 0.971 0.85848 0.0
N942 N 0.69815 0.96707 0.91333 0.0
C943 C 0.69818 1.00042 0.88872 0.0
C944 C 0.73061 1.00277 0.85927 0.0
C945 C 1.01096 0.72607 0.86225 0.0
C946 C 0.0297 0.72048 0.82411 0.0
C947 C 1.01436 0.69638 0.89313 0.0
C948 C 0.03555 0.65937 0.88662 0.0
H949 H 0.99115 0.75207 0.86722 0.0
H950 H 0.99826 0.70151 0.92153 0.0
S951 S 0.09407 0.63255 0.79355 0.0
N952 N 0.07389 0.67748 0.78306 0.0
N953 N 0.07916 0.62121 0.84037 0.0
C954 C 0.0565 0.65469 0.8495 0.0
C955 C 0.05395 0.68539 0.81857 0.0
C956 C 0.19065 0.33028 0.03374 0.0
C957 C 0.23168 0.33732 0.02314 0.0
C958 C 0.16237 0.36268 0.03678 0.0
C959 C 0.17349 0.4038 0.02876 0.0
H960 H 0.17963 0.29924 0.037 0.0
H961 H 0.13094 0.35493 0.0438 0.0
S962 S 0.27838 0.43868 1.00246 0.0
N963 N 0.28285 0.38872 1.00746 0.0
N964 N 0.22996 0.44921 1.01202 0.0
C965 C 0.21509 0.41136 0.0203 0.0
C966 C 0.24395 0.37834 0.01774 0.0
C967 C 0.18359 0.72935 0.06492 0.0
C968 C 0.21027 0.7417 0.03337 0.0
C969 C 0.15679 0.69586 0.06012 0.0
C970 C 0.15489 0.67351 0.02347 0.0
H971 H 0.18654 0.74298 0.09497 0.0
H972 H 0.1391 0.68586 0.08616 0.0
S973 S 0.21509 0.6948 0.93016 0.0
N974 N 0.23109 0.72958 0.96324 0.0
N975 N 0.17949 0.66798 0.95391 0.0
C976 C 0.17925 0.68693 0.99082 0.0
C977 C 0.20683 0.72088 0.99573 0.0
C978 C 0.329 0.17327 0.01888 0.0
C979 C 0.33318 0.21546 0.0255 0.0
C980 C 0.36259 0.14668 0.02166 0.0
C981 C 0.40268 0.16073 0.03068 0.0
H982 H 0.29989 0.161 1.00868 0.0
H983 H 0.35699 0.11483 1.01462 0.0
S984 S 0.42968 0.26849 0.05398 0.0
N985 N 0.3801 0.27001 0.04412 0.0
N986 N 0.44339 0.22018 0.04926 0.0
C987 C 0.40699 0.20274 0.0393 0.0
C988 C 0.37235 0.2299 0.03684 0.0
C989 C 0.88617 0.32624 0.04896 0.0
C990 C 0.85026 0.3271 0.02512 0.0
C991 C 0.91688 0.3564 0.04472 0.0
C992 C 0.91234 0.38934 0.0173 0.0
H993 H 0.88926 0.30379 0.07302 0.0
H994 H 0.94312 0.35532 0.06497 0.0
S995 S 0.82622 0.40312 0.94468 0.0
N996 N 0.814 0.36147 0.97036 0.0
N997 N 0.8708 0.41837 0.96311 0.0
C998 C 0.87771 0.38915 0.9917 0.0
C999 C 0.84701 0.35802 0.99541 0.0
C1000 C 0.71008 0.85049 0.97265 0.0
C1001 C 0.72822 0.83391 1.00811 0.0
C1002 C 0.67963 0.88077 0.975 0.0
C1003 C 0.66618 0.89575 1.01289 0.0
H1004 H 0.71702 0.83746 0.94302 0.0
H1005 H 0.66551 0.8915 0.94706 0.0
S1006 S 0.70562 0.86541 0.11453 0.0
N1007 N 0.73163 0.83679 0.08212 0.0
N1008 N 0.6753 0.89432 0.08639 0.0
C1009 C 0.68571 0.8815 0.04834 0.0
C1010 C 0.71659 0.85057 0.04598 0.0
C1011 C 0.83886 0.68767 0.05193 0.0
C1012 C 0.83377 0.71619 0.01994 0.0
C1013 C 0.86989 0.65797 0.05101 0.0
C1014 C 0.89773 0.65605 0.01848 0.0
H1015 H 0.81676 0.6865 0.07652 0.0
H1016 H 0.87175 0.63603 0.07567 0.0
S1017 S 0.89952 0.72448 0.92827 0.0
N1018 N 0.86025 0.74089 0.95538 0.0
N1019 N 0.91968 0.68644 0.95452 0.0
C1020 C 0.89458 0.68574 0.98752 0.0
C1021 C 0.86247 0.71553 0.98809 0.0
C1022 C 0.33328 0.87702 0.05072 0.0
C1023 C 0.33424 0.84155 0.02635 0.0
C1024 C 0.3642 0.90721 0.04791 0.0
C1025 C 0.39795 0.90267 0.02137 0.0
H1026 H 0.30998 0.88022 0.07396 0.0
H1027 H 0.3628 0.93326 0.0683 0.0
S1028 S 0.41252 0.81771 0.94777 0.0
N1029 N 0.36985 0.80578 0.97199 0.0
N1030 N 0.42802 0.86157 0.96752 0.0
C1031 C 0.39808 0.86841 0.99541 0.0
C1032 C 0.36625 0.83825 0.99764 0.0
C1033 C 0.74324 0.176 0.04219 0.0
C1034 C 0.73823 0.21545 0.02601 0.0
C1035 C 0.71202 0.14615 0.03862 0.0
C1036 C 0.67377 0.15514 0.02041 0.0
H1037 H 0.77025 0.16901 0.06006 0.0
H1038 H 0.71696 0.11661 0.05257 0.0
S1039 S 0.64578 0.25389 0.97244 0.0
N1040 N 0.69333 0.26066 0.98811 0.0
N1041 N 0.63366 0.20667 0.98528 0.0
C1042 C 0.66903 0.19412 1.00311 0.0
C1043 C 0.70151 0.2235 1.00467 0.0
C1044 C 0.52075 0.69453 0.85178 0.0
C1045 C 0.49245 0.69388 0.81901 0.0
C1046 C 0.52189 0.66341 0.88146 0.0
C1047 C 0.49536 0.62962 0.87935 0.0
H1048 H 0.54049 0.72085 0.856 0.0
H1049 H 0.54338 0.66612 0.90657 0.0
S1050 S 0.41621 0.61215 0.79957 0.0
N1051 N 0.43741 0.65609 0.78651 0.0
N1052 N 0.44084 0.59658 0.84084 0.0
C1053 C 0.46828 0.62743 0.84571 0.0
C1054 C 0.46653 0.65969 0.81594 0.0
C1055 C 0.30132 0.51078 0.84933 0.0
C1056 C 0.31273 0.51454 0.80785 0.0
C1057 C 0.33035 0.50499 0.88052 0.0
C1058 C 0.37227 0.50086 0.87189 0.0
H1059 H 0.26978 0.51571 0.85814 0.0
H1060 H 0.31966 0.50482 0.91182 0.0
S1061 S 0.41751 0.50181 0.76738 0.0
N1062 N 0.36836 0.51034 0.75946 0.0
N1063 N 0.4229 0.49624 0.81724 0.0
C1064 C 0.3837 0.50103 0.83002 0.0
C1065 C 0.35399 0.50829 0.7983 0.0
C1066 C 0.52988 0.35544 0.79997 0.0
C1067 C 0.51612 0.3148 0.80275 0.0
C1068 C 0.52576 0.38294 0.83299 0.0
C1069 C 0.50917 0.37062 0.87092 0.0
H1070 H 0.54634 0.36532 0.77304 0.0
H1071 H 0.53775 0.41359 0.82939 0.0
S1072 S 0.4671 0.26779 0.89349 0.0
N1073 N 0.48277 0.26448 0.84569 0.0
N1074 N 0.47716 0.31507 0.90811 0.0
C1075 C 0.49413 0.33045 0.87358 0.0
C1076 C 0.49696 0.30298 0.83948 0.0
C1077 C 0.66108 0.52531 0.81516 0.0
C1078 C 0.69709 0.50232 0.81958 0.0
C1079 C 0.62935 0.5229 0.84431 0.0
C1080 C 0.63295 0.49825 0.87952 0.0
H1081 H 0.65849 0.54716 0.79049 0.0
H1082 H 0.60275 0.54215 0.84032 0.0
S1083 S 0.71904 0.42852 0.90272 0.0
N1084 N 0.73249 0.45093 0.85963 0.0
N1085 N 0.67387 0.4475 0.91468 0.0
C1086 C 0.66784 0.47358 0.88302 0.0
C1087 C 0.69952 0.47526 0.85297 0.0
C1088 C 0.50474 0.29123 0.16326 0.0
C1089 C 0.50506 0.30251 0.20496 0.0
C1090 C 0.49955 0.32025 0.13194 0.0
C1091 C 0.49427 0.362 0.14083 0.0
H1092 H 0.51177 0.26004 0.15468 0.0
H1093 H 0.50207 0.31011 0.10056 0.0
S1094 S 0.48812 0.40651 0.24568 0.0
N1095 N 0.49667 0.3575 0.25353 0.0
N1096 N 0.48541 0.41207 0.19564 0.0
C1097 C 0.49148 0.37307 0.18274 0.0
C1098 C 0.49712 0.3434 0.21447 0.0
C1099 C 0.6568 0.47769 0.21003 0.0
C1100 C 0.68911 0.50625 0.20857 0.0
C1101 C 0.62553 0.47724 0.18 0.0
C1102 C 0.62592 0.50461 0.14667 0.0
H1103 H 0.65714 0.45387 0.23293 0.0
H1104 H 0.60216 0.45377 0.18163 0.0
S1105 S 0.70075 0.5885 0.13137 0.0
N1106 N 0.71675 0.56536 0.17324 0.0
N1107 N 0.65924 0.56361 0.11662 0.0
C1108 C 0.65672 0.53464 0.14619 0.0
C1109 C 0.68783 0.53573 0.17716 0.0
C1110 C 0.5222 0.68398 0.17762 0.0
C1111 C 0.49342 0.6836 0.20983 0.0
C1112 C 0.52259 0.65361 0.14723 0.0
C1113 C 0.49532 0.62047 0.14818 0.0
H1114 H 0.54247 0.70996 0.174 0.0
H1115 H 0.544 0.65651 0.12231 0.0
S1116 S 0.41886 0.60055 0.22965 0.0
N1117 N 0.43953 0.64482 0.24279 0.0
N1118 N 0.44235 0.586 0.1874 0.0
C1119 C 0.46907 0.6174 0.18232 0.0
C1120 C 0.46772 0.64924 0.21272 0.0
C1121 C 0.34945 0.48818 0.21489 0.0
C1122 C 0.30712 0.48976 0.20749 0.0
C1123 C 0.37782 0.48419 0.18261 0.0
C1124 C 0.36543 0.48243 0.14103 0.0
H1125 H 0.36094 0.49305 0.24559 0.0
H1126 H 0.41 0.48463 0.1905 0.0
S1127 S 0.25734 0.48418 0.10565 0.0
N1128 N 0.25396 0.48744 0.15583 0.0
N1129 N 0.30665 0.48075 0.09534 0.0
C1130 C 0.3229 0.482 0.13354 0.0
C1131 C 0.29408 0.48544 0.16657 0.0
C1132 C 0.8027 0.53695 0.66893 0.0
C1133 C 0.79903 0.50656 0.69909 0.0
C1134 C 0.83419 0.53569 0.63962 0.0
C1135 C 0.86409 0.50476 0.64023 0.0
H1136 H 0.78322 0.56363 0.67012 0.0
H1137 H 0.83653 0.56039 0.61777 0.0
S1138 S 0.86563 0.41558 0.70958 0.0
N1139 N 0.82563 0.44234 0.72468 0.0
N1140 N 0.88547 0.44085 0.6707 0.0
C1141 C 0.85937 0.47297 0.66848 0.0
C1142 C 0.82659 0.47355 0.69741 0.0
C1143 C 0.47467 0.80225 0.67003 0.0
C1144 C 0.50203 0.8023 0.70335 0.0
C1145 C 0.47698 0.83231 0.63912 0.0
C1146 C 0.5057 0.86459 0.64113 0.0
H1147 H 0.44941 0.78078 0.66947 0.0
H1148 H 0.45451 0.83169 0.61474 0.0
S1149 S 0.58673 0.87653 0.71954 0.0
N1150 N 0.5615 0.83518 0.73376 0.0
N1151 N 0.5643 0.89238 0.67719 0.0
C1152 C 0.53455 0.86366 0.67288 0.0
C1153 C 0.53324 0.83228 0.70335 0.0
C1154 C 0.19496 0.55189 0.65802 0.0
C1155 C 0.20522 0.52601 0.69094 0.0
C1156 C 0.16142 0.54367 0.63208 0.0
C1157 C 0.13571 0.50964 0.63818 0.0
H1158 H 0.21206 0.57987 0.65334 0.0
H1159 H 0.15479 0.56497 0.60765 0.0
S1160 S 0.15163 0.42917 0.71607 0.0
N1161 N 0.18868 0.46239 0.72534 0.0
N1162 N 0.12536 0.44747 0.677 0.0
C1163 C 0.14653 0.48238 0.66958 0.0
C1164 C 0.18133 0.49034 0.69566 0.0
C1165 C 0.5036 0.15717 0.70795 0.0
C1166 C 0.51407 0.19757 0.6969 0.0
C1167 C 0.49712 0.12635 0.67853 0.0
C1168 C 0.50039 0.13438 0.6364 0.0
H1169 H 0.50295 0.14865 0.73992 0.0
H1170 H 0.49089 0.09566 0.6891 0.0
S1171 S 0.5219 0.23662 0.59114 0.0
N1172 N 0.524 0.24468 0.64092 0.0
N1173 N 0.51067 0.18774 0.58535 0.0
C1174 C 0.50776 0.17554 0.6249 0.0
C1175 C 0.5148 0.20682 0.6551 0.0
C1176 C 0.80065 0.46913 0.35741 0.0
C1177 C 0.79148 0.50181 0.33097 0.0
C1178 C 0.83424 0.47082 0.38451 0.0
C1179 C 0.86091 0.50472 0.38554 0.0
H1180 H 0.78401 0.44061 0.35447 0.0
H1181 H 0.84058 0.44449 0.40345 0.0
S1182 S 0.84717 0.6008 0.32776 0.0
N1183 N 0.8091 0.57135 0.31199 0.0
N1184 N 0.87282 0.57374 0.36176 0.0
C1185 C 0.85054 0.53868 0.36166 0.0
C1186 C 0.81559 0.53749 0.335 0.0
C1187 C 0.5286 0.81383 0.33281 0.0
C1188 C 0.49149 0.79237 0.32647 0.0
C1189 C 0.53166 0.84634 0.36113 0.0
C1190 C 0.49783 0.85852 0.38459 0.0
H1191 H 0.55446 0.80783 0.31307 0.0
H1192 H 0.56034 0.86278 0.36384 0.0
S1193 S 0.39435 0.8121 0.3813 0.0
N1194 N 0.42062 0.78579 0.3472 0.0
N1195 N 0.42687 0.84519 0.4015 0.0
C1196 C 0.46145 0.83579 0.3806 0.0
C1197 C 0.45817 0.80318 0.35139 0.0
C1198 C 0.20533 0.50027 0.3655 0.0
C1199 C 0.19894 0.49655 0.32316 0.0
C1200 C 0.17283 0.49616 0.39365 0.0
C1201 C 0.13186 0.48908 0.38097 0.0
H1202 H 0.23533 0.50869 0.37689 0.0
H1203 H 0.17988 0.50056 0.4257 0.0
S1204 S 0.09901 0.47633 0.2729 0.0
N1205 N 0.1488 0.48432 0.26982 0.0
N1206 N 0.08787 0.47709 0.32209 0.0
C1207 C 0.12542 0.48404 0.33858 0.0
C1208 C 0.15873 0.48771 0.31001 0.0
C1209 C 0.49311 0.16405 0.31234 0.0
C1210 C 0.5125 0.2006 0.32507 0.0
C1211 C 0.48848 0.1303 0.33906 0.0
C1212 C 0.50318 0.13174 0.37958 0.0
H1213 H 0.48364 0.16063 0.28078 0.0
H1214 H 0.4739 0.10278 0.32771 0.0
S1215 S 0.55807 0.22004 0.42698 0.0
N1216 N 0.54691 0.23572 0.38041 0.0
N1217 N 0.53912 0.17344 0.43025 0.0
C1218 C 0.52214 0.1686 0.39255 0.0
C1219 C 0.52649 0.20263 0.36552 0.0
C1220 C 0.7039 0.84819 0.53185 0.0
C1221 C 0.70369 0.81478 0.50445 0.0
C1222 C 0.67118 0.87585 0.53378 0.0
C1223 C 0.63628 0.87078 0.50917 0.0
H1224 H 0.73096 0.85458 0.54998 0.0
H1225 H 0.67363 0.90191 0.5541 0.0
S1226 S 0.61863 0.78679 0.43475 0.0
N1227 N 0.66459 0.77736 0.45359 0.0
N1228 N 0.60218 0.82816 0.45848 0.0
C1229 C 0.63434 0.836 0.4837 0.0
C1230 C 0.66815 0.80823 0.48114 0.0
C1231 C 0.67814 0.17972 0.47777 0.0
C1232 C 0.68296 0.20407 0.51316 0.0
C1233 C 0.64924 0.14749 0.47589 0.0
C1234 C 0.62413 0.13788 0.50943 0.0
H1235 H 0.69845 0.18423 0.45206 0.0
H1236 H 0.64695 0.12958 0.4482 0.0
S1237 S 0.62502 0.191 0.60959 0.0
N1238 N 0.6601 0.21539 0.58269 0.0
N1239 N 0.60573 0.15568 0.57894 0.0
C1240 C 0.62773 0.16263 0.54449 0.0
C1241 C 0.65717 0.19532 0.54644 0.0
C1242 C 0.8445 0.70143 0.5295 0.0
C1243 C 0.81202 0.70057 0.50089 0.0
C1244 C 0.87413 0.67046 0.5309 0.0
C1245 C 0.87186 0.63665 0.5046 0.0
H1246 H 0.84892 0.7281 0.54869 0.0
H1247 H 0.89932 0.67331 0.55231 0.0
S1248 S 0.79068 0.61709 0.42742 0.0
N1249 N 0.77835 0.66178 0.44736 0.0
N1250 N 0.83236 0.60208 0.45173 0.0
C1251 C 0.83787 0.63374 0.47807 0.0
C1252 C 0.80831 0.66595 0.47587 0.0
C1253 C 0.3074 0.83137 0.53248 0.0
C1254 C 0.3162 0.7933 0.51401 0.0
C1255 C 0.33677 0.8628 0.53512 0.0
C1256 C 0.37681 0.85733 0.52052 0.0
H1257 H 0.27624 0.83831 0.54133 0.0
H1258 H 0.32744 0.89212 0.54723 0.0
S1259 S 0.41776 0.76032 0.47715 0.0
N1260 N 0.36896 0.75032 0.48551 0.0
N1261 N 0.42515 0.80782 0.49259 0.0
C1262 C 0.38715 0.81777 0.506 0.0
C1263 C 0.35674 0.78616 0.50239 0.0
C1264 C 0.15379 0.29312 0.51279 0.0
C1265 C 0.19464 0.30571 0.51985 0.0
C1266 C 0.1211 0.32157 0.51017 0.0
C1267 C 0.12768 0.36397 0.51518 0.0
H1268 H 0.14672 0.2608 0.51131 0.0
H1269 H 0.09039 0.31011 0.50521 0.0
S1270 S 0.22947 0.41203 0.53678 0.0
N1271 N 0.23955 0.36289 0.53282 0.0
N1272 N 0.17986 0.41616 0.52867 0.0
C1273 C 0.1689 0.37659 0.522 0.0
C1274 C 0.20175 0.34767 0.5242 0.0
C1275 C 0.34942 0.20047 0.51006 0.0
C1276 C 0.30698 0.19357 0.50924 0.0
C1277 C 0.37761 0.16827 0.50565 0.0
C1278 C 0.36501 0.12704 0.50097 0.0
H1279 H 0.36101 0.23071 0.51708 0.0
H1280 H 0.40975 0.17592 0.50817 0.0
S1281 S 0.25672 0.09304 0.49315 0.0
N1282 N 0.25348 0.14285 0.50049 0.0
N1283 N 0.30607 0.0823 0.49232 0.0
C1284 C 0.32247 0.12005 0.49785 0.0
C1285 C 0.29372 0.15315 0.502 0.0
C1286 C 0.79375 0.35387 0.55192 0.0
C1287 C 0.78093 0.33093 0.51751 0.0
C1288 C 0.82871 0.37929 0.55068 0.0
C1289 C 0.85241 0.38293 0.51501 0.0
H1290 H 0.7795 0.34842 0.58127 0.0
H1291 H 0.83837 0.39471 0.57841 0.0
S1292 S 0.82697 0.33785 0.4142 0.0
N1293 N 0.79145 0.31948 0.44503 0.0
N1294 N 0.85623 0.36783 0.44262 0.0
C1295 C 0.83751 0.36402 0.4794 0.0
C1296 C 0.80182 0.33833 0.48058 0.0
C1297 C 0.20395 0.64613 0.48308 0.0
C1298 C 0.20404 0.68164 0.50745 0.0
C1299 C 0.17273 0.61639 0.48651 0.0
C1300 C 0.13951 0.62159 0.5135 0.0
H1301 H 0.22671 0.64258 0.45936 0.0
H1302 H 0.17334 0.59034 0.46607 0.0
S1303 S 0.12725 0.70722 0.58669 0.0
N1304 N 0.1698 0.71836 0.56191 0.0
N1305 N 0.11083 0.66344 0.56751 0.0
C1306 C 0.14034 0.65594 0.53936 0.0
C1307 C 0.1726 0.68562 0.53655 0.0
loop_
_geom_bond_atom_site_label_1
_geom_bond_atom_site_label_2
_geom_bond_distance
_geom_bond_site_symmetry_2
_ccdc_geom_bond_type
H0 C3 0.931 1_655 S
H1 C6 0.928 . S
H2 C8 0.931 . S
C3 H0 0.931 1_455 S
C3 C4 1.413 . S
C3 C5 1.360 . S
C4 C3 1.413 . S
C4 C8 1.429 . S
C5 C3 1.360 . S
C5 C6 1.372 1_455 S
C6 H1 0.928 . S
C6 C5 1.372 1_655 S
C6 C7 1.404 1_655 S
C7 C6 1.404 1_455 S
C7 C8 1.390 . S
C8 H2 0.931 . S
C8 C4 1.429 . S
C8 C7 1.390 . S
H9 C12 0.931 . S
H10 C15 0.928 . S
H11 C17 0.930 . S
C12 H9 0.931 . S
C12 C13 1.413 . S
C12 C14 1.360 . S
C13 C12 1.413 . S
C13 C17 1.429 1_545 S
C14 C12 1.360 . S
C14 C15 1.373 . S
C15 H10 0.928 . S
C15 C14 1.373 . S
C15 C16 1.405 . S
C16 C15 1.405 . S
C16 C17 1.390 1_545 S
C17 H11 0.930 . S
C17 C13 1.429 1_565 S
C17 C16 1.390 1_565 S
H18 C21 0.931 . S
H19 C24 0.928 . S
H20 C26 0.930 1_655 S
C21 H18 0.931 . S
C21 C22 1.414 . S
C21 C23 1.360 . S
C22 C21 1.414 . S
C22 C26 1.429 . S
C23 C21 1.360 . S
C23 C24 1.372 . S
C24 H19 0.928 . S
C24 C23 1.372 . S
C24 C25 1.404 . S
C25 C24 1.404 . S
C25 C26 1.391 . S
C26 H20 0.930 1_455 S
C26 C22 1.429 . S
C26 C25 1.391 . S
H27 C30 0.931 . S
H28 C33 0.928 . S
H29 C35 0.930 . S
C30 H27 0.931 . S
C30 C31 1.413 . S
C30 C32 1.360 . S
C31 C30 1.413 . S
C31 C35 1.429 1_545 S
C32 C30 1.360 . S
C32 C33 1.373 . S
C33 H28 0.928 . S
C33 C32 1.373 . S
C33 C34 1.405 . S
C34 C33 1.405 . S
C34 C35 1.390 1_545 S
C35 H29 0.930 . S
C35 C31 1.429 1_565 S
C35 C34 1.390 1_565 S
H36 C39 0.931 1_655 S
H37 C42 0.928 . S
H38 C44 0.931 . S
C39 H36 0.931 1_455 S
C39 C40 1.413 . S
C39 C41 1.360 . S
C40 C39 1.413 . S
C40 C44 1.429 . S
C41 C39 1.360 . S
C41 C42 1.372 1_455 S
C42 H37 0.928 . S
C42 C41 1.372 1_655 S
C42 C43 1.404 1_655 S
C43 C42 1.404 1_455 S
C43 C44 1.390 . S
C44 H38 0.931 . S
C44 C40 1.429 . S
C44 C43 1.390 . S
H45 C48 0.931 . S
H46 C51 0.928 . S
H47 C53 0.931 . S
C48 H45 0.931 . S
C48 C49 1.413 . S
C48 C50 1.360 . S
C49 C48 1.413 . S
C49 C53 1.429 1_565 S
C50 C48 1.360 . S
C50 C51 1.372 . S
C51 H46 0.928 . S
C51 C50 1.372 . S
C51 C52 1.404 . S
C52 C51 1.404 . S
C52 C53 1.390 1_565 S
C53 H47 0.931 . S
C53 C49 1.429 1_545 S
C53 C52 1.390 1_545 S
H54 C57 0.931 1_655 S
H55 C60 0.928 . S
H56 C62 0.931 . S
C57 H54 0.931 1_455 S
C57 C58 1.413 . S
C57 C59 1.360 . S
C58 C57 1.413 . S
C58 C62 1.429 . S
C59 C57 1.360 . S
C59 C60 1.372 1_455 S
C60 H55 0.928 . S
C60 C59 1.372 1_655 S
C60 C61 1.404 1_655 S
C61 C60 1.404 1_455 S
C61 C62 1.390 . S
C62 H56 0.931 . S
C62 C58 1.429 . S
C62 C61 1.390 . S
H63 C66 0.931 . S
H64 C69 0.928 . S
H65 C71 0.931 . S
C66 H63 0.931 . S
C66 C67 1.413 . S
C66 C68 1.360 . S
C67 C66 1.413 . S
C67 C71 1.429 1_565 S
C68 C66 1.360 . S
C68 C69 1.372 . S
C69 H64 0.928 . S
C69 C68 1.372 . S
C69 C70 1.404 . S
C70 C69 1.404 . S
C70 C71 1.390 1_565 S
C71 H65 0.931 . S
C71 C67 1.429 1_545 S
C71 C70 1.390 1_545 S
H72 C75 0.931 . S
H73 C78 0.928 . S
H74 C80 0.931 . S
C75 H72 0.931 . S
C75 C76 1.413 . S
C75 C77 1.360 . S
C76 C75 1.413 . S
C76 C80 1.429 1_556 S
C77 C75 1.360 . S
C77 C78 1.372 . S
C78 H73 0.928 . S
C78 C77 1.372 . S
C78 C79 1.404 . S
C79 C78 1.404 . S
C79 C80 1.390 1_556 S
C80 H74 0.931 . S
C80 C76 1.429 1_554 S
C80 C79 1.390 1_554 S
H81 C84 0.931 . S
H82 C87 0.928 . S
H83 C89 0.931 . S
C84 H81 0.931 . S
C84 C85 1.413 . S
C84 C86 1.360 . S
C85 C84 1.413 . S
C85 C89 1.429 1_556 S
C86 C84 1.360 . S
C86 C87 1.372 . S
C87 H82 0.928 . S
C87 C86 1.372 . S
C87 C88 1.404 . S
C88 C87 1.404 . S
C88 C89 1.390 1_556 S
C89 H83 0.931 . S
C89 C85 1.429 1_554 S
C89 C88 1.390 1_554 S
H90 C93 0.931 . S
H91 C96 0.928 . S
H92 C98 0.931 . S
C93 H90 0.931 . S
C93 C94 1.413 . S
C93 C95 1.360 . S
C94 C93 1.413 . S
C94 C98 1.429 1_556 S
C95 C93 1.360 . S
C95 C96 1.372 . S
C96 H91 0.928 . S
C96 C95 1.372 . S
C96 C97 1.404 . S
C97 C96 1.404 . S
C97 C98 1.390 1_556 S
C98 H92 0.931 . S
C98 C94 1.429 1_554 S
C98 C97 1.390 1_554 S
H99 C102 0.931 . S
H100 C105 0.928 . S
H101 C107 0.930 . S
C102 H99 0.931 . S
C102 C103 1.413 . S
C102 C104 1.360 . S
C103 C102 1.413 . S
C103 C107 1.429 1_554 S
C104 C102 1.360 . S
C104 C105 1.373 . S
C105 H100 0.928 . S
C105 C104 1.373 . S
C105 C106 1.405 . S
C106 C105 1.405 . S
C106 C107 1.390 1_554 S
C107 H101 0.930 . S
C107 C103 1.429 1_556 S
C107 C106 1.390 1_556 S
H108 C111 0.931 . S
H109 C114 0.928 . S
H110 C116 0.930 . S
C111 H108 0.931 . S
C111 C112 1.413 . S
C111 C113 1.360 . S
C112 C111 1.413 . S
C112 C116 1.429 . S
C113 C111 1.360 . S
C113 C114 1.372 . S
C114 H109 0.928 . S
C114 C113 1.372 . S
C114 C115 1.404 . S
C115 C114 1.404 . S
C115 C116 1.391 . S
C116 H110 0.930 . S
C116 C112 1.429 . S
C116 C115 1.391 . S
H117 C120 0.931 . S
H118 C123 0.928 . S
H119 C125 0.930 . S
C120 H117 0.931 . S
C120 C121 1.413 . S
C120 C122 1.360 . S
C121 C120 1.413 . S
C121 C125 1.429 . S
C122 C120 1.360 . S
C122 C123 1.372 . S
C123 H118 0.928 . S
C123 C122 1.372 . S
C123 C124 1.404 . S
C124 C123 1.404 . S
C124 C125 1.391 . S
C125 H119 0.930 . S
C125 C121 1.429 . S
C125 C124 1.391 . S
H126 C129 0.931 . S
H127 C132 0.928 . S
H128 C134 0.930 . S
C129 H126 0.931 . S
C129 C130 1.413 . S
C129 C131 1.360 . S
C130 C129 1.413 . S
C130 C134 1.429 . S
C131 C129 1.360 . S
C131 C132 1.372 . S
C132 H127 0.928 . S
C132 C131 1.372 . S
C132 C133 1.404 . S
C133 C132 1.404 . S
C133 C134 1.391 . S
C134 H128 0.930 . S
C134 C130 1.429 . S
C134 C133 1.391 . S
H135 C138 0.931 . S
H136 C141 0.928 . S
H137 C143 0.930 . S
C138 H135 0.931 . S
C138 C139 1.413 . S
C138 C140 1.360 . S
C139 C138 1.413 . S
C139 C143 1.429 . S
C140 C138 1.360 . S
C140 C141 1.372 . S
C141 H136 0.928 . S
C141 C140 1.372 . S
C141 C142 1.404 . S
C142 C141 1.404 . S
C142 C143 1.391 . S
C143 H137 0.930 . S
C143 C139 1.429 . S
C143 C142 1.391 . S
H144 C147 0.931 . S
H145 C150 0.928 . S
H146 C152 0.930 . S
C147 H144 0.931 . S
C147 C148 1.413 . S
C147 C149 1.360 . S
C148 C147 1.413 . S
C148 C152 1.429 . S
C149 C147 1.360 . S
C149 C150 1.372 . S
C150 H145 0.928 . S
C150 C149 1.372 . S
C150 C151 1.404 . S
C151 C150 1.404 . S
C151 C152 1.391 . S
C152 H146 0.930 . S
C152 C148 1.429 . S
C152 C151 1.391 . S
H153 C156 0.931 . S
H154 C159 0.928 . S
H155 C161 0.930 . S
C156 H153 0.931 . S
C156 C157 1.413 . S
C156 C158 1.360 . S
C157 C156 1.413 . S
C157 C161 1.429 . S
C158 C156 1.360 . S
C158 C159 1.372 . S
C159 H154 0.928 . S
C159 C158 1.372 . S
C159 C160 1.404 . S
C160 C159 1.404 . S
C160 C161 1.391 . S
C161 H155 0.930 . S
C161 C157 1.429 . S
C161 C160 1.391 . S
H162 C165 0.931 . S
H163 C168 0.928 . S
H164 C170 0.930 . S
C165 H162 0.931 . S
C165 C166 1.413 . S
C165 C167 1.360 . S
C166 C165 1.413 . S
C166 C170 1.429 . S
C167 C165 1.360 . S
C167 C168 1.372 . S
C168 H163 0.928 . S
C168 C167 1.372 . S
C168 C169 1.404 . S
C169 C168 1.404 . S
C169 C170 1.391 . S
C170 H164 0.930 . S
C170 C166 1.429 . S
C170 C169 1.391 . S
H171 C174 0.931 . S
H172 C177 0.928 . S
H173 C179 0.930 . S
C174 H171 0.931 . S
C174 C175 1.413 . S
C174 C176 1.360 . S
C175 C174 1.413 . S
C175 C179 1.429 . S
C176 C174 1.360 . S
C176 C177 1.372 . S
C177 H172 0.928 . S
C177 C176 1.372 . S
C177 C178 1.404 . S
C178 C177 1.404 . S
C178 C179 1.391 . S
C179 H173 0.930 . S
C179 C175 1.429 . S
C179 C178 1.391 . S
H180 C183 0.931 . S
H181 C186 0.928 . S
H182 C188 0.930 . S
C183 H180 0.931 . S
C183 C184 1.413 . S
C183 C185 1.360 . S
C184 C183 1.413 . S
C184 C188 1.429 . S
C185 C183 1.360 . S
C185 C186 1.372 . S
C186 H181 0.928 . S
C186 C185 1.372 . S
C186 C187 1.404 . S
C187 C186 1.404 . S
C187 C188 1.391 . S
C188 H182 0.930 . S
C188 C184 1.429 . S
C188 C187 1.391 . S
H189 C192 0.931 . S
H190 C195 0.928 . S
H191 C197 0.930 . S
C192 H189 0.931 . S
C192 C193 1.413 . S
C192 C194 1.360 . S
C193 C192 1.413 . S
C193 C197 1.429 . S
C194 C192 1.360 . S
C194 C195 1.372 . S
C195 H190 0.928 . S
C195 C194 1.372 . S
C195 C196 1.404 . S
C196 C195 1.404 . S
C196 C197 1.391 . S
C197 H191 0.930 . S
C197 C193 1.429 . S
C197 C196 1.391 . S
H198 C201 0.931 . S
H199 C204 0.928 . S
H200 C206 0.930 . S
C201 H198 0.931 . S
C201 C202 1.413 . S
C201 C203 1.360 . S
C202 C201 1.413 . S
C202 C206 1.429 . S
C203 C201 1.360 . S
C203 C204 1.372 . S
C204 H199 0.928 . S
C204 C203 1.372 . S
C204 C205 1.404 . S
C205 C204 1.404 . S
C205 C206 1.391 . S
C206 H200 0.930 . S
C206 C202 1.429 . S
C206 C205 1.391 . S
H207 C210 0.931 . S
H208 C213 0.928 . S
H209 C215 0.930 . S
C210 H207 0.931 . S
C210 C211 1.413 . S
C210 C212 1.360 . S
C211 C210 1.413 . S
C211 C215 1.429 . S
C212 C210 1.360 . S
C212 C213 1.372 . S
C213 H208 0.928 . S
C213 C212 1.372 . S
C213 C214 1.404 . S
C214 C213 1.404 . S
C214 C215 1.391 . S
C215 H209 0.930 . S
C215 C211 1.429 . S
C215 C214 1.391 . S
C216 O242 1.283 . S
C216 O260 1.283 . S
C217 O243 1.283 . S
C217 O258 1.283 . S
C218 O244 1.283 . S
C218 O261 1.283 . S
C219 O245 1.283 . S
C219 O259 1.283 . S
C220 O246 1.283 . S
C220 O255 1.283 . S
C221 O247 1.283 . S
C221 O257 1.283 . S
C222 O248 1.283 . S
C222 O254 1.283 . S
C223 O249 1.283 . S
C223 O256 1.283 . S
C224 O250 1.283 . S
C224 O265 1.283 . S
C225 O251 1.283 . S
C225 O263 1.283 . S
C226 O252 1.283 . S
C226 O264 1.283 . S
C227 O253 1.283 . S
C227 O262 1.283 . S
Eu228 O229 2.359 1_455 S
Eu228 O230 2.381 . S
Eu228 O233 2.359 1_455 S
Eu228 O234 2.381 . S
Eu228 O242 2.363 . S
Eu228 O243 2.363 . S
Eu228 O256 2.382 . S
Eu228 O257 2.344 1_455 S
O229 Eu228 2.359 1_655 S
O229 Eu231 2.368 1_565 S
O229 Eu236 2.356 1_665 S
O230 Eu228 2.381 . S
O230 Eu232 2.368 1_565 S
O230 Eu235 2.379 1_565 S
Eu231 O229 2.368 1_545 S
Eu231 O233 2.368 1_545 S
Eu231 O237 2.373 . S
Eu231 O238 2.373 . S
Eu231 O246 2.367 . S
Eu231 O247 2.359 1_545 S
Eu231 O262 2.363 . S
Eu231 O263 2.363 . S
Eu232 O230 2.368 1_545 S
Eu232 O234 2.368 1_545 S
Eu232 O239 2.372 . S
Eu232 O240 2.372 . S
Eu232 O248 2.367 . S
Eu232 O249 2.359 1_545 S
Eu232 O264 2.363 . S
Eu232 O265 2.363 . S
O233 Eu228 2.359 1_655 S
O233 Eu231 2.368 1_565 S
O233 Eu235 2.356 1_665 S
O234 Eu228 2.381 . S
O234 Eu232 2.368 1_565 S
O234 Eu236 2.379 1_565 S
Eu235 O230 2.379 1_545 S
Eu235 O233 2.356 1_445 S
Eu235 O237 2.361 1_455 S
Eu235 O240 2.384 . S
Eu235 O252 2.382 . S
Eu235 O253 2.344 1_455 S
Eu235 O260 2.359 1_545 S
Eu235 O261 2.367 . S
Eu236 O229 2.356 1_445 S
Eu236 O234 2.379 1_545 S
Eu236 O238 2.361 1_455 S
Eu236 O239 2.384 . S
Eu236 O250 2.382 . S
Eu236 O251 2.344 1_455 S
Eu236 O258 2.359 1_545 S
Eu236 O259 2.367 . S
O237 Eu231 2.373 . S
O237 Eu235 2.361 1_655 S
O237 Eu241 2.359 1_655 S
O238 Eu231 2.373 . S
O238 Eu236 2.361 1_655 S
O238 Eu241 2.359 1_655 S
O239 Eu232 2.372 . S
O239 Eu236 2.384 . S
O239 Eu241 2.382 . S
O240 Eu232 2.372 . S
O240 Eu235 2.384 . S
O240 Eu241 2.382 . S
Eu241 O237 2.359 1_455 S
Eu241 O238 2.359 1_455 S
Eu241 O239 2.382 . S
Eu241 O240 2.382 . S
Eu241 O244 2.363 . S
Eu241 O245 2.363 . S
Eu241 O254 2.383 . S
Eu241 O255 2.343 1_455 S
O242 C216 1.283 . S
O242 Eu228 2.363 . S
O243 C217 1.283 . S
O243 Eu228 2.363 . S
O244 C218 1.283 . S
O244 Eu241 2.363 . S
O245 C219 1.283 . S
O245 Eu241 2.363 . S
O246 C220 1.283 . S
O246 Eu231 2.367 . S
O247 C221 1.283 . S
O247 Eu231 2.359 1_565 S
O248 C222 1.283 . S
O248 Eu232 2.367 . S
O249 C223 1.283 . S
O249 Eu232 2.359 1_565 S
O250 C224 1.283 . S
O250 Eu236 2.382 . S
O251 C225 1.283 . S
O251 Eu236 2.344 1_655 S
O252 C226 1.283 . S
O252 Eu235 2.382 . S
O253 C227 1.283 . S
O253 Eu235 2.344 1_655 S
O254 C222 1.283 . S
O254 Eu241 2.383 . S
O255 C220 1.283 . S
O255 Eu241 2.343 1_655 S
O256 C223 1.283 . S
O256 Eu228 2.382 . S
O257 C221 1.283 . S
O257 Eu228 2.344 1_655 S
O258 C217 1.283 . S
O258 Eu236 2.359 1_565 S
O259 C219 1.283 . S
O259 Eu236 2.367 . S
O260 C216 1.283 . S
O260 Eu235 2.359 1_565 S
O261 C218 1.283 . S
O261 Eu235 2.367 . S
O262 C227 1.283 . S
O262 Eu231 2.363 . S
O263 C225 1.283 . S
O263 Eu231 2.363 . S
O264 C226 1.283 . S
O264 Eu232 2.363 . S
O265 C224 1.283 . S
O265 Eu232 2.363 . S
C266 O292 1.283 . S
C266 O310 1.283 . S
C267 O293 1.283 . S
C267 O308 1.283 . S
C268 O294 1.283 . S
C268 O311 1.283 . S
C269 O295 1.283 . S
C269 O309 1.283 . S
C270 O296 1.283 . S
C270 O305 1.283 . S
C271 O297 1.283 . S
C271 O307 1.283 . S
C272 O298 1.283 . S
C272 O304 1.283 . S
C273 O299 1.283 . S
C273 O306 1.283 . S
C274 O300 1.283 . S
C274 O315 1.283 . S
C275 O301 1.283 . S
C275 O313 1.283 . S
C276 O302 1.283 . S
C276 O314 1.283 . S
C277 O303 1.283 . S
C277 O312 1.283 . S
Eu278 O279 2.370 . S
Eu278 O280 2.370 1_545 S
Eu278 O283 2.370 1_545 S
Eu278 O284 2.370 . S
Eu278 O292 2.362 1_545 S
Eu278 O293 2.363 . S
Eu278 O306 2.363 . S
Eu278 O307 2.363 . S
O279 Eu278 2.370 . S
O279 Eu281 2.372 . S
O279 Eu286 2.372 . S
O280 Eu278 2.370 1_565 S
O280 Eu282 2.372 1_565 S
O280 Eu285 2.373 . S
Eu281 O279 2.372 . S
Eu281 O283 2.372 1_545 S
Eu281 O287 2.368 1_544 S
Eu281 O288 2.368 1_554 S
Eu281 O296 2.359 1_554 S
Eu281 O297 2.367 . S
Eu281 O312 2.363 1_545 S
Eu281 O313 2.363 . S
Eu282 O280 2.372 1_545 S
Eu282 O284 2.372 . S
Eu282 O289 2.368 1_554 S
Eu282 O290 2.368 1_544 S
Eu282 O298 2.359 1_554 S
Eu282 O299 2.367 . S
Eu282 O314 2.363 1_545 S
Eu282 O315 2.363 . S
O283 Eu278 2.370 1_565 S
O283 Eu281 2.372 1_565 S
O283 Eu285 2.373 . S
O284 Eu278 2.370 . S
O284 Eu282 2.372 . S
O284 Eu286 2.372 . S
Eu285 O280 2.373 . S
Eu285 O283 2.373 . S
Eu285 O287 2.368 1_554 S
Eu285 O290 2.368 1_554 S
Eu285 O302 2.363 . S
Eu285 O303 2.363 . S
Eu285 O310 2.367 . S
Eu285 O311 2.359 1_554 S
Eu286 O279 2.372 . S
Eu286 O284 2.372 . S
Eu286 O288 2.368 1_554 S
Eu286 O289 2.368 1_554 S
Eu286 O300 2.363 . S
Eu286 O301 2.363 . S
Eu286 O308 2.366 . S
Eu286 O309 2.360 1_554 S
O287 Eu281 2.368 1_566 S
O287 Eu285 2.368 1_556 S
O287 Eu291 2.370 1_565 S
O288 Eu281 2.368 1_556 S
O288 Eu286 2.368 1_556 S
O288 Eu291 2.370 . S
O289 Eu282 2.368 1_556 S
O289 Eu286 2.368 1_556 S
O289 Eu291 2.370 . S
O290 Eu282 2.368 1_566 S
O290 Eu285 2.368 1_556 S
O290 Eu291 2.370 1_565 S
Eu291 O287 2.370 1_545 S
Eu291 O288 2.370 . S
Eu291 O289 2.370 . S
Eu291 O290 2.370 1_545 S
Eu291 O294 2.363 1_545 S
Eu291 O295 2.362 . S
Eu291 O304 2.363 . S
Eu291 O305 2.363 . S
O292 C266 1.283 . S
O292 Eu278 2.362 1_565 S
O293 C267 1.283 . S
O293 Eu278 2.363 . S
O294 C268 1.283 . S
O294 Eu291 2.363 1_565 S
O295 C269 1.283 . S
O295 Eu291 2.362 . S
O296 C270 1.283 . S
O296 Eu281 2.359 1_556 S
O297 C271 1.283 . S
O297 Eu281 2.367 . S
O298 C272 1.283 . S
O298 Eu282 2.359 1_556 S
O299 C273 1.283 . S
O299 Eu282 2.367 . S
O300 C274 1.283 . S
O300 Eu286 2.363 . S
O301 C275 1.283 . S
O301 Eu286 2.363 . S
O302 C276 1.283 . S
O302 Eu285 2.363 . S
O303 C277 1.283 . S
O303 Eu285 2.363 . S
O304 C272 1.283 . S
O304 Eu291 2.363 . S
O305 C270 1.283 . S
O305 Eu291 2.363 . S
O306 C273 1.283 . S
O306 Eu278 2.363 . S
O307 C271 1.283 . S
O307 Eu278 2.363 . S
O308 C267 1.283 . S
O308 Eu286 2.366 . S
O309 C269 1.283 . S
O309 Eu286 2.360 1_556 S
O310 C266 1.283 . S
O310 Eu285 2.367 . S
O311 C268 1.283 . S
O311 Eu285 2.359 1_556 S
O312 C277 1.283 . S
O312 Eu281 2.363 1_565 S
O313 C275 1.283 . S
O313 Eu281 2.363 . S
O314 C276 1.283 . S
O314 Eu282 2.363 1_565 S
O315 C274 1.283 . S
O315 Eu282 2.363 . S
C316 O342 1.283 . S
C316 O360 1.283 . S
C317 O343 1.283 . S
C317 O358 1.283 . S
C318 O344 1.283 . S
C318 O361 1.283 . S
C319 O345 1.283 . S
C319 O359 1.283 . S
C320 O346 1.283 . S
C320 O355 1.283 . S
C321 O347 1.283 . S
C321 O357 1.283 . S
C322 O348 1.283 . S
C322 O354 1.283 . S
C323 O349 1.283 . S
C323 O356 1.283 . S
C324 O350 1.283 . S
C324 O365 1.283 . S
C325 O351 1.283 . S
C325 O363 1.283 . S
C326 O352 1.283 . S
C326 O364 1.283 . S
C327 O353 1.283 . S
C327 O362 1.283 . S
Eu328 O329 2.364 1_454 S
Eu328 O330 2.377 . S
Eu328 O333 2.364 1_455 S
Eu328 O334 2.377 1_554 S
Eu328 O342 2.363 . S
Eu328 O343 2.363 1_554 S
Eu328 O356 2.374 . S
Eu328 O357 2.352 1_455 S
O329 Eu328 2.364 1_656 S
O329 Eu331 2.370 1_556 S
O329 Eu336 2.364 1_655 S
O330 Eu328 2.377 . S
O330 Eu332 2.370 . S
O330 Eu335 2.377 . S
Eu331 O329 2.370 1_554 S
Eu331 O333 2.370 . S
Eu331 O337 2.370 . S
Eu331 O338 2.370 1_554 S
Eu331 O346 2.363 . S
Eu331 O347 2.363 . S
Eu331 O362 2.363 . S
Eu331 O363 2.363 1_554 S
Eu332 O330 2.370 . S
Eu332 O334 2.370 1_554 S
Eu332 O339 2.370 1_554 S
Eu332 O340 2.370 . S
Eu332 O348 2.363 . S
Eu332 O349 2.363 . S
Eu332 O364 2.363 . S
Eu332 O365 2.363 1_554 S
O333 Eu328 2.364 1_655 S
O333 Eu331 2.370 . S
O333 Eu335 2.364 1_655 S
O334 Eu328 2.377 1_556 S
O334 Eu332 2.370 1_556 S
O334 Eu336 2.377 . S
Eu335 O330 2.377 . S
Eu335 O333 2.364 1_455 S
Eu335 O337 2.364 1_455 S
Eu335 O340 2.377 . S
Eu335 O352 2.374 . S
Eu335 O353 2.352 1_455 S
Eu335 O360 2.363 . S
Eu335 O361 2.363 . S
Eu336 O329 2.364 1_455 S
Eu336 O334 2.377 . S
Eu336 O338 2.364 1_455 S
Eu336 O339 2.377 . S
Eu336 O350 2.374 . S
Eu336 O351 2.352 1_455 S
Eu336 O358 2.363 . S
Eu336 O359 2.363 . S
O337 Eu331 2.370 . S
O337 Eu335 2.364 1_655 S
O337 Eu341 2.364 1_655 S
O338 Eu331 2.370 1_556 S
O338 Eu336 2.364 1_655 S
O338 Eu341 2.364 1_656 S
O339 Eu332 2.370 1_556 S
O339 Eu336 2.377 . S
O339 Eu341 2.377 1_556 S
O340 Eu332 2.370 . S
O340 Eu335 2.377 . S
O340 Eu341 2.377 . S
Eu341 O337 2.364 1_455 S
Eu341 O338 2.364 1_454 S
Eu341 O339 2.377 1_554 S
Eu341 O340 2.377 . S
Eu341 O344 2.363 . S
Eu341 O345 2.363 1_554 S
Eu341 O354 2.374 . S
Eu341 O355 2.352 1_455 S
O342 C316 1.283 . S
O342 Eu328 2.363 . S
O343 C317 1.283 . S
O343 Eu328 2.363 1_556 S
O344 C318 1.283 . S
O344 Eu341 2.363 . S
O345 C319 1.283 . S
O345 Eu341 2.363 1_556 S
O346 C320 1.283 . S
O346 Eu331 2.363 . S
O347 C321 1.283 . S
O347 Eu331 2.363 . S
O348 C322 1.283 . S
O348 Eu332 2.363 . S
O349 C323 1.283 . S
O349 Eu332 2.363 . S
O350 C324 1.283 . S
O350 Eu336 2.374 . S
O351 C325 1.283 . S
O351 Eu336 2.352 1_655 S
O352 C326 1.283 . S
O352 Eu335 2.374 . S
O353 C327 1.283 . S
O353 Eu335 2.352 1_655 S
O354 C322 1.283 . S
O354 Eu341 2.374 . S
O355 C320 1.283 . S
O355 Eu341 2.352 1_655 S
O356 C323 1.283 . S
O356 Eu328 2.374 . S
O357 C321 1.283 . S
O357 Eu328 2.352 1_655 S
O358 C317 1.283 . S
O358 Eu336 2.363 . S
O359 C319 1.283 . S
O359 Eu336 2.363 . S
O360 C316 1.283 . S
O360 Eu335 2.363 . S
O361 C318 1.283 . S
O361 Eu335 2.363 . S
O362 C327 1.283 . S
O362 Eu331 2.363 . S
O363 C325 1.283 . S
O363 Eu331 2.363 1_556 S
O364 C326 1.283 . S
O364 Eu332 2.363 . S
O365 C324 1.283 . S
O365 Eu332 2.363 1_556 S
C366 O392 1.283 . S
C366 O410 1.283 . S
C367 O393 1.283 . S
C367 O408 1.283 . S
C368 O394 1.283 . S
C368 O411 1.283 . S
C369 O395 1.283 . S
C369 O409 1.283 . S
C370 O396 1.283 . S
C370 O405 1.283 . S
C371 O397 1.283 . S
C371 O407 1.283 . S
C372 O398 1.283 . S
C372 O404 1.283 . S
C373 O399 1.283 . S
C373 O406 1.283 . S
C374 O400 1.283 . S
C374 O415 1.283 . S
C375 O401 1.283 . S
C375 O413 1.283 . S
C376 O402 1.283 . S
C376 O414 1.283 . S
C377 O403 1.283 . S
C377 O412 1.283 . S
Eu378 O379 2.370 . S
Eu378 O380 2.370 . S
Eu378 O383 2.370 . S
Eu378 O384 2.370 . S
Eu378 O392 2.363 . S
Eu378 O393 2.363 . S
Eu378 O406 2.363 . S
Eu378 O407 2.363 . S
O379 Eu378 2.370 . S
O379 Eu381 2.373 . S
O379 Eu386 2.373 . S
O380 Eu378 2.370 . S
O380 Eu382 2.373 . S
O380 Eu385 2.373 . S
Eu381 O379 2.373 . S
Eu381 O383 2.373 . S
Eu381 O387 2.367 1_554 S
Eu381 O388 2.367 1_554 S
Eu381 O396 2.358 1_554 S
Eu381 O397 2.368 . S
Eu381 O412 2.363 . S
Eu381 O413 2.363 . S
Eu382 O380 2.373 . S
Eu382 O384 2.373 . S
Eu382 O389 2.367 1_554 S
Eu382 O390 2.367 1_554 S
Eu382 O398 2.358 1_554 S
Eu382 O399 2.368 . S
Eu382 O414 2.363 . S
Eu382 O415 2.363 . S
O383 Eu378 2.370 . S
O383 Eu381 2.373 . S
O383 Eu385 2.373 . S
O384 Eu378 2.370 . S
O384 Eu382 2.373 . S
O384 Eu386 2.373 . S
Eu385 O380 2.373 . S
Eu385 O383 2.373 . S
Eu385 O387 2.367 1_554 S
Eu385 O390 2.367 1_554 S
Eu385 O402 2.363 . S
Eu385 O403 2.363 . S
Eu385 O410 2.367 . S
Eu385 O411 2.358 1_554 S
Eu386 O379 2.373 . S
Eu386 O384 2.373 . S
Eu386 O388 2.367 1_554 S
Eu386 O389 2.367 1_554 S
Eu386 O400 2.363 . S
Eu386 O401 2.363 . S
Eu386 O408 2.368 . S
Eu386 O409 2.358 1_554 S
O387 Eu381 2.367 1_556 S
O387 Eu385 2.367 1_556 S
O387 Eu391 2.370 . S
O388 Eu381 2.367 1_556 S
O388 Eu386 2.367 1_556 S
O388 Eu391 2.370 . S
O389 Eu382 2.367 1_556 S
O389 Eu386 2.367 1_556 S
O389 Eu391 2.370 . S
O390 Eu382 2.367 1_556 S
O390 Eu385 2.367 1_556 S
O390 Eu391 2.370 . S
Eu391 O387 2.370 . S
Eu391 O388 2.370 . S
Eu391 O389 2.370 . S
Eu391 O390 2.370 . S
Eu391 O394 2.363 . S
Eu391 O395 2.363 . S
Eu391 O404 2.363 . S
Eu391 O405 2.363 . S
O392 C366 1.283 . S
O392 Eu378 2.363 . S
O393 C367 1.283 . S
O393 Eu378 2.363 . S
O394 C368 1.283 . S
O394 Eu391 2.363 . S
O395 C369 1.283 . S
O395 Eu391 2.363 . S
O396 C370 1.283 . S
O396 Eu381 2.358 1_556 S
O397 C371 1.283 . S
O397 Eu381 2.368 . S
O398 C372 1.283 . S
O398 Eu382 2.358 1_556 S
O399 C373 1.283 . S
O399 Eu382 2.368 . S
O400 C374 1.283 . S
O400 Eu386 2.363 . S
O401 C375 1.283 . S
O401 Eu386 2.363 . S
O402 C376 1.283 . S
O402 Eu385 2.363 . S
O403 C377 1.283 . S
O403 Eu385 2.363 . S
O404 C372 1.283 . S
O404 Eu391 2.363 . S
O405 C370 1.283 . S
O405 Eu391 2.363 . S
O406 C373 1.283 . S
O406 Eu378 2.363 . S
O407 C371 1.283 . S
O407 Eu378 2.363 . S
O408 C367 1.283 . S
O408 Eu386 2.368 . S
O409 C369 1.283 . S
O409 Eu386 2.358 1_556 S
O410 C366 1.283 . S
O410 Eu385 2.367 . S
O411 C368 1.283 . S
O411 Eu385 2.358 1_556 S
O412 C377 1.283 . S
O412 Eu381 2.363 . S
O413 C375 1.283 . S
O413 Eu381 2.363 . S
O414 C376 1.283 . S
O414 Eu382 2.363 . S
O415 C374 1.283 . S
O415 Eu382 2.363 . S
C416 O442 1.283 . S
C416 O460 1.283 . S
C417 O443 1.283 . S
C417 O458 1.283 . S
C418 O444 1.283 . S
C418 O461 1.283 . S
C419 O445 1.283 . S
C419 O459 1.283 . S
C420 O446 1.283 . S
C420 O455 1.283 . S
C421 O447 1.283 . S
C421 O457 1.283 . S
C422 O448 1.283 . S
C422 O454 1.283 . S
C423 O449 1.283 . S
C423 O456 1.283 . S
C424 O450 1.283 . S
C424 O465 1.283 . S
C425 O451 1.283 . S
C425 O463 1.283 . S
C426 O452 1.283 . S
C426 O464 1.283 . S
C427 O453 1.283 . S
C427 O462 1.283 . S
Eu428 O429 2.361 1_455 S
Eu428 O430 2.379 . S
Eu428 O433 2.361 1_455 S
Eu428 O434 2.379 . S
Eu428 O442 2.363 . S
Eu428 O443 2.363 . S
Eu428 O456 2.378 . S
Eu428 O457 2.347 1_455 S
O429 Eu428 2.361 1_655 S
O429 Eu431 2.370 . S
O429 Eu436 2.361 1_655 S
O430 Eu428 2.379 . S
O430 Eu432 2.370 . S
O430 Eu435 2.379 . S
Eu431 O429 2.370 . S
Eu431 O433 2.370 . S
Eu431 O437 2.370 . S
Eu431 O438 2.370 . S
Eu431 O446 2.363 . S
Eu431 O447 2.363 . S
Eu431 O462 2.363 . S
Eu431 O463 2.363 . S
Eu432 O430 2.370 . S
Eu432 O434 2.370 . S
Eu432 O439 2.370 . S
Eu432 O440 2.370 . S
Eu432 O448 2.363 . S
Eu432 O449 2.363 . S
Eu432 O464 2.363 . S
Eu432 O465 2.363 . S
O433 Eu428 2.361 1_655 S
O433 Eu431 2.370 . S
O433 Eu435 2.361 1_655 S
O434 Eu428 2.379 . S
O434 Eu432 2.370 . S
O434 Eu436 2.379 . S
Eu435 O430 2.379 . S
Eu435 O433 2.361 1_455 S
Eu435 O437 2.361 1_455 S
Eu435 O440 2.379 . S
Eu435 O452 2.378 . S
Eu435 O453 2.348 1_455 S
Eu435 O460 2.363 . S
Eu435 O461 2.363 . S
Eu436 O429 2.361 1_455 S
Eu436 O434 2.379 . S
Eu436 O438 2.361 1_455 S
Eu436 O439 2.379 . S
Eu436 O450 2.378 . S
Eu436 O451 2.348 1_455 S
Eu436 O458 2.363 . S
Eu436 O459 2.363 . S
O437 Eu431 2.370 . S
O437 Eu435 2.361 1_655 S
O437 Eu441 2.361 1_655 S
O438 Eu431 2.370 . S
O438 Eu436 2.361 1_655 S
O438 Eu441 2.361 1_655 S
O439 Eu432 2.370 . S
O439 Eu436 2.379 . S
O439 Eu441 2.379 . S
O440 Eu432 2.370 . S
O440 Eu435 2.379 . S
O440 Eu441 2.379 . S
Eu441 O437 2.361 1_455 S
Eu441 O438 2.361 1_455 S
Eu441 O439 2.379 . S
Eu441 O440 2.379 . S
Eu441 O444 2.363 . S
Eu441 O445 2.363 . S
Eu441 O454 2.378 . S
Eu441 O455 2.348 1_455 S
O442 C416 1.283 . S
O442 Eu428 2.363 . S
O443 C417 1.283 . S
O443 Eu428 2.363 . S
O444 C418 1.283 . S
O444 Eu441 2.363 . S
O445 C419 1.283 . S
O445 Eu441 2.363 . S
O446 C420 1.283 . S
O446 Eu431 2.363 . S
O447 C421 1.283 . S
O447 Eu431 2.363 . S
O448 C422 1.283 . S
O448 Eu432 2.363 . S
O449 C423 1.283 . S
O449 Eu432 2.363 . S
O450 C424 1.283 . S
O450 Eu436 2.378 . S
O451 C425 1.283 . S
O451 Eu436 2.348 1_655 S
O452 C426 1.283 . S
O452 Eu435 2.378 . S
O453 C427 1.283 . S
O453 Eu435 2.348 1_655 S
O454 C422 1.283 . S
O454 Eu441 2.378 . S
O455 C420 1.283 . S
O455 Eu441 2.348 1_655 S
O456 C423 1.283 . S
O456 Eu428 2.378 . S
O457 C421 1.283 . S
O457 Eu428 2.347 1_655 S
O458 C417 1.283 . S
O458 Eu436 2.363 . S
O459 C419 1.283 . S
O459 Eu436 2.363 . S
O460 C416 1.283 . S
O460 Eu435 2.363 . S
O461 C418 1.283 . S
O461 Eu435 2.363 . S
O462 C427 1.283 . S
O462 Eu431 2.363 . S
O463 C425 1.283 . S
O463 Eu431 2.363 . S
O464 C426 1.283 . S
O464 Eu432 2.363 . S
O465 C424 1.283 . S
O465 Eu432 2.363 . S
C466 O492 1.283 . S
C466 O510 1.283 . S
C467 O493 1.283 . S
C467 O508 1.283 . S
C468 O494 1.283 . S
C468 O511 1.283 . S
C469 O495 1.283 . S
C469 O509 1.283 . S
C470 O496 1.283 . S
C470 O505 1.283 . S
C471 O497 1.283 . S
C471 O507 1.283 . S
C472 O498 1.283 . S
C472 O504 1.283 . S
C473 O499 1.283 . S
C473 O506 1.283 . S
C474 O500 1.283 . S
C474 O515 1.283 . S
C475 O501 1.283 . S
C475 O513 1.283 . S
C476 O502 1.283 . S
C476 O514 1.283 . S
C477 O503 1.283 . S
C477 O512 1.283 . S
Eu478 O479 2.370 . S
Eu478 O480 2.370 . S
Eu478 O483 2.370 . S
Eu478 O484 2.370 . S
Eu478 O492 2.363 . S
Eu478 O493 2.363 . S
Eu478 O506 2.363 . S
Eu478 O507 2.363 . S
O479 Eu478 2.370 . S
O479 Eu481 2.367 1_565 S
O479 Eu486 2.367 1_565 S
O480 Eu478 2.370 . S
O480 Eu482 2.367 1_565 S
O480 Eu485 2.367 1_565 S
Eu481 O479 2.367 1_545 S
Eu481 O483 2.367 1_545 S
Eu481 O487 2.373 . S
Eu481 O488 2.373 . S
Eu481 O496 2.368 . S
Eu481 O497 2.358 1_545 S
Eu481 O512 2.363 . S
Eu481 O513 2.363 . S
Eu482 O480 2.367 1_545 S
Eu482 O484 2.367 1_545 S
Eu482 O489 2.373 . S
Eu482 O490 2.373 . S
Eu482 O498 2.368 . S
Eu482 O499 2.358 1_545 S
Eu482 O514 2.363 . S
Eu482 O515 2.363 . S
O483 Eu478 2.370 . S
O483 Eu481 2.367 1_565 S
O483 Eu485 2.367 1_565 S
O484 Eu478 2.370 . S
O484 Eu482 2.367 1_565 S
O484 Eu486 2.367 1_565 S
Eu485 O480 2.367 1_545 S
Eu485 O483 2.367 1_545 S
Eu485 O487 2.373 . S
Eu485 O490 2.373 . S
Eu485 O502 2.363 . S
Eu485 O503 2.363 . S
Eu485 O510 2.358 1_545 S
Eu485 O511 2.368 . S
Eu486 O479 2.367 1_545 S
Eu486 O484 2.367 1_545 S
Eu486 O488 2.373 . S
Eu486 O489 2.373 . S
Eu486 O500 2.363 . S
Eu486 O501 2.363 . S
Eu486 O508 2.358 1_545 S
Eu486 O509 2.368 . S
O487 Eu481 2.373 . S
O487 Eu485 2.373 . S
O487 Eu491 2.370 . S
O488 Eu481 2.373 . S
O488 Eu486 2.373 . S
O488 Eu491 2.370 . S
O489 Eu482 2.373 . S
O489 Eu486 2.373 . S
O489 Eu491 2.370 . S
O490 Eu482 2.373 . S
O490 Eu485 2.373 . S
O490 Eu491 2.370 . S
Eu491 O487 2.370 . S
Eu491 O488 2.370 . S
Eu491 O489 2.370 . S
Eu491 O490 2.370 . S
Eu491 O494 2.363 . S
Eu491 O495 2.363 . S
Eu491 O504 2.363 . S
Eu491 O505 2.363 . S
O492 C466 1.283 . S
O492 Eu478 2.363 . S
O493 C467 1.283 . S
O493 Eu478 2.363 . S
O494 C468 1.283 . S
O494 Eu491 2.363 . S
O495 C469 1.283 . S
O495 Eu491 2.363 . S
O496 C470 1.283 . S
O496 Eu481 2.368 . S
O497 C471 1.283 . S
O497 Eu481 2.358 1_565 S
O498 C472 1.283 . S
O498 Eu482 2.368 . S
O499 C473 1.283 . S
O499 Eu482 2.358 1_565 S
O500 C474 1.283 . S
O500 Eu486 2.363 . S
O501 C475 1.283 . S
O501 Eu486 2.363 . S
O502 C476 1.283 . S
O502 Eu485 2.363 . S
O503 C477 1.283 . S
O503 Eu485 2.363 . S
O504 C472 1.283 . S
O504 Eu491 2.363 . S
O505 C470 1.283 . S
O505 Eu491 2.363 . S
O506 C473 1.283 . S
O506 Eu478 2.363 . S
O507 C471 1.283 . S
O507 Eu478 2.363 . S
O508 C467 1.283 . S
O508 Eu486 2.358 1_565 S
O509 C469 1.283 . S
O509 Eu486 2.368 . S
O510 C466 1.283 . S
O510 Eu485 2.358 1_565 S
O511 C468 1.283 . S
O511 Eu485 2.368 . S
O512 C477 1.283 . S
O512 Eu481 2.363 . S
O513 C475 1.283 . S
O513 Eu481 2.363 . S
O514 C476 1.283 . S
O514 Eu482 2.363 . S
O515 C474 1.283 . S
O515 Eu482 2.363 . S
C516 C517 1.369 . S
C516 C518 1.419 . S
C516 H520 0.930 . S
C517 C516 1.369 . S
C517 C526 1.429 . S
C518 C516 1.419 . S
C518 C519 1.363 . S
C518 H521 0.929 . S
C519 C518 1.363 . S
C519 C525 1.428 . S
H520 C516 0.930 . S
H521 C518 0.929 . S
S522 N523 1.613 . S
S522 N524 1.610 . S
N523 S522 1.613 . S
N523 C526 1.350 . S
N524 S522 1.610 . S
N524 C525 1.351 . S
C525 C519 1.428 . S
C525 N524 1.351 . S
C525 C526 1.434 . S
C526 C517 1.429 . S
C526 N523 1.350 . S
C526 C525 1.434 . S
C527 C528 1.369 . S
C527 C529 1.419 . S
C527 H531 0.930 . S
C528 C527 1.369 . S
C528 C537 1.429 . S
C529 C527 1.419 . S
C529 C530 1.363 . S
C529 H532 0.929 . S
C530 C529 1.363 . S
C530 C536 1.428 . S
H531 C527 0.930 . S
H532 C529 0.929 . S
S533 N534 1.613 . S
S533 N535 1.610 . S
N534 S533 1.613 . S
N534 C537 1.350 . S
N535 S533 1.610 . S
N535 C536 1.351 . S
C536 C530 1.428 . S
C536 N535 1.351 . S
C536 C537 1.434 . S
C537 C528 1.429 . S
C537 N534 1.350 . S
C537 C536 1.434 . S
C538 C539 1.369 . S
C538 C540 1.419 . S
C538 H542 0.930 . S
C539 C538 1.369 . S
C539 C548 1.429 . S
C540 C538 1.419 . S
C540 C541 1.363 . S
C540 H543 0.929 . S
C541 C540 1.363 . S
C541 C547 1.428 . S
H542 C538 0.930 . S
H543 C540 0.929 . S
S544 N545 1.613 . S
S544 N546 1.610 . S
N545 S544 1.613 . S
N545 C548 1.350 . S
N546 S544 1.610 . S
N546 C547 1.351 . S
C547 C541 1.428 . S
C547 N546 1.351 . S
C547 C548 1.434 . S
C548 C539 1.429 . S
C548 N545 1.350 . S
C548 C547 1.434 . S
C549 C550 1.369 . S
C549 C551 1.419 . S
C549 H553 0.930 . S
C550 C549 1.369 . S
C550 C559 1.429 . S
C551 C549 1.419 . S
C551 C552 1.363 . S
C551 H554 0.929 . S
C552 C551 1.363 . S
C552 C558 1.428 . S
H553 C549 0.930 . S
H554 C551 0.929 . S
S555 N556 1.613 . S
S555 N557 1.610 . S
N556 S555 1.613 . S
N556 C559 1.350 . S
N557 S555 1.610 . S
N557 C558 1.351 . S
C558 C552 1.428 . S
C558 N557 1.351 . S
C558 C559 1.434 . S
C559 C550 1.429 . S
C559 N556 1.350 . S
C559 C558 1.434 . S
C560 C561 1.369 . S
C560 C562 1.419 . S
C560 H564 0.930 . S
C561 C560 1.369 . S
C561 C570 1.429 . S
C562 C560 1.419 . S
C562 C563 1.363 . S
C562 H565 0.929 . S
C563 C562 1.363 . S
C563 C569 1.428 . S
H564 C560 0.930 . S
H565 C562 0.929 . S
S566 N567 1.613 . S
S566 N568 1.610 . S
N567 S566 1.613 . S
N567 C570 1.350 . S
N568 S566 1.610 . S
N568 C569 1.351 . S
C569 C563 1.428 . S
C569 N568 1.351 . S
C569 C570 1.434 . S
C570 C561 1.429 . S
C570 N567 1.350 . S
C570 C569 1.434 . S
C571 C572 1.369 . S
C571 C573 1.419 . S
C571 H575 0.930 . S
C572 C571 1.369 . S
C572 C581 1.429 . S
C573 C571 1.419 . S
C573 C574 1.363 . S
C573 H576 0.929 . S
C574 C573 1.363 . S
C574 C580 1.428 . S
H575 C571 0.930 . S
H576 C573 0.929 . S
S577 N578 1.613 . S
S577 N579 1.610 . S
N578 S577 1.613 . S
N578 C581 1.350 . S
N579 S577 1.610 . S
N579 C580 1.351 . S
C580 C574 1.428 . S
C580 N579 1.351 . S
C580 C581 1.434 . S
C581 C572 1.429 . S
C581 N578 1.350 . S
C581 C580 1.434 . S
C582 C583 1.369 . S
C582 C584 1.419 . S
C582 H586 0.930 . S
C583 C582 1.369 . S
C583 C592 1.429 . S
C584 C582 1.419 . S
C584 C585 1.363 . S
C584 H587 0.929 . S
C585 C584 1.363 . S
C585 C591 1.428 . S
H586 C582 0.930 . S
H587 C584 0.929 . S
S588 N589 1.613 . S
S588 N590 1.610 . S
N589 S588 1.613 . S
N589 C592 1.350 . S
N590 S588 1.610 . S
N590 C591 1.351 . S
C591 C585 1.428 . S
C591 N590 1.351 . S
C591 C592 1.434 . S
C592 C583 1.429 . S
C592 N589 1.350 . S
C592 C591 1.434 . S
C593 C594 1.369 . S
C593 C595 1.419 . S
C593 H597 0.930 . S
C594 C593 1.369 . S
C594 C603 1.429 . S
C595 C593 1.419 . S
C595 C596 1.363 . S
C595 H598 0.929 . S
C596 C595 1.363 . S
C596 C602 1.428 . S
H597 C593 0.930 . S
H598 C595 0.929 . S
S599 N600 1.613 . S
S599 N601 1.610 . S
N600 S599 1.613 . S
N600 C603 1.350 . S
N601 S599 1.610 . S
N601 C602 1.351 . S
C602 C596 1.428 . S
C602 N601 1.351 . S
C602 C603 1.434 . S
C603 C594 1.429 . S
C603 N600 1.350 . S
C603 C602 1.434 . S
C604 C605 1.369 . S
C604 C606 1.419 . S
C604 H608 0.930 . S
C605 C604 1.369 . S
C605 C614 1.429 . S
C606 C604 1.419 . S
C606 C607 1.363 . S
C606 H609 0.929 . S
C607 C606 1.363 . S
C607 C613 1.428 . S
H608 C604 0.930 . S
H609 C606 0.929 . S
S610 N611 1.613 . S
S610 N612 1.610 . S
N611 S610 1.613 . S
N611 C614 1.350 . S
N612 S610 1.610 . S
N612 C613 1.351 . S
C613 C607 1.428 . S
C613 N612 1.351 . S
C613 C614 1.434 . S
C614 C605 1.429 . S
C614 N611 1.350 . S
C614 C613 1.434 . S
C615 C616 1.369 . S
C615 C617 1.419 . S
C615 H619 0.930 . S
C616 C615 1.369 . S
C616 C625 1.429 . S
C617 C615 1.419 . S
C617 C618 1.363 . S
C617 H620 0.929 . S
C618 C617 1.363 . S
C618 C624 1.428 . S
H619 C615 0.930 . S
H620 C617 0.929 . S
S621 N622 1.613 . S
S621 N623 1.610 . S
N622 S621 1.613 . S
N622 C625 1.350 . S
N623 S621 1.610 . S
N623 C624 1.351 . S
C624 C618 1.428 . S
C624 N623 1.351 . S
C624 C625 1.434 . S
C625 C616 1.429 . S
C625 N622 1.350 . S
C625 C624 1.434 . S
C626 C627 1.369 . S
C626 C628 1.419 . S
C626 H630 0.930 . S
C627 C626 1.369 . S
C627 C636 1.429 . S
C628 C626 1.419 . S
C628 C629 1.363 . S
C628 H631 0.929 . S
C629 C628 1.363 . S
C629 C635 1.428 . S
H630 C626 0.930 . S
H631 C628 0.929 . S
S632 N633 1.613 . S
S632 N634 1.610 . S
N633 S632 1.613 . S
N633 C636 1.350 . S
N634 S632 1.610 . S
N634 C635 1.351 . S
C635 C629 1.428 . S
C635 N634 1.351 . S
C635 C636 1.434 . S
C636 C627 1.429 . S
C636 N633 1.350 . S
C636 C635 1.434 . S
C637 C638 1.369 . S
C637 C639 1.419 . S
C637 H641 0.930 . S
C638 C637 1.369 . S
C638 C647 1.429 . S
C639 C637 1.419 . S
C639 C640 1.363 . S
C639 H642 0.929 . S
C640 C639 1.363 . S
C640 C646 1.428 . S
H641 C637 0.930 . S
H642 C639 0.929 . S
S643 N644 1.613 . S
S643 N645 1.610 . S
N644 S643 1.613 . S
N644 C647 1.350 . S
N645 S643 1.610 . S
N645 C646 1.351 . S
C646 C640 1.428 . S
C646 N645 1.351 . S
C646 C647 1.434 . S
C647 C638 1.429 . S
C647 N644 1.350 . S
C647 C646 1.434 . S
C648 C649 1.355 1_556 S
C648 C650 1.419 . S
C648 H652 0.930 . S
C649 C648 1.355 1_554 S
C649 C658 1.443 . S
C650 C648 1.419 . S
C650 C651 1.352 1_556 S
C650 H653 0.929 . S
C651 C650 1.352 1_554 S
C651 C657 1.440 . S
H652 C648 0.930 . S
H653 C650 0.929 . S
S654 N655 1.613 . S
S654 N656 1.610 . S
N655 S654 1.613 . S
N655 C658 1.350 . S
N656 S654 1.610 . S
N656 C657 1.351 . S
C657 C651 1.440 . S
C657 N656 1.351 . S
C657 C658 1.434 . S
C658 C649 1.443 . S
C658 N655 1.350 . S
C658 C657 1.434 . S
C659 C660 1.363 1_556 S
C659 C661 1.419 . S
C659 H663 0.930 . S
C660 C659 1.363 1_554 S
C660 C669 1.435 . S
C661 C659 1.419 . S
C661 C662 1.358 1_556 S
C661 H664 0.929 . S
C662 C661 1.358 1_554 S
C662 C668 1.434 . S
H663 C659 0.930 . S
H664 C661 0.929 . S
S665 N666 1.613 . S
S665 N667 1.610 . S
N666 S665 1.613 . S
N666 C669 1.350 . S
N667 S665 1.610 . S
N667 C668 1.351 . S
C668 C662 1.434 . S
C668 N667 1.351 . S
C668 C669 1.434 . S
C669 C660 1.435 . S
C669 N666 1.350 . S
C669 C668 1.434 . S
C670 C671 1.369 1_554 S
C670 C672 1.419 . S
C670 H674 0.930 . S
C671 C670 1.369 1_556 S
C671 C680 1.429 . S
C672 C670 1.419 . S
C672 C673 1.363 . S
C672 H675 0.929 . S
C673 C672 1.363 . S
C673 C679 1.429 1_554 S
H674 C670 0.930 . S
H675 C672 0.929 . S
S676 N677 1.613 . S
S676 N678 1.610 . S
N677 S676 1.613 . S
N677 C680 1.350 . S
N678 S676 1.610 . S
N678 C679 1.351 . S
C679 C673 1.429 1_556 S
C679 N678 1.351 . S
C679 C680 1.434 . S
C680 C671 1.429 . S
C680 N677 1.350 . S
C680 C679 1.434 . S
C681 C682 1.353 1_556 S
C681 C683 1.419 . S
C681 H685 0.930 . S
C682 C681 1.353 1_554 S
C682 C691 1.445 . S
C683 C681 1.419 . S
C683 C684 1.348 1_556 S
C683 H686 0.929 . S
C684 C683 1.348 1_554 S
C684 C690 1.444 . S
H685 C681 0.930 . S
H686 C683 0.929 . S
S687 N688 1.613 . S
S687 N689 1.610 . S
N688 S687 1.613 . S
N688 C691 1.350 . S
N689 S687 1.610 . S
N689 C690 1.351 . S
C690 C684 1.444 . S
C690 N689 1.351 . S
C690 C691 1.434 . S
C691 C682 1.445 . S
C691 N688 1.350 . S
C691 C690 1.434 . S
C692 C693 1.375 . S
C692 C694 1.419 . S
C692 H696 0.930 . S
C693 C692 1.375 . S
C693 C702 1.422 1_455 S
C694 C692 1.419 . S
C694 C695 1.370 . S
C694 H697 0.929 . S
C695 C694 1.370 . S
C695 C701 1.422 1_455 S
H696 C692 0.930 . S
H697 C694 0.929 . S
S698 N699 1.613 . S
S698 N700 1.610 . S
N699 S698 1.613 . S
N699 C702 1.350 . S
N700 S698 1.610 . S
N700 C701 1.351 . S
C701 C695 1.422 1_655 S
C701 N700 1.351 . S
C701 C702 1.434 . S
C702 C693 1.422 1_655 S
C702 N699 1.350 . S
C702 C701 1.434 . S
C703 C704 1.354 1_565 S
C703 C705 1.419 . S
C703 H707 0.930 . S
C704 C703 1.354 1_545 S
C704 C713 1.444 . S
C705 C703 1.419 . S
C705 C706 1.350 1_565 S
C705 H708 0.929 . S
C706 C705 1.350 1_545 S
C706 C712 1.442 . S
H707 C703 0.930 . S
H708 C705 0.929 . S
S709 N710 1.613 . S
S709 N711 1.610 . S
N710 S709 1.613 . S
N710 C713 1.350 . S
N711 S709 1.610 . S
N711 C712 1.351 . S
C712 C706 1.442 . S
C712 N711 1.351 . S
C712 C713 1.434 . S
C713 C704 1.444 . S
C713 N710 1.350 . S
C713 C712 1.434 . S
C714 C715 1.375 . S
C714 C716 1.419 . S
C714 H718 0.930 . S
C715 C714 1.375 . S
C715 C724 1.423 1_455 S
C716 C714 1.419 . S
C716 C717 1.369 . S
C716 H719 0.929 . S
C717 C716 1.369 . S
C717 C723 1.423 1_455 S
H718 C714 0.930 . S
H719 C716 0.929 . S
S720 N721 1.613 . S
S720 N722 1.610 . S
N721 S720 1.613 . S
N721 C724 1.350 . S
N722 S720 1.610 . S
N722 C723 1.351 . S
C723 C717 1.423 1_655 S
C723 N722 1.351 . S
C723 C724 1.434 . S
C724 C715 1.423 1_655 S
C724 N721 1.350 . S
C724 C723 1.434 . S
C725 C726 1.367 1_565 S
C725 C727 1.419 . S
C725 H729 0.930 . S
C726 C725 1.367 1_545 S
C726 C735 1.431 . S
C727 C725 1.419 . S
C727 C728 1.362 1_565 S
C727 H730 0.929 . S
C728 C727 1.362 1_545 S
C728 C734 1.430 . S
H729 C725 0.930 . S
H730 C727 0.929 . S
S731 N732 1.613 . S
S731 N733 1.610 . S
N732 S731 1.613 . S
N732 C735 1.350 . S
N733 S731 1.610 . S
N733 C734 1.351 . S
C734 C728 1.430 . S
C734 N733 1.351 . S
C734 C735 1.434 . S
C735 C726 1.431 . S
C735 N732 1.350 . S
C735 C734 1.434 . S
C736 C737 1.371 . S
C736 C738 1.419 . S
C736 H740 0.930 . S
C737 C736 1.371 . S
C737 C746 1.427 1_455 S
C738 C736 1.419 . S
C738 C739 1.365 . S
C738 H741 0.929 . S
C739 C738 1.365 . S
C739 C745 1.426 1_455 S
H740 C736 0.930 . S
H741 C738 0.929 . S
S742 N743 1.613 . S
S742 N744 1.610 . S
N743 S742 1.613 . S
N743 C746 1.350 . S
N744 S742 1.610 . S
N744 C745 1.351 . S
C745 C739 1.426 1_655 S
C745 N744 1.351 . S
C745 C746 1.434 . S
C746 C737 1.427 1_655 S
C746 N743 1.350 . S
C746 C745 1.434 . S
C747 C748 1.351 1_565 S
C747 C749 1.419 . S
C747 H751 0.930 . S
C748 C747 1.351 1_545 S
C748 C757 1.447 . S
C749 C747 1.419 . S
C749 C750 1.348 1_565 S
C749 H752 0.929 . S
C750 C749 1.348 1_545 S
C750 C756 1.444 . S
H751 C747 0.930 . S
H752 C749 0.929 . S
S753 N754 1.613 . S
S753 N755 1.610 . S
N754 S753 1.613 . S
N754 C757 1.350 . S
N755 S753 1.610 . S
N755 C756 1.351 . S
C756 C750 1.444 . S
C756 N755 1.351 . S
C756 C757 1.434 . S
C757 C748 1.447 . S
C757 N754 1.350 . S
C757 C756 1.434 . S
C758 C759 1.370 . S
C758 C760 1.419 . S
C758 H762 0.930 . S
C759 C758 1.370 . S
C759 C768 1.428 1_455 S
C760 C758 1.419 . S
C760 C761 1.366 . S
C760 H763 0.929 . S
C761 C760 1.366 . S
C761 C767 1.425 1_455 S
H762 C758 0.930 . S
H763 C760 0.929 . S
S764 N765 1.613 . S
S764 N766 1.610 . S
N765 S764 1.613 . S
N765 C768 1.350 . S
N766 S764 1.610 . S
N766 C767 1.351 . S
C767 C761 1.425 1_655 S
C767 N766 1.351 . S
C767 C768 1.434 . S
C768 C759 1.428 1_655 S
C768 N765 1.350 . S
C768 C767 1.434 . S
C769 C770 1.368 1_545 S
C769 C771 1.419 . S
C769 H773 0.930 . S
C770 C769 1.368 1_565 S
C770 C779 1.430 . S
C771 C769 1.419 . S
C771 C772 1.364 1_545 S
C771 H774 0.929 . S
C772 C771 1.364 1_565 S
C772 C778 1.428 . S
H773 C769 0.930 . S
H774 C771 0.929 . S
S775 N776 1.613 . S
S775 N777 1.610 . S
N776 S775 1.613 . S
N776 C779 1.350 . S
N777 S775 1.610 . S
N777 C778 1.351 . S
C778 C772 1.428 . S
C778 N777 1.351 . S
C778 C779 1.434 . S
C779 C770 1.430 . S
C779 N776 1.350 . S
C779 C778 1.434 . S
C780 C781 1.370 . S
C780 C782 1.419 . S
C780 H784 0.930 . S
C781 C780 1.370 . S
C781 C790 1.428 1_455 S
C782 C780 1.419 . S
C782 C783 1.369 . S
C782 H785 0.929 . S
C783 C782 1.369 . S
C783 C789 1.423 1_455 S
H784 C780 0.930 . S
H785 C782 0.929 . S
S786 N787 1.613 . S
S786 N788 1.610 . S
N787 S786 1.613 . S
N787 C790 1.350 . S
N788 S786 1.610 . S
N788 C789 1.351 . S
C789 C783 1.423 1_655 S
C789 N788 1.351 . S
C789 C790 1.434 . S
C790 C781 1.428 1_655 S
C790 N787 1.350 . S
C790 C789 1.434 . S
C791 C792 1.367 1_545 S
C791 C793 1.419 . S
C791 H795 0.930 . S
C792 C791 1.367 1_565 S
C792 C801 1.431 . S
C793 C791 1.419 . S
C793 C794 1.363 1_545 S
C793 H796 0.929 . S
C794 C793 1.363 1_565 S
C794 C800 1.428 . S
H795 C791 0.930 . S
H796 C793 0.929 . S
S797 N798 1.613 . S
S797 N799 1.610 . S
N798 S797 1.613 . S
N798 C801 1.350 . S
N799 S797 1.610 . S
N799 C800 1.351 . S
C800 C794 1.428 . S
C800 N799 1.351 . S
C800 C801 1.434 . S
C801 C792 1.431 . S
C801 N798 1.350 . S
C801 C800 1.434 . S
C802 C803 1.369 1_655 S
C802 C804 1.419 . S
C802 H806 0.930 . S
C803 C802 1.369 1_455 S
C803 C812 1.429 . S
C804 C802 1.419 . S
C804 C805 1.353 1_655 S
C804 H807 0.929 . S
C805 C804 1.353 1_455 S
C805 C811 1.440 . S
H806 C802 0.930 . S
H807 C804 0.929 . S
S808 N809 1.613 . S
S808 N810 1.610 . S
N809 S808 1.613 . S
N809 C812 1.350 . S
N810 S808 1.610 . S
N810 C811 1.351 . S
C811 C805 1.440 . S
C811 N810 1.351 . S
C811 C812 1.434 . S
C812 C803 1.429 . S
C812 N809 1.350 . S
C812 C811 1.434 . S
C813 C814 1.370 1_545 S
C813 C815 1.419 . S
C813 H817 0.930 . S
C814 C813 1.370 1_565 S
C814 C823 1.428 . S
C815 C813 1.419 . S
C815 C816 1.365 1_545 S
C815 H818 0.929 . S
C816 C815 1.365 1_565 S
C816 C822 1.426 . S
H817 C813 0.930 . S
H818 C815 0.929 . S
S819 N820 1.613 . S
S819 N821 1.610 . S
N820 S819 1.613 . S
N820 C823 1.350 . S
N821 S819 1.610 . S
N821 C822 1.351 . S
C822 C816 1.426 . S
C822 N821 1.351 . S
C822 C823 1.434 . S
C823 C814 1.428 . S
C823 N820 1.350 . S
C823 C822 1.434 . S
C824 C825 1.359 1_655 S
C824 C826 1.419 . S
C824 H828 0.930 . S
C825 C824 1.359 1_455 S
C825 C834 1.439 . S
C826 C824 1.419 . S
C826 C827 1.352 1_655 S
C826 H829 0.929 . S
C827 C826 1.352 1_455 S
C827 C833 1.440 . S
H828 C824 0.930 . S
H829 C826 0.929 . S
S830 N831 1.613 . S
S830 N832 1.610 . S
N831 S830 1.613 . S
N831 C834 1.350 . S
N832 S830 1.610 . S
N832 C833 1.351 . S
C833 C827 1.440 . S
C833 N832 1.351 . S
C833 C834 1.434 . S
C834 C825 1.439 . S
C834 N831 1.350 . S
C834 C833 1.434 . S
C835 C836 1.353 1_565 S
C835 C837 1.419 . S
C835 H839 0.930 . S
C836 C835 1.353 1_545 S
C836 C845 1.445 . S
C837 C835 1.419 . S
C837 C838 1.349 1_565 S
C837 H840 0.929 . S
C838 C837 1.349 1_545 S
C838 C844 1.442 . S
H839 C835 0.930 . S
H840 C837 0.929 . S
S841 N842 1.613 . S
S841 N843 1.610 . S
N842 S841 1.613 . S
N842 C845 1.350 . S
N843 S841 1.610 . S
N843 C844 1.351 . S
C844 C838 1.442 . S
C844 N843 1.351 . S
C844 C845 1.434 . S
C845 C836 1.445 . S
C845 N842 1.350 . S
C845 C844 1.434 . S
C846 C847 1.360 1_655 S
C846 C848 1.419 . S
C846 H850 0.930 . S
C847 C846 1.360 1_455 S
C847 C856 1.438 . S
C848 C846 1.419 . S
C848 C849 1.352 1_655 S
C848 H851 0.929 . S
C849 C848 1.352 1_455 S
C849 C855 1.439 . S
H850 C846 0.930 . S
H851 C848 0.929 . S
S852 N853 1.613 . S
S852 N854 1.610 . S
N853 S852 1.613 . S
N853 C856 1.350 . S
N854 S852 1.610 . S
N854 C855 1.351 . S
C855 C849 1.439 . S
C855 N854 1.351 . S
C855 C856 1.434 . S
C856 C847 1.438 . S
C856 N853 1.350 . S
C856 C855 1.434 . S
C857 C858 1.358 1_565 S
C857 C859 1.419 . S
C857 H861 0.930 . S
C858 C857 1.358 1_545 S
C858 C867 1.441 . S
C859 C857 1.419 . S
C859 C860 1.354 1_565 S
C859 H862 0.929 . S
C860 C859 1.354 1_545 S
C860 C866 1.438 . S
H861 C857 0.930 . S
H862 C859 0.929 . S
S863 N864 1.613 . S
S863 N865 1.610 . S
N864 S863 1.613 . S
N864 C867 1.350 . S
N865 S863 1.610 . S
N865 C866 1.351 . S
C866 C860 1.438 . S
C866 N865 1.351 . S
C866 C867 1.434 . S
C867 C858 1.441 . S
C867 N864 1.350 . S
C867 C866 1.434 . S
C868 C869 1.356 1_565 S
C868 C870 1.419 . S
C868 H872 0.930 . S
C869 C868 1.356 1_545 S
C869 C878 1.443 . S
C870 C868 1.419 . S
C870 C871 1.354 1_565 S
C870 H873 0.929 . S
C871 C870 1.354 1_545 S
C871 C877 1.438 . S
H872 C868 0.930 . S
H873 C870 0.929 . S
S874 N875 1.613 . S
S874 N876 1.610 . S
N875 S874 1.613 . S
N875 C878 1.350 . S
N876 S874 1.610 . S
N876 C877 1.351 . S
C877 C871 1.438 . S
C877 N876 1.351 . S
C877 C878 1.434 . S
C878 C869 1.443 . S
C878 N875 1.350 . S
C878 C877 1.434 . S
C879 C880 1.372 . S
C879 C881 1.419 . S
C879 H883 0.930 . S
C880 C879 1.372 . S
C880 C889 1.426 1_455 S
C881 C879 1.419 . S
C881 C882 1.366 . S
C881 H884 0.929 . S
C882 C881 1.366 . S
C882 C888 1.426 1_455 S
H883 C879 0.930 . S
H884 C881 0.929 . S
S885 N886 1.613 . S
S885 N887 1.610 . S
N886 S885 1.613 . S
N886 C889 1.350 . S
N887 S885 1.610 . S
N887 C888 1.351 . S
C888 C882 1.426 1_655 S
C888 N887 1.351 . S
C888 C889 1.434 . S
C889 C880 1.426 1_655 S
C889 N886 1.350 . S
C889 C888 1.434 . S
C890 C891 1.365 1_565 S
C890 C892 1.419 . S
C890 H894 0.930 . S
C891 C890 1.365 1_545 S
C891 C900 1.434 . S
C892 C890 1.419 . S
C892 C893 1.360 1_565 S
C892 H895 0.929 . S
C893 C892 1.360 1_545 S
C893 C899 1.431 . S
H894 C890 0.930 . S
H895 C892 0.929 . S
S896 N897 1.613 . S
S896 N898 1.610 . S
N897 S896 1.613 . S
N897 C900 1.350 . S
N898 S896 1.610 . S
N898 C899 1.351 . S
C899 C893 1.431 . S
C899 N898 1.351 . S
C899 C900 1.434 . S
C900 C891 1.434 . S
C900 N897 1.350 . S
C900 C899 1.434 . S
C901 C902 1.365 1_655 S
C901 C903 1.419 . S
C901 H905 0.930 . S
C902 C901 1.365 1_455 S
C902 C911 1.433 . S
C903 C901 1.419 . S
C903 C904 1.359 1_655 S
C903 H906 0.929 . S
C904 C903 1.359 1_455 S
C904 C910 1.433 . S
H905 C901 0.930 . S
H906 C903 0.929 . S
S907 N908 1.613 . S
S907 N909 1.610 . S
N908 S907 1.613 . S
N908 C911 1.350 . S
N909 S907 1.610 . S
N909 C910 1.351 . S
C910 C904 1.433 . S
C910 N909 1.351 . S
C910 C911 1.434 . S
C911 C902 1.433 . S
C911 N908 1.350 . S
C911 C910 1.434 . S
C912 C913 1.355 1_565 S
C912 C914 1.419 . S
C912 H916 0.930 . S
C913 C912 1.355 1_545 S
C913 C922 1.443 . S
C914 C912 1.419 . S
C914 C915 1.353 1_565 S
C914 H917 0.929 . S
C915 C914 1.353 1_545 S
C915 C921 1.439 . S
H916 C912 0.930 . S
H917 C914 0.929 . S
S918 N919 1.613 . S
S918 N920 1.610 . S
N919 S918 1.613 . S
N919 C922 1.350 . S
N920 S918 1.610 . S
N920 C921 1.351 . S
C921 C915 1.439 . S
C921 N920 1.351 . S
C921 C922 1.434 . S
C922 C913 1.443 . S
C922 N919 1.350 . S
C922 C921 1.434 . S
C923 C924 1.369 1_655 S
C923 C925 1.419 . S
C923 H927 0.930 . S
C924 C923 1.369 1_455 S
C924 C933 1.429 . S
C925 C923 1.419 . S
C925 C926 1.343 1_655 S
C925 H928 0.929 . S
C926 C925 1.343 1_455 S
C926 C932 1.450 . S
H927 C923 0.930 . S
H928 C925 0.929 . S
S929 N930 1.613 . S
S929 N931 1.610 . S
N930 S929 1.613 . S
N930 C933 1.350 . S
N931 S929 1.610 . S
N931 C932 1.351 . S
C932 C926 1.450 . S
C932 N931 1.351 . S
C932 C933 1.434 . S
C933 C924 1.429 . S
C933 N930 1.350 . S
C933 C932 1.434 . S
C934 C935 1.368 1_545 S
C934 C936 1.419 . S
C934 H938 0.930 . S
C935 C934 1.368 1_565 S
C935 C944 1.429 . S
C936 C934 1.419 . S
C936 C937 1.363 1_545 S
C936 H939 0.929 . S
C937 C936 1.363 1_565 S
C937 C943 1.429 . S
H938 C934 0.930 . S
H939 C936 0.929 . S
S940 N941 1.613 . S
S940 N942 1.610 . S
N941 S940 1.613 . S
N941 C944 1.350 . S
N942 S940 1.610 . S
N942 C943 1.351 . S
C943 C937 1.429 . S
C943 N942 1.351 . S
C943 C944 1.434 . S
C944 C935 1.429 . S
C944 N941 1.350 . S
C944 C943 1.434 . S
C945 C946 1.365 1_655 S
C945 C947 1.419 . S
C945 H949 0.930 . S
C946 C945 1.365 1_455 S
C946 C955 1.432 . S
C947 C945 1.419 . S
C947 C948 1.360 1_655 S
C947 H950 0.929 . S
C948 C947 1.360 1_455 S
C948 C954 1.432 . S
H949 C945 0.930 . S
H950 C947 0.929 . S
S951 N952 1.613 . S
S951 N953 1.610 . S
N952 S951 1.613 . S
N952 C955 1.350 . S
N953 S951 1.610 . S
N953 C954 1.351 . S
C954 C948 1.432 . S
C954 N953 1.351 . S
C954 C955 1.434 . S
C955 C946 1.432 . S
C955 N952 1.350 . S
C955 C954 1.434 . S
C956 C957 1.359 1_556 S
C956 C958 1.419 . S
C956 H960 0.930 . S
C957 C956 1.359 1_554 S
C957 C966 1.439 . S
C958 C956 1.419 . S
C958 C959 1.356 1_556 S
C958 H961 0.929 . S
C959 C958 1.356 1_554 S
C959 C965 1.435 . S
H960 C956 0.930 . S
H961 C958 0.929 . S
S962 N963 1.613 . S
S962 N964 1.610 . S
N963 S962 1.613 . S
N963 C966 1.350 . S
N964 S962 1.610 . S
N964 C965 1.351 . S
C965 C959 1.435 . S
C965 N964 1.351 . S
C965 C966 1.434 . S
C966 C957 1.439 . S
C966 N963 1.350 . S
C966 C965 1.434 . S
C967 C968 1.363 1_554 S
C967 C969 1.419 . S
C967 H971 0.930 . S
C968 C967 1.363 1_556 S
C968 C977 1.435 . S
C969 C967 1.419 . S
C969 C970 1.358 1_554 S
C969 H972 0.929 . S
C970 C969 1.358 1_556 S
C970 C976 1.434 . S
H971 C967 0.930 . S
H972 C969 0.929 . S
S973 N974 1.613 . S
S973 N975 1.610 . S
N974 S973 1.613 . S
N974 C977 1.350 . S
N975 S973 1.610 . S
N975 C976 1.351 . S
C976 C970 1.434 . S
C976 N975 1.351 . S
C976 C977 1.434 . S
C977 C968 1.435 . S
C977 N974 1.350 . S
C977 C976 1.434 . S
C978 C979 1.355 1_556 S
C978 C980 1.419 . S
C978 H982 0.930 . S
C979 C978 1.355 1_554 S
C979 C988 1.443 . S
C980 C978 1.419 . S
C980 C981 1.352 1_556 S
C980 H983 0.929 . S
C981 C980 1.352 1_554 S
C981 C987 1.440 . S
H982 C978 0.930 . S
H983 C980 0.929 . S
S984 N985 1.613 . S
S984 N986 1.610 . S
N985 S984 1.613 . S
N985 C988 1.350 . S
N986 S984 1.610 . S
N986 C987 1.351 . S
C987 C981 1.440 . S
C987 N986 1.351 . S
C987 C988 1.434 . S
C988 C979 1.443 . S
C988 N985 1.350 . S
C988 C987 1.434 . S
C989 C990 1.368 1_554 S
C989 C991 1.419 . S
C989 H993 0.930 . S
C990 C989 1.368 1_556 S
C990 C999 1.430 . S
C991 C989 1.419 . S
C991 C992 1.363 1_554 S
C991 H994 0.929 . S
C992 C991 1.363 1_556 S
C992 C998 1.429 . S
H993 C989 0.930 . S
H994 C991 0.929 . S
S995 N996 1.613 . S
S995 N997 1.610 . S
N996 S995 1.613 . S
N996 C999 1.350 . S
N997 S995 1.610 . S
N997 C998 1.351 . S
C998 C992 1.429 . S
C998 N997 1.351 . S
C998 C999 1.434 . S
C999 C990 1.430 . S
C999 N996 1.350 . S
C999 C998 1.434 . S
C1000 C1001 1.358 1_556 S
C1000 C1002 1.419 . S
C1000 H1004 0.930 . S
C1001 C1000 1.358 1_554 S
C1001 C1010 1.440 . S
C1002 C1000 1.419 . S
C1002 C1003 1.353 1_556 S
C1002 H1005 0.929 . S
C1003 C1002 1.353 1_554 S
C1003 C1009 1.439 . S
H1004 C1000 0.930 . S
H1005 C1002 0.929 . S
S1006 N1007 1.613 . S
S1006 N1008 1.610 . S
N1007 S1006 1.613 . S
N1007 C1010 1.350 . S
N1008 S1006 1.610 . S
N1008 C1009 1.351 . S
C1009 C1003 1.439 . S
C1009 N1008 1.351 . S
C1009 C1010 1.434 . S
C1010 C1001 1.440 . S
C1010 N1007 1.350 . S
C1010 C1009 1.434 . S
C1011 C1012 1.367 1_554 S
C1011 C1013 1.419 . S
C1011 H1015 0.930 . S
C1012 C1011 1.367 1_556 S
C1012 C1021 1.431 . S
C1013 C1011 1.419 . S
C1013 C1014 1.361 1_554 S
C1013 H1016 0.929 . S
C1014 C1013 1.361 1_556 S
C1014 C1020 1.431 . S
H1015 C1011 0.930 . S
H1016 C1013 0.929 . S
S1017 N1018 1.613 . S
S1017 N1019 1.610 . S
N1018 S1017 1.613 . S
N1018 C1021 1.350 . S
N1019 S1017 1.610 . S
N1019 C1020 1.351 . S
C1020 C1014 1.431 . S
C1020 N1019 1.351 . S
C1020 C1021 1.434 . S
C1021 C1012 1.431 . S
C1021 N1018 1.350 . S
C1021 C1020 1.434 . S
C1022 C1023 1.370 . S
C1022 C1024 1.419 . S
C1022 H1026 0.930 . S
C1023 C1022 1.370 . S
C1023 C1032 1.428 1_554 S
C1024 C1022 1.419 . S
C1024 C1025 1.364 . S
C1024 H1027 0.929 . S
C1025 C1024 1.364 . S
C1025 C1031 1.427 1_554 S
H1026 C1022 0.930 . S
H1027 C1024 0.929 . S
S1028 N1029 1.613 . S
S1028 N1030 1.610 . S
N1029 S1028 1.613 . S
N1029 C1032 1.350 . S
N1030 S1028 1.610 . S
N1030 C1031 1.351 . S
C1031 C1025 1.427 1_556 S
C1031 N1030 1.351 . S
C1031 C1032 1.434 . S
C1032 C1023 1.428 1_556 S
C1032 N1029 1.350 . S
C1032 C1031 1.434 . S
C1033 C1034 1.370 . S
C1033 C1035 1.419 . S
C1033 H1037 0.930 . S
C1034 C1033 1.370 . S
C1034 C1043 1.428 1_554 S
C1035 C1033 1.419 . S
C1035 C1036 1.364 . S
C1035 H1038 0.929 . S
C1036 C1035 1.364 . S
C1036 C1042 1.428 1_554 S
H1037 C1033 0.930 . S
H1038 C1035 0.929 . S
S1039 N1040 1.613 . S
S1039 N1041 1.610 . S
N1040 S1039 1.613 . S
N1040 C1043 1.350 . S
N1041 S1039 1.610 . S
N1041 C1042 1.351 . S
C1042 C1036 1.428 1_556 S
C1042 N1041 1.351 . S
C1042 C1043 1.434 . S
C1043 C1034 1.428 1_556 S
C1043 N1040 1.350 . S
C1043 C1042 1.434 . S
C1044 C1045 1.369 . S
C1044 C1046 1.419 . S
C1044 H1048 0.930 . S
C1045 C1044 1.369 . S
C1045 C1054 1.429 . S
C1046 C1044 1.419 . S
C1046 C1047 1.363 . S
C1046 H1049 0.929 . S
C1047 C1046 1.363 . S
C1047 C1053 1.428 . S
H1048 C1044 0.930 . S
H1049 C1046 0.929 . S
S1050 N1051 1.613 . S
S1050 N1052 1.610 . S
N1051 S1050 1.613 . S
N1051 C1054 1.350 . S
N1052 S1050 1.610 . S
N1052 C1053 1.351 . S
C1053 C1047 1.428 . S
C1053 N1052 1.351 . S
C1053 C1054 1.434 . S
C1054 C1045 1.429 . S
C1054 N1051 1.350 . S
C1054 C1053 1.434 . S
C1055 C1056 1.369 . S
C1055 C1057 1.419 . S
C1055 H1059 0.930 . S
C1056 C1055 1.369 . S
C1056 C1065 1.429 . S
C1057 C1055 1.419 . S
C1057 C1058 1.363 . S
C1057 H1060 0.929 . S
C1058 C1057 1.363 . S
C1058 C1064 1.428 . S
H1059 C1055 0.930 . S
H1060 C1057 0.929 . S
S1061 N1062 1.613 . S
S1061 N1063 1.610 . S
N1062 S1061 1.613 . S
N1062 C1065 1.350 . S
N1063 S1061 1.610 . S
N1063 C1064 1.351 . S
C1064 C1058 1.428 . S
C1064 N1063 1.351 . S
C1064 C1065 1.434 . S
C1065 C1056 1.429 . S
C1065 N1062 1.350 . S
C1065 C1064 1.434 . S
C1066 C1067 1.369 . S
C1066 C1068 1.419 . S
C1066 H1070 0.930 . S
C1067 C1066 1.369 . S
C1067 C1076 1.429 . S
C1068 C1066 1.419 . S
C1068 C1069 1.363 . S
C1068 H1071 0.929 . S
C1069 C1068 1.363 . S
C1069 C1075 1.428 . S
H1070 C1066 0.930 . S
H1071 C1068 0.929 . S
S1072 N1073 1.613 . S
S1072 N1074 1.610 . S
N1073 S1072 1.613 . S
N1073 C1076 1.350 . S
N1074 S1072 1.610 . S
N1074 C1075 1.351 . S
C1075 C1069 1.428 . S
C1075 N1074 1.351 . S
C1075 C1076 1.434 . S
C1076 C1067 1.429 . S
C1076 N1073 1.350 . S
C1076 C1075 1.434 . S
C1077 C1078 1.369 . S
C1077 C1079 1.419 . S
C1077 H1081 0.930 . S
C1078 C1077 1.369 . S
C1078 C1087 1.429 . S
C1079 C1077 1.419 . S
C1079 C1080 1.363 . S
C1079 H1082 0.929 . S
C1080 C1079 1.363 . S
C1080 C1086 1.428 . S
H1081 C1077 0.930 . S
H1082 C1079 0.929 . S
S1083 N1084 1.613 . S
S1083 N1085 1.610 . S
N1084 S1083 1.613 . S
N1084 C1087 1.350 . S
N1085 S1083 1.610 . S
N1085 C1086 1.351 . S
C1086 C1080 1.428 . S
C1086 N1085 1.351 . S
C1086 C1087 1.434 . S
C1087 C1078 1.429 . S
C1087 N1084 1.350 . S
C1087 C1086 1.434 . S
C1088 C1089 1.369 . S
C1088 C1090 1.419 . S
C1088 H1092 0.930 . S
C1089 C1088 1.369 . S
C1089 C1098 1.429 . S
C1090 C1088 1.419 . S
C1090 C1091 1.363 . S
C1090 H1093 0.929 . S
C1091 C1090 1.363 . S
C1091 C1097 1.428 . S
H1092 C1088 0.930 . S
H1093 C1090 0.929 . S
S1094 N1095 1.613 . S
S1094 N1096 1.610 . S
N1095 S1094 1.613 . S
N1095 C1098 1.350 . S
N1096 S1094 1.610 . S
N1096 C1097 1.351 . S
C1097 C1091 1.428 . S
C1097 N1096 1.351 . S
C1097 C1098 1.434 . S
C1098 C1089 1.429 . S
C1098 N1095 1.350 . S
C1098 C1097 1.434 . S
C1099 C1100 1.369 . S
C1099 C1101 1.419 . S
C1099 H1103 0.930 . S
C1100 C1099 1.369 . S
C1100 C1109 1.429 . S
C1101 C1099 1.419 . S
C1101 C1102 1.363 . S
C1101 H1104 0.929 . S
C1102 C1101 1.363 . S
C1102 C1108 1.428 . S
H1103 C1099 0.930 . S
H1104 C1101 0.929 . S
S1105 N1106 1.613 . S
S1105 N1107 1.610 . S
N1106 S1105 1.613 . S
N1106 C1109 1.350 . S
N1107 S1105 1.610 . S
N1107 C1108 1.351 . S
C1108 C1102 1.428 . S
C1108 N1107 1.351 . S
C1108 C1109 1.434 . S
C1109 C1100 1.429 . S
C1109 N1106 1.350 . S
C1109 C1108 1.434 . S
C1110 C1111 1.369 . S
C1110 C1112 1.419 . S
C1110 H1114 0.930 . S
C1111 C1110 1.369 . S
C1111 C1120 1.429 . S
C1112 C1110 1.419 . S
C1112 C1113 1.363 . S
C1112 H1115 0.929 . S
C1113 C1112 1.363 . S
C1113 C1119 1.428 . S
H1114 C1110 0.930 . S
H1115 C1112 0.929 . S
S1116 N1117 1.613 . S
S1116 N1118 1.610 . S
N1117 S1116 1.613 . S
N1117 C1120 1.350 . S
N1118 S1116 1.610 . S
N1118 C1119 1.351 . S
C1119 C1113 1.428 . S
C1119 N1118 1.351 . S
C1119 C1120 1.434 . S
C1120 C1111 1.429 . S
C1120 N1117 1.350 . S
C1120 C1119 1.434 . S
C1121 C1122 1.369 . S
C1121 C1123 1.419 . S
C1121 H1125 0.930 . S
C1122 C1121 1.369 . S
C1122 C1131 1.429 . S
C1123 C1121 1.419 . S
C1123 C1124 1.363 . S
C1123 H1126 0.929 . S
C1124 C1123 1.363 . S
C1124 C1130 1.428 . S
H1125 C1121 0.930 . S
H1126 C1123 0.929 . S
S1127 N1128 1.613 . S
S1127 N1129 1.610 . S
N1128 S1127 1.613 . S
N1128 C1131 1.350 . S
N1129 S1127 1.610 . S
N1129 C1130 1.351 . S
C1130 C1124 1.428 . S
C1130 N1129 1.351 . S
C1130 C1131 1.434 . S
C1131 C1122 1.429 . S
C1131 N1128 1.350 . S
C1131 C1130 1.434 . S
C1132 C1133 1.369 . S
C1132 C1134 1.419 . S
C1132 H1136 0.930 . S
C1133 C1132 1.369 . S
C1133 C1142 1.429 . S
C1134 C1132 1.419 . S
C1134 C1135 1.363 . S
C1134 H1137 0.929 . S
C1135 C1134 1.363 . S
C1135 C1141 1.428 . S
H1136 C1132 0.930 . S
H1137 C1134 0.929 . S
S1138 N1139 1.613 . S
S1138 N1140 1.610 . S
N1139 S1138 1.613 . S
N1139 C1142 1.350 . S
N1140 S1138 1.610 . S
N1140 C1141 1.351 . S
C1141 C1135 1.428 . S
C1141 N1140 1.351 . S
C1141 C1142 1.434 . S
C1142 C1133 1.429 . S
C1142 N1139 1.350 . S
C1142 C1141 1.434 . S
C1143 C1144 1.369 . S
C1143 C1145 1.419 . S
C1143 H1147 0.930 . S
C1144 C1143 1.369 . S
C1144 C1153 1.429 . S
C1145 C1143 1.419 . S
C1145 C1146 1.363 . S
C1145 H1148 0.929 . S
C1146 C1145 1.363 . S
C1146 C1152 1.428 . S
H1147 C1143 0.930 . S
H1148 C1145 0.929 . S
S1149 N1150 1.613 . S
S1149 N1151 1.610 . S
N1150 S1149 1.613 . S
N1150 C1153 1.350 . S
N1151 S1149 1.610 . S
N1151 C1152 1.351 . S
C1152 C1146 1.428 . S
C1152 N1151 1.351 . S
C1152 C1153 1.434 . S
C1153 C1144 1.429 . S
C1153 N1150 1.350 . S
C1153 C1152 1.434 . S
C1154 C1155 1.369 . S
C1154 C1156 1.419 . S
C1154 H1158 0.930 . S
C1155 C1154 1.369 . S
C1155 C1164 1.429 . S
C1156 C1154 1.419 . S
C1156 C1157 1.363 . S
C1156 H1159 0.929 . S
C1157 C1156 1.363 . S
C1157 C1163 1.428 . S
H1158 C1154 0.930 . S
H1159 C1156 0.929 . S
S1160 N1161 1.613 . S
S1160 N1162 1.610 . S
N1161 S1160 1.613 . S
N1161 C1164 1.350 . S
N1162 S1160 1.610 . S
N1162 C1163 1.351 . S
C1163 C1157 1.428 . S
C1163 N1162 1.351 . S
C1163 C1164 1.434 . S
C1164 C1155 1.429 . S
C1164 N1161 1.350 . S
C1164 C1163 1.434 . S
C1165 C1166 1.369 . S
C1165 C1167 1.419 . S
C1165 H1169 0.930 . S
C1166 C1165 1.369 . S
C1166 C1175 1.429 . S
C1167 C1165 1.419 . S
C1167 C1168 1.363 . S
C1167 H1170 0.929 . S
C1168 C1167 1.363 . S
C1168 C1174 1.428 . S
H1169 C1165 0.930 . S
H1170 C1167 0.929 . S
S1171 N1172 1.613 . S
S1171 N1173 1.610 . S
N1172 S1171 1.613 . S
N1172 C1175 1.350 . S
N1173 S1171 1.610 . S
N1173 C1174 1.351 . S
C1174 C1168 1.428 . S
C1174 N1173 1.351 . S
C1174 C1175 1.434 . S
C1175 C1166 1.429 . S
C1175 N1172 1.350 . S
C1175 C1174 1.434 . S
C1176 C1177 1.369 . S
C1176 C1178 1.419 . S
C1176 H1180 0.930 . S
C1177 C1176 1.369 . S
C1177 C1186 1.429 . S
C1178 C1176 1.419 . S
C1178 C1179 1.363 . S
C1178 H1181 0.929 . S
C1179 C1178 1.363 . S
C1179 C1185 1.428 . S
H1180 C1176 0.930 . S
H1181 C1178 0.929 . S
S1182 N1183 1.613 . S
S1182 N1184 1.610 . S
N1183 S1182 1.613 . S
N1183 C1186 1.350 . S
N1184 S1182 1.610 . S
N1184 C1185 1.351 . S
C1185 C1179 1.428 . S
C1185 N1184 1.351 . S
C1185 C1186 1.434 . S
C1186 C1177 1.429 . S
C1186 N1183 1.350 . S
C1186 C1185 1.434 . S
C1187 C1188 1.369 . S
C1187 C1189 1.419 . S
C1187 H1191 0.930 . S
C1188 C1187 1.369 . S
C1188 C1197 1.429 . S
C1189 C1187 1.419 . S
C1189 C1190 1.363 . S
C1189 H1192 0.929 . S
C1190 C1189 1.363 . S
C1190 C1196 1.428 . S
H1191 C1187 0.930 . S
H1192 C1189 0.929 . S
S1193 N1194 1.613 . S
S1193 N1195 1.610 . S
N1194 S1193 1.613 . S
N1194 C1197 1.350 . S
N1195 S1193 1.610 . S
N1195 C1196 1.351 . S
C1196 C1190 1.428 . S
C1196 N1195 1.351 . S
C1196 C1197 1.434 . S
C1197 C1188 1.429 . S
C1197 N1194 1.350 . S
C1197 C1196 1.434 . S
C1198 C1199 1.369 . S
C1198 C1200 1.419 . S
C1198 H1202 0.930 . S
C1199 C1198 1.369 . S
C1199 C1208 1.429 . S
C1200 C1198 1.419 . S
C1200 C1201 1.363 . S
C1200 H1203 0.929 . S
C1201 C1200 1.363 . S
C1201 C1207 1.428 . S
H1202 C1198 0.930 . S
H1203 C1200 0.929 . S
S1204 N1205 1.613 . S
S1204 N1206 1.610 . S
N1205 S1204 1.613 . S
N1205 C1208 1.350 . S
N1206 S1204 1.610 . S
N1206 C1207 1.351 . S
C1207 C1201 1.428 . S
C1207 N1206 1.351 . S
C1207 C1208 1.434 . S
C1208 C1199 1.429 . S
C1208 N1205 1.350 . S
C1208 C1207 1.434 . S
C1209 C1210 1.369 . S
C1209 C1211 1.419 . S
C1209 H1213 0.930 . S
C1210 C1209 1.369 . S
C1210 C1219 1.429 . S
C1211 C1209 1.419 . S
C1211 C1212 1.363 . S
C1211 H1214 0.929 . S
C1212 C1211 1.363 . S
C1212 C1218 1.428 . S
H1213 C1209 0.930 . S
H1214 C1211 0.929 . S
S1215 N1216 1.613 . S
S1215 N1217 1.610 . S
N1216 S1215 1.613 . S
N1216 C1219 1.350 . S
N1217 S1215 1.610 . S
N1217 C1218 1.351 . S
C1218 C1212 1.428 . S
C1218 N1217 1.351 . S
C1218 C1219 1.434 . S
C1219 C1210 1.429 . S
C1219 N1216 1.350 . S
C1219 C1218 1.434 . S
C1220 C1221 1.369 . S
C1220 C1222 1.419 . S
C1220 H1224 0.930 . S
C1221 C1220 1.369 . S
C1221 C1230 1.429 . S
C1222 C1220 1.419 . S
C1222 C1223 1.363 . S
C1222 H1225 0.929 . S
C1223 C1222 1.363 . S
C1223 C1229 1.428 . S
H1224 C1220 0.930 . S
H1225 C1222 0.929 . S
S1226 N1227 1.613 . S
S1226 N1228 1.610 . S
N1227 S1226 1.613 . S
N1227 C1230 1.350 . S
N1228 S1226 1.610 . S
N1228 C1229 1.351 . S
C1229 C1223 1.428 . S
C1229 N1228 1.351 . S
C1229 C1230 1.434 . S
C1230 C1221 1.429 . S
C1230 N1227 1.350 . S
C1230 C1229 1.434 . S
C1231 C1232 1.369 . S
C1231 C1233 1.419 . S
C1231 H1235 0.930 . S
C1232 C1231 1.369 . S
C1232 C1241 1.429 . S
C1233 C1231 1.419 . S
C1233 C1234 1.363 . S
C1233 H1236 0.929 . S
C1234 C1233 1.363 . S
C1234 C1240 1.428 . S
H1235 C1231 0.930 . S
H1236 C1233 0.929 . S
S1237 N1238 1.613 . S
S1237 N1239 1.610 . S
N1238 S1237 1.613 . S
N1238 C1241 1.350 . S
N1239 S1237 1.610 . S
N1239 C1240 1.351 . S
C1240 C1234 1.428 . S
C1240 N1239 1.351 . S
C1240 C1241 1.434 . S
C1241 C1232 1.429 . S
C1241 N1238 1.350 . S
C1241 C1240 1.434 . S
C1242 C1243 1.369 . S
C1242 C1244 1.419 . S
C1242 H1246 0.930 . S
C1243 C1242 1.369 . S
C1243 C1252 1.429 . S
C1244 C1242 1.419 . S
C1244 C1245 1.363 . S
C1244 H1247 0.929 . S
C1245 C1244 1.363 . S
C1245 C1251 1.428 . S
H1246 C1242 0.930 . S
H1247 C1244 0.929 . S
S1248 N1249 1.613 . S
S1248 N1250 1.610 . S
N1249 S1248 1.613 . S
N1249 C1252 1.350 . S
N1250 S1248 1.610 . S
N1250 C1251 1.351 . S
C1251 C1245 1.428 . S
C1251 N1250 1.351 . S
C1251 C1252 1.434 . S
C1252 C1243 1.429 . S
C1252 N1249 1.350 . S
C1252 C1251 1.434 . S
C1253 C1254 1.369 . S
C1253 C1255 1.419 . S
C1253 H1257 0.930 . S
C1254 C1253 1.369 . S
C1254 C1263 1.429 . S
C1255 C1253 1.419 . S
C1255 C1256 1.363 . S
C1255 H1258 0.929 . S
C1256 C1255 1.363 . S
C1256 C1262 1.428 . S
H1257 C1253 0.930 . S
H1258 C1255 0.929 . S
S1259 N1260 1.613 . S
S1259 N1261 1.610 . S
N1260 S1259 1.613 . S
N1260 C1263 1.350 . S
N1261 S1259 1.610 . S
N1261 C1262 1.351 . S
C1262 C1256 1.428 . S
C1262 N1261 1.351 . S
C1262 C1263 1.434 . S
C1263 C1254 1.429 . S
C1263 N1260 1.350 . S
C1263 C1262 1.434 . S
C1264 C1265 1.369 . S
C1264 C1266 1.419 . S
C1264 H1268 0.930 . S
C1265 C1264 1.369 . S
C1265 C1274 1.429 . S
C1266 C1264 1.419 . S
C1266 C1267 1.363 . S
C1266 H1269 0.929 . S
C1267 C1266 1.363 . S
C1267 C1273 1.428 . S
H1268 C1264 0.930 . S
H1269 C1266 0.929 . S
S1270 N1271 1.613 . S
S1270 N1272 1.610 . S
N1271 S1270 1.613 . S
N1271 C1274 1.350 . S
N1272 S1270 1.610 . S
N1272 C1273 1.351 . S
C1273 C1267 1.428 . S
C1273 N1272 1.351 . S
C1273 C1274 1.434 . S
C1274 C1265 1.429 . S
C1274 N1271 1.350 . S
C1274 C1273 1.434 . S
C1275 C1276 1.369 . S
C1275 C1277 1.419 . S
C1275 H1279 0.930 . S
C1276 C1275 1.369 . S
C1276 C1285 1.429 . S
C1277 C1275 1.419 . S
C1277 C1278 1.363 . S
C1277 H1280 0.929 . S
C1278 C1277 1.363 . S
C1278 C1284 1.428 . S
H1279 C1275 0.930 . S
H1280 C1277 0.929 . S
S1281 N1282 1.613 . S
S1281 N1283 1.610 . S
N1282 S1281 1.613 . S
N1282 C1285 1.350 . S
N1283 S1281 1.610 . S
N1283 C1284 1.351 . S
C1284 C1278 1.428 . S
C1284 N1283 1.351 . S
C1284 C1285 1.434 . S
C1285 C1276 1.429 . S
C1285 N1282 1.350 . S
C1285 C1284 1.434 . S
C1286 C1287 1.369 . S
C1286 C1288 1.419 . S
C1286 H1290 0.930 . S
C1287 C1286 1.369 . S
C1287 C1296 1.429 . S
C1288 C1286 1.419 . S
C1288 C1289 1.363 . S
C1288 H1291 0.929 . S
C1289 C1288 1.363 . S
C1289 C1295 1.428 . S
H1290 C1286 0.930 . S
H1291 C1288 0.929 . S
S1292 N1293 1.613 . S
S1292 N1294 1.610 . S
N1293 S1292 1.613 . S
N1293 C1296 1.350 . S
N1294 S1292 1.610 . S
N1294 C1295 1.351 . S
C1295 C1289 1.428 . S
C1295 N1294 1.351 . S
C1295 C1296 1.434 . S
C1296 C1287 1.429 . S
C1296 N1293 1.350 . S
C1296 C1295 1.434 . S
C1297 C1298 1.369 . S
C1297 C1299 1.419 . S
C1297 H1301 0.930 . S
C1298 C1297 1.369 . S
C1298 C1307 1.429 . S
C1299 C1297 1.419 . S
C1299 C1300 1.363 . S
C1299 H1302 0.929 . S
C1300 C1299 1.363 . S
C1300 C1306 1.428 . S
H1301 C1297 0.930 . S
H1302 C1299 0.929 . S
S1303 N1304 1.613 . S
S1303 N1305 1.610 . S
N1304 S1303 1.613 . S
N1304 C1307 1.350 . S
N1305 S1303 1.610 . S
N1305 C1306 1.351 . S
C1306 C1300 1.428 . S
C1306 N1305 1.351 . S
C1306 C1307 1.434 . S
C1307 C1298 1.429 . S
C1307 N1304 1.350 . S
C1307 C1306 1.434 . S
C519 C222 1.223 . S
C517 C212 1.223 . S
C528 C194 1.226 . S
C530 C220 1.225 . S
C541 C221 1.225 . S
C539 C185 1.225 . S
C550 C203 1.222 . S
C552 C223 1.223 . S
C563 C267 1.225 . S
C561 C149 1.225 . S
C574 C327 1.226 . S
C572 C158 1.225 . S
C583 C167 1.222 . S
C585 C266 1.223 . S
C596 C326 1.228 . S
C594 C176 1.228 . S
C605 C113 1.222 . S
C607 C268 1.223 . S
C618 C324 1.225 . S
C616 C122 1.226 . S
C627 C131 1.225 . S
C629 C269 1.225 . S
C638 C140 1.223 . S
C640 C325 1.223 . S
C651 C375 1.222 . S
C649 C104 1.221 . S
C660 C86 1.224 1_554 S
C662 C374 1.224 . S
C671 C77 1.227 . S
C673 C376 1.227 . S
C684 C377 1.224 . S
C682 C95 1.224 1_554 S
C693 C41 1.222 . S
C695 C418 1.222 . S
C704 C50 1.223 1_545 S
C706 C477 1.224 . S
C715 C59 1.222 . S
C717 C416 1.223 . S
C726 C68 1.226 1_545 S
C728 C476 1.226 . S
C739 C417 1.225 . S
C737 C5 1.225 . S
C750 C474 1.226 . S
C748 C14 1.226 . S
C759 C23 1.225 . S
C761 C419 1.225 . S
C772 C475 1.224 1_565 S
C770 C32 1.224 1_565 S
C783 C219 1.590 . S
C781 C4 1.514 . S
C792 C16 1.505 1_565 S
C794 C225 1.589 1_565 S
C803 C22 1.518 . S
C805 C217 1.590 . S
C814 C31 1.521 1_565 S
C816 C224 1.592 1_565 S
C825 C40 1.518 . S
C827 C216 1.589 . S
C838 C226 1.593 . S
C836 C49 1.517 1_545 S
C847 C61 1.493 . S
C849 C218 1.586 . S
C860 C227 1.589 . S
C858 C70 1.505 1_545 S
C871 C273 1.589 . S
C869 C34 1.500 . S
C880 C7 1.507 . S
C882 C316 1.587 . S
C893 C271 1.593 . S
C891 C13 1.521 . S
C904 C318 1.587 . S
C902 C25 1.506 . S
C913 C52 1.499 1_545 S
C915 C272 1.589 . S
C926 C317 1.590 . S
C924 C58 1.515 . S
C937 C270 1.593 1_565 S
C935 C67 1.521 . S
C948 C319 1.587 . S
C946 C43 1.494 . S
C959 C323 1.594 . S
C957 C76 1.516 1_554 S
C968 C88 1.503 . S
C970 C322 1.589 1_556 S
C981 C274 1.587 . S
C979 C79 1.500 1_554 S
C992 C321 1.588 1_556 S
C990 C97 1.496 . S
C1001 C103 1.509 . S
C1003 C277 1.590 . S
C1012 C106 1.495 1_556 S
C1014 C320 1.587 1_556 S
C1025 C276 1.590 . S
C1023 C85 1.507 1_554 S
C1036 C275 1.592 . S
C1034 C94 1.509 1_554 S
C1047 C369 1.589 . S
C1045 C112 1.509 . S
C1058 C372 1.589 . S
C1056 C124 1.508 . S
C1067 C133 1.506 . S
C1069 C368 1.587 . S
C1080 C370 1.593 . S
C1078 C139 1.517 . S
C1091 C366 1.590 . S
C1089 C148 1.519 . S
C1100 C157 1.514 . S
C1102 C371 1.594 . S
C1111 C169 1.502 . S
C1113 C367 1.584 . S
C1124 C373 1.590 . S
C1122 C178 1.502 . S
C1135 C427 1.587 . S
C1133 C142 1.500 . S
C1144 C115 1.495 . S
C1146 C466 1.588 . S
C1157 C426 1.593 . S
C1155 C121 1.513 . S
C1168 C468 1.590 . S
C1166 C130 1.520 . S
C1179 C425 1.589 . S
C1177 C160 1.507 . S
C1188 C166 1.511 . S
C1190 C467 1.592 . S
C1201 C424 1.595 . S
C1199 C175 1.519 . S
C1212 C469 1.589 . S
C1210 C151 1.496 . S
C1223 C473 1.593 . S
C1221 C184 1.522 . S
C1232 C196 1.506 . S
C1234 C472 1.588 . S
C1245 C420 1.585 . S
C1243 C187 1.504 . S
C1254 C205 1.505 . S
C1256 C471 1.586 . S
C1267 C423 1.590 . S
C1265 C211 1.519 . S
C1278 C470 1.585 . S
C1276 C214 1.503 . S
C1289 C421 1.591 . S
C1287 C193 1.512 . S
C1298 C202 1.509 . S
C1300 C422 1.591 . S
