# Generated by pormake.
# Topology ctn, (3,4)-cn, num edge types: 1
# Building blocks:
#     Node 0, Type 0, BuildingBlock: QEWDON_clean_linker_0, # of connection points: 3
#     Node 1, Type 0, BuildingBlock: QEWDON_clean_linker_0, # of connection points: 3
#     Node 2, Type 0, BuildingBlock: QEWDON_clean_linker_0, # of connection points: 3
#     Node 3, Type 0, BuildingBlock: QEWDON_clean_linker_0, # of connection points: 3
#     Node 4, Type 0, BuildingBlock: QEWDON_clean_linker_0, # of connection points: 3
#     Node 5, Type 0, BuildingBlock: QEWDON_clean_linker_0, # of connection points: 3
#     Node 6, Type 0, BuildingBlock: QEWDON_clean_linker_0, # of connection points: 3
#     Node 7, Type 0, BuildingBlock: QEWDON_clean_linker_0, # of connection points: 3
#     Node 8, Type 0, BuildingBlock: QEWDON_clean_linker_0, # of connection points: 3
#     Node 9, Type 0, BuildingBlock: QEWDON_clean_linker_0, # of connection points: 3
#     Node 10, Type 0, BuildingBlock: QEWDON_clean_linker_0, # of connection points: 3
#     Node 11, Type 0, BuildingBlock: QEWDON_clean_linker_0, # of connection points: 3
#     Node 12, Type 0, BuildingBlock: QEWDON_clean_linker_0, # of connection points: 3
#     Node 13, Type 0, BuildingBlock: QEWDON_clean_linker_0, # of connection points: 3
#     Node 14, Type 0, BuildingBlock: QEWDON_clean_linker_0, # of connection points: 3
#     Node 15, Type 0, BuildingBlock: QEWDON_clean_linker_0, # of connection points: 3
#     Node 16, Type 1, BuildingBlock: NAHDIM_clean_sbu_0, # of connection points: 4
#     Node 17, Type 1, BuildingBlock: NAHDIM_clean_sbu_0, # of connection points: 4
#     Node 18, Type 1, BuildingBlock: NAHDIM_clean_sbu_0, # of connection points: 4
#     Node 19, Type 1, BuildingBlock: NAHDIM_clean_sbu_0, # of connection points: 4
#     Node 20, Type 1, BuildingBlock: NAHDIM_clean_sbu_0, # of connection points: 4
#     Node 21, Type 1, BuildingBlock: NAHDIM_clean_sbu_0, # of connection points: 4
#     Node 22, Type 1, BuildingBlock: NAHDIM_clean_sbu_0, # of connection points: 4
#     Node 23, Type 1, BuildingBlock: NAHDIM_clean_sbu_0, # of connection points: 4
#     Node 24, Type 1, BuildingBlock: NAHDIM_clean_sbu_0, # of connection points: 4
#     Node 25, Type 1, BuildingBlock: NAHDIM_clean_sbu_0, # of connection points: 4
#     Node 26, Type 1, BuildingBlock: NAHDIM_clean_sbu_0, # of connection points: 4
#     Node 27, Type 1, BuildingBlock: NAHDIM_clean_sbu_0, # of connection points: 4
#     Edge 28, Type (0, 1), BuildingBlock: OJICUG_clean_linker_0, # of connection points: 2
#     Edge 29, Type (0, 1), BuildingBlock: OJICUG_clean_linker_0, # of connection points: 2
#     Edge 30, Type (0, 1), BuildingBlock: OJICUG_clean_linker_0, # of connection points: 2
#     Edge 31, Type (0, 1), BuildingBlock: OJICUG_clean_linker_0, # of connection points: 2
#     Edge 32, Type (0, 1), BuildingBlock: OJICUG_clean_linker_0, # of connection points: 2
#     Edge 33, Type (0, 1), BuildingBlock: OJICUG_clean_linker_0, # of connection points: 2
#     Edge 34, Type (0, 1), BuildingBlock: OJICUG_clean_linker_0, # of connection points: 2
#     Edge 35, Type (0, 1), BuildingBlock: OJICUG_clean_linker_0, # of connection points: 2
#     Edge 36, Type (0, 1), BuildingBlock: OJICUG_clean_linker_0, # of connection points: 2
#     Edge 37, Type (0, 1), BuildingBlock: OJICUG_clean_linker_0, # of connection points: 2
#     Edge 38, Type (0, 1), BuildingBlock: OJICUG_clean_linker_0, # of connection points: 2
#     Edge 39, Type (0, 1), BuildingBlock: OJICUG_clean_linker_0, # of connection points: 2
#     Edge 40, Type (0, 1), BuildingBlock: OJICUG_clean_linker_0, # of connection points: 2
#     Edge 41, Type (0, 1), BuildingBlock: OJICUG_clean_linker_0, # of connection points: 2
#     Edge 42, Type (0, 1), BuildingBlock: OJICUG_clean_linker_0, # of connection points: 2
#     Edge 43, Type (0, 1), BuildingBlock: OJICUG_clean_linker_0, # of connection points: 2
#     Edge 44, Type (0, 1), BuildingBlock: OJICUG_clean_linker_0, # of connection points: 2
#     Edge 45, Type (0, 1), BuildingBlock: OJICUG_clean_linker_0, # of connection points: 2
#     Edge 46, Type (0, 1), BuildingBlock: OJICUG_clean_linker_0, # of connection points: 2
#     Edge 47, Type (0, 1), BuildingBlock: OJICUG_clean_linker_0, # of connection points: 2
#     Edge 48, Type (0, 1), BuildingBlock: OJICUG_clean_linker_0, # of connection points: 2
#     Edge 49, Type (0, 1), BuildingBlock: OJICUG_clean_linker_0, # of connection points: 2
#     Edge 50, Type (0, 1), BuildingBlock: OJICUG_clean_linker_0, # of connection points: 2
#     Edge 51, Type (0, 1), BuildingBlock: OJICUG_clean_linker_0, # of connection points: 2
#     Edge 52, Type (0, 1), BuildingBlock: OJICUG_clean_linker_0, # of connection points: 2
#     Edge 53, Type (0, 1), BuildingBlock: OJICUG_clean_linker_0, # of connection points: 2
#     Edge 54, Type (0, 1), BuildingBlock: OJICUG_clean_linker_0, # of connection points: 2
#     Edge 55, Type (0, 1), BuildingBlock: OJICUG_clean_linker_0, # of connection points: 2
#     Edge 56, Type (0, 1), BuildingBlock: OJICUG_clean_linker_0, # of connection points: 2
#     Edge 57, Type (0, 1), BuildingBlock: OJICUG_clean_linker_0, # of connection points: 2
#     Edge 58, Type (0, 1), BuildingBlock: OJICUG_clean_linker_0, # of connection points: 2
#     Edge 59, Type (0, 1), BuildingBlock: OJICUG_clean_linker_0, # of connection points: 2
#     Edge 60, Type (0, 1), BuildingBlock: OJICUG_clean_linker_0, # of connection points: 2
#     Edge 61, Type (0, 1), BuildingBlock: OJICUG_clean_linker_0, # of connection points: 2
#     Edge 62, Type (0, 1), BuildingBlock: OJICUG_clean_linker_0, # of connection points: 2
#     Edge 63, Type (0, 1), BuildingBlock: OJICUG_clean_linker_0, # of connection points: 2
#     Edge 64, Type (0, 1), BuildingBlock: OJICUG_clean_linker_0, # of connection points: 2
#     Edge 65, Type (0, 1), BuildingBlock: OJICUG_clean_linker_0, # of connection points: 2
#     Edge 66, Type (0, 1), BuildingBlock: OJICUG_clean_linker_0, # of connection points: 2
#     Edge 67, Type (0, 1), BuildingBlock: OJICUG_clean_linker_0, # of connection points: 2
#     Edge 68, Type (0, 1), BuildingBlock: OJICUG_clean_linker_0, # of connection points: 2
#     Edge 69, Type (0, 1), BuildingBlock: OJICUG_clean_linker_0, # of connection points: 2
#     Edge 70, Type (0, 1), BuildingBlock: OJICUG_clean_linker_0, # of connection points: 2
#     Edge 71, Type (0, 1), BuildingBlock: OJICUG_clean_linker_0, # of connection points: 2
#     Edge 72, Type (0, 1), BuildingBlock: OJICUG_clean_linker_0, # of connection points: 2
#     Edge 73, Type (0, 1), BuildingBlock: OJICUG_clean_linker_0, # of connection points: 2
#     Edge 74, Type (0, 1), BuildingBlock: OJICUG_clean_linker_0, # of connection points: 2
#     Edge 75, Type (0, 1), BuildingBlock: OJICUG_clean_linker_0, # of connection points: 2
# Relax obj value: 0.120
# Max RMSD: 0.273
# Mean RMSD: 0.155
data_MOF--net-ctn--node1-NAHDIM_clean_sbu_0--node2-QEWDON_clean_linker_0--edge1-OJICUG_clean_linker_0
_symmetry_space_group_name_H-M    P1
_symmetry_Int_Tables_number       1
_symmetry_cell_setting            triclinic
loop_
_symmetry_equiv_pos_as_xyz
'x, y, z'
_cell_length_a     37.759682
_cell_length_b     40.219453
_cell_length_c     42.660289
_cell_angle_alpha  100.40602
_cell_angle_beta   92.236965
_cell_angle_gamma 97.874878
loop_
_atom_site_label
_atom_site_type_symbol
_atom_site_fract_x
_atom_site_fract_y
_atom_site_fract_z
_atom_type_partial_charge
H0 H 0.10845 0.03618 0.05987 0.0
C1 C 0.09097 0.02902 0.07785 0.0
C2 C 0.08879 0.99606 0.08537 0.0
C3 C 0.07255 0.05372 0.09492 0.0
H4 H 0.06552 0.96318 0.11647 0.0
C5 C 0.06729 0.98824 0.1102 0.0
C6 C 0.04884 0.01289 0.12763 0.0
C7 C 0.05127 0.04528 0.11931 0.0
C8 C 0.07743 0.08937 0.08941 0.0
H9 H 0.03664 0.06433 0.13201 0.0
C10 C 0.07165 0.09682 0.05875 0.0
C11 C 0.0747 0.13105 0.0544 0.0
C12 C 0.08699 0.11636 0.11553 0.0
H13 H 0.09184 0.11125 0.13929 0.0
C14 C 0.09036 0.15015 0.11133 0.0
H15 H 0.06441 0.07606 0.03854 0.0
C16 C 0.08407 0.15752 0.08111 0.0
H17 H 0.08595 0.18407 0.0788 0.0
H18 H 0.09752 0.17074 0.13166 0.0
H19 H 0.38153 0.77122 0.28612 0.0
C20 C 0.36005 0.74987 0.27998 0.0
C21 C 0.36215 0.72029 0.29264 0.0
C22 C 0.3308 0.75206 0.25938 0.0
H23 H 0.33616 0.66959 0.29432 0.0
C24 C 0.33476 0.69239 0.28438 0.0
C25 C 0.30526 0.69403 0.26385 0.0
C26 C 0.30363 0.72376 0.25114 0.0
C27 C 0.32814 0.78459 0.24797 0.0
H28 H 0.28047 0.72534 0.23595 0.0
C29 C 0.31597 0.78472 0.21629 0.0
C30 C 0.31422 0.81584 0.20578 0.0
C31 C 0.33804 0.81598 0.2691 0.0
H32 H 0.34673 0.81683 0.29377 0.0
C33 C 0.33661 0.84673 0.25881 0.0
H34 H 0.30798 0.76071 0.19989 0.0
C35 C 0.32503 0.84676 0.22743 0.0
H36 H 0.32492 0.87114 0.22006 0.0
H37 H 0.3446 0.8707 0.27525 0.0
H38 H 0.08025 0.4944 0.04595 0.0
C39 C 0.05842 0.5085 0.04232 0.0
C40 C 0.04385 0.52707 0.06867 0.0
C41 C 0.04632 0.5094 0.01102 0.0
H42 H 1.00389 0.55957 0.08302 0.0
C43 C 0.01614 0.54594 0.06303 0.0
C44 C 1.00373 0.54701 0.03171 0.0
C45 C 0.01921 0.52874 1.0059 0.0
C46 C 0.06261 0.49087 0.98343 0.0
H47 H 1.01042 0.52978 0.98164 0.0
C48 C 0.06252 0.45541 0.97957 0.0
C49 C 0.07611 0.43744 0.95232 0.0
C50 C 0.07713 0.50848 0.96024 0.0
H51 H 0.0775 0.53583 0.96284 0.0
C52 C 0.09145 0.49094 0.93359 0.0
H53 H 0.0505 0.44171 0.99709 0.0
C54 C 0.09086 0.45565 0.92952 0.0
H55 H 0.102 0.44259 0.90855 0.0
H56 H 0.1028 0.50471 0.91588 0.0
H57 H 0.79543 0.80027 0.25108 0.0
C58 C 0.79975 0.79111 0.22623 0.0
C59 C 0.81521 0.81402 0.2075 0.0
C60 C 0.79056 0.75622 0.21316 0.0
H61 H 0.83455 0.81876 0.16134 0.0
C62 C 0.82122 0.80151 0.17541 0.0
C63 C 0.81179 0.76667 0.16191 0.0
C64 C 0.79599 0.74445 0.181 0.0
C65 C 0.77653 0.73132 0.23299 0.0
H66 H 0.7876 0.71768 0.17086 0.0
C67 C 0.7467 0.73621 0.25108 0.0
C68 C 0.73206 0.71114 0.26808 0.0
C69 C 0.79229 0.70159 0.23267 0.0
H70 H 0.81543 0.69737 0.21906 0.0
C71 C 0.77831 0.67697 0.2498 0.0
H72 H 0.73466 0.75922 0.25145 0.0
C73 C 0.7483 0.68152 0.2672 0.0
H74 H 0.73743 0.66146 0.27948 0.0
H75 H 0.79052 0.65406 0.24925 0.0
H76 H 0.15732 0.96841 0.49355 0.0
C77 C 0.13494 0.97079 0.47778 0.0
C78 C 0.13454 1.00085 0.4655 0.0
C79 C 0.10756 0.94304 0.46884 0.0
H80 H 0.10625 0.02557 0.43359 0.0
C81 C 0.10622 1.00276 0.44378 0.0
C82 C 0.0785 0.97501 0.43442 0.0
C83 C 0.07921 0.94531 0.4475 0.0
C84 C 0.11126 0.91048 0.47905 0.0
H85 H 0.05837 0.92354 0.44038 0.0
C86 C 0.08969 0.89857 0.50205 0.0
C87 C 0.09611 0.86905 0.5135 0.0
C88 C 0.1384 0.89223 0.46688 0.0
H89 H 0.15527 0.90114 0.44922 0.0
C90 C 0.14419 0.86254 0.47756 0.0
H91 H 0.06908 0.91292 0.51186 0.0
C92 C 0.12338 0.85109 0.50085 0.0
H93 H 0.12854 0.82809 0.50896 0.0
H94 H 0.16513 0.84856 0.46802 0.0
H95 H 0.29279 0.66705 0.7833 0.0
C96 C 0.28832 0.68208 0.8062 0.0
C97 C 0.30266 0.67423 0.83437 0.0
C98 C 0.26831 0.70917 0.80709 0.0
H99 H 0.30773 0.68825 0.88576 0.0
C100 C 0.2963 0.69376 0.86391 0.0
C101 C 0.27627 0.72108 0.86536 0.0
C102 C 0.2619 0.72823 0.83675 0.0
C103 C 0.25683 0.71895 0.77676 0.0
H104 H 0.24753 0.74988 0.83743 0.0
C105 C 0.22132 0.7243 0.77047 0.0
C106 C 0.21072 0.73184 0.74077 0.0
C107 C 0.28179 0.72233 0.75351 0.0
H108 H 0.30936 0.71882 0.75792 0.0
C109 C 0.27157 0.7305 0.72444 0.0
H110 H 0.20179 0.72137 0.7881 0.0
C111 C 0.23631 0.73508 0.718 0.0
H112 H 0.22908 0.74145 0.69521 0.0
H113 H 0.29105 0.73316 0.70676 0.0
H114 H 0.96962 0.60268 0.46539 0.0
C115 C 0.95185 0.58302 0.47368 0.0
C116 C 0.94518 0.58649 0.50628 0.0
C117 C 0.9338 0.5553 0.45135 0.0
H118 H 0.91693 0.56303 0.54153 0.0
C119 C 0.92125 0.56109 0.51635 0.0
C120 C 0.90306 0.53314 0.49431 0.0
C121 C 0.90946 0.53062 0.46181 0.0
C122 C 0.93778 0.55333 0.4167 0.0
H123 H 0.89491 0.50978 0.44436 0.0
C124 C 0.97131 0.55159 0.4036 0.0
C125 C 0.97405 0.54763 0.37027 0.0
C126 C 0.90725 0.55203 0.39639 0.0
H127 H 0.88125 0.55347 0.40601 0.0
C128 C 0.90999 0.54904 0.36356 0.0
H129 H 0.99481 0.55199 0.41917 0.0
C130 C 0.94305 0.54676 0.35053 0.0
H131 H 0.94437 0.54447 0.32493 0.0
H132 H 0.88634 0.54829 0.34812 0.0
H133 H 0.84791 0.83772 0.7792 0.0
C134 C 0.8442 0.82098 0.79643 0.0
C135 C 0.86131 0.79164 0.79341 0.0
C136 C 0.82303 0.82924 0.82223 0.0
H137 H 0.872 0.7496 0.81544 0.0
C138 C 0.85714 0.77094 0.81678 0.0
C139 C 0.83536 0.7784 0.84243 0.0
C140 C 0.81793 0.80738 0.84437 0.0
C141 C 0.8088 0.86224 0.8285 0.0
H142 H 0.80038 0.81349 0.86339 0.0
C143 C 0.78549 0.87175 0.80612 0.0
C144 C 0.76993 0.90184 0.81442 0.0
C145 C 0.81748 0.88375 0.85843 0.0
H146 H 0.83555 0.87709 0.87589 0.0
C147 C 0.80284 0.91388 0.86627 0.0
H148 H 0.77835 0.85522 0.78308 0.0
C149 C 0.77901 0.92277 0.84457 0.0
H150 H 0.76768 0.94618 0.85129 0.0
H151 H 0.80969 0.93023 0.8894 0.0
H152 H 0.35064 0.3296 0.28053 0.0
C153 C 0.34682 0.31139 0.29642 0.0
C154 C 0.36179 0.28086 0.29004 0.0
C155 C 0.32805 0.31915 0.32396 0.0
H156 H 0.36929 0.23474 0.30711 0.0
C157 C 0.3569 0.25777 0.31125 0.0
C158 C 0.33799 0.26509 0.3388 0.0
C159 C 0.3237 0.2959 0.34491 0.0
C160 C 0.31601 0.35295 0.33276 0.0
H161 H 0.30916 0.30198 0.36613 0.0
C162 C 0.29216 0.36461 0.31238 0.0
C163 C 0.28132 0.397 0.32148 0.0
C164 C 0.32879 0.37382 0.36217 0.0
H165 H 0.3472 0.36537 0.37814 0.0
C166 C 0.31832 0.4059 0.3711 0.0
H167 H 0.28205 0.34858 0.28972 0.0
C168 C 0.29482 0.41747 0.35095 0.0
H169 H 0.28667 0.4423 0.35868 0.0
H170 H 0.32838 0.42182 0.39379 0.0
H171 H 0.57123 0.99496 0.53985 0.0
C172 C 0.54757 1.00622 0.53508 0.0
C173 C 0.52955 0.02223 0.56051 0.0
C174 C 0.53622 1.00579 0.50333 0.0
H175 H 0.48475 0.04936 0.57276 0.0
C176 C 0.49943 0.03754 0.5535 0.0
C177 C 0.48747 0.03675 0.52164 0.0
C178 C 0.50631 0.02107 0.49677 0.0
C179 C 0.55565 0.98932 0.47686 0.0
H180 H 0.49767 0.02069 0.47214 0.0
C181 C 0.55952 0.95467 0.47377 0.0
C182 C 0.57653 0.93836 0.44779 0.0
C183 C 0.56944 0.0079 0.45409 0.0
H184 H 0.5667 0.03466 0.4561 0.0
C185 C 0.58711 0.99211 0.42868 0.0
H186 H 0.54793 0.94016 0.49091 0.0
C187 C 0.59059 0.95755 0.42543 0.0
H188 H 0.60426 0.94584 0.40542 0.0
H189 H 0.59792 1.00663 0.4113 0.0
H190 H 0.3079 0.3181 0.76051 0.0
C191 C 0.30348 0.30726 0.73528 0.0
C192 C 0.31316 0.3272 0.71206 0.0
C193 C 0.28956 0.27254 0.72618 0.0
H194 H 0.31506 0.32606 0.66112 0.0
C195 C 0.30811 0.31142 0.6795 0.0
C196 C 0.29551 0.27632 0.67033 0.0
C197 C 0.2858 0.25724 0.6939 0.0
C198 C 0.28071 0.25124 0.75025 0.0
H199 H 0.27562 0.23021 0.68718 0.0
C200 C 0.24744 0.25058 0.76385 0.0
C201 C 0.23733 0.22763 0.7844 0.0
C202 C 0.30439 0.22941 0.75762 0.0
H203 H 0.33 0.22943 0.747 0.0
C204 C 0.29491 0.20703 0.77835 0.0
H205 H 0.22943 0.2677 0.75805 0.0
C206 C 0.26157 0.2059 0.79149 0.0
H207 H 0.25458 0.1875 0.8067 0.0
H208 H 0.3132 0.19006 0.78382 0.0
H209 H 0.86886 0.26238 0.78537 0.0
C210 C 0.84885 0.23997 0.77792 0.0
C211 C 0.85279 0.20986 0.78909 0.0
C212 C 0.81947 0.24145 0.75724 0.0
H213 H 0.82965 0.15769 0.7884 0.0
C214 C 0.82696 0.18083 0.77942 0.0
C215 C 0.79715 0.18188 0.75893 0.0
C216 C 0.79393 0.21213 0.74751 0.0
C217 C 0.81465 0.27431 0.74756 0.0
H218 H 0.77059 0.21338 0.73237 0.0
C219 C 0.80526 0.27585 0.71559 0.0
C220 C 0.80202 0.30747 0.7067 0.0
C221 C 0.81988 0.30462 0.77061 0.0
H222 H 0.82652 0.30414 0.79545 0.0
C223 C 0.8162 0.33582 0.762 0.0
H224 H 0.8016 0.25271 0.69756 0.0
C225 C 0.80744 0.33733 0.73031 0.0
H226 H 0.8045 0.36191 0.72433 0.0
H227 H 0.82012 0.35896 0.77998 0.0
H228 H 0.62189 0.54026 0.5628 0.0
C229 C 0.6049 0.53381 0.58136 0.0
C230 C 0.60306 0.50133 0.58987 0.0
C231 C 0.58673 0.55892 0.5981 0.0
H232 H 0.58099 0.46975 0.62245 0.0
C233 C 0.5823 0.49442 0.61542 0.0
C234 C 0.56387 0.5194 0.63242 0.0
C235 C 0.5659 0.55129 0.62305 0.0
C236 C 0.59159 0.59427 0.59176 0.0
H237 H 0.5513 0.57061 0.63531 0.0
C238 C 0.58517 0.60102 0.56092 0.0
C239 C 0.58834 0.63503 0.55587 0.0
C240 C 0.60185 0.62171 0.61735 0.0
H241 H 0.60719 0.61715 0.64124 0.0
C242 C 0.60533 0.65527 0.61246 0.0
H243 H 0.57738 0.57992 0.54111 0.0
C244 C 0.59844 0.66196 0.58207 0.0
H245 H 0.60043 0.68836 0.57925 0.0
H246 H 0.61304 0.67621 0.63239 0.0
H247 H 0.66118 0.47071 0.99301 0.0
C248 C 0.63832 0.47356 0.97805 0.0
C249 C 0.63838 0.50331 0.96521 0.0
C250 C 0.60985 0.44661 0.97061 0.0
H251 H 0.60983 0.52827 0.93376 0.0
C252 C 0.60938 0.50576 0.94446 0.0
C253 C 0.58046 0.4789 0.93666 0.0
C254 C 0.58075 0.44951 0.95034 0.0
C255 C 0.61318 0.41406 0.98105 0.0
H256 H 0.55903 0.42836 0.94439 0.0
C257 C 0.59139 0.40235 1.00402 0.0
C258 C 0.59774 0.37298 0.01577 0.0
C259 C 0.64035 0.39565 0.96916 0.0
H260 H 0.65737 0.40435 0.9515 0.0
C261 C 0.64601 0.3661 0.98013 0.0
H262 H 0.57072 0.41676 0.0136 0.0
C263 C 0.62506 0.35492 1.00344 0.0
H264 H 0.63015 0.33204 0.01183 0.0
H265 H 0.667 0.35203 0.97083 0.0
H266 H 0.78923 0.16207 0.28498 0.0
C267 C 0.78514 0.17665 0.30819 0.0
C268 C 0.7981 0.16696 0.33599 0.0
C269 C 0.7671 0.20511 0.30984 0.0
H270 H 0.80255 0.17907 0.38747 0.0
C271 C 0.79224 0.18609 0.3659 0.0
C272 C 0.77429 0.21493 0.36811 0.0
C273 C 0.76134 0.22388 0.3398 0.0
C274 C 0.75732 0.21674 0.28003 0.0
H275 H 0.74865 0.24662 0.34093 0.0
C276 C 0.72215 0.22245 0.27286 0.0
C277 C 0.71315 0.23175 0.24354 0.0
C278 C 0.78356 0.22144 0.25813 0.0
H279 H 0.81085 0.21752 0.26328 0.0
C280 C 0.77497 0.23146 0.22952 0.0
H281 H 0.70168 0.2184 0.28945 0.0
C282 C 0.74004 0.23646 0.22217 0.0
H283 H 0.73409 0.24422 0.19974 0.0
H284 H 0.79542 0.23518 0.2129 0.0
H285 H 0.4668 0.10238 0.97502 0.0
C286 C 0.45051 0.08051 0.98136 0.0
C287 C 0.44653 0.07865 0.01367 0.0
C288 C 0.43268 0.05468 0.95713 0.0
H289 H 0.42113 0.04909 0.04623 0.0
C290 C 0.42511 0.05019 0.02139 0.0
C291 C 0.40705 0.02416 0.99736 0.0
C292 C 0.41089 0.02673 0.96521 0.0
C293 C 0.4343 0.05815 0.92333 0.0
H294 H 0.39697 1.00698 0.94636 0.0
C295 C 0.46567 0.05436 0.9071 0.0
C296 C 0.46635 0.0566 0.87448 0.0
C297 C 0.40378 0.06467 0.90706 0.0
H298 H 0.37943 0.06762 0.91924 0.0
C299 C 0.40454 0.06773 0.87506 0.0
H300 H 0.48894 0.0486 0.91961 0.0
C301 C 0.43551 0.06374 0.85885 0.0
H302 H 0.43532 0.06642 0.83404 0.0
H303 H 0.38098 0.0731 0.86273 0.0
C304 C 0.18588 0.90752 0.02514 0.0
O305 O 0.20122 0.91493 0.99964 0.0
O306 O 0.23922 0.82727 0.99226 0.0
Zn307 Zn 0.24424 0.86678 0.03024 0.0
O308 O 0.28019 0.90483 0.0199 0.0
C309 C 0.27133 0.82578 0.0761 0.0
O310 O 0.27372 0.80127 0.0517 0.0
O311 O 0.1983 0.88641 0.03993 0.0
C312 C 0.31153 0.91374 0.03342 0.0
O313 O 0.32182 0.89789 0.05578 0.0
C314 C 0.26846 0.8181 0.98244 0.0
O315 O 0.29874 0.83362 0.99785 0.0
O316 O 0.26055 0.85322 0.07144 0.0
C317 C 0.17292 0.4555 0.25936 0.0
O318 O 0.13997 0.43941 0.25366 0.0
O319 O 0.10518 0.51965 0.27895 0.0
Zn320 Zn 0.14569 0.51995 0.24917 0.0
O321 O 0.1766 0.56624 0.25762 0.0
C322 C 0.10608 0.53349 0.19681 0.0
O323 O 0.10374 0.56022 0.21904 0.0
O324 O 0.17937 0.487 0.2577 0.0
C325 C 0.19454 0.57652 0.23567 0.0
O326 O 0.19126 0.55751 0.20694 0.0
C327 C 0.10583 0.53943 0.30593 0.0
O328 O 0.13497 0.56105 0.31644 0.0
O329 O 0.12358 0.51058 0.2037 0.0
C330 C 0.89551 0.63002 1.00634 0.0
O331 O 0.89621 0.66055 0.02386 0.0
O332 O 0.83787 0.67344 0.94393 0.0
Zn333 Zn 0.8299 0.64643 0.97951 0.0
O334 O 0.78324 0.61415 0.96911 0.0
C335 C 0.83336 0.70919 0.03073 0.0
O336 O 0.84459 0.7281 0.01001 0.0
O337 O 0.87024 0.61876 0.9848 0.0
C338 C 0.76769 0.60219 0.99147 0.0
O339 O 0.78272 0.61083 0.02064 0.0
C340 C 0.81726 0.69511 0.9402 0.0
O341 O 0.79142 0.69971 0.95957 0.0
O342 O 0.82622 0.67689 0.02224 0.0
C343 C 0.87751 0.05161 0.32272 0.0
O344 O 0.87271 0.02919 0.34163 0.0
O345 O 0.96029 0.00733 0.33142 0.0
Zn346 Zn 0.92771 0.00763 0.29263 0.0
O347 O 0.89481 0.96252 0.28176 0.0
C348 C 0.96466 0.98771 0.23427 0.0
O349 O 0.9506 0.95654 0.23638 0.0
O350 O 0.89922 0.04736 0.30074 0.0
C351 C 0.87294 0.95538 0.25727 0.0
O352 O 0.87012 0.97878 0.2398 0.0
C353 C 0.97421 0.98048 0.3326 0.0
O354 O 0.96647 0.95418 0.30898 0.0
O355 O 0.95865 0.01276 0.25531 0.0
C356 C 0.36438 0.0978 0.48749 0.0
O357 O 0.33699 0.07898 0.46988 0.0
O358 O 0.3281 0.18364 0.45851 0.0
Zn359 Zn 0.31999 0.15278 0.49092 0.0
O360 O 0.27523 0.11829 0.4778 0.0
C361 C 0.2994 0.20804 0.53912 0.0
O362 O 0.28692 0.22024 0.51504 0.0
O363 O 0.36316 0.12933 0.49763 0.0
C364 C 0.25914 0.10472 0.49902 0.0
O365 O 0.27243 0.11313 0.52878 0.0
C366 C 0.32338 0.1722 0.42861 0.0
O367 O 0.31381 0.13923 0.41841 0.0
O368 O 0.31372 0.18093 0.53371 0.0
C369 C 0.38692 0.56262 0.82314 0.0
O370 O 0.38145 0.53947 0.84126 0.0
O371 O 0.46604 0.51527 0.83307 0.0
Zn372 Zn 0.43586 0.51801 0.79349 0.0
O373 O 0.39991 0.47491 0.78068 0.0
C374 C 0.47967 0.49726 0.73989 0.0
O375 O 0.46918 0.46626 0.7449 0.0
O376 O 0.40919 0.55895 0.80158 0.0
C377 C 0.38725 0.46553 0.7519 0.0
O378 O 0.39661 0.48472 0.73087 0.0
C379 C 0.47571 0.48687 0.83612 0.0
O380 O 0.46485 0.45979 0.81392 0.0
O381 O 0.46914 0.52266 0.75753 0.0
C382 C 0.69599 0.40902 0.52817 0.0
O383 O 0.70799 0.41323 0.50045 0.0
O384 O 0.7445 0.32729 0.49308 0.0
Zn385 Zn 0.75377 0.36703 0.53075 0.0
O386 O 0.79146 0.40242 0.51875 0.0
C387 C 0.75864 0.32589 0.5801 0.0
O388 O 0.7301 0.30704 0.56427 0.0
O389 O 0.7101 0.3894 0.54367 0.0
C390 C 0.79727 0.433 0.53419 0.0
O391 O 0.77829 0.44184 0.55869 0.0
C392 C 0.77115 0.31159 0.48652 0.0
O393 O 0.80079 0.32112 0.50502 0.0
O394 O 0.77332 0.35181 0.56972 0.0
C395 C 0.67803 0.96647 0.74151 0.0
O396 O 0.69128 0.98056 0.7182 0.0
O397 O 0.58653 0.02295 0.77202 0.0
Zn398 Zn 0.62689 0.01539 0.7429 0.0
O399 O 0.66505 0.0571 0.75117 0.0
C400 C 0.58876 0.0303 0.68987 0.0
O401 O 0.58655 0.05735 0.71177 0.0
O402 O 0.65006 0.97602 0.75382 0.0
C403 C 0.68231 0.06766 0.72898 0.0
O404 O 0.67452 0.05175 0.69931 0.0
C405 C 0.59088 0.03729 0.80131 0.0
O406 O 0.62351 0.04838 0.81418 0.0
O407 O 0.60566 1.00718 0.69724 0.0
C408 C 0.04133 0.17217 0.93453 0.0
O409 O 0.01814 0.15313 0.91254 0.0
O410 O 1.00474 0.20418 0.86433 0.0
Zn411 Zn 0.05179 0.22143 0.89048 0.0
O412 O 0.05523 0.27263 0.90297 0.0
C413 C 0.09876 0.22335 0.83869 0.0
O414 O 0.0733 0.23714 0.82625 0.0
O415 O 0.05671 0.20086 0.92988 0.0
C416 C 0.06649 0.29003 0.93031 0.0
O417 O 0.07651 0.27433 0.95288 0.0
C418 C 0.97805 0.21839 0.87403 0.0
O419 O 0.98208 0.24054 0.90109 0.0
O420 O 0.09438 0.21322 0.86499 0.0
C421 C 0.55192 0.67437 0.4358 0.0
O422 O 0.52776 0.65539 0.41464 0.0
O423 O 0.51187 0.70705 0.36714 0.0
Zn424 Zn 0.5606 0.72259 0.39074 0.0
O425 O 0.5666 0.77397 0.40202 0.0
C426 C 0.6047 0.72523 0.33787 0.0
O427 O 0.58194 0.74494 0.33035 0.0
O428 O 0.56731 0.70275 0.4304 0.0
C429 C 0.57553 0.79206 0.42954 0.0
O430 O 0.58205 0.77706 0.45363 0.0
C431 C 0.4869 0.72388 0.37672 0.0
O432 O 0.49317 0.74744 0.40276 0.0
O433 O 0.60001 0.71145 0.36223 0.0
C434 C 0.01747 0.80524 0.60555 0.0
O435 O 0.98371 0.79193 0.59856 0.0
O436 O 0.97974 0.77702 0.68489 0.0
Zn437 Zn 0.01479 0.76053 0.65275 0.0
O438 O 0.99094 0.71969 0.62049 0.0
C439 C 0.0702 0.75866 0.70292 0.0
O440 O 0.05463 0.78177 0.72092 0.0
O441 O 0.03464 0.7968 0.62842 0.0
C442 C 1.00917 0.70593 0.59861 0.0
O443 O 0.04293 0.71881 0.59759 0.0
C444 C 0.95736 0.75475 0.69414 0.0
O445 O 0.95779 0.72228 0.6824 0.0
O446 O 0.05723 0.74637 0.67457 0.0
C447 C 0.51985 0.30675 0.10644 0.0
O448 O 0.48665 0.29204 0.09859 0.0
O449 O 0.48184 0.27301 0.18309 0.0
Zn450 Zn 0.51872 0.25983 0.15148 0.0
O451 O 0.49772 0.21977 0.11686 0.0
C452 C 0.57304 0.25752 0.2028 0.0
O453 O 0.55511 0.27777 0.22164 0.0
O454 O 0.53727 0.29829 0.12917 0.0
C455 C 0.50385 0.1895 0.11714 0.0
O456 O 0.52312 0.18361 0.14131 0.0
C457 C 0.45772 0.25019 0.1893 0.0
O458 O 0.45694 0.21839 0.17468 0.0
O459 O 0.56192 0.24721 0.17367 0.0
C460 C 0.24064 0.75611 0.90411 0.0
C461 C 0.27308 0.74401 0.8964 0.0
H462 H 0.21346 0.78868 0.93755 0.0
C463 C 0.30326 0.75539 0.91791 0.0
H464 H 0.21685 0.74767 0.8881 0.0
C465 C 0.30136 0.77884 0.94603 0.0
C466 C 0.26917 0.79145 0.95353 0.0
H467 H 0.32878 0.747 0.91254 0.0
H468 H 0.3254 0.78746 0.96169 0.0
C469 C 0.23865 0.77946 0.93249 0.0
C470 C 0.04058 0.56509 0.36848 0.0
C471 C 1.00874 0.54384 0.35557 0.0
H472 H 0.09628 0.58049 0.36292 0.0
C473 C 1.00978 0.5197 0.32744 0.0
H474 H 0.04062 0.58402 0.39005 0.0
C475 C 0.0415 0.5177 0.31188 0.0
C476 C 0.07306 0.5398 0.32405 0.0
H477 H 0.98588 0.50248 0.31719 0.0
H478 H 0.04103 0.49921 0.28994 0.0
C479 C 0.07241 0.56315 0.35283 0.0
C480 C 0.82532 0.77126 0.89928 0.0
C481 C 0.8316 0.75678 0.86768 0.0
H482 H 0.81514 0.76291 0.94654 0.0
C483 C 0.83413 0.72155 0.86064 0.0
H484 H 0.82443 0.79833 0.90633 0.0
C485 C 0.83049 0.70161 0.8844 0.0
C486 C 0.82305 0.71614 0.91541 0.0
H487 H 0.83828 0.70906 0.83668 0.0
H488 H 0.83239 0.6746 0.87828 0.0
C489 C 0.8204 0.75106 0.92261 0.0
C490 C 0.0398 0.94764 0.38481 0.0
C491 C 0.05036 0.97614 0.40933 0.0
H492 H 1.0077 0.92666 0.34156 0.0
C493 C 0.03488 1.00596 0.40887 0.0
H494 H 0.05157 0.92444 0.38409 0.0
C495 C 1.00977 0.00734 0.38425 0.0
C496 C 0.99967 0.97894 0.3595 0.0
H497 H 0.04219 0.02827 0.42755 0.0
H498 H 0.99856 0.03076 0.38446 0.0
C499 C 0.01479 0.94902 0.36024 0.0
C500 C 0.30867 0.2276 0.62936 0.0
C501 C 0.29529 0.25883 0.63653 0.0
H502 H 0.3204 0.18726 0.59328 0.0
C503 C 0.28288 0.2733 0.61131 0.0
H504 H 0.31906 0.21608 0.64819 0.0
C505 C 0.28384 0.25676 0.57955 0.0
C506 C 0.29742 0.22559 0.5725 0.0
H507 H 0.27226 0.29726 0.61613 0.0
H508 H 0.27415 0.2685 0.56059 0.0
C509 C 0.30969 0.21119 0.59779 0.0
C510 C 0.5426 0.53961 0.68694 0.0
C511 C 0.54331 0.51301 0.66054 0.0
H512 H 0.52182 0.55562 0.73233 0.0
C513 C 0.52373 0.48076 0.66116 0.0
H514 H 0.55809 0.56455 0.68792 0.0
C515 C 0.5036 0.47548 0.68719 0.0
C516 C 0.50217 0.50242 0.713 0.0
H517 H 0.52323 0.45975 0.64123 0.0
H518 H 0.48846 0.45047 0.68673 0.0
C519 C 0.522 0.53448 0.71262 0.0
C520 C 0.81105 0.33635 0.65965 0.0
C521 C 0.793 0.30984 0.67301 0.0
H522 H 0.81466 0.362 0.61992 0.0
C523 C 0.76516 0.28703 0.65459 0.0
H524 H 0.83303 0.35399 0.67304 0.0
C525 C 0.75458 0.29159 0.62399 0.0
C526 C 0.77177 0.31895 0.61117 0.0
H527 H 0.75067 0.26644 0.66429 0.0
H528 H 0.73235 0.27419 0.61075 0.0
C529 C 0.8006 0.34083 0.62912 0.0
C530 C 0.55701 0.99562 0.60303 0.0
C531 C 0.54297 0.02354 0.59416 0.0
H532 H 0.58254 0.97581 0.63999 0.0
C533 C 0.5433 0.05324 0.61739 0.0
H534 H 0.55667 0.9721 0.58596 0.0
C535 C 0.55779 0.05518 0.64846 0.0
C536 C 0.57251 0.02756 0.65709 0.0
H537 H 0.53321 0.0754 0.61139 0.0
H538 H 0.55797 0.07865 0.66558 0.0
C539 C 0.57172 0.99766 0.63407 0.0
C540 C 0.90709 0.18572 0.80561 0.0
C541 C 0.88327 0.20968 0.81199 0.0
H542 H 0.95619 0.16977 0.82015 0.0
C543 C 0.88959 0.23485 0.83981 0.0
H544 H 0.90274 0.16611 0.78423 0.0
C545 C 0.91965 0.23667 0.86049 0.0
C546 C 0.94443 0.21369 0.85356 0.0
H547 H 0.87144 0.25344 0.84537 0.0
H548 H 0.92399 0.25687 0.88141 0.0
C549 C 0.93764 0.18789 0.82609 0.0
C550 C 0.5706 0.88057 0.41262 0.0
C551 C 0.57795 0.90108 0.44314 0.0
H552 H 0.56404 0.83027 0.38442 0.0
C553 C 0.5854 0.88551 0.46917 0.0
H554 H 0.56422 0.89167 0.39215 0.0
C555 C 0.58511 0.85015 0.46478 0.0
C556 C 0.57726 0.82964 0.43429 0.0
H557 H 0.5915 0.90069 0.49293 0.0
H558 H 0.59073 0.83889 0.48532 0.0
C559 C 0.57025 0.8453 0.40824 0.0
C560 C 0.19747 0.2197 0.82917 0.0
C561 C 0.2015 0.22588 0.79799 0.0
H562 H 0.16198 0.21361 0.86622 0.0
C563 C 0.171 0.23019 0.77994 0.0
H564 H 0.22035 0.21681 0.84402 0.0
C565 C 0.13751 0.22893 0.79295 0.0
C566 C 0.13366 0.22286 0.82413 0.0
H567 H 0.17286 0.23429 0.75563 0.0
H568 H 0.11463 0.23268 0.77856 0.0
C569 C 0.16394 0.21797 0.84198 0.0
C570 C 0.55083 0.62485 0.50382 0.0
C571 C 0.58034 0.64304 0.52381 0.0
H572 H 0.51854 0.62051 0.46035 0.0
C573 C 0.60112 0.6705 0.51379 0.0
H574 H 0.53406 0.60377 0.51092 0.0
C575 C 0.59192 0.6804 0.48521 0.0
C576 C 0.56191 0.66286 0.46562 0.0
H577 H 0.62447 0.68464 0.52822 0.0
H578 H 0.60836 0.70196 0.47855 0.0
C579 C 0.54177 0.63462 0.47496 0.0
C580 C 0.90901 0.80812 0.75689 0.0
C581 C 0.8846 0.78285 0.76663 0.0
H582 H 0.95127 0.81916 0.72647 0.0
C583 C 0.8835 0.74864 0.75141 0.0
H584 H 0.91079 0.83468 0.76831 0.0
C585 C 0.90677 0.73974 0.72767 0.0
C586 C 0.93176 0.76482 0.71841 0.0
H587 H 0.86466 0.7286 0.75797 0.0
H588 H 0.90532 0.71305 0.71677 0.0
C589 C 0.93236 0.79919 0.73304 0.0
C590 C 0.09343 0.84874 0.56544 0.0
C591 C 0.07536 0.85691 0.53909 0.0
H592 H 0.08939 0.82667 0.60732 0.0
C593 C 0.03774 0.85101 0.53636 0.0
H594 H 0.12243 0.85342 0.5683 0.0
C595 C 0.01865 0.83536 0.55866 0.0
C596 C 0.03689 0.82576 0.58426 0.0
H597 H 0.0232 0.85705 0.51623 0.0
H598 H 0.98972 0.82986 0.55529 0.0
C599 C 0.07444 0.83353 0.58785 0.0
C600 C 0.15448 0.7571 0.75413 0.0
C601 C 0.17312 0.73603 0.73283 0.0
H602 H 0.10726 0.78097 0.7614 0.0
C603 C 0.15643 0.72046 0.70275 0.0
H604 H 0.16674 0.7695 0.77744 0.0
C605 C 0.12254 0.72692 0.69358 0.0
C606 C 0.10448 0.74925 0.71421 0.0
H607 H 0.1699 0.70365 0.68602 0.0
H608 H 0.11094 0.71505 0.6699 0.0
C609 C 0.1205 0.76376 0.74486 0.0
C610 C 0.94137 0.63305 0.55345 0.0
C611 C 0.96176 0.61728 0.52973 0.0
H612 H 0.94018 0.67325 0.59363 0.0
C613 C 0.99781 0.63124 0.52864 0.0
H614 H 0.91333 0.62336 0.55463 0.0
C615 C 0.01317 0.66006 0.55094 0.0
C616 C 0.9928 0.67562 0.57478 0.0
H617 H 0.01432 0.61958 0.51085 0.0
H618 H 0.04108 0.67003 0.54955 0.0
C619 C 0.9567 0.66182 0.57571 0.0
C620 C 0.82126 0.87633 0.20443 0.0
C621 C 0.82696 0.85065 0.22167 0.0
H622 H 0.83084 0.92954 0.20228 0.0
C623 C 0.84563 0.86011 0.25183 0.0
H624 H 0.80657 0.8699 0.1813 0.0
C625 C 0.85948 0.8943 0.26391 0.0
C626 C 0.85488 0.91982 0.24615 0.0
H627 H 0.85076 0.84093 0.2656 0.0
H628 H 0.87467 0.90055 0.2868 0.0
C629 C 0.835 0.91054 0.21655 0.0
C630 C 0.81382 0.11386 0.35372 0.0
C631 C 0.81903 0.13778 0.33341 0.0
H632 H 0.82796 0.06787 0.36624 0.0
C633 C 0.8442 0.13342 0.31007 0.0
H634 H 0.7945 0.1163 0.3718 0.0
C635 C 0.8632 0.10562 0.30675 0.0
C636 C 0.85766 0.08143 0.32673 0.0
H637 H 0.84944 0.15167 0.2944 0.0
H638 H 0.88223 0.10312 0.28841 0.0
C639 C 0.83288 0.08598 0.3504 0.0
C640 C 0.39339 0.97919 0.03087 0.0
C641 C 0.38299 0.99517 1.00599 0.0
H642 H 0.37915 0.94093 0.05897 0.0
C643 C 0.34904 0.98387 0.98998 0.0
H644 H 0.4195 0.98711 0.04347 0.0
C645 C 0.32589 0.95742 0.99884 0.0
C646 C 0.33621 0.94157 0.02386 0.0
H647 H 0.34003 0.99594 0.97099 0.0
H648 H 0.29983 0.94953 0.98616 0.0
C649 C 0.37029 0.95265 0.03966 0.0
C650 C 0.26232 0.44332 0.29562 0.0
C651 C 0.25534 0.40975 0.30119 0.0
H652 H 0.24216 0.48382 0.27774 0.0
C653 C 0.22207 0.39003 0.2901 0.0
H654 H 0.28786 0.45898 0.30363 0.0
C655 C 0.19554 0.40437 0.27539 0.0
C656 C 0.20197 0.43859 0.27127 0.0
H657 H 0.21594 0.36413 0.29424 0.0
H658 H 0.16966 0.38902 0.26823 0.0
C659 C 0.23606 0.45751 0.28074 0.0
C660 C 0.18115 0.04539 0.45074 0.0
C661 C 0.16491 0.02923 0.47423 0.0
H662 H 0.22379 0.08175 0.44002 0.0
C663 C 0.17918 0.03902 0.50601 0.0
H664 H 0.17103 0.03815 0.42598 0.0
C665 C 0.20944 0.06381 0.51403 0.0
C666 C 0.22625 0.07939 0.49045 0.0
H667 H 0.16705 0.0273 0.52471 0.0
H668 H 0.21988 0.07044 0.53872 0.0
C669 C 0.21155 0.07018 0.45875 0.0
C670 C 0.75395 0.14041 0.71944 0.0
C671 C 0.76824 0.15217 0.75102 0.0
H672 H 0.71576 0.10431 0.68765 0.0
C673 C 0.75399 0.13602 0.7753 0.0
H674 H 0.7645 0.15235 0.70027 0.0
C675 C 0.72585 0.10882 0.76819 0.0
C676 C 0.71165 0.0969 0.73658 0.0
H677 H 0.76419 0.14483 0.79992 0.0
H678 H 0.71539 0.097 0.78747 0.0
C679 C 0.72611 0.11288 0.71225 0.0
C680 C 0.42923 0.03405 0.49025 0.0
C681 C 0.45533 0.0521 0.51389 0.0
H682 H 0.38012 0.03419 0.46347 0.0
C683 C 0.45114 0.08523 0.52904 0.0
H684 H 0.43159 0.00834 0.47834 0.0
C685 C 0.42179 0.10021 0.5203 0.0
C686 C 0.39577 0.0822 0.4965 0.0
H687 H 0.47097 0.09984 0.54717 0.0
H688 H 0.41945 0.12589 0.53228 0.0
C689 C 0.39971 0.04884 0.48177 0.0
C690 C 0.62962 0.47249 0.54049 0.0
C691 C 0.62459 0.4756 0.57338 0.0
H692 H 0.65582 0.44904 0.50042 0.0
C693 C 0.64163 0.4549 0.59067 0.0
H694 H 0.61649 0.4875 0.52621 0.0
C695 C 0.66367 0.43239 0.57572 0.0
C696 C 0.66963 0.4302 0.54312 0.0
H697 H 0.63902 0.45686 0.6161 0.0
H698 H 0.67701 0.41754 0.59004 0.0
C699 C 0.65199 0.45021 0.5256 0.0
C700 C 0.80133 0.24525 0.42223 0.0
C701 C 0.77188 0.23749 0.39962 0.0
H702 H 0.82408 0.27434 0.46713 0.0
C703 C 0.74118 0.25307 0.40668 0.0
H704 H 0.82565 0.23427 0.41749 0.0
C705 C 0.74037 0.27646 0.43525 0.0
C706 C 0.77028 0.28484 0.45737 0.0
H707 H 0.71786 0.24742 0.38996 0.0
H708 H 0.71661 0.28846 0.43968 0.0
C709 C 0.80052 0.26854 0.45069 0.0
C710 C 0.53335 0.06399 0.87006 0.0
C711 C 0.49862 0.05087 0.85635 0.0
H712 H 0.58972 0.07016 0.86348 0.0
C713 C 0.49475 0.03257 0.82472 0.0
H714 H 0.53731 0.07843 0.89426 0.0
C715 C 0.52466 0.02809 0.80704 0.0
C716 C 0.55933 0.04162 0.82053 0.0
H717 H 0.46849 0.0215 0.81358 0.0
H718 H 0.52051 0.01401 0.78271 0.0
C719 C 0.56338 0.05941 0.85234 0.0
C720 C 0.3391 0.25375 0.3949 0.0
C721 C 0.33439 0.2412 0.36179 0.0
H722 H 0.33956 0.24196 0.44186 0.0
C723 C 0.32645 0.2057 0.35087 0.0
H724 H 0.34578 0.28091 0.40412 0.0
C725 C 0.32304 0.18331 0.37252 0.0
C726 C 0.32762 0.19589 0.40562 0.0
H727 H 0.32238 0.19522 0.32554 0.0
H728 H 0.31667 0.15614 0.36328 0.0
C729 C 0.33579 0.23137 0.41654 0.0
C730 C 0.53855 0.45163 0.88894 0.0
C731 C 0.55157 0.48053 0.91238 0.0
H732 H 0.50451 0.43094 0.84674 0.0
C733 C 0.53812 0.51129 0.91132 0.0
H734 H 0.54866 0.42766 0.88865 0.0
C735 C 0.51295 0.51329 0.88697 0.0
C736 C 0.50062 0.48454 0.86315 0.0
H737 H 0.54721 0.53394 0.92921 0.0
H738 H 0.50355 0.53748 0.88659 0.0
C739 C 0.51336 0.45359 0.8647 0.0
C740 C 0.82869 0.72004 0.12008 0.0
C741 C 0.8191 0.75298 0.12827 0.0
H742 H 0.84022 0.68043 0.08294 0.0
C743 C 0.81591 0.77213 0.10398 0.0
H744 H 0.83262 0.70487 0.13811 0.0
C745 C 0.82146 0.75834 0.07228 0.0
C746 C 0.82957 0.72494 0.06421 0.0
H747 H 0.80828 0.79743 0.10925 0.0
H748 H 0.81831 0.77339 0.05398 0.0
C749 C 0.83337 0.70605 0.08843 0.0
C750 C 0.02845 0.03129 0.18272 0.0
C751 C 0.02805 1.0057 0.15533 0.0
H752 H 1.00874 0.04583 0.22881 0.0
C753 C 1.00729 0.97371 0.15461 0.0
H754 H 0.0448 0.05597 0.18458 0.0
C755 C 0.98705 0.96771 0.1804 0.0
C756 C 0.98687 0.99365 0.20736 0.0
H757 H 1.00605 0.9535 0.13387 0.0
H758 H 0.97103 0.94292 0.17893 0.0
C759 C 1.00793 0.02544 0.20826 0.0
C760 C 0.31088 0.7935 0.14626 0.0
C761 C 0.30148 0.81661 0.17241 0.0
H762 H 0.30877 0.7782 0.09527 0.0
C763 C 0.28082 0.84165 0.16643 0.0
H764 H 0.32703 0.77409 0.14991 0.0
C765 C 0.27097 0.84437 0.13524 0.0
C766 C 0.28102 0.82181 0.1091 0.0
H767 H 0.27229 0.85937 0.18592 0.0
H768 H 0.25542 0.86425 0.13164 0.0
C769 C 0.30062 0.79599 0.11492 0.0
C770 C 0.06208 0.55835 0.12481 0.0
C771 C 0.05869 0.52801 0.10187 0.0
H772 H 0.07946 0.58376 0.17245 0.0
C773 C 0.07075 0.49913 0.1107 0.0
H774 H 0.05389 0.58134 0.11887 0.0
C775 C 0.08619 0.50075 0.14146 0.0
C776 C 0.08956 0.53116 0.16422 0.0
H777 H 0.06814 0.47515 0.09389 0.0
H778 H 0.09531 0.47814 0.14743 0.0
C779 C 0.07709 0.55982 0.15558 0.0
C780 C 0.40126 0.74571 0.34201 0.0
C781 C 0.39254 0.71931 0.31534 0.0
H782 H 0.43736 0.76742 0.38257 0.0
C783 C 0.4137 0.69294 0.31004 0.0
H784 H 0.38514 0.76616 0.34676 0.0
C785 C 0.44401 0.6938 0.33039 0.0
C786 C 0.45322 0.72072 0.35669 0.0
H787 H 0.40748 0.67233 0.28959 0.0
H788 H 0.46052 0.67373 0.32524 0.0
C789 C 0.43107 0.74627 0.36259 0.0
C790 C 0.06276 0.37994 0.91661 0.0
C791 C 0.0737 0.39966 0.94696 0.0
H792 H 0.05173 0.33005 0.88762 0.0
C793 C 0.08195 0.38301 0.97201 0.0
H794 H 0.05567 0.39196 0.89694 0.0
C795 C 0.07961 0.34739 0.96669 0.0
C796 C 0.06876 0.32771 0.93626 0.0
H797 H 0.09067 0.39756 0.99561 0.0
H798 H 0.08635 0.33531 0.98641 0.0
C799 C 0.06027 0.3444 0.91133 0.0
C800 C 0.6961 0.70409 0.31539 0.0
C801 C 0.69949 0.71525 0.28609 0.0
H802 H 0.66353 0.69813 0.35444 0.0
C803 C 0.67115 0.72951 0.27385 0.0
H804 H 0.71759 0.69351 0.32583 0.0
C805 C 0.64024 0.73257 0.29053 0.0
C806 C 0.63687 0.72116 0.31966 0.0
H807 H 0.67255 0.73785 0.25111 0.0
H808 H 0.61892 0.7437 0.28049 0.0
C809 C 0.6651 0.70682 0.33187 0.0
C810 C 0.08825 0.16765 0.01334 0.0
C811 C 0.06738 0.13969 0.02249 0.0
H812 H 0.09629 0.19984 0.97879 0.0
C813 C 0.03851 0.1215 1.00172 0.0
H814 H 0.11113 0.18182 0.02839 0.0
C815 C 0.03019 0.13166 0.97289 0.0
C816 C 0.05044 0.16033 0.96437 0.0
H817 H 0.02168 0.10004 0.00814 0.0
H818 H 1.00747 0.1175 0.95762 0.0
C819 C 0.07978 0.17794 0.98479 0.0
C820 C 0.4102 0.29963 0.25529 0.0
C821 C 0.38448 0.27378 0.26251 0.0
H822 H 0.45355 0.31254 0.22664 0.0
C823 C 0.38205 0.24059 0.24438 0.0
H824 H 0.41309 0.32539 0.26903 0.0
C825 C 0.40536 0.23319 0.22027 0.0
C826 C 0.43174 0.25879 0.21364 0.0
H827 H 0.36226 0.22019 0.24903 0.0
H828 H 0.40298 0.2072 0.20713 0.0
C829 C 0.43357 0.29222 0.23114 0.0
C830 C 0.59494 0.35388 0.06822 0.0
C831 C 0.57689 0.361 0.04136 0.0
H832 H 0.5911 0.33186 0.11014 0.0
C833 C 0.53935 0.35365 0.03789 0.0
H834 H 0.62388 0.35965 0.0716 0.0
C835 C 0.52043 0.33736 0.05989 0.0
C836 C 0.53875 0.32855 0.08589 0.0
H837 H 0.52486 0.35888 0.01734 0.0
H838 H 0.49164 0.33057 0.05586 0.0
C839 C 0.5761 0.33803 0.09033 0.0
C840 C 0.65559 0.25509 0.25593 0.0
C841 C 0.67586 0.23599 0.23446 0.0
H842 H 0.60717 0.27707 0.26279 0.0
C843 C 0.66095 0.2222 0.20336 0.0
H844 H 0.66644 0.2661 0.28003 0.0
C845 C 0.62721 0.22842 0.1935 0.0
C846 C 0.60746 0.24868 0.21446 0.0
H847 H 0.67564 0.20686 0.18643 0.0
H848 H 0.61696 0.21787 0.16914 0.0
C849 C 0.62174 0.26147 0.24599 0.0
C850 C 0.47976 0.10055 0.06714 0.0
C851 C 0.46281 0.1072 0.03948 0.0
H852 H 0.50607 0.12124 0.11325 0.0
C853 C 0.4599 0.1412 0.03736 0.0
H854 H 0.48257 0.07461 0.06935 0.0
C855 C 0.47315 0.16793 0.06258 0.0
C856 C 0.48984 0.16125 0.09037 0.0
H857 H 0.44657 0.14708 0.01652 0.0
H858 H 0.4702 0.19382 0.06031 0.0
C859 C 0.49325 0.12728 0.09224 0.0
C860 C 0.35603 0.37793 0.70271 0.0
C861 C 0.33063 0.3636 0.72174 0.0
H862 H 0.393 0.4215 0.69707 0.0
C863 C 0.32329 0.38406 0.75059 0.0
H864 H 0.3636 0.36311 0.6809 0.0
C865 C 0.34159 0.41727 0.76048 0.0
C866 C 0.36665 0.4312 0.74123 0.0
H867 H 0.30347 0.37453 0.76569 0.0
H868 H 0.33594 0.43218 0.78304 0.0
C869 C 0.37331 0.41146 0.71208 0.0
C870 C 0.32124 0.62296 0.85342 0.0
C871 C 0.32525 0.64638 0.83256 0.0
H872 H 0.33737 0.57812 0.86677 0.0
C873 C 0.35062 0.64265 0.80934 0.0
H874 H 0.30181 0.62498 0.87144 0.0
C875 C 0.37092 0.6158 0.80659 0.0
C876 C 0.3664 0.59194 0.82699 0.0
H877 H 0.35486 0.66058 0.79325 0.0
H878 H 0.38995 0.61362 0.78824 0.0
C879 C 0.34152 0.596 0.85062 0.0
C880 C 0.85325 0.51733 0.52883 0.0
C881 C 0.87647 0.50728 0.50504 0.0
H882 H 0.81018 0.50189 0.55667 0.0
C883 C 0.8736 0.47243 0.49121 0.0
H884 H 0.85423 0.54399 0.53964 0.0
C885 C 0.84797 0.44832 0.50069 0.0
C886 C 0.82473 0.45845 0.52439 0.0
H887 H 0.89136 0.46369 0.47316 0.0
H888 H 0.84647 0.42172 0.48949 0.0
C889 C 0.82779 0.49319 0.53846 0.0
C890 C 0.71046 0.91918 0.80348 0.0
C891 C 0.74368 0.91198 0.79254 0.0
H892 H 0.66336 0.94136 0.7957 0.0
C893 C 0.7532 0.91888 0.76264 0.0
H894 H 0.70247 0.91392 0.82643 0.0
C895 C 0.73093 0.93502 0.74505 0.0
C896 C 0.69865 0.94422 0.75699 0.0
H897 H 0.77878 0.91368 0.75381 0.0
H898 H 0.73978 0.94165 0.72283 0.0
C899 C 0.68809 0.93492 0.78583 0.0
C900 C 0.68549 0.54532 0.9475 0.0
C901 C 0.66994 0.53062 0.97215 0.0
H902 H 0.72867 0.57929 0.93416 0.0
C903 C 0.68603 0.54072 1.00331 0.0
H904 H 0.67395 0.53779 0.92318 0.0
C905 C 0.71742 0.5643 0.00957 0.0
C906 C 0.73354 0.57833 0.98482 0.0
H907 H 0.67448 0.53013 0.02286 0.0
H908 H 0.72926 0.57117 0.03382 0.0
C909 C 0.717 0.56889 0.95376 0.0
C910 C 0.26287 0.65124 0.22492 0.0
C911 C 0.27563 0.665 0.2566 0.0
H912 H 0.22728 0.61226 0.19342 0.0
C913 C 0.2603 0.65052 0.28143 0.0
H914 H 0.2743 0.66193 0.20537 0.0
C915 C 0.23312 0.62246 0.2747 0.0
C916 C 0.2211 0.60797 0.24294 0.0
H917 H 0.26941 0.66092 0.3061 0.0
H918 H 0.22218 0.61159 0.29434 0.0
C919 C 0.23606 0.6228 0.21813 0.0
C920 C 0.97592 0.60088 0.04373 0.0
C921 C 0.97537 0.56789 0.02571 0.0
H922 H 0.9515 0.64637 0.0516 0.0
C923 C 0.94819 0.55544 1.00122 0.0
H924 H 0.99673 0.61144 0.06246 0.0
C925 C 0.92235 0.57557 0.99479 0.0
C926 C 0.92308 0.60865 0.01268 0.0
H927 H 0.94675 0.52998 0.98711 0.0
H928 H 0.90177 0.56515 0.97583 0.0
C929 C 0.95013 0.62101 0.03728 0.0
C930 C 0.1179 0.96942 0.03647 0.0
C931 C 0.11094 0.97088 0.06887 0.0
H932 H 0.14681 0.94829 0.99723 0.0
C933 C 0.12692 0.94924 0.08585 0.0
H934 H 0.10559 0.98511 0.02236 0.0
C935 C 0.1499 0.92757 0.07118 0.0
C936 C 0.15801 0.92726 0.03926 0.0
H937 H 0.1229 0.94991 0.11093 0.0
H938 H 0.16246 0.91207 0.08535 0.0
C939 C 0.14133 0.94807 0.02193 0.0
loop_
_geom_bond_atom_site_label_1
_geom_bond_atom_site_label_2
_geom_bond_distance
_geom_bond_site_symmetry_2
_ccdc_geom_bond_type
H0 C1 0.949 . S
C1 H0 0.949 . S
C1 C2 1.395 . S
C1 C3 1.391 . S
C2 C1 1.395 . S
C2 C5 1.390 1_545 S
C3 C1 1.391 . S
C3 C7 1.387 . S
C3 C8 1.491 . S
H4 C5 0.950 . S
C5 C2 1.390 1_565 S
C5 H4 0.950 . S
C5 C6 1.378 1_565 S
C6 C5 1.378 1_545 S
C6 C7 1.409 . S
C7 C3 1.387 . S
C7 C6 1.409 . S
C7 H9 0.951 . S
C8 C3 1.491 . S
C8 C10 1.382 . S
C8 C12 1.404 . S
H9 C7 0.951 . S
C10 C8 1.382 . S
C10 C11 1.390 1_554 S
C10 H15 0.949 1_554 S
C11 C10 1.390 1_556 S
C11 C16 1.399 1_556 S
C12 C8 1.404 . S
C12 H13 0.950 . S
C12 C14 1.375 . S
H13 C12 0.950 . S
C14 C12 1.375 . S
C14 C16 1.382 . S
C14 H18 0.950 . S
H15 C10 0.949 1_556 S
C16 C11 1.399 1_554 S
C16 C14 1.382 . S
C16 H17 0.931 1_554 S
H17 C16 0.931 1_556 S
H18 C14 0.950 . S
H19 C20 0.949 . S
C20 H19 0.949 . S
C20 C21 1.395 . S
C20 C22 1.391 . S
C21 C20 1.395 . S
C21 C24 1.390 . S
C22 C20 1.391 . S
C22 C26 1.387 . S
C22 C27 1.491 . S
H23 C24 0.950 . S
C24 C21 1.390 . S
C24 H23 0.950 . S
C24 C25 1.378 . S
C25 C24 1.378 . S
C25 C26 1.409 . S
C26 C22 1.387 . S
C26 C25 1.409 . S
C26 H28 0.951 . S
C27 C22 1.491 . S
C27 C29 1.382 . S
C27 C31 1.404 . S
H28 C26 0.951 . S
C29 C27 1.382 . S
C29 C30 1.390 . S
C29 H34 0.949 . S
C30 C29 1.390 . S
C30 C35 1.399 . S
C31 C27 1.404 . S
C31 H32 0.950 . S
C31 C33 1.375 . S
H32 C31 0.950 . S
C33 C31 1.375 . S
C33 C35 1.382 . S
C33 H37 0.950 . S
H34 C29 0.949 . S
C35 C30 1.399 . S
C35 C33 1.382 . S
C35 H36 0.952 . S
H36 C35 0.952 . S
H37 C33 0.950 . S
H38 C39 0.949 . S
C39 H38 0.949 . S
C39 C40 1.395 . S
C39 C41 1.391 1_455 S
C40 C39 1.395 . S
C40 C43 1.390 1_455 S
C41 C39 1.391 1_655 S
C41 C45 1.387 . S
C41 C46 1.486 1_654 S
H42 C43 0.950 . S
C43 C40 1.390 1_655 S
C43 H42 0.950 . S
C43 C44 1.378 . S
C44 C43 1.378 . S
C44 C45 1.409 . S
C45 C41 1.387 . S
C45 C44 1.409 . S
C45 H47 0.951 1_554 S
C46 C41 1.486 1_456 S
C46 C48 1.387 . S
C46 C50 1.405 . S
H47 C45 0.951 1_556 S
C48 C46 1.387 . S
C48 C49 1.390 . S
C48 H53 0.949 1_556 S
C49 C48 1.390 . S
C49 C54 1.399 . S
C50 C46 1.405 . S
C50 H51 0.955 . S
C50 C52 1.375 . S
H51 C50 0.955 . S
C52 C50 1.375 . S
C52 C54 1.382 . S
C52 H56 0.950 . S
H53 C48 0.949 1_554 S
C54 C49 1.399 . S
C54 C52 1.382 . S
C54 H55 0.952 . S
H55 C54 0.952 . S
H56 C52 0.950 . S
H57 C58 0.949 . S
C58 H57 0.949 . S
C58 C59 1.395 . S
C58 C60 1.391 . S
C59 C58 1.395 . S
C59 C62 1.390 . S
C60 C58 1.391 . S
C60 C64 1.387 . S
C60 C65 1.491 . S
H61 C62 0.950 . S
C62 C59 1.390 . S
C62 H61 0.950 . S
C62 C63 1.378 . S
C63 C62 1.378 . S
C63 C64 1.409 . S
C64 C60 1.387 . S
C64 C63 1.409 . S
C64 H66 0.951 . S
C65 C60 1.491 . S
C65 C67 1.382 . S
C65 C69 1.404 . S
H66 C64 0.951 . S
C67 C65 1.382 . S
C67 C68 1.390 . S
C67 H72 0.949 . S
C68 C67 1.390 . S
C68 C73 1.399 . S
C69 C65 1.404 . S
C69 H70 0.950 . S
C69 C71 1.375 . S
H70 C69 0.950 . S
C71 C69 1.375 . S
C71 C73 1.382 . S
C71 H75 0.950 . S
H72 C67 0.949 . S
C73 C68 1.399 . S
C73 C71 1.382 . S
C73 H74 0.952 . S
H74 C73 0.952 . S
H75 C71 0.950 . S
H76 C77 0.949 . S
C77 H76 0.949 . S
C77 C78 1.395 1_565 S
C77 C79 1.391 . S
C78 C77 1.395 1_545 S
C78 C81 1.390 . S
C79 C77 1.391 . S
C79 C83 1.387 . S
C79 C84 1.491 . S
H80 C81 0.950 . S
C81 C78 1.390 . S
C81 H80 0.950 . S
C81 C82 1.378 1_545 S
C82 C81 1.378 1_565 S
C82 C83 1.409 . S
C83 C79 1.387 . S
C83 C82 1.409 . S
C83 H85 0.951 . S
C84 C79 1.491 . S
C84 C86 1.382 . S
C84 C88 1.404 . S
H85 C83 0.951 . S
C86 C84 1.382 . S
C86 C87 1.390 . S
C86 H91 0.949 . S
C87 C86 1.390 . S
C87 C92 1.399 . S
C88 C84 1.404 . S
C88 H89 0.950 . S
C88 C90 1.375 . S
H89 C88 0.950 . S
C90 C88 1.375 . S
C90 C92 1.382 . S
C90 H94 0.950 . S
H91 C86 0.949 . S
C92 C87 1.399 . S
C92 C90 1.382 . S
C92 H93 0.952 . S
H93 C92 0.952 . S
H94 C90 0.950 . S
H95 C96 0.949 . S
C96 H95 0.949 . S
C96 C97 1.395 . S
C96 C98 1.391 . S
C97 C96 1.395 . S
C97 C100 1.390 . S
C98 C96 1.391 . S
C98 C102 1.387 . S
C98 C103 1.491 . S
H99 C100 0.950 . S
C100 C97 1.390 . S
C100 H99 0.950 . S
C100 C101 1.378 . S
C101 C100 1.378 . S
C101 C102 1.409 . S
C102 C98 1.387 . S
C102 C101 1.409 . S
C102 H104 0.951 . S
C103 C98 1.491 . S
C103 C105 1.382 . S
C103 C107 1.404 . S
H104 C102 0.951 . S
C105 C103 1.382 . S
C105 C106 1.390 . S
C105 H110 0.949 . S
C106 C105 1.390 . S
C106 C111 1.399 . S
C107 C103 1.404 . S
C107 H108 0.950 . S
C107 C109 1.375 . S
H108 C107 0.950 . S
C109 C107 1.375 . S
C109 C111 1.382 . S
C109 H113 0.950 . S
H110 C105 0.949 . S
C111 C106 1.399 . S
C111 C109 1.382 . S
C111 H112 0.952 . S
H112 C111 0.952 . S
H113 C109 0.950 . S
H114 C115 0.949 . S
C115 H114 0.949 . S
C115 C116 1.395 . S
C115 C117 1.391 . S
C116 C115 1.395 . S
C116 C119 1.390 . S
C117 C115 1.391 . S
C117 C121 1.387 . S
C117 C122 1.491 . S
H118 C119 0.950 . S
C119 C116 1.390 . S
C119 H118 0.950 . S
C119 C120 1.378 . S
C120 C119 1.378 . S
C120 C121 1.409 . S
C121 C117 1.387 . S
C121 C120 1.409 . S
C121 H123 0.951 . S
C122 C117 1.491 . S
C122 C124 1.382 1_655 S
C122 C126 1.404 . S
H123 C121 0.951 . S
C124 C122 1.382 1_455 S
C124 C125 1.390 . S
C124 H129 0.949 . S
C125 C124 1.390 . S
C125 C130 1.399 1_455 S
C126 C122 1.404 . S
C126 H127 0.950 . S
C126 C128 1.375 . S
H127 C126 0.950 . S
C128 C126 1.375 . S
C128 C130 1.382 . S
C128 H132 0.950 . S
H129 C124 0.949 . S
C130 C125 1.399 1_655 S
C130 C128 1.382 . S
C130 H131 0.952 . S
H131 C130 0.952 . S
H132 C128 0.950 . S
H133 C134 0.949 . S
C134 H133 0.949 . S
C134 C135 1.395 . S
C134 C136 1.391 . S
C135 C134 1.395 . S
C135 C138 1.390 . S
C136 C134 1.391 . S
C136 C140 1.387 . S
C136 C141 1.491 . S
H137 C138 0.950 . S
C138 C135 1.390 . S
C138 H137 0.950 . S
C138 C139 1.378 . S
C139 C138 1.378 . S
C139 C140 1.409 . S
C140 C136 1.387 . S
C140 C139 1.409 . S
C140 H142 0.951 . S
C141 C136 1.491 . S
C141 C143 1.382 . S
C141 C145 1.404 . S
H142 C140 0.951 . S
C143 C141 1.382 . S
C143 C144 1.390 . S
C143 H148 0.949 . S
C144 C143 1.390 . S
C144 C149 1.399 . S
C145 C141 1.404 . S
C145 H146 0.950 . S
C145 C147 1.375 . S
H146 C145 0.950 . S
C147 C145 1.375 . S
C147 C149 1.382 . S
C147 H151 0.950 . S
H148 C143 0.949 . S
C149 C144 1.399 . S
C149 C147 1.382 . S
C149 H150 0.952 . S
H150 C149 0.952 . S
H151 C147 0.950 . S
H152 C153 0.949 . S
C153 H152 0.949 . S
C153 C154 1.395 . S
C153 C155 1.391 . S
C154 C153 1.395 . S
C154 C157 1.390 . S
C155 C153 1.391 . S
C155 C159 1.387 . S
C155 C160 1.491 . S
H156 C157 0.950 . S
C157 C154 1.390 . S
C157 H156 0.950 . S
C157 C158 1.378 . S
C158 C157 1.378 . S
C158 C159 1.409 . S
C159 C155 1.387 . S
C159 C158 1.409 . S
C159 H161 0.951 . S
C160 C155 1.491 . S
C160 C162 1.382 . S
C160 C164 1.404 . S
H161 C159 0.951 . S
C162 C160 1.382 . S
C162 C163 1.390 . S
C162 H167 0.949 . S
C163 C162 1.390 . S
C163 C168 1.399 . S
C164 C160 1.404 . S
C164 H165 0.950 . S
C164 C166 1.375 . S
H165 C164 0.950 . S
C166 C164 1.375 . S
C166 C168 1.382 . S
C166 H170 0.950 . S
H167 C162 0.949 . S
C168 C163 1.399 . S
C168 C166 1.382 . S
C168 H169 0.952 . S
H169 C168 0.952 . S
H170 C166 0.950 . S
H171 C172 0.949 . S
C172 H171 0.949 . S
C172 C173 1.395 . S
C172 C174 1.391 . S
C173 C172 1.395 . S
C173 C176 1.390 1_565 S
C174 C172 1.391 . S
C174 C178 1.387 . S
C174 C179 1.491 . S
H175 C176 0.950 . S
C176 C173 1.390 1_545 S
C176 H175 0.950 . S
C176 C177 1.378 . S
C177 C176 1.378 . S
C177 C178 1.409 1_545 S
C178 C174 1.387 . S
C178 C177 1.409 1_565 S
C178 H180 0.951 . S
C179 C174 1.491 . S
C179 C181 1.382 . S
C179 C183 1.404 . S
H180 C178 0.951 . S
C181 C179 1.382 . S
C181 C182 1.390 . S
C181 H186 0.949 . S
C182 C181 1.390 . S
C182 C187 1.399 . S
C183 C179 1.404 . S
C183 H184 0.950 . S
C183 C185 1.375 . S
H184 C183 0.950 . S
C185 C183 1.375 . S
C185 C187 1.382 . S
C185 H189 0.950 . S
H186 C181 0.949 . S
C187 C182 1.399 . S
C187 C185 1.382 . S
C187 H188 0.952 . S
H188 C187 0.952 . S
H189 C185 0.950 . S
H190 C191 0.949 . S
C191 H190 0.949 . S
C191 C192 1.395 . S
C191 C193 1.391 . S
C192 C191 1.395 . S
C192 C195 1.390 . S
C193 C191 1.391 . S
C193 C197 1.387 . S
C193 C198 1.491 . S
H194 C195 0.950 . S
C195 C192 1.390 . S
C195 H194 0.950 . S
C195 C196 1.378 . S
C196 C195 1.378 . S
C196 C197 1.409 . S
C197 C193 1.387 . S
C197 C196 1.409 . S
C197 H199 0.951 . S
C198 C193 1.491 . S
C198 C200 1.382 . S
C198 C202 1.404 . S
H199 C197 0.951 . S
C200 C198 1.382 . S
C200 C201 1.390 . S
C200 H205 0.949 . S
C201 C200 1.390 . S
C201 C206 1.399 . S
C202 C198 1.404 . S
C202 H203 0.950 . S
C202 C204 1.375 . S
H203 C202 0.950 . S
C204 C202 1.375 . S
C204 C206 1.382 . S
C204 H208 0.950 . S
H205 C200 0.949 . S
C206 C201 1.399 . S
C206 C204 1.382 . S
C206 H207 0.952 . S
H207 C206 0.952 . S
H208 C204 0.950 . S
H209 C210 0.949 . S
C210 H209 0.949 . S
C210 C211 1.395 . S
C210 C212 1.391 . S
C211 C210 1.395 . S
C211 C214 1.390 . S
C212 C210 1.391 . S
C212 C216 1.387 . S
C212 C217 1.491 . S
H213 C214 0.950 . S
C214 C211 1.390 . S
C214 H213 0.950 . S
C214 C215 1.378 . S
C215 C214 1.378 . S
C215 C216 1.409 . S
C216 C212 1.387 . S
C216 C215 1.409 . S
C216 H218 0.951 . S
C217 C212 1.491 . S
C217 C219 1.382 . S
C217 C221 1.404 . S
H218 C216 0.951 . S
C219 C217 1.382 . S
C219 C220 1.390 . S
C219 H224 0.949 . S
C220 C219 1.390 . S
C220 C225 1.399 . S
C221 C217 1.404 . S
C221 H222 0.950 . S
C221 C223 1.375 . S
H222 C221 0.950 . S
C223 C221 1.375 . S
C223 C225 1.382 . S
C223 H227 0.950 . S
H224 C219 0.949 . S
C225 C220 1.399 . S
C225 C223 1.382 . S
C225 H226 0.952 . S
H226 C225 0.952 . S
H227 C223 0.950 . S
H228 C229 0.949 . S
C229 H228 0.949 . S
C229 C230 1.395 . S
C229 C231 1.391 . S
C230 C229 1.395 . S
C230 C233 1.390 . S
C231 C229 1.391 . S
C231 C235 1.387 . S
C231 C236 1.491 . S
H232 C233 0.950 . S
C233 C230 1.390 . S
C233 H232 0.950 . S
C233 C234 1.378 . S
C234 C233 1.378 . S
C234 C235 1.409 . S
C235 C231 1.387 . S
C235 C234 1.409 . S
C235 H237 0.951 . S
C236 C231 1.491 . S
C236 C238 1.382 . S
C236 C240 1.404 . S
H237 C235 0.951 . S
C238 C236 1.382 . S
C238 C239 1.390 . S
C238 H243 0.949 . S
C239 C238 1.390 . S
C239 C244 1.399 . S
C240 C236 1.404 . S
C240 H241 0.950 . S
C240 C242 1.375 . S
H241 C240 0.950 . S
C242 C240 1.375 . S
C242 C244 1.382 . S
C242 H246 0.950 . S
H243 C238 0.949 . S
C244 C239 1.399 . S
C244 C242 1.382 . S
C244 H245 0.952 . S
H245 C244 0.952 . S
H246 C242 0.950 . S
H247 C248 0.949 1_554 S
C248 H247 0.949 1_556 S
C248 C249 1.395 . S
C248 C250 1.391 . S
C249 C248 1.395 . S
C249 C252 1.390 . S
C250 C248 1.391 . S
C250 C254 1.387 . S
C250 C255 1.491 . S
H251 C252 0.950 . S
C252 C249 1.390 . S
C252 H251 0.950 . S
C252 C253 1.378 . S
C253 C252 1.378 . S
C253 C254 1.409 . S
C254 C250 1.387 . S
C254 C253 1.409 . S
C254 H256 0.951 . S
C255 C250 1.491 . S
C255 C257 1.382 1_556 S
C255 C259 1.404 . S
H256 C254 0.951 . S
C257 C255 1.382 1_554 S
C257 C258 1.390 . S
C257 H262 0.949 . S
C258 C257 1.390 . S
C258 C263 1.399 . S
C259 C255 1.404 . S
C259 H260 0.950 . S
C259 C261 1.375 . S
H260 C259 0.950 . S
C261 C259 1.375 . S
C261 C263 1.382 1_556 S
C261 H265 0.950 . S
H262 C257 0.949 . S
C263 C258 1.399 . S
C263 C261 1.382 1_554 S
C263 H264 0.952 . S
H264 C263 0.952 . S
H265 C261 0.950 . S
H266 C267 0.949 . S
C267 H266 0.949 . S
C267 C268 1.395 . S
C267 C269 1.391 . S
C268 C267 1.395 . S
C268 C271 1.390 . S
C269 C267 1.391 . S
C269 C273 1.387 . S
C269 C274 1.491 . S
H270 C271 0.950 . S
C271 C268 1.390 . S
C271 H270 0.950 . S
C271 C272 1.378 . S
C272 C271 1.378 . S
C272 C273 1.409 . S
C273 C269 1.387 . S
C273 C272 1.409 . S
C273 H275 0.951 . S
C274 C269 1.491 . S
C274 C276 1.382 . S
C274 C278 1.404 . S
H275 C273 0.951 . S
C276 C274 1.382 . S
C276 C277 1.390 . S
C276 H281 0.949 . S
C277 C276 1.390 . S
C277 C282 1.399 . S
C278 C274 1.404 . S
C278 H279 0.950 . S
C278 C280 1.375 . S
H279 C278 0.950 . S
C280 C278 1.375 . S
C280 C282 1.382 . S
C280 H284 0.950 . S
H281 C276 0.949 . S
C282 C277 1.399 . S
C282 C280 1.382 . S
C282 H283 0.952 . S
H283 C282 0.952 . S
H284 C280 0.950 . S
H285 C286 0.949 . S
C286 H285 0.949 . S
C286 C287 1.395 1_556 S
C286 C288 1.391 . S
C287 C286 1.395 1_554 S
C287 C290 1.390 . S
C288 C286 1.391 . S
C288 C292 1.387 . S
C288 C293 1.491 . S
H289 C290 0.950 . S
C290 C287 1.390 . S
C290 H289 0.950 . S
C290 C291 1.378 1_554 S
C291 C290 1.378 1_556 S
C291 C292 1.409 . S
C292 C288 1.387 . S
C292 C291 1.409 . S
C292 H294 0.951 1_545 S
C293 C288 1.491 . S
C293 C295 1.382 . S
C293 C297 1.404 . S
H294 C292 0.951 1_565 S
C295 C293 1.382 . S
C295 C296 1.390 . S
C295 H300 0.949 . S
C296 C295 1.390 . S
C296 C301 1.399 . S
C297 C293 1.404 . S
C297 H298 0.950 . S
C297 C299 1.375 . S
H298 C297 0.950 . S
C299 C297 1.375 . S
C299 C301 1.382 . S
C299 H303 0.950 . S
H300 C295 0.949 . S
C301 C296 1.399 . S
C301 C299 1.382 . S
C301 H302 0.952 . S
H302 C301 0.952 . S
H303 C299 0.950 . S
C304 O305 1.160 . S
C304 O311 1.185 . S
O305 C304 1.160 . S
O306 Zn307 1.899 . S
O306 C314 1.284 1_554 S
Zn307 O306 1.899 . S
Zn307 O308 2.032 . S
Zn307 O311 2.086 . S
Zn307 O316 1.977 . S
O308 Zn307 2.032 . S
O308 C312 1.278 . S
C309 O310 1.203 . S
C309 O316 1.267 . S
O310 C309 1.203 . S
O311 C304 1.185 . S
O311 Zn307 2.086 . S
C312 O308 1.278 . S
C312 O313 1.211 . S
O313 C312 1.211 . S
C314 O306 1.284 1_556 S
C314 O315 1.273 . S
O315 C314 1.273 . S
O316 Zn307 1.977 . S
O316 C309 1.267 . S
C317 O318 1.160 . S
C317 O324 1.185 . S
O318 C317 1.160 . S
O319 Zn320 1.899 . S
O319 C327 1.284 . S
Zn320 O319 1.899 . S
Zn320 O321 2.032 . S
Zn320 O324 2.086 . S
Zn320 O329 1.977 . S
O321 Zn320 2.032 . S
O321 C325 1.278 . S
C322 O323 1.203 . S
C322 O329 1.267 . S
O323 C322 1.203 . S
O324 C317 1.185 . S
O324 Zn320 2.086 . S
C325 O321 1.278 . S
C325 O326 1.211 . S
O326 C325 1.211 . S
C327 O319 1.284 . S
C327 O328 1.273 . S
O328 C327 1.273 . S
O329 Zn320 1.977 . S
O329 C322 1.267 . S
C330 O331 1.160 . S
C330 O337 1.185 1_556 S
O331 C330 1.160 . S
O332 Zn333 1.899 1_556 S
O332 C340 1.284 . S
Zn333 O332 1.899 1_554 S
Zn333 O334 2.032 1_554 S
Zn333 O337 2.086 . S
Zn333 O342 1.977 . S
O334 Zn333 2.032 1_556 S
O334 C338 1.278 . S
C335 O336 1.203 . S
C335 O342 1.267 . S
O336 C335 1.203 . S
O337 C330 1.185 1_554 S
O337 Zn333 2.086 . S
C338 O334 1.278 . S
C338 O339 1.211 1_556 S
O339 C338 1.211 1_554 S
C340 O332 1.284 . S
C340 O341 1.273 . S
O341 C340 1.273 . S
O342 Zn333 1.977 . S
O342 C335 1.267 . S
C343 O344 1.160 . S
C343 O350 1.185 . S
O344 C343 1.160 . S
O345 Zn346 1.899 . S
O345 C353 1.284 . S
Zn346 O345 1.899 . S
Zn346 O347 2.032 1_545 S
Zn346 O350 2.086 . S
Zn346 O355 1.977 . S
O347 Zn346 2.032 1_565 S
O347 C351 1.278 . S
C348 O349 1.203 1_655 S
C348 O355 1.267 . S
O349 C348 1.203 1_455 S
O350 C343 1.185 . S
O350 Zn346 2.086 . S
C351 O347 1.278 . S
C351 O352 1.211 . S
O352 C351 1.211 . S
C353 O345 1.284 . S
C353 O354 1.273 1_545 S
O354 C353 1.273 1_565 S
O355 Zn346 1.977 . S
O355 C348 1.267 . S
C356 O357 1.160 . S
C356 O363 1.185 . S
O357 C356 1.160 . S
O358 Zn359 1.899 . S
O358 C366 1.284 . S
Zn359 O358 1.899 . S
Zn359 O360 2.032 . S
Zn359 O363 2.086 . S
Zn359 O368 1.977 . S
O360 Zn359 2.032 . S
O360 C364 1.278 . S
C361 O362 1.203 . S
C361 O368 1.267 . S
O362 C361 1.203 . S
O363 C356 1.185 . S
O363 Zn359 2.086 . S
C364 O360 1.278 . S
C364 O365 1.211 . S
O365 C364 1.211 . S
C366 O358 1.284 . S
C366 O367 1.273 . S
O367 C366 1.273 . S
O368 Zn359 1.977 . S
O368 C361 1.267 . S
C369 O370 1.160 . S
C369 O376 1.185 . S
O370 C369 1.160 . S
O371 Zn372 1.899 . S
O371 C379 1.284 . S
Zn372 O371 1.899 . S
Zn372 O373 2.032 . S
Zn372 O376 2.086 . S
Zn372 O381 1.977 . S
O373 Zn372 2.032 . S
O373 C377 1.278 . S
C374 O375 1.203 . S
C374 O381 1.267 . S
O375 C374 1.203 . S
O376 C369 1.185 . S
O376 Zn372 2.086 . S
C377 O373 1.278 . S
C377 O378 1.211 . S
O378 C377 1.211 . S
C379 O371 1.284 . S
C379 O380 1.273 . S
O380 C379 1.273 . S
O381 Zn372 1.977 . S
O381 C374 1.267 . S
C382 O383 1.160 . S
C382 O389 1.185 . S
O383 C382 1.160 . S
O384 Zn385 1.899 . S
O384 C392 1.284 . S
Zn385 O384 1.899 . S
Zn385 O386 2.032 . S
Zn385 O389 2.086 . S
Zn385 O394 1.977 . S
O386 Zn385 2.032 . S
O386 C390 1.278 . S
C387 O388 1.203 . S
C387 O394 1.267 . S
O388 C387 1.203 . S
O389 C382 1.185 . S
O389 Zn385 2.086 . S
C390 O386 1.278 . S
C390 O391 1.211 . S
O391 C390 1.211 . S
C392 O384 1.284 . S
C392 O393 1.273 . S
O393 C392 1.273 . S
O394 Zn385 1.977 . S
O394 C387 1.267 . S
C395 O396 1.160 . S
C395 O402 1.185 . S
O396 C395 1.160 . S
O397 Zn398 1.899 . S
O397 C405 1.284 . S
Zn398 O397 1.899 . S
Zn398 O399 2.032 . S
Zn398 O402 2.086 1_545 S
Zn398 O407 1.977 1_545 S
O399 Zn398 2.032 . S
O399 C403 1.278 . S
C400 O401 1.203 . S
C400 O407 1.267 1_545 S
O401 C400 1.203 . S
O402 C395 1.185 . S
O402 Zn398 2.086 1_565 S
C403 O399 1.278 . S
C403 O404 1.211 . S
O404 C403 1.211 . S
C405 O397 1.284 . S
C405 O406 1.273 . S
O406 C405 1.273 . S
O407 Zn398 1.977 1_565 S
O407 C400 1.267 1_565 S
C408 O409 1.160 1_455 S
C408 O415 1.185 . S
O409 C408 1.160 1_655 S
O410 Zn411 1.899 1_655 S
O410 C418 1.284 . S
Zn411 O410 1.899 1_455 S
Zn411 O412 2.032 . S
Zn411 O415 2.086 . S
Zn411 O420 1.977 . S
O412 Zn411 2.032 . S
O412 C416 1.278 . S
C413 O414 1.203 . S
C413 O420 1.267 . S
O414 C413 1.203 . S
O415 C408 1.185 . S
O415 Zn411 2.086 . S
C416 O412 1.278 . S
C416 O417 1.211 . S
O417 C416 1.211 . S
C418 O410 1.284 . S
C418 O419 1.273 . S
O419 C418 1.273 . S
O420 Zn411 1.977 . S
O420 C413 1.267 . S
C421 O422 1.160 . S
C421 O428 1.185 . S
O422 C421 1.160 . S
O423 Zn424 1.899 . S
O423 C431 1.284 . S
Zn424 O423 1.899 . S
Zn424 O425 2.032 . S
Zn424 O428 2.086 . S
Zn424 O433 1.977 . S
O425 Zn424 2.032 . S
O425 C429 1.278 . S
C426 O427 1.203 . S
C426 O433 1.267 . S
O427 C426 1.203 . S
O428 C421 1.185 . S
O428 Zn424 2.086 . S
C429 O425 1.278 . S
C429 O430 1.211 . S
O430 C429 1.211 . S
C431 O423 1.284 . S
C431 O432 1.273 . S
O432 C431 1.273 . S
O433 Zn424 1.977 . S
O433 C426 1.267 . S
C434 O435 1.160 1_455 S
C434 O441 1.185 . S
O435 C434 1.160 1_655 S
O436 Zn437 1.899 1_655 S
O436 C444 1.284 . S
Zn437 O436 1.899 1_455 S
Zn437 O438 2.032 1_455 S
Zn437 O441 2.086 . S
Zn437 O446 1.977 . S
O438 Zn437 2.032 1_655 S
O438 C442 1.278 . S
C439 O440 1.203 . S
C439 O446 1.267 . S
O440 C439 1.203 . S
O441 C434 1.185 . S
O441 Zn437 2.086 . S
C442 O438 1.278 . S
C442 O443 1.208 1_655 S
O443 C442 1.208 1_455 S
C444 O436 1.284 . S
C444 O445 1.273 . S
O445 C444 1.273 . S
O446 Zn437 1.977 . S
O446 C439 1.267 . S
C447 O448 1.160 . S
C447 O454 1.185 . S
O448 C447 1.160 . S
O449 Zn450 1.899 . S
O449 C457 1.284 . S
Zn450 O449 1.899 . S
Zn450 O451 2.032 . S
Zn450 O454 2.086 . S
Zn450 O459 1.977 . S
O451 Zn450 2.032 . S
O451 C455 1.278 . S
C452 O453 1.203 . S
C452 O459 1.267 . S
O453 C452 1.203 . S
O454 C447 1.185 . S
O454 Zn450 2.086 . S
C455 O451 1.278 . S
C455 O456 1.211 . S
O456 C455 1.211 . S
C457 O449 1.284 . S
C457 O458 1.273 . S
O458 C457 1.273 . S
O459 Zn450 1.977 . S
O459 C452 1.267 . S
C460 C461 1.387 . S
C460 H464 0.950 . S
C460 C469 1.390 . S
C461 C460 1.387 . S
C461 C463 1.387 . S
H462 C469 0.950 . S
C463 C461 1.387 . S
C463 C465 1.390 . S
C463 H467 0.950 . S
H464 C460 0.950 . S
C465 C463 1.390 . S
C465 C466 1.387 . S
C465 H468 0.950 . S
C466 C465 1.387 . S
C466 C469 1.387 . S
H467 C463 0.950 . S
H468 C465 0.950 . S
C469 C460 1.390 . S
C469 H462 0.950 . S
C469 C466 1.387 . S
C470 C471 1.387 . S
C470 H474 0.950 . S
C470 C479 1.390 . S
C471 C470 1.387 . S
C471 C473 1.387 . S
H472 C479 0.950 . S
C473 C471 1.387 . S
C473 C475 1.390 . S
C473 H477 0.950 . S
H474 C470 0.950 . S
C475 C473 1.390 . S
C475 C476 1.387 . S
C475 H478 0.950 . S
C476 C475 1.387 . S
C476 C479 1.387 . S
H477 C473 0.950 . S
H478 C475 0.950 . S
C479 C470 1.390 . S
C479 H472 0.950 . S
C479 C476 1.387 . S
C480 C481 1.387 . S
C480 H484 0.950 . S
C480 C489 1.390 . S
C481 C480 1.387 . S
C481 C483 1.387 . S
H482 C489 0.950 . S
C483 C481 1.387 . S
C483 C485 1.390 . S
C483 H487 0.950 . S
H484 C480 0.950 . S
C485 C483 1.390 . S
C485 C486 1.387 . S
C485 H488 0.950 . S
C486 C485 1.387 . S
C486 C489 1.387 . S
H487 C483 0.950 . S
H488 C485 0.950 . S
C489 C480 1.390 . S
C489 H482 0.950 . S
C489 C486 1.387 . S
C490 C491 1.387 1_565 S
C490 H494 0.950 . S
C490 C499 1.396 . S
C491 C490 1.387 1_545 S
C491 C493 1.387 . S
H492 C499 0.952 . S
C493 C491 1.387 . S
C493 C495 1.390 . S
C493 H497 0.950 . S
H494 C490 0.950 . S
C495 C493 1.390 . S
C495 C496 1.387 . S
C495 H498 0.950 1_455 S
C496 C495 1.387 . S
C496 C499 1.379 1_545 S
H497 C493 0.950 . S
H498 C495 0.950 1_655 S
C499 C490 1.396 . S
C499 H492 0.952 . S
C499 C496 1.379 1_565 S
C500 C501 1.387 . S
C500 H504 0.950 . S
C500 C509 1.390 . S
C501 C500 1.387 . S
C501 C503 1.387 . S
H502 C509 0.950 . S
C503 C501 1.387 . S
C503 C505 1.390 . S
C503 H507 0.950 . S
H504 C500 0.950 . S
C505 C503 1.390 . S
C505 C506 1.387 . S
C505 H508 0.950 . S
C506 C505 1.387 . S
C506 C509 1.387 . S
H507 C503 0.950 . S
H508 C505 0.950 . S
C509 C500 1.390 . S
C509 H502 0.950 . S
C509 C506 1.387 . S
C510 C511 1.387 . S
C510 H514 0.950 . S
C510 C519 1.390 . S
C511 C510 1.387 . S
C511 C513 1.387 . S
H512 C519 0.950 . S
C513 C511 1.387 . S
C513 C515 1.390 . S
C513 H517 0.950 . S
H514 C510 0.950 . S
C515 C513 1.390 . S
C515 C516 1.387 . S
C515 H518 0.950 . S
C516 C515 1.387 . S
C516 C519 1.387 . S
H517 C513 0.950 . S
H518 C515 0.950 . S
C519 C510 1.390 . S
C519 H512 0.950 . S
C519 C516 1.387 . S
C520 C521 1.387 . S
C520 H524 0.950 . S
C520 C529 1.390 . S
C521 C520 1.387 . S
C521 C523 1.387 . S
H522 C529 0.950 . S
C523 C521 1.387 . S
C523 C525 1.390 . S
C523 H527 0.950 . S
H524 C520 0.950 . S
C525 C523 1.390 . S
C525 C526 1.387 . S
C525 H528 0.950 . S
C526 C525 1.387 . S
C526 C529 1.387 . S
H527 C523 0.950 . S
H528 C525 0.950 . S
C529 C520 1.390 . S
C529 H522 0.950 . S
C529 C526 1.387 . S
C530 C531 1.387 . S
C530 H534 0.950 . S
C530 C539 1.390 . S
C531 C530 1.387 . S
C531 C533 1.387 1_565 S
H532 C539 0.950 . S
C533 C531 1.387 1_545 S
C533 C535 1.390 . S
C533 H537 0.950 . S
H534 C530 0.950 . S
C535 C533 1.390 . S
C535 C536 1.387 1_545 S
C535 H538 0.950 . S
C536 C535 1.387 1_565 S
C536 C539 1.387 . S
H537 C533 0.950 . S
H538 C535 0.950 . S
C539 C530 1.390 . S
C539 H532 0.950 . S
C539 C536 1.387 . S
C540 C541 1.387 . S
C540 H544 0.950 . S
C540 C549 1.390 . S
C541 C540 1.387 . S
C541 C543 1.387 . S
H542 C549 0.950 . S
C543 C541 1.387 . S
C543 C545 1.390 . S
C543 H547 0.950 . S
H544 C540 0.950 . S
C545 C543 1.390 . S
C545 C546 1.387 . S
C545 H548 0.950 . S
C546 C545 1.387 . S
C546 C549 1.387 . S
H547 C543 0.950 . S
H548 C545 0.950 . S
C549 C540 1.390 . S
C549 H542 0.950 . S
C549 C546 1.387 . S
C550 C551 1.387 . S
C550 H554 0.950 . S
C550 C559 1.390 . S
C551 C550 1.387 . S
C551 C553 1.387 . S
H552 C559 0.950 . S
C553 C551 1.387 . S
C553 C555 1.390 . S
C553 H557 0.950 . S
H554 C550 0.950 . S
C555 C553 1.390 . S
C555 C556 1.387 . S
C555 H558 0.950 . S
C556 C555 1.387 . S
C556 C559 1.387 . S
H557 C553 0.950 . S
H558 C555 0.950 . S
C559 C550 1.390 . S
C559 H552 0.950 . S
C559 C556 1.387 . S
C560 C561 1.387 . S
C560 H564 0.950 . S
C560 C569 1.390 . S
C561 C560 1.387 . S
C561 C563 1.387 . S
H562 C569 0.950 . S
C563 C561 1.387 . S
C563 C565 1.390 . S
C563 H567 0.950 . S
H564 C560 0.950 . S
C565 C563 1.390 . S
C565 C566 1.387 . S
C565 H568 0.950 . S
C566 C565 1.387 . S
C566 C569 1.387 . S
H567 C563 0.950 . S
H568 C565 0.950 . S
C569 C560 1.390 . S
C569 H562 0.950 . S
C569 C566 1.387 . S
C570 C571 1.387 . S
C570 H574 0.950 . S
C570 C579 1.390 . S
C571 C570 1.387 . S
C571 C573 1.387 . S
H572 C579 0.950 . S
C573 C571 1.387 . S
C573 C575 1.390 . S
C573 H577 0.950 . S
H574 C570 0.950 . S
C575 C573 1.390 . S
C575 C576 1.387 . S
C575 H578 0.950 . S
C576 C575 1.387 . S
C576 C579 1.387 . S
H577 C573 0.950 . S
H578 C575 0.950 . S
C579 C570 1.390 . S
C579 H572 0.950 . S
C579 C576 1.387 . S
C580 C581 1.387 . S
C580 H584 0.950 . S
C580 C589 1.390 . S
C581 C580 1.387 . S
C581 C583 1.387 . S
H582 C589 0.950 . S
C583 C581 1.387 . S
C583 C585 1.390 . S
C583 H587 0.950 . S
H584 C580 0.950 . S
C585 C583 1.390 . S
C585 C586 1.387 . S
C585 H588 0.950 . S
C586 C585 1.387 . S
C586 C589 1.387 . S
H587 C583 0.950 . S
H588 C585 0.950 . S
C589 C580 1.390 . S
C589 H582 0.950 . S
C589 C586 1.387 . S
C590 C591 1.387 . S
C590 H594 0.950 . S
C590 C599 1.390 . S
C591 C590 1.387 . S
C591 C593 1.387 . S
H592 C599 0.950 . S
C593 C591 1.387 . S
C593 C595 1.390 . S
C593 H597 0.950 . S
H594 C590 0.950 . S
C595 C593 1.390 . S
C595 C596 1.387 . S
C595 H598 0.950 . S
C596 C595 1.387 . S
C596 C599 1.387 . S
H597 C593 0.950 . S
H598 C595 0.950 . S
C599 C590 1.390 . S
C599 H592 0.950 . S
C599 C596 1.387 . S
C600 C601 1.387 . S
C600 H604 0.950 . S
C600 C609 1.390 . S
C601 C600 1.387 . S
C601 C603 1.387 . S
H602 C609 0.950 . S
C603 C601 1.387 . S
C603 C605 1.390 . S
C603 H607 0.950 . S
H604 C600 0.950 . S
C605 C603 1.390 . S
C605 C606 1.387 . S
C605 H608 0.950 . S
C606 C605 1.387 . S
C606 C609 1.387 . S
H607 C603 0.950 . S
H608 C605 0.950 . S
C609 C600 1.390 . S
C609 H602 0.950 . S
C609 C606 1.387 . S
C610 C611 1.387 . S
C610 H614 0.950 . S
C610 C619 1.390 . S
C611 C610 1.387 . S
C611 C613 1.387 1_655 S
H612 C619 0.950 . S
C613 C611 1.387 1_455 S
C613 C615 1.390 . S
C613 H617 0.950 . S
H614 C610 0.950 . S
C615 C613 1.390 . S
C615 C616 1.387 1_455 S
C615 H618 0.950 . S
C616 C615 1.387 1_655 S
C616 C619 1.387 . S
H617 C613 0.950 . S
H618 C615 0.950 . S
C619 C610 1.390 . S
C619 H612 0.950 . S
C619 C616 1.387 . S
C620 C621 1.387 . S
C620 H624 0.950 . S
C620 C629 1.390 . S
C621 C620 1.387 . S
C621 C623 1.387 . S
H622 C629 0.950 . S
C623 C621 1.387 . S
C623 C625 1.390 . S
C623 H627 0.950 . S
H624 C620 0.950 . S
C625 C623 1.390 . S
C625 C626 1.387 . S
C625 H628 0.950 . S
C626 C625 1.387 . S
C626 C629 1.387 . S
H627 C623 0.950 . S
H628 C625 0.950 . S
C629 C620 1.390 . S
C629 H622 0.950 . S
C629 C626 1.387 . S
C630 C631 1.387 . S
C630 H634 0.950 . S
C630 C639 1.390 . S
C631 C630 1.387 . S
C631 C633 1.387 . S
H632 C639 0.950 . S
C633 C631 1.387 . S
C633 C635 1.390 . S
C633 H637 0.950 . S
H634 C630 0.950 . S
C635 C633 1.390 . S
C635 C636 1.387 . S
C635 H638 0.950 . S
C636 C635 1.387 . S
C636 C639 1.387 . S
H637 C633 0.950 . S
H638 C635 0.950 . S
C639 C630 1.390 . S
C639 H632 0.950 . S
C639 C636 1.387 . S
C640 C641 1.387 1_545 S
C640 H644 0.950 . S
C640 C649 1.390 1_545 S
C641 C640 1.387 1_565 S
C641 C643 1.387 1_554 S
H642 C649 0.950 . S
C643 C641 1.387 1_556 S
C643 C645 1.390 . S
C643 H647 0.950 . S
H644 C640 0.950 . S
C645 C643 1.390 . S
C645 C646 1.387 1_556 S
C645 H648 0.950 . S
C646 C645 1.387 1_554 S
C646 C649 1.387 . S
H647 C643 0.950 . S
H648 C645 0.950 . S
C649 C640 1.390 1_565 S
C649 H642 0.950 . S
C649 C646 1.387 . S
C650 C651 1.387 . S
C650 H654 0.950 . S
C650 C659 1.390 . S
C651 C650 1.387 . S
C651 C653 1.387 . S
H652 C659 0.950 . S
C653 C651 1.387 . S
C653 C655 1.390 . S
C653 H657 0.950 . S
H654 C650 0.950 . S
C655 C653 1.390 . S
C655 C656 1.387 . S
C655 H658 0.950 . S
C656 C655 1.387 . S
C656 C659 1.387 . S
H657 C653 0.950 . S
H658 C655 0.950 . S
C659 C650 1.390 . S
C659 H652 0.950 . S
C659 C656 1.387 . S
C660 C661 1.387 . S
C660 H664 0.950 . S
C660 C669 1.390 . S
C661 C660 1.387 . S
C661 C663 1.387 . S
H662 C669 0.950 . S
C663 C661 1.387 . S
C663 C665 1.390 . S
C663 H667 0.950 . S
H664 C660 0.950 . S
C665 C663 1.390 . S
C665 C666 1.387 . S
C665 H668 0.950 . S
C666 C665 1.387 . S
C666 C669 1.387 . S
H667 C663 0.950 . S
H668 C665 0.950 . S
C669 C660 1.390 . S
C669 H662 0.950 . S
C669 C666 1.387 . S
C670 C671 1.387 . S
C670 H674 0.950 . S
C670 C679 1.390 . S
C671 C670 1.387 . S
C671 C673 1.387 . S
H672 C679 0.950 . S
C673 C671 1.387 . S
C673 C675 1.390 . S
C673 H677 0.950 . S
H674 C670 0.950 . S
C675 C673 1.390 . S
C675 C676 1.387 . S
C675 H678 0.950 . S
C676 C675 1.387 . S
C676 C679 1.387 . S
H677 C673 0.950 . S
H678 C675 0.950 . S
C679 C670 1.390 . S
C679 H672 0.950 . S
C679 C676 1.387 . S
C680 C681 1.387 . S
C680 H684 0.950 . S
C680 C689 1.390 . S
C681 C680 1.387 . S
C681 C683 1.387 . S
H682 C689 0.950 . S
C683 C681 1.387 . S
C683 C685 1.390 . S
C683 H687 0.950 . S
H684 C680 0.950 . S
C685 C683 1.390 . S
C685 C686 1.387 . S
C685 H688 0.950 . S
C686 C685 1.387 . S
C686 C689 1.387 . S
H687 C683 0.950 . S
H688 C685 0.950 . S
C689 C680 1.390 . S
C689 H682 0.950 . S
C689 C686 1.387 . S
C690 C691 1.387 . S
C690 H694 0.950 . S
C690 C699 1.390 . S
C691 C690 1.387 . S
C691 C693 1.387 . S
H692 C699 0.950 . S
C693 C691 1.387 . S
C693 C695 1.390 . S
C693 H697 0.950 . S
H694 C690 0.950 . S
C695 C693 1.390 . S
C695 C696 1.387 . S
C695 H698 0.950 . S
C696 C695 1.387 . S
C696 C699 1.387 . S
H697 C693 0.950 . S
H698 C695 0.950 . S
C699 C690 1.390 . S
C699 H692 0.950 . S
C699 C696 1.387 . S
C700 C701 1.387 . S
C700 H704 0.950 . S
C700 C709 1.390 . S
C701 C700 1.387 . S
C701 C703 1.387 . S
H702 C709 0.950 . S
C703 C701 1.387 . S
C703 C705 1.390 . S
C703 H707 0.950 . S
H704 C700 0.950 . S
C705 C703 1.390 . S
C705 C706 1.387 . S
C705 H708 0.950 . S
C706 C705 1.387 . S
C706 C709 1.387 . S
H707 C703 0.950 . S
H708 C705 0.950 . S
C709 C700 1.390 . S
C709 H702 0.950 . S
C709 C706 1.387 . S
C710 C711 1.387 . S
C710 H714 0.950 . S
C710 C719 1.390 . S
C711 C710 1.387 . S
C711 C713 1.387 . S
H712 C719 0.950 . S
C713 C711 1.387 . S
C713 C715 1.390 . S
C713 H717 0.950 1_545 S
H714 C710 0.950 . S
C715 C713 1.390 . S
C715 C716 1.387 . S
C715 H718 0.950 1_545 S
C716 C715 1.387 . S
C716 C719 1.387 . S
H717 C713 0.950 1_565 S
H718 C715 0.950 1_565 S
C719 C710 1.390 . S
C719 H712 0.950 . S
C719 C716 1.387 . S
C720 C721 1.387 . S
C720 H724 0.950 . S
C720 C729 1.390 . S
C721 C720 1.387 . S
C721 C723 1.387 . S
H722 C729 0.950 . S
C723 C721 1.387 . S
C723 C725 1.390 . S
C723 H727 0.950 . S
H724 C720 0.950 . S
C725 C723 1.390 . S
C725 C726 1.387 . S
C725 H728 0.950 . S
C726 C725 1.387 . S
C726 C729 1.387 . S
H727 C723 0.950 . S
H728 C725 0.950 . S
C729 C720 1.390 . S
C729 H722 0.950 . S
C729 C726 1.387 . S
C730 C731 1.387 . S
C730 H734 0.950 . S
C730 C739 1.390 . S
C731 C730 1.387 . S
C731 C733 1.387 . S
H732 C739 0.950 . S
C733 C731 1.387 . S
C733 C735 1.390 . S
C733 H737 0.950 . S
H734 C730 0.950 . S
C735 C733 1.390 . S
C735 C736 1.387 . S
C735 H738 0.950 . S
C736 C735 1.387 . S
C736 C739 1.387 . S
H737 C733 0.950 . S
H738 C735 0.950 . S
C739 C730 1.390 . S
C739 H732 0.950 . S
C739 C736 1.387 . S
C740 C741 1.387 . S
C740 H744 0.950 . S
C740 C749 1.390 . S
C741 C740 1.387 . S
C741 C743 1.387 . S
H742 C749 0.950 . S
C743 C741 1.387 . S
C743 C745 1.390 . S
C743 H747 0.950 . S
H744 C740 0.950 . S
C745 C743 1.390 . S
C745 C746 1.387 . S
C745 H748 0.950 . S
C746 C745 1.387 . S
C746 C749 1.387 . S
H747 C743 0.950 . S
H748 C745 0.950 . S
C749 C740 1.390 . S
C749 H742 0.950 . S
C749 C746 1.387 . S
C750 C751 1.387 . S
C750 H754 0.950 . S
C750 C759 1.390 . S
C751 C750 1.387 . S
C751 C753 1.387 1_545 S
H752 C759 0.950 . S
C753 C751 1.387 1_565 S
C753 C755 1.391 . S
C753 H757 0.950 . S
H754 C750 0.950 . S
C755 C753 1.391 . S
C755 C756 1.372 1_565 S
C755 H758 0.964 . S
C756 C755 1.372 1_545 S
C756 C759 1.387 . S
H757 C753 0.950 . S
H758 C755 0.964 . S
C759 C750 1.390 . S
C759 H752 0.950 . S
C759 C756 1.387 . S
C760 C761 1.387 . S
C760 H764 0.950 . S
C760 C769 1.390 . S
C761 C760 1.387 . S
C761 C763 1.387 . S
H762 C769 0.950 . S
C763 C761 1.387 . S
C763 C765 1.390 . S
C763 H767 0.950 . S
H764 C760 0.950 . S
C765 C763 1.390 . S
C765 C766 1.387 . S
C765 H768 0.950 . S
C766 C765 1.387 . S
C766 C769 1.387 . S
H767 C763 0.950 . S
H768 C765 0.950 . S
C769 C760 1.390 . S
C769 H762 0.950 . S
C769 C766 1.387 . S
C770 C771 1.387 . S
C770 H774 0.950 . S
C770 C779 1.390 . S
C771 C770 1.387 . S
C771 C773 1.387 . S
H772 C779 0.950 . S
C773 C771 1.387 . S
C773 C775 1.390 . S
C773 H777 0.950 . S
H774 C770 0.950 . S
C775 C773 1.390 . S
C775 C776 1.387 . S
C775 H778 0.950 . S
C776 C775 1.387 . S
C776 C779 1.387 . S
H777 C773 0.950 . S
H778 C775 0.950 . S
C779 C770 1.390 . S
C779 H772 0.950 . S
C779 C776 1.387 . S
C780 C781 1.387 . S
C780 H784 0.950 . S
C780 C789 1.390 . S
C781 C780 1.387 . S
C781 C783 1.387 . S
H782 C789 0.950 . S
C783 C781 1.387 . S
C783 C785 1.390 . S
C783 H787 0.950 . S
H784 C780 0.950 . S
C785 C783 1.390 . S
C785 C786 1.387 . S
C785 H788 0.950 . S
C786 C785 1.387 . S
C786 C789 1.387 . S
H787 C783 0.950 . S
H788 C785 0.950 . S
C789 C780 1.390 . S
C789 H782 0.950 . S
C789 C786 1.387 . S
C790 C791 1.387 1_655 S
C790 H794 0.950 . S
C790 C799 1.390 . S
C791 C790 1.387 1_455 S
C791 C793 1.387 . S
H792 C799 0.950 . S
C793 C791 1.387 . S
C793 C795 1.390 . S
C793 H797 0.950 . S
H794 C790 0.950 . S
C795 C793 1.390 . S
C795 C796 1.387 . S
C795 H798 0.950 . S
C796 C795 1.387 . S
C796 C799 1.387 1_455 S
H797 C793 0.950 . S
H798 C795 0.950 . S
C799 C790 1.390 . S
C799 H792 0.950 . S
C799 C796 1.387 1_655 S
C800 C801 1.387 . S
C800 H804 0.950 . S
C800 C809 1.390 . S
C801 C800 1.387 . S
C801 C803 1.387 . S
H802 C809 0.950 . S
C803 C801 1.387 . S
C803 C805 1.390 . S
C803 H807 0.950 . S
H804 C800 0.950 . S
C805 C803 1.390 . S
C805 C806 1.387 . S
C805 H808 0.950 . S
C806 C805 1.387 . S
C806 C809 1.387 . S
H807 C803 0.950 . S
H808 C805 0.950 . S
C809 C800 1.390 . S
C809 H802 0.950 . S
C809 C806 1.387 . S
C810 C811 1.387 . S
C810 H814 0.950 . S
C810 C819 1.390 . S
C811 C810 1.387 . S
C811 C813 1.387 . S
H812 C819 0.950 . S
C813 C811 1.387 . S
C813 C815 1.390 . S
C813 H817 0.951 . S
H814 C810 0.950 . S
C815 C813 1.390 . S
C815 C816 1.387 . S
C815 H818 0.950 1_455 S
C816 C815 1.387 . S
C816 C819 1.387 . S
H817 C813 0.951 . S
H818 C815 0.950 1_655 S
C819 C810 1.390 . S
C819 H812 0.950 . S
C819 C816 1.387 . S
C820 C821 1.387 . S
C820 H824 0.950 . S
C820 C829 1.390 . S
C821 C820 1.387 . S
C821 C823 1.387 . S
H822 C829 0.950 . S
C823 C821 1.387 . S
C823 C825 1.390 . S
C823 H827 0.950 . S
H824 C820 0.950 . S
C825 C823 1.390 . S
C825 C826 1.387 . S
C825 H828 0.950 . S
C826 C825 1.387 . S
C826 C829 1.387 . S
H827 C823 0.950 . S
H828 C825 0.950 . S
C829 C820 1.390 . S
C829 H822 0.950 . S
C829 C826 1.387 . S
C830 C831 1.387 . S
C830 H834 0.950 . S
C830 C839 1.390 . S
C831 C830 1.387 . S
C831 C833 1.387 . S
H832 C839 0.950 . S
C833 C831 1.387 . S
C833 C835 1.390 . S
C833 H837 0.950 . S
H834 C830 0.950 . S
C835 C833 1.390 . S
C835 C836 1.387 . S
C835 H838 0.950 . S
C836 C835 1.387 . S
C836 C839 1.387 . S
H837 C833 0.950 . S
H838 C835 0.950 . S
C839 C830 1.390 . S
C839 H832 0.950 . S
C839 C836 1.387 . S
C840 C841 1.387 . S
C840 H844 0.950 . S
C840 C849 1.390 . S
C841 C840 1.387 . S
C841 C843 1.387 . S
H842 C849 0.950 . S
C843 C841 1.387 . S
C843 C845 1.390 . S
C843 H847 0.950 . S
H844 C840 0.950 . S
C845 C843 1.390 . S
C845 C846 1.387 . S
C845 H848 0.950 . S
C846 C845 1.387 . S
C846 C849 1.387 . S
H847 C843 0.950 . S
H848 C845 0.950 . S
C849 C840 1.390 . S
C849 H842 0.950 . S
C849 C846 1.387 . S
C850 C851 1.387 . S
C850 H854 0.950 . S
C850 C859 1.390 . S
C851 C850 1.387 . S
C851 C853 1.387 . S
H852 C859 0.950 . S
C853 C851 1.387 . S
C853 C855 1.390 . S
C853 H857 0.950 . S
H854 C850 0.950 . S
C855 C853 1.390 . S
C855 C856 1.387 . S
C855 H858 0.950 . S
C856 C855 1.387 . S
C856 C859 1.387 . S
H857 C853 0.950 . S
H858 C855 0.950 . S
C859 C850 1.390 . S
C859 H852 0.950 . S
C859 C856 1.387 . S
C860 C861 1.387 . S
C860 H864 0.950 . S
C860 C869 1.390 . S
C861 C860 1.387 . S
C861 C863 1.387 . S
H862 C869 0.950 . S
C863 C861 1.387 . S
C863 C865 1.390 . S
C863 H867 0.950 . S
H864 C860 0.950 . S
C865 C863 1.390 . S
C865 C866 1.387 . S
C865 H868 0.950 . S
C866 C865 1.387 . S
C866 C869 1.387 . S
H867 C863 0.950 . S
H868 C865 0.950 . S
C869 C860 1.390 . S
C869 H862 0.950 . S
C869 C866 1.387 . S
C870 C871 1.387 . S
C870 H874 0.950 . S
C870 C879 1.390 . S
C871 C870 1.387 . S
C871 C873 1.387 . S
H872 C879 0.950 . S
C873 C871 1.387 . S
C873 C875 1.390 . S
C873 H877 0.950 . S
H874 C870 0.950 . S
C875 C873 1.390 . S
C875 C876 1.387 . S
C875 H878 0.950 . S
C876 C875 1.387 . S
C876 C879 1.387 . S
H877 C873 0.950 . S
H878 C875 0.950 . S
C879 C870 1.390 . S
C879 H872 0.950 . S
C879 C876 1.387 . S
C880 C881 1.387 . S
C880 H884 0.950 . S
C880 C889 1.390 . S
C881 C880 1.387 . S
C881 C883 1.387 . S
H882 C889 0.950 . S
C883 C881 1.387 . S
C883 C885 1.390 . S
C883 H887 0.950 . S
H884 C880 0.950 . S
C885 C883 1.390 . S
C885 C886 1.387 . S
C885 H888 0.950 . S
C886 C885 1.387 . S
C886 C889 1.387 . S
H887 C883 0.950 . S
H888 C885 0.950 . S
C889 C880 1.390 . S
C889 H882 0.950 . S
C889 C886 1.387 . S
C890 C891 1.387 . S
C890 H894 0.950 . S
C890 C899 1.390 . S
C891 C890 1.387 . S
C891 C893 1.387 . S
H892 C899 0.950 . S
C893 C891 1.387 . S
C893 C895 1.390 . S
C893 H897 0.950 . S
H894 C890 0.950 . S
C895 C893 1.390 . S
C895 C896 1.387 . S
C895 H898 0.950 . S
C896 C895 1.387 . S
C896 C899 1.387 . S
H897 C893 0.950 . S
H898 C895 0.950 . S
C899 C890 1.390 . S
C899 H892 0.950 . S
C899 C896 1.387 . S
C900 C901 1.387 . S
C900 H904 0.950 . S
C900 C909 1.390 . S
C901 C900 1.387 . S
C901 C903 1.387 1_556 S
H902 C909 0.950 . S
C903 C901 1.387 1_554 S
C903 C905 1.390 . S
C903 H907 0.950 . S
H904 C900 0.950 . S
C905 C903 1.390 . S
C905 C906 1.387 1_554 S
C905 H908 0.950 . S
C906 C905 1.387 1_556 S
C906 C909 1.387 . S
H907 C903 0.950 . S
H908 C905 0.950 . S
C909 C900 1.390 . S
C909 H902 0.950 . S
C909 C906 1.387 . S
C910 C911 1.387 . S
C910 H914 0.950 . S
C910 C919 1.390 . S
C911 C910 1.387 . S
C911 C913 1.387 . S
H912 C919 0.950 . S
C913 C911 1.387 . S
C913 C915 1.390 . S
C913 H917 0.950 . S
H914 C910 0.950 . S
C915 C913 1.390 . S
C915 C916 1.387 . S
C915 H918 0.950 . S
C916 C915 1.387 . S
C916 C919 1.387 . S
H917 C913 0.950 . S
H918 C915 0.950 . S
C919 C910 1.390 . S
C919 H912 0.950 . S
C919 C916 1.387 . S
C920 C921 1.387 . S
C920 H924 0.950 . S
C920 C929 1.390 . S
C921 C920 1.387 . S
C921 C923 1.387 . S
H922 C929 0.950 1_556 S
C923 C921 1.387 . S
C923 C925 1.390 . S
C923 H927 0.950 . S
H924 C920 0.950 . S
C925 C923 1.390 . S
C925 C926 1.387 . S
C925 H928 0.950 . S
C926 C925 1.387 . S
C926 C929 1.387 . S
H927 C923 0.950 . S
H928 C925 0.950 . S
C929 C920 1.390 . S
C929 H922 0.950 1_554 S
C929 C926 1.387 . S
C930 C931 1.387 . S
C930 H934 0.950 . S
C930 C939 1.390 . S
C931 C930 1.387 . S
C931 C933 1.387 . S
H932 C939 0.950 . S
C933 C931 1.387 . S
C933 C935 1.390 . S
C933 H937 0.950 . S
H934 C930 0.950 . S
C935 C933 1.390 . S
C935 C936 1.387 . S
C935 H938 0.950 . S
C936 C935 1.387 . S
C936 C939 1.387 . S
H937 C933 0.950 . S
H938 C935 0.950 . S
C939 C930 1.390 . S
C939 H932 0.950 . S
C939 C936 1.387 . S
C466 C314 1.821 . S
C461 C101 1.818 . S
C476 C327 1.280 . S
C471 C125 1.193 . S
C481 C139 1.913 . S
C486 C340 1.867 . S
C496 C353 1.704 1_455 S
C491 C82 1.751 1_545 S
C506 C361 1.549 . S
C501 C196 1.576 . S
C516 C374 1.731 . S
C511 C234 1.760 . S
C521 C220 1.014 . S
C526 C387 1.063 . S
C536 C400 1.654 1_565 S
C531 C173 1.675 . S
C541 C211 1.199 . S
C546 C418 1.158 . S
C556 C429 1.161 . S
C551 C182 1.144 . S
C561 C201 1.254 . S
C566 C413 1.394 . S
C576 C421 1.412 . S
C571 C239 1.314 . S
C581 C135 1.678 . S
C586 C444 1.673 . S
C591 C87 1.649 . S
C596 C434 1.792 . S
C601 C106 1.203 . S
C606 C439 1.370 . S
C611 C116 1.324 . S
C616 C442 1.330 . S
C621 C59 1.787 . S
C626 C351 1.753 . S
C631 C268 2.028 . S
C636 C343 2.029 . S
C646 C312 1.361 . S
C641 C291 1.357 1_564 S
C656 C317 1.447 . S
C651 C163 1.365 . S
C661 C78 1.966 . S
C666 C364 1.936 . S
C676 C403 1.304 . S
C671 C215 1.310 . S
C686 C356 1.661 . S
C681 C177 1.648 . S
C696 C382 1.697 . S
C691 C230 1.744 . S
C706 C392 1.820 . S
C701 C272 1.820 . S
C711 C296 1.193 . S
C716 C405 1.280 . S
C721 C158 1.914 . S
C726 C366 1.868 . S
C736 C379 1.705 . S
C731 C253 1.751 . S
C741 C63 1.576 . S
C746 C335 1.548 . S
C756 C348 1.731 1_455 S
C751 C6 1.760 . S
C766 C309 1.061 . S
C761 C30 1.017 . S
C776 C322 1.653 . S
C771 C40 1.678 . S
C781 C21 1.201 . S
C786 C431 1.158 . S
C791 C49 1.143 . S
C796 C416 1.162 . S
C801 C68 1.255 . S
C806 C426 1.394 . S
C811 C11 1.310 . S
C816 C408 1.412 . S
C826 C457 1.673 . S
C821 C154 1.678 . S
C836 C447 1.791 . S
C831 C258 1.649 . S
C846 C452 1.372 . S
C841 C277 1.203 . S
C851 C287 1.323 . S
C856 C455 1.330 . S
C861 C192 1.788 . S
C866 C377 1.751 . S
C876 C369 2.029 . S
C871 C97 2.028 . S
C886 C390 1.361 . S
C881 C120 1.357 . S
C896 C395 1.446 . S
C891 C144 1.367 . S
C901 C249 1.966 . S
C906 C338 1.936 . S
C916 C325 1.304 . S
C911 C25 1.310 . S
C921 C44 1.649 . S
C926 C330 1.659 1_554 S
C936 C304 1.697 . S
C931 C2 1.744 1_565 S
