# Generated by pormake.
# Topology apo, (3,6)-cn, num edge types: 1
# Building blocks:
#     Node 0, Type 0, BuildingBlock: PAMTOO_clean_linker_0, # of connection points: 3
#     Node 1, Type 0, BuildingBlock: PAMTOO_clean_linker_0, # of connection points: 3
#     Node 2, Type 0, BuildingBlock: PAMTOO_clean_linker_0, # of connection points: 3
#     Node 3, Type 0, BuildingBlock: PAMTOO_clean_linker_0, # of connection points: 3
#     Node 4, Type 0, BuildingBlock: PAMTOO_clean_linker_0, # of connection points: 3
#     Node 5, Type 0, BuildingBlock: PAMTOO_clean_linker_0, # of connection points: 3
#     Node 6, Type 0, BuildingBlock: PAMTOO_clean_linker_0, # of connection points: 3
#     Node 7, Type 0, BuildingBlock: PAMTOO_clean_linker_0, # of connection points: 3
#     Node 8, Type 1, BuildingBlock: MIDCAF_clean_sbu_0, # of connection points: 6
#     Node 9, Type 1, BuildingBlock: MIDCAF_clean_sbu_0, # of connection points: 6
#     Node 10, Type 1, BuildingBlock: MIDCAF_clean_sbu_0, # of connection points: 6
#     Node 11, Type 1, BuildingBlock: MIDCAF_clean_sbu_0, # of connection points: 6
#     Edge 12, Type (0, 1), BuildingBlock: MIFKUJ_clean_linker_0, # of connection points: 2
#     Edge 13, Type (0, 1), BuildingBlock: MIFKUJ_clean_linker_0, # of connection points: 2
#     Edge 14, Type (0, 1), BuildingBlock: MIFKUJ_clean_linker_0, # of connection points: 2
#     Edge 15, Type (0, 1), BuildingBlock: MIFKUJ_clean_linker_0, # of connection points: 2
#     Edge 16, Type (0, 1), BuildingBlock: MIFKUJ_clean_linker_0, # of connection points: 2
#     Edge 17, Type (0, 1), BuildingBlock: MIFKUJ_clean_linker_0, # of connection points: 2
#     Edge 18, Type (0, 1), BuildingBlock: MIFKUJ_clean_linker_0, # of connection points: 2
#     Edge 19, Type (0, 1), BuildingBlock: MIFKUJ_clean_linker_0, # of connection points: 2
#     Edge 20, Type (0, 1), BuildingBlock: MIFKUJ_clean_linker_0, # of connection points: 2
#     Edge 21, Type (0, 1), BuildingBlock: MIFKUJ_clean_linker_0, # of connection points: 2
#     Edge 22, Type (0, 1), BuildingBlock: MIFKUJ_clean_linker_0, # of connection points: 2
#     Edge 23, Type (0, 1), BuildingBlock: MIFKUJ_clean_linker_0, # of connection points: 2
#     Edge 24, Type (0, 1), BuildingBlock: MIFKUJ_clean_linker_0, # of connection points: 2
#     Edge 25, Type (0, 1), BuildingBlock: MIFKUJ_clean_linker_0, # of connection points: 2
#     Edge 26, Type (0, 1), BuildingBlock: MIFKUJ_clean_linker_0, # of connection points: 2
#     Edge 27, Type (0, 1), BuildingBlock: MIFKUJ_clean_linker_0, # of connection points: 2
#     Edge 28, Type (0, 1), BuildingBlock: MIFKUJ_clean_linker_0, # of connection points: 2
#     Edge 29, Type (0, 1), BuildingBlock: MIFKUJ_clean_linker_0, # of connection points: 2
#     Edge 30, Type (0, 1), BuildingBlock: MIFKUJ_clean_linker_0, # of connection points: 2
#     Edge 31, Type (0, 1), BuildingBlock: MIFKUJ_clean_linker_0, # of connection points: 2
#     Edge 32, Type (0, 1), BuildingBlock: MIFKUJ_clean_linker_0, # of connection points: 2
#     Edge 33, Type (0, 1), BuildingBlock: MIFKUJ_clean_linker_0, # of connection points: 2
#     Edge 34, Type (0, 1), BuildingBlock: MIFKUJ_clean_linker_0, # of connection points: 2
#     Edge 35, Type (0, 1), BuildingBlock: MIFKUJ_clean_linker_0, # of connection points: 2
# Relax obj value: 0.013
# Max RMSD: 0.061
# Mean RMSD: 0.057
data_MOF--net-apo--node1-MIDCAF_clean_sbu_0--node2-PAMTOO_clean_linker_0--edge1-MIFKUJ_clean_linker_0
_symmetry_space_group_name_H-M    P1
_symmetry_Int_Tables_number       1
_symmetry_cell_setting            triclinic
loop_
_symmetry_equiv_pos_as_xyz
'x, y, z'
_cell_length_a     47.4416
_cell_length_b     54.159364
_cell_length_c     44.925798
_cell_angle_alpha  90.061323
_cell_angle_beta   89.875398
_cell_angle_gamma 90.141353
loop_
_atom_site_label
_atom_site_type_symbol
_atom_site_fract_x
_atom_site_fract_y
_atom_site_fract_z
_atom_type_partial_charge
H0 H 0.38222 0.35764 0.42115 0.0
H1 H 0.33269 0.34328 0.3427 0.0
H2 H 0.31474 0.30439 0.42381 0.0
H3 H 0.31861 0.27489 0.36658 0.0
C4 C 0.30761 0.28811 0.35163 0.0
O5 O 0.30119 0.30929 0.36741 0.0
H6 H 0.32209 0.29273 0.33292 0.0
C7 C 0.36546 0.34765 0.40998 0.0
C8 C 0.34924 0.33052 0.42615 0.0
C9 C 0.35957 0.35267 0.37993 0.0
C10 C 0.33732 0.34 0.36596 0.0
C11 C 0.32148 0.32237 0.38163 0.0
C12 C 0.32715 0.31795 0.4118 0.0
H13 H 0.15191 0.14106 0.93253 0.0
H14 H 0.21848 0.19504 0.93259 0.0
H15 H 0.2041 0.15117 0.8546 0.0
H16 H 0.26244 0.16024 0.86926 0.0
C17 C 0.26122 0.17989 0.87643 0.0
O18 O 0.23341 0.18731 0.87701 0.0
H19 H 0.27037 0.18147 0.89912 0.0
C20 C 0.16919 0.15013 0.92107 0.0
C21 C 0.17613 0.14327 0.89169 0.0
C22 C 0.18453 0.16849 0.93613 0.0
C23 C 0.20666 0.18065 0.92138 0.0
C24 C 0.21318 0.17464 0.89179 0.0
C25 C 0.19814 0.15594 0.87716 0.0
H26 H 0.86374 0.13579 0.58148 0.0
H27 H 0.81745 0.15207 0.66193 0.0
H28 H 0.80436 0.1955 0.58358 0.0
H29 H 0.81346 0.22318 0.6422 0.0
C30 C 0.80204 0.21006 0.65703 0.0
O31 O 0.79205 0.19049 0.64031 0.0
H32 H 0.8172 0.20324 0.67398 0.0
C33 C 0.84789 0.14619 0.59346 0.0
C34 C 0.83379 0.16529 0.57845 0.0
C35 C 0.84235 0.14086 0.62363 0.0
C36 C 0.82275 0.15573 0.63891 0.0
C37 C 0.80974 0.17573 0.62472 0.0
C38 C 0.81508 0.18039 0.59451 0.0
H39 H 0.64459 0.36287 0.08799 0.0
H40 H 0.70752 0.30564 0.0874 0.0
H41 H 0.68425 0.34062 0.16976 0.0
H42 H 0.74401 0.33396 0.16032 0.0
C43 C 0.74424 0.31533 0.14981 0.0
O44 O 0.71688 0.30745 0.14514 0.0
H45 H 0.7554 0.31683 0.12809 0.0
C46 C 0.65934 0.35119 0.09983 0.0
C47 C 0.66213 0.35365 0.1308 0.0
C48 C 0.6757 0.33404 0.08392 0.0
C49 C 0.69474 0.31893 0.09938 0.0
C50 C 0.69796 0.32149 0.13031 0.0
C51 C 0.68166 0.3388 0.14589 0.0
H52 H 0.64509 0.63994 0.58873 0.0
H53 H 0.70768 0.69756 0.58919 0.0
H54 H 0.68948 0.65771 0.66952 0.0
H55 H 0.69941 0.70783 0.68233 0.0
C56 C 0.71189 0.71374 0.66259 0.0
O57 O 0.71936 0.69328 0.64603 0.0
H58 H 0.69846 0.72619 0.64896 0.0
C59 C 0.6609 0.6506 0.60051 0.0
C60 C 0.66539 0.64626 0.63098 0.0
C61 C 0.67626 0.6687 0.58496 0.0
C62 C 0.69556 0.6835 0.60068 0.0
C63 C 0.70006 0.67959 0.63119 0.0
C64 C 0.68523 0.66089 0.64616 0.0
H65 H 0.87022 0.86508 0.07947 0.0
H66 H 0.82192 0.85231 0.15928 0.0
H67 H 0.80268 0.81184 0.07943 0.0
H68 H 0.75304 0.83002 0.11806 0.0
C69 C 0.76299 0.82702 0.14018 0.0
O70 O 0.78988 0.81792 0.13603 0.0
H71 H 0.76399 0.84499 0.15215 0.0
C72 C 0.85343 0.85546 0.09115 0.0
C73 C 0.83706 0.83797 0.07592 0.0
C74 C 0.84791 0.86102 0.1211 0.0
C75 C 0.82616 0.84847 0.13602 0.0
C76 C 0.80994 0.83068 0.12108 0.0
C77 C 0.81521 0.82562 0.09091 0.0
H78 H 0.15643 0.87033 0.43011 0.0
H79 H 0.21265 0.80832 0.4278 0.0
H80 H 0.193 0.84644 0.34698 0.0
H81 H 0.19852 0.79299 0.34233 0.0
C82 C 0.21646 0.78994 0.35783 0.0
O83 O 0.22395 0.81214 0.3708 0.0
H84 H 0.2097 0.77669 0.37536 0.0
C85 C 0.1692 0.85757 0.41738 0.0
C86 C 0.17191 0.86064 0.38637 0.0
C87 C 0.18291 0.83835 0.43254 0.0
C88 C 0.20151 0.82307 0.41662 0.0
C89 C 0.20536 0.82639 0.38589 0.0
C90 C 0.19034 0.84483 0.37083 0.0
H91 H 0.36376 0.63125 0.92859 0.0
H92 H 0.32791 0.65438 0.845 0.0
H93 H 0.30614 0.6924 0.92563 0.0
H94 H 0.25811 0.68204 0.8852 0.0
C95 C 0.26919 0.68333 0.86342 0.0
O96 O 0.29716 0.68941 0.868 0.0
H97 H 0.26796 0.66505 0.85213 0.0
C98 C 0.35019 0.64337 0.91588 0.0
C99 C 0.3353 0.66208 0.93076 0.0
C100 C 0.34802 0.64044 0.88485 0.0
C101 C 0.32994 0.65615 0.86892 0.0
C102 C 0.31462 0.6746 0.88364 0.0
C103 C 0.31768 0.67784 0.91445 0.0
Zn104 Zn 0.03072 0.12353 0.30847 0.0
Zn105 Zn 0.98826 0.12274 0.2031 0.0
Zn106 Zn 0.00917 0.12416 0.2559 0.0
C107 C 0.03775 0.14904 0.19703 0.0
C108 C 0.99429 0.07399 0.2183 0.0
O109 O 0.97908 0.14353 0.28668 0.0
O110 O 0.003 0.14458 0.32884 0.0
C111 C 0.07022 0.14726 0.273 0.0
O112 O 0.03927 0.14316 0.22482 0.0
O113 O 0.01625 0.1432 0.18211 0.0
O114 O 0.9887 0.08683 0.19568 0.0
O115 O 1.00184 0.08463 0.24276 0.0
O116 O 0.06761 0.13845 0.29884 0.0
O117 O 0.0503 0.14442 0.25376 0.0
O118 O 0.01717 0.08514 0.26968 0.0
O119 O 0.03033 0.08776 0.31675 0.0
C120 C 0.02502 0.07475 0.29414 0.0
O121 O 0.96787 0.14401 0.25771 0.0
O122 O 0.95152 0.13797 0.21225 0.0
C123 C 0.98125 0.15011 0.31421 0.0
C124 C 0.94833 0.14679 0.23805 0.0
Zn125 Zn 0.53656 0.37781 0.70211 0.0
Zn126 Zn 0.48932 0.37774 0.80612 0.0
Zn127 Zn 0.51217 0.37756 0.75333 0.0
C128 C 0.49234 0.4267 0.78973 0.0
C129 C 0.45254 0.35165 0.76922 0.0
O130 O 0.55428 0.35912 0.75774 0.0
O131 O 0.57292 0.36298 0.71287 0.0
C132 C 0.52818 0.427 0.71567 0.0
O133 O 0.50161 0.41638 0.76572 0.0
O134 O 0.48704 0.41381 0.81245 0.0
O135 O 0.4542 0.36053 0.79513 0.0
O136 O 0.47252 0.35547 0.75023 0.0
O137 O 0.5367 0.41359 0.69453 0.0
O138 O 0.51817 0.41692 0.73948 0.0
O139 O 0.48421 0.35711 0.72142 0.0
O140 O 0.50946 0.35725 0.68003 0.0
C141 C 0.48732 0.35111 0.69378 0.0
O142 O 0.54199 0.36076 0.78597 0.0
O143 O 0.518 0.35884 0.82821 0.0
C144 C 0.57489 0.35566 0.73941 0.0
C145 C 0.54025 0.35464 0.81368 0.0
Zn146 Zn 0.03391 0.88034 0.80613 0.0
Zn147 Zn 0.99354 0.88375 0.69931 0.0
Zn148 Zn 0.01248 0.88221 0.75346 0.0
C149 C 0.99769 0.93261 0.71734 0.0
C150 C 0.95241 0.85976 0.73342 0.0
O151 O 0.05362 0.86227 0.75124 0.0
O152 O 0.071 0.86594 0.79668 0.0
C153 C 0.02843 0.93001 0.79377 0.0
O154 O 0.0048 0.92173 0.74173 0.0
O155 O 0.99364 0.92003 0.69405 0.0
O156 O 0.95663 0.86829 0.70766 0.0
O157 O 0.97122 0.86246 0.75385 0.0
O158 O 0.03367 0.91591 0.81539 0.0
O159 O 0.02036 0.9208 0.76869 0.0
O160 O 0.98174 0.86241 0.78302 0.0
O161 O 0.00542 0.85891 0.82512 0.0
C162 C 0.98349 0.85468 0.81011 0.0
O163 O 0.0431 0.86397 0.72238 0.0
O164 O 0.02223 0.86373 0.67843 0.0
C165 C 0.07355 0.85856 0.77019 0.0
C166 C 0.04301 0.85813 0.69451 0.0
Zn167 Zn 0.5354 0.62458 0.20662 0.0
Zn168 Zn 0.489 0.6214 0.30611 0.0
Zn169 Zn 0.51067 0.6239 0.25706 0.0
C170 C 0.54304 0.6354 0.31739 0.0
C171 C 0.48313 0.57517 0.28494 0.0
O172 O 0.48021 0.64071 0.22548 0.0
O173 O 0.50183 0.63316 0.18271 0.0
C174 C 0.56443 0.65812 0.24121 0.0
O175 O 0.54041 0.64092 0.28961 0.0
O176 O 0.52411 0.62287 0.33016 0.0
O177 O 0.46948 0.58908 0.30224 0.0
O178 O 0.50256 0.58434 0.26812 0.0
O179 O 0.56153 0.65208 0.21429 0.0
O180 O 0.54896 0.64798 0.26146 0.0
O181 O 0.52109 0.58507 0.24432 0.0
O182 O 0.55042 0.59039 0.20653 0.0
C183 C 0.53859 0.57624 0.22506 0.0
O184 O 0.47034 0.64493 0.25456 0.0
O185 O 0.46597 0.65178 0.30274 0.0
C186 C 0.48068 0.64117 0.19679 0.0
C187 C 0.45833 0.65629 0.27641 0.0
H188 H 0.11954 0.87859 0.40143 0.0
H189 H 0.09394 0.91214 0.37922 0.0
H190 H 0.1573 0.91865 0.31057 0.0
H191 H 0.18537 0.88708 0.3353 0.0
H192 H 0.14299 0.96123 0.32215 0.0
H193 H 0.08556 0.89267 0.29882 0.0
H194 H 0.059 0.85391 0.30589 0.0
H195 H 0.00518 0.88963 0.36961 0.0
H196 H 0.03166 0.92851 0.36324 0.0
H197 H 0.04902 0.04605 0.25095 0.0
H198 H 0.07184 0.00586 0.25868 0.0
H199 H 0.03991 0.00394 0.34859 0.0
H200 H 0.01767 0.04412 0.34119 0.0
H201 H 0.03875 0.95777 0.31866 0.0
H202 H 0.10196 0.02586 0.3392 0.0
H203 H 0.12759 0.06394 0.32582 0.0
H204 H 0.16968 0.02561 0.25487 0.0
H205 H 0.14392 0.98736 0.26755 0.0
C206 C 0.12865 0.88738 0.38204 0.0
C207 C 0.15505 0.88005 0.37067 0.0
C208 C 0.11337 0.90629 0.36871 0.0
C209 C 0.12304 0.91765 0.34251 0.0
C210 C 0.14912 0.91016 0.33063 0.0
C211 C 0.16504 0.89176 0.34466 0.0
C212 C 0.10639 0.93804 0.32869 0.0
C213 C 0.12025 0.95999 0.32034 0.0
C214 C 0.07659 0.93687 0.32639 0.0
C215 C 0.06069 0.91348 0.33063 0.0
C216 C 0.06818 0.89221 0.31449 0.0
C217 C 0.05312 0.87023 0.31836 0.0
C218 C 0.03043 0.8693 0.33821 0.0
C219 C 0.02276 0.89037 0.35425 0.0
C220 C 0.03778 0.91239 0.35051 0.0
C221 C 0.04614 0.03664 0.272 0.0
C222 C 0.03168 0.04817 0.29553 0.0
C223 C 0.05941 0.01385 0.27649 0.0
C224 C 0.05797 0.0022 0.30439 0.0
C225 C 0.04144 0.01271 0.32698 0.0
C226 C 0.02866 0.03561 0.3227 0.0
C227 C 0.07525 0.98014 0.31116 0.0
C228 C 0.0615 0.9582 0.31887 0.0
C229 C 0.10505 0.98097 0.31143 0.0
C230 C 0.12077 0.00385 0.30408 0.0
C231 C 0.1165 0.02561 0.32058 0.0
C232 C 0.13107 0.04721 0.31316 0.0
C233 C 0.15018 0.04722 0.28945 0.0
C234 C 0.15483 0.02559 0.27318 0.0
C235 C 0.14025 0.00395 0.28048 0.0
H236 H 0.16145 0.06396 0.28373 0.0
H237 H 0.01878 0.85227 0.34115 0.0
H238 H 0.33137 0.61018 0.83904 0.0
H239 H 0.35855 0.57752 0.81481 0.0
H240 H 0.42939 0.59367 0.87169 0.0
H241 H 0.4028 0.62701 0.89517 0.0
H242 H 0.44719 0.58405 0.81619 0.0
H243 H 0.38433 0.54597 0.88699 0.0
H244 H 0.33834 0.53667 0.91012 0.0
H245 H 0.30882 0.50586 0.82774 0.0
H246 H 0.35456 0.51531 0.804 0.0
H247 H 0.50096 0.45834 0.83552 0.0
H248 H 0.47974 0.49914 0.84218 0.0
H249 H 0.44413 0.49481 0.75415 0.0
H250 H 0.4662 0.45412 0.74695 0.0
H251 H 0.40773 0.49913 0.81867 0.0
H252 H 0.46952 0.53969 0.74734 0.0
H253 H 0.51528 0.54948 0.72445 0.0
H254 H 0.54739 0.57299 0.80921 0.0
H255 H 0.50126 0.56387 0.83251 0.0
C256 C 0.35287 0.60706 0.84609 0.0
C257 C 0.36478 0.62109 0.86927 0.0
C258 C 0.36832 0.58823 0.83237 0.0
C259 C 0.39589 0.58291 0.8417 0.0
C260 C 0.40813 0.59738 0.86417 0.0
C261 C 0.39276 0.61625 0.87782 0.0
C262 C 0.41157 0.56158 0.82906 0.0
C263 C 0.43851 0.5655 0.81683 0.0
C264 C 0.4002 0.53736 0.82938 0.0
C265 C 0.37273 0.53161 0.84363 0.0
C266 C 0.36795 0.5374 0.87375 0.0
C267 C 0.34195 0.53207 0.88698 0.0
C268 C 0.32064 0.52075 0.87038 0.0
C269 C 0.32533 0.51468 0.84055 0.0
C270 C 0.35129 0.52 0.82719 0.0
C271 C 0.48938 0.46646 0.81723 0.0
C272 C 0.48515 0.45316 0.79075 0.0
C273 C 0.47729 0.48971 0.82105 0.0
C274 C 0.46038 0.49986 0.79869 0.0
C275 C 0.45731 0.48727 0.77155 0.0
C276 C 0.46996 0.46414 0.76745 0.0
C277 C 0.44303 0.52174 0.80577 0.0
C278 C 0.41599 0.51781 0.81747 0.0
C279 C 0.45428 0.54584 0.8051 0.0
C280 C 0.48214 0.55091 0.79164 0.0
C281 C 0.48642 0.54678 0.76112 0.0
C282 C 0.51239 0.55231 0.74805 0.0
C283 C 0.53441 0.56166 0.76537 0.0
C284 C 0.53035 0.5657 0.79581 0.0
C285 C 0.50422 0.56051 0.80894 0.0
H286 H 0.55453 0.56592 0.75518 0.0
H287 H 0.30052 0.51663 0.88067 0.0
H288 H 0.65185 0.60061 0.60921 0.0
H289 H 0.62237 0.56907 0.63222 0.0
H290 H 0.61438 0.61374 0.71121 0.0
H291 H 0.64312 0.64619 0.68779 0.0
H292 H 0.62684 0.55922 0.71914 0.0
H293 H 0.56061 0.61433 0.67488 0.0
H294 H 0.54196 0.64095 0.63507 0.0
H295 H 0.53534 0.57826 0.57689 0.0
H296 H 0.55438 0.55131 0.61621 0.0
H297 H 0.53523 0.46138 0.76039 0.0
H298 H 0.55039 0.50437 0.75462 0.0
H299 H 0.55014 0.49524 0.65911 0.0
H300 H 0.53262 0.45342 0.6648 0.0
H301 H 0.5364 0.53902 0.66937 0.0
H302 H 0.61196 0.48668 0.70821 0.0
H303 H 0.6331 0.4592 0.74579 0.0
H304 H 0.62369 0.51559 0.81234 0.0
H305 H 0.60225 0.5433 0.77516 0.0
C306 C 0.64366 0.60397 0.63136 0.0
C307 C 0.64949 0.62621 0.6464 0.0
C308 C 0.62698 0.5858 0.64456 0.0
C309 C 0.61599 0.58923 0.67324 0.0
C310 C 0.62267 0.61083 0.689 0.0
C311 C 0.63917 0.62927 0.67561 0.0
C312 C 0.59691 0.57024 0.68584 0.0
C313 C 0.6067 0.55509 0.70885 0.0
C314 C 0.57087 0.56477 0.67209 0.0
C315 C 0.55908 0.58083 0.64846 0.0
C316 C 0.55537 0.60624 0.65353 0.0
C317 C 0.54469 0.62139 0.63106 0.0
C318 C 0.5375 0.61131 0.60346 0.0
C319 C 0.54091 0.58604 0.59829 0.0
C320 C 0.55161 0.57082 0.62068 0.0
C321 C 0.53711 0.46895 0.73822 0.0
C322 C 0.53248 0.45402 0.71308 0.0
C323 C 0.54644 0.49339 0.7349 0.0
C324 C 0.55227 0.50296 0.7064 0.0
C325 C 0.546 0.48844 0.68137 0.0
C326 C 0.53609 0.46437 0.68466 0.0
C327 C 0.56676 0.52716 0.70199 0.0
C328 C 0.55617 0.54335 0.68032 0.0
C329 C 0.59217 0.53344 0.71684 0.0
C330 C 0.60531 0.51693 0.73903 0.0
C331 C 0.61433 0.49315 0.73089 0.0
C332 C 0.62635 0.47755 0.75211 0.0
C333 C 0.62967 0.48562 0.78145 0.0
C334 C 0.62106 0.50935 0.78962 0.0
C335 C 0.609 0.52502 0.76849 0.0
H336 H 0.63897 0.47351 0.79785 0.0
H337 H 0.52926 0.62307 0.58608 0.0
H338 H 0.82863 0.9024 0.1489 0.0
H339 H 0.85687 0.93614 0.17029 0.0
H340 H 0.93305 0.89646 0.1493 0.0
H341 H 0.90495 0.86306 0.12709 0.0
H342 H 0.92643 0.92051 0.21183 0.0
H343 H 0.92372 0.9349 0.10479 0.0
H344 H 0.89858 0.93983 0.05719 0.0
H345 H 0.85222 1.00092 0.09343 0.0
H346 H 0.87679 0.99605 0.14145 0.0
H347 H 0.00792 0.04383 0.17259 0.0
H348 H 0.98771 0.00332 0.16206 0.0
H349 H 0.94623 0.0038 0.24766 0.0
H350 H 0.96759 0.04413 0.2587 0.0
H351 H 0.93444 0.99816 0.15403 0.0
H352 H 0.92112 0.94647 0.26395 0.0
H353 H 0.94562 0.93614 0.31065 0.0
H354 H 0.02561 0.947 0.26753 0.0
H355 H 1.00154 0.95767 0.22075 0.0
C356 C 0.85138 0.90082 0.14921 0.0
C357 C 0.86471 0.88024 0.13641 0.0
C358 C 0.86743 0.92004 0.16134 0.0
C359 C 0.89696 0.91868 0.16134 0.0
C360 C 0.91026 0.89773 0.14956 0.0
C361 C 0.89426 0.87878 0.13684 0.0
C362 C 0.91407 0.93971 0.17216 0.0
C363 C 0.92823 0.93758 0.19933 0.0
C364 C 0.91634 0.96179 0.15571 0.0
C365 C 0.90183 0.96493 0.12678 0.0
C366 C 0.90797 0.94923 0.10269 0.0
C367 C 0.89387 0.95204 0.07562 0.0
C368 C 0.87375 0.97063 0.07231 0.0
C369 C 0.86777 0.9865 0.09604 0.0
C370 C 0.88178 0.98373 0.12318 0.0
C371 C 0.99538 0.03484 0.18963 0.0
C372 C 0.9892 0.04711 0.21638 0.0
C373 C 0.98364 0.01175 0.18352 0.0
C374 C 0.96503 1.00054 0.20381 0.0
C375 C 0.96065 0.01187 0.23167 0.0
C376 C 0.97291 0.03492 0.23803 0.0
C377 C 0.94764 0.97909 0.19385 0.0
C378 C 0.93293 0.98121 0.16678 0.0
C379 C 0.94487 0.95701 0.21048 0.0
C380 C 0.95956 0.95306 0.23902 0.0
C381 C 0.94395 0.94693 0.2646 0.0
C382 C 0.95772 0.94101 0.29106 0.0
C383 C 0.98711 0.94095 0.2921 0.0
C384 C 0.00283 0.94725 0.26682 0.0
C385 C 0.98913 0.95338 0.24035 0.0
H386 H 0.99756 0.9358 0.31249 0.0
H387 H 0.86285 0.97279 0.05134 0.0
H388 H 0.86196 0.09744 0.59902 0.0
H389 H 0.88941 0.06549 0.62243 0.0
H390 H 0.88126 0.10234 0.70723 0.0
H391 H 0.85699 0.13639 0.6831 0.0
H392 H 0.92889 0.0858 0.707 0.0
H393 H 0.84357 0.04564 0.68597 0.0
H394 H 0.80185 0.03193 0.65775 0.0
H395 H 0.85505 0.99231 0.59689 0.0
H396 H 0.89714 0.00606 0.62447 0.0
H397 H 0.97614 0.96167 0.76219 0.0
H398 H 0.95118 1.00105 0.75528 0.0
H399 H 0.97659 0.00205 0.66312 0.0
H400 H 1.00142 0.96312 0.66981 0.0
H401 H 0.91519 0.99847 0.67728 0.0
H402 H 1.00149 0.04482 0.70598 0.0
H403 H 0.03729 0.05968 0.74158 0.0
H404 H 0.97198 0.08503 0.80037 0.0
H405 H 0.93584 0.07021 0.76526 0.0
C406 C 0.8664 0.09928 0.62253 0.0
C407 C 0.85723 0.11999 0.63887 0.0
C408 C 0.88162 0.08043 0.63617 0.0
C409 C 0.88692 0.0809 0.66693 0.0
C410 C 0.87743 0.10129 0.68351 0.0
C411 C 0.86305 0.12069 0.66964 0.0
C412 C 0.90339 0.06062 0.6812 0.0
C413 C 0.92543 0.06667 0.70083 0.0
C414 C 0.8988 0.03543 0.67396 0.0
C415 C 0.87355 0.02703 0.65722 0.0
C416 C 0.8464 0.03413 0.66646 0.0
C417 C 0.82268 0.02633 0.65058 0.0
C418 C 0.8258 0.01129 0.62552 0.0
C419 C 0.85266 0.00396 0.61631 0.0
C420 C 0.87646 0.01173 0.63209 0.0
C421 C 0.97735 0.97084 0.74081 0.0
C422 C 0.99045 0.95919 0.71642 0.0
C423 C 0.96299 0.99327 0.73687 0.0
C424 C 0.96181 0.00427 0.70859 0.0
C425 C 0.97715 0.9938 0.68508 0.0
C426 C 0.99136 0.97155 0.68895 0.0
C427 C 0.94119 0.02398 0.70167 0.0
C428 C 0.9182 0.01764 0.68359 0.0
C429 C 0.94404 0.04859 0.71162 0.0
C430 C 0.96599 0.05618 0.73314 0.0
C431 C 0.99478 0.05323 0.72669 0.0
C432 C 0.01513 0.06178 0.74672 0.0
C433 C 0.00686 0.07328 0.77322 0.0
C434 C 0.97831 0.07613 0.77985 0.0
C435 C 0.95793 0.06769 0.75989 0.0
H436 H 0.02247 0.08012 0.78865 0.0
H437 H 0.80741 0.00527 0.61326 0.0
H438 H 0.68133 0.39035 0.16694 0.0
H439 H 0.65403 0.42332 0.19028 0.0
H440 H 0.57733 0.39159 0.15525 0.0
H441 H 0.605 0.35939 0.13044 0.0
H442 H 0.57391 0.43681 0.14741 0.0
H443 H 0.59617 0.39106 0.23335 0.0
H444 H 0.6252 0.3679 0.26914 0.0
H445 H 0.67414 0.43303 0.28694 0.0
H446 H 0.64569 0.45652 0.25093 0.0
H447 H 0.50357 0.53584 0.22405 0.0
H448 H 0.5178 0.49249 0.21673 0.0
H449 H 0.60516 0.51463 0.21735 0.0
H450 H 0.59111 0.55763 0.2244 0.0
H451 H 0.5937 0.46917 0.24859 0.0
H452 H 0.57313 0.51064 0.15328 0.0
H453 H 0.54066 0.53235 0.11946 0.0
H454 H 0.48285 0.4713 0.12361 0.0
H455 H 0.51489 0.44936 0.15774 0.0
C456 C 0.65861 0.3903 0.16458 0.0
C457 C 0.64523 0.37234 0.14702 0.0
C458 C 0.64292 0.40905 0.17811 0.0
C459 C 0.61339 0.40982 0.17515 0.0
C460 C 0.6 0.39151 0.158 0.0
C461 C 0.61579 0.37308 0.14388 0.0
C462 C 0.59692 0.4307 0.18817 0.0
C463 C 0.57782 0.44339 0.16984 0.0
C464 C 0.60166 0.43953 0.21749 0.0
C465 C 0.61886 0.42553 0.23928 0.0
C466 C 0.61324 0.40042 0.24475 0.0
C467 C 0.62958 0.38723 0.2651 0.0
C468 C 0.65152 0.39897 0.28027 0.0
C469 C 0.65713 0.42395 0.27517 0.0
C470 C 0.64087 0.43723 0.25482 0.0
C471 C 0.52577 0.53124 0.22335 0.0
C472 C 0.54631 0.54991 0.22489 0.0
C473 C 0.53385 0.50658 0.21906 0.0
C474 C 0.56253 0.50039 0.21644 0.0
C475 C 0.58296 0.51896 0.21948 0.0
C476 C 0.57492 0.54351 0.22335 0.0
C477 C 0.57168 0.47528 0.2075 0.0
C478 C 0.5894 0.46194 0.22652 0.0
C479 C 0.56514 0.46548 0.17917 0.0
C480 C 0.54623 0.4785 0.15825 0.0
C481 C 0.55343 0.50192 0.14709 0.0
C482 C 0.53512 0.51425 0.12785 0.0
C483 C 0.50968 0.50324 0.11944 0.0
C484 C 0.50256 0.47981 0.13014 0.0
C485 C 0.52079 0.46742 0.1494 0.0
H486 H 0.49552 0.51283 0.10458 0.0
H487 H 0.66416 0.38873 0.29601 0.0
H488 H 0.41689 0.3585 0.37956 0.0
H489 H 0.44431 0.39139 0.35585 0.0
H490 H 0.36791 0.42228 0.31986 0.0
H491 H 0.34044 0.38921 0.34319 0.0
H492 H 0.4098 0.42588 0.28004 0.0
H493 H 0.39778 0.44436 0.38461 0.0
H494 H 0.40138 0.43593 0.43841 0.0
H495 H 0.49133 0.43001 0.43059 0.0
H496 H 0.48822 0.43807 0.37662 0.0
H497 H 0.43165 0.55495 0.27795 0.0
H498 H 0.41807 0.5118 0.2855 0.0
H499 H 0.50504 0.49276 0.30107 0.0
H500 H 0.51878 0.53616 0.29283 0.0
H501 H 0.46611 0.47915 0.3475 0.0
H502 H 0.47755 0.46881 0.24352 0.0
H503 H 0.47254 0.47944 0.19047 0.0
H504 H 0.38269 0.47185 0.19739 0.0
H505 H 0.38705 0.46169 0.25068 0.0
C506 C 0.40596 0.37225 0.36648 0.0
C507 C 0.37646 0.37142 0.36351 0.0
C508 C 0.42166 0.39101 0.35289 0.0
C509 C 0.40815 0.40957 0.33644 0.0
C510 C 0.37883 0.40818 0.33241 0.0
C511 C 0.36313 0.38928 0.34578 0.0
C512 C 0.42417 0.43127 0.32504 0.0
C513 C 0.42204 0.43757 0.29479 0.0
C514 C 0.44082 0.4462 0.3441 0.0
C515 C 0.44274 0.44152 0.37655 0.0
C516 C 0.41831 0.44108 0.39434 0.0
C517 C 0.42026 0.43639 0.42486 0.0
C518 C 0.44656 0.43236 0.43789 0.0
C519 C 0.47097 0.43308 0.42045 0.0
C520 C 0.46913 0.43772 0.3899 0.0
C521 C 0.44792 0.54141 0.28222 0.0
C522 C 0.47622 0.54868 0.28461 0.0
C523 C 0.44018 0.5168 0.28648 0.0
C524 C 0.46055 0.49909 0.29375 0.0
C525 C 0.48904 0.50617 0.29533 0.0
C526 C 0.49687 0.53083 0.29051 0.0
C527 C 0.45126 0.474 0.30269 0.0
C528 C 0.45447 0.46713 0.33257 0.0
C529 C 0.43544 0.45873 0.28334 0.0
C530 C 0.43264 0.46463 0.2512 0.0
C531 C 0.45669 0.46961 0.23381 0.0
C532 C 0.45398 0.47551 0.20368 0.0
C533 C 0.42733 0.47632 0.19057 0.0
C534 C 0.40333 0.47121 0.20758 0.0
C535 C 0.40591 0.46535 0.23776 0.0
H536 H 0.42529 0.48089 0.16722 0.0
H537 H 0.44803 0.42873 0.46153 0.0
H538 H 0.162 0.13861 0.83232 0.0
H539 H 0.1377 0.10426 0.80817 0.0
H540 H 0.12947 0.06756 0.89297 0.0
H541 H 0.15573 0.10063 0.91676 0.0
H542 H 0.14248 0.03528 0.85435 0.0
H543 H 0.07278 0.10135 0.85555 0.0
H544 H 0.0543 0.14273 0.84368 0.0
H545 H 0.06634 0.12877 0.7504 0.0
H546 H 0.08518 0.0874 0.76178 0.0
H547 H 0.02931 0.9565 0.84489 0.0
H548 H 0.05392 0.99539 0.85334 0.0
H549 H 0.06978 0.00225 0.75919 0.0
H550 H 0.04541 0.96278 0.7505 0.0
H551 H 0.05745 0.0488 0.79261 0.0
H552 H 0.11958 0.97979 0.79265 0.0
H553 H 0.13434 0.93758 0.80581 0.0
H554 H 0.13456 0.95719 0.89844 0.0
H555 H 0.11926 0.99941 0.88588 0.0
C556 C 0.15541 0.12308 0.84582 0.0
C557 C 0.16076 0.12263 0.87666 0.0
C558 C 0.14109 0.10356 0.83198 0.0
C559 C 0.13122 0.08341 0.84876 0.0
C560 C 0.13672 0.08287 0.87946 0.0
C561 C 0.15145 0.10209 0.89317 0.0
C562 C 0.11533 0.06268 0.83476 0.0
C563 C 0.12377 0.03838 0.84104 0.0
C564 C 0.09149 0.06648 0.81633 0.0
C565 C 0.08066 0.09145 0.80953 0.0
C566 C 0.0717 0.10722 0.83253 0.0
C567 C 0.06112 0.13063 0.82589 0.0
C568 C 0.05923 0.1384 0.79631 0.0
C569 C 0.06791 0.12276 0.7733 0.0
C570 C 0.07856 0.09935 0.77983 0.0
C571 C 0.03734 0.96656 0.82583 0.0
C572 C 0.03566 0.95645 0.79705 0.0
C573 C 0.05147 0.98875 0.83073 0.0
C574 C 0.06419 1.00133 0.80698 0.0
C575 C 0.06024 0.99264 0.77782 0.0
C576 C 0.04612 0.97021 0.77287 0.0
C577 C 0.08382 0.02194 0.81353 0.0
C578 C 0.07629 0.046 0.80565 0.0
C579 C 0.10837 0.018 0.83066 0.0
C580 C 0.11807 0.99274 0.83832 0.0
C581 C 0.12256 0.97506 0.81585 0.0
C582 C 0.13105 0.95113 0.82319 0.0
C583 C 0.13534 0.9447 0.85294 0.0
C584 C 0.13122 0.9622 0.8754 0.0
C585 C 0.12266 0.98614 0.86817 0.0
H586 H 0.1419 0.92616 0.85859 0.0
H587 H 0.05098 0.15652 0.79121 0.0
H588 H 0.2186 0.1657 0.98491 0.0
H589 H 0.20452 0.17 0.03743 0.0
H590 H 0.12019 0.18879 0.01006 0.0
H591 H 0.13401 0.18395 0.95776 0.0
H592 H 0.14328 0.21798 0.06031 0.0
H593 H 0.13077 0.13277 0.02499 0.0
H594 H 0.1488 0.09397 1.00347 0.0
H595 H 0.20888 0.08805 0.07446 0.0
H596 H 0.19146 0.12707 0.09613 0.0
H597 H 0.0339 0.18185 0.15215 0.0
H598 H 0.07048 0.19306 0.11678 0.0
H599 H 0.13187 0.15347 0.16892 0.0
H600 H 0.09461 0.14151 0.20425 0.0
H601 H 0.1339 0.13833 0.11394 0.0
H602 H 0.13789 0.21708 0.15685 0.0
H603 H 0.12081 0.25575 0.17938 0.0
H604 H 0.08023 0.27521 0.09739 0.0
H605 H 0.09661 0.23644 0.07446 0.0
C606 C 0.19724 0.17122 0.99021 0.0
C607 C 0.17732 0.17445 0.96743 0.0
C608 C 0.18923 0.17364 0.02012 0.0
C609 C 0.16132 0.17973 0.02758 0.0
C610 C 0.14186 0.18424 1.00476 0.0
C611 C 0.1497 0.18136 0.97496 0.0
C612 C 0.15135 0.17895 0.0589 0.0
C613 C 0.14125 0.20065 0.07221 0.0
C614 C 0.14985 0.15648 0.07483 0.0
C615 C 0.1601 0.13297 0.06193 0.0
C616 C 0.148 0.1233 0.03585 0.0
C617 C 0.15807 0.10126 0.02365 0.0
C618 C 0.18004 0.08859 0.03753 0.0
C619 C 0.19191 0.09791 0.06369 0.0
C620 C 0.18196 0.11999 0.07593 0.0
C621 C 0.05536 0.17615 0.15661 0.0
C622 C 0.06142 0.16086 0.18098 0.0
C623 C 0.07639 0.18272 0.13642 0.0
C624 C 0.10413 0.1743 0.14015 0.0
C625 C 0.11067 0.16029 0.16559 0.0
C626 C 0.08945 0.15367 0.18594 0.0
C627 C 0.12464 0.1773 0.11521 0.0
C628 C 0.13669 0.15595 0.10283 0.0
C629 C 0.12828 0.2002 0.10041 0.0
C630 C 0.11849 0.22375 0.11392 0.0
C631 C 0.1252 0.22952 0.14364 0.0
C632 C 0.11564 0.25148 0.15649 0.0
C633 C 0.09945 0.26793 0.13983 0.0
C634 C 0.09281 0.26246 0.11026 0.0
C635 C 0.10228 0.2405 0.0973 0.0
H636 H 0.09205 0.28492 0.14982 0.0
H637 H 0.1878 0.07152 0.02807 0.0
H638 H 0.39966 0.31746 0.44996 0.0
H639 H 0.41176 0.31341 0.50269 0.0
H640 H 0.32599 0.33039 0.52702 0.0
H641 H 0.31363 0.33397 0.47397 0.0
H642 H 0.36941 0.35976 0.55622 0.0
H643 H 0.34446 0.27555 0.54057 0.0
H644 H 0.34412 0.23556 0.5143 0.0
H645 H 0.43356 0.22917 0.52633 0.0
H646 H 0.43453 0.26931 0.55227 0.0
H647 H 0.42975 0.35574 0.69992 0.0
H648 H 0.39434 0.3441 0.66256 0.0
H649 H 0.45933 0.30948 0.60976 0.0
H650 H 0.49411 0.32012 0.64724 0.0
H651 H 0.41286 0.28549 0.60135 0.0
H652 H 0.4399 0.37263 0.60229 0.0
H653 H 0.44374 0.41388 0.62534 0.0
H654 H 0.354 0.41575 0.63792 0.0
H655 H 0.34972 0.37436 0.61523 0.0
C656 C 0.38332 0.32 0.46656 0.0
C657 C 0.35573 0.32599 0.45797 0.0
C658 C 0.39021 0.31761 0.49663 0.0
C659 C 0.36974 0.32148 0.51876 0.0
C660 C 0.34204 0.32721 0.51027 0.0
C661 C 0.335 0.32915 0.48006 0.0
C662 C 0.37815 0.32106 0.55058 0.0
C663 C 0.37819 0.34336 0.56648 0.0
C664 C 0.39002 0.29978 0.5637 0.0
C665 C 0.38956 0.27552 0.54827 0.0
C666 C 0.36409 0.26571 0.53743 0.0
C667 C 0.36378 0.24299 0.52263 0.0
C668 C 0.38881 0.22984 0.51862 0.0
C669 C 0.41419 0.23937 0.52946 0.0
C670 C 0.41462 0.26209 0.54426 0.0
C671 C 0.43616 0.34477 0.68093 0.0
C672 C 0.46472 0.33901 0.67636 0.0
C673 C 0.41599 0.33838 0.65938 0.0
C674 C 0.42424 0.32644 0.63287 0.0
C675 C 0.45232 0.31877 0.62982 0.0
C676 C 0.47229 0.32498 0.65128 0.0
C677 C 0.40518 0.32445 0.60661 0.0
C678 C 0.40321 0.30171 0.59161 0.0
C679 C 0.39199 0.34545 0.59401 0.0
C680 C 0.39453 0.37033 0.60745 0.0
C681 C 0.42102 0.3818 0.61014 0.0
C682 C 0.42328 0.40519 0.62312 0.0
C683 C 0.39914 0.41739 0.63318 0.0
C684 C 0.37269 0.40625 0.63019 0.0
C685 C 0.37033 0.38283 0.61728 0.0
H686 H 0.40092 0.4355 0.64322 0.0
H687 H 0.38853 0.21226 0.50715 0.0
H688 H 0.68444 0.37086 0.04407 0.0
H689 H 0.67305 0.37079 0.99098 0.0
H690 H 0.64767 0.2944 0.99701 0.0
H691 H 0.66023 0.29422 0.05011 0.0
H692 H 0.67018 0.30398 0.94217 0.0
H693 H 0.59987 0.3398 1.00586 0.0
H694 H 0.58204 0.36786 0.04481 0.0
H695 H 0.60634 0.43054 0.99212 0.0
H696 H 0.6248 0.40281 0.95308 0.0
H697 H 0.54172 0.31575 0.85142 0.0
H698 H 0.57731 0.30828 0.88978 0.0
H699 H 0.62819 0.36733 0.85412 0.0
H700 H 0.59312 0.37412 0.81476 0.0
H701 H 0.59772 0.36731 0.92017 0.0
H702 H 0.66371 0.32913 0.85335 0.0
H703 H 0.67702 0.29931 0.81439 0.0
H704 H 0.65601 0.2392 0.87266 0.0
H705 H 0.64203 0.26873 0.91186 0.0
C706 C 0.67702 0.35392 0.03386 0.0
C707 C 0.67288 0.33262 0.05112 0.0
C708 C 0.67051 0.35388 1.00356 0.0
C709 C 0.65891 0.33274 0.99009 0.0
C710 C 0.65653 0.31093 0.00688 0.0
C711 C 0.66358 0.31085 0.0372 0.0
C712 C 0.64614 0.33443 0.95989 0.0
C713 C 0.65433 0.31781 0.93737 0.0
C714 C 0.62547 0.35251 0.95346 0.0
C715 C 0.614 0.36924 0.97671 0.0
C716 C 0.60158 0.35957 1.00267 0.0
C717 C 0.59136 0.37541 0.02476 0.0
C718 C 0.59312 0.40097 0.02097 0.0
C719 C 0.60504 0.41073 0.99505 0.0
C720 C 0.61539 0.39497 0.97293 0.0
C721 C 0.56114 0.32633 0.85096 0.0
C722 C 0.56483 0.34543 0.8302 0.0
C723 C 0.58139 0.32209 0.87286 0.0
C724 C 0.60532 0.33724 0.87471 0.0
C725 C 0.60999 0.35526 0.85278 0.0
C726 C 0.59005 0.35906 0.8303 0.0
C727 C 0.62203 0.3372 0.90248 0.0
C728 C 0.6141 0.3539 0.92477 0.0
C729 C 0.6425 0.31903 0.90864 0.0
C730 C 0.65151 0.30117 0.88545 0.0
C731 C 0.66164 0.30956 0.85778 0.0
C732 C 0.66936 0.29271 0.83565 0.0
C733 C 0.66726 0.26737 0.84098 0.0
C734 C 0.65758 0.25884 0.86854 0.0
C735 C 0.64978 0.27564 0.89074 0.0
H736 H 0.6732 0.25435 0.82379 0.0
H737 H 0.58519 0.41321 0.0381 0.0
H738 H 0.83637 0.13007 0.53524 0.0
H739 H 0.85274 0.1348 0.48402 0.0
H740 H 0.85949 0.21349 0.49662 0.0
H741 H 0.84334 0.20887 0.54838 0.0
H742 H 0.84059 0.19545 0.43491 0.0
H743 H 0.91479 0.18756 0.50873 0.0
H744 H 0.93667 0.16782 0.55238 0.0
H745 H 0.94078 0.09891 0.50524 0.0
H746 H 0.91844 0.11816 0.46149 0.0
H747 H 0.98673 0.1871 0.35387 0.0
H748 H 0.95298 0.19835 0.39253 0.0
H749 H 0.89036 0.15148 0.35184 0.0
H750 H 0.92443 0.14004 0.31276 0.0
H751 H 0.93547 0.15761 0.42704 0.0
H752 H 0.82286 0.17993 0.38336 0.0
H753 H 0.80034 0.20108 0.34109 0.0
H754 H 0.87535 0.24398 0.32683 0.0
H755 H 0.89801 0.22374 0.36959 0.0
C756 C 0.84095 0.14846 0.52704 0.0
C757 C 0.83912 0.16905 0.54607 0.0
C758 C 0.85001 0.15114 0.49765 0.0
C759 C 0.85744 0.17447 0.48657 0.0
C760 C 0.85364 0.19535 0.5047 0.0
C761 C 0.84454 0.19266 0.53429 0.0
C762 C 0.87345 0.17617 0.45821 0.0
C763 C 0.86133 0.18723 0.43302 0.0
C764 C 0.90062 0.16568 0.45598 0.0
C765 C 0.91472 0.15424 0.48196 0.0
C766 C 0.92019 0.16816 0.50776 0.0
C767 C 0.93268 0.15706 0.53251 0.0
C768 C 0.94005 0.13211 0.53161 0.0
C769 C 0.93503 0.11822 0.50592 0.0
C770 C 0.92247 0.12922 0.48113 0.0
C771 C 0.96543 0.17991 0.35249 0.0
C772 C 0.95824 0.16254 0.33053 0.0
C773 C 0.94617 0.18634 0.37461 0.0
C774 C 0.91929 0.17555 0.37526 0.0
C775 C 0.91099 0.1601 0.35166 0.0
C776 C 0.93041 0.15362 0.32931 0.0
C777 C 0.9027 0.17675 0.40329 0.0
C778 C 0.91474 0.16596 0.42863 0.0
C779 C 0.87569 0.18769 0.40542 0.0
C780 C 0.86229 0.20001 0.37954 0.0
C781 C 0.83452 0.19397 0.37134 0.0
C782 C 0.82167 0.20591 0.34737 0.0
C783 C 0.83638 0.22391 0.33133 0.0
C784 C 0.86398 0.23003 0.33927 0.0
C785 C 0.87685 0.2183 0.36337 0.0
H786 H 0.82646 0.23299 0.31264 0.0
H787 H 0.9497 0.12355 0.5508 0.0
H788 H 0.87911 0.80916 0.05504 0.0
H789 H 0.89593 0.80621 1.00355 0.0
H790 H 0.828 0.85336 0.97493 0.0
H791 H 0.81078 0.85576 0.02659 0.0
H792 H 0.84079 0.81835 0.93215 0.0
H793 H 0.88894 0.87871 0.98941 0.0
H794 H 0.91445 0.89522 0.03286 0.0
H795 H 0.98192 0.84407 0.01731 0.0
H796 H 0.95652 0.82689 0.97409 0.0
H797 H 0.92782 0.86822 0.80915 0.0
H798 H 0.89345 0.85895 0.84873 0.0
H799 H 0.95149 0.80669 0.88687 0.0
H800 H 0.98573 0.81615 0.84796 0.0
H801 H 0.93984 0.84689 0.92311 0.0
H802 H 0.88812 0.78774 0.8625 0.0
H803 H 0.85937 0.77362 0.82006 0.0
H804 H 0.79685 0.82833 0.84038 0.0
H805 H 0.82532 0.84291 0.88278 0.0
C806 C 0.86738 0.81827 0.03756 0.0
C807 C 0.8437 0.8326 0.04449 0.0
C808 C 0.877 0.8167 0.00823 0.0
C809 C 0.86347 0.82989 0.98545 0.0
C810 C 0.83874 0.84302 0.99212 0.0
C811 C 0.82895 0.84441 0.02153 0.0
C812 C 0.87706 0.83209 0.95571 0.0
C813 C 0.86236 0.82479 0.93004 0.0
C814 C 0.90508 0.84081 0.95295 0.0
C815 C 0.92069 0.85134 0.97866 0.0
C816 C 0.90912 0.87085 0.99537 0.0
C817 C 0.92356 0.88034 0.01996 0.0
C818 C 0.94976 0.87067 0.02788 0.0
C819 C 0.9616 0.85152 0.01117 0.0
C820 C 0.94719 0.8419 0.98662 0.0
C821 C 0.93261 0.85394 0.82522 0.0
C822 C 0.95949 0.84307 0.82578 0.0
C823 C 0.91302 0.84871 0.84788 0.0
C824 C 0.92009 0.83237 0.871 0.0
C825 C 0.94566 0.81948 0.8694 0.0
C826 C 0.96518 0.82483 0.84709 0.0
C827 C 0.90408 0.83211 0.89948 0.0
C828 C 0.91831 0.84027 0.92507 0.0
C829 C 0.8755 0.82481 0.90184 0.0
C830 C 0.85901 0.81659 0.87564 0.0
C831 C 0.86843 0.79698 0.85768 0.0
C832 C 0.85211 0.78882 0.8337 0.0
C833 C 0.82632 0.80012 0.82752 0.0
C834 C 0.81683 0.81962 0.8452 0.0
C835 C 0.83303 0.82781 0.86922 0.0
H836 H 0.81357 0.79375 0.80911 0.0
H837 H 0.96092 0.87804 0.04692 0.0
H838 H 0.67306 0.63175 0.54406 0.0
H839 H 0.66137 0.63477 0.49156 0.0
H840 H 0.65943 0.71423 0.49846 0.0
H841 H 0.67031 0.71119 0.55184 0.0
H842 H 0.61421 0.69832 0.47032 0.0
H843 H 0.71137 0.68489 0.45684 0.0
H844 H 0.75812 0.66627 0.4647 0.0
H845 H 0.72701 0.59638 0.43359 0.0
H846 H 0.67994 0.61444 0.42595 0.0
H847 H 0.56808 0.68116 0.31929 0.0
H848 H 0.60225 0.69559 0.35682 0.0
H849 H 0.6065 0.62194 0.39299 0.0
H850 H 0.57227 0.60777 0.35627 0.0
H851 H 0.65947 0.64701 0.39221 0.0
H852 H 0.5603 0.66004 0.42115 0.0
H853 H 0.51349 0.67874 0.4136 0.0
H854 H 0.5507 0.75111 0.41476 0.0
H855 H 0.59781 0.73275 0.42194 0.0
C856 C 0.67029 0.64991 0.53445 0.0
C857 C 0.67232 0.67122 0.55223 0.0
C858 C 0.66396 0.65165 0.50424 0.0
C859 C 0.65988 0.67475 0.49079 0.0
C860 C 0.66266 0.69619 0.50826 0.0
C861 C 0.66901 0.69445 0.5387 0.0
C862 C 0.65025 0.6759 0.45927 0.0
C863 C 0.62465 0.68775 0.453 0.0
C864 C 0.66371 0.6621 0.4365 0.0
C865 C 0.69205 0.65106 0.44088 0.0
C866 C 0.71443 0.66552 0.45183 0.0
C867 C 0.741 0.65506 0.45623 0.0
C868 C 0.74552 0.63016 0.44966 0.0
C869 C 0.72348 0.61567 0.43863 0.0
C870 C 0.69686 0.62603 0.4342 0.0
C871 C 0.57699 0.66802 0.33478 0.0
C872 C 0.56756 0.64341 0.33508 0.0
C873 C 0.59638 0.67626 0.35621 0.0
C874 C 0.60679 0.65983 0.37778 0.0
C875 C 0.59885 0.6349 0.37653 0.0
C876 C 0.57922 0.62684 0.35563 0.0
C877 C 0.62308 0.66853 0.40397 0.0
C878 C 0.64979 0.65841 0.40925 0.0
C879 C 0.61082 0.68407 0.42574 0.0
C880 C 0.58254 0.69505 0.42168 0.0
C881 C 0.5585 0.67993 0.41956 0.0
C882 C 0.53193 0.69046 0.41539 0.0
C883 C 0.52913 0.7161 0.4136 0.0
C884 C 0.55291 0.73125 0.41607 0.0
C885 C 0.57954 0.7208 0.42019 0.0
H886 H 0.50855 0.72422 0.41037 0.0
H887 H 0.76611 0.62209 0.4531 0.0
H888 H 0.35657 0.70247 0.95891 0.0
H889 H 0.3726 0.70495 0.01078 0.0
H890 H 0.34 0.63186 0.02717 0.0
H891 H 0.32472 0.62902 0.97506 0.0
H892 H 0.33631 0.67503 0.07824 0.0
H893 H 0.39731 0.62518 0.01212 0.0
H894 H 0.42249 0.61984 0.96446 0.0
H895 H 0.46868 0.68688 0.9802 0.0
H896 H 0.44323 0.69288 0.02767 0.0
H897 H 0.42639 0.62464 0.19241 0.0
H898 H 0.39315 0.63515 0.15249 0.0
H899 H 0.45098 0.69077 0.12041 0.0
H900 H 0.48412 0.68 0.15986 0.0
H901 H 0.43933 0.65924 0.07801 0.0
H902 H 0.38636 0.70692 0.14629 0.0
H903 H 0.36084 0.71672 0.19265 0.0
H904 H 0.30064 0.65949 0.17399 0.0
H905 H 0.32599 0.64913 0.12758 0.0
C906 C 0.35209 0.68727 0.97387 0.0
C907 C 0.33953 0.66553 0.96313 0.0
C908 C 0.36114 0.68873 1.00344 0.0
C909 C 0.35729 0.66864 0.02278 0.0
C910 C 0.34281 0.64765 0.01267 0.0
C911 C 0.3343 0.64598 0.98294 0.0
C912 C 0.37291 0.66771 0.05127 0.0
C913 C 0.35876 0.67134 0.0784 0.0
C914 C 0.40228 0.6636 0.05125 0.0
C915 C 0.41816 0.65962 0.02321 0.0
C916 C 0.41265 0.63888 1.00527 0.0
C917 C 0.42698 0.63573 0.97832 0.0
C918 C 0.44712 0.65304 0.96927 0.0
C919 C 0.45303 0.67351 0.98721 0.0
C920 C 0.43865 0.6768 0.01413 0.0
C921 C 0.43135 0.63977 0.17752 0.0
C922 C 0.45756 0.65173 0.17923 0.0
C923 C 0.41245 0.64572 0.15466 0.0
C924 C 0.41964 0.66369 0.1333 0.0
C925 C 0.44501 0.67679 0.13648 0.0
C926 C 0.46385 0.67076 0.15912 0.0
C927 C 0.4029 0.66647 0.10554 0.0
C928 C 0.41688 0.66304 0.07825 0.0
C929 C 0.37353 0.67113 0.10563 0.0
C930 C 0.35823 0.6771 0.13356 0.0
C931 C 0.36782 0.69626 0.15217 0.0
C932 C 0.35334 0.70198 0.17841 0.0
C933 C 0.32915 0.68874 0.18623 0.0
C934 C 0.31939 0.66973 0.16786 0.0
C935 C 0.33377 0.66396 0.14155 0.0
H936 H 0.31794 0.69331 0.20648 0.0
H937 H 0.4582 0.65058 0.94839 0.0
H938 H 0.1318 0.84073 0.46008 0.0
H939 H 0.12155 0.83883 0.51315 0.0
H940 H 0.20895 0.82387 0.53156 0.0
H941 H 0.21977 0.82654 0.47799 0.0
H942 H 0.16165 0.79396 0.56547 0.0
H943 H 0.1977 0.87556 0.54679 0.0
H944 H 0.20195 0.91401 0.51775 0.0
H945 H 0.11349 0.9277 0.52929 0.0
H946 H 0.10862 0.88912 0.55799 0.0
H947 H 0.09842 0.87045 0.702 0.0
H948 H 0.13706 0.86054 0.66752 0.0
H949 H 0.08171 0.81185 0.61888 0.0
H950 H 0.04315 0.82207 0.65277 0.0
H951 H 0.12988 0.87365 0.60848 0.0
H952 H 0.1213 0.76769 0.58362 0.0
H953 H 0.11648 0.72885 0.61174 0.0
H954 H 0.15114 0.76376 0.68928 0.0
H955 H 0.15665 0.80274 0.6616 0.0
C956 C 0.14897 0.8371 0.4753 0.0
C957 C 0.17674 0.83431 0.46476 0.0
C958 C 0.14299 0.8358 0.50563 0.0
C959 C 0.16451 0.8314 0.52623 0.0
C960 C 0.19206 0.82726 0.51592 0.0
C961 C 0.19817 0.82877 0.48535 0.0
C962 C 0.15785 0.83308 0.55843 0.0
C963 C 0.15509 0.81136 0.5752 0.0
C964 C 0.14989 0.8559 0.57118 0.0
C965 C 0.1528 0.8794 0.55445 0.0
C966 C 0.17913 0.8867 0.54299 0.0
C967 C 0.18165 0.90853 0.5266 0.0
C968 C 0.158 0.92328 0.52166 0.0
C969 C 0.13179 0.91627 0.53315 0.0
C970 C 0.12915 0.89444 0.54953 0.0
C971 C 0.09491 0.85688 0.68467 0.0
C972 C 0.06786 0.84705 0.67993 0.0
C973 C 0.11693 0.85132 0.66491 0.0
C974 C 0.11229 0.83543 0.64062 0.0
C975 C 0.08592 0.82391 0.63762 0.0
C976 C 0.06385 0.82982 0.65693 0.0
C977 C 0.13251 0.83436 0.61535 0.0
C978 C 0.13743 0.85627 0.5995 0.0
C979 C 0.14248 0.8117 0.60365 0.0
C980 C 0.13929 0.78824 0.62047 0.0
C981 C 0.12808 0.76709 0.60661 0.0
C982 C 0.1252 0.74503 0.62251 0.0
C983 C 0.1335 0.74386 0.65229 0.0
C984 C 0.14469 0.76473 0.66625 0.0
C985 C 0.14764 0.78683 0.65047 0.0
H986 H 0.13128 0.72677 0.66456 0.0
H987 H 0.15999 0.94016 0.50894 0.0
H988 H 0.29138 0.23965 0.35451 0.0
H989 H 0.25127 0.21968 0.33026 0.0
H990 H 0.22533 0.28978 0.29414 0.0
H991 H 0.2657 0.30993 0.31859 0.0
H992 H 0.18036 0.26298 0.31618 0.0
H993 H 0.25602 0.24939 0.24888 0.0
H994 H 0.30399 0.23765 0.23323 0.0
H995 H 0.28948 0.16351 0.26346 0.0
H996 H 0.24155 0.17488 0.27972 0.0
H997 H 0.07497 0.19114 0.24275 0.0
H998 H 0.11596 0.21915 0.24373 0.0
H999 H 0.16372 0.16399 0.29091 0.0
H1000 H 0.12317 0.1363 0.28999 0.0
H1001 H 0.19698 0.1898 0.25195 0.0
H1002 H 0.12634 0.2066 0.32876 0.0
H1003 H 0.07856 0.21791 0.3456 0.0
H1004 H 0.08409 0.28607 0.29713 0.0
H1005 H 0.13181 0.27496 0.27969 0.0
C1006 C 0.27696 0.25086 0.34167 0.0
C1007 C 0.28139 0.2764 0.33878 0.0
C1008 C 0.25418 0.23941 0.32761 0.0
C1009 C 0.23547 0.25317 0.31004 0.0
C1010 C 0.23952 0.27879 0.30752 0.0
C1011 C 0.26246 0.29028 0.32155 0.0
C1012 C 0.21176 0.24052 0.29458 0.0
C1013 C 0.184 0.24736 0.30153 0.0
C1014 C 0.21643 0.22005 0.27555 0.0
C1015 C 0.24521 0.21304 0.26567 0.0
C1016 C 0.26311 0.23062 0.25238 0.0
C1017 C 0.2903 0.22402 0.24337 0.0
C1018 C 0.29979 0.19986 0.24738 0.0
C1019 C 0.28209 0.18222 0.26036 0.0
C1020 C 0.25489 0.18872 0.26944 0.0
C1021 C 0.09456 0.18481 0.25242 0.0
C1022 C 0.09595 0.16167 0.26647 0.0
C1023 C 0.11786 0.20084 0.25317 0.0
C1024 C 0.14278 0.1938 0.26783 0.0
C1025 C 0.14477 0.16988 0.27954 0.0
C1026 C 0.12155 0.15407 0.27906 0.0
C1027 C 0.16571 0.21175 0.27438 0.0
C1028 C 0.19337 0.20587 0.26586 0.0
C1029 C 0.16095 0.23307 0.29197 0.0
C1030 C 0.13244 0.23983 0.30264 0.0
C1031 C 0.11727 0.22392 0.32154 0.0
C1032 C 0.09022 0.2303 0.33121 0.0
C1033 C 0.07826 0.25266 0.32237 0.0
C1034 C 0.09336 0.26872 0.30391 0.0
C1035 C 0.1204 0.2624 0.29412 0.0
H1036 H 0.05731 0.25757 0.32988 0.0
H1037 H 0.32084 0.19479 0.2404 0.0
H1038 H 0.26369 0.23036 0.87536 0.0
H1039 H 0.29269 0.25687 0.84338 0.0
H1040 H 0.3263 0.19246 0.79943 0.0
H1041 H 0.29727 0.16589 0.83146 0.0
H1042 H 0.3675 0.22424 0.81596 0.0
H1043 H 0.28129 0.2297 0.76236 0.0
H1044 H 0.23023 0.2359 0.75566 0.0
H1045 H 0.23788 0.31033 0.78768 0.0
H1046 H 0.28892 0.30449 0.79499 0.0
H1047 H 0.45182 0.30874 0.73657 0.0
H1048 H 0.41522 0.27658 0.73925 0.0
H1049 H 0.36316 0.32522 0.79189 0.0
H1050 H 0.39914 0.35719 0.78878 0.0
H1051 H 0.33063 0.29574 0.75924 0.0
H1052 H 0.41216 0.28676 0.82439 0.0
H1053 H 0.46298 0.28169 0.83414 0.0
H1054 H 0.46342 0.21471 0.78289 0.0
H1055 H 0.41263 0.21959 0.77254 0.0
C1056 C 0.27696 0.22193 0.85856 0.0
C1057 C 0.27793 0.19613 0.85555 0.0
C1058 C 0.29344 0.23705 0.84023 0.0
C1059 C 0.31135 0.22667 0.81865 0.0
C1060 C 0.31246 0.20087 0.81573 0.0
C1061 C 0.29586 0.18574 0.83398 0.0
C1062 C 0.33016 0.2428 0.80061 0.0
C1063 C 0.3594 0.23949 0.8029 0.0
C1064 C 0.31965 0.26292 0.7839 0.0
C1065 C 0.28895 0.2666 0.77937 0.0
C1066 C 0.27207 0.24734 0.76816 0.0
C1067 C 0.24312 0.2508 0.76423 0.0
C1068 C 0.23081 0.27348 0.77128 0.0
C1069 C 0.24744 0.29277 0.78222 0.0
C1070 C 0.2764 0.28941 0.78622 0.0
C1071 C 0.43207 0.31282 0.74763 0.0
C1072 C 0.42838 0.33529 0.76277 0.0
C1073 C 0.41127 0.2944 0.74938 0.0
C1074 C 0.3867 0.29828 0.7664 0.0
C1075 C 0.38192 0.32168 0.77878 0.0
C1076 C 0.40258 0.33995 0.77707 0.0
C1077 C 0.3679 0.27753 0.77532 0.0
C1078 C 0.33867 0.28002 0.77149 0.0
C1079 C 0.37836 0.25677 0.79093 0.0
C1080 C 0.40875 0.25369 0.79739 0.0
C1081 C 0.42315 0.27103 0.81507 0.0
C1082 C 0.45193 0.2682 0.82071 0.0
C1083 C 0.46644 0.24793 0.80906 0.0
C1084 C 0.45217 0.23043 0.79183 0.0
C1085 C 0.4234 0.23322 0.78607 0.0
H1086 H 0.48872 0.24576 0.81344 0.0
H1087 H 0.2084 0.27612 0.76822 0.0
H1088 H 0.786 0.25855 0.65279 0.0
H1089 H 0.74917 0.27997 0.68076 0.0
H1090 H 0.72789 0.21216 0.72592 0.0
H1091 H 0.76491 0.19055 0.69766 0.0
H1092 H 0.68095 0.23682 0.70784 0.0
H1093 H 0.76273 0.25632 0.76365 0.0
H1094 H 0.81178 0.26967 0.77211 0.0
H1095 H 0.79284 0.34106 0.73595 0.0
H1096 H 0.74377 0.32804 0.72686 0.0
H1097 H 0.57996 0.31513 0.776 0.0
H1098 H 0.62088 0.28733 0.77831 0.0
H1099 H 0.66796 0.33742 0.72237 0.0
H1100 H 0.62776 0.36511 0.72057 0.0
H1101 H 0.70255 0.31508 0.76071 0.0
H1102 H 0.62621 0.29044 0.6926 0.0
H1103 H 0.57723 0.27754 0.68243 0.0
H1104 H 0.58657 0.21603 0.74183 0.0
H1105 H 0.63553 0.22878 0.75257 0.0
C1106 C 0.77339 0.24818 0.66858 0.0
C1107 C 0.77817 0.22288 0.67299 0.0
C1108 C 0.7525 0.26048 0.68475 0.0
C1109 C 0.73606 0.24778 0.70585 0.0
C1110 C 0.74042 0.22236 0.70991 0.0
C1111 C 0.76145 0.21004 0.69375 0.0
C1112 C 0.71392 0.26121 0.72288 0.0
C1113 C 0.68576 0.25358 0.72008 0.0
C1114 C 0.72009 0.28311 0.73887 0.0
C1115 C 0.74956 0.29114 0.74446 0.0
C1116 C 0.76906 0.27482 0.75733 0.0
C1117 C 0.79687 0.28234 0.76226 0.0
C1118 C 0.80543 0.30619 0.75455 0.0
C1119 C 0.78618 0.32259 0.74193 0.0
C1120 C 0.75834 0.31516 0.73693 0.0
C1121 C 0.59945 0.32057 0.76522 0.0
C1122 C 0.60067 0.34212 0.74785 0.0
C1123 C 0.62271 0.30459 0.7663 0.0
C1124 C 0.64731 0.31002 0.74994 0.0
C1125 C 0.64926 0.33271 0.73506 0.0
C1126 C 0.62618 0.34852 0.73393 0.0
C1127 C 0.66962 0.29128 0.74444 0.0
C1128 C 0.69786 0.29788 0.74935 0.0
C1129 C 0.66355 0.26847 0.73033 0.0
C1130 C 0.63433 0.26068 0.7236 0.0
C1131 C 0.61773 0.27423 0.70356 0.0
C1132 C 0.59 0.26695 0.6977 0.0
C1133 C 0.57877 0.24601 0.71154 0.0
C1134 C 0.59528 0.23227 0.73118 0.0
C1135 C 0.62301 0.23951 0.73716 0.0
H1136 H 0.55729 0.24041 0.70698 0.0
H1137 H 0.82697 0.31197 0.75837 0.0
H1138 H 0.77225 0.32437 0.20228 0.0
H1139 H 0.80204 0.29599 0.23068 0.0
H1140 H 0.78237 0.23752 0.16878 0.0
H1141 H 0.75245 0.26591 0.1404 0.0
H1142 H 0.78397 0.22098 0.22741 0.0
H1143 H 0.84182 0.27086 0.16079 0.0
H1144 H 0.86032 0.31019 0.14105 0.0
H1145 H 0.89129 0.32953 0.22777 0.0
H1146 H 0.87263 0.29041 0.24809 0.0
H1147 H 0.89724 0.14037 0.2128 0.0
H1148 H 0.85812 0.16915 0.21237 0.0
H1149 H 0.90169 0.21577 0.27534 0.0
H1150 H 0.94186 0.18717 0.27475 0.0
H1151 H 0.88582 0.24176 0.22957 0.0
H1152 H 0.84037 0.18446 0.29103 0.0
H1153 H 0.82208 0.14512 0.3103 0.0
H1154 H 0.76827 0.13794 0.23407 0.0
H1155 H 0.78634 0.17724 0.21415 0.0
C1156 C 0.77394 0.30535 0.19503 0.0
C1157 C 0.75998 0.29726 0.1692 0.0
C1158 C 0.791 0.28918 0.21123 0.0
C1159 C 0.7946 0.26465 0.20177 0.0
C1160 C 0.77981 0.25632 0.1766 0.0
C1161 C 0.7628 0.27251 0.16036 0.0
C1162 C 0.81538 0.24817 0.21652 0.0
C1163 C 0.80629 0.22534 0.22783 0.0
C1164 C 0.84431 0.25443 0.21824 0.0
C1165 C 0.85552 0.2779 0.20602 0.0
C1166 C 0.85237 0.2836 0.17569 0.0
C1167 C 0.86291 0.30583 0.16439 0.0
C1168 C 0.87688 0.32239 0.18317 0.0
C1169 C 0.8804 0.31671 0.21327 0.0
C1170 C 0.86985 0.29452 0.22469 0.0
C1171 C 0.89828 0.15646 0.22713 0.0
C1172 C 0.92263 0.16148 0.24385 0.0
C1173 C 0.87572 0.17287 0.22704 0.0
C1174 C 0.87673 0.19464 0.24397 0.0
C1175 C 0.90037 0.19906 0.26213 0.0
C1176 C 0.92318 0.18258 0.26208 0.0
C1177 C 0.85471 0.21384 0.2394 0.0
C1178 C 0.8635 0.23735 0.22997 0.0
C1179 C 0.82552 0.20806 0.23941 0.0
C1180 C 0.81463 0.18413 0.25118 0.0
C1181 C 0.82459 0.17462 0.27834 0.0
C1182 C 0.81428 0.15224 0.28938 0.0
C1183 C 0.79396 0.13905 0.27346 0.0
C1184 C 0.78394 0.14823 0.24644 0.0
C1185 C 0.79417 0.17064 0.23532 0.0
H1186 H 0.78601 0.12171 0.28202 0.0
H1187 H 0.88504 0.33958 0.17438 0.0
H1188 H 0.75312 0.69677 0.69994 0.0
H1189 H 0.79514 0.71883 0.71788 0.0
H1190 H 0.77043 0.78305 0.66756 0.0
H1191 H 0.72901 0.76087 0.64918 0.0
H1192 H 0.82433 0.77452 0.65998 0.0
H1193 H 0.76183 0.77793 0.7454 0.0
H1194 H 0.73244 0.76102 0.78592 0.0
H1195 H 0.80386 0.72195 0.8205 0.0
H1196 H 0.83359 0.73835 0.77992 0.0
H1197 H 0.90067 0.8717 0.71374 0.0
H1198 H 0.86032 0.84409 0.70869 0.0
H1199 H 0.90478 0.7876 0.75711 0.0
H1200 H 0.94536 0.81571 0.76284 0.0
H1201 H 0.84603 0.78665 0.76695 0.0
H1202 H 0.90916 0.78623 0.68458 0.0
H1203 H 0.93921 0.80478 0.64571 0.0
H1204 H 0.86664 0.83849 0.606 0.0
H1205 H 0.83619 0.82048 0.64495 0.0
C1206 C 0.75685 0.71558 0.69273 0.0
C1207 C 0.73793 0.72713 0.67317 0.0
C1208 C 0.78068 0.72822 0.70313 0.0
C1209 C 0.78584 0.75273 0.69436 0.0
C1210 C 0.76695 0.76417 0.67467 0.0
C1211 C 0.74327 0.75151 0.66418 0.0
C1212 C 0.81115 0.76651 0.70486 0.0
C1213 C 0.8288 0.77734 0.68341 0.0
C1214 C 0.81783 0.7694 0.73544 0.0
C1215 C 0.79982 0.75907 0.75938 0.0
C1216 C 0.77118 0.76549 0.76143 0.0
C1217 C 0.75448 0.75606 0.78446 0.0
C1218 C 0.76625 0.74034 0.8057 0.0
C1219 C 0.79475 0.73404 0.80397 0.0
C1220 C 0.81152 0.74338 0.78095 0.0
C1221 C 0.90152 0.85367 0.72414 0.0
C1222 C 0.92617 0.84568 0.73837 0.0
C1223 C 0.87853 0.83786 0.72109 0.0
C1224 C 0.87992 0.81354 0.73166 0.0
C1225 C 0.90344 0.80623 0.74847 0.0
C1226 C 0.92651 0.82229 0.75187 0.0
C1227 C 0.85809 0.79548 0.72216 0.0
C1228 C 0.84142 0.78366 0.74364 0.0
C1229 C 0.85224 0.79159 0.69161 0.0
C1230 C 0.87041 0.80212 0.66781 0.0
C1231 C 0.89962 0.79771 0.66766 0.0
C1232 C 0.91673 0.80813 0.64561 0.0
C1233 C 0.90485 0.82283 0.62342 0.0
C1234 C 0.87581 0.8271 0.6232 0.0
C1235 C 0.85861 0.81677 0.64525 0.0
H1236 H 0.91813 0.83089 0.60637 0.0
H1237 H 0.7533 0.7331 0.82355 0.0
H1238 H 0.70633 0.8194 0.13661 0.0
H1239 H 0.67655 0.79259 0.16728 0.0
H1240 H 0.74954 0.76918 0.21676 0.0
H1241 H 0.77947 0.79624 0.18619 0.0
H1242 H 0.71469 0.72987 0.19939 0.0
H1243 H 0.70538 0.80664 0.25006 0.0
H1244 H 0.69755 0.85146 0.25469 0.0
H1245 H 0.61401 0.84299 0.21949 0.0
H1246 H 0.62147 0.79815 0.21422 0.0
H1247 H 0.61235 0.65751 0.27552 0.0
H1248 H 0.65049 0.6885 0.27354 0.0
H1249 H 0.59884 0.73442 0.21731 0.0
H1250 H 0.56114 0.70394 0.21967 0.0
H1251 H 0.63044 0.76273 0.25156 0.0
H1252 H 0.64458 0.68985 0.18866 0.0
H1253 H 0.6515 0.6452 0.18054 0.0
H1254 H 0.72496 0.6468 0.23622 0.0
H1255 H 0.71824 0.69144 0.24491 0.0
C1256 C 0.71604 0.80839 0.15388 0.0
C1257 C 0.74529 0.80941 0.15846 0.0
C1258 C 0.69901 0.79324 0.17155 0.0
C1259 C 0.71081 0.77898 0.19442 0.0
C1260 C 0.74002 0.77999 0.19919 0.0
C1261 C 0.75709 0.79535 0.18163 0.0
C1262 C 0.69242 0.76268 0.2127 0.0
C1263 C 0.69666 0.73708 0.21148 0.0
C1264 C 0.66878 0.77206 0.22827 0.0
C1265 C 0.66406 0.79901 0.23164 0.0
C1266 C 0.6854 0.81434 0.24313 0.0
C1267 C 0.68101 0.83976 0.24589 0.0
C1268 C 0.65531 0.85007 0.23736 0.0
C1269 C 0.63391 0.83497 0.2261 0.0
C1270 C 0.63819 0.80954 0.22328 0.0
C1271 C 0.60894 0.67471 0.2638 0.0
C1272 C 0.58396 0.67851 0.24778 0.0
C1273 C 0.63075 0.69227 0.26241 0.0
C1274 C 0.62774 0.71364 0.24481 0.0
C1275 C 0.60177 0.71818 0.23102 0.0
C1276 C 0.5802 0.70075 0.23237 0.0
C1277 C 0.65206 0.72988 0.2372 0.0
C1278 C 0.64896 0.75554 0.24034 0.0
C1279 C 0.67659 0.72057 0.2231 0.0
C1280 C 0.68072 0.69384 0.21773 0.0
C1281 C 0.6621 0.68062 0.19929 0.0
C1282 C 0.666 0.65534 0.19458 0.0
C1283 C 0.68861 0.64315 0.20794 0.0
C1284 C 0.70742 0.65625 0.22596 0.0
C1285 C 0.70358 0.68153 0.23079 0.0
H1286 H 0.69159 0.62358 0.20426 0.0
H1287 H 0.65196 0.86975 0.2395 0.0
H1288 H 0.2724 0.78948 0.37396 0.0
H1289 H 0.31187 0.76974 0.34813 0.0
H1290 H 0.2554 0.74417 0.27954 0.0
H1291 H 0.21579 0.7641 0.30529 0.0
H1292 H 0.29065 0.70754 0.29954 0.0
H1293 H 0.30028 0.78969 0.26315 0.0
H1294 H 0.30309 0.83507 0.26653 0.0
H1295 H 0.3776 0.8294 0.32016 0.0
H1296 H 0.37501 0.78397 0.31747 0.0
H1297 H 0.41503 0.65497 0.23568 0.0
H1298 H 0.37243 0.68079 0.23631 0.0
H1299 H 0.40676 0.72276 0.30952 0.0
H1300 H 0.449 0.69744 0.3086 0.0
H1301 H 0.37863 0.75251 0.27394 0.0
H1302 H 0.36381 0.67161 0.31843 0.0
H1303 H 0.36118 0.62614 0.31741 0.0
H1304 H 0.29625 0.62946 0.2511 0.0
H1305 H 0.29862 0.67496 0.25163 0.0
C1306 C 0.2685 0.78004 0.3531 0.0
C1307 C 0.24116 0.77894 0.34118 0.0
C1308 C 0.29105 0.76875 0.33835 0.0
C1309 C 0.28669 0.75583 0.3116 0.0
C1310 C 0.25931 0.75425 0.29996 0.0
C1311 C 0.23676 0.76572 0.31461 0.0
C1312 C 0.31068 0.74319 0.29667 0.0
C1313 C 0.30968 0.71743 0.29327 0.0
C1314 C 0.33557 0.75605 0.2887 0.0
C1315 C 0.33735 0.78339 0.29023 0.0
C1316 C 0.31716 0.79811 0.27583 0.0
C1317 C 0.31873 0.82385 0.2776 0.0
C1318 C 0.34049 0.83511 0.29358 0.0
C1319 C 0.36076 0.82065 0.30778 0.0
C1320 C 0.35927 0.7949 0.3061 0.0
C1321 C 0.41379 0.67027 0.25111 0.0
C1322 C 0.43526 0.67421 0.27208 0.0
C1323 C 0.38936 0.68488 0.25167 0.0
C1324 C 0.3862 0.7036 0.27321 0.0
C1325 C 0.40859 0.7085 0.2927 0.0
C1326 C 0.43273 0.69392 0.29223 0.0
C1327 C 0.35902 0.71676 0.27794 0.0
C1328 C 0.35936 0.74267 0.27943 0.0
C1329 C 0.33361 0.70401 0.28445 0.0
C1330 C 0.33188 0.67667 0.28453 0.0
C1331 C 0.34917 0.66263 0.30343 0.0
C1332 C 0.34767 0.63685 0.303 0.0
C1333 C 0.3287 0.62491 0.28405 0.0
C1334 C 0.31105 0.63873 0.26564 0.0
C1335 C 0.31249 0.66451 0.26597 0.0
H1336 H 0.32757 0.60495 0.28375 0.0
H1337 H 0.34167 0.85504 0.29493 0.0
H1338 H 0.22594 0.67643 0.82428 0.0
H1339 H 0.19818 0.70767 0.79822 0.0
H1340 H 0.25079 0.76494 0.8355 0.0
H1341 H 0.27792 0.73377 0.86236 0.0
H1342 H 0.19845 0.77577 0.84357 0.0
H1343 H 0.25146 0.7476 0.75925 0.0
H1344 H 0.27036 0.7176 0.7231 0.0
H1345 H 0.18628 0.69844 0.69627 0.0
H1346 H 0.16683 0.72795 0.73266 0.0
H1347 H 0.12783 0.87175 0.77896 0.0
H1348 H 0.16785 0.84357 0.78248 0.0
H1349 H 0.1154 0.78374 0.75128 0.0
H1350 H 0.07564 0.81238 0.74624 0.0
H1351 H 0.17053 0.77565 0.73723 0.0
H1352 H 0.11778 0.79813 0.82534 0.0
H1353 H 0.09721 0.82796 0.86074 0.0
H1354 H 0.17972 0.85646 0.88008 0.0
H1355 H 0.20073 0.82702 0.84446 0.0
C1356 C 0.2319 0.69567 0.82639 0.0
C1357 C 0.25453 0.7026 0.84476 0.0
C1358 C 0.21611 0.71352 0.81136 0.0
C1359 C 0.22266 0.73871 0.81437 0.0
C1360 C 0.24546 0.74563 0.83255 0.0
C1361 C 0.26108 0.7278 0.84778 0.0
C1362 C 0.20414 0.75793 0.80107 0.0
C1363 C 0.19288 0.77593 0.82015 0.0
C1364 C 0.19598 0.75779 0.77069 0.0
C1365 C 0.20767 0.73982 0.74898 0.0
C1366 C 0.23698 0.7368 0.74589 0.0
C1367 C 0.24779 0.7199 0.72531 0.0
C1368 C 0.22954 0.70606 0.70747 0.0
C1369 C 0.20041 0.70912 0.71015 0.0
C1370 C 0.18948 0.72593 0.73076 0.0
C1371 C 0.12526 0.85282 0.77159 0.0
C1372 C 0.09874 0.84407 0.76264 0.0
C1373 C 0.14804 0.83669 0.77379 0.0
C1374 C 0.14431 0.81137 0.76824 0.0
C1375 C 0.11867 0.80315 0.75603 0.0
C1376 C 0.09598 0.8195 0.7531 0.0
C1377 C 0.16517 0.79328 0.77971 0.0
C1378 C 0.17655 0.77547 0.76048 0.0
C1379 C 0.1733 0.7933 0.81004 0.0
C1380 C 0.16078 0.81053 0.83207 0.0
C1381 C 0.13151 0.81082 0.83709 0.0
C1382 C 0.11978 0.82766 0.85717 0.0
C1383 C 0.13714 0.84413 0.87261 0.0
C1384 C 0.16629 0.84371 0.86809 0.0
C1385 C 0.17813 0.82695 0.84797 0.0
H1386 H 0.12802 0.85718 0.88811 0.0
H1387 H 0.23796 0.69302 0.69152 0.0
loop_
_geom_bond_atom_site_label_1
_geom_bond_atom_site_label_2
_geom_bond_distance
_geom_bond_site_symmetry_2
_ccdc_geom_bond_type
H0 C7 0.929 . S
H1 C10 0.930 . S
H2 C12 0.929 . S
H3 C4 0.969 . S
C4 H3 0.969 . S
C4 O5 1.550 . S
C4 H6 0.973 . S
O5 C4 1.550 . S
O5 C11 1.412 . S
H6 C4 0.973 . S
C7 H0 0.929 . S
C7 C8 1.400 . S
C7 C9 1.364 . S
C8 C7 1.400 . S
C8 C12 1.377 . S
C9 C7 1.364 . S
C9 C10 1.374 . S
C10 H1 0.930 . S
C10 C9 1.374 . S
C10 C11 1.383 . S
C11 O5 1.412 . S
C11 C10 1.383 . S
C11 C12 1.394 . S
C12 H2 0.929 . S
C12 C8 1.377 . S
C12 C11 1.394 . S
H13 C20 0.929 . S
H14 C23 0.930 . S
H15 C25 0.929 . S
H16 C17 0.969 . S
C17 H16 0.969 . S
C17 O18 1.550 . S
C17 H19 0.973 . S
O18 C17 1.550 . S
O18 C24 1.412 . S
H19 C17 0.973 . S
C20 H13 0.929 . S
C20 C21 1.400 . S
C20 C22 1.364 . S
C21 C20 1.400 . S
C21 C25 1.377 . S
C22 C20 1.364 . S
C22 C23 1.374 . S
C23 H14 0.930 . S
C23 C22 1.374 . S
C23 C24 1.383 . S
C24 O18 1.412 . S
C24 C23 1.383 . S
C24 C25 1.394 . S
C25 H15 0.929 . S
C25 C21 1.377 . S
C25 C24 1.394 . S
H26 C33 0.929 . S
H27 C36 0.930 . S
H28 C38 0.929 . S
H29 C30 0.969 . S
C30 H29 0.969 . S
C30 O31 1.550 . S
C30 H32 0.973 . S
O31 C30 1.550 . S
O31 C37 1.412 . S
H32 C30 0.973 . S
C33 H26 0.929 . S
C33 C34 1.400 . S
C33 C35 1.364 . S
C34 C33 1.400 . S
C34 C38 1.377 . S
C35 C33 1.364 . S
C35 C36 1.374 . S
C36 H27 0.930 . S
C36 C35 1.374 . S
C36 C37 1.383 . S
C37 O31 1.412 . S
C37 C36 1.383 . S
C37 C38 1.394 . S
C38 H28 0.929 . S
C38 C34 1.377 . S
C38 C37 1.394 . S
H39 C46 0.929 . S
H40 C49 0.930 . S
H41 C51 0.929 . S
H42 C43 0.969 . S
C43 H42 0.969 . S
C43 O44 1.550 . S
C43 H45 0.973 . S
O44 C43 1.550 . S
O44 C50 1.412 . S
H45 C43 0.973 . S
C46 H39 0.929 . S
C46 C47 1.400 . S
C46 C48 1.364 . S
C47 C46 1.400 . S
C47 C51 1.377 . S
C48 C46 1.364 . S
C48 C49 1.374 . S
C49 H40 0.930 . S
C49 C48 1.374 . S
C49 C50 1.383 . S
C50 O44 1.412 . S
C50 C49 1.383 . S
C50 C51 1.394 . S
C51 H41 0.929 . S
C51 C47 1.377 . S
C51 C50 1.394 . S
H52 C59 0.929 . S
H53 C62 0.930 . S
H54 C64 0.929 . S
H55 C56 0.969 . S
C56 H55 0.969 . S
C56 O57 1.550 . S
C56 H58 0.973 . S
O57 C56 1.550 . S
O57 C63 1.412 . S
H58 C56 0.973 . S
C59 H52 0.929 . S
C59 C60 1.400 . S
C59 C61 1.364 . S
C60 C59 1.400 . S
C60 C64 1.377 . S
C61 C59 1.364 . S
C61 C62 1.374 . S
C62 H53 0.930 . S
C62 C61 1.374 . S
C62 C63 1.383 . S
C63 O57 1.412 . S
C63 C62 1.383 . S
C63 C64 1.394 . S
C64 H54 0.929 . S
C64 C60 1.377 . S
C64 C63 1.394 . S
H65 C72 0.929 . S
H66 C75 0.930 . S
H67 C77 0.929 . S
H68 C69 0.969 . S
C69 H68 0.969 . S
C69 O70 1.550 . S
C69 H71 0.973 . S
O70 C69 1.550 . S
O70 C76 1.412 . S
H71 C69 0.973 . S
C72 H65 0.929 . S
C72 C73 1.400 . S
C72 C74 1.364 . S
C73 C72 1.400 . S
C73 C77 1.377 . S
C74 C72 1.364 . S
C74 C75 1.374 . S
C75 H66 0.930 . S
C75 C74 1.374 . S
C75 C76 1.383 . S
C76 O70 1.412 . S
C76 C75 1.383 . S
C76 C77 1.394 . S
C77 H67 0.929 . S
C77 C73 1.377 . S
C77 C76 1.394 . S
H78 C85 0.929 . S
H79 C88 0.930 . S
H80 C90 0.929 . S
H81 C82 0.969 . S
C82 H81 0.969 . S
C82 O83 1.550 . S
C82 H84 0.973 . S
O83 C82 1.550 . S
O83 C89 1.412 . S
H84 C82 0.973 . S
C85 H78 0.929 . S
C85 C86 1.400 . S
C85 C87 1.364 . S
C86 C85 1.400 . S
C86 C90 1.377 . S
C87 C85 1.364 . S
C87 C88 1.374 . S
C88 H79 0.930 . S
C88 C87 1.374 . S
C88 C89 1.383 . S
C89 O83 1.412 . S
C89 C88 1.383 . S
C89 C90 1.394 . S
C90 H80 0.929 . S
C90 C86 1.377 . S
C90 C89 1.394 . S
H91 C98 0.929 . S
H92 C101 0.930 . S
H93 C103 0.929 . S
H94 C95 0.969 . S
C95 H94 0.969 . S
C95 O96 1.550 . S
C95 H97 0.973 . S
O96 C95 1.550 . S
O96 C102 1.412 . S
H97 C95 0.973 . S
C98 H91 0.929 . S
C98 C99 1.400 . S
C98 C100 1.364 . S
C99 C98 1.400 . S
C99 C103 1.377 . S
C100 C98 1.364 . S
C100 C101 1.374 . S
C101 H92 0.930 . S
C101 C100 1.374 . S
C101 C102 1.383 . S
C102 O96 1.412 . S
C102 C101 1.383 . S
C102 C103 1.394 . S
C103 H93 0.929 . S
C103 C99 1.377 . S
C103 C102 1.394 . S
Zn104 O110 1.920 . S
Zn104 O116 1.898 . S
Zn104 O119 1.905 . S
Zn105 O113 1.905 1_655 S
Zn105 O114 1.898 . S
Zn105 O122 1.920 . S
Zn106 O109 2.080 1_455 S
Zn106 O112 2.114 . S
Zn106 O115 2.120 1_455 S
Zn106 O117 2.120 . S
Zn106 O118 2.114 . S
Zn106 O121 2.080 1_455 S
C107 O112 1.166 . S
C107 O113 1.182 . S
C108 O114 1.167 . S
C108 O115 1.299 . S
O109 Zn106 2.080 1_655 S
O109 C123 1.305 . S
O110 Zn104 1.920 . S
O110 C123 1.234 1_455 S
C111 O116 1.167 . S
C111 O117 1.299 . S
O112 Zn106 2.114 . S
O112 C107 1.166 . S
O113 Zn105 1.905 1_455 S
O113 C107 1.182 . S
O114 Zn105 1.898 . S
O114 C108 1.167 . S
O115 Zn106 2.120 1_655 S
O115 C108 1.299 . S
O116 Zn104 1.898 . S
O116 C111 1.167 . S
O117 Zn106 2.120 . S
O117 C111 1.299 . S
O118 Zn106 2.114 . S
O118 C120 1.166 . S
O119 Zn104 1.905 . S
O119 C120 1.182 . S
C120 O118 1.166 . S
C120 O119 1.182 . S
O121 Zn106 2.080 1_655 S
O121 C124 1.305 . S
O122 Zn105 1.920 . S
O122 C124 1.234 . S
C123 O109 1.305 . S
C123 O110 1.234 1_655 S
C124 O121 1.305 . S
C124 O122 1.234 . S
Zn125 O131 1.920 . S
Zn125 O137 1.898 . S
Zn125 O140 1.905 . S
Zn126 O134 1.905 . S
Zn126 O135 1.898 . S
Zn126 O143 1.920 . S
Zn127 O130 2.080 . S
Zn127 O133 2.114 . S
Zn127 O136 2.120 . S
Zn127 O138 2.120 . S
Zn127 O139 2.114 . S
Zn127 O142 2.080 . S
C128 O133 1.166 . S
C128 O134 1.182 . S
C129 O135 1.167 . S
C129 O136 1.299 . S
O130 Zn127 2.080 . S
O130 C144 1.305 . S
O131 Zn125 1.920 . S
O131 C144 1.234 . S
C132 O137 1.167 . S
C132 O138 1.299 . S
O133 Zn127 2.114 . S
O133 C128 1.166 . S
O134 Zn126 1.905 . S
O134 C128 1.182 . S
O135 Zn126 1.898 . S
O135 C129 1.167 . S
O136 Zn127 2.120 . S
O136 C129 1.299 . S
O137 Zn125 1.898 . S
O137 C132 1.167 . S
O138 Zn127 2.120 . S
O138 C132 1.299 . S
O139 Zn127 2.114 . S
O139 C141 1.166 . S
O140 Zn125 1.905 . S
O140 C141 1.182 . S
C141 O139 1.166 . S
C141 O140 1.182 . S
O142 Zn127 2.080 . S
O142 C145 1.305 . S
O143 Zn126 1.920 . S
O143 C145 1.234 . S
C144 O130 1.305 . S
C144 O131 1.234 . S
C145 O142 1.305 . S
C145 O143 1.234 . S
Zn146 O152 1.920 . S
Zn146 O158 1.898 . S
Zn146 O161 1.905 . S
Zn147 O155 1.905 . S
Zn147 O156 1.898 . S
Zn147 O164 1.920 1_655 S
Zn148 O151 2.080 . S
Zn148 O154 2.114 1_455 S
Zn148 O157 2.120 1_455 S
Zn148 O159 2.120 . S
Zn148 O160 2.114 1_455 S
Zn148 O163 2.080 . S
C149 O154 1.166 . S
C149 O155 1.182 . S
C150 O156 1.167 . S
C150 O157 1.299 . S
O151 Zn148 2.080 . S
O151 C165 1.305 . S
O152 Zn146 1.920 . S
O152 C165 1.234 . S
C153 O158 1.167 . S
C153 O159 1.299 . S
O154 Zn148 2.114 1_655 S
O154 C149 1.166 . S
O155 Zn147 1.905 . S
O155 C149 1.182 . S
O156 Zn147 1.898 . S
O156 C150 1.167 . S
O157 Zn148 2.120 1_655 S
O157 C150 1.299 . S
O158 Zn146 1.898 . S
O158 C153 1.167 . S
O159 Zn148 2.120 . S
O159 C153 1.299 . S
O160 Zn148 2.114 1_655 S
O160 C162 1.166 . S
O161 Zn146 1.905 . S
O161 C162 1.182 1_455 S
C162 O160 1.166 . S
C162 O161 1.182 1_655 S
O163 Zn148 2.080 . S
O163 C166 1.305 . S
O164 Zn147 1.920 1_455 S
O164 C166 1.234 . S
C165 O151 1.305 . S
C165 O152 1.234 . S
C166 O163 1.305 . S
C166 O164 1.234 . S
Zn167 O173 1.920 . S
Zn167 O179 1.898 . S
Zn167 O182 1.905 . S
Zn168 O176 1.905 . S
Zn168 O177 1.898 . S
Zn168 O185 1.920 . S
Zn169 O172 2.080 . S
Zn169 O175 2.114 . S
Zn169 O178 2.120 . S
Zn169 O180 2.120 . S
Zn169 O181 2.114 . S
Zn169 O184 2.080 . S
C170 O175 1.166 . S
C170 O176 1.182 . S
C171 O177 1.167 . S
C171 O178 1.299 . S
O172 Zn169 2.080 . S
O172 C186 1.305 . S
O173 Zn167 1.920 . S
O173 C186 1.234 . S
C174 O179 1.167 . S
C174 O180 1.299 . S
O175 Zn169 2.114 . S
O175 C170 1.166 . S
O176 Zn168 1.905 . S
O176 C170 1.182 . S
O177 Zn168 1.898 . S
O177 C171 1.167 . S
O178 Zn169 2.120 . S
O178 C171 1.299 . S
O179 Zn167 1.898 . S
O179 C174 1.167 . S
O180 Zn169 2.120 . S
O180 C174 1.299 . S
O181 Zn169 2.114 . S
O181 C183 1.166 . S
O182 Zn167 1.905 . S
O182 C183 1.182 . S
C183 O181 1.166 . S
C183 O182 1.182 . S
O184 Zn169 2.080 . S
O184 C187 1.305 . S
O185 Zn168 1.920 . S
O185 C187 1.234 . S
C186 O172 1.305 . S
C186 O173 1.234 . S
C187 O184 1.305 . S
C187 O185 1.234 . S
H188 C206 0.951 . S
H189 C208 0.951 . S
H190 C210 0.950 . S
H191 C211 0.950 . S
H192 C213 0.950 . S
H193 C216 0.950 . S
H194 C217 0.950 . S
H195 C219 0.950 . S
H196 C220 0.950 . S
H197 C221 0.951 . S
H198 C223 0.951 . S
H199 C225 0.950 . S
H200 C226 0.950 . S
H201 C228 0.950 . S
H202 C231 0.950 . S
H203 C232 0.950 . S
H204 C234 0.950 . S
H205 C235 0.950 1_565 S
C206 H188 0.951 . S
C206 C207 1.366 . S
C206 C208 1.388 . S
C207 C206 1.366 . S
C207 C211 1.385 . S
C208 H189 0.951 . S
C208 C206 1.388 . S
C208 C209 1.366 . S
C209 C208 1.366 . S
C209 C210 1.414 . S
C209 C212 1.499 . S
C210 H190 0.950 . S
C210 C209 1.414 . S
C210 C211 1.374 . S
C211 H191 0.950 . S
C211 C207 1.385 . S
C211 C210 1.374 . S
C212 C209 1.499 . S
C212 C213 1.373 . S
C212 C214 1.389 . S
C213 H192 0.950 . S
C213 C212 1.373 . S
C213 C229 1.377 . S
C214 C212 1.389 . S
C214 C215 1.524 . S
C214 C228 1.377 . S
C215 C214 1.524 . S
C215 C216 1.397 . S
C215 C220 1.363 . S
C216 H193 0.950 . S
C216 C215 1.397 . S
C216 C217 1.334 . S
C217 H194 0.950 . S
C217 C216 1.334 . S
C217 C218 1.287 . S
C218 C217 1.287 . S
C218 C219 1.524 . S
C218 H237 0.913 . S
C219 H195 0.950 . S
C219 C218 1.524 . S
C219 C220 1.415 . S
C220 H196 0.950 . S
C220 C215 1.363 . S
C220 C219 1.415 . S
C221 H197 0.951 . S
C221 C222 1.366 . S
C221 C223 1.388 . S
C222 C221 1.366 . S
C222 C226 1.385 . S
C223 H198 0.951 . S
C223 C221 1.388 . S
C223 C224 1.366 . S
C224 C223 1.366 . S
C224 C225 1.414 . S
C224 C227 1.499 1_545 S
C225 H199 0.950 . S
C225 C224 1.414 . S
C225 C226 1.374 . S
C226 H200 0.950 . S
C226 C222 1.385 . S
C226 C225 1.374 . S
C227 C224 1.499 1_565 S
C227 C228 1.373 . S
C227 C229 1.389 . S
C228 H201 0.950 . S
C228 C214 1.377 . S
C228 C227 1.373 . S
C229 C213 1.377 . S
C229 C227 1.389 . S
C229 C230 1.524 1_565 S
C230 C229 1.524 1_545 S
C230 C231 1.397 . S
C230 C235 1.363 . S
C231 H202 0.950 . S
C231 C230 1.397 . S
C231 C232 1.334 . S
C232 H203 0.950 . S
C232 C231 1.334 . S
C232 C233 1.287 . S
C233 C232 1.287 . S
C233 C234 1.524 . S
C233 H236 0.999 . S
C234 H204 0.950 . S
C234 C233 1.524 . S
C234 C235 1.415 . S
C235 H205 0.950 1_545 S
C235 C230 1.363 . S
C235 C234 1.415 . S
H236 C233 0.999 . S
H237 C218 0.913 . S
H238 C256 0.951 . S
H239 C258 0.951 . S
H240 C260 0.950 . S
H241 C261 0.950 . S
H242 C263 0.950 . S
H243 C266 0.950 . S
H244 C267 0.950 . S
H245 C269 0.950 . S
H246 C270 0.950 . S
H247 C271 0.951 . S
H248 C273 0.951 . S
H249 C275 0.950 . S
H250 C276 0.950 . S
H251 C278 0.950 . S
H252 C281 0.950 . S
H253 C282 0.950 . S
H254 C284 0.950 . S
H255 C285 0.950 . S
C256 H238 0.951 . S
C256 C257 1.366 . S
C256 C258 1.388 . S
C257 C256 1.366 . S
C257 C261 1.385 . S
C258 H239 0.951 . S
C258 C256 1.388 . S
C258 C259 1.366 . S
C259 C258 1.366 . S
C259 C260 1.414 . S
C259 C262 1.499 . S
C260 H240 0.950 . S
C260 C259 1.414 . S
C260 C261 1.374 . S
C261 H241 0.950 . S
C261 C257 1.385 . S
C261 C260 1.374 . S
C262 C259 1.499 . S
C262 C263 1.373 . S
C262 C264 1.389 . S
C263 H242 0.950 . S
C263 C262 1.373 . S
C263 C279 1.377 . S
C264 C262 1.389 . S
C264 C265 1.524 . S
C264 C278 1.377 . S
C265 C264 1.524 . S
C265 C266 1.397 . S
C265 C270 1.363 . S
C266 H243 0.950 . S
C266 C265 1.397 . S
C266 C267 1.334 . S
C267 H244 0.950 . S
C267 C266 1.334 . S
C267 C268 1.287 . S
C268 C267 1.287 . S
C268 C269 1.524 . S
C268 H287 0.913 . S
C269 H245 0.950 . S
C269 C268 1.524 . S
C269 C270 1.415 . S
C270 H246 0.950 . S
C270 C265 1.363 . S
C270 C269 1.415 . S
C271 H247 0.951 . S
C271 C272 1.366 . S
C271 C273 1.388 . S
C272 C271 1.366 . S
C272 C276 1.385 . S
C273 H248 0.951 . S
C273 C271 1.388 . S
C273 C274 1.366 . S
C274 C273 1.366 . S
C274 C275 1.414 . S
C274 C277 1.499 . S
C275 H249 0.950 . S
C275 C274 1.414 . S
C275 C276 1.374 . S
C276 H250 0.950 . S
C276 C272 1.385 . S
C276 C275 1.374 . S
C277 C274 1.499 . S
C277 C278 1.373 . S
C277 C279 1.389 . S
C278 H251 0.950 . S
C278 C264 1.377 . S
C278 C277 1.373 . S
C279 C263 1.377 . S
C279 C277 1.389 . S
C279 C280 1.524 . S
C280 C279 1.524 . S
C280 C281 1.397 . S
C280 C285 1.363 . S
C281 H252 0.950 . S
C281 C280 1.397 . S
C281 C282 1.334 . S
C282 H253 0.950 . S
C282 C281 1.334 . S
C282 C283 1.287 . S
C283 C282 1.287 . S
C283 C284 1.524 . S
C283 H286 0.999 . S
C284 H254 0.950 . S
C284 C283 1.524 . S
C284 C285 1.415 . S
C285 H255 0.950 . S
C285 C280 1.363 . S
C285 C284 1.415 . S
H286 C283 0.999 . S
H287 C268 0.913 . S
H288 C306 0.951 . S
H289 C308 0.951 . S
H290 C310 0.950 . S
H291 C311 0.950 . S
H292 C313 0.950 . S
H293 C316 0.950 . S
H294 C317 0.950 . S
H295 C319 0.950 . S
H296 C320 0.950 . S
H297 C321 0.951 . S
H298 C323 0.951 . S
H299 C325 0.950 . S
H300 C326 0.950 . S
H301 C328 0.950 . S
H302 C331 0.950 . S
H303 C332 0.950 . S
H304 C334 0.950 . S
H305 C335 0.950 . S
C306 H288 0.951 . S
C306 C307 1.366 . S
C306 C308 1.388 . S
C307 C306 1.366 . S
C307 C311 1.385 . S
C308 H289 0.951 . S
C308 C306 1.388 . S
C308 C309 1.366 . S
C309 C308 1.366 . S
C309 C310 1.414 . S
C309 C312 1.499 . S
C310 H290 0.950 . S
C310 C309 1.414 . S
C310 C311 1.374 . S
C311 H291 0.950 . S
C311 C307 1.385 . S
C311 C310 1.374 . S
C312 C309 1.499 . S
C312 C313 1.373 . S
C312 C314 1.389 . S
C313 H292 0.950 . S
C313 C312 1.373 . S
C313 C329 1.377 . S
C314 C312 1.389 . S
C314 C315 1.524 . S
C314 C328 1.377 . S
C315 C314 1.524 . S
C315 C316 1.397 . S
C315 C320 1.363 . S
C316 H293 0.950 . S
C316 C315 1.397 . S
C316 C317 1.334 . S
C317 H294 0.950 . S
C317 C316 1.334 . S
C317 C318 1.287 . S
C318 C317 1.287 . S
C318 C319 1.524 . S
C318 H337 0.913 . S
C319 H295 0.950 . S
C319 C318 1.524 . S
C319 C320 1.415 . S
C320 H296 0.950 . S
C320 C315 1.363 . S
C320 C319 1.415 . S
C321 H297 0.951 . S
C321 C322 1.366 . S
C321 C323 1.388 . S
C322 C321 1.366 . S
C322 C326 1.385 . S
C323 H298 0.951 . S
C323 C321 1.388 . S
C323 C324 1.366 . S
C324 C323 1.366 . S
C324 C325 1.414 . S
C324 C327 1.499 . S
C325 H299 0.950 . S
C325 C324 1.414 . S
C325 C326 1.374 . S
C326 H300 0.950 . S
C326 C322 1.385 . S
C326 C325 1.374 . S
C327 C324 1.499 . S
C327 C328 1.373 . S
C327 C329 1.389 . S
C328 H301 0.950 . S
C328 C314 1.377 . S
C328 C327 1.373 . S
C329 C313 1.377 . S
C329 C327 1.389 . S
C329 C330 1.524 . S
C330 C329 1.524 . S
C330 C331 1.397 . S
C330 C335 1.363 . S
C331 H302 0.950 . S
C331 C330 1.397 . S
C331 C332 1.334 . S
C332 H303 0.950 . S
C332 C331 1.334 . S
C332 C333 1.287 . S
C333 C332 1.287 . S
C333 C334 1.524 . S
C333 H336 0.999 . S
C334 H304 0.950 . S
C334 C333 1.524 . S
C334 C335 1.415 . S
C335 H305 0.950 . S
C335 C330 1.363 . S
C335 C334 1.415 . S
H336 C333 0.999 . S
H337 C318 0.913 . S
H338 C356 0.951 . S
H339 C358 0.951 . S
H340 C360 0.950 . S
H341 C361 0.950 . S
H342 C363 0.950 . S
H343 C366 0.950 . S
H344 C367 0.950 . S
H345 C369 0.950 . S
H346 C370 0.950 . S
H347 C371 0.951 . S
H348 C373 0.951 1_565 S
H349 C375 0.950 . S
H350 C376 0.950 . S
H351 C378 0.950 . S
H352 C381 0.950 . S
H353 C382 0.950 . S
H354 C384 0.950 . S
H355 C385 0.950 . S
C356 H338 0.951 . S
C356 C357 1.366 . S
C356 C358 1.388 . S
C357 C356 1.366 . S
C357 C361 1.385 . S
C358 H339 0.951 . S
C358 C356 1.388 . S
C358 C359 1.366 . S
C359 C358 1.366 . S
C359 C360 1.414 . S
C359 C362 1.499 . S
C360 H340 0.950 . S
C360 C359 1.414 . S
C360 C361 1.374 . S
C361 H341 0.950 . S
C361 C357 1.385 . S
C361 C360 1.374 . S
C362 C359 1.499 . S
C362 C363 1.373 . S
C362 C364 1.389 . S
C363 H342 0.950 . S
C363 C362 1.373 . S
C363 C379 1.377 . S
C364 C362 1.389 . S
C364 C365 1.524 . S
C364 C378 1.377 . S
C365 C364 1.524 . S
C365 C366 1.397 . S
C365 C370 1.363 . S
C366 H343 0.950 . S
C366 C365 1.397 . S
C366 C367 1.334 . S
C367 H344 0.950 . S
C367 C366 1.334 . S
C367 C368 1.287 . S
C368 C367 1.287 . S
C368 C369 1.524 . S
C368 H387 0.913 . S
C369 H345 0.950 . S
C369 C368 1.524 . S
C369 C370 1.415 . S
C370 H346 0.950 . S
C370 C365 1.363 . S
C370 C369 1.415 . S
C371 H347 0.951 . S
C371 C372 1.366 . S
C371 C373 1.388 . S
C372 C371 1.366 . S
C372 C376 1.385 . S
C373 H348 0.951 1_545 S
C373 C371 1.388 . S
C373 C374 1.366 . S
C374 C373 1.366 . S
C374 C375 1.414 . S
C374 C377 1.499 1_545 S
C375 H349 0.950 . S
C375 C374 1.414 . S
C375 C376 1.374 . S
C376 H350 0.950 . S
C376 C372 1.385 . S
C376 C375 1.374 . S
C377 C374 1.499 1_565 S
C377 C378 1.373 . S
C377 C379 1.389 . S
C378 H351 0.950 . S
C378 C364 1.377 . S
C378 C377 1.373 . S
C379 C363 1.377 . S
C379 C377 1.389 . S
C379 C380 1.524 . S
C380 C379 1.524 . S
C380 C381 1.397 . S
C380 C385 1.363 . S
C381 H352 0.950 . S
C381 C380 1.397 . S
C381 C382 1.334 . S
C382 H353 0.950 . S
C382 C381 1.334 . S
C382 C383 1.287 . S
C383 C382 1.287 . S
C383 C384 1.524 . S
C383 H386 0.999 . S
C384 H354 0.950 . S
C384 C383 1.524 . S
C384 C385 1.415 . S
C385 H355 0.950 . S
C385 C380 1.363 . S
C385 C384 1.415 . S
H386 C383 0.999 . S
H387 C368 0.913 . S
H388 C406 0.951 . S
H389 C408 0.951 . S
H390 C410 0.950 . S
H391 C411 0.950 . S
H392 C413 0.950 . S
H393 C416 0.950 . S
H394 C417 0.950 . S
H395 C419 0.950 . S
H396 C420 0.950 . S
H397 C421 0.951 . S
H398 C423 0.951 . S
H399 C425 0.950 . S
H400 C426 0.950 . S
H401 C428 0.950 . S
H402 C431 0.950 . S
H403 C432 0.950 1_455 S
H404 C434 0.950 . S
H405 C435 0.950 . S
C406 H388 0.951 . S
C406 C407 1.366 . S
C406 C408 1.388 . S
C407 C406 1.366 . S
C407 C411 1.385 . S
C408 H389 0.951 . S
C408 C406 1.388 . S
C408 C409 1.366 . S
C409 C408 1.366 . S
C409 C410 1.414 . S
C409 C412 1.499 . S
C410 H390 0.950 . S
C410 C409 1.414 . S
C410 C411 1.374 . S
C411 H391 0.950 . S
C411 C407 1.385 . S
C411 C410 1.374 . S
C412 C409 1.499 . S
C412 C413 1.373 . S
C412 C414 1.389 . S
C413 H392 0.950 . S
C413 C412 1.373 . S
C413 C429 1.377 . S
C414 C412 1.389 . S
C414 C415 1.524 . S
C414 C428 1.377 . S
C415 C414 1.524 . S
C415 C416 1.397 . S
C415 C420 1.363 . S
C416 H393 0.950 . S
C416 C415 1.397 . S
C416 C417 1.334 . S
C417 H394 0.950 . S
C417 C416 1.334 . S
C417 C418 1.287 . S
C418 C417 1.287 . S
C418 C419 1.524 . S
C418 H437 0.913 . S
C419 H395 0.950 . S
C419 C418 1.524 . S
C419 C420 1.415 . S
C420 H396 0.950 . S
C420 C415 1.363 . S
C420 C419 1.415 . S
C421 H397 0.951 . S
C421 C422 1.366 . S
C421 C423 1.388 . S
C422 C421 1.366 . S
C422 C426 1.385 . S
C423 H398 0.951 . S
C423 C421 1.388 . S
C423 C424 1.366 . S
C424 C423 1.366 . S
C424 C425 1.414 . S
C424 C427 1.499 1_565 S
C425 H399 0.950 . S
C425 C424 1.414 . S
C425 C426 1.374 . S
C426 H400 0.950 . S
C426 C422 1.385 . S
C426 C425 1.374 . S
C427 C424 1.499 1_545 S
C427 C428 1.373 . S
C427 C429 1.389 . S
C428 H401 0.950 . S
C428 C414 1.377 . S
C428 C427 1.373 . S
C429 C413 1.377 . S
C429 C427 1.389 . S
C429 C430 1.524 . S
C430 C429 1.524 . S
C430 C431 1.397 . S
C430 C435 1.363 . S
C431 H402 0.950 . S
C431 C430 1.397 . S
C431 C432 1.334 . S
C432 H403 0.950 1_655 S
C432 C431 1.334 . S
C432 C433 1.287 . S
C433 C432 1.287 . S
C433 C434 1.524 . S
C433 H436 0.999 . S
C434 H404 0.950 . S
C434 C433 1.524 . S
C434 C435 1.415 . S
C435 H405 0.950 . S
C435 C430 1.363 . S
C435 C434 1.415 . S
H436 C433 0.999 . S
H437 C418 0.913 . S
H438 C456 0.951 . S
H439 C458 0.951 . S
H440 C460 0.950 . S
H441 C461 0.950 . S
H442 C463 0.950 . S
H443 C466 0.950 . S
H444 C467 0.950 . S
H445 C469 0.950 . S
H446 C470 0.950 . S
H447 C471 0.951 . S
H448 C473 0.951 . S
H449 C475 0.950 . S
H450 C476 0.950 . S
H451 C478 0.950 . S
H452 C481 0.950 . S
H453 C482 0.950 . S
H454 C484 0.950 . S
H455 C485 0.950 . S
C456 H438 0.951 . S
C456 C457 1.366 . S
C456 C458 1.388 . S
C457 C456 1.366 . S
C457 C461 1.385 . S
C458 H439 0.951 . S
C458 C456 1.388 . S
C458 C459 1.366 . S
C459 C458 1.366 . S
C459 C460 1.414 . S
C459 C462 1.499 . S
C460 H440 0.950 . S
C460 C459 1.414 . S
C460 C461 1.374 . S
C461 H441 0.950 . S
C461 C457 1.385 . S
C461 C460 1.374 . S
C462 C459 1.499 . S
C462 C463 1.373 . S
C462 C464 1.389 . S
C463 H442 0.950 . S
C463 C462 1.373 . S
C463 C479 1.377 . S
C464 C462 1.389 . S
C464 C465 1.524 . S
C464 C478 1.377 . S
C465 C464 1.524 . S
C465 C466 1.397 . S
C465 C470 1.363 . S
C466 H443 0.950 . S
C466 C465 1.397 . S
C466 C467 1.334 . S
C467 H444 0.950 . S
C467 C466 1.334 . S
C467 C468 1.287 . S
C468 C467 1.287 . S
C468 C469 1.524 . S
C468 H487 0.913 . S
C469 H445 0.950 . S
C469 C468 1.524 . S
C469 C470 1.415 . S
C470 H446 0.950 . S
C470 C465 1.363 . S
C470 C469 1.415 . S
C471 H447 0.951 . S
C471 C472 1.366 . S
C471 C473 1.388 . S
C472 C471 1.366 . S
C472 C476 1.385 . S
C473 H448 0.951 . S
C473 C471 1.388 . S
C473 C474 1.366 . S
C474 C473 1.366 . S
C474 C475 1.414 . S
C474 C477 1.499 . S
C475 H449 0.950 . S
C475 C474 1.414 . S
C475 C476 1.374 . S
C476 H450 0.950 . S
C476 C472 1.385 . S
C476 C475 1.374 . S
C477 C474 1.499 . S
C477 C478 1.373 . S
C477 C479 1.389 . S
C478 H451 0.950 . S
C478 C464 1.377 . S
C478 C477 1.373 . S
C479 C463 1.377 . S
C479 C477 1.389 . S
C479 C480 1.524 . S
C480 C479 1.524 . S
C480 C481 1.397 . S
C480 C485 1.363 . S
C481 H452 0.950 . S
C481 C480 1.397 . S
C481 C482 1.334 . S
C482 H453 0.950 . S
C482 C481 1.334 . S
C482 C483 1.287 . S
C483 C482 1.287 . S
C483 C484 1.524 . S
C483 H486 0.999 . S
C484 H454 0.950 . S
C484 C483 1.524 . S
C484 C485 1.415 . S
C485 H455 0.950 . S
C485 C480 1.363 . S
C485 C484 1.415 . S
H486 C483 0.999 . S
H487 C468 0.913 . S
H488 C506 0.951 . S
H489 C508 0.951 . S
H490 C510 0.950 . S
H491 C511 0.950 . S
H492 C513 0.950 . S
H493 C516 0.950 . S
H494 C517 0.950 . S
H495 C519 0.950 . S
H496 C520 0.950 . S
H497 C521 0.951 . S
H498 C523 0.951 . S
H499 C525 0.950 . S
H500 C526 0.950 . S
H501 C528 0.950 . S
H502 C531 0.950 . S
H503 C532 0.950 . S
H504 C534 0.950 . S
H505 C535 0.950 . S
C506 H488 0.951 . S
C506 C507 1.366 . S
C506 C508 1.388 . S
C507 C506 1.366 . S
C507 C511 1.385 . S
C508 H489 0.951 . S
C508 C506 1.388 . S
C508 C509 1.366 . S
C509 C508 1.366 . S
C509 C510 1.414 . S
C509 C512 1.499 . S
C510 H490 0.950 . S
C510 C509 1.414 . S
C510 C511 1.374 . S
C511 H491 0.950 . S
C511 C507 1.385 . S
C511 C510 1.374 . S
C512 C509 1.499 . S
C512 C513 1.373 . S
C512 C514 1.389 . S
C513 H492 0.950 . S
C513 C512 1.373 . S
C513 C529 1.377 . S
C514 C512 1.389 . S
C514 C515 1.524 . S
C514 C528 1.377 . S
C515 C514 1.524 . S
C515 C516 1.397 . S
C515 C520 1.363 . S
C516 H493 0.950 . S
C516 C515 1.397 . S
C516 C517 1.334 . S
C517 H494 0.950 . S
C517 C516 1.334 . S
C517 C518 1.287 . S
C518 C517 1.287 . S
C518 C519 1.524 . S
C518 H537 0.913 . S
C519 H495 0.950 . S
C519 C518 1.524 . S
C519 C520 1.415 . S
C520 H496 0.950 . S
C520 C515 1.363 . S
C520 C519 1.415 . S
C521 H497 0.951 . S
C521 C522 1.366 . S
C521 C523 1.388 . S
C522 C521 1.366 . S
C522 C526 1.385 . S
C523 H498 0.951 . S
C523 C521 1.388 . S
C523 C524 1.366 . S
C524 C523 1.366 . S
C524 C525 1.414 . S
C524 C527 1.499 . S
C525 H499 0.950 . S
C525 C524 1.414 . S
C525 C526 1.374 . S
C526 H500 0.950 . S
C526 C522 1.385 . S
C526 C525 1.374 . S
C527 C524 1.499 . S
C527 C528 1.373 . S
C527 C529 1.389 . S
C528 H501 0.950 . S
C528 C514 1.377 . S
C528 C527 1.373 . S
C529 C513 1.377 . S
C529 C527 1.389 . S
C529 C530 1.524 . S
C530 C529 1.524 . S
C530 C531 1.397 . S
C530 C535 1.363 . S
C531 H502 0.950 . S
C531 C530 1.397 . S
C531 C532 1.334 . S
C532 H503 0.950 . S
C532 C531 1.334 . S
C532 C533 1.287 . S
C533 C532 1.287 . S
C533 C534 1.524 . S
C533 H536 0.999 . S
C534 H504 0.950 . S
C534 C533 1.524 . S
C534 C535 1.415 . S
C535 H505 0.950 . S
C535 C530 1.363 . S
C535 C534 1.415 . S
H536 C533 0.999 . S
H537 C518 0.913 . S
H538 C556 0.951 . S
H539 C558 0.951 . S
H540 C560 0.950 . S
H541 C561 0.950 . S
H542 C563 0.950 . S
H543 C566 0.950 . S
H544 C567 0.950 . S
H545 C569 0.950 . S
H546 C570 0.950 . S
H547 C571 0.951 . S
H548 C573 0.951 . S
H549 C575 0.950 . S
H550 C576 0.950 . S
H551 C578 0.950 . S
H552 C581 0.950 . S
H553 C582 0.950 . S
H554 C584 0.950 . S
H555 C585 0.950 . S
C556 H538 0.951 . S
C556 C557 1.366 . S
C556 C558 1.388 . S
C557 C556 1.366 . S
C557 C561 1.385 . S
C558 H539 0.951 . S
C558 C556 1.388 . S
C558 C559 1.366 . S
C559 C558 1.366 . S
C559 C560 1.414 . S
C559 C562 1.499 . S
C560 H540 0.950 . S
C560 C559 1.414 . S
C560 C561 1.374 . S
C561 H541 0.950 . S
C561 C557 1.385 . S
C561 C560 1.374 . S
C562 C559 1.499 . S
C562 C563 1.373 . S
C562 C564 1.389 . S
C563 H542 0.950 . S
C563 C562 1.373 . S
C563 C579 1.377 . S
C564 C562 1.389 . S
C564 C565 1.524 . S
C564 C578 1.377 . S
C565 C564 1.524 . S
C565 C566 1.397 . S
C565 C570 1.363 . S
C566 H543 0.950 . S
C566 C565 1.397 . S
C566 C567 1.334 . S
C567 H544 0.950 . S
C567 C566 1.334 . S
C567 C568 1.287 . S
C568 C567 1.287 . S
C568 C569 1.524 . S
C568 H587 0.913 . S
C569 H545 0.950 . S
C569 C568 1.524 . S
C569 C570 1.415 . S
C570 H546 0.950 . S
C570 C565 1.363 . S
C570 C569 1.415 . S
C571 H547 0.951 . S
C571 C572 1.366 . S
C571 C573 1.388 . S
C572 C571 1.366 . S
C572 C576 1.385 . S
C573 H548 0.951 . S
C573 C571 1.388 . S
C573 C574 1.366 . S
C574 C573 1.366 . S
C574 C575 1.414 . S
C574 C577 1.499 1_565 S
C575 H549 0.950 . S
C575 C574 1.414 . S
C575 C576 1.374 . S
C576 H550 0.950 . S
C576 C572 1.385 . S
C576 C575 1.374 . S
C577 C574 1.499 1_545 S
C577 C578 1.373 . S
C577 C579 1.389 . S
C578 H551 0.950 . S
C578 C564 1.377 . S
C578 C577 1.373 . S
C579 C563 1.377 . S
C579 C577 1.389 . S
C579 C580 1.524 1_545 S
C580 C579 1.524 1_565 S
C580 C581 1.397 . S
C580 C585 1.363 . S
C581 H552 0.950 . S
C581 C580 1.397 . S
C581 C582 1.334 . S
C582 H553 0.950 . S
C582 C581 1.334 . S
C582 C583 1.287 . S
C583 C582 1.287 . S
C583 C584 1.524 . S
C583 H586 0.999 . S
C584 H554 0.950 . S
C584 C583 1.524 . S
C584 C585 1.415 . S
C585 H555 0.950 . S
C585 C580 1.363 . S
C585 C584 1.415 . S
H586 C583 0.999 . S
H587 C568 0.913 . S
H588 C606 0.951 . S
H589 C608 0.951 1_554 S
H590 C610 0.950 . S
H591 C611 0.950 . S
H592 C613 0.950 . S
H593 C616 0.950 . S
H594 C617 0.950 1_556 S
H595 C619 0.950 . S
H596 C620 0.950 . S
H597 C621 0.951 . S
H598 C623 0.951 . S
H599 C625 0.950 . S
H600 C626 0.950 . S
H601 C628 0.950 . S
H602 C631 0.950 . S
H603 C632 0.950 . S
H604 C634 0.950 1_655 S
H605 C635 0.950 . S
C606 H588 0.951 . S
C606 C607 1.366 . S
C606 C608 1.388 . S
C607 C606 1.366 . S
C607 C611 1.385 . S
C608 H589 0.951 1_556 S
C608 C606 1.388 . S
C608 C609 1.366 . S
C609 C608 1.366 . S
C609 C610 1.414 . S
C609 C612 1.499 1_556 S
C610 H590 0.950 . S
C610 C609 1.414 . S
C610 C611 1.374 . S
C611 H591 0.950 . S
C611 C607 1.385 . S
C611 C610 1.374 . S
C612 C609 1.499 1_554 S
C612 C613 1.373 . S
C612 C614 1.389 . S
C613 H592 0.950 . S
C613 C612 1.373 . S
C613 C629 1.377 . S
C614 C612 1.389 . S
C614 C615 1.524 . S
C614 C628 1.377 . S
C615 C614 1.524 . S
C615 C616 1.397 . S
C615 C620 1.363 . S
C616 H593 0.950 . S
C616 C615 1.397 . S
C616 C617 1.334 . S
C617 H594 0.950 1_554 S
C617 C616 1.334 . S
C617 C618 1.287 . S
C618 C617 1.287 . S
C618 C619 1.524 . S
C618 H637 0.913 . S
C619 H595 0.950 . S
C619 C618 1.524 . S
C619 C620 1.415 . S
C620 H596 0.950 . S
C620 C615 1.363 . S
C620 C619 1.415 . S
C621 H597 0.951 . S
C621 C622 1.366 . S
C621 C623 1.388 . S
C622 C621 1.366 . S
C622 C626 1.385 . S
C623 H598 0.951 . S
C623 C621 1.388 . S
C623 C624 1.366 . S
C624 C623 1.366 . S
C624 C625 1.414 . S
C624 C627 1.499 . S
C625 H599 0.950 . S
C625 C624 1.414 . S
C625 C626 1.374 . S
C626 H600 0.950 . S
C626 C622 1.385 . S
C626 C625 1.374 . S
C627 C624 1.499 . S
C627 C628 1.373 . S
C627 C629 1.389 . S
C628 H601 0.950 . S
C628 C614 1.377 . S
C628 C627 1.373 . S
C629 C613 1.377 . S
C629 C627 1.389 . S
C629 C630 1.524 . S
C630 C629 1.524 . S
C630 C631 1.397 . S
C630 C635 1.363 . S
C631 H602 0.950 . S
C631 C630 1.397 . S
C631 C632 1.334 . S
C632 H603 0.950 . S
C632 C631 1.334 . S
C632 C633 1.287 . S
C633 C632 1.287 . S
C633 C634 1.524 . S
C633 H636 0.999 1_455 S
C634 H604 0.950 1_455 S
C634 C633 1.524 . S
C634 C635 1.415 . S
C635 H605 0.950 . S
C635 C630 1.363 . S
C635 C634 1.415 . S
H636 C633 0.999 1_655 S
H637 C618 0.913 . S
H638 C656 0.951 . S
H639 C658 0.951 . S
H640 C660 0.950 . S
H641 C661 0.950 . S
H642 C663 0.950 . S
H643 C666 0.950 . S
H644 C667 0.950 . S
H645 C669 0.950 . S
H646 C670 0.950 . S
H647 C671 0.951 . S
H648 C673 0.951 . S
H649 C675 0.950 . S
H650 C676 0.950 . S
H651 C678 0.950 . S
H652 C681 0.950 . S
H653 C682 0.950 . S
H654 C684 0.950 . S
H655 C685 0.950 . S
C656 H638 0.951 . S
C656 C657 1.366 . S
C656 C658 1.388 . S
C657 C656 1.366 . S
C657 C661 1.385 . S
C658 H639 0.951 . S
C658 C656 1.388 . S
C658 C659 1.366 . S
C659 C658 1.366 . S
C659 C660 1.414 . S
C659 C662 1.499 . S
C660 H640 0.950 . S
C660 C659 1.414 . S
C660 C661 1.374 . S
C661 H641 0.950 . S
C661 C657 1.385 . S
C661 C660 1.374 . S
C662 C659 1.499 . S
C662 C663 1.373 . S
C662 C664 1.389 . S
C663 H642 0.950 . S
C663 C662 1.373 . S
C663 C679 1.377 . S
C664 C662 1.389 . S
C664 C665 1.524 . S
C664 C678 1.377 . S
C665 C664 1.524 . S
C665 C666 1.397 . S
C665 C670 1.363 . S
C666 H643 0.950 . S
C666 C665 1.397 . S
C666 C667 1.334 . S
C667 H644 0.950 . S
C667 C666 1.334 . S
C667 C668 1.287 . S
C668 C667 1.287 . S
C668 C669 1.524 . S
C668 H687 0.913 . S
C669 H645 0.950 . S
C669 C668 1.524 . S
C669 C670 1.415 . S
C670 H646 0.950 . S
C670 C665 1.363 . S
C670 C669 1.415 . S
C671 H647 0.951 . S
C671 C672 1.366 . S
C671 C673 1.388 . S
C672 C671 1.366 . S
C672 C676 1.385 . S
C673 H648 0.951 . S
C673 C671 1.388 . S
C673 C674 1.366 . S
C674 C673 1.366 . S
C674 C675 1.414 . S
C674 C677 1.499 . S
C675 H649 0.950 . S
C675 C674 1.414 . S
C675 C676 1.374 . S
C676 H650 0.950 . S
C676 C672 1.385 . S
C676 C675 1.374 . S
C677 C674 1.499 . S
C677 C678 1.373 . S
C677 C679 1.389 . S
C678 H651 0.950 . S
C678 C664 1.377 . S
C678 C677 1.373 . S
C679 C663 1.377 . S
C679 C677 1.389 . S
C679 C680 1.524 . S
C680 C679 1.524 . S
C680 C681 1.397 . S
C680 C685 1.363 . S
C681 H652 0.950 . S
C681 C680 1.397 . S
C681 C682 1.334 . S
C682 H653 0.950 . S
C682 C681 1.334 . S
C682 C683 1.287 . S
C683 C682 1.287 . S
C683 C684 1.524 . S
C683 H686 0.999 . S
C684 H654 0.950 . S
C684 C683 1.524 . S
C684 C685 1.415 . S
C685 H655 0.950 . S
C685 C680 1.363 . S
C685 C684 1.415 . S
H686 C683 0.999 . S
H687 C668 0.913 . S
H688 C706 0.951 . S
H689 C708 0.951 . S
H690 C710 0.950 1_556 S
H691 C711 0.950 . S
H692 C713 0.950 . S
H693 C716 0.950 . S
H694 C717 0.950 . S
H695 C719 0.950 . S
H696 C720 0.950 1_556 S
H697 C721 0.951 . S
H698 C723 0.951 . S
H699 C725 0.950 . S
H700 C726 0.950 . S
H701 C728 0.950 . S
H702 C731 0.950 . S
H703 C732 0.950 . S
H704 C734 0.950 . S
H705 C735 0.950 . S
C706 H688 0.951 . S
C706 C707 1.366 . S
C706 C708 1.388 . S
C707 C706 1.366 . S
C707 C711 1.385 . S
C708 H689 0.951 . S
C708 C706 1.388 . S
C708 C709 1.366 . S
C709 C708 1.366 . S
C709 C710 1.414 . S
C709 C712 1.499 1_554 S
C710 H690 0.950 1_554 S
C710 C709 1.414 . S
C710 C711 1.374 . S
C711 H691 0.950 . S
C711 C707 1.385 . S
C711 C710 1.374 . S
C712 C709 1.499 1_556 S
C712 C713 1.373 . S
C712 C714 1.389 . S
C713 H692 0.950 . S
C713 C712 1.373 . S
C713 C729 1.377 . S
C714 C712 1.389 . S
C714 C715 1.524 1_556 S
C714 C728 1.377 . S
C715 C714 1.524 1_554 S
C715 C716 1.397 . S
C715 C720 1.363 . S
C716 H693 0.950 . S
C716 C715 1.397 . S
C716 C717 1.334 . S
C717 H694 0.950 . S
C717 C716 1.334 . S
C717 C718 1.287 . S
C718 C717 1.287 . S
C718 C719 1.524 . S
C718 H737 0.913 . S
C719 H695 0.950 . S
C719 C718 1.524 . S
C719 C720 1.415 . S
C720 H696 0.950 1_554 S
C720 C715 1.363 . S
C720 C719 1.415 . S
C721 H697 0.951 . S
C721 C722 1.366 . S
C721 C723 1.388 . S
C722 C721 1.366 . S
C722 C726 1.385 . S
C723 H698 0.951 . S
C723 C721 1.388 . S
C723 C724 1.366 . S
C724 C723 1.366 . S
C724 C725 1.414 . S
C724 C727 1.499 . S
C725 H699 0.950 . S
C725 C724 1.414 . S
C725 C726 1.374 . S
C726 H700 0.950 . S
C726 C722 1.385 . S
C726 C725 1.374 . S
C727 C724 1.499 . S
C727 C728 1.373 . S
C727 C729 1.389 . S
C728 H701 0.950 . S
C728 C714 1.377 . S
C728 C727 1.373 . S
C729 C713 1.377 . S
C729 C727 1.389 . S
C729 C730 1.524 . S
C730 C729 1.524 . S
C730 C731 1.397 . S
C730 C735 1.363 . S
C731 H702 0.950 . S
C731 C730 1.397 . S
C731 C732 1.334 . S
C732 H703 0.950 . S
C732 C731 1.334 . S
C732 C733 1.287 . S
C733 C732 1.287 . S
C733 C734 1.524 . S
C733 H736 0.999 . S
C734 H704 0.950 . S
C734 C733 1.524 . S
C734 C735 1.415 . S
C735 H705 0.950 . S
C735 C730 1.363 . S
C735 C734 1.415 . S
H736 C733 0.999 . S
H737 C718 0.913 . S
H738 C756 0.951 . S
H739 C758 0.951 . S
H740 C760 0.950 . S
H741 C761 0.950 . S
H742 C763 0.950 . S
H743 C766 0.950 . S
H744 C767 0.950 . S
H745 C769 0.950 1_455 S
H746 C770 0.950 . S
H747 C771 0.951 . S
H748 C773 0.951 . S
H749 C775 0.950 . S
H750 C776 0.950 . S
H751 C778 0.950 . S
H752 C781 0.950 . S
H753 C782 0.950 . S
H754 C784 0.950 . S
H755 C785 0.950 . S
C756 H738 0.951 . S
C756 C757 1.366 . S
C756 C758 1.388 . S
C757 C756 1.366 . S
C757 C761 1.385 . S
C758 H739 0.951 . S
C758 C756 1.388 . S
C758 C759 1.366 . S
C759 C758 1.366 . S
C759 C760 1.414 . S
C759 C762 1.499 . S
C760 H740 0.950 . S
C760 C759 1.414 . S
C760 C761 1.374 . S
C761 H741 0.950 . S
C761 C757 1.385 . S
C761 C760 1.374 . S
C762 C759 1.499 . S
C762 C763 1.373 . S
C762 C764 1.389 . S
C763 H742 0.950 . S
C763 C762 1.373 . S
C763 C779 1.377 . S
C764 C762 1.389 . S
C764 C765 1.524 . S
C764 C778 1.377 . S
C765 C764 1.524 . S
C765 C766 1.397 . S
C765 C770 1.363 . S
C766 H743 0.950 . S
C766 C765 1.397 . S
C766 C767 1.334 . S
C767 H744 0.950 . S
C767 C766 1.334 . S
C767 C768 1.287 . S
C768 C767 1.287 . S
C768 C769 1.524 . S
C768 H787 0.913 . S
C769 H745 0.950 1_655 S
C769 C768 1.524 . S
C769 C770 1.415 . S
C770 H746 0.950 . S
C770 C765 1.363 . S
C770 C769 1.415 . S
C771 H747 0.951 . S
C771 C772 1.366 . S
C771 C773 1.388 . S
C772 C771 1.366 . S
C772 C776 1.385 . S
C773 H748 0.951 . S
C773 C771 1.388 . S
C773 C774 1.366 . S
C774 C773 1.366 . S
C774 C775 1.414 . S
C774 C777 1.499 . S
C775 H749 0.950 . S
C775 C774 1.414 . S
C775 C776 1.374 . S
C776 H750 0.950 . S
C776 C772 1.385 . S
C776 C775 1.374 . S
C777 C774 1.499 . S
C777 C778 1.373 . S
C777 C779 1.389 . S
C778 H751 0.950 . S
C778 C764 1.377 . S
C778 C777 1.373 . S
C779 C763 1.377 . S
C779 C777 1.389 . S
C779 C780 1.524 . S
C780 C779 1.524 . S
C780 C781 1.397 . S
C780 C785 1.363 . S
C781 H752 0.950 . S
C781 C780 1.397 . S
C781 C782 1.334 . S
C782 H753 0.950 . S
C782 C781 1.334 . S
C782 C783 1.287 . S
C783 C782 1.287 . S
C783 C784 1.524 . S
C783 H786 0.999 . S
C784 H754 0.950 . S
C784 C783 1.524 . S
C784 C785 1.415 . S
C785 H755 0.950 . S
C785 C780 1.363 . S
C785 C784 1.415 . S
H786 C783 0.999 . S
H787 C768 0.913 . S
H788 C806 0.951 . S
H789 C808 0.951 . S
H790 C810 0.950 . S
H791 C811 0.950 . S
H792 C813 0.950 . S
H793 C816 0.950 . S
H794 C817 0.950 . S
H795 C819 0.950 . S
H796 C820 0.950 . S
H797 C821 0.951 . S
H798 C823 0.951 . S
H799 C825 0.950 . S
H800 C826 0.950 1_455 S
H801 C828 0.950 . S
H802 C831 0.950 . S
H803 C832 0.950 . S
H804 C834 0.950 . S
H805 C835 0.950 . S
C806 H788 0.951 . S
C806 C807 1.366 . S
C806 C808 1.388 . S
C807 C806 1.366 . S
C807 C811 1.385 . S
C808 H789 0.951 . S
C808 C806 1.388 . S
C808 C809 1.366 1_554 S
C809 C808 1.366 1_556 S
C809 C810 1.414 . S
C809 C812 1.499 . S
C810 H790 0.950 . S
C810 C809 1.414 . S
C810 C811 1.374 1_556 S
C811 H791 0.950 . S
C811 C807 1.385 . S
C811 C810 1.374 1_554 S
C812 C809 1.499 . S
C812 C813 1.373 . S
C812 C814 1.389 . S
C813 H792 0.950 . S
C813 C812 1.373 . S
C813 C829 1.377 . S
C814 C812 1.389 . S
C814 C815 1.524 . S
C814 C828 1.377 . S
C815 C814 1.524 . S
C815 C816 1.397 . S
C815 C820 1.363 . S
C816 H793 0.950 . S
C816 C815 1.397 . S
C816 C817 1.334 1_556 S
C817 H794 0.950 . S
C817 C816 1.334 1_554 S
C817 C818 1.287 . S
C818 C817 1.287 . S
C818 C819 1.524 . S
C818 H837 0.913 . S
C819 H795 0.950 . S
C819 C818 1.524 . S
C819 C820 1.415 1_554 S
C820 H796 0.950 . S
C820 C815 1.363 . S
C820 C819 1.415 1_556 S
C821 H797 0.951 . S
C821 C822 1.366 . S
C821 C823 1.388 . S
C822 C821 1.366 . S
C822 C826 1.385 . S
C823 H798 0.951 . S
C823 C821 1.388 . S
C823 C824 1.366 . S
C824 C823 1.366 . S
C824 C825 1.414 . S
C824 C827 1.499 . S
C825 H799 0.950 . S
C825 C824 1.414 . S
C825 C826 1.374 . S
C826 H800 0.950 1_655 S
C826 C822 1.385 . S
C826 C825 1.374 . S
C827 C824 1.499 . S
C827 C828 1.373 . S
C827 C829 1.389 . S
C828 H801 0.950 . S
C828 C814 1.377 . S
C828 C827 1.373 . S
C829 C813 1.377 . S
C829 C827 1.389 . S
C829 C830 1.524 . S
C830 C829 1.524 . S
C830 C831 1.397 . S
C830 C835 1.363 . S
C831 H802 0.950 . S
C831 C830 1.397 . S
C831 C832 1.334 . S
C832 H803 0.950 . S
C832 C831 1.334 . S
C832 C833 1.287 . S
C833 C832 1.287 . S
C833 C834 1.524 . S
C833 H836 0.999 . S
C834 H804 0.950 . S
C834 C833 1.524 . S
C834 C835 1.415 . S
C835 H805 0.950 . S
C835 C830 1.363 . S
C835 C834 1.415 . S
H836 C833 0.999 . S
H837 C818 0.913 . S
H838 C856 0.951 . S
H839 C858 0.951 . S
H840 C860 0.950 . S
H841 C861 0.950 . S
H842 C863 0.950 . S
H843 C866 0.950 . S
H844 C867 0.950 . S
H845 C869 0.950 . S
H846 C870 0.950 . S
H847 C871 0.951 . S
H848 C873 0.951 . S
H849 C875 0.950 . S
H850 C876 0.950 . S
H851 C878 0.950 . S
H852 C881 0.950 . S
H853 C882 0.950 . S
H854 C884 0.950 . S
H855 C885 0.950 . S
C856 H838 0.951 . S
C856 C857 1.366 . S
C856 C858 1.388 . S
C857 C856 1.366 . S
C857 C861 1.385 . S
C858 H839 0.951 . S
C858 C856 1.388 . S
C858 C859 1.366 . S
C859 C858 1.366 . S
C859 C860 1.414 . S
C859 C862 1.499 . S
C860 H840 0.950 . S
C860 C859 1.414 . S
C860 C861 1.374 . S
C861 H841 0.950 . S
C861 C857 1.385 . S
C861 C860 1.374 . S
C862 C859 1.499 . S
C862 C863 1.373 . S
C862 C864 1.389 . S
C863 H842 0.950 . S
C863 C862 1.373 . S
C863 C879 1.377 . S
C864 C862 1.389 . S
C864 C865 1.524 . S
C864 C878 1.377 . S
C865 C864 1.524 . S
C865 C866 1.397 . S
C865 C870 1.363 . S
C866 H843 0.950 . S
C866 C865 1.397 . S
C866 C867 1.334 . S
C867 H844 0.950 . S
C867 C866 1.334 . S
C867 C868 1.287 . S
C868 C867 1.287 . S
C868 C869 1.524 . S
C868 H887 0.913 . S
C869 H845 0.950 . S
C869 C868 1.524 . S
C869 C870 1.415 . S
C870 H846 0.950 . S
C870 C865 1.363 . S
C870 C869 1.415 . S
C871 H847 0.951 . S
C871 C872 1.366 . S
C871 C873 1.388 . S
C872 C871 1.366 . S
C872 C876 1.385 . S
C873 H848 0.951 . S
C873 C871 1.388 . S
C873 C874 1.366 . S
C874 C873 1.366 . S
C874 C875 1.414 . S
C874 C877 1.499 . S
C875 H849 0.950 . S
C875 C874 1.414 . S
C875 C876 1.374 . S
C876 H850 0.950 . S
C876 C872 1.385 . S
C876 C875 1.374 . S
C877 C874 1.499 . S
C877 C878 1.373 . S
C877 C879 1.389 . S
C878 H851 0.950 . S
C878 C864 1.377 . S
C878 C877 1.373 . S
C879 C863 1.377 . S
C879 C877 1.389 . S
C879 C880 1.524 . S
C880 C879 1.524 . S
C880 C881 1.397 . S
C880 C885 1.363 . S
C881 H852 0.950 . S
C881 C880 1.397 . S
C881 C882 1.334 . S
C882 H853 0.950 . S
C882 C881 1.334 . S
C882 C883 1.287 . S
C883 C882 1.287 . S
C883 C884 1.524 . S
C883 H886 0.999 . S
C884 H854 0.950 . S
C884 C883 1.524 . S
C884 C885 1.415 . S
C885 H855 0.950 . S
C885 C880 1.363 . S
C885 C884 1.415 . S
H886 C883 0.999 . S
H887 C868 0.913 . S
H888 C906 0.951 . S
H889 C908 0.951 . S
H890 C910 0.950 . S
H891 C911 0.950 . S
H892 C913 0.950 . S
H893 C916 0.949 1_554 S
H894 C917 0.950 . S
H895 C919 0.950 . S
H896 C920 0.950 . S
H897 C921 0.951 . S
H898 C923 0.951 . S
H899 C925 0.950 . S
H900 C926 0.950 . S
H901 C928 0.950 . S
H902 C931 0.950 . S
H903 C932 0.950 . S
H904 C934 0.950 . S
H905 C935 0.950 . S
C906 H888 0.951 . S
C906 C907 1.366 . S
C906 C908 1.388 . S
C907 C906 1.366 . S
C907 C911 1.385 . S
C908 H889 0.951 . S
C908 C906 1.388 . S
C908 C909 1.366 1_556 S
C909 C908 1.366 1_554 S
C909 C910 1.414 . S
C909 C912 1.499 . S
C910 H890 0.950 . S
C910 C909 1.414 . S
C910 C911 1.374 1_554 S
C911 H891 0.950 . S
C911 C907 1.385 . S
C911 C910 1.374 1_556 S
C912 C909 1.499 . S
C912 C913 1.373 . S
C912 C914 1.389 . S
C913 H892 0.950 . S
C913 C912 1.373 . S
C913 C929 1.377 . S
C914 C912 1.389 . S
C914 C915 1.524 . S
C914 C928 1.377 . S
C915 C914 1.524 . S
C915 C916 1.397 1_554 S
C915 C920 1.363 . S
C916 H893 0.949 1_556 S
C916 C915 1.397 1_556 S
C916 C917 1.334 . S
C917 H894 0.950 . S
C917 C916 1.334 . S
C917 C918 1.287 . S
C918 C917 1.287 . S
C918 C919 1.524 . S
C918 H937 0.913 . S
C919 H895 0.950 . S
C919 C918 1.524 . S
C919 C920 1.415 1_556 S
C920 H896 0.950 . S
C920 C915 1.363 . S
C920 C919 1.415 1_554 S
C921 H897 0.951 . S
C921 C922 1.366 . S
C921 C923 1.388 . S
C922 C921 1.366 . S
C922 C926 1.385 . S
C923 H898 0.951 . S
C923 C921 1.388 . S
C923 C924 1.366 . S
C924 C923 1.366 . S
C924 C925 1.414 . S
C924 C927 1.499 . S
C925 H899 0.950 . S
C925 C924 1.414 . S
C925 C926 1.374 . S
C926 H900 0.950 . S
C926 C922 1.385 . S
C926 C925 1.374 . S
C927 C924 1.499 . S
C927 C928 1.373 . S
C927 C929 1.389 . S
C928 H901 0.950 . S
C928 C914 1.377 . S
C928 C927 1.373 . S
C929 C913 1.377 . S
C929 C927 1.389 . S
C929 C930 1.524 . S
C930 C929 1.524 . S
C930 C931 1.397 . S
C930 C935 1.363 . S
C931 H902 0.950 . S
C931 C930 1.397 . S
C931 C932 1.334 . S
C932 H903 0.950 . S
C932 C931 1.334 . S
C932 C933 1.287 . S
C933 C932 1.287 . S
C933 C934 1.524 . S
C933 H936 0.999 . S
C934 H904 0.950 . S
C934 C933 1.524 . S
C934 C935 1.415 . S
C935 H905 0.950 . S
C935 C930 1.363 . S
C935 C934 1.415 . S
H936 C933 0.999 . S
H937 C918 0.913 . S
H938 C956 0.951 . S
H939 C958 0.951 . S
H940 C960 0.950 . S
H941 C961 0.950 . S
H942 C963 0.950 . S
H943 C966 0.950 . S
H944 C967 0.950 . S
H945 C969 0.950 . S
H946 C970 0.950 . S
H947 C971 0.951 . S
H948 C973 0.951 . S
H949 C975 0.950 . S
H950 C976 0.950 . S
H951 C978 0.950 . S
H952 C981 0.950 . S
H953 C982 0.950 . S
H954 C984 0.950 . S
H955 C985 0.950 . S
C956 H938 0.951 . S
C956 C957 1.366 . S
C956 C958 1.388 . S
C957 C956 1.366 . S
C957 C961 1.385 . S
C958 H939 0.951 . S
C958 C956 1.388 . S
C958 C959 1.366 . S
C959 C958 1.366 . S
C959 C960 1.414 . S
C959 C962 1.499 . S
C960 H940 0.950 . S
C960 C959 1.414 . S
C960 C961 1.374 . S
C961 H941 0.950 . S
C961 C957 1.385 . S
C961 C960 1.374 . S
C962 C959 1.499 . S
C962 C963 1.373 . S
C962 C964 1.389 . S
C963 H942 0.950 . S
C963 C962 1.373 . S
C963 C979 1.377 . S
C964 C962 1.389 . S
C964 C965 1.524 . S
C964 C978 1.377 . S
C965 C964 1.524 . S
C965 C966 1.397 . S
C965 C970 1.363 . S
C966 H943 0.950 . S
C966 C965 1.397 . S
C966 C967 1.334 . S
C967 H944 0.950 . S
C967 C966 1.334 . S
C967 C968 1.287 . S
C968 C967 1.287 . S
C968 C969 1.524 . S
C968 H987 0.913 . S
C969 H945 0.950 . S
C969 C968 1.524 . S
C969 C970 1.415 . S
C970 H946 0.950 . S
C970 C965 1.363 . S
C970 C969 1.415 . S
C971 H947 0.951 . S
C971 C972 1.366 . S
C971 C973 1.388 . S
C972 C971 1.366 . S
C972 C976 1.385 . S
C973 H948 0.951 . S
C973 C971 1.388 . S
C973 C974 1.366 . S
C974 C973 1.366 . S
C974 C975 1.414 . S
C974 C977 1.499 . S
C975 H949 0.950 . S
C975 C974 1.414 . S
C975 C976 1.374 . S
C976 H950 0.950 . S
C976 C972 1.385 . S
C976 C975 1.374 . S
C977 C974 1.499 . S
C977 C978 1.373 . S
C977 C979 1.389 . S
C978 H951 0.950 . S
C978 C964 1.377 . S
C978 C977 1.373 . S
C979 C963 1.377 . S
C979 C977 1.389 . S
C979 C980 1.524 . S
C980 C979 1.524 . S
C980 C981 1.397 . S
C980 C985 1.363 . S
C981 H952 0.950 . S
C981 C980 1.397 . S
C981 C982 1.334 . S
C982 H953 0.950 . S
C982 C981 1.334 . S
C982 C983 1.287 . S
C983 C982 1.287 . S
C983 C984 1.524 . S
C983 H986 0.999 . S
C984 H954 0.950 . S
C984 C983 1.524 . S
C984 C985 1.415 . S
C985 H955 0.950 . S
C985 C980 1.363 . S
C985 C984 1.415 . S
H986 C983 0.999 . S
H987 C968 0.913 . S
H988 C1006 0.951 . S
H989 C1008 0.951 . S
H990 C1010 0.950 . S
H991 C1011 0.950 . S
H992 C1013 0.950 . S
H993 C1016 0.950 . S
H994 C1017 0.950 . S
H995 C1019 0.950 . S
H996 C1020 0.950 . S
H997 C1021 0.951 . S
H998 C1023 0.951 . S
H999 C1025 0.950 . S
H1000 C1026 0.950 . S
H1001 C1028 0.950 . S
H1002 C1031 0.950 . S
H1003 C1032 0.950 . S
H1004 C1034 0.950 . S
H1005 C1035 0.950 . S
C1006 H988 0.951 . S
C1006 C1007 1.366 . S
C1006 C1008 1.388 . S
C1007 C1006 1.366 . S
C1007 C1011 1.385 . S
C1008 H989 0.951 . S
C1008 C1006 1.388 . S
C1008 C1009 1.366 . S
C1009 C1008 1.366 . S
C1009 C1010 1.414 . S
C1009 C1012 1.499 . S
C1010 H990 0.950 . S
C1010 C1009 1.414 . S
C1010 C1011 1.374 . S
C1011 H991 0.950 . S
C1011 C1007 1.385 . S
C1011 C1010 1.374 . S
C1012 C1009 1.499 . S
C1012 C1013 1.373 . S
C1012 C1014 1.389 . S
C1013 H992 0.950 . S
C1013 C1012 1.373 . S
C1013 C1029 1.377 . S
C1014 C1012 1.389 . S
C1014 C1015 1.524 . S
C1014 C1028 1.377 . S
C1015 C1014 1.524 . S
C1015 C1016 1.397 . S
C1015 C1020 1.363 . S
C1016 H993 0.950 . S
C1016 C1015 1.397 . S
C1016 C1017 1.334 . S
C1017 H994 0.950 . S
C1017 C1016 1.334 . S
C1017 C1018 1.287 . S
C1018 C1017 1.287 . S
C1018 C1019 1.524 . S
C1018 H1037 0.913 . S
C1019 H995 0.950 . S
C1019 C1018 1.524 . S
C1019 C1020 1.415 . S
C1020 H996 0.950 . S
C1020 C1015 1.363 . S
C1020 C1019 1.415 . S
C1021 H997 0.951 . S
C1021 C1022 1.366 . S
C1021 C1023 1.388 . S
C1022 C1021 1.366 . S
C1022 C1026 1.385 . S
C1023 H998 0.951 . S
C1023 C1021 1.388 . S
C1023 C1024 1.366 . S
C1024 C1023 1.366 . S
C1024 C1025 1.414 . S
C1024 C1027 1.499 . S
C1025 H999 0.950 . S
C1025 C1024 1.414 . S
C1025 C1026 1.374 . S
C1026 H1000 0.950 . S
C1026 C1022 1.385 . S
C1026 C1025 1.374 . S
C1027 C1024 1.499 . S
C1027 C1028 1.373 . S
C1027 C1029 1.389 . S
C1028 H1001 0.950 . S
C1028 C1014 1.377 . S
C1028 C1027 1.373 . S
C1029 C1013 1.377 . S
C1029 C1027 1.389 . S
C1029 C1030 1.524 . S
C1030 C1029 1.524 . S
C1030 C1031 1.397 . S
C1030 C1035 1.363 . S
C1031 H1002 0.950 . S
C1031 C1030 1.397 . S
C1031 C1032 1.334 . S
C1032 H1003 0.950 . S
C1032 C1031 1.334 . S
C1032 C1033 1.287 . S
C1033 C1032 1.287 . S
C1033 C1034 1.524 . S
C1033 H1036 0.999 . S
C1034 H1004 0.950 . S
C1034 C1033 1.524 . S
C1034 C1035 1.415 . S
C1035 H1005 0.950 . S
C1035 C1030 1.363 . S
C1035 C1034 1.415 . S
H1036 C1033 0.999 . S
H1037 C1018 0.913 . S
H1038 C1056 0.951 . S
H1039 C1058 0.951 . S
H1040 C1060 0.950 . S
H1041 C1061 0.950 . S
H1042 C1063 0.950 . S
H1043 C1066 0.950 . S
H1044 C1067 0.950 . S
H1045 C1069 0.950 . S
H1046 C1070 0.950 . S
H1047 C1071 0.951 . S
H1048 C1073 0.951 . S
H1049 C1075 0.950 . S
H1050 C1076 0.950 . S
H1051 C1078 0.950 . S
H1052 C1081 0.950 . S
H1053 C1082 0.950 . S
H1054 C1084 0.950 . S
H1055 C1085 0.950 . S
C1056 H1038 0.951 . S
C1056 C1057 1.366 . S
C1056 C1058 1.388 . S
C1057 C1056 1.366 . S
C1057 C1061 1.385 . S
C1058 H1039 0.951 . S
C1058 C1056 1.388 . S
C1058 C1059 1.366 . S
C1059 C1058 1.366 . S
C1059 C1060 1.414 . S
C1059 C1062 1.499 . S
C1060 H1040 0.950 . S
C1060 C1059 1.414 . S
C1060 C1061 1.374 . S
C1061 H1041 0.950 . S
C1061 C1057 1.385 . S
C1061 C1060 1.374 . S
C1062 C1059 1.499 . S
C1062 C1063 1.373 . S
C1062 C1064 1.389 . S
C1063 H1042 0.950 . S
C1063 C1062 1.373 . S
C1063 C1079 1.377 . S
C1064 C1062 1.389 . S
C1064 C1065 1.524 . S
C1064 C1078 1.377 . S
C1065 C1064 1.524 . S
C1065 C1066 1.397 . S
C1065 C1070 1.363 . S
C1066 H1043 0.950 . S
C1066 C1065 1.397 . S
C1066 C1067 1.334 . S
C1067 H1044 0.950 . S
C1067 C1066 1.334 . S
C1067 C1068 1.287 . S
C1068 C1067 1.287 . S
C1068 C1069 1.524 . S
C1068 H1087 0.913 . S
C1069 H1045 0.950 . S
C1069 C1068 1.524 . S
C1069 C1070 1.415 . S
C1070 H1046 0.950 . S
C1070 C1065 1.363 . S
C1070 C1069 1.415 . S
C1071 H1047 0.951 . S
C1071 C1072 1.366 . S
C1071 C1073 1.388 . S
C1072 C1071 1.366 . S
C1072 C1076 1.385 . S
C1073 H1048 0.951 . S
C1073 C1071 1.388 . S
C1073 C1074 1.366 . S
C1074 C1073 1.366 . S
C1074 C1075 1.414 . S
C1074 C1077 1.499 . S
C1075 H1049 0.950 . S
C1075 C1074 1.414 . S
C1075 C1076 1.374 . S
C1076 H1050 0.950 . S
C1076 C1072 1.385 . S
C1076 C1075 1.374 . S
C1077 C1074 1.499 . S
C1077 C1078 1.373 . S
C1077 C1079 1.389 . S
C1078 H1051 0.950 . S
C1078 C1064 1.377 . S
C1078 C1077 1.373 . S
C1079 C1063 1.377 . S
C1079 C1077 1.389 . S
C1079 C1080 1.524 . S
C1080 C1079 1.524 . S
C1080 C1081 1.397 . S
C1080 C1085 1.363 . S
C1081 H1052 0.950 . S
C1081 C1080 1.397 . S
C1081 C1082 1.334 . S
C1082 H1053 0.950 . S
C1082 C1081 1.334 . S
C1082 C1083 1.287 . S
C1083 C1082 1.287 . S
C1083 C1084 1.524 . S
C1083 H1086 0.999 . S
C1084 H1054 0.950 . S
C1084 C1083 1.524 . S
C1084 C1085 1.415 . S
C1085 H1055 0.950 . S
C1085 C1080 1.363 . S
C1085 C1084 1.415 . S
H1086 C1083 0.999 . S
H1087 C1068 0.913 . S
H1088 C1106 0.951 . S
H1089 C1108 0.951 . S
H1090 C1110 0.950 . S
H1091 C1111 0.950 . S
H1092 C1113 0.950 . S
H1093 C1116 0.950 . S
H1094 C1117 0.950 . S
H1095 C1119 0.950 . S
H1096 C1120 0.950 . S
H1097 C1121 0.951 . S
H1098 C1123 0.951 . S
H1099 C1125 0.950 . S
H1100 C1126 0.950 . S
H1101 C1128 0.950 . S
H1102 C1131 0.950 . S
H1103 C1132 0.950 . S
H1104 C1134 0.950 . S
H1105 C1135 0.950 . S
C1106 H1088 0.951 . S
C1106 C1107 1.366 . S
C1106 C1108 1.388 . S
C1107 C1106 1.366 . S
C1107 C1111 1.385 . S
C1108 H1089 0.951 . S
C1108 C1106 1.388 . S
C1108 C1109 1.366 . S
C1109 C1108 1.366 . S
C1109 C1110 1.414 . S
C1109 C1112 1.499 . S
C1110 H1090 0.950 . S
C1110 C1109 1.414 . S
C1110 C1111 1.374 . S
C1111 H1091 0.950 . S
C1111 C1107 1.385 . S
C1111 C1110 1.374 . S
C1112 C1109 1.499 . S
C1112 C1113 1.373 . S
C1112 C1114 1.389 . S
C1113 H1092 0.950 . S
C1113 C1112 1.373 . S
C1113 C1129 1.377 . S
C1114 C1112 1.389 . S
C1114 C1115 1.524 . S
C1114 C1128 1.377 . S
C1115 C1114 1.524 . S
C1115 C1116 1.397 . S
C1115 C1120 1.363 . S
C1116 H1093 0.950 . S
C1116 C1115 1.397 . S
C1116 C1117 1.334 . S
C1117 H1094 0.950 . S
C1117 C1116 1.334 . S
C1117 C1118 1.287 . S
C1118 C1117 1.287 . S
C1118 C1119 1.524 . S
C1118 H1137 0.913 . S
C1119 H1095 0.950 . S
C1119 C1118 1.524 . S
C1119 C1120 1.415 . S
C1120 H1096 0.950 . S
C1120 C1115 1.363 . S
C1120 C1119 1.415 . S
C1121 H1097 0.951 . S
C1121 C1122 1.366 . S
C1121 C1123 1.388 . S
C1122 C1121 1.366 . S
C1122 C1126 1.385 . S
C1123 H1098 0.951 . S
C1123 C1121 1.388 . S
C1123 C1124 1.366 . S
C1124 C1123 1.366 . S
C1124 C1125 1.414 . S
C1124 C1127 1.499 . S
C1125 H1099 0.950 . S
C1125 C1124 1.414 . S
C1125 C1126 1.374 . S
C1126 H1100 0.950 . S
C1126 C1122 1.385 . S
C1126 C1125 1.374 . S
C1127 C1124 1.499 . S
C1127 C1128 1.373 . S
C1127 C1129 1.389 . S
C1128 H1101 0.950 . S
C1128 C1114 1.377 . S
C1128 C1127 1.373 . S
C1129 C1113 1.377 . S
C1129 C1127 1.389 . S
C1129 C1130 1.524 . S
C1130 C1129 1.524 . S
C1130 C1131 1.397 . S
C1130 C1135 1.363 . S
C1131 H1102 0.950 . S
C1131 C1130 1.397 . S
C1131 C1132 1.334 . S
C1132 H1103 0.950 . S
C1132 C1131 1.334 . S
C1132 C1133 1.287 . S
C1133 C1132 1.287 . S
C1133 C1134 1.524 . S
C1133 H1136 0.999 . S
C1134 H1104 0.950 . S
C1134 C1133 1.524 . S
C1134 C1135 1.415 . S
C1135 H1105 0.950 . S
C1135 C1130 1.363 . S
C1135 C1134 1.415 . S
H1136 C1133 0.999 . S
H1137 C1118 0.913 . S
H1138 C1156 0.951 . S
H1139 C1158 0.951 . S
H1140 C1160 0.950 . S
H1141 C1161 0.950 . S
H1142 C1163 0.950 . S
H1143 C1166 0.950 . S
H1144 C1167 0.950 . S
H1145 C1169 0.950 . S
H1146 C1170 0.950 . S
H1147 C1171 0.951 . S
H1148 C1173 0.951 . S
H1149 C1175 0.950 . S
H1150 C1176 0.950 . S
H1151 C1178 0.950 . S
H1152 C1181 0.950 . S
H1153 C1182 0.950 . S
H1154 C1184 0.950 . S
H1155 C1185 0.950 . S
C1156 H1138 0.951 . S
C1156 C1157 1.366 . S
C1156 C1158 1.388 . S
C1157 C1156 1.366 . S
C1157 C1161 1.385 . S
C1158 H1139 0.951 . S
C1158 C1156 1.388 . S
C1158 C1159 1.366 . S
C1159 C1158 1.366 . S
C1159 C1160 1.414 . S
C1159 C1162 1.499 . S
C1160 H1140 0.950 . S
C1160 C1159 1.414 . S
C1160 C1161 1.374 . S
C1161 H1141 0.950 . S
C1161 C1157 1.385 . S
C1161 C1160 1.374 . S
C1162 C1159 1.499 . S
C1162 C1163 1.373 . S
C1162 C1164 1.389 . S
C1163 H1142 0.950 . S
C1163 C1162 1.373 . S
C1163 C1179 1.377 . S
C1164 C1162 1.389 . S
C1164 C1165 1.524 . S
C1164 C1178 1.377 . S
C1165 C1164 1.524 . S
C1165 C1166 1.397 . S
C1165 C1170 1.363 . S
C1166 H1143 0.950 . S
C1166 C1165 1.397 . S
C1166 C1167 1.334 . S
C1167 H1144 0.950 . S
C1167 C1166 1.334 . S
C1167 C1168 1.287 . S
C1168 C1167 1.287 . S
C1168 C1169 1.524 . S
C1168 H1187 0.913 . S
C1169 H1145 0.950 . S
C1169 C1168 1.524 . S
C1169 C1170 1.415 . S
C1170 H1146 0.950 . S
C1170 C1165 1.363 . S
C1170 C1169 1.415 . S
C1171 H1147 0.951 . S
C1171 C1172 1.366 . S
C1171 C1173 1.388 . S
C1172 C1171 1.366 . S
C1172 C1176 1.385 . S
C1173 H1148 0.951 . S
C1173 C1171 1.388 . S
C1173 C1174 1.366 . S
C1174 C1173 1.366 . S
C1174 C1175 1.414 . S
C1174 C1177 1.499 . S
C1175 H1149 0.950 . S
C1175 C1174 1.414 . S
C1175 C1176 1.374 . S
C1176 H1150 0.950 . S
C1176 C1172 1.385 . S
C1176 C1175 1.374 . S
C1177 C1174 1.499 . S
C1177 C1178 1.373 . S
C1177 C1179 1.389 . S
C1178 H1151 0.950 . S
C1178 C1164 1.377 . S
C1178 C1177 1.373 . S
C1179 C1163 1.377 . S
C1179 C1177 1.389 . S
C1179 C1180 1.524 . S
C1180 C1179 1.524 . S
C1180 C1181 1.397 . S
C1180 C1185 1.363 . S
C1181 H1152 0.950 . S
C1181 C1180 1.397 . S
C1181 C1182 1.334 . S
C1182 H1153 0.950 . S
C1182 C1181 1.334 . S
C1182 C1183 1.287 . S
C1183 C1182 1.287 . S
C1183 C1184 1.524 . S
C1183 H1186 0.999 . S
C1184 H1154 0.950 . S
C1184 C1183 1.524 . S
C1184 C1185 1.415 . S
C1185 H1155 0.950 . S
C1185 C1180 1.363 . S
C1185 C1184 1.415 . S
H1186 C1183 0.999 . S
H1187 C1168 0.913 . S
H1188 C1206 0.951 . S
H1189 C1208 0.951 . S
H1190 C1210 0.950 . S
H1191 C1211 0.950 . S
H1192 C1213 0.950 . S
H1193 C1216 0.950 . S
H1194 C1217 0.950 . S
H1195 C1219 0.950 . S
H1196 C1220 0.950 . S
H1197 C1221 0.951 . S
H1198 C1223 0.951 . S
H1199 C1225 0.950 . S
H1200 C1226 0.950 . S
H1201 C1228 0.950 . S
H1202 C1231 0.950 . S
H1203 C1232 0.950 . S
H1204 C1234 0.950 . S
H1205 C1235 0.950 . S
C1206 H1188 0.951 . S
C1206 C1207 1.366 . S
C1206 C1208 1.388 . S
C1207 C1206 1.366 . S
C1207 C1211 1.385 . S
C1208 H1189 0.951 . S
C1208 C1206 1.388 . S
C1208 C1209 1.366 . S
C1209 C1208 1.366 . S
C1209 C1210 1.414 . S
C1209 C1212 1.499 . S
C1210 H1190 0.950 . S
C1210 C1209 1.414 . S
C1210 C1211 1.374 . S
C1211 H1191 0.950 . S
C1211 C1207 1.385 . S
C1211 C1210 1.374 . S
C1212 C1209 1.499 . S
C1212 C1213 1.373 . S
C1212 C1214 1.389 . S
C1213 H1192 0.950 . S
C1213 C1212 1.373 . S
C1213 C1229 1.377 . S
C1214 C1212 1.389 . S
C1214 C1215 1.524 . S
C1214 C1228 1.377 . S
C1215 C1214 1.524 . S
C1215 C1216 1.397 . S
C1215 C1220 1.363 . S
C1216 H1193 0.950 . S
C1216 C1215 1.397 . S
C1216 C1217 1.334 . S
C1217 H1194 0.950 . S
C1217 C1216 1.334 . S
C1217 C1218 1.287 . S
C1218 C1217 1.287 . S
C1218 C1219 1.524 . S
C1218 H1237 0.913 . S
C1219 H1195 0.950 . S
C1219 C1218 1.524 . S
C1219 C1220 1.415 . S
C1220 H1196 0.950 . S
C1220 C1215 1.363 . S
C1220 C1219 1.415 . S
C1221 H1197 0.951 . S
C1221 C1222 1.366 . S
C1221 C1223 1.388 . S
C1222 C1221 1.366 . S
C1222 C1226 1.385 . S
C1223 H1198 0.951 . S
C1223 C1221 1.388 . S
C1223 C1224 1.366 . S
C1224 C1223 1.366 . S
C1224 C1225 1.414 . S
C1224 C1227 1.499 . S
C1225 H1199 0.950 . S
C1225 C1224 1.414 . S
C1225 C1226 1.374 . S
C1226 H1200 0.950 . S
C1226 C1222 1.385 . S
C1226 C1225 1.374 . S
C1227 C1224 1.499 . S
C1227 C1228 1.373 . S
C1227 C1229 1.389 . S
C1228 H1201 0.950 . S
C1228 C1214 1.377 . S
C1228 C1227 1.373 . S
C1229 C1213 1.377 . S
C1229 C1227 1.389 . S
C1229 C1230 1.524 . S
C1230 C1229 1.524 . S
C1230 C1231 1.397 . S
C1230 C1235 1.363 . S
C1231 H1202 0.950 . S
C1231 C1230 1.397 . S
C1231 C1232 1.334 . S
C1232 H1203 0.950 . S
C1232 C1231 1.334 . S
C1232 C1233 1.287 . S
C1233 C1232 1.287 . S
C1233 C1234 1.524 . S
C1233 H1236 0.999 . S
C1234 H1204 0.950 . S
C1234 C1233 1.524 . S
C1234 C1235 1.415 . S
C1235 H1205 0.950 . S
C1235 C1230 1.363 . S
C1235 C1234 1.415 . S
H1236 C1233 0.999 . S
H1237 C1218 0.913 . S
H1238 C1256 0.951 . S
H1239 C1258 0.951 . S
H1240 C1260 0.950 . S
H1241 C1261 0.950 . S
H1242 C1263 0.950 . S
H1243 C1266 0.950 . S
H1244 C1267 0.950 . S
H1245 C1269 0.950 . S
H1246 C1270 0.950 . S
H1247 C1271 0.951 . S
H1248 C1273 0.951 . S
H1249 C1275 0.950 . S
H1250 C1276 0.950 . S
H1251 C1278 0.950 . S
H1252 C1281 0.950 . S
H1253 C1282 0.950 . S
H1254 C1284 0.950 . S
H1255 C1285 0.950 . S
C1256 H1238 0.951 . S
C1256 C1257 1.366 . S
C1256 C1258 1.388 . S
C1257 C1256 1.366 . S
C1257 C1261 1.385 . S
C1258 H1239 0.951 . S
C1258 C1256 1.388 . S
C1258 C1259 1.366 . S
C1259 C1258 1.366 . S
C1259 C1260 1.414 . S
C1259 C1262 1.499 . S
C1260 H1240 0.950 . S
C1260 C1259 1.414 . S
C1260 C1261 1.374 . S
C1261 H1241 0.950 . S
C1261 C1257 1.385 . S
C1261 C1260 1.374 . S
C1262 C1259 1.499 . S
C1262 C1263 1.373 . S
C1262 C1264 1.389 . S
C1263 H1242 0.950 . S
C1263 C1262 1.373 . S
C1263 C1279 1.377 . S
C1264 C1262 1.389 . S
C1264 C1265 1.524 . S
C1264 C1278 1.377 . S
C1265 C1264 1.524 . S
C1265 C1266 1.397 . S
C1265 C1270 1.363 . S
C1266 H1243 0.950 . S
C1266 C1265 1.397 . S
C1266 C1267 1.334 . S
C1267 H1244 0.950 . S
C1267 C1266 1.334 . S
C1267 C1268 1.287 . S
C1268 C1267 1.287 . S
C1268 C1269 1.524 . S
C1268 H1287 0.913 . S
C1269 H1245 0.950 . S
C1269 C1268 1.524 . S
C1269 C1270 1.415 . S
C1270 H1246 0.950 . S
C1270 C1265 1.363 . S
C1270 C1269 1.415 . S
C1271 H1247 0.951 . S
C1271 C1272 1.366 . S
C1271 C1273 1.388 . S
C1272 C1271 1.366 . S
C1272 C1276 1.385 . S
C1273 H1248 0.951 . S
C1273 C1271 1.388 . S
C1273 C1274 1.366 . S
C1274 C1273 1.366 . S
C1274 C1275 1.414 . S
C1274 C1277 1.499 . S
C1275 H1249 0.950 . S
C1275 C1274 1.414 . S
C1275 C1276 1.374 . S
C1276 H1250 0.950 . S
C1276 C1272 1.385 . S
C1276 C1275 1.374 . S
C1277 C1274 1.499 . S
C1277 C1278 1.373 . S
C1277 C1279 1.389 . S
C1278 H1251 0.950 . S
C1278 C1264 1.377 . S
C1278 C1277 1.373 . S
C1279 C1263 1.377 . S
C1279 C1277 1.389 . S
C1279 C1280 1.524 . S
C1280 C1279 1.524 . S
C1280 C1281 1.397 . S
C1280 C1285 1.363 . S
C1281 H1252 0.950 . S
C1281 C1280 1.397 . S
C1281 C1282 1.334 . S
C1282 H1253 0.950 . S
C1282 C1281 1.334 . S
C1282 C1283 1.287 . S
C1283 C1282 1.287 . S
C1283 C1284 1.524 . S
C1283 H1286 0.999 . S
C1284 H1254 0.950 . S
C1284 C1283 1.524 . S
C1284 C1285 1.415 . S
C1285 H1255 0.950 . S
C1285 C1280 1.363 . S
C1285 C1284 1.415 . S
H1286 C1283 0.999 . S
H1287 C1268 0.913 . S
H1288 C1306 0.951 . S
H1289 C1308 0.951 . S
H1290 C1310 0.950 . S
H1291 C1311 0.950 . S
H1292 C1313 0.950 . S
H1293 C1316 0.950 . S
H1294 C1317 0.950 . S
H1295 C1319 0.950 . S
H1296 C1320 0.950 . S
H1297 C1321 0.951 . S
H1298 C1323 0.951 . S
H1299 C1325 0.950 . S
H1300 C1326 0.950 . S
H1301 C1328 0.950 . S
H1302 C1331 0.950 . S
H1303 C1332 0.950 . S
H1304 C1334 0.950 . S
H1305 C1335 0.950 . S
C1306 H1288 0.951 . S
C1306 C1307 1.366 . S
C1306 C1308 1.388 . S
C1307 C1306 1.366 . S
C1307 C1311 1.385 . S
C1308 H1289 0.951 . S
C1308 C1306 1.388 . S
C1308 C1309 1.366 . S
C1309 C1308 1.366 . S
C1309 C1310 1.414 . S
C1309 C1312 1.499 . S
C1310 H1290 0.950 . S
C1310 C1309 1.414 . S
C1310 C1311 1.374 . S
C1311 H1291 0.950 . S
C1311 C1307 1.385 . S
C1311 C1310 1.374 . S
C1312 C1309 1.499 . S
C1312 C1313 1.373 . S
C1312 C1314 1.389 . S
C1313 H1292 0.950 . S
C1313 C1312 1.373 . S
C1313 C1329 1.377 . S
C1314 C1312 1.389 . S
C1314 C1315 1.524 . S
C1314 C1328 1.377 . S
C1315 C1314 1.524 . S
C1315 C1316 1.397 . S
C1315 C1320 1.363 . S
C1316 H1293 0.950 . S
C1316 C1315 1.397 . S
C1316 C1317 1.334 . S
C1317 H1294 0.950 . S
C1317 C1316 1.334 . S
C1317 C1318 1.287 . S
C1318 C1317 1.287 . S
C1318 C1319 1.524 . S
C1318 H1337 0.913 . S
C1319 H1295 0.950 . S
C1319 C1318 1.524 . S
C1319 C1320 1.415 . S
C1320 H1296 0.950 . S
C1320 C1315 1.363 . S
C1320 C1319 1.415 . S
C1321 H1297 0.951 . S
C1321 C1322 1.366 . S
C1321 C1323 1.388 . S
C1322 C1321 1.366 . S
C1322 C1326 1.385 . S
C1323 H1298 0.951 . S
C1323 C1321 1.388 . S
C1323 C1324 1.366 . S
C1324 C1323 1.366 . S
C1324 C1325 1.414 . S
C1324 C1327 1.499 . S
C1325 H1299 0.950 . S
C1325 C1324 1.414 . S
C1325 C1326 1.374 . S
C1326 H1300 0.950 . S
C1326 C1322 1.385 . S
C1326 C1325 1.374 . S
C1327 C1324 1.499 . S
C1327 C1328 1.373 . S
C1327 C1329 1.389 . S
C1328 H1301 0.950 . S
C1328 C1314 1.377 . S
C1328 C1327 1.373 . S
C1329 C1313 1.377 . S
C1329 C1327 1.389 . S
C1329 C1330 1.524 . S
C1330 C1329 1.524 . S
C1330 C1331 1.397 . S
C1330 C1335 1.363 . S
C1331 H1302 0.950 . S
C1331 C1330 1.397 . S
C1331 C1332 1.334 . S
C1332 H1303 0.950 . S
C1332 C1331 1.334 . S
C1332 C1333 1.287 . S
C1333 C1332 1.287 . S
C1333 C1334 1.524 . S
C1333 H1336 0.999 . S
C1334 H1304 0.950 . S
C1334 C1333 1.524 . S
C1334 C1335 1.415 . S
C1335 H1305 0.950 . S
C1335 C1330 1.363 . S
C1335 C1334 1.415 . S
H1336 C1333 0.999 . S
H1337 C1318 0.913 . S
H1338 C1356 0.951 . S
H1339 C1358 0.951 . S
H1340 C1360 0.950 . S
H1341 C1361 0.950 . S
H1342 C1363 0.950 . S
H1343 C1366 0.950 . S
H1344 C1367 0.950 . S
H1345 C1369 0.950 . S
H1346 C1370 0.950 . S
H1347 C1371 0.951 . S
H1348 C1373 0.951 . S
H1349 C1375 0.950 . S
H1350 C1376 0.950 . S
H1351 C1378 0.950 . S
H1352 C1381 0.950 . S
H1353 C1382 0.950 . S
H1354 C1384 0.950 . S
H1355 C1385 0.950 . S
C1356 H1338 0.951 . S
C1356 C1357 1.366 . S
C1356 C1358 1.388 . S
C1357 C1356 1.366 . S
C1357 C1361 1.385 . S
C1358 H1339 0.951 . S
C1358 C1356 1.388 . S
C1358 C1359 1.366 . S
C1359 C1358 1.366 . S
C1359 C1360 1.414 . S
C1359 C1362 1.499 . S
C1360 H1340 0.950 . S
C1360 C1359 1.414 . S
C1360 C1361 1.374 . S
C1361 H1341 0.950 . S
C1361 C1357 1.385 . S
C1361 C1360 1.374 . S
C1362 C1359 1.499 . S
C1362 C1363 1.373 . S
C1362 C1364 1.389 . S
C1363 H1342 0.950 . S
C1363 C1362 1.373 . S
C1363 C1379 1.377 . S
C1364 C1362 1.389 . S
C1364 C1365 1.524 . S
C1364 C1378 1.377 . S
C1365 C1364 1.524 . S
C1365 C1366 1.397 . S
C1365 C1370 1.363 . S
C1366 H1343 0.950 . S
C1366 C1365 1.397 . S
C1366 C1367 1.334 . S
C1367 H1344 0.950 . S
C1367 C1366 1.334 . S
C1367 C1368 1.287 . S
C1368 C1367 1.287 . S
C1368 C1369 1.524 . S
C1368 H1387 0.913 . S
C1369 H1345 0.950 . S
C1369 C1368 1.524 . S
C1369 C1370 1.415 . S
C1370 H1346 0.950 . S
C1370 C1365 1.363 . S
C1370 C1369 1.415 . S
C1371 H1347 0.951 . S
C1371 C1372 1.366 . S
C1371 C1373 1.388 . S
C1372 C1371 1.366 . S
C1372 C1376 1.385 . S
C1373 H1348 0.951 . S
C1373 C1371 1.388 . S
C1373 C1374 1.366 . S
C1374 C1373 1.366 . S
C1374 C1375 1.414 . S
C1374 C1377 1.499 . S
C1375 H1349 0.950 . S
C1375 C1374 1.414 . S
C1375 C1376 1.374 . S
C1376 H1350 0.950 . S
C1376 C1372 1.385 . S
C1376 C1375 1.374 . S
C1377 C1374 1.499 . S
C1377 C1378 1.373 . S
C1377 C1379 1.389 . S
C1378 H1351 0.950 . S
C1378 C1364 1.377 . S
C1378 C1377 1.373 . S
C1379 C1363 1.377 . S
C1379 C1377 1.389 . S
C1379 C1380 1.524 . S
C1380 C1379 1.524 . S
C1380 C1381 1.397 . S
C1380 C1385 1.363 . S
C1381 H1352 0.950 . S
C1381 C1380 1.397 . S
C1381 C1382 1.334 . S
C1382 H1353 0.950 . S
C1382 C1381 1.334 . S
C1382 C1383 1.287 . S
C1383 C1382 1.287 . S
C1383 C1384 1.524 . S
C1383 H1386 0.999 . S
C1384 H1354 0.950 . S
C1384 C1383 1.524 . S
C1384 C1385 1.415 . S
C1385 H1355 0.950 . S
C1385 C1380 1.363 . S
C1385 C1384 1.415 . S
H1386 C1383 0.999 . S
H1387 C1368 0.913 . S
C207 C86 1.333 . S
C222 C120 1.251 . S
C272 C128 1.400 . S
C257 C100 1.462 . S
C322 C132 1.241 . S
C307 C60 1.332 . S
C357 C74 1.459 . S
C372 C108 1.388 . S
C422 C149 1.400 . S
C407 C35 1.463 . S
C472 C183 1.250 . S
C457 C47 1.331 . S
C507 C9 1.460 . S
C522 C171 1.388 . S
C557 C21 1.330 . S
C572 C153 1.242 . S
C622 C107 1.351 . S
C607 C22 1.461 . S
C672 C141 1.316 . S
C657 C8 1.447 . S
C722 C145 1.349 . S
C707 C48 1.463 . S
C772 C123 1.314 . S
C757 C34 1.448 . S
C822 C162 1.316 . S
C807 C73 1.445 . S
C857 C61 1.461 . S
C872 C170 1.352 . S
C922 C186 1.313 . S
C907 C99 1.446 . S
C957 C87 1.464 . S
C972 C166 1.350 . S
C1022 C111 1.437 . S
C1007 C4 1.569 . S
C1072 C129 1.322 . S
C1057 C17 1.423 . S
C1107 C30 1.563 . S
C1122 C144 1.437 . S
C1172 C124 1.320 . S
C1157 C43 1.416 . S
C1222 C150 1.322 . S
C1207 C56 1.442 . S
C1257 C69 1.553 . S
C1272 C174 1.437 . S
C1307 C82 1.430 . S
C1322 C187 1.321 . S
C1357 C95 1.550 . S
C1372 C165 1.438 . S
