# Generated by pormake.
# Topology anh, (6,3)-cn, num edge types: 1
# Building blocks:
#     Node 0, Type 0, BuildingBlock: NUHQIS_clean_sbu_0, # of connection points: 6
#     Node 1, Type 0, BuildingBlock: NUHQIS_clean_sbu_0, # of connection points: 6
#     Node 2, Type 0, BuildingBlock: NUHQIS_clean_sbu_0, # of connection points: 6
#     Node 3, Type 1, BuildingBlock: BETDIP_clean_linker_0, # of connection points: 3
#     Node 4, Type 1, BuildingBlock: BETDIP_clean_linker_0, # of connection points: 3
#     Node 5, Type 1, BuildingBlock: BETDIP_clean_linker_0, # of connection points: 3
#     Node 6, Type 1, BuildingBlock: BETDIP_clean_linker_0, # of connection points: 3
#     Node 7, Type 1, BuildingBlock: BETDIP_clean_linker_0, # of connection points: 3
#     Node 8, Type 1, BuildingBlock: BETDIP_clean_linker_0, # of connection points: 3
#     Edge 9, Type (0, 1), BuildingBlock: ZUJKAS_clean_linker_0, # of connection points: 2
#     Edge 10, Type (0, 1), BuildingBlock: ZUJKAS_clean_linker_0, # of connection points: 2
#     Edge 11, Type (0, 1), BuildingBlock: ZUJKAS_clean_linker_0, # of connection points: 2
#     Edge 12, Type (0, 1), BuildingBlock: ZUJKAS_clean_linker_0, # of connection points: 2
#     Edge 13, Type (0, 1), BuildingBlock: ZUJKAS_clean_linker_0, # of connection points: 2
#     Edge 14, Type (0, 1), BuildingBlock: ZUJKAS_clean_linker_0, # of connection points: 2
#     Edge 15, Type (0, 1), BuildingBlock: ZUJKAS_clean_linker_0, # of connection points: 2
#     Edge 16, Type (0, 1), BuildingBlock: ZUJKAS_clean_linker_0, # of connection points: 2
#     Edge 17, Type (0, 1), BuildingBlock: ZUJKAS_clean_linker_0, # of connection points: 2
#     Edge 18, Type (0, 1), BuildingBlock: ZUJKAS_clean_linker_0, # of connection points: 2
#     Edge 19, Type (0, 1), BuildingBlock: ZUJKAS_clean_linker_0, # of connection points: 2
#     Edge 20, Type (0, 1), BuildingBlock: ZUJKAS_clean_linker_0, # of connection points: 2
#     Edge 21, Type (0, 1), BuildingBlock: ZUJKAS_clean_linker_0, # of connection points: 2
#     Edge 22, Type (0, 1), BuildingBlock: ZUJKAS_clean_linker_0, # of connection points: 2
#     Edge 23, Type (0, 1), BuildingBlock: ZUJKAS_clean_linker_0, # of connection points: 2
#     Edge 24, Type (0, 1), BuildingBlock: ZUJKAS_clean_linker_0, # of connection points: 2
#     Edge 25, Type (0, 1), BuildingBlock: ZUJKAS_clean_linker_0, # of connection points: 2
#     Edge 26, Type (0, 1), BuildingBlock: ZUJKAS_clean_linker_0, # of connection points: 2
# Relax obj value: 0.185
# Max RMSD: 0.169
# Mean RMSD: 0.120
data_MOF--net-anh--node1-NUHQIS_clean_sbu_0--node2-BETDIP_clean_linker_0--edge1-ZUJKAS_clean_linker_0
_symmetry_space_group_name_H-M    P1
_symmetry_Int_Tables_number       1
_symmetry_cell_setting            triclinic
loop_
_symmetry_equiv_pos_as_xyz
'x, y, z'
_cell_length_a     39.045509
_cell_length_b     39.143273
_cell_length_c     64.612529
_cell_angle_alpha  91.708699
_cell_angle_beta   94.095013
_cell_angle_gamma 120.22613
loop_
_atom_site_label
_atom_site_type_symbol
_atom_site_fract_x
_atom_site_fract_y
_atom_site_fract_z
_atom_type_partial_charge
Tb0 Tb 0.17924 0.6496 0.16694 0.0
Eu1 Eu 0.13389 0.69901 0.15684 0.0
C2 C 0.14726 0.67847 0.20198 0.0
C3 C 1.08507 0.60438 0.16009 0.0
C4 C 0.2515 0.6125 0.1736 0.0
C5 C 0.30626 0.60511 0.18823 0.0
C6 C 0.27359 0.60972 0.19087 0.0
C7 C 0.26357 0.61227 0.15366 0.0
C8 C 0.29608 0.60738 0.15099 0.0
C9 C 0.31726 0.60284 0.16821 0.0
C10 C 0.21435 0.6122 0.17666 0.0
O11 O 0.19153 0.66484 0.13515 0.0
O12 O 0.14001 0.6756 0.12591 0.0
O13 O 0.19822 0.74356 0.1535 0.0
O14 O 0.22607 0.71278 0.17215 0.0
C15 C 0.1683 0.66894 0.12094 0.0
O16 O 1.09206 0.7082 0.13702 0.0
O17 O 0.11897 0.74371 0.16614 0.0
O18 O 0.15379 0.70828 0.19103 0.0
O19 O 0.14712 0.64763 0.1935 0.0
O20 O 0.11754 0.60421 0.15593 0.0
O21 O 1.08634 0.63796 0.16464 0.0
C22 C 0.2293 0.74427 0.16336 0.0
O23 O 0.21742 0.64157 0.18832 0.0
O24 O 0.18863 0.60245 0.16038 0.0
C25 C 1.05067 0.71895 0.15712 0.0
C26 C 0.96943 0.68169 0.16367 0.0
C27 C 0.9854 0.71153 0.14963 0.0
C28 C 1.02572 0.72987 0.14631 0.0
C29 C 1.03542 0.69093 0.172 0.0
C30 C 0.99521 0.67247 0.17525 0.0
C31 C 1.09068 0.73209 0.15097 0.0
H32 H 0.32234 0.60243 0.20185 0.0
H33 H 0.26483 0.60995 0.2064 0.0
H34 H 0.24711 0.61448 0.14005 0.0
H35 H 0.30342 0.60536 0.13532 0.0
H36 H 0.96644 0.71966 0.14066 0.0
H37 H 1.03697 0.75128 0.13468 0.0
H38 H 1.05417 0.68181 0.18038 0.0
H39 H 0.98397 0.64927 0.18593 0.0
Tb40 Tb 0.68627 0.14249 0.50401 0.0
Eu41 Eu 0.59127 0.09499 0.48849 0.0
C42 C 0.62318 0.10291 0.53607 0.0
C43 C 0.63889 1.04787 0.49708 0.0
C44 C 0.78798 0.22632 0.51238 0.0
C45 C 0.84215 0.29092 0.52649 0.0
C46 C 0.81872 0.24998 0.52797 0.0
C47 C 0.78159 0.24385 0.49502 0.0
C48 C 0.8051 0.28456 0.49346 0.0
C49 C 0.8352 0.30865 0.50932 0.0
C50 C 0.75973 0.18458 0.51536 0.0
O51 O 0.68149 0.15559 0.47153 0.0
O52 O 0.6227 0.09964 0.46024 0.0
O53 O 0.61292 0.15989 0.48421 0.0
O54 O 0.6663 0.18531 0.50889 0.0
C55 C 0.65631 0.13039 0.45638 0.0
O56 O 0.54001 1.04884 0.4687 0.0
O57 O 0.53244 0.08781 0.48999 0.0
O58 O 0.59709 0.10513 0.52317 0.0
O59 O 0.6573 0.10929 0.53021 0.0
O60 O 0.6728 0.08152 0.49633 0.0
O61 O 0.60481 1.04713 0.49755 0.0
C62 C 0.64033 0.18969 0.49682 0.0
O63 O 0.73203 0.17915 0.52721 0.0
O64 O 0.74519 0.16038 0.49858 0.0
C65 C 0.4793 1.02189 0.4835 0.0
C66 C 0.41041 0.95532 0.495 0.0
C67 C 0.4117 0.96783 0.47473 0.0
C68 C 0.44583 1.0008 0.46906 0.0
C69 C 0.47848 1.00951 0.50375 0.0
C70 C 0.44412 0.97654 0.5095 0.0
C71 C 0.51481 1.05629 0.47702 0.0
H72 H 0.8652 0.30879 0.53892 0.0
H73 H 0.82371 0.237 0.5416 0.0
H74 H 0.7575 0.22631 0.48299 0.0
H75 H 0.79846 0.29741 0.48025 0.0
H76 H 0.38596 0.95259 0.46332 0.0
H77 H 0.44603 1.00996 0.45338 0.0
H78 H 0.50431 1.02537 0.51506 0.0
H79 H 0.44397 0.9675 0.52519 0.0
Tb80 Tb 0.70516 0.64772 0.83426 0.0
Eu81 Eu 0.65564 0.55186 0.82316 0.0
C82 C 0.68121 0.58811 0.86889 0.0
C83 C 0.75319 0.60182 0.83007 0.0
C84 C 0.71893 0.74328 0.85109 0.0
C85 C 0.71283 0.80183 0.8495 0.0
C86 C 0.73492 0.78311 0.84696 0.0
C87 C 0.68169 0.72305 0.85896 0.0
C88 C 0.6596 0.74165 0.86146 0.0
C89 C 0.67431 0.78081 0.85604 0.0
C90 C 0.73741 0.72099 0.84395 0.0
O91 O 0.71168 0.63789 0.80162 0.0
O92 O 0.6523 0.58031 0.79425 0.0
O93 O 0.60975 0.56807 0.83181 0.0
O94 O 0.64388 0.63431 0.82663 0.0
C95 C 0.68287 0.61162 0.7881 0.0
O96 O 0.64164 0.49941 0.80322 0.0
O97 O 0.60882 0.49355 0.82998 0.0
O98 O 0.68309 0.56312 0.85587 0.0
O99 O 0.67901 0.61828 0.86205 0.0
O100 O 0.75231 0.63291 0.83787 0.0
O101 O 0.72062 0.5698 0.82155 0.0
C102 C 0.61061 0.60186 0.82971 0.0
O103 O 0.7384 0.69599 0.85653 0.0
O104 O 0.72486 0.70506 0.82496 0.0
C105 C 0.61605 0.43883 0.81969 0.0
C106 C 0.60751 0.36434 0.827 0.0
C107 C 0.61247 0.378 0.80693 0.0
C108 C 0.61654 0.41479 0.80332 0.0
C109 C 0.61277 0.42599 0.83995 0.0
C110 C 0.60843 0.38902 0.84354 0.0
C111 C 0.61527 0.4751 0.81494 0.0
H112 H 0.72514 0.83217 0.84542 0.0
H113 H 0.76347 0.79904 0.84072 0.0
H114 H 0.66857 0.69205 0.86197 0.0
H115 H 0.62986 0.7244 0.86623 0.0
H116 H 0.61129 0.35945 0.7938 0.0
H117 H 0.61868 0.42387 0.78756 0.0
H118 H 0.61237 0.44391 0.85292 0.0
H119 H 0.60497 0.37938 0.85919 0.0
H120 H 0.62841 0.1418 0.17527 0.0
H121 H 0.70051 0.20738 0.23198 0.0
H122 H 0.589 0.10055 0.23503 0.0
H123 H 0.74977 0.21694 0.21153 0.0
C124 C 0.74035 0.22818 0.19847 0.0
C125 C 0.63321 0.14524 0.19211 0.0
C126 C 0.60361 0.11743 0.20399 0.0
C127 C 0.66903 0.17765 0.2021 0.0
C128 C 0.67433 0.1819 0.22403 0.0
C129 C 0.64583 0.15426 0.23598 0.0
C130 C 0.61072 0.12237 0.22583 0.0
N131 N 0.69919 0.20633 0.19033 0.0
H132 H 0.64651 0.5889 0.50387 0.0
H133 H 0.66521 0.66036 0.56022 0.0
H134 H 0.66654 0.55185 0.56346 0.0
H135 H 0.61419 0.6649 0.54229 0.0
C136 C 0.62955 0.676 0.52847 0.0
C137 C 0.652 0.5938 0.52066 0.0
C138 C 0.65808 0.56683 0.53247 0.0
C139 C 0.65316 0.62724 0.53072 0.0
C140 C 0.66163 0.63368 0.5525 0.0
C141 C 0.66612 0.60665 0.5645 0.0
C142 C 0.66414 0.57344 0.5543 0.0
N143 N 0.64644 0.6547 0.51924 0.0
H144 H 0.15634 0.61226 0.83937 0.0
H145 H 0.2305 0.63219 0.89644 0.0
H146 H 0.11986 0.63041 0.89806 0.0
H147 H 0.27809 0.6715 0.87112 0.0
C148 C 0.26832 0.64469 0.86115 0.0
C149 C 0.16166 0.61755 0.85615 0.0
C150 C 0.13403 0.6218 0.8675 0.0
C151 C 0.19725 0.62216 0.86652 0.0
C152 C 0.20371 0.62913 0.88836 0.0
C153 C 0.17604 0.6322 0.89987 0.0
C154 C 0.1416 0.62859 0.88925 0.0
N155 N 0.22642 0.61977 0.85518 0.0
H156 H 0.98674 0.71848 0.45473 0.0
H157 H 0.94383 0.67403 0.39097 0.0
H158 H 1.06844 0.72505 0.41194 0.0
H159 H 0.88643 0.68415 0.45141 0.0
C160 C 0.90567 0.67387 0.44607 0.0
C161 C 0.99222 0.71223 0.43925 0.0
C162 C 1.03098 0.72309 0.43515 0.0
C163 C 0.96094 0.69518 0.42315 0.0
C164 C 0.96848 0.68806 0.40306 0.0
C165 C 1.00708 0.69764 0.39882 0.0
C166 C 1.03819 0.71592 0.41498 0.0
N167 N 0.92183 0.68591 0.42678 0.0
H168 H 0.42211 0.92943 0.78144 0.0
H169 H 0.42323 0.8936 0.71808 0.0
H170 H 0.50886 1.01173 0.74363 0.0
H171 H 0.34614 0.83118 0.77337 0.0
C172 C 0.37711 0.84933 0.77045 0.0
C173 C 0.43541 0.93611 0.76686 0.0
C174 C 0.46803 0.97397 0.76476 0.0
C175 C 0.41928 0.90712 0.75001 0.0
C176 C 0.43585 0.91611 0.73098 0.0
C177 C 0.46915 0.95347 0.72877 0.0
C178 C 0.48473 0.98216 0.74569 0.0
N179 N 0.38566 0.869 0.75171 0.0
H180 H 0.53972 0.39736 0.1214 0.0
H181 H 0.58591 0.38854 0.06438 0.0
H182 H 0.56182 0.48286 0.07623 0.0
H183 H 0.57157 0.33004 0.1283 0.0
C184 C 0.58368 0.35702 0.12021 0.0
C185 C 0.54969 0.40872 0.10655 0.0
C186 C 0.54895 0.44239 0.10033 0.0
C187 C 0.56299 0.38933 0.09357 0.0
C188 C 0.57529 0.40346 0.0742 0.0
C189 C 0.57637 0.43817 0.06818 0.0
C190 C 0.56283 0.45718 0.08127 0.0
N191 N 0.56525 0.35625 0.10026 0.0
H192 H 0.37399 0.63205 0.14053 0.0
H193 H 0.41949 0.6086 0.13264 0.0
H194 H 0.37714 0.5276 0.18092 0.0
H195 H 0.3308 0.54982 0.18857 0.0
H196 H 0.46767 0.57532 0.17685 0.0
H197 H 0.36798 0.48923 0.10551 0.0
H198 H 0.3816 0.54045 0.10939 0.0
H199 H 0.35077 0.5055 0.12682 0.0
C200 C 0.37444 0.60936 0.14953 0.0
C201 C 0.3485 0.59263 0.16508 0.0
C202 C 0.40061 0.59623 0.14509 0.0
C203 C 0.40139 0.56634 0.15617 0.0
C204 C 0.37701 0.55088 0.17231 0.0
H205 H 0.4794 0.40529 0.11838 0.0
H206 H 0.44595 0.43611 0.13479 0.0
C207 C 0.35068 0.56379 0.1767 0.0
C208 C 0.4251 0.54879 0.14981 0.0
H209 H 0.42722 0.48761 0.11189 0.0
C210 C 0.45902 0.55621 0.16264 0.0
C211 C 0.4132 0.52351 0.13142 0.0
C212 C 0.37627 0.51383 0.11747 0.0
C213 C 0.4818 0.53924 0.15733 0.0
C214 C 0.47015 0.51438 0.13879 0.0
C215 C 0.43598 0.50671 0.12611 0.0
C216 C 0.49308 0.49626 0.13189 0.0
C217 C 0.51779 0.54751 0.17165 0.0
C218 C 0.53092 0.52 0.1252 0.0
C219 C 0.55006 0.5025 0.11583 0.0
C220 C 0.5316 0.46098 0.11297 0.0
C221 C 0.49451 0.43733 0.12057 0.0
C222 C 0.4753 0.45486 0.12984 0.0
H223 H 0.51806 0.56045 0.18724 0.0
H224 H 0.51877 0.5199 0.17354 0.0
H225 H 0.54517 0.56889 0.16475 0.0
H226 H 0.54485 0.55201 0.12641 0.0
H227 H 0.57878 0.52141 0.11024 0.0
H228 H 0.85159 0.36478 0.5407 0.0
H229 H 0.87733 0.4357 0.53765 0.0
H230 H 0.89156 0.42165 0.47294 0.0
H231 H 0.86679 0.35105 0.47597 0.0
H232 H 0.95488 0.4944 0.49576 0.0
H233 H 0.80186 0.46565 0.50484 0.0
H234 H 0.82488 0.45095 0.52497 0.0
H235 H 0.81146 0.42596 0.49941 0.0
C236 C 0.86125 0.37704 0.52598 0.0
C237 C 0.85679 0.35233 0.50849 0.0
C238 C 0.87564 0.41745 0.52424 0.0
C239 C 0.88571 0.43363 0.505 0.0
C240 C 0.88377 0.4096 0.4879 0.0
H241 H 0.92149 0.61751 0.43076 0.0
H242 H 0.92358 0.56536 0.44927 0.0
C243 C 0.86939 0.36928 0.48962 0.0
C244 C 0.8944 0.47438 0.50187 0.0
H245 H 0.84835 0.52835 0.49547 0.0
C246 C 0.93187 0.50217 0.49603 0.0
C247 C 0.86431 0.48436 0.50235 0.0
C248 C 0.82324 0.45522 0.50811 0.0
C249 C 0.93957 0.53925 0.48985 0.0
C250 C 0.90867 0.54825 0.48908 0.0
C251 C 0.87197 0.52134 0.49607 0.0
C252 C 0.91196 0.58296 0.47883 0.0
C253 C 0.98042 0.5681 0.48378 0.0
C254 C 0.90392 0.60983 0.48916 0.0
C255 C 0.90269 0.63988 0.47853 0.0
C256 C 0.90949 0.64348 0.45746 0.0
C257 C 0.91761 0.61657 0.44718 0.0
C258 C 0.91883 0.58664 0.45777 0.0
H259 H 1.00356 0.56343 0.492 0.0
H260 H 0.98096 0.56329 0.46682 0.0
H261 H 0.98825 0.59929 0.48728 0.0
H262 H 0.8979 0.60709 0.50532 0.0
H263 H 0.89595 0.66003 0.48671 0.0
H264 H 0.62106 0.77577 0.88321 0.0
H265 H 0.56985 0.79418 0.87734 0.0
H266 H 0.61488 0.8402 0.81921 0.0
H267 H 0.6658 0.82208 0.8249 0.0
H268 H 0.59369 0.88763 0.84199 0.0
H269 H 0.47333 0.72858 0.83471 0.0
H270 H 0.506 0.74672 0.8584 0.0
H271 H 0.52508 0.7432 0.83445 0.0
C272 C 0.62026 0.79022 0.8693 0.0
C273 C 0.64742 0.79734 0.85449 0.0
C274 C 0.59095 0.8006 0.86596 0.0
C275 C 0.58819 0.8179 0.84767 0.0
C276 C 0.61652 0.82688 0.83344 0.0
H277 H 0.4509 0.86318 0.76162 0.0
H278 H 0.50052 0.85934 0.78479 0.0
C279 C 0.64581 0.8167 0.83679 0.0
C280 C 0.55462 0.82456 0.84234 0.0
H281 H 0.45558 0.77518 0.82506 0.0
C282 C 0.56334 0.86315 0.83866 0.0
C283 C 0.51499 0.79254 0.83812 0.0
C284 C 0.50407 0.75035 0.84147 0.0
C285 C 0.53394 0.87033 0.82981 0.0
C286 C 0.49502 0.83803 0.82429 0.0
C287 C 0.48557 0.79981 0.82928 0.0
C288 C 0.46534 0.84258 0.81102 0.0
C289 C 0.54505 0.91226 0.82574 0.0
C290 C 0.42872 0.83365 0.81798 0.0
C291 C 0.40031 0.8364 0.80478 0.0
C292 C 0.40809 0.84789 0.78445 0.0
C293 C 0.44452 0.85598 0.77744 0.0
C294 C 0.47291 0.85355 0.79065 0.0
H295 H 0.57144 0.93422 0.83625 0.0
H296 H 0.55265 0.91762 0.80947 0.0
H297 H 0.5199 0.91731 0.82778 0.0
H298 H 0.42213 0.82451 0.83356 0.0
H299 H 0.3722 0.82943 0.81041 0.0
H300 H 0.91127 0.65405 0.13119 0.0
H301 H 0.84093 0.60545 0.13148 0.0
H302 H 0.85773 0.60241 0.19795 0.0
H303 H 0.92855 0.65187 0.19788 0.0
H304 H 0.82212 0.52854 0.17678 0.0
H305 H 0.74486 0.60744 0.15044 0.0
H306 H 0.78227 0.61397 0.13382 0.0
H307 H 0.79672 0.63321 0.16065 0.0
C308 C 0.89991 0.64423 0.14601 0.0
C309 C 0.92565 0.65698 0.16452 0.0
C310 C 0.85957 0.61632 0.14614 0.0
C311 C 0.84398 0.60068 0.16477 0.0
C312 C 0.86916 0.6143 0.18342 0.0
H313 H 0.60801 0.38032 0.16133 0.0
H314 H 0.66896 0.44051 0.17662 0.0
C315 C 0.90962 0.6424 0.18332 0.0
C316 C 0.80263 0.56691 0.1641 0.0
H317 H 0.70796 0.53587 0.14321 0.0
C318 C 0.79686 0.53026 0.16999 0.0
C319 C 0.76977 0.56931 0.15531 0.0
C320 C 0.77364 0.60824 0.14991 0.0
C321 C 0.7597 0.49536 0.16576 0.0
C322 C 0.72765 0.49742 0.15551 0.0
C323 C 0.73274 0.53442 0.15094 0.0
C324 C 0.69046 0.46133 0.14692 0.0
C325 C 0.75568 0.45622 0.17087 0.0
C326 C 0.68248 0.4534 0.12528 0.0
C327 C 0.64802 0.41941 0.11663 0.0
C328 C 0.62052 0.39293 0.12946 0.0
C329 C 0.62869 0.40053 0.15116 0.0
C330 C 0.66337 0.43473 0.15986 0.0
H331 H 0.78428 0.45962 0.17765 0.0
H332 H 0.73343 0.44242 0.18226 0.0
H333 H 0.74491 0.43562 0.15662 0.0
H334 H 0.70328 0.47334 0.11505 0.0
H335 H 0.64335 0.41361 0.09988 0.0
H336 H 0.37356 0.94951 0.53036 0.0
H337 H 0.30579 0.89872 0.53643 0.0
H338 H 0.29493 0.83511 0.47831 0.0
H339 H 0.36268 0.88452 0.4727 0.0
H340 H 0.2453 0.88969 0.51278 0.0
H341 H 0.23161 0.74335 0.51089 0.0
H342 H 0.2795 0.78838 0.51576 0.0
H343 H 0.25831 0.76782 0.48947 0.0
C344 C 0.35719 0.92382 0.51933 0.0
C345 C 0.37312 0.92123 0.50089 0.0
C346 C 0.31846 0.89486 0.52279 0.0
C347 C 0.29523 0.86279 0.50795 0.0
C348 C 0.31236 0.85885 0.49031 0.0
H349 H 1.0996 0.79233 0.43306 0.0
H350 H 0.15824 0.82365 0.45838 0.0
C351 C 0.35095 0.88758 0.4869 0.0
C352 C 0.25142 0.83819 0.50835 0.0
H353 H 0.17471 0.74571 0.49163 0.0
C354 C 0.22976 0.85791 0.50897 0.0
C355 C 0.23062 0.79655 0.50392 0.0
C356 C 0.25139 0.77291 0.50524 0.0
C357 C 0.1889 0.83809 0.50249 0.0
C358 C 0.16956 0.79787 0.49488 0.0
C359 C 0.18986 0.77688 0.49698 0.0
C360 C 0.13206 0.78001 0.48095 0.0
C361 C 0.16747 0.86114 0.5023 0.0
C362 C 1.09798 0.7448 0.48515 0.0
C363 C 1.06423 0.72681 0.4706 0.0
C364 C 1.06468 0.74344 0.45155 0.0
C365 C 1.09863 0.77891 0.4476 0.0
C366 C 0.13195 0.79697 0.46214 0.0
H367 H 0.18065 0.88516 0.51506 0.0
H368 H 0.17061 0.8752 0.48735 0.0
H369 H 0.13525 0.84157 0.50391 0.0
H370 H 1.09775 0.73105 0.49948 0.0
H371 H 1.03838 0.69926 0.47387 0.0
H372 H 0.64251 0.32503 0.81129 0.0
H373 H 0.61849 0.25392 0.81132 0.0
H374 H 0.52647 0.23933 0.84943 0.0
H375 H 0.5499 0.31028 0.84927 0.0
H376 H 0.5974 0.19606 0.84664 0.0
H377 H 0.47208 0.17523 0.79029 0.0
H378 H 0.51771 0.22243 0.79516 0.0
H379 H 0.48267 0.20492 0.81427 0.0
C380 C 0.61757 0.30677 0.81996 0.0
C381 C 0.59783 0.32313 0.83009 0.0
C382 C 0.60412 0.26629 0.8201 0.0
C383 C 0.57066 0.24155 0.83028 0.0
C384 C 0.5524 0.2581 0.84151 0.0
H385 H 0.42434 0.99114 0.79003 0.0
H386 H 0.44789 1.05168 0.81239 0.0
C387 C 0.56593 0.29863 0.84145 0.0
C388 C 0.55195 0.1981 0.82674 0.0
H389 H 0.4773 0.11955 0.79638 0.0
C390 C 0.5708 0.17904 0.8359 0.0
C391 C 0.51714 0.17614 0.81285 0.0
C392 C 0.49611 0.19552 0.80243 0.0
C393 C 0.55621 0.13849 0.83104 0.0
C394 C 0.52264 0.11699 0.81621 0.0
C395 C 0.50291 0.13588 0.80781 0.0
C396 C 0.50992 0.07653 0.8072 0.0
C397 C 0.57711 0.11932 0.84173 0.0
C398 C 0.5371 0.06954 0.79752 0.0
C399 C 0.52381 1.03463 0.78504 0.0
C400 C 0.48292 1.00636 0.78158 0.0
C401 C 0.45605 1.01213 0.79243 0.0
C402 C 0.46946 1.04689 0.80514 0.0
H403 H 0.59034 0.13369 0.85762 0.0
H404 H 0.55653 0.08715 0.84291 0.0
H405 H 0.60182 0.1231 0.83275 0.0
H406 H 0.5683 0.09215 0.79843 0.0
H407 H 0.54537 1.03076 0.77719 0.0
H408 H 0.70192 1.03709 0.50874 0.0
H409 H 0.70139 0.9746 0.51193 0.0
H410 H 0.57662 0.9095 0.48956 0.0
H411 H 0.57658 0.97173 0.48743 0.0
H412 H 0.68956 0.91549 0.48747 0.0
H413 H 0.56975 0.85314 0.53977 0.0
H414 H 0.55298 0.86357 0.51554 0.0
H415 H 0.59181 0.90358 0.53277 0.0
C416 C 0.67429 1.00946 0.50456 0.0
C417 C 0.63918 1.0097 0.49806 0.0
C418 C 0.67401 0.97353 0.50636 0.0
C419 C 0.63872 0.93668 0.50152 0.0
C420 C 0.60402 0.93704 0.4942 0.0
H421 H 0.63021 0.73148 0.55414 0.0
H422 H 0.63509 0.79415 0.54646 0.0
C423 C 0.60409 0.9729 0.49281 0.0
C424 C 0.63825 0.89819 0.50426 0.0
H425 H 0.58837 0.80896 0.52572 0.0
C426 C 0.66749 0.89231 0.49594 0.0
C427 C 0.60996 0.86766 0.51554 0.0
C428 C 0.57966 0.87243 0.5266 0.0
C429 C 0.66922 0.85736 0.49855 0.0
C430 C 0.64006 0.82631 0.50923 0.0
C431 C 0.61072 0.83218 0.51738 0.0
C432 C 0.64054 0.78872 0.51357 0.0
C433 C 0.70328 0.85493 0.49046 0.0
C434 C 0.64277 0.76412 0.49786 0.0
C435 C 0.64108 0.72817 0.50246 0.0
C436 C 0.63607 0.71556 0.52276 0.0
C437 C 0.63409 0.74023 0.53832 0.0
C438 C 0.63666 0.7762 0.53389 0.0
H439 H 0.72881 0.88482 0.48838 0.0
H440 H 0.71392 0.83979 0.50115 0.0
H441 H 0.69311 0.8379 0.47505 0.0
H442 H 0.64467 0.77202 0.48191 0.0
H443 H 0.64211 0.70962 0.49003 0.0
H444 H 0.76889 0.54355 0.81692 0.0
H445 H 0.83262 0.54496 0.82059 0.0
H446 H 0.89024 0.66365 0.84981 0.0
H447 H 0.82691 0.66237 0.84648 0.0
H448 H 0.90652 0.59404 0.80606 0.0
H449 H 0.9222 0.60775 0.89218 0.0
H450 H 0.87613 0.59472 0.87698 0.0
H451 H 0.91557 0.6457 0.88102 0.0
C452 C 0.79509 0.57003 0.82416 0.0
C453 C 0.7923 0.60274 0.83154 0.0
C454 C 0.83167 0.57079 0.8262 0.0
C455 C 0.86647 0.60414 0.83583 0.0
C456 C 0.8639 0.63713 0.84276 0.0
H457 H 0.11343 0.67822 0.87174 0.0
H458 H 1.04895 0.67243 0.86213 0.0
C459 C 0.82746 0.63643 0.84072 0.0
C460 C 0.90533 0.60458 0.83881 0.0
H461 H 0.97939 0.61898 0.87599 0.0
C462 C 0.92228 0.5992 0.82137 0.0
C463 C 0.92615 0.61107 0.85877 0.0
C464 C 0.90895 0.61474 0.87833 0.0
C465 C 0.95985 0.60165 0.82329 0.0
C466 C 0.98105 0.60907 0.84323 0.0
C467 C 0.96362 0.6136 0.86065 0.0
C468 C 1.02184 0.61368 0.84658 0.0
C469 C 0.9771 0.59763 0.80384 0.0
C470 C 1.02911 0.58308 0.84063 0.0
C471 C 1.06653 0.58657 0.846 0.0
C472 C 1.09738 0.62059 0.85759 0.0
C473 C 1.09044 0.65168 0.86273 0.0
C474 C 1.05336 0.64827 0.85734 0.0
H475 H 0.96227 0.602 0.78969 0.0
H476 H 1.00955 0.61937 0.80477 0.0
H477 H 0.97283 0.5674 0.8021 0.0
H478 H 1.00534 0.55572 0.83266 0.0
H479 H 1.07057 0.56179 0.84213 0.0
H480 H 0.24762 0.81653 0.14887 0.0
H481 H 0.31144 0.87898 0.15335 0.0
H482 H 0.36533 0.82112 0.1864 0.0
H483 H 0.30145 0.75866 0.1823 0.0
H484 H 0.38557 0.90238 0.14123 0.0
H485 H 0.39461 0.91404 0.22737 0.0
H486 H 0.38992 0.8689 0.21665 0.0
H487 H 0.34981 0.87857 0.2115 0.0
C488 C 0.27297 0.81692 0.15712 0.0
C489 C 0.26891 0.78224 0.16537 0.0
C490 C 0.30966 0.85284 0.15963 0.0
C491 C 0.34344 0.85534 0.17055 0.0
C492 C 0.33975 0.82054 0.17834 0.0
H493 H 0.52862 0.09597 0.21311 0.0
H494 H 0.46667 1.0335 0.20327 0.0
C495 C 0.30305 0.78459 0.17586 0.0
C496 C 0.38212 0.89435 0.17398 0.0
H497 H 0.45123 0.96127 0.21204 0.0
C498 C 0.39991 0.91521 0.15673 0.0
C499 C 0.40094 0.91171 0.19418 0.0
C500 C 0.38273 0.89241 0.2135 0.0
C501 C 0.43573 0.95239 0.1591 0.0
C502 C 0.45492 0.96933 0.1793 0.0
C503 C 0.437 0.94849 0.19652 0.0
C504 C 0.49253 1.00925 0.18321 0.0
C505 C 0.45206 0.97367 0.13994 0.0
C506 C 0.52816 1.01754 0.17488 0.0
C507 C 0.56391 1.05383 0.18038 0.0
C508 C 0.56497 0.0825 0.19453 0.0
C509 C 0.52898 0.07466 0.20218 0.0
C510 C 0.49344 1.0387 0.19663 0.0
H511 H 0.42896 0.96221 0.12642 0.0
H512 H 0.46415 1.00604 0.14277 0.0
H513 H 0.47661 0.9691 0.13576 0.0
H514 H 0.52879 0.99532 0.1648 0.0
H515 H 0.59112 1.05853 0.17449 0.0
H516 H 0.69654 0.26006 0.51842 0.0
H517 H 0.69809 0.32341 0.52077 0.0
H518 H 0.58937 0.27247 0.47981 0.0
H519 H 0.5874 0.20886 0.47751 0.0
H520 H 0.70166 0.37392 0.49068 0.0
H521 H 0.56161 0.31995 0.52813 0.0
H522 H 0.58602 0.29139 0.5262 0.0
H523 H 0.55635 0.29288 0.50404 0.0
C524 C 0.67277 0.26212 0.50994 0.0
C525 C 0.64163 0.22884 0.4979 0.0
C526 C 0.67378 0.29861 0.51127 0.0
C527 C 0.6435 0.30299 0.50079 0.0
C528 C 0.6127 0.27 0.48847 0.0
H529 H 0.60237 0.50695 0.50366 0.0
H530 H 0.5986 0.44377 0.49351 0.0
C531 C 0.61175 0.23351 0.48706 0.0
C532 C 0.64453 0.34206 0.50264 0.0
H533 H 0.59306 0.38614 0.51878 0.0
C534 C 0.67783 0.37645 0.49681 0.0
C535 C 0.61346 0.34585 0.51049 0.0
C536 C 0.57746 0.31069 0.51776 0.0
C537 C 0.68084 0.41401 0.49857 0.0
C538 C 0.65022 0.41798 0.50689 0.0
C539 C 0.61659 0.38348 0.51234 0.0
C540 C 0.65378 0.45781 0.51137 0.0
C541 C 0.71666 0.4491 0.49113 0.0
C542 C 0.68609 0.4873 0.5246 0.0
C543 C 0.6884 0.52337 0.53022 0.0
C544 C 0.65828 0.53124 0.52302 0.0
C545 C 0.6264 0.50228 0.50927 0.0
C546 C 0.62405 0.46591 0.50363 0.0
H547 H 0.731 0.43968 0.47981 0.0
H548 H 0.70834 0.4695 0.48373 0.0
H549 H 0.73898 0.46575 0.50461 0.0
H550 H 0.709 0.48193 0.5313 0.0
H551 H 0.71332 0.54476 0.5409 0.0
H552 H 0.60216 0.66769 0.82983 0.0
H553 H 0.54217 0.67142 0.83352 0.0
H554 H 0.47389 0.54456 0.83609 0.0
H555 H 0.53404 0.54073 0.83301 0.0
H556 H 0.47197 0.64149 0.81011 0.0
H557 H 0.44195 0.57846 0.88684 0.0
H558 H 0.48805 0.59307 0.87576 0.0
H559 H 0.44419 0.54611 0.86743 0.0
C560 C 0.57447 0.64049 0.83125 0.0
C561 C 0.57337 0.60389 0.83125 0.0
C562 C 0.53996 0.64268 0.83332 0.0
C563 C 0.50317 0.60839 0.83549 0.0
C564 C 0.50182 0.57171 0.83504 0.0
H565 H 0.2617 0.57546 0.84329 0.0
H566 H 0.3168 0.56463 0.83562 0.0
C567 C 0.53639 0.56951 0.83309 0.0
C568 C 0.46644 0.6111 0.83803 0.0
H569 H 0.39201 0.58824 0.86978 0.0
C570 C 0.45463 0.62984 0.8232 0.0
C571 C 0.44336 0.59602 0.85509 0.0
C572 C 0.45518 0.57764 0.8723 0.0
C573 C 0.42071 0.63356 0.82489 0.0
C574 C 0.39771 0.61834 0.84185 0.0
C575 C 0.40923 0.59945 0.85661 0.0
C576 C 0.36363 0.62465 0.84541 0.0
C577 C 0.40907 0.65321 0.80834 0.0
C578 C 0.37137 0.66185 0.85343 0.0
C579 C 0.34012 0.66791 0.85795 0.0
C580 C 0.30007 0.63712 0.85442 0.0
C581 C 0.29209 0.59993 0.84601 0.0
C582 C 0.32362 0.5937 0.8417 0.0
H583 H 0.42892 0.66209 0.79562 0.0
H584 H 0.37793 0.63264 0.80162 0.0
H585 H 0.41007 0.67998 0.81533 0.0
H586 H 0.4018 0.68616 0.85656 0.0
H587 H 0.34741 0.69686 0.8645 0.0
H588 H 1.01874 0.59086 0.17886 0.0
H589 H 0.9585 0.52736 0.18254 0.0
H590 H 1.0035 0.46709 0.14621 0.0
H591 H 1.06458 0.53026 0.14338 0.0
H592 H 0.89916 0.4716 0.15819 0.0
H593 H 0.97995 0.40307 0.19482 0.0
H594 H 1.00478 0.45479 0.18999 0.0
H595 H 0.99448 0.41776 0.16942 0.0
C596 C 1.01587 0.56409 0.17164 0.0
C597 C 1.04696 0.56585 0.161 0.0
C598 C 0.98121 0.52761 0.17374 0.0
C599 C 0.97637 0.49176 0.16514 0.0
C600 C 1.00668 0.49377 0.1537 0.0
H601 H 0.80816 0.28134 0.22107 0.0
H602 H 0.86177 0.34461 0.21187 0.0
C603 C 1.04165 0.53014 0.15192 0.0
C604 C 0.94013 0.45254 0.16846 0.0
H605 H 0.91099 0.36058 0.18535 0.0
C606 C 0.90181 0.44737 0.16419 0.0
C607 C 0.94306 0.42068 0.17654 0.0
C608 C 0.98276 0.42442 0.18317 0.0
C609 C 0.86687 0.41183 0.16783 0.0
C610 C 0.86984 0.37965 0.17542 0.0
C611 C 0.90816 0.38477 0.17942 0.0
C612 C 0.8345 0.34157 0.18097 0.0
C613 C 0.82732 0.40989 0.16421 0.0
C614 C 0.80017 0.31808 0.16692 0.0
C615 C 0.76853 0.28171 0.17247 0.0
C616 C 0.77105 0.26765 0.19199 0.0
C617 C 0.80522 0.29118 0.20589 0.0
C618 C 0.83615 0.32752 0.20057 0.0
H619 H 0.83107 0.43994 0.16385 0.0
H620 H 0.81209 0.39354 0.14896 0.0
H621 H 0.8078 0.39421 0.17651 0.0
H622 H 0.79814 0.32725 0.15148 0.0
H623 H 0.74285 0.26413 0.1613 0.0
H624 H 0.13495 0.68778 0.08783 0.0
H625 H 0.14354 0.68242 0.051 0.0
H626 H 0.22276 0.63834 0.06634 0.0
H627 H 0.21465 0.6438 0.10339 0.0
H628 H 0.22545 0.71924 0.03248 0.0
H629 H 0.12753 0.55498 0.02071 0.0
H630 H 0.12173 0.58366 0.04115 0.0
H631 H 0.16338 0.57607 0.04334 0.0
C632 C 0.15424 0.67693 0.08345 0.0
C633 C 0.17404 0.66613 0.09861 0.0
C634 C 0.15916 0.67399 0.06238 0.0
C635 C 0.1836 0.65982 0.05599 0.0
C636 C 0.20361 0.64917 0.071 0.0
H637 H 0.20499 0.59879 0.92771 0.0
H638 H 0.21228 0.60764 0.96578 0.0
C639 C 0.19899 0.65241 0.09215 0.0
C640 C 0.18787 0.6562 0.03356 0.0
H641 H 0.155 0.58907 0.99139 0.0
C642 C 0.21032 0.6908 0.02348 0.0
C643 C 0.16837 0.61903 0.02197 0.0
C644 C 0.1437 0.58115 0.03219 0.0
C645 C 0.21342 0.68927 0.00197 0.0
C646 C 0.1925 0.65219 0.99015 0.0
C647 C 0.17095 0.61748 0.0004 0.0
C648 C 0.19079 0.64889 0.96704 0.0
C649 C 0.2393 0.7274 0.9922 0.0
C650 C 0.17632 0.6691 0.95503 0.0
C651 C 0.17262 0.6645 0.93331 0.0
C652 C 0.18267 0.63903 0.92302 0.0
C653 C 0.19746 0.61902 0.93508 0.0
C654 C 0.20137 0.62382 0.95686 0.0
H655 H 0.26312 0.74993 0.00374 0.0
H656 H 0.25341 0.72247 0.97899 0.0
H657 H 0.22073 0.73977 0.9863 0.0
H658 H 0.16707 0.68789 0.96246 0.0
H659 H 0.16155 0.68075 0.92458 0.0
H660 H 0.6165 0.07852 0.4225 0.0
H661 H 0.62527 0.09021 0.38597 0.0
H662 H 0.72169 0.20941 0.40317 0.0
H663 H 0.71301 0.198 0.44016 0.0
H664 H 0.6625 0.20291 0.37172 0.0
H665 H 0.71519 0.0993 0.35264 0.0
H666 H 0.67099 0.077 0.36598 0.0
H667 H 0.71668 0.11693 0.37904 0.0
C668 C 0.63987 0.1072 0.41863 0.0
C669 C 0.66409 0.13735 0.43431 0.0
C670 C 0.64497 0.11372 0.39769 0.0
C671 C 0.67443 0.15047 0.39185 0.0
C672 C 0.69894 0.18071 0.40738 0.0
H673 H 0.71504 0.17424 0.25992 0.0
H674 H 0.72638 0.17894 0.29791 0.0
C675 C 0.69402 0.17411 0.42848 0.0
C676 C 0.67781 0.15732 0.36942 0.0
H677 H 0.68873 0.11912 0.32382 0.0
C678 C 0.66884 0.18506 0.36126 0.0
C679 C 0.68647 0.1343 0.35582 0.0
C680 C 0.69827 0.10547 0.36381 0.0
C681 C 0.66638 0.18897 0.33973 0.0
C682 C 0.67255 0.16412 0.32602 0.0
C683 C 0.68351 0.13783 0.33429 0.0
C684 C 0.66632 0.16372 0.30303 0.0
C685 C 0.65686 0.21943 0.33184 0.0
C686 C 0.62873 0.15342 0.29325 0.0
C687 C 0.62218 0.15085 0.27155 0.0
C688 C 0.65307 0.15833 0.25913 0.0
C689 C 0.69076 0.16883 0.269 0.0
C690 C 0.69725 0.17133 0.29071 0.0
H691 H 0.66474 0.24346 0.34409 0.0
H692 H 0.67293 0.23284 0.3181 0.0
H693 H 0.62439 0.20488 0.32713 0.0
H694 H 0.60418 0.14662 0.30241 0.0
H695 H 0.5929 0.14296 0.26448 0.0
H696 H 0.6464 0.55253 0.75725 0.0
H697 H 0.64863 0.55763 0.71989 0.0
H698 H 0.72522 0.68459 0.72998 0.0
H699 H 0.72453 0.67933 0.76776 0.0
H700 H 0.62233 0.59181 0.6952 0.0
H701 H 0.78471 0.66081 0.68973 0.0
H702 H 0.76243 0.64166 0.71336 0.0
H703 H 0.77215 0.68964 0.70627 0.0
C704 C 0.66396 0.58158 0.75157 0.0
C705 C 0.68529 0.61557 0.76546 0.0
C706 C 0.66522 0.58446 0.73016 0.0
C707 C 0.68741 0.62142 0.72201 0.0
C708 C 0.70869 0.65558 0.73584 0.0
H709 H 0.6338 0.63806 0.59008 0.0
H710 H 0.64179 0.64636 0.62791 0.0
C711 C 0.70805 0.65261 0.75742 0.0
C712 C 0.68649 0.62364 0.69902 0.0
H713 H 0.74474 0.65389 0.65869 0.0
C714 C 0.64916 0.60538 0.68724 0.0
C715 C 0.72144 0.64098 0.68855 0.0
C716 C 0.76244 0.65904 0.70009 0.0
C717 C 0.64568 0.60328 0.66542 0.0
C718 C 0.68059 0.62151 0.65495 0.0
C719 C 0.71798 0.64023 0.66669 0.0
C720 C 0.67885 0.62004 0.63182 0.0
C721 C 0.60453 0.58004 0.65389 0.0
C722 C 0.69889 0.60457 0.62127 0.0
C723 C 0.69557 0.60106 0.5995 0.0
C724 C 0.67179 0.61259 0.58775 0.0
C725 C 0.65266 0.62911 0.59844 0.0
C726 C 0.65663 0.63328 0.62019 0.0
H727 H 0.58265 0.55836 0.66374 0.0
H728 H 0.59419 0.60076 0.64943 0.0
H729 H 0.60449 0.56368 0.63955 0.0
H730 H 0.71658 0.59451 0.62988 0.0
H731 H 0.7116 0.58916 0.59193 0.0
H732 H 0.65992 0.07771 0.56436 0.0
H733 H 0.63741 1.05062 0.59776 0.0
H734 H 0.53845 0.07028 0.58824 0.0
H735 H 0.56047 0.09723 0.55498 0.0
H736 H 0.58504 0.09667 0.62962 0.0
H737 H 0.53238 0.94001 0.60259 0.0
H738 H 0.58182 0.97713 0.59746 0.0
H739 H 0.53952 0.97719 0.58474 0.0
C740 C 0.63358 0.0766 0.56947 0.0
C741 C 0.61194 0.08955 0.55699 0.0
C742 C 0.62065 1.06089 0.58846 0.0
C743 C 0.58607 1.05811 0.59527 0.0
C744 C 0.56511 0.07204 0.58316 0.0
H745 H 0.43086 0.93611 0.6893 0.0
H746 H 0.46101 0.95962 0.65682 0.0
C747 C 0.57778 0.08743 0.56416 0.0
C748 C 0.57128 1.04053 0.61497 0.0
H749 H 0.52511 0.95246 0.6375 0.0
C750 C 0.5722 1.06522 0.63144 0.0
C751 C 0.55415 0.99941 0.61709 0.0
C752 C 0.55153 0.97164 0.59954 0.0
C753 C 0.55635 1.04981 0.65005 0.0
C754 C 0.53936 1.00871 0.65223 0.0
C755 C 0.5384 0.98398 0.63576 0.0
C756 C 0.52159 0.99101 0.6714 0.0
C757 C 0.55704 0.0774 0.66712 0.0
C758 C 0.54584 0.99992 0.69013 0.0
C759 C 0.5288 0.98636 0.70863 0.0
C760 C 0.48714 0.96369 0.70873 0.0
C761 C 0.46301 0.95328 0.68973 0.0
C762 C 0.48015 0.96681 0.6712 0.0
H763 H 0.56461 0.10677 0.66158 0.0
H764 H 0.5277 1.06422 0.67349 0.0
H765 H 0.57971 0.08211 0.68 0.0
H766 H 0.57793 1.01811 0.69051 0.0
H767 H 0.54823 0.99423 0.72294 0.0
H768 H 0.69332 0.53378 0.88825 0.0
H769 H 0.67946 0.51317 0.92339 0.0
H770 H 0.64509 0.60041 0.93463 0.0
H771 H 0.65873 0.62128 0.89923 0.0
H772 H 0.70992 0.55774 0.96319 0.0
H773 H 0.54628 0.49172 0.94511 0.0
H774 H 0.57978 0.50447 0.92508 0.0
H775 H 0.57703 0.54266 0.93961 0.0
C776 C 0.68309 0.54887 0.8982 0.0
C777 C 0.67674 0.57893 0.89089 0.0
C778 C 0.67529 0.53709 0.9183 0.0
C779 C 0.66079 0.55492 0.93144 0.0
C780 C 0.65581 0.58598 0.92456 0.0
H781 H 0.62733 0.51565 0.06198 0.0
H782 H 0.64922 0.54457 0.02901 0.0
C783 C 0.66381 0.59798 0.9044 0.0
C784 C 0.64949 0.5396 0.95201 0.0
H785 H 0.56912 0.48778 0.97923 0.0
C786 C 0.67921 0.54266 0.9668 0.0
C787 C 0.60928 0.51939 0.95643 0.0
C788 C 0.57608 0.51397 0.94072 0.0
C789 C 0.66974 0.52608 0.986 0.0
C790 C 0.62959 0.50622 0.99049 0.0
C791 C 0.59988 0.50312 0.9757 0.0
C792 C 0.61769 0.48847 0.01051 0.0
C793 C 0.70258 0.52912 0.00115 0.0
C794 C 0.59248 0.44736 0.01095 0.0
C795 C 0.57977 0.43074 0.02977 0.0
C796 C 0.59171 0.45509 0.04837 0.0
C797 C 0.61735 0.4962 0.04785 0.0
C798 C 0.63016 0.51274 0.02908 0.0
H799 H 0.73007 0.53727 0.99355 0.0
H800 H 0.71003 0.55234 0.01377 0.0
H801 H 0.69289 0.50065 0.00836 0.0
H802 H 0.58243 0.42821 -0.00329 0.0
H803 H 0.55976 0.39904 0.02968 0.0
H804 H 1.08562 0.61503 0.21693 0.0
H805 H 1.05547 0.61381 0.24904 0.0
H806 H 0.14645 0.73591 0.26549 0.0
H807 H 0.1747 0.73789 0.2326 0.0
H808 H 1.07596 0.62038 0.28739 0.0
H809 H 1.05286 0.7458 0.27291 0.0
H810 H 1.0691 0.72476 0.25342 0.0
H811 H 0.10464 0.76172 0.27315 0.0
C812 C 1.09919 0.6415 0.22751 0.0
C813 C 0.13235 0.6766 0.22241 0.0
C814 C 1.08191 0.64086 0.2458 0.0
C815 C 1.09795 0.6751 0.2595 0.0
C816 C 0.13245 0.70959 0.25483 0.0
H817 H 1.06115 0.67602 0.38891 0.0
H818 H 1.07965 0.66864 0.35478 0.0
C819 C 0.14896 0.71059 0.23622 0.0
C820 C 1.07897 0.67454 0.27875 0.0
H821 H 1.04993 0.72751 0.3082 0.0
C822 C 1.06981 0.64357 0.29178 0.0
C823 C 1.06965 0.70401 0.2843 0.0
C824 C 1.07414 0.73561 0.27005 0.0
C825 C 1.05306 0.64207 0.31049 0.0
C826 C 1.04723 0.67353 0.31694 0.0
C827 C 1.05498 0.70368 0.30353 0.0
C828 C 1.03475 0.67679 0.33778 0.0
C829 C 1.04124 0.60631 0.32285 0.0
C830 C 1.00428 0.68548 0.33987 0.0
C831 C 0.99487 0.69179 0.35958 0.0
C832 C 1.01541 0.68907 0.37769 0.0
C833 C 1.04516 0.67929 0.37546 0.0
C834 C 1.05522 0.67405 0.35581 0.0
H835 H 1.03261 0.5795 0.31246 0.0
H836 H 1.06709 0.61159 0.33367 0.0
H837 H 1.01595 0.60009 0.33198 0.0
H838 H 0.98816 0.68804 0.32622 0.0
H839 H 0.97222 0.69981 0.36056 0.0
loop_
_geom_bond_atom_site_label_1
_geom_bond_atom_site_label_2
_geom_bond_distance
_geom_bond_site_symmetry_2
_ccdc_geom_bond_type
Tb0 C10 2.825 . S
Tb0 O11 2.347 . S
Tb0 O14 2.366 . S
Tb0 O19 2.418 . S
Tb0 O20 2.384 . S
Tb0 O23 2.479 . S
Tb0 O24 2.471 . S
Eu1 O12 2.418 . S
Eu1 O13 2.384 . S
Eu1 O16 2.479 1_455 S
Eu1 O17 2.471 1_455 S
Eu1 O18 2.347 . S
Eu1 O21 2.366 1_455 S
Eu1 C31 2.825 1_455 S
C2 O18 1.259 . S
C2 O19 1.265 . S
C3 O20 1.255 1_655 S
C3 O21 1.265 . S
C4 C6 1.380 . S
C4 C7 1.374 . S
C4 C10 1.507 . S
C5 C6 1.384 . S
C5 C9 1.387 . S
C5 H32 0.930 . S
C6 C4 1.380 . S
C6 C5 1.384 . S
C6 H33 0.931 . S
C7 C4 1.374 . S
C7 C8 1.390 . S
C7 H34 0.930 . S
C8 C7 1.390 . S
C8 C9 1.391 . S
C8 H35 0.930 . S
C9 C5 1.387 . S
C9 C8 1.391 . S
C10 Tb0 2.825 . S
C10 C4 1.507 . S
C10 O23 1.238 . S
C10 O24 1.247 . S
O11 Tb0 2.347 . S
O11 C15 1.259 . S
O12 Eu1 2.418 . S
O12 C15 1.265 . S
O13 Eu1 2.384 . S
O13 C22 1.255 . S
O14 Tb0 2.366 . S
O14 C22 1.265 . S
C15 O11 1.259 . S
C15 O12 1.265 . S
O16 Eu1 2.479 1_655 S
O16 C31 1.238 . S
O17 Eu1 2.471 1_655 S
O17 C31 1.247 . S
O18 Eu1 2.347 . S
O18 C2 1.259 . S
O19 Tb0 2.418 . S
O19 C2 1.265 . S
O20 Tb0 2.384 . S
O20 C3 1.255 1_455 S
O21 Eu1 2.366 1_655 S
O21 C3 1.265 . S
C22 O13 1.255 . S
C22 O14 1.265 . S
O23 Tb0 2.479 . S
O23 C10 1.238 . S
O24 Tb0 2.471 . S
O24 C10 1.247 . S
C25 C28 1.380 . S
C25 C29 1.374 . S
C25 C31 1.507 . S
C26 C27 1.387 . S
C26 C30 1.391 . S
C27 C26 1.387 . S
C27 C28 1.384 . S
C27 H36 0.930 . S
C28 C25 1.380 . S
C28 C27 1.384 . S
C28 H37 0.931 . S
C29 C25 1.374 . S
C29 C30 1.390 . S
C29 H38 0.930 . S
C30 C26 1.391 . S
C30 C29 1.390 . S
C30 H39 0.930 . S
C31 Eu1 2.825 1_655 S
C31 O16 1.238 . S
C31 O17 1.247 . S
C31 C25 1.507 . S
H32 C5 0.930 . S
H33 C6 0.931 . S
H34 C7 0.930 . S
H35 C8 0.930 . S
H36 C27 0.930 . S
H37 C28 0.931 . S
H38 C29 0.930 . S
H39 C30 0.930 . S
Tb40 C50 2.825 . S
Tb40 O51 2.347 . S
Tb40 O54 2.366 . S
Tb40 O59 2.418 . S
Tb40 O60 2.384 . S
Tb40 O63 2.479 . S
Tb40 O64 2.471 . S
Eu41 O52 2.418 . S
Eu41 O53 2.384 . S
Eu41 O56 2.479 1_545 S
Eu41 O57 2.471 1_545 S
Eu41 O58 2.347 . S
Eu41 O61 2.366 1_545 S
Eu41 C71 2.825 1_545 S
C42 O58 1.259 . S
C42 O59 1.265 . S
C43 O60 1.255 1_565 S
C43 O61 1.265 . S
C44 C46 1.380 . S
C44 C47 1.374 . S
C44 C50 1.507 . S
C45 C46 1.384 . S
C45 C49 1.387 . S
C45 H72 0.930 . S
C46 C44 1.380 . S
C46 C45 1.384 . S
C46 H73 0.931 . S
C47 C44 1.374 . S
C47 C48 1.390 . S
C47 H74 0.930 . S
C48 C47 1.390 . S
C48 C49 1.391 . S
C48 H75 0.930 . S
C49 C45 1.387 . S
C49 C48 1.391 . S
C50 Tb40 2.825 . S
C50 C44 1.507 . S
C50 O63 1.238 . S
C50 O64 1.247 . S
O51 Tb40 2.347 . S
O51 C55 1.259 . S
O52 Eu41 2.418 . S
O52 C55 1.265 . S
O53 Eu41 2.384 . S
O53 C62 1.255 . S
O54 Tb40 2.366 . S
O54 C62 1.265 . S
C55 O51 1.259 . S
C55 O52 1.265 . S
O56 Eu41 2.479 1_565 S
O56 C71 1.238 . S
O57 Eu41 2.471 1_565 S
O57 C71 1.247 . S
O58 Eu41 2.347 . S
O58 C42 1.259 . S
O59 Tb40 2.418 . S
O59 C42 1.265 . S
O60 Tb40 2.384 . S
O60 C43 1.255 1_545 S
O61 Eu41 2.366 1_565 S
O61 C43 1.265 . S
C62 O53 1.255 . S
C62 O54 1.265 . S
O63 Tb40 2.479 . S
O63 C50 1.238 . S
O64 Tb40 2.471 . S
O64 C50 1.247 . S
C65 C68 1.380 . S
C65 C69 1.374 . S
C65 C71 1.507 . S
C66 C67 1.387 . S
C66 C70 1.391 . S
C67 C66 1.387 . S
C67 C68 1.384 . S
C67 H76 0.930 . S
C68 C65 1.380 . S
C68 C67 1.384 . S
C68 H77 0.931 . S
C69 C65 1.374 . S
C69 C70 1.390 . S
C69 H78 0.930 . S
C70 C66 1.391 . S
C70 C69 1.390 . S
C70 H79 0.930 . S
C71 Eu41 2.825 1_565 S
C71 O56 1.238 . S
C71 O57 1.247 . S
C71 C65 1.507 . S
H72 C45 0.930 . S
H73 C46 0.931 . S
H74 C47 0.930 . S
H75 C48 0.930 . S
H76 C67 0.930 . S
H77 C68 0.931 . S
H78 C69 0.930 . S
H79 C70 0.930 . S
Tb80 C90 2.825 . S
Tb80 O91 2.347 . S
Tb80 O94 2.366 . S
Tb80 O99 2.418 . S
Tb80 O100 2.384 . S
Tb80 O103 2.479 . S
Tb80 O104 2.471 . S
Eu81 O92 2.418 . S
Eu81 O93 2.384 . S
Eu81 O96 2.479 . S
Eu81 O97 2.471 . S
Eu81 O98 2.347 . S
Eu81 O101 2.366 . S
Eu81 C111 2.825 . S
C82 O98 1.259 . S
C82 O99 1.265 . S
C83 O100 1.255 . S
C83 O101 1.265 . S
C84 C86 1.380 . S
C84 C87 1.374 . S
C84 C90 1.507 . S
C85 C86 1.384 . S
C85 C89 1.387 . S
C85 H112 0.930 . S
C86 C84 1.380 . S
C86 C85 1.384 . S
C86 H113 0.931 . S
C87 C84 1.374 . S
C87 C88 1.390 . S
C87 H114 0.930 . S
C88 C87 1.390 . S
C88 C89 1.391 . S
C88 H115 0.930 . S
C89 C85 1.387 . S
C89 C88 1.391 . S
C90 Tb80 2.825 . S
C90 C84 1.507 . S
C90 O103 1.238 . S
C90 O104 1.247 . S
O91 Tb80 2.347 . S
O91 C95 1.259 . S
O92 Eu81 2.418 . S
O92 C95 1.265 . S
O93 Eu81 2.384 . S
O93 C102 1.255 . S
O94 Tb80 2.366 . S
O94 C102 1.265 . S
C95 O91 1.259 . S
C95 O92 1.265 . S
O96 Eu81 2.479 . S
O96 C111 1.238 . S
O97 Eu81 2.471 . S
O97 C111 1.247 . S
O98 Eu81 2.347 . S
O98 C82 1.259 . S
O99 Tb80 2.418 . S
O99 C82 1.265 . S
O100 Tb80 2.384 . S
O100 C83 1.255 . S
O101 Eu81 2.366 . S
O101 C83 1.265 . S
C102 O93 1.255 . S
C102 O94 1.265 . S
O103 Tb80 2.479 . S
O103 C90 1.238 . S
O104 Tb80 2.471 . S
O104 C90 1.247 . S
C105 C108 1.380 . S
C105 C109 1.374 . S
C105 C111 1.507 . S
C106 C107 1.387 . S
C106 C110 1.391 . S
C107 C106 1.387 . S
C107 C108 1.384 . S
C107 H116 0.930 . S
C108 C105 1.380 . S
C108 C107 1.384 . S
C108 H117 0.931 . S
C109 C105 1.374 . S
C109 C110 1.390 . S
C109 H118 0.930 . S
C110 C106 1.391 . S
C110 C109 1.390 . S
C110 H119 0.930 . S
C111 Eu81 2.825 . S
C111 O96 1.238 . S
C111 O97 1.247 . S
C111 C105 1.507 . S
H112 C85 0.930 . S
H113 C86 0.931 . S
H114 C87 0.930 . S
H115 C88 0.930 . S
H116 C107 0.930 . S
H117 C108 0.931 . S
H118 C109 0.930 . S
H119 C110 0.930 . S
H120 C125 0.930 . S
H121 C128 0.930 . S
H122 C130 0.930 . S
H123 C124 1.016 . S
C124 H123 1.016 . S
C124 N131 1.286 . S
C125 H120 0.930 . S
C125 C126 1.397 . S
C125 C127 1.361 . S
C126 C125 1.397 . S
C126 C130 1.390 . S
C127 C125 1.361 . S
C127 C128 1.393 . S
C127 N131 1.413 . S
C128 H121 0.930 . S
C128 C127 1.393 . S
C128 C129 1.399 . S
C129 C128 1.399 . S
C129 C130 1.381 . S
C130 H122 0.930 . S
C130 C126 1.390 . S
C130 C129 1.381 . S
N131 C124 1.286 . S
N131 C127 1.413 . S
H132 C137 0.930 . S
H133 C140 0.930 . S
H134 C142 0.930 . S
H135 C136 1.016 . S
C136 H135 1.016 . S
C136 N143 1.286 . S
C137 H132 0.930 . S
C137 C138 1.397 . S
C137 C139 1.361 . S
C138 C137 1.397 . S
C138 C142 1.390 . S
C139 C137 1.361 . S
C139 C140 1.393 . S
C139 N143 1.413 . S
C140 H133 0.930 . S
C140 C139 1.393 . S
C140 C141 1.399 . S
C141 C140 1.399 . S
C141 C142 1.381 . S
C142 H134 0.930 . S
C142 C138 1.390 . S
C142 C141 1.381 . S
N143 C136 1.286 . S
N143 C139 1.413 . S
H144 C149 0.930 . S
H145 C152 0.930 . S
H146 C154 0.930 . S
H147 C148 1.016 . S
C148 H147 1.016 . S
C148 N155 1.286 . S
C149 H144 0.930 . S
C149 C150 1.397 . S
C149 C151 1.361 1_655 S
C150 C149 1.397 . S
C150 C154 1.390 . S
C151 C149 1.361 1_455 S
C151 C152 1.393 . S
C151 N155 1.413 . S
C152 H145 0.930 . S
C152 C151 1.393 . S
C152 C153 1.399 . S
C153 C152 1.399 . S
C153 C154 1.381 1_455 S
C154 H146 0.930 . S
C154 C150 1.390 . S
C154 C153 1.381 1_655 S
N155 C148 1.286 . S
N155 C151 1.413 . S
H156 C161 0.930 . S
H157 C164 0.943 . S
H158 C166 0.930 . S
H159 C160 1.016 . S
C160 H159 1.016 . S
C160 N167 1.286 . S
C161 H156 0.930 . S
C161 C162 1.397 . S
C161 C163 1.361 . S
C162 C161 1.397 . S
C162 C166 1.390 . S
C163 C161 1.361 . S
C163 C164 1.394 1_455 S
C163 N167 1.413 1_455 S
C164 H157 0.943 . S
C164 C163 1.394 1_655 S
C164 C165 1.386 1_655 S
C165 C164 1.386 1_455 S
C165 C166 1.381 . S
C166 H158 0.930 . S
C166 C162 1.390 . S
C166 C165 1.381 . S
N167 C160 1.286 . S
N167 C163 1.413 1_655 S
H168 C173 0.930 . S
H169 C176 0.930 . S
H170 C178 0.930 . S
H171 C172 1.016 . S
C172 H171 1.016 . S
C172 N179 1.286 . S
C173 H168 0.930 . S
C173 C174 1.397 . S
C173 C175 1.361 . S
C174 C173 1.397 . S
C174 C178 1.390 . S
C175 C173 1.361 . S
C175 C176 1.393 1_545 S
C175 N179 1.413 1_545 S
C176 H169 0.930 . S
C176 C175 1.393 1_565 S
C176 C177 1.399 1_565 S
C177 C176 1.399 1_545 S
C177 C178 1.381 . S
C178 H170 0.930 . S
C178 C174 1.390 . S
C178 C177 1.381 . S
N179 C172 1.286 . S
N179 C175 1.413 1_565 S
H180 C185 0.930 . S
H181 C188 0.930 . S
H182 C190 0.930 . S
H183 C184 1.016 . S
C184 H183 1.016 . S
C184 N191 1.286 . S
C185 H180 0.930 . S
C185 C186 1.397 . S
C185 C187 1.361 . S
C186 C185 1.397 . S
C186 C190 1.390 . S
C187 C185 1.361 . S
C187 C188 1.393 . S
C187 N191 1.413 . S
C188 H181 0.930 . S
C188 C187 1.393 . S
C188 C189 1.399 . S
C189 C188 1.399 . S
C189 C190 1.381 . S
C190 H182 0.930 . S
C190 C186 1.390 . S
C190 C189 1.381 . S
N191 C184 1.286 . S
N191 C187 1.413 . S
H192 C200 0.929 . S
H193 C202 0.930 . S
H194 C204 0.930 . S
H195 C207 0.929 . S
H196 C210 0.930 . S
H197 C212 0.960 . S
H198 C212 0.960 . S
H199 C212 0.960 . S
C200 H192 0.929 . S
C200 C201 1.377 . S
C200 C202 1.384 . S
C201 C200 1.377 . S
C201 C207 1.390 . S
C202 H193 0.930 . S
C202 C200 1.384 . S
C202 C203 1.372 . S
C203 C202 1.372 . S
C203 C204 1.400 . S
C203 C208 1.490 . S
C204 H194 0.930 . S
C204 C203 1.400 . S
C204 C207 1.386 . S
H205 C221 0.930 . S
H206 C222 0.931 . S
C207 H195 0.929 . S
C207 C201 1.390 . S
C207 C204 1.386 . S
C208 C203 1.490 . S
C208 C210 1.395 . S
C208 C211 1.403 . S
H209 C215 0.930 . S
C210 H196 0.930 . S
C210 C208 1.395 . S
C210 C213 1.403 . S
C211 C208 1.403 . S
C211 C212 1.524 . S
C211 C215 1.400 . S
C212 H197 0.960 . S
C212 H198 0.960 . S
C212 H199 0.960 . S
C212 C211 1.524 . S
C213 C210 1.403 . S
C213 C214 1.392 . S
C213 C217 1.495 . S
C214 C213 1.392 . S
C214 C215 1.385 . S
C214 C216 1.478 . S
C215 H209 0.930 . S
C215 C211 1.400 . S
C215 C214 1.385 . S
C216 C214 1.478 . S
C216 C218 1.381 . S
C216 C222 1.383 . S
C217 C213 1.495 . S
C217 H223 0.959 . S
C217 H224 0.961 . S
C217 H225 0.960 . S
C218 C216 1.381 . S
C218 C219 1.394 . S
C218 H226 0.930 . S
C219 C218 1.394 . S
C219 C220 1.383 . S
C219 H227 0.929 . S
C220 C219 1.383 . S
C220 C221 1.377 . S
C221 H205 0.930 . S
C221 C220 1.377 . S
C221 C222 1.379 . S
C222 H206 0.931 . S
C222 C216 1.383 . S
C222 C221 1.379 . S
H223 C217 0.959 . S
H224 C217 0.961 . S
H225 C217 0.960 . S
H226 C218 0.930 . S
H227 C219 0.929 . S
H228 C236 0.929 . S
H229 C238 0.930 . S
H230 C240 0.930 . S
H231 C243 0.929 . S
H232 C246 0.930 . S
H233 C248 0.960 . S
H234 C248 0.960 . S
H235 C248 0.960 . S
C236 H228 0.929 . S
C236 C237 1.377 . S
C236 C238 1.384 . S
C237 C236 1.377 . S
C237 C243 1.390 . S
C238 H229 0.930 . S
C238 C236 1.384 . S
C238 C239 1.372 . S
C239 C238 1.372 . S
C239 C240 1.400 . S
C239 C244 1.490 . S
C240 H230 0.930 . S
C240 C239 1.400 . S
C240 C243 1.386 . S
H241 C257 0.930 . S
H242 C258 0.931 . S
C243 H231 0.929 . S
C243 C237 1.390 . S
C243 C240 1.386 . S
C244 C239 1.490 . S
C244 C246 1.395 . S
C244 C247 1.403 . S
H245 C251 0.930 . S
C246 H232 0.930 . S
C246 C244 1.395 . S
C246 C249 1.403 . S
C247 C244 1.403 . S
C247 C248 1.524 . S
C247 C251 1.400 . S
C248 H233 0.960 . S
C248 H234 0.960 . S
C248 H235 0.960 . S
C248 C247 1.524 . S
C249 C246 1.403 . S
C249 C250 1.392 . S
C249 C253 1.495 . S
C250 C249 1.392 . S
C250 C251 1.385 . S
C250 C252 1.478 . S
C251 H245 0.930 . S
C251 C247 1.400 . S
C251 C250 1.385 . S
C252 C250 1.478 . S
C252 C254 1.381 . S
C252 C258 1.383 . S
C253 C249 1.495 . S
C253 H259 0.959 . S
C253 H260 0.961 . S
C253 H261 0.960 . S
C254 C252 1.381 . S
C254 C255 1.394 . S
C254 H262 0.930 . S
C255 C254 1.394 . S
C255 C256 1.383 . S
C255 H263 0.929 . S
C256 C255 1.383 . S
C256 C257 1.377 . S
C257 H241 0.930 . S
C257 C256 1.377 . S
C257 C258 1.379 . S
C258 H242 0.931 . S
C258 C252 1.383 . S
C258 C257 1.379 . S
H259 C253 0.959 . S
H260 C253 0.961 . S
H261 C253 0.960 . S
H262 C254 0.930 . S
H263 C255 0.929 . S
H264 C272 0.929 . S
H265 C274 0.930 . S
H266 C276 0.930 . S
H267 C279 0.929 . S
H268 C282 0.930 . S
H269 C284 0.960 . S
H270 C284 0.960 . S
H271 C284 0.960 . S
C272 H264 0.929 . S
C272 C273 1.377 . S
C272 C274 1.384 . S
C273 C272 1.377 . S
C273 C279 1.390 . S
C274 H265 0.930 . S
C274 C272 1.384 . S
C274 C275 1.372 . S
C275 C274 1.372 . S
C275 C276 1.400 . S
C275 C280 1.490 . S
C276 H266 0.930 . S
C276 C275 1.400 . S
C276 C279 1.386 . S
H277 C293 0.930 . S
H278 C294 0.931 . S
C279 H267 0.929 . S
C279 C273 1.390 . S
C279 C276 1.386 . S
C280 C275 1.490 . S
C280 C282 1.395 . S
C280 C283 1.403 . S
H281 C287 0.930 . S
C282 H268 0.930 . S
C282 C280 1.395 . S
C282 C285 1.403 . S
C283 C280 1.403 . S
C283 C284 1.524 . S
C283 C287 1.400 . S
C284 H269 0.960 . S
C284 H270 0.960 . S
C284 H271 0.960 . S
C284 C283 1.524 . S
C285 C282 1.403 . S
C285 C286 1.392 . S
C285 C289 1.495 . S
C286 C285 1.392 . S
C286 C287 1.385 . S
C286 C288 1.478 . S
C287 H281 0.930 . S
C287 C283 1.400 . S
C287 C286 1.385 . S
C288 C286 1.478 . S
C288 C290 1.381 . S
C288 C294 1.383 . S
C289 C285 1.495 . S
C289 H295 0.959 . S
C289 H296 0.961 . S
C289 H297 0.960 . S
C290 C288 1.381 . S
C290 C291 1.394 . S
C290 H298 0.930 . S
C291 C290 1.394 . S
C291 C292 1.383 . S
C291 H299 0.929 . S
C292 C291 1.383 . S
C292 C293 1.377 . S
C293 H277 0.930 . S
C293 C292 1.377 . S
C293 C294 1.379 . S
C294 H278 0.931 . S
C294 C288 1.383 . S
C294 C293 1.379 . S
H295 C289 0.959 . S
H296 C289 0.961 . S
H297 C289 0.960 . S
H298 C290 0.930 . S
H299 C291 0.929 . S
H300 C308 0.929 . S
H301 C310 0.930 . S
H302 C312 0.930 . S
H303 C315 0.929 . S
H304 C318 0.930 . S
H305 C320 0.960 . S
H306 C320 0.960 . S
H307 C320 0.960 . S
C308 H300 0.929 . S
C308 C309 1.377 . S
C308 C310 1.384 . S
C309 C308 1.377 . S
C309 C315 1.390 . S
C310 H301 0.930 . S
C310 C308 1.384 . S
C310 C311 1.372 . S
C311 C310 1.372 . S
C311 C312 1.400 . S
C311 C316 1.490 . S
C312 H302 0.930 . S
C312 C311 1.400 . S
C312 C315 1.386 . S
H313 C329 0.930 . S
H314 C330 0.931 . S
C315 H303 0.929 . S
C315 C309 1.390 . S
C315 C312 1.386 . S
C316 C311 1.490 . S
C316 C318 1.395 . S
C316 C319 1.403 . S
H317 C323 0.930 . S
C318 H304 0.930 . S
C318 C316 1.395 . S
C318 C321 1.403 . S
C319 C316 1.403 . S
C319 C320 1.524 . S
C319 C323 1.400 . S
C320 H305 0.960 . S
C320 H306 0.960 . S
C320 H307 0.960 . S
C320 C319 1.524 . S
C321 C318 1.403 . S
C321 C322 1.392 . S
C321 C325 1.495 . S
C322 C321 1.392 . S
C322 C323 1.385 . S
C322 C324 1.478 . S
C323 H317 0.930 . S
C323 C319 1.400 . S
C323 C322 1.385 . S
C324 C322 1.478 . S
C324 C326 1.381 . S
C324 C330 1.383 . S
C325 C321 1.495 . S
C325 H331 0.959 . S
C325 H332 0.961 . S
C325 H333 0.960 . S
C326 C324 1.381 . S
C326 C327 1.394 . S
C326 H334 0.930 . S
C327 C326 1.394 . S
C327 C328 1.383 . S
C327 H335 0.929 . S
C328 C327 1.383 . S
C328 C329 1.377 . S
C329 H313 0.930 . S
C329 C328 1.377 . S
C329 C330 1.379 . S
C330 H314 0.931 . S
C330 C324 1.383 . S
C330 C329 1.379 . S
H331 C325 0.959 . S
H332 C325 0.961 . S
H333 C325 0.960 . S
H334 C326 0.930 . S
H335 C327 0.929 . S
H336 C344 0.929 . S
H337 C346 0.930 . S
H338 C348 0.930 . S
H339 C351 0.929 . S
H340 C354 0.930 . S
H341 C356 0.960 . S
H342 C356 0.960 . S
H343 C356 0.960 . S
C344 H336 0.929 . S
C344 C345 1.377 . S
C344 C346 1.384 . S
C345 C344 1.377 . S
C345 C351 1.390 . S
C346 H337 0.930 . S
C346 C344 1.384 . S
C346 C347 1.372 . S
C347 C346 1.372 . S
C347 C348 1.400 . S
C347 C352 1.490 . S
C348 H338 0.930 . S
C348 C347 1.400 . S
C348 C351 1.386 . S
H349 C365 0.930 . S
H350 C366 0.931 . S
C351 H339 0.929 . S
C351 C345 1.390 . S
C351 C348 1.386 . S
C352 C347 1.490 . S
C352 C354 1.395 . S
C352 C355 1.403 . S
H353 C359 0.930 . S
C354 H340 0.930 . S
C354 C352 1.395 . S
C354 C357 1.403 . S
C355 C352 1.403 . S
C355 C356 1.524 . S
C355 C359 1.400 . S
C356 H341 0.960 . S
C356 H342 0.960 . S
C356 H343 0.960 . S
C356 C355 1.524 . S
C357 C354 1.403 . S
C357 C358 1.392 . S
C357 C361 1.495 . S
C358 C357 1.392 . S
C358 C359 1.385 . S
C358 C360 1.478 . S
C359 H353 0.930 . S
C359 C355 1.400 . S
C359 C358 1.385 . S
C360 C358 1.478 . S
C360 C362 1.381 . S
C360 C366 1.383 . S
C361 C357 1.495 . S
C361 H367 0.959 . S
C361 H368 0.961 . S
C361 H369 0.960 . S
C362 C360 1.381 . S
C362 C363 1.394 . S
C362 H370 0.930 . S
C363 C362 1.394 . S
C363 C364 1.383 . S
C363 H371 0.929 . S
C364 C363 1.383 . S
C364 C365 1.377 . S
C365 H349 0.930 . S
C365 C364 1.377 . S
C365 C366 1.379 . S
C366 H350 0.931 . S
C366 C360 1.383 . S
C366 C365 1.379 . S
H367 C361 0.959 . S
H368 C361 0.961 . S
H369 C361 0.960 . S
H370 C362 0.930 . S
H371 C363 0.929 . S
H372 C380 0.929 . S
H373 C382 0.930 . S
H374 C384 0.930 . S
H375 C387 0.929 . S
H376 C390 0.930 . S
H377 C392 0.960 . S
H378 C392 0.960 . S
H379 C392 0.960 . S
C380 H372 0.929 . S
C380 C381 1.377 . S
C380 C382 1.384 . S
C381 C380 1.377 . S
C381 C387 1.390 . S
C382 H373 0.930 . S
C382 C380 1.384 . S
C382 C383 1.372 . S
C383 C382 1.372 . S
C383 C384 1.400 . S
C383 C388 1.490 . S
C384 H374 0.930 . S
C384 C383 1.400 . S
C384 C387 1.386 . S
H385 C401 0.930 . S
H386 C402 0.931 . S
C387 H375 0.929 . S
C387 C381 1.390 . S
C387 C384 1.386 . S
C388 C383 1.490 . S
C388 C390 1.395 . S
C388 C391 1.403 . S
H389 C395 0.930 . S
C390 H376 0.930 . S
C390 C388 1.395 . S
C390 C393 1.403 . S
C391 C388 1.403 . S
C391 C392 1.524 . S
C391 C395 1.400 . S
C392 H377 0.960 . S
C392 H378 0.960 . S
C392 H379 0.960 . S
C392 C391 1.524 . S
C393 C390 1.403 . S
C393 C394 1.392 . S
C393 C397 1.495 . S
C394 C393 1.392 . S
C394 C395 1.385 . S
C394 C396 1.478 . S
C395 H389 0.930 . S
C395 C391 1.400 . S
C395 C394 1.385 . S
C396 C394 1.478 . S
C396 C398 1.381 . S
C396 C402 1.383 . S
C397 C393 1.495 . S
C397 H403 0.959 . S
C397 H404 0.961 . S
C397 H405 0.960 . S
C398 C396 1.381 . S
C398 C399 1.394 . S
C398 H406 0.930 . S
C399 C398 1.394 . S
C399 C400 1.383 . S
C399 H407 0.929 . S
C400 C399 1.383 . S
C400 C401 1.377 . S
C401 H385 0.930 . S
C401 C400 1.377 . S
C401 C402 1.379 . S
C402 H386 0.931 . S
C402 C396 1.383 . S
C402 C401 1.379 . S
H403 C397 0.959 . S
H404 C397 0.961 . S
H405 C397 0.960 . S
H406 C398 0.930 . S
H407 C399 0.929 . S
H408 C416 0.929 . S
H409 C418 0.930 . S
H410 C420 0.930 . S
H411 C423 0.929 . S
H412 C426 0.930 . S
H413 C428 0.960 . S
H414 C428 0.960 . S
H415 C428 0.960 . S
C416 H408 0.929 . S
C416 C417 1.377 . S
C416 C418 1.384 . S
C417 C416 1.377 . S
C417 C423 1.390 . S
C418 H409 0.930 . S
C418 C416 1.384 . S
C418 C419 1.372 . S
C419 C418 1.372 . S
C419 C420 1.400 . S
C419 C424 1.490 . S
C420 H410 0.930 . S
C420 C419 1.400 . S
C420 C423 1.386 . S
H421 C437 0.930 . S
H422 C438 0.931 . S
C423 H411 0.929 . S
C423 C417 1.390 . S
C423 C420 1.386 . S
C424 C419 1.490 . S
C424 C426 1.395 . S
C424 C427 1.403 . S
H425 C431 0.930 . S
C426 H412 0.930 . S
C426 C424 1.395 . S
C426 C429 1.403 . S
C427 C424 1.403 . S
C427 C428 1.524 . S
C427 C431 1.400 . S
C428 H413 0.960 . S
C428 H414 0.960 . S
C428 H415 0.960 . S
C428 C427 1.524 . S
C429 C426 1.403 . S
C429 C430 1.392 . S
C429 C433 1.495 . S
C430 C429 1.392 . S
C430 C431 1.385 . S
C430 C432 1.478 . S
C431 H425 0.930 . S
C431 C427 1.400 . S
C431 C430 1.385 . S
C432 C430 1.478 . S
C432 C434 1.381 . S
C432 C438 1.383 . S
C433 C429 1.495 . S
C433 H439 0.959 . S
C433 H440 0.961 . S
C433 H441 0.960 . S
C434 C432 1.381 . S
C434 C435 1.394 . S
C434 H442 0.930 . S
C435 C434 1.394 . S
C435 C436 1.383 . S
C435 H443 0.929 . S
C436 C435 1.383 . S
C436 C437 1.377 . S
C437 H421 0.930 . S
C437 C436 1.377 . S
C437 C438 1.379 . S
C438 H422 0.931 . S
C438 C432 1.383 . S
C438 C437 1.379 . S
H439 C433 0.959 . S
H440 C433 0.961 . S
H441 C433 0.960 . S
H442 C434 0.930 . S
H443 C435 0.929 . S
H444 C452 0.929 . S
H445 C454 0.930 . S
H446 C456 0.930 . S
H447 C459 0.929 . S
H448 C462 0.930 . S
H449 C464 0.960 . S
H450 C464 0.960 . S
H451 C464 0.960 . S
C452 H444 0.929 . S
C452 C453 1.377 . S
C452 C454 1.384 . S
C453 C452 1.377 . S
C453 C459 1.390 . S
C454 H445 0.930 . S
C454 C452 1.384 . S
C454 C455 1.372 . S
C455 C454 1.372 . S
C455 C456 1.400 . S
C455 C460 1.490 . S
C456 H446 0.930 . S
C456 C455 1.400 . S
C456 C459 1.386 . S
H457 C473 0.930 . S
H458 C474 0.931 . S
C459 H447 0.929 . S
C459 C453 1.390 . S
C459 C456 1.386 . S
C460 C455 1.490 . S
C460 C462 1.395 . S
C460 C463 1.403 . S
H461 C467 0.930 . S
C462 H448 0.930 . S
C462 C460 1.395 . S
C462 C465 1.403 . S
C463 C460 1.403 . S
C463 C464 1.524 . S
C463 C467 1.400 . S
C464 H449 0.960 . S
C464 H450 0.960 . S
C464 H451 0.960 . S
C464 C463 1.524 . S
C465 C462 1.403 . S
C465 C466 1.392 . S
C465 C469 1.495 . S
C466 C465 1.392 . S
C466 C467 1.385 . S
C466 C468 1.478 . S
C467 H461 0.930 . S
C467 C463 1.400 . S
C467 C466 1.385 . S
C468 C466 1.478 . S
C468 C470 1.381 . S
C468 C474 1.383 . S
C469 C465 1.495 . S
C469 H475 0.959 . S
C469 H476 0.961 . S
C469 H477 0.960 . S
C470 C468 1.381 . S
C470 C471 1.394 . S
C470 H478 0.930 . S
C471 C470 1.394 . S
C471 C472 1.383 . S
C471 H479 0.929 . S
C472 C471 1.383 . S
C472 C473 1.377 . S
C473 H457 0.930 . S
C473 C472 1.377 . S
C473 C474 1.379 . S
C474 H458 0.931 . S
C474 C468 1.383 . S
C474 C473 1.379 . S
H475 C469 0.959 . S
H476 C469 0.961 . S
H477 C469 0.960 . S
H478 C470 0.930 . S
H479 C471 0.929 . S
H480 C488 0.929 . S
H481 C490 0.930 . S
H482 C492 0.930 . S
H483 C495 0.929 . S
H484 C498 0.930 . S
H485 C500 0.960 . S
H486 C500 0.960 . S
H487 C500 0.960 . S
C488 H480 0.929 . S
C488 C489 1.377 . S
C488 C490 1.384 . S
C489 C488 1.377 . S
C489 C495 1.390 . S
C490 H481 0.930 . S
C490 C488 1.384 . S
C490 C491 1.372 . S
C491 C490 1.372 . S
C491 C492 1.400 . S
C491 C496 1.490 . S
C492 H482 0.930 . S
C492 C491 1.400 . S
C492 C495 1.386 . S
H493 C509 0.930 . S
H494 C510 0.931 . S
C495 H483 0.929 . S
C495 C489 1.390 . S
C495 C492 1.386 . S
C496 C491 1.490 . S
C496 C498 1.395 . S
C496 C499 1.403 . S
H497 C503 0.930 . S
C498 H484 0.930 . S
C498 C496 1.395 . S
C498 C501 1.403 . S
C499 C496 1.403 . S
C499 C500 1.524 . S
C499 C503 1.400 . S
C500 H485 0.960 . S
C500 H486 0.960 . S
C500 H487 0.960 . S
C500 C499 1.524 . S
C501 C498 1.403 . S
C501 C502 1.392 . S
C501 C505 1.495 . S
C502 C501 1.392 . S
C502 C503 1.385 . S
C502 C504 1.478 . S
C503 H497 0.930 . S
C503 C499 1.400 . S
C503 C502 1.385 . S
C504 C502 1.478 . S
C504 C506 1.381 . S
C504 C510 1.383 . S
C505 C501 1.495 . S
C505 H511 0.959 . S
C505 H512 0.961 . S
C505 H513 0.960 . S
C506 C504 1.381 . S
C506 C507 1.394 . S
C506 H514 0.930 . S
C507 C506 1.394 . S
C507 C508 1.383 . S
C507 H515 0.929 . S
C508 C507 1.383 . S
C508 C509 1.377 . S
C509 H493 0.930 . S
C509 C508 1.377 . S
C509 C510 1.379 . S
C510 H494 0.931 . S
C510 C504 1.383 . S
C510 C509 1.379 . S
H511 C505 0.959 . S
H512 C505 0.961 . S
H513 C505 0.960 . S
H514 C506 0.930 . S
H515 C507 0.929 . S
H516 C524 0.929 . S
H517 C526 0.930 . S
H518 C528 0.930 . S
H519 C531 0.929 . S
H520 C534 0.930 . S
H521 C536 0.960 . S
H522 C536 0.960 . S
H523 C536 0.960 . S
C524 H516 0.929 . S
C524 C525 1.377 . S
C524 C526 1.384 . S
C525 C524 1.377 . S
C525 C531 1.390 . S
C526 H517 0.930 . S
C526 C524 1.384 . S
C526 C527 1.372 . S
C527 C526 1.372 . S
C527 C528 1.400 . S
C527 C532 1.490 . S
C528 H518 0.930 . S
C528 C527 1.400 . S
C528 C531 1.386 . S
H529 C545 0.930 . S
H530 C546 0.931 . S
C531 H519 0.929 . S
C531 C525 1.390 . S
C531 C528 1.386 . S
C532 C527 1.490 . S
C532 C534 1.395 . S
C532 C535 1.403 . S
H533 C539 0.930 . S
C534 H520 0.930 . S
C534 C532 1.395 . S
C534 C537 1.403 . S
C535 C532 1.403 . S
C535 C536 1.524 . S
C535 C539 1.400 . S
C536 H521 0.960 . S
C536 H522 0.960 . S
C536 H523 0.960 . S
C536 C535 1.524 . S
C537 C534 1.403 . S
C537 C538 1.392 . S
C537 C541 1.495 . S
C538 C537 1.392 . S
C538 C539 1.385 . S
C538 C540 1.478 . S
C539 H533 0.930 . S
C539 C535 1.400 . S
C539 C538 1.385 . S
C540 C538 1.478 . S
C540 C542 1.381 . S
C540 C546 1.383 . S
C541 C537 1.495 . S
C541 H547 0.959 . S
C541 H548 0.961 . S
C541 H549 0.960 . S
C542 C540 1.381 . S
C542 C543 1.394 . S
C542 H550 0.930 . S
C543 C542 1.394 . S
C543 C544 1.383 . S
C543 H551 0.929 . S
C544 C543 1.383 . S
C544 C545 1.377 . S
C545 H529 0.930 . S
C545 C544 1.377 . S
C545 C546 1.379 . S
C546 H530 0.931 . S
C546 C540 1.383 . S
C546 C545 1.379 . S
H547 C541 0.959 . S
H548 C541 0.961 . S
H549 C541 0.960 . S
H550 C542 0.930 . S
H551 C543 0.929 . S
H552 C560 0.929 . S
H553 C562 0.930 . S
H554 C564 0.930 . S
H555 C567 0.929 . S
H556 C570 0.930 . S
H557 C572 0.960 . S
H558 C572 0.960 . S
H559 C572 0.960 . S
C560 H552 0.929 . S
C560 C561 1.377 . S
C560 C562 1.384 . S
C561 C560 1.377 . S
C561 C567 1.390 . S
C562 H553 0.930 . S
C562 C560 1.384 . S
C562 C563 1.372 . S
C563 C562 1.372 . S
C563 C564 1.400 . S
C563 C568 1.490 . S
C564 H554 0.930 . S
C564 C563 1.400 . S
C564 C567 1.386 . S
H565 C581 0.930 . S
H566 C582 0.931 . S
C567 H555 0.929 . S
C567 C561 1.390 . S
C567 C564 1.386 . S
C568 C563 1.490 . S
C568 C570 1.395 . S
C568 C571 1.403 . S
H569 C575 0.930 . S
C570 H556 0.930 . S
C570 C568 1.395 . S
C570 C573 1.403 . S
C571 C568 1.403 . S
C571 C572 1.524 . S
C571 C575 1.400 . S
C572 H557 0.960 . S
C572 H558 0.960 . S
C572 H559 0.960 . S
C572 C571 1.524 . S
C573 C570 1.403 . S
C573 C574 1.392 . S
C573 C577 1.495 . S
C574 C573 1.392 . S
C574 C575 1.385 . S
C574 C576 1.478 . S
C575 H569 0.930 . S
C575 C571 1.400 . S
C575 C574 1.385 . S
C576 C574 1.478 . S
C576 C578 1.381 . S
C576 C582 1.383 . S
C577 C573 1.495 . S
C577 H583 0.959 . S
C577 H584 0.961 . S
C577 H585 0.960 . S
C578 C576 1.381 . S
C578 C579 1.394 . S
C578 H586 0.930 . S
C579 C578 1.394 . S
C579 C580 1.383 . S
C579 H587 0.929 . S
C580 C579 1.383 . S
C580 C581 1.377 . S
C581 H565 0.930 . S
C581 C580 1.377 . S
C581 C582 1.379 . S
C582 H566 0.931 . S
C582 C576 1.383 . S
C582 C581 1.379 . S
H583 C577 0.959 . S
H584 C577 0.961 . S
H585 C577 0.960 . S
H586 C578 0.930 . S
H587 C579 0.929 . S
H588 C596 0.929 . S
H589 C598 0.930 . S
H590 C600 0.930 . S
H591 C603 0.929 . S
H592 C606 0.930 . S
H593 C608 0.960 . S
H594 C608 0.960 . S
H595 C608 0.960 . S
C596 H588 0.929 . S
C596 C597 1.377 . S
C596 C598 1.384 . S
C597 C596 1.377 . S
C597 C603 1.390 . S
C598 H589 0.930 . S
C598 C596 1.384 . S
C598 C599 1.372 . S
C599 C598 1.372 . S
C599 C600 1.400 . S
C599 C604 1.490 . S
C600 H590 0.930 . S
C600 C599 1.400 . S
C600 C603 1.386 . S
H601 C617 0.930 . S
H602 C618 0.931 . S
C603 H591 0.929 . S
C603 C597 1.390 . S
C603 C600 1.386 . S
C604 C599 1.490 . S
C604 C606 1.395 . S
C604 C607 1.403 . S
H605 C611 0.930 . S
C606 H592 0.930 . S
C606 C604 1.395 . S
C606 C609 1.403 . S
C607 C604 1.403 . S
C607 C608 1.524 . S
C607 C611 1.400 . S
C608 H593 0.960 . S
C608 H594 0.960 . S
C608 H595 0.960 . S
C608 C607 1.524 . S
C609 C606 1.403 . S
C609 C610 1.392 . S
C609 C613 1.495 . S
C610 C609 1.392 . S
C610 C611 1.385 . S
C610 C612 1.478 . S
C611 H605 0.930 . S
C611 C607 1.400 . S
C611 C610 1.385 . S
C612 C610 1.478 . S
C612 C614 1.381 . S
C612 C618 1.383 . S
C613 C609 1.495 . S
C613 H619 0.959 . S
C613 H620 0.961 . S
C613 H621 0.960 . S
C614 C612 1.381 . S
C614 C615 1.394 . S
C614 H622 0.930 . S
C615 C614 1.394 . S
C615 C616 1.383 . S
C615 H623 0.929 . S
C616 C615 1.383 . S
C616 C617 1.377 . S
C617 H601 0.930 . S
C617 C616 1.377 . S
C617 C618 1.379 . S
C618 H602 0.931 . S
C618 C612 1.383 . S
C618 C617 1.379 . S
H619 C613 0.959 . S
H620 C613 0.961 . S
H621 C613 0.960 . S
H622 C614 0.930 . S
H623 C615 0.929 . S
H624 C632 0.929 . S
H625 C634 0.930 . S
H626 C636 0.930 . S
H627 C639 0.929 . S
H628 C642 0.930 . S
H629 C644 0.960 . S
H630 C644 0.960 . S
H631 C644 0.960 . S
C632 H624 0.929 . S
C632 C633 1.377 . S
C632 C634 1.384 . S
C633 C632 1.377 . S
C633 C639 1.390 . S
C634 H625 0.930 . S
C634 C632 1.384 . S
C634 C635 1.372 . S
C635 C634 1.372 . S
C635 C636 1.400 . S
C635 C640 1.490 . S
C636 H626 0.930 . S
C636 C635 1.400 . S
C636 C639 1.386 . S
H637 C653 0.930 . S
H638 C654 0.931 . S
C639 H627 0.929 . S
C639 C633 1.390 . S
C639 C636 1.386 . S
C640 C635 1.490 . S
C640 C642 1.395 . S
C640 C643 1.403 . S
H641 C647 0.930 1_656 S
C642 H628 0.930 . S
C642 C640 1.395 . S
C642 C645 1.403 . S
C643 C640 1.403 . S
C643 C644 1.524 1_455 S
C643 C647 1.400 . S
C644 H629 0.960 . S
C644 H630 0.960 . S
C644 H631 0.960 . S
C644 C643 1.524 1_655 S
C645 C642 1.403 . S
C645 C646 1.392 1_554 S
C645 C649 1.495 1_554 S
C646 C645 1.392 1_556 S
C646 C647 1.385 1_556 S
C646 C648 1.478 . S
C647 H641 0.930 1_454 S
C647 C643 1.400 . S
C647 C646 1.385 1_554 S
C648 C646 1.478 . S
C648 C650 1.381 . S
C648 C654 1.383 . S
C649 C645 1.495 1_556 S
C649 H655 0.959 1_556 S
C649 H656 0.961 . S
C649 H657 0.960 . S
C650 C648 1.381 . S
C650 C651 1.394 . S
C650 H658 0.930 . S
C651 C650 1.394 . S
C651 C652 1.383 . S
C651 H659 0.929 . S
C652 C651 1.383 . S
C652 C653 1.377 . S
C653 H637 0.930 . S
C653 C652 1.377 . S
C653 C654 1.379 . S
C654 H638 0.931 . S
C654 C648 1.383 . S
C654 C653 1.379 . S
H655 C649 0.959 1_554 S
H656 C649 0.961 . S
H657 C649 0.960 . S
H658 C650 0.930 . S
H659 C651 0.929 . S
H660 C668 0.929 . S
H661 C670 0.930 . S
H662 C672 0.930 . S
H663 C675 0.929 . S
H664 C678 0.930 . S
H665 C680 0.960 1_565 S
H666 C680 0.960 1_565 S
H667 C680 0.960 . S
C668 H660 0.929 . S
C668 C669 1.377 . S
C668 C670 1.384 . S
C669 C668 1.377 . S
C669 C675 1.390 . S
C670 H661 0.930 . S
C670 C668 1.384 . S
C670 C671 1.372 . S
C671 C670 1.372 . S
C671 C672 1.400 . S
C671 C676 1.490 . S
C672 H662 0.930 . S
C672 C671 1.400 . S
C672 C675 1.386 . S
H673 C689 0.930 . S
H674 C690 0.931 . S
C675 H663 0.929 . S
C675 C669 1.390 . S
C675 C672 1.386 . S
C676 C671 1.490 . S
C676 C678 1.395 . S
C676 C679 1.403 . S
H677 C683 0.930 . S
C678 H664 0.930 . S
C678 C676 1.395 . S
C678 C681 1.403 . S
C679 C676 1.403 . S
C679 C680 1.524 . S
C679 C683 1.400 . S
C680 H665 0.960 1_545 S
C680 H666 0.960 1_545 S
C680 H667 0.960 . S
C680 C679 1.524 . S
C681 C678 1.403 . S
C681 C682 1.392 . S
C681 C685 1.495 . S
C682 C681 1.392 . S
C682 C683 1.385 . S
C682 C684 1.478 . S
C683 H677 0.930 . S
C683 C679 1.400 . S
C683 C682 1.385 . S
C684 C682 1.478 . S
C684 C686 1.381 . S
C684 C690 1.383 . S
C685 C681 1.495 . S
C685 H691 0.959 . S
C685 H692 0.961 . S
C685 H693 0.960 . S
C686 C684 1.381 . S
C686 C687 1.394 . S
C686 H694 0.930 . S
C687 C686 1.394 . S
C687 C688 1.383 . S
C687 H695 0.929 . S
C688 C687 1.383 . S
C688 C689 1.377 . S
C689 H673 0.930 . S
C689 C688 1.377 . S
C689 C690 1.379 . S
C690 H674 0.931 . S
C690 C684 1.383 . S
C690 C689 1.379 . S
H691 C685 0.959 . S
H692 C685 0.961 . S
H693 C685 0.960 . S
H694 C686 0.930 . S
H695 C687 0.929 . S
H696 C704 0.929 . S
H697 C706 0.930 . S
H698 C708 0.930 . S
H699 C711 0.929 . S
H700 C714 0.930 . S
H701 C716 0.960 . S
H702 C716 0.960 . S
H703 C716 0.960 . S
C704 H696 0.929 . S
C704 C705 1.377 . S
C704 C706 1.384 . S
C705 C704 1.377 . S
C705 C711 1.390 . S
C706 H697 0.930 . S
C706 C704 1.384 . S
C706 C707 1.372 . S
C707 C706 1.372 . S
C707 C708 1.400 . S
C707 C712 1.490 . S
C708 H698 0.930 . S
C708 C707 1.400 . S
C708 C711 1.386 . S
H709 C725 0.930 . S
H710 C726 0.931 . S
C711 H699 0.929 . S
C711 C705 1.390 . S
C711 C708 1.386 . S
C712 C707 1.490 . S
C712 C714 1.395 . S
C712 C715 1.403 . S
H713 C719 0.930 . S
C714 H700 0.930 . S
C714 C712 1.395 . S
C714 C717 1.403 . S
C715 C712 1.403 . S
C715 C716 1.524 . S
C715 C719 1.400 . S
C716 H701 0.960 . S
C716 H702 0.960 . S
C716 H703 0.960 . S
C716 C715 1.524 . S
C717 C714 1.403 . S
C717 C718 1.392 . S
C717 C721 1.495 . S
C718 C717 1.392 . S
C718 C719 1.385 . S
C718 C720 1.478 . S
C719 H713 0.930 . S
C719 C715 1.400 . S
C719 C718 1.385 . S
C720 C718 1.478 . S
C720 C722 1.381 . S
C720 C726 1.383 . S
C721 C717 1.495 . S
C721 H727 0.959 . S
C721 H728 0.961 . S
C721 H729 0.960 . S
C722 C720 1.381 . S
C722 C723 1.394 . S
C722 H730 0.930 . S
C723 C722 1.394 . S
C723 C724 1.383 . S
C723 H731 0.929 . S
C724 C723 1.383 . S
C724 C725 1.377 . S
C725 H709 0.930 . S
C725 C724 1.377 . S
C725 C726 1.379 . S
C726 H710 0.931 . S
C726 C720 1.383 . S
C726 C725 1.379 . S
H727 C721 0.959 . S
H728 C721 0.961 . S
H729 C721 0.960 . S
H730 C722 0.930 . S
H731 C723 0.929 . S
H732 C740 0.929 . S
H733 C742 0.930 . S
H734 C744 0.930 . S
H735 C747 0.929 . S
H736 C750 0.930 . S
H737 C752 0.960 . S
H738 C752 0.960 . S
H739 C752 0.960 . S
C740 H732 0.929 . S
C740 C741 1.377 . S
C740 C742 1.384 . S
C741 C740 1.377 . S
C741 C747 1.390 . S
C742 H733 0.930 . S
C742 C740 1.384 . S
C742 C743 1.372 . S
C743 C742 1.372 . S
C743 C744 1.400 . S
C743 C748 1.490 . S
C744 H734 0.930 . S
C744 C743 1.400 . S
C744 C747 1.386 . S
H745 C761 0.930 1_565 S
H746 C762 0.931 1_565 S
C747 H735 0.929 . S
C747 C741 1.390 . S
C747 C744 1.386 . S
C748 C743 1.490 . S
C748 C750 1.395 . S
C748 C751 1.403 . S
H749 C755 0.930 1_565 S
C750 H736 0.930 . S
C750 C748 1.395 . S
C750 C753 1.403 . S
C751 C748 1.403 . S
C751 C752 1.524 1_545 S
C751 C755 1.400 . S
C752 H737 0.960 . S
C752 H738 0.960 . S
C752 H739 0.960 . S
C752 C751 1.524 1_565 S
C753 C750 1.403 . S
C753 C754 1.392 . S
C753 C757 1.495 . S
C754 C753 1.392 . S
C754 C755 1.385 . S
C754 C756 1.478 . S
C755 H749 0.930 1_545 S
C755 C751 1.400 . S
C755 C754 1.385 . S
C756 C754 1.478 . S
C756 C758 1.381 . S
C756 C762 1.383 . S
C757 C753 1.495 . S
C757 H763 0.959 . S
C757 H764 0.961 . S
C757 H765 0.960 . S
C758 C756 1.381 . S
C758 C759 1.394 . S
C758 H766 0.930 . S
C759 C758 1.394 . S
C759 C760 1.383 . S
C759 H767 0.929 . S
C760 C759 1.383 . S
C760 C761 1.377 . S
C761 H745 0.930 1_545 S
C761 C760 1.377 . S
C761 C762 1.379 . S
C762 H746 0.931 1_545 S
C762 C756 1.383 . S
C762 C761 1.379 . S
H763 C757 0.959 . S
H764 C757 0.961 . S
H765 C757 0.960 . S
H766 C758 0.930 . S
H767 C759 0.929 . S
H768 C776 0.929 . S
H769 C778 0.930 . S
H770 C780 0.930 . S
H771 C783 0.929 . S
H772 C786 0.930 . S
H773 C788 0.960 . S
H774 C788 0.960 . S
H775 C788 0.960 . S
C776 H768 0.929 . S
C776 C777 1.377 . S
C776 C778 1.384 . S
C777 C776 1.377 . S
C777 C783 1.390 . S
C778 H769 0.930 . S
C778 C776 1.384 . S
C778 C779 1.372 . S
C779 C778 1.372 . S
C779 C780 1.400 . S
C779 C784 1.490 . S
C780 H770 0.930 . S
C780 C779 1.400 . S
C780 C783 1.386 . S
H781 C797 0.930 . S
H782 C798 0.931 . S
C783 H771 0.929 . S
C783 C777 1.390 . S
C783 C780 1.386 . S
C784 C779 1.490 . S
C784 C786 1.395 . S
C784 C787 1.403 . S
H785 C791 0.898 1_554 S
C786 H772 0.930 . S
C786 C784 1.395 . S
C786 C789 1.403 . S
C787 C784 1.403 . S
C787 C788 1.524 . S
C787 C791 1.400 . S
C788 H773 0.960 . S
C788 H774 0.960 . S
C788 H775 0.960 . S
C788 C787 1.524 . S
C789 C786 1.403 . S
C789 C790 1.392 1_556 S
C789 C793 1.495 1_556 S
C790 C789 1.392 1_554 S
C790 C791 1.385 1_554 S
C790 C792 1.478 . S
C791 H785 0.898 1_556 S
C791 C787 1.400 . S
C791 C790 1.385 1_556 S
C792 C790 1.478 . S
C792 C794 1.381 . S
C792 C798 1.383 . S
C793 C789 1.495 1_554 S
C793 H799 0.959 1_554 S
C793 H800 0.961 . S
C793 H801 0.960 . S
C794 C792 1.381 . S
C794 C795 1.394 . S
C794 H802 0.930 . S
C795 C794 1.394 . S
C795 C796 1.383 . S
C795 H803 0.929 . S
C796 C795 1.383 . S
C796 C797 1.377 . S
C797 H781 0.930 . S
C797 C796 1.377 . S
C797 C798 1.379 . S
C798 H782 0.931 . S
C798 C792 1.383 . S
C798 C797 1.379 . S
H799 C793 0.959 1_556 S
H800 C793 0.961 . S
H801 C793 0.960 . S
H802 C794 0.930 . S
H803 C795 0.929 . S
H804 C812 0.929 . S
H805 C814 0.930 1_655 S
H806 C816 0.930 . S
H807 C819 0.929 . S
H808 C822 0.930 . S
H809 C824 0.960 . S
H810 C824 0.960 . S
H811 C824 0.960 . S
C812 H804 0.929 . S
C812 C813 1.377 . S
C812 C814 1.384 . S
C813 C812 1.377 . S
C813 C819 1.390 . S
C814 H805 0.930 1_455 S
C814 C812 1.384 . S
C814 C815 1.372 . S
C815 C814 1.372 . S
C815 C816 1.400 . S
C815 C820 1.490 . S
C816 H806 0.930 . S
C816 C815 1.400 . S
C816 C819 1.386 . S
H817 C833 0.930 . S
H818 C834 0.931 . S
C819 H807 0.929 . S
C819 C813 1.390 . S
C819 C816 1.386 . S
C820 C815 1.490 . S
C820 C822 1.395 . S
C820 C823 1.403 . S
H821 C827 0.930 . S
C822 H808 0.930 . S
C822 C820 1.395 . S
C822 C825 1.403 . S
C823 C820 1.403 . S
C823 C824 1.524 . S
C823 C827 1.400 . S
C824 H809 0.960 . S
C824 H810 0.960 . S
C824 H811 0.960 . S
C824 C823 1.524 . S
C825 C822 1.403 . S
C825 C826 1.392 . S
C825 C829 1.495 . S
C826 C825 1.392 . S
C826 C827 1.385 . S
C826 C828 1.478 . S
C827 H821 0.930 . S
C827 C823 1.400 . S
C827 C826 1.385 . S
C828 C826 1.478 . S
C828 C830 1.381 1_455 S
C828 C834 1.383 . S
C829 C825 1.495 . S
C829 H835 0.959 . S
C829 H836 0.961 . S
C829 H837 0.935 1_455 S
C830 C828 1.381 1_655 S
C830 C831 1.394 . S
C830 H838 0.930 . S
C831 C830 1.394 . S
C831 C832 1.383 1_655 S
C831 H839 0.929 . S
C832 C831 1.383 1_455 S
C832 C833 1.377 . S
C833 H817 0.930 . S
C833 C832 1.377 . S
C833 C834 1.379 . S
C834 H818 0.931 . S
C834 C828 1.383 . S
C834 C833 1.379 . S
H835 C829 0.959 . S
H836 C829 0.961 . S
H837 C829 0.935 1_655 S
H838 C830 0.930 . S
H839 C831 0.929 . S
C201 C9 0.673 . S
C220 C186 0.649 . S
C237 C49 0.370 . S
C256 C160 0.461 . S
C273 C89 0.321 . S
C292 C172 0.433 . S
C309 C26 0.282 . S
C328 C184 0.402 . S
C364 C162 0.284 . S
C345 C66 0.290 . S
C400 C174 0.256 . S
C381 C106 0.285 . S
C417 C43 3.007 . S
C436 C136 2.938 . S
C453 C83 3.355 . S
C472 C150 3.333 . S
C489 C22 2.999 . S
C508 C126 2.953 1_565 S
C544 C138 2.949 . S
C525 C62 2.997 . S
C580 C148 2.574 . S
C561 C102 2.670 . S
C597 C3 3.001 . S
C616 C124 2.939 . S
C652 C153 1.751 . S
C633 C15 1.689 . S
C669 C55 1.730 . S
C688 C129 1.750 . S
C705 C95 1.710 . S
C724 C141 1.718 . S
C760 C177 1.264 . S
C741 C42 1.241 . S
C796 C189 1.284 . S
C777 C82 1.265 . S
C813 C2 1.237 . S
C832 C165 1.257 . S
