# Generated by pormake.
# Topology anh, (6,3)-cn, num edge types: 1
# Building blocks:
#     Node 0, Type 0, BuildingBlock: BETDIP_clean_sbu_0, # of connection points: 6
#     Node 1, Type 0, BuildingBlock: BETDIP_clean_sbu_0, # of connection points: 6
#     Node 2, Type 0, BuildingBlock: BETDIP_clean_sbu_0, # of connection points: 6
#     Node 3, Type 1, BuildingBlock: MIDCAF_clean_linker_0, # of connection points: 3
#     Node 4, Type 1, BuildingBlock: MIDCAF_clean_linker_0, # of connection points: 3
#     Node 5, Type 1, BuildingBlock: MIDCAF_clean_linker_0, # of connection points: 3
#     Node 6, Type 1, BuildingBlock: MIDCAF_clean_linker_0, # of connection points: 3
#     Node 7, Type 1, BuildingBlock: MIDCAF_clean_linker_0, # of connection points: 3
#     Node 8, Type 1, BuildingBlock: MIDCAF_clean_linker_0, # of connection points: 3
#     Edge 9, Type (0, 1), BuildingBlock: TEMPAE_clean_linker_10, # of connection points: 2
#     Edge 10, Type (0, 1), BuildingBlock: TEMPAE_clean_linker_10, # of connection points: 2
#     Edge 11, Type (0, 1), BuildingBlock: TEMPAE_clean_linker_10, # of connection points: 2
#     Edge 12, Type (0, 1), BuildingBlock: TEMPAE_clean_linker_10, # of connection points: 2
#     Edge 13, Type (0, 1), BuildingBlock: TEMPAE_clean_linker_10, # of connection points: 2
#     Edge 14, Type (0, 1), BuildingBlock: TEMPAE_clean_linker_10, # of connection points: 2
#     Edge 15, Type (0, 1), BuildingBlock: TEMPAE_clean_linker_10, # of connection points: 2
#     Edge 16, Type (0, 1), BuildingBlock: TEMPAE_clean_linker_10, # of connection points: 2
#     Edge 17, Type (0, 1), BuildingBlock: TEMPAE_clean_linker_10, # of connection points: 2
#     Edge 18, Type (0, 1), BuildingBlock: TEMPAE_clean_linker_10, # of connection points: 2
#     Edge 19, Type (0, 1), BuildingBlock: TEMPAE_clean_linker_10, # of connection points: 2
#     Edge 20, Type (0, 1), BuildingBlock: TEMPAE_clean_linker_10, # of connection points: 2
#     Edge 21, Type (0, 1), BuildingBlock: TEMPAE_clean_linker_10, # of connection points: 2
#     Edge 22, Type (0, 1), BuildingBlock: TEMPAE_clean_linker_10, # of connection points: 2
#     Edge 23, Type (0, 1), BuildingBlock: TEMPAE_clean_linker_10, # of connection points: 2
#     Edge 24, Type (0, 1), BuildingBlock: TEMPAE_clean_linker_10, # of connection points: 2
#     Edge 25, Type (0, 1), BuildingBlock: TEMPAE_clean_linker_10, # of connection points: 2
#     Edge 26, Type (0, 1), BuildingBlock: TEMPAE_clean_linker_10, # of connection points: 2
# Relax obj value: 0.243
# Max RMSD: 0.184
# Mean RMSD: 0.156
data_MOF--net-anh--node1-BETDIP_clean_sbu_0--node2-MIDCAF_clean_linker_0--edge1-TEMPAE_clean_linker_10
_symmetry_space_group_name_H-M    P1
_symmetry_Int_Tables_number       1
_symmetry_cell_setting            triclinic
loop_
_symmetry_equiv_pos_as_xyz
'x, y, z'
_cell_length_a     36.883428
_cell_length_b     36.809188
_cell_length_c     66.669961
_cell_angle_alpha  90.157207
_cell_angle_beta   89.68313
_cell_angle_gamma 120.18474
loop_
_atom_site_label
_atom_site_type_symbol
_atom_site_fract_x
_atom_site_fract_y
_atom_site_fract_z
_atom_type_partial_charge
Tb0 Tb 0.11911 0.61574 0.16597 0.0
Tb1 Tb 1.07465 0.52448 0.15588 0.0
C2 C 0.1656 0.68393 0.18345 0.0
C3 C 0.21065 0.70667 0.18782 0.0
C4 C 0.23176 0.68484 0.19235 0.0
C5 C 0.27532 0.70647 0.19424 0.0
C6 C 0.29827 0.75022 0.19182 0.0
C7 C 0.27697 0.77214 0.18796 0.0
C8 C 0.23345 0.75046 0.18589 0.0
C9 C 0.10154 0.59908 0.12795 0.0
C10 C 0.17292 0.56826 0.15659 0.0
C11 C 1.02543 0.45258 0.14191 0.0
C12 C 0.98124 0.43249 0.13589 0.0
C13 C 0.9642 0.3987 0.12237 0.0
C14 C 0.92222 0.38064 0.1164 0.0
C15 C 0.89753 0.39728 0.12341 0.0
C16 C 0.91478 0.43089 0.137 0.0
C17 C 0.95587 0.44771 0.14345 0.0
C18 C 0.09037 0.54284 0.19445 0.0
C19 C 1.02267 0.57447 0.15871 0.0
O20 O 0.1431 0.64821 0.1929 0.0
O21 O 0.15611 0.68138 0.16442 0.0
O22 O 0.11342 0.5805 0.1398 0.0
O23 O 0.1024 0.63071 0.13707 0.0
O24 O 0.17179 0.60156 0.16393 0.0
O25 O 0.13781 0.53444 0.15073 0.0
O26 O 1.05164 0.48445 0.13087 0.0
O27 O 1.03244 0.4606 0.16106 0.0
O28 O 1.07816 0.56015 0.18205 0.0
O29 O 0.09284 0.51294 0.18542 0.0
O30 O 1.02593 0.54259 0.15134 0.0
O31 O 1.05503 0.60584 0.16808 0.0
H32 H 0.21476 0.65101 0.19408 0.0
H33 H 0.29108 0.68909 0.19753 0.0
H34 H 0.29414 0.80593 0.18593 0.0
H35 H 0.2177 0.76775 0.18229 0.0
H36 H 0.98324 0.3863 0.11649 0.0
H37 H 0.90918 0.35411 0.10623 0.0
H38 H 0.8959 0.44313 0.1433 0.0
H39 H 0.96737 0.4721 0.15468 0.0
Tb40 Tb 0.61346 0.06195 0.50105 0.0
Tb41 Tb 0.56369 0.10859 0.49086 0.0
C42 C 0.64394 1.02284 0.51788 0.0
C43 C 0.63514 0.98506 0.52933 0.0
C44 C 0.65073 0.98996 0.54891 0.0
C45 C 0.65458 0.95789 0.55794 0.0
C46 C 0.64314 0.92058 0.54741 0.0
C47 C 0.62333 0.91397 0.52873 0.0
C48 C 0.61937 0.94598 0.51973 0.0
C49 C 0.61292 0.08217 0.46365 0.0
C50 C 0.51156 1.00806 0.49449 0.0
C51 C 0.53988 0.15041 0.47125 0.0
C52 C 0.55981 0.19675 0.47008 0.0
C53 C 0.55035 0.2189 0.48435 0.0
C54 C 0.57702 0.2621 0.48684 0.0
C55 C 0.6139 0.2839 0.47526 0.0
C56 C 0.62058 0.26255 0.45946 0.0
C57 C 0.59365 0.21951 0.4568 0.0
C58 C 0.57673 0.10709 0.53027 0.0
C59 C 0.66529 0.16172 0.49501 0.0
O60 O 0.63886 1.05166 0.52701 0.0
O61 O 0.63329 1.01813 0.49887 0.0
O62 O 0.58318 0.06999 0.47603 0.0
O63 O 0.64405 0.08055 0.47171 0.0
O64 O 0.54678 1.0089 0.50037 0.0
O65 O 0.51136 1.04311 0.48952 0.0
O66 O 0.56234 0.13531 0.46356 0.0
O67 O 0.52289 0.13275 0.48856 0.0
O68 O 0.58627 0.09194 0.51579 0.0
O69 O 0.55816 0.1257 0.52248 0.0
O70 O 0.63007 0.15991 0.48885 0.0
O71 O 0.66525 0.12802 0.50237 0.0
H72 H 0.66319 1.01982 0.55662 0.0
H73 H 0.67006 0.96387 0.57233 0.0
H74 H 0.61372 0.88519 0.52045 0.0
H75 H 0.60693 0.94111 0.50466 0.0
H76 H 0.52397 0.20249 0.4945 0.0
H77 H 0.56994 0.27795 0.49861 0.0
H78 H 0.64823 0.27816 0.45004 0.0
H79 H 0.60137 0.20359 0.44531 0.0
Tb80 Tb 0.59433 0.58256 0.82791 0.0
Tb81 Tb 0.68725 0.63228 0.82601 0.0
C82 C 0.51828 0.55022 0.83704 0.0
C83 C 0.48687 0.5606 0.84431 0.0
C84 C 0.49139 0.58114 0.86272 0.0
C85 C 0.4575 0.58304 0.87104 0.0
C86 C 0.41873 0.56447 0.86108 0.0
C87 C 0.41546 0.54676 0.842 0.0
C88 C 0.44921 0.54479 0.83374 0.0
C89 C 0.6272 0.5868 0.79232 0.0
C90 C 0.64103 0.6844 0.82363 0.0
C91 C 0.76274 0.65909 0.81704 0.0
C92 C 0.78465 0.63623 0.81179 0.0
C93 C 0.82317 0.64753 0.82075 0.0
C94 C 0.83937 0.62044 0.81969 0.0
C95 C 0.81706 0.58149 0.80978 0.0
C96 C 0.78057 0.5723 0.79926 0.0
C97 C 0.76436 0.59926 0.80037 0.0
C98 C 0.65536 0.62676 0.86226 0.0
C99 C 0.63937 0.5296 0.82658 0.0
O100 O 0.54733 0.5546 0.84968 0.0
O101 O 0.53262 0.56197 0.81879 0.0
O102 O 0.63898 0.61584 0.80501 0.0
O103 O 0.59399 0.55379 0.79902 0.0
O104 O 0.60659 0.64866 0.82893 0.0
O105 O 0.67664 0.68479 0.81991 0.0
O106 O 0.73489 0.65661 0.80419 0.0
O107 O 0.74882 0.65349 0.83551 0.0
O108 O 0.64269 0.59773 0.84936 0.0
O109 O 0.68807 0.6598 0.85515 0.0
O110 O 0.67417 0.56612 0.82282 0.0
O111 O 0.60403 0.52881 0.83126 0.0
H112 H 0.52029 0.59387 0.87114 0.0
H113 H 0.46102 0.59728 0.88567 0.0
H114 H 0.38592 0.5317 0.83404 0.0
H115 H 0.44504 0.52868 0.81957 0.0
H116 H 0.83938 0.676 0.8296 0.0
H117 H 0.86813 0.6289 0.8276 0.0
H118 H 0.76272 0.54288 0.79135 0.0
H119 H 0.73464 0.58983 0.79327 0.0
C120 C 0.57315 0.97907 0.22398 0.0
C121 C 0.57593 0.97388 0.20321 0.0
C122 C 0.59471 1.00985 0.19094 0.0
C123 C 0.60557 1.04922 0.19886 0.0
H124 H 0.60203 0.15166 0.18048 0.0
H125 H 0.62476 0.20774 0.15657 0.0
H126 H 0.64191 0.29449 0.20443 0.0
H127 H 0.62072 0.23786 0.22881 0.0
H128 H 0.63866 0.20327 0.27769 0.0
H129 H 0.64207 0.20499 0.31454 0.0
H130 H 0.55463 0.07133 0.31622 0.0
H131 H 0.55218 0.06948 0.27983 0.0
H132 H 0.57926 1.02053 0.24777 0.0
H133 H 0.55858 0.95228 0.23398 0.0
H134 H 0.59826 1.00715 0.17496 0.0
H135 H 0.61741 0.07585 0.18878 0.0
N136 N 0.60548 0.12285 0.21426 0.0
N137 N 0.60361 0.16301 0.2413 0.0
N138 N 0.59838 0.09756 0.24692 0.0
C139 C 0.60614 0.15795 0.22118 0.0
C140 C 0.59932 0.13247 0.25419 0.0
C141 C 0.6019 0.09267 0.22702 0.0
C142 C 0.61119 0.19059 0.20668 0.0
C143 C 0.61002 0.18249 0.18601 0.0
C144 C 0.62239 0.21478 0.17213 0.0
C145 C 0.63606 0.2561 0.17852 0.0
C146 C 0.63255 0.26323 0.19903 0.0
C147 C 0.62043 0.23078 0.21302 0.0
C148 C 0.59578 0.13612 0.27601 0.0
C149 C 0.61962 0.17456 0.28605 0.0
C150 C 0.62156 0.17552 0.30707 0.0
C151 C 0.5994 0.13809 0.31817 0.0
C152 C 0.57299 0.10044 0.30803 0.0
C153 C 0.57145 0.09942 0.28721 0.0
C154 C 0.59851 1.0534 0.21926 0.0
C155 C 0.5845 1.01839 0.23192 0.0
C156 C 0.83821 0.54426 0.55487 0.0
C157 C 0.83039 0.55414 0.53562 0.0
C158 C 0.84034 0.59546 0.53146 0.0
C159 C 0.85437 0.62547 0.5467 0.0
H160 H 0.83019 0.71467 0.55885 0.0
H161 H 0.79415 0.75396 0.55369 0.0
H162 H 0.82056 0.79898 0.61465 0.0
H163 H 0.85631 0.75904 0.62017 0.0
H164 H 0.81147 0.57231 0.62964 0.0
H165 H 0.77816 0.54785 0.66251 0.0
H166 H 0.84949 0.67432 0.68549 0.0
H167 H 0.88218 0.69891 0.65264 0.0
H168 H 0.85494 0.56478 0.58519 0.0
H169 H 0.83062 0.5125 0.55847 0.0
H170 H 0.83497 0.6039 0.51667 0.0
H171 H 0.85955 0.65642 0.54314 0.0
N172 N 0.86052 0.67805 0.57943 0.0
N173 N 0.85724 0.68927 0.61372 0.0
N174 N 0.86078 0.63054 0.60268 0.0
C175 C 0.85787 0.70142 0.5945 0.0
C176 C 0.85894 0.65412 0.61797 0.0
C177 C 0.86255 0.64293 0.58331 0.0
C178 C 0.84568 0.73319 0.59004 0.0
C179 C 0.82932 0.73363 0.57109 0.0
C180 C 0.80837 0.75583 0.56813 0.0
C181 C 0.80408 0.77866 0.5839 0.0
C182 C 0.82337 0.78128 0.60233 0.0
C183 C 0.84382 0.75848 0.60544 0.0
C184 C 0.84915 0.63757 0.63861 0.0
C185 C 0.82121 0.59457 0.64192 0.0
C186 C 0.80191 0.5806 0.66065 0.0
C187 C 0.81102 0.6093 0.67641 0.0
C188 C 0.84207 0.65152 0.67361 0.0
C189 C 0.86072 0.6656 0.65482 0.0
C190 C 0.85817 0.61456 0.5665 0.0
C191 C 0.85194 0.5742 0.5702 0.0
C192 C 0.85177 0.36756 0.88609 0.0
C193 C 0.86747 0.36767 0.8668 0.0
C194 C 0.89897 0.35718 0.86465 0.0
C195 C 0.91747 0.35114 0.88157 0.0
H196 H 1.03088 0.3668 0.8953 0.0
H197 H 0.10472 0.40091 0.88602 0.0
H198 H 0.13931 0.44934 0.94621 0.0
H199 H 1.06553 0.41561 0.9556 0.0
H200 H 0.9646 0.35961 0.98951 0.0
H201 H 0.96974 0.39721 0.02062 0.0
H202 H 0.92563 0.47049 0.98984 0.0
H203 H 0.91898 0.43168 0.95877 0.0
H204 H 0.85941 0.36478 0.91768 0.0
H205 H 0.82762 0.37575 0.88827 0.0
H206 H 0.9112 0.35639 0.84995 0.0
H207 H 0.9435 0.34574 0.87938 0.0
N208 N 0.96999 0.36494 0.91541 0.0
N209 N 0.98688 0.38233 0.94913 0.0
N210 N 0.9215 0.36844 0.93706 0.0
C211 C 0.99786 0.37583 0.93061 0.0
C212 C 0.94875 0.37834 0.95251 0.0
C213 C 0.93161 0.3607 0.91848 0.0
C214 C 1.04213 0.38884 0.92614 0.0
C215 C 1.05414 0.38403 0.9067 0.0
C216 C 0.09648 0.40353 0.90137 0.0
C217 C 0.12765 0.42829 0.91533 0.0
C218 C 0.11582 0.43104 0.93507 0.0
C219 C 1.07351 0.41134 0.94046 0.0
C220 C 0.94125 0.39272 0.97187 0.0
C221 C 0.9544 0.38255 0.98963 0.0
C222 C 0.95729 0.40399 0.00737 0.0
C223 C 0.94813 0.43667 0.0075 0.0
C224 C 0.93262 0.44522 0.99005 0.0
C225 C 0.92862 0.4229 0.97238 0.0
C226 C 0.90494 0.35572 0.90096 0.0
C227 C 0.87029 0.36159 0.90301 0.0
C228 C 0.21899 0.72671 0.44562 0.0
C229 C 0.23573 0.72921 0.46484 0.0
C230 C 0.21251 0.69407 0.47766 0.0
C231 C 0.17521 0.65745 0.47106 0.0
H232 H 1.04292 0.5119 0.48119 0.0
H233 H 0.97867 0.44801 0.49279 0.0
H234 H 0.91816 0.44391 0.437 0.0
H235 H 0.98084 0.50606 0.42565 0.0
H236 H 1.04677 0.51044 0.38763 0.0
H237 H 1.04818 0.50613 0.35127 0.0
H238 H 0.14194 0.63803 0.34848 0.0
H239 H 0.14183 0.64175 0.38497 0.0
H240 H 0.17174 0.69098 0.42402 0.0
H241 H 0.23434 0.75291 0.43532 0.0
H242 H 0.22383 0.69424 0.49262 0.0
H243 H 0.15937 0.63086 0.4811 0.0
N244 N 0.09008 0.58353 0.45284 0.0
N245 N 1.06053 0.54849 0.42233 0.0
N246 N 0.1239 0.61194 0.42183 0.0
C247 C 1.05791 0.54989 0.44267 0.0
C248 C 0.09306 0.57891 0.41177 0.0
C249 C 0.12347 0.61517 0.4422 0.0
C250 C 1.01804 0.51461 0.45226 0.0
C251 C 1.01571 0.49767 0.47154 0.0
C252 C 0.97864 0.46071 0.47817 0.0
C253 C 0.94276 0.43941 0.46572 0.0
C254 C 0.94491 0.45782 0.44695 0.0
C255 C 0.98137 0.49421 0.44043 0.0
C256 C 0.09419 0.57645 0.38939 0.0
C257 C 1.06779 0.53857 0.3793 0.0
C258 C 1.06839 0.53619 0.3583 0.0
C259 C 0.09501 0.57177 0.34663 0.0
C260 C 0.12145 0.60969 0.35677 0.0
C261 C 0.12122 0.61192 0.37781 0.0
C262 C 0.15979 0.65475 0.45142 0.0
C263 C 0.18228 0.69065 0.43912 0.0
C264 C 0.59953 0.21983 0.78449 0.0
C265 C 0.62864 0.24669 0.79888 0.0
C266 C 0.65415 0.23253 0.80787 0.0
C267 C 0.65195 0.19425 0.80189 0.0
H268 H 0.6096 1.03155 0.81311 0.0
H269 H 0.6096 0.96728 0.82369 0.0
H270 H 0.66868 0.96703 0.76774 0.0
H271 H 0.66833 1.02971 0.75732 0.0
H272 H 0.65308 0.06555 0.71765 0.0
H273 H 0.64661 0.06438 0.68106 0.0
H274 H 0.57889 0.13136 0.68581 0.0
H275 H 0.58603 0.13343 0.72233 0.0
H276 H 0.57542 0.16371 0.76689 0.0
H277 H 0.57824 0.2281 0.7775 0.0
H278 H 0.67714 0.25185 0.81899 0.0
H279 H 0.67353 0.18579 0.8084 0.0
N280 N 0.63193 0.10289 0.78624 0.0
N281 N 0.63018 0.0718 0.75493 0.0
N282 N 0.62219 0.13076 0.75617 0.0
C283 C 0.63365 0.07172 0.77527 0.0
C284 C 0.62432 0.10077 0.74527 0.0
C285 C 0.62631 0.13293 0.77649 0.0
C286 C 0.63865 1.03638 0.78419 0.0
C287 C 0.62317 1.01815 0.80322 0.0
C288 C 0.62305 0.98092 0.80926 0.0
C289 C 0.63827 0.96057 0.79647 0.0
C290 C 0.65535 0.98019 0.77793 0.0
C291 C 0.65547 1.01691 0.77197 0.0
C292 C 0.62011 0.09962 0.72299 0.0
C293 C 0.63679 0.08004 0.71092 0.0
C294 C 0.63328 0.07951 0.68995 0.0
C295 C 0.61217 0.0977 0.68056 0.0
C296 C 0.5951 0.11686 0.69262 0.0
C297 C 0.5994 0.11821 0.71354 0.0
C298 C 0.62412 0.16878 0.78672 0.0
C299 C 0.5975 0.18213 0.77853 0.0
C300 C 0.74895 0.61686 0.12512 0.0
C301 C 0.74761 0.57987 0.13206 0.0
C302 C 0.70707 0.54393 0.13419 0.0
C303 C 0.67014 0.54463 0.12887 0.0
H304 H 0.54666 0.58775 0.14755 0.0
H305 H 0.48236 0.58771 0.15831 0.0
H306 H 0.43382 0.55462 0.09825 0.0
H307 H 0.49641 0.5547 0.0877 0.0
H308 H 0.54509 0.56408 0.0514 0.0
H309 H 0.54982 0.56814 0.01503 0.0
H310 H 0.68215 0.6103 0.01829 0.0
H311 H 0.67699 0.60463 0.05475 0.0
H312 H 0.71537 0.6459 0.11332 0.0
H313 H 0.77863 0.64578 0.12357 0.0
H314 H 0.70367 0.5144 0.13914 0.0
H315 H 0.6402 0.51572 0.12967 0.0
N316 N 0.59999 0.57599 0.11958 0.0
N317 N 0.57285 0.57758 0.08787 0.0
N318 N 0.63851 0.58277 0.08989 0.0
C319 C 0.56821 0.57504 0.10818 0.0
C320 C 0.60738 0.58143 0.07856 0.0
C321 C 0.63545 0.57976 0.11026 0.0
C322 C 0.52793 0.57172 0.11658 0.0
C323 C 0.52214 0.58013 0.13669 0.0
C324 C 0.48499 0.58014 0.14286 0.0
C325 C 0.45242 0.572 0.12914 0.0
C326 C 0.458 0.56234 0.10932 0.0
C327 C 0.4945 0.56216 0.10326 0.0
C328 C 0.61067 0.58405 0.05618 0.0
C329 C 0.57528 0.57421 0.04442 0.0
C330 C 0.57805 0.5768 0.02344 0.0
C331 C 0.61642 0.58975 0.01347 0.0
C332 C 0.65185 0.59955 0.02526 0.0
C333 C 0.64897 0.59655 0.04627 0.0
C334 C 0.67207 0.58126 0.12122 0.0
C335 C 0.7122 0.61732 0.11959 0.0
C336 C 0.25315 0.60432 0.15986 0.0
C337 C 0.21466 0.56932 0.15404 0.0
C338 C 0.29212 0.60556 0.15722 0.0
C339 C 0.29369 0.5713 0.14813 0.0
C340 C 0.25493 0.53579 0.14237 0.0
C341 C 0.21642 0.53519 0.14541 0.0
C342 C 0.33165 0.64448 0.16378 0.0
C343 C 0.25411 0.4983 0.1327 0.0
C344 C 0.39481 0.58921 0.12112 0.0
C345 C 0.41295 0.57375 0.13481 0.0
C346 C 0.35699 0.58913 0.12537 0.0
C347 C 0.3355 0.57304 0.14384 0.0
C348 C 0.35405 0.55834 0.15798 0.0
C349 C 0.39219 0.55896 0.15339 0.0
C350 C 0.33992 0.60645 0.10994 0.0
C351 C 0.33339 0.54177 0.17807 0.0
H352 H 0.25305 0.6312 0.16644 0.0
H353 H 0.18746 0.50776 0.14075 0.0
H354 H 0.35697 0.63794 0.16775 0.0
H355 H 0.34311 0.66767 0.15135 0.0
H356 H 0.32541 0.65904 0.17696 0.0
H357 H 0.22169 0.47247 0.12963 0.0
H358 H 0.27185 0.50789 0.11834 0.0
H359 H 0.26977 0.48611 0.14254 0.0
H360 H 0.41043 0.60182 0.1069 0.0
H361 H 0.4052 0.54685 0.16424 0.0
H362 H 0.33734 0.63279 0.11654 0.0
H363 H 0.30791 0.58181 0.10545 0.0
H364 H 0.36 0.61799 0.0963 0.0
H365 H 0.32995 0.56633 0.1861 0.0
H366 H 0.35153 0.53194 0.18762 0.0
H367 H 0.30141 0.51445 0.1759 0.0
C368 C 0.7075 0.23988 0.48619 0.0
C369 C 0.70663 0.20296 0.49259 0.0
C370 C 0.74567 0.27809 0.48276 0.0
C371 C 0.78504 0.28053 0.48582 0.0
C372 C 0.78437 0.24346 0.49247 0.0
C373 C 0.74564 0.20561 0.49579 0.0
C374 C 0.7428 0.31558 0.47593 0.0
C375 C 0.82482 0.24345 0.49561 0.0
C376 C 0.88131 0.36668 0.45695 0.0
C377 C 0.90347 0.39798 0.47153 0.0
C378 C 0.84363 0.32881 0.46145 0.0
C379 C 0.82654 0.32082 0.48116 0.0
C380 C 0.84875 0.35198 0.49605 0.0
C381 C 0.88675 0.38964 0.49116 0.0
C382 C 0.82149 0.29746 0.44487 0.0
C383 C 0.83208 0.34573 0.51722 0.0
H384 H 0.67811 0.23909 0.48367 0.0
H385 H 0.74606 0.17772 0.50058 0.0
H386 H 0.77258 0.34137 0.46974 0.0
H387 H 0.71824 0.30595 0.46431 0.0
H388 H 0.7332 0.32788 0.48888 0.0
H389 H 0.81947 0.21268 0.50113 0.0
H390 H 0.84262 0.25099 0.48128 0.0
H391 H 0.84471 0.26814 0.50657 0.0
H392 H 0.89357 0.37165 0.44178 0.0
H393 H 0.90278 0.41311 0.50268 0.0
H394 H 0.79016 0.29399 0.44237 0.0
H395 H 0.8164 0.26617 0.44925 0.0
H396 H 0.83932 0.30705 0.43052 0.0
H397 H 0.79829 0.33596 0.51718 0.0
H398 H 0.84934 0.37464 0.52642 0.0
H399 H 0.83492 0.32016 0.52444 0.0
C400 C 0.67592 0.76298 0.81599 0.0
C401 C 0.6396 0.72485 0.82117 0.0
C402 C 0.67516 0.80081 0.81298 0.0
C403 C 0.63711 0.80151 0.81504 0.0
C404 C 0.60039 0.76325 0.82049 0.0
C405 C 0.60206 0.72581 0.82348 0.0
C406 C 0.71531 0.84018 0.80728 0.0
C407 C 0.55893 0.76165 0.82287 0.0
C408 C 0.64255 0.90937 0.82143 0.0
C409 C 0.63605 0.91898 0.80178 0.0
C410 C 0.64255 0.87154 0.826 0.0
C411 C 0.63558 0.84164 0.8107 0.0
C412 C 0.62811 0.85075 0.79097 0.0
C413 C 0.62841 0.88872 0.78682 0.0
C414 C 0.65078 0.8639 0.84726 0.0
C415 C 0.62007 0.82037 0.77403 0.0
H416 H 0.7053 0.76335 0.81412 0.0
H417 H 0.57359 0.69703 0.82744 0.0
H418 H 0.71202 0.85097 0.79223 0.0
H419 H 0.72176 0.86575 0.81805 0.0
H420 H 0.74267 0.83528 0.80699 0.0
H421 H 0.53348 0.73024 0.82783 0.0
H422 H 0.56183 0.78547 0.83397 0.0
H423 H 0.54978 0.76948 0.8084 0.0
H424 H 0.64873 0.93197 0.83325 0.0
H425 H 0.62232 0.89454 0.77163 0.0
H426 H 0.67987 0.86204 0.84776 0.0
H427 H 0.62476 0.83335 0.8527 0.0
H428 H 0.65424 0.88909 0.85765 0.0
H429 H 0.64763 0.8162 0.77197 0.0
H430 H 0.61377 0.8312 0.75962 0.0
H431 H 0.59284 0.7891 0.77774 0.0
C432 C 0.97228 0.60189 0.16625 0.0
C433 C 0.98232 0.57536 0.15524 0.0
C434 C 0.93442 0.60246 0.16295 0.0
C435 C 0.9054 0.57639 0.14803 0.0
C436 C 0.91583 0.55012 0.13667 0.0
C437 C 0.95346 0.54965 0.14049 0.0
C438 C 0.92547 0.63122 0.17551 0.0
C439 C 0.88707 0.52206 0.12042 0.0
C440 C 0.78935 0.55072 0.15035 0.0
C441 C 0.78807 0.57877 0.13631 0.0
C442 C 0.82669 0.54946 0.1542 0.0
C443 C 0.86481 0.57715 0.14405 0.0
C444 C 0.86381 0.60533 0.12982 0.0
C445 C 0.82603 0.60565 0.12611 0.0
C446 C 0.82527 0.51816 0.1692 0.0
C447 C 0.90286 0.63509 0.11823 0.0
H448 H 0.99391 0.62207 0.17765 0.0
H449 H 0.96059 0.52938 0.13155 0.0
H450 H 0.92235 0.65375 0.16568 0.0
H451 H 0.89521 0.61259 0.18358 0.0
H452 H 0.95052 0.64921 0.18666 0.0
H453 H 0.85842 0.49607 0.12741 0.0
H454 H 0.87711 0.53963 0.11055 0.0
H455 H 0.9022 0.50843 0.11101 0.0
H456 H 0.76116 0.52978 0.15865 0.0
H457 H 0.82636 0.62682 0.11479 0.0
H458 H 0.84846 0.53481 0.18126 0.0
H459 H 0.83405 0.49667 0.16173 0.0
H460 H 0.79372 0.49902 0.17611 0.0
H461 H 0.92833 0.65534 0.12876 0.0
H462 H 0.89757 0.65553 0.10787 0.0
H463 H 0.91398 0.61699 0.10936 0.0
C464 C 0.4336 0.96432 0.48586 0.0
C465 C 0.47088 0.96602 0.49219 0.0
C466 C 0.39583 0.92566 0.48258 0.0
C467 C 0.39424 0.88665 0.48559 0.0
C468 C 0.43154 0.88804 0.49229 0.0
C469 C 0.46898 0.92725 0.49548 0.0
C470 C 0.35757 0.92666 0.4755 0.0
C471 C 0.43215 0.8479 0.49577 0.0
C472 C 0.28477 0.78504 0.49042 0.0
C473 C 0.27723 0.7682 0.47085 0.0
C474 C 0.32247 0.82275 0.4955 0.0
C475 C 0.35433 0.84487 0.48082 0.0
C476 C 0.3473 0.82747 0.46121 0.0
C477 C 0.30947 0.78991 0.45655 0.0
C478 C 0.32786 0.83943 0.51661 0.0
C479 C 0.37974 0.84893 0.4449 0.0
H480 H 0.43389 0.99348 0.48318 0.0
H481 H 0.49706 0.92741 0.50031 0.0
H482 H 0.34839 0.91204 0.46043 0.0
H483 H 0.33077 0.90802 0.48578 0.0
H484 H 0.36296 0.95915 0.47463 0.0
H485 H 0.46264 0.85378 0.50183 0.0
H486 H 0.40682 0.82742 0.5064 0.0
H487 H 0.42605 0.83035 0.48146 0.0
H488 H 0.26066 0.76936 0.50175 0.0
H489 H 0.3053 0.77742 0.44148 0.0
H490 H 0.32998 0.87058 0.51646 0.0
H491 H 0.35759 0.84402 0.523 0.0
H492 H 0.3015 0.81806 0.5266 0.0
H493 H 0.38474 0.88086 0.44219 0.0
H494 H 0.37044 0.83118 0.43055 0.0
H495 H 0.41021 0.85271 0.44969 0.0
C496 C 0.60207 0.44917 0.82653 0.0
C497 C 0.63914 0.48831 0.82407 0.0
C498 C 0.60093 0.41043 0.82317 0.0
C499 C 0.63767 0.40983 0.81707 0.0
C500 C 0.6752 0.44928 0.81467 0.0
C501 C 0.67545 0.48746 0.8183 0.0
C502 C 0.55989 0.36988 0.82573 0.0
C503 C 0.71561 0.45229 0.80781 0.0
C504 C 0.64191 0.3069 0.82315 0.0
C505 C 0.63244 0.28923 0.80374 0.0
C506 C 0.64388 0.34574 0.82766 0.0
C507 C 0.63622 0.36827 0.81253 0.0
C508 C 0.62783 0.35123 0.79286 0.0
C509 C 0.62603 0.31249 0.78876 0.0
C510 C 0.6542 0.36279 0.84872 0.0
C511 C 0.62125 0.3744 0.77593 0.0
H512 H 0.57347 0.44868 0.83087 0.0
H513 H 0.70439 0.51688 0.8164 0.0
H514 H 0.55054 0.35278 0.81123 0.0
H515 H 0.56357 0.34932 0.83667 0.0
H516 H 0.53426 0.37515 0.83098 0.0
H517 H 0.74104 0.47234 0.81841 0.0
H518 H 0.71391 0.42153 0.80653 0.0
H519 H 0.72434 0.46769 0.79289 0.0
H520 H 0.64708 0.29002 0.83503 0.0
H521 H 0.62004 0.30067 0.77352 0.0
H522 H 0.62704 0.36379 0.85533 0.0
H523 H 0.68107 0.39551 0.84847 0.0
H524 H 0.66213 0.34349 0.85855 0.0
H525 H 0.59535 0.38033 0.77973 0.0
H526 H 0.61377 0.35679 0.76156 0.0
H527 H 0.65005 0.40544 0.77378 0.0
C528 C 0.65601 0.88049 0.57413 0.0
C529 C 0.6591 0.8929 0.55404 0.0
C530 C 0.67634 0.85916 0.5808 0.0
C531 C 0.7009 0.85101 0.56712 0.0
C532 C 0.70316 0.86254 0.54673 0.0
C533 C 0.68203 0.8831 0.54043 0.0
C534 C 0.67252 0.84641 0.60255 0.0
C535 C 0.72938 0.85481 0.5317 0.0
C536 C 0.79266 0.83999 0.58432 0.0
C537 C 0.77687 0.79699 0.58142 0.0
C538 C 0.76761 0.85789 0.58047 0.0
C539 C 0.72569 0.83184 0.574 0.0
C540 C 0.70905 0.788 0.57211 0.0
C541 C 0.73504 0.77114 0.57564 0.0
C542 C 0.78661 0.90488 0.58236 0.0
C543 C 0.66431 0.75914 0.56563 0.0
H544 H 0.6383 0.88811 0.58465 0.0
H545 H 0.68522 0.89343 0.52498 0.0
H546 H 0.66309 0.81273 0.60375 0.0
H547 H 0.70341 0.86478 0.60998 0.0
H548 H 0.6493 0.85166 0.61081 0.0
H549 H 0.72707 0.86497 0.51632 0.0
H550 H 0.76278 0.87211 0.53631 0.0
H551 H 0.71938 0.82092 0.53127 0.0
H552 H 0.82504 0.85978 0.58883 0.0
H553 H 0.7228 0.73771 0.57372 0.0
H554 H 0.76651 0.91234 0.5919 0.0
H555 H 0.78847 0.91861 0.56732 0.0
H556 H 0.81863 0.92025 0.58885 0.0
H557 H 0.64253 0.76531 0.57459 0.0
H558 H 0.65481 0.72546 0.56722 0.0
H559 H 0.66071 0.76524 0.54968 0.0
C560 C 0.82256 0.51935 0.79784 0.0
C561 C 0.82765 0.54799 0.81307 0.0
C562 C 0.82688 0.48423 0.8019 0.0
C563 C 0.83677 0.47792 0.82159 0.0
C564 C 0.84291 0.50731 0.83685 0.0
C565 C 0.83814 0.54175 0.83241 0.0
C566 C 0.81917 0.45321 0.78533 0.0
C567 C 0.85333 0.50176 0.85812 0.0
C568 C 0.81569 0.37853 0.84744 0.0
C569 C 0.85681 0.38668 0.84991 0.0
C570 C 0.80755 0.40545 0.83592 0.0
C571 C 0.8414 0.44124 0.8268 0.0
C572 C 0.882 0.44624 0.82705 0.0
C573 C 0.88927 0.4189 0.83866 0.0
C574 C 0.76328 0.39735 0.83479 0.0
C575 C 0.91877 0.48336 0.8171 0.0
H576 H 0.81422 0.52383 0.78286 0.0
H577 H 0.84096 0.56292 0.84442 0.0
H578 H 0.84208 0.44209 0.78589 0.0
H579 H 0.78738 0.42542 0.78725 0.0
H580 H 0.82084 0.46691 0.77029 0.0
H581 H 0.85791 0.52795 0.8681 0.0
H582 H 0.82762 0.47193 0.86441 0.0
H583 H 0.88239 0.49982 0.85831 0.0
H584 H 0.79035 0.35282 0.85564 0.0
H585 H 0.92119 0.42538 0.84041 0.0
H586 H 0.75319 0.39228 0.81891 0.0
H587 H 0.76172 0.42492 0.84043 0.0
H588 H 0.74086 0.3692 0.84354 0.0
H589 H 0.90995 0.48936 0.8021 0.0
H590 H 0.94604 0.47854 0.81539 0.0
H591 H 0.92856 0.51186 0.82639 0.0
C592 C 0.36782 0.76093 0.18077 0.0
C593 C 0.34447 0.77317 0.19277 0.0
C594 C 0.41175 0.78528 0.17995 0.0
C595 C 0.43237 0.8229 0.19121 0.0
C596 C 0.40885 0.83404 0.20418 0.0
C597 C 0.36517 0.809 0.20476 0.0
C598 C 0.43533 0.77174 0.16615 0.0
C599 C 0.42954 0.87367 0.21669 0.0
C600 C 0.54386 0.89554 0.20505 0.0
C601 C 0.55052 0.93124 0.19436 0.0
C602 C 0.50726 0.85666 0.20209 0.0
C603 C 0.47742 0.85384 0.18803 0.0
C604 C 0.48815 0.88737 0.17456 0.0
C605 C 0.52463 0.92592 0.17794 0.0
C606 C 0.49793 0.82062 0.21592 0.0
C607 C 0.45801 0.88485 0.15865 0.0
H608 H 0.35165 0.73343 0.1713 0.0
H609 H 0.34698 0.81803 0.21421 0.0
H610 H 0.43685 0.7846 0.15094 0.0
H611 H 0.46787 0.78327 0.17132 0.0
H612 H 0.4189 0.73694 0.16487 0.0
H613 H 0.40692 0.87637 0.22678 0.0
H614 H 0.45475 0.87448 0.226 0.0
H615 H 0.44415 0.90161 0.20672 0.0
H616 H 0.56482 0.89893 0.21717 0.0
H617 H 0.52964 0.95287 0.16922 0.0
H618 H 0.48009 0.79005 0.20803 0.0
H619 H 0.47843 0.82059 0.22866 0.0
H620 H 0.52719 0.82352 0.22209 0.0
H621 H 0.44314 0.85388 0.15104 0.0
H622 H 0.47388 0.90995 0.14719 0.0
H623 H 0.43274 0.88848 0.16579 0.0
C624 C 0.65564 0.33682 0.5016 0.0
C625 C 0.64748 0.32678 0.48119 0.0
C626 C 0.6886 0.37582 0.50779 0.0
C627 C 0.71492 0.40543 0.49325 0.0
C628 C 0.70746 0.39552 0.47262 0.0
C629 C 0.67351 0.35647 0.46681 0.0
C630 C 0.69525 0.38526 0.52999 0.0
C631 C 0.7355 0.42599 0.45673 0.0
C632 C 0.76827 0.51601 0.51362 0.0
C633 C 0.8055 0.52007 0.52119 0.0
C634 C 0.73964 0.47988 0.50317 0.0
C635 C 0.74882 0.44733 0.49999 0.0
C636 C 0.78799 0.45283 0.50615 0.0
C637 C 0.81572 0.48901 0.51695 0.0
C638 C 0.69802 0.47507 0.49714 0.0
C639 C 0.79951 0.41947 0.5024 0.0
H640 H 0.63677 0.31378 0.51289 0.0
H641 H 0.66754 0.34913 0.451 0.0
H642 H 0.72674 0.39121 0.53437 0.0
H643 H 0.69398 0.41411 0.53347 0.0
H644 H 0.67137 0.35913 0.53933 0.0
H645 H 0.7255 0.41349 0.44132 0.0
H646 H 0.73564 0.4561 0.45809 0.0
H647 H 0.76823 0.43311 0.45892 0.0
H648 H 0.76011 0.53984 0.51708 0.0
H649 H 0.84473 0.4924 0.52267 0.0
H650 H 0.67288 0.45132 0.50693 0.0
H651 H 0.69026 0.46367 0.48147 0.0
H652 H 0.6978 0.50505 0.49849 0.0
H653 H 0.7785 0.39098 0.51125 0.0
H654 H 0.83248 0.43013 0.50658 0.0
H655 H 0.79516 0.41045 0.48634 0.0
C656 C 0.34898 0.56063 0.86103 0.0
C657 C 0.3802 0.5576 0.87153 0.0
C658 C 0.30878 0.54494 0.86928 0.0
C659 C 0.29978 0.52584 0.88845 0.0
C660 C 0.33213 0.52592 0.89978 0.0
C661 C 0.372 0.5418 0.89117 0.0
C662 C 0.27521 0.54595 0.85685 0.0
C663 C 0.32382 0.50611 0.92034 0.0
C664 C 0.19639 0.49559 0.91424 0.0
C665 C 0.17213 0.45301 0.90899 0.0
C666 C 0.23803 0.51993 0.9076 0.0
C667 C 0.25571 0.50109 0.89554 0.0
C668 C 0.23141 0.45806 0.8903 0.0
C669 C 0.18985 0.43456 0.89706 0.0
C670 C 0.26293 0.56579 0.91332 0.0
C671 C 0.24932 0.43679 0.87754 0.0
H672 H 0.35541 0.57342 0.84596 0.0
H673 H 0.39583 0.53899 0.89932 0.0
H674 H 0.253 0.5138 0.85136 0.0
H675 H 0.25696 0.55638 0.86604 0.0
H676 H 0.28855 0.56711 0.84367 0.0
H677 H 0.3533 0.51379 0.92822 0.0
H678 H 0.30592 0.51661 0.92975 0.0
H679 H 0.30449 0.47144 0.91886 0.0
H680 H 0.18249 0.5101 0.9232 0.0
H681 H 0.17122 0.4016 0.8931 0.0
H682 H 0.27319 0.58556 0.89961 0.0
H683 H 0.29167 0.5722 0.9215 0.0
H684 H 0.24459 0.57558 0.9229 0.0
H685 H 0.25973 0.45292 0.86283 0.0
H686 H 0.22624 0.40309 0.87484 0.0
H687 H 0.27726 0.43907 0.88494 0.0
C688 C 0.83475 0.40192 0.11398 0.0
C689 C 0.85233 0.37712 0.11903 0.0
C690 C 0.79211 0.38742 0.11747 0.0
C691 C 0.76706 0.34735 0.1262 0.0
C692 C 0.78339 0.31989 0.12821 0.0
C693 C 0.82608 0.33523 0.12458 0.0
C694 C 0.77545 0.41683 0.11401 0.0
C695 C 0.75737 0.27624 0.13685 0.0
C696 C 0.70048 0.32474 0.17174 0.0
C697 C 0.66245 0.29144 0.16466 0.0
C698 C 0.73386 0.34822 0.15857 0.0
C699 C 0.72897 0.33781 0.13791 0.0
C700 C 0.68865 0.30976 0.13032 0.0
C701 C 0.65556 0.28693 0.14385 0.0
C702 C 0.77598 0.37959 0.16727 0.0
C703 C 0.68143 0.2998 0.10826 0.0
H704 H 0.85508 0.43389 0.10897 0.0
H705 H 0.83965 0.31592 0.12825 0.0
H706 H 0.74148 0.39934 0.11046 0.0
H707 H 0.77981 0.43558 0.12777 0.0
H708 H 0.79271 0.43913 0.10161 0.0
H709 H 0.77311 0.2574 0.13517 0.0
H710 H 0.7518 0.27848 0.15307 0.0
H711 H 0.7264 0.25925 0.1294 0.0
H712 H 0.70622 0.32931 0.18772 0.0
H713 H 0.62558 0.26261 0.13816 0.0
H714 H 0.79124 0.40874 0.15818 0.0
H715 H 0.79686 0.36596 0.16711 0.0
H716 H 0.77322 0.38808 0.18298 0.0
H717 H 0.70401 0.32665 0.09888 0.0
H718 H 0.64898 0.29121 0.10404 0.0
H719 H 0.6854 0.27247 0.10485 0.0
C720 C 1.04542 0.58779 0.10385 0.0
C721 C 1.07749 0.58009 0.10954 0.0
C722 C 1.01973 0.56698 0.08735 0.0
C723 C 1.02725 0.53882 0.07603 0.0
C724 C 1.06025 0.53171 0.08155 0.0
C725 C 1.08483 0.5523 0.09833 0.0
C726 C 0.98441 0.57479 0.08222 0.0
C727 C 1.06922 0.50181 0.0699 0.0
C728 C 0.94715 0.44972 0.04417 0.0
C729 C 0.96117 0.46543 0.02486 0.0
C730 C 0.96603 0.47487 0.06108 0.0
C731 C 1.00055 0.51601 0.05854 0.0
C732 C 1.01285 0.53293 0.03901 0.0
C733 C 0.99272 0.50744 0.02235 0.0
C734 C 0.95112 0.45632 0.08165 0.0
C735 C 1.04944 0.57667 0.03566 0.0
H736 H 1.03951 0.60908 0.11268 0.0
H737 H 0.10967 0.54645 0.10281 0.0
H738 H 0.99144 0.59201 0.06779 0.0
H739 H 0.95466 0.5446 0.08026 0.0
H740 H 0.97958 0.59349 0.09394 0.0
H741 H 0.09696 0.50101 0.07573 0.0
H742 H 1.04165 0.46957 0.07067 0.0
H743 H 1.07479 0.51108 0.05386 0.0
H744 H 0.92263 0.41722 0.04604 0.0
H745 H 1.00375 0.51941 0.00736 0.0
H746 H 0.94789 0.47873 0.09161 0.0
H747 H 0.97477 0.45001 0.08844 0.0
H748 H 0.92055 0.4265 0.08105 0.0
H749 H 1.0468 0.59956 0.04552 0.0
H750 H 1.0517 0.58696 0.01983 0.0
H751 H 1.079 0.5774 0.03959 0.0
C752 C 0.65078 0.12485 0.43374 0.0
C753 C 0.61289 0.09714 0.44328 0.0
C754 C 0.65123 0.138 0.41397 0.0
C755 C 0.6129 0.1223 0.40353 0.0
C756 C 0.57447 0.09537 0.41341 0.0
C757 C 0.57496 0.08312 0.43323 0.0
C758 C 0.69276 0.16718 0.40402 0.0
C759 C 0.53298 0.07773 0.40273 0.0
C760 C 0.60541 0.16632 0.35317 0.0
C761 C 0.60595 0.13683 0.34 0.0
C762 C 0.60895 0.16292 0.37399 0.0
C763 C 0.61307 0.1293 0.38162 0.0
C764 C 0.61518 0.10047 0.36829 0.0
C765 C 0.61183 0.10475 0.34768 0.0
C766 C 0.60708 0.19445 0.38784 0.0
C767 C 0.6197 0.06424 0.37581 0.0
H768 H 0.68007 0.13599 0.44169 0.0
H769 H 0.5457 0.06163 0.4407 0.0
H770 H 0.69982 0.14955 0.39263 0.0
H771 H 0.69139 0.19294 0.39611 0.0
H772 H 0.71891 0.18114 0.41497 0.0
H773 H 0.50588 0.06046 0.41308 0.0
H774 H 0.53031 0.1033 0.39542 0.0
H775 H 0.53108 1.05582 0.39077 0.0
H776 H 0.60101 0.19123 0.34725 0.0
H777 H 0.61339 0.08255 0.3375 0.0
H778 H 0.63392 0.20759 0.39837 0.0
H779 H 0.578 0.17863 0.39703 0.0
H780 H 0.60746 0.22072 0.3795 0.0
H781 H 0.64806 0.07611 0.38529 0.0
H782 H 0.62207 1.04536 0.36339 0.0
H783 H 0.59225 1.04322 0.3853 0.0
C784 C 0.67868 0.62312 0.7649 0.0
C785 C 0.65382 0.58647 0.77589 0.0
C786 C 0.7049 0.62374 0.74942 0.0
C787 C 0.7074 0.58721 0.7454 0.0
C788 C 0.68343 0.55053 0.75705 0.0
C789 C 0.656 0.55025 0.77183 0.0
C790 C 0.7298 0.66344 0.73731 0.0
C791 C 0.68736 0.51197 0.75415 0.0
C792 C 0.74067 0.57895 0.69249 0.0
C793 C 0.78417 0.5972 0.69455 0.0
C794 C 0.71512 0.57408 0.7091 0.0
C795 C 0.7335 0.58718 0.72829 0.0
C796 C 0.77724 0.60371 0.73056 0.0
C797 C 0.80206 0.60862 0.71363 0.0
C798 C 0.6689 0.55743 0.70588 0.0
C799 C 0.79815 0.61642 0.75075 0.0
H800 H 0.6771 0.65115 0.76822 0.0
H801 H 0.63732 0.52213 0.78067 0.0
H802 H 0.76384 0.67522 0.73902 0.0
H803 H 0.72225 0.65672 0.72115 0.0
H804 H 0.72339 0.68868 0.74197 0.0
H805 H 0.66889 0.48719 0.76544 0.0
H806 H 0.67647 0.49878 0.73895 0.0
H807 H 0.72077 0.52062 0.75529 0.0
H808 H 0.72689 0.57072 0.67766 0.0
H809 H 0.8357 0.62239 0.7152 0.0
H810 H 0.66133 0.58232 0.70957 0.0
H811 H 0.64999 0.53052 0.71603 0.0
H812 H 0.65924 0.54707 0.69017 0.0
H813 H 0.78508 0.63218 0.76005 0.0
H814 H 0.83259 0.63771 0.74937 0.0
H815 H 0.79262 0.58766 0.75867 0.0
C816 C 0.59086 0.13809 0.56463 0.0
C817 C 0.58501 0.10527 0.55188 0.0
C818 C 0.59709 0.13657 0.58534 0.0
C819 C 0.59629 0.10077 0.59368 0.0
C820 C 0.59035 0.06745 0.5808 0.0
C821 C 0.58501 0.07024 0.56003 0.0
C822 C 0.60419 0.17321 0.59834 0.0
C823 C 0.58841 1.02834 0.589 0.0
C824 C 0.64336 0.11104 0.64581 0.0
C825 C 0.608 0.09687 0.65827 0.0
C826 C 0.64003 0.11215 0.62479 0.0
C827 C 0.60023 0.09782 0.61593 0.0
C828 C 0.56428 0.08236 0.62846 0.0
C829 C 0.56867 0.08257 0.64944 0.0
C830 C 0.67929 0.12975 0.6121 0.0
C831 C 0.52113 0.0659 0.61972 0.0
H832 H 0.59077 0.16518 0.55835 0.0
H833 H 0.57919 1.04426 0.5503 0.0
H834 H 0.578 0.16299 0.60923 0.0
H835 H 0.63344 0.18468 0.60711 0.0
H836 H 0.60653 0.19975 0.58941 0.0
H837 H 0.58487 1.00585 0.57697 0.0
H838 H 0.61726 1.03673 0.59758 0.0
H839 H 0.56153 1.01239 0.59955 0.0
H840 H 0.67386 0.1224 0.65257 0.0
H841 H 0.54119 0.07119 0.65899 0.0
H842 H 0.68378 0.15793 0.6039 0.0
H843 H 0.6762 0.10637 0.6007 0.0
H844 H 0.70771 0.1387 0.6212 0.0
H845 H 0.51951 0.09167 0.61197 0.0
H846 H 0.49609 1.05241 0.63135 0.0
H847 H 0.51473 1.04131 0.60836 0.0
C848 C 0.61459 0.58143 0.89173 0.0
C849 C 0.6454 0.62044 0.8841 0.0
C850 C 0.6073 0.57493 0.91257 0.0
C851 C 0.63174 0.60803 0.92614 0.0
C852 C 0.66241 0.64763 0.91843 0.0
C853 C 0.66864 0.65338 0.89758 0.0
C854 C 0.57388 0.53242 0.92007 0.0
C855 C 0.68939 0.68378 0.93224 0.0
C856 C 0.59582 0.60691 0.98016 0.0
C857 C 0.61945 0.59326 0.99097 0.0
C858 C 0.59861 0.61073 0.9591 0.0
C859 C 0.62617 0.60129 0.94841 0.0
C860 C 0.6499 0.58726 0.95915 0.0
C861 C 0.6461 0.5832 0.98018 0.0
C862 C 0.57253 0.62557 0.94831 0.0
C863 C 0.67986 0.57707 0.94842 0.0
H864 H 0.59659 0.55579 0.88143 0.0
H865 H 0.69251 0.68365 0.89183 0.0
H866 H 0.58847 0.51799 0.92916 0.0
H867 H 0.55153 0.53587 0.92999 0.0
H868 H 0.55609 0.51067 0.90763 0.0
H869 H 0.71137 0.71278 0.92389 0.0
H870 H 0.66936 0.69083 0.94209 0.0
H871 H 0.70792 0.67503 0.94211 0.0
H872 H 0.57558 0.61547 0.98818 0.0
H873 H 0.66397 0.57187 0.98816 0.0
H874 H 0.55405 0.60311 0.93624 0.0
H875 H 0.59336 0.65636 0.94109 0.0
H876 H 0.55062 0.62902 0.95858 0.0
H877 H 0.66288 0.55257 0.93689 0.0
H878 H 0.69551 0.5658 0.95884 0.0
H879 H 0.70433 0.60543 0.94053 0.0
C880 C 1.08454 0.57902 0.22541 0.0
C881 C 0.09288 0.54931 0.21659 0.0
C882 C 1.08599 0.58456 0.24639 0.0
C883 C 0.09515 0.55919 0.25897 0.0
C884 C 0.10352 0.5291 0.25009 0.0
C885 C 0.10256 0.52475 0.22906 0.0
C886 C 1.07742 0.61739 0.25512 0.0
C887 C 0.11287 0.50097 0.26283 0.0
C888 C 0.13216 0.59288 0.3129 0.0
C889 C 0.09503 0.56923 0.32407 0.0
C890 C 0.13252 0.5905 0.29179 0.0
C891 C 0.09503 0.56333 0.2814 0.0
C892 C 1.05747 0.53942 0.29251 0.0
C893 C 1.05785 0.54292 0.31357 0.0
C894 C 0.17321 0.61691 0.28059 0.0
C895 C 1.0168 0.50978 0.28214 0.0
H896 H 1.07656 0.5978 0.21592 0.0
H897 H 0.10889 0.50161 0.22239 0.0
H898 H 1.04892 0.6021 0.26471 0.0
H899 H 0.10388 0.63925 0.2648 0.0
H900 H 1.07279 0.63593 0.24333 0.0
H901 H 0.11893 0.47931 0.25366 0.0
H902 H 0.14066 0.52026 0.27234 0.0
H903 H 1.08603 0.48198 0.27304 0.0
H904 H 0.1613 0.61287 0.32066 0.0
H905 H 1.02869 0.52509 0.32179 0.0
H906 H 0.1692 0.63644 0.26915 0.0
H907 H 0.18227 0.59625 0.27253 0.0
H908 H 0.19924 0.63793 0.29072 0.0
H909 H 1.00861 0.52739 0.27135 0.0
H910 H 0.99035 0.49311 0.29288 0.0
H911 H 1.02044 0.48607 0.27342 0.0
loop_
_geom_bond_atom_site_label_1
_geom_bond_atom_site_label_2
_geom_bond_distance
_geom_bond_site_symmetry_2
_ccdc_geom_bond_type
Tb0 C2 2.809 . S
Tb0 O20 2.484 . S
Tb0 O21 2.440 . S
Tb0 O22 2.658 . S
Tb0 O23 2.409 . S
Tb0 O24 2.378 . S
Tb0 O28 2.325 . S
Tb0 O31 2.341 1_455 S
Tb1 C11 2.809 . S
Tb1 O22 2.325 1_655 S
Tb1 O25 2.341 1_655 S
Tb1 O26 2.484 . S
Tb1 O27 2.440 . S
Tb1 O28 2.658 1_655 S
Tb1 O29 2.409 1_655 S
Tb1 O30 2.378 . S
C2 Tb0 2.809 . S
C2 C3 1.514 . S
C2 O20 1.248 . S
C2 O21 1.266 . S
C3 C2 1.514 . S
C3 C4 1.359 . S
C3 C8 1.348 . S
C4 C3 1.359 . S
C4 C5 1.380 . S
C4 H32 0.929 . S
C5 C4 1.380 . S
C5 C6 1.347 . S
C5 H33 0.931 . S
C6 C5 1.347 . S
C6 C7 1.369 . S
C7 C6 1.369 . S
C7 C8 1.408 . S
C7 H34 0.930 . S
C8 C3 1.348 . S
C8 C7 1.408 . S
C8 H35 0.930 . S
C9 O22 1.281 . S
C9 O23 1.254 . S
C10 O24 1.236 . S
C10 O25 1.266 . S
C11 Tb1 2.809 . S
C11 C12 1.514 . S
C11 O26 1.248 . S
C11 O27 1.266 . S
C12 C11 1.514 . S
C12 C13 1.359 . S
C12 C17 1.348 . S
C13 C12 1.359 . S
C13 C14 1.380 . S
C13 H36 0.929 . S
C14 C13 1.380 . S
C14 C15 1.347 . S
C14 H37 0.931 . S
C15 C14 1.347 . S
C15 C16 1.369 . S
C16 C15 1.369 . S
C16 C17 1.408 . S
C16 H38 0.930 . S
C17 C12 1.348 . S
C17 C16 1.408 . S
C17 H39 0.930 . S
C18 O28 1.281 . S
C18 O29 1.254 . S
C19 O30 1.236 . S
C19 O31 1.266 . S
O20 Tb0 2.484 . S
O20 C2 1.248 . S
O21 Tb0 2.440 . S
O21 C2 1.266 . S
O22 Tb0 2.658 . S
O22 Tb1 2.325 1_455 S
O22 C9 1.281 . S
O23 Tb0 2.409 . S
O23 C9 1.254 . S
O24 Tb0 2.378 . S
O24 C10 1.236 . S
O25 Tb1 2.341 1_455 S
O25 C10 1.266 . S
O26 Tb1 2.484 . S
O26 C11 1.248 . S
O27 Tb1 2.440 . S
O27 C11 1.266 . S
O28 Tb0 2.325 . S
O28 Tb1 2.658 1_455 S
O28 C18 1.281 . S
O29 Tb1 2.409 1_455 S
O29 C18 1.254 . S
O30 Tb1 2.378 . S
O30 C19 1.236 . S
O31 Tb0 2.341 1_655 S
O31 C19 1.266 . S
H32 C4 0.929 . S
H33 C5 0.931 . S
H34 C7 0.930 . S
H35 C8 0.930 . S
H36 C13 0.929 . S
H37 C14 0.931 . S
H38 C16 0.930 . S
H39 C17 0.930 . S
Tb40 C42 2.795 1_545 S
Tb40 O60 2.473 1_545 S
Tb40 O61 2.427 1_545 S
Tb40 O62 2.670 . S
Tb40 O63 2.411 . S
Tb40 O64 2.376 1_545 S
Tb40 O68 2.332 . S
Tb40 O71 2.353 . S
Tb41 C51 2.809 . S
Tb41 O62 2.325 . S
Tb41 O65 2.341 1_545 S
Tb41 O66 2.484 . S
Tb41 O67 2.440 . S
Tb41 O68 2.658 . S
Tb41 O69 2.409 . S
Tb41 O70 2.378 . S
C42 Tb40 2.795 1_565 S
C42 C43 1.514 . S
C42 O60 1.248 . S
C42 O61 1.266 . S
C43 C42 1.514 . S
C43 C44 1.359 . S
C43 C48 1.348 . S
C44 C43 1.359 . S
C44 C45 1.380 . S
C44 H72 0.929 . S
C45 C44 1.380 . S
C45 C46 1.347 . S
C45 H73 0.931 . S
C46 C45 1.347 . S
C46 C47 1.369 . S
C47 C46 1.369 . S
C47 C48 1.408 . S
C47 H74 0.930 . S
C48 C43 1.348 . S
C48 C47 1.408 . S
C48 H75 0.930 . S
C49 O62 1.281 . S
C49 O63 1.254 . S
C50 O64 1.236 . S
C50 O65 1.266 . S
C51 Tb41 2.809 . S
C51 C52 1.514 . S
C51 O66 1.248 . S
C51 O67 1.266 . S
C52 C51 1.514 . S
C52 C53 1.359 . S
C52 C57 1.348 . S
C53 C52 1.359 . S
C53 C54 1.380 . S
C53 H76 0.929 . S
C54 C53 1.380 . S
C54 C55 1.347 . S
C54 H77 0.931 . S
C55 C54 1.347 . S
C55 C56 1.369 . S
C56 C55 1.369 . S
C56 C57 1.408 . S
C56 H78 0.930 . S
C57 C52 1.348 . S
C57 C56 1.408 . S
C57 H79 0.930 . S
C58 O68 1.281 . S
C58 O69 1.254 . S
C59 O70 1.236 . S
C59 O71 1.266 . S
O60 Tb40 2.473 1_565 S
O60 C42 1.248 . S
O61 Tb40 2.427 1_565 S
O61 C42 1.266 . S
O62 Tb40 2.670 . S
O62 Tb41 2.325 . S
O62 C49 1.281 . S
O63 Tb40 2.411 . S
O63 C49 1.254 . S
O64 Tb40 2.376 1_565 S
O64 C50 1.236 . S
O65 Tb41 2.341 1_565 S
O65 C50 1.266 . S
O66 Tb41 2.484 . S
O66 C51 1.248 . S
O67 Tb41 2.440 . S
O67 C51 1.266 . S
O68 Tb40 2.332 . S
O68 Tb41 2.658 . S
O68 C58 1.281 . S
O69 Tb41 2.409 . S
O69 C58 1.254 . S
O70 Tb41 2.378 . S
O70 C59 1.236 . S
O71 Tb40 2.353 . S
O71 C59 1.266 . S
H72 C44 0.929 . S
H73 C45 0.931 . S
H74 C47 0.930 . S
H75 C48 0.930 . S
H76 C53 0.929 . S
H77 C54 0.931 . S
H78 C56 0.930 . S
H79 C57 0.930 . S
Tb80 C82 2.809 . S
Tb80 O100 2.484 . S
Tb80 O101 2.440 . S
Tb80 O102 2.658 . S
Tb80 O103 2.409 . S
Tb80 O104 2.378 . S
Tb80 O108 2.325 . S
Tb80 O111 2.341 . S
Tb81 C91 2.809 . S
Tb81 O102 2.325 . S
Tb81 O105 2.341 . S
Tb81 O106 2.484 . S
Tb81 O107 2.440 . S
Tb81 O108 2.658 . S
Tb81 O109 2.409 . S
Tb81 O110 2.378 . S
C82 Tb80 2.809 . S
C82 C83 1.514 . S
C82 O100 1.248 . S
C82 O101 1.266 . S
C83 C82 1.514 . S
C83 C84 1.359 . S
C83 C88 1.348 . S
C84 C83 1.359 . S
C84 C85 1.380 . S
C84 H112 0.929 . S
C85 C84 1.380 . S
C85 C86 1.347 . S
C85 H113 0.931 . S
C86 C85 1.347 . S
C86 C87 1.369 . S
C87 C86 1.369 . S
C87 C88 1.408 . S
C87 H114 0.930 . S
C88 C83 1.348 . S
C88 C87 1.408 . S
C88 H115 0.930 . S
C89 O102 1.281 . S
C89 O103 1.254 . S
C90 O104 1.236 . S
C90 O105 1.266 . S
C91 Tb81 2.809 . S
C91 C92 1.514 . S
C91 O106 1.248 . S
C91 O107 1.266 . S
C92 C91 1.514 . S
C92 C93 1.359 . S
C92 C97 1.348 . S
C93 C92 1.359 . S
C93 C94 1.380 . S
C93 H116 0.929 . S
C94 C93 1.380 . S
C94 C95 1.347 . S
C94 H117 0.931 . S
C95 C94 1.347 . S
C95 C96 1.369 . S
C96 C95 1.369 . S
C96 C97 1.408 . S
C96 H118 0.930 . S
C97 C92 1.348 . S
C97 C96 1.408 . S
C97 H119 0.930 . S
C98 O108 1.281 . S
C98 O109 1.254 . S
C99 O110 1.236 . S
C99 O111 1.266 . S
O100 Tb80 2.484 . S
O100 C82 1.248 . S
O101 Tb80 2.440 . S
O101 C82 1.266 . S
O102 Tb80 2.658 . S
O102 Tb81 2.325 . S
O102 C89 1.281 . S
O103 Tb80 2.409 . S
O103 C89 1.254 . S
O104 Tb80 2.378 . S
O104 C90 1.236 . S
O105 Tb81 2.341 . S
O105 C90 1.266 . S
O106 Tb81 2.484 . S
O106 C91 1.248 . S
O107 Tb81 2.440 . S
O107 C91 1.266 . S
O108 Tb80 2.325 . S
O108 Tb81 2.658 . S
O108 C98 1.281 . S
O109 Tb81 2.409 . S
O109 C98 1.254 . S
O110 Tb81 2.378 . S
O110 C99 1.236 . S
O111 Tb80 2.341 . S
O111 C99 1.266 . S
H112 C84 0.929 . S
H113 C85 0.931 . S
H114 C87 0.930 . S
H115 C88 0.930 . S
H116 C93 0.929 . S
H117 C94 0.931 . S
H118 C96 0.930 . S
H119 C97 0.930 . S
C120 C121 1.384 . S
C120 H133 0.947 . S
C120 C155 1.382 . S
C121 C120 1.384 . S
C121 C122 1.378 . S
C122 C121 1.378 . S
C122 C123 1.378 . S
C122 H134 0.952 . S
C123 C122 1.378 . S
C123 H135 0.945 1_565 S
C123 C154 1.383 . S
H124 C143 0.947 . S
H125 C144 0.946 . S
H126 C146 0.953 . S
H127 C147 0.945 . S
H128 C149 0.952 . S
H129 C150 0.949 . S
H130 C152 0.950 1_565 S
H131 C153 0.948 1_565 S
H132 C155 0.951 . S
H133 C120 0.947 . S
H134 C122 0.952 . S
H135 C123 0.945 1_545 S
N136 C139 1.382 . S
N136 C141 1.363 . S
N137 C139 1.371 . S
N137 C140 1.372 . S
N138 C140 1.361 . S
N138 C141 1.377 . S
C139 N136 1.382 . S
C139 N137 1.371 . S
C139 C142 1.480 . S
C140 N137 1.372 . S
C140 N138 1.361 . S
C140 C148 1.457 . S
C141 N136 1.363 . S
C141 N138 1.377 . S
C141 C154 1.479 1_545 S
C142 C139 1.480 . S
C142 C143 1.383 . S
C142 C147 1.385 . S
C143 H124 0.947 . S
C143 C142 1.383 . S
C143 C144 1.388 . S
C144 H125 0.946 . S
C144 C143 1.388 . S
C144 C145 1.384 . S
C145 C144 1.384 . S
C145 C146 1.377 . S
C146 H126 0.953 . S
C146 C145 1.377 . S
C146 C147 1.369 . S
C147 H127 0.945 . S
C147 C142 1.385 . S
C147 C146 1.369 . S
C148 C140 1.457 . S
C148 C149 1.372 . S
C148 C153 1.364 . S
C149 H128 0.952 . S
C149 C148 1.372 . S
C149 C150 1.389 . S
C150 H129 0.949 . S
C150 C149 1.389 . S
C150 C151 1.387 . S
C151 C150 1.387 . S
C151 C152 1.372 . S
C152 H130 0.950 1_545 S
C152 C151 1.372 . S
C152 C153 1.379 . S
C153 H131 0.948 1_545 S
C153 C148 1.364 . S
C153 C152 1.379 . S
C154 C123 1.383 . S
C154 C141 1.479 1_565 S
C154 C155 1.398 . S
C155 C120 1.382 . S
C155 H132 0.951 . S
C155 C154 1.398 . S
C156 C157 1.384 . S
C156 H169 0.947 . S
C156 C191 1.382 . S
C157 C156 1.384 . S
C157 C158 1.378 . S
C158 C157 1.378 . S
C158 C159 1.378 . S
C158 H170 0.952 . S
C159 C158 1.378 . S
C159 H171 0.950 . S
C159 C190 1.383 . S
H160 C179 0.947 . S
H161 C180 0.946 . S
H162 C182 0.953 . S
H163 C183 0.945 . S
H164 C185 0.952 . S
H165 C186 0.949 . S
H166 C188 0.950 . S
H167 C189 0.948 . S
H168 C191 0.951 . S
H169 C156 0.947 . S
H170 C158 0.952 . S
H171 C159 0.950 . S
N172 C175 1.382 . S
N172 C177 1.363 . S
N173 C175 1.371 . S
N173 C176 1.372 . S
N174 C176 1.361 . S
N174 C177 1.377 . S
C175 N172 1.382 . S
C175 N173 1.371 . S
C175 C178 1.480 . S
C176 N173 1.372 . S
C176 N174 1.361 . S
C176 C184 1.457 . S
C177 N172 1.363 . S
C177 N174 1.377 . S
C177 C190 1.479 . S
C178 C175 1.480 . S
C178 C179 1.383 . S
C178 C183 1.385 . S
C179 H160 0.947 . S
C179 C178 1.383 . S
C179 C180 1.388 . S
C180 H161 0.946 . S
C180 C179 1.388 . S
C180 C181 1.384 . S
C181 C180 1.384 . S
C181 C182 1.377 . S
C182 H162 0.953 . S
C182 C181 1.377 . S
C182 C183 1.369 . S
C183 H163 0.945 . S
C183 C178 1.385 . S
C183 C182 1.369 . S
C184 C176 1.457 . S
C184 C185 1.372 . S
C184 C189 1.364 . S
C185 H164 0.952 . S
C185 C184 1.372 . S
C185 C186 1.389 . S
C186 H165 0.949 . S
C186 C185 1.389 . S
C186 C187 1.387 . S
C187 C186 1.387 . S
C187 C188 1.372 . S
C188 H166 0.950 . S
C188 C187 1.372 . S
C188 C189 1.379 . S
C189 H167 0.948 . S
C189 C184 1.364 . S
C189 C188 1.379 . S
C190 C159 1.383 . S
C190 C177 1.479 . S
C190 C191 1.398 . S
C191 C156 1.382 . S
C191 H168 0.951 . S
C191 C190 1.398 . S
C192 C193 1.384 . S
C192 H205 0.947 . S
C192 C227 1.382 . S
C193 C192 1.384 . S
C193 C194 1.378 . S
C194 C193 1.378 . S
C194 C195 1.378 . S
C194 H206 0.952 . S
C195 C194 1.378 . S
C195 H207 0.950 . S
C195 C226 1.383 . S
H196 C215 0.947 . S
H197 C216 0.946 . S
H198 C218 0.953 . S
H199 C219 0.945 . S
H200 C221 0.952 . S
H201 C222 0.949 . S
H202 C224 0.950 . S
H203 C225 0.948 . S
H204 C227 0.951 . S
H205 C192 0.947 . S
H206 C194 0.952 . S
H207 C195 0.950 . S
N208 C211 1.352 1_655 S
N208 C213 1.393 . S
N209 C211 1.371 . S
N209 C212 1.402 . S
N210 C212 1.330 1_655 S
N210 C213 1.377 . S
C211 N208 1.352 1_455 S
C211 N209 1.371 . S
C211 C214 1.480 . S
C212 N209 1.402 . S
C212 N210 1.330 1_455 S
C212 C220 1.457 . S
C213 N208 1.393 . S
C213 N210 1.377 . S
C213 C226 1.479 . S
C214 C211 1.480 . S
C214 C215 1.383 . S
C214 C219 1.385 . S
C215 H196 0.947 . S
C215 C214 1.383 . S
C215 C216 1.388 . S
C216 H197 0.946 . S
C216 C215 1.388 . S
C216 C217 1.384 . S
C217 C216 1.384 . S
C217 C218 1.377 . S
C218 H198 0.953 . S
C218 C217 1.377 . S
C218 C219 1.369 . S
C219 H199 0.945 . S
C219 C214 1.385 . S
C219 C218 1.369 . S
C220 C212 1.457 . S
C220 C221 1.391 . S
C220 C225 1.344 1_455 S
C221 H200 0.952 . S
C221 C220 1.391 . S
C221 C222 1.389 . S
C222 H201 0.949 . S
C222 C221 1.389 . S
C222 C223 1.387 . S
C223 C222 1.387 . S
C223 C224 1.372 1_455 S
C224 H202 0.950 . S
C224 C223 1.372 1_655 S
C224 C225 1.379 . S
C225 H203 0.948 . S
C225 C220 1.344 1_655 S
C225 C224 1.379 . S
C226 C195 1.383 . S
C226 C213 1.479 . S
C226 C227 1.398 . S
C227 C192 1.382 . S
C227 H204 0.951 . S
C227 C226 1.398 . S
C228 C229 1.384 . S
C228 H241 0.947 . S
C228 C263 1.382 . S
C229 C228 1.384 . S
C229 C230 1.378 . S
C230 C229 1.378 . S
C230 C231 1.378 . S
C230 H242 0.952 . S
C231 C230 1.378 . S
C231 H243 0.950 . S
C231 C262 1.383 . S
H232 C251 0.947 1_455 S
H233 C252 0.946 . S
H234 C254 0.953 . S
H235 C255 0.945 . S
H236 C257 0.952 1_655 S
H237 C258 0.949 1_655 S
H238 C260 0.950 . S
H239 C261 0.948 . S
H240 C263 0.951 . S
H241 C228 0.947 . S
H242 C230 0.952 . S
H243 C231 0.950 . S
N244 C247 1.382 . S
N244 C249 1.363 . S
N245 C247 1.371 . S
N245 C248 1.372 . S
N246 C248 1.361 . S
N246 C249 1.377 . S
C247 N244 1.382 . S
C247 N245 1.371 . S
C247 C250 1.480 1_455 S
C248 N245 1.372 . S
C248 N246 1.361 . S
C248 C256 1.457 . S
C249 N244 1.363 . S
C249 N246 1.377 . S
C249 C262 1.479 . S
C250 C247 1.480 1_655 S
C250 C251 1.383 . S
C250 C255 1.385 . S
C251 H232 0.947 1_655 S
C251 C250 1.383 . S
C251 C252 1.388 . S
C252 H233 0.946 . S
C252 C251 1.388 . S
C252 C253 1.384 . S
C253 C252 1.384 . S
C253 C254 1.377 . S
C254 H234 0.953 . S
C254 C253 1.377 . S
C254 C255 1.369 . S
C255 H235 0.945 . S
C255 C250 1.385 . S
C255 C254 1.369 . S
C256 C248 1.457 . S
C256 C257 1.372 . S
C256 C261 1.364 . S
C257 H236 0.952 1_455 S
C257 C256 1.372 . S
C257 C258 1.389 . S
C258 H237 0.949 1_455 S
C258 C257 1.389 . S
C258 C259 1.387 . S
C259 C258 1.387 . S
C259 C260 1.372 . S
C260 H238 0.950 . S
C260 C259 1.372 . S
C260 C261 1.379 . S
C261 H239 0.948 . S
C261 C256 1.364 . S
C261 C260 1.379 . S
C262 C231 1.383 . S
C262 C249 1.479 . S
C262 C263 1.398 . S
C263 C228 1.382 . S
C263 H240 0.951 . S
C263 C262 1.398 . S
C264 C265 1.384 . S
C264 H277 0.947 . S
C264 C299 1.382 . S
C265 C264 1.384 . S
C265 C266 1.378 . S
C266 C265 1.378 . S
C266 C267 1.378 . S
C266 H278 0.952 . S
C267 C266 1.378 . S
C267 H279 0.950 . S
C267 C298 1.383 . S
H268 C287 0.947 . S
H269 C288 0.946 . S
H270 C290 0.953 . S
H271 C291 0.945 . S
H272 C293 0.952 . S
H273 C294 0.949 . S
H274 C296 0.950 . S
H275 C297 0.948 . S
H276 C299 0.951 . S
H277 C264 0.947 . S
H278 C266 0.952 . S
H279 C267 0.950 . S
N280 C283 1.382 1_545 S
N280 C285 1.363 . S
N281 C283 1.371 . S
N281 C284 1.372 1_565 S
N282 C284 1.361 . S
N282 C285 1.377 . S
C283 N280 1.382 1_565 S
C283 N281 1.371 . S
C283 C286 1.480 . S
C284 N281 1.372 1_545 S
C284 N282 1.361 . S
C284 C292 1.457 . S
C285 N280 1.363 . S
C285 N282 1.377 . S
C285 C298 1.479 . S
C286 C283 1.480 . S
C286 C287 1.383 . S
C286 C291 1.385 . S
C287 H268 0.947 . S
C287 C286 1.383 . S
C287 C288 1.388 . S
C288 H269 0.946 . S
C288 C287 1.388 . S
C288 C289 1.384 . S
C289 C288 1.384 . S
C289 C290 1.377 . S
C290 H270 0.953 . S
C290 C289 1.377 . S
C290 C291 1.369 . S
C291 H271 0.945 . S
C291 C286 1.385 . S
C291 C290 1.369 . S
C292 C284 1.457 . S
C292 C293 1.372 1_545 S
C292 C297 1.364 . S
C293 H272 0.952 . S
C293 C292 1.372 1_565 S
C293 C294 1.389 . S
C294 H273 0.949 . S
C294 C293 1.389 . S
C294 C295 1.387 1_565 S
C295 C294 1.387 1_545 S
C295 C296 1.372 . S
C296 H274 0.950 . S
C296 C295 1.372 . S
C296 C297 1.379 . S
C297 H275 0.948 . S
C297 C292 1.364 . S
C297 C296 1.379 . S
C298 C267 1.383 . S
C298 C285 1.479 . S
C298 C299 1.398 . S
C299 C264 1.382 . S
C299 H276 0.951 . S
C299 C298 1.398 . S
C300 C301 1.384 . S
C300 H313 0.947 . S
C300 C335 1.382 . S
C301 C300 1.384 . S
C301 C302 1.378 . S
C302 C301 1.378 . S
C302 C303 1.378 . S
C302 H314 0.952 . S
C303 C302 1.378 . S
C303 H315 0.950 . S
C303 C334 1.383 . S
H304 C323 0.947 . S
H305 C324 0.946 . S
H306 C326 0.953 . S
H307 C327 0.945 . S
H308 C329 0.952 . S
H309 C330 0.949 . S
H310 C332 0.950 . S
H311 C333 0.948 . S
H312 C335 0.951 . S
H313 C300 0.947 . S
H314 C302 0.952 . S
H315 C303 0.950 . S
N316 C319 1.382 . S
N316 C321 1.363 . S
N317 C319 1.371 . S
N317 C320 1.372 . S
N318 C320 1.361 . S
N318 C321 1.377 . S
C319 N316 1.382 . S
C319 N317 1.371 . S
C319 C322 1.480 . S
C320 N317 1.372 . S
C320 N318 1.361 . S
C320 C328 1.457 . S
C321 N316 1.363 . S
C321 N318 1.377 . S
C321 C334 1.479 . S
C322 C319 1.480 . S
C322 C323 1.383 . S
C322 C327 1.385 . S
C323 H304 0.947 . S
C323 C322 1.383 . S
C323 C324 1.388 . S
C324 H305 0.946 . S
C324 C323 1.388 . S
C324 C325 1.384 . S
C325 C324 1.384 . S
C325 C326 1.377 . S
C326 H306 0.953 . S
C326 C325 1.377 . S
C326 C327 1.369 . S
C327 H307 0.945 . S
C327 C322 1.385 . S
C327 C326 1.369 . S
C328 C320 1.457 . S
C328 C329 1.372 . S
C328 C333 1.364 . S
C329 H308 0.952 . S
C329 C328 1.372 . S
C329 C330 1.389 . S
C330 H309 0.949 . S
C330 C329 1.389 . S
C330 C331 1.387 . S
C331 C330 1.387 . S
C331 C332 1.372 . S
C332 H310 0.950 . S
C332 C331 1.372 . S
C332 C333 1.379 . S
C333 H311 0.948 . S
C333 C328 1.364 . S
C333 C332 1.379 . S
C334 C303 1.383 . S
C334 C321 1.479 . S
C334 C335 1.398 . S
C335 C300 1.382 . S
C335 H312 0.951 . S
C335 C334 1.398 . S
C336 C337 1.391 . S
C336 C338 1.394 . S
C336 H352 0.931 . S
C337 C336 1.391 . S
C337 C341 1.376 . S
C338 C336 1.394 . S
C338 C339 1.369 . S
C338 C342 1.531 . S
C339 C338 1.369 . S
C339 C340 1.410 . S
C339 C347 1.503 . S
C340 C339 1.410 . S
C340 C341 1.392 . S
C340 C343 1.511 . S
C341 C337 1.376 . S
C341 C340 1.392 . S
C341 H353 0.929 . S
C342 C338 1.531 . S
C342 H354 0.960 . S
C342 H355 0.962 . S
C342 H356 0.960 . S
C343 C340 1.511 . S
C343 H357 0.961 . S
C343 H358 0.961 . S
C343 H359 0.961 . S
C344 C345 1.370 . S
C344 C346 1.363 . S
C344 H360 0.931 . S
C345 C344 1.370 . S
C345 C349 1.408 . S
C346 C344 1.363 . S
C346 C347 1.370 . S
C346 C350 1.524 . S
C347 C339 1.503 . S
C347 C346 1.370 . S
C347 C348 1.403 . S
C348 C347 1.403 . S
C348 C349 1.404 . S
C348 C351 1.539 . S
C349 C345 1.408 . S
C349 C348 1.404 . S
C349 H361 0.930 . S
C350 C346 1.524 . S
C350 H362 0.956 . S
C350 H363 0.961 . S
C350 H364 0.961 . S
C351 C348 1.539 . S
C351 H365 0.958 . S
C351 H366 0.961 . S
C351 H367 0.960 . S
H352 C336 0.931 . S
H353 C341 0.929 . S
H354 C342 0.960 . S
H355 C342 0.962 . S
H356 C342 0.960 . S
H357 C343 0.961 . S
H358 C343 0.961 . S
H359 C343 0.961 . S
H360 C344 0.931 . S
H361 C349 0.930 . S
H362 C350 0.956 . S
H363 C350 0.961 . S
H364 C350 0.961 . S
H365 C351 0.958 . S
H366 C351 0.961 . S
H367 C351 0.960 . S
C368 C369 1.391 . S
C368 C370 1.394 . S
C368 H384 0.931 . S
C369 C368 1.391 . S
C369 C373 1.376 . S
C370 C368 1.394 . S
C370 C371 1.369 . S
C370 C374 1.531 . S
C371 C370 1.369 . S
C371 C372 1.410 . S
C371 C379 1.503 . S
C372 C371 1.410 . S
C372 C373 1.392 . S
C372 C375 1.511 . S
C373 C369 1.376 . S
C373 C372 1.392 . S
C373 H385 0.929 . S
C374 C370 1.531 . S
C374 H386 0.960 . S
C374 H387 0.962 . S
C374 H388 0.960 . S
C375 C372 1.511 . S
C375 H389 0.961 . S
C375 H390 0.961 . S
C375 H391 0.961 . S
C376 C377 1.370 . S
C376 C378 1.363 . S
C376 H392 0.931 . S
C377 C376 1.370 . S
C377 C381 1.408 . S
C378 C376 1.363 . S
C378 C379 1.370 . S
C378 C382 1.524 . S
C379 C371 1.503 . S
C379 C378 1.370 . S
C379 C380 1.403 . S
C380 C379 1.403 . S
C380 C381 1.404 . S
C380 C383 1.539 . S
C381 C377 1.408 . S
C381 C380 1.404 . S
C381 H393 0.930 . S
C382 C378 1.524 . S
C382 H394 0.956 . S
C382 H395 0.961 . S
C382 H396 0.961 . S
C383 C380 1.539 . S
C383 H397 0.958 . S
C383 H398 0.961 . S
C383 H399 0.960 . S
H384 C368 0.931 . S
H385 C373 0.929 . S
H386 C374 0.960 . S
H387 C374 0.962 . S
H388 C374 0.960 . S
H389 C375 0.961 . S
H390 C375 0.961 . S
H391 C375 0.961 . S
H392 C376 0.931 . S
H393 C381 0.930 . S
H394 C382 0.956 . S
H395 C382 0.961 . S
H396 C382 0.961 . S
H397 C383 0.958 . S
H398 C383 0.961 . S
H399 C383 0.960 . S
C400 C401 1.391 . S
C400 C402 1.394 . S
C400 H416 0.931 . S
C401 C400 1.391 . S
C401 C405 1.376 . S
C402 C400 1.394 . S
C402 C403 1.369 . S
C402 C406 1.531 . S
C403 C402 1.369 . S
C403 C404 1.410 . S
C403 C411 1.503 . S
C404 C403 1.410 . S
C404 C405 1.392 . S
C404 C407 1.511 . S
C405 C401 1.376 . S
C405 C404 1.392 . S
C405 H417 0.929 . S
C406 C402 1.531 . S
C406 H418 0.960 . S
C406 H419 0.962 . S
C406 H420 0.960 . S
C407 C404 1.511 . S
C407 H421 0.961 . S
C407 H422 0.961 . S
C407 H423 0.961 . S
C408 C409 1.370 . S
C408 C410 1.363 . S
C408 H424 0.931 . S
C409 C408 1.370 . S
C409 C413 1.408 . S
C410 C408 1.363 . S
C410 C411 1.370 . S
C410 C414 1.524 . S
C411 C403 1.503 . S
C411 C410 1.370 . S
C411 C412 1.403 . S
C412 C411 1.403 . S
C412 C413 1.404 . S
C412 C415 1.539 . S
C413 C409 1.408 . S
C413 C412 1.404 . S
C413 H425 0.930 . S
C414 C410 1.524 . S
C414 H426 0.956 . S
C414 H427 0.961 . S
C414 H428 0.961 . S
C415 C412 1.539 . S
C415 H429 0.958 . S
C415 H430 0.961 . S
C415 H431 0.960 . S
H416 C400 0.931 . S
H417 C405 0.929 . S
H418 C406 0.960 . S
H419 C406 0.962 . S
H420 C406 0.960 . S
H421 C407 0.961 . S
H422 C407 0.961 . S
H423 C407 0.961 . S
H424 C408 0.931 . S
H425 C413 0.930 . S
H426 C414 0.956 . S
H427 C414 0.961 . S
H428 C414 0.961 . S
H429 C415 0.958 . S
H430 C415 0.961 . S
H431 C415 0.960 . S
C432 C433 1.391 . S
C432 C434 1.394 . S
C432 H448 0.931 . S
C433 C432 1.391 . S
C433 C437 1.376 . S
C434 C432 1.394 . S
C434 C435 1.369 . S
C434 C438 1.531 . S
C435 C434 1.369 . S
C435 C436 1.410 . S
C435 C443 1.503 . S
C436 C435 1.410 . S
C436 C437 1.392 . S
C436 C439 1.511 . S
C437 C433 1.376 . S
C437 C436 1.392 . S
C437 H449 0.929 . S
C438 C434 1.531 . S
C438 H450 0.960 . S
C438 H451 0.962 . S
C438 H452 0.960 . S
C439 C436 1.511 . S
C439 H453 0.961 . S
C439 H454 0.961 . S
C439 H455 0.961 . S
C440 C441 1.370 . S
C440 C442 1.363 . S
C440 H456 0.931 . S
C441 C440 1.370 . S
C441 C445 1.408 . S
C442 C440 1.363 . S
C442 C443 1.370 . S
C442 C446 1.524 . S
C443 C435 1.503 . S
C443 C442 1.370 . S
C443 C444 1.403 . S
C444 C443 1.403 . S
C444 C445 1.404 . S
C444 C447 1.539 . S
C445 C441 1.408 . S
C445 C444 1.404 . S
C445 H457 0.930 . S
C446 C442 1.524 . S
C446 H458 0.956 . S
C446 H459 0.961 . S
C446 H460 0.961 . S
C447 C444 1.539 . S
C447 H461 0.958 . S
C447 H462 0.961 . S
C447 H463 0.960 . S
H448 C432 0.931 . S
H449 C437 0.929 . S
H450 C438 0.960 . S
H451 C438 0.962 . S
H452 C438 0.960 . S
H453 C439 0.961 . S
H454 C439 0.961 . S
H455 C439 0.961 . S
H456 C440 0.931 . S
H457 C445 0.930 . S
H458 C446 0.956 . S
H459 C446 0.961 . S
H460 C446 0.961 . S
H461 C447 0.958 . S
H462 C447 0.961 . S
H463 C447 0.960 . S
C464 C465 1.391 . S
C464 C466 1.394 . S
C464 H480 0.931 . S
C465 C464 1.391 . S
C465 C469 1.376 . S
C466 C464 1.394 . S
C466 C467 1.369 . S
C466 C470 1.531 . S
C467 C466 1.369 . S
C467 C468 1.410 . S
C467 C475 1.503 . S
C468 C467 1.410 . S
C468 C469 1.392 . S
C468 C471 1.511 . S
C469 C465 1.376 . S
C469 C468 1.392 . S
C469 H481 0.929 . S
C470 C466 1.531 . S
C470 H482 0.960 . S
C470 H483 0.962 . S
C470 H484 0.960 . S
C471 C468 1.511 . S
C471 H485 0.961 . S
C471 H486 0.961 . S
C471 H487 0.961 . S
C472 C473 1.370 . S
C472 C474 1.363 . S
C472 H488 0.931 . S
C473 C472 1.370 . S
C473 C477 1.408 . S
C474 C472 1.363 . S
C474 C475 1.370 . S
C474 C478 1.524 . S
C475 C467 1.503 . S
C475 C474 1.370 . S
C475 C476 1.403 . S
C476 C475 1.403 . S
C476 C477 1.404 . S
C476 C479 1.539 . S
C477 C473 1.408 . S
C477 C476 1.404 . S
C477 H489 0.930 . S
C478 C474 1.524 . S
C478 H490 0.956 . S
C478 H491 0.961 . S
C478 H492 0.961 . S
C479 C476 1.539 . S
C479 H493 0.958 . S
C479 H494 0.961 . S
C479 H495 0.960 . S
H480 C464 0.931 . S
H481 C469 0.929 . S
H482 C470 0.960 . S
H483 C470 0.962 . S
H484 C470 0.960 . S
H485 C471 0.961 . S
H486 C471 0.961 . S
H487 C471 0.961 . S
H488 C472 0.931 . S
H489 C477 0.930 . S
H490 C478 0.956 . S
H491 C478 0.961 . S
H492 C478 0.961 . S
H493 C479 0.958 . S
H494 C479 0.961 . S
H495 C479 0.960 . S
C496 C497 1.391 . S
C496 C498 1.394 . S
C496 H512 0.931 . S
C497 C496 1.391 . S
C497 C501 1.376 . S
C498 C496 1.394 . S
C498 C499 1.369 . S
C498 C502 1.531 . S
C499 C498 1.369 . S
C499 C500 1.410 . S
C499 C507 1.503 . S
C500 C499 1.410 . S
C500 C501 1.392 . S
C500 C503 1.511 . S
C501 C497 1.376 . S
C501 C500 1.392 . S
C501 H513 0.929 . S
C502 C498 1.531 . S
C502 H514 0.960 . S
C502 H515 0.962 . S
C502 H516 0.960 . S
C503 C500 1.511 . S
C503 H517 0.961 . S
C503 H518 0.961 . S
C503 H519 0.961 . S
C504 C505 1.370 . S
C504 C506 1.363 . S
C504 H520 0.931 . S
C505 C504 1.370 . S
C505 C509 1.408 . S
C506 C504 1.363 . S
C506 C507 1.370 . S
C506 C510 1.524 . S
C507 C499 1.503 . S
C507 C506 1.370 . S
C507 C508 1.403 . S
C508 C507 1.403 . S
C508 C509 1.404 . S
C508 C511 1.539 . S
C509 C505 1.408 . S
C509 C508 1.404 . S
C509 H521 0.930 . S
C510 C506 1.524 . S
C510 H522 0.956 . S
C510 H523 0.961 . S
C510 H524 0.961 . S
C511 C508 1.539 . S
C511 H525 0.958 . S
C511 H526 0.961 . S
C511 H527 0.960 . S
H512 C496 0.931 . S
H513 C501 0.929 . S
H514 C502 0.960 . S
H515 C502 0.962 . S
H516 C502 0.960 . S
H517 C503 0.961 . S
H518 C503 0.961 . S
H519 C503 0.961 . S
H520 C504 0.931 . S
H521 C509 0.930 . S
H522 C510 0.956 . S
H523 C510 0.961 . S
H524 C510 0.961 . S
H525 C511 0.958 . S
H526 C511 0.961 . S
H527 C511 0.960 . S
C528 C529 1.391 . S
C528 C530 1.394 . S
C528 H544 0.931 . S
C529 C528 1.391 . S
C529 C533 1.376 . S
C530 C528 1.394 . S
C530 C531 1.369 . S
C530 C534 1.531 . S
C531 C530 1.369 . S
C531 C532 1.410 . S
C531 C539 1.503 . S
C532 C531 1.410 . S
C532 C533 1.392 . S
C532 C535 1.511 . S
C533 C529 1.376 . S
C533 C532 1.392 . S
C533 H545 0.929 . S
C534 C530 1.531 . S
C534 H546 0.960 . S
C534 H547 0.962 . S
C534 H548 0.960 . S
C535 C532 1.511 . S
C535 H549 0.961 . S
C535 H550 0.961 . S
C535 H551 0.961 . S
C536 C537 1.370 . S
C536 C538 1.363 . S
C536 H552 0.931 . S
C537 C536 1.370 . S
C537 C541 1.408 . S
C538 C536 1.363 . S
C538 C539 1.370 . S
C538 C542 1.524 . S
C539 C531 1.503 . S
C539 C538 1.370 . S
C539 C540 1.403 . S
C540 C539 1.403 . S
C540 C541 1.404 . S
C540 C543 1.539 . S
C541 C537 1.408 . S
C541 C540 1.404 . S
C541 H553 0.930 . S
C542 C538 1.524 . S
C542 H554 0.956 . S
C542 H555 0.961 . S
C542 H556 0.961 . S
C543 C540 1.539 . S
C543 H557 0.958 . S
C543 H558 0.961 . S
C543 H559 0.960 . S
H544 C528 0.931 . S
H545 C533 0.929 . S
H546 C534 0.960 . S
H547 C534 0.962 . S
H548 C534 0.960 . S
H549 C535 0.961 . S
H550 C535 0.961 . S
H551 C535 0.961 . S
H552 C536 0.931 . S
H553 C541 0.930 . S
H554 C542 0.956 . S
H555 C542 0.961 . S
H556 C542 0.961 . S
H557 C543 0.958 . S
H558 C543 0.961 . S
H559 C543 0.960 . S
C560 C561 1.391 . S
C560 C562 1.394 . S
C560 H576 0.931 . S
C561 C560 1.391 . S
C561 C565 1.376 . S
C562 C560 1.394 . S
C562 C563 1.369 . S
C562 C566 1.531 . S
C563 C562 1.369 . S
C563 C564 1.410 . S
C563 C571 1.503 . S
C564 C563 1.410 . S
C564 C565 1.392 . S
C564 C567 1.511 . S
C565 C561 1.376 . S
C565 C564 1.392 . S
C565 H577 0.929 . S
C566 C562 1.531 . S
C566 H578 0.960 . S
C566 H579 0.962 . S
C566 H580 0.960 . S
C567 C564 1.511 . S
C567 H581 0.961 . S
C567 H582 0.961 . S
C567 H583 0.961 . S
C568 C569 1.370 . S
C568 C570 1.363 . S
C568 H584 0.931 . S
C569 C568 1.370 . S
C569 C573 1.408 . S
C570 C568 1.363 . S
C570 C571 1.370 . S
C570 C574 1.524 . S
C571 C563 1.503 . S
C571 C570 1.370 . S
C571 C572 1.403 . S
C572 C571 1.403 . S
C572 C573 1.404 . S
C572 C575 1.539 . S
C573 C569 1.408 . S
C573 C572 1.404 . S
C573 H585 0.930 . S
C574 C570 1.524 . S
C574 H586 0.956 . S
C574 H587 0.961 . S
C574 H588 0.961 . S
C575 C572 1.539 . S
C575 H589 0.958 . S
C575 H590 0.961 . S
C575 H591 0.960 . S
H576 C560 0.931 . S
H577 C565 0.929 . S
H578 C566 0.960 . S
H579 C566 0.962 . S
H580 C566 0.960 . S
H581 C567 0.961 . S
H582 C567 0.961 . S
H583 C567 0.961 . S
H584 C568 0.931 . S
H585 C573 0.930 . S
H586 C574 0.956 . S
H587 C574 0.961 . S
H588 C574 0.961 . S
H589 C575 0.958 . S
H590 C575 0.961 . S
H591 C575 0.960 . S
C592 C593 1.391 . S
C592 C594 1.394 . S
C592 H608 0.931 . S
C593 C592 1.391 . S
C593 C597 1.376 . S
C594 C592 1.394 . S
C594 C595 1.369 . S
C594 C598 1.531 . S
C595 C594 1.369 . S
C595 C596 1.410 . S
C595 C603 1.503 . S
C596 C595 1.410 . S
C596 C597 1.392 . S
C596 C599 1.511 . S
C597 C593 1.376 . S
C597 C596 1.392 . S
C597 H609 0.929 . S
C598 C594 1.531 . S
C598 H610 0.960 . S
C598 H611 0.962 . S
C598 H612 0.960 . S
C599 C596 1.511 . S
C599 H613 0.961 . S
C599 H614 0.961 . S
C599 H615 0.961 . S
C600 C601 1.370 . S
C600 C602 1.363 . S
C600 H616 0.931 . S
C601 C600 1.370 . S
C601 C605 1.408 . S
C602 C600 1.363 . S
C602 C603 1.370 . S
C602 C606 1.524 . S
C603 C595 1.503 . S
C603 C602 1.370 . S
C603 C604 1.403 . S
C604 C603 1.403 . S
C604 C605 1.404 . S
C604 C607 1.539 . S
C605 C601 1.408 . S
C605 C604 1.404 . S
C605 H617 0.930 . S
C606 C602 1.524 . S
C606 H618 0.956 . S
C606 H619 0.961 . S
C606 H620 0.961 . S
C607 C604 1.539 . S
C607 H621 0.958 . S
C607 H622 0.961 . S
C607 H623 0.960 . S
H608 C592 0.931 . S
H609 C597 0.929 . S
H610 C598 0.960 . S
H611 C598 0.962 . S
H612 C598 0.960 . S
H613 C599 0.961 . S
H614 C599 0.961 . S
H615 C599 0.961 . S
H616 C600 0.931 . S
H617 C605 0.930 . S
H618 C606 0.956 . S
H619 C606 0.961 . S
H620 C606 0.961 . S
H621 C607 0.958 . S
H622 C607 0.961 . S
H623 C607 0.960 . S
C624 C625 1.391 . S
C624 C626 1.394 . S
C624 H640 0.931 . S
C625 C624 1.391 . S
C625 C629 1.376 . S
C626 C624 1.394 . S
C626 C627 1.369 . S
C626 C630 1.531 . S
C627 C626 1.369 . S
C627 C628 1.410 . S
C627 C635 1.503 . S
C628 C627 1.410 . S
C628 C629 1.392 . S
C628 C631 1.511 . S
C629 C625 1.376 . S
C629 C628 1.392 . S
C629 H641 0.929 . S
C630 C626 1.531 . S
C630 H642 0.960 . S
C630 H643 0.962 . S
C630 H644 0.960 . S
C631 C628 1.511 . S
C631 H645 0.961 . S
C631 H646 0.961 . S
C631 H647 0.961 . S
C632 C633 1.370 . S
C632 C634 1.363 . S
C632 H648 0.931 . S
C633 C632 1.370 . S
C633 C637 1.408 . S
C634 C632 1.363 . S
C634 C635 1.370 . S
C634 C638 1.524 . S
C635 C627 1.503 . S
C635 C634 1.370 . S
C635 C636 1.403 . S
C636 C635 1.403 . S
C636 C637 1.404 . S
C636 C639 1.539 . S
C637 C633 1.408 . S
C637 C636 1.404 . S
C637 H649 0.930 . S
C638 C634 1.524 . S
C638 H650 0.956 . S
C638 H651 0.961 . S
C638 H652 0.961 . S
C639 C636 1.539 . S
C639 H653 0.958 . S
C639 H654 0.961 . S
C639 H655 0.960 . S
H640 C624 0.931 . S
H641 C629 0.929 . S
H642 C630 0.960 . S
H643 C630 0.962 . S
H644 C630 0.960 . S
H645 C631 0.961 . S
H646 C631 0.961 . S
H647 C631 0.961 . S
H648 C632 0.931 . S
H649 C637 0.930 . S
H650 C638 0.956 . S
H651 C638 0.961 . S
H652 C638 0.961 . S
H653 C639 0.958 . S
H654 C639 0.961 . S
H655 C639 0.960 . S
C656 C657 1.391 . S
C656 C658 1.394 . S
C656 H672 0.931 . S
C657 C656 1.391 . S
C657 C661 1.376 . S
C658 C656 1.394 . S
C658 C659 1.369 . S
C658 C662 1.531 . S
C659 C658 1.369 . S
C659 C660 1.410 . S
C659 C667 1.503 . S
C660 C659 1.410 . S
C660 C661 1.392 . S
C660 C663 1.511 . S
C661 C657 1.376 . S
C661 C660 1.392 . S
C661 H673 0.929 . S
C662 C658 1.531 . S
C662 H674 0.960 . S
C662 H675 0.962 . S
C662 H676 0.960 . S
C663 C660 1.511 . S
C663 H677 0.961 . S
C663 H678 0.961 . S
C663 H679 0.961 . S
C664 C665 1.370 . S
C664 C666 1.363 . S
C664 H680 0.931 . S
C665 C664 1.370 . S
C665 C669 1.408 . S
C666 C664 1.363 . S
C666 C667 1.370 . S
C666 C670 1.524 . S
C667 C659 1.503 . S
C667 C666 1.370 . S
C667 C668 1.403 . S
C668 C667 1.403 . S
C668 C669 1.404 . S
C668 C671 1.539 . S
C669 C665 1.408 . S
C669 C668 1.404 . S
C669 H681 0.930 . S
C670 C666 1.524 . S
C670 H682 0.956 . S
C670 H683 0.961 . S
C670 H684 0.961 . S
C671 C668 1.539 . S
C671 H685 0.958 . S
C671 H686 0.961 . S
C671 H687 0.960 . S
H672 C656 0.931 . S
H673 C661 0.929 . S
H674 C662 0.960 . S
H675 C662 0.962 . S
H676 C662 0.960 . S
H677 C663 0.961 . S
H678 C663 0.961 . S
H679 C663 0.961 . S
H680 C664 0.931 . S
H681 C669 0.930 . S
H682 C670 0.956 . S
H683 C670 0.961 . S
H684 C670 0.961 . S
H685 C671 0.958 . S
H686 C671 0.961 . S
H687 C671 0.960 . S
C688 C689 1.391 . S
C688 C690 1.394 . S
C688 H704 0.931 . S
C689 C688 1.391 . S
C689 C693 1.376 . S
C690 C688 1.394 . S
C690 C691 1.369 . S
C690 C694 1.531 . S
C691 C690 1.369 . S
C691 C692 1.410 . S
C691 C699 1.503 . S
C692 C691 1.410 . S
C692 C693 1.392 . S
C692 C695 1.511 . S
C693 C689 1.376 . S
C693 C692 1.392 . S
C693 H705 0.929 . S
C694 C690 1.531 . S
C694 H706 0.960 . S
C694 H707 0.962 . S
C694 H708 0.960 . S
C695 C692 1.511 . S
C695 H709 0.961 . S
C695 H710 0.961 . S
C695 H711 0.961 . S
C696 C697 1.370 . S
C696 C698 1.363 . S
C696 H712 0.931 . S
C697 C696 1.370 . S
C697 C701 1.408 . S
C698 C696 1.363 . S
C698 C699 1.370 . S
C698 C702 1.524 . S
C699 C691 1.503 . S
C699 C698 1.370 . S
C699 C700 1.403 . S
C700 C699 1.403 . S
C700 C701 1.404 . S
C700 C703 1.539 . S
C701 C697 1.408 . S
C701 C700 1.404 . S
C701 H713 0.930 . S
C702 C698 1.524 . S
C702 H714 0.956 . S
C702 H715 0.961 . S
C702 H716 0.961 . S
C703 C700 1.539 . S
C703 H717 0.958 . S
C703 H718 0.961 . S
C703 H719 0.960 . S
H704 C688 0.931 . S
H705 C693 0.929 . S
H706 C694 0.960 . S
H707 C694 0.962 . S
H708 C694 0.960 . S
H709 C695 0.961 . S
H710 C695 0.961 . S
H711 C695 0.961 . S
H712 C696 0.931 . S
H713 C701 0.930 . S
H714 C702 0.956 . S
H715 C702 0.961 . S
H716 C702 0.961 . S
H717 C703 0.958 . S
H718 C703 0.961 . S
H719 C703 0.960 . S
C720 C721 1.391 1_655 S
C720 C722 1.394 . S
C720 H736 0.931 . S
C721 C720 1.391 1_455 S
C721 C725 1.376 . S
C722 C720 1.394 . S
C722 C723 1.369 1_655 S
C722 C726 1.531 . S
C723 C722 1.369 1_455 S
C723 C724 1.410 . S
C723 C731 1.503 . S
C724 C723 1.410 . S
C724 C725 1.392 . S
C724 C727 1.511 . S
C725 C721 1.376 . S
C725 C724 1.392 . S
C725 H737 0.929 . S
C726 C722 1.531 . S
C726 H738 0.960 . S
C726 H739 0.962 . S
C726 H740 0.960 . S
C727 C724 1.511 . S
C727 H741 0.961 . S
C727 H742 0.961 . S
C727 H743 0.961 . S
C728 C729 1.370 1_655 S
C728 C730 1.363 . S
C728 H744 0.931 . S
C729 C728 1.370 1_455 S
C729 C733 1.408 . S
C730 C728 1.363 . S
C730 C731 1.370 1_655 S
C730 C734 1.524 . S
C731 C723 1.503 . S
C731 C730 1.370 1_455 S
C731 C732 1.403 . S
C732 C731 1.403 . S
C732 C733 1.404 . S
C732 C735 1.539 . S
C733 C729 1.408 . S
C733 C732 1.404 . S
C733 H745 0.930 . S
C734 C730 1.524 . S
C734 H746 0.956 . S
C734 H747 0.961 . S
C734 H748 0.961 . S
C735 C732 1.539 . S
C735 H749 0.958 . S
C735 H750 0.961 . S
C735 H751 0.960 . S
H736 C720 0.931 . S
H737 C725 0.929 . S
H738 C726 0.960 . S
H739 C726 0.962 . S
H740 C726 0.960 . S
H741 C727 0.961 . S
H742 C727 0.961 . S
H743 C727 0.961 . S
H744 C728 0.931 . S
H745 C733 0.930 . S
H746 C734 0.956 . S
H747 C734 0.961 . S
H748 C734 0.961 . S
H749 C735 0.958 . S
H750 C735 0.961 . S
H751 C735 0.960 . S
C752 C753 1.391 . S
C752 C754 1.394 . S
C752 H768 0.931 . S
C753 C752 1.391 . S
C753 C757 1.376 . S
C754 C752 1.394 . S
C754 C755 1.369 . S
C754 C758 1.531 . S
C755 C754 1.369 . S
C755 C756 1.410 . S
C755 C763 1.503 . S
C756 C755 1.410 . S
C756 C757 1.392 . S
C756 C759 1.511 1_545 S
C757 C753 1.376 . S
C757 C756 1.392 . S
C757 H769 0.929 1_545 S
C758 C754 1.531 . S
C758 H770 0.960 . S
C758 H771 0.962 . S
C758 H772 0.960 . S
C759 C756 1.511 1_565 S
C759 H773 0.961 . S
C759 H774 0.961 . S
C759 H775 0.961 1_565 S
C760 C761 1.370 . S
C760 C762 1.363 . S
C760 H776 0.931 . S
C761 C760 1.370 . S
C761 C765 1.408 . S
C762 C760 1.363 . S
C762 C763 1.370 . S
C762 C766 1.524 1_545 S
C763 C755 1.503 . S
C763 C762 1.370 . S
C763 C764 1.403 . S
C764 C763 1.403 . S
C764 C765 1.404 . S
C764 C767 1.539 . S
C765 C761 1.408 . S
C765 C764 1.404 . S
C765 H777 0.930 . S
C766 C762 1.524 1_565 S
C766 H778 0.956 1_565 S
C766 H779 0.961 . S
C766 H780 0.961 . S
C767 C764 1.539 . S
C767 H781 0.958 . S
C767 H782 0.961 . S
C767 H783 0.960 . S
H768 C752 0.931 . S
H769 C757 0.929 1_565 S
H770 C758 0.960 . S
H771 C758 0.962 . S
H772 C758 0.960 . S
H773 C759 0.961 . S
H774 C759 0.961 . S
H775 C759 0.961 1_545 S
H776 C760 0.931 . S
H777 C765 0.930 . S
H778 C766 0.956 1_545 S
H779 C766 0.961 . S
H780 C766 0.961 . S
H781 C767 0.958 . S
H782 C767 0.961 . S
H783 C767 0.960 . S
C784 C785 1.391 . S
C784 C786 1.394 . S
C784 H800 0.931 . S
C785 C784 1.391 . S
C785 C789 1.376 . S
C786 C784 1.394 . S
C786 C787 1.369 . S
C786 C790 1.531 . S
C787 C786 1.369 . S
C787 C788 1.410 . S
C787 C795 1.503 . S
C788 C787 1.410 . S
C788 C789 1.392 . S
C788 C791 1.511 . S
C789 C785 1.376 . S
C789 C788 1.392 . S
C789 H801 0.929 . S
C790 C786 1.531 . S
C790 H802 0.960 . S
C790 H803 0.962 . S
C790 H804 0.960 . S
C791 C788 1.511 . S
C791 H805 0.961 . S
C791 H806 0.961 . S
C791 H807 0.961 . S
C792 C793 1.370 . S
C792 C794 1.363 . S
C792 H808 0.931 . S
C793 C792 1.370 . S
C793 C797 1.408 . S
C794 C792 1.363 . S
C794 C795 1.370 . S
C794 C798 1.524 . S
C795 C787 1.503 . S
C795 C794 1.370 . S
C795 C796 1.403 . S
C796 C795 1.403 . S
C796 C797 1.404 . S
C796 C799 1.539 . S
C797 C793 1.408 . S
C797 C796 1.404 . S
C797 H809 0.930 . S
C798 C794 1.524 . S
C798 H810 0.956 . S
C798 H811 0.961 . S
C798 H812 0.961 . S
C799 C796 1.539 . S
C799 H813 0.958 . S
C799 H814 0.961 . S
C799 H815 0.960 . S
H800 C784 0.931 . S
H801 C789 0.929 . S
H802 C790 0.960 . S
H803 C790 0.962 . S
H804 C790 0.960 . S
H805 C791 0.961 . S
H806 C791 0.961 . S
H807 C791 0.961 . S
H808 C792 0.931 . S
H809 C797 0.930 . S
H810 C798 0.956 . S
H811 C798 0.961 . S
H812 C798 0.961 . S
H813 C799 0.958 . S
H814 C799 0.961 . S
H815 C799 0.960 . S
C816 C817 1.391 . S
C816 C818 1.394 . S
C816 H832 0.931 . S
C817 C816 1.391 . S
C817 C821 1.376 1_545 S
C818 C816 1.394 . S
C818 C819 1.369 . S
C818 C822 1.531 . S
C819 C818 1.369 . S
C819 C820 1.410 1_545 S
C819 C827 1.503 . S
C820 C819 1.410 1_565 S
C820 C821 1.392 . S
C820 C823 1.511 . S
C821 C817 1.376 1_565 S
C821 C820 1.392 . S
C821 H833 0.929 . S
C822 C818 1.531 . S
C822 H834 0.960 . S
C822 H835 0.962 . S
C822 H836 0.960 . S
C823 C820 1.511 . S
C823 H837 0.961 . S
C823 H838 0.961 . S
C823 H839 0.961 . S
C824 C825 1.370 . S
C824 C826 1.363 . S
C824 H840 0.931 . S
C825 C824 1.370 . S
C825 C829 1.408 . S
C826 C824 1.363 . S
C826 C827 1.370 . S
C826 C830 1.524 . S
C827 C819 1.503 . S
C827 C826 1.370 . S
C827 C828 1.403 . S
C828 C827 1.403 . S
C828 C829 1.404 . S
C828 C831 1.539 . S
C829 C825 1.408 . S
C829 C828 1.404 . S
C829 H841 0.930 . S
C830 C826 1.524 . S
C830 H842 0.956 . S
C830 H843 0.961 1_545 S
C830 H844 0.961 1_545 S
C831 C828 1.539 . S
C831 H845 0.958 . S
C831 H846 0.961 . S
C831 H847 0.960 . S
H832 C816 0.931 . S
H833 C821 0.929 . S
H834 C822 0.960 . S
H835 C822 0.962 . S
H836 C822 0.960 . S
H837 C823 0.961 . S
H838 C823 0.961 . S
H839 C823 0.961 . S
H840 C824 0.931 . S
H841 C829 0.930 . S
H842 C830 0.956 . S
H843 C830 0.961 1_565 S
H844 C830 0.961 1_565 S
H845 C831 0.958 . S
H846 C831 0.961 . S
H847 C831 0.960 . S
C848 C849 1.391 . S
C848 C850 1.394 . S
C848 H864 0.931 . S
C849 C848 1.391 . S
C849 C853 1.376 . S
C850 C848 1.394 . S
C850 C851 1.369 . S
C850 C854 1.531 . S
C851 C850 1.369 . S
C851 C852 1.410 . S
C851 C859 1.503 . S
C852 C851 1.410 . S
C852 C853 1.392 . S
C852 C855 1.511 . S
C853 C849 1.376 . S
C853 C852 1.392 . S
C853 H865 0.929 . S
C854 C850 1.531 . S
C854 H866 0.960 . S
C854 H867 0.962 . S
C854 H868 0.960 . S
C855 C852 1.511 . S
C855 H869 0.961 . S
C855 H870 0.961 . S
C855 H871 0.961 . S
C856 C857 1.385 . S
C856 C858 1.363 . S
C856 H872 0.931 . S
C857 C856 1.385 . S
C857 C861 1.418 . S
C858 C856 1.363 . S
C858 C859 1.370 . S
C858 C862 1.524 . S
C859 C851 1.503 . S
C859 C858 1.370 . S
C859 C860 1.403 . S
C860 C859 1.403 . S
C860 C861 1.404 . S
C860 C863 1.539 . S
C861 C857 1.418 . S
C861 C860 1.404 . S
C861 H873 0.929 . S
C862 C858 1.524 . S
C862 H874 0.956 . S
C862 H875 0.961 . S
C862 H876 0.961 . S
C863 C860 1.539 . S
C863 H877 0.958 . S
C863 H878 0.961 . S
C863 H879 0.960 . S
H864 C848 0.931 . S
H865 C853 0.929 . S
H866 C854 0.960 . S
H867 C854 0.962 . S
H868 C854 0.960 . S
H869 C855 0.961 . S
H870 C855 0.961 . S
H871 C855 0.961 . S
H872 C856 0.931 . S
H873 C861 0.929 . S
H874 C862 0.956 . S
H875 C862 0.961 . S
H876 C862 0.961 . S
H877 C863 0.958 . S
H878 C863 0.961 . S
H879 C863 0.960 . S
C880 C881 1.391 . S
C880 C882 1.394 . S
C880 H896 0.931 . S
C881 C880 1.391 . S
C881 C885 1.376 1_455 S
C882 C880 1.394 . S
C882 C883 1.369 . S
C882 C886 1.531 . S
C883 C882 1.369 . S
C883 C884 1.410 1_455 S
C883 C891 1.503 . S
C884 C883 1.410 1_655 S
C884 C885 1.392 . S
C884 C887 1.511 . S
C885 C881 1.376 1_655 S
C885 C884 1.392 . S
C885 H897 0.929 . S
C886 C882 1.531 . S
C886 H898 0.960 . S
C886 H899 0.962 . S
C886 H900 0.960 . S
C887 C884 1.511 . S
C887 H901 0.961 . S
C887 H902 0.961 . S
C887 H903 0.961 . S
C888 C889 1.370 . S
C888 C890 1.363 . S
C888 H904 0.931 . S
C889 C888 1.370 . S
C889 C893 1.408 . S
C890 C888 1.363 . S
C890 C891 1.370 . S
C890 C894 1.524 . S
C891 C883 1.503 . S
C891 C890 1.370 . S
C891 C892 1.403 . S
C892 C891 1.403 . S
C892 C893 1.404 . S
C892 C895 1.539 1_455 S
C893 C889 1.408 . S
C893 C892 1.404 . S
C893 H905 0.930 . S
C894 C890 1.524 . S
C894 H906 0.956 . S
C894 H907 0.961 . S
C894 H908 0.961 . S
C895 C892 1.539 1_655 S
C895 H909 0.958 1_655 S
C895 H910 0.961 . S
C895 H911 0.960 . S
H896 C880 0.931 . S
H897 C885 0.929 . S
H898 C886 0.960 . S
H899 C886 0.962 . S
H900 C886 0.960 . S
H901 C887 0.961 . S
H902 C887 0.961 . S
H903 C887 0.961 . S
H904 C888 0.931 . S
H905 C893 0.930 . S
H906 C894 0.956 . S
H907 C894 0.961 . S
H908 C894 0.961 . S
H909 C895 0.958 1_455 S
H910 C895 0.961 . S
H911 C895 0.960 . S
C337 C10 3.017 . S
C345 C325 2.959 . S
C369 C59 3.085 . S
C377 C253 3.020 . S
C401 C90 3.008 . S
C409 C289 2.952 . S
C433 C19 3.093 . S
C441 C301 3.050 . S
C473 C229 2.984 . S
C465 C50 3.005 . S
C505 C265 3.051 . S
C497 C99 3.093 . S
C529 C46 0.509 . S
C537 C181 0.443 . S
C561 C95 0.468 . S
C569 C193 0.314 . S
C593 C6 0.438 . S
C601 C121 0.453 . S
C633 C157 0.292 . S
C625 C55 0.311 . S
C665 C217 0.440 . S
C657 C86 0.444 . S
C689 C15 0.476 . S
C697 C145 0.374 . S
C729 C223 1.078 1_554 S
C721 C9 1.019 . S
C753 C49 1.039 . S
C761 C151 1.066 . S
C785 C89 1.036 . S
C793 C187 1.074 . S
C825 C295 1.789 . S
C817 C58 1.676 . S
C857 C331 1.761 1_556 S
C849 C98 1.697 . S
C881 C18 1.727 . S
C889 C259 1.792 . S
