# Generated by pormake.
# Topology zzz, (3,6)-cn, num edge types: 1
# Building blocks:
#     Node 0, Type 0, BuildingBlock: ESEHIV_clean_linker_0, # of connection points: 3
#     Node 1, Type 0, BuildingBlock: ESEHIV_clean_linker_0, # of connection points: 3
#     Node 2, Type 0, BuildingBlock: ESEHIV_clean_linker_0, # of connection points: 3
#     Node 3, Type 0, BuildingBlock: ESEHIV_clean_linker_0, # of connection points: 3
#     Node 4, Type 0, BuildingBlock: ESEHIV_clean_linker_0, # of connection points: 3
#     Node 5, Type 0, BuildingBlock: ESEHIV_clean_linker_0, # of connection points: 3
#     Node 6, Type 0, BuildingBlock: ESEHIV_clean_linker_0, # of connection points: 3
#     Node 7, Type 0, BuildingBlock: ESEHIV_clean_linker_0, # of connection points: 3
#     Node 8, Type 1, BuildingBlock: KUMBOL_clean_sbu_0, # of connection points: 6
#     Node 9, Type 1, BuildingBlock: KUMBOL_clean_sbu_0, # of connection points: 6
#     Node 10, Type 1, BuildingBlock: KUMBOL_clean_sbu_0, # of connection points: 6
#     Node 11, Type 1, BuildingBlock: KUMBOL_clean_sbu_0, # of connection points: 6
#     Edge 12, Type (0, 1), BuildingBlock: XIVTED_clean_linker_0, # of connection points: 2
#     Edge 13, Type (0, 1), BuildingBlock: XIVTED_clean_linker_0, # of connection points: 2
#     Edge 14, Type (0, 1), BuildingBlock: XIVTED_clean_linker_0, # of connection points: 2
#     Edge 15, Type (0, 1), BuildingBlock: XIVTED_clean_linker_0, # of connection points: 2
#     Edge 16, Type (0, 1), BuildingBlock: XIVTED_clean_linker_0, # of connection points: 2
#     Edge 17, Type (0, 1), BuildingBlock: XIVTED_clean_linker_0, # of connection points: 2
#     Edge 18, Type (0, 1), BuildingBlock: XIVTED_clean_linker_0, # of connection points: 2
#     Edge 19, Type (0, 1), BuildingBlock: XIVTED_clean_linker_0, # of connection points: 2
#     Edge 20, Type (0, 1), BuildingBlock: XIVTED_clean_linker_0, # of connection points: 2
#     Edge 21, Type (0, 1), BuildingBlock: XIVTED_clean_linker_0, # of connection points: 2
#     Edge 22, Type (0, 1), BuildingBlock: XIVTED_clean_linker_0, # of connection points: 2
#     Edge 23, Type (0, 1), BuildingBlock: XIVTED_clean_linker_0, # of connection points: 2
#     Edge 24, Type (0, 1), BuildingBlock: XIVTED_clean_linker_0, # of connection points: 2
#     Edge 25, Type (0, 1), BuildingBlock: XIVTED_clean_linker_0, # of connection points: 2
#     Edge 26, Type (0, 1), BuildingBlock: XIVTED_clean_linker_0, # of connection points: 2
#     Edge 27, Type (0, 1), BuildingBlock: XIVTED_clean_linker_0, # of connection points: 2
#     Edge 28, Type (0, 1), BuildingBlock: XIVTED_clean_linker_0, # of connection points: 2
#     Edge 29, Type (0, 1), BuildingBlock: XIVTED_clean_linker_0, # of connection points: 2
#     Edge 30, Type (0, 1), BuildingBlock: XIVTED_clean_linker_0, # of connection points: 2
#     Edge 31, Type (0, 1), BuildingBlock: XIVTED_clean_linker_0, # of connection points: 2
#     Edge 32, Type (0, 1), BuildingBlock: XIVTED_clean_linker_0, # of connection points: 2
#     Edge 33, Type (0, 1), BuildingBlock: XIVTED_clean_linker_0, # of connection points: 2
#     Edge 34, Type (0, 1), BuildingBlock: XIVTED_clean_linker_0, # of connection points: 2
#     Edge 35, Type (0, 1), BuildingBlock: XIVTED_clean_linker_0, # of connection points: 2
# Relax obj value: 0.338
# Max RMSD: 0.221
# Mean RMSD: 0.214
data_MOF--net-zzz--node1-KUMBOL_clean_sbu_0--node2-ESEHIV_clean_linker_0--edge1-XIVTED_clean_linker_0
_symmetry_space_group_name_H-M    P1
_symmetry_Int_Tables_number       1
_symmetry_cell_setting            triclinic
loop_
_symmetry_equiv_pos_as_xyz
'x, y, z'
_cell_length_a     43.795892
_cell_length_b     43.819054
_cell_length_c     15.101049
_cell_angle_alpha  91.73377
_cell_angle_beta   90.332126
_cell_angle_gamma 89.903849
loop_
_atom_site_label
_atom_site_type_symbol
_atom_site_fract_x
_atom_site_fract_y
_atom_site_fract_z
_atom_type_partial_charge
H0 H 0.80496 0.57787 0.28626 0.0
H1 H 0.73248 0.58967 0.09951 0.0
H2 H 0.72513 0.52134 0.29958 0.0
C3 C 0.78207 0.57236 0.26307 0.0
C4 C 0.76652 0.54865 0.3031 0.0
C5 C 0.77008 0.58711 0.18967 0.0
C6 C 0.74116 0.57868 0.15783 0.0
C7 C 0.72403 0.5554 0.19698 0.0
C8 C 0.73734 0.53977 0.2694 0.0
H9 H 0.93597 0.81857 0.22557 0.0
H10 H 0.92717 0.73346 0.08047 0.0
H11 H 0.9921 0.7424 0.29574 0.0
C12 C 0.94166 0.79463 0.21651 0.0
C13 C 0.96376 0.78231 0.27289 0.0
C14 C 0.92896 0.77758 0.14521 0.0
C15 C 0.93741 0.74686 0.13409 0.0
C16 C 0.96049 0.73365 0.18583 0.0
C17 C 0.97414 0.75187 0.25528 0.0
H18 H 0.71552 0.92871 0.25269 0.0
H19 H 0.80176 0.92196 0.11862 0.0
H20 H 0.78773 0.99083 0.3236 0.0
C21 C 0.73918 0.93525 0.24608 0.0
C22 C 0.75016 0.95901 0.30207 0.0
C23 C 0.75683 0.92263 0.17642 0.0
C24 C 0.78732 0.93208 0.1696 0.0
C25 C 0.79854 0.95712 0.2199 0.0
C26 C 0.77965 0.97102 0.28584 0.0
H27 H 0.59028 0.72613 0.3 0.0
H28 H 0.53593 0.8063 0.35135 0.0
H29 H 0.59555 0.80132 0.12499 0.0
C30 C 0.58472 0.7495 0.2845 0.0
C31 C 0.59571 0.76182 0.20613 0.0
C32 C 0.56347 0.76515 0.33805 0.0
C33 C 0.55345 0.79448 0.31328 0.0
C34 C 0.566 0.80807 0.23748 0.0
C35 C 0.58731 0.79165 0.18567 0.0
H36 H 0.22735 0.46171 0.08557 0.0
H37 H 0.29917 0.45882 0.27799 0.0
H38 H 0.31495 0.49987 1.025 0.0
C39 C 0.25113 0.46555 0.10325 0.0
C40 C 0.26968 0.48078 0.04411 0.0
C41 C 0.26145 0.45794 0.18741 0.0
C42 C 0.29166 0.46415 0.21166 0.0
C43 C 0.31173 0.47859 0.15357 0.0
C44 C 0.3003 0.48782 0.06963 0.0
H45 H 0.09382 0.21691 0.16064 0.0
H46 H 0.10209 0.30294 0.30252 0.0
H47 H 0.03471 0.29137 0.09516 0.0
C48 C 0.08756 0.24068 0.17012 0.0
C49 C 0.06457 0.25232 0.1153 0.0
C50 C 0.10056 0.25821 0.24016 0.0
C51 C 0.09147 0.28876 0.25115 0.0
C52 C 0.06729 0.30098 0.20193 0.0
C53 C 0.05337 0.2824 0.13393 0.0
H54 H 0.31471 0.10925 0.12305 0.0
H55 H 0.22939 0.11393 0.262 0.0
H56 H 0.24362 0.04519 0.05649 0.0
C57 C 0.29126 0.10207 0.13072 0.0
C58 C 0.28056 0.07787 0.07587 0.0
C59 C 0.27373 0.11433 0.20102 0.0
C60 C 0.24357 0.10415 0.20982 0.0
C61 C 0.23259 0.07884 0.16023 0.0
C62 C 0.25145 0.06524 0.09363 0.0
H63 H 0.44042 0.30969 0.0623 0.0
H64 H 0.49687 0.23014 1.0264 0.0
H65 H 0.43396 0.23673 0.24481 0.0
C66 C 0.44614 0.28667 0.08102 0.0
C67 C 0.43425 0.27516 0.1594 0.0
C68 C 0.46844 0.2708 0.03183 0.0
C69 C 0.47861 0.24206 0.06105 0.0
C70 C 0.46521 0.22918 0.13667 0.0
C71 C 0.44287 0.24579 0.1841 0.0
Gd72 Gd 0.98485 0.02777 0.60855 0.0
Gd73 Gd 0.04509 1.00852 0.76839 0.0
C74 C 0.08184 0.08213 0.96573 0.0
C75 C 0.13492 0.08584 0.92206 0.0
C76 C 0.10083 0.04973 0.84599 0.0
C77 C 0.07699 0.0594 0.89867 0.0
C78 C 0.13034 0.06213 0.85883 0.0
C79 C 0.11066 0.09587 0.97542 0.0
C80 C 0.05791 0.08971 1.02297 0.0
C81 C 0.03043 0.07396 1.0148 0.0
N82 N 0.04955 0.04531 0.8879 0.0
C83 C 0.02673 0.05155 0.94769 0.0
H84 H 1.00502 0.04026 0.94401 0.0
C85 C 0.11982 0.01242 0.74498 0.0
N86 N 0.09574 0.02643 0.78694 0.0
C87 C 0.1494 0.02406 0.75444 0.0
C88 C 0.15462 0.04942 0.81047 0.0
H89 H 0.11599 0.99257 0.70214 0.0
H90 H 0.11467 0.11355 1.02586 0.0
H91 H 0.02562 0.99518 0.43535 0.0
H92 H 0.06068 0.10707 0.07504 0.0
H93 H 0.01191 0.07918 0.05997 0.0
H94 H 0.15732 0.09585 0.93227 0.0
H95 H 0.91392 0.04386 0.67348 0.0
H96 H 0.96986 0.92899 0.30213 0.0
H97 H 0.01889 0.95628 0.31935 0.0
H98 H 0.87264 0.94121 0.44091 0.0
H99 H 0.16815 0.01337 0.71884 0.0
H100 H 0.1776 0.05827 0.81843 0.0
H101 H 0.91553 0.92317 0.34881 0.0
H102 H 0.86169 0.02342 0.65518 0.0
N103 N 0.98067 0.99081 0.48929 0.0
C104 C 0.97254 0.94635 0.35421 0.0
C105 C 1.00017 0.96177 0.36357 0.0
C106 C 0.9484 0.95424 0.41034 0.0
C107 C 0.95315 0.97696 0.47751 0.0
C108 C 1.00376 0.98422 0.43064 0.0
N109 N 0.93423 1.01 0.58883 0.0
C110 C 0.92917 0.98681 0.52941 0.0
C111 C 0.88048 0.01265 0.61995 0.0
C112 C 0.87526 0.98743 0.56338 0.0
C113 C 0.91011 0.02407 0.63037 0.0
C114 C 0.89962 0.97463 0.51557 0.0
H115 H 0.85225 0.97876 0.55464 0.0
O116 O 0.95624 0.06699 0.5823 0.0
O117 O 0.01856 0.04619 0.7092 0.0
O118 O 0.99813 1.00481 0.83274 0.0
O119 O 0.96012 1.00689 0.72387 0.0
O120 O 0.97449 0.063 0.7167 0.0
O121 O 0.99447 0.05635 0.49702 0.0
O122 O 0.07382 0.96941 0.79489 0.0
O123 O 1.01131 0.99016 0.66817 0.0
O124 O 0.03171 0.03163 0.54418 0.0
O125 O 0.06983 0.02914 0.65252 0.0
O126 O 0.05524 0.97314 0.66041 0.0
O127 O 0.03546 0.97987 0.87977 0.0
C128 C 1.00164 0.06564 0.74924 0.0
C129 C 0.89509 0.95102 0.45197 0.0
C130 C 0.91948 0.9408 0.39947 0.0
C131 C 0.975 0.07715 0.52392 0.0
C132 C 0.98713 0.10789 0.5447 0.0
C133 C 0.967 0.13168 0.56799 0.0
C134 C 0.01879 0.11294 0.55061 0.0
C135 C 0.03045 0.14175 0.57596 0.0
C136 C 0.97832 0.16005 0.59654 0.0
C137 C 1.00976 0.16518 0.60013 0.0
C138 C 0.96915 1.00295 0.8068 0.0
C139 C 0.02805 0.97054 0.6282 0.0
C140 C 0.05494 0.95911 0.85271 0.0
C141 C 0.04277 0.92843 0.83102 0.0
C142 C 0.06275 0.90495 0.8039 0.0
C143 C 1.0111 0.92325 0.82768 0.0
C144 C 0.99932 0.89464 0.80081 0.0
C145 C 0.05127 0.87681 0.77392 0.0
C146 C 0.01985 0.87156 0.77271 0.0
C147 C 0.06071 0.03327 0.56979 0.0
H148 H 0.94253 0.12812 0.56569 0.0
H149 H 0.03446 0.09448 0.53531 0.0
H150 H 0.96266 0.17831 0.61461 0.0
H151 H 0.01766 0.18792 0.61831 0.0
H152 H 0.08721 0.90861 0.8042 0.0
H153 H 0.9955 0.94147 0.84604 0.0
H154 H 0.06681 0.85882 0.75282 0.0
H155 H 0.01186 0.84896 0.75322 0.0
Gd156 Gd 0.50518 0.98781 0.60665 0.0
Gd157 Gd 0.52504 0.0491 0.7697 0.0
C158 C 0.45208 0.0889 0.95946 0.0
C159 C 0.45005 0.1419 0.91752 0.0
C160 C 0.48513 0.10634 0.84392 0.0
C161 C 0.47475 0.08305 0.89479 0.0
C162 C 0.4736 0.13628 0.85647 0.0
C163 C 0.43924 0.1182 0.96882 0.0
C164 C 0.44367 0.06543 1.01479 0.0
C165 C 0.45854 0.0374 1.00721 0.0
N166 N 0.48803 0.05514 0.88462 0.0
C167 C 0.48097 0.03273 0.94263 0.0
H168 H 0.49156 1.01063 0.93917 0.0
C169 C 0.52275 0.12361 0.74648 0.0
N170 N 0.50821 0.10022 0.78688 0.0
C171 C 0.51199 0.15359 0.75583 0.0
C172 C 0.48694 0.1599 0.80999 0.0
H173 H 0.54237 0.11891 0.7051 0.0
H174 H 0.42164 0.12297 1.01748 0.0
H175 H 0.53972 0.02681 0.43956 0.0
H176 H 0.42632 0.06896 0.06498 0.0
H177 H 0.45265 0.01921 0.05092 0.0
H178 H 0.44073 0.16466 0.92754 0.0
H179 H 0.48741 0.91811 0.67039 0.0
H180 H 0.60357 0.96786 0.31027 0.0
H181 H 0.57833 0.01808 0.32719 0.0
H182 H 0.58777 0.87174 0.44405 0.0
H183 H 0.52314 0.1718 0.72159 0.0
H184 H 0.47879 0.18318 0.81789 0.0
H185 H 0.60735 0.91355 0.35539 0.0
H186 H 0.50588 0.86503 0.65191 0.0
N187 N 0.54212 0.98181 0.49138 0.0
C188 C 0.5863 0.97143 0.36066 0.0
C189 C 0.57204 0.99973 0.36985 0.0
C190 C 0.57746 0.94781 0.41486 0.0
C191 C 0.55491 0.95371 0.47986 0.0
C192 C 0.54971 1.00445 0.4347 0.0
N193 N 0.52144 0.93659 0.58781 0.0
C194 C 0.54428 0.93036 0.53006 0.0
C195 C 0.51712 0.88319 0.61775 0.0
C196 C 0.5419 0.87672 0.56265 0.0
C197 C 0.50679 0.91329 0.62819 0.0
C198 C 0.55541 0.90031 0.51647 0.0
H199 H 0.54973 0.85335 0.55397 0.0
O200 O 0.46507 0.96037 0.57608 0.0
O201 O 0.48738 0.02254 0.70542 0.0
O202 O 0.52778 1.00261 0.83352 0.0
O203 O 0.52617 0.96384 0.72371 0.0
O204 O 0.46988 0.97883 0.71107 0.0
O205 O 0.47671 0.99779 0.4928 0.0
O206 O 0.56466 0.07701 0.80197 0.0
O207 O 0.5427 0.01431 0.67144 0.0
O208 O 0.50252 0.03413 0.54241 0.0
O209 O 0.50476 0.07309 0.65149 0.0
O210 O 0.56098 0.05764 0.66643 0.0
O211 O 0.55327 0.03922 0.88413 0.0
C212 C 0.46765 1.00632 0.74311 0.0
C213 C 0.57876 0.8946 0.45488 0.0
C214 C 0.58984 0.91836 0.4043 0.0
C215 C 0.45534 0.97921 0.51745 0.0
C216 C 0.42493 0.99249 0.53561 0.0
C217 C 0.40127 0.97367 0.56411 0.0
C218 C 0.42009 0.02421 0.53314 0.0
C219 C 0.39167 0.03707 0.55575 0.0
C220 C 0.37334 0.9863 0.58982 0.0
C221 C 0.36844 0.01769 0.58534 0.0
C222 C 0.52984 0.97349 0.80731 0.0
C223 C 0.56283 0.03014 0.63423 0.0
C224 C 0.57441 0.05826 0.86081 0.0
C225 C 0.60516 0.04564 0.84403 0.0
C226 C 0.62872 0.06518 0.81897 0.0
C227 C 0.61054 0.01396 0.84452 0.0
C228 C 0.63939 1.00186 0.82291 0.0
C229 C 0.6571 0.05332 0.79455 0.0
C230 C 0.66252 0.02197 0.79679 0.0
C231 C 0.50087 0.0633 0.56813 0.0
H232 H 0.40459 0.94924 0.56804 0.0
H233 H 0.43843 0.03898 0.5136 0.0
H234 H 0.35523 0.97165 0.61201 0.0
H235 H 0.34599 0.02647 0.60174 0.0
H236 H 0.62498 0.08959 0.81675 0.0
H237 H 0.59232 0.99866 0.86168 0.0
H238 H 0.67513 0.06854 0.77505 0.0
H239 H 0.68526 0.01378 0.78142 0.0
Gd240 Gd 0.48111 0.51877 0.73432 0.0
Gd241 Gd 0.55412 0.51235 0.61656 0.0
C242 C 0.6469 0.52731 0.75229 0.0
C243 C 0.66275 0.5758 0.69382 0.0
C244 C 0.61474 0.55258 0.64616 0.0
C245 C 0.61979 0.52854 0.70142 0.0
C246 C 0.63653 0.57609 0.63988 0.0
C247 C 0.66791 0.55145 0.75001 0.0
C248 C 0.65252 0.50145 0.8019 0.0
C249 C 0.63196 0.4772 0.79725 0.0
N250 N 0.599 0.50556 0.70185 0.0
C251 C 0.60545 0.47945 0.74576 0.0
H252 H 0.59029 0.46021 0.7427 0.0
C253 C 0.58554 0.57297 0.52982 0.0
N254 N 0.58933 0.55206 0.59464 0.0
C255 C 0.60641 0.5968 0.52129 0.0
C256 C 0.63178 0.59866 0.57757 0.0
H257 H 0.56572 0.57182 0.48686 0.0
H258 H 0.68863 0.55107 0.78953 0.0
H259 H 0.44591 0.57001 0.60285 0.0
H260 H 0.673 0.49966 0.842 0.0
H261 H 0.63648 0.45673 0.83351 0.0
H262 H 0.67957 0.59383 0.69072 0.0
H263 H 0.46963 0.45934 0.86418 0.0
H264 H 0.36252 0.53104 0.50725 0.0
H265 H 0.39978 0.57334 0.51185 0.0
H266 H 0.35504 0.43792 0.66343 0.0
H267 H 0.60282 0.61378 0.47169 0.0
H268 H 0.64797 0.61711 0.57077 0.0
H269 H 0.34623 0.48033 0.5632 0.0
H270 H 0.43229 0.41768 0.8807 0.0
N271 N 0.43639 0.52538 0.64811 0.0
C272 C 0.38296 0.52932 0.54757 0.0
C273 C 0.40393 0.55322 0.55 0.0
C274 C 0.38821 0.50387 0.59915 0.0
C275 C 0.41532 0.50268 0.65007 0.0
C276 C 0.43039 0.55107 0.60179 0.0
N277 N 0.44582 0.47919 0.75689 0.0
C278 C 0.42025 0.4788 0.70601 0.0
C279 C 0.42866 0.43464 0.83105 0.0
C280 C 0.40308 0.43294 0.77556 0.0
C281 C 0.44968 0.45829 0.82171 0.0
C282 C 0.39832 0.45546 0.71312 0.0
H283 H 0.38679 0.41463 0.78297 0.0
O284 O 0.46179 0.5222 0.86574 0.0
O285 O 0.53174 0.52283 0.74484 0.0
O286 O 0.54169 0.46761 0.68414 0.0
O287 O 0.48875 0.4696 0.69012 0.0
O288 O 0.51084 0.50254 0.8488 0.0
O289 O 0.46738 0.56301 0.7897 0.0
O290 O 0.57293 0.50891 0.48443 0.0
O291 O 0.50352 0.50818 0.60612 0.0
O292 O 0.49362 0.56366 0.66789 0.0
O293 O 0.54656 0.56154 0.66115 0.0
O294 O 0.52431 0.52863 0.50239 0.0
O295 O 0.56799 0.46817 0.56109 0.0
C296 C 0.5367 0.51151 0.81934 0.0
C297 C 0.37199 0.45581 0.65964 0.0
C298 C 0.36696 0.47997 0.60268 0.0
C299 C 0.46193 0.55187 0.86734 0.0
C300 C 0.47795 0.5658 0.94399 0.0
C301 C 0.46626 0.56178 0.02906 0.0
C302 C 0.50624 0.58037 0.93402 0.0
C303 C 0.52261 0.59134 1.00862 0.0
C304 C 0.48259 0.57219 0.10348 0.0
C305 C 0.51054 0.58691 0.09356 0.0
C306 C 0.51473 0.4543 0.69474 0.0
C307 C 0.49848 0.5195 0.53165 0.0
C308 C 0.57312 0.47924 0.48319 0.0
C309 C 0.55694 0.46501 0.40734 0.0
C310 C 0.56953 0.46671 0.32257 0.0
C311 C 0.52773 0.4524 0.41753 0.0
C312 C 0.51128 0.44098 0.34357 0.0
C313 C 0.55322 0.45582 0.24865 0.0
C314 C 0.52436 0.44296 0.25886 0.0
C315 C 0.5206 0.57695 0.65754 0.0
H316 H 0.44474 0.55012 0.03791 0.0
H317 H 0.51565 0.58294 0.86844 0.0
H318 H 0.47348 0.56901 0.16906 0.0
H319 H 0.52221 0.59563 0.15244 0.0
H320 H 0.59179 0.4769 0.3135 0.0
H321 H 0.51773 0.45177 0.48291 0.0
H322 H 0.56305 0.45716 0.18327 0.0
H323 H 0.51274 0.43378 0.20048 0.0
Gd324 Gd 1.00707 0.48005 0.77209 0.0
Gd325 Gd 0.01746 0.54776 0.64352 0.0
C326 C 0.03821 0.64102 0.78263 0.0
C327 C 0.9956 0.67173 0.73383 0.0
C328 C 0.99902 0.61786 0.68933 0.0
C329 C 0.02642 0.61533 0.73441 0.0
C330 C 0.98331 0.64612 0.68876 0.0
C331 C 0.02298 0.66918 0.78071 0.0
C332 C 0.06427 0.63751 0.83472 0.0
C333 C 0.07681 0.60865 0.84274 0.0
N334 N 0.04025 0.58746 0.737 0.0
C335 C 0.06398 0.58385 0.79588 0.0
H336 H 0.07209 0.56185 0.814 0.0
C337 C 0.96048 0.59474 0.60064 0.0
N338 N 0.9872 0.59262 0.64792 0.0
C339 C 0.94416 0.62209 0.59861 0.0
C340 C 0.95557 0.64792 0.6431 0.0
H341 H 0.95151 0.57537 0.5632 0.0
H342 H 0.03185 0.68899 0.81701 0.0
H343 H 0.95637 0.43518 0.65703 0.0
H344 H 0.07386 0.65659 0.87277 0.0
H345 H 0.0957 0.60519 0.8879 0.0
H346 H 0.98388 0.69353 0.73383 0.0
H347 H 0.06038 0.47003 0.92943 0.0
H348 H 1.00291 0.35525 0.56195 0.0
H349 H 0.95647 0.38737 0.56892 0.0
H350 H 0.09564 0.35737 0.73036 0.0
H351 H 0.92292 0.62328 0.56184 0.0
H352 H 0.94291 0.66916 0.64126 0.0
H353 H 0.05554 0.34473 0.6205 0.0
H354 H 0.10278 0.43464 0.96174 0.0
N355 N 1.00345 0.4324 0.69406 0.0
C356 C 1.00325 0.37669 0.59967 0.0
C357 C 0.977 0.39472 0.60358 0.0
C358 C 0.02888 0.38551 0.64968 0.0
C359 C 0.02807 0.41363 0.69777 0.0
C360 C 0.97729 0.42231 0.65276 0.0
N361 N 0.04708 0.44632 0.81019 0.0
C362 C 0.05065 0.42076 0.75867 0.0
C363 C 0.0885 0.4306 0.90385 0.0
C364 C 0.0941 0.40562 0.84662 0.0
C365 C 0.06444 0.45051 0.88552 0.0
C366 C 0.07459 0.39997 0.77424 0.0
H367 H 0.11267 0.39014 0.86107 0.0
O368 O 0.99825 0.45869 0.89771 0.0
O369 O 1.0016 0.53082 0.77124 0.0
O370 O 0.06622 0.53509 0.68292 0.0
O371 O 0.05856 0.48962 0.75828 0.0
O372 O 0.02178 0.51379 0.88225 0.0
O373 O 0.96079 0.47551 0.82146 0.0
O374 O 0.99534 0.54453 0.51474 0.0
O375 O 1.01069 0.49669 0.63597 0.0
O376 O 0.96692 0.48681 0.67571 0.0
O377 O 0.96738 0.53907 0.67553 0.0
O378 O 0.04722 0.51351 0.56777 0.0
O379 O 0.03298 0.57594 0.53659 0.0
C380 C 0.01207 0.53828 0.84673 0.0
C381 C 0.07708 0.37333 0.72069 0.0
C382 C 0.05425 0.36614 0.65814 0.0
C383 C 0.96976 0.46646 0.89833 0.0
C384 C 0.95999 0.48484 0.97633 0.0
C385 C 0.96358 0.47332 0.06132 0.0
C386 C 0.94884 0.51465 0.96682 0.0
C387 C 0.93996 0.53257 0.04103 0.0
C388 C 0.95573 0.49122 0.13573 0.0
C389 C 0.94377 0.5205 0.1259 0.0
C390 C 0.07662 0.51128 0.72737 0.0
C391 C 0.0319 0.48923 0.58313 0.0
C392 C 0.01418 0.56338 0.47861 0.0
C393 C 0.02719 0.55223 0.39407 0.0
C394 C 1.00919 0.55146 0.31692 0.0
C395 C 0.0562 0.53883 0.39228 0.0
C396 C 0.06624 0.52203 0.31753 0.0
C397 C 0.01993 0.53666 0.23985 0.0
C398 C 0.048 0.52141 0.2405 0.0
C399 C 0.95277 0.51302 0.66154 0.0
H400 H 0.97267 0.45059 0.07008 0.0
H401 H 0.94691 0.52385 0.90128 0.0
H402 H 0.95849 0.48221 0.20126 0.0
H403 H 0.93661 0.53315 0.18486 0.0
H404 H 0.98667 0.56173 0.31685 0.0
H405 H 0.07041 0.54021 0.45094 0.0
H406 H 1.00615 0.53632 0.18014 0.0
H407 H 0.05547 0.50931 0.18085 0.0
H408 H 0.22631 0.02701 0.25326 0.0
H409 H 0.05397 0.06099 0.40854 0.0
H410 H 0.17409 0.10136 0.14979 0.0
H411 H 0.12133 0.01626 0.56812 0.0
H412 H 0.09315 0.0687 0.29525 0.0
H413 H 0.18293 0.01406 0.34729 0.0
C414 C 0.20524 0.03981 0.24757 0.0
C415 C 0.20368 0.06492 0.19219 0.0
C416 C 0.0993 0.05725 0.35537 0.0
C417 C 0.15406 0.05089 0.30214 0.0
C418 C 0.07695 0.05289 0.42042 0.0
C419 C 0.08434 0.03863 0.50014 0.0
C420 C 0.12917 0.04635 0.36841 0.0
C421 C 0.11452 0.0282 0.51006 0.0
C422 C 0.18065 0.03279 0.30252 0.0
C423 C 0.17608 0.08146 0.19024 0.0
N424 N 0.13562 0.03211 0.44533 0.0
N425 N 0.15246 0.07426 0.24455 0.0
H426 H 0.51392 0.22366 0.24666 0.0
H427 H 0.4753 0.05469 0.40141 0.0
H428 H 0.44029 0.17169 0.12769 0.0
H429 H 0.51657 0.12418 0.57054 0.0
H430 H 0.46924 0.09245 0.28552 0.0
H431 H 0.52375 0.18186 0.34762 0.0
C432 C 0.50059 0.20291 0.23963 0.0
C433 C 0.47673 0.20084 0.17744 0.0
C434 C 0.47953 0.09937 0.34833 0.0
C435 C 0.48715 0.15319 0.29476 0.0
C436 C 0.48293 0.07785 0.41489 0.0
C437 C 0.49595 0.08623 0.49766 0.0
C438 C 0.49011 0.12935 0.36324 0.0
C439 C 0.50579 0.11659 0.50968 0.0
C440 C 0.50584 0.17927 0.29822 0.0
C441 C 0.45935 0.17387 0.17341 0.0
N442 N 0.50288 0.13685 0.44347 0.0
N443 N 0.46484 0.15111 0.23134 0.0
H444 H 0.34508 0.53258 0.15926 0.0
H445 H 0.45997 0.47002 0.52667 0.0
H446 H 0.35063 0.43813 0.22952 0.0
H447 H 0.47703 0.55458 0.39772 0.0
H448 H 0.41725 0.45998 0.42445 0.0
H449 H 0.39198 0.54282 0.24671 0.0
C450 C 0.35651 0.51388 0.19104 0.0
C451 C 0.34366 0.48447 0.18708 0.0
C452 C 0.43029 0.48078 0.41822 0.0
C453 C 0.39677 0.4962 0.28986 0.0
C454 C 0.45451 0.48666 0.47741 0.0
C455 C 0.47161 0.51357 0.47238 0.0
C456 C 0.42304 0.50184 0.35263 0.0
C457 C 0.46409 0.53378 0.40487 0.0
C458 C 0.38311 0.51978 0.24184 0.0
C459 C 0.3594 0.46123 0.23114 0.0
N460 N 0.44023 0.5277 0.34832 0.0
N461 N 0.38465 0.46765 0.28131 0.0
H462 H 0.10134 0.35292 0.20958 0.0
H463 H 0.98572 0.45677 0.49817 0.0
H464 H 1.01116 0.3203 0.26743 0.0
H465 H 0.08347 0.46015 0.52643 0.0
H466 H 0.99113 0.41285 0.39284 0.0
H467 H 0.09122 0.39899 0.29985 0.0
C468 C 0.07893 0.35597 0.23859 0.0
C469 C 0.05702 0.33259 0.22992 0.0
C470 C 1.01136 0.423 0.42289 0.0
C471 C 0.04536 0.38578 0.33529 0.0
C472 C 1.00827 0.44778 0.48392 0.0
C473 C 0.03411 0.46116 0.52476 0.0
C474 C 0.0406 0.41212 0.40009 0.0
C475 C 0.06286 0.44988 0.49908 0.0
C476 C 0.07332 0.3822 0.29121 0.0
C477 C 0.02857 0.33781 0.27082 0.0
N478 N 0.06531 0.42613 0.43894 0.0
N479 N 0.02361 0.36371 0.32211 0.0
H480 H 0.85683 0.93434 0.23485 0.0
H481 H 0.90862 0.01965 0.80562 0.0
H482 H 0.80574 1.00816 0.12422 0.0
H483 H 0.97528 0.97592 0.96987 0.0
H484 H 0.87023 0.01255 0.91852 0.0
H485 H 0.90056 0.94737 0.14137 0.0
C486 C 0.85525 0.95404 0.1934 0.0
C487 C 0.82777 0.97065 0.18892 0.0
C488 C 0.89323 1.00441 0.93014 0.0
C489 C 0.87712 0.98459 0.07783 0.0
C490 C 0.91523 1.00809 0.8645 0.0
C491 C 0.94535 0.99783 0.87611 0.0
C492 C 0.90096 0.98992 1.00885 0.0
C493 C 0.95236 0.98395 0.95684 0.0
C494 C 0.88008 0.96122 0.13919 0.0
C495 C 0.82665 0.99524 0.13152 0.0
N496 N 0.93033 0.98006 1.01948 0.0
N497 N 0.85065 1.0011 0.07741 0.0
H498 H 0.59118 0.86529 0.25319 0.0
H499 H 0.51515 0.91252 0.80124 0.0
H500 H 0.51729 0.81527 0.12876 0.0
H501 H 0.55437 0.98156 0.97597 0.0
H502 H 0.52032 0.87557 0.9169 0.0
H503 H 0.5811 0.908 0.15432 0.0
C504 C 0.57206 0.86384 0.20745 0.0
C505 C 0.55448 0.83706 0.20073 0.0
C506 C 0.52786 0.8988 0.93018 0.0
C507 C 0.54404 0.88487 0.08387 0.0
C508 C 0.52525 0.91997 0.86317 0.0
C509 C 0.53461 0.95035 0.87726 0.0
C510 C 0.54045 0.90766 1.01267 0.0
C511 C 0.54694 0.95842 0.96125 0.0
C512 C 0.56659 0.88801 0.15026 0.0
C513 C 0.53084 0.8358 0.13766 0.0
N514 N 0.54979 0.93719 1.02538 0.0
N515 N 0.52665 0.85905 0.08097 0.0
H516 H 0.68128 0.59514 0.13344 0.0
H517 H 0.55987 0.47356 0.94391 0.0
H518 H 0.69569 0.49871 0.16685 0.0
H519 H 0.57444 0.56146 0.83151 0.0
H520 H 0.60389 0.48282 0.04387 0.0
H521 H 0.63706 0.58353 0.04106 0.0
C522 C 0.67507 0.57141 0.1223 0.0
C523 C 0.69316 0.54788 0.15681 0.0
C524 C 0.59757 0.49996 0.99693 0.0
C525 C 0.64046 0.53457 0.05356 0.0
C526 C 0.57247 0.49472 0.93995 0.0
C527 C 0.56403 0.51639 0.87743 0.0
C528 C 0.61377 0.52756 0.99352 0.0
C529 C 0.58065 0.54373 0.87668 0.0
C530 C 0.64945 0.56489 0.06976 0.0
C531 C 0.68276 0.51771 0.14188 0.0
N532 N 0.60456 0.54852 0.93371 0.0
N533 N 0.65716 0.51192 0.09135 0.0
H534 H 0.01923 0.70993 0.16441 0.0
H535 H 0.96524 0.57972 0.82559 0.0
H536 H 0.92442 0.68438 0.14016 0.0
H537 H 0.04321 0.56172 0.99126 0.0
H538 H 0.95428 0.62563 0.91783 0.0
H539 H 0.03315 0.66171 0.08491 0.0
C540 C 1.00139 0.69405 0.1444 0.0
C541 C 0.97051 0.7017 0.15861 0.0
C542 C 0.97397 0.61175 0.93345 0.0
C543 C 0.98627 0.64723 0.06386 0.0
C544 C 0.98035 0.58566 0.88039 0.0
C545 C 1.00557 0.5671 0.8994 0.0
C546 C 0.99309 0.61973 1.00575 0.0
C547 C 0.02373 0.57554 0.97352 0.0
C548 C 1.00935 0.6667 0.09804 0.0
C549 C 0.94849 0.68006 0.12952 0.0
N550 N 0.01743 0.60138 1.02319 0.0
N551 N 0.95671 0.65445 0.08214 0.0
H552 H 0.10597 0.27479 0.41877 0.0
H553 H 0.06992 0.118 0.45057 0.0
H554 H 0.13834 0.2068 0.22793 0.0
H555 H 0.06736 0.1811 0.67555 0.0
H556 H 0.11544 0.14248 0.39964 0.0
H557 H 0.11577 0.24019 0.53508 0.0
C558 C 0.11593 0.25296 0.40019 0.0
C559 C 0.1187 0.24303 0.31096 0.0
C560 C 0.10562 0.1506 0.46169 0.0
C561 C 0.12799 0.20218 0.44634 0.0
C562 C 0.0794 0.13633 0.49152 0.0
C563 C 0.06345 0.1487 0.56475 0.0
C564 C 0.11485 0.17833 0.50251 0.0
C565 C 0.07762 0.17217 0.61506 0.0
C566 C 0.12145 0.23285 0.46803 0.0
C567 C 0.13298 0.21463 0.29466 0.0
N568 N 0.10188 0.18706 0.58118 0.0
N569 N 0.13574 0.1946 0.36119 0.0
H570 H 0.32363 0.15393 0.19931 0.0
H571 H 0.41387 0.07161 0.42142 0.0
H572 H 0.26003 0.11369 0.37966 0.0
H573 H 0.35391 0.07756 0.64732 0.0
H574 H 0.39006 0.11621 0.36317 0.0
H575 H 0.36126 0.15706 0.3192 0.0
C576 C 0.31719 0.14632 0.26414 0.0
C577 C 0.28941 0.13091 0.27653 0.0
C578 C 0.38267 0.10878 0.42727 0.0
C579 C 0.33223 0.13461 0.41353 0.0
C580 C 0.39645 0.08289 0.46102 0.0
C581 C 0.38481 0.0696 0.53734 0.0
C582 C 0.35636 0.12079 0.4684 0.0
C583 C 0.36236 0.08585 0.58527 0.0
C584 C 0.33876 0.1482 0.33269 0.0
C585 C 0.28157 0.12416 0.36407 0.0
N586 N 0.34803 0.1099 0.54829 0.0
N587 N 0.30325 0.1251 0.42843 0.0
H588 H 0.39242 0.32121 0.12974 0.0
H589 H 0.49485 0.40334 0.47779 0.0
H590 H 0.4439 0.27978 0.33897 0.0
H591 H 0.46017 0.44125 0.23641 0.0
H592 H 0.45366 0.36619 0.47263 0.0
H593 H 0.39298 0.3695 0.21483 0.0
C594 C 0.40277 0.32187 0.19509 0.0
C595 C 0.41997 0.29697 0.22444 0.0
C596 C 0.45455 0.38317 0.42202 0.0
C597 C 0.42068 0.35192 0.32161 0.0
C598 C 0.47816 0.40449 0.42483 0.0
C599 C 0.48199 0.42445 0.35465 0.0
C600 C 0.43513 0.38139 0.34768 0.0
C601 C 0.45916 0.42507 0.28907 0.0
C602 C 0.40308 0.34949 0.24367 0.0
C603 C 0.43147 0.29867 0.31148 0.0
N604 N 0.43717 0.40327 0.2858 0.0
N605 N 0.43261 0.32605 0.35573 0.0
H606 H 0.25297 0.48439 0.35073 0.0
H607 H 0.07831 0.46468 0.24752 0.0
H608 H 0.21629 0.41462 0.17328 0.0
H609 H 0.11964 0.53845 0.40181 0.0
H610 H 0.12661 0.4367 0.25425 0.0
H611 H 0.20277 0.49098 0.41649 0.0
C612 C 0.23468 0.46938 0.32835 0.0
C613 C 0.23832 0.44997 0.2537 0.0
C614 C 0.12474 0.45866 0.28854 0.0
C615 C 0.18068 0.45847 0.32531 0.0
C616 C 0.09743 0.47497 0.28301 0.0
C617 C 0.09503 0.50427 0.32262 0.0
C618 C 0.14972 0.47163 0.33453 0.0
C619 C 0.12025 0.51595 0.37036 0.0
C620 C 0.2058 0.47353 0.36496 0.0
C621 C 0.21396 0.43074 0.22864 0.0
N622 N 0.14654 0.49971 0.37429 0.0
N623 N 0.18573 0.43632 0.2619 0.0
H624 H 0.89127 0.82886 0.15757 0.0
H625 H 0.96173 0.85606 0.70108 0.0
H626 H 0.92633 0.76267 0.96552 0.0
H627 H 0.96102 0.91697 0.93133 0.0
H628 H 0.91742 0.82984 0.76007 0.0
H629 H 0.88479 0.86485 0.03866 0.0
C630 C 0.89692 0.82144 0.09064 0.0
C631 C 0.91188 0.79341 0.07362 0.0
C632 C 0.92624 0.84982 0.79559 0.0
C633 C 0.90319 0.83405 0.93718 0.0
C634 C 0.95183 0.86454 0.76263 0.0
C635 C 0.9665 0.8874 0.81429 0.0
C636 C 0.91569 0.85792 0.88082 0.0
C637 C 0.95141 0.89871 0.89042 0.0
C638 C 0.89266 0.84191 1.0225 0.0
C639 C 0.91615 0.78436 0.98424 0.0
N640 N 0.92736 0.88324 0.92281 0.0
N641 N 0.91268 0.80495 0.91983 0.0
H642 H 0.77335 0.92013 0.99878 0.0
H643 H 0.61688 0.9652 0.95229 0.0
H644 H 0.70431 0.88624 0.17407 0.0
H645 H 0.67843 0.96315 0.72976 0.0
H646 H 0.64146 0.9202 1.00756 0.0
H647 H 0.73781 0.91603 0.87813 0.0
C648 C 0.75109 0.91093 1.01279 0.0
C649 C 0.74128 0.9062 0.10005 0.0
C650 C 0.64915 0.9289 0.94514 0.0
C651 C 0.69955 0.9032 0.96007 0.0
C652 C 0.63492 0.95483 0.913 0.0
C653 C 0.64674 0.96925 0.8387 0.0
C654 C 0.67607 0.91812 0.90477 0.0
C655 C 0.66983 0.95402 0.79057 0.0
C656 C 0.73043 0.90876 0.94248 0.0
C657 C 0.71223 0.89304 0.1099 0.0
N658 N 0.68453 0.92994 0.82615 0.0
N659 N 0.69181 0.89349 0.0418 0.0
H660 H 0.58341 0.7595 0.02775 0.0
H661 H 0.5752 0.59077 0.10861 0.0
H662 H 0.63742 0.71502 0.22602 0.0
H663 H 0.53408 0.63437 0.88486 0.0
H664 H 0.613 0.63147 0.11894 0.0
H665 H 0.58345 0.71276 0.93846 0.0
C666 C 0.59646 0.74034 0.05129 0.0
C667 C 0.60884 0.74067 0.13737 0.0
C668 C 0.59627 0.63176 0.06586 0.0
C669 C 0.60751 0.68644 0.03689 0.0
C670 C 0.57447 0.60862 0.06055 0.0
C671 C 0.55056 0.60999 0.99861 0.0
C672 C 0.59386 0.65662 1.00961 0.0
C673 C 0.55162 0.63278 0.9353 0.0
C674 C 0.59617 0.71331 1.00022 0.0
C675 C 0.62602 0.71519 0.16223 0.0
N676 N 0.57236 0.65568 0.944 0.0
N677 N 0.62374 0.68861 0.11408 0.0
H678 H 0.77634 0.5886 1.00892 0.0
H679 H 0.93982 0.58457 0.14985 0.0
H680 H 0.81132 0.63066 0.25059 0.0
H681 H 0.90177 0.54832 0.90393 0.0
H682 H 0.8995 0.623 0.1546 0.0
H683 H 0.82412 0.59949 0.93676 0.0
C684 C 0.79357 0.60124 0.04631 0.0
C685 C 0.79065 0.60673 0.13791 0.0
C686 C 0.90055 0.6072 0.09813 0.0
C687 C 0.84618 0.61736 0.05691 0.0
C688 C 0.92337 0.58491 0.09607 0.0
C689 C 0.92308 0.56175 0.02966 0.0
C690 C 0.87716 0.60599 0.03401 0.0
C691 C 0.90252 0.56481 0.95861 0.0
C692 C 0.82119 0.60725 1.00498 0.0
C693 C 0.8135 0.62411 0.1812 0.0
N694 N 0.87991 0.58591 0.96398 0.0
N695 N 0.84097 0.62757 0.14158 0.0
H696 H 0.09652 0.2253 0.97946 0.0
H697 H 0.96712 0.10032 0.86193 0.0
H698 H 1.00642 0.22834 0.09169 0.0
H699 H 0.05657 0.09778 0.74515 0.0
H700 H 0.98024 0.14842 0.93961 0.0
H701 H 0.08134 0.18123 0.88552 0.0
C702 C 0.0732 0.21722 0.98252 0.0
C703 C 0.05261 0.23104 0.04297 0.0
C704 C 0.99713 0.13743 0.89734 0.0
C705 C 0.03519 0.17944 0.93669 0.0
C706 C 0.98968 0.10982 0.85302 0.0
C707 C 1.01105 0.09435 0.79882 0.0
C708 C 0.0262 0.15034 0.88698 0.0
C709 C 0.03967 0.10829 0.78836 0.0
C710 C 0.06464 0.19176 0.9294 0.0
C711 C 0.02291 0.21897 0.04513 0.0
N712 N 0.04643 0.13528 0.83231 0.0
N713 N 0.01523 0.19382 0.99363 0.0
H714 H 0.31041 0.10847 0.94734 0.0
H715 H 0.43094 0.97364 0.84854 0.0
H716 H 0.30232 0.01881 0.05383 0.0
H717 H 0.43755 0.06208 0.73342 0.0
H718 H 0.38262 0.98897 0.91739 0.0
H719 H 0.35455 0.09103 0.86059 0.0
C720 C 0.31748 0.08483 0.95081 0.0
C721 C 0.30234 0.06504 1.00775 0.0
C722 C 0.39455 1.00515 0.87736 0.0
C723 C 0.35378 0.04498 0.90961 0.0
C724 C 0.42227 0.99643 0.83818 0.0
C725 C 0.43887 0.01689 0.78721 0.0
C726 C 0.38281 0.03458 0.865 0.0
C727 C 0.42608 0.04588 0.77443 0.0
C728 C 0.34292 0.07496 0.90171 0.0
C729 C 0.31288 0.03477 1.01012 0.0
N730 N 0.39899 0.05391 0.81347 0.0
N731 N 0.33805 0.0258 0.96269 0.0
H732 H 0.52577 0.29571 1.02267 0.0
H733 H 0.46923 0.413 0.65904 0.0
H734 H 0.44121 0.28707 0.87765 0.0
H735 H 0.55546 0.42199 0.79611 0.0
H736 H 0.46215 0.36308 0.72403 0.0
H737 H 0.54104 0.33711 0.92569 0.0
C738 C 0.511 0.30163 0.96801 0.0
C739 C 0.48239 0.2875 0.95733 0.0
C740 C 0.48289 0.37566 0.73908 0.0
C741 C 0.49909 0.33581 0.84808 0.0
C742 C 0.48696 0.40424 0.70174 0.0
C743 C 0.51298 0.42187 0.72208 0.0
C744 C 0.50486 0.36442 0.79822 0.0
C745 C 0.53518 0.40919 0.7778 0.0
C746 C 0.51949 0.32563 0.91344 0.0
C747 C 0.46367 0.29695 0.88733 0.0
N748 N 0.53045 0.38149 0.81472 0.0
N749 N 0.47214 0.32061 0.83636 0.0
H750 H 0.25269 0.44387 0.90458 0.0
H751 H 0.1201 0.55737 0.7468 0.0
H752 H 0.24655 0.53692 1.00206 0.0
H753 H 0.11122 0.45955 0.74851 0.0
H754 H 0.17238 0.55269 0.80437 0.0
H755 H 0.20826 0.45236 0.80895 0.0
C756 C 0.24302 0.46661 0.90233 0.0
C757 C 0.25397 0.48987 0.96046 0.0
C758 C 0.15897 0.53224 0.79202 0.0
C759 C 0.20191 0.49951 0.85294 0.0
C760 C 0.12893 0.53486 0.75931 0.0
C761 C 0.1103 0.50886 0.74699 0.0
C762 C 0.17113 0.50331 0.80964 0.0
C763 C 0.12399 0.48032 0.76102 0.0
C764 C 0.21716 0.47126 0.84905 0.0
C765 C 0.23952 0.51855 0.95697 0.0
N766 N 0.1533 0.47832 0.79179 0.0
N767 N 0.21411 0.52246 0.9052 0.0
H768 H 0.93209 0.80977 0.40865 0.0
H769 H 0.06238 0.93455 0.5186 0.0
H770 H 0.02206 0.80567 0.2958 0.0
H771 H 0.97266 0.93915 0.63337 0.0
H772 H 0.04891 0.88596 0.44436 0.0
H773 H 0.94757 0.8543 0.50038 0.0
C774 C 0.95547 0.81767 0.40521 0.0
C775 C 0.97593 0.80342 0.34522 0.0
C776 C 0.03204 0.89751 0.48542 0.0
C777 C 0.99366 0.85559 0.44858 0.0
C778 C 0.03969 0.9254 0.52777 0.0
C779 C 0.01837 0.94156 0.58047 0.0
C780 C 1.00281 0.88502 0.49622 0.0
C781 C 0.98955 0.92808 0.5913 0.0
C782 C 0.96418 0.84342 0.45693 0.0
C783 C 1.00568 0.81533 0.3422 0.0
N784 N 0.98259 0.90079 0.54926 0.0
N785 N 0.01351 0.84076 0.39226 0.0
H786 H 0.73082 0.01878 0.32718 0.0
H787 H 0.59118 0.97364 0.64466 0.0
H788 H 0.71803 0.92862 0.4266 0.0
H789 H 0.60129 0.06206 0.53146 0.0
H790 H 0.63972 0.95768 0.57576 0.0
H791 H 0.68658 0.03654 0.41445 0.0
C792 C 0.71928 1.00292 0.36923 0.0
C793 C 0.72836 0.97217 0.36966 0.0
C794 C 0.63131 0.98058 0.56577 0.0
C795 C 0.67697 0.99212 0.46832 0.0
C796 C 0.60344 0.98957 0.60455 0.0
C797 C 0.59164 0.01893 0.59156 0.0
C798 C 0.64781 1.00121 0.51441 0.0
C799 C 0.60919 0.03901 0.54178 0.0
C800 C 0.69371 0.01295 0.41826 0.0
C801 C 0.71193 0.95254 0.42423 0.0
N802 N 0.63611 0.02977 0.5047 0.0
N803 N 0.68707 0.96271 0.47049 0.0
H804 H 0.5062 0.74038 0.35024 0.0
H805 H 0.56688 0.61753 0.69231 0.0
H806 H 0.5924 0.74692 0.48761 0.0
H807 H 0.4789 0.61092 0.56399 0.0
H808 H 0.57338 0.66837 0.6327 0.0
H809 H 0.49206 0.69755 0.44339 0.0
C810 C 0.52158 0.73368 0.40264 0.0
C811 C 0.55031 0.74767 0.41219 0.0
C812 C 0.55241 0.65608 0.61838 0.0
C813 C 0.53489 0.6977 0.51676 0.0
C814 C 0.54869 0.62694 0.65254 0.0
C815 C 0.52234 0.6097 0.63297 0.0
C816 C 0.52972 0.66831 0.56334 0.0
C817 C 0.4995 0.62332 0.58142 0.0
C818 C 0.51374 0.70887 0.45493 0.0
C819 C 0.56983 0.7372 0.47903 0.0
N820 N 0.50387 0.65156 0.54757 0.0
N821 N 0.56196 0.71275 0.52772 0.0
H822 H 0.7989 0.49491 0.29673 0.0
H823 H 0.90953 0.55788 0.68239 0.0
H824 H 0.77669 0.57119 0.47063 0.0
H825 H 0.92358 0.46998 0.55332 0.0
H826 H 0.85968 0.5614 0.60932 0.0
H827 H 0.84207 0.48252 0.39452 0.0
C828 C 0.80217 0.50815 0.35778 0.0
C829 C 0.7835 0.53367 0.3765 0.0
C830 C 0.87343 0.54114 0.59739 0.0
C831 C 0.83416 0.52071 0.48662 0.0
C832 C 0.90206 0.53918 0.63901 0.0
C833 C 0.92102 0.51366 0.6239 0.0
C834 C 0.86346 0.5176 0.53867 0.0
C835 C 0.90978 0.49004 0.56742 0.0
C836 C 0.82722 0.50143 0.41289 0.0
C837 C 0.78989 0.55086 0.45464 0.0
N838 N 0.88202 0.49274 0.52612 0.0
N839 N 0.81477 0.5444 0.50566 0.0
loop_
_geom_bond_atom_site_label_1
_geom_bond_atom_site_label_2
_geom_bond_distance
_geom_bond_site_symmetry_2
_ccdc_geom_bond_type
H0 C3 0.931 . S
H1 C6 0.928 . S
H2 C8 0.930 . S
C3 H0 0.931 . S
C3 C4 1.413 . S
C3 C5 1.360 . S
C4 C3 1.413 . S
C4 C8 1.429 . S
C5 C3 1.360 . S
C5 C6 1.372 . S
C6 H1 0.928 . S
C6 C5 1.372 . S
C6 C7 1.404 . S
C7 C6 1.404 . S
C7 C8 1.391 . S
C8 H2 0.930 . S
C8 C4 1.429 . S
C8 C7 1.391 . S
H9 C12 0.931 . S
H10 C15 0.928 . S
H11 C17 0.930 . S
C12 H9 0.931 . S
C12 C13 1.413 . S
C12 C14 1.360 . S
C13 C12 1.413 . S
C13 C17 1.429 . S
C14 C12 1.360 . S
C14 C15 1.372 . S
C15 H10 0.928 . S
C15 C14 1.372 . S
C15 C16 1.404 . S
C16 C15 1.404 . S
C16 C17 1.391 . S
C17 H11 0.930 . S
C17 C13 1.429 . S
C17 C16 1.391 . S
H18 C21 0.931 . S
H19 C24 0.928 . S
H20 C26 0.930 . S
C21 H18 0.931 . S
C21 C22 1.413 . S
C21 C23 1.360 . S
C22 C21 1.413 . S
C22 C26 1.429 . S
C23 C21 1.360 . S
C23 C24 1.372 . S
C24 H19 0.928 . S
C24 C23 1.372 . S
C24 C25 1.404 . S
C25 C24 1.404 . S
C25 C26 1.391 . S
C26 H20 0.930 . S
C26 C22 1.429 . S
C26 C25 1.391 . S
H27 C30 0.931 . S
H28 C33 0.928 . S
H29 C35 0.930 . S
C30 H27 0.931 . S
C30 C31 1.413 . S
C30 C32 1.360 . S
C31 C30 1.413 . S
C31 C35 1.429 . S
C32 C30 1.360 . S
C32 C33 1.372 . S
C33 H28 0.928 . S
C33 C32 1.372 . S
C33 C34 1.404 . S
C34 C33 1.404 . S
C34 C35 1.391 . S
C35 H29 0.930 . S
C35 C31 1.429 . S
C35 C34 1.391 . S
H36 C39 0.931 1_556 S
H37 C42 0.928 . S
H38 C44 0.930 . S
C39 H36 0.931 1_554 S
C39 C40 1.413 1_554 S
C39 C41 1.360 . S
C40 C39 1.413 1_556 S
C40 C44 1.429 . S
C41 C39 1.360 . S
C41 C42 1.372 . S
C42 H37 0.928 . S
C42 C41 1.372 . S
C42 C43 1.404 . S
C43 C42 1.404 . S
C43 C44 1.391 1_554 S
C44 H38 0.930 . S
C44 C40 1.429 . S
C44 C43 1.391 1_556 S
H45 C48 0.931 1_556 S
H46 C51 0.928 . S
H47 C53 0.930 . S
C48 H45 0.931 1_554 S
C48 C49 1.413 1_554 S
C48 C50 1.360 . S
C49 C48 1.413 1_556 S
C49 C53 1.429 . S
C50 C48 1.360 . S
C50 C51 1.372 . S
C51 H46 0.928 . S
C51 C50 1.372 . S
C51 C52 1.404 . S
C52 C51 1.404 . S
C52 C53 1.391 1_554 S
C53 H47 0.930 . S
C53 C49 1.429 . S
C53 C52 1.391 1_556 S
H54 C57 0.928 1_556 S
H55 C60 0.928 . S
H56 C62 0.930 . S
C57 H54 0.928 1_554 S
C57 C58 1.403 1_554 S
C57 C59 1.373 . S
C58 C57 1.403 1_556 S
C58 C62 1.429 . S
C59 C57 1.373 . S
C59 C60 1.372 . S
C60 H55 0.928 . S
C60 C59 1.372 . S
C60 C61 1.404 . S
C61 C60 1.404 . S
C61 C62 1.391 1_554 S
C62 H56 0.930 . S
C62 C58 1.429 . S
C62 C61 1.391 1_556 S
H63 C66 0.931 1_556 S
H64 C69 0.928 . S
H65 C71 0.930 . S
C66 H63 0.931 1_554 S
C66 C67 1.413 . S
C66 C68 1.360 1_554 S
C67 C66 1.413 . S
C67 C71 1.429 . S
C68 C66 1.360 1_556 S
C68 C69 1.372 . S
C69 H64 0.928 . S
C69 C68 1.372 . S
C69 C70 1.404 1_556 S
C70 C69 1.404 1_554 S
C70 C71 1.391 . S
C71 H65 0.930 . S
C71 C67 1.429 . S
C71 C70 1.391 . S
Gd72 N103 2.661 1_545 S
Gd72 N109 2.601 . S
Gd72 O116 2.545 . S
Gd72 O117 2.606 1_655 S
Gd72 O119 2.429 . S
Gd72 O120 2.539 1_655 S
Gd72 O121 2.412 . S
Gd72 O123 2.362 1_545 S
Gd72 O124 2.324 1_655 S
Gd72 C131 2.828 . S
Gd73 N82 2.661 1_565 S
Gd73 N86 2.601 . S
Gd73 O117 2.362 1_565 S
Gd73 O118 2.324 1_455 S
Gd73 O122 2.545 . S
Gd73 O123 2.606 1_455 S
Gd73 O125 2.429 . S
Gd73 O126 2.545 . S
Gd73 O127 2.412 . S
Gd73 C140 2.828 . S
C74 C77 1.417 . S
C74 C79 1.431 1_556 S
C74 C80 1.412 1_556 S
C75 C78 1.437 . S
C75 C79 1.317 1_556 S
C75 H94 0.929 . S
C76 C77 1.426 . S
C76 C78 1.413 . S
C76 N86 1.359 1_545 S
C77 C74 1.417 . S
C77 C76 1.426 . S
C77 N82 1.350 . S
C78 C75 1.437 . S
C78 C76 1.413 . S
C78 C88 1.391 . S
C79 C74 1.431 1_554 S
C79 C75 1.317 1_554 S
C79 H90 0.930 . S
C80 C74 1.412 1_554 S
C80 C81 1.355 1_554 S
C80 H92 0.930 . S
C81 C80 1.355 1_556 S
C81 C83 1.402 . S
C81 H93 0.930 1_456 S
N82 Gd73 2.661 1_545 S
N82 C77 1.350 . S
N82 C83 1.307 . S
C83 C81 1.402 . S
C83 N82 1.307 . S
C83 H84 0.930 1_455 S
H84 C83 0.930 1_655 S
C85 N86 1.334 . S
C85 C87 1.394 . S
C85 H89 0.930 . S
N86 Gd73 2.601 . S
N86 C76 1.359 1_565 S
N86 C85 1.334 . S
C87 C85 1.394 . S
C87 C88 1.359 1_565 S
C87 H99 0.930 . S
C88 C78 1.391 . S
C88 C87 1.359 1_545 S
C88 H100 0.929 . S
H89 C85 0.930 . S
H90 C79 0.930 . S
H91 C108 0.930 1_455 S
H92 C80 0.930 . S
H93 C81 0.930 1_654 S
H94 C75 0.929 . S
H95 C113 0.930 . S
H96 C104 0.930 . S
H97 C105 0.930 1_455 S
H98 C129 0.929 . S
H99 C87 0.930 . S
H100 C88 0.929 . S
H101 C130 0.930 . S
H102 C111 0.930 . S
N103 Gd72 2.661 1_565 S
N103 C107 1.350 . S
N103 C108 1.307 . S
C104 H96 0.930 . S
C104 C105 1.355 . S
C104 C106 1.412 . S
C105 H97 0.930 1_655 S
C105 C104 1.355 . S
C105 C108 1.402 . S
C106 C104 1.412 . S
C106 C107 1.417 . S
C106 C130 1.431 . S
C107 N103 1.350 . S
C107 C106 1.417 . S
C107 C110 1.413 1_565 S
C108 H91 0.930 1_655 S
C108 N103 1.307 . S
C108 C105 1.402 . S
N109 Gd72 2.601 . S
N109 C110 1.378 . S
N109 C113 1.334 . S
C110 C107 1.413 1_545 S
C110 N109 1.378 . S
C110 C114 1.408 1_545 S
C111 H102 0.930 . S
C111 C112 1.359 . S
C111 C113 1.394 . S
C112 C111 1.359 . S
C112 C114 1.391 1_545 S
C112 H115 0.929 . S
C113 H95 0.930 . S
C113 N109 1.334 . S
C113 C111 1.394 . S
C114 C110 1.408 1_565 S
C114 C112 1.391 1_565 S
C114 C129 1.437 . S
H115 C112 0.929 . S
O116 Gd72 2.545 . S
O116 C131 1.258 . S
O117 Gd72 2.606 1_455 S
O117 Gd73 2.362 1_545 S
O117 C128 1.284 . S
O118 Gd73 2.324 1_655 S
O118 C138 1.243 1_565 S
O119 Gd72 2.429 . S
O119 C138 1.296 . S
O120 Gd72 2.539 1_455 S
O120 C128 1.259 . S
O121 Gd72 2.412 . S
O121 C131 1.252 . S
O122 Gd73 2.545 . S
O122 C140 1.258 . S
O123 Gd72 2.362 1_565 S
O123 Gd73 2.606 1_655 S
O123 C139 1.284 . S
O124 Gd72 2.324 1_455 S
O124 C147 1.254 . S
O125 Gd73 2.429 . S
O125 C147 1.268 1_565 S
O126 Gd73 2.545 . S
O126 C139 1.250 1_455 S
O127 Gd73 2.412 . S
O127 C140 1.252 . S
C128 O117 1.284 . S
C128 O120 1.259 . S
C129 H98 0.929 . S
C129 C114 1.437 . S
C129 C130 1.317 . S
C130 H101 0.930 . S
C130 C106 1.431 . S
C130 C129 1.317 . S
C131 Gd72 2.828 . S
C131 O116 1.258 . S
C131 O121 1.252 . S
C131 C132 1.497 . S
C132 C131 1.497 . S
C132 C133 1.395 . S
C132 C134 1.380 . S
C133 C132 1.395 . S
C133 C136 1.398 . S
C133 H148 0.930 . S
C134 C132 1.380 . S
C134 C135 1.391 . S
C134 H149 0.930 1_655 S
C135 C134 1.391 . S
C135 C137 1.387 . S
C136 C133 1.398 . S
C136 C137 1.380 . S
C136 H150 0.930 . S
C137 C135 1.387 . S
C137 C136 1.380 . S
C137 H151 0.930 . S
C138 O118 1.243 1_545 S
C138 O119 1.296 . S
C139 O123 1.284 . S
C139 O126 1.250 1_655 S
C140 Gd73 2.828 . S
C140 O122 1.258 . S
C140 O127 1.252 . S
C140 C141 1.497 . S
C141 C140 1.497 . S
C141 C142 1.395 . S
C141 C143 1.380 . S
C142 C141 1.395 . S
C142 C145 1.398 . S
C142 H152 0.930 . S
C143 C141 1.380 . S
C143 C144 1.391 . S
C143 H153 0.930 . S
C144 C143 1.391 . S
C144 C146 1.387 . S
C145 C142 1.398 . S
C145 C146 1.380 . S
C145 H154 0.930 . S
C146 C144 1.387 . S
C146 C145 1.380 . S
C146 H155 0.930 1_556 S
C147 O124 1.254 . S
C147 O125 1.268 1_545 S
H148 C133 0.930 . S
H149 C134 0.930 1_455 S
H150 C136 0.930 . S
H151 C137 0.930 . S
H152 C142 0.930 . S
H153 C143 0.930 . S
H154 C145 0.930 . S
H155 C146 0.930 1_554 S
Gd156 N187 2.661 . S
Gd156 N193 2.601 . S
Gd156 O200 2.545 . S
Gd156 O201 2.606 1_565 S
Gd156 O203 2.429 . S
Gd156 O204 2.545 1_565 S
Gd156 O205 2.412 . S
Gd156 O207 2.362 . S
Gd156 O208 2.324 1_565 S
Gd156 C215 2.828 . S
Gd157 N166 2.661 . S
Gd157 N170 2.601 . S
Gd157 O201 2.362 . S
Gd157 O202 2.324 1_545 S
Gd157 O206 2.545 . S
Gd157 O207 2.606 1_545 S
Gd157 O209 2.429 . S
Gd157 O210 2.545 . S
Gd157 O211 2.412 . S
Gd157 C224 2.828 . S
C158 C161 1.417 . S
C158 C163 1.431 1_556 S
C158 C164 1.412 1_556 S
C159 C162 1.437 . S
C159 C163 1.317 1_556 S
C159 H178 0.929 1_556 S
C160 C161 1.426 . S
C160 C162 1.413 . S
C160 N170 1.359 . S
C161 C158 1.417 . S
C161 C160 1.426 . S
C161 N166 1.350 . S
C162 C159 1.437 . S
C162 C160 1.413 . S
C162 C172 1.391 . S
C163 C158 1.431 1_554 S
C163 C159 1.317 1_554 S
C163 H174 0.930 . S
C164 C158 1.412 1_554 S
C164 C165 1.355 1_554 S
C164 H176 0.930 . S
C165 C164 1.355 1_556 S
C165 C167 1.402 . S
C165 H177 0.930 1_546 S
N166 Gd157 2.661 . S
N166 C161 1.350 . S
N166 C167 1.307 . S
C167 C165 1.402 . S
C167 N166 1.307 . S
C167 H168 0.930 1_545 S
H168 C167 0.930 1_565 S
C169 N170 1.334 . S
C169 C171 1.394 . S
C169 H173 0.930 . S
N170 Gd157 2.601 . S
N170 C160 1.359 . S
N170 C169 1.334 . S
C171 C169 1.394 . S
C171 C172 1.359 . S
C171 H183 0.930 . S
C172 C162 1.391 . S
C172 C171 1.359 . S
C172 H184 0.929 . S
H173 C169 0.930 . S
H174 C163 0.930 . S
H175 C192 0.962 . S
H176 C164 0.930 . S
H177 C165 0.930 1_564 S
H178 C159 0.929 1_554 S
H179 C197 0.930 . S
H180 C188 0.930 . S
H181 C189 0.918 1_545 S
H182 C213 0.929 . S
H183 C171 0.930 . S
H184 C172 0.929 . S
H185 C214 0.930 . S
H186 C195 0.930 . S
N187 Gd156 2.661 . S
N187 C191 1.350 . S
N187 C192 1.279 1_565 S
C188 H180 0.930 . S
C188 C189 1.367 . S
C188 C190 1.412 . S
C189 H181 0.918 1_565 S
C189 C188 1.367 . S
C189 C192 1.401 1_565 S
C190 C188 1.412 . S
C190 C191 1.417 . S
C190 C214 1.431 . S
C191 N187 1.350 . S
C191 C190 1.417 . S
C191 C194 1.426 . S
C192 H175 0.962 . S
C192 N187 1.279 1_545 S
C192 C189 1.401 1_545 S
N193 Gd156 2.601 . S
N193 C194 1.359 . S
N193 C197 1.334 . S
C194 C191 1.426 . S
C194 N193 1.359 . S
C194 C198 1.413 . S
C195 H186 0.930 . S
C195 C196 1.359 . S
C195 C197 1.394 . S
C196 C195 1.359 . S
C196 C198 1.391 . S
C196 H199 0.929 . S
C197 H179 0.930 . S
C197 N193 1.334 . S
C197 C195 1.394 . S
C198 C194 1.413 . S
C198 C196 1.391 . S
C198 C213 1.437 . S
H199 C196 0.929 . S
O200 Gd156 2.545 . S
O200 C215 1.258 . S
O201 Gd156 2.606 1_545 S
O201 Gd157 2.362 . S
O201 C212 1.284 . S
O202 Gd157 2.324 1_565 S
O202 C222 1.254 . S
O203 Gd156 2.429 . S
O203 C222 1.268 . S
O204 Gd156 2.545 1_545 S
O204 C212 1.250 . S
O205 Gd156 2.412 . S
O205 C215 1.252 . S
O206 Gd157 2.545 . S
O206 C224 1.258 . S
O207 Gd156 2.362 . S
O207 Gd157 2.606 1_565 S
O207 C223 1.284 . S
O208 Gd156 2.324 1_545 S
O208 C231 1.254 . S
O209 Gd157 2.429 . S
O209 C231 1.268 . S
O210 Gd157 2.545 . S
O210 C223 1.250 1_545 S
O211 Gd157 2.412 . S
O211 C224 1.252 . S
C212 O201 1.284 . S
C212 O204 1.250 . S
C213 H182 0.929 . S
C213 C198 1.437 . S
C213 C214 1.317 . S
C214 H185 0.930 . S
C214 C190 1.431 . S
C214 C213 1.317 . S
C215 Gd156 2.828 . S
C215 O200 1.258 . S
C215 O205 1.252 . S
C215 C216 1.497 . S
C216 C215 1.497 . S
C216 C217 1.395 . S
C216 C218 1.380 . S
C217 C216 1.395 . S
C217 C220 1.398 . S
C217 H232 0.930 . S
C218 C216 1.380 . S
C218 C219 1.391 . S
C218 H233 0.930 1_565 S
C219 C218 1.391 . S
C219 C221 1.387 . S
C220 C217 1.398 . S
C220 C221 1.380 . S
C220 H234 0.930 . S
C221 C219 1.387 . S
C221 C220 1.380 . S
C221 H235 0.930 . S
C222 O202 1.254 . S
C222 O203 1.268 . S
C223 O207 1.284 . S
C223 O210 1.250 1_565 S
C224 Gd157 2.828 . S
C224 O206 1.258 . S
C224 O211 1.252 . S
C224 C225 1.497 . S
C225 C224 1.497 . S
C225 C226 1.395 . S
C225 C227 1.380 . S
C226 C225 1.395 . S
C226 C229 1.398 . S
C226 H236 0.930 . S
C227 C225 1.380 . S
C227 C228 1.391 . S
C227 H237 0.930 . S
C228 C227 1.391 . S
C228 C230 1.387 . S
C229 C226 1.398 . S
C229 C230 1.380 . S
C229 H238 0.930 . S
C230 C228 1.387 . S
C230 C229 1.380 . S
C230 H239 0.930 1_556 S
C231 O208 1.254 . S
C231 O209 1.268 . S
H232 C217 0.930 . S
H233 C218 0.930 1_545 S
H234 C220 0.930 . S
H235 C221 0.930 . S
H236 C226 0.930 . S
H237 C227 0.930 . S
H238 C229 0.930 . S
H239 C230 0.930 1_554 S
Gd240 N271 2.661 . S
Gd240 N277 2.601 . S
Gd240 O284 2.545 . S
Gd240 O285 2.606 . S
Gd240 O287 2.429 . S
Gd240 O288 2.545 . S
Gd240 O289 2.412 . S
Gd240 O291 2.362 . S
Gd240 O292 2.324 . S
Gd240 C299 2.828 . S
Gd241 N250 2.661 . S
Gd241 N254 2.601 . S
Gd241 O285 2.362 . S
Gd241 O286 2.324 . S
Gd241 O290 2.545 . S
Gd241 O291 2.606 . S
Gd241 O293 2.429 . S
Gd241 O294 2.545 . S
Gd241 O295 2.412 . S
Gd241 C308 2.828 . S
C242 C245 1.417 . S
C242 C247 1.431 . S
C242 C248 1.412 . S
C243 C246 1.437 . S
C243 C247 1.317 . S
C243 H262 0.929 . S
C244 C245 1.426 . S
C244 C246 1.413 . S
C244 N254 1.359 . S
C245 C242 1.417 . S
C245 C244 1.426 . S
C245 N250 1.350 . S
C246 C243 1.437 . S
C246 C244 1.413 . S
C246 C256 1.391 . S
C247 C242 1.431 . S
C247 C243 1.317 . S
C247 H258 0.930 . S
C248 C242 1.412 . S
C248 C249 1.355 . S
C248 H260 0.930 . S
C249 C248 1.355 . S
C249 C251 1.402 . S
C249 H261 0.930 . S
N250 Gd241 2.661 . S
N250 C245 1.350 . S
N250 C251 1.307 . S
C251 C249 1.402 . S
C251 N250 1.307 . S
C251 H252 0.930 . S
H252 C251 0.930 . S
C253 N254 1.334 . S
C253 C255 1.394 . S
C253 H257 0.930 . S
N254 Gd241 2.601 . S
N254 C244 1.359 . S
N254 C253 1.334 . S
C255 C253 1.394 . S
C255 C256 1.359 . S
C255 H267 0.930 . S
C256 C246 1.391 . S
C256 C255 1.359 . S
C256 H268 0.929 . S
H257 C253 0.930 . S
H258 C247 0.930 . S
H259 C276 0.930 . S
H260 C248 0.930 . S
H261 C249 0.930 . S
H262 C243 0.929 . S
H263 C281 0.930 . S
H264 C272 0.930 . S
H265 C273 0.930 . S
H266 C297 0.929 . S
H267 C255 0.930 . S
H268 C256 0.929 . S
H269 C298 0.930 . S
H270 C279 0.930 . S
N271 Gd240 2.661 . S
N271 C275 1.350 . S
N271 C276 1.307 . S
C272 H264 0.930 . S
C272 C273 1.355 . S
C272 C274 1.412 . S
C273 H265 0.930 . S
C273 C272 1.355 . S
C273 C276 1.402 . S
C274 C272 1.412 . S
C274 C275 1.417 . S
C274 C298 1.431 . S
C275 N271 1.350 . S
C275 C274 1.417 . S
C275 C278 1.426 . S
C276 H259 0.930 . S
C276 N271 1.307 . S
C276 C273 1.402 . S
N277 Gd240 2.601 . S
N277 C278 1.359 . S
N277 C281 1.334 . S
C278 C275 1.426 . S
C278 N277 1.359 . S
C278 C282 1.413 . S
C279 H270 0.930 . S
C279 C280 1.359 . S
C279 C281 1.394 . S
C280 C279 1.359 . S
C280 C282 1.391 . S
C280 H283 0.929 . S
C281 H263 0.930 . S
C281 N277 1.334 . S
C281 C279 1.394 . S
C282 C278 1.413 . S
C282 C280 1.391 . S
C282 C297 1.437 . S
H283 C280 0.929 . S
O284 Gd240 2.545 . S
O284 C299 1.258 . S
O285 Gd240 2.606 . S
O285 Gd241 2.362 . S
O285 C296 1.284 . S
O286 Gd241 2.324 . S
O286 C306 1.254 . S
O287 Gd240 2.429 . S
O287 C306 1.268 . S
O288 Gd240 2.545 . S
O288 C296 1.250 . S
O289 Gd240 2.412 . S
O289 C299 1.252 . S
O290 Gd241 2.545 . S
O290 C308 1.258 . S
O291 Gd240 2.362 . S
O291 Gd241 2.606 . S
O291 C307 1.284 . S
O292 Gd240 2.324 . S
O292 C315 1.254 . S
O293 Gd241 2.429 . S
O293 C315 1.268 . S
O294 Gd241 2.545 . S
O294 C307 1.250 . S
O295 Gd241 2.412 . S
O295 C308 1.252 . S
C296 O285 1.284 . S
C296 O288 1.250 . S
C297 H266 0.929 . S
C297 C282 1.437 . S
C297 C298 1.317 . S
C298 H269 0.930 . S
C298 C274 1.431 . S
C298 C297 1.317 . S
C299 Gd240 2.828 . S
C299 O284 1.258 . S
C299 O289 1.252 . S
C299 C300 1.497 . S
C300 C299 1.497 . S
C300 C301 1.395 1_556 S
C300 C302 1.380 . S
C301 C300 1.395 1_554 S
C301 C304 1.398 . S
C301 H316 0.930 . S
C302 C300 1.380 . S
C302 C303 1.391 1_556 S
C302 H317 0.930 . S
C303 C302 1.391 1_554 S
C303 C305 1.387 . S
C304 C301 1.398 . S
C304 C305 1.380 . S
C304 H318 0.930 . S
C305 C303 1.387 . S
C305 C304 1.380 . S
C305 H319 0.930 . S
C306 O286 1.254 . S
C306 O287 1.268 . S
C307 O291 1.284 . S
C307 O294 1.250 . S
C308 Gd241 2.828 . S
C308 O290 1.258 . S
C308 O295 1.252 . S
C308 C309 1.497 . S
C309 C308 1.497 . S
C309 C310 1.395 . S
C309 C311 1.380 . S
C310 C309 1.395 . S
C310 C313 1.398 . S
C310 H320 0.930 . S
C311 C309 1.380 . S
C311 C312 1.391 . S
C311 H321 0.930 . S
C312 C311 1.391 . S
C312 C314 1.387 . S
C313 C310 1.398 . S
C313 C314 1.380 . S
C313 H322 0.930 . S
C314 C312 1.387 . S
C314 C313 1.380 . S
C314 H323 0.930 . S
C315 O292 1.254 . S
C315 O293 1.268 . S
H316 C301 0.930 . S
H317 C302 0.930 . S
H318 C304 0.930 . S
H319 C305 0.930 . S
H320 C310 0.930 . S
H321 C311 0.930 . S
H322 C313 0.930 . S
H323 C314 0.930 . S
Gd324 N355 2.661 . S
Gd324 N361 2.601 . S
Gd324 O368 2.545 . S
Gd324 O369 2.615 . S
Gd324 O371 2.429 1_655 S
Gd324 O372 2.545 . S
Gd324 O373 2.412 . S
Gd324 O375 2.362 1_655 S
Gd324 O376 2.324 . S
Gd324 C383 2.828 . S
Gd325 N334 2.661 . S
Gd325 N338 2.601 . S
Gd325 O369 2.347 1_455 S
Gd325 O370 2.324 . S
Gd325 O374 2.545 . S
Gd325 O375 2.606 . S
Gd325 O377 2.429 1_455 S
Gd325 O378 2.545 . S
Gd325 O379 2.412 . S
Gd325 C392 2.828 . S
C326 C329 1.417 . S
C326 C331 1.431 . S
C326 C332 1.412 . S
C327 C330 1.437 . S
C327 C331 1.317 . S
C327 H346 0.929 . S
C328 C329 1.426 . S
C328 C330 1.413 . S
C328 N338 1.359 . S
C329 C326 1.417 . S
C329 C328 1.426 . S
C329 N334 1.350 . S
C330 C327 1.437 . S
C330 C328 1.413 . S
C330 C340 1.391 . S
C331 C326 1.431 . S
C331 C327 1.317 . S
C331 H342 0.930 . S
C332 C326 1.412 . S
C332 C333 1.355 . S
C332 H344 0.930 . S
C333 C332 1.355 . S
C333 C335 1.402 . S
C333 H345 0.930 . S
N334 Gd325 2.661 . S
N334 C329 1.350 . S
N334 C335 1.307 . S
C335 C333 1.402 . S
C335 N334 1.307 . S
C335 H336 0.930 . S
H336 C335 0.930 . S
C337 N338 1.334 1_655 S
C337 C339 1.394 . S
C337 H341 0.930 . S
N338 Gd325 2.601 . S
N338 C328 1.359 . S
N338 C337 1.334 1_455 S
C339 C337 1.394 . S
C339 C340 1.359 1_655 S
C339 H351 0.930 . S
C340 C330 1.391 . S
C340 C339 1.359 1_455 S
C340 H352 0.929 . S
H341 C337 0.930 . S
H342 C331 0.930 . S
H343 C360 0.930 . S
H344 C332 0.930 . S
H345 C333 0.930 . S
H346 C327 0.929 . S
H347 C365 0.930 . S
H348 C356 0.930 . S
H349 C357 0.930 . S
H350 C381 0.929 . S
H351 C339 0.930 . S
H352 C340 0.929 . S
H353 C382 0.930 . S
H354 C363 0.930 . S
N355 Gd324 2.661 . S
N355 C359 1.350 . S
N355 C360 1.307 . S
C356 H348 0.930 . S
C356 C357 1.355 . S
C356 C358 1.412 . S
C357 H349 0.930 . S
C357 C356 1.355 . S
C357 C360 1.402 . S
C358 C356 1.412 . S
C358 C359 1.417 . S
C358 C382 1.431 . S
C359 N355 1.350 . S
C359 C358 1.417 . S
C359 C362 1.426 . S
C360 H343 0.930 . S
C360 N355 1.307 . S
C360 C357 1.402 . S
N361 Gd324 2.601 . S
N361 C362 1.359 . S
N361 C365 1.334 1_655 S
C362 C359 1.426 . S
C362 N361 1.359 . S
C362 C366 1.413 . S
C363 H354 0.930 . S
C363 C364 1.359 . S
C363 C365 1.394 . S
C364 C363 1.359 . S
C364 C366 1.391 1_455 S
C364 H367 0.929 . S
C365 H347 0.930 . S
C365 N361 1.334 1_455 S
C365 C363 1.394 . S
C366 C362 1.413 . S
C366 C364 1.391 1_655 S
C366 C381 1.437 . S
H367 C364 0.929 . S
O368 Gd324 2.545 . S
O368 C383 1.258 . S
O369 Gd324 2.615 . S
O369 Gd325 2.347 1_655 S
O369 C380 1.296 . S
O370 Gd325 2.324 . S
O370 C390 1.254 . S
O371 Gd324 2.429 1_455 S
O371 C390 1.268 . S
O372 Gd324 2.545 . S
O372 C380 1.250 . S
O373 Gd324 2.412 . S
O373 C383 1.252 . S
O374 Gd325 2.545 . S
O374 C392 1.258 . S
O375 Gd324 2.362 1_455 S
O375 Gd325 2.606 . S
O375 C391 1.284 . S
O376 Gd324 2.324 . S
O376 C399 1.254 . S
O377 Gd325 2.429 1_655 S
O377 C399 1.268 . S
O378 Gd325 2.545 . S
O378 C391 1.250 . S
O379 Gd325 2.412 . S
O379 C392 1.252 . S
C380 O369 1.296 . S
C380 O372 1.250 . S
C381 H350 0.929 . S
C381 C366 1.437 . S
C381 C382 1.317 . S
C382 H353 0.930 . S
C382 C358 1.431 . S
C382 C381 1.317 . S
C383 Gd324 2.828 . S
C383 O368 1.258 . S
C383 O373 1.252 . S
C383 C384 1.497 . S
C384 C383 1.497 . S
C384 C385 1.395 1_556 S
C384 C386 1.380 . S
C385 C384 1.395 1_554 S
C385 C388 1.398 . S
C385 H400 0.930 . S
C386 C384 1.380 . S
C386 C387 1.391 1_556 S
C386 H401 0.930 . S
C387 C386 1.391 1_554 S
C387 C389 1.387 . S
C388 C385 1.398 . S
C388 C389 1.380 . S
C388 H402 0.930 . S
C389 C387 1.387 . S
C389 C388 1.380 . S
C389 H403 0.930 . S
C390 O370 1.254 . S
C390 O371 1.268 . S
C391 O375 1.284 . S
C391 O378 1.250 . S
C392 Gd325 2.828 . S
C392 O374 1.258 . S
C392 O379 1.252 . S
C392 C393 1.497 . S
C393 C392 1.497 . S
C393 C394 1.395 . S
C393 C395 1.380 . S
C394 C393 1.395 . S
C394 C397 1.398 . S
C394 H404 0.930 . S
C395 C393 1.380 . S
C395 C396 1.391 . S
C395 H405 0.930 . S
C396 C395 1.391 . S
C396 C398 1.387 . S
C397 C394 1.398 . S
C397 C398 1.380 . S
C397 H406 0.930 . S
C398 C396 1.387 . S
C398 C397 1.380 . S
C398 H407 0.930 . S
C399 O376 1.254 . S
C399 O377 1.268 . S
H400 C385 0.930 . S
H401 C386 0.930 . S
H402 C388 0.930 . S
H403 C389 0.930 . S
H404 C394 0.930 . S
H405 C395 0.930 . S
H406 C397 0.930 . S
H407 C398 0.930 . S
H408 C414 0.930 . S
H409 C418 0.930 . S
H410 C423 0.929 . S
H411 C421 0.929 . S
H412 C416 0.929 . S
H413 C422 0.929 . S
C414 H408 0.930 . S
C414 C415 1.367 . S
C414 C422 1.378 . S
C415 C414 1.367 . S
C415 C423 1.433 . S
C416 H412 0.929 . S
C416 C418 1.378 . S
C416 C420 1.350 . S
C417 C420 1.463 . S
C417 C422 1.350 . S
C417 N425 1.427 . S
C418 H409 0.930 . S
C418 C416 1.378 . S
C418 C419 1.367 . S
C419 C418 1.367 . S
C419 C421 1.433 . S
C420 C416 1.350 . S
C420 C417 1.463 . S
C420 N424 1.427 . S
C421 H411 0.929 . S
C421 C419 1.433 . S
C421 N424 1.384 . S
C422 H413 0.929 . S
C422 C414 1.378 . S
C422 C417 1.350 . S
C423 H410 0.929 . S
C423 C415 1.433 . S
C423 N425 1.384 . S
N424 C420 1.427 . S
N424 C421 1.384 . S
N425 C417 1.427 . S
N425 C423 1.384 . S
H426 C432 0.930 . S
H427 C436 0.930 . S
H428 C441 0.929 . S
H429 C439 0.929 . S
H430 C434 0.929 . S
H431 C440 0.929 . S
C432 H426 0.930 . S
C432 C433 1.367 . S
C432 C440 1.378 . S
C433 C432 1.367 . S
C433 C441 1.433 . S
C434 H430 0.929 . S
C434 C436 1.378 . S
C434 C438 1.350 . S
C435 C438 1.463 . S
C435 C440 1.350 . S
C435 N443 1.427 . S
C436 H427 0.930 . S
C436 C434 1.378 . S
C436 C437 1.367 . S
C437 C436 1.367 . S
C437 C439 1.433 . S
C438 C434 1.350 . S
C438 C435 1.463 . S
C438 N442 1.427 . S
C439 H429 0.929 . S
C439 C437 1.433 . S
C439 N442 1.384 . S
C440 H431 0.929 . S
C440 C432 1.378 . S
C440 C435 1.350 . S
C441 H428 0.929 . S
C441 C433 1.433 . S
C441 N443 1.384 . S
N442 C438 1.427 . S
N442 C439 1.384 . S
N443 C435 1.427 . S
N443 C441 1.384 . S
H444 C450 0.930 . S
H445 C454 0.930 . S
H446 C459 0.929 . S
H447 C457 0.929 . S
H448 C452 0.929 . S
H449 C458 0.929 . S
C450 H444 0.930 . S
C450 C451 1.367 . S
C450 C458 1.378 . S
C451 C450 1.367 . S
C451 C459 1.433 . S
C452 H448 0.929 . S
C452 C454 1.378 . S
C452 C456 1.350 . S
C453 C456 1.463 . S
C453 C458 1.350 . S
C453 N461 1.427 . S
C454 H445 0.930 . S
C454 C452 1.378 . S
C454 C455 1.367 . S
C455 C454 1.367 . S
C455 C457 1.433 . S
C456 C452 1.350 . S
C456 C453 1.463 . S
C456 N460 1.427 . S
C457 H447 0.929 . S
C457 C455 1.433 . S
C457 N460 1.384 . S
C458 H449 0.929 . S
C458 C450 1.378 . S
C458 C453 1.350 . S
C459 H446 0.929 . S
C459 C451 1.433 . S
C459 N461 1.384 . S
N460 C456 1.427 . S
N460 C457 1.384 . S
N461 C453 1.427 . S
N461 C459 1.384 . S
H462 C468 0.930 . S
H463 C472 0.955 . S
H464 C477 0.929 . S
H465 C475 0.929 . S
H466 C470 0.929 . S
H467 C476 0.929 . S
C468 H462 0.930 . S
C468 C469 1.367 . S
C468 C476 1.378 . S
C469 C468 1.367 . S
C469 C477 1.433 . S
C470 H466 0.929 . S
C470 C472 1.378 . S
C470 C474 1.350 . S
C471 C474 1.463 . S
C471 C476 1.350 . S
C471 N479 1.427 . S
C472 H463 0.955 . S
C472 C470 1.378 . S
C472 C473 1.367 . S
C473 C472 1.367 . S
C473 C475 1.433 . S
C474 C470 1.350 . S
C474 C471 1.463 . S
C474 N478 1.427 . S
C475 H465 0.929 . S
C475 C473 1.433 . S
C475 N478 1.384 . S
C476 H467 0.929 . S
C476 C468 1.378 . S
C476 C471 1.350 . S
C477 H464 0.929 . S
C477 C469 1.433 . S
C477 N479 1.384 . S
N478 C474 1.427 . S
N478 C475 1.384 . S
N479 C471 1.427 . S
N479 C477 1.384 . S
H480 C486 0.930 . S
H481 C490 0.930 . S
H482 C495 0.932 1_545 S
H483 C493 0.929 . S
H484 C488 0.929 1_554 S
H485 C494 0.929 . S
C486 H480 0.930 . S
C486 C487 1.367 . S
C486 C494 1.378 . S
C487 C486 1.367 . S
C487 C495 1.433 . S
C488 H484 0.929 1_556 S
C488 C490 1.378 . S
C488 C492 1.350 1_545 S
C489 C492 1.463 1_554 S
C489 C494 1.350 . S
C489 N497 1.427 . S
C490 H481 0.930 . S
C490 C488 1.378 . S
C490 C491 1.367 1_545 S
C491 C490 1.367 1_565 S
C491 C493 1.433 . S
C492 C488 1.350 1_565 S
C492 C489 1.463 1_556 S
C492 N496 1.427 . S
C493 H483 0.929 . S
C493 C491 1.433 . S
C493 N496 1.384 . S
C494 H485 0.929 . S
C494 C486 1.378 . S
C494 C489 1.350 . S
C495 H482 0.932 1_565 S
C495 C487 1.433 . S
C495 N497 1.384 . S
N496 C492 1.427 . S
N496 C493 1.384 . S
N497 C489 1.427 . S
N497 C495 1.384 . S
H498 C504 0.930 . S
H499 C508 0.930 . S
H500 C513 0.929 . S
H501 C511 0.929 . S
H502 C506 0.929 . S
H503 C512 0.929 . S
C504 H498 0.930 . S
C504 C505 1.367 . S
C504 C512 1.378 . S
C505 C504 1.367 . S
C505 C513 1.433 . S
C506 H502 0.929 . S
C506 C508 1.378 . S
C506 C510 1.350 . S
C507 C510 1.463 1_554 S
C507 C512 1.350 . S
C507 N515 1.427 . S
C508 H499 0.930 . S
C508 C506 1.378 . S
C508 C509 1.367 . S
C509 C508 1.367 . S
C509 C511 1.433 . S
C510 C506 1.350 . S
C510 C507 1.463 1_556 S
C510 N514 1.427 . S
C511 H501 0.929 . S
C511 C509 1.433 . S
C511 N514 1.384 . S
C512 H503 0.929 . S
C512 C504 1.378 . S
C512 C507 1.350 . S
C513 H500 0.929 . S
C513 C505 1.433 . S
C513 N515 1.384 . S
N514 C510 1.427 . S
N514 C511 1.384 . S
N515 C507 1.427 . S
N515 C513 1.384 . S
H516 C522 0.930 . S
H517 C526 0.930 . S
H518 C531 0.929 . S
H519 C529 0.929 . S
H520 C524 0.929 1_554 S
H521 C530 0.929 . S
C522 H516 0.930 . S
C522 C523 1.367 . S
C522 C530 1.378 . S
C523 C522 1.367 . S
C523 C531 1.433 . S
C524 H520 0.929 1_556 S
C524 C526 1.378 . S
C524 C528 1.350 . S
C525 C528 1.463 1_554 S
C525 C530 1.350 . S
C525 N533 1.427 . S
C526 H517 0.930 . S
C526 C524 1.378 . S
C526 C527 1.367 . S
C527 C526 1.367 . S
C527 C529 1.433 . S
C528 C524 1.350 . S
C528 C525 1.463 1_556 S
C528 N532 1.427 . S
C529 H519 0.929 . S
C529 C527 1.433 . S
C529 N532 1.384 . S
C530 H521 0.929 . S
C530 C522 1.378 . S
C530 C525 1.350 . S
C531 H518 0.929 . S
C531 C523 1.433 . S
C531 N533 1.384 . S
N532 C528 1.427 . S
N532 C529 1.384 . S
N533 C525 1.427 . S
N533 C531 1.384 . S
H534 C540 0.930 . S
H535 C544 0.930 . S
H536 C549 0.929 . S
H537 C547 0.929 . S
H538 C542 0.929 . S
H539 C548 0.929 1_455 S
C540 H534 0.930 . S
C540 C541 1.367 . S
C540 C548 1.378 . S
C541 C540 1.367 . S
C541 C549 1.433 . S
C542 H538 0.929 . S
C542 C544 1.378 . S
C542 C546 1.350 . S
C543 C546 1.463 1_554 S
C543 C548 1.350 . S
C543 N551 1.427 . S
C544 H535 0.930 . S
C544 C542 1.378 . S
C544 C545 1.367 . S
C545 C544 1.367 . S
C545 C547 1.433 1_655 S
C546 C542 1.350 . S
C546 C543 1.463 1_556 S
C546 N550 1.427 . S
C547 H537 0.929 . S
C547 C545 1.433 1_455 S
C547 N550 1.384 1_455 S
C548 H539 0.929 1_655 S
C548 C540 1.378 . S
C548 C543 1.350 . S
C549 H536 0.929 . S
C549 C541 1.433 . S
C549 N551 1.384 . S
N550 C546 1.427 . S
N550 C547 1.384 1_655 S
N551 C543 1.427 . S
N551 C549 1.384 . S
H552 C558 0.930 . S
H553 C562 0.930 1_655 S
H554 C567 0.929 . S
H555 C565 0.929 . S
H556 C560 0.929 . S
H557 C566 0.929 . S
C558 H552 0.930 . S
C558 C559 1.367 . S
C558 C566 1.378 . S
C559 C558 1.367 . S
C559 C567 1.433 . S
C560 H556 0.929 . S
C560 C562 1.378 . S
C560 C564 1.350 . S
C561 C564 1.463 . S
C561 C566 1.350 . S
C561 N569 1.427 . S
C562 H553 0.930 1_455 S
C562 C560 1.378 . S
C562 C563 1.367 1_455 S
C563 C562 1.367 1_655 S
C563 C565 1.433 . S
C564 C560 1.350 . S
C564 C561 1.463 . S
C564 N568 1.427 . S
C565 H555 0.929 . S
C565 C563 1.433 . S
C565 N568 1.384 1_655 S
C566 H557 0.929 . S
C566 C558 1.378 . S
C566 C561 1.350 . S
C567 H554 0.929 . S
C567 C559 1.433 . S
C567 N569 1.384 . S
N568 C564 1.427 . S
N568 C565 1.384 1_455 S
N569 C561 1.427 . S
N569 C567 1.384 . S
H570 C576 0.930 . S
H571 C580 0.930 . S
H572 C585 0.929 . S
H573 C583 0.929 . S
H574 C578 0.929 . S
H575 C584 0.929 . S
C576 H570 0.930 . S
C576 C577 1.367 . S
C576 C584 1.378 . S
C577 C576 1.367 . S
C577 C585 1.433 . S
C578 H574 0.929 . S
C578 C580 1.378 . S
C578 C582 1.350 1_565 S
C579 C582 1.463 . S
C579 C584 1.350 . S
C579 N587 1.427 . S
C580 H571 0.930 . S
C580 C578 1.378 . S
C580 C581 1.367 . S
C581 C580 1.367 . S
C581 C583 1.433 1_565 S
C582 C578 1.350 1_545 S
C582 C579 1.463 . S
C582 N586 1.427 . S
C583 H573 0.929 . S
C583 C581 1.433 1_545 S
C583 N586 1.384 . S
C584 H575 0.929 . S
C584 C576 1.378 . S
C584 C579 1.350 . S
C585 H572 0.929 . S
C585 C577 1.433 . S
C585 N587 1.384 . S
N586 C582 1.427 . S
N586 C583 1.384 . S
N587 C579 1.427 . S
N587 C585 1.384 . S
H588 C594 0.930 . S
H589 C598 0.930 . S
H590 C603 0.929 . S
H591 C601 0.929 . S
H592 C596 0.929 . S
H593 C602 0.929 . S
C594 H588 0.930 . S
C594 C595 1.367 . S
C594 C602 1.378 . S
C595 C594 1.367 . S
C595 C603 1.433 . S
C596 H592 0.929 . S
C596 C598 1.378 . S
C596 C600 1.350 . S
C597 C600 1.463 . S
C597 C602 1.350 . S
C597 N605 1.427 . S
C598 H589 0.930 . S
C598 C596 1.378 . S
C598 C599 1.367 . S
C599 C598 1.367 . S
C599 C601 1.433 . S
C600 C596 1.350 . S
C600 C597 1.463 . S
C600 N604 1.427 . S
C601 H591 0.929 . S
C601 C599 1.433 . S
C601 N604 1.384 . S
C602 H593 0.929 . S
C602 C594 1.378 . S
C602 C597 1.350 . S
C603 H590 0.929 . S
C603 C595 1.433 . S
C603 N605 1.384 . S
N604 C600 1.427 . S
N604 C601 1.384 . S
N605 C597 1.427 . S
N605 C603 1.384 . S
H606 C612 0.930 . S
H607 C616 0.930 . S
H608 C621 0.929 . S
H609 C619 0.929 . S
H610 C614 0.929 . S
H611 C620 0.929 . S
C612 H606 0.930 . S
C612 C613 1.367 . S
C612 C620 1.378 . S
C613 C612 1.367 . S
C613 C621 1.433 . S
C614 H610 0.929 . S
C614 C616 1.378 . S
C614 C618 1.350 . S
C615 C618 1.463 . S
C615 C620 1.350 . S
C615 N623 1.427 . S
C616 H607 0.930 . S
C616 C614 1.378 . S
C616 C617 1.367 . S
C617 C616 1.367 . S
C617 C619 1.433 . S
C618 C614 1.350 . S
C618 C615 1.463 . S
C618 N622 1.427 . S
C619 H609 0.929 . S
C619 C617 1.433 . S
C619 N622 1.384 . S
C620 H611 0.929 . S
C620 C612 1.378 . S
C620 C615 1.350 . S
C621 H608 0.929 . S
C621 C613 1.433 . S
C621 N623 1.384 . S
N622 C618 1.427 . S
N622 C619 1.384 . S
N623 C615 1.427 . S
N623 C621 1.384 . S
H624 C630 0.930 . S
H625 C634 0.930 . S
H626 C639 0.929 . S
H627 C637 0.929 . S
H628 C632 0.929 . S
H629 C638 0.929 . S
C630 H624 0.930 . S
C630 C631 1.367 . S
C630 C638 1.378 . S
C631 C630 1.367 . S
C631 C639 1.433 . S
C632 H628 0.929 . S
C632 C634 1.378 . S
C632 C636 1.350 1_556 S
C633 C636 1.463 . S
C633 C638 1.350 . S
C633 N641 1.427 . S
C634 H625 0.930 . S
C634 C632 1.378 . S
C634 C635 1.367 1_655 S
C635 C634 1.367 1_455 S
C635 C637 1.433 1_556 S
C636 C632 1.350 1_554 S
C636 C633 1.463 . S
C636 N640 1.427 1_655 S
C637 H627 0.929 . S
C637 C635 1.433 1_554 S
C637 N640 1.384 . S
C638 H629 0.929 . S
C638 C630 1.378 . S
C638 C633 1.350 . S
C639 H626 0.929 . S
C639 C631 1.433 . S
C639 N641 1.384 . S
N640 C636 1.427 1_455 S
N640 C637 1.384 . S
N641 C633 1.427 . S
N641 C639 1.384 . S
H642 C648 0.930 . S
H643 C652 0.930 . S
H644 C657 0.929 . S
H645 C655 0.929 1_556 S
H646 C650 0.929 . S
H647 C656 0.929 1_545 S
C648 H642 0.930 . S
C648 C649 1.367 . S
C648 C656 1.378 . S
C649 C648 1.367 . S
C649 C657 1.433 . S
C650 H646 0.929 . S
C650 C652 1.378 1_554 S
C650 C654 1.350 . S
C651 C654 1.463 . S
C651 C656 1.350 . S
C651 N659 1.427 . S
C652 H643 0.930 . S
C652 C650 1.378 1_556 S
C652 C653 1.367 1_565 S
C653 C652 1.367 1_545 S
C653 C655 1.433 1_556 S
C654 C650 1.350 . S
C654 C651 1.463 . S
C654 N658 1.427 1_565 S
C655 H645 0.929 1_554 S
C655 C653 1.433 1_554 S
C655 N658 1.384 . S
C656 H647 0.929 1_565 S
C656 C648 1.378 . S
C656 C651 1.350 . S
C657 H644 0.929 . S
C657 C649 1.433 . S
C657 N659 1.384 . S
N658 C654 1.427 1_545 S
N658 C655 1.384 . S
N659 C651 1.427 . S
N659 C657 1.384 . S
H660 C666 0.930 . S
H661 C670 0.930 . S
H662 C675 0.929 . S
H663 C673 0.929 . S
H664 C668 0.929 . S
H665 C674 0.929 . S
C666 H660 0.930 . S
C666 C667 1.367 . S
C666 C674 1.378 . S
C667 C666 1.367 . S
C667 C675 1.433 . S
C668 H664 0.929 . S
C668 C670 1.378 . S
C668 C672 1.350 . S
C669 C672 1.463 . S
C669 C674 1.350 . S
C669 N677 1.427 . S
C670 H661 0.930 . S
C670 C668 1.378 . S
C670 C671 1.367 1_554 S
C671 C670 1.367 1_556 S
C671 C673 1.433 . S
C672 C668 1.350 . S
C672 C669 1.463 . S
C672 N676 1.427 . S
C673 H663 0.929 . S
C673 C671 1.433 . S
C673 N676 1.384 1_556 S
C674 H665 0.929 . S
C674 C666 1.378 . S
C674 C669 1.350 . S
C675 H662 0.929 . S
C675 C667 1.433 . S
C675 N677 1.384 . S
N676 C672 1.427 . S
N676 C673 1.384 1_554 S
N677 C669 1.427 . S
N677 C675 1.384 . S
H678 C684 0.930 . S
H679 C688 0.930 . S
H680 C693 0.929 . S
H681 C691 0.929 . S
H682 C686 0.929 1_556 S
H683 C692 0.929 . S
C684 H678 0.930 . S
C684 C685 1.367 . S
C684 C692 1.378 . S
C685 C684 1.367 . S
C685 C693 1.433 . S
C686 H682 0.929 1_554 S
C686 C688 1.378 1_554 S
C686 C690 1.350 . S
C687 C690 1.463 . S
C687 C692 1.350 . S
C687 N695 1.427 . S
C688 H679 0.930 . S
C688 C686 1.378 1_556 S
C688 C689 1.367 . S
C689 C688 1.367 . S
C689 C691 1.433 1_556 S
C690 C686 1.350 . S
C690 C687 1.463 . S
C690 N694 1.427 . S
C691 H681 0.929 . S
C691 C689 1.433 1_554 S
C691 N694 1.384 . S
C692 H683 0.929 . S
C692 C684 1.378 . S
C692 C687 1.350 . S
C693 H680 0.929 . S
C693 C685 1.433 . S
C693 N695 1.384 . S
N694 C690 1.427 . S
N694 C691 1.384 . S
N695 C687 1.427 . S
N695 C693 1.384 . S
H696 C702 0.930 . S
H697 C706 0.930 . S
H698 C711 0.929 . S
H699 C709 0.929 . S
H700 C704 0.929 . S
H701 C710 0.929 . S
C702 H696 0.930 . S
C702 C703 1.367 . S
C702 C710 1.378 . S
C703 C702 1.367 . S
C703 C711 1.433 . S
C704 H700 0.929 . S
C704 C706 1.378 . S
C704 C708 1.350 . S
C705 C708 1.463 . S
C705 C710 1.350 . S
C705 N713 1.427 . S
C706 H697 0.930 . S
C706 C704 1.378 . S
C706 C707 1.367 . S
C707 C706 1.367 . S
C707 C709 1.433 . S
C708 C704 1.350 . S
C708 C705 1.463 . S
C708 N712 1.427 . S
C709 H699 0.929 . S
C709 C707 1.433 . S
C709 N712 1.384 . S
C710 H701 0.929 . S
C710 C702 1.378 . S
C710 C705 1.350 . S
C711 H698 0.929 . S
C711 C703 1.433 . S
C711 N713 1.384 . S
N712 C708 1.427 . S
N712 C709 1.384 . S
N713 C705 1.427 . S
N713 C711 1.384 . S
H714 C720 0.930 . S
H715 C724 0.930 . S
H716 C729 0.929 . S
H717 C727 0.929 . S
H718 C722 0.929 . S
H719 C728 0.929 . S
C720 H714 0.930 . S
C720 C721 1.367 . S
C720 C728 1.378 . S
C721 C720 1.367 . S
C721 C729 1.433 . S
C722 H718 0.929 . S
C722 C724 1.378 . S
C722 C726 1.350 . S
C723 C726 1.463 . S
C723 C728 1.350 . S
C723 N731 1.427 . S
C724 H715 0.930 . S
C724 C722 1.378 . S
C724 C725 1.367 . S
C725 C724 1.367 . S
C725 C727 1.433 . S
C726 C722 1.350 . S
C726 C723 1.463 . S
C726 N730 1.427 . S
C727 H717 0.929 . S
C727 C725 1.433 . S
C727 N730 1.384 . S
C728 H719 0.929 . S
C728 C720 1.378 . S
C728 C723 1.350 . S
C729 H716 0.929 . S
C729 C721 1.433 . S
C729 N731 1.384 . S
N730 C726 1.427 . S
N730 C727 1.384 . S
N731 C723 1.427 . S
N731 C729 1.384 . S
H732 C738 0.930 . S
H733 C742 0.930 . S
H734 C747 0.929 . S
H735 C745 0.929 . S
H736 C740 0.929 . S
H737 C746 0.929 . S
C738 H732 0.930 . S
C738 C739 1.367 . S
C738 C746 1.378 . S
C739 C738 1.367 . S
C739 C747 1.433 . S
C740 H736 0.929 . S
C740 C742 1.378 . S
C740 C744 1.350 . S
C741 C744 1.463 . S
C741 C746 1.350 . S
C741 N749 1.427 . S
C742 H733 0.930 . S
C742 C740 1.378 . S
C742 C743 1.367 . S
C743 C742 1.367 . S
C743 C745 1.433 . S
C744 C740 1.350 . S
C744 C741 1.463 . S
C744 N748 1.427 . S
C745 H735 0.929 . S
C745 C743 1.433 . S
C745 N748 1.384 . S
C746 H737 0.929 . S
C746 C738 1.378 . S
C746 C741 1.350 . S
C747 H734 0.929 . S
C747 C739 1.433 . S
C747 N749 1.384 . S
N748 C744 1.427 . S
N748 C745 1.384 . S
N749 C741 1.427 . S
N749 C747 1.384 . S
H750 C756 0.930 . S
H751 C760 0.930 . S
H752 C765 0.929 . S
H753 C763 0.929 . S
H754 C758 0.929 . S
H755 C764 0.929 . S
C756 H750 0.930 . S
C756 C757 1.367 . S
C756 C764 1.378 . S
C757 C756 1.367 . S
C757 C765 1.433 . S
C758 H754 0.929 . S
C758 C760 1.378 . S
C758 C762 1.350 . S
C759 C762 1.463 . S
C759 C764 1.350 . S
C759 N767 1.427 . S
C760 H751 0.930 . S
C760 C758 1.378 . S
C760 C761 1.367 . S
C761 C760 1.367 . S
C761 C763 1.433 . S
C762 C758 1.350 . S
C762 C759 1.463 . S
C762 N766 1.427 . S
C763 H753 0.929 . S
C763 C761 1.433 . S
C763 N766 1.384 . S
C764 H755 0.929 . S
C764 C756 1.378 . S
C764 C759 1.350 . S
C765 H752 0.929 . S
C765 C757 1.433 . S
C765 N767 1.384 . S
N766 C762 1.427 . S
N766 C763 1.384 . S
N767 C759 1.427 . S
N767 C765 1.384 . S
H768 C774 0.930 . S
H769 C778 0.930 1_455 S
H770 C783 0.929 . S
H771 C781 0.929 . S
H772 C776 0.929 1_455 S
H773 C782 0.929 . S
C774 H768 0.930 . S
C774 C775 1.367 . S
C774 C782 1.378 . S
C775 C774 1.367 . S
C775 C783 1.433 . S
C776 H772 0.929 1_655 S
C776 C778 1.378 . S
C776 C780 1.350 . S
C777 C780 1.463 . S
C777 C782 1.350 . S
C777 N785 1.427 . S
C778 H769 0.930 1_655 S
C778 C776 1.378 . S
C778 C779 1.367 . S
C779 C778 1.367 . S
C779 C781 1.433 . S
C780 C776 1.350 . S
C780 C777 1.463 . S
C780 N784 1.427 . S
C781 H771 0.929 . S
C781 C779 1.433 . S
C781 N784 1.384 . S
C782 H773 0.929 . S
C782 C774 1.378 . S
C782 C777 1.350 . S
C783 H770 0.929 . S
C783 C775 1.433 . S
C783 N785 1.384 . S
N784 C780 1.427 . S
N784 C781 1.384 . S
N785 C777 1.427 . S
N785 C783 1.384 . S
H786 C792 0.930 . S
H787 C796 0.930 . S
H788 C801 0.929 . S
H789 C799 0.928 . S
H790 C794 0.929 . S
H791 C800 0.929 1_545 S
C792 H786 0.930 . S
C792 C793 1.367 . S
C792 C800 1.378 . S
C793 C792 1.367 . S
C793 C801 1.433 . S
C794 H790 0.929 . S
C794 C796 1.378 . S
C794 C798 1.350 . S
C795 C798 1.463 . S
C795 C800 1.350 . S
C795 N803 1.427 . S
C796 H787 0.930 . S
C796 C794 1.378 . S
C796 C797 1.367 . S
C797 C796 1.367 . S
C797 C799 1.435 1_565 S
C798 C794 1.350 . S
C798 C795 1.463 . S
C798 N802 1.427 . S
C799 H789 0.928 . S
C799 C797 1.435 1_545 S
C799 N802 1.384 1_545 S
C800 H791 0.929 1_565 S
C800 C792 1.378 . S
C800 C795 1.350 . S
C801 H788 0.929 . S
C801 C793 1.433 . S
C801 N803 1.384 . S
N802 C798 1.427 . S
N802 C799 1.384 1_565 S
N803 C795 1.427 . S
N803 C801 1.384 . S
H804 C810 0.930 . S
H805 C814 0.930 . S
H806 C819 0.929 . S
H807 C817 0.929 . S
H808 C812 0.929 . S
H809 C818 0.929 . S
C810 H804 0.930 . S
C810 C811 1.367 . S
C810 C818 1.378 . S
C811 C810 1.367 . S
C811 C819 1.433 . S
C812 H808 0.929 . S
C812 C814 1.378 . S
C812 C816 1.350 . S
C813 C816 1.463 . S
C813 C818 1.350 . S
C813 N821 1.427 . S
C814 H805 0.930 . S
C814 C812 1.378 . S
C814 C815 1.367 . S
C815 C814 1.367 . S
C815 C817 1.433 . S
C816 C812 1.350 . S
C816 C813 1.463 . S
C816 N820 1.427 . S
C817 H807 0.929 . S
C817 C815 1.433 . S
C817 N820 1.384 . S
C818 H809 0.929 . S
C818 C810 1.378 . S
C818 C813 1.350 . S
C819 H806 0.929 . S
C819 C811 1.433 . S
C819 N821 1.384 . S
N820 C816 1.427 . S
N820 C817 1.384 . S
N821 C813 1.427 . S
N821 C819 1.384 . S
H822 C828 0.930 . S
H823 C832 0.930 . S
H824 C837 0.929 . S
H825 C835 0.929 . S
H826 C830 0.929 . S
H827 C836 0.929 . S
C828 H822 0.930 . S
C828 C829 1.367 . S
C828 C836 1.378 . S
C829 C828 1.367 . S
C829 C837 1.433 . S
C830 H826 0.929 . S
C830 C832 1.378 . S
C830 C834 1.350 . S
C831 C834 1.463 . S
C831 C836 1.350 . S
C831 N839 1.427 . S
C832 H823 0.930 . S
C832 C830 1.378 . S
C832 C833 1.367 . S
C833 C832 1.367 . S
C833 C835 1.433 . S
C834 C830 1.350 . S
C834 C831 1.463 . S
C834 N838 1.427 . S
C835 H825 0.929 . S
C835 C833 1.433 . S
C835 N838 1.384 . S
C836 H827 0.929 . S
C836 C828 1.378 . S
C836 C831 1.350 . S
C837 H824 0.929 . S
C837 C829 1.433 . S
C837 N839 1.384 . S
N838 C834 1.427 . S
N838 C835 1.384 . S
N839 C831 1.427 . S
N839 C837 1.384 . S
C415 C61 1.828 . S
C419 C147 1.898 . S
C437 C231 1.912 . S
C433 C70 1.860 . S
C455 C307 1.874 . S
C451 C43 1.937 . S
C473 C391 1.858 . S
C469 C52 1.923 . S
C491 C138 1.886 1_565 S
C487 C25 1.840 . S
C505 C34 1.871 . S
C509 C222 1.921 . S
C523 C7 1.942 . S
C527 C296 1.873 . S
C541 C16 1.930 . S
C545 C380 1.861 . S
C563 C135 0.598 . S
C559 C50 0.613 . S
C581 C219 0.556 . S
C577 C59 0.600 . S
C599 C312 0.568 . S
C595 C67 0.525 . S
C613 C41 0.558 . S
C617 C396 0.567 . S
C631 C14 0.594 . S
C635 C144 0.605 . S
C653 C228 0.586 . S
C649 C23 0.562 . S
C671 C303 0.536 1_556 S
C667 C31 0.535 . S
C685 C5 0.541 . S
C689 C387 0.586 1_556 S
C703 C49 1.992 . S
C707 C128 2.067 . S
C721 C58 1.965 . S
C725 C212 2.039 . S
C743 C306 2.040 . S
C739 C68 1.860 . S
C761 C390 2.050 . S
C757 C40 1.882 . S
C775 C13 1.985 . S
C779 C139 2.057 . S
C797 C223 2.043 . S
C793 C22 1.956 . S
C815 C315 2.035 . S
C811 C32 1.866 . S
C829 C4 1.890 . S
C833 C399 2.055 . S
