# Generated by pormake.
# Topology dag, (6,3)-cn, num edge types: 1
# Building blocks:
#     Node 0, Type 0, BuildingBlock: MIDCAF_clean_sbu_0, # of connection points: 6
#     Node 1, Type 0, BuildingBlock: MIDCAF_clean_sbu_0, # of connection points: 6
#     Node 2, Type 0, BuildingBlock: MIDCAF_clean_sbu_0, # of connection points: 6
#     Node 3, Type 0, BuildingBlock: MIDCAF_clean_sbu_0, # of connection points: 6
#     Node 4, Type 1, BuildingBlock: ESEHIV_clean_linker_0, # of connection points: 3
#     Node 5, Type 1, BuildingBlock: ESEHIV_clean_linker_0, # of connection points: 3
#     Node 6, Type 1, BuildingBlock: ESEHIV_clean_linker_0, # of connection points: 3
#     Node 7, Type 1, BuildingBlock: ESEHIV_clean_linker_0, # of connection points: 3
#     Node 8, Type 1, BuildingBlock: ESEHIV_clean_linker_0, # of connection points: 3
#     Node 9, Type 1, BuildingBlock: ESEHIV_clean_linker_0, # of connection points: 3
#     Node 10, Type 1, BuildingBlock: ESEHIV_clean_linker_0, # of connection points: 3
#     Node 11, Type 1, BuildingBlock: ESEHIV_clean_linker_0, # of connection points: 3
#     Edge 12, Type (0, 1), BuildingBlock: UVAHIK_clean_linker_0, # of connection points: 2
#     Edge 13, Type (0, 1), BuildingBlock: UVAHIK_clean_linker_0, # of connection points: 2
#     Edge 14, Type (0, 1), BuildingBlock: UVAHIK_clean_linker_0, # of connection points: 2
#     Edge 15, Type (0, 1), BuildingBlock: UVAHIK_clean_linker_0, # of connection points: 2
#     Edge 16, Type (0, 1), BuildingBlock: UVAHIK_clean_linker_0, # of connection points: 2
#     Edge 17, Type (0, 1), BuildingBlock: UVAHIK_clean_linker_0, # of connection points: 2
#     Edge 18, Type (0, 1), BuildingBlock: UVAHIK_clean_linker_0, # of connection points: 2
#     Edge 19, Type (0, 1), BuildingBlock: UVAHIK_clean_linker_0, # of connection points: 2
#     Edge 20, Type (0, 1), BuildingBlock: UVAHIK_clean_linker_0, # of connection points: 2
#     Edge 21, Type (0, 1), BuildingBlock: UVAHIK_clean_linker_0, # of connection points: 2
#     Edge 22, Type (0, 1), BuildingBlock: UVAHIK_clean_linker_0, # of connection points: 2
#     Edge 23, Type (0, 1), BuildingBlock: UVAHIK_clean_linker_0, # of connection points: 2
#     Edge 24, Type (0, 1), BuildingBlock: UVAHIK_clean_linker_0, # of connection points: 2
#     Edge 25, Type (0, 1), BuildingBlock: UVAHIK_clean_linker_0, # of connection points: 2
#     Edge 26, Type (0, 1), BuildingBlock: UVAHIK_clean_linker_0, # of connection points: 2
#     Edge 27, Type (0, 1), BuildingBlock: UVAHIK_clean_linker_0, # of connection points: 2
#     Edge 28, Type (0, 1), BuildingBlock: UVAHIK_clean_linker_0, # of connection points: 2
#     Edge 29, Type (0, 1), BuildingBlock: UVAHIK_clean_linker_0, # of connection points: 2
#     Edge 30, Type (0, 1), BuildingBlock: UVAHIK_clean_linker_0, # of connection points: 2
#     Edge 31, Type (0, 1), BuildingBlock: UVAHIK_clean_linker_0, # of connection points: 2
#     Edge 32, Type (0, 1), BuildingBlock: UVAHIK_clean_linker_0, # of connection points: 2
#     Edge 33, Type (0, 1), BuildingBlock: UVAHIK_clean_linker_0, # of connection points: 2
#     Edge 34, Type (0, 1), BuildingBlock: UVAHIK_clean_linker_0, # of connection points: 2
#     Edge 35, Type (0, 1), BuildingBlock: UVAHIK_clean_linker_0, # of connection points: 2
# Relax obj value: 0.305
# Max RMSD: 0.190
# Mean RMSD: 0.179
data_MOF--net-dag--node1-MIDCAF_clean_sbu_0--node2-ESEHIV_clean_linker_0--edge1-UVAHIK_clean_linker_0
_symmetry_space_group_name_H-M    P1
_symmetry_Int_Tables_number       1
_symmetry_cell_setting            triclinic
loop_
_symmetry_equiv_pos_as_xyz
'x, y, z'
_cell_length_a     48.913255
_cell_length_b     50.163352
_cell_length_c     37.384975
_cell_angle_alpha  94.13546
_cell_angle_beta   90.091303
_cell_angle_gamma 90.013644
loop_
_atom_site_label
_atom_site_type_symbol
_atom_site_fract_x
_atom_site_fract_y
_atom_site_fract_z
_atom_type_partial_charge
Zn0 Zn 0.12616 0.86328 0.09017 0.0
Zn1 Zn 0.18013 0.83862 0.99106 0.0
Zn2 Zn 0.15045 0.84298 0.04348 0.0
C3 C 0.16787 0.89334 0.00417 0.0
C4 C 0.1321 0.80707 0.97675 0.0
O5 O 0.16437 0.82335 0.0918 0.0
O6 O 0.12572 0.83031 0.12082 0.0
C7 C 0.1802 0.87399 0.10123 0.0
O8 O 0.15372 0.88379 0.02889 0.0
O9 O 0.18197 0.87777 0.98345 0.0
O10 O 0.15371 0.81519 0.96247 0.0
O11 O 0.12647 0.815 0.00929 0.0
O12 O 0.15885 0.88816 0.09914 0.0
O13 O 0.17975 0.84971 0.08757 0.0
O14 O 0.10795 0.8297 0.03995 0.0
O15 O 0.09303 0.86935 0.0598 0.0
C16 C 0.08812 0.84631 0.04512 0.0
O17 O 0.18601 0.82176 0.06401 0.0
O18 O 0.21087 0.82024 0.01442 0.0
C19 C 0.14804 0.81757 0.11732 0.0
C20 C 0.20772 0.81441 0.04647 0.0
Zn21 Zn 0.62588 0.66034 0.43751 0.0
Zn22 Zn 0.66546 0.64979 0.55999 0.0
Zn23 Zn 0.64418 0.65457 0.49715 0.0
C24 C 0.66333 0.59874 0.52765 0.0
C25 C 0.61314 0.67225 0.56939 0.0
O26 O 0.6662 0.68681 0.47196 0.0
O27 O 0.6356 0.69834 0.43255 0.0
C28 C 0.65611 0.61415 0.43098 0.0
O29 O 0.65624 0.61226 0.5011 0.0
O30 O 0.66707 0.61019 0.55842 0.0
O31 O 0.63529 0.66949 0.58616 0.0
O32 O 0.61159 0.66548 0.53557 0.0
O33 O 0.64934 0.63275 0.41175 0.0
O34 O 0.65234 0.61692 0.46513 0.0
O35 O 0.59924 0.66244 0.50166 0.0
O36 O 0.58718 0.65127 0.44564 0.0
C37 C 0.58055 0.65716 0.4778 0.0
O38 O 0.67944 0.68246 0.50436 0.0
O39 O 0.69999 0.66882 0.5525 0.0
C40 C 0.65801 0.70275 0.44862 0.0
C41 C 0.69972 0.68346 0.52646 0.0
Zn42 Zn 0.84248 0.13629 0.883 0.0
Zn43 Zn 0.82378 0.15433 0.06834 0.0
Zn44 Zn 0.8352 0.14729 -0.00116 0.0
C45 C 0.88195 0.15495 0.05662 0.0
C46 C 0.80253 0.10438 0.04029 0.0
O47 O 0.81096 0.17701 0.97099 0.0
O48 O 0.81842 0.14844 0.92636 0.0
C49 C 0.88426 0.15684 0.93493 0.0
O50 O 0.87516 0.15452 0.02348 0.0
O51 O 0.86387 0.1536 0.0806 0.0
O52 O 0.80052 0.12083 0.06744 0.0
O53 O 0.81676 0.11009 0.013 0.0
O54 O 0.8798 0.15156 0.90128 0.0
O55 O 0.86599 0.15326 0.95857 0.0
O56 O 0.82861 0.10466 0.97973 0.0
O57 O 0.827 0.12283 0.92949 0.0
C58 C 0.82948 0.10157 0.94552 0.0
O59 O 0.8053 0.17977 0.00753 0.0
O60 O 0.8046 0.18934 0.06622 0.0
C61 C 0.80955 0.17135 0.93719 0.0
C62 C 0.79701 0.19437 0.0351 0.0
Zn63 Zn 0.3754 0.347 0.65061 0.0
Zn64 Zn 0.32282 0.38407 0.50094 0.0
Zn65 Zn 0.3303 0.3615 0.54925 0.0
C66 C 0.37203 0.35903 0.49044 0.0
C67 C 0.28513 0.39716 0.55274 0.0
O68 O 0.301 0.35109 0.58912 0.0
O69 O 0.33948 0.35061 0.61806 0.0
C70 C 0.36762 0.3207 0.56902 0.0
O71 O 0.35791 0.34263 0.50793 0.0
O72 O 0.36378 0.38295 0.48969 0.0
O73 O 0.30359 0.4096 0.53694 0.0
O74 O 0.28782 0.37197 0.55534 0.0
O75 O 0.36325 0.33736 0.59602 0.0
O76 O 0.35438 0.32479 0.5402 0.0
O77 O 0.35377 0.39564 0.5654 0.0
O78 O 0.36467 0.36837 0.6055 0.0
C79 C 0.36549 0.39209 0.59495 0.0
O80 O 0.33048 0.32814 0.50936 0.0
O81 O 0.30003 0.35132 0.48166 0.0
C82 C 0.31359 0.34674 0.618 0.0
C83 C 0.30974 0.32871 0.48813 0.0
H84 H 0.11201 0.07062 0.25728 0.0
H85 H 0.16918 0.08598 0.34338 0.0
H86 H 0.11357 0.14779 0.31578 0.0
C87 C 0.11989 0.08386 0.27911 0.0
C88 C 0.10931 0.10989 0.28487 0.0
C89 C 0.1412 0.07506 0.30047 0.0
C90 C 0.15187 0.09236 0.32794 0.0
C91 C 0.14238 0.11871 0.33329 0.0
C92 C 0.12046 0.12723 0.31245 0.0
H93 H 0.43312 0.61624 0.81125 0.0
H94 H 0.36928 0.61733 0.88998 0.0
H95 H 0.41799 0.68795 0.87791 0.0
C96 C 0.4223 0.62661 0.83345 0.0
C97 C 0.42831 0.65344 0.84311 0.0
C98 C 0.40102 0.61359 0.84998 0.0
C99 C 0.38614 0.62725 0.87761 0.0
C100 C 0.39246 0.65405 0.88828 0.0
C101 C 0.41333 0.66715 0.87047 0.0
H102 H 0.79585 0.85104 0.06902 0.0
H103 H 0.80895 0.79963 0.15422 0.0
H104 H 0.73321 0.84295 0.14768 0.0
C105 C 0.78805 0.84123 0.09182 0.0
C106 C 0.76243 0.84863 0.10612 0.0
C107 C 0.80493 0.82354 0.10909 0.0
C108 C 0.79551 0.81259 0.14032 0.0
C109 C 0.76963 0.81933 0.15465 0.0
C110 C 0.75308 0.83717 0.13696 0.0
H111 H 0.6307 0.31865 0.57904 0.0
H112 H 0.64554 0.26776 0.66436 0.0
H113 H 0.69691 0.33641 0.65287 0.0
C114 C 0.64303 0.31341 0.60161 0.0
C115 C 0.66477 0.33012 0.61343 0.0
C116 C 0.63574 0.29115 0.62008 0.0
C117 C 0.65121 0.28492 0.64995 0.0
C118 C 0.67364 0.30087 0.66163 0.0
C119 C 0.68048 0.32335 0.64301 0.0
H120 H 0.5975 0.37291 0.28378 0.0
H121 H 0.64512 0.37241 0.18723 0.0
H122 H 0.57698 0.31852 0.19398 0.0
C123 C 0.60185 0.36487 0.2567 0.0
C124 C 0.58534 0.34425 0.24139 0.0
C125 C 0.62333 0.37546 0.23734 0.0
C126 C 0.62786 0.36525 0.20192 0.0
C127 C 0.61117 0.34486 0.18588 0.0
C128 C 0.58975 0.3345 0.20579 0.0
H129 H 0.14718 0.17436 0.97125 0.0
H130 H 0.16234 0.23986 0.90679 0.0
H131 H 0.21873 0.17376 0.90412 0.0
C132 C 0.16066 0.18431 0.95344 0.0
C133 C 0.18432 0.17127 0.94007 0.0
C134 C 0.15269 0.2089 0.9414 0.0
C135 C 0.16903 0.22114 0.91673 0.0
C136 C 0.19305 0.20881 0.90336 0.0
C137 C 0.20049 0.18364 0.91481 0.0
H138 H 0.29071 0.61168 0.45652 0.0
H139 H 0.29061 0.68113 0.39547 0.0
H140 H 0.21953 0.63019 0.39593 0.0
C141 C 0.28028 0.62489 0.43928 0.0
C142 C 0.2536 0.61861 0.42781 0.0
C143 C 0.29376 0.64761 0.42824 0.0
C144 C 0.28018 0.66387 0.40472 0.0
C145 C 0.25344 0.65773 0.39258 0.0
C146 C 0.24013 0.63518 0.40479 0.0
H147 H 0.94425 0.85709 0.76861 0.0
H148 H 0.93379 0.79756 0.68169 0.0
H149 H 0.87758 0.86391 0.69508 0.0
C150 C 0.93316 0.84972 0.74478 0.0
C151 C 0.91019 0.86364 0.73372 0.0
C152 C 0.94133 0.8257 0.72654 0.0
C153 C 0.92707 0.81601 0.69579 0.0
C154 C 0.90426 0.82996 0.68352 0.0
C155 C 0.89594 0.85375 0.70289 0.0
C156 C 0.21157 0.90983 0.12252 0.0
C157 C 0.20162 0.88401 0.12599 0.0
C158 C 0.22156 0.92494 0.1524 0.0
C159 C 0.198 0.9316 0.24287 0.0
H160 H 0.23622 -0.00106 0.23854 0.0
C161 C 0.16109 0.03126 0.31643 0.0
C162 C 0.15546 0.04962 0.29067 0.0
C163 C 0.17642 0.00821 0.30716 0.0
C164 C 0.22583 0.98005 0.2407 0.0
H165 H 0.19752 0.85214 0.16163 0.0
H166 H 0.21491 0.87867 0.21435 0.0
H167 H 0.2522 0.95962 0.20223 0.0
H168 H 0.16197 0.05886 0.23563 0.0
H169 H 0.18875 0.01884 0.21951 0.0
H170 H 0.17049 0.95262 0.27941 0.0
C171 C 0.215 0.88733 0.18864 0.0
C172 C 0.23497 0.95755 0.21998 0.0
C173 C 0.2053 0.87205 0.15844 0.0
C174 C 0.16565 0.04479 0.25578 0.0
C175 C 0.18136 0.02216 0.24677 0.0
C176 C 0.18906 0.95405 0.2639 0.0
C177 C 0.22121 0.91457 0.18641 0.0
C178 C 0.2198 0.93369 0.21863 0.0
C179 C 0.18695 0.0037 0.27233 0.0
C180 C 0.20173 0.97885 0.2609 0.0
H181 H 0.20871 0.91939 0.09768 0.0
H182 H 0.22609 0.9458 0.14945 0.0
H183 H 0.18576 0.9136 0.24262 0.0
H184 H 0.15357 0.03475 0.34361 0.0
H185 H 0.18023 -0.00594 0.32715 0.0
C186 C 0.56331 0.66983 0.5826 0.0
C187 C 0.58891 0.68153 0.58991 0.0
C188 C 0.54161 0.67483 0.60634 0.0
C189 C 0.51953 0.71363 0.69035 0.0
H190 H 0.49294 0.64435 0.71447 0.0
C191 C 0.44066 0.68895 0.80247 0.0
C192 C 0.44856 0.66713 0.82169 0.0
C193 C 0.45702 0.69696 0.77448 0.0
C194 C 0.50015 0.66386 0.70798 0.0
H195 H 0.61164 0.70895 0.62618 0.0
H196 H 0.57404 0.71715 0.66822 0.0
H197 H 0.51954 0.64768 0.66033 0.0
H198 H 0.48069 0.63851 0.82973 0.0
H199 H 0.50934 0.65262 0.78117 0.0
H200 H 0.50053 0.7294 0.73926 0.0
C201 C 0.5704 0.70458 0.64389 0.0
C202 C 0.51502 0.66586 0.67666 0.0
C203 C 0.59202 0.69966 0.62004 0.0
C204 C 0.47415 0.65524 0.81503 0.0
C205 C 0.49042 0.66321 0.78724 0.0
C206 C 0.50431 0.71162 0.72177 0.0
C207 C 0.54535 0.69127 0.6381 0.0
C208 C 0.52547 0.69062 0.66787 0.0
C209 C 0.48132 0.68317 0.76559 0.0
C210 C 0.49528 0.68654 0.73126 0.0
H211 H 0.56064 0.65521 0.56018 0.0
H212 H 0.52244 0.66445 0.60105 0.0
H213 H 0.52727 0.73299 0.68412 0.0
H214 H 0.42088 0.69828 0.80707 0.0
H215 H 0.44968 0.71243 0.7581 0.0
C216 C 0.80184 0.05532 0.02651 0.0
C217 C 0.78835 0.07859 0.03955 0.0
C218 C 0.78868 0.03067 0.02583 0.0
C219 C 0.73099 -0.00286 0.06843 0.0
H220 H 0.75843 0.93817 0.00616 0.0
C221 C 0.74296 0.89412 0.11704 0.0
C222 C 0.74826 0.87202 0.09294 0.0
C223 C 0.73631 0.91875 0.10443 0.0
C224 C 0.74971 0.95425 0.02331 0.0
H225 H 0.75031 0.09494 0.06088 0.0
H226 H 0.72662 0.05194 0.05841 0.0
H227 H 0.76877 0.98338 0.99281 0.0
H228 H 0.74782 0.85734 0.0371 0.0
H229 H 0.73458 0.9001 0.01484 0.0
H230 H 0.71103 0.96805 0.09813 0.0
C231 C 0.7477 0.05241 0.04973 0.0
C232 C 0.75625 0.98038 0.01603 0.0
C233 C 0.76119 0.07705 0.05115 0.0
C234 C 0.74409 0.87426 0.05614 0.0
C235 C 0.73678 0.89884 0.04348 0.0
C236 C 0.72371 0.97104 0.07505 0.0
C237 C 0.76141 0.02879 0.03752 0.0
C238 C 0.74855 0.00204 0.03987 0.0
C239 C 0.73435 0.92179 0.06733 0.0
C240 C 0.73456 0.94914 0.05406 0.0
H241 H 0.82294 0.05608 0.01806 0.0
H242 H 0.80037 0.01305 0.0173 0.0
H243 H 0.72431 0.01318 0.08731 0.0
H244 H 0.7463 0.89299 0.14556 0.0
H245 H 0.73504 0.93574 0.12389 0.0
C246 C 0.40275 0.29649 0.6026 0.0
C247 C 0.39002 0.30096 0.56987 0.0
C248 C 0.42761 0.28289 0.6032 0.0
C249 C 0.48817 0.27578 0.54806 0.0
H250 H 0.51457 0.23546 0.62576 0.0
C251 C 0.60276 0.27027 0.57481 0.0
C252 C 0.60976 0.27701 0.61079 0.0
C253 C 0.5761 0.26241 0.56555 0.0
C254 C 0.50754 0.24665 0.6038 0.0
H255 H 0.39168 0.29199 0.51244 0.0
H256 H 0.43553 0.26858 0.51327 0.0
H257 H 0.46542 0.24074 0.61691 0.0
H258 H 0.5949 0.27907 0.66547 0.0
H259 H 0.54843 0.26591 0.64948 0.0
H260 H 0.52998 0.28333 0.53628 0.0
C261 C 0.42642 0.27595 0.53847 0.0
C262 C 0.47939 0.24958 0.59867 0.0
C263 C 0.40133 0.28935 0.53795 0.0
C264 C 0.59017 0.27377 0.63754 0.0
C265 C 0.56347 0.26615 0.62829 0.0
C266 C 0.51626 0.27301 0.55331 0.0
C267 C 0.44034 0.27352 0.57104 0.0
C268 C 0.46943 0.26504 0.57157 0.0
C269 C 0.55581 0.26142 0.59207 0.0
C270 C 0.52633 0.25928 0.5821 0.0
H271 H 0.3943 0.30474 0.62774 0.0
H272 H 0.43777 0.28148 0.62875 0.0
H273 H 0.48123 0.28809 0.52719 0.0
H274 H 0.61761 0.27229 0.55369 0.0
H275 H 0.57109 0.25832 0.53746 0.0
C276 C 0.68055 0.58989 0.38019 0.0
C277 C 0.66722 0.58925 0.41338 0.0
C278 C 0.68742 0.56619 0.36048 0.0
C279 C 0.69271 0.49287 0.3615 0.0
H280 H 0.65517 0.49301 0.27011 0.0
C281 C 0.64651 0.39843 0.2911 0.0
C282 C 0.64061 0.39734 0.2542 0.0
C283 C 0.65921 0.4208 0.30807 0.0
C284 C 0.66657 0.49252 0.2949 0.0
H285 H 0.65143 0.56348 0.45236 0.0
H286 H 0.66398 0.52192 0.41841 0.0
H287 H 0.66163 0.53457 0.3059 0.0
H288 H 0.64591 0.41805 0.20564 0.0
H289 H 0.66961 0.45622 0.23477 0.0
H290 H 0.69734 0.45067 0.35068 0.0
C291 C 0.66948 0.54077 0.4079 0.0
C292 C 0.67014 0.51648 0.31556 0.0
C293 C 0.66242 0.56453 0.4275 0.0
C294 C 0.64995 0.41816 0.23413 0.0
C295 C 0.66325 0.4403 0.25099 0.0
C296 C 0.68959 0.46885 0.34046 0.0
C297 C 0.68111 0.54142 0.37362 0.0
C298 C 0.68238 0.51677 0.34955 0.0
C299 C 0.66696 0.44246 0.28844 0.0
C300 C 0.67549 0.46823 0.30749 0.0
H301 H 0.6847 0.60872 0.36878 0.0
H302 H 0.69653 0.56721 0.33421 0.0
H303 H 0.70243 0.49267 0.38753 0.0
H304 H 0.64048 0.38237 0.30727 0.0
H305 H 0.66152 0.4216 0.33693 0.0
C306 C 0.92968 0.15787 0.96377 0.0
C307 C 0.90899 0.17104 0.94633 0.0
C308 C 0.95367 0.17143 0.97377 0.0
C309 C 0.99348 0.22988 0.9486 0.0
H310 H 0.04318 0.20216 0.01756 0.0
C311 C 0.10672 0.2232 0.92248 0.0
C312 C 0.1252 0.21938 0.9503 0.0
C313 C 0.07913 0.22745 0.92991 0.0
C314 C 0.02956 0.2109 -0.0012 0.0
H315 H 0.89516 0.20873 0.92824 0.0
H316 H 0.93655 0.23305 0.94714 0.0
H317 H -0.00474 0.19068 0.01942 0.0
H318 H 0.13018 0.21933 0.0078 0.0
H319 H 0.082 0.22817 0.02123 0.0
H320 H 0.02754 0.25084 0.92879 0.0
C321 C 0.93518 0.21202 0.95168 0.0
C322 C 0.00202 0.20378 -0.0006 0.0
C323 C 0.9115 0.19822 0.94089 0.0
C324 C 0.11613 0.22205 0.98594 0.0
C325 C 0.08853 0.22689 0.99351 0.0
C326 C 0.02082 0.23769 0.94876 0.0
C327 C 0.95697 0.1986 0.96723 0.0
C328 C 0.98403 0.21174 0.97281 0.0
C329 C 0.06947 0.22841 0.96546 0.0
C330 C 0.03957 0.22685 0.97226 0.0
H331 H 0.92763 0.13693 0.96864 0.0
H332 H 0.96997 0.16016 0.98515 0.0
H333 H 0.98041 0.23665 0.92771 0.0
H334 H 0.11322 0.22089 0.89473 0.0
H335 H 0.06526 0.22797 0.90739 0.0
C336 C 0.2369 0.40598 0.53827 0.0
C337 C 0.25957 0.41173 0.56052 0.0
C338 C 0.21914 0.42657 0.52987 0.0
C339 C 0.20989 0.50142 0.54245 0.0
H340 H 0.21629 0.49567 0.43884 0.0
C341 C 0.21707 0.59491 0.46043 0.0
C342 C 0.24066 0.59391 0.43901 0.0
C343 C 0.20731 0.57169 0.47492 0.0
C344 C 0.214 0.49759 0.46774 0.0
H345 H 0.27907 0.44193 0.59596 0.0
H346 H 0.24837 0.47753 0.58198 0.0
H347 H 0.21767 0.45556 0.47125 0.0
H348 H 0.27177 0.56806 0.41438 0.0
H349 H 0.25473 0.52763 0.43904 0.0
H350 H 0.20878 0.54384 0.53873 0.0
C351 C 0.24391 0.45754 0.57059 0.0
C352 C 0.21441 0.47449 0.48644 0.0
C353 C 0.26158 0.43703 0.57888 0.0
C354 C 0.25352 0.56926 0.4308 0.0
C355 C 0.2436 0.54611 0.44475 0.0
C356 C 0.20956 0.52459 0.52365 0.0
C357 C 0.22399 0.45307 0.54361 0.0
C358 C 0.214 0.47618 0.52421 0.0
C359 C 0.22074 0.5471 0.46761 0.0
C360 C 0.21321 0.52294 0.48626 0.0
H361 H 0.23506 0.38664 0.52358 0.0
H362 H 0.20352 0.42226 0.50972 0.0
H363 H 0.20899 0.50345 0.57146 0.0
H364 H 0.20696 0.6138 0.46722 0.0
H365 H 0.18967 0.57306 0.49243 0.0
C366 C 0.11861 0.78504 0.91739 0.0
C367 C 0.11238 0.79128 0.95375 0.0
C368 C 0.09841 0.77561 0.8934 0.0
C369 C 0.02573 0.78589 0.88337 0.0
H370 H 0.03896 0.74855 0.79041 0.0
C371 C 0.98765 0.8222 0.75348 0.0
C372 C 0.96296 0.80983 0.74261 0.0
C373 C 0.00502 0.8101 0.77703 0.0
C374 C 0.03481 0.75855 0.81649 0.0
H375 H 0.0813 0.78858 0.99416 0.0
H376 H 0.0455 0.77257 0.95221 0.0
H377 H 0.07019 0.74201 0.8405 0.0
H378 H 0.93796 0.77438 0.74551 0.0
H379 H 0.96869 0.75313 0.78714 0.0
H380 H 0.99123 0.80345 0.85873 0.0
C381 C 0.06593 0.77566 0.94214 0.0
C382 C 0.05264 0.75498 0.84507 0.0
C383 C 0.08631 0.785 0.96621 0.0
C384 C 0.95705 0.78413 0.75326 0.0
C385 C 0.97446 0.77205 0.77708 0.0
C386 C 0.00795 0.78936 0.85491 0.0
C387 C 0.07147 0.77211 0.90516 0.0
C388 C 0.049 0.7696 0.87835 0.0
C389 C -0.00201 0.78549 0.79002 0.0
C390 C 0.013 0.77654 0.82103 0.0
H391 H 0.13868 0.78909 0.90683 0.0
H392 H 0.10352 0.77323 0.86517 0.0
H393 H 0.0224 0.79775 0.90835 0.0
H394 H 0.99258 0.842 0.7456 0.0
H395 H 0.02311 0.82075 0.78693 0.0
C396 C 0.84963 0.05536 0.94269 0.0
C397 C 0.83706 0.07619 0.92563 0.0
C398 C 0.85748 0.03189 0.92279 0.0
C399 C 0.87562 0.00658 0.8313 0.0
H400 H 0.85692 0.93695 0.86281 0.0
C401 C 0.89085 0.91025 0.73963 0.0
C402 C 0.90045 0.88761 0.75576 0.0
C403 C 0.88271 0.93303 0.76073 0.0
C404 C 0.86264 0.95621 0.85382 0.0
H405 H 0.8227 0.08882 0.87459 0.0
H406 H 0.83657 0.04813 0.84002 0.0
H407 H 0.84469 0.97714 0.89999 0.0
H408 H 0.90795 0.87079 0.8068 0.0
H409 H 0.89492 0.91066 0.84332 0.0
H410 H 0.89394 0.98586 0.78546 0.0
C411 C 0.84051 0.04991 0.86862 0.0
C412 C 0.8556 0.97921 0.87515 0.0
C413 C 0.83251 0.07316 0.88846 0.0
C414 C 0.9012 0.88808 0.79343 0.0
C415 C 0.89331 0.91085 0.81445 0.0
C416 C 0.88289 0.98361 0.81014 0.0
C417 C 0.85317 0.02907 0.8855 0.0
C418 C 0.86182 0.00461 0.86393 0.0
C419 C 0.88409 0.93368 0.79842 0.0
C420 C 0.87633 0.95813 0.82099 0.0
H421 H 0.85403 0.05745 0.97111 0.0
H422 H 0.86748 0.01621 0.9364 0.0
H423 H 0.881 0.02593 0.82225 0.0
H424 H 0.89008 0.91057 0.71071 0.0
H425 H 0.87529 0.95011 0.74747 0.0
C426 C 0.39735 0.3241 0.45245 0.0
C427 C 0.39598 0.35012 0.46897 0.0
C428 C 0.41894 0.31672 0.42928 0.0
C429 C 0.48848 0.33675 0.40354 0.0
H430 H 0.47014 0.30384 0.30947 0.0
C431 C 0.57092 0.32345 0.29664 0.0
C432 C 0.56384 0.33316 0.26361 0.0
C433 C 0.55072 0.31801 0.32135 0.0
C434 C 0.47558 0.31293 0.33567 0.0
H435 H 0.41607 0.38867 0.4748 0.0
H436 H 0.45367 0.37589 0.43455 0.0
H437 H 0.43475 0.30945 0.35561 0.0
H438 H 0.53034 0.34323 0.22927 0.0
H439 H 0.49477 0.33428 0.27284 0.0
H440 H 0.52881 0.34159 0.38345 0.0
C441 C 0.43836 0.36105 0.43968 0.0
C442 C 0.45541 0.31589 0.36218 0.0
C443 C 0.41675 0.36844 0.46254 0.0
C444 C 0.53617 0.3356 0.25457 0.0
C445 C 0.51588 0.33042 0.27951 0.0
C446 C 0.50859 0.33377 0.37718 0.0
C447 C 0.43954 0.33523 0.42245 0.0
C448 C 0.46153 0.32848 0.39608 0.0
C449 C 0.52304 0.32256 0.31372 0.0
C450 C 0.50227 0.32235 0.34268 0.0
H451 H 0.3812 0.30983 0.45634 0.0
H452 H 0.41937 0.29668 0.41638 0.0
H453 H 0.49387 0.34627 0.42953 0.0
H454 H 0.5922 0.32125 0.30397 0.0
H455 H 0.55689 0.3114 0.34711 0.0
C456 C 0.17852 0.93151 0.96738 0.0
C457 C 0.1689 0.92241 -0.00026 0.0
C458 C 0.18167 0.95876 0.96337 0.0
C459 C 0.16166 0.02607 0.00159 0.0
H460 H 0.22423 0.04786 0.94701 0.0
C461 C 0.18559 0.13701 0.98574 0.0
C462 C 0.18999 0.14369 0.95028 0.0
C463 C 0.18578 0.11035 0.99424 0.0
C464 C 0.20662 0.04207 0.96219 0.0
H465 H 0.15457 0.93485 0.05317 0.0
H466 H 0.16054 0.98272 0.04643 0.0
H467 H 0.21807 0.00086 0.9576 0.0
H468 H 0.19954 0.12764 0.89637 0.0
H469 H 0.20041 0.08106 0.91136 0.0
H470 H 0.15032 0.06741 0.00618 0.0
C471 C 0.1653 0.96868 0.02393 0.0
C472 C 0.20299 0.01512 0.96818 0.0
C473 C 0.16189 0.94128 0.02784 0.0
C474 C 0.19637 0.12321 0.92399 0.0
C475 C 0.19673 0.09651 0.93256 0.0
C476 C 0.16542 0.05307 0.99582 0.0
C477 C 0.1756 0.97772 0.99175 0.0
C478 C 0.18023 0.00669 0.98747 0.0
C479 C 0.19064 0.08975 0.96756 0.0
C480 C 0.18776 0.06132 0.97568 0.0
H481 H 0.18381 0.91752 0.94503 0.0
H482 H 0.18891 0.96493 0.93788 0.0
H483 H 0.14376 0.02032 0.0162 0.0
H484 H 0.18104 0.15239 0.00673 0.0
H485 H 0.18156 0.10582 0.02158 0.0
C486 C 0.53841 0.68104 0.5004 0.0
C487 C 0.55129 0.65748 0.48674 0.0
C488 C 0.50979 0.68237 0.50206 0.0
C489 C 0.44674 0.64135 0.49831 0.0
H490 H 0.41485 0.69941 0.44922 0.0
C491 C 0.33034 0.64932 0.47577 0.0
C492 C 0.32231 0.65353 0.44044 0.0
C493 C 0.35758 0.6527 0.48654 0.0
C494 C 0.42345 0.68314 0.46311 0.0
H495 H 0.54493 0.61673 0.46535 0.0
H496 H 0.49518 0.61876 0.46899 0.0
H497 H 0.46399 0.69928 0.46157 0.0
H498 H 0.33675 0.66525 0.38902 0.0
H499 H 0.38421 0.6715 0.40801 0.0
H500 H 0.40645 0.62473 0.49887 0.0
C501 C 0.50692 0.63617 0.47853 0.0
C502 C 0.45152 0.68322 0.47054 0.0
C503 C 0.53536 0.63499 0.47637 0.0
C504 C 0.34208 0.66216 0.41654 0.0
C505 C 0.36932 0.66571 0.42741 0.0
C506 C 0.41867 0.6414 0.49122 0.0
C507 C 0.49376 0.66007 0.49044 0.0
C508 C 0.46355 0.66202 0.48751 0.0
C509 C 0.37746 0.66059 0.46236 0.0
C510 C 0.40679 0.66201 0.47287 0.0
H511 H 0.55037 0.69871 0.5081 0.0
H512 H 0.50016 0.70101 0.5115 0.0
H513 H 0.45544 0.62479 0.51152 0.0
H514 H 0.31558 0.64319 0.49512 0.0
H515 H 0.36314 0.64897 0.51379 0.0
C516 C 0.39026 0.41123 0.64953 0.0
C517 C 0.37398 0.41501 0.61937 0.0
C518 C 0.39439 0.43219 0.67574 0.0
C519 C 0.38375 0.50585 0.69468 0.0
H520 H 0.38535 0.48742 0.7937 0.0
C521 C 0.36981 0.58481 0.81189 0.0
C522 C 0.39283 0.58701 0.83431 0.0
C523 C 0.36623 0.56218 0.7883 0.0
C524 C 0.38488 0.49275 0.76613 0.0
H525 H 0.34985 0.4438 0.59242 0.0
H526 H 0.35611 0.47986 0.63835 0.0
H527 H 0.38373 0.45194 0.74544 0.0
H528 H 0.42933 0.56712 0.8514 0.0
H529 H 0.42242 0.52685 0.81116 0.0
H530 H 0.38388 0.5467 0.71575 0.0
C531 C 0.36647 0.46113 0.64163 0.0
C532 C 0.38428 0.47249 0.7384 0.0
C533 C 0.3628 0.44036 0.61518 0.0
C534 C 0.41116 0.56551 0.83477 0.0
C535 C 0.40729 0.54264 0.81168 0.0
C536 C 0.38377 0.52603 0.7224 0.0
C537 C 0.38188 0.45722 0.67265 0.0
C538 C 0.3837 0.47876 0.70224 0.0
C539 C 0.38541 0.5413 0.78727 0.0
C540 C 0.38429 0.51966 0.75832 0.0
H541 H 0.39926 0.39191 0.6533 0.0
H542 H 0.40699 0.42857 0.69872 0.0
H543 H 0.38395 0.51158 0.66732 0.0
H544 H 0.35578 0.60143 0.81063 0.0
H545 H 0.34917 0.56149 0.76974 0.0
C546 C 0.03962 0.85702 0.03152 0.0
C547 C 0.05942 0.83805 0.03937 0.0
C548 C 0.01185 0.85057 0.03199 0.0
C549 C 0.96542 0.80497 0.07501 0.0
H550 H 0.91099 0.83781 0.01685 0.0
C551 C 0.85497 0.82101 0.12222 0.0
C552 C 0.83358 0.81917 0.09705 0.0
C553 C 0.88212 0.81895 0.11107 0.0
C554 C 0.92588 0.82809 0.03297 0.0
H555 H 0.0658 0.79751 0.05391 0.0
H556 H 0.01739 0.78575 0.05313 0.0
H557 H 0.95926 0.84143 0.00188 0.0
H558 H 0.82383 0.8131 0.04049 0.0
H559 H 0.87147 0.80919 0.02089 0.0
H560 H 0.93212 0.79156 0.10603 0.0
C561 C 0.02323 0.8057 0.04684 0.0
C562 C 0.95359 0.83045 0.02465 0.0
C563 C 0.051 0.81226 0.04666 0.0
C564 C 0.83993 0.81474 0.06045 0.0
C565 C 0.86718 0.81257 0.04926 0.0
C566 C 0.93774 0.80247 0.08318 0.0
C567 C 0.00327 0.825 0.04048 0.0
C568 C 0.97374 0.81948 0.04611 0.0
C569 C 0.8886 0.81491 0.07446 0.0
C570 C 0.91767 0.81461 0.06287 0.0
H571 H 0.04558 0.87718 0.02632 0.0
H572 H -0.00289 0.8661 0.02755 0.0
H573 H 0.98029 0.79648 0.09241 0.0
H574 H 0.85079 0.82504 0.15054 0.0
H575 H 0.89805 0.82147 0.13117 0.0
C576 C 0.64369 0.5531 0.52435 0.0
C577 C 0.66663 0.56968 0.52308 0.0
C578 C 0.64693 0.5255 0.5253 0.0
C579 C 0.6963 0.47704 0.55556 0.0
H580 H 0.64408 0.42576 0.51344 0.0
C581 C 0.69489 0.36562 0.58936 0.0
C582 C 0.66872 0.35601 0.59713 0.0
C583 C 0.69793 0.39017 0.57404 0.0
C584 C 0.65886 0.43984 0.52536 0.0
H585 H 0.71077 0.57102 0.52088 0.0
H586 H 0.7166 0.52252 0.52203 0.0
H587 H 0.64331 0.47169 0.49607 0.0
H588 H 0.62535 0.36516 0.59627 0.0
H589 H 0.63062 0.40749 0.5697 0.0
H590 H 0.71122 0.44537 0.58577 0.0
C591 C 0.69613 0.53075 0.52253 0.0
C592 C 0.6584 0.46614 0.51542 0.0
C593 C 0.69284 0.55839 0.52165 0.0
C594 C 0.64577 0.37155 0.58966 0.0
C595 C 0.64878 0.39587 0.57436 0.0
C596 C 0.69676 0.4507 0.56551 0.0
C597 C 0.67322 0.51405 0.52521 0.0
C598 C 0.67655 0.48526 0.53124 0.0
C599 C 0.67483 0.40548 0.56624 0.0
C600 C 0.67745 0.43204 0.55139 0.0
H601 H 0.62333 0.56161 0.52597 0.0
H602 H 0.62886 0.51331 0.52794 0.0
H603 H 0.71043 0.49131 0.5685 0.0
H604 H 0.71294 0.35407 0.59479 0.0
H605 H 0.71828 0.39709 0.56808 0.0
C606 C 0.924 0.17683 0.08305 0.0
C607 C 0.91077 0.1538 0.06813 0.0
C608 C 0.94828 0.17475 0.10275 0.0
C609 C 0.0026 0.12611 0.12663 0.0
H610 H 0.00916 0.17325 0.21305 0.0
C611 C 0.09365 0.11619 0.22236 0.0
C612 C 0.08874 0.11942 0.25941 0.0
C613 C 0.07384 0.12328 0.19781 0.0
C614 C 0.00758 0.15976 0.1892 0.0
H615 H 0.91228 0.11068 0.06203 0.0
H616 H 0.9542 0.10681 0.09647 0.0
H617 H 0.97194 0.17968 0.17117 0.0
H618 H 0.05954 0.13333 0.29994 0.0
H619 H 0.02432 0.14496 0.25707 0.0
H620 H 0.03719 0.10525 0.14543 0.0
C621 C 0.94665 0.12662 0.09222 0.0
C622 C 0.98641 0.16373 0.16475 0.0
C623 C 0.9226 0.12877 0.07229 0.0
C624 C 0.06384 0.13067 0.27149 0.0
C625 C 0.04374 0.13743 0.24684 0.0
C626 C 0.02354 0.12199 0.15116 0.0
C627 C 0.95954 0.14953 0.10854 0.0
C628 C 0.98342 0.14678 0.13323 0.0
C629 C 0.0483 0.13342 0.20956 0.0
C630 C 0.02631 0.13863 0.18295 0.0
H631 H 0.91487 0.19632 0.08091 0.0
H632 H 0.95775 0.19288 0.11434 0.0
H633 H 0.00134 0.11283 0.10254 0.0
H634 H 0.11289 0.108 0.21232 0.0
H635 H 0.07858 0.1206 0.1695 0.0
C636 C 0.13919 0.79226 0.17185 0.0
C637 C 0.15717 0.79976 0.14503 0.0
C638 C 0.14837 0.77651 0.19892 0.0
C639 C 0.21173 0.75773 0.24494 0.0
H640 H 0.16758 0.70036 0.27838 0.0
C641 C 0.24266 0.70226 0.36879 0.0
C642 C 0.23997 0.67428 0.36605 0.0
C643 C 0.23132 0.71764 0.34276 0.0
C644 C 0.18022 0.71623 0.26923 0.0
H645 H 0.19891 0.79653 0.12583 0.0
H646 H 0.21474 0.76884 0.17234 0.0
H647 H 0.15045 0.7264 0.23032 0.0
H648 H 0.22304 0.64059 0.33368 0.0
H649 H 0.20317 0.66742 0.28841 0.0
H650 H 0.2417 0.74732 0.28327 0.0
C651 C 0.1936 0.77528 0.17274 0.0
C652 C 0.17028 0.73133 0.24193 0.0
C653 C 0.18441 0.79093 0.14573 0.0
C654 C 0.22517 0.66212 0.33696 0.0
C655 C 0.21378 0.67751 0.31095 0.0
C656 C 0.22161 0.74272 0.27227 0.0
C657 C 0.17578 0.76805 0.19987 0.0
C658 C 0.18599 0.75218 0.22932 0.0
C659 C 0.21696 0.70545 0.31332 0.0
C660 C 0.20603 0.72173 0.28471 0.0
H661 H 0.11807 0.79877 0.17217 0.0
H662 H 0.13416 0.7715 0.21958 0.0
H663 H 0.22424 0.77384 0.2362 0.0
H664 H 0.25352 0.71233 0.39113 0.0
H665 H 0.23374 0.73915 0.34576 0.0
C666 C 0.71956 0.72792 0.51382 0.0
C667 C 0.72316 0.70133 0.52219 0.0
C668 C 0.74171 0.7457 0.51596 0.0
C669 C 0.81756 0.7489 0.53073 0.0
H670 H 0.8001 0.81246 0.59158 0.0
C671 C 0.88427 0.79097 0.64626 0.0
C672 C 0.88793 0.81876 0.65224 0.0
C673 C 0.86735 0.78046 0.6187 0.0
C674 C 0.80532 0.79516 0.57389 0.0
H675 H 0.75262 0.67196 0.53734 0.0
H676 H 0.79088 0.70266 0.54168 0.0
H677 H 0.76339 0.78669 0.56164 0.0
H678 H 0.87738 0.85715 0.63247 0.0
H679 H 0.84661 0.8386 0.58538 0.0
H680 H 0.85934 0.75624 0.54572 0.0
C681 C 0.77137 0.71001 0.53283 0.0
C682 C 0.78429 0.7804 0.55658 0.0
C683 C 0.74935 0.69241 0.53075 0.0
C684 C 0.87466 0.83569 0.6292 0.0
C685 C 0.85726 0.82513 0.60201 0.0
C686 C 0.83852 0.76345 0.54843 0.0
C687 C 0.76772 0.73708 0.52656 0.0
C688 C 0.79007 0.75637 0.53624 0.0
C689 C 0.85327 0.79743 0.59679 0.0
C690 C 0.83243 0.78602 0.57139 0.0
H691 H 0.69942 0.7353 0.50763 0.0
H692 H 0.73826 0.76639 0.51076 0.0
H693 H 0.82276 0.73084 0.51455 0.0
H694 H 0.89353 0.77724 0.66376 0.0
H695 H 0.8642 0.75903 0.61568 0.0
C696 C 0.77665 0.23802 0.05643 0.0
C697 C 0.77768 0.21634 0.03065 0.0
C698 C 0.75605 0.25708 0.05512 0.0
C699 C 0.68516 0.25906 0.03133 0.0
H700 H 0.69349 0.33217 0.07081 0.0
C701 C 0.6207 0.30492 0.14404 0.0
C702 C 0.61838 0.33277 0.14981 0.0
C703 C 0.63379 0.29365 0.11347 0.0
C704 C 0.69048 0.31209 0.0588 0.0
H705 H 0.75894 0.19815 0.98224 0.0
H706 H 0.72257 0.23148 0.98019 0.0
H707 H 0.73271 0.30852 0.04442 0.0
H708 H 0.62484 0.3705 0.12623 0.0
H709 H 0.64776 0.35076 0.07266 0.0
H710 H 0.64329 0.2621 0.04764 0.0
C711 C 0.73783 0.23377 0.00123 0.0
C712 C 0.71308 0.29848 0.04396 0.0
C713 C 0.75866 0.2148 0.00236 0.0
C714 C 0.62687 0.34896 0.12273 0.0
C715 C 0.63994 0.33768 0.09208 0.0
C716 C 0.66251 0.2727 0.04611 0.0
C717 C 0.73589 0.25466 0.02821 0.0
C718 C 0.711 0.27134 0.03221 0.0
C719 C 0.64478 0.31002 0.08805 0.0
C720 C 0.66538 0.29879 0.06206 0.0
H721 H 0.79119 0.23974 0.07836 0.0
H722 H 0.75491 0.27271 0.07661 0.0
H723 H 0.68291 0.23814 0.02239 0.0
H724 H 0.61451 0.29194 0.16451 0.0
H725 H 0.63739 0.27229 0.1115 0.0
C726 C 0.31581 0.32796 0.67789 0.0
C727 C 0.30011 0.33465 0.64835 0.0
C728 C 0.30413 0.31463 0.70547 0.0
C729 C 0.24566 0.27213 0.72673 0.0
H730 H 0.26972 0.29006 0.82441 0.0
C731 C 0.21693 0.20781 0.84378 0.0
C732 C 0.20896 0.22199 0.87585 0.0
C733 C 0.22867 0.22126 0.81605 0.0
C734 C 0.26261 0.28488 0.79735 0.0
H735 H 0.25952 0.33298 0.62496 0.0
H736 H 0.23874 0.31009 0.67393 0.0
H737 H 0.2867 0.31562 0.77638 0.0
H738 H 0.20807 0.26105 0.90466 0.0
H739 H 0.22817 0.28447 0.85644 0.0
H740 H 0.22096 0.24179 0.7481 0.0
C741 C 0.26034 0.31482 0.67527 0.0
C742 C 0.27257 0.29939 0.7697 0.0
C743 C 0.27216 0.32813 0.6474 0.0
C744 C 0.21388 0.24963 0.88015 0.0
C745 C 0.22557 0.26302 0.85256 0.0
C746 C 0.23558 0.25764 0.7545 0.0
C747 C 0.27629 0.3078 0.70455 0.0
C748 C 0.26438 0.29312 0.73401 0.0
C749 C 0.23277 0.2491 0.81997 0.0
C750 C 0.24398 0.26384 0.79015 0.0
H751 H 0.33737 0.33249 0.67959 0.0
H752 H 0.31717 0.30915 0.72719 0.0
H753 H 0.23914 0.2666 0.69951 0.0
H754 H 0.21315 0.18654 0.83961 0.0
H755 H 0.23433 0.2099 0.79144 0.0
C756 C 0.66575 0.74598 0.42171 0.0
C757 C 0.67652 0.72273 0.43506 0.0
C758 C 0.68146 0.7609 0.39924 0.0
C759 C 0.72441 0.74471 0.32705 0.0
H760 H 0.73984 0.82012 0.32224 0.0
C761 C 0.76879 0.78383 0.19884 0.0
C762 C 0.76099 0.80939 0.1895 0.0
C763 C 0.76206 0.77507 0.23229 0.0
C764 C 0.73533 0.79904 0.32293 0.0
H765 H 0.71259 0.6979 0.43797 0.0
H766 H 0.73984 0.72371 0.39792 0.0
H767 H 0.723 0.8037 0.37822 0.0
H768 H 0.73987 0.84579 0.20861 0.0
H769 H 0.72617 0.82967 0.26539 0.0
H770 H 0.73431 0.73988 0.27159 0.0
C771 C 0.71949 0.73059 0.40534 0.0
C772 C 0.72607 0.78969 0.35514 0.0
C773 C 0.70396 0.71593 0.4283 0.0
C774 C 0.74582 0.82576 0.21437 0.0
C775 C 0.73847 0.81672 0.24748 0.0
C776 C 0.73295 0.75407 0.29473 0.0
C777 C 0.70787 0.7524 0.38938 0.0
C778 C 0.72057 0.76245 0.35731 0.0
C779 C 0.74662 0.79129 0.25702 0.0
C780 C 0.73846 0.78138 0.29209 0.0
H781 H 0.64458 0.75148 0.42651 0.0
H782 H 0.67207 0.77755 0.38695 0.0
H783 H 0.71961 0.72367 0.32796 0.0
H784 H 0.78015 0.77045 0.18034 0.0
H785 H 0.7692 0.75556 0.23871 0.0
C786 C 0.795 0.21734 0.92139 0.0
C787 C 0.79931 0.19008 0.91151 0.0
C788 C 0.78281 0.23391 0.89718 0.0
C789 C 0.73383 0.22945 0.82461 0.0
H790 H 0.76428 0.29428 0.79034 0.0
C791 C 0.67415 0.28819 0.72515 0.0
C792 C 0.68868 0.29474 0.6946 0.0
C793 C 0.68793 0.28014 0.75523 0.0
C794 C 0.75553 0.27625 0.79981 0.0
H795 H 0.79516 0.15906 0.86827 0.0
H796 H 0.77378 0.18771 0.82665 0.0
H797 H 0.78872 0.271 0.83653 0.0
H798 H 0.72912 0.29936 0.67232 0.0
H799 H 0.75335 0.28486 0.72497 0.0
H800 H 0.70111 0.23393 0.78774 0.0
C801 C 0.77976 0.19631 0.85293 0.0
C802 C 0.76938 0.26312 0.82635 0.0
C803 C 0.79213 0.17996 0.87675 0.0
C804 C 0.71741 0.29439 0.69549 0.0
C805 C 0.73126 0.28621 0.72567 0.0
C806 C 0.71993 0.24262 0.79853 0.0
C807 C 0.7745 0.22327 0.86306 0.0
C808 C 0.75886 0.2393 0.83837 0.0
C809 C 0.7166 0.27834 0.75551 0.0
C810 C 0.73076 0.26594 0.78538 0.0
H811 H 0.8006 0.2257 0.94791 0.0
H812 H 0.77896 0.25469 0.90552 0.0
H813 H 0.72526 0.21116 0.83357 0.0
H814 H 0.65202 0.28892 0.7256 0.0
H815 H 0.67607 0.27475 0.77807 0.0
C816 C 0.30095 0.27944 0.4882 0.0
C817 C 0.29621 0.304 0.4734 0.0
C818 C 0.28454 0.25721 0.47827 0.0
C819 C 0.25419 0.21036 0.43819 0.0
H820 H 0.17777 0.2257 0.42069 0.0
C821 C 0.18702 0.13979 0.34966 0.0
C822 C 0.15882 0.13803 0.35605 0.0
C823 C 0.20323 0.15776 0.37031 0.0
C824 C 0.19888 0.22086 0.42609 0.0
H825 H 0.27181 0.32411 0.43501 0.0
H826 H 0.24392 0.28543 0.41705 0.0
H827 H 0.20784 0.26122 0.44449 0.0
H828 H 0.12539 0.15337 0.38926 0.0
H829 H 0.15396 0.18485 0.42626 0.0
H830 H 0.24515 0.16989 0.42009 0.0
C831 C 0.2596 0.28343 0.43718 0.0
C832 C 0.21626 0.24136 0.43921 0.0
C833 C 0.27582 0.30554 0.44716 0.0
C834 C 0.14708 0.15453 0.38376 0.0
C835 C 0.16345 0.17247 0.40484 0.0
C836 C 0.23674 0.18976 0.42531 0.0
C837 C 0.26318 0.25924 0.45334 0.0
C838 C 0.24431 0.23657 0.44412 0.0
C839 C 0.19174 0.1744 0.39815 0.0
C840 C 0.20907 0.19498 0.41785 0.0
H841 H 0.31647 0.27771 0.50862 0.0
H842 H 0.28788 0.23881 0.4911 0.0
H843 H 0.27564 0.20596 0.44193 0.0
H844 H 0.19651 0.12755 0.32805 0.0
H845 H 0.22469 0.15914 0.3636 0.0
C846 C 0.25418 0.80697 0.06982 0.0
C847 C 0.22806 0.79701 0.06138 0.0
C848 C 0.27651 0.78959 0.06955 0.0
C849 C 0.29616 0.71766 0.04457 0.0
H850 H 0.35024 0.75246 0.98833 0.0
C851 C 0.37246 0.65819 0.95017 0.0
C852 C 0.37665 0.66888 0.91691 0.0
C853 C 0.35849 0.67295 0.97761 0.0
C854 C 0.33527 0.74236 0.00386 0.0
H855 H 0.20384 0.76144 0.0498 0.0
H856 H 0.24248 0.73123 0.04748 0.0
H857 H 0.31841 0.7793 0.02439 0.0
H858 H 0.36874 0.70274 0.88562 0.0
H859 H 0.3437 0.72807 0.93269 0.0
H860 H 0.31166 0.68061 0.02083 0.0
C861 C 0.24626 0.75207 0.05543 0.0
C862 C 0.31724 0.75783 0.02537 0.0
C863 C 0.22393 0.76939 0.05668 0.0
C864 C 0.36619 0.69425 0.91125 0.0
C865 C 0.35203 0.70883 0.9384 0.0
C866 C 0.31395 0.70214 0.02241 0.0
C867 C 0.27308 0.76219 0.05924 0.0
C868 C 0.29657 0.74575 0.04482 0.0
C869 C 0.34827 0.69855 0.9721 0.0
C870 C 0.33287 0.71439 0.00056 0.0
H871 H 0.25767 0.82833 0.07347 0.0
H872 H 0.2967 0.79802 0.07413 0.0
H873 H 0.28108 0.70756 0.05989 0.0
H874 H 0.38049 0.63868 0.95518 0.0
H875 H 0.35604 0.66446 0.00323 0.0
loop_
_geom_bond_atom_site_label_1
_geom_bond_atom_site_label_2
_geom_bond_distance
_geom_bond_site_symmetry_2
_ccdc_geom_bond_type
Zn0 O6 1.920 . S
Zn0 O12 1.898 . S
Zn0 O15 1.905 . S
Zn1 O9 1.905 . S
Zn1 O10 1.898 . S
Zn1 O18 1.920 . S
Zn2 O5 2.080 . S
Zn2 O8 2.114 . S
Zn2 O11 2.120 . S
Zn2 O13 2.120 . S
Zn2 O14 2.114 . S
Zn2 O17 2.080 . S
C3 O8 1.166 . S
C3 O9 1.182 1_554 S
C4 O10 1.167 . S
C4 O11 1.299 1_556 S
O5 Zn2 2.080 . S
O5 C19 1.305 . S
O6 Zn0 1.920 . S
O6 C19 1.234 . S
C7 O12 1.167 . S
C7 O13 1.299 . S
O8 Zn2 2.114 . S
O8 C3 1.166 . S
O9 Zn1 1.905 . S
O9 C3 1.182 1_556 S
O10 Zn1 1.898 . S
O10 C4 1.167 . S
O11 Zn2 2.120 . S
O11 C4 1.299 1_554 S
O12 Zn0 1.898 . S
O12 C7 1.167 . S
O13 Zn2 2.120 . S
O13 C7 1.299 . S
O14 Zn2 2.114 . S
O14 C16 1.166 . S
O15 Zn0 1.905 . S
O15 C16 1.182 . S
C16 O14 1.166 . S
C16 O15 1.182 . S
O17 Zn2 2.080 . S
O17 C20 1.305 . S
O18 Zn1 1.920 . S
O18 C20 1.234 1_556 S
C19 O5 1.305 . S
C19 O6 1.234 . S
C20 O17 1.305 . S
C20 O18 1.234 1_554 S
Zn21 O27 1.920 . S
Zn21 O33 1.898 . S
Zn21 O36 1.905 . S
Zn22 O30 1.905 . S
Zn22 O31 1.898 . S
Zn22 O39 1.920 . S
Zn23 O26 2.080 . S
Zn23 O29 2.114 . S
Zn23 O32 2.120 . S
Zn23 O34 2.120 . S
Zn23 O35 2.114 . S
Zn23 O38 2.080 . S
C24 O29 1.166 . S
C24 O30 1.182 . S
C25 O31 1.167 . S
C25 O32 1.299 . S
O26 Zn23 2.080 . S
O26 C40 1.305 . S
O27 Zn21 1.920 . S
O27 C40 1.234 . S
C28 O33 1.167 . S
C28 O34 1.299 . S
O29 Zn23 2.114 . S
O29 C24 1.166 . S
O30 Zn22 1.905 . S
O30 C24 1.182 . S
O31 Zn22 1.898 . S
O31 C25 1.167 . S
O32 Zn23 2.120 . S
O32 C25 1.299 . S
O33 Zn21 1.898 . S
O33 C28 1.167 . S
O34 Zn23 2.120 . S
O34 C28 1.299 . S
O35 Zn23 2.114 . S
O35 C37 1.166 . S
O36 Zn21 1.905 . S
O36 C37 1.182 . S
C37 O35 1.166 . S
C37 O36 1.182 . S
O38 Zn23 2.080 . S
O38 C41 1.305 . S
O39 Zn22 1.920 . S
O39 C41 1.234 . S
C40 O26 1.305 . S
C40 O27 1.234 . S
C41 O38 1.305 . S
C41 O39 1.234 . S
Zn42 O48 1.920 . S
Zn42 O54 1.898 . S
Zn42 O57 1.905 . S
Zn43 O51 1.905 . S
Zn43 O52 1.898 . S
Zn43 O60 1.920 . S
Zn44 O47 2.058 1_554 S
Zn44 O50 2.136 . S
Zn44 O53 2.130 . S
Zn44 O55 2.109 1_554 S
Zn44 O56 2.100 1_554 S
Zn44 O59 2.095 . S
C45 O50 1.166 . S
C45 O51 1.182 . S
C46 O52 1.167 . S
C46 O53 1.299 . S
O47 Zn44 2.058 1_556 S
O47 C61 1.305 . S
O48 Zn42 1.920 . S
O48 C61 1.234 . S
C49 O54 1.167 . S
C49 O55 1.299 . S
O50 Zn44 2.136 . S
O50 C45 1.166 . S
O51 Zn43 1.905 . S
O51 C45 1.182 . S
O52 Zn43 1.898 . S
O52 C46 1.167 . S
O53 Zn44 2.130 . S
O53 C46 1.299 . S
O54 Zn42 1.898 . S
O54 C49 1.167 . S
O55 Zn44 2.109 1_556 S
O55 C49 1.299 . S
O56 Zn44 2.100 1_556 S
O56 C58 1.166 . S
O57 Zn42 1.905 . S
O57 C58 1.182 . S
C58 O56 1.166 . S
C58 O57 1.182 . S
O59 Zn44 2.095 . S
O59 C62 1.305 . S
O60 Zn43 1.920 . S
O60 C62 1.234 . S
C61 O47 1.305 . S
C61 O48 1.234 . S
C62 O59 1.305 . S
C62 O60 1.234 . S
Zn63 O69 1.920 . S
Zn63 O75 1.898 . S
Zn63 O78 1.905 . S
Zn64 O72 1.905 . S
Zn64 O73 1.898 . S
Zn64 O81 1.920 . S
Zn65 O68 2.080 . S
Zn65 O71 2.114 . S
Zn65 O74 2.120 . S
Zn65 O76 2.120 . S
Zn65 O77 2.114 . S
Zn65 O80 2.080 . S
C66 O71 1.166 . S
C66 O72 1.182 . S
C67 O73 1.167 . S
C67 O74 1.299 . S
O68 Zn65 2.080 . S
O68 C82 1.305 . S
O69 Zn63 1.920 . S
O69 C82 1.234 . S
C70 O75 1.167 . S
C70 O76 1.299 . S
O71 Zn65 2.114 . S
O71 C66 1.166 . S
O72 Zn64 1.905 . S
O72 C66 1.182 . S
O73 Zn64 1.898 . S
O73 C67 1.167 . S
O74 Zn65 2.120 . S
O74 C67 1.299 . S
O75 Zn63 1.898 . S
O75 C70 1.167 . S
O76 Zn65 2.120 . S
O76 C70 1.299 . S
O77 Zn65 2.114 . S
O77 C79 1.166 . S
O78 Zn63 1.905 . S
O78 C79 1.182 . S
C79 O77 1.166 . S
C79 O78 1.182 . S
O80 Zn65 2.080 . S
O80 C83 1.305 . S
O81 Zn64 1.920 . S
O81 C83 1.234 . S
C82 O68 1.305 . S
C82 O69 1.234 . S
C83 O80 1.305 . S
C83 O81 1.234 . S
H84 C87 0.931 . S
H85 C90 0.928 . S
H86 C92 0.930 . S
C87 H84 0.931 . S
C87 C88 1.413 . S
C87 C89 1.360 . S
C88 C87 1.413 . S
C88 C92 1.429 . S
C89 C87 1.360 . S
C89 C90 1.372 . S
C90 H85 0.928 . S
C90 C89 1.372 . S
C90 C91 1.404 . S
C91 C90 1.404 . S
C91 C92 1.391 . S
C92 H86 0.930 . S
C92 C88 1.429 . S
C92 C91 1.391 . S
H93 C96 0.931 . S
H94 C99 0.928 . S
H95 C101 0.930 . S
C96 H93 0.931 . S
C96 C97 1.413 . S
C96 C98 1.360 . S
C97 C96 1.413 . S
C97 C101 1.429 . S
C98 C96 1.360 . S
C98 C99 1.372 . S
C99 H94 0.928 . S
C99 C98 1.372 . S
C99 C100 1.404 . S
C100 C99 1.404 . S
C100 C101 1.391 . S
C101 H95 0.930 . S
C101 C97 1.429 . S
C101 C100 1.391 . S
H102 C105 0.931 . S
H103 C108 0.928 . S
H104 C110 0.930 . S
C105 H102 0.931 . S
C105 C106 1.413 . S
C105 C107 1.360 . S
C106 C105 1.413 . S
C106 C110 1.429 . S
C107 C105 1.360 . S
C107 C108 1.372 . S
C108 H103 0.928 . S
C108 C107 1.372 . S
C108 C109 1.404 . S
C109 C108 1.404 . S
C109 C110 1.391 . S
C110 H104 0.930 . S
C110 C106 1.429 . S
C110 C109 1.391 . S
H111 C114 0.931 . S
H112 C117 0.928 . S
H113 C119 0.930 . S
C114 H111 0.931 . S
C114 C115 1.413 . S
C114 C116 1.360 . S
C115 C114 1.413 . S
C115 C119 1.429 . S
C116 C114 1.360 . S
C116 C117 1.372 . S
C117 H112 0.928 . S
C117 C116 1.372 . S
C117 C118 1.404 . S
C118 C117 1.404 . S
C118 C119 1.391 . S
C119 H113 0.930 . S
C119 C115 1.429 . S
C119 C118 1.391 . S
H120 C123 0.931 . S
H121 C126 0.928 . S
H122 C128 0.930 . S
C123 H120 0.931 . S
C123 C124 1.413 . S
C123 C125 1.360 . S
C124 C123 1.413 . S
C124 C128 1.429 . S
C125 C123 1.360 . S
C125 C126 1.372 . S
C126 H121 0.928 . S
C126 C125 1.372 . S
C126 C127 1.404 . S
C127 C126 1.404 . S
C127 C128 1.391 . S
C128 H122 0.930 . S
C128 C124 1.429 . S
C128 C127 1.391 . S
H129 C132 0.931 . S
H130 C135 0.928 . S
H131 C137 0.930 . S
C132 H129 0.931 . S
C132 C133 1.413 . S
C132 C134 1.360 . S
C133 C132 1.413 . S
C133 C137 1.429 . S
C134 C132 1.360 . S
C134 C135 1.372 . S
C135 H130 0.928 . S
C135 C134 1.372 . S
C135 C136 1.404 . S
C136 C135 1.404 . S
C136 C137 1.391 . S
C137 H131 0.930 . S
C137 C133 1.429 . S
C137 C136 1.391 . S
H138 C141 0.931 . S
H139 C144 0.928 . S
H140 C146 0.930 . S
C141 H138 0.931 . S
C141 C142 1.413 . S
C141 C143 1.360 . S
C142 C141 1.413 . S
C142 C146 1.429 . S
C143 C141 1.360 . S
C143 C144 1.372 . S
C144 H139 0.928 . S
C144 C143 1.372 . S
C144 C145 1.404 . S
C145 C144 1.404 . S
C145 C146 1.391 . S
C146 H140 0.930 . S
C146 C142 1.429 . S
C146 C145 1.391 . S
H147 C150 0.931 . S
H148 C153 0.928 . S
H149 C155 0.930 . S
C150 H147 0.931 . S
C150 C151 1.413 . S
C150 C152 1.360 . S
C151 C150 1.413 . S
C151 C155 1.429 . S
C152 C150 1.360 . S
C152 C153 1.372 . S
C153 H148 0.928 . S
C153 C152 1.372 . S
C153 C154 1.404 . S
C154 C153 1.404 . S
C154 C155 1.391 . S
C155 H149 0.930 . S
C155 C151 1.429 . S
C155 C154 1.391 . S
C156 C157 1.349 . S
C156 C158 1.327 . S
C156 H181 0.950 . S
C157 C156 1.349 . S
C157 C173 1.349 . S
C158 C156 1.327 . S
C158 C177 1.429 . S
C158 H182 0.950 . S
C159 C176 1.574 . S
C159 C178 1.368 . S
C159 H183 0.949 . S
H160 C164 0.949 . S
C161 C162 1.349 . S
C161 C163 1.327 . S
C161 H184 0.950 . S
C162 C161 1.349 . S
C162 C174 1.349 . S
C163 C161 1.327 . S
C163 C179 1.429 . S
C163 H185 0.950 . S
C164 H160 0.949 . S
C164 C172 1.574 1_545 S
C164 C180 1.368 . S
H165 C173 0.950 . S
H166 C171 0.950 . S
H167 C172 0.949 . S
H168 C174 0.950 . S
H169 C175 0.950 . S
H170 C176 0.949 . S
C171 H166 0.950 . S
C171 C173 1.327 . S
C171 C177 1.429 . S
C172 C164 1.574 1_565 S
C172 H167 0.949 . S
C172 C178 1.368 . S
C173 C157 1.349 . S
C173 H165 0.950 . S
C173 C171 1.327 . S
C174 C162 1.349 . S
C174 H168 0.950 . S
C174 C175 1.327 . S
C175 H169 0.950 . S
C175 C174 1.327 . S
C175 C179 1.429 . S
C176 C159 1.574 . S
C176 H170 0.949 . S
C176 C180 1.368 1_565 S
C177 C158 1.429 . S
C177 C171 1.429 . S
C177 C178 1.523 . S
C178 C159 1.368 . S
C178 C172 1.368 . S
C178 C177 1.523 . S
C179 C163 1.429 . S
C179 C175 1.429 . S
C179 C180 1.523 . S
C180 C164 1.368 . S
C180 C176 1.368 1_545 S
C180 C179 1.523 . S
H181 C156 0.950 . S
H182 C158 0.950 . S
H183 C159 0.949 . S
H184 C161 0.950 . S
H185 C163 0.950 . S
C186 C187 1.349 . S
C186 C188 1.327 . S
C186 H211 0.950 . S
C187 C186 1.349 . S
C187 C203 1.349 . S
C188 C186 1.327 . S
C188 C207 1.429 . S
C188 H212 0.950 . S
C189 C206 1.574 . S
C189 C208 1.368 . S
C189 H213 0.949 . S
H190 C194 0.949 . S
C191 C192 1.349 . S
C191 C193 1.327 . S
C191 H214 0.950 . S
C192 C191 1.349 . S
C192 C204 1.349 . S
C193 C191 1.327 . S
C193 C209 1.429 . S
C193 H215 0.950 . S
C194 H190 0.949 . S
C194 C202 1.574 . S
C194 C210 1.368 . S
H195 C203 0.950 . S
H196 C201 0.950 . S
H197 C202 0.949 . S
H198 C204 0.950 . S
H199 C205 0.950 . S
H200 C206 0.949 . S
C201 H196 0.950 . S
C201 C203 1.327 . S
C201 C207 1.429 . S
C202 C194 1.574 . S
C202 H197 0.949 . S
C202 C208 1.368 . S
C203 C187 1.349 . S
C203 H195 0.950 . S
C203 C201 1.327 . S
C204 C192 1.349 . S
C204 H198 0.950 . S
C204 C205 1.327 . S
C205 H199 0.950 . S
C205 C204 1.327 . S
C205 C209 1.429 . S
C206 C189 1.574 . S
C206 H200 0.949 . S
C206 C210 1.368 . S
C207 C188 1.429 . S
C207 C201 1.429 . S
C207 C208 1.523 . S
C208 C189 1.368 . S
C208 C202 1.368 . S
C208 C207 1.523 . S
C209 C193 1.429 . S
C209 C205 1.429 . S
C209 C210 1.523 . S
C210 C194 1.368 . S
C210 C206 1.368 . S
C210 C209 1.523 . S
H211 C186 0.950 . S
H212 C188 0.950 . S
H213 C189 0.949 . S
H214 C191 0.950 . S
H215 C193 0.950 . S
C216 C217 1.349 . S
C216 C218 1.327 . S
C216 H241 0.950 . S
C217 C216 1.349 . S
C217 C233 1.349 . S
C218 C216 1.327 . S
C218 C237 1.429 . S
C218 H242 0.950 . S
C219 C236 1.574 1_545 S
C219 C238 1.368 . S
C219 H243 0.949 . S
H220 C224 0.949 . S
C221 C222 1.349 . S
C221 C223 1.327 . S
C221 H244 0.950 . S
C222 C221 1.349 . S
C222 C234 1.349 . S
C223 C221 1.327 . S
C223 C239 1.429 . S
C223 H245 0.950 . S
C224 H220 0.949 . S
C224 C232 1.574 1_565 S
C224 C240 1.368 . S
H225 C233 0.950 . S
H226 C231 0.950 . S
H227 C232 0.949 . S
H228 C234 0.950 . S
H229 C235 0.950 . S
H230 C236 0.949 . S
C231 H226 0.950 . S
C231 C233 1.327 . S
C231 C237 1.429 . S
C232 C224 1.574 1_545 S
C232 H227 0.949 . S
C232 C238 1.368 . S
C233 C217 1.349 . S
C233 H225 0.950 . S
C233 C231 1.327 . S
C234 C222 1.349 . S
C234 H228 0.950 . S
C234 C235 1.327 . S
C235 H229 0.950 . S
C235 C234 1.327 . S
C235 C239 1.429 . S
C236 C219 1.574 1_565 S
C236 H230 0.949 . S
C236 C240 1.368 . S
C237 C218 1.429 . S
C237 C231 1.429 . S
C237 C238 1.523 . S
C238 C219 1.368 . S
C238 C232 1.368 . S
C238 C237 1.523 . S
C239 C223 1.429 . S
C239 C235 1.429 . S
C239 C240 1.523 . S
C240 C224 1.368 . S
C240 C236 1.368 . S
C240 C239 1.523 . S
H241 C216 0.950 . S
H242 C218 0.950 . S
H243 C219 0.949 . S
H244 C221 0.950 . S
H245 C223 0.950 . S
C246 C247 1.349 . S
C246 C248 1.327 . S
C246 H271 0.950 . S
C247 C246 1.349 . S
C247 C263 1.349 . S
C248 C246 1.327 . S
C248 C267 1.429 . S
C248 H272 0.950 . S
C249 C266 1.574 . S
C249 C268 1.368 . S
C249 H273 0.949 . S
H250 C254 0.949 . S
C251 C252 1.349 . S
C251 C253 1.327 . S
C251 H274 0.950 . S
C252 C251 1.349 . S
C252 C264 1.349 . S
C253 C251 1.327 . S
C253 C269 1.429 . S
C253 H275 0.950 . S
C254 H250 0.949 . S
C254 C262 1.574 . S
C254 C270 1.368 . S
H255 C263 0.950 . S
H256 C261 0.950 . S
H257 C262 0.949 . S
H258 C264 0.950 . S
H259 C265 0.950 . S
H260 C266 0.949 . S
C261 H256 0.950 . S
C261 C263 1.327 . S
C261 C267 1.429 . S
C262 C254 1.574 . S
C262 H257 0.949 . S
C262 C268 1.368 . S
C263 C247 1.349 . S
C263 H255 0.950 . S
C263 C261 1.327 . S
C264 C252 1.349 . S
C264 H258 0.950 . S
C264 C265 1.327 . S
C265 H259 0.950 . S
C265 C264 1.327 . S
C265 C269 1.429 . S
C266 C249 1.574 . S
C266 H260 0.949 . S
C266 C270 1.368 . S
C267 C248 1.429 . S
C267 C261 1.429 . S
C267 C268 1.523 . S
C268 C249 1.368 . S
C268 C262 1.368 . S
C268 C267 1.523 . S
C269 C253 1.429 . S
C269 C265 1.429 . S
C269 C270 1.523 . S
C270 C254 1.368 . S
C270 C266 1.368 . S
C270 C269 1.523 . S
H271 C246 0.950 . S
H272 C248 0.950 . S
H273 C249 0.949 . S
H274 C251 0.950 . S
H275 C253 0.950 . S
C276 C277 1.349 . S
C276 C278 1.327 . S
C276 H301 0.950 . S
C277 C276 1.349 . S
C277 C293 1.349 . S
C278 C276 1.327 . S
C278 C297 1.429 . S
C278 H302 0.950 . S
C279 C296 1.574 . S
C279 C298 1.368 . S
C279 H303 0.949 . S
H280 C284 0.949 . S
C281 C282 1.349 . S
C281 C283 1.327 . S
C281 H304 0.950 . S
C282 C281 1.349 . S
C282 C294 1.349 . S
C283 C281 1.327 . S
C283 C299 1.429 . S
C283 H305 0.950 . S
C284 H280 0.949 . S
C284 C292 1.574 . S
C284 C300 1.368 . S
H285 C293 0.950 . S
H286 C291 0.950 . S
H287 C292 0.949 . S
H288 C294 0.950 . S
H289 C295 0.950 . S
H290 C296 0.949 . S
C291 H286 0.950 . S
C291 C293 1.327 . S
C291 C297 1.429 . S
C292 C284 1.574 . S
C292 H287 0.949 . S
C292 C298 1.368 . S
C293 C277 1.349 . S
C293 H285 0.950 . S
C293 C291 1.327 . S
C294 C282 1.349 . S
C294 H288 0.950 . S
C294 C295 1.327 . S
C295 H289 0.950 . S
C295 C294 1.327 . S
C295 C299 1.429 . S
C296 C279 1.574 . S
C296 H290 0.949 . S
C296 C300 1.368 . S
C297 C278 1.429 . S
C297 C291 1.429 . S
C297 C298 1.523 . S
C298 C279 1.368 . S
C298 C292 1.368 . S
C298 C297 1.523 . S
C299 C283 1.429 . S
C299 C295 1.429 . S
C299 C300 1.523 . S
C300 C284 1.368 . S
C300 C296 1.368 . S
C300 C299 1.523 . S
H301 C276 0.950 . S
H302 C278 0.950 . S
H303 C279 0.949 . S
H304 C281 0.950 . S
H305 C283 0.950 . S
C306 C307 1.349 . S
C306 C308 1.327 . S
C306 H331 0.950 1_556 S
C307 C306 1.349 . S
C307 C323 1.349 . S
C308 C306 1.327 . S
C308 C327 1.429 . S
C308 H332 0.950 1_556 S
C309 C326 1.574 . S
C309 C328 1.368 1_455 S
C309 H333 0.949 1_455 S
H310 C314 0.949 . S
C311 C312 1.349 . S
C311 C313 1.327 . S
C311 H334 0.950 . S
C312 C311 1.349 . S
C312 C324 1.349 . S
C313 C311 1.327 . S
C313 C329 1.429 . S
C313 H335 0.950 . S
C314 H310 0.949 . S
C314 C322 1.574 . S
C314 C330 1.368 . S
H315 C323 0.950 . S
H316 C321 0.950 . S
H317 C322 0.949 1_554 S
H318 C324 0.950 . S
H319 C325 0.950 . S
H320 C326 0.949 . S
C321 H316 0.950 . S
C321 C323 1.327 . S
C321 C327 1.429 . S
C322 C314 1.574 . S
C322 H317 0.949 1_556 S
C322 C328 1.368 1_455 S
C323 C307 1.349 . S
C323 H315 0.950 . S
C323 C321 1.327 . S
C324 C312 1.349 . S
C324 H318 0.950 . S
C324 C325 1.327 . S
C325 H319 0.950 . S
C325 C324 1.327 . S
C325 C329 1.429 . S
C326 C309 1.574 . S
C326 H320 0.949 . S
C326 C330 1.368 . S
C327 C308 1.429 . S
C327 C321 1.429 . S
C327 C328 1.523 . S
C328 C309 1.368 1_655 S
C328 C322 1.368 1_655 S
C328 C327 1.523 . S
C329 C313 1.429 . S
C329 C325 1.429 . S
C329 C330 1.523 . S
C330 C314 1.368 . S
C330 C326 1.368 . S
C330 C329 1.523 . S
H331 C306 0.950 1_554 S
H332 C308 0.950 1_554 S
H333 C309 0.949 1_655 S
H334 C311 0.950 . S
H335 C313 0.950 . S
C336 C337 1.349 . S
C336 C338 1.327 . S
C336 H361 0.950 . S
C337 C336 1.349 . S
C337 C353 1.349 . S
C338 C336 1.327 . S
C338 C357 1.429 . S
C338 H362 0.950 . S
C339 C356 1.574 . S
C339 C358 1.368 . S
C339 H363 0.949 . S
H340 C344 0.949 . S
C341 C342 1.349 . S
C341 C343 1.327 . S
C341 H364 0.950 . S
C342 C341 1.349 . S
C342 C354 1.349 . S
C343 C341 1.327 . S
C343 C359 1.429 . S
C343 H365 0.950 . S
C344 H340 0.949 . S
C344 C352 1.574 . S
C344 C360 1.368 . S
H345 C353 0.950 . S
H346 C351 0.950 . S
H347 C352 0.949 . S
H348 C354 0.950 . S
H349 C355 0.950 . S
H350 C356 0.949 . S
C351 H346 0.950 . S
C351 C353 1.327 . S
C351 C357 1.429 . S
C352 C344 1.574 . S
C352 H347 0.949 . S
C352 C358 1.368 . S
C353 C337 1.349 . S
C353 H345 0.950 . S
C353 C351 1.327 . S
C354 C342 1.349 . S
C354 H348 0.950 . S
C354 C355 1.327 . S
C355 H349 0.950 . S
C355 C354 1.327 . S
C355 C359 1.429 . S
C356 C339 1.574 . S
C356 H350 0.949 . S
C356 C360 1.368 . S
C357 C338 1.429 . S
C357 C351 1.429 . S
C357 C358 1.523 . S
C358 C339 1.368 . S
C358 C352 1.368 . S
C358 C357 1.523 . S
C359 C343 1.429 . S
C359 C355 1.429 . S
C359 C360 1.523 . S
C360 C344 1.368 . S
C360 C356 1.368 . S
C360 C359 1.523 . S
H361 C336 0.950 . S
H362 C338 0.950 . S
H363 C339 0.949 . S
H364 C341 0.950 . S
H365 C343 0.950 . S
C366 C367 1.349 . S
C366 C368 1.327 . S
C366 H391 0.950 . S
C367 C366 1.349 . S
C367 C383 1.349 . S
C368 C366 1.327 . S
C368 C387 1.429 . S
C368 H392 0.950 . S
C369 C386 1.574 . S
C369 C388 1.368 . S
C369 H393 0.949 . S
H370 C374 0.949 . S
C371 C372 1.349 . S
C371 C373 1.327 1_655 S
C371 H394 0.950 . S
C372 C371 1.349 . S
C372 C384 1.349 . S
C373 C371 1.327 1_455 S
C373 C389 1.429 . S
C373 H395 0.950 . S
C374 H370 0.949 . S
C374 C382 1.574 . S
C374 C390 1.368 . S
H375 C383 0.950 . S
H376 C381 0.950 . S
H377 C382 0.949 . S
H378 C384 0.950 . S
H379 C385 0.950 . S
H380 C386 0.949 . S
C381 H376 0.950 . S
C381 C383 1.327 . S
C381 C387 1.429 . S
C382 C374 1.574 . S
C382 H377 0.949 . S
C382 C388 1.368 . S
C383 C367 1.349 . S
C383 H375 0.950 . S
C383 C381 1.327 . S
C384 C372 1.349 . S
C384 H378 0.950 . S
C384 C385 1.327 . S
C385 H379 0.950 . S
C385 C384 1.327 . S
C385 C389 1.429 1_655 S
C386 C369 1.574 . S
C386 H380 0.949 . S
C386 C390 1.368 . S
C387 C368 1.429 . S
C387 C381 1.429 . S
C387 C388 1.523 . S
C388 C369 1.368 . S
C388 C382 1.368 . S
C388 C387 1.523 . S
C389 C373 1.429 . S
C389 C385 1.429 1_455 S
C389 C390 1.523 . S
C390 C374 1.368 . S
C390 C386 1.368 . S
C390 C389 1.523 . S
H391 C366 0.950 . S
H392 C368 0.950 . S
H393 C369 0.949 . S
H394 C371 0.950 . S
H395 C373 0.950 . S
C396 C397 1.349 . S
C396 C398 1.327 . S
C396 H421 0.950 . S
C397 C396 1.349 . S
C397 C413 1.349 . S
C398 C396 1.327 . S
C398 C417 1.429 . S
C398 H422 0.950 . S
C399 C416 1.574 1_545 S
C399 C418 1.368 . S
C399 H423 0.949 . S
H400 C404 0.949 . S
C401 C402 1.349 . S
C401 C403 1.327 . S
C401 H424 0.950 . S
C402 C401 1.349 . S
C402 C414 1.349 . S
C403 C401 1.327 . S
C403 C419 1.429 . S
C403 H425 0.950 . S
C404 H400 0.949 . S
C404 C412 1.574 . S
C404 C420 1.368 . S
H405 C413 0.950 . S
H406 C411 0.950 . S
H407 C412 0.949 . S
H408 C414 0.950 . S
H409 C415 0.950 . S
H410 C416 0.949 . S
C411 H406 0.950 . S
C411 C413 1.327 . S
C411 C417 1.429 . S
C412 C404 1.574 . S
C412 H407 0.949 . S
C412 C418 1.368 1_565 S
C413 C397 1.349 . S
C413 H405 0.950 . S
C413 C411 1.327 . S
C414 C402 1.349 . S
C414 H408 0.950 . S
C414 C415 1.327 . S
C415 H409 0.950 . S
C415 C414 1.327 . S
C415 C419 1.429 . S
C416 C399 1.574 1_565 S
C416 H410 0.949 . S
C416 C420 1.368 . S
C417 C398 1.429 . S
C417 C411 1.429 . S
C417 C418 1.523 . S
C418 C399 1.368 . S
C418 C412 1.368 1_545 S
C418 C417 1.523 . S
C419 C403 1.429 . S
C419 C415 1.429 . S
C419 C420 1.523 . S
C420 C404 1.368 . S
C420 C416 1.368 . S
C420 C419 1.523 . S
H421 C396 0.950 . S
H422 C398 0.950 . S
H423 C399 0.949 . S
H424 C401 0.950 . S
H425 C403 0.950 . S
C426 C427 1.349 . S
C426 C428 1.327 . S
C426 H451 0.950 . S
C427 C426 1.349 . S
C427 C443 1.349 . S
C428 C426 1.327 . S
C428 C447 1.429 . S
C428 H452 0.950 . S
C429 C446 1.574 . S
C429 C448 1.368 . S
C429 H453 0.949 . S
H430 C434 0.949 . S
C431 C432 1.349 . S
C431 C433 1.327 . S
C431 H454 0.950 . S
C432 C431 1.349 . S
C432 C444 1.349 . S
C433 C431 1.327 . S
C433 C449 1.429 . S
C433 H455 0.950 . S
C434 H430 0.949 . S
C434 C442 1.574 . S
C434 C450 1.368 . S
H435 C443 0.950 . S
H436 C441 0.950 . S
H437 C442 0.949 . S
H438 C444 0.950 . S
H439 C445 0.950 . S
H440 C446 0.949 . S
C441 H436 0.950 . S
C441 C443 1.327 . S
C441 C447 1.429 . S
C442 C434 1.574 . S
C442 H437 0.949 . S
C442 C448 1.368 . S
C443 C427 1.349 . S
C443 H435 0.950 . S
C443 C441 1.327 . S
C444 C432 1.349 . S
C444 H438 0.950 . S
C444 C445 1.327 . S
C445 H439 0.950 . S
C445 C444 1.327 . S
C445 C449 1.429 . S
C446 C429 1.574 . S
C446 H440 0.949 . S
C446 C450 1.368 . S
C447 C428 1.429 . S
C447 C441 1.429 . S
C447 C448 1.523 . S
C448 C429 1.368 . S
C448 C442 1.368 . S
C448 C447 1.523 . S
C449 C433 1.429 . S
C449 C445 1.429 . S
C449 C450 1.523 . S
C450 C434 1.368 . S
C450 C446 1.368 . S
C450 C449 1.523 . S
H451 C426 0.950 . S
H452 C428 0.950 . S
H453 C429 0.949 . S
H454 C431 0.950 . S
H455 C433 0.950 . S
C456 C457 1.349 1_556 S
C456 C458 1.327 . S
C456 H481 0.950 . S
C457 C456 1.349 1_554 S
C457 C473 1.349 . S
C458 C456 1.327 . S
C458 C477 1.429 . S
C458 H482 0.950 . S
C459 C476 1.574 . S
C459 C478 1.368 . S
C459 H483 0.949 1_556 S
H460 C464 0.949 . S
C461 C462 1.349 . S
C461 C463 1.327 . S
C461 H484 0.950 . S
C462 C461 1.349 . S
C462 C474 1.349 . S
C463 C461 1.327 . S
C463 C479 1.429 . S
C463 H485 0.950 . S
C464 H460 0.949 . S
C464 C472 1.574 . S
C464 C480 1.368 . S
H465 C473 0.950 . S
H466 C471 0.950 . S
H467 C472 0.976 . S
H468 C474 0.950 . S
H469 C475 0.950 . S
H470 C476 0.949 . S
C471 H466 0.950 . S
C471 C473 1.327 . S
C471 C477 1.429 1_554 S
C472 C464 1.574 . S
C472 H467 0.976 . S
C472 C478 1.368 . S
C473 C457 1.349 . S
C473 H465 0.950 . S
C473 C471 1.327 . S
C474 C462 1.349 . S
C474 H468 0.950 . S
C474 C475 1.327 . S
C475 H469 0.950 . S
C475 C474 1.327 . S
C475 C479 1.429 . S
C476 C459 1.574 . S
C476 H470 0.949 . S
C476 C480 1.368 . S
C477 C458 1.429 . S
C477 C471 1.429 1_556 S
C477 C478 1.523 1_565 S
C478 C459 1.368 . S
C478 C472 1.368 . S
C478 C477 1.523 1_545 S
C479 C463 1.429 . S
C479 C475 1.429 . S
C479 C480 1.523 . S
C480 C464 1.368 . S
C480 C476 1.368 . S
C480 C479 1.523 . S
H481 C456 0.950 . S
H482 C458 0.950 . S
H483 C459 0.949 1_554 S
H484 C461 0.950 . S
H485 C463 0.950 . S
C486 C487 1.349 . S
C486 C488 1.327 . S
C486 H511 0.950 . S
C487 C486 1.349 . S
C487 C503 1.349 . S
C488 C486 1.327 . S
C488 C507 1.429 . S
C488 H512 0.950 . S
C489 C506 1.574 . S
C489 C508 1.368 . S
C489 H513 0.949 . S
H490 C494 0.949 . S
C491 C492 1.349 . S
C491 C493 1.327 . S
C491 H514 0.950 . S
C492 C491 1.349 . S
C492 C504 1.349 . S
C493 C491 1.327 . S
C493 C509 1.429 . S
C493 H515 0.950 . S
C494 H490 0.949 . S
C494 C502 1.574 . S
C494 C510 1.368 . S
H495 C503 0.950 . S
H496 C501 0.950 . S
H497 C502 0.949 . S
H498 C504 0.950 . S
H499 C505 0.950 . S
H500 C506 0.949 . S
C501 H496 0.950 . S
C501 C503 1.327 . S
C501 C507 1.429 . S
C502 C494 1.574 . S
C502 H497 0.949 . S
C502 C508 1.368 . S
C503 C487 1.349 . S
C503 H495 0.950 . S
C503 C501 1.327 . S
C504 C492 1.349 . S
C504 H498 0.950 . S
C504 C505 1.327 . S
C505 H499 0.950 . S
C505 C504 1.327 . S
C505 C509 1.429 . S
C506 C489 1.574 . S
C506 H500 0.949 . S
C506 C510 1.368 . S
C507 C488 1.429 . S
C507 C501 1.429 . S
C507 C508 1.523 . S
C508 C489 1.368 . S
C508 C502 1.368 . S
C508 C507 1.523 . S
C509 C493 1.429 . S
C509 C505 1.429 . S
C509 C510 1.523 . S
C510 C494 1.368 . S
C510 C506 1.368 . S
C510 C509 1.523 . S
H511 C486 0.950 . S
H512 C488 0.950 . S
H513 C489 0.949 . S
H514 C491 0.950 . S
H515 C493 0.950 . S
C516 C517 1.349 . S
C516 C518 1.327 . S
C516 H541 0.950 . S
C517 C516 1.349 . S
C517 C533 1.349 . S
C518 C516 1.327 . S
C518 C537 1.429 . S
C518 H542 0.950 . S
C519 C536 1.574 . S
C519 C538 1.368 . S
C519 H543 0.949 . S
H520 C524 0.949 . S
C521 C522 1.349 . S
C521 C523 1.327 . S
C521 H544 0.950 . S
C522 C521 1.349 . S
C522 C534 1.349 . S
C523 C521 1.327 . S
C523 C539 1.429 . S
C523 H545 0.950 . S
C524 H520 0.949 . S
C524 C532 1.574 . S
C524 C540 1.368 . S
H525 C533 0.950 . S
H526 C531 0.950 . S
H527 C532 0.949 . S
H528 C534 0.950 . S
H529 C535 0.950 . S
H530 C536 0.949 . S
C531 H526 0.950 . S
C531 C533 1.327 . S
C531 C537 1.429 . S
C532 C524 1.574 . S
C532 H527 0.949 . S
C532 C538 1.368 . S
C533 C517 1.349 . S
C533 H525 0.950 . S
C533 C531 1.327 . S
C534 C522 1.349 . S
C534 H528 0.950 . S
C534 C535 1.327 . S
C535 H529 0.950 . S
C535 C534 1.327 . S
C535 C539 1.429 . S
C536 C519 1.574 . S
C536 H530 0.949 . S
C536 C540 1.368 . S
C537 C518 1.429 . S
C537 C531 1.429 . S
C537 C538 1.523 . S
C538 C519 1.368 . S
C538 C532 1.368 . S
C538 C537 1.523 . S
C539 C523 1.429 . S
C539 C535 1.429 . S
C539 C540 1.523 . S
C540 C524 1.368 . S
C540 C536 1.368 . S
C540 C539 1.523 . S
H541 C516 0.950 . S
H542 C518 0.950 . S
H543 C519 0.949 . S
H544 C521 0.950 . S
H545 C523 0.950 . S
C546 C547 1.349 . S
C546 C548 1.327 . S
C546 H571 0.950 . S
C547 C546 1.349 . S
C547 C563 1.349 . S
C548 C546 1.327 . S
C548 C567 1.429 . S
C548 H572 0.950 . S
C549 C566 1.574 . S
C549 C568 1.368 . S
C549 H573 0.949 . S
H550 C554 0.949 . S
C551 C552 1.349 . S
C551 C553 1.327 . S
C551 H574 0.950 . S
C552 C551 1.349 . S
C552 C564 1.349 . S
C553 C551 1.327 . S
C553 C569 1.429 . S
C553 H575 0.950 . S
C554 H550 0.949 . S
C554 C562 1.574 . S
C554 C570 1.368 . S
H555 C563 0.950 . S
H556 C561 0.950 . S
H557 C562 0.949 . S
H558 C564 0.950 . S
H559 C565 0.950 . S
H560 C566 0.949 . S
C561 H556 0.950 . S
C561 C563 1.327 . S
C561 C567 1.429 . S
C562 C554 1.574 . S
C562 H557 0.949 . S
C562 C568 1.368 . S
C563 C547 1.349 . S
C563 H555 0.950 . S
C563 C561 1.327 . S
C564 C552 1.349 . S
C564 H558 0.950 . S
C564 C565 1.327 . S
C565 H559 0.950 . S
C565 C564 1.327 . S
C565 C569 1.429 . S
C566 C549 1.574 . S
C566 H560 0.949 . S
C566 C570 1.368 . S
C567 C548 1.429 . S
C567 C561 1.429 . S
C567 C568 1.523 1_455 S
C568 C549 1.368 . S
C568 C562 1.368 . S
C568 C567 1.523 1_655 S
C569 C553 1.429 . S
C569 C565 1.429 . S
C569 C570 1.523 . S
C570 C554 1.368 . S
C570 C566 1.368 . S
C570 C569 1.523 . S
H571 C546 0.950 . S
H572 C548 0.950 . S
H573 C549 0.949 . S
H574 C551 0.950 . S
H575 C553 0.950 . S
C576 C577 1.349 . S
C576 C578 1.327 . S
C576 H601 0.950 . S
C577 C576 1.349 . S
C577 C593 1.349 . S
C578 C576 1.327 . S
C578 C597 1.429 . S
C578 H602 0.950 . S
C579 C596 1.574 . S
C579 C598 1.368 . S
C579 H603 0.949 . S
H580 C584 0.949 . S
C581 C582 1.349 . S
C581 C583 1.327 . S
C581 H604 0.950 . S
C582 C581 1.349 . S
C582 C594 1.349 . S
C583 C581 1.327 . S
C583 C599 1.429 . S
C583 H605 0.950 . S
C584 H580 0.949 . S
C584 C592 1.574 . S
C584 C600 1.368 . S
H585 C593 0.950 . S
H586 C591 0.950 . S
H587 C592 0.949 . S
H588 C594 0.950 . S
H589 C595 0.950 . S
H590 C596 0.949 . S
C591 H586 0.950 . S
C591 C593 1.327 . S
C591 C597 1.429 . S
C592 C584 1.574 . S
C592 H587 0.949 . S
C592 C598 1.368 . S
C593 C577 1.349 . S
C593 H585 0.950 . S
C593 C591 1.327 . S
C594 C582 1.349 . S
C594 H588 0.950 . S
C594 C595 1.327 . S
C595 H589 0.950 . S
C595 C594 1.327 . S
C595 C599 1.429 . S
C596 C579 1.574 . S
C596 H590 0.949 . S
C596 C600 1.368 . S
C597 C578 1.429 . S
C597 C591 1.429 . S
C597 C598 1.523 . S
C598 C579 1.368 . S
C598 C592 1.368 . S
C598 C597 1.523 . S
C599 C583 1.429 . S
C599 C595 1.429 . S
C599 C600 1.523 . S
C600 C584 1.368 . S
C600 C596 1.368 . S
C600 C599 1.523 . S
H601 C576 0.950 . S
H602 C578 0.950 . S
H603 C579 0.949 . S
H604 C581 0.950 . S
H605 C583 0.950 . S
C606 C607 1.349 . S
C606 C608 1.327 . S
C606 H631 0.950 . S
C607 C606 1.349 . S
C607 C623 1.349 . S
C608 C606 1.327 . S
C608 C627 1.429 . S
C608 H632 0.950 . S
C609 C626 1.574 1_655 S
C609 C628 1.368 . S
C609 H633 0.949 . S
H610 C614 0.949 . S
C611 C612 1.349 . S
C611 C613 1.327 . S
C611 H634 0.950 . S
C612 C611 1.349 . S
C612 C624 1.349 . S
C613 C611 1.327 . S
C613 C629 1.429 . S
C613 H635 0.950 . S
C614 H610 0.949 . S
C614 C622 1.574 . S
C614 C630 1.368 1_655 S
H615 C623 0.950 . S
H616 C621 0.950 . S
H617 C622 0.949 . S
H618 C624 0.950 . S
H619 C625 0.950 . S
H620 C626 0.949 . S
C621 H616 0.950 . S
C621 C623 1.327 . S
C621 C627 1.429 . S
C622 C614 1.574 . S
C622 H617 0.949 . S
C622 C628 1.368 . S
C623 C607 1.349 . S
C623 H615 0.950 . S
C623 C621 1.327 . S
C624 C612 1.349 . S
C624 H618 0.950 . S
C624 C625 1.327 . S
C625 H619 0.950 . S
C625 C624 1.327 . S
C625 C629 1.429 . S
C626 C609 1.574 1_455 S
C626 H620 0.949 . S
C626 C630 1.368 . S
C627 C608 1.429 . S
C627 C621 1.429 . S
C627 C628 1.523 . S
C628 C609 1.368 . S
C628 C622 1.368 . S
C628 C627 1.523 . S
C629 C613 1.429 . S
C629 C625 1.429 . S
C629 C630 1.523 . S
C630 C614 1.368 1_455 S
C630 C626 1.368 . S
C630 C629 1.523 . S
H631 C606 0.950 . S
H632 C608 0.950 . S
H633 C609 0.949 . S
H634 C611 0.950 . S
H635 C613 0.950 . S
C636 C637 1.349 . S
C636 C638 1.327 . S
C636 H661 0.950 . S
C637 C636 1.349 . S
C637 C653 1.349 . S
C638 C636 1.327 . S
C638 C657 1.429 . S
C638 H662 0.950 . S
C639 C656 1.574 . S
C639 C658 1.368 . S
C639 H663 0.949 . S
H640 C644 0.949 . S
C641 C642 1.349 . S
C641 C643 1.327 . S
C641 H664 0.950 . S
C642 C641 1.349 . S
C642 C654 1.349 . S
C643 C641 1.327 . S
C643 C659 1.429 . S
C643 H665 0.950 . S
C644 H640 0.949 . S
C644 C652 1.574 . S
C644 C660 1.368 . S
H645 C653 0.950 . S
H646 C651 0.950 . S
H647 C652 0.949 . S
H648 C654 0.950 . S
H649 C655 0.950 . S
H650 C656 0.949 . S
C651 H646 0.950 . S
C651 C653 1.327 . S
C651 C657 1.429 . S
C652 C644 1.574 . S
C652 H647 0.949 . S
C652 C658 1.368 . S
C653 C637 1.349 . S
C653 H645 0.950 . S
C653 C651 1.327 . S
C654 C642 1.349 . S
C654 H648 0.950 . S
C654 C655 1.327 . S
C655 H649 0.950 . S
C655 C654 1.327 . S
C655 C659 1.429 . S
C656 C639 1.574 . S
C656 H650 0.949 . S
C656 C660 1.368 . S
C657 C638 1.429 . S
C657 C651 1.429 . S
C657 C658 1.523 . S
C658 C639 1.368 . S
C658 C652 1.368 . S
C658 C657 1.523 . S
C659 C643 1.429 . S
C659 C655 1.429 . S
C659 C660 1.523 . S
C660 C644 1.368 . S
C660 C656 1.368 . S
C660 C659 1.523 . S
H661 C636 0.950 . S
H662 C638 0.950 . S
H663 C639 0.949 . S
H664 C641 0.950 . S
H665 C643 0.950 . S
C666 C667 1.349 . S
C666 C668 1.327 . S
C666 H691 0.950 . S
C667 C666 1.349 . S
C667 C683 1.349 . S
C668 C666 1.327 . S
C668 C687 1.429 . S
C668 H692 0.950 . S
C669 C686 1.574 . S
C669 C688 1.368 . S
C669 H693 0.949 . S
H670 C674 0.949 . S
C671 C672 1.349 . S
C671 C673 1.327 . S
C671 H694 0.950 . S
C672 C671 1.349 . S
C672 C684 1.349 . S
C673 C671 1.327 . S
C673 C689 1.429 . S
C673 H695 0.950 . S
C674 H670 0.949 . S
C674 C682 1.574 . S
C674 C690 1.368 . S
H675 C683 0.950 . S
H676 C681 0.950 . S
H677 C682 0.949 . S
H678 C684 0.950 . S
H679 C685 0.950 . S
H680 C686 0.949 . S
C681 H676 0.950 . S
C681 C683 1.327 . S
C681 C687 1.429 . S
C682 C674 1.574 . S
C682 H677 0.949 . S
C682 C688 1.368 . S
C683 C667 1.349 . S
C683 H675 0.950 . S
C683 C681 1.327 . S
C684 C672 1.349 . S
C684 H678 0.950 . S
C684 C685 1.327 . S
C685 H679 0.950 . S
C685 C684 1.327 . S
C685 C689 1.429 . S
C686 C669 1.574 . S
C686 H680 0.949 . S
C686 C690 1.368 . S
C687 C668 1.429 . S
C687 C681 1.429 . S
C687 C688 1.523 . S
C688 C669 1.368 . S
C688 C682 1.368 . S
C688 C687 1.523 . S
C689 C673 1.429 . S
C689 C685 1.429 . S
C689 C690 1.523 . S
C690 C674 1.368 . S
C690 C686 1.368 . S
C690 C689 1.523 . S
H691 C666 0.950 . S
H692 C668 0.950 . S
H693 C669 0.949 . S
H694 C671 0.950 . S
H695 C673 0.950 . S
C696 C697 1.349 . S
C696 C698 1.327 . S
C696 H721 0.950 . S
C697 C696 1.349 . S
C697 C713 1.349 . S
C698 C696 1.327 . S
C698 C717 1.429 . S
C698 H722 0.950 . S
C699 C716 1.574 . S
C699 C718 1.368 . S
C699 H723 0.949 . S
H700 C704 0.949 . S
C701 C702 1.349 . S
C701 C703 1.327 . S
C701 H724 0.950 . S
C702 C701 1.349 . S
C702 C714 1.349 . S
C703 C701 1.327 . S
C703 C719 1.429 . S
C703 H725 0.950 . S
C704 H700 0.949 . S
C704 C712 1.574 . S
C704 C720 1.368 . S
H705 C713 0.950 . S
H706 C711 0.950 . S
H707 C712 0.949 . S
H708 C714 0.950 . S
H709 C715 0.950 . S
H710 C716 0.949 . S
C711 H706 0.950 . S
C711 C713 1.327 . S
C711 C717 1.429 . S
C712 C704 1.574 . S
C712 H707 0.949 . S
C712 C718 1.368 . S
C713 C697 1.349 . S
C713 H705 0.950 . S
C713 C711 1.327 . S
C714 C702 1.349 . S
C714 H708 0.950 . S
C714 C715 1.327 . S
C715 H709 0.950 . S
C715 C714 1.327 . S
C715 C719 1.429 . S
C716 C699 1.574 . S
C716 H710 0.949 . S
C716 C720 1.368 . S
C717 C698 1.429 . S
C717 C711 1.429 . S
C717 C718 1.523 . S
C718 C699 1.368 . S
C718 C712 1.368 . S
C718 C717 1.523 . S
C719 C703 1.429 . S
C719 C715 1.429 . S
C719 C720 1.523 . S
C720 C704 1.368 . S
C720 C716 1.368 . S
C720 C719 1.523 . S
H721 C696 0.950 . S
H722 C698 0.950 . S
H723 C699 0.949 . S
H724 C701 0.950 . S
H725 C703 0.950 . S
C726 C727 1.349 . S
C726 C728 1.327 . S
C726 H751 0.950 . S
C727 C726 1.349 . S
C727 C743 1.349 . S
C728 C726 1.327 . S
C728 C747 1.429 . S
C728 H752 0.950 . S
C729 C746 1.574 . S
C729 C748 1.368 . S
C729 H753 0.949 . S
H730 C734 0.949 . S
C731 C732 1.349 . S
C731 C733 1.327 . S
C731 H754 0.950 . S
C732 C731 1.349 . S
C732 C744 1.349 . S
C733 C731 1.327 . S
C733 C749 1.429 . S
C733 H755 0.950 . S
C734 H730 0.949 . S
C734 C742 1.574 . S
C734 C750 1.368 . S
H735 C743 0.950 . S
H736 C741 0.950 . S
H737 C742 0.949 . S
H738 C744 0.950 . S
H739 C745 0.950 . S
H740 C746 0.949 . S
C741 H736 0.950 . S
C741 C743 1.327 . S
C741 C747 1.429 . S
C742 C734 1.574 . S
C742 H737 0.949 . S
C742 C748 1.368 . S
C743 C727 1.349 . S
C743 H735 0.950 . S
C743 C741 1.327 . S
C744 C732 1.349 . S
C744 H738 0.950 . S
C744 C745 1.327 . S
C745 H739 0.950 . S
C745 C744 1.327 . S
C745 C749 1.429 . S
C746 C729 1.574 . S
C746 H740 0.949 . S
C746 C750 1.368 . S
C747 C728 1.429 . S
C747 C741 1.429 . S
C747 C748 1.523 . S
C748 C729 1.368 . S
C748 C742 1.368 . S
C748 C747 1.523 . S
C749 C733 1.429 . S
C749 C745 1.429 . S
C749 C750 1.523 . S
C750 C734 1.368 . S
C750 C746 1.368 . S
C750 C749 1.523 . S
H751 C726 0.950 . S
H752 C728 0.950 . S
H753 C729 0.949 . S
H754 C731 0.950 . S
H755 C733 0.950 . S
C756 C757 1.349 . S
C756 C758 1.327 . S
C756 H781 0.950 . S
C757 C756 1.349 . S
C757 C773 1.349 . S
C758 C756 1.327 . S
C758 C777 1.429 . S
C758 H782 0.950 . S
C759 C776 1.574 . S
C759 C778 1.368 . S
C759 H783 0.949 . S
H760 C764 0.949 . S
C761 C762 1.349 . S
C761 C763 1.327 . S
C761 H784 0.950 . S
C762 C761 1.349 . S
C762 C774 1.349 . S
C763 C761 1.327 . S
C763 C779 1.429 . S
C763 H785 0.950 . S
C764 H760 0.949 . S
C764 C772 1.574 . S
C764 C780 1.368 . S
H765 C773 0.950 . S
H766 C771 0.950 . S
H767 C772 0.949 . S
H768 C774 0.950 . S
H769 C775 0.950 . S
H770 C776 0.949 . S
C771 H766 0.950 . S
C771 C773 1.327 . S
C771 C777 1.429 . S
C772 C764 1.574 . S
C772 H767 0.949 . S
C772 C778 1.368 . S
C773 C757 1.349 . S
C773 H765 0.950 . S
C773 C771 1.327 . S
C774 C762 1.349 . S
C774 H768 0.950 . S
C774 C775 1.327 . S
C775 H769 0.950 . S
C775 C774 1.327 . S
C775 C779 1.429 . S
C776 C759 1.574 . S
C776 H770 0.949 . S
C776 C780 1.368 . S
C777 C758 1.429 . S
C777 C771 1.429 . S
C777 C778 1.523 . S
C778 C759 1.368 . S
C778 C772 1.368 . S
C778 C777 1.523 . S
C779 C763 1.429 . S
C779 C775 1.429 . S
C779 C780 1.523 . S
C780 C764 1.368 . S
C780 C776 1.368 . S
C780 C779 1.523 . S
H781 C756 0.950 . S
H782 C758 0.950 . S
H783 C759 0.949 . S
H784 C761 0.950 . S
H785 C763 0.950 . S
C786 C787 1.349 . S
C786 C788 1.327 . S
C786 H811 0.950 . S
C787 C786 1.349 . S
C787 C803 1.349 . S
C788 C786 1.327 . S
C788 C807 1.429 . S
C788 H812 0.950 . S
C789 C806 1.574 . S
C789 C808 1.368 . S
C789 H813 0.949 . S
H790 C794 0.949 . S
C791 C792 1.349 . S
C791 C793 1.327 . S
C791 H814 0.950 . S
C792 C791 1.349 . S
C792 C804 1.349 . S
C793 C791 1.327 . S
C793 C809 1.429 . S
C793 H815 0.950 . S
C794 H790 0.949 . S
C794 C802 1.574 . S
C794 C810 1.368 . S
H795 C803 0.950 . S
H796 C801 0.950 . S
H797 C802 0.949 . S
H798 C804 0.950 . S
H799 C805 0.950 . S
H800 C806 0.949 . S
C801 H796 0.950 . S
C801 C803 1.327 . S
C801 C807 1.429 . S
C802 C794 1.574 . S
C802 H797 0.949 . S
C802 C808 1.368 . S
C803 C787 1.349 . S
C803 H795 0.950 . S
C803 C801 1.327 . S
C804 C792 1.349 . S
C804 H798 0.950 . S
C804 C805 1.327 . S
C805 H799 0.950 . S
C805 C804 1.327 . S
C805 C809 1.429 . S
C806 C789 1.574 . S
C806 H800 0.949 . S
C806 C810 1.368 . S
C807 C788 1.429 . S
C807 C801 1.429 . S
C807 C808 1.523 . S
C808 C789 1.368 . S
C808 C802 1.368 . S
C808 C807 1.523 . S
C809 C793 1.429 . S
C809 C805 1.429 . S
C809 C810 1.523 . S
C810 C794 1.368 . S
C810 C806 1.368 . S
C810 C809 1.523 . S
H811 C786 0.950 . S
H812 C788 0.950 . S
H813 C789 0.949 . S
H814 C791 0.950 . S
H815 C793 0.950 . S
C816 C817 1.349 . S
C816 C818 1.327 . S
C816 H841 0.950 . S
C817 C816 1.349 . S
C817 C833 1.349 . S
C818 C816 1.327 . S
C818 C837 1.429 . S
C818 H842 0.950 . S
C819 C836 1.574 . S
C819 C838 1.368 . S
C819 H843 0.949 . S
H820 C824 0.949 . S
C821 C822 1.349 . S
C821 C823 1.327 . S
C821 H844 0.950 . S
C822 C821 1.349 . S
C822 C834 1.349 . S
C823 C821 1.327 . S
C823 C839 1.429 . S
C823 H845 0.950 . S
C824 H820 0.949 . S
C824 C832 1.574 . S
C824 C840 1.368 . S
H825 C833 0.950 . S
H826 C831 0.950 . S
H827 C832 0.949 . S
H828 C834 0.950 . S
H829 C835 0.950 . S
H830 C836 0.949 . S
C831 H826 0.950 . S
C831 C833 1.327 . S
C831 C837 1.429 . S
C832 C824 1.574 . S
C832 H827 0.949 . S
C832 C838 1.368 . S
C833 C817 1.349 . S
C833 H825 0.950 . S
C833 C831 1.327 . S
C834 C822 1.349 . S
C834 H828 0.950 . S
C834 C835 1.327 . S
C835 H829 0.950 . S
C835 C834 1.327 . S
C835 C839 1.429 . S
C836 C819 1.574 . S
C836 H830 0.949 . S
C836 C840 1.368 . S
C837 C818 1.429 . S
C837 C831 1.429 . S
C837 C838 1.523 . S
C838 C819 1.368 . S
C838 C832 1.368 . S
C838 C837 1.523 . S
C839 C823 1.429 . S
C839 C835 1.429 . S
C839 C840 1.523 . S
C840 C824 1.368 . S
C840 C836 1.368 . S
C840 C839 1.523 . S
H841 C816 0.950 . S
H842 C818 0.950 . S
H843 C819 0.949 . S
H844 C821 0.950 . S
H845 C823 0.950 . S
C846 C847 1.349 1_556 S
C846 C848 1.327 . S
C846 H871 0.950 . S
C847 C846 1.349 1_554 S
C847 C863 1.349 . S
C848 C846 1.327 . S
C848 C867 1.429 . S
C848 H872 0.950 . S
C849 C866 1.574 . S
C849 C868 1.368 . S
C849 H873 0.949 . S
H850 C854 0.949 . S
C851 C852 1.349 . S
C851 C853 1.327 . S
C851 H874 0.950 . S
C852 C851 1.349 . S
C852 C864 1.349 . S
C853 C851 1.327 . S
C853 C869 1.429 . S
C853 H875 0.950 . S
C854 H850 0.949 . S
C854 C862 1.574 . S
C854 C870 1.368 . S
H855 C863 0.950 . S
H856 C861 0.950 . S
H857 C862 0.949 . S
H858 C864 0.950 . S
H859 C865 0.950 . S
H860 C866 0.949 . S
C861 H856 0.950 . S
C861 C863 1.327 . S
C861 C867 1.429 1_554 S
C862 C854 1.574 . S
C862 H857 0.949 . S
C862 C868 1.368 . S
C863 C847 1.349 . S
C863 H855 0.950 . S
C863 C861 1.327 . S
C864 C852 1.349 . S
C864 H858 0.950 . S
C864 C865 1.327 . S
C865 H859 0.950 . S
C865 C864 1.327 . S
C865 C869 1.429 . S
C866 C849 1.574 . S
C866 H860 0.949 . S
C866 C870 1.368 . S
C867 C848 1.429 . S
C867 C861 1.429 1_556 S
C867 C868 1.523 . S
C868 C849 1.368 . S
C868 C862 1.368 . S
C868 C867 1.523 . S
C869 C853 1.429 . S
C869 C865 1.429 . S
C869 C870 1.523 . S
C870 C854 1.368 . S
C870 C866 1.368 . S
C870 C869 1.523 . S
H871 C846 0.950 . S
H872 C848 0.950 . S
H873 C849 0.949 . S
H874 C851 0.950 . S
H875 C853 0.950 . S
C157 C7 0.642 . S
C162 C89 0.559 . S
C187 C25 0.662 . S
C192 C97 0.613 . S
C217 C46 0.703 . S
C222 C106 0.690 . S
C252 C116 0.681 . S
C247 C70 0.697 . S
C282 C125 0.554 . S
C277 C28 0.640 . S
C307 C49 0.698 . S
C312 C134 0.682 . S
C337 C67 0.701 . S
C342 C142 0.687 . S
C367 C4 0.662 . S
C372 C152 0.611 . S
C397 C58 1.646 . S
C402 C151 1.757 . S
C432 C124 1.469 . S
C427 C66 1.404 . S
C462 C133 1.683 . S
C457 C3 1.654 . S
C487 C37 1.674 . S
C492 C143 1.767 . S
C522 C98 1.756 . S
C517 C79 1.648 . S
C547 C16 1.674 . S
C552 C107 1.766 . S
C582 C115 1.679 . S
C577 C24 1.650 . S
C612 C88 1.469 . S
C607 C45 1.403 . S
C642 C145 1.349 . S
C637 C19 1.176 . S
C672 C154 1.233 . S
C667 C41 1.115 . S
C697 C62 0.984 . S
C702 C127 1.058 . S
C732 C136 1.222 . S
C727 C82 1.094 . S
C762 C109 1.350 . S
C757 C40 1.178 . S
C787 C61 1.091 . S
C792 C118 1.218 . S
C822 C91 1.062 . S
C817 C83 0.987 . S
C852 C100 1.229 . S
C847 C20 1.116 . S
