# Generated by pormake.
# Topology ptr, (4,4)-cn, num edge types: 1
# Building blocks:
#     Node 0, Type 0, BuildingBlock: QUQFOY_clean_sbu_3, # of connection points: 4
#     Node 1, Type 0, BuildingBlock: QUQFOY_clean_sbu_3, # of connection points: 4
#     Node 2, Type 0, BuildingBlock: QUQFOY_clean_sbu_3, # of connection points: 4
#     Node 3, Type 0, BuildingBlock: QUQFOY_clean_sbu_3, # of connection points: 4
#     Node 4, Type 0, BuildingBlock: QUQFOY_clean_sbu_3, # of connection points: 4
#     Node 5, Type 0, BuildingBlock: QUQFOY_clean_sbu_3, # of connection points: 4
#     Node 6, Type 0, BuildingBlock: QUQFOY_clean_sbu_3, # of connection points: 4
#     Node 7, Type 0, BuildingBlock: QUQFOY_clean_sbu_3, # of connection points: 4
#     Node 8, Type 0, BuildingBlock: QUQFOY_clean_sbu_3, # of connection points: 4
#     Node 9, Type 0, BuildingBlock: QUQFOY_clean_sbu_3, # of connection points: 4
#     Node 10, Type 0, BuildingBlock: QUQFOY_clean_sbu_3, # of connection points: 4
#     Node 11, Type 0, BuildingBlock: QUQFOY_clean_sbu_3, # of connection points: 4
#     Node 12, Type 0, BuildingBlock: QUQFOY_clean_sbu_3, # of connection points: 4
#     Node 13, Type 0, BuildingBlock: QUQFOY_clean_sbu_3, # of connection points: 4
#     Node 14, Type 0, BuildingBlock: QUQFOY_clean_sbu_3, # of connection points: 4
#     Node 15, Type 0, BuildingBlock: QUQFOY_clean_sbu_3, # of connection points: 4
#     Node 16, Type 0, BuildingBlock: QUQFOY_clean_sbu_3, # of connection points: 4
#     Node 17, Type 0, BuildingBlock: QUQFOY_clean_sbu_3, # of connection points: 4
#     Node 18, Type 1, BuildingBlock: NAWXER_clean_linker_0, # of connection points: 4
#     Node 19, Type 1, BuildingBlock: NAWXER_clean_linker_0, # of connection points: 4
#     Node 20, Type 1, BuildingBlock: NAWXER_clean_linker_0, # of connection points: 4
#     Node 21, Type 1, BuildingBlock: NAWXER_clean_linker_0, # of connection points: 4
#     Node 22, Type 1, BuildingBlock: NAWXER_clean_linker_0, # of connection points: 4
#     Node 23, Type 1, BuildingBlock: NAWXER_clean_linker_0, # of connection points: 4
#     Node 24, Type 1, BuildingBlock: NAWXER_clean_linker_0, # of connection points: 4
#     Node 25, Type 1, BuildingBlock: NAWXER_clean_linker_0, # of connection points: 4
#     Node 26, Type 1, BuildingBlock: NAWXER_clean_linker_0, # of connection points: 4
#     Node 27, Type 1, BuildingBlock: NAWXER_clean_linker_0, # of connection points: 4
#     Node 28, Type 1, BuildingBlock: NAWXER_clean_linker_0, # of connection points: 4
#     Node 29, Type 1, BuildingBlock: NAWXER_clean_linker_0, # of connection points: 4
#     Node 30, Type 1, BuildingBlock: NAWXER_clean_linker_0, # of connection points: 4
#     Node 31, Type 1, BuildingBlock: NAWXER_clean_linker_0, # of connection points: 4
#     Node 32, Type 1, BuildingBlock: NAWXER_clean_linker_0, # of connection points: 4
#     Node 33, Type 1, BuildingBlock: NAWXER_clean_linker_0, # of connection points: 4
#     Node 34, Type 1, BuildingBlock: NAWXER_clean_linker_0, # of connection points: 4
#     Node 35, Type 1, BuildingBlock: NAWXER_clean_linker_0, # of connection points: 4
#     Edge 36, Type (0, 1), BuildingBlock: KIFKEQ_clean_linker_1, # of connection points: 2
#     Edge 37, Type (0, 1), BuildingBlock: KIFKEQ_clean_linker_1, # of connection points: 2
#     Edge 38, Type (0, 1), BuildingBlock: KIFKEQ_clean_linker_1, # of connection points: 2
#     Edge 39, Type (0, 1), BuildingBlock: KIFKEQ_clean_linker_1, # of connection points: 2
#     Edge 40, Type (0, 1), BuildingBlock: KIFKEQ_clean_linker_1, # of connection points: 2
#     Edge 41, Type (0, 1), BuildingBlock: KIFKEQ_clean_linker_1, # of connection points: 2
#     Edge 42, Type (0, 1), BuildingBlock: KIFKEQ_clean_linker_1, # of connection points: 2
#     Edge 43, Type (0, 1), BuildingBlock: KIFKEQ_clean_linker_1, # of connection points: 2
#     Edge 44, Type (0, 1), BuildingBlock: KIFKEQ_clean_linker_1, # of connection points: 2
#     Edge 45, Type (0, 1), BuildingBlock: KIFKEQ_clean_linker_1, # of connection points: 2
#     Edge 46, Type (0, 1), BuildingBlock: KIFKEQ_clean_linker_1, # of connection points: 2
#     Edge 47, Type (0, 1), BuildingBlock: KIFKEQ_clean_linker_1, # of connection points: 2
#     Edge 48, Type (0, 1), BuildingBlock: KIFKEQ_clean_linker_1, # of connection points: 2
#     Edge 49, Type (0, 1), BuildingBlock: KIFKEQ_clean_linker_1, # of connection points: 2
#     Edge 50, Type (0, 1), BuildingBlock: KIFKEQ_clean_linker_1, # of connection points: 2
#     Edge 51, Type (0, 1), BuildingBlock: KIFKEQ_clean_linker_1, # of connection points: 2
#     Edge 52, Type (0, 1), BuildingBlock: KIFKEQ_clean_linker_1, # of connection points: 2
#     Edge 53, Type (0, 1), BuildingBlock: KIFKEQ_clean_linker_1, # of connection points: 2
#     Edge 54, Type (0, 1), BuildingBlock: KIFKEQ_clean_linker_1, # of connection points: 2
#     Edge 55, Type (0, 1), BuildingBlock: KIFKEQ_clean_linker_1, # of connection points: 2
#     Edge 56, Type (0, 1), BuildingBlock: KIFKEQ_clean_linker_1, # of connection points: 2
#     Edge 57, Type (0, 1), BuildingBlock: KIFKEQ_clean_linker_1, # of connection points: 2
#     Edge 58, Type (0, 1), BuildingBlock: KIFKEQ_clean_linker_1, # of connection points: 2
#     Edge 59, Type (0, 1), BuildingBlock: KIFKEQ_clean_linker_1, # of connection points: 2
#     Edge 60, Type (0, 1), BuildingBlock: KIFKEQ_clean_linker_1, # of connection points: 2
#     Edge 61, Type (0, 1), BuildingBlock: KIFKEQ_clean_linker_1, # of connection points: 2
#     Edge 62, Type (0, 1), BuildingBlock: KIFKEQ_clean_linker_1, # of connection points: 2
#     Edge 63, Type (0, 1), BuildingBlock: KIFKEQ_clean_linker_1, # of connection points: 2
#     Edge 64, Type (0, 1), BuildingBlock: KIFKEQ_clean_linker_1, # of connection points: 2
#     Edge 65, Type (0, 1), BuildingBlock: KIFKEQ_clean_linker_1, # of connection points: 2
#     Edge 66, Type (0, 1), BuildingBlock: KIFKEQ_clean_linker_1, # of connection points: 2
#     Edge 67, Type (0, 1), BuildingBlock: KIFKEQ_clean_linker_1, # of connection points: 2
#     Edge 68, Type (0, 1), BuildingBlock: KIFKEQ_clean_linker_1, # of connection points: 2
#     Edge 69, Type (0, 1), BuildingBlock: KIFKEQ_clean_linker_1, # of connection points: 2
#     Edge 70, Type (0, 1), BuildingBlock: KIFKEQ_clean_linker_1, # of connection points: 2
#     Edge 71, Type (0, 1), BuildingBlock: KIFKEQ_clean_linker_1, # of connection points: 2
#     Edge 72, Type (0, 1), BuildingBlock: KIFKEQ_clean_linker_1, # of connection points: 2
#     Edge 73, Type (0, 1), BuildingBlock: KIFKEQ_clean_linker_1, # of connection points: 2
#     Edge 74, Type (0, 1), BuildingBlock: KIFKEQ_clean_linker_1, # of connection points: 2
#     Edge 75, Type (0, 1), BuildingBlock: KIFKEQ_clean_linker_1, # of connection points: 2
#     Edge 76, Type (0, 1), BuildingBlock: KIFKEQ_clean_linker_1, # of connection points: 2
#     Edge 77, Type (0, 1), BuildingBlock: KIFKEQ_clean_linker_1, # of connection points: 2
#     Edge 78, Type (0, 1), BuildingBlock: KIFKEQ_clean_linker_1, # of connection points: 2
#     Edge 79, Type (0, 1), BuildingBlock: KIFKEQ_clean_linker_1, # of connection points: 2
#     Edge 80, Type (0, 1), BuildingBlock: KIFKEQ_clean_linker_1, # of connection points: 2
#     Edge 81, Type (0, 1), BuildingBlock: KIFKEQ_clean_linker_1, # of connection points: 2
#     Edge 82, Type (0, 1), BuildingBlock: KIFKEQ_clean_linker_1, # of connection points: 2
#     Edge 83, Type (0, 1), BuildingBlock: KIFKEQ_clean_linker_1, # of connection points: 2
#     Edge 84, Type (0, 1), BuildingBlock: KIFKEQ_clean_linker_1, # of connection points: 2
#     Edge 85, Type (0, 1), BuildingBlock: KIFKEQ_clean_linker_1, # of connection points: 2
#     Edge 86, Type (0, 1), BuildingBlock: KIFKEQ_clean_linker_1, # of connection points: 2
#     Edge 87, Type (0, 1), BuildingBlock: KIFKEQ_clean_linker_1, # of connection points: 2
#     Edge 88, Type (0, 1), BuildingBlock: KIFKEQ_clean_linker_1, # of connection points: 2
#     Edge 89, Type (0, 1), BuildingBlock: KIFKEQ_clean_linker_1, # of connection points: 2
#     Edge 90, Type (0, 1), BuildingBlock: KIFKEQ_clean_linker_1, # of connection points: 2
#     Edge 91, Type (0, 1), BuildingBlock: KIFKEQ_clean_linker_1, # of connection points: 2
#     Edge 92, Type (0, 1), BuildingBlock: KIFKEQ_clean_linker_1, # of connection points: 2
#     Edge 93, Type (0, 1), BuildingBlock: KIFKEQ_clean_linker_1, # of connection points: 2
#     Edge 94, Type (0, 1), BuildingBlock: KIFKEQ_clean_linker_1, # of connection points: 2
#     Edge 95, Type (0, 1), BuildingBlock: KIFKEQ_clean_linker_1, # of connection points: 2
#     Edge 96, Type (0, 1), BuildingBlock: KIFKEQ_clean_linker_1, # of connection points: 2
#     Edge 97, Type (0, 1), BuildingBlock: KIFKEQ_clean_linker_1, # of connection points: 2
#     Edge 98, Type (0, 1), BuildingBlock: KIFKEQ_clean_linker_1, # of connection points: 2
#     Edge 99, Type (0, 1), BuildingBlock: KIFKEQ_clean_linker_1, # of connection points: 2
#     Edge 100, Type (0, 1), BuildingBlock: KIFKEQ_clean_linker_1, # of connection points: 2
#     Edge 101, Type (0, 1), BuildingBlock: KIFKEQ_clean_linker_1, # of connection points: 2
#     Edge 102, Type (0, 1), BuildingBlock: KIFKEQ_clean_linker_1, # of connection points: 2
#     Edge 103, Type (0, 1), BuildingBlock: KIFKEQ_clean_linker_1, # of connection points: 2
#     Edge 104, Type (0, 1), BuildingBlock: KIFKEQ_clean_linker_1, # of connection points: 2
#     Edge 105, Type (0, 1), BuildingBlock: KIFKEQ_clean_linker_1, # of connection points: 2
#     Edge 106, Type (0, 1), BuildingBlock: KIFKEQ_clean_linker_1, # of connection points: 2
#     Edge 107, Type (0, 1), BuildingBlock: KIFKEQ_clean_linker_1, # of connection points: 2
# Relax obj value: 0.029
# Max RMSD: 0.135
# Mean RMSD: 0.051
data_MOF--net-ptr--node1-QUQFOY_clean_sbu_3--node2-NAWXER_clean_linker_0--edge1-KIFKEQ_clean_linker_1
_symmetry_space_group_name_H-M    P1
_symmetry_Int_Tables_number       1
_symmetry_cell_setting            triclinic
loop_
_symmetry_equiv_pos_as_xyz
'x, y, z'
_cell_length_a     89.193189
_cell_length_b     89.683823
_cell_length_c     66.010057
_cell_angle_alpha  90.354409
_cell_angle_beta   89.480494
_cell_angle_gamma 120.55133
loop_
_atom_site_label
_atom_site_type_symbol
_atom_site_fract_x
_atom_site_fract_y
_atom_site_fract_z
_atom_type_partial_charge
C0 C 0.96463 0.31158 0.99435 0.0
O1 O 0.95624 0.31814 0.00222 0.0
Cd2 Cd 0.96985 0.34616 0.01795 0.0
O3 O 0.98112 0.31918 0.99607 0.0
Cd4 Cd 0.00511 0.34501 0.01314 0.0
C5 C -0.00029 0.37037 0.98005 0.0
O6 O 0.99006 0.34839 0.04266 0.0
O7 O 0.01508 0.3703 0.03456 0.0
O8 O 0.01244 0.32549 0.02939 0.0
C9 C 0.00221 0.36367 0.04667 0.0
O10 O 0.98624 0.3663 0.99083 0.0
C11 C 0.02848 0.33356 0.02468 0.0
O12 O 0.00913 0.36368 0.98351 0.0
O13 O 0.03383 0.34692 0.0136 0.0
C14 C 0.63992 0.68232 0.02959 0.0
O15 O 0.62358 0.67348 0.02689 0.0
Cd16 Cd 0.60903 0.64716 0.00739 0.0
O17 O 0.6499 0.67746 0.02188 0.0
Cd18 Cd 0.64731 0.65321 0.00114 0.0
C19 C 0.62092 0.62259 0.03509 0.0
O20 O 0.6254 0.65099 0.97708 0.0
O21 O 0.6321 0.63102 0.97549 0.0
O22 O 0.67399 0.67415 0.98377 0.0
C23 C 0.62359 0.63755 0.96831 0.0
O24 O 0.609 0.62504 0.02838 0.0
C25 C 0.68196 0.66598 0.98653 0.0
O26 O 0.63665 0.632 0.02914 0.0
O27 O 0.67397 0.65201 0.99663 0.0
C28 C 0.30771 0.95861 0.02281 0.0
O29 O 0.31427 0.94961 0.01703 0.0
Cd30 Cd 0.34262 0.96253 0.00188 0.0
O31 O 0.31565 0.97484 0.01955 0.0
Cd32 Cd 0.34239 -0.00234 0.00286 0.0
C33 C 0.36596 0.99291 0.03893 0.0
O34 O 0.34497 0.98116 0.97462 0.0
O35 O 0.36739 0.00625 0.98111 0.0
O36 O 0.32341 0.00547 0.9862 0.0
C37 C 0.36018 0.99308 0.96965 0.0
O38 O 0.36162 0.97873 0.02984 0.0
C39 C 0.33199 0.02146 0.99057 0.0
O40 O 0.36052 0.0028 0.03293 0.0
O41 O 0.34547 0.02656 0.00139 0.0
C42 C 0.9605 0.65076 0.99252 0.0
O43 O 0.95156 0.63533 -0.00107 0.0
Cd44 Cd 0.9659 0.6204 0.0099 0.0
O45 O 0.97698 0.65911 0.99441 0.0
Cd46 Cd 0.00057 0.65644 0.01022 0.0
C47 C -0.00385 0.63086 0.97102 0.0
O48 O 0.98486 0.63574 0.03754 0.0
O49 O 0.0103 0.63999 0.02946 0.0
O50 O 0.00619 0.68168 0.02927 0.0
C51 C -0.00282 0.63293 0.0412 0.0
O52 O 0.98186 0.62026 0.97974 0.0
C53 C 0.02221 0.69088 0.0248 0.0
O54 O 0.0063 0.64578 0.97849 0.0
O55 O 0.0285 0.68415 0.01294 0.0
C56 C 0.31432 0.35539 0.02659 0.0
O57 O 0.32057 0.37107 0.02141 0.0
Cd58 Cd 0.34889 0.38715 0.00629 0.0
O59 O 0.32224 0.34736 0.02205 0.0
Cd60 Cd 0.34793 0.3516 0.00267 0.0
C61 C 0.37257 0.37773 0.04007 0.0
O62 O 0.34943 0.37172 0.97694 0.0
O63 O 0.37254 0.36998 0.98054 0.0
O64 O 0.32795 0.32521 0.9851 0.0
C65 C 0.36456 0.37591 0.9707 0.0
O66 O 0.36879 0.38843 0.03245 0.0
C67 C 0.33652 0.31763 0.98774 0.0
O68 O 0.36611 0.3625 0.03285 0.0
O69 O 0.35057 0.32581 0.99774 0.0
C70 C 0.68677 0.03325 0.99441 0.0
O71 O 0.68044 0.0421 0.0015 0.0
Cd72 Cd 0.65373 0.03072 0.02031 0.0
O73 O 0.6794 0.01706 0.99799 0.0
Cd74 Cd 0.65396 0.99456 0.01762 0.0
C75 C 0.62653 -0.00113 0.9863 0.0
O76 O 0.65416 0.0126 0.04594 0.0
O77 O 0.63171 0.98692 0.04365 0.0
O78 O 0.67424 0.98585 0.02925 0.0
C79 C 0.6396 0.00113 0.05319 0.0
O80 O 0.63133 0.01292 0.99597 0.0
C81 C 0.66378 0.96969 0.02751 0.0
O82 O 0.63342 0.98967 0.98983 0.0
O83 O 0.64887 0.96497 0.02023 0.0
C84 C 0.62562 0.6458 0.32286 0.0
O85 O 0.61762 0.65381 0.32688 0.0
Cd86 Cd 0.63042 0.68073 0.34515 0.0
O87 O 0.64118 0.65175 0.32882 0.0
Cd88 Cd 0.66351 0.67698 0.34819 0.0
C89 C 0.66549 0.70569 0.31393 0.0
O90 O 0.64529 0.67967 0.37457 0.0
O91 O 0.67136 0.70139 0.37063 0.0
O92 O 0.66935 0.65703 0.36642 0.0
C93 C 0.65724 0.6944 0.38067 0.0
O94 O 0.65121 0.70263 0.32208 0.0
C95 C 0.68559 0.66493 0.36287 0.0
O96 O 0.67266 0.69707 0.31904 0.0
O97 O 0.69172 0.67845 0.35195 0.0
C98 C 0.31317 0.02067 0.3669 0.0
O99 O 0.29688 0.01329 0.36405 0.0
Cd100 Cd 0.2799 0.98559 0.34824 0.0
O101 O 0.32169 0.01357 0.36087 0.0
Cd102 Cd 0.3154 0.98655 0.34297 0.0
C103 C 0.289 0.96135 0.3807 0.0
O104 O 0.29429 0.98472 0.31794 0.0
O105 O 0.29614 0.96185 0.32191 0.0
O106 O 0.34164 0.00386 0.32302 0.0
C107 C 0.28992 0.96955 0.31209 0.0
O108 O 0.27805 0.96487 0.37321 0.0
C109 C 0.34829 0.9945 0.3262 0.0
O110 O 0.30447 0.96839 0.37363 0.0
O111 O 0.33987 0.98158 0.33786 0.0
C112 C 0.98217 0.29792 0.36227 0.0
O113 O 0.98972 0.28921 0.36024 0.0
Cd114 Cd 0.01721 0.29943 0.34394 0.0
O115 O 0.98899 0.3132 0.35514 0.0
Cd116 Cd 0.01555 0.33402 0.33611 0.0
C117 C 0.04159 0.33503 0.37411 0.0
O118 O 0.01555 0.31259 0.31328 0.0
O119 O 0.03753 0.33857 0.31058 0.0
O120 O -0.00271 0.34215 0.31775 0.0
C121 C 0.02948 0.32311 0.3041 0.0
O122 O 0.03748 0.31979 0.36862 0.0
C123 C 0.00674 0.35828 0.32102 0.0
O124 O 0.03529 0.34318 0.36523 0.0
O125 O 0.0202 0.36316 0.33178 0.0
C126 C 0.62455 0.97048 0.3242 0.0
O127 O 0.61715 0.9546 0.32901 0.0
Cd128 Cd 0.63278 0.9421 0.34296 0.0
O129 O 0.64054 0.98074 0.32835 0.0
Cd130 Cd 0.66474 0.98039 0.34641 0.0
C131 C 0.66667 0.95641 0.30824 0.0
O132 O 0.64761 0.95891 0.37221 0.0
O133 O 0.67411 0.96474 0.36848 0.0
O134 O 0.6695 0.00592 0.36485 0.0
C135 C 0.65991 0.95694 0.37836 0.0
O136 O 0.65242 0.94423 0.31552 0.0
C137 C 0.68551 0.01527 0.36034 0.0
O138 O 0.6742 0.97144 0.3162 0.0
O139 O 0.69202 0.00845 0.34902 0.0
C140 C 0.98697 0.68635 0.37058 0.0
O141 O 0.99504 0.70267 0.36842 0.0
Cd142 Cd 0.02198 0.71868 0.35074 0.0
O143 O 0.99297 0.67733 0.36294 0.0
Cd144 Cd 0.01905 0.68279 0.34301 0.0
C145 C 0.04595 0.70747 0.38052 0.0
O146 O 0.01903 0.70375 0.31931 0.0
O147 O 0.04165 0.70097 0.31861 0.0
O148 O -0.00044 0.65497 0.32683 0.0
C149 C 0.03321 0.70728 0.31069 0.0
O150 O 0.04272 0.71906 0.37476 0.0
C151 C 0.01035 0.64971 0.32711 0.0
O152 O 0.03864 0.69263 0.37211 0.0
O153 O 0.02496 0.65962 0.33531 0.0
C154 C 0.35259 0.36873 0.32361 0.0
O155 O 0.34462 0.37672 0.32799 0.0
Cd156 Cd 0.3177 0.36445 0.3464 0.0
O157 O 0.34651 0.35312 0.32929 0.0
Cd158 Cd 0.32099 0.33076 0.3489 0.0
C159 C 0.29209 0.32962 0.31525 0.0
O160 O 0.31981 0.34976 0.37519 0.0
O161 O 0.29763 0.32395 0.37322 0.0
O162 O 0.34199 0.32412 0.3634 0.0
C163 C 0.3052 0.33837 0.38237 0.0
O164 O 0.29549 0.34388 0.3235 0.0
C165 C 0.33224 0.30779 0.36253 0.0
O166 O 0.30054 0.3222 0.32013 0.0
O167 O 0.31732 0.30199 0.35469 0.0
C168 C 0.2951 0.98161 0.65998 0.0
O169 O 0.28647 0.989 0.66396 0.0
Cd170 Cd 0.29786 0.01652 0.68054 0.0
O171 O 0.31102 0.98858 0.6651 0.0
Cd172 Cd 0.33348 0.01524 0.68253 0.0
C173 C 0.33114 0.04119 0.64683 0.0
O174 O 0.31458 0.01682 0.70862 0.0
O175 O 0.34079 0.03863 0.70665 0.0
O176 O 0.34256 0.99731 0.6999 0.0
C177 C 0.32612 0.03138 0.71554 0.0
O178 O 0.31666 0.03725 0.65519 0.0
C179 C 0.35854 0.00631 0.69507 0.0
O180 O 0.33986 0.03437 0.65283 0.0
O181 O 0.36293 0.01935 0.68379 0.0
C182 C 0.97329 0.3438 0.69226 0.0
O183 O 0.95726 0.33491 0.68782 0.0
Cd184 Cd 0.94419 0.30822 0.6698 0.0
O185 O 0.98389 0.33899 0.68654 0.0
Cd186 Cd 0.98275 0.31454 0.66669 0.0
C187 C 0.95611 0.286 0.70218 0.0
O188 O 0.96229 0.31261 0.64087 0.0
O189 O 0.96736 0.29157 0.64159 0.0
O190 O 0.01089 0.33647 0.65267 0.0
C191 C 0.96011 0.29878 0.63286 0.0
O192 O 0.9444 0.28845 0.69477 0.0
C193 C 0.01788 0.32721 0.6536 0.0
O194 O 0.97169 0.29424 0.69543 0.0
O195 O 0.00873 0.31221 0.66122 0.0
C196 C 0.651 0.6293 0.69788 0.0
O197 O 0.65836 0.62039 0.69634 0.0
Cd198 Cd 0.68551 0.63024 0.67905 0.0
O199 O 0.65777 0.64425 0.68987 0.0
Cd200 Cd 0.68367 0.66454 0.66975 0.0
C201 C 0.71069 0.667 0.70722 0.0
O202 O 0.6836 0.64256 0.64777 0.0
O203 O 0.70523 0.66866 0.64404 0.0
O204 O 0.6641 0.67113 0.65174 0.0
C205 C 0.69739 0.653 0.63824 0.0
O206 O 0.70642 0.65158 0.70236 0.0
C207 C 0.67325 0.68741 0.65406 0.0
O208 O 0.70413 0.67485 0.69823 0.0
O209 O 0.68729 0.69314 0.66395 0.0
C210 C 0.28844 0.3102 0.65624 0.0
O211 O 0.28002 0.29404 0.65969 0.0
Cd212 Cd 0.29213 0.27934 0.67739 0.0
O213 O 0.30397 0.31957 0.66255 0.0
Cd214 Cd 0.32571 0.31619 0.68184 0.0
C215 C 0.32745 0.29 0.64633 0.0
O216 O 0.3067 0.29498 0.70733 0.0
O217 O 0.33255 0.29887 0.70399 0.0
O218 O 0.33194 0.34211 0.70042 0.0
C219 C 0.31819 0.29178 0.71357 0.0
O220 O 0.31296 0.2786 0.65399 0.0
C221 C 0.3482 0.35036 0.69697 0.0
O222 O 0.33486 0.3057 0.6523 0.0
O223 O 0.35418 0.34278 0.6861 0.0
C224 C 0.65756 0.02643 0.69732 0.0
O225 O 0.66679 0.04245 0.69329 0.0
Cd226 Cd 0.692 0.05443 0.67163 0.0
O227 O 0.66153 0.01568 0.69007 0.0
Cd228 Cd 0.68448 0.01621 0.66839 0.0
C229 C 0.71715 0.04345 0.69942 0.0
O230 O 0.68507 0.03596 0.64265 0.0
O231 O 0.7059 0.03037 0.64132 0.0
O232 O 0.66207 0.98914 0.6536 0.0
C233 C 0.69816 0.03737 0.63322 0.0
O234 O 0.71519 0.05533 0.69173 0.0
C235 C 0.6701 0.98099 0.65612 0.0
O236 O 0.70678 0.02759 0.69501 0.0
O237 O 0.68472 0.98909 0.66497 0.0
C238 C 0.01611 0.70237 0.65513 0.0
O239 O 0.00884 0.71113 0.65878 0.0
Cd240 Cd 0.98108 0.70017 0.67454 0.0
O241 O 0.00885 0.68653 0.66052 0.0
Cd242 Cd 0.98134 0.66506 0.67863 0.0
C243 C 0.95622 0.66674 0.64148 0.0
O244 O 0.98007 0.68443 0.7041 0.0
O245 O 0.95663 0.65968 0.70033 0.0
O246 O -0.0018 0.6559 0.69838 0.0
C247 C 0.96473 0.67378 0.7101 0.0
O248 O 0.96068 0.68158 0.64879 0.0
C249 C 0.98904 0.63989 0.69427 0.0
O250 O 0.96225 0.65769 0.64873 0.0
O251 O 0.97633 0.63544 0.68234 0.0
C252 C 0.209 0.31161 0.1325 0.0
C253 C 0.20696 0.3028 0.11414 0.0
C254 C 0.19451 0.3079 0.1444 0.0
C255 C 0.17777 0.29496 0.13844 0.0
C256 C 0.19026 0.28973 0.10829 0.0
C257 C 0.17579 0.28584 0.12035 0.0
C258 C 0.16215 0.2925 0.14935 0.0
C259 C 0.19308 0.28188 0.19541 0.0
C260 C 0.19729 0.29222 0.21293 0.0
C261 C 0.18097 0.28135 0.18154 0.0
C262 C 0.17321 0.29148 0.18477 0.0
C263 C 0.18936 0.30215 0.21615 0.0
C264 C 0.17748 0.30175 0.20229 0.0
C265 C 0.16027 0.29136 0.17066 0.0
C266 C 0.08951 0.28453 0.18435 0.0
C267 C 0.0938 0.29377 0.20266 0.0
C268 C 0.10242 0.28378 0.17293 0.0
C269 C 0.11986 0.29279 0.17936 0.0
C270 C 0.11107 0.30241 0.2093 0.0
C271 C 0.12397 0.302 0.19774 0.0
C272 C 0.13399 0.29227 0.16797 0.0
C273 C 0.11206 0.31422 0.1236 0.0
C274 C 0.10552 0.30457 0.10564 0.0
C275 C 0.12178 0.31057 0.13707 0.0
C276 C 0.12491 0.29697 0.13308 0.0
C277 C 0.10892 0.29114 0.10154 0.0
C278 C 0.11858 0.28746 0.11507 0.0
C279 C 0.13597 0.29357 0.14667 0.0
H280 H 0.2217 0.32199 0.13712 0.0
H281 H 0.19635 0.31566 0.1578 0.0
H282 H 0.18838 0.28276 0.09419 0.0
H283 H 0.16299 0.27602 0.1153 0.0
H284 H 0.19891 0.27401 0.19262 0.0
H285 H 0.1776 0.27296 0.16844 0.0
H286 H 0.19253 0.31047 0.22931 0.0
H287 H 0.17174 0.30971 0.20521 0.0
H288 H 0.07617 0.27767 0.17913 0.0
H289 H 0.09872 0.27604 0.15924 0.0
H290 H 0.1146 0.30966 0.22338 0.0
H291 H 0.13724 0.30898 0.20316 0.0
H292 H 0.10959 0.32456 0.12736 0.0
H293 H 0.127 0.31851 0.1505 0.0
H294 H 0.10436 0.28365 0.08771 0.0
H295 H 0.12114 0.27715 0.11145 0.0
N296 N 0.14987 0.29343 0.13826 0.0
N297 N 0.14624 0.29125 0.17897 0.0
C298 C 0.68325 0.88432 0.12399 0.0
C299 C 0.69487 0.89485 0.10866 0.0
C300 C 0.68749 0.87467 0.13676 0.0
C301 C 0.70332 0.87509 0.13433 0.0
C302 C 0.71082 0.89525 0.10642 0.0
C303 C 0.71487 0.88526 0.11894 0.0
C304 C 0.7072 0.86405 0.1471 0.0
C305 C 0.71597 0.91002 0.18473 0.0
C306 C 0.70748 0.90577 0.20361 0.0
C307 C 0.7169 0.89734 0.17318 0.0
C308 C 0.70875 0.88009 0.18005 0.0
C309 C 0.69983 0.88876 0.21073 0.0
C310 C 0.70037 0.87606 0.19906 0.0
C311 C 0.7091 0.86604 0.16835 0.0
C312 C 0.71522 0.80403 0.19363 0.0
C313 C 0.70574 0.80073 0.21184 0.0
C314 C 0.7163 0.81651 0.18003 0.0
C315 C 0.70764 0.82564 0.18427 0.0
C316 C 0.69721 0.80995 0.21601 0.0
C317 C 0.69818 0.82225 0.20245 0.0
C318 C 0.70851 0.83911 0.17049 0.0
C319 C 0.68031 0.79045 0.1329 0.0
C320 C 0.68991 0.7902 0.11606 0.0
C321 C 0.68614 0.80557 0.14422 0.0
C322 C 0.70163 0.82072 0.13883 0.0
C323 C 0.70565 0.80523 0.11099 0.0
C324 C 0.71135 0.82047 0.12216 0.0
C325 C 0.70652 0.83713 0.14928 0.0
H326 H 0.67066 0.88321 0.12596 0.0
H327 H 0.67825 0.8666 0.14831 0.0
H328 H 0.72029 0.90336 0.0951 0.0
H329 H 0.72711 0.88563 0.11679 0.0
H330 H 0.72206 0.92316 0.17908 0.0
H331 H 0.72416 0.90113 0.15909 0.0
H332 H 0.69311 0.88521 0.22522 0.0
H333 H 0.69401 0.86296 0.20489 0.0
H334 H 0.72203 0.7972 0.19009 0.0
H335 H 0.72407 0.81916 0.16639 0.0
H336 H 0.68952 0.8075 0.22971 0.0
H337 H 0.69132 0.82901 0.20613 0.0
H338 H 0.66815 0.779 0.13711 0.0
H339 H 0.67825 0.8056 0.15678 0.0
H340 H 0.71318 0.80536 0.09795 0.0
H341 H 0.72321 0.83212 0.11762 0.0
N342 N 0.70606 0.84973 0.1384 0.0
N343 N 0.70976 0.85349 0.17905 0.0
C344 C 0.10473 0.79543 0.12271 0.0
C345 C 0.09688 0.79833 0.10605 0.0
C346 C 0.11551 0.80902 0.13556 0.0
C347 C 0.11829 0.82572 0.1324 0.0
C348 C 0.10011 0.81514 0.1024 0.0
C349 C 0.11075 0.82874 0.1155 0.0
C350 C 0.13023 0.84024 0.14567 0.0
C351 C 0.08659 0.80298 0.1876 0.0
C352 C 0.09236 0.79466 0.20071 0.0
C353 C 0.09864 0.81734 0.17628 0.0
C354 C 0.11656 0.82367 0.17828 0.0
C355 C 0.11026 0.80102 0.20254 0.0
C356 C 0.12224 0.81548 0.1916 0.0
C357 C 0.12972 0.83899 0.16702 0.0
C358 C 0.19061 0.90746 0.19441 0.0
C359 C 0.19653 0.90085 0.20969 0.0
C360 C 0.17772 0.89624 0.18088 0.0
C361 C 0.17062 0.87825 0.1824 0.0
C362 C 0.18955 0.88286 0.21084 0.0
C363 C 0.17667 0.87171 0.19747 0.0
C364 C 0.15641 0.86591 0.16907 0.0
C365 C 0.20287 0.89128 0.12771 0.0
C366 C 0.20201 0.90202 0.11286 0.0
C367 C 0.18834 0.88049 0.13951 0.0
C368 C 0.17259 0.88011 0.13671 0.0
C369 C 0.18623 0.90179 0.11032 0.0
C370 C 0.17158 0.89077 0.12202 0.0
C371 C 0.15691 0.86728 0.14777 0.0
H372 H 0.10279 0.78268 0.12557 0.0
H373 H 0.12193 0.80647 0.14777 0.0
H374 H 0.09424 0.81769 0.0896 0.0
H375 H 0.11305 0.8416 0.11249 0.0
H376 H 0.07281 0.7983 0.18607 0.0
H377 H 0.09404 0.82362 0.1662 0.0
H378 H 0.11502 0.79497 0.21277 0.0
H379 H 0.13601 0.8202 0.19338 0.0
H380 H 0.19562 0.92124 0.19322 0.0
H381 H 0.17304 0.90157 0.16957 0.0
H382 H 0.19408 0.87734 0.22209 0.0
H383 H 0.17148 0.8579 0.19885 0.0
H384 H 0.21457 0.89068 0.12976 0.0
H385 H 0.18924 0.87196 0.15035 0.0
H386 H 0.18513 0.90999 0.09919 0.0
H387 H 0.15944 0.89047 0.11952 0.0
N388 N 0.14376 0.85444 0.13686 0.0
N389 N 0.14284 0.85182 0.17782 0.0
C390 C 0.31611 0.11224 0.83135 0.0
C391 C 0.30284 0.10136 0.81794 0.0
C392 C 0.31392 0.12335 0.84431 0.0
C393 C 0.29845 0.12385 0.84401 0.0
C394 C 0.28721 0.1016 0.81792 0.0
C395 C 0.28512 0.11295 0.83069 0.0
C396 C 0.29685 0.13672 0.85645 0.0
C397 C 0.29347 0.09671 0.89985 0.0
C398 C 0.3072 0.10306 0.91383 0.0
C399 C 0.29104 0.10811 0.8879 0.0
C400 C 0.30237 0.12605 0.88961 0.0
C401 C 0.31839 0.12104 0.91563 0.0
C402 C 0.31593 0.13241 0.90371 0.0
C403 C 0.29978 0.13838 0.87751 0.0
C404 C 0.29043 0.19853 0.90059 0.0
C405 C 0.30461 0.20697 0.91389 0.0
C406 C 0.28825 0.18456 0.88879 0.0
C407 C 0.30036 0.17898 0.88991 0.0
C408 C 0.31646 0.20109 0.91522 0.0
C409 C 0.31431 0.1872 0.90343 0.0
C410 C 0.29857 0.16434 0.8776 0.0
C411 C 0.308 0.20596 0.83278 0.0
C412 C 0.2958 0.20082 0.81711 0.0
C413 C 0.30782 0.19366 0.84582 0.0
C414 C 0.29506 0.17605 0.84388 0.0
C415 C 0.28312 0.18323 0.81505 0.0
C416 C 0.28274 0.17097 0.82835 0.0
C417 C 0.29556 0.16268 0.85647 0.0
H418 H 0.32826 0.11226 0.83167 0.0
H419 H 0.32451 0.1319 0.85419 0.0
H420 H 0.27685 0.09344 0.80757 0.0
H421 H 0.27317 0.1133 0.8301 0.0
H422 H 0.28443 0.08294 0.89837 0.0
H423 H 0.28016 0.1029 0.87756 0.0
H424 H 0.32922 0.12635 0.92605 0.0
H425 H 0.32478 0.14622 0.90535 0.0
H426 H 0.28096 0.20263 0.89945 0.0
H427 H 0.27713 0.17812 0.87885 0.0
H428 H 0.32764 0.20745 0.92508 0.0
H429 H 0.32377 0.18308 0.90461 0.0
H430 H 0.31814 0.21939 0.83438 0.0
H431 H 0.31801 0.19791 0.85699 0.0
H432 H 0.27361 0.17896 0.80303 0.0
H433 H 0.27295 0.15745 0.82631 0.0
N434 N 0.29473 0.14885 0.84676 0.0
N435 N 0.30059 0.15214 0.88721 0.0
C436 C 0.9058 0.19742 0.89551 0.0
C437 C 0.89806 0.20488 0.90725 0.0
C438 C 0.89549 0.18251 0.88399 0.0
C439 C 0.87728 0.17485 0.88401 0.0
C440 C 0.87984 0.19701 0.90744 0.0
C441 C 0.86958 0.18214 0.89603 0.0
C442 C 0.86596 0.15904 0.87209 0.0
C443 C 0.89467 0.20019 0.82522 0.0
C444 C 0.90608 0.19768 0.81272 0.0
C445 C 0.88303 0.18716 0.83823 0.0
C446 C 0.88251 0.17127 0.83914 0.0
C447 C 0.90563 0.18177 0.81381 0.0
C448 C 0.89383 0.16864 0.82678 0.0
C449 C 0.86897 0.15698 0.8515 0.0
C450 C 0.80046 0.10026 0.82333 0.0
C451 C 0.80577 0.09208 0.80917 0.0
C452 C 0.81222 0.112 0.83735 0.0
C453 C 0.82947 0.11551 0.83786 0.0
C454 C 0.82297 0.09544 0.80979 0.0
C455 C 0.83471 0.10707 0.824 0.0
C456 C 0.84256 0.12952 0.85089 0.0
C457 C 0.8017 0.09055 0.89386 0.0
C458 C 0.79277 0.09733 0.90458 0.0
C459 C 0.81695 0.10158 0.883 0.0
C460 C 0.8235 0.11952 0.88277 0.0
C461 C 0.79955 0.1153 0.90452 0.0
C462 C 0.81476 0.12626 0.89384 0.0
C463 C 0.83952 0.13166 0.87149 0.0
H464 H 0.91982 0.2032 0.89505 0.0
H465 H 0.90174 0.17692 0.87519 0.0
H466 H 0.87346 0.20225 0.91661 0.0
H467 H 0.85556 0.1764 0.89644 0.0
H468 H 0.8942 0.21201 0.82444 0.0
H469 H 0.87402 0.1893 0.84711 0.0
H470 H 0.91428 0.1794 0.80454 0.0
H471 H 0.89347 0.15638 0.82707 0.0
H472 H 0.78743 0.09829 0.8229 0.0
H473 H 0.80799 0.11889 0.84716 0.0
H474 H 0.82743 0.08934 0.79904 0.0
H475 H 0.84801 0.10978 0.82386 0.0
H476 H 0.79678 0.07675 0.89368 0.0
H477 H 0.82365 0.09612 0.87485 0.0
H478 H 0.79317 0.12095 0.91294 0.0
H479 H 0.81961 0.14005 0.89402 0.0
N480 N 0.85135 0.14633 0.88119 0.0
N481 N 0.85723 0.14225 0.84177 0.0
C482 C 0.80076 0.71224 0.89696 0.0
C483 C 0.79258 0.69783 0.90996 0.0
C484 C 0.81547 0.71552 0.88564 0.0
C485 C 0.82218 0.70437 0.88703 0.0
C486 C 0.79962 0.687 0.91165 0.0
C487 C 0.81425 0.69026 0.90036 0.0
C488 C 0.83757 0.70722 0.87511 0.0
C489 C 0.7963 0.69505 0.82887 0.0
C490 C 0.80015 0.7087 0.81545 0.0
C491 C 0.80902 0.69591 0.84173 0.0
C492 C 0.82586 0.71045 0.84159 0.0
C493 C 0.81705 0.72333 0.81542 0.0
C494 C 0.82983 0.72413 0.82828 0.0
C495 C 0.83959 0.71065 0.85411 0.0
C496 C 0.89317 0.69254 0.83023 0.0
C497 C 0.90118 0.70416 0.81412 0.0
C498 C 0.88194 0.69441 0.84351 0.0
C499 C 0.87897 0.70829 0.84138 0.0
C500 C 0.89815 0.71797 0.81187 0.0
C501 C 0.88718 0.72004 0.82541 0.0
C502 C 0.86578 0.70946 0.85409 0.0
C503 C 0.90439 0.71034 0.89899 0.0
C504 C 0.89696 0.69623 0.91245 0.0
C505 C 0.89377 0.71375 0.88668 0.0
C506 C 0.87559 0.70297 0.88752 0.0
C507 C 0.87876 0.68555 0.91322 0.0
C508 C 0.86822 0.68894 0.90098 0.0
C509 C 0.86384 0.70629 0.8752 0.0
H510 H 0.79563 0.72082 0.89531 0.0
H511 H 0.8216 0.72674 0.87584 0.0
H512 H 0.79386 0.676 0.92181 0.0
H513 H 0.81926 0.68156 0.90187 0.0
H514 H 0.78362 0.68337 0.82893 0.0
H515 H 0.80581 0.68494 0.85139 0.0
H516 H 0.82044 0.73409 0.80535 0.0
H517 H 0.84283 0.73537 0.82779 0.0
H518 H 0.89499 0.68156 0.83201 0.0
H519 H 0.87513 0.68458 0.85494 0.0
H520 H 0.90415 0.72707 0.79951 0.0
H521 H 0.88487 0.73066 0.82318 0.0
H522 H 0.91838 0.71888 0.8982 0.0
H523 H 0.89973 0.72487 0.8767 0.0
H524 H 0.87263 0.67439 0.92311 0.0
H525 H 0.85423 0.68043 0.90189 0.0
N526 N 0.84979 0.70523 0.88474 0.0
N527 N 0.85364 0.71172 0.84446 0.0
C528 C 0.75468 0.6159 0.44981 0.0
C529 C 0.7619 0.63022 0.43663 0.0
C530 C 0.76548 0.61211 0.46125 0.0
C531 C 0.78368 0.62264 0.45982 0.0
C532 C 0.7801 0.64036 0.4348 0.0
C533 C 0.79084 0.63659 0.44621 0.0
C534 C 0.79559 0.61956 0.47233 0.0
C535 C 0.76724 0.63416 0.51781 0.0
C536 C 0.75616 0.62058 0.53088 0.0
C537 C 0.77898 0.63262 0.50515 0.0
C538 C 0.77988 0.61746 0.50527 0.0
C539 C 0.75691 0.60526 0.53067 0.0
C540 C 0.76881 0.6038 0.51811 0.0
C541 C 0.79354 0.61667 0.49344 0.0
C542 C 0.86425 0.64127 0.52193 0.0
C543 C 0.86241 0.6287 0.53594 0.0
C544 C 0.85101 0.63768 0.50821 0.0
C545 C 0.83565 0.62144 0.50819 0.0
C546 C 0.84716 0.61232 0.53569 0.0
C547 C 0.83377 0.6088 0.52208 0.0
C548 C 0.82111 0.61836 0.49486 0.0
C549 C 0.86459 0.62226 0.45656 0.0
C550 C 0.87074 0.63526 0.44166 0.0
C551 C 0.84877 0.61698 0.46656 0.0
C552 C 0.83908 0.62498 0.46227 0.0
C553 C 0.86037 0.6423 0.43646 0.0
C554 C 0.84484 0.63732 0.44671 0.0
C555 C 0.82302 0.62091 0.47365 0.0
H556 H 0.74071 0.60784 0.45159 0.0
H557 H 0.7596 0.60101 0.47125 0.0
H558 H 0.78608 0.65125 0.4245 0.0
H559 H 0.80482 0.64485 0.44467 0.0
H560 H 0.76738 0.64631 0.51787 0.0
H561 H 0.78776 0.6435 0.49573 0.0
H562 H 0.74844 0.59447 0.54036 0.0
H563 H 0.76948 0.59208 0.51853 0.0
H564 H 0.87589 0.65398 0.52175 0.0
H565 H 0.8526 0.64775 0.49791 0.0
H566 H 0.84536 0.60248 0.54647 0.0
H567 H 0.82191 0.59627 0.52248 0.0
H568 H 0.87217 0.61647 0.46091 0.0
H569 H 0.84431 0.60686 0.47782 0.0
H570 H 0.86434 0.65188 0.42458 0.0
H571 H 0.83753 0.64351 0.44275 0.0
N572 N 0.81019 0.62144 0.46334 0.0
N573 N 0.80634 0.61613 0.50387 0.0
C574 C 0.35323 0.22342 0.45787 0.0
C575 C 0.366 0.23497 0.44426 0.0
C576 C 0.35676 0.2133 0.47074 0.0
C577 C 0.37302 0.2144 0.47002 0.0
C578 C 0.3824 0.23633 0.44381 0.0
C579 C 0.3858 0.2259 0.45641 0.0
C580 C 0.37598 0.20246 0.4823 0.0
C581 C 0.38081 0.24408 0.52616 0.0
C582 C 0.36927 0.23755 0.54276 0.0
C583 C 0.3826 0.23274 0.51295 0.0
C584 C 0.37263 0.21473 0.51602 0.0
C585 C 0.35907 0.21956 0.5454 0.0
C586 C 0.36074 0.20832 0.53224 0.0
C587 C 0.37505 0.20223 0.50367 0.0
C588 C 0.38084 0.13975 0.52604 0.0
C589 C 0.3668 0.13222 0.53979 0.0
C590 C 0.38377 0.15395 0.51425 0.0
C591 C 0.37285 0.16094 0.51633 0.0
C592 C 0.35604 0.13936 0.54191 0.0
C593 C 0.35912 0.15364 0.53044 0.0
C594 C 0.37533 0.17576 0.50398 0.0
C595 C 0.35271 0.13016 0.46271 0.0
C596 C 0.3647 0.13041 0.44853 0.0
C597 C 0.35656 0.14493 0.47379 0.0
C598 C 0.37249 0.16033 0.47099 0.0
C599 C 0.38061 0.14598 0.44553 0.0
C600 C 0.38442 0.16087 0.45661 0.0
C601 C 0.37603 0.17587 0.48263 0.0
H602 H 0.34052 0.22221 0.45851 0.0
H603 H 0.34665 0.20429 0.48094 0.0
H604 H 0.39239 0.24512 0.43335 0.0
H605 H 0.39835 0.22675 0.4555 0.0
H606 H 0.38884 0.25792 0.52383 0.0
H607 H 0.39213 0.23807 0.50082 0.0
H608 H 0.3498 0.21413 0.55781 0.0
H609 H 0.3528 0.19451 0.5349 0.0
H610 H 0.38933 0.13448 0.52421 0.0
H611 H 0.39456 0.15952 0.5036 0.0
H612 H 0.34527 0.13393 0.55259 0.0
H613 H 0.35055 0.15882 0.53233 0.0
H614 H 0.34011 0.11862 0.465 0.0
H615 H 0.34695 0.14438 0.4844 0.0
H616 H 0.39014 0.14662 0.43475 0.0
H617 H 0.3967 0.17273 0.4541 0.0
N618 N 0.37643 0.18926 0.47256 0.0
N619 N 0.37482 0.1889 0.5136 0.0
C620 C 0.77211 0.12497 0.44847 0.0
C621 C 0.76293 0.12713 0.43272 0.0
C622 C 0.78366 0.13905 0.46023 0.0
C623 C 0.78592 0.15553 0.45689 0.0
C624 C 0.76578 0.14376 0.42869 0.0
C625 C 0.77721 0.15788 0.44072 0.0
C626 C 0.79801 0.17034 0.46973 0.0
C627 C 0.75454 0.13338 0.51144 0.0
C628 C 0.76018 0.12489 0.52443 0.0
C629 C 0.76668 0.14785 0.50038 0.0
C630 C 0.78457 0.15412 0.5025 0.0
C631 C 0.77807 0.13121 0.52646 0.0
C632 C 0.79016 0.1458 0.51575 0.0
C633 C 0.79773 0.16931 0.4911 0.0
C634 C 0.85958 0.23807 0.5163 0.0
C635 C 0.86748 0.23178 0.52934 0.0
C636 C 0.84545 0.2266 0.50433 0.0
C637 C 0.83893 0.20869 0.50546 0.0
C638 C 0.8608 0.21386 0.53053 0.0
C639 C 0.84657 0.20243 0.51884 0.0
C640 C 0.82434 0.19626 0.49265 0.0
C641 C 0.8709 0.22338 0.45293 0.0
C642 C 0.87029 0.23529 0.43973 0.0
C643 C 0.85598 0.21109 0.46302 0.0
C644 C 0.84012 0.21048 0.46026 0.0
C645 C 0.85427 0.2344 0.43657 0.0
C646 C 0.83924 0.222 0.44674 0.0
C647 C 0.82456 0.19745 0.47133 0.0
H648 H 0.77048 0.11238 0.45156 0.0
H649 H 0.79088 0.13703 0.47192 0.0
H650 H 0.75891 0.14574 0.41652 0.0
H651 H 0.77906 0.17055 0.43761 0.0
H652 H 0.74078 0.12873 0.50977 0.0
H653 H 0.76215 0.15422 0.49033 0.0
H654 H 0.78272 0.12501 0.53662 0.0
H655 H 0.80391 0.15046 0.5176 0.0
H656 H 0.8645 0.25184 0.51516 0.0
H657 H 0.83962 0.23168 0.49424 0.0
H658 H 0.86651 0.20867 0.54067 0.0
H659 H 0.84173 0.18866 0.51995 0.0
H660 H 0.88289 0.22334 0.45523 0.0
H661 H 0.8568 0.20196 0.47296 0.0
H662 H 0.8534 0.24338 0.42644 0.0
H663 H 0.82702 0.22154 0.44429 0.0
N664 N 0.81137 0.18448 0.46061 0.0
N665 N 0.81096 0.18222 0.5017 0.0
C666 C 0.97692 0.54084 0.16148 0.0
C667 C 0.99029 0.54909 0.14699 0.0
C668 C 0.97594 0.52761 0.17356 0.0
C669 C 0.98829 0.52241 0.17132 0.0
C670 C 0.0027 0.54393 0.14491 0.0
C671 C 0.00163 0.53063 0.15685 0.0
C672 C 0.98688 0.50777 0.18309 0.0
C673 C 0.00278 0.54983 0.23004 0.0
C674 C 0.98895 0.54692 0.2429 0.0
C675 C 0.00116 0.53679 0.21701 0.0
C676 C 0.98577 0.52059 0.21687 0.0
C677 C 0.97342 0.53082 0.24251 0.0
C678 C 0.97194 0.51763 0.22976 0.0
C679 C 0.98468 0.50646 0.20429 0.0
C680 C 0.00039 0.4512 0.22503 0.0
C681 C 0.98867 0.44307 0.2412 0.0
C682 C -0.00106 0.46293 0.21264 0.0
C683 C 0.98549 0.46651 0.21582 0.0
C684 C 0.97527 0.44675 0.24444 0.0
C685 C 0.97375 0.45842 0.23191 0.0
C686 C 0.98462 0.47985 0.20369 0.0
C687 C 0.97609 0.43803 0.15903 0.0
C688 C 0.98935 0.4434 0.14432 0.0
C689 C 0.97517 0.45018 0.17158 0.0
C690 C 0.98755 0.46788 0.16972 0.0
C691 C 0.00174 0.46115 0.14261 0.0
C692 C 0.00075 0.47325 0.15506 0.0
C693 C 0.98659 0.48104 0.18238 0.0
H694 H 0.9672 0.54457 0.16342 0.0
H695 H 0.9653 0.5212 0.18431 0.0
H696 H 0.013 0.54987 0.13366 0.0
H697 H 0.0112 0.52671 0.15475 0.0
H698 H 0.01485 0.56219 0.23012 0.0
H699 H 0.01206 0.53921 0.20736 0.0
H700 H 0.96264 0.52834 0.2524 0.0
H701 H 0.96004 0.50513 0.22996 0.0
H702 H 0.01077 0.44855 0.22198 0.0
H703 H 0.00859 0.46947 0.20082 0.0
H704 H 0.96618 0.44092 0.25694 0.0
H705 H 0.96348 0.46123 0.2349 0.0
H706 H 0.9662 0.4245 0.16055 0.0
H707 H 0.96463 0.44577 0.18252 0.0
H708 H 0.01231 0.46573 0.13172 0.0
H709 H 0.01045 0.48684 0.15336 0.0
N710 N 0.98777 0.49502 0.17294 0.0
N711 N 0.98361 0.49257 0.21381 0.0
C712 C 0.469 0.42239 0.16275 0.0
C713 C 0.46123 0.42895 0.14991 0.0
C714 C 0.48385 0.43374 0.17388 0.0
C715 C 0.49123 0.45173 0.1719 0.0
C716 C 0.46861 0.44694 0.14818 0.0
C717 C 0.48353 0.45819 0.15893 0.0
C718 C 0.50713 0.46418 0.18284 0.0
C719 C 0.46422 0.44706 0.22939 0.0
C720 C 0.46357 0.43412 0.24188 0.0
C721 C 0.47863 0.4569 0.21694 0.0
C722 C 0.4927 0.45407 0.21684 0.0
C723 C 0.47759 0.4311 0.24155 0.0
C724 C 0.49218 0.44117 0.22924 0.0
C725 C 0.50802 0.46512 0.20411 0.0
C726 C 0.5563 0.53794 0.22026 0.0
C727 C 0.56635 0.53786 0.23644 0.0
C728 C 0.5468 0.52315 0.20841 0.0
C729 C 0.54712 0.50798 0.21261 0.0
C730 C 0.5671 0.52286 0.24029 0.0
C731 C 0.55733 0.50792 0.22861 0.0
C732 C 0.53509 0.49181 0.20187 0.0
C733 C 0.57677 0.52554 0.15621 0.0
C734 C 0.5704 0.52902 0.13854 0.0
C735 C 0.56524 0.51311 0.17009 0.0
C736 C 0.54716 0.50429 0.16669 0.0
C737 C 0.55237 0.52022 0.13528 0.0
C738 C 0.54093 0.50805 0.14914 0.0
C739 C 0.53442 0.49059 0.18049 0.0
H740 H 0.46354 0.40855 0.16424 0.0
H741 H 0.48971 0.42853 0.18373 0.0
H742 H 0.46299 0.45231 0.13818 0.0
H743 H 0.48903 0.47203 0.1572 0.0
H744 H 0.45352 0.44952 0.2292 0.0
H745 H 0.47888 0.46687 0.2075 0.0
H746 H 0.4774 0.42124 0.25112 0.0
H747 H 0.503 0.4389 0.22936 0.0
H748 H 0.55555 0.54937 0.21701 0.0
H749 H 0.53869 0.52336 0.19644 0.0
H750 H 0.57467 0.5225 0.25281 0.0
H751 H 0.5575 0.49625 0.23227 0.0
H752 H 0.59063 0.53213 0.15903 0.0
H753 H 0.57049 0.5102 0.18322 0.0
H754 H 0.54706 0.52287 0.122 0.0
H755 H 0.52709 0.50157 0.14612 0.0
N756 N 0.52038 0.47684 0.17191 0.0
N757 N 0.52192 0.47895 0.21287 0.0
C758 C 0.45847 0.02428 0.22768 0.0
C759 C 0.45028 0.01064 0.24171 0.0
C760 C 0.47224 0.02605 0.21559 0.0
C761 C 0.47795 0.01412 0.21716 0.0
C762 C 0.45605 -0.00126 0.24322 0.0
C763 C 0.46978 0.00051 0.23115 0.0
C764 C 0.49305 0.01618 0.20526 0.0
C765 C 0.45201 0.00305 0.15856 0.0
C766 C 0.45564 0.01651 0.14502 0.0
C767 C 0.46478 0.0044 0.17172 0.0
C768 C 0.48145 0.01925 0.17161 0.0
C769 C 0.4722 0.03155 0.14519 0.0
C770 C 0.48509 0.03281 0.15824 0.0
C771 C 0.49531 0.01986 0.18429 0.0
C772 C 0.55024 0.00411 0.1609 0.0
C773 C 0.56247 0.01878 0.14995 0.0
C774 C 0.53715 0.00445 0.17228 0.0
C775 C 0.53593 0.01943 0.17292 0.0
C776 C 0.56111 0.03376 0.15057 0.0
C777 C 0.54785 0.03401 0.16181 0.0
C778 C 0.52193 0.01961 0.18484 0.0
C779 C 0.56042 0.02107 0.22982 0.0
C780 C 0.55346 0.00632 0.24228 0.0
C781 C 0.54949 0.02417 0.21774 0.0
C782 C 0.53144 0.01252 0.21783 0.0
C783 C 0.53538 0.99472 0.24226 0.0
C784 C 0.5245 -0.00215 0.23027 0.0
C785 C 0.5195 0.01569 0.2057 0.0
H786 H 0.45452 0.03383 0.22639 0.0
H787 H 0.47864 0.03696 0.20536 0.0
H788 H 0.44987 0.98796 0.25367 0.0
H789 H 0.47399 0.99117 0.23268 0.0
H790 H 0.43934 0.99134 0.15873 0.0
H791 H 0.46178 0.99361 0.18159 0.0
H792 H 0.47534 0.04202 0.13474 0.0
H793 H 0.49794 0.04428 0.15778 0.0
H794 H 0.55051 0.99218 0.1604 0.0
H795 H 0.52783 0.99292 0.18042 0.0
H796 H 0.57037 0.04536 0.14252 0.0
H797 H 0.54705 0.04567 0.16206 0.0
H798 H 0.57425 0.03038 0.2297 0.0
H799 H 0.5551 0.0358 0.20862 0.0
H800 H 0.52962 0.98308 0.25139 0.0
H801 H 0.51062 0.98869 0.23058 0.0
N802 N 0.50518 0.01414 0.21507 0.0
N803 N 0.50975 0.02156 0.17488 0.0
C804 C 0.55166 0.0 0.7989 0.0
C805 C 0.55068 0.98852 0.78363 0.0
C806 C 0.53678 0.99689 0.80956 0.0
C807 C 0.5206 0.9823 0.80511 0.0
C808 C 0.53442 0.97373 0.77948 0.0
C809 C 0.51948 0.97078 0.78997 0.0
C810 C 0.50472 0.97989 0.81519 0.0
C811 C 0.53374 0.96822 0.8623 0.0
C812 C 0.53835 0.97873 0.87969 0.0
C813 C 0.52236 0.96855 0.84804 0.0
C814 C 0.51564 0.97962 0.85077 0.0
C815 C 0.53163 0.9898 0.8823 0.0
C816 C 0.52038 0.99019 0.86806 0.0
C817 C 0.50293 0.97973 0.83648 0.0
C818 C 0.43166 0.96993 0.84956 0.0
C819 C 0.43577 0.98294 0.8641 0.0
C820 C 0.44493 0.96914 0.83906 0.0
C821 C 0.46245 0.98124 0.84315 0.0
C822 C 0.45332 0.99504 0.86805 0.0
C823 C 0.46653 0.99409 0.8578 0.0
C824 C 0.47672 0.98042 0.83277 0.0
C825 C 0.45258 -0.00152 0.78729 0.0
C826 C 0.44505 0.98734 0.77063 0.0
C827 C 0.46346 0.9963 0.8005 0.0
C828 C 0.46681 0.98273 0.79757 0.0
C829 C 0.44875 0.974 0.76745 0.0
C830 C 0.45961 0.97179 0.78075 0.0
C831 C 0.47845 0.98049 0.81149 0.0
H832 H 0.56382 0.01173 0.80222 0.0
H833 H 0.53783 0.00617 0.82088 0.0
H834 H 0.53319 0.96448 0.76805 0.0
H835 H 0.50704 0.9595 0.78628 0.0
H836 H 0.53857 0.95943 0.85998 0.0
H837 H 0.51854 0.95986 0.83517 0.0
H838 H 0.53514 -0.00173 0.89537 0.0
H839 H 0.51539 -0.00116 0.87057 0.0
H840 H 0.41821 0.96044 0.84632 0.0
H841 H 0.44154 0.95898 0.82797 0.0
H842 H 0.45683 0.00503 0.87942 0.0
H843 H 0.47997 0.00348 0.86124 0.0
H844 H 0.44993 0.0088 0.79032 0.0
H845 H 0.46932 0.00531 0.81295 0.0
H846 H 0.44339 0.96536 0.75459 0.0
H847 H 0.46227 0.96143 0.77799 0.0
N848 N 0.49237 0.98014 0.80349 0.0
N849 N 0.48902 0.98009 0.8444 0.0
C850 C -0.00144 0.54678 0.78842 0.0
C851 C 0.00938 0.55478 0.7715 0.0
C852 C 0.0013 0.53588 0.80093 0.0
C853 C 0.01512 0.53296 0.79702 0.0
C854 C 0.02294 0.55147 0.76735 0.0
C855 C 0.02571 0.5406 0.77992 0.0
C856 C 0.01796 0.52123 0.81007 0.0
C857 C 0.02597 0.56605 0.84941 0.0
C858 C 0.01492 0.56113 0.86649 0.0
C859 C 0.02742 0.55361 0.83799 0.0
C860 C 0.0176 0.53599 0.84324 0.0
C861 C 0.00565 0.54356 0.87206 0.0
C862 C 0.00694 0.53118 0.86057 0.0
C863 C 0.01854 0.52235 0.83147 0.0
C864 C 0.03009 0.46396 0.85663 0.0
C865 C 0.01949 0.45892 0.87409 0.0
C866 C 0.03001 0.47589 0.84304 0.0
C867 C 0.01912 0.48277 0.84654 0.0
C868 C 0.00851 0.46571 0.87737 0.0
C869 C 0.00839 0.47752 0.86382 0.0
C870 C 0.01931 0.49612 0.83314 0.0
C871 C -0.00195 0.44911 0.79279 0.0
C872 C 0.00955 0.45064 0.77719 0.0
C873 C 0.00143 0.46348 0.8045 0.0
C874 C 0.01631 0.47965 0.8007 0.0
C875 C 0.02466 0.46673 0.7737 0.0
C876 C 0.02789 0.48121 0.78521 0.0
C877 C 0.01888 0.49509 0.81179 0.0
H878 H 0.98808 0.5491 0.79219 0.0
H879 H 0.99258 0.5297 0.81365 0.0
H880 H 0.03132 0.55715 0.75425 0.0
H881 H 0.03622 0.53826 0.77638 0.0
H882 H 0.03333 0.57946 0.8447 0.0
H883 H 0.03619 0.55778 0.82509 0.0
H884 H -0.00259 0.53931 0.88544 0.0
H885 H -0.00057 0.51774 0.86517 0.0
H886 H 0.0388 0.45907 0.85378 0.0
H887 H 0.03876 0.48003 0.83012 0.0
H888 H -6e-05 0.46187 0.89045 0.0
H889 H -0.00016 0.48257 0.86689 0.0
H890 H 0.98632 0.43682 0.79575 0.0
H891 H 0.99217 0.46208 0.81615 0.0
H892 H 0.03363 0.4682 0.76163 0.0
H893 H 0.03934 0.49364 0.78194 0.0
N894 N 0.01831 0.50771 0.80108 0.0
N895 N 0.01913 0.50971 0.84205 0.0
C896 C 0.52998 0.57591 0.78585 0.0
C897 C 0.53632 0.56991 0.77021 0.0
C898 C 0.51482 0.56436 0.79639 0.0
C899 C 0.5062 0.54653 0.79196 0.0
C900 C 0.52717 0.55231 0.76499 0.0
C901 C 0.51229 0.54072 0.77582 0.0
C902 C 0.4909 0.5337 0.80386 0.0
C903 C 0.53378 0.55834 0.85016 0.0
C904 C 0.53132 0.56867 0.86433 0.0
C905 C 0.52038 0.54745 0.83709 0.0
C906 C 0.50427 0.54668 0.83799 0.0
C907 C 0.51525 0.56804 0.86505 0.0
C908 C 0.50175 0.55695 0.85213 0.0
C909 C 0.48973 0.53424 0.82518 0.0
C910 C 0.43391 0.46319 0.84734 0.0
C911 C 0.42674 0.46711 0.86412 0.0
C912 C 0.44514 0.47626 0.83406 0.0
C913 C 0.44897 0.49339 0.83696 0.0
C914 C 0.43046 0.48419 0.86697 0.0
C915 C 0.44146 0.4972 0.85348 0.0
C916 C 0.46246 0.50771 0.82459 0.0
C917 C 0.42114 0.47122 0.78154 0.0
C918 C 0.42722 0.46361 0.76746 0.0
C919 C 0.43288 0.48559 0.79296 0.0
C920 C 0.45089 0.49247 0.79068 0.0
C921 C 0.44526 0.47091 0.76478 0.0
C922 C 0.45695 0.48523 0.7762 0.0
C923 C 0.46366 0.50709 0.80325 0.0
H924 H 0.53678 0.58951 0.78992 0.0
H925 H 0.51 0.56937 0.80811 0.0
H926 H 0.5319 0.54741 0.75301 0.0
H927 H 0.50582 0.5271 0.77191 0.0
H928 H 0.54606 0.55863 0.84927 0.0
H929 H 0.52248 0.53938 0.82653 0.0
H930 H 0.51298 0.57573 0.876 0.0
H931 H 0.48933 0.55635 0.8532 0.0
H932 H 0.4315 0.45018 0.84507 0.0
H933 H 0.45135 0.47305 0.82202 0.0
H934 H 0.42508 0.48751 0.87982 0.0
H935 H 0.44444 0.51035 0.85623 0.0
H936 H 0.40732 0.46607 0.7837 0.0
H937 H 0.42789 0.49124 0.80367 0.0
H938 H 0.45039 0.46527 0.75425 0.0
H939 H 0.47079 0.49034 0.77412 0.0
N940 N 0.47784 0.5201 0.7938 0.0
N941 N 0.4755 0.52134 0.83465 0.0
C942 C 0.6496 0.77283 0.50339 0.0
C943 C 0.63826 0.76498 0.48695 0.0
C944 C 0.64808 0.78461 0.5159 0.0
C945 C 0.63478 0.78837 0.51277 0.0
C946 C 0.62505 0.76891 0.48375 0.0
C947 C 0.62335 0.78046 0.49652 0.0
C948 C 0.63365 0.80163 0.52513 0.0
C949 C 0.62914 0.76104 0.56849 0.0
C950 C 0.64312 0.76749 0.58213 0.0
C951 C 0.62622 0.7724 0.55706 0.0
C952 C 0.63733 0.79038 0.559 0.0
C953 C 0.65375 0.78549 0.58456 0.0
C954 C 0.65084 0.7968 0.57318 0.0
C955 C 0.63522 0.80277 0.54645 0.0
C956 C 0.625 0.86272 0.56768 0.0
C957 C 0.63798 0.87052 0.58255 0.0
C958 C 0.62372 0.84917 0.55574 0.0
C959 C 0.63553 0.84336 0.55831 0.0
C960 C 0.64956 0.86443 0.58526 0.0
C961 C 0.64829 0.85096 0.57335 0.0
C962 C 0.63456 0.82904 0.54604 0.0
C963 C 0.64846 0.87218 0.50151 0.0
C964 C 0.63784 0.86765 0.48434 0.0
C965 C 0.64676 0.85941 0.51494 0.0
C966 C 0.63399 0.84195 0.51181 0.0
C967 C 0.62512 0.85023 0.48116 0.0
C968 C 0.62319 0.83751 0.4948 0.0
C969 C 0.63313 0.82804 0.52469 0.0
H970 H 0.65982 0.77005 0.50652 0.0
H971 H 0.65756 0.79103 0.52776 0.0
H972 H 0.61631 0.76347 0.47102 0.0
H973 H 0.6132 0.7834 0.49353 0.0
H974 H 0.62073 0.74723 0.5663 0.0
H975 H 0.61547 0.76716 0.54654 0.0
H976 H 0.6644 0.79085 0.59523 0.0
H977 H 0.65944 0.81062 0.5751 0.0
H978 H 0.61574 0.86697 0.56542 0.0
H979 H 0.61348 0.84321 0.54458 0.0
H980 H 0.65987 0.87032 0.59634 0.0
H981 H 0.6575 0.84665 0.57566 0.0
H982 H 0.65859 0.88549 0.50406 0.0
H983 H 0.65586 0.86319 0.52733 0.0
H984 H 0.61677 0.84644 0.46801 0.0
H985 H 0.61344 0.82412 0.49185 0.0
N986 N 0.63255 0.81426 0.51516 0.0
N987 N 0.63566 0.81643 0.55598 0.0
C988 C 0.14196 0.7529 0.50282 0.0
C989 C 0.13841 0.75773 0.4841 0.0
C990 C 0.15501 0.76535 0.5153 0.0
C991 C 0.16418 0.78291 0.50956 0.0
C992 C 0.14798 0.77508 0.47803 0.0
C993 C 0.16063 0.78753 0.49064 0.0
C994 C 0.17773 0.79674 0.52254 0.0
C995 C 0.13002 0.77538 0.56239 0.0
C996 C 0.13016 0.76529 0.57848 0.0
C997 C 0.14501 0.78534 0.55081 0.0
C998 C 0.16047 0.78552 0.55522 0.0
C999 C 0.14551 0.76517 0.58268 0.0
C1000 C 0.16067 0.77545 0.57129 0.0
C1001 C 0.17655 0.7973 0.54391 0.0
C1002 C 0.22195 0.87018 0.56474 0.0
C1003 C 0.23452 0.8713 0.57839 0.0
C1004 C 0.21179 0.85508 0.55366 0.0
C1005 C 0.21386 0.84072 0.55603 0.0
C1006 C 0.23648 0.85678 0.5808 0.0
C1007 C 0.22612 0.84155 0.5698 0.0
C1008 C 0.20279 0.82483 0.54435 0.0
C1009 C 0.24477 0.86317 0.50176 0.0
C1010 C 0.23761 0.86955 0.48778 0.0
C1011 C 0.23385 0.8485 0.51343 0.0
C1012 C 0.21571 0.83991 0.51092 0.0
C1013 C 0.21949 0.86085 0.4853 0.0
C1014 C 0.20868 0.8461 0.49661 0.0
C1015 C 0.20364 0.82455 0.52305 0.0
H1016 H 0.13475 0.73952 0.50768 0.0
H1017 H 0.1579 0.76117 0.52932 0.0
H1018 H 0.14533 0.7791 0.46371 0.0
H1019 H 0.16745 0.80089 0.48566 0.0
H1020 H 0.11832 0.77566 0.55889 0.0
H1021 H 0.14466 0.79325 0.53869 0.0
H1022 H 0.14591 0.75757 0.59513 0.0
H1023 H 0.17254 0.77559 0.57504 0.0
H1024 H 0.2197 0.88086 0.56284 0.0
H1025 H 0.20214 0.85455 0.54333 0.0
H1026 H 0.24611 0.85721 0.59103 0.0
H1027 H 0.22781 0.83052 0.57186 0.0
H1028 H 0.25873 0.86968 0.50386 0.0
H1029 H 0.23954 0.84382 0.52429 0.0
H1030 H 0.21368 0.86541 0.47445 0.0
H1031 H 0.19473 0.83969 0.49443 0.0
N1032 N 0.1912 0.81049 0.51305 0.0
N1033 N 0.18924 0.81124 0.55401 0.0
C1034 C 0.24053 0.3789 0.49338 0.0
C1035 C 0.23414 0.36639 0.47781 0.0
C1036 C 0.22905 0.38115 0.50587 0.0
C1037 C 0.21099 0.37097 0.50298 0.0
C1038 C 0.21601 0.35616 0.47519 0.0
C1039 C 0.20462 0.35855 0.48748 0.0
C1040 C 0.19846 0.37313 0.51568 0.0
C1041 C 0.21923 0.348 0.55616 0.0
C1042 C 0.23048 0.35917 0.57121 0.0
C1043 C 0.20906 0.35258 0.54487 0.0
C1044 C 0.20984 0.36839 0.54838 0.0
C1045 C 0.23123 0.37506 0.57466 0.0
C1046 C 0.22085 0.37954 0.56345 0.0
C1047 C 0.19831 0.37259 0.53701 0.0
C1048 C 0.12693 0.3516 0.56029 0.0
C1049 C 0.12855 0.36347 0.57528 0.0
C1050 C 0.14102 0.35523 0.54764 0.0
C1051 C 0.15699 0.3707 0.54999 0.0
C1052 C 0.14444 0.37906 0.57746 0.0
C1053 C 0.15868 0.38253 0.56509 0.0
C1054 C 0.17217 0.37376 0.53769 0.0
C1055 C 0.13704 0.38287 0.49718 0.0
C1056 C 0.1328 0.3738 0.47874 0.0
C1057 C 0.15001 0.38337 0.5095 0.0
C1058 C 0.15843 0.37424 0.50388 0.0
C1059 C 0.14145 0.36507 0.47291 0.0
C1060 C 0.15403 0.36521 0.48537 0.0
C1061 C 0.17238 0.37445 0.51627 0.0
H1062 H 0.2544 0.38714 0.49569 0.0
H1063 H 0.23427 0.391 0.51757 0.0
H1064 H 0.21054 0.34612 0.46374 0.0
H1065 H 0.19073 0.35046 0.48507 0.0
H1066 H 0.21789 0.33547 0.55341 0.0
H1067 H 0.2003 0.34359 0.53363 0.0
H1068 H 0.23984 0.38406 0.58598 0.0
H1069 H 0.22148 0.39174 0.56646 0.0
H1070 H 0.11476 0.3395 0.5584 0.0
H1071 H 0.13957 0.34582 0.53629 0.0
H1072 H 0.14592 0.38833 0.58903 0.0
H1073 H 0.17098 0.39443 0.56725 0.0
H1074 H 0.13056 0.38978 0.50184 0.0
H1075 H 0.15357 0.39109 0.52317 0.0
H1076 H 0.13825 0.35787 0.45881 0.0
H1077 H 0.16026 0.35809 0.48051 0.0
N1078 N 0.18555 0.37409 0.50621 0.0
N1079 N 0.1852 0.37296 0.54723 0.0
H1080 H 0.0248 0.39759 0.05516 0.0
H1081 H 0.97557 0.3539 0.0742 0.0
H1082 H 0.0211 0.41598 0.07946 0.0
H1083 H 0.97189 0.3725 0.09866 0.0
H1084 H 0.98313 0.41082 0.15333 0.0
H1085 H 0.98581 0.39059 0.13063 0.0
H1086 H 0.00042 0.42714 0.08159 0.0
H1087 H -0.00261 0.44712 0.10395 0.0
C1088 C 0.01322 0.39187 0.06462 0.0
C1089 C 0.00041 0.37431 0.06264 0.0
C1090 C 0.01108 0.40245 0.07847 0.0
C1091 C -0.00388 0.39571 0.09077 0.0
C1092 C 0.98356 0.37801 0.08938 0.0
C1093 C 0.98565 0.3674 0.07535 0.0
C1094 C 0.98669 0.41443 0.13764 0.0
C1095 C 0.99024 0.43069 0.13053 0.0
C1096 C 0.98825 0.40287 0.12468 0.0
C1097 C 0.99352 0.4074 0.10443 0.0
C1098 C -0.00332 0.42346 0.09724 0.0
C1099 C 0.995 0.43492 0.11009 0.0
H1100 H 0.64195 0.61825 0.06186 0.0
H1101 H 0.58872 0.59491 0.04163 0.0
H1102 H 0.63284 0.59497 0.08695 0.0
H1103 H 0.57983 0.57194 0.06628 0.0
H1104 H 0.56999 0.52467 0.09778 0.0
H1105 H 0.58502 0.54702 0.07218 0.0
H1106 H 0.61231 0.58477 0.11917 0.0
H1107 H 0.59715 0.56225 0.14496 0.0
C1108 C 0.62839 0.60812 0.06265 0.0
C1109 C 0.61604 0.60843 0.0498 0.0
C1110 C 0.62319 0.59488 0.07702 0.0
C1111 C 0.60567 0.5816 0.07841 0.0
C1112 C 0.59347 0.58186 0.06536 0.0
C1113 C 0.59856 0.59512 0.05132 0.0
C1114 C 0.57941 0.53768 0.10264 0.0
C1115 C 0.58217 0.54182 0.12334 0.0
C1116 C 0.58802 0.55045 0.08801 0.0
C1117 C 0.59959 0.56766 0.09373 0.0
C1118 C 0.60347 0.57158 0.11436 0.0
C1119 C 0.5948 0.55873 0.1291 0.0
H1120 H 0.3918 0.0252 0.05078 0.0
H1121 H 0.36629 0.97109 0.06667 0.0
H1122 H 0.41355 0.03187 0.0771 0.0
H1123 H 0.38719 0.9777 0.0935 0.0
H1124 H 0.43824 0.98945 0.11948 0.0
H1125 H 0.41622 0.98484 0.0949 0.0
H1126 H 0.42083 0.03361 0.11219 0.0
H1127 H 0.44361 0.03847 0.13636 0.0
C1128 C 0.39064 0.01483 0.06023 0.0
C1129 C 0.37757 -0.00238 0.05655 0.0
C1130 C 0.40305 0.01862 0.07533 0.0
C1131 C 0.40239 0.00527 0.08717 0.0
C1132 C 0.38853 0.98824 0.08424 0.0
C1133 C 0.37643 0.98445 0.06897 0.0
C1134 C 0.4345 -0.00085 0.11806 0.0
C1135 C 0.44246 0.01421 0.12992 0.0
C1136 C 0.42177 0.99649 0.10406 0.0
C1137 C 0.41644 0.00869 0.10178 0.0
C1138 C 0.42465 0.02396 0.11346 0.0
C1139 C 0.43764 0.02674 0.12733 0.0
H1140 H 0.39344 0.01571 0.95788 0.0
H1141 H 0.34832 0.96669 0.94188 0.0
H1142 H 0.40969 0.01275 0.93008 0.0
H1143 H 0.36455 0.96392 0.91346 0.0
H1144 H 0.4084 0.95653 0.88422 0.0
H1145 H 0.38841 0.95873 0.90791 0.0
H1146 H 0.41207 0.01319 0.89399 0.0
H1147 H 0.43231 0.011 0.8708 0.0
C1148 C 0.38692 0.00437 0.94826 0.0
C1149 C 0.36962 0.9914 0.95212 0.0
C1150 C 0.3962 0.00274 0.93218 0.0
C1151 C 0.3884 0.98815 0.91943 0.0
C1152 C 0.37098 0.97525 0.9231 0.0
C1153 C 0.36167 0.97686 0.93931 0.0
C1154 C 0.40906 0.96886 0.88599 0.0
C1155 C 0.42199 0.98364 0.87592 0.0
C1156 C 0.3976 0.97014 0.89951 0.0
C1157 C 0.39881 0.98619 0.90307 0.0
C1158 C 0.41108 0.00072 0.89198 0.0
C1159 C 0.42261 -0.00053 0.87864 0.0
H1160 H 0.02486 0.38052 0.94995 0.0
H1161 H 0.98479 0.38975 0.9732 0.0
H1162 H 0.03199 0.40256 0.9237 0.0
H1163 H 0.99186 0.41136 0.94736 0.0
H1164 H 0.02012 0.4619 0.91519 0.0
H1165 H 0.01733 0.44084 0.94024 0.0
H1166 H 0.01723 0.40764 0.89255 0.0
H1167 H 0.01992 0.42882 0.86723 0.0
C1168 C 0.0176 0.38719 0.94949 0.0
C1169 C 0.0043 0.38337 0.96376 0.0
C1170 C 0.02164 0.39973 0.93444 0.0
C1171 C 0.01261 0.40881 0.93364 0.0
C1172 C -0.00074 0.40483 0.94779 0.0
C1173 C 0.99515 0.3923 0.96256 0.0
C1174 C 0.01953 0.45013 0.90999 0.0
C1175 C 0.01988 0.44688 0.88919 0.0
C1176 C 0.01799 0.4381 0.92435 0.0
C1177 C 0.0168 0.42248 0.91833 0.0
C1178 C 0.01817 0.41959 0.89761 0.0
C1179 C 0.01968 0.4317 0.88314 0.0
H1180 H 0.62251 0.61392 0.94149 0.0
H1181 H 0.59622 0.64154 0.95792 0.0
H1182 H 0.60102 0.59836 0.91534 0.0
H1183 H 0.57411 0.62535 0.93241 0.0
H1184 H 0.54428 0.60279 0.87369 0.0
H1185 H 0.56742 0.62053 0.89763 0.0
H1186 H 0.57208 0.57612 0.91236 0.0
H1187 H 0.54956 0.5588 0.8879 0.0
C1188 C 0.61207 0.61661 0.93953 0.0
C1189 C 0.61099 0.62888 0.95178 0.0
C1190 C 0.59964 0.60759 0.92464 0.0
C1191 C 0.58563 0.61039 0.92186 0.0
C1192 C 0.58479 0.62296 0.9339 0.0
C1193 C 0.59741 0.6322 0.94861 0.0
C1194 C 0.55034 0.59692 0.88208 0.0
C1195 C 0.54525 0.57949 0.87888 0.0
C1196 C 0.56353 0.60703 0.89585 0.0
C1197 C 0.57174 0.59983 0.90693 0.0
C1198 C 0.56642 0.58228 0.9038 0.0
C1199 C 0.55344 0.57229 0.88984 0.0
H1200 H 0.97528 0.61505 0.93905 0.0
H1201 H 0.02723 0.63363 0.961 0.0
H1202 H 0.98088 0.6014 0.91033 0.0
H1203 H 0.03261 0.61891 0.93304 0.0
H1204 H 0.04 0.59445 0.87678 0.0
H1205 H 0.0366 0.61463 0.8986 0.0
H1206 H 0.98205 0.57647 0.90655 0.0
H1207 H 0.98517 0.5571 0.88371 0.0
C1208 C 0.98798 0.61628 0.93756 0.0
C1209 C 0.00079 0.62523 0.95221 0.0
C1210 C 0.99116 0.60832 0.92124 0.0
C1211 C 0.00705 0.60859 0.91957 0.0
C1212 C 0.02026 0.61846 0.93368 0.0
C1213 C 0.0172 0.62686 0.94977 0.0
C1214 C 0.02721 0.59057 0.88283 0.0
C1215 C 0.0129 0.57404 0.87865 0.0
C1216 C 0.0253 0.60207 0.89557 0.0
C1217 C 0.00906 0.59726 0.90449 0.0
C1218 C 0.99472 0.58089 0.89979 0.0
C1219 C -0.00343 0.56956 0.88692 0.0
H1220 H 0.39924 0.39448 0.96188 0.0
H1221 H 0.34936 0.38609 0.94257 0.0
H1222 H 0.41369 0.41653 0.9357 0.0
H1223 H 0.36389 0.40801 0.91613 0.0
H1224 H 0.39898 0.43459 0.85797 0.0
H1225 H 0.38329 0.41196 0.8835 0.0
H1226 H 0.41643 0.44682 0.93012 0.0
H1227 H 0.43194 0.46943 0.90474 0.0
C1228 C 0.39137 0.39725 0.95195 0.0
C1229 C 0.37319 0.38862 0.95429 0.0
C1230 C 0.39964 0.40991 0.93706 0.0
C1231 C 0.38987 0.41395 0.92402 0.0
C1232 C 0.37166 0.40504 0.926 0.0
C1233 C 0.3634 0.39259 0.94114 0.0
C1234 C 0.40279 0.43738 0.87371 0.0
C1235 C 0.41658 0.45371 0.87946 0.0
C1236 C 0.39381 0.42451 0.88825 0.0
C1237 C 0.39875 0.4277 0.90868 0.0
C1238 C 0.41248 0.44405 0.91443 0.0
C1239 C 0.42123 0.45699 0.89997 0.0
H1240 H 0.60539 0.01206 0.98099 0.0
H1241 H 0.6165 0.97385 0.95652 0.0
H1242 H 0.58346 0.00469 0.95537 0.0
H1243 H 0.59413 0.96633 0.93059 0.0
H1244 H 0.5687 0.97832 0.87404 0.0
H1245 H 0.58923 0.9807 0.9001 0.0
H1246 H 0.55455 0.98018 0.94653 0.0
H1247 H 0.53417 0.97781 0.92067 0.0
C1248 C 0.60311 0.002 0.97018 0.0
C1249 C 0.61275 0.99356 0.97083 0.0
C1250 C 0.5904 -0.00232 0.95554 0.0
C1251 C 0.58695 0.98483 0.94105 0.0
C1252 C 0.59655 0.97632 0.94157 0.0
C1253 C 0.60926 0.98056 0.95645 0.0
C1254 C 0.56536 0.97841 0.88984 0.0
C1255 C 0.54997 0.9782 0.8953 0.0
C1256 C 0.57709 0.97973 0.90474 0.0
C1257 C 0.57361 0.98087 0.92533 0.0
C1258 C 0.55777 0.97969 0.93077 0.0
C1259 C 0.54611 0.97838 0.91595 0.0
H1260 H 0.61313 0.9779 0.07711 0.0
H1261 H 0.646 0.0328 0.06647 0.0
H1262 H 0.5965 0.98371 0.10227 0.0
H1263 H 0.62911 0.03858 0.09153 0.0
H1264 H 0.57574 0.03392 0.11296 0.0
H1265 H 0.59673 0.03119 0.09172 0.0
H1266 H 0.60083 -0.00104 0.13697 0.0
H1267 H 0.58042 0.00222 0.15871 0.0
C1268 C 0.6169 0.99122 0.08032 0.0
C1269 C 0.63083 0.0049 0.06983 0.0
C1270 C 0.60744 0.99454 0.09477 0.0
C1271 C 0.61151 0.01159 0.09878 0.0
C1272 C 0.62567 0.02532 0.08863 0.0
C1273 C 0.63537 0.02201 0.07441 0.0
C1274 C 0.5814 0.0266 0.11867 0.0
C1275 C 0.57621 0.01817 0.13754 0.0
C1276 C 0.5934 0.02501 0.10644 0.0
C1277 C 0.60032 0.0148 0.11269 0.0
C1278 C 0.59554 0.00676 0.13172 0.0
C1279 C 0.58374 0.00854 0.14408 0.0
H1280 H 0.02034 0.62265 0.04993 0.0
H1281 H 0.97158 0.61723 0.07002 0.0
H1282 H 0.01842 0.60321 0.07663 0.0
H1283 H 0.96988 0.59809 0.09723 0.0
H1284 H 0.96345 0.54834 0.12652 0.0
H1285 H 0.96501 0.56933 0.10199 0.0
H1286 H 0.02029 0.60132 0.11256 0.0
H1287 H 0.01872 0.58013 0.13677 0.0
C1288 C 0.00927 0.61742 0.06017 0.0
C1289 C -0.00391 0.62145 0.05783 0.0
C1290 C 0.00823 0.60636 0.0756 0.0
C1291 C 0.99403 0.59913 0.08916 0.0
C1292 C 0.9809 0.60328 0.08692 0.0
C1293 C 0.9819 0.61431 0.07139 0.0
C1294 C 0.97587 0.55999 0.12379 0.0
C1295 C 0.99098 0.56256 0.13345 0.0
C1296 C 0.97678 0.57203 0.10976 0.0
C1297 C 0.9928 0.58696 0.10517 0.0
C1298 C 0.0078 0.58979 0.1154 0.0
C1299 C 0.00691 0.57769 0.12931 0.0
H1300 H 0.38381 0.35888 0.0612 0.0
H1301 H 0.38829 0.40916 0.05881 0.0
H1302 H 0.40337 0.36844 0.09034 0.0
H1303 H 0.40786 0.41867 0.08737 0.0
H1304 H 0.43081 0.42881 0.1481 0.0
H1305 H 0.40767 0.41396 0.12334 0.0
H1306 H 0.43425 0.38892 0.09838 0.0
H1307 H 0.45722 0.40353 0.12366 0.0
C1308 C 0.38894 0.37193 0.06685 0.0
C1309 C 0.38444 0.38323 0.05767 0.0
C1310 C 0.40017 0.37741 0.0835 0.0
C1311 C 0.40702 0.39425 0.09133 0.0
C1312 C 0.40252 0.40548 0.08206 0.0
C1313 C 0.39138 0.40005 0.06551 0.0
C1314 C 0.43148 0.41985 0.13756 0.0
C1315 C 0.44583 0.41742 0.13758 0.0
C1316 C 0.41832 0.41144 0.12332 0.0
C1317 C 0.41932 0.40057 0.1086 0.0
C1318 C 0.43308 0.39719 0.10953 0.0
C1319 C 0.44622 0.40553 0.12397 0.0
H1320 H 0.67713 0.72863 0.38967 0.0
H1321 H 0.63064 0.68181 0.40855 0.0
H1322 H 0.67213 0.74484 0.41568 0.0
H1323 H 0.626 0.69792 0.43544 0.0
H1324 H 0.61327 0.73604 0.46689 0.0
H1325 H 0.61767 0.71872 0.44165 0.0
H1326 H 0.67329 0.74971 0.45049 0.0
H1327 H 0.669 0.76784 0.47432 0.0
C1328 C 0.66594 0.72174 0.39959 0.0
C1329 C 0.65429 0.70393 0.39708 0.0
C1330 C 0.66312 0.73103 0.41466 0.0
C1331 C 0.64872 0.72272 0.42786 0.0
C1332 C 0.6371 0.70482 0.42542 0.0
C1333 C 0.63981 0.69555 0.4101 0.0
C1334 C 0.62645 0.7393 0.46328 0.0
C1335 C 0.64076 0.75348 0.47264 0.0
C1336 C 0.62897 0.72917 0.449 0.0
C1337 C 0.64585 0.73283 0.44387 0.0
C1338 C 0.6601 0.74667 0.4537 0.0
C1339 C 0.65761 0.75693 0.46772 0.0
H1340 H 0.30837 0.95086 0.40232 0.0
H1341 H 0.25671 0.94351 0.39773 0.0
H1342 H 0.29844 0.93032 0.43058 0.0
H1343 H 0.24686 0.92298 0.4253 0.0
H1344 H 0.23518 0.89837 0.48524 0.0
H1345 H 0.24988 0.9221 0.46119 0.0
H1346 H 0.27909 0.89926 0.43778 0.0
H1347 H 0.26464 0.87572 0.4625 0.0
C1348 C 0.29494 0.9449 0.4073 0.0
C1349 C 0.28338 0.94892 0.39779 0.0
C1350 C 0.28925 0.93309 0.42343 0.0
C1351 C 0.27191 0.92516 0.43039 0.0
C1352 C 0.26041 0.92915 0.42073 0.0
C1353 C 0.26606 0.94087 0.40473 0.0
C1354 C 0.24498 0.89862 0.47518 0.0
C1355 C 0.24868 0.88518 0.47552 0.0
C1356 C 0.25332 0.91213 0.46131 0.0
C1357 C 0.26539 0.91238 0.44724 0.0
C1358 C 0.2699 0.89948 0.44843 0.0
C1359 C 0.26164 0.886 0.46253 0.0
H1360 H 0.06418 0.36953 0.38127 0.0
H1361 H 0.04618 0.31853 0.40563 0.0
H1362 H 0.08568 0.38224 0.40858 0.0
H1363 H 0.06725 0.33121 0.43296 0.0
H1364 H 0.09847 0.35988 0.48784 0.0
H1365 H 0.07487 0.35276 0.46385 0.0
H1366 H 0.11272 0.37798 0.41596 0.0
H1367 H 0.13621 0.38475 0.43984 0.0
C1368 C 0.06464 0.3611 0.39261 0.0
C1369 C 0.05364 0.34305 0.39126 0.0
C1370 C 0.0769 0.36835 0.40817 0.0
C1371 C 0.07799 0.35769 0.42288 0.0
C1372 C 0.06652 0.33973 0.42195 0.0
C1373 C 0.05458 0.33248 0.4062 0.0
C1374 C 0.10169 0.36429 0.47231 0.0
C1375 C 0.11904 0.37279 0.46557 0.0
C1376 C 0.08825 0.36018 0.45861 0.0
C1377 C 0.09203 0.36481 0.4381 0.0
C1378 C 0.10948 0.37441 0.43173 0.0
C1379 C 0.12288 0.37822 0.44532 0.0
H1380 H 0.0544 0.34337 0.27648 0.0
H1381 H 0.0203 0.29003 0.29391 0.0
H1382 H 0.06692 0.33403 0.24968 0.0
H1383 H 0.03303 0.28075 0.26723 0.0
H1384 H 0.08288 0.28068 0.24025 0.0
H1385 H 0.06457 0.28622 0.26326 0.0
H1386 H 0.05755 0.31549 0.2164 0.0
H1387 H 0.07569 0.30962 0.19326 0.0
C1388 C 0.04952 0.32966 0.2745 0.0
C1389 C 0.03646 0.31743 0.28733 0.0
C1390 C 0.05657 0.32432 0.25908 0.0
C1391 C 0.05087 0.30669 0.25641 0.0
C1392 C 0.03763 0.29442 0.26903 0.0
C1393 C 0.03037 0.29974 0.28424 0.0
C1394 C 0.07703 0.28791 0.2348 0.0
C1395 C 0.08053 0.29469 0.2151 0.0
C1396 C 0.06657 0.29106 0.24788 0.0
C1397 C 0.05974 0.30133 0.24157 0.0
C1398 C 0.06274 0.30758 0.22159 0.0
C1399 C 0.07296 0.30416 0.20837 0.0
H1400 H 0.65875 0.7316 0.30816 0.0
H1401 H 0.69092 0.71181 0.28552 0.0
H1402 H 0.67161 0.75482 0.28354 0.0
H1403 H 0.70384 0.73535 0.26044 0.0
H1404 H 0.69937 0.76785 0.20419 0.0
H1405 H 0.69232 0.74497 0.22911 0.0
H1406 H 0.7017 0.78117 0.27755 0.0
H1407 H 0.70889 0.80396 0.25286 0.0
C1408 C 0.66859 0.73219 0.29791 0.0
C1409 C 0.67379 0.71981 0.29881 0.0
C1410 C 0.67605 0.74561 0.28388 0.0
C1411 C 0.68883 0.74698 0.2702 0.0
C1412 C 0.69402 0.73457 0.27086 0.0
C1413 C 0.68668 0.72118 0.28522 0.0
C1414 C 0.70035 0.771 0.22017 0.0
C1415 C 0.70434 0.7876 0.22657 0.0
C1416 C 0.69633 0.75791 0.2344 0.0
C1417 C 0.6962 0.76126 0.25522 0.0
C1418 C 0.70139 0.77817 0.26158 0.0
C1419 C 0.70545 0.79118 0.24744 0.0
H1420 H 0.27396 0.93542 0.30202 0.0
H1421 H 0.27601 0.98315 0.28636 0.0
H1422 H 0.25128 0.91998 0.27698 0.0
H1423 H 0.25322 0.96755 0.26108 0.0
H1424 H 0.22591 0.93258 0.20308 0.0
H1425 H 0.24867 0.95031 0.22756 0.0
H1426 H 0.21986 0.91285 0.27433 0.0
H1427 H 0.19701 0.89542 0.25023 0.0
C1428 C 0.26962 0.94264 0.29317 0.0
C1429 C 0.2767 0.96049 0.29624 0.0
C1430 C 0.25657 0.93377 0.27891 0.0
C1431 C 0.25042 0.94256 0.26724 0.0
C1432 C 0.25778 0.9605 0.26987 0.0
C1433 C 0.27074 0.96937 0.28437 0.0
C1434 C 0.22431 0.92829 0.21866 0.0
C1435 C 0.20977 0.91244 0.22462 0.0
C1436 C 0.23734 0.93842 0.23263 0.0
C1437 C 0.2361 0.9328 0.25272 0.0
C1438 C 0.2213 0.9173 0.25882 0.0
C1439 C 0.20826 0.9073 0.24498 0.0
H1440 H 0.64977 0.93233 0.27893 0.0
H1441 H 0.70113 0.97218 0.29749 0.0
H1442 H 0.66251 0.9245 0.25096 0.0
H1443 H 0.71393 0.964 0.26958 0.0
H1444 H 0.72097 0.91778 0.24084 0.0
H1445 H 0.71319 0.93416 0.26417 0.0
H1446 H 0.68141 0.93791 0.21785 0.0
H1447 H 0.68953 0.9218 0.19437 0.0
C1448 C 0.66378 0.93951 0.27691 0.0
C1449 C 0.67448 0.95279 0.29044 0.0
C1450 C 0.67105 0.93513 0.26081 0.0
C1451 C 0.68918 0.94371 0.25812 0.0
C1452 C 0.69991 0.95725 0.27135 0.0
C1453 C 0.69259 0.96192 0.28725 0.0
C1454 C 0.71279 0.92263 0.23551 0.0
C1455 C 0.70584 0.91865 0.21591 0.0
C1456 C 0.70838 0.932 0.24879 0.0
C1457 C 0.69667 0.9372 0.24278 0.0
C1458 C 0.69046 0.93401 0.2228 0.0
C1459 C 0.69515 0.92491 0.20938 0.0
H1460 H 0.0174 0.72156 0.28937 0.0
H1461 H 0.06453 0.7192 0.29197 0.0
H1462 H 0.02908 0.7409 0.26016 0.0
H1463 H 0.07636 0.7388 0.26337 0.0
H1464 H 0.08984 0.76329 0.20306 0.0
H1465 H 0.07327 0.74052 0.22778 0.0
H1466 H 0.0514 0.77028 0.25215 0.0
H1467 H 0.06761 0.79277 0.22684 0.0
C1468 C 0.03025 0.72519 0.28372 0.0
C1469 C 0.04006 0.71887 0.29296 0.0
C1470 C 0.03696 0.7363 0.26704 0.0
C1471 C 0.05361 0.74132 0.25932 0.0
C1472 C 0.06334 0.73492 0.2686 0.0
C1473 C 0.05662 0.72378 0.28515 0.0
C1474 C 0.08121 0.76474 0.21348 0.0
C1475 C 0.08005 0.77977 0.21323 0.0
C1476 C 0.07183 0.7518 0.22772 0.0
C1477 C 0.06129 0.75374 0.24223 0.0
C1478 C 0.05933 0.76833 0.24115 0.0
C1479 C 0.06859 0.78121 0.2267 0.0
H1480 H 0.26713 0.33783 0.30896 0.0
H1481 H 0.28473 0.30362 0.28749 0.0
H1482 H 0.24381 0.32567 0.28446 0.0
H1483 H 0.26104 0.29135 0.26258 0.0
H1484 H 0.22945 0.296 0.20579 0.0
H1485 H 0.25211 0.3024 0.23088 0.0
H1486 H 0.21649 0.29698 0.27888 0.0
H1487 H 0.19397 0.29055 0.254 0.0
C1488 C 0.26603 0.32767 0.29901 0.0
C1489 C 0.27784 0.32171 0.30021 0.0
C1490 C 0.25254 0.3206 0.28504 0.0
C1491 C 0.25049 0.30744 0.27173 0.0
C1492 C 0.26233 0.30149 0.2727 0.0
C1493 C 0.27581 0.30845 0.28697 0.0
C1494 C 0.22637 0.29576 0.22173 0.0
C1495 C 0.21005 0.29311 0.22792 0.0
C1496 C 0.23932 0.29942 0.23607 0.0
C1497 C 0.23613 0.30048 0.25678 0.0
C1498 C 0.21942 0.29659 0.26298 0.0
C1499 C 0.20654 0.29293 0.24874 0.0
H1500 H 0.31845 0.36705 0.4069 0.0
H1501 H 0.27101 0.31927 0.39312 0.0
H1502 H 0.3023 0.37474 0.43096 0.0
H1503 H 0.25502 0.32711 0.41679 0.0
H1504 H 0.2306 0.35925 0.4372 0.0
H1505 H 0.24859 0.35258 0.41547 0.0
H1506 H 0.28339 0.36201 0.46519 0.0
H1507 H 0.26495 0.36802 0.48745 0.0
C1508 C 0.30465 0.35816 0.40911 0.0
C1509 C 0.29598 0.3426 0.39805 0.0
C1510 C 0.29545 0.36255 0.42288 0.0
C1511 C 0.27743 0.35157 0.42554 0.0
C1512 C 0.26889 0.33587 0.41484 0.0
C1513 C 0.27808 0.33136 0.40136 0.0
C1514 C 0.24195 0.35973 0.44367 0.0
C1515 C 0.24611 0.36389 0.46423 0.0
C1516 C 0.2523 0.35601 0.43115 0.0
C1517 C 0.26724 0.35662 0.43874 0.0
C1518 C 0.27193 0.36149 0.459 0.0
C1519 C 0.26139 0.36499 0.47168 0.0
H1520 H 0.67953 0.94232 0.3868 0.0
H1521 H 0.63402 0.94374 0.40684 0.0
H1522 H 0.67407 0.92086 0.41289 0.0
H1523 H 0.62879 0.92249 0.43317 0.0
H1524 H 0.6398 0.89871 0.49081 0.0
H1525 H 0.64538 0.92097 0.46555 0.0
H1526 H 0.64843 0.88884 0.41863 0.0
H1527 H 0.64263 0.86656 0.44377 0.0
C1528 C 0.66846 0.93816 0.39688 0.0
C1529 C 0.65716 0.94465 0.39476 0.0
C1530 C 0.66531 0.92584 0.41172 0.0
C1531 C 0.651 0.92004 0.42495 0.0
C1532 C 0.63995 0.92684 0.42319 0.0
C1533 C 0.64291 0.93892 0.40809 0.0
C1534 C 0.64162 0.89645 0.47508 0.0
C1535 C 0.64073 0.88094 0.46916 0.0
C1536 C 0.64475 0.9091 0.46067 0.0
C1537 C 0.64739 0.90659 0.44022 0.0
C1538 C 0.64655 0.89111 0.43435 0.0
C1539 C 0.64311 0.87834 0.44866 0.0
H1540 H 0.06657 0.69361 0.38784 0.0
H1541 H 0.05283 0.73021 0.41129 0.0
H1542 H 0.08819 0.70187 0.41484 0.0
H1543 H 0.074 0.73806 0.43835 0.0
H1544 H 0.10398 0.73895 0.49343 0.0
H1545 H 0.07994 0.72313 0.4696 0.0
H1546 H 0.11696 0.7329 0.42156 0.0
H1547 H 0.14094 0.749 0.44528 0.0
C1548 C 0.06799 0.7032 0.39891 0.0
C1549 C 0.05815 0.71139 0.3974 0.0
C1550 C 0.08032 0.7079 0.4143 0.0
C1551 C 0.0826 0.72048 0.42869 0.0
C1552 C 0.07231 0.72817 0.42758 0.0
C1553 C 0.06033 0.72379 0.41199 0.0
C1554 C 0.10689 0.73724 0.47791 0.0
C1555 C 0.1242 0.74514 0.47108 0.0
C1556 C 0.09321 0.7283 0.46431 0.0
C1557 C 0.09668 0.72688 0.4438 0.0
C1558 C 0.11398 0.7337 0.43734 0.0
C1559 C 0.12765 0.74292 0.45084 0.0
H1560 H 0.29428 0.02557 0.728 0.0
H1561 H 0.34931 0.05752 0.73961 0.0
H1562 H 0.28826 0.0421 0.75291 0.0
H1563 H 0.34336 0.07343 0.76526 0.0
H1564 H 0.33013 0.11169 0.79209 0.0
H1565 H 0.33525 0.09421 0.76785 0.0
H1566 H 0.28744 0.04876 0.78722 0.0
H1567 H 0.28202 0.06666 0.81082 0.0
C1568 C 0.30506 0.03595 0.73615 0.0
C1569 C 0.32227 0.04036 0.73178 0.0
C1570 C 0.30162 0.04539 0.75052 0.0
C1571 C 0.31532 0.05927 0.76105 0.0
C1572 C 0.33249 0.06318 0.75711 0.0
C1573 C 0.33592 0.05396 0.74251 0.0
C1574 C 0.32076 0.09795 0.79115 0.0
C1575 C 0.30574 0.09048 0.80334 0.0
C1576 C 0.32372 0.08786 0.77735 0.0
C1577 C 0.31187 0.06996 0.77565 0.0
C1578 C 0.29677 0.06251 0.78788 0.0
C1579 C 0.29367 0.07271 0.80148 0.0
H1580 H 0.93078 0.278 0.73022 0.0
H1581 H 0.97066 0.26654 0.71277 0.0
H1582 H 0.92198 0.25743 0.75805 0.0
H1583 H 0.96141 0.24543 0.74059 0.0
H1584 H 0.91467 0.19328 0.77388 0.0
H1585 H 0.92991 0.21555 0.74811 0.0
H1586 H 0.93773 0.25499 0.79146 0.0
H1587 H 0.92329 0.23297 0.81758 0.0
C1588 C 0.93767 0.27107 0.73234 0.0
C1589 C 0.95139 0.27383 0.7193 0.0
C1590 C 0.93269 0.25939 0.74834 0.0
C1591 C 0.94108 0.24994 0.75145 0.0
C1592 C 0.95479 0.25262 0.73846 0.0
C1593 C 0.96009 0.26468 0.72265 0.0
C1594 C 0.92011 0.20672 0.77817 0.0
C1595 C 0.91747 0.21126 0.7978 0.0
C1596 C 0.92879 0.21945 0.76336 0.0
C1597 C 0.93481 0.2369 0.76782 0.0
C1598 C 0.93303 0.24157 0.78764 0.0
C1599 C 0.92463 0.22892 0.80251 0.0
H1600 H 0.71585 0.65127 0.73903 0.0
H1601 H 0.73344 0.70171 0.7132 0.0
H1602 H 0.73692 0.66457 0.7662 0.0
H1603 H 0.755 0.71508 0.74043 0.0
H1604 H 0.80495 0.71875 0.77557 0.0
H1605 H 0.78249 0.71145 0.75019 0.0
H1606 H 0.74274 0.68663 0.79616 0.0
H1607 H 0.76509 0.69445 0.82178 0.0
C1608 C 0.72421 0.66522 0.7392 0.0
C1609 C 0.72307 0.67546 0.72397 0.0
C1610 C 0.73617 0.67283 0.75483 0.0
C1611 C 0.74747 0.69083 0.75541 0.0
C1612 C 0.74635 0.70116 0.74028 0.0
C1613 C 0.73405 0.69354 0.72479 0.0
C1614 C 0.79147 0.71225 0.78044 0.0
C1615 C 0.78683 0.70692 0.80069 0.0
C1616 C 0.77863 0.70807 0.76587 0.0
C1617 C 0.76095 0.69834 0.77125 0.0
C1618 C 0.75631 0.69398 0.79165 0.0
C1619 C 0.76912 0.69835 0.80624 0.0
H1620 H 0.68881 0.61987 0.62911 0.0
H1621 H 0.72158 0.67293 0.60985 0.0
H1622 H 0.70108 0.61037 0.6021 0.0
H1623 H 0.73363 0.66338 0.58278 0.0
H1624 H 0.7381 0.63745 0.52493 0.0
H1625 H 0.72249 0.64441 0.55027 0.0
H1626 H 0.73227 0.61566 0.59516 0.0
H1627 H 0.74851 0.60925 0.57018 0.0
C1628 C 0.69852 0.62946 0.61902 0.0
C1629 C 0.70429 0.64714 0.62159 0.0
C1630 C 0.70555 0.62403 0.60365 0.0
C1631 C 0.71822 0.63615 0.59038 0.0
C1632 C 0.72373 0.65377 0.5927 0.0
C1633 C 0.71693 0.65923 0.60826 0.0
C1634 C 0.73699 0.63264 0.5402 0.0
C1635 C 0.74475 0.62294 0.54553 0.0
C1636 C 0.72798 0.63656 0.55465 0.0
C1637 C 0.72629 0.63064 0.57463 0.0
C1638 C 0.73328 0.62026 0.57978 0.0
C1639 C 0.74252 0.61653 0.56542 0.0
H1640 H 0.31538 0.05768 0.63116 0.0
H1641 H 0.36124 0.05331 0.62401 0.0
H1642 H 0.3251 0.07819 0.60361 0.0
H1643 H 0.37091 0.07393 0.59579 0.0
H1644 H 0.38912 0.12825 0.56435 0.0
H1645 H 0.38139 0.10504 0.589 0.0
H1646 H 0.32845 0.07869 0.56729 0.0
H1647 H 0.3361 0.10201 0.54322 0.0
C1648 C 0.32752 0.06099 0.62363 0.0
C1649 C 0.33749 0.05375 0.62983 0.0
C1650 C 0.33303 0.0727 0.60764 0.0
C1651 C 0.34866 0.07752 0.59727 0.0
C1652 C 0.35881 0.07047 0.6035 0.0
C1653 C 0.35324 0.05863 0.61961 0.0
C1654 C 0.37594 0.1173 0.56466 0.0
C1655 C 0.36312 0.117 0.55216 0.0
C1656 C 0.37151 0.10401 0.57872 0.0
C1657 C 0.35422 0.09019 0.58038 0.0
C1658 C 0.34177 0.08937 0.56678 0.0
C1659 C 0.34615 0.10267 0.55294 0.0
H1660 H 0.94839 0.26641 0.6177 0.0
H1661 H 0.94426 0.31196 0.60974 0.0
H1662 H 0.92703 0.25166 0.59126 0.0
H1663 H 0.9233 0.29742 0.5826 0.0
H1664 H 0.87045 0.25756 0.5542 0.0
H1665 H 0.89391 0.27492 0.57788 0.0
H1666 H 0.92204 0.25039 0.55609 0.0
H1667 H 0.89826 0.23267 0.53304 0.0
C1668 C 0.94309 0.27336 0.61009 0.0
C1669 C 0.94795 0.29032 0.61587 0.0
C1670 C 0.93091 0.26495 0.59479 0.0
C1671 C 0.92342 0.27334 0.58471 0.0
C1672 C 0.92859 0.29047 0.59022 0.0
C1673 C 0.94068 0.29884 0.60569 0.0
C1674 C 0.88178 0.25609 0.55436 0.0
C1675 C 0.88251 0.24369 0.54199 0.0
C1676 C 0.89526 0.26606 0.56786 0.0
C1677 C 0.90983 0.26395 0.56908 0.0
C1678 C 0.91084 0.25207 0.55595 0.0
C1679 C 0.89729 0.24198 0.54266 0.0
H1680 H 0.35454 0.31031 0.62018 0.0
H1681 H 0.31904 0.25712 0.63725 0.0
H1682 H 0.36787 0.30036 0.59471 0.0
H1683 H 0.3323 0.24743 0.61224 0.0
H1684 H 0.37016 0.23564 0.58364 0.0
H1685 H 0.36251 0.25077 0.60868 0.0
H1686 H 0.35737 0.28069 0.56116 0.0
H1687 H 0.36502 0.26537 0.53585 0.0
C1688 C 0.34962 0.29656 0.61855 0.0
C1689 C 0.33575 0.28451 0.63076 0.0
C1690 C 0.35719 0.2909 0.60397 0.0
C1691 C 0.35121 0.27316 0.6017 0.0
C1692 C 0.33735 0.2612 0.61387 0.0
C1693 C 0.32967 0.26678 0.62813 0.0
C1694 C 0.36762 0.24561 0.57854 0.0
C1695 C 0.36781 0.2491 0.5578 0.0
C1696 C 0.36328 0.25427 0.59286 0.0
C1697 C 0.35907 0.26667 0.58679 0.0
C1698 C 0.36057 0.27118 0.5662 0.0
C1699 C 0.36493 0.26243 0.55176 0.0
H1700 H 0.68321 0.05196 0.61103 0.0
H1701 H 0.72903 0.04732 0.61419 0.0
H1702 H 0.69558 0.07101 0.58174 0.0
H1703 H 0.74166 0.06679 0.58556 0.0
H1704 H 0.75752 0.09341 0.52643 0.0
H1705 H 0.74009 0.07012 0.55028 0.0
H1706 H 0.71821 0.09989 0.57462 0.0
H1707 H 0.73517 0.1228 0.55013 0.0
C1708 C 0.69591 0.05501 0.60544 0.0
C1709 C 0.70519 0.04822 0.61494 0.0
C1710 C 0.70303 0.06597 0.58873 0.0
C1711 C 0.71962 0.07046 0.58126 0.0
C1712 C 0.72871 0.06337 0.5906 0.0
C1713 C 0.72154 0.05231 0.60716 0.0
C1714 C 0.74871 0.09475 0.53667 0.0
C1715 C 0.74771 0.10986 0.53663 0.0
C1716 C 0.73883 0.08151 0.55041 0.0
C1717 C 0.72797 0.08325 0.56463 0.0
C1718 C 0.72631 0.09803 0.5638 0.0
C1719 C 0.73603 0.11118 0.54983 0.0
H1720 H 0.95156 0.68578 0.61327 0.0
H1721 H 0.93256 0.63296 0.63148 0.0
H1722 H 0.92953 0.67584 0.58721 0.0
H1723 H 0.90971 0.62287 0.60585 0.0
H1724 H 0.87842 0.61059 0.54633 0.0
H1725 H 0.90189 0.61907 0.57085 0.0
H1726 H 0.89963 0.66495 0.58551 0.0
H1727 H 0.87688 0.6568 0.5606 0.0
C1728 C 0.9426 0.67199 0.61171 0.0
C1729 C 0.94368 0.66016 0.62455 0.0
C1730 C 0.92983 0.66627 0.59685 0.0
C1731 C 0.9175 0.64855 0.59465 0.0
C1732 C 0.91899 0.63661 0.60702 0.0
C1733 C 0.93204 0.64237 0.62175 0.0
C1734 C 0.88301 0.62246 0.55487 0.0
C1735 C 0.87602 0.63317 0.5514 0.0
C1736 C 0.8964 0.62731 0.56896 0.0
C1737 C 0.90291 0.64286 0.58001 0.0
C1738 C 0.89542 0.65319 0.57689 0.0
C1739 C 0.88227 0.64848 0.56268 0.0
H1740 H 0.92986 0.6588 0.71712 0.0
H1741 H 0.9798 0.69938 0.73859 0.0
H1742 H 0.91524 0.66715 0.74235 0.0
H1743 H 0.96507 0.70749 0.76416 0.0
H1744 H 0.92813 0.69864 0.82104 0.0
H1745 H 0.94425 0.69182 0.79594 0.0
H1746 H 0.91355 0.69544 0.74815 0.0
H1747 H 0.89765 0.7025 0.77315 0.0
C1748 C 0.93771 0.66942 0.72731 0.0
C1749 C 0.95597 0.67846 0.72588 0.0
C1750 C 0.92934 0.67425 0.74165 0.0
C1751 C 0.93906 0.68798 0.7551 0.0
C1752 C 0.95731 0.69682 0.75397 0.0
C1753 C 0.9657 0.69221 0.73934 0.0
C1754 C 0.92497 0.69811 0.80514 0.0
C1755 C 0.91171 0.70113 0.79898 0.0
C1756 C 0.9342 0.69428 0.79083 0.0
C1757 C 0.93006 0.69305 0.77018 0.0
C1758 C 0.91691 0.69623 0.76401 0.0
C1759 C 0.90792 0.70038 0.77827 0.0
H1760 H 0.33563 0.27478 0.72073 0.0
H1761 H 0.29198 0.27908 0.74186 0.0
H1762 H 0.32879 0.25232 0.74587 0.0
H1763 H 0.28538 0.25674 0.76741 0.0
H1764 H 0.29817 0.23198 0.82436 0.0
H1765 H 0.30261 0.25405 0.79936 0.0
H1766 H 0.30153 0.22074 0.75122 0.0
H1767 H 0.29685 0.19864 0.7761 0.0
C1768 C 0.32464 0.27101 0.73083 0.0
C1769 C 0.31431 0.27866 0.72933 0.0
C1770 C 0.32069 0.2581 0.74513 0.0
C1771 C 0.30653 0.25281 0.75845 0.0
C1772 C 0.29638 0.26066 0.75728 0.0
C1773 C 0.30013 0.27337 0.74267 0.0
C1774 C 0.29871 0.22937 0.80841 0.0
C1775 C 0.29716 0.21365 0.8021 0.0
C1776 C 0.30117 0.24191 0.79416 0.0
C1777 C 0.30247 0.23906 0.77344 0.0
C1778 C 0.30065 0.22324 0.76714 0.0
C1779 C 0.29787 0.21059 0.78133 0.0
H1780 H 0.74636 0.07499 0.70385 0.0
H1781 H 0.72001 0.02311 0.72826 0.0
H1782 H 0.76866 0.0841 0.72965 0.0
H1783 H 0.74247 0.03237 0.75433 0.0
H1784 H 0.77132 0.06711 0.81223 0.0
H1785 H 0.75076 0.05309 0.7845 0.0
H1786 H 0.79268 0.07926 0.74116 0.0
H1787 H 0.81318 0.09343 0.76882 0.0
C1788 C 0.74542 0.06548 0.71463 0.0
C1789 C 0.73136 0.04835 0.71409 0.0
C1790 C 0.75828 0.07068 0.72932 0.0
C1791 C 0.75731 0.05894 0.74398 0.0
C1792 C 0.74348 0.04169 0.74323 0.0
C1793 C 0.73069 0.03639 0.72829 0.0
C1794 C 0.77616 0.06965 0.79678 0.0
C1795 C 0.79383 0.08146 0.79269 0.0
C1796 C 0.76443 0.06153 0.78093 0.0
C1797 C 0.77012 0.06519 0.76069 0.0
C1798 C 0.78793 0.07631 0.75663 0.0
C1799 C 0.79967 0.08431 0.77247 0.0
H1800 H 0.0641 0.34992 0.02115 0.0
H1801 H 0.01971 0.30522 0.04778 0.0
H1802 H 0.08355 0.34242 0.03838 0.0
H1803 H 0.039 0.29801 0.06527 0.0
H1804 H 0.07661 0.28164 0.0842 0.0
H1805 H 0.05912 0.28798 0.06164 0.0
H1806 H 0.09298 0.3427 0.07273 0.0
H1807 H 0.11097 0.3364 0.09449 0.0
C1808 C 0.05849 0.33842 0.03049 0.0
C1809 C 0.04036 0.32821 0.03314 0.0
C1810 C 0.06963 0.33419 0.0405 0.0
C1811 C 0.06286 0.31965 0.05332 0.0
C1812 C 0.0447 0.30916 0.05534 0.0
C1813 C 0.03361 0.31337 0.04537 0.0
C1814 C 0.08052 0.29504 0.08156 0.0
C1815 C 0.09516 0.30849 0.0913 0.0
C1816 C 0.07037 0.29868 0.06877 0.0
C1817 C 0.07455 0.31586 0.06544 0.0
C1818 C 0.08944 0.32933 0.07477 0.0
C1819 C 0.09962 0.32569 0.08752 0.0
H1820 H 0.6232 0.69136 0.05747 0.0
H1821 H 0.67362 0.70911 0.03002 0.0
H1822 H 0.63556 0.71712 0.07864 0.0
H1823 H 0.68589 0.7354 0.05041 0.0
H1824 H 0.70634 0.77296 0.10381 0.0
H1825 H 0.69438 0.7467 0.08317 0.0
H1826 H 0.64608 0.74676 0.07786 0.0
H1827 H 0.65784 0.7724 0.09927 0.0
C1828 C 0.6369 0.70089 0.05579 0.0
C1829 C 0.64743 0.69822 0.04207 0.0
C1830 C 0.644 0.71576 0.06785 0.0
C1831 C 0.66175 0.72848 0.06622 0.0
C1832 C 0.67225 0.7258 0.05238 0.0
C1833 C 0.66519 0.71077 0.04055 0.0
C1834 C 0.69317 0.76726 0.09819 0.0
C1835 C 0.68294 0.77454 0.10322 0.0
C1836 C 0.68632 0.75229 0.08627 0.0
C1837 C 0.66919 0.74448 0.07885 0.0
C1838 C 0.65914 0.75208 0.08367 0.0
C1839 C 0.66589 0.76684 0.09584 0.0
H1840 H 0.29387 0.92896 0.04495 0.0
H1841 H 0.28464 0.96995 0.02735 0.0
H1842 H 0.26797 0.91668 0.06666 0.0
H1843 H 0.2584 0.95727 0.04876 0.0
H1844 H 0.20217 0.90893 0.07229 0.0
H1845 H 0.22743 0.92366 0.04973 0.0
H1846 H 0.26158 0.93268 0.09998 0.0
H1847 H 0.23659 0.91894 0.1229 0.0
C1848 C 0.28618 0.9352 0.04549 0.0
C1849 C 0.29128 0.95043 0.03451 0.0
C1850 C 0.27146 0.92823 0.05797 0.0
C1851 C 0.26138 0.93614 0.05934 0.0
C1852 C 0.26606 0.951 0.04787 0.0
C1853 C 0.28103 0.95822 0.03571 0.0
C1854 C 0.21505 0.91446 0.07871 0.0
C1855 C 0.21729 0.91255 0.09944 0.0
C1856 C 0.22946 0.92277 0.06573 0.0
C1857 C 0.24629 0.92903 0.0732 0.0
C1858 C 0.24864 0.92771 0.09392 0.0
C1859 C 0.23431 0.91974 0.10696 0.0
H1860 H 0.3033 0.01331 0.96831 0.0
H1861 H 0.34947 0.05687 0.99352 0.0
H1862 H 0.29645 0.03303 0.95117 0.0
H1863 H 0.34268 0.07668 0.97606 0.0
H1864 H 0.31619 0.10631 0.95391 0.0
H1865 H 0.32135 0.0867 0.97422 0.0
H1866 H 0.30954 0.05294 0.92243 0.0
H1867 H 0.30455 0.07254 0.90211 0.0
C1868 C 0.31193 0.02711 0.97032 0.0
C1869 C 0.32701 0.03354 0.98214 0.0
C1870 C 0.30805 0.0384 0.96039 0.0
C1871 C 0.31914 0.05639 0.96205 0.0
C1872 C 0.33384 0.06286 0.97457 0.0
C1873 C 0.33775 0.05153 0.98452 0.0
C1874 C 0.3148 0.09475 0.94684 0.0
C1875 C 0.30995 0.09098 0.92639 0.0
C1876 C 0.31774 0.08352 0.95848 0.0
C1877 C 0.31579 0.06826 0.94995 0.0
C1878 C 0.31085 0.06445 0.92955 0.0
C1879 C 0.30797 0.07568 0.9179 0.0
H1880 H 0.97839 0.29501 0.97286 0.0
H1881 H 0.92952 0.2914 0.98877 0.0
H1882 H 0.96289 0.26932 0.95155 0.0
H1883 H 0.91408 0.26559 0.96786 0.0
H1884 H 0.89424 0.23308 0.91084 0.0
H1885 H 0.91065 0.25849 0.93215 0.0
H1886 H 0.94255 0.23808 0.95264 0.0
H1887 H 0.92612 0.21261 0.93112 0.0
C1888 C 0.96434 0.28866 0.97198 0.0
C1889 C 0.95522 0.29535 0.98244 0.0
C1890 C 0.95546 0.27389 0.95982 0.0
C1891 C 0.93727 0.26549 0.95786 0.0
C1892 C 0.92813 0.27195 0.96871 0.0
C1893 C 0.93699 0.2867 0.98082 0.0
C1894 C 0.90471 0.23398 0.91995 0.0
C1895 C 0.9088 0.22077 0.91942 0.0
C1896 C 0.9141 0.24853 0.93221 0.0
C1897 C 0.92779 0.25024 0.94428 0.0
C1898 C 0.93216 0.23722 0.94341 0.0
C1899 C 0.92277 0.22264 0.93108 0.0
H1900 H 0.70149 0.69485 0.96352 0.0
H1901 H 0.7015 0.65045 0.98858 0.0
H1902 H 0.72869 0.70316 0.9457 0.0
H1903 H 0.72886 0.65895 0.97103 0.0
H1904 H 0.76345 0.66625 0.91591 0.0
H1905 H 0.73765 0.65943 0.9358 0.0
H1906 H 0.75977 0.71363 0.95033 0.0
H1907 H 0.78572 0.72048 0.93037 0.0
C1908 C 0.70742 0.68699 0.96544 0.0
C1909 C 0.69928 0.67192 0.97735 0.0
C1910 C 0.72305 0.6918 0.95529 0.0
C1911 C 0.73086 0.68164 0.95681 0.0
C1912 C 0.72301 0.66689 0.96927 0.0
C1913 C 0.70739 0.66208 0.97943 0.0
C1914 C 0.7629 0.67671 0.9235 0.0
C1915 C 0.77669 0.6939 0.92166 0.0
C1916 C 0.74812 0.67279 0.93494 0.0
C1917 C 0.74672 0.68597 0.9448 0.0
C1918 C 0.76041 0.7032 0.94279 0.0
C1919 C 0.77524 0.70713 0.93133 0.0
H1920 H 0.92558 0.63832 0.98916 0.0
H1921 H 0.97587 0.68175 0.97253 0.0
H1922 H 0.91136 0.65118 0.97082 0.0
H1923 H 0.96156 0.69462 0.95427 0.0
H1924 H 0.92721 0.69703 0.90232 0.0
H1925 H 0.94343 0.68755 0.92295 0.0
H1926 H 0.90752 0.67679 0.97262 0.0
H1927 H 0.89145 0.68643 0.95216 0.0
C1928 C 0.9336 0.65066 0.98172 0.0
C1929 C 0.95185 0.65898 0.98228 0.0
C1930 C 0.92545 0.65807 0.97131 0.0
C1931 C 0.93537 0.67391 0.96113 0.0
C1932 C 0.95361 0.68234 0.96185 0.0
C1933 C 0.96177 0.67499 0.9724 0.0
C1934 C 0.92299 0.69297 0.91777 0.0
C1935 C 0.90793 0.69228 0.92553 0.0
C1936 C 0.93226 0.68752 0.92956 0.0
C1937 C 0.92661 0.68125 0.9493 0.0
C1938 C 0.91197 0.68124 0.95732 0.0
C1939 C 0.90278 0.68675 0.9456 0.0
H1940 H 0.35273 0.29866 0.98896 0.0
H1941 H 0.30697 0.29769 0.96618 0.0
H1942 H 0.34376 0.2711 0.97206 0.0
H1943 H 0.2979 0.27008 0.94961 0.0
H1944 H 0.30116 0.23412 0.90162 0.0
H1945 H 0.30786 0.26009 0.92077 0.0
H1946 H 0.32132 0.24022 0.97264 0.0
H1947 H 0.31457 0.21421 0.9535 0.0
C1948 C 0.34068 0.29248 0.98053 0.0
C1949 C 0.33062 0.30039 0.9788 0.0
C1950 C 0.3355 0.27666 0.97094 0.0
C1951 C 0.32016 0.26847 0.95942 0.0
C1952 C 0.30991 0.2762 0.95812 0.0
C1953 C 0.31507 0.29198 0.96771 0.0
C1954 C 0.30527 0.23516 0.91721 0.0
C1955 C 0.30741 0.22215 0.92601 0.0
C1956 C 0.30912 0.25005 0.92818 0.0
C1957 C 0.3152 0.25224 0.94819 0.0
C1958 C 0.31694 0.23904 0.95715 0.0
C1959 C 0.31307 0.22415 0.94619 0.0
H1960 H 0.70592 0.06746 0.98442 0.0
H1961 H 0.7034 0.01851 0.9748 0.0
H1962 H 0.7311 0.08156 0.96208 0.0
H1963 H 0.72859 0.03271 0.95203 0.0
H1964 H 0.78594 0.07056 0.93016 0.0
H1965 H 0.76017 0.05412 0.9517 0.0
H1966 H 0.73718 0.08204 0.92609 0.0
H1967 H 0.76285 0.09845 0.90482 0.0
C1968 C 0.71071 0.05967 0.97752 0.0
C1969 C 0.70255 0.04182 0.98136 0.0
C1970 C 0.7251 0.06776 0.96458 0.0
C1971 C 0.73173 0.05822 0.95507 0.0
C1972 C 0.72383 0.04042 0.95918 0.0
C1973 C 0.70937 0.03229 0.97218 0.0
C1974 C 0.77524 0.07296 0.92896 0.0
C1975 C 0.77649 0.08594 0.91602 0.0
C1976 C 0.7605 0.06357 0.94129 0.0
C1977 C 0.74675 0.06698 0.94085 0.0
C1978 C 0.74773 0.07941 0.92719 0.0
C1979 C 0.76241 0.08878 0.91495 0.0
H1980 H 0.69618 0.9744 0.03324 0.0
H1981 H 0.64148 0.93683 0.04064 0.0
H1982 H 0.70356 0.95511 0.05108 0.0
H1983 H 0.64894 0.91784 0.05901 0.0
H1984 H 0.67556 0.91011 0.11793 0.0
H1985 H 0.66739 0.92626 0.09561 0.0
H1986 H 0.69647 0.92067 0.04667 0.0
H1987 H 0.70379 0.90337 0.06843 0.0
C1988 C 0.68576 0.96193 0.03841 0.0
C1989 C 0.66826 0.9571 0.03557 0.0
C1990 C 0.68999 0.95092 0.04856 0.0
C1991 C 0.6768 0.93511 0.05645 0.0
C1992 C 0.65932 0.93002 0.05307 0.0
C1993 C 0.65508 0.94083 0.04249 0.0
C1994 C 0.67995 0.91188 0.10232 0.0
C1995 C 0.6903 0.90522 0.09509 0.0
C1996 C 0.67532 0.92126 0.0896 0.0
C1997 C 0.68125 0.92458 0.06947 0.0
C1998 C 0.69178 0.91826 0.06219 0.0
C1999 C 0.69609 0.9085 0.07477 0.0
H2000 H 0.0572 0.71385 0.01947 0.0
H2001 H 0.0115 0.70701 0.05116 0.0
H2002 H 0.07507 0.74115 0.0377 0.0
H2003 H 0.02927 0.73409 0.06917 0.0
H2004 H 0.07022 0.76684 0.11741 0.0
H2005 H 0.05212 0.74198 0.09586 0.0
H2006 H 0.07952 0.77179 0.04292 0.0
H2007 H 0.09777 0.79681 0.06465 0.0
C2008 C 0.05095 0.71826 0.0301 0.0
C2009 C 0.03298 0.70819 0.03403 0.0
C2010 C 0.06115 0.7339 0.04045 0.0
C2011 C 0.05354 0.73961 0.05497 0.0
C2012 C 0.0355 0.72986 0.05826 0.0
C2013 C 0.02533 0.71437 0.04788 0.0
C2014 C 0.07233 0.76809 0.10117 0.0
C2015 C 0.08537 0.7837 0.09267 0.0
C2016 C 0.06192 0.75392 0.08883 0.0
C2017 C 0.06441 0.75499 0.06773 0.0
C2018 C 0.0774 0.77062 0.05916 0.0
C2019 C 0.08771 0.78493 0.07153 0.0
H2020 H 0.30151 0.32541 0.04812 0.0
H2021 H 0.29013 0.36522 0.03176 0.0
H2022 H 0.27493 0.3112 0.06864 0.0
H2023 H 0.26351 0.35088 0.05217 0.0
H2024 H 0.2088 0.31018 0.07401 0.0
H2025 H 0.23439 0.32181 0.05184 0.0
H2026 H 0.26474 0.31983 0.10124 0.0
H2027 H 0.2391 0.30819 0.12346 0.0
C2028 C 0.29328 0.33106 0.04878 0.0
C2029 C 0.29792 0.34646 0.03836 0.0
C2030 C 0.27815 0.32296 0.06059 0.0
C2031 C 0.26723 0.32996 0.06193 0.0
C2032 C 0.27167 0.34516 0.05122 0.0
C2033 C 0.28693 0.3534 0.03965 0.0
C2034 C 0.22087 0.31198 0.08002 0.0
C2035 C 0.22203 0.3083 0.1004 0.0
C2036 C 0.23551 0.31875 0.06741 0.0
C2037 C 0.25149 0.32175 0.0749 0.0
C2038 C 0.25252 0.31753 0.0951 0.0
C2039 C 0.23793 0.31098 0.1078 0.0
H2040 H 0.6755 0.63647 0.38645 0.0
H2041 H 0.72103 0.68002 0.35983 0.0
H2042 H 0.69393 0.62773 0.40342 0.0
H2043 H 0.7395 0.67107 0.37655 0.0
H2044 H 0.76679 0.66247 0.43019 0.0
H2045 H 0.7486 0.67026 0.41102 0.0
H2046 H 0.71316 0.61625 0.39765 0.0
H2047 H 0.73143 0.60843 0.41688 0.0
C2048 C 0.68944 0.64408 0.38404 0.0
C2049 C 0.69681 0.65899 0.37186 0.0
C2050 C 0.70001 0.639 0.39369 0.0
C2051 C 0.7182 0.64873 0.39142 0.0
C2052 C 0.72555 0.66343 0.37885 0.0
C2053 C 0.71496 0.6685 0.36916 0.0
C2054 C 0.75523 0.65225 0.42298 0.0
C2055 C 0.75061 0.63482 0.42502 0.0
C2056 C 0.74481 0.65673 0.41195 0.0
C2057 C 0.72947 0.64389 0.4027 0.0
C2058 C 0.7248 0.62644 0.40477 0.0
C2059 C 0.73525 0.62196 0.41581 0.0
H2060 H 0.34807 0.04481 0.36734 0.0
H2061 H 0.29843 0.03391 0.39194 0.0
H2062 H 0.36263 0.07185 0.38695 0.0
H2063 H 0.31301 0.0606 0.41165 0.0
H2064 H 0.34755 0.09691 0.46182 0.0
H2065 H 0.33626 0.07065 0.44149 0.0
H2066 H 0.36065 0.10136 0.38815 0.0
H2067 H 0.37144 0.12786 0.40829 0.0
C2068 C 0.34029 0.04817 0.37691 0.0
C2069 C 0.32211 0.03724 0.37812 0.0
C2070 C 0.34861 0.06362 0.38803 0.0
C2071 C 0.33891 0.06815 0.40085 0.0
C2072 C 0.32077 0.05728 0.40199 0.0
C2073 C 0.31244 0.04207 0.39062 0.0
C2074 C 0.35051 0.09814 0.44575 0.0
C2075 C 0.36012 0.11453 0.43663 0.0
C2076 C 0.34412 0.08309 0.43418 0.0
C2077 C 0.34746 0.08406 0.41329 0.0
C2078 C 0.35796 0.10033 0.40428 0.0
C2079 C 0.36417 0.11546 0.41584 0.0
H2080 H 0.96939 0.27131 0.38908 0.0
H2081 H 0.95747 0.30747 0.36102 0.0
H2082 H 0.94222 0.25886 0.40822 0.0
H2083 H 0.92997 0.29468 0.38014 0.0
H2084 H 0.87393 0.24527 0.39992 0.0
H2085 H 0.90122 0.26279 0.38122 0.0
H2086 H 0.93016 0.27112 0.43631 0.0
H2087 H 0.90302 0.25414 0.45514 0.0
C2088 C 0.96094 0.27656 0.38694 0.0
C2089 C 0.96555 0.29036 0.37356 0.0
C2090 C 0.94546 0.26951 0.39801 0.0
C2091 C 0.93415 0.27594 0.3957 0.0
C2092 C 0.93855 0.28957 0.38214 0.0
C2093 C 0.95425 0.29687 0.37129 0.0
C2094 C 0.88608 0.25125 0.40814 0.0
C2095 C 0.88636 0.24807 0.42893 0.0
C2096 C 0.90166 0.26123 0.39743 0.0
C2097 C 0.91769 0.26802 0.40735 0.0
C2098 C 0.91792 0.26576 0.42832 0.0
C2099 C 0.90241 0.25599 0.43903 0.0
H2100 H 0.98118 0.35158 0.29394 0.0
H2101 H 0.02339 0.39328 0.32703 0.0
H2102 H 0.97625 0.37238 0.2762 0.0
H2103 H 0.01809 0.41412 0.30975 0.0
H2104 H 0.01885 0.4464 0.25573 0.0
H2105 H 0.02228 0.42605 0.27645 0.0
H2106 H 0.96637 0.39261 0.27925 0.0
H2107 H 0.96297 0.41256 0.25752 0.0
C2108 C 0.98923 0.36518 0.29766 0.0
C2109 C 0.00275 0.37081 0.31178 0.0
C2110 C 0.98633 0.37712 0.28757 0.0
C2111 C -0.00318 0.39494 0.29147 0.0
C2112 C 0.00997 0.40051 0.30612 0.0
C2113 C 0.01294 0.38857 0.31613 0.0
C2114 C 0.00728 0.43463 0.2606 0.0
C2115 C 0.99064 0.43103 0.25477 0.0
C2116 C 0.00924 0.42308 0.27276 0.0
C2117 C 0.9946 0.40768 0.27954 0.0
C2118 C 0.97793 0.40425 0.2741 0.0
C2119 C 0.97597 0.41578 0.26182 0.0
H2120 H 0.59782 0.63487 0.29782 0.0
H2121 H 0.63389 0.62036 0.32047 0.0
H2122 H 0.58399 0.60887 0.27712 0.0
H2123 H 0.61946 0.59375 0.30058 0.0
H2124 H 0.60071 0.55615 0.24682 0.0
H2125 H 0.61524 0.58222 0.26782 0.0
H2126 H 0.56575 0.57909 0.27827 0.0
H2127 H 0.55163 0.55372 0.25644 0.0
C2128 C 0.60264 0.62598 0.29858 0.0
C2129 C 0.61693 0.62966 0.31079 0.0
C2130 C 0.59463 0.61096 0.28679 0.0
C2131 C 0.60048 0.59904 0.28719 0.0
C2132 C 0.61474 0.60271 0.29957 0.0
C2133 C 0.62295 0.61791 0.31111 0.0
C2134 C 0.59304 0.56112 0.25368 0.0
C2135 C 0.57514 0.55311 0.24992 0.0
C2136 C 0.6013 0.57599 0.26581 0.0
C2137 C 0.59173 0.58293 0.27471 0.0
C2138 C 0.57368 0.57449 0.2713 0.0
C2139 C 0.56553 0.55986 0.2589 0.0
H2140 H 0.36864 0.0213 0.30086 0.0
H2141 H 0.36438 0.97543 0.32761 0.0
H2142 H 0.39391 0.02582 0.28132 0.0
H2143 H 0.38953 0.97981 0.30774 0.0
H2144 H 0.44483 0.00233 0.28199 0.0
H2145 H 0.42099 -0.00088 0.30351 0.0
H2146 H 0.39935 0.01183 0.25273 0.0
H2147 H 0.42315 0.015 0.23122 0.0
C2148 C 0.37316 0.01222 0.30265 0.0
C2149 C 0.36447 -0.00204 0.31573 0.0
C2150 C 0.38756 0.01475 0.29133 0.0
C2151 C 0.39363 0.00309 0.29282 0.0
C2152 C 0.38526 0.9891 0.30636 0.0
C2153 C 0.37082 0.98656 0.3177 0.0
C2154 C 0.43491 0.00431 0.27539 0.0
C2155 C 0.43587 0.0089 0.25487 0.0
C2156 C 0.42127 0.00249 0.28773 0.0
C2157 C 0.40829 0.00525 0.27985 0.0
C2158 C 0.40929 0.0099 0.25936 0.0
C2159 C 0.42293 0.01171 0.24702 0.0
H2160 H 0.63705 0.00184 0.30552 0.0
H2161 H 0.58948 0.95369 0.31813 0.0
H2162 H 0.6205 0.0119 0.28645 0.0
H2163 H 0.57307 0.96375 0.29908 0.0
H2164 H 0.54723 0.99415 0.28113 0.0
H2165 H 0.56491 0.98656 0.30171 0.0
H2166 H 0.60338 0.00354 0.25381 0.0
H2167 H 0.58555 0.01087 0.23297 0.0
C2168 C 0.62308 0.99345 0.30432 0.0
C2169 C 0.61458 0.97695 0.31332 0.0
C2170 C 0.61364 -0.00082 0.29332 0.0
C2171 C 0.59552 0.98861 0.29132 0.0
C2172 C 0.58701 0.97225 0.30056 0.0
C2173 C 0.59643 0.96646 0.31138 0.0
C2174 C 0.55941 0.99619 0.27491 0.0
C2175 C 0.56489 0.00293 0.25531 0.0
C2176 C 0.56955 0.99189 0.28674 0.0
C2177 C 0.58544 0.99436 0.2793 0.0
C2178 C 0.59124 0.00164 0.25998 0.0
C2179 C 0.58104 0.00585 0.24807 0.0
H2180 H 0.97853 0.62228 0.31712 0.0
H2181 H 0.03356 0.64044 0.31444 0.0
H2182 H 0.97244 0.5961 0.29883 0.0
H2183 H 0.02771 0.61494 0.29513 0.0
H2184 H 0.01298 0.56218 0.27248 0.0
H2185 H 0.01713 0.58551 0.29519 0.0
H2186 H 0.97414 0.58647 0.26659 0.0
H2187 H 0.96946 0.56236 0.24487 0.0
C2188 C 0.98932 0.62065 0.31258 0.0
C2189 C 0.00651 0.63336 0.31721 0.0
C2190 C 0.98587 0.60572 0.30193 0.0
C2191 C -0.00043 0.60335 0.29531 0.0
C2192 C 0.01676 0.61604 0.30026 0.0
C2193 C 0.02016 0.63077 0.31125 0.0
C2194 C 0.00438 0.56737 0.27127 0.0
C2195 C 0.99096 0.56063 0.257 0.0
C2196 C 0.0068 0.58081 0.28415 0.0
C2197 C -0.0039 0.58809 0.28269 0.0
C2198 C 0.98248 0.58107 0.26847 0.0
C2199 C 0.97984 0.56736 0.2559 0.0
H2200 H 0.37689 0.35892 0.31789 0.0
H2201 H 0.36554 0.39894 0.30266 0.0
H2202 H 0.40443 0.37448 0.29932 0.0
H2203 H 0.39258 0.41407 0.28356 0.0
H2204 H 0.44908 0.44683 0.26795 0.0
H2205 H 0.42288 0.43072 0.28849 0.0
H2206 H 0.41705 0.38262 0.26616 0.0
H2207 H 0.44377 0.39894 0.24613 0.0
C2208 C 0.3802 0.37096 0.31045 0.0
C2209 C 0.36907 0.37775 0.31187 0.0
C2210 C 0.39596 0.37984 0.29972 0.0
C2211 C 0.40085 0.39563 0.29006 0.0
C2212 C 0.3895 0.40219 0.29122 0.0
C2213 C 0.37389 0.39343 0.30207 0.0
C2214 C 0.44222 0.43281 0.26753 0.0
C2215 C 0.44833 0.42411 0.25536 0.0
C2216 C 0.42714 0.42355 0.2792 0.0
C2217 C 0.41764 0.40534 0.27877 0.0
C2218 C 0.42408 0.39662 0.267 0.0
C2219 C 0.43934 0.40593 0.25549 0.0
H2220 H 0.3114 0.27473 0.37593 0.0
H2221 H 0.36528 0.31493 0.36988 0.0
H2222 H 0.32004 0.25704 0.39455 0.0
H2223 H 0.37416 0.29686 0.38736 0.0
H2224 H 0.38307 0.27005 0.44054 0.0
H2225 H 0.37522 0.28717 0.41932 0.0
H2226 H 0.33248 0.23996 0.39458 0.0
H2227 H 0.33984 0.22307 0.41686 0.0
C2228 C 0.32514 0.2796 0.37818 0.0
C2229 C 0.33765 0.29623 0.37156 0.0
C2230 C 0.33016 0.26941 0.3888 0.0
C2231 C 0.34786 0.27547 0.39268 0.0
C2232 C 0.36039 0.29187 0.3852 0.0
C2233 C 0.35533 0.30219 0.37497 0.0
C2234 C 0.37206 0.26344 0.43046 0.0
C2235 C 0.36198 0.24532 0.43036 0.0
C2236 C 0.36759 0.2732 0.41815 0.0
C2237 C 0.35313 0.26503 0.40513 0.0
C2238 C 0.34342 0.2468 0.40468 0.0
C2239 C 0.34768 0.23708 0.41732 0.0
H2240 H 0.71971 0.03908 0.3522 0.0
H2241 H 0.67528 0.0314 0.38748 0.0
H2242 H 0.73763 0.06735 0.36832 0.0
H2243 H 0.69316 0.05956 0.40346 0.0
H2244 H 0.7372 0.09633 0.44717 0.0
H2245 H 0.71786 0.07027 0.42798 0.0
H2246 H 0.74107 0.09735 0.37209 0.0
H2247 H 0.76057 0.12357 0.39146 0.0
C2248 C 0.71373 0.04349 0.36322 0.0
C2249 C 0.69613 0.03295 0.3687 0.0
C2250 C 0.72396 0.0597 0.37234 0.0
C2251 C 0.71679 0.06558 0.38721 0.0
C2252 C 0.69906 0.05527 0.3922 0.0
C2253 C 0.68883 0.03916 0.383 0.0
C2254 C 0.73809 0.09673 0.43078 0.0
C2255 C 0.75039 0.1119 0.42077 0.0
C2256 C 0.72695 0.08187 0.4198 0.0
C2257 C 0.72797 0.0818 0.39855 0.0
C2258 C 0.74009 0.09705 0.38847 0.0
C2259 C 0.75112 0.11204 0.3995 0.0
H2260 H 0.95954 0.65326 0.36665 0.0
H2261 H 0.97756 0.7004 0.401 0.0
H2262 H 0.93161 0.64026 0.38452 0.0
H2263 H 0.95024 0.68723 0.41968 0.0
H2264 H 0.89394 0.66867 0.43111 0.0
H2265 H 0.9217 0.67994 0.4142 0.0
H2266 H 0.91593 0.62906 0.41517 0.0
H2267 H 0.88718 0.61739 0.43064 0.0
C2268 C 0.95759 0.66072 0.37824 0.0
C2269 C 0.97056 0.6779 0.38226 0.0
C2270 C 0.94164 0.65326 0.38859 0.0
C2271 C 0.93853 0.66276 0.40339 0.0
C2272 C 0.95192 0.67969 0.40796 0.0
C2273 C 0.96764 0.68723 0.39735 0.0
C2274 C 0.89836 0.65975 0.42741 0.0
C2275 C 0.88815 0.64204 0.43204 0.0
C2276 C 0.91454 0.66632 0.41804 0.0
C2277 C 0.92122 0.65547 0.41343 0.0
C2278 C 0.91114 0.63777 0.41829 0.0
C2279 C 0.89474 0.63111 0.42743 0.0
H2280 H 0.3937 0.02324 0.68779 0.0
H2281 H 0.35267 0.9804 0.72114 0.0
H2282 H 0.41518 0.01788 0.70359 0.0
H2283 H 0.37408 0.97535 0.73729 0.0
H2284 H 0.41475 0.96208 0.75347 0.0
H2285 H 0.39454 0.9658 0.73248 0.0
H2286 H 0.42788 0.02136 0.73651 0.0
H2287 H 0.44847 0.01762 0.7566 0.0
C2288 C 0.38926 0.01262 0.69839 0.0
C2289 C 0.37149 0.00229 0.70326 0.0
C2290 C 0.40157 0.00962 0.70755 0.0
C2291 C 0.39639 0.99624 0.72181 0.0
C2292 C 0.37855 0.98562 0.7262 0.0
C2293 C 0.36626 0.98858 0.71701 0.0
C2294 C 0.41793 0.97509 0.74955 0.0
C2295 C 0.43319 0.98955 0.75686 0.0
C2296 C 0.40624 0.97723 0.7377 0.0
C2297 C 0.4095 0.99388 0.7329 0.0
C2298 C 0.42501 0.00833 0.73973 0.0
C2299 C 0.43671 0.00619 0.75152 0.0
H2300 H 0.00648 0.37166 0.69542 0.0
H2301 H 0.95388 0.35155 0.71729 0.0
H2302 H 0.01596 0.39811 0.71515 0.0
H2303 H 0.96336 0.37732 0.7377 0.0
H2304 H 0.97986 0.43149 0.75608 0.0
H2305 H 0.97195 0.40636 0.7348 0.0
H2306 H 0.02132 0.41039 0.74797 0.0
H2307 H 0.02949 0.43622 0.76848 0.0
C2308 C -0.00301 0.37284 0.70459 0.0
C2309 C 0.97941 0.35963 0.70464 0.0
C2310 C 0.00242 0.38794 0.71599 0.0
C2311 C 0.99041 0.39 0.72791 0.0
C2312 C 0.97292 0.3765 0.72828 0.0
C2313 C 0.96748 0.36162 0.71666 0.0
C2314 C 0.98899 0.42698 0.75435 0.0
C2315 C 0.00519 0.43563 0.76398 0.0
C2316 C 0.98446 0.4125 0.74227 0.0
C2317 C 0.99587 0.4061 0.73985 0.0
C2318 C 0.01226 0.415 0.74929 0.0
C2319 C 0.01692 0.42973 0.76112 0.0
H2320 H 0.63873 0.60492 0.72763 0.0
H2321 H 0.62589 0.63786 0.6935 0.0
H2322 H 0.61106 0.59297 0.74597 0.0
H2323 H 0.598 0.62553 0.71161 0.0
H2324 H 0.54232 0.5759 0.72977 0.0
H2325 H 0.57066 0.59245 0.7127 0.0
H2326 H 0.59617 0.60598 0.77076 0.0
H2327 H 0.56779 0.58974 0.78784 0.0
C2328 C 0.63 0.60959 0.72405 0.0
C2329 C 0.63441 0.62227 0.70912 0.0
C2330 C 0.61427 0.60285 0.73463 0.0
C2331 C 0.60255 0.60843 0.73018 0.0
C2332 C 0.6069 0.62109 0.71526 0.0
C2333 C 0.62282 0.62812 0.70497 0.0
C2334 C 0.55399 0.58271 0.73881 0.0
C2335 C 0.553 0.58164 0.76003 0.0
C2336 C 0.57012 0.59217 0.72911 0.0
C2337 C 0.58548 0.60037 0.74049 0.0
C2338 C 0.58445 0.59971 0.76173 0.0
C2339 C 0.56829 0.59055 0.77145 0.0
H2340 H 0.64483 0.67858 0.63071 0.0
H2341 H 0.68987 0.72268 0.65697 0.0
H2342 H 0.63712 0.69791 0.61408 0.0
H2343 H 0.68192 0.74201 0.64071 0.0
H2344 H 0.67486 0.77082 0.58807 0.0
H2345 H 0.68154 0.75156 0.60658 0.0
H2346 H 0.62688 0.71802 0.62025 0.0
H2347 H 0.62018 0.73733 0.60152 0.0
C2348 C 0.65298 0.6924 0.63311 0.0
C2349 C 0.66802 0.69912 0.64505 0.0
C2350 C 0.6485 0.70347 0.62367 0.0
C2351 C 0.65894 0.7215 0.62599 0.0
C2352 C 0.67376 0.72819 0.63835 0.0
C2353 C 0.67826 0.71711 0.64776 0.0
C2354 C 0.66428 0.75943 0.5952 0.0
C2355 C 0.647 0.75562 0.59342 0.0
C2356 C 0.66811 0.7484 0.60585 0.0
C2357 C 0.65476 0.73331 0.615 0.0
C2358 C 0.63744 0.72946 0.61319 0.0
C2359 C 0.6336 0.7405 0.60247 0.0
H2360 H 0.3055 0.95769 0.65705 0.0
H2361 H 0.26576 0.96821 0.63711 0.0
H2362 H 0.29181 0.93072 0.63738 0.0
H2363 H 0.25237 0.94151 0.61732 0.0
H2364 H 0.24792 0.90478 0.56572 0.0
H2365 H 0.26289 0.93114 0.5859 0.0
H2366 H 0.26116 0.90127 0.63777 0.0
H2367 H 0.24543 0.87464 0.6179 0.0
C2368 C 0.29387 0.95426 0.6485 0.0
C2369 C 0.28671 0.96507 0.64862 0.0
C2370 C 0.28604 0.93883 0.63733 0.0
C2371 C 0.27113 0.93415 0.62579 0.0
C2372 C 0.26396 0.94492 0.62596 0.0
C2373 C 0.27158 0.96015 0.63738 0.0
C2374 C 0.25054 0.90373 0.58147 0.0
C2375 C 0.24519 0.88749 0.59022 0.0
C2376 C 0.25921 0.91886 0.59296 0.0
C2377 C 0.26302 0.91817 0.61339 0.0
C2378 C 0.25841 0.90211 0.622 0.0
C2379 C 0.24948 0.8869 0.61057 0.0
H2380 H 0.03143 0.30741 0.64134 0.0
H2381 H 0.04363 0.36044 0.64594 0.0
H2382 H 0.05878 0.3168 0.62364 0.0
H2383 H 0.0716 0.37011 0.62936 0.0
H2384 H 0.10983 0.37968 0.57749 0.0
H2385 H 0.0838 0.37136 0.59792 0.0
H2386 H 0.08864 0.33008 0.62479 0.0
H2387 H 0.11393 0.33787 0.60324 0.0
C2388 C 0.04018 0.32114 0.63896 0.0
C2389 C 0.03537 0.33318 0.64493 0.0
C2390 C 0.05598 0.32659 0.62888 0.0
C2391 C 0.06754 0.34428 0.6249 0.0
C2392 C 0.06294 0.35636 0.63166 0.0
C2393 C 0.04696 0.35086 0.64136 0.0
C2394 C 0.10526 0.36889 0.58787 0.0
C2395 C 0.11369 0.35933 0.58882 0.0
C2396 C 0.09043 0.36416 0.59973 0.0
C2397 C 0.08394 0.34995 0.61308 0.0
C2398 C 0.09289 0.34081 0.6144 0.0
C2399 C 0.10748 0.34533 0.60221 0.0
H2400 H 0.29777 0.34433 0.65481 0.0
H2401 H 0.26093 0.29397 0.63054 0.0
H2402 H 0.28473 0.3574 0.63426 0.0
H2403 H 0.24819 0.30712 0.60982 0.0
H2404 H 0.24618 0.34111 0.55884 0.0
H2405 H 0.26043 0.32974 0.57979 0.0
H2406 H 0.25334 0.35431 0.63241 0.0
H2407 H 0.23828 0.36509 0.61175 0.0
C2408 C 0.28692 0.33607 0.6451 0.0
C2409 C 0.28036 0.31812 0.64428 0.0
C2410 C 0.27946 0.34355 0.63342 0.0
C2411 C 0.26556 0.33325 0.62044 0.0
C2412 C 0.25901 0.31534 0.61961 0.0
C2413 C 0.26623 0.30782 0.63155 0.0
C2414 C 0.24749 0.344 0.57489 0.0
C2415 C 0.24083 0.35384 0.58361 0.0
C2416 C 0.25574 0.33755 0.58683 0.0
C2417 C 0.25783 0.34106 0.60768 0.0
C2418 C 0.25193 0.35151 0.61632 0.0
C2419 C 0.24339 0.35774 0.60443 0.0
H2420 H 0.64046 0.96182 0.63424 0.0
H2421 H 0.68432 0.96036 0.65919 0.0
H2422 H 0.63054 0.93387 0.61795 0.0
H2423 H 0.67449 0.9325 0.64272 0.0
H2424 H 0.64493 0.87629 0.62306 0.0
H2425 H 0.6509 0.90188 0.6426 0.0
H2426 H 0.6413 0.92369 0.58957 0.0
H2427 H 0.63547 0.89818 0.56997 0.0
C2428 C 0.6479 0.95546 0.63641 0.0
C2429 C 0.66323 0.96333 0.64792 0.0
C2430 C 0.64226 0.9395 0.62698 0.0
C2431 C 0.65178 0.93104 0.62896 0.0
C2432 C 0.66677 0.93863 0.64106 0.0
C2433 C 0.67246 0.95462 0.65042 0.0
C2434 C 0.64408 0.88654 0.61557 0.0
C2435 C 0.63988 0.88527 0.59491 0.0
C2436 C 0.64748 0.90118 0.62678 0.0
C2437 C 0.64667 0.91484 0.6176 0.0
C2438 C 0.64183 0.91329 0.59714 0.0
C2439 C 0.63848 0.89867 0.5859 0.0
H2440 H 0.04092 0.69277 0.65392 0.0
H2441 H 0.0294 0.7309 0.63129 0.0
H2442 H 0.06924 0.70776 0.63673 0.0
H2443 H 0.05701 0.74529 0.61343 0.0
H2444 H 0.1134 0.77852 0.59948 0.0
H2445 H 0.0866 0.76299 0.61911 0.0
H2446 H 0.08412 0.7146 0.60511 0.0
H2447 H 0.11165 0.73052 0.58632 0.0
C2448 C 0.04437 0.70425 0.64513 0.0
C2449 C 0.03301 0.71076 0.64415 0.0
C2450 C 0.06057 0.71281 0.63519 0.0
C2451 C 0.06561 0.72792 0.62385 0.0
C2452 C 0.05392 0.73405 0.62249 0.0
C2453 C 0.03796 0.72569 0.63264 0.0
C2454 C 0.10715 0.76457 0.60077 0.0
C2455 C 0.11444 0.75567 0.59133 0.0
C2456 C 0.0917 0.75561 0.61187 0.0
C2457 C 0.08291 0.73744 0.61343 0.0
C2458 C 0.09053 0.72857 0.60439 0.0
C2459 C 0.10624 0.73764 0.59356 0.0
H2460 H 0.01469 0.64619 0.72108 0.0
H2461 H 0.97151 0.60464 0.689 0.0
H2462 H 0.0197 0.62528 0.73839 0.0
H2463 H 0.9768 0.58363 0.70603 0.0
H2464 H 0.97841 0.55119 0.75911 0.0
H2465 H 0.97393 0.57144 0.73937 0.0
H2466 H 0.02961 0.60515 0.73366 0.0
H2467 H 0.0341 0.58531 0.75421 0.0
C2468 C 0.00638 0.63258 0.71754 0.0
C2469 C 0.99267 0.62709 0.70368 0.0
C2470 C 0.00932 0.62057 0.7274 0.0
C2471 C -0.00134 0.60274 0.72363 0.0
C2472 C 0.98512 0.59725 0.70949 0.0
C2473 C 0.98216 0.60929 0.69963 0.0
C2474 C 0.98971 0.56298 0.75376 0.0
C2475 C 0.00662 0.56665 0.75841 0.0
C2476 C 0.98713 0.57449 0.74219 0.0
C2477 C 0.0014 0.58998 0.73493 0.0
C2478 C 0.01831 0.59347 0.73921 0.0
C2479 C 0.02089 0.58197 0.75081 0.0
H2480 H 0.38363 0.37086 0.6935 0.0
H2481 H 0.33844 0.36909 0.72051 0.0
H2482 H 0.40235 0.39879 0.70979 0.0
H2483 H 0.35708 0.39706 0.73647 0.0
H2484 H 0.39768 0.43523 0.78171 0.0
H2485 H 0.37842 0.40848 0.76369 0.0
H2486 H 0.40974 0.42919 0.70952 0.0
H2487 H 0.429 0.45602 0.72755 0.0
C2488 C 0.37769 0.3765 0.70276 0.0
C2489 C 0.35957 0.36773 0.70579 0.0
C2490 C 0.38839 0.39254 0.71201 0.0
C2491 C 0.38119 0.40011 0.7245 0.0
C2492 C 0.36305 0.39146 0.72719 0.0
C2493 C 0.35236 0.37547 0.71794 0.0
C2494 C 0.4003 0.4342 0.76587 0.0
C2495 C 0.41489 0.44775 0.75608 0.0
C2496 C 0.38928 0.41885 0.75554 0.0
C2497 C 0.39258 0.4167 0.73518 0.0
C2498 C 0.407 0.43035 0.72529 0.0
C2499 C 0.41802 0.44572 0.73561 0.0
H2500 H 0.65043 0.04514 0.7244 0.0
H2501 H 0.6297 0.99355 0.69996 0.0
H2502 H 0.62463 0.03476 0.74601 0.0
H2503 H 0.60378 0.98331 0.72139 0.0
H2504 H 0.55265 0.98274 0.74308 0.0
H2505 H 0.57867 0.99083 0.72286 0.0
H2506 H 0.61051 0.01221 0.776 0.0
H2507 H 0.58448 0.00341 0.79659 0.0
C2508 C 0.64037 0.03161 0.72363 0.0
C2509 C 0.64206 0.02016 0.71048 0.0
C2510 C 0.62569 0.02567 0.73607 0.0
C2511 C 0.61232 0.00826 0.73532 0.0
C2512 C 0.61394 0.99681 0.72215 0.0
C2513 C 0.62877 0.00267 0.70998 0.0
C2514 C 0.56511 0.98877 0.75063 0.0
C2515 C 0.56641 0.99246 0.77151 0.0
C2516 C 0.58 0.99348 0.73899 0.0
C2517 C 0.59652 0.00221 0.74791 0.0
C2518 C 0.59789 0.00566 0.76877 0.0
C2519 C 0.58298 0.00069 0.7805 0.0
loop_
_geom_bond_atom_site_label_1
_geom_bond_atom_site_label_2
_geom_bond_distance
_geom_bond_site_symmetry_2
_ccdc_geom_bond_type
C0 O1 1.306 1_556 S
C0 O3 1.160 . S
O1 C0 1.306 1_554 S
O1 Cd2 2.228 . S
Cd2 O1 2.228 . S
Cd2 O6 2.273 . S
Cd2 O10 2.277 1_554 S
O3 C0 1.160 . S
O3 Cd4 2.203 1_656 S
Cd4 O3 2.203 1_454 S
Cd4 O6 2.411 1_455 S
Cd4 O7 2.333 . S
Cd4 O8 2.352 . S
Cd4 O12 2.277 1_554 S
Cd4 O13 2.356 . S
C5 O10 1.209 1_455 S
C5 O12 1.226 . S
O6 Cd2 2.273 . S
O6 Cd4 2.411 1_655 S
O6 C9 1.303 1_655 S
O7 Cd4 2.333 . S
O7 C9 1.259 . S
O8 Cd4 2.352 . S
O8 C11 1.258 . S
C9 O6 1.303 1_455 S
C9 O7 1.259 . S
O10 Cd2 2.277 1_556 S
O10 C5 1.209 1_655 S
C11 O8 1.258 . S
C11 O13 1.282 . S
O12 Cd4 2.277 1_556 S
O12 C5 1.226 . S
O13 Cd4 2.356 . S
O13 C11 1.282 . S
C14 O15 1.306 . S
C14 O17 1.160 . S
O15 C14 1.306 . S
O15 Cd16 2.228 . S
Cd16 O15 2.228 . S
Cd16 O20 2.273 1_554 S
Cd16 O24 2.277 . S
O17 C14 1.160 . S
O17 Cd18 2.203 . S
Cd18 O17 2.203 . S
Cd18 O20 2.411 1_554 S
Cd18 O21 2.333 1_554 S
Cd18 O22 2.352 1_554 S
Cd18 O26 2.277 . S
Cd18 O27 2.365 . S
C19 O24 1.209 . S
C19 O26 1.226 . S
O20 Cd16 2.273 1_556 S
O20 Cd18 2.411 1_556 S
O20 C23 1.320 . S
O21 Cd18 2.333 1_556 S
O21 C23 1.214 . S
O22 Cd18 2.352 1_556 S
O22 C25 1.258 . S
C23 O20 1.320 . S
C23 O21 1.214 . S
O24 Cd16 2.277 . S
O24 C19 1.209 . S
C25 O22 1.258 . S
C25 O27 1.264 1_556 S
O26 Cd18 2.277 . S
O26 C19 1.226 . S
O27 Cd18 2.365 . S
O27 C25 1.264 1_554 S
C28 O29 1.306 . S
C28 O31 1.160 . S
O29 C28 1.306 . S
O29 Cd30 2.228 . S
Cd30 O29 2.228 . S
Cd30 O34 2.273 1_554 S
Cd30 O38 2.277 . S
O31 C28 1.160 . S
O31 Cd32 2.203 1_565 S
Cd32 O31 2.203 1_545 S
Cd32 O34 2.411 1_544 S
Cd32 O35 2.333 1_554 S
Cd32 O36 2.352 1_554 S
Cd32 O40 2.277 . S
Cd32 O41 2.356 . S
C33 O38 1.209 1_545 S
C33 O40 1.226 . S
O34 Cd30 2.273 1_556 S
O34 Cd32 2.411 1_566 S
O34 C37 1.320 1_565 S
O35 Cd32 2.333 1_556 S
O35 C37 1.214 . S
O36 Cd32 2.352 1_556 S
O36 C39 1.258 . S
C37 O34 1.320 1_545 S
C37 O35 1.214 . S
O38 Cd30 2.277 . S
O38 C33 1.209 1_565 S
C39 O36 1.258 . S
C39 O41 1.282 1_556 S
O40 Cd32 2.277 . S
O40 C33 1.226 . S
O41 Cd32 2.356 . S
O41 C39 1.282 1_554 S
C42 O43 1.306 . S
C42 O45 1.160 . S
O43 C42 1.306 . S
O43 Cd44 2.228 1_556 S
Cd44 O43 2.228 1_554 S
Cd44 O48 2.273 . S
Cd44 O52 2.277 1_554 S
O45 C42 1.160 . S
O45 Cd46 2.203 1_656 S
Cd46 O45 2.203 1_454 S
Cd46 O48 2.411 1_455 S
Cd46 O49 2.333 . S
Cd46 O50 2.352 . S
Cd46 O54 2.277 1_554 S
Cd46 O55 2.356 . S
C47 O52 1.209 1_455 S
C47 O54 1.226 . S
O48 Cd44 2.273 . S
O48 Cd46 2.411 1_655 S
O48 C51 1.320 . S
O49 Cd46 2.333 . S
O49 C51 1.214 1_455 S
O50 Cd46 2.352 . S
O50 C53 1.258 . S
C51 O48 1.320 . S
C51 O49 1.214 1_655 S
O52 Cd44 2.277 1_556 S
O52 C47 1.209 1_655 S
C53 O50 1.258 . S
C53 O55 1.282 . S
O54 Cd46 2.277 1_556 S
O54 C47 1.226 . S
O55 Cd46 2.356 . S
O55 C53 1.282 . S
C56 O57 1.306 . S
C56 O59 1.160 . S
O57 C56 1.306 . S
O57 Cd58 2.228 . S
Cd58 O57 2.228 . S
Cd58 O62 2.273 1_554 S
Cd58 O66 2.277 . S
O59 C56 1.160 . S
O59 Cd60 2.203 . S
Cd60 O59 2.203 . S
Cd60 O62 2.411 1_554 S
Cd60 O63 2.333 1_554 S
Cd60 O64 2.352 1_554 S
Cd60 O68 2.277 . S
Cd60 O69 2.347 1_554 S
C61 O66 1.209 . S
C61 O68 1.226 . S
O62 Cd58 2.273 1_556 S
O62 Cd60 2.411 1_556 S
O62 C65 1.320 . S
O63 Cd60 2.333 1_556 S
O63 C65 1.214 . S
O64 Cd60 2.352 1_556 S
O64 C67 1.258 . S
C65 O62 1.320 . S
C65 O63 1.214 . S
O66 Cd58 2.277 . S
O66 C61 1.209 . S
C67 O64 1.258 . S
C67 O69 1.304 . S
O68 Cd60 2.277 . S
O68 C61 1.226 . S
O69 Cd60 2.347 1_556 S
O69 C67 1.304 . S
C70 O71 1.287 1_556 S
C70 O73 1.160 . S
O71 C70 1.287 1_554 S
O71 Cd72 2.240 . S
Cd72 O71 2.240 . S
Cd72 O76 2.273 . S
Cd72 O80 2.277 1_554 S
O73 C70 1.160 . S
O73 Cd74 2.203 1_546 S
Cd74 O73 2.203 1_564 S
Cd74 O76 2.411 1_565 S
Cd74 O77 2.333 . S
Cd74 O78 2.352 . S
Cd74 O82 2.277 1_554 S
Cd74 O83 2.356 . S
C75 O80 1.209 1_565 S
C75 O82 1.226 . S
O76 Cd72 2.273 . S
O76 Cd74 2.411 1_545 S
O76 C79 1.320 . S
O77 Cd74 2.333 . S
O77 C79 1.214 1_565 S
O78 Cd74 2.352 . S
O78 C81 1.258 . S
C79 O76 1.320 . S
C79 O77 1.214 1_545 S
O80 Cd72 2.277 1_556 S
O80 C75 1.209 1_545 S
C81 O78 1.258 . S
C81 O83 1.282 . S
O82 Cd74 2.277 1_556 S
O82 C75 1.226 . S
O83 Cd74 2.356 . S
O83 C81 1.282 . S
C84 O85 1.306 . S
C84 O87 1.160 . S
O85 C84 1.306 . S
O85 Cd86 2.228 . S
Cd86 O85 2.228 . S
Cd86 O90 2.273 . S
Cd86 O94 2.277 . S
O87 C84 1.160 . S
O87 Cd88 2.203 . S
Cd88 O87 2.203 . S
Cd88 O90 2.411 . S
Cd88 O91 2.333 . S
Cd88 O92 2.352 . S
Cd88 O96 2.277 . S
Cd88 O97 2.356 . S
C89 O94 1.209 . S
C89 O96 1.226 . S
O90 Cd86 2.273 . S
O90 Cd88 2.411 . S
O90 C93 1.320 . S
O91 Cd88 2.333 . S
O91 C93 1.214 . S
O92 Cd88 2.352 . S
O92 C95 1.258 . S
C93 O90 1.320 . S
C93 O91 1.214 . S
O94 Cd86 2.277 . S
O94 C89 1.209 . S
C95 O92 1.258 . S
C95 O97 1.282 . S
O96 Cd88 2.277 . S
O96 C89 1.226 . S
O97 Cd88 2.356 . S
O97 C95 1.282 . S
C98 O99 1.306 . S
C98 O101 1.160 . S
O99 C98 1.306 . S
O99 Cd100 2.228 1_545 S
Cd100 O99 2.228 1_565 S
Cd100 O104 2.273 . S
Cd100 O108 2.277 . S
O101 C98 1.160 . S
O101 Cd102 2.203 1_545 S
Cd102 O101 2.203 1_565 S
Cd102 O104 2.411 . S
Cd102 O105 2.333 . S
Cd102 O106 2.353 . S
Cd102 O110 2.277 . S
Cd102 O111 2.356 . S
C103 O108 1.209 . S
C103 O110 1.226 . S
O104 Cd100 2.273 . S
O104 Cd102 2.411 . S
O104 C107 1.320 . S
O105 Cd102 2.333 . S
O105 C107 1.214 . S
O106 Cd102 2.353 . S
O106 C109 1.263 . S
C107 O104 1.320 . S
C107 O105 1.214 . S
O108 Cd100 2.277 . S
O108 C103 1.209 . S
C109 O106 1.263 . S
C109 O111 1.282 . S
O110 Cd102 2.277 . S
O110 C103 1.226 . S
O111 Cd102 2.356 . S
O111 C109 1.282 . S
C112 O113 1.306 . S
C112 O115 1.160 1_655 S
O113 C112 1.306 . S
O113 Cd114 2.228 1_655 S
Cd114 O113 2.228 1_455 S
Cd114 O118 2.273 . S
Cd114 O122 2.277 . S
O115 C112 1.160 1_455 S
O115 Cd116 2.247 . S
Cd116 O115 2.247 . S
Cd116 O118 2.411 . S
Cd116 O119 2.333 . S
Cd116 O120 2.352 . S
Cd116 O124 2.277 . S
Cd116 O125 2.356 . S
C117 O122 1.209 . S
C117 O124 1.226 . S
O118 Cd114 2.273 . S
O118 Cd116 2.411 . S
O118 C121 1.320 . S
O119 Cd116 2.333 . S
O119 C121 1.214 . S
O120 Cd116 2.352 . S
O120 C123 1.258 . S
C121 O118 1.320 . S
C121 O119 1.214 . S
O122 Cd114 2.277 . S
O122 C117 1.209 . S
C123 O120 1.258 . S
C123 O125 1.282 . S
O124 Cd116 2.277 . S
O124 C117 1.226 . S
O125 Cd116 2.356 . S
O125 C123 1.282 . S
C126 O127 1.306 . S
C126 O129 1.160 . S
O127 C126 1.306 . S
O127 Cd128 2.228 . S
Cd128 O127 2.228 . S
Cd128 O132 2.273 . S
Cd128 O136 2.277 . S
O129 C126 1.160 . S
O129 Cd130 2.203 . S
Cd130 O129 2.203 . S
Cd130 O132 2.411 . S
Cd130 O133 2.333 . S
Cd130 O134 2.352 1_565 S
Cd130 O138 2.277 . S
Cd130 O139 2.356 1_565 S
C131 O136 1.209 . S
C131 O138 1.226 . S
O132 Cd128 2.273 . S
O132 Cd130 2.411 . S
O132 C135 1.320 . S
O133 Cd130 2.333 . S
O133 C135 1.214 . S
O134 Cd130 2.352 1_545 S
O134 C137 1.258 . S
C135 O132 1.320 . S
C135 O133 1.214 . S
O136 Cd128 2.277 . S
O136 C131 1.209 . S
C137 O134 1.258 . S
C137 O139 1.282 . S
O138 Cd130 2.277 . S
O138 C131 1.226 . S
O139 Cd130 2.356 1_545 S
O139 C137 1.282 . S
C140 O141 1.306 . S
C140 O143 1.160 . S
O141 C140 1.306 . S
O141 Cd142 2.228 1_655 S
Cd142 O141 2.228 1_455 S
Cd142 O146 2.273 . S
Cd142 O150 2.277 . S
O143 C140 1.160 . S
O143 Cd144 2.203 1_655 S
Cd144 O143 2.203 1_455 S
Cd144 O146 2.411 . S
Cd144 O147 2.333 . S
Cd144 O148 2.352 . S
Cd144 O152 2.277 . S
Cd144 O153 2.356 . S
C145 O150 1.209 . S
C145 O152 1.226 . S
O146 Cd142 2.273 . S
O146 Cd144 2.411 . S
O146 C149 1.320 . S
O147 Cd144 2.333 . S
O147 C149 1.214 . S
O148 Cd144 2.352 . S
O148 C151 1.258 . S
C149 O146 1.320 . S
C149 O147 1.214 . S
O150 Cd142 2.277 . S
O150 C145 1.209 . S
C151 O148 1.258 . S
C151 O153 1.282 . S
O152 Cd144 2.277 . S
O152 C145 1.226 . S
O153 Cd144 2.356 . S
O153 C151 1.282 . S
C154 O155 1.306 . S
C154 O157 1.160 . S
O155 C154 1.306 . S
O155 Cd156 2.228 . S
Cd156 O155 2.228 . S
Cd156 O160 2.273 . S
Cd156 O164 2.277 . S
O157 C154 1.160 . S
O157 Cd158 2.203 . S
Cd158 O157 2.203 . S
Cd158 O160 2.411 . S
Cd158 O161 2.333 . S
Cd158 O162 2.352 . S
Cd158 O166 2.277 . S
Cd158 O167 2.356 . S
C159 O164 1.209 . S
C159 O166 1.226 . S
O160 Cd156 2.273 . S
O160 Cd158 2.411 . S
O160 C163 1.320 . S
O161 Cd158 2.333 . S
O161 C163 1.214 . S
O162 Cd158 2.352 . S
O162 C165 1.258 . S
C163 O160 1.320 . S
C163 O161 1.214 . S
O164 Cd156 2.277 . S
O164 C159 1.209 . S
C165 O162 1.258 . S
C165 O167 1.282 . S
O166 Cd158 2.277 . S
O166 C159 1.226 . S
O167 Cd158 2.356 . S
O167 C165 1.282 . S
C168 O169 1.306 . S
C168 O171 1.160 . S
O169 C168 1.306 . S
O169 Cd170 2.228 1_565 S
Cd170 O169 2.228 1_545 S
Cd170 O174 2.273 . S
Cd170 O178 2.277 . S
O171 C168 1.160 . S
O171 Cd172 2.203 1_565 S
Cd172 O171 2.203 1_545 S
Cd172 O174 2.411 . S
Cd172 O175 2.333 . S
Cd172 O176 2.352 . S
Cd172 O180 2.277 . S
Cd172 O181 2.356 . S
C173 O178 1.209 . S
C173 O180 1.226 . S
O174 Cd170 2.273 . S
O174 Cd172 2.411 . S
O174 C177 1.320 . S
O175 Cd172 2.333 . S
O175 C177 1.214 . S
O176 Cd172 2.352 . S
O176 C179 1.258 . S
C177 O174 1.320 . S
C177 O175 1.214 . S
O178 Cd170 2.277 . S
O178 C173 1.209 . S
C179 O176 1.258 . S
C179 O181 1.282 . S
O180 Cd172 2.277 . S
O180 C173 1.226 . S
O181 Cd172 2.356 . S
O181 C179 1.282 . S
C182 O183 1.306 . S
C182 O185 1.190 . S
O183 C182 1.306 . S
O183 Cd184 2.228 . S
Cd184 O183 2.228 . S
Cd184 O188 2.273 . S
Cd184 O192 2.277 . S
O185 C182 1.190 . S
O185 Cd186 2.199 . S
Cd186 O185 2.199 . S
Cd186 O188 2.411 . S
Cd186 O189 2.333 . S
Cd186 O190 2.352 1_655 S
Cd186 O194 2.277 . S
Cd186 O195 2.356 1_655 S
C187 O192 1.209 . S
C187 O194 1.226 . S
O188 Cd184 2.273 . S
O188 Cd186 2.411 . S
O188 C191 1.320 . S
O189 Cd186 2.333 . S
O189 C191 1.214 . S
O190 Cd186 2.352 1_455 S
O190 C193 1.258 . S
C191 O188 1.320 . S
C191 O189 1.214 . S
O192 Cd184 2.277 . S
O192 C187 1.209 . S
C193 O190 1.258 . S
C193 O195 1.282 . S
O194 Cd186 2.277 . S
O194 C187 1.226 . S
O195 Cd186 2.356 1_455 S
O195 C193 1.282 . S
C196 O197 1.306 . S
C196 O199 1.160 . S
O197 C196 1.306 . S
O197 Cd198 2.228 . S
Cd198 O197 2.228 . S
Cd198 O202 2.273 . S
Cd198 O206 2.277 . S
O199 C196 1.160 . S
O199 Cd200 2.203 . S
Cd200 O199 2.203 . S
Cd200 O202 2.411 . S
Cd200 O203 2.333 . S
Cd200 O204 2.352 . S
Cd200 O208 2.277 . S
Cd200 O209 2.356 . S
C201 O206 1.209 . S
C201 O208 1.226 . S
O202 Cd198 2.273 . S
O202 Cd200 2.411 . S
O202 C205 1.320 . S
O203 Cd200 2.333 . S
O203 C205 1.214 . S
O204 Cd200 2.352 . S
O204 C207 1.258 . S
C205 O202 1.320 . S
C205 O203 1.214 . S
O206 Cd198 2.277 . S
O206 C201 1.209 . S
C207 O204 1.258 . S
C207 O209 1.282 . S
O208 Cd200 2.277 . S
O208 C201 1.226 . S
O209 Cd200 2.356 . S
O209 C207 1.282 . S
C210 O211 1.306 . S
C210 O213 1.160 . S
O211 C210 1.306 . S
O211 Cd212 2.228 . S
Cd212 O211 2.228 . S
Cd212 O216 2.273 . S
Cd212 O220 2.277 . S
O213 C210 1.160 . S
O213 Cd214 2.203 . S
Cd214 O213 2.203 . S
Cd214 O216 2.411 . S
Cd214 O217 2.333 . S
Cd214 O218 2.352 . S
Cd214 O222 2.277 . S
Cd214 O223 2.356 . S
C215 O220 1.209 . S
C215 O222 1.226 . S
O216 Cd212 2.273 . S
O216 Cd214 2.411 . S
O216 C219 1.320 . S
O217 Cd214 2.333 . S
O217 C219 1.214 . S
O218 Cd214 2.352 . S
O218 C221 1.258 . S
C219 O216 1.320 . S
C219 O217 1.214 . S
O220 Cd212 2.277 . S
O220 C215 1.209 . S
C221 O218 1.258 . S
C221 O223 1.282 . S
O222 Cd214 2.277 . S
O222 C215 1.226 . S
O223 Cd214 2.356 . S
O223 C221 1.282 . S
C224 O225 1.306 . S
C224 O227 1.160 . S
O225 C224 1.306 . S
O225 Cd226 2.228 . S
Cd226 O225 2.228 . S
Cd226 O230 2.273 . S
Cd226 O234 2.277 . S
O227 C224 1.160 . S
O227 Cd228 2.203 . S
Cd228 O227 2.203 . S
Cd228 O230 2.411 . S
Cd228 O231 2.333 . S
Cd228 O232 2.352 1_545 S
Cd228 O236 2.277 . S
Cd228 O237 2.356 1_545 S
C229 O234 1.209 . S
C229 O236 1.226 . S
O230 Cd226 2.273 . S
O230 Cd228 2.411 . S
O230 C233 1.320 . S
O231 Cd228 2.333 . S
O231 C233 1.214 . S
O232 Cd228 2.352 1_565 S
O232 C235 1.258 . S
C233 O230 1.320 . S
C233 O231 1.214 . S
O234 Cd226 2.277 . S
O234 C229 1.209 . S
C235 O232 1.258 . S
C235 O237 1.282 . S
O236 Cd228 2.277 . S
O236 C229 1.226 . S
O237 Cd228 2.356 1_565 S
O237 C235 1.282 . S
C238 O239 1.306 . S
C238 O241 1.160 . S
O239 C238 1.306 . S
O239 Cd240 2.228 1_455 S
Cd240 O239 2.228 1_655 S
Cd240 O244 2.273 . S
Cd240 O248 2.277 . S
O241 C238 1.160 . S
O241 Cd242 2.203 1_455 S
Cd242 O241 2.203 1_655 S
Cd242 O244 2.411 . S
Cd242 O245 2.333 . S
Cd242 O246 2.380 . S
Cd242 O250 2.277 . S
Cd242 O251 2.356 . S
C243 O248 1.209 . S
C243 O250 1.226 . S
O244 Cd240 2.273 . S
O244 Cd242 2.411 . S
O244 C247 1.320 . S
O245 Cd242 2.333 . S
O245 C247 1.214 . S
O246 Cd242 2.380 . S
O246 C249 1.260 . S
C247 O244 1.320 . S
C247 O245 1.214 . S
O248 Cd240 2.277 . S
O248 C243 1.209 . S
C249 O246 1.260 . S
C249 O251 1.282 . S
O250 Cd242 2.277 . S
O250 C243 1.226 . S
O251 Cd242 2.356 . S
O251 C249 1.282 . S
C252 C253 1.384 . S
C252 C254 1.384 . S
C252 H280 0.931 . S
C253 C252 1.384 . S
C253 C256 1.382 . S
C254 C252 1.384 . S
C254 C255 1.381 . S
C254 H281 0.930 . S
C255 C254 1.381 . S
C255 C257 1.381 . S
C255 C258 1.487 . S
C256 C253 1.382 . S
C256 C257 1.387 . S
C256 H282 0.930 . S
C257 C255 1.381 . S
C257 C256 1.387 . S
C257 H283 0.931 . S
C258 C255 1.487 . S
C258 C265 1.399 . S
C258 N296 1.343 . S
C259 C260 1.384 . S
C259 C261 1.384 . S
C259 H284 0.931 . S
C260 C259 1.384 . S
C260 C263 1.382 . S
C261 C259 1.384 . S
C261 C262 1.381 . S
C261 H285 0.930 . S
C262 C261 1.381 . S
C262 C264 1.381 . S
C262 C265 1.487 . S
C263 C260 1.382 . S
C263 C264 1.387 . S
C263 H286 0.930 . S
C264 C262 1.381 . S
C264 C263 1.387 . S
C264 H287 0.931 . S
C265 C258 1.399 . S
C265 C262 1.487 . S
C265 N297 1.343 . S
C266 C267 1.384 . S
C266 C268 1.384 . S
C266 H288 0.931 . S
C267 C266 1.384 . S
C267 C270 1.382 . S
C268 C266 1.384 . S
C268 C269 1.381 . S
C268 H289 0.930 . S
C269 C268 1.381 . S
C269 C271 1.381 . S
C269 C272 1.487 . S
C270 C267 1.382 . S
C270 C271 1.387 . S
C270 H290 0.930 . S
C271 C269 1.381 . S
C271 C270 1.387 . S
C271 H291 0.931 . S
C272 C269 1.487 . S
C272 C279 1.399 . S
C272 N297 1.343 . S
C273 C274 1.384 . S
C273 C275 1.384 . S
C273 H292 0.931 . S
C274 C273 1.384 . S
C274 C277 1.382 . S
C275 C273 1.384 . S
C275 C276 1.381 . S
C275 H293 0.930 . S
C276 C275 1.381 . S
C276 C278 1.381 . S
C276 C279 1.487 . S
C277 C274 1.382 . S
C277 C278 1.387 . S
C277 H294 0.930 . S
C278 C276 1.381 . S
C278 C277 1.387 . S
C278 H295 0.931 . S
C279 C272 1.399 . S
C279 C276 1.487 . S
C279 N296 1.343 . S
H280 C252 0.931 . S
H281 C254 0.930 . S
H282 C256 0.930 . S
H283 C257 0.931 . S
H284 C259 0.931 . S
H285 C261 0.930 . S
H286 C263 0.930 . S
H287 C264 0.931 . S
H288 C266 0.931 . S
H289 C268 0.930 . S
H290 C270 0.930 . S
H291 C271 0.931 . S
H292 C273 0.931 . S
H293 C275 0.930 . S
H294 C277 0.930 . S
H295 C278 0.931 . S
N296 C258 1.343 . S
N296 C279 1.343 . S
N297 C265 1.343 . S
N297 C272 1.343 . S
C298 C299 1.384 . S
C298 C300 1.384 . S
C298 H326 0.931 . S
C299 C298 1.384 . S
C299 C302 1.382 . S
C300 C298 1.384 . S
C300 C301 1.381 . S
C300 H327 0.930 . S
C301 C300 1.381 . S
C301 C303 1.381 . S
C301 C304 1.487 . S
C302 C299 1.382 . S
C302 C303 1.387 . S
C302 H328 0.930 . S
C303 C301 1.381 . S
C303 C302 1.387 . S
C303 H329 0.931 . S
C304 C301 1.487 . S
C304 C311 1.399 . S
C304 N342 1.343 . S
C305 C306 1.384 . S
C305 C307 1.384 . S
C305 H330 0.931 . S
C306 C305 1.384 . S
C306 C309 1.382 . S
C307 C305 1.384 . S
C307 C308 1.381 . S
C307 H331 0.930 . S
C308 C307 1.381 . S
C308 C310 1.381 . S
C308 C311 1.487 . S
C309 C306 1.382 . S
C309 C310 1.387 . S
C309 H332 0.930 . S
C310 C308 1.381 . S
C310 C309 1.387 . S
C310 H333 0.931 . S
C311 C304 1.399 . S
C311 C308 1.487 . S
C311 N343 1.343 . S
C312 C313 1.384 . S
C312 C314 1.384 . S
C312 H334 0.931 . S
C313 C312 1.384 . S
C313 C316 1.382 . S
C314 C312 1.384 . S
C314 C315 1.381 . S
C314 H335 0.930 . S
C315 C314 1.381 . S
C315 C317 1.381 . S
C315 C318 1.487 . S
C316 C313 1.382 . S
C316 C317 1.387 . S
C316 H336 0.930 . S
C317 C315 1.381 . S
C317 C316 1.387 . S
C317 H337 0.931 . S
C318 C315 1.487 . S
C318 C325 1.399 . S
C318 N343 1.343 . S
C319 C320 1.384 . S
C319 C321 1.384 . S
C319 H338 0.931 . S
C320 C319 1.384 . S
C320 C323 1.382 . S
C321 C319 1.384 . S
C321 C322 1.381 . S
C321 H339 0.930 . S
C322 C321 1.381 . S
C322 C324 1.381 . S
C322 C325 1.487 . S
C323 C320 1.382 . S
C323 C324 1.387 . S
C323 H340 0.930 . S
C324 C322 1.381 . S
C324 C323 1.387 . S
C324 H341 0.931 . S
C325 C318 1.399 . S
C325 C322 1.487 . S
C325 N342 1.343 . S
H326 C298 0.931 . S
H327 C300 0.930 . S
H328 C302 0.930 . S
H329 C303 0.931 . S
H330 C305 0.931 . S
H331 C307 0.930 . S
H332 C309 0.930 . S
H333 C310 0.931 . S
H334 C312 0.931 . S
H335 C314 0.930 . S
H336 C316 0.930 . S
H337 C317 0.931 . S
H338 C319 0.931 . S
H339 C321 0.930 . S
H340 C323 0.930 . S
H341 C324 0.931 . S
N342 C304 1.343 . S
N342 C325 1.343 . S
N343 C311 1.343 . S
N343 C318 1.343 . S
C344 C345 1.384 . S
C344 C346 1.384 . S
C344 H372 0.931 . S
C345 C344 1.384 . S
C345 C348 1.382 . S
C346 C344 1.384 . S
C346 C347 1.381 . S
C346 H373 0.930 . S
C347 C346 1.381 . S
C347 C349 1.381 . S
C347 C350 1.487 . S
C348 C345 1.382 . S
C348 C349 1.387 . S
C348 H374 0.930 . S
C349 C347 1.381 . S
C349 C348 1.387 . S
C349 H375 0.931 . S
C350 C347 1.487 . S
C350 C357 1.399 . S
C350 N388 1.343 . S
C351 C352 1.384 . S
C351 C353 1.384 . S
C351 H376 0.931 . S
C352 C351 1.384 . S
C352 C355 1.382 . S
C353 C351 1.384 . S
C353 C354 1.381 . S
C353 H377 0.930 . S
C354 C353 1.381 . S
C354 C356 1.381 . S
C354 C357 1.487 . S
C355 C352 1.382 . S
C355 C356 1.387 . S
C355 H378 0.930 . S
C356 C354 1.381 . S
C356 C355 1.387 . S
C356 H379 0.931 . S
C357 C350 1.399 . S
C357 C354 1.487 . S
C357 N389 1.343 . S
C358 C359 1.384 . S
C358 C360 1.384 . S
C358 H380 0.931 . S
C359 C358 1.384 . S
C359 C362 1.382 . S
C360 C358 1.384 . S
C360 C361 1.381 . S
C360 H381 0.930 . S
C361 C360 1.381 . S
C361 C363 1.381 . S
C361 C364 1.487 . S
C362 C359 1.382 . S
C362 C363 1.387 . S
C362 H382 0.930 . S
C363 C361 1.381 . S
C363 C362 1.387 . S
C363 H383 0.931 . S
C364 C361 1.487 . S
C364 C371 1.399 . S
C364 N389 1.343 . S
C365 C366 1.384 . S
C365 C367 1.384 . S
C365 H384 0.931 . S
C366 C365 1.384 . S
C366 C369 1.382 . S
C367 C365 1.384 . S
C367 C368 1.381 . S
C367 H385 0.930 . S
C368 C367 1.381 . S
C368 C370 1.381 . S
C368 C371 1.487 . S
C369 C366 1.382 . S
C369 C370 1.387 . S
C369 H386 0.930 . S
C370 C368 1.381 . S
C370 C369 1.387 . S
C370 H387 0.931 . S
C371 C364 1.399 . S
C371 C368 1.487 . S
C371 N388 1.343 . S
H372 C344 0.931 . S
H373 C346 0.930 . S
H374 C348 0.930 . S
H375 C349 0.931 . S
H376 C351 0.931 . S
H377 C353 0.930 . S
H378 C355 0.930 . S
H379 C356 0.931 . S
H380 C358 0.931 . S
H381 C360 0.930 . S
H382 C362 0.930 . S
H383 C363 0.931 . S
H384 C365 0.931 . S
H385 C367 0.930 . S
H386 C369 0.930 . S
H387 C370 0.931 . S
N388 C350 1.343 . S
N388 C371 1.343 . S
N389 C357 1.343 . S
N389 C364 1.343 . S
C390 C391 1.384 . S
C390 C392 1.384 . S
C390 H418 0.931 . S
C391 C390 1.384 . S
C391 C394 1.382 . S
C392 C390 1.384 . S
C392 C393 1.381 . S
C392 H419 0.930 . S
C393 C392 1.381 . S
C393 C395 1.381 . S
C393 C396 1.487 . S
C394 C391 1.382 . S
C394 C395 1.387 . S
C394 H420 0.930 . S
C395 C393 1.381 . S
C395 C394 1.387 . S
C395 H421 0.931 . S
C396 C393 1.487 . S
C396 C403 1.399 . S
C396 N434 1.343 . S
C397 C398 1.384 . S
C397 C399 1.384 . S
C397 H422 0.931 . S
C398 C397 1.384 . S
C398 C401 1.382 . S
C399 C397 1.384 . S
C399 C400 1.381 . S
C399 H423 0.930 . S
C400 C399 1.381 . S
C400 C402 1.381 . S
C400 C403 1.487 . S
C401 C398 1.382 . S
C401 C402 1.387 . S
C401 H424 0.930 . S
C402 C400 1.381 . S
C402 C401 1.387 . S
C402 H425 0.931 . S
C403 C396 1.399 . S
C403 C400 1.487 . S
C403 N435 1.343 . S
C404 C405 1.384 . S
C404 C406 1.384 . S
C404 H426 0.931 . S
C405 C404 1.384 . S
C405 C408 1.382 . S
C406 C404 1.384 . S
C406 C407 1.381 . S
C406 H427 0.930 . S
C407 C406 1.381 . S
C407 C409 1.381 . S
C407 C410 1.487 . S
C408 C405 1.382 . S
C408 C409 1.387 . S
C408 H428 0.930 . S
C409 C407 1.381 . S
C409 C408 1.387 . S
C409 H429 0.931 . S
C410 C407 1.487 . S
C410 C417 1.399 . S
C410 N435 1.343 . S
C411 C412 1.384 . S
C411 C413 1.384 . S
C411 H430 0.931 . S
C412 C411 1.384 . S
C412 C415 1.382 . S
C413 C411 1.384 . S
C413 C414 1.381 . S
C413 H431 0.930 . S
C414 C413 1.381 . S
C414 C416 1.381 . S
C414 C417 1.487 . S
C415 C412 1.382 . S
C415 C416 1.387 . S
C415 H432 0.930 . S
C416 C414 1.381 . S
C416 C415 1.387 . S
C416 H433 0.931 . S
C417 C410 1.399 . S
C417 C414 1.487 . S
C417 N434 1.343 . S
H418 C390 0.931 . S
H419 C392 0.930 . S
H420 C394 0.930 . S
H421 C395 0.931 . S
H422 C397 0.931 . S
H423 C399 0.930 . S
H424 C401 0.930 . S
H425 C402 0.931 . S
H426 C404 0.931 . S
H427 C406 0.930 . S
H428 C408 0.930 . S
H429 C409 0.931 . S
H430 C411 0.931 . S
H431 C413 0.930 . S
H432 C415 0.930 . S
H433 C416 0.931 . S
N434 C396 1.343 . S
N434 C417 1.343 . S
N435 C403 1.343 . S
N435 C410 1.343 . S
C436 C437 1.384 . S
C436 C438 1.384 . S
C436 H464 0.931 . S
C437 C436 1.384 . S
C437 C440 1.382 . S
C438 C436 1.384 . S
C438 C439 1.381 . S
C438 H465 0.930 . S
C439 C438 1.381 . S
C439 C441 1.381 . S
C439 C442 1.487 . S
C440 C437 1.382 . S
C440 C441 1.387 . S
C440 H466 0.930 . S
C441 C439 1.381 . S
C441 C440 1.387 . S
C441 H467 0.931 . S
C442 C439 1.487 . S
C442 C449 1.399 . S
C442 N480 1.343 . S
C443 C444 1.384 . S
C443 C445 1.384 . S
C443 H468 0.931 . S
C444 C443 1.384 . S
C444 C447 1.382 . S
C445 C443 1.384 . S
C445 C446 1.381 . S
C445 H469 0.930 . S
C446 C445 1.381 . S
C446 C448 1.381 . S
C446 C449 1.487 . S
C447 C444 1.382 . S
C447 C448 1.387 . S
C447 H470 0.930 . S
C448 C446 1.381 . S
C448 C447 1.387 . S
C448 H471 0.931 . S
C449 C442 1.399 . S
C449 C446 1.487 . S
C449 N481 1.343 . S
C450 C451 1.384 . S
C450 C452 1.384 . S
C450 H472 0.931 . S
C451 C450 1.384 . S
C451 C454 1.382 . S
C452 C450 1.384 . S
C452 C453 1.381 . S
C452 H473 0.930 . S
C453 C452 1.381 . S
C453 C455 1.381 . S
C453 C456 1.487 . S
C454 C451 1.382 . S
C454 C455 1.387 . S
C454 H474 0.930 . S
C455 C453 1.381 . S
C455 C454 1.387 . S
C455 H475 0.931 . S
C456 C453 1.487 . S
C456 C463 1.399 . S
C456 N481 1.343 . S
C457 C458 1.384 . S
C457 C459 1.384 . S
C457 H476 0.931 . S
C458 C457 1.384 . S
C458 C461 1.382 . S
C459 C457 1.384 . S
C459 C460 1.381 . S
C459 H477 0.930 . S
C460 C459 1.381 . S
C460 C462 1.381 . S
C460 C463 1.487 . S
C461 C458 1.382 . S
C461 C462 1.387 . S
C461 H478 0.930 . S
C462 C460 1.381 . S
C462 C461 1.387 . S
C462 H479 0.931 . S
C463 C456 1.399 . S
C463 C460 1.487 . S
C463 N480 1.343 . S
H464 C436 0.931 . S
H465 C438 0.930 . S
H466 C440 0.930 . S
H467 C441 0.931 . S
H468 C443 0.931 . S
H469 C445 0.930 . S
H470 C447 0.930 . S
H471 C448 0.931 . S
H472 C450 0.931 . S
H473 C452 0.930 . S
H474 C454 0.930 . S
H475 C455 0.931 . S
H476 C457 0.931 . S
H477 C459 0.930 . S
H478 C461 0.930 . S
H479 C462 0.931 . S
N480 C442 1.343 . S
N480 C463 1.343 . S
N481 C449 1.343 . S
N481 C456 1.343 . S
C482 C483 1.384 . S
C482 C484 1.384 . S
C482 H510 0.931 . S
C483 C482 1.384 . S
C483 C486 1.382 . S
C484 C482 1.384 . S
C484 C485 1.381 . S
C484 H511 0.930 . S
C485 C484 1.381 . S
C485 C487 1.381 . S
C485 C488 1.487 . S
C486 C483 1.382 . S
C486 C487 1.387 . S
C486 H512 0.930 . S
C487 C485 1.381 . S
C487 C486 1.387 . S
C487 H513 0.931 . S
C488 C485 1.487 . S
C488 C495 1.399 . S
C488 N526 1.343 . S
C489 C490 1.384 . S
C489 C491 1.384 . S
C489 H514 0.931 . S
C490 C489 1.384 . S
C490 C493 1.382 . S
C491 C489 1.384 . S
C491 C492 1.381 . S
C491 H515 0.930 . S
C492 C491 1.381 . S
C492 C494 1.381 . S
C492 C495 1.487 . S
C493 C490 1.382 . S
C493 C494 1.387 . S
C493 H516 0.930 . S
C494 C492 1.381 . S
C494 C493 1.387 . S
C494 H517 0.931 . S
C495 C488 1.399 . S
C495 C492 1.487 . S
C495 N527 1.343 . S
C496 C497 1.384 . S
C496 C498 1.384 . S
C496 H518 0.931 . S
C497 C496 1.384 . S
C497 C500 1.382 . S
C498 C496 1.384 . S
C498 C499 1.381 . S
C498 H519 0.930 . S
C499 C498 1.381 . S
C499 C501 1.381 . S
C499 C502 1.487 . S
C500 C497 1.382 . S
C500 C501 1.387 . S
C500 H520 0.930 . S
C501 C499 1.381 . S
C501 C500 1.387 . S
C501 H521 0.931 . S
C502 C499 1.487 . S
C502 C509 1.399 . S
C502 N527 1.343 . S
C503 C504 1.384 . S
C503 C505 1.384 . S
C503 H522 0.931 . S
C504 C503 1.384 . S
C504 C507 1.382 . S
C505 C503 1.384 . S
C505 C506 1.381 . S
C505 H523 0.930 . S
C506 C505 1.381 . S
C506 C508 1.381 . S
C506 C509 1.487 . S
C507 C504 1.382 . S
C507 C508 1.387 . S
C507 H524 0.930 . S
C508 C506 1.381 . S
C508 C507 1.387 . S
C508 H525 0.931 . S
C509 C502 1.399 . S
C509 C506 1.487 . S
C509 N526 1.343 . S
H510 C482 0.931 . S
H511 C484 0.930 . S
H512 C486 0.930 . S
H513 C487 0.931 . S
H514 C489 0.931 . S
H515 C491 0.930 . S
H516 C493 0.930 . S
H517 C494 0.931 . S
H518 C496 0.931 . S
H519 C498 0.930 . S
H520 C500 0.930 . S
H521 C501 0.931 . S
H522 C503 0.931 . S
H523 C505 0.930 . S
H524 C507 0.930 . S
H525 C508 0.931 . S
N526 C488 1.343 . S
N526 C509 1.343 . S
N527 C495 1.343 . S
N527 C502 1.343 . S
C528 C529 1.384 . S
C528 C530 1.384 . S
C528 H556 0.931 . S
C529 C528 1.384 . S
C529 C532 1.382 . S
C530 C528 1.384 . S
C530 C531 1.381 . S
C530 H557 0.930 . S
C531 C530 1.381 . S
C531 C533 1.381 . S
C531 C534 1.487 . S
C532 C529 1.382 . S
C532 C533 1.387 . S
C532 H558 0.930 . S
C533 C531 1.381 . S
C533 C532 1.387 . S
C533 H559 0.931 . S
C534 C531 1.487 . S
C534 C541 1.399 . S
C534 N572 1.343 . S
C535 C536 1.384 . S
C535 C537 1.384 . S
C535 H560 0.931 . S
C536 C535 1.384 . S
C536 C539 1.382 . S
C537 C535 1.384 . S
C537 C538 1.381 . S
C537 H561 0.930 . S
C538 C537 1.381 . S
C538 C540 1.381 . S
C538 C541 1.487 . S
C539 C536 1.382 . S
C539 C540 1.387 . S
C539 H562 0.930 . S
C540 C538 1.381 . S
C540 C539 1.387 . S
C540 H563 0.931 . S
C541 C534 1.399 . S
C541 C538 1.487 . S
C541 N573 1.343 . S
C542 C543 1.384 . S
C542 C544 1.384 . S
C542 H564 0.931 . S
C543 C542 1.384 . S
C543 C546 1.382 . S
C544 C542 1.384 . S
C544 C545 1.381 . S
C544 H565 0.930 . S
C545 C544 1.381 . S
C545 C547 1.381 . S
C545 C548 1.487 . S
C546 C543 1.382 . S
C546 C547 1.387 . S
C546 H566 0.930 . S
C547 C545 1.381 . S
C547 C546 1.387 . S
C547 H567 0.931 . S
C548 C545 1.487 . S
C548 C555 1.399 . S
C548 N573 1.343 . S
C549 C550 1.384 . S
C549 C551 1.384 . S
C549 H568 0.931 . S
C550 C549 1.384 . S
C550 C553 1.382 . S
C551 C549 1.384 . S
C551 C552 1.381 . S
C551 H569 0.930 . S
C552 C551 1.381 . S
C552 C554 1.381 . S
C552 C555 1.487 . S
C553 C550 1.382 . S
C553 C554 1.387 . S
C553 H570 0.930 . S
C554 C552 1.381 . S
C554 C553 1.387 . S
C554 H571 0.931 . S
C555 C548 1.399 . S
C555 C552 1.487 . S
C555 N572 1.343 . S
H556 C528 0.931 . S
H557 C530 0.930 . S
H558 C532 0.930 . S
H559 C533 0.931 . S
H560 C535 0.931 . S
H561 C537 0.930 . S
H562 C539 0.930 . S
H563 C540 0.931 . S
H564 C542 0.931 . S
H565 C544 0.930 . S
H566 C546 0.930 . S
H567 C547 0.931 . S
H568 C549 0.931 . S
H569 C551 0.930 . S
H570 C553 0.930 . S
H571 C554 0.931 . S
N572 C534 1.343 . S
N572 C555 1.343 . S
N573 C541 1.343 . S
N573 C548 1.343 . S
C574 C575 1.384 . S
C574 C576 1.384 . S
C574 H602 0.931 . S
C575 C574 1.384 . S
C575 C578 1.382 . S
C576 C574 1.384 . S
C576 C577 1.381 . S
C576 H603 0.930 . S
C577 C576 1.381 . S
C577 C579 1.381 . S
C577 C580 1.487 . S
C578 C575 1.382 . S
C578 C579 1.387 . S
C578 H604 0.930 . S
C579 C577 1.381 . S
C579 C578 1.387 . S
C579 H605 0.931 . S
C580 C577 1.487 . S
C580 C587 1.399 . S
C580 N618 1.343 . S
C581 C582 1.384 . S
C581 C583 1.384 . S
C581 H606 0.931 . S
C582 C581 1.384 . S
C582 C585 1.382 . S
C583 C581 1.384 . S
C583 C584 1.381 . S
C583 H607 0.930 . S
C584 C583 1.381 . S
C584 C586 1.381 . S
C584 C587 1.487 . S
C585 C582 1.382 . S
C585 C586 1.387 . S
C585 H608 0.930 . S
C586 C584 1.381 . S
C586 C585 1.387 . S
C586 H609 0.931 . S
C587 C580 1.399 . S
C587 C584 1.487 . S
C587 N619 1.343 . S
C588 C589 1.384 . S
C588 C590 1.384 . S
C588 H610 0.931 . S
C589 C588 1.384 . S
C589 C592 1.382 . S
C590 C588 1.384 . S
C590 C591 1.381 . S
C590 H611 0.930 . S
C591 C590 1.381 . S
C591 C593 1.381 . S
C591 C594 1.487 . S
C592 C589 1.382 . S
C592 C593 1.387 . S
C592 H612 0.930 . S
C593 C591 1.381 . S
C593 C592 1.387 . S
C593 H613 0.931 . S
C594 C591 1.487 . S
C594 C601 1.399 . S
C594 N619 1.343 . S
C595 C596 1.384 . S
C595 C597 1.384 . S
C595 H614 0.931 . S
C596 C595 1.384 . S
C596 C599 1.382 . S
C597 C595 1.384 . S
C597 C598 1.381 . S
C597 H615 0.930 . S
C598 C597 1.381 . S
C598 C600 1.381 . S
C598 C601 1.487 . S
C599 C596 1.382 . S
C599 C600 1.387 . S
C599 H616 0.930 . S
C600 C598 1.381 . S
C600 C599 1.387 . S
C600 H617 0.931 . S
C601 C594 1.399 . S
C601 C598 1.487 . S
C601 N618 1.343 . S
H602 C574 0.931 . S
H603 C576 0.930 . S
H604 C578 0.930 . S
H605 C579 0.931 . S
H606 C581 0.931 . S
H607 C583 0.930 . S
H608 C585 0.930 . S
H609 C586 0.931 . S
H610 C588 0.931 . S
H611 C590 0.930 . S
H612 C592 0.930 . S
H613 C593 0.931 . S
H614 C595 0.931 . S
H615 C597 0.930 . S
H616 C599 0.930 . S
H617 C600 0.931 . S
N618 C580 1.343 . S
N618 C601 1.343 . S
N619 C587 1.343 . S
N619 C594 1.343 . S
C620 C621 1.384 . S
C620 C622 1.384 . S
C620 H648 0.931 . S
C621 C620 1.384 . S
C621 C624 1.382 . S
C622 C620 1.384 . S
C622 C623 1.381 . S
C622 H649 0.930 . S
C623 C622 1.381 . S
C623 C625 1.381 . S
C623 C626 1.487 . S
C624 C621 1.382 . S
C624 C625 1.387 . S
C624 H650 0.930 . S
C625 C623 1.381 . S
C625 C624 1.387 . S
C625 H651 0.931 . S
C626 C623 1.487 . S
C626 C633 1.399 . S
C626 N664 1.343 . S
C627 C628 1.384 . S
C627 C629 1.384 . S
C627 H652 0.931 . S
C628 C627 1.384 . S
C628 C631 1.382 . S
C629 C627 1.384 . S
C629 C630 1.381 . S
C629 H653 0.930 . S
C630 C629 1.381 . S
C630 C632 1.381 . S
C630 C633 1.487 . S
C631 C628 1.382 . S
C631 C632 1.387 . S
C631 H654 0.930 . S
C632 C630 1.381 . S
C632 C631 1.387 . S
C632 H655 0.931 . S
C633 C626 1.399 . S
C633 C630 1.487 . S
C633 N665 1.343 . S
C634 C635 1.384 . S
C634 C636 1.384 . S
C634 H656 0.931 . S
C635 C634 1.384 . S
C635 C638 1.382 . S
C636 C634 1.384 . S
C636 C637 1.381 . S
C636 H657 0.930 . S
C637 C636 1.381 . S
C637 C639 1.381 . S
C637 C640 1.487 . S
C638 C635 1.382 . S
C638 C639 1.387 . S
C638 H658 0.930 . S
C639 C637 1.381 . S
C639 C638 1.387 . S
C639 H659 0.931 . S
C640 C637 1.487 . S
C640 C647 1.399 . S
C640 N665 1.343 . S
C641 C642 1.384 . S
C641 C643 1.384 . S
C641 H660 0.931 . S
C642 C641 1.384 . S
C642 C645 1.382 . S
C643 C641 1.384 . S
C643 C644 1.381 . S
C643 H661 0.930 . S
C644 C643 1.381 . S
C644 C646 1.381 . S
C644 C647 1.487 . S
C645 C642 1.382 . S
C645 C646 1.387 . S
C645 H662 0.930 . S
C646 C644 1.381 . S
C646 C645 1.387 . S
C646 H663 0.931 . S
C647 C640 1.399 . S
C647 C644 1.487 . S
C647 N664 1.343 . S
H648 C620 0.931 . S
H649 C622 0.930 . S
H650 C624 0.930 . S
H651 C625 0.931 . S
H652 C627 0.931 . S
H653 C629 0.930 . S
H654 C631 0.930 . S
H655 C632 0.931 . S
H656 C634 0.931 . S
H657 C636 0.930 . S
H658 C638 0.930 . S
H659 C639 0.931 . S
H660 C641 0.931 . S
H661 C643 0.930 . S
H662 C645 0.930 . S
H663 C646 0.931 . S
N664 C626 1.343 . S
N664 C647 1.343 . S
N665 C633 1.343 . S
N665 C640 1.343 . S
C666 C667 1.384 . S
C666 C668 1.384 . S
C666 H694 0.931 . S
C667 C666 1.384 . S
C667 C670 1.382 1_655 S
C668 C666 1.384 . S
C668 C669 1.403 . S
C668 H695 0.930 . S
C669 C668 1.403 . S
C669 C671 1.370 1_655 S
C669 C672 1.473 1_655 S
C670 C667 1.382 1_455 S
C670 C671 1.387 . S
C670 H696 0.930 . S
C671 C669 1.370 1_455 S
C671 C670 1.387 . S
C671 H697 0.931 . S
C672 C669 1.473 1_455 S
C672 C679 1.399 1_455 S
C672 N710 1.316 . S
C673 C674 1.384 . S
C673 C675 1.384 . S
C673 H698 0.931 . S
C674 C673 1.384 . S
C674 C677 1.382 1_455 S
C675 C673 1.384 . S
C675 C676 1.382 . S
C675 H699 0.930 . S
C676 C675 1.382 . S
C676 C678 1.379 1_455 S
C676 C679 1.492 1_455 S
C677 C674 1.382 1_655 S
C677 C678 1.387 . S
C677 H700 0.930 . S
C678 C676 1.379 1_655 S
C678 C677 1.387 . S
C678 H701 0.931 . S
C679 C672 1.399 1_655 S
C679 C676 1.492 1_655 S
C679 N711 1.362 . S
C680 C681 1.384 . S
C680 C682 1.384 . S
C680 H702 0.931 . S
C681 C680 1.384 . S
C681 C684 1.382 1_455 S
C682 C680 1.384 . S
C682 C683 1.420 . S
C682 H703 0.930 . S
C683 C682 1.420 . S
C683 C685 1.362 1_455 S
C683 C686 1.466 . S
C684 C681 1.382 1_655 S
C684 C685 1.387 . S
C684 H704 0.930 . S
C685 C683 1.362 1_655 S
C685 C684 1.387 . S
C685 H705 0.931 . S
C686 C683 1.466 . S
C686 C693 1.399 . S
C686 N711 1.323 1_455 S
C687 C688 1.384 . S
C687 C689 1.384 . S
C687 H706 0.931 . S
C688 C687 1.384 . S
C688 C691 1.382 1_655 S
C689 C687 1.384 . S
C689 C690 1.382 1_655 S
C689 H707 0.930 . S
C690 C689 1.382 1_455 S
C690 C692 1.379 . S
C690 C693 1.499 . S
C691 C688 1.382 1_455 S
C691 C692 1.387 . S
C691 H708 0.930 . S
C692 C690 1.379 . S
C692 C691 1.387 . S
C692 H709 0.931 . S
C693 C686 1.399 . S
C693 C690 1.499 . S
C693 N710 1.362 . S
H694 C666 0.931 . S
H695 C668 0.930 . S
H696 C670 0.930 . S
H697 C671 0.931 . S
H698 C673 0.931 . S
H699 C675 0.930 . S
H700 C677 0.930 . S
H701 C678 0.931 . S
H702 C680 0.931 . S
H703 C682 0.930 . S
H704 C684 0.930 . S
H705 C685 0.931 . S
H706 C687 0.931 . S
H707 C689 0.930 . S
H708 C691 0.930 . S
H709 C692 0.931 . S
N710 C672 1.316 . S
N710 C693 1.362 . S
N711 C679 1.362 . S
N711 C686 1.323 1_655 S
C712 C713 1.384 . S
C712 C714 1.384 . S
C712 H740 0.931 . S
C713 C712 1.384 . S
C713 C716 1.382 . S
C714 C712 1.384 . S
C714 C715 1.381 . S
C714 H741 0.930 . S
C715 C714 1.381 . S
C715 C717 1.381 . S
C715 C718 1.487 . S
C716 C713 1.382 . S
C716 C717 1.387 . S
C716 H742 0.930 . S
C717 C715 1.381 . S
C717 C716 1.387 . S
C717 H743 0.931 . S
C718 C715 1.487 . S
C718 C725 1.399 . S
C718 N756 1.343 . S
C719 C720 1.384 . S
C719 C721 1.384 . S
C719 H744 0.931 . S
C720 C719 1.384 . S
C720 C723 1.382 . S
C721 C719 1.384 . S
C721 C722 1.381 . S
C721 H745 0.930 . S
C722 C721 1.381 . S
C722 C724 1.381 . S
C722 C725 1.487 . S
C723 C720 1.382 . S
C723 C724 1.387 . S
C723 H746 0.930 . S
C724 C722 1.381 . S
C724 C723 1.387 . S
C724 H747 0.931 . S
C725 C718 1.399 . S
C725 C722 1.487 . S
C725 N757 1.343 . S
C726 C727 1.384 . S
C726 C728 1.384 . S
C726 H748 0.931 . S
C727 C726 1.384 . S
C727 C730 1.382 . S
C728 C726 1.384 . S
C728 C729 1.381 . S
C728 H749 0.930 . S
C729 C728 1.381 . S
C729 C731 1.381 . S
C729 C732 1.487 . S
C730 C727 1.382 . S
C730 C731 1.387 . S
C730 H750 0.930 . S
C731 C729 1.381 . S
C731 C730 1.387 . S
C731 H751 0.931 . S
C732 C729 1.487 . S
C732 C739 1.399 . S
C732 N757 1.343 . S
C733 C734 1.384 . S
C733 C735 1.384 . S
C733 H752 0.931 . S
C734 C733 1.384 . S
C734 C737 1.382 . S
C735 C733 1.384 . S
C735 C736 1.381 . S
C735 H753 0.930 . S
C736 C735 1.381 . S
C736 C738 1.381 . S
C736 C739 1.487 . S
C737 C734 1.382 . S
C737 C738 1.387 . S
C737 H754 0.930 . S
C738 C736 1.381 . S
C738 C737 1.387 . S
C738 H755 0.931 . S
C739 C732 1.399 . S
C739 C736 1.487 . S
C739 N756 1.343 . S
H740 C712 0.931 . S
H741 C714 0.930 . S
H742 C716 0.930 . S
H743 C717 0.931 . S
H744 C719 0.931 . S
H745 C721 0.930 . S
H746 C723 0.930 . S
H747 C724 0.931 . S
H748 C726 0.931 . S
H749 C728 0.930 . S
H750 C730 0.930 . S
H751 C731 0.931 . S
H752 C733 0.931 . S
H753 C735 0.930 . S
H754 C737 0.930 . S
H755 C738 0.931 . S
N756 C718 1.343 . S
N756 C739 1.343 . S
N757 C725 1.343 . S
N757 C732 1.343 . S
C758 C759 1.384 1_545 S
C758 C760 1.384 . S
C758 H786 0.931 . S
C759 C758 1.384 1_565 S
C759 C762 1.382 . S
C760 C758 1.384 . S
C760 C761 1.381 1_545 S
C760 H787 0.930 . S
C761 C760 1.381 1_565 S
C761 C763 1.381 . S
C761 C764 1.487 . S
C762 C759 1.382 . S
C762 C763 1.387 . S
C762 H788 0.930 . S
C763 C761 1.381 . S
C763 C762 1.387 . S
C763 H789 0.931 . S
C764 C761 1.487 . S
C764 C771 1.399 1_565 S
C764 N802 1.343 . S
C765 C766 1.384 1_565 S
C765 C767 1.384 . S
C765 H790 0.931 . S
C766 C765 1.384 1_545 S
C766 C769 1.382 . S
C767 C765 1.384 . S
C767 C768 1.381 1_565 S
C767 H791 0.930 . S
C768 C767 1.381 1_545 S
C768 C770 1.381 . S
C768 C771 1.487 . S
C769 C766 1.382 . S
C769 C770 1.387 . S
C769 H792 0.930 . S
C770 C768 1.381 . S
C770 C769 1.387 . S
C770 H793 0.931 . S
C771 C764 1.399 1_545 S
C771 C768 1.487 . S
C771 N803 1.343 . S
C772 C773 1.384 1_565 S
C772 C774 1.384 . S
C772 H794 0.931 . S
C773 C772 1.384 1_545 S
C773 C776 1.382 . S
C774 C772 1.384 . S
C774 C775 1.381 1_565 S
C774 H795 0.930 . S
C775 C774 1.381 1_545 S
C775 C777 1.381 . S
C775 C778 1.487 . S
C776 C773 1.382 . S
C776 C777 1.387 . S
C776 H796 0.930 . S
C777 C775 1.381 . S
C777 C776 1.387 . S
C777 H797 0.931 . S
C778 C775 1.487 . S
C778 C785 1.399 1_545 S
C778 N803 1.343 . S
C779 C780 1.384 1_545 S
C779 C781 1.384 . S
C779 H798 0.931 . S
C780 C779 1.384 1_565 S
C780 C783 1.382 . S
C781 C779 1.384 . S
C781 C782 1.381 1_545 S
C781 H799 0.930 . S
C782 C781 1.381 1_565 S
C782 C784 1.381 . S
C782 C785 1.487 . S
C783 C780 1.382 . S
C783 C784 1.387 . S
C783 H800 0.930 . S
C784 C782 1.381 . S
C784 C783 1.387 . S
C784 H801 0.931 . S
C785 C778 1.399 1_565 S
C785 C782 1.487 . S
C785 N802 1.343 . S
H786 C758 0.931 . S
H787 C760 0.930 . S
H788 C762 0.930 . S
H789 C763 0.931 . S
H790 C765 0.931 . S
H791 C767 0.930 . S
H792 C769 0.930 . S
H793 C770 0.931 . S
H794 C772 0.931 . S
H795 C774 0.930 . S
H796 C776 0.930 . S
H797 C777 0.931 . S
H798 C779 0.931 . S
H799 C781 0.930 . S
H800 C783 0.930 . S
H801 C784 0.931 . S
N802 C764 1.343 . S
N802 C785 1.343 . S
N803 C771 1.343 . S
N803 C778 1.343 . S
C804 C805 1.384 . S
C804 C806 1.384 . S
C804 H832 0.931 . S
C805 C804 1.384 . S
C805 C808 1.382 1_545 S
C806 C804 1.384 . S
C806 C807 1.381 . S
C806 H833 0.930 . S
C807 C806 1.381 . S
C807 C809 1.383 1_545 S
C807 C810 1.490 1_545 S
C808 C805 1.382 1_565 S
C808 C809 1.387 . S
C808 H834 0.930 . S
C809 C807 1.383 1_565 S
C809 C808 1.387 . S
C809 H835 0.931 . S
C810 C807 1.490 1_565 S
C810 C817 1.399 1_565 S
C810 N848 1.363 . S
C811 C812 1.384 . S
C811 C813 1.384 . S
C811 H836 0.931 . S
C812 C811 1.384 . S
C812 C815 1.382 1_565 S
C813 C811 1.384 . S
C813 C814 1.394 . S
C813 H837 0.930 . S
C814 C813 1.394 . S
C814 C816 1.375 1_565 S
C814 C817 1.476 1_565 S
C815 C812 1.382 1_545 S
C815 C816 1.387 . S
C815 H838 0.930 . S
C816 C814 1.375 1_545 S
C816 C815 1.387 . S
C816 H839 0.931 . S
C817 C810 1.399 1_545 S
C817 C814 1.476 1_545 S
C817 N849 1.314 . S
C818 C819 1.384 . S
C818 C820 1.384 . S
C818 H840 0.931 . S
C819 C818 1.384 . S
C819 C822 1.382 1_565 S
C820 C818 1.384 . S
C820 C821 1.381 1_565 S
C820 H841 0.930 . S
C821 C820 1.381 1_545 S
C821 C823 1.383 . S
C821 C824 1.498 . S
C822 C819 1.382 1_545 S
C822 C823 1.387 . S
C822 H842 0.930 . S
C823 C821 1.383 . S
C823 C822 1.387 . S
C823 H843 0.931 . S
C824 C821 1.498 . S
C824 C831 1.399 1_545 S
C824 N849 1.363 . S
C825 C826 1.384 . S
C825 C827 1.384 . S
C825 H844 0.931 . S
C826 C825 1.384 . S
C826 C829 1.382 1_545 S
C827 C825 1.384 . S
C827 C828 1.411 . S
C827 H845 0.930 . S
C828 C827 1.411 . S
C828 C830 1.366 1_545 S
C828 C831 1.476 1_545 S
C829 C826 1.382 1_565 S
C829 C830 1.387 . S
C829 H846 0.930 . S
C830 C828 1.366 1_565 S
C830 C829 1.387 . S
C830 H847 0.931 . S
C831 C824 1.399 1_565 S
C831 C828 1.476 1_565 S
C831 N848 1.314 . S
H832 C804 0.931 . S
H833 C806 0.930 . S
H834 C808 0.930 . S
H835 C809 0.931 . S
H836 C811 0.931 . S
H837 C813 0.930 . S
H838 C815 0.930 . S
H839 C816 0.931 . S
H840 C818 0.931 . S
H841 C820 0.930 . S
H842 C822 0.930 . S
H843 C823 0.931 . S
H844 C825 0.931 . S
H845 C827 0.930 . S
H846 C829 0.930 . S
H847 C830 0.931 . S
N848 C810 1.363 . S
N848 C831 1.314 . S
N849 C817 1.314 . S
N849 C824 1.363 . S
C850 C851 1.384 . S
C850 C852 1.384 . S
C850 H878 0.931 . S
C851 C850 1.384 . S
C851 C854 1.382 1_655 S
C852 C850 1.384 . S
C852 C853 1.413 . S
C852 H879 0.930 . S
C853 C852 1.413 . S
C853 C855 1.366 1_655 S
C853 C856 1.475 1_655 S
C854 C851 1.382 1_455 S
C854 C855 1.387 . S
C854 H880 0.930 . S
C855 C853 1.366 1_455 S
C855 C854 1.387 . S
C855 H881 0.931 . S
C856 C853 1.475 1_455 S
C856 C863 1.399 1_455 S
C856 N894 1.315 . S
C857 C858 1.384 . S
C857 C859 1.384 . S
C857 H882 0.931 . S
C858 C857 1.384 . S
C858 C861 1.382 1_455 S
C859 C857 1.384 . S
C859 C860 1.382 1_455 S
C859 H883 0.930 . S
C860 C859 1.382 1_655 S
C860 C862 1.380 . S
C860 C863 1.499 . S
C861 C858 1.382 1_655 S
C861 C862 1.387 . S
C861 H884 0.930 . S
C862 C860 1.380 . S
C862 C861 1.387 . S
C862 H885 0.931 . S
C863 C856 1.399 1_655 S
C863 C860 1.499 . S
C863 N895 1.363 . S
C864 C865 1.384 . S
C864 C866 1.384 . S
C864 H886 0.931 . S
C865 C864 1.384 . S
C865 C868 1.382 1_455 S
C866 C864 1.384 . S
C866 C867 1.396 . S
C866 H887 0.930 . S
C867 C866 1.396 . S
C867 C869 1.374 1_455 S
C867 C870 1.475 1_455 S
C868 C865 1.382 1_655 S
C868 C869 1.387 . S
C868 H888 0.930 . S
C869 C867 1.374 1_655 S
C869 C868 1.387 . S
C869 H889 0.931 . S
C870 C867 1.475 1_655 S
C870 C877 1.399 1_655 S
C870 N895 1.315 . S
C871 C872 1.384 . S
C871 C873 1.384 . S
C871 H890 0.931 . S
C872 C871 1.384 . S
C872 C875 1.382 1_655 S
C873 C871 1.384 . S
C873 C874 1.382 . S
C873 H891 0.930 . S
C874 C873 1.382 . S
C874 C876 1.380 1_655 S
C874 C877 1.491 1_655 S
C875 C872 1.382 1_455 S
C875 C876 1.387 . S
C875 H892 0.930 . S
C876 C874 1.380 1_455 S
C876 C875 1.387 . S
C876 H893 0.931 . S
C877 C870 1.399 1_455 S
C877 C874 1.491 1_455 S
C877 N894 1.363 . S
H878 C850 0.931 . S
H879 C852 0.930 . S
H880 C854 0.930 . S
H881 C855 0.931 . S
H882 C857 0.931 . S
H883 C859 0.930 . S
H884 C861 0.930 . S
H885 C862 0.931 . S
H886 C864 0.931 . S
H887 C866 0.930 . S
H888 C868 0.930 . S
H889 C869 0.931 . S
H890 C871 0.931 . S
H891 C873 0.930 . S
H892 C875 0.930 . S
H893 C876 0.931 . S
N894 C856 1.315 . S
N894 C877 1.363 . S
N895 C863 1.363 . S
N895 C870 1.315 . S
C896 C897 1.384 . S
C896 C898 1.384 . S
C896 H924 0.931 . S
C897 C896 1.384 . S
C897 C900 1.382 . S
C898 C896 1.384 . S
C898 C899 1.381 . S
C898 H925 0.930 . S
C899 C898 1.381 . S
C899 C901 1.381 . S
C899 C902 1.487 . S
C900 C897 1.382 . S
C900 C901 1.387 . S
C900 H926 0.930 . S
C901 C899 1.381 . S
C901 C900 1.387 . S
C901 H927 0.931 . S
C902 C899 1.487 . S
C902 C909 1.399 . S
C902 N940 1.343 . S
C903 C904 1.384 . S
C903 C905 1.384 . S
C903 H928 0.931 . S
C904 C903 1.384 . S
C904 C907 1.382 . S
C905 C903 1.384 . S
C905 C906 1.381 . S
C905 H929 0.930 . S
C906 C905 1.381 . S
C906 C908 1.381 . S
C906 C909 1.487 . S
C907 C904 1.382 . S
C907 C908 1.387 . S
C907 H930 0.930 . S
C908 C906 1.381 . S
C908 C907 1.387 . S
C908 H931 0.931 . S
C909 C902 1.399 . S
C909 C906 1.487 . S
C909 N941 1.343 . S
C910 C911 1.384 . S
C910 C912 1.384 . S
C910 H932 0.931 . S
C911 C910 1.384 . S
C911 C914 1.382 . S
C912 C910 1.384 . S
C912 C913 1.381 . S
C912 H933 0.930 . S
C913 C912 1.381 . S
C913 C915 1.381 . S
C913 C916 1.487 . S
C914 C911 1.382 . S
C914 C915 1.387 . S
C914 H934 0.930 . S
C915 C913 1.381 . S
C915 C914 1.387 . S
C915 H935 0.931 . S
C916 C913 1.487 . S
C916 C923 1.399 . S
C916 N941 1.343 . S
C917 C918 1.384 . S
C917 C919 1.384 . S
C917 H936 0.931 . S
C918 C917 1.384 . S
C918 C921 1.382 . S
C919 C917 1.384 . S
C919 C920 1.381 . S
C919 H937 0.930 . S
C920 C919 1.381 . S
C920 C922 1.381 . S
C920 C923 1.487 . S
C921 C918 1.382 . S
C921 C922 1.387 . S
C921 H938 0.930 . S
C922 C920 1.381 . S
C922 C921 1.387 . S
C922 H939 0.931 . S
C923 C916 1.399 . S
C923 C920 1.487 . S
C923 N940 1.343 . S
H924 C896 0.931 . S
H925 C898 0.930 . S
H926 C900 0.930 . S
H927 C901 0.931 . S
H928 C903 0.931 . S
H929 C905 0.930 . S
H930 C907 0.930 . S
H931 C908 0.931 . S
H932 C910 0.931 . S
H933 C912 0.930 . S
H934 C914 0.930 . S
H935 C915 0.931 . S
H936 C917 0.931 . S
H937 C919 0.930 . S
H938 C921 0.930 . S
H939 C922 0.931 . S
N940 C902 1.343 . S
N940 C923 1.343 . S
N941 C909 1.343 . S
N941 C916 1.343 . S
C942 C943 1.384 . S
C942 C944 1.384 . S
C942 H970 0.931 . S
C943 C942 1.384 . S
C943 C946 1.382 . S
C944 C942 1.384 . S
C944 C945 1.381 . S
C944 H971 0.930 . S
C945 C944 1.381 . S
C945 C947 1.381 . S
C945 C948 1.487 . S
C946 C943 1.382 . S
C946 C947 1.387 . S
C946 H972 0.930 . S
C947 C945 1.381 . S
C947 C946 1.387 . S
C947 H973 0.931 . S
C948 C945 1.487 . S
C948 C955 1.399 . S
C948 N986 1.343 . S
C949 C950 1.384 . S
C949 C951 1.384 . S
C949 H974 0.931 . S
C950 C949 1.384 . S
C950 C953 1.382 . S
C951 C949 1.384 . S
C951 C952 1.381 . S
C951 H975 0.930 . S
C952 C951 1.381 . S
C952 C954 1.381 . S
C952 C955 1.487 . S
C953 C950 1.382 . S
C953 C954 1.387 . S
C953 H976 0.930 . S
C954 C952 1.381 . S
C954 C953 1.387 . S
C954 H977 0.931 . S
C955 C948 1.399 . S
C955 C952 1.487 . S
C955 N987 1.343 . S
C956 C957 1.384 . S
C956 C958 1.384 . S
C956 H978 0.931 . S
C957 C956 1.384 . S
C957 C960 1.382 . S
C958 C956 1.384 . S
C958 C959 1.381 . S
C958 H979 0.930 . S
C959 C958 1.381 . S
C959 C961 1.381 . S
C959 C962 1.487 . S
C960 C957 1.382 . S
C960 C961 1.387 . S
C960 H980 0.930 . S
C961 C959 1.381 . S
C961 C960 1.387 . S
C961 H981 0.931 . S
C962 C959 1.487 . S
C962 C969 1.399 . S
C962 N987 1.343 . S
C963 C964 1.384 . S
C963 C965 1.384 . S
C963 H982 0.931 . S
C964 C963 1.384 . S
C964 C967 1.382 . S
C965 C963 1.384 . S
C965 C966 1.381 . S
C965 H983 0.930 . S
C966 C965 1.381 . S
C966 C968 1.381 . S
C966 C969 1.487 . S
C967 C964 1.382 . S
C967 C968 1.387 . S
C967 H984 0.930 . S
C968 C966 1.381 . S
C968 C967 1.387 . S
C968 H985 0.931 . S
C969 C962 1.399 . S
C969 C966 1.487 . S
C969 N986 1.343 . S
H970 C942 0.931 . S
H971 C944 0.930 . S
H972 C946 0.930 . S
H973 C947 0.931 . S
H974 C949 0.931 . S
H975 C951 0.930 . S
H976 C953 0.930 . S
H977 C954 0.931 . S
H978 C956 0.931 . S
H979 C958 0.930 . S
H980 C960 0.930 . S
H981 C961 0.931 . S
H982 C963 0.931 . S
H983 C965 0.930 . S
H984 C967 0.930 . S
H985 C968 0.931 . S
N986 C948 1.343 . S
N986 C969 1.343 . S
N987 C955 1.343 . S
N987 C962 1.343 . S
C988 C989 1.384 . S
C988 C990 1.384 . S
C988 H1016 0.931 . S
C989 C988 1.384 . S
C989 C992 1.382 . S
C990 C988 1.384 . S
C990 C991 1.381 . S
C990 H1017 0.930 . S
C991 C990 1.381 . S
C991 C993 1.381 . S
C991 C994 1.487 . S
C992 C989 1.382 . S
C992 C993 1.387 . S
C992 H1018 0.930 . S
C993 C991 1.381 . S
C993 C992 1.387 . S
C993 H1019 0.931 . S
C994 C991 1.487 . S
C994 C1001 1.399 . S
C994 N1032 1.343 . S
C995 C996 1.384 . S
C995 C997 1.384 . S
C995 H1020 0.931 . S
C996 C995 1.384 . S
C996 C999 1.382 . S
C997 C995 1.384 . S
C997 C998 1.381 . S
C997 H1021 0.930 . S
C998 C997 1.381 . S
C998 C1000 1.381 . S
C998 C1001 1.487 . S
C999 C996 1.382 . S
C999 C1000 1.387 . S
C999 H1022 0.930 . S
C1000 C998 1.381 . S
C1000 C999 1.387 . S
C1000 H1023 0.931 . S
C1001 C994 1.399 . S
C1001 C998 1.487 . S
C1001 N1033 1.343 . S
C1002 C1003 1.384 . S
C1002 C1004 1.384 . S
C1002 H1024 0.931 . S
C1003 C1002 1.384 . S
C1003 C1006 1.382 . S
C1004 C1002 1.384 . S
C1004 C1005 1.381 . S
C1004 H1025 0.930 . S
C1005 C1004 1.381 . S
C1005 C1007 1.381 . S
C1005 C1008 1.487 . S
C1006 C1003 1.382 . S
C1006 C1007 1.387 . S
C1006 H1026 0.930 . S
C1007 C1005 1.381 . S
C1007 C1006 1.387 . S
C1007 H1027 0.931 . S
C1008 C1005 1.487 . S
C1008 C1015 1.399 . S
C1008 N1033 1.343 . S
C1009 C1010 1.384 . S
C1009 C1011 1.384 . S
C1009 H1028 0.931 . S
C1010 C1009 1.384 . S
C1010 C1013 1.382 . S
C1011 C1009 1.384 . S
C1011 C1012 1.381 . S
C1011 H1029 0.930 . S
C1012 C1011 1.381 . S
C1012 C1014 1.381 . S
C1012 C1015 1.487 . S
C1013 C1010 1.382 . S
C1013 C1014 1.387 . S
C1013 H1030 0.930 . S
C1014 C1012 1.381 . S
C1014 C1013 1.387 . S
C1014 H1031 0.931 . S
C1015 C1008 1.399 . S
C1015 C1012 1.487 . S
C1015 N1032 1.343 . S
H1016 C988 0.931 . S
H1017 C990 0.930 . S
H1018 C992 0.930 . S
H1019 C993 0.931 . S
H1020 C995 0.931 . S
H1021 C997 0.930 . S
H1022 C999 0.930 . S
H1023 C1000 0.931 . S
H1024 C1002 0.931 . S
H1025 C1004 0.930 . S
H1026 C1006 0.930 . S
H1027 C1007 0.931 . S
H1028 C1009 0.931 . S
H1029 C1011 0.930 . S
H1030 C1013 0.930 . S
H1031 C1014 0.931 . S
N1032 C994 1.343 . S
N1032 C1015 1.343 . S
N1033 C1001 1.343 . S
N1033 C1008 1.343 . S
C1034 C1035 1.384 . S
C1034 C1036 1.384 . S
C1034 H1062 0.931 . S
C1035 C1034 1.384 . S
C1035 C1038 1.382 . S
C1036 C1034 1.384 . S
C1036 C1037 1.381 . S
C1036 H1063 0.930 . S
C1037 C1036 1.381 . S
C1037 C1039 1.381 . S
C1037 C1040 1.487 . S
C1038 C1035 1.382 . S
C1038 C1039 1.387 . S
C1038 H1064 0.930 . S
C1039 C1037 1.381 . S
C1039 C1038 1.387 . S
C1039 H1065 0.931 . S
C1040 C1037 1.487 . S
C1040 C1047 1.399 . S
C1040 N1078 1.343 . S
C1041 C1042 1.384 . S
C1041 C1043 1.384 . S
C1041 H1066 0.931 . S
C1042 C1041 1.384 . S
C1042 C1045 1.382 . S
C1043 C1041 1.384 . S
C1043 C1044 1.381 . S
C1043 H1067 0.930 . S
C1044 C1043 1.381 . S
C1044 C1046 1.381 . S
C1044 C1047 1.487 . S
C1045 C1042 1.382 . S
C1045 C1046 1.387 . S
C1045 H1068 0.930 . S
C1046 C1044 1.381 . S
C1046 C1045 1.387 . S
C1046 H1069 0.931 . S
C1047 C1040 1.399 . S
C1047 C1044 1.487 . S
C1047 N1079 1.343 . S
C1048 C1049 1.384 . S
C1048 C1050 1.384 . S
C1048 H1070 0.931 . S
C1049 C1048 1.384 . S
C1049 C1052 1.382 . S
C1050 C1048 1.384 . S
C1050 C1051 1.381 . S
C1050 H1071 0.930 . S
C1051 C1050 1.381 . S
C1051 C1053 1.381 . S
C1051 C1054 1.487 . S
C1052 C1049 1.382 . S
C1052 C1053 1.387 . S
C1052 H1072 0.930 . S
C1053 C1051 1.381 . S
C1053 C1052 1.387 . S
C1053 H1073 0.931 . S
C1054 C1051 1.487 . S
C1054 C1061 1.399 . S
C1054 N1079 1.343 . S
C1055 C1056 1.384 . S
C1055 C1057 1.384 . S
C1055 H1074 0.931 . S
C1056 C1055 1.384 . S
C1056 C1059 1.382 . S
C1057 C1055 1.384 . S
C1057 C1058 1.381 . S
C1057 H1075 0.930 . S
C1058 C1057 1.381 . S
C1058 C1060 1.381 . S
C1058 C1061 1.487 . S
C1059 C1056 1.382 . S
C1059 C1060 1.387 . S
C1059 H1076 0.930 . S
C1060 C1058 1.381 . S
C1060 C1059 1.387 . S
C1060 H1077 0.931 . S
C1061 C1054 1.399 . S
C1061 C1058 1.487 . S
C1061 N1078 1.343 . S
H1062 C1034 0.931 . S
H1063 C1036 0.930 . S
H1064 C1038 0.930 . S
H1065 C1039 0.931 . S
H1066 C1041 0.931 . S
H1067 C1043 0.930 . S
H1068 C1045 0.930 . S
H1069 C1046 0.931 . S
H1070 C1048 0.931 . S
H1071 C1050 0.930 . S
H1072 C1052 0.930 . S
H1073 C1053 0.931 . S
H1074 C1055 0.931 . S
H1075 C1057 0.930 . S
H1076 C1059 0.930 . S
H1077 C1060 0.931 . S
N1078 C1040 1.343 . S
N1078 C1061 1.343 . S
N1079 C1047 1.343 . S
N1079 C1054 1.343 . S
H1080 C1088 0.950 . S
H1081 C1093 0.950 . S
H1082 C1090 0.950 . S
H1083 C1092 0.950 . S
H1084 C1094 0.950 . S
H1085 C1096 0.950 . S
H1086 C1098 0.950 . S
H1087 C1099 0.950 . S
C1088 H1080 0.950 . S
C1088 C1089 1.386 1_455 S
C1088 C1090 1.391 . S
C1089 C1088 1.386 1_655 S
C1089 C1093 1.393 . S
C1090 H1082 0.950 . S
C1090 C1088 1.391 . S
C1090 C1091 1.400 1_455 S
C1091 C1090 1.400 1_655 S
C1091 C1092 1.398 . S
C1091 C1097 1.491 . S
C1092 H1083 0.950 . S
C1092 C1091 1.398 . S
C1092 C1093 1.391 . S
C1093 H1081 0.950 . S
C1093 C1089 1.393 . S
C1093 C1092 1.391 . S
C1094 H1084 0.950 . S
C1094 C1095 1.386 . S
C1094 C1096 1.391 . S
C1095 C1094 1.386 . S
C1095 C1099 1.393 1_655 S
C1096 H1085 0.950 . S
C1096 C1094 1.391 . S
C1096 C1097 1.400 . S
C1097 C1091 1.491 . S
C1097 C1096 1.400 . S
C1097 C1098 1.398 1_655 S
C1098 H1086 0.950 . S
C1098 C1097 1.398 1_455 S
C1098 C1099 1.391 . S
C1099 H1087 0.950 . S
C1099 C1095 1.393 1_455 S
C1099 C1098 1.391 . S
H1100 C1108 0.950 . S
H1101 C1113 0.950 . S
H1102 C1110 0.950 . S
H1103 C1112 0.950 . S
H1104 C1114 0.950 . S
H1105 C1116 0.950 . S
H1106 C1118 0.950 . S
H1107 C1119 0.950 . S
C1108 H1100 0.950 . S
C1108 C1109 1.386 . S
C1108 C1110 1.391 . S
C1109 C1108 1.386 . S
C1109 C1113 1.393 . S
C1110 H1102 0.950 . S
C1110 C1108 1.391 . S
C1110 C1111 1.400 . S
C1111 C1110 1.400 . S
C1111 C1112 1.398 . S
C1111 C1117 1.491 . S
C1112 H1103 0.950 . S
C1112 C1111 1.398 . S
C1112 C1113 1.391 . S
C1113 H1101 0.950 . S
C1113 C1109 1.393 . S
C1113 C1112 1.391 . S
C1114 H1104 0.950 . S
C1114 C1115 1.386 . S
C1114 C1116 1.391 . S
C1115 C1114 1.386 . S
C1115 C1119 1.393 . S
C1116 H1105 0.950 . S
C1116 C1114 1.391 . S
C1116 C1117 1.400 . S
C1117 C1111 1.491 . S
C1117 C1116 1.400 . S
C1117 C1118 1.398 . S
C1118 H1106 0.950 . S
C1118 C1117 1.398 . S
C1118 C1119 1.391 . S
C1119 H1107 0.950 . S
C1119 C1115 1.393 . S
C1119 C1118 1.391 . S
H1120 C1128 0.950 . S
H1121 C1133 0.950 . S
H1122 C1130 0.950 . S
H1123 C1132 0.950 . S
H1124 C1134 0.950 . S
H1125 C1136 0.950 . S
H1126 C1138 0.950 . S
H1127 C1139 0.950 . S
C1128 H1120 0.950 . S
C1128 C1129 1.386 . S
C1128 C1130 1.391 . S
C1129 C1128 1.386 . S
C1129 C1133 1.393 1_545 S
C1130 H1122 0.950 . S
C1130 C1128 1.391 . S
C1130 C1131 1.400 . S
C1131 C1130 1.400 . S
C1131 C1132 1.398 1_545 S
C1131 C1137 1.491 . S
C1132 H1123 0.950 . S
C1132 C1131 1.398 1_565 S
C1132 C1133 1.391 . S
C1133 H1121 0.950 . S
C1133 C1129 1.393 1_565 S
C1133 C1132 1.391 . S
C1134 H1124 0.950 . S
C1134 C1135 1.386 1_565 S
C1134 C1136 1.391 . S
C1135 C1134 1.386 1_545 S
C1135 C1139 1.393 . S
C1136 H1125 0.950 . S
C1136 C1134 1.391 . S
C1136 C1137 1.400 1_565 S
C1137 C1131 1.491 . S
C1137 C1136 1.400 1_545 S
C1137 C1138 1.398 . S
C1138 H1126 0.950 . S
C1138 C1137 1.398 . S
C1138 C1139 1.391 . S
C1139 H1127 0.950 . S
C1139 C1135 1.393 . S
C1139 C1138 1.391 . S
H1140 C1148 0.950 . S
H1141 C1153 0.950 . S
H1142 C1150 0.950 . S
H1143 C1152 0.950 . S
H1144 C1154 0.950 . S
H1145 C1156 0.950 . S
H1146 C1158 0.950 . S
H1147 C1159 0.950 . S
C1148 H1140 0.950 . S
C1148 C1149 1.346 1_545 S
C1148 C1150 1.391 . S
C1149 C1148 1.346 1_565 S
C1149 C1153 1.462 . S
C1150 H1142 0.950 . S
C1150 C1148 1.391 . S
C1150 C1151 1.400 1_545 S
C1151 C1150 1.400 1_565 S
C1151 C1152 1.398 . S
C1151 C1157 1.491 . S
C1152 H1143 0.950 . S
C1152 C1151 1.398 . S
C1152 C1153 1.391 . S
C1153 H1141 0.950 . S
C1153 C1149 1.462 . S
C1153 C1152 1.391 . S
C1154 H1144 0.950 . S
C1154 C1155 1.386 . S
C1154 C1156 1.391 . S
C1155 C1154 1.386 . S
C1155 C1159 1.393 1_565 S
C1156 H1145 0.950 . S
C1156 C1154 1.391 . S
C1156 C1157 1.400 . S
C1157 C1151 1.491 . S
C1157 C1156 1.400 . S
C1157 C1158 1.398 1_565 S
C1158 H1146 0.950 . S
C1158 C1157 1.398 1_545 S
C1158 C1159 1.391 . S
C1159 H1147 0.950 . S
C1159 C1155 1.393 1_545 S
C1159 C1158 1.391 . S
H1160 C1168 0.950 . S
H1161 C1173 0.950 . S
H1162 C1170 0.950 . S
H1163 C1172 0.950 . S
H1164 C1174 0.950 . S
H1165 C1176 0.950 . S
H1166 C1178 0.950 . S
H1167 C1179 0.950 . S
C1168 H1160 0.950 . S
C1168 C1169 1.386 . S
C1168 C1170 1.391 . S
C1169 C1168 1.386 . S
C1169 C1173 1.393 1_455 S
C1170 H1162 0.950 . S
C1170 C1168 1.391 . S
C1170 C1171 1.400 . S
C1171 C1170 1.400 . S
C1171 C1172 1.398 1_455 S
C1171 C1177 1.491 . S
C1172 H1163 0.950 . S
C1172 C1171 1.398 1_655 S
C1172 C1173 1.391 . S
C1173 H1161 0.950 . S
C1173 C1169 1.393 1_655 S
C1173 C1172 1.391 . S
C1174 H1164 0.950 . S
C1174 C1175 1.386 1_655 S
C1174 C1176 1.391 . S
C1175 C1174 1.386 1_455 S
C1175 C1179 1.393 . S
C1176 H1165 0.950 . S
C1176 C1174 1.391 . S
C1176 C1177 1.400 1_655 S
C1177 C1171 1.491 . S
C1177 C1176 1.400 1_455 S
C1177 C1178 1.398 . S
C1178 H1166 0.950 . S
C1178 C1177 1.398 . S
C1178 C1179 1.391 . S
C1179 H1167 0.950 . S
C1179 C1175 1.393 . S
C1179 C1178 1.391 . S
H1180 C1188 0.950 . S
H1181 C1193 0.950 . S
H1182 C1190 0.950 . S
H1183 C1192 0.950 . S
H1184 C1194 0.950 . S
H1185 C1196 0.950 . S
H1186 C1198 0.950 . S
H1187 C1199 0.950 . S
C1188 H1180 0.950 . S
C1188 C1189 1.386 . S
C1188 C1190 1.391 . S
C1189 C1188 1.386 . S
C1189 C1193 1.393 . S
C1190 H1182 0.950 . S
C1190 C1188 1.391 . S
C1190 C1191 1.400 . S
C1191 C1190 1.400 . S
C1191 C1192 1.398 . S
C1191 C1197 1.491 . S
C1192 H1183 0.950 . S
C1192 C1191 1.398 . S
C1192 C1193 1.391 . S
C1193 H1181 0.950 . S
C1193 C1189 1.393 . S
C1193 C1192 1.391 . S
C1194 H1184 0.950 . S
C1194 C1195 1.386 . S
C1194 C1196 1.391 . S
C1195 C1194 1.386 . S
C1195 C1199 1.393 . S
C1196 H1185 0.950 . S
C1196 C1194 1.391 . S
C1196 C1197 1.400 . S
C1197 C1191 1.491 . S
C1197 C1196 1.400 . S
C1197 C1198 1.398 . S
C1198 H1186 0.950 . S
C1198 C1197 1.398 . S
C1198 C1199 1.391 . S
C1199 H1187 0.950 . S
C1199 C1195 1.393 . S
C1199 C1198 1.391 . S
H1200 C1208 0.950 . S
H1201 C1213 0.950 . S
H1202 C1210 0.950 . S
H1203 C1212 0.950 . S
H1204 C1214 0.950 . S
H1205 C1216 0.950 . S
H1206 C1218 0.950 . S
H1207 C1219 0.950 . S
C1208 H1200 0.950 . S
C1208 C1209 1.386 1_655 S
C1208 C1210 1.391 . S
C1209 C1208 1.386 1_455 S
C1209 C1213 1.393 . S
C1210 H1202 0.950 . S
C1210 C1208 1.391 . S
C1210 C1211 1.400 1_655 S
C1211 C1210 1.400 1_455 S
C1211 C1212 1.398 . S
C1211 C1217 1.491 . S
C1212 H1203 0.950 . S
C1212 C1211 1.398 . S
C1212 C1213 1.391 . S
C1213 H1201 0.950 . S
C1213 C1209 1.393 . S
C1213 C1212 1.391 . S
C1214 H1204 0.950 . S
C1214 C1215 1.386 . S
C1214 C1216 1.391 . S
C1215 C1214 1.386 . S
C1215 C1219 1.393 1_455 S
C1216 H1205 0.950 . S
C1216 C1214 1.391 . S
C1216 C1217 1.400 . S
C1217 C1211 1.491 . S
C1217 C1216 1.400 . S
C1217 C1218 1.398 1_455 S
C1218 H1206 0.950 . S
C1218 C1217 1.398 1_655 S
C1218 C1219 1.391 . S
C1219 H1207 0.950 . S
C1219 C1215 1.393 1_655 S
C1219 C1218 1.391 . S
H1220 C1228 0.950 . S
H1221 C1233 0.950 . S
H1222 C1230 0.950 . S
H1223 C1232 0.950 . S
H1224 C1234 0.950 . S
H1225 C1236 0.950 . S
H1226 C1238 0.950 . S
H1227 C1239 0.950 . S
C1228 H1220 0.950 . S
C1228 C1229 1.386 . S
C1228 C1230 1.391 . S
C1229 C1228 1.386 . S
C1229 C1233 1.393 . S
C1230 H1222 0.950 . S
C1230 C1228 1.391 . S
C1230 C1231 1.400 . S
C1231 C1230 1.400 . S
C1231 C1232 1.398 . S
C1231 C1237 1.491 . S
C1232 H1223 0.950 . S
C1232 C1231 1.398 . S
C1232 C1233 1.391 . S
C1233 H1221 0.950 . S
C1233 C1229 1.393 . S
C1233 C1232 1.391 . S
C1234 H1224 0.950 . S
C1234 C1235 1.386 . S
C1234 C1236 1.391 . S
C1235 C1234 1.386 . S
C1235 C1239 1.393 . S
C1236 H1225 0.950 . S
C1236 C1234 1.391 . S
C1236 C1237 1.400 . S
C1237 C1231 1.491 . S
C1237 C1236 1.400 . S
C1237 C1238 1.398 . S
C1238 H1226 0.950 . S
C1238 C1237 1.398 . S
C1238 C1239 1.391 . S
C1239 H1227 0.950 . S
C1239 C1235 1.393 . S
C1239 C1238 1.391 . S
H1240 C1248 0.950 . S
H1241 C1253 0.950 . S
H1242 C1250 0.950 . S
H1243 C1252 0.950 . S
H1244 C1254 0.950 . S
H1245 C1256 0.950 . S
H1246 C1258 0.950 . S
H1247 C1259 0.950 . S
C1248 H1240 0.950 . S
C1248 C1249 1.386 1_545 S
C1248 C1250 1.391 . S
C1249 C1248 1.386 1_565 S
C1249 C1253 1.393 . S
C1250 H1242 0.950 . S
C1250 C1248 1.391 . S
C1250 C1251 1.400 1_545 S
C1251 C1250 1.400 1_565 S
C1251 C1252 1.398 . S
C1251 C1257 1.491 . S
C1252 H1243 0.950 . S
C1252 C1251 1.398 . S
C1252 C1253 1.391 . S
C1253 H1241 0.950 . S
C1253 C1249 1.393 . S
C1253 C1252 1.391 . S
C1254 H1244 0.950 . S
C1254 C1255 1.386 . S
C1254 C1256 1.391 . S
C1255 C1254 1.386 . S
C1255 C1259 1.393 1_565 S
C1256 H1245 0.950 . S
C1256 C1254 1.391 . S
C1256 C1257 1.400 . S
C1257 C1251 1.491 . S
C1257 C1256 1.400 . S
C1257 C1258 1.398 1_565 S
C1258 H1246 0.950 . S
C1258 C1257 1.398 1_545 S
C1258 C1259 1.391 . S
C1259 H1247 0.950 . S
C1259 C1255 1.393 1_545 S
C1259 C1258 1.391 . S
H1260 C1268 0.950 . S
H1261 C1273 0.950 . S
H1262 C1270 0.950 . S
H1263 C1272 0.950 . S
H1264 C1274 0.950 . S
H1265 C1276 0.950 . S
H1266 C1278 0.950 . S
H1267 C1279 0.950 . S
C1268 H1260 0.950 . S
C1268 C1269 1.386 1_565 S
C1268 C1270 1.391 . S
C1269 C1268 1.386 1_545 S
C1269 C1273 1.393 . S
C1270 H1262 0.950 . S
C1270 C1268 1.391 . S
C1270 C1271 1.400 1_565 S
C1271 C1270 1.400 1_545 S
C1271 C1272 1.398 . S
C1271 C1277 1.491 . S
C1272 H1263 0.950 . S
C1272 C1271 1.398 . S
C1272 C1273 1.391 . S
C1273 H1261 0.950 . S
C1273 C1269 1.393 . S
C1273 C1272 1.391 . S
C1274 H1264 0.950 . S
C1274 C1275 1.386 . S
C1274 C1276 1.391 . S
C1275 C1274 1.386 . S
C1275 C1279 1.393 1_545 S
C1276 H1265 0.950 . S
C1276 C1274 1.391 . S
C1276 C1277 1.400 . S
C1277 C1271 1.491 . S
C1277 C1276 1.400 . S
C1277 C1278 1.398 1_545 S
C1278 H1266 0.950 . S
C1278 C1277 1.398 1_565 S
C1278 C1279 1.391 . S
C1279 H1267 0.950 . S
C1279 C1275 1.393 1_565 S
C1279 C1278 1.391 . S
H1280 C1288 0.950 . S
H1281 C1293 0.950 . S
H1282 C1290 0.950 . S
H1283 C1292 0.950 . S
H1284 C1294 0.950 . S
H1285 C1296 0.950 . S
H1286 C1298 0.950 . S
H1287 C1299 0.950 . S
C1288 H1280 0.950 . S
C1288 C1289 1.386 1_455 S
C1288 C1290 1.391 . S
C1289 C1288 1.386 1_655 S
C1289 C1293 1.393 . S
C1290 H1282 0.950 . S
C1290 C1288 1.391 . S
C1290 C1291 1.400 1_455 S
C1291 C1290 1.400 1_655 S
C1291 C1292 1.398 . S
C1291 C1297 1.491 . S
C1292 H1283 0.950 . S
C1292 C1291 1.398 . S
C1292 C1293 1.391 . S
C1293 H1281 0.950 . S
C1293 C1289 1.393 . S
C1293 C1292 1.391 . S
C1294 H1284 0.950 . S
C1294 C1295 1.386 . S
C1294 C1296 1.391 . S
C1295 C1294 1.386 . S
C1295 C1299 1.393 1_655 S
C1296 H1285 0.950 . S
C1296 C1294 1.391 . S
C1296 C1297 1.400 . S
C1297 C1291 1.491 . S
C1297 C1296 1.400 . S
C1297 C1298 1.398 1_655 S
C1298 H1286 0.950 . S
C1298 C1297 1.398 1_455 S
C1298 C1299 1.391 . S
C1299 H1287 0.950 . S
C1299 C1295 1.393 1_455 S
C1299 C1298 1.391 . S
H1300 C1308 0.950 . S
H1301 C1313 0.950 . S
H1302 C1310 0.950 . S
H1303 C1312 0.950 . S
H1304 C1314 0.950 . S
H1305 C1316 0.950 . S
H1306 C1318 0.950 . S
H1307 C1319 0.950 . S
C1308 H1300 0.950 . S
C1308 C1309 1.386 . S
C1308 C1310 1.391 . S
C1309 C1308 1.386 . S
C1309 C1313 1.393 . S
C1310 H1302 0.950 . S
C1310 C1308 1.391 . S
C1310 C1311 1.400 . S
C1311 C1310 1.400 . S
C1311 C1312 1.398 . S
C1311 C1317 1.491 . S
C1312 H1303 0.950 . S
C1312 C1311 1.398 . S
C1312 C1313 1.391 . S
C1313 H1301 0.950 . S
C1313 C1309 1.393 . S
C1313 C1312 1.391 . S
C1314 H1304 0.950 . S
C1314 C1315 1.386 . S
C1314 C1316 1.391 . S
C1315 C1314 1.386 . S
C1315 C1319 1.393 . S
C1316 H1305 0.950 . S
C1316 C1314 1.391 . S
C1316 C1317 1.400 . S
C1317 C1311 1.491 . S
C1317 C1316 1.400 . S
C1317 C1318 1.398 . S
C1318 H1306 0.950 . S
C1318 C1317 1.398 . S
C1318 C1319 1.391 . S
C1319 H1307 0.950 . S
C1319 C1315 1.393 . S
C1319 C1318 1.391 . S
H1320 C1328 0.950 . S
H1321 C1333 0.950 . S
H1322 C1330 0.950 . S
H1323 C1332 0.950 . S
H1324 C1334 0.950 . S
H1325 C1336 0.950 . S
H1326 C1338 0.950 . S
H1327 C1339 0.950 . S
C1328 H1320 0.950 . S
C1328 C1329 1.386 . S
C1328 C1330 1.391 . S
C1329 C1328 1.386 . S
C1329 C1333 1.393 . S
C1330 H1322 0.950 . S
C1330 C1328 1.391 . S
C1330 C1331 1.400 . S
C1331 C1330 1.400 . S
C1331 C1332 1.398 . S
C1331 C1337 1.491 . S
C1332 H1323 0.950 . S
C1332 C1331 1.398 . S
C1332 C1333 1.391 . S
C1333 H1321 0.950 . S
C1333 C1329 1.393 . S
C1333 C1332 1.391 . S
C1334 H1324 0.950 . S
C1334 C1335 1.386 . S
C1334 C1336 1.391 . S
C1335 C1334 1.386 . S
C1335 C1339 1.393 . S
C1336 H1325 0.950 . S
C1336 C1334 1.391 . S
C1336 C1337 1.400 . S
C1337 C1331 1.491 . S
C1337 C1336 1.400 . S
C1337 C1338 1.398 . S
C1338 H1326 0.950 . S
C1338 C1337 1.398 . S
C1338 C1339 1.391 . S
C1339 H1327 0.950 . S
C1339 C1335 1.393 . S
C1339 C1338 1.391 . S
H1340 C1348 0.950 . S
H1341 C1353 0.950 . S
H1342 C1350 0.950 . S
H1343 C1352 0.950 . S
H1344 C1354 0.950 . S
H1345 C1356 0.950 . S
H1346 C1358 0.950 . S
H1347 C1359 0.950 . S
C1348 H1340 0.950 . S
C1348 C1349 1.386 . S
C1348 C1350 1.391 . S
C1349 C1348 1.386 . S
C1349 C1353 1.393 . S
C1350 H1342 0.950 . S
C1350 C1348 1.391 . S
C1350 C1351 1.400 . S
C1351 C1350 1.400 . S
C1351 C1352 1.398 . S
C1351 C1357 1.491 . S
C1352 H1343 0.950 . S
C1352 C1351 1.398 . S
C1352 C1353 1.391 . S
C1353 H1341 0.950 . S
C1353 C1349 1.393 . S
C1353 C1352 1.391 . S
C1354 H1344 0.950 . S
C1354 C1355 1.386 . S
C1354 C1356 1.391 . S
C1355 C1354 1.386 . S
C1355 C1359 1.393 . S
C1356 H1345 0.950 . S
C1356 C1354 1.391 . S
C1356 C1357 1.400 . S
C1357 C1351 1.491 . S
C1357 C1356 1.400 . S
C1357 C1358 1.398 . S
C1358 H1346 0.950 . S
C1358 C1357 1.398 . S
C1358 C1359 1.391 . S
C1359 H1347 0.950 . S
C1359 C1355 1.393 . S
C1359 C1358 1.391 . S
H1360 C1368 0.950 . S
H1361 C1373 0.950 . S
H1362 C1370 0.950 . S
H1363 C1372 0.950 . S
H1364 C1374 0.950 . S
H1365 C1376 0.950 . S
H1366 C1378 0.950 . S
H1367 C1379 0.950 . S
C1368 H1360 0.950 . S
C1368 C1369 1.386 . S
C1368 C1370 1.391 . S
C1369 C1368 1.386 . S
C1369 C1373 1.393 . S
C1370 H1362 0.950 . S
C1370 C1368 1.391 . S
C1370 C1371 1.400 . S
C1371 C1370 1.400 . S
C1371 C1372 1.398 . S
C1371 C1377 1.491 . S
C1372 H1363 0.950 . S
C1372 C1371 1.398 . S
C1372 C1373 1.391 . S
C1373 H1361 0.950 . S
C1373 C1369 1.393 . S
C1373 C1372 1.391 . S
C1374 H1364 0.950 . S
C1374 C1375 1.386 . S
C1374 C1376 1.391 . S
C1375 C1374 1.386 . S
C1375 C1379 1.393 . S
C1376 H1365 0.950 . S
C1376 C1374 1.391 . S
C1376 C1377 1.400 . S
C1377 C1371 1.491 . S
C1377 C1376 1.400 . S
C1377 C1378 1.398 . S
C1378 H1366 0.950 . S
C1378 C1377 1.398 . S
C1378 C1379 1.391 . S
C1379 H1367 0.950 . S
C1379 C1375 1.393 . S
C1379 C1378 1.391 . S
H1380 C1388 0.950 . S
H1381 C1393 0.950 . S
H1382 C1390 0.950 . S
H1383 C1392 0.950 . S
H1384 C1394 0.950 . S
H1385 C1396 0.950 . S
H1386 C1398 0.950 . S
H1387 C1399 0.950 . S
C1388 H1380 0.950 . S
C1388 C1389 1.386 . S
C1388 C1390 1.391 . S
C1389 C1388 1.386 . S
C1389 C1393 1.393 . S
C1390 H1382 0.950 . S
C1390 C1388 1.391 . S
C1390 C1391 1.400 . S
C1391 C1390 1.400 . S
C1391 C1392 1.398 . S
C1391 C1397 1.491 . S
C1392 H1383 0.950 . S
C1392 C1391 1.398 . S
C1392 C1393 1.391 . S
C1393 H1381 0.950 . S
C1393 C1389 1.393 . S
C1393 C1392 1.391 . S
C1394 H1384 0.950 . S
C1394 C1395 1.386 . S
C1394 C1396 1.391 . S
C1395 C1394 1.386 . S
C1395 C1399 1.393 . S
C1396 H1385 0.950 . S
C1396 C1394 1.391 . S
C1396 C1397 1.400 . S
C1397 C1391 1.491 . S
C1397 C1396 1.400 . S
C1397 C1398 1.398 . S
C1398 H1386 0.950 . S
C1398 C1397 1.398 . S
C1398 C1399 1.391 . S
C1399 H1387 0.950 . S
C1399 C1395 1.393 . S
C1399 C1398 1.391 . S
H1400 C1408 0.950 . S
H1401 C1413 0.950 . S
H1402 C1410 0.950 . S
H1403 C1412 0.950 . S
H1404 C1414 0.950 . S
H1405 C1416 0.950 . S
H1406 C1418 0.950 . S
H1407 C1419 0.950 . S
C1408 H1400 0.950 . S
C1408 C1409 1.386 . S
C1408 C1410 1.391 . S
C1409 C1408 1.386 . S
C1409 C1413 1.393 . S
C1410 H1402 0.950 . S
C1410 C1408 1.391 . S
C1410 C1411 1.400 . S
C1411 C1410 1.400 . S
C1411 C1412 1.398 . S
C1411 C1417 1.491 . S
C1412 H1403 0.950 . S
C1412 C1411 1.398 . S
C1412 C1413 1.391 . S
C1413 H1401 0.950 . S
C1413 C1409 1.393 . S
C1413 C1412 1.391 . S
C1414 H1404 0.950 . S
C1414 C1415 1.386 . S
C1414 C1416 1.391 . S
C1415 C1414 1.386 . S
C1415 C1419 1.393 . S
C1416 H1405 0.950 . S
C1416 C1414 1.391 . S
C1416 C1417 1.400 . S
C1417 C1411 1.491 . S
C1417 C1416 1.400 . S
C1417 C1418 1.398 . S
C1418 H1406 0.950 . S
C1418 C1417 1.398 . S
C1418 C1419 1.391 . S
C1419 H1407 0.950 . S
C1419 C1415 1.393 . S
C1419 C1418 1.391 . S
H1420 C1428 0.950 . S
H1421 C1433 0.950 . S
H1422 C1430 0.950 . S
H1423 C1432 0.950 . S
H1424 C1434 0.950 . S
H1425 C1436 0.950 . S
H1426 C1438 0.950 . S
H1427 C1439 0.950 . S
C1428 H1420 0.950 . S
C1428 C1429 1.386 . S
C1428 C1430 1.391 . S
C1429 C1428 1.386 . S
C1429 C1433 1.393 . S
C1430 H1422 0.950 . S
C1430 C1428 1.391 . S
C1430 C1431 1.400 . S
C1431 C1430 1.400 . S
C1431 C1432 1.398 . S
C1431 C1437 1.491 . S
C1432 H1423 0.950 . S
C1432 C1431 1.398 . S
C1432 C1433 1.391 . S
C1433 H1421 0.950 . S
C1433 C1429 1.393 . S
C1433 C1432 1.391 . S
C1434 H1424 0.950 . S
C1434 C1435 1.386 . S
C1434 C1436 1.391 . S
C1435 C1434 1.386 . S
C1435 C1439 1.393 . S
C1436 H1425 0.950 . S
C1436 C1434 1.391 . S
C1436 C1437 1.400 . S
C1437 C1431 1.491 . S
C1437 C1436 1.400 . S
C1437 C1438 1.398 . S
C1438 H1426 0.950 . S
C1438 C1437 1.398 . S
C1438 C1439 1.391 . S
C1439 H1427 0.950 . S
C1439 C1435 1.393 . S
C1439 C1438 1.391 . S
H1440 C1448 0.950 . S
H1441 C1453 0.950 . S
H1442 C1450 0.950 . S
H1443 C1452 0.950 . S
H1444 C1454 0.950 . S
H1445 C1456 0.950 . S
H1446 C1458 0.950 . S
H1447 C1459 0.950 . S
C1448 H1440 0.950 . S
C1448 C1449 1.386 . S
C1448 C1450 1.391 . S
C1449 C1448 1.386 . S
C1449 C1453 1.393 . S
C1450 H1442 0.950 . S
C1450 C1448 1.391 . S
C1450 C1451 1.400 . S
C1451 C1450 1.400 . S
C1451 C1452 1.398 . S
C1451 C1457 1.491 . S
C1452 H1443 0.950 . S
C1452 C1451 1.398 . S
C1452 C1453 1.391 . S
C1453 H1441 0.950 . S
C1453 C1449 1.393 . S
C1453 C1452 1.391 . S
C1454 H1444 0.950 . S
C1454 C1455 1.386 . S
C1454 C1456 1.391 . S
C1455 C1454 1.386 . S
C1455 C1459 1.393 . S
C1456 H1445 0.950 . S
C1456 C1454 1.391 . S
C1456 C1457 1.400 . S
C1457 C1451 1.491 . S
C1457 C1456 1.400 . S
C1457 C1458 1.398 . S
C1458 H1446 0.950 . S
C1458 C1457 1.398 . S
C1458 C1459 1.391 . S
C1459 H1447 0.950 . S
C1459 C1455 1.393 . S
C1459 C1458 1.391 . S
H1460 C1468 0.950 . S
H1461 C1473 0.950 . S
H1462 C1470 0.950 . S
H1463 C1472 0.950 . S
H1464 C1474 0.950 . S
H1465 C1476 0.950 . S
H1466 C1478 0.950 . S
H1467 C1479 0.950 . S
C1468 H1460 0.950 . S
C1468 C1469 1.386 . S
C1468 C1470 1.391 . S
C1469 C1468 1.386 . S
C1469 C1473 1.393 . S
C1470 H1462 0.950 . S
C1470 C1468 1.391 . S
C1470 C1471 1.400 . S
C1471 C1470 1.400 . S
C1471 C1472 1.398 . S
C1471 C1477 1.491 . S
C1472 H1463 0.950 . S
C1472 C1471 1.398 . S
C1472 C1473 1.391 . S
C1473 H1461 0.950 . S
C1473 C1469 1.393 . S
C1473 C1472 1.391 . S
C1474 H1464 0.950 . S
C1474 C1475 1.386 . S
C1474 C1476 1.391 . S
C1475 C1474 1.386 . S
C1475 C1479 1.393 . S
C1476 H1465 0.950 . S
C1476 C1474 1.391 . S
C1476 C1477 1.400 . S
C1477 C1471 1.491 . S
C1477 C1476 1.400 . S
C1477 C1478 1.398 . S
C1478 H1466 0.950 . S
C1478 C1477 1.398 . S
C1478 C1479 1.391 . S
C1479 H1467 0.950 . S
C1479 C1475 1.393 . S
C1479 C1478 1.391 . S
H1480 C1488 0.950 . S
H1481 C1493 0.950 . S
H1482 C1490 0.950 . S
H1483 C1492 0.950 . S
H1484 C1494 0.950 . S
H1485 C1496 0.950 . S
H1486 C1498 0.950 . S
H1487 C1499 0.950 . S
C1488 H1480 0.950 . S
C1488 C1489 1.386 . S
C1488 C1490 1.391 . S
C1489 C1488 1.386 . S
C1489 C1493 1.393 . S
C1490 H1482 0.950 . S
C1490 C1488 1.391 . S
C1490 C1491 1.400 . S
C1491 C1490 1.400 . S
C1491 C1492 1.398 . S
C1491 C1497 1.491 . S
C1492 H1483 0.950 . S
C1492 C1491 1.398 . S
C1492 C1493 1.391 . S
C1493 H1481 0.950 . S
C1493 C1489 1.393 . S
C1493 C1492 1.391 . S
C1494 H1484 0.950 . S
C1494 C1495 1.386 . S
C1494 C1496 1.391 . S
C1495 C1494 1.386 . S
C1495 C1499 1.393 . S
C1496 H1485 0.950 . S
C1496 C1494 1.391 . S
C1496 C1497 1.400 . S
C1497 C1491 1.491 . S
C1497 C1496 1.400 . S
C1497 C1498 1.398 . S
C1498 H1486 0.950 . S
C1498 C1497 1.398 . S
C1498 C1499 1.391 . S
C1499 H1487 0.950 . S
C1499 C1495 1.393 . S
C1499 C1498 1.391 . S
H1500 C1508 0.950 . S
H1501 C1513 0.950 . S
H1502 C1510 0.950 . S
H1503 C1512 0.950 . S
H1504 C1514 0.950 . S
H1505 C1516 0.950 . S
H1506 C1518 0.950 . S
H1507 C1519 0.950 . S
C1508 H1500 0.950 . S
C1508 C1509 1.386 . S
C1508 C1510 1.391 . S
C1509 C1508 1.386 . S
C1509 C1513 1.393 . S
C1510 H1502 0.950 . S
C1510 C1508 1.391 . S
C1510 C1511 1.400 . S
C1511 C1510 1.400 . S
C1511 C1512 1.398 . S
C1511 C1517 1.491 . S
C1512 H1503 0.950 . S
C1512 C1511 1.398 . S
C1512 C1513 1.391 . S
C1513 H1501 0.950 . S
C1513 C1509 1.393 . S
C1513 C1512 1.391 . S
C1514 H1504 0.950 . S
C1514 C1515 1.386 . S
C1514 C1516 1.391 . S
C1515 C1514 1.386 . S
C1515 C1519 1.393 . S
C1516 H1505 0.950 . S
C1516 C1514 1.391 . S
C1516 C1517 1.400 . S
C1517 C1511 1.491 . S
C1517 C1516 1.400 . S
C1517 C1518 1.398 . S
C1518 H1506 0.950 . S
C1518 C1517 1.398 . S
C1518 C1519 1.391 . S
C1519 H1507 0.950 . S
C1519 C1515 1.393 . S
C1519 C1518 1.391 . S
H1520 C1528 0.950 . S
H1521 C1533 0.950 . S
H1522 C1530 0.950 . S
H1523 C1532 0.950 . S
H1524 C1534 0.950 . S
H1525 C1536 0.950 . S
H1526 C1538 0.950 . S
H1527 C1539 0.950 . S
C1528 H1520 0.950 . S
C1528 C1529 1.386 . S
C1528 C1530 1.391 . S
C1529 C1528 1.386 . S
C1529 C1533 1.393 . S
C1530 H1522 0.950 . S
C1530 C1528 1.391 . S
C1530 C1531 1.400 . S
C1531 C1530 1.400 . S
C1531 C1532 1.398 . S
C1531 C1537 1.491 . S
C1532 H1523 0.950 . S
C1532 C1531 1.398 . S
C1532 C1533 1.391 . S
C1533 H1521 0.950 . S
C1533 C1529 1.393 . S
C1533 C1532 1.391 . S
C1534 H1524 0.950 . S
C1534 C1535 1.386 . S
C1534 C1536 1.391 . S
C1535 C1534 1.386 . S
C1535 C1539 1.393 . S
C1536 H1525 0.950 . S
C1536 C1534 1.391 . S
C1536 C1537 1.400 . S
C1537 C1531 1.491 . S
C1537 C1536 1.400 . S
C1537 C1538 1.398 . S
C1538 H1526 0.950 . S
C1538 C1537 1.398 . S
C1538 C1539 1.391 . S
C1539 H1527 0.950 . S
C1539 C1535 1.393 . S
C1539 C1538 1.391 . S
H1540 C1548 0.950 . S
H1541 C1553 0.950 . S
H1542 C1550 0.950 . S
H1543 C1552 0.950 . S
H1544 C1554 0.950 . S
H1545 C1556 0.950 . S
H1546 C1558 0.950 . S
H1547 C1559 0.950 . S
C1548 H1540 0.950 . S
C1548 C1549 1.386 . S
C1548 C1550 1.391 . S
C1549 C1548 1.386 . S
C1549 C1553 1.393 . S
C1550 H1542 0.950 . S
C1550 C1548 1.391 . S
C1550 C1551 1.400 . S
C1551 C1550 1.400 . S
C1551 C1552 1.398 . S
C1551 C1557 1.491 . S
C1552 H1543 0.950 . S
C1552 C1551 1.398 . S
C1552 C1553 1.391 . S
C1553 H1541 0.950 . S
C1553 C1549 1.393 . S
C1553 C1552 1.391 . S
C1554 H1544 0.950 . S
C1554 C1555 1.386 . S
C1554 C1556 1.391 . S
C1555 C1554 1.386 . S
C1555 C1559 1.393 . S
C1556 H1545 0.950 . S
C1556 C1554 1.391 . S
C1556 C1557 1.400 . S
C1557 C1551 1.491 . S
C1557 C1556 1.400 . S
C1557 C1558 1.398 . S
C1558 H1546 0.950 . S
C1558 C1557 1.398 . S
C1558 C1559 1.391 . S
C1559 H1547 0.950 . S
C1559 C1555 1.393 . S
C1559 C1558 1.391 . S
H1560 C1568 0.950 . S
H1561 C1573 0.950 . S
H1562 C1570 0.950 . S
H1563 C1572 0.950 . S
H1564 C1574 0.950 . S
H1565 C1576 0.950 . S
H1566 C1578 0.950 . S
H1567 C1579 0.950 . S
C1568 H1560 0.950 . S
C1568 C1569 1.386 . S
C1568 C1570 1.391 . S
C1569 C1568 1.386 . S
C1569 C1573 1.393 . S
C1570 H1562 0.950 . S
C1570 C1568 1.391 . S
C1570 C1571 1.400 . S
C1571 C1570 1.400 . S
C1571 C1572 1.398 . S
C1571 C1577 1.491 . S
C1572 H1563 0.950 . S
C1572 C1571 1.398 . S
C1572 C1573 1.391 . S
C1573 H1561 0.950 . S
C1573 C1569 1.393 . S
C1573 C1572 1.391 . S
C1574 H1564 0.950 . S
C1574 C1575 1.386 . S
C1574 C1576 1.391 . S
C1575 C1574 1.386 . S
C1575 C1579 1.393 . S
C1576 H1565 0.950 . S
C1576 C1574 1.391 . S
C1576 C1577 1.400 . S
C1577 C1571 1.491 . S
C1577 C1576 1.400 . S
C1577 C1578 1.398 . S
C1578 H1566 0.950 . S
C1578 C1577 1.398 . S
C1578 C1579 1.391 . S
C1579 H1567 0.950 . S
C1579 C1575 1.393 . S
C1579 C1578 1.391 . S
H1580 C1588 0.950 . S
H1581 C1593 0.950 . S
H1582 C1590 0.950 . S
H1583 C1592 0.950 . S
H1584 C1594 0.950 . S
H1585 C1596 0.950 . S
H1586 C1598 0.950 . S
H1587 C1599 0.950 . S
C1588 H1580 0.950 . S
C1588 C1589 1.386 . S
C1588 C1590 1.391 . S
C1589 C1588 1.386 . S
C1589 C1593 1.393 . S
C1590 H1582 0.950 . S
C1590 C1588 1.391 . S
C1590 C1591 1.400 . S
C1591 C1590 1.400 . S
C1591 C1592 1.398 . S
C1591 C1597 1.491 . S
C1592 H1583 0.950 . S
C1592 C1591 1.398 . S
C1592 C1593 1.391 . S
C1593 H1581 0.950 . S
C1593 C1589 1.393 . S
C1593 C1592 1.391 . S
C1594 H1584 0.950 . S
C1594 C1595 1.386 . S
C1594 C1596 1.391 . S
C1595 C1594 1.386 . S
C1595 C1599 1.393 . S
C1596 H1585 0.950 . S
C1596 C1594 1.391 . S
C1596 C1597 1.400 . S
C1597 C1591 1.491 . S
C1597 C1596 1.400 . S
C1597 C1598 1.398 . S
C1598 H1586 0.950 . S
C1598 C1597 1.398 . S
C1598 C1599 1.391 . S
C1599 H1587 0.950 . S
C1599 C1595 1.393 . S
C1599 C1598 1.391 . S
H1600 C1608 0.950 . S
H1601 C1613 0.950 . S
H1602 C1610 0.950 . S
H1603 C1612 0.950 . S
H1604 C1614 0.950 . S
H1605 C1616 0.950 . S
H1606 C1618 0.950 . S
H1607 C1619 0.950 . S
C1608 H1600 0.950 . S
C1608 C1609 1.386 . S
C1608 C1610 1.391 . S
C1609 C1608 1.386 . S
C1609 C1613 1.393 . S
C1610 H1602 0.950 . S
C1610 C1608 1.391 . S
C1610 C1611 1.400 . S
C1611 C1610 1.400 . S
C1611 C1612 1.398 . S
C1611 C1617 1.491 . S
C1612 H1603 0.950 . S
C1612 C1611 1.398 . S
C1612 C1613 1.391 . S
C1613 H1601 0.950 . S
C1613 C1609 1.393 . S
C1613 C1612 1.391 . S
C1614 H1604 0.950 . S
C1614 C1615 1.386 . S
C1614 C1616 1.391 . S
C1615 C1614 1.386 . S
C1615 C1619 1.393 . S
C1616 H1605 0.950 . S
C1616 C1614 1.391 . S
C1616 C1617 1.400 . S
C1617 C1611 1.491 . S
C1617 C1616 1.400 . S
C1617 C1618 1.398 . S
C1618 H1606 0.950 . S
C1618 C1617 1.398 . S
C1618 C1619 1.391 . S
C1619 H1607 0.950 . S
C1619 C1615 1.393 . S
C1619 C1618 1.391 . S
H1620 C1628 0.950 . S
H1621 C1633 0.950 . S
H1622 C1630 0.950 . S
H1623 C1632 0.950 . S
H1624 C1634 0.950 . S
H1625 C1636 0.950 . S
H1626 C1638 0.950 . S
H1627 C1639 0.950 . S
C1628 H1620 0.950 . S
C1628 C1629 1.386 . S
C1628 C1630 1.391 . S
C1629 C1628 1.386 . S
C1629 C1633 1.393 . S
C1630 H1622 0.950 . S
C1630 C1628 1.391 . S
C1630 C1631 1.400 . S
C1631 C1630 1.400 . S
C1631 C1632 1.398 . S
C1631 C1637 1.491 . S
C1632 H1623 0.950 . S
C1632 C1631 1.398 . S
C1632 C1633 1.391 . S
C1633 H1621 0.950 . S
C1633 C1629 1.393 . S
C1633 C1632 1.391 . S
C1634 H1624 0.950 . S
C1634 C1635 1.386 . S
C1634 C1636 1.391 . S
C1635 C1634 1.386 . S
C1635 C1639 1.393 . S
C1636 H1625 0.950 . S
C1636 C1634 1.391 . S
C1636 C1637 1.400 . S
C1637 C1631 1.491 . S
C1637 C1636 1.400 . S
C1637 C1638 1.398 . S
C1638 H1626 0.950 . S
C1638 C1637 1.398 . S
C1638 C1639 1.391 . S
C1639 H1627 0.950 . S
C1639 C1635 1.393 . S
C1639 C1638 1.391 . S
H1640 C1648 0.950 . S
H1641 C1653 0.950 . S
H1642 C1650 0.950 . S
H1643 C1652 0.950 . S
H1644 C1654 0.950 . S
H1645 C1656 0.950 . S
H1646 C1658 0.950 . S
H1647 C1659 0.950 . S
C1648 H1640 0.950 . S
C1648 C1649 1.386 . S
C1648 C1650 1.391 . S
C1649 C1648 1.386 . S
C1649 C1653 1.393 . S
C1650 H1642 0.950 . S
C1650 C1648 1.391 . S
C1650 C1651 1.400 . S
C1651 C1650 1.400 . S
C1651 C1652 1.398 . S
C1651 C1657 1.491 . S
C1652 H1643 0.950 . S
C1652 C1651 1.398 . S
C1652 C1653 1.391 . S
C1653 H1641 0.950 . S
C1653 C1649 1.393 . S
C1653 C1652 1.391 . S
C1654 H1644 0.950 . S
C1654 C1655 1.386 . S
C1654 C1656 1.391 . S
C1655 C1654 1.386 . S
C1655 C1659 1.393 . S
C1656 H1645 0.950 . S
C1656 C1654 1.391 . S
C1656 C1657 1.400 . S
C1657 C1651 1.491 . S
C1657 C1656 1.400 . S
C1657 C1658 1.398 . S
C1658 H1646 0.950 . S
C1658 C1657 1.398 . S
C1658 C1659 1.391 . S
C1659 H1647 0.950 . S
C1659 C1655 1.393 . S
C1659 C1658 1.391 . S
H1660 C1668 0.950 . S
H1661 C1673 0.950 . S
H1662 C1670 0.950 . S
H1663 C1672 0.950 . S
H1664 C1674 0.950 . S
H1665 C1676 0.950 . S
H1666 C1678 0.950 . S
H1667 C1679 0.950 . S
C1668 H1660 0.950 . S
C1668 C1669 1.386 . S
C1668 C1670 1.391 . S
C1669 C1668 1.386 . S
C1669 C1673 1.393 . S
C1670 H1662 0.950 . S
C1670 C1668 1.391 . S
C1670 C1671 1.400 . S
C1671 C1670 1.400 . S
C1671 C1672 1.398 . S
C1671 C1677 1.491 . S
C1672 H1663 0.950 . S
C1672 C1671 1.398 . S
C1672 C1673 1.391 . S
C1673 H1661 0.950 . S
C1673 C1669 1.393 . S
C1673 C1672 1.391 . S
C1674 H1664 0.950 . S
C1674 C1675 1.386 . S
C1674 C1676 1.391 . S
C1675 C1674 1.386 . S
C1675 C1679 1.393 . S
C1676 H1665 0.950 . S
C1676 C1674 1.391 . S
C1676 C1677 1.400 . S
C1677 C1671 1.491 . S
C1677 C1676 1.400 . S
C1677 C1678 1.398 . S
C1678 H1666 0.950 . S
C1678 C1677 1.398 . S
C1678 C1679 1.391 . S
C1679 H1667 0.950 . S
C1679 C1675 1.393 . S
C1679 C1678 1.391 . S
H1680 C1688 0.950 . S
H1681 C1693 0.950 . S
H1682 C1690 0.950 . S
H1683 C1692 0.950 . S
H1684 C1694 0.950 . S
H1685 C1696 0.950 . S
H1686 C1698 0.950 . S
H1687 C1699 0.950 . S
C1688 H1680 0.950 . S
C1688 C1689 1.386 . S
C1688 C1690 1.391 . S
C1689 C1688 1.386 . S
C1689 C1693 1.393 . S
C1690 H1682 0.950 . S
C1690 C1688 1.391 . S
C1690 C1691 1.400 . S
C1691 C1690 1.400 . S
C1691 C1692 1.398 . S
C1691 C1697 1.491 . S
C1692 H1683 0.950 . S
C1692 C1691 1.398 . S
C1692 C1693 1.391 . S
C1693 H1681 0.950 . S
C1693 C1689 1.393 . S
C1693 C1692 1.391 . S
C1694 H1684 0.950 . S
C1694 C1695 1.386 . S
C1694 C1696 1.391 . S
C1695 C1694 1.386 . S
C1695 C1699 1.393 . S
C1696 H1685 0.950 . S
C1696 C1694 1.391 . S
C1696 C1697 1.400 . S
C1697 C1691 1.491 . S
C1697 C1696 1.400 . S
C1697 C1698 1.398 . S
C1698 H1686 0.950 . S
C1698 C1697 1.398 . S
C1698 C1699 1.391 . S
C1699 H1687 0.950 . S
C1699 C1695 1.393 . S
C1699 C1698 1.391 . S
H1700 C1708 0.950 . S
H1701 C1713 0.950 . S
H1702 C1710 0.950 . S
H1703 C1712 0.950 . S
H1704 C1714 0.950 . S
H1705 C1716 0.950 . S
H1706 C1718 0.950 . S
H1707 C1719 0.950 . S
C1708 H1700 0.950 . S
C1708 C1709 1.386 . S
C1708 C1710 1.391 . S
C1709 C1708 1.386 . S
C1709 C1713 1.393 . S
C1710 H1702 0.950 . S
C1710 C1708 1.391 . S
C1710 C1711 1.400 . S
C1711 C1710 1.400 . S
C1711 C1712 1.398 . S
C1711 C1717 1.491 . S
C1712 H1703 0.950 . S
C1712 C1711 1.398 . S
C1712 C1713 1.391 . S
C1713 H1701 0.950 . S
C1713 C1709 1.393 . S
C1713 C1712 1.391 . S
C1714 H1704 0.950 . S
C1714 C1715 1.386 . S
C1714 C1716 1.391 . S
C1715 C1714 1.386 . S
C1715 C1719 1.393 . S
C1716 H1705 0.950 . S
C1716 C1714 1.391 . S
C1716 C1717 1.400 . S
C1717 C1711 1.491 . S
C1717 C1716 1.400 . S
C1717 C1718 1.398 . S
C1718 H1706 0.950 . S
C1718 C1717 1.398 . S
C1718 C1719 1.391 . S
C1719 H1707 0.950 . S
C1719 C1715 1.393 . S
C1719 C1718 1.391 . S
H1720 C1728 0.950 . S
H1721 C1733 0.950 . S
H1722 C1730 0.950 . S
H1723 C1732 0.950 . S
H1724 C1734 0.950 . S
H1725 C1736 0.950 . S
H1726 C1738 0.950 . S
H1727 C1739 0.950 . S
C1728 H1720 0.950 . S
C1728 C1729 1.386 . S
C1728 C1730 1.391 . S
C1729 C1728 1.386 . S
C1729 C1733 1.393 . S
C1730 H1722 0.950 . S
C1730 C1728 1.391 . S
C1730 C1731 1.400 . S
C1731 C1730 1.400 . S
C1731 C1732 1.398 . S
C1731 C1737 1.491 . S
C1732 H1723 0.950 . S
C1732 C1731 1.398 . S
C1732 C1733 1.391 . S
C1733 H1721 0.950 . S
C1733 C1729 1.393 . S
C1733 C1732 1.391 . S
C1734 H1724 0.950 . S
C1734 C1735 1.386 . S
C1734 C1736 1.391 . S
C1735 C1734 1.386 . S
C1735 C1739 1.393 . S
C1736 H1725 0.950 . S
C1736 C1734 1.391 . S
C1736 C1737 1.400 . S
C1737 C1731 1.491 . S
C1737 C1736 1.400 . S
C1737 C1738 1.398 . S
C1738 H1726 0.950 . S
C1738 C1737 1.398 . S
C1738 C1739 1.391 . S
C1739 H1727 0.950 . S
C1739 C1735 1.393 . S
C1739 C1738 1.391 . S
H1740 C1748 0.950 . S
H1741 C1753 0.950 . S
H1742 C1750 0.950 . S
H1743 C1752 0.950 . S
H1744 C1754 0.950 . S
H1745 C1756 0.950 . S
H1746 C1758 0.950 . S
H1747 C1759 0.950 . S
C1748 H1740 0.950 . S
C1748 C1749 1.386 . S
C1748 C1750 1.391 . S
C1749 C1748 1.386 . S
C1749 C1753 1.393 . S
C1750 H1742 0.950 . S
C1750 C1748 1.391 . S
C1750 C1751 1.400 . S
C1751 C1750 1.400 . S
C1751 C1752 1.398 . S
C1751 C1757 1.491 . S
C1752 H1743 0.950 . S
C1752 C1751 1.398 . S
C1752 C1753 1.391 . S
C1753 H1741 0.950 . S
C1753 C1749 1.393 . S
C1753 C1752 1.391 . S
C1754 H1744 0.950 . S
C1754 C1755 1.386 . S
C1754 C1756 1.391 . S
C1755 C1754 1.386 . S
C1755 C1759 1.393 . S
C1756 H1745 0.950 . S
C1756 C1754 1.391 . S
C1756 C1757 1.400 . S
C1757 C1751 1.491 . S
C1757 C1756 1.400 . S
C1757 C1758 1.398 . S
C1758 H1746 0.950 . S
C1758 C1757 1.398 . S
C1758 C1759 1.391 . S
C1759 H1747 0.950 . S
C1759 C1755 1.393 . S
C1759 C1758 1.391 . S
H1760 C1768 0.950 . S
H1761 C1773 0.950 . S
H1762 C1770 0.950 . S
H1763 C1772 0.950 . S
H1764 C1774 0.950 . S
H1765 C1776 0.950 . S
H1766 C1778 0.950 . S
H1767 C1779 0.950 . S
C1768 H1760 0.950 . S
C1768 C1769 1.386 . S
C1768 C1770 1.391 . S
C1769 C1768 1.386 . S
C1769 C1773 1.393 . S
C1770 H1762 0.950 . S
C1770 C1768 1.391 . S
C1770 C1771 1.400 . S
C1771 C1770 1.400 . S
C1771 C1772 1.398 . S
C1771 C1777 1.491 . S
C1772 H1763 0.950 . S
C1772 C1771 1.398 . S
C1772 C1773 1.391 . S
C1773 H1761 0.950 . S
C1773 C1769 1.393 . S
C1773 C1772 1.391 . S
C1774 H1764 0.950 . S
C1774 C1775 1.386 . S
C1774 C1776 1.391 . S
C1775 C1774 1.386 . S
C1775 C1779 1.393 . S
C1776 H1765 0.950 . S
C1776 C1774 1.391 . S
C1776 C1777 1.400 . S
C1777 C1771 1.491 . S
C1777 C1776 1.400 . S
C1777 C1778 1.398 . S
C1778 H1766 0.950 . S
C1778 C1777 1.398 . S
C1778 C1779 1.391 . S
C1779 H1767 0.950 . S
C1779 C1775 1.393 . S
C1779 C1778 1.391 . S
H1780 C1788 0.950 . S
H1781 C1793 0.950 . S
H1782 C1790 0.950 . S
H1783 C1792 0.950 . S
H1784 C1794 0.950 . S
H1785 C1796 0.950 . S
H1786 C1798 0.950 . S
H1787 C1799 0.950 . S
C1788 H1780 0.950 . S
C1788 C1789 1.386 . S
C1788 C1790 1.391 . S
C1789 C1788 1.386 . S
C1789 C1793 1.393 . S
C1790 H1782 0.950 . S
C1790 C1788 1.391 . S
C1790 C1791 1.400 . S
C1791 C1790 1.400 . S
C1791 C1792 1.398 . S
C1791 C1797 1.491 . S
C1792 H1783 0.950 . S
C1792 C1791 1.398 . S
C1792 C1793 1.391 . S
C1793 H1781 0.950 . S
C1793 C1789 1.393 . S
C1793 C1792 1.391 . S
C1794 H1784 0.950 . S
C1794 C1795 1.386 . S
C1794 C1796 1.391 . S
C1795 C1794 1.386 . S
C1795 C1799 1.393 . S
C1796 H1785 0.950 . S
C1796 C1794 1.391 . S
C1796 C1797 1.400 . S
C1797 C1791 1.491 . S
C1797 C1796 1.400 . S
C1797 C1798 1.398 . S
C1798 H1786 0.950 . S
C1798 C1797 1.398 . S
C1798 C1799 1.391 . S
C1799 H1787 0.950 . S
C1799 C1795 1.393 . S
C1799 C1798 1.391 . S
H1800 C1808 0.950 . S
H1801 C1813 0.950 . S
H1802 C1810 0.950 . S
H1803 C1812 0.950 . S
H1804 C1814 0.950 . S
H1805 C1816 0.950 . S
H1806 C1818 0.950 . S
H1807 C1819 0.950 . S
C1808 H1800 0.950 . S
C1808 C1809 1.386 . S
C1808 C1810 1.391 . S
C1809 C1808 1.386 . S
C1809 C1813 1.393 . S
C1810 H1802 0.950 . S
C1810 C1808 1.391 . S
C1810 C1811 1.400 . S
C1811 C1810 1.400 . S
C1811 C1812 1.398 . S
C1811 C1817 1.491 . S
C1812 H1803 0.950 . S
C1812 C1811 1.398 . S
C1812 C1813 1.391 . S
C1813 H1801 0.950 . S
C1813 C1809 1.393 . S
C1813 C1812 1.391 . S
C1814 H1804 0.950 . S
C1814 C1815 1.386 . S
C1814 C1816 1.391 . S
C1815 C1814 1.386 . S
C1815 C1819 1.393 . S
C1816 H1805 0.950 . S
C1816 C1814 1.391 . S
C1816 C1817 1.400 . S
C1817 C1811 1.491 . S
C1817 C1816 1.400 . S
C1817 C1818 1.398 . S
C1818 H1806 0.950 . S
C1818 C1817 1.398 . S
C1818 C1819 1.391 . S
C1819 H1807 0.950 . S
C1819 C1815 1.393 . S
C1819 C1818 1.391 . S
H1820 C1828 0.950 . S
H1821 C1833 0.950 . S
H1822 C1830 0.950 . S
H1823 C1832 0.950 . S
H1824 C1834 0.950 . S
H1825 C1836 0.950 . S
H1826 C1838 0.950 . S
H1827 C1839 0.950 . S
C1828 H1820 0.950 . S
C1828 C1829 1.386 . S
C1828 C1830 1.391 . S
C1829 C1828 1.386 . S
C1829 C1833 1.393 . S
C1830 H1822 0.950 . S
C1830 C1828 1.391 . S
C1830 C1831 1.400 . S
C1831 C1830 1.400 . S
C1831 C1832 1.398 . S
C1831 C1837 1.491 . S
C1832 H1823 0.950 . S
C1832 C1831 1.398 . S
C1832 C1833 1.391 . S
C1833 H1821 0.950 . S
C1833 C1829 1.393 . S
C1833 C1832 1.391 . S
C1834 H1824 0.950 . S
C1834 C1835 1.386 . S
C1834 C1836 1.391 . S
C1835 C1834 1.386 . S
C1835 C1839 1.393 . S
C1836 H1825 0.950 . S
C1836 C1834 1.391 . S
C1836 C1837 1.400 . S
C1837 C1831 1.491 . S
C1837 C1836 1.400 . S
C1837 C1838 1.398 . S
C1838 H1826 0.950 . S
C1838 C1837 1.398 . S
C1838 C1839 1.391 . S
C1839 H1827 0.950 . S
C1839 C1835 1.393 . S
C1839 C1838 1.391 . S
H1840 C1848 0.950 . S
H1841 C1853 0.950 . S
H1842 C1850 0.950 . S
H1843 C1852 0.950 . S
H1844 C1854 0.950 . S
H1845 C1856 0.950 . S
H1846 C1858 0.950 . S
H1847 C1859 0.950 . S
C1848 H1840 0.950 . S
C1848 C1849 1.386 . S
C1848 C1850 1.391 . S
C1849 C1848 1.386 . S
C1849 C1853 1.393 . S
C1850 H1842 0.950 . S
C1850 C1848 1.391 . S
C1850 C1851 1.400 . S
C1851 C1850 1.400 . S
C1851 C1852 1.398 . S
C1851 C1857 1.491 . S
C1852 H1843 0.950 . S
C1852 C1851 1.398 . S
C1852 C1853 1.391 . S
C1853 H1841 0.950 . S
C1853 C1849 1.393 . S
C1853 C1852 1.391 . S
C1854 H1844 0.950 . S
C1854 C1855 1.386 . S
C1854 C1856 1.391 . S
C1855 C1854 1.386 . S
C1855 C1859 1.393 . S
C1856 H1845 0.950 . S
C1856 C1854 1.391 . S
C1856 C1857 1.400 . S
C1857 C1851 1.491 . S
C1857 C1856 1.400 . S
C1857 C1858 1.398 . S
C1858 H1846 0.950 . S
C1858 C1857 1.398 . S
C1858 C1859 1.391 . S
C1859 H1847 0.950 . S
C1859 C1855 1.393 . S
C1859 C1858 1.391 . S
H1860 C1868 0.950 . S
H1861 C1873 0.950 1_554 S
H1862 C1870 0.950 . S
H1863 C1872 0.950 . S
H1864 C1874 0.950 . S
H1865 C1876 0.950 . S
H1866 C1878 0.950 . S
H1867 C1879 0.950 . S
C1868 H1860 0.950 . S
C1868 C1869 1.386 . S
C1868 C1870 1.391 . S
C1869 C1868 1.386 . S
C1869 C1873 1.393 . S
C1870 H1862 0.950 . S
C1870 C1868 1.391 . S
C1870 C1871 1.400 . S
C1871 C1870 1.400 . S
C1871 C1872 1.398 . S
C1871 C1877 1.491 . S
C1872 H1863 0.950 . S
C1872 C1871 1.398 . S
C1872 C1873 1.391 . S
C1873 H1861 0.950 1_556 S
C1873 C1869 1.393 . S
C1873 C1872 1.391 . S
C1874 H1864 0.950 . S
C1874 C1875 1.386 . S
C1874 C1876 1.391 . S
C1875 C1874 1.386 . S
C1875 C1879 1.393 . S
C1876 H1865 0.950 . S
C1876 C1874 1.391 . S
C1876 C1877 1.400 . S
C1877 C1871 1.491 . S
C1877 C1876 1.400 . S
C1877 C1878 1.398 . S
C1878 H1866 0.950 . S
C1878 C1877 1.398 . S
C1878 C1879 1.391 . S
C1879 H1867 0.950 . S
C1879 C1875 1.393 . S
C1879 C1878 1.391 . S
H1880 C1888 0.950 . S
H1881 C1893 0.950 . S
H1882 C1890 0.950 . S
H1883 C1892 0.950 . S
H1884 C1894 0.950 . S
H1885 C1896 0.950 . S
H1886 C1898 0.950 . S
H1887 C1899 0.950 . S
C1888 H1880 0.950 . S
C1888 C1889 1.386 . S
C1888 C1890 1.391 . S
C1889 C1888 1.386 . S
C1889 C1893 1.393 . S
C1890 H1882 0.950 . S
C1890 C1888 1.391 . S
C1890 C1891 1.400 . S
C1891 C1890 1.400 . S
C1891 C1892 1.398 . S
C1891 C1897 1.491 . S
C1892 H1883 0.950 . S
C1892 C1891 1.398 . S
C1892 C1893 1.391 . S
C1893 H1881 0.950 . S
C1893 C1889 1.393 . S
C1893 C1892 1.391 . S
C1894 H1884 0.950 . S
C1894 C1895 1.386 . S
C1894 C1896 1.391 . S
C1895 C1894 1.386 . S
C1895 C1899 1.393 . S
C1896 H1885 0.950 . S
C1896 C1894 1.391 . S
C1896 C1897 1.400 . S
C1897 C1891 1.491 . S
C1897 C1896 1.400 . S
C1897 C1898 1.398 . S
C1898 H1886 0.950 . S
C1898 C1897 1.398 . S
C1898 C1899 1.391 . S
C1899 H1887 0.950 . S
C1899 C1895 1.393 . S
C1899 C1898 1.391 . S
H1900 C1908 0.950 . S
H1901 C1913 0.950 . S
H1902 C1910 0.950 . S
H1903 C1912 0.950 . S
H1904 C1914 0.950 . S
H1905 C1916 0.950 . S
H1906 C1918 0.950 . S
H1907 C1919 0.950 . S
C1908 H1900 0.950 . S
C1908 C1909 1.386 . S
C1908 C1910 1.391 . S
C1909 C1908 1.386 . S
C1909 C1913 1.393 . S
C1910 H1902 0.950 . S
C1910 C1908 1.391 . S
C1910 C1911 1.400 . S
C1911 C1910 1.400 . S
C1911 C1912 1.398 . S
C1911 C1917 1.491 . S
C1912 H1903 0.950 . S
C1912 C1911 1.398 . S
C1912 C1913 1.391 . S
C1913 H1901 0.950 . S
C1913 C1909 1.393 . S
C1913 C1912 1.391 . S
C1914 H1904 0.950 . S
C1914 C1915 1.386 . S
C1914 C1916 1.391 . S
C1915 C1914 1.386 . S
C1915 C1919 1.393 . S
C1916 H1905 0.950 . S
C1916 C1914 1.391 . S
C1916 C1917 1.400 . S
C1917 C1911 1.491 . S
C1917 C1916 1.400 . S
C1917 C1918 1.398 . S
C1918 H1906 0.950 . S
C1918 C1917 1.398 . S
C1918 C1919 1.391 . S
C1919 H1907 0.950 . S
C1919 C1915 1.393 . S
C1919 C1918 1.391 . S
H1920 C1928 0.950 1_554 S
H1921 C1933 0.950 . S
H1922 C1930 0.950 . S
H1923 C1932 0.950 . S
H1924 C1934 0.950 . S
H1925 C1936 0.950 . S
H1926 C1938 0.950 . S
H1927 C1939 0.950 . S
C1928 H1920 0.950 1_556 S
C1928 C1929 1.386 . S
C1928 C1930 1.391 . S
C1929 C1928 1.386 . S
C1929 C1933 1.393 . S
C1930 H1922 0.950 . S
C1930 C1928 1.391 . S
C1930 C1931 1.400 . S
C1931 C1930 1.400 . S
C1931 C1932 1.398 . S
C1931 C1937 1.491 . S
C1932 H1923 0.950 . S
C1932 C1931 1.398 . S
C1932 C1933 1.391 . S
C1933 H1921 0.950 . S
C1933 C1929 1.393 . S
C1933 C1932 1.391 . S
C1934 H1924 0.950 . S
C1934 C1935 1.386 . S
C1934 C1936 1.391 . S
C1935 C1934 1.386 . S
C1935 C1939 1.393 . S
C1936 H1925 0.950 . S
C1936 C1934 1.391 . S
C1936 C1937 1.400 . S
C1937 C1931 1.491 . S
C1937 C1936 1.400 . S
C1937 C1938 1.398 . S
C1938 H1926 0.950 . S
C1938 C1937 1.398 . S
C1938 C1939 1.391 . S
C1939 H1927 0.950 . S
C1939 C1935 1.393 . S
C1939 C1938 1.391 . S
H1940 C1948 0.950 . S
H1941 C1953 0.950 . S
H1942 C1950 0.950 . S
H1943 C1952 0.950 . S
H1944 C1954 0.950 . S
H1945 C1956 0.950 . S
H1946 C1958 0.950 . S
H1947 C1959 0.950 . S
C1948 H1940 0.950 . S
C1948 C1949 1.386 . S
C1948 C1950 1.391 . S
C1949 C1948 1.386 . S
C1949 C1953 1.393 . S
C1950 H1942 0.950 . S
C1950 C1948 1.391 . S
C1950 C1951 1.400 . S
C1951 C1950 1.400 . S
C1951 C1952 1.398 . S
C1951 C1957 1.491 . S
C1952 H1943 0.950 . S
C1952 C1951 1.398 . S
C1952 C1953 1.391 . S
C1953 H1941 0.950 . S
C1953 C1949 1.393 . S
C1953 C1952 1.391 . S
C1954 H1944 0.950 . S
C1954 C1955 1.386 . S
C1954 C1956 1.391 . S
C1955 C1954 1.386 . S
C1955 C1959 1.393 . S
C1956 H1945 0.950 . S
C1956 C1954 1.391 . S
C1956 C1957 1.400 . S
C1957 C1951 1.491 . S
C1957 C1956 1.400 . S
C1957 C1958 1.398 . S
C1958 H1946 0.950 . S
C1958 C1957 1.398 . S
C1958 C1959 1.391 . S
C1959 H1947 0.950 . S
C1959 C1955 1.393 . S
C1959 C1958 1.391 . S
H1960 C1968 0.950 . S
H1961 C1973 0.950 . S
H1962 C1970 0.950 . S
H1963 C1972 0.950 . S
H1964 C1974 0.950 . S
H1965 C1976 0.950 . S
H1966 C1978 0.950 . S
H1967 C1979 0.950 . S
C1968 H1960 0.950 . S
C1968 C1969 1.386 . S
C1968 C1970 1.391 . S
C1969 C1968 1.386 . S
C1969 C1973 1.393 . S
C1970 H1962 0.950 . S
C1970 C1968 1.391 . S
C1970 C1971 1.400 . S
C1971 C1970 1.400 . S
C1971 C1972 1.398 . S
C1971 C1977 1.491 . S
C1972 H1963 0.950 . S
C1972 C1971 1.398 . S
C1972 C1973 1.391 . S
C1973 H1961 0.950 . S
C1973 C1969 1.393 . S
C1973 C1972 1.391 . S
C1974 H1964 0.950 . S
C1974 C1975 1.386 . S
C1974 C1976 1.391 . S
C1975 C1974 1.386 . S
C1975 C1979 1.393 . S
C1976 H1965 0.950 . S
C1976 C1974 1.391 . S
C1976 C1977 1.400 . S
C1977 C1971 1.491 . S
C1977 C1976 1.400 . S
C1977 C1978 1.398 . S
C1978 H1966 0.950 . S
C1978 C1977 1.398 . S
C1978 C1979 1.391 . S
C1979 H1967 0.950 . S
C1979 C1975 1.393 . S
C1979 C1978 1.391 . S
H1980 C1988 0.950 . S
H1981 C1993 0.950 . S
H1982 C1990 0.950 . S
H1983 C1992 0.950 . S
H1984 C1994 0.950 . S
H1985 C1996 0.950 . S
H1986 C1998 0.950 . S
H1987 C1999 0.950 . S
C1988 H1980 0.950 . S
C1988 C1989 1.386 . S
C1988 C1990 1.391 . S
C1989 C1988 1.386 . S
C1989 C1993 1.393 . S
C1990 H1982 0.950 . S
C1990 C1988 1.391 . S
C1990 C1991 1.400 . S
C1991 C1990 1.400 . S
C1991 C1992 1.398 . S
C1991 C1997 1.491 . S
C1992 H1983 0.950 . S
C1992 C1991 1.398 . S
C1992 C1993 1.391 . S
C1993 H1981 0.950 . S
C1993 C1989 1.393 . S
C1993 C1992 1.391 . S
C1994 H1984 0.950 . S
C1994 C1995 1.386 . S
C1994 C1996 1.391 . S
C1995 C1994 1.386 . S
C1995 C1999 1.393 . S
C1996 H1985 0.950 . S
C1996 C1994 1.391 . S
C1996 C1997 1.400 . S
C1997 C1991 1.491 . S
C1997 C1996 1.400 . S
C1997 C1998 1.398 . S
C1998 H1986 0.950 . S
C1998 C1997 1.398 . S
C1998 C1999 1.391 . S
C1999 H1987 0.950 . S
C1999 C1995 1.393 . S
C1999 C1998 1.391 . S
H2000 C2008 0.950 . S
H2001 C2013 0.950 . S
H2002 C2010 0.950 . S
H2003 C2012 0.950 . S
H2004 C2014 0.950 . S
H2005 C2016 0.950 . S
H2006 C2018 0.950 . S
H2007 C2019 0.950 . S
C2008 H2000 0.950 . S
C2008 C2009 1.386 . S
C2008 C2010 1.391 . S
C2009 C2008 1.386 . S
C2009 C2013 1.393 . S
C2010 H2002 0.950 . S
C2010 C2008 1.391 . S
C2010 C2011 1.400 . S
C2011 C2010 1.400 . S
C2011 C2012 1.398 . S
C2011 C2017 1.491 . S
C2012 H2003 0.950 . S
C2012 C2011 1.398 . S
C2012 C2013 1.391 . S
C2013 H2001 0.950 . S
C2013 C2009 1.393 . S
C2013 C2012 1.391 . S
C2014 H2004 0.950 . S
C2014 C2015 1.386 . S
C2014 C2016 1.391 . S
C2015 C2014 1.386 . S
C2015 C2019 1.393 . S
C2016 H2005 0.950 . S
C2016 C2014 1.391 . S
C2016 C2017 1.400 . S
C2017 C2011 1.491 . S
C2017 C2016 1.400 . S
C2017 C2018 1.398 . S
C2018 H2006 0.950 . S
C2018 C2017 1.398 . S
C2018 C2019 1.391 . S
C2019 H2007 0.950 . S
C2019 C2015 1.393 . S
C2019 C2018 1.391 . S
H2020 C2028 0.950 . S
H2021 C2033 0.950 . S
H2022 C2030 0.950 . S
H2023 C2032 0.950 . S
H2024 C2034 0.950 . S
H2025 C2036 0.950 . S
H2026 C2038 0.950 . S
H2027 C2039 0.950 . S
C2028 H2020 0.950 . S
C2028 C2029 1.386 . S
C2028 C2030 1.391 . S
C2029 C2028 1.386 . S
C2029 C2033 1.393 . S
C2030 H2022 0.950 . S
C2030 C2028 1.391 . S
C2030 C2031 1.400 . S
C2031 C2030 1.400 . S
C2031 C2032 1.398 . S
C2031 C2037 1.491 . S
C2032 H2023 0.950 . S
C2032 C2031 1.398 . S
C2032 C2033 1.391 . S
C2033 H2021 0.950 . S
C2033 C2029 1.393 . S
C2033 C2032 1.391 . S
C2034 H2024 0.950 . S
C2034 C2035 1.386 . S
C2034 C2036 1.391 . S
C2035 C2034 1.386 . S
C2035 C2039 1.393 . S
C2036 H2025 0.950 . S
C2036 C2034 1.391 . S
C2036 C2037 1.400 . S
C2037 C2031 1.491 . S
C2037 C2036 1.400 . S
C2037 C2038 1.398 . S
C2038 H2026 0.950 . S
C2038 C2037 1.398 . S
C2038 C2039 1.391 . S
C2039 H2027 0.950 . S
C2039 C2035 1.393 . S
C2039 C2038 1.391 . S
H2040 C2048 0.950 . S
H2041 C2053 0.950 . S
H2042 C2050 0.950 . S
H2043 C2052 0.950 . S
H2044 C2054 0.950 . S
H2045 C2056 0.950 . S
H2046 C2058 0.950 . S
H2047 C2059 0.950 . S
C2048 H2040 0.950 . S
C2048 C2049 1.386 . S
C2048 C2050 1.391 . S
C2049 C2048 1.386 . S
C2049 C2053 1.393 . S
C2050 H2042 0.950 . S
C2050 C2048 1.391 . S
C2050 C2051 1.400 . S
C2051 C2050 1.400 . S
C2051 C2052 1.398 . S
C2051 C2057 1.491 . S
C2052 H2043 0.950 . S
C2052 C2051 1.398 . S
C2052 C2053 1.391 . S
C2053 H2041 0.950 . S
C2053 C2049 1.393 . S
C2053 C2052 1.391 . S
C2054 H2044 0.950 . S
C2054 C2055 1.386 . S
C2054 C2056 1.391 . S
C2055 C2054 1.386 . S
C2055 C2059 1.393 . S
C2056 H2045 0.950 . S
C2056 C2054 1.391 . S
C2056 C2057 1.400 . S
C2057 C2051 1.491 . S
C2057 C2056 1.400 . S
C2057 C2058 1.398 . S
C2058 H2046 0.950 . S
C2058 C2057 1.398 . S
C2058 C2059 1.391 . S
C2059 H2047 0.950 . S
C2059 C2055 1.393 . S
C2059 C2058 1.391 . S
H2060 C2068 0.950 . S
H2061 C2073 0.950 . S
H2062 C2070 0.950 . S
H2063 C2072 0.950 . S
H2064 C2074 0.950 . S
H2065 C2076 0.950 . S
H2066 C2078 0.950 . S
H2067 C2079 0.950 . S
C2068 H2060 0.950 . S
C2068 C2069 1.386 . S
C2068 C2070 1.391 . S
C2069 C2068 1.386 . S
C2069 C2073 1.393 . S
C2070 H2062 0.950 . S
C2070 C2068 1.391 . S
C2070 C2071 1.400 . S
C2071 C2070 1.400 . S
C2071 C2072 1.398 . S
C2071 C2077 1.491 . S
C2072 H2063 0.950 . S
C2072 C2071 1.398 . S
C2072 C2073 1.391 . S
C2073 H2061 0.950 . S
C2073 C2069 1.393 . S
C2073 C2072 1.391 . S
C2074 H2064 0.950 . S
C2074 C2075 1.386 . S
C2074 C2076 1.391 . S
C2075 C2074 1.386 . S
C2075 C2079 1.393 . S
C2076 H2065 0.950 . S
C2076 C2074 1.391 . S
C2076 C2077 1.400 . S
C2077 C2071 1.491 . S
C2077 C2076 1.400 . S
C2077 C2078 1.398 . S
C2078 H2066 0.950 . S
C2078 C2077 1.398 . S
C2078 C2079 1.391 . S
C2079 H2067 0.950 . S
C2079 C2075 1.393 . S
C2079 C2078 1.391 . S
H2080 C2088 0.950 . S
H2081 C2093 0.950 . S
H2082 C2090 0.950 . S
H2083 C2092 0.950 . S
H2084 C2094 0.950 . S
H2085 C2096 0.950 . S
H2086 C2098 0.950 . S
H2087 C2099 0.950 . S
C2088 H2080 0.950 . S
C2088 C2089 1.386 . S
C2088 C2090 1.391 . S
C2089 C2088 1.386 . S
C2089 C2093 1.393 . S
C2090 H2082 0.950 . S
C2090 C2088 1.391 . S
C2090 C2091 1.400 . S
C2091 C2090 1.400 . S
C2091 C2092 1.398 . S
C2091 C2097 1.491 . S
C2092 H2083 0.950 . S
C2092 C2091 1.398 . S
C2092 C2093 1.391 . S
C2093 H2081 0.950 . S
C2093 C2089 1.393 . S
C2093 C2092 1.391 . S
C2094 H2084 0.950 . S
C2094 C2095 1.386 . S
C2094 C2096 1.391 . S
C2095 C2094 1.386 . S
C2095 C2099 1.393 . S
C2096 H2085 0.950 . S
C2096 C2094 1.391 . S
C2096 C2097 1.400 . S
C2097 C2091 1.491 . S
C2097 C2096 1.400 . S
C2097 C2098 1.398 . S
C2098 H2086 0.950 . S
C2098 C2097 1.398 . S
C2098 C2099 1.391 . S
C2099 H2087 0.950 . S
C2099 C2095 1.393 . S
C2099 C2098 1.391 . S
H2100 C2108 0.950 . S
H2101 C2113 0.950 . S
H2102 C2110 0.950 . S
H2103 C2112 0.950 . S
H2104 C2114 0.950 . S
H2105 C2116 0.950 . S
H2106 C2118 0.950 . S
H2107 C2119 0.950 . S
C2108 H2100 0.950 . S
C2108 C2109 1.386 1_655 S
C2108 C2110 1.391 . S
C2109 C2108 1.386 1_455 S
C2109 C2113 1.393 . S
C2110 H2102 0.950 . S
C2110 C2108 1.391 . S
C2110 C2111 1.400 1_655 S
C2111 C2110 1.400 1_455 S
C2111 C2112 1.398 . S
C2111 C2117 1.491 . S
C2112 H2103 0.950 . S
C2112 C2111 1.398 . S
C2112 C2113 1.391 . S
C2113 H2101 0.950 . S
C2113 C2109 1.393 . S
C2113 C2112 1.391 . S
C2114 H2104 0.950 . S
C2114 C2115 1.386 . S
C2114 C2116 1.391 . S
C2115 C2114 1.386 . S
C2115 C2119 1.393 1_455 S
C2116 H2105 0.950 . S
C2116 C2114 1.391 . S
C2116 C2117 1.400 . S
C2117 C2111 1.491 . S
C2117 C2116 1.400 . S
C2117 C2118 1.398 1_455 S
C2118 H2106 0.950 . S
C2118 C2117 1.398 1_655 S
C2118 C2119 1.391 . S
C2119 H2107 0.950 . S
C2119 C2115 1.393 1_655 S
C2119 C2118 1.391 . S
H2120 C2128 0.950 . S
H2121 C2133 0.950 . S
H2122 C2130 0.950 . S
H2123 C2132 0.950 . S
H2124 C2134 0.950 . S
H2125 C2136 0.950 . S
H2126 C2138 0.950 . S
H2127 C2139 0.950 . S
C2128 H2120 0.950 . S
C2128 C2129 1.386 . S
C2128 C2130 1.391 . S
C2129 C2128 1.386 . S
C2129 C2133 1.393 . S
C2130 H2122 0.950 . S
C2130 C2128 1.391 . S
C2130 C2131 1.400 . S
C2131 C2130 1.400 . S
C2131 C2132 1.398 . S
C2131 C2137 1.491 . S
C2132 H2123 0.950 . S
C2132 C2131 1.398 . S
C2132 C2133 1.391 . S
C2133 H2121 0.950 . S
C2133 C2129 1.393 . S
C2133 C2132 1.391 . S
C2134 H2124 0.950 . S
C2134 C2135 1.386 . S
C2134 C2136 1.391 . S
C2135 C2134 1.386 . S
C2135 C2139 1.393 . S
C2136 H2125 0.950 . S
C2136 C2134 1.391 . S
C2136 C2137 1.400 . S
C2137 C2131 1.491 . S
C2137 C2136 1.400 . S
C2137 C2138 1.398 . S
C2138 H2126 0.950 . S
C2138 C2137 1.398 . S
C2138 C2139 1.391 . S
C2139 H2127 0.950 . S
C2139 C2135 1.393 . S
C2139 C2138 1.391 . S
H2140 C2148 0.950 . S
H2141 C2153 0.950 . S
H2142 C2150 0.950 . S
H2143 C2152 0.950 . S
H2144 C2154 0.950 . S
H2145 C2156 0.950 . S
H2146 C2158 0.950 . S
H2147 C2159 0.950 . S
C2148 H2140 0.950 . S
C2148 C2149 1.386 1_545 S
C2148 C2150 1.391 . S
C2149 C2148 1.386 1_565 S
C2149 C2153 1.393 . S
C2150 H2142 0.950 . S
C2150 C2148 1.391 . S
C2150 C2151 1.400 1_545 S
C2151 C2150 1.400 1_565 S
C2151 C2152 1.398 . S
C2151 C2157 1.491 . S
C2152 H2143 0.950 . S
C2152 C2151 1.398 . S
C2152 C2153 1.391 . S
C2153 H2141 0.950 . S
C2153 C2149 1.393 . S
C2153 C2152 1.391 . S
C2154 H2144 0.950 . S
C2154 C2155 1.386 . S
C2154 C2156 1.391 . S
C2155 C2154 1.386 . S
C2155 C2159 1.393 1_565 S
C2156 H2145 0.950 . S
C2156 C2154 1.391 . S
C2156 C2157 1.400 . S
C2157 C2151 1.491 . S
C2157 C2156 1.400 . S
C2157 C2158 1.398 1_565 S
C2158 H2146 0.950 . S
C2158 C2157 1.398 1_545 S
C2158 C2159 1.391 . S
C2159 H2147 0.950 . S
C2159 C2155 1.393 1_545 S
C2159 C2158 1.391 . S
H2160 C2168 0.950 1_545 S
H2161 C2173 0.950 . S
H2162 C2170 0.927 1_545 S
H2163 C2172 0.950 . S
H2164 C2174 0.950 . S
H2165 C2176 0.950 . S
H2166 C2178 0.950 . S
H2167 C2179 0.950 . S
C2168 H2160 0.950 1_565 S
C2168 C2169 1.386 . S
C2168 C2170 1.425 . S
C2169 C2168 1.386 . S
C2169 C2173 1.393 . S
C2170 H2162 0.927 1_565 S
C2170 C2168 1.425 . S
C2170 C2171 1.393 . S
C2171 C2170 1.393 . S
C2171 C2172 1.398 . S
C2171 C2177 1.491 . S
C2172 H2163 0.950 . S
C2172 C2171 1.398 . S
C2172 C2173 1.391 . S
C2173 H2161 0.950 . S
C2173 C2169 1.393 . S
C2173 C2172 1.391 . S
C2174 H2164 0.950 . S
C2174 C2175 1.386 . S
C2174 C2176 1.391 . S
C2175 C2174 1.386 . S
C2175 C2179 1.393 1_565 S
C2176 H2165 0.950 . S
C2176 C2174 1.391 . S
C2176 C2177 1.400 . S
C2177 C2171 1.491 . S
C2177 C2176 1.400 . S
C2177 C2178 1.398 1_565 S
C2178 H2166 0.950 . S
C2178 C2177 1.398 1_545 S
C2178 C2179 1.391 . S
C2179 H2167 0.950 . S
C2179 C2175 1.393 1_545 S
C2179 C2178 1.391 . S
H2180 C2188 0.950 . S
H2181 C2193 0.950 . S
H2182 C2190 0.950 . S
H2183 C2192 0.950 . S
H2184 C2194 0.950 . S
H2185 C2196 0.950 . S
H2186 C2198 0.950 . S
H2187 C2199 0.950 . S
C2188 H2180 0.950 . S
C2188 C2189 1.386 1_655 S
C2188 C2190 1.391 . S
C2189 C2188 1.386 1_455 S
C2189 C2193 1.393 . S
C2190 H2182 0.950 . S
C2190 C2188 1.391 . S
C2190 C2191 1.400 1_655 S
C2191 C2190 1.400 1_455 S
C2191 C2192 1.398 . S
C2191 C2197 1.491 . S
C2192 H2183 0.950 . S
C2192 C2191 1.398 . S
C2192 C2193 1.391 . S
C2193 H2181 0.950 . S
C2193 C2189 1.393 . S
C2193 C2192 1.391 . S
C2194 H2184 0.950 . S
C2194 C2195 1.386 . S
C2194 C2196 1.391 . S
C2195 C2194 1.386 . S
C2195 C2199 1.393 1_455 S
C2196 H2185 0.950 . S
C2196 C2194 1.391 . S
C2196 C2197 1.400 . S
C2197 C2191 1.491 . S
C2197 C2196 1.400 . S
C2197 C2198 1.398 1_455 S
C2198 H2186 0.950 . S
C2198 C2197 1.398 1_655 S
C2198 C2199 1.391 . S
C2199 H2187 0.950 . S
C2199 C2195 1.393 1_655 S
C2199 C2198 1.391 . S
H2200 C2208 0.950 . S
H2201 C2213 0.950 . S
H2202 C2210 0.950 . S
H2203 C2212 0.950 . S
H2204 C2214 0.950 . S
H2205 C2216 0.950 . S
H2206 C2218 0.950 . S
H2207 C2219 0.950 . S
C2208 H2200 0.950 . S
C2208 C2209 1.386 . S
C2208 C2210 1.391 . S
C2209 C2208 1.386 . S
C2209 C2213 1.393 . S
C2210 H2202 0.950 . S
C2210 C2208 1.391 . S
C2210 C2211 1.400 . S
C2211 C2210 1.400 . S
C2211 C2212 1.398 . S
C2211 C2217 1.491 . S
C2212 H2203 0.950 . S
C2212 C2211 1.398 . S
C2212 C2213 1.391 . S
C2213 H2201 0.950 . S
C2213 C2209 1.393 . S
C2213 C2212 1.391 . S
C2214 H2204 0.950 . S
C2214 C2215 1.386 . S
C2214 C2216 1.391 . S
C2215 C2214 1.386 . S
C2215 C2219 1.393 . S
C2216 H2205 0.950 . S
C2216 C2214 1.391 . S
C2216 C2217 1.400 . S
C2217 C2211 1.491 . S
C2217 C2216 1.400 . S
C2217 C2218 1.398 . S
C2218 H2206 0.950 . S
C2218 C2217 1.398 . S
C2218 C2219 1.391 . S
C2219 H2207 0.950 . S
C2219 C2215 1.393 . S
C2219 C2218 1.391 . S
H2220 C2228 0.950 . S
H2221 C2233 0.950 . S
H2222 C2230 0.950 . S
H2223 C2232 0.950 . S
H2224 C2234 0.950 . S
H2225 C2236 0.950 . S
H2226 C2238 0.950 . S
H2227 C2239 0.950 . S
C2228 H2220 0.950 . S
C2228 C2229 1.386 . S
C2228 C2230 1.391 . S
C2229 C2228 1.386 . S
C2229 C2233 1.393 . S
C2230 H2222 0.950 . S
C2230 C2228 1.391 . S
C2230 C2231 1.400 . S
C2231 C2230 1.400 . S
C2231 C2232 1.398 . S
C2231 C2237 1.491 . S
C2232 H2223 0.950 . S
C2232 C2231 1.398 . S
C2232 C2233 1.391 . S
C2233 H2221 0.950 . S
C2233 C2229 1.393 . S
C2233 C2232 1.391 . S
C2234 H2224 0.950 . S
C2234 C2235 1.386 . S
C2234 C2236 1.391 . S
C2235 C2234 1.386 . S
C2235 C2239 1.393 . S
C2236 H2225 0.950 . S
C2236 C2234 1.391 . S
C2236 C2237 1.400 . S
C2237 C2231 1.491 . S
C2237 C2236 1.400 . S
C2237 C2238 1.398 . S
C2238 H2226 0.950 . S
C2238 C2237 1.398 . S
C2238 C2239 1.391 . S
C2239 H2227 0.950 . S
C2239 C2235 1.393 . S
C2239 C2238 1.391 . S
H2240 C2248 0.950 . S
H2241 C2253 0.950 . S
H2242 C2250 0.950 . S
H2243 C2252 0.950 . S
H2244 C2254 0.950 . S
H2245 C2256 0.950 . S
H2246 C2258 0.950 . S
H2247 C2259 0.950 . S
C2248 H2240 0.950 . S
C2248 C2249 1.386 . S
C2248 C2250 1.391 . S
C2249 C2248 1.386 . S
C2249 C2253 1.393 . S
C2250 H2242 0.950 . S
C2250 C2248 1.391 . S
C2250 C2251 1.400 . S
C2251 C2250 1.400 . S
C2251 C2252 1.398 . S
C2251 C2257 1.491 . S
C2252 H2243 0.950 . S
C2252 C2251 1.398 . S
C2252 C2253 1.391 . S
C2253 H2241 0.950 . S
C2253 C2249 1.393 . S
C2253 C2252 1.391 . S
C2254 H2244 0.950 . S
C2254 C2255 1.386 . S
C2254 C2256 1.391 . S
C2255 C2254 1.386 . S
C2255 C2259 1.393 . S
C2256 H2245 0.950 . S
C2256 C2254 1.391 . S
C2256 C2257 1.400 . S
C2257 C2251 1.491 . S
C2257 C2256 1.400 . S
C2257 C2258 1.398 . S
C2258 H2246 0.950 . S
C2258 C2257 1.398 . S
C2258 C2259 1.391 . S
C2259 H2247 0.950 . S
C2259 C2255 1.393 . S
C2259 C2258 1.391 . S
H2260 C2268 0.950 . S
H2261 C2273 0.950 . S
H2262 C2270 0.950 . S
H2263 C2272 0.950 . S
H2264 C2274 0.950 . S
H2265 C2276 0.950 . S
H2266 C2278 0.950 . S
H2267 C2279 0.950 . S
C2268 H2260 0.950 . S
C2268 C2269 1.386 . S
C2268 C2270 1.391 . S
C2269 C2268 1.386 . S
C2269 C2273 1.393 . S
C2270 H2262 0.950 . S
C2270 C2268 1.391 . S
C2270 C2271 1.400 . S
C2271 C2270 1.400 . S
C2271 C2272 1.398 . S
C2271 C2277 1.491 . S
C2272 H2263 0.950 . S
C2272 C2271 1.398 . S
C2272 C2273 1.391 . S
C2273 H2261 0.950 . S
C2273 C2269 1.393 . S
C2273 C2272 1.391 . S
C2274 H2264 0.950 . S
C2274 C2275 1.386 . S
C2274 C2276 1.391 . S
C2275 C2274 1.386 . S
C2275 C2279 1.393 . S
C2276 H2265 0.950 . S
C2276 C2274 1.391 . S
C2276 C2277 1.400 . S
C2277 C2271 1.491 . S
C2277 C2276 1.400 . S
C2277 C2278 1.398 . S
C2278 H2266 0.950 . S
C2278 C2277 1.398 . S
C2278 C2279 1.391 . S
C2279 H2267 0.950 . S
C2279 C2275 1.393 . S
C2279 C2278 1.391 . S
H2280 C2288 0.950 . S
H2281 C2293 0.950 . S
H2282 C2290 0.950 . S
H2283 C2292 0.950 . S
H2284 C2294 0.950 . S
H2285 C2296 0.950 . S
H2286 C2298 0.950 . S
H2287 C2299 0.950 . S
C2288 H2280 0.950 . S
C2288 C2289 1.386 . S
C2288 C2290 1.391 . S
C2289 C2288 1.386 . S
C2289 C2293 1.393 1_545 S
C2290 H2282 0.950 . S
C2290 C2288 1.391 . S
C2290 C2291 1.400 . S
C2291 C2290 1.400 . S
C2291 C2292 1.398 1_545 S
C2291 C2297 1.491 . S
C2292 H2283 0.950 . S
C2292 C2291 1.398 1_565 S
C2292 C2293 1.391 . S
C2293 H2281 0.950 . S
C2293 C2289 1.393 1_565 S
C2293 C2292 1.391 . S
C2294 H2284 0.950 . S
C2294 C2295 1.386 1_565 S
C2294 C2296 1.391 . S
C2295 C2294 1.386 1_545 S
C2295 C2299 1.393 . S
C2296 H2285 0.950 . S
C2296 C2294 1.391 . S
C2296 C2297 1.400 1_565 S
C2297 C2291 1.491 . S
C2297 C2296 1.400 1_545 S
C2297 C2298 1.398 . S
C2298 H2286 0.950 . S
C2298 C2297 1.398 . S
C2298 C2299 1.391 . S
C2299 H2287 0.950 . S
C2299 C2295 1.393 . S
C2299 C2298 1.391 . S
H2300 C2308 0.950 . S
H2301 C2313 0.950 . S
H2302 C2310 0.950 . S
H2303 C2312 0.950 . S
H2304 C2314 0.950 . S
H2305 C2316 0.950 . S
H2306 C2318 0.950 . S
H2307 C2319 0.950 . S
C2308 H2300 0.950 . S
C2308 C2309 1.386 1_455 S
C2308 C2310 1.391 . S
C2309 C2308 1.386 1_655 S
C2309 C2313 1.393 . S
C2310 H2302 0.950 . S
C2310 C2308 1.391 . S
C2310 C2311 1.400 1_455 S
C2311 C2310 1.400 1_655 S
C2311 C2312 1.398 . S
C2311 C2317 1.491 . S
C2312 H2303 0.950 . S
C2312 C2311 1.398 . S
C2312 C2313 1.391 . S
C2313 H2301 0.950 . S
C2313 C2309 1.393 . S
C2313 C2312 1.391 . S
C2314 H2304 0.950 . S
C2314 C2315 1.386 . S
C2314 C2316 1.391 . S
C2315 C2314 1.386 . S
C2315 C2319 1.393 1_655 S
C2316 H2305 0.950 . S
C2316 C2314 1.391 . S
C2316 C2317 1.400 . S
C2317 C2311 1.491 . S
C2317 C2316 1.400 . S
C2317 C2318 1.398 1_655 S
C2318 H2306 0.950 . S
C2318 C2317 1.398 1_455 S
C2318 C2319 1.391 . S
C2319 H2307 0.950 . S
C2319 C2315 1.393 1_455 S
C2319 C2318 1.391 . S
H2320 C2328 0.950 . S
H2321 C2333 0.950 . S
H2322 C2330 0.950 . S
H2323 C2332 0.950 . S
H2324 C2334 0.950 . S
H2325 C2336 0.950 . S
H2326 C2338 0.950 . S
H2327 C2339 0.950 . S
C2328 H2320 0.950 . S
C2328 C2329 1.386 . S
C2328 C2330 1.391 . S
C2329 C2328 1.386 . S
C2329 C2333 1.393 . S
C2330 H2322 0.950 . S
C2330 C2328 1.391 . S
C2330 C2331 1.400 . S
C2331 C2330 1.400 . S
C2331 C2332 1.398 . S
C2331 C2337 1.491 . S
C2332 H2323 0.950 . S
C2332 C2331 1.398 . S
C2332 C2333 1.391 . S
C2333 H2321 0.950 . S
C2333 C2329 1.393 . S
C2333 C2332 1.391 . S
C2334 H2324 0.950 . S
C2334 C2335 1.386 . S
C2334 C2336 1.391 . S
C2335 C2334 1.386 . S
C2335 C2339 1.393 . S
C2336 H2325 0.950 . S
C2336 C2334 1.391 . S
C2336 C2337 1.400 . S
C2337 C2331 1.491 . S
C2337 C2336 1.400 . S
C2337 C2338 1.398 . S
C2338 H2326 0.950 . S
C2338 C2337 1.398 . S
C2338 C2339 1.391 . S
C2339 H2327 0.950 . S
C2339 C2335 1.393 . S
C2339 C2338 1.391 . S
H2340 C2348 0.950 . S
H2341 C2353 0.950 . S
H2342 C2350 0.950 . S
H2343 C2352 0.950 . S
H2344 C2354 0.950 . S
H2345 C2356 0.950 . S
H2346 C2358 0.950 . S
H2347 C2359 0.950 . S
C2348 H2340 0.950 . S
C2348 C2349 1.386 . S
C2348 C2350 1.391 . S
C2349 C2348 1.386 . S
C2349 C2353 1.393 . S
C2350 H2342 0.950 . S
C2350 C2348 1.391 . S
C2350 C2351 1.400 . S
C2351 C2350 1.400 . S
C2351 C2352 1.398 . S
C2351 C2357 1.491 . S
C2352 H2343 0.950 . S
C2352 C2351 1.398 . S
C2352 C2353 1.391 . S
C2353 H2341 0.950 . S
C2353 C2349 1.393 . S
C2353 C2352 1.391 . S
C2354 H2344 0.950 . S
C2354 C2355 1.386 . S
C2354 C2356 1.391 . S
C2355 C2354 1.386 . S
C2355 C2359 1.393 . S
C2356 H2345 0.950 . S
C2356 C2354 1.391 . S
C2356 C2357 1.400 . S
C2357 C2351 1.491 . S
C2357 C2356 1.400 . S
C2357 C2358 1.398 . S
C2358 H2346 0.950 . S
C2358 C2357 1.398 . S
C2358 C2359 1.391 . S
C2359 H2347 0.950 . S
C2359 C2355 1.393 . S
C2359 C2358 1.391 . S
H2360 C2368 0.950 . S
H2361 C2373 0.950 . S
H2362 C2370 0.950 . S
H2363 C2372 0.950 . S
H2364 C2374 0.950 . S
H2365 C2376 0.950 . S
H2366 C2378 0.950 . S
H2367 C2379 0.950 . S
C2368 H2360 0.950 . S
C2368 C2369 1.386 . S
C2368 C2370 1.391 . S
C2369 C2368 1.386 . S
C2369 C2373 1.393 . S
C2370 H2362 0.950 . S
C2370 C2368 1.391 . S
C2370 C2371 1.400 . S
C2371 C2370 1.400 . S
C2371 C2372 1.398 . S
C2371 C2377 1.491 . S
C2372 H2363 0.950 . S
C2372 C2371 1.398 . S
C2372 C2373 1.391 . S
C2373 H2361 0.950 . S
C2373 C2369 1.393 . S
C2373 C2372 1.391 . S
C2374 H2364 0.950 . S
C2374 C2375 1.386 . S
C2374 C2376 1.391 . S
C2375 C2374 1.386 . S
C2375 C2379 1.393 . S
C2376 H2365 0.950 . S
C2376 C2374 1.391 . S
C2376 C2377 1.400 . S
C2377 C2371 1.491 . S
C2377 C2376 1.400 . S
C2377 C2378 1.398 . S
C2378 H2366 0.950 . S
C2378 C2377 1.398 . S
C2378 C2379 1.391 . S
C2379 H2367 0.950 . S
C2379 C2375 1.393 . S
C2379 C2378 1.391 . S
H2380 C2388 0.950 . S
H2381 C2393 0.950 . S
H2382 C2390 0.950 . S
H2383 C2392 0.950 . S
H2384 C2394 0.950 . S
H2385 C2396 0.950 . S
H2386 C2398 0.950 . S
H2387 C2399 0.950 . S
C2388 H2380 0.950 . S
C2388 C2389 1.386 . S
C2388 C2390 1.391 . S
C2389 C2388 1.386 . S
C2389 C2393 1.393 . S
C2390 H2382 0.950 . S
C2390 C2388 1.391 . S
C2390 C2391 1.400 . S
C2391 C2390 1.400 . S
C2391 C2392 1.398 . S
C2391 C2397 1.491 . S
C2392 H2383 0.950 . S
C2392 C2391 1.398 . S
C2392 C2393 1.391 . S
C2393 H2381 0.950 . S
C2393 C2389 1.393 . S
C2393 C2392 1.391 . S
C2394 H2384 0.950 . S
C2394 C2395 1.386 . S
C2394 C2396 1.391 . S
C2395 C2394 1.386 . S
C2395 C2399 1.393 . S
C2396 H2385 0.950 . S
C2396 C2394 1.391 . S
C2396 C2397 1.400 . S
C2397 C2391 1.491 . S
C2397 C2396 1.400 . S
C2397 C2398 1.398 . S
C2398 H2386 0.950 . S
C2398 C2397 1.398 . S
C2398 C2399 1.391 . S
C2399 H2387 0.950 . S
C2399 C2395 1.393 . S
C2399 C2398 1.391 . S
H2400 C2408 0.950 . S
H2401 C2413 0.950 . S
H2402 C2410 0.950 . S
H2403 C2412 0.950 . S
H2404 C2414 0.950 . S
H2405 C2416 0.950 . S
H2406 C2418 0.950 . S
H2407 C2419 0.950 . S
C2408 H2400 0.950 . S
C2408 C2409 1.386 . S
C2408 C2410 1.391 . S
C2409 C2408 1.386 . S
C2409 C2413 1.393 . S
C2410 H2402 0.950 . S
C2410 C2408 1.391 . S
C2410 C2411 1.400 . S
C2411 C2410 1.400 . S
C2411 C2412 1.398 . S
C2411 C2417 1.491 . S
C2412 H2403 0.950 . S
C2412 C2411 1.398 . S
C2412 C2413 1.391 . S
C2413 H2401 0.950 . S
C2413 C2409 1.393 . S
C2413 C2412 1.391 . S
C2414 H2404 0.950 . S
C2414 C2415 1.386 . S
C2414 C2416 1.391 . S
C2415 C2414 1.386 . S
C2415 C2419 1.393 . S
C2416 H2405 0.950 . S
C2416 C2414 1.391 . S
C2416 C2417 1.400 . S
C2417 C2411 1.491 . S
C2417 C2416 1.400 . S
C2417 C2418 1.398 . S
C2418 H2406 0.950 . S
C2418 C2417 1.398 . S
C2418 C2419 1.391 . S
C2419 H2407 0.950 . S
C2419 C2415 1.393 . S
C2419 C2418 1.391 . S
H2420 C2428 0.950 . S
H2421 C2433 0.950 . S
H2422 C2430 0.950 . S
H2423 C2432 0.950 . S
H2424 C2434 0.950 . S
H2425 C2436 0.950 . S
H2426 C2438 0.950 . S
H2427 C2439 0.950 . S
C2428 H2420 0.950 . S
C2428 C2429 1.386 . S
C2428 C2430 1.391 . S
C2429 C2428 1.386 . S
C2429 C2433 1.393 . S
C2430 H2422 0.950 . S
C2430 C2428 1.391 . S
C2430 C2431 1.400 . S
C2431 C2430 1.400 . S
C2431 C2432 1.398 . S
C2431 C2437 1.491 . S
C2432 H2423 0.950 . S
C2432 C2431 1.398 . S
C2432 C2433 1.391 . S
C2433 H2421 0.950 . S
C2433 C2429 1.393 . S
C2433 C2432 1.391 . S
C2434 H2424 0.950 . S
C2434 C2435 1.386 . S
C2434 C2436 1.391 . S
C2435 C2434 1.386 . S
C2435 C2439 1.393 . S
C2436 H2425 0.950 . S
C2436 C2434 1.391 . S
C2436 C2437 1.400 . S
C2437 C2431 1.491 . S
C2437 C2436 1.400 . S
C2437 C2438 1.398 . S
C2438 H2426 0.950 . S
C2438 C2437 1.398 . S
C2438 C2439 1.391 . S
C2439 H2427 0.950 . S
C2439 C2435 1.393 . S
C2439 C2438 1.391 . S
H2440 C2448 0.950 . S
H2441 C2453 0.950 . S
H2442 C2450 0.950 . S
H2443 C2452 0.950 . S
H2444 C2454 0.950 . S
H2445 C2456 0.950 . S
H2446 C2458 0.950 . S
H2447 C2459 0.950 . S
C2448 H2440 0.950 . S
C2448 C2449 1.386 . S
C2448 C2450 1.391 . S
C2449 C2448 1.386 . S
C2449 C2453 1.393 . S
C2450 H2442 0.950 . S
C2450 C2448 1.391 . S
C2450 C2451 1.400 . S
C2451 C2450 1.400 . S
C2451 C2452 1.398 . S
C2451 C2457 1.491 . S
C2452 H2443 0.950 . S
C2452 C2451 1.398 . S
C2452 C2453 1.391 . S
C2453 H2441 0.950 . S
C2453 C2449 1.393 . S
C2453 C2452 1.391 . S
C2454 H2444 0.950 . S
C2454 C2455 1.386 . S
C2454 C2456 1.391 . S
C2455 C2454 1.386 . S
C2455 C2459 1.393 . S
C2456 H2445 0.950 . S
C2456 C2454 1.391 . S
C2456 C2457 1.400 . S
C2457 C2451 1.491 . S
C2457 C2456 1.400 . S
C2457 C2458 1.398 . S
C2458 H2446 0.950 . S
C2458 C2457 1.398 . S
C2458 C2459 1.391 . S
C2459 H2447 0.950 . S
C2459 C2455 1.393 . S
C2459 C2458 1.391 . S
H2460 C2468 0.950 . S
H2461 C2473 0.950 1_455 S
H2462 C2470 0.950 . S
H2463 C2472 0.903 1_455 S
H2464 C2474 0.950 . S
H2465 C2476 0.950 . S
H2466 C2478 0.950 . S
H2467 C2479 0.950 . S
C2468 H2460 0.950 . S
C2468 C2469 1.386 . S
C2468 C2470 1.391 . S
C2469 C2468 1.386 . S
C2469 C2473 1.393 . S
C2470 H2462 0.950 . S
C2470 C2468 1.391 . S
C2470 C2471 1.400 . S
C2471 C2470 1.400 . S
C2471 C2472 1.414 . S
C2471 C2477 1.491 . S
C2472 H2463 0.903 1_655 S
C2472 C2471 1.414 . S
C2472 C2473 1.427 . S
C2473 H2461 0.950 1_655 S
C2473 C2469 1.393 . S
C2473 C2472 1.427 . S
C2474 H2464 0.950 . S
C2474 C2475 1.386 1_455 S
C2474 C2476 1.391 . S
C2475 C2474 1.386 1_655 S
C2475 C2479 1.393 . S
C2476 H2465 0.950 . S
C2476 C2474 1.391 . S
C2476 C2477 1.400 1_455 S
C2477 C2471 1.491 . S
C2477 C2476 1.400 1_655 S
C2477 C2478 1.398 . S
C2478 H2466 0.950 . S
C2478 C2477 1.398 . S
C2478 C2479 1.391 . S
C2479 H2467 0.950 . S
C2479 C2475 1.393 . S
C2479 C2478 1.391 . S
H2480 C2488 0.950 . S
H2481 C2493 0.950 . S
H2482 C2490 0.950 . S
H2483 C2492 0.950 . S
H2484 C2494 0.950 . S
H2485 C2496 0.950 . S
H2486 C2498 0.950 . S
H2487 C2499 0.950 . S
C2488 H2480 0.950 . S
C2488 C2489 1.386 . S
C2488 C2490 1.391 . S
C2489 C2488 1.386 . S
C2489 C2493 1.393 . S
C2490 H2482 0.950 . S
C2490 C2488 1.391 . S
C2490 C2491 1.400 . S
C2491 C2490 1.400 . S
C2491 C2492 1.398 . S
C2491 C2497 1.491 . S
C2492 H2483 0.950 . S
C2492 C2491 1.398 . S
C2492 C2493 1.391 . S
C2493 H2481 0.950 . S
C2493 C2489 1.393 . S
C2493 C2492 1.391 . S
C2494 H2484 0.950 . S
C2494 C2495 1.386 . S
C2494 C2496 1.391 . S
C2495 C2494 1.386 . S
C2495 C2499 1.393 . S
C2496 H2485 0.950 . S
C2496 C2494 1.391 . S
C2496 C2497 1.400 . S
C2497 C2491 1.491 . S
C2497 C2496 1.400 . S
C2497 C2498 1.398 . S
C2498 H2486 0.950 . S
C2498 C2497 1.398 . S
C2498 C2499 1.391 . S
C2499 H2487 0.950 . S
C2499 C2495 1.393 . S
C2499 C2498 1.391 . S
H2500 C2508 0.950 . S
H2501 C2513 0.950 . S
H2502 C2510 0.950 . S
H2503 C2512 0.950 . S
H2504 C2514 0.950 . S
H2505 C2516 0.950 . S
H2506 C2518 0.950 . S
H2507 C2519 0.950 . S
C2508 H2500 0.950 . S
C2508 C2509 1.386 . S
C2508 C2510 1.391 . S
C2509 C2508 1.386 . S
C2509 C2513 1.393 . S
C2510 H2502 0.950 . S
C2510 C2508 1.391 . S
C2510 C2511 1.400 . S
C2511 C2510 1.400 . S
C2511 C2512 1.398 . S
C2511 C2517 1.491 . S
C2512 H2503 0.950 . S
C2512 C2511 1.398 . S
C2512 C2513 1.391 . S
C2513 H2501 0.950 . S
C2513 C2509 1.393 . S
C2513 C2512 1.391 . S
C2514 H2504 0.950 . S
C2514 C2515 1.386 . S
C2514 C2516 1.391 . S
C2515 C2514 1.386 . S
C2515 C2519 1.393 . S
C2516 H2505 0.950 . S
C2516 C2514 1.391 . S
C2516 C2517 1.400 . S
C2517 C2511 1.491 . S
C2517 C2516 1.400 . S
C2517 C2518 1.398 . S
C2518 H2506 0.950 . S
C2518 C2517 1.398 . S
C2518 C2519 1.391 . S
C2519 H2507 0.950 . S
C2519 C2515 1.393 . S
C2519 C2518 1.391 . S
C1089 C9 1.422 1_655 S
C1095 C688 1.452 . S
C1109 C19 1.579 . S
C1115 C734 1.565 . S
C1135 C766 1.502 . S
C1129 C33 1.497 . S
C1149 C37 1.421 1_565 S
C1155 C819 1.473 . S
C1169 C5 1.441 . S
C1175 C865 1.456 . S
C1189 C23 1.615 . S
C1195 C904 1.604 . S
C1209 C47 1.464 . S
C1215 C858 1.466 . S
C1235 C911 1.625 . S
C1229 C65 1.628 . S
C1255 C812 1.469 . S
C1249 C75 1.463 . S
C1269 C79 1.406 . S
C1275 C773 1.408 . S
C1295 C667 1.489 . S
C1289 C51 1.479 . S
C1309 C61 1.597 . S
C1315 C713 1.578 . S
C1329 C93 1.718 . S
C1335 C943 1.704 . S
C1349 C103 1.650 . S
C1355 C1010 1.623 . S
C1375 C1056 1.633 . S
C1369 C117 1.663 . S
C1389 C121 1.619 . S
C1395 C267 1.600 . S
C1409 C89 1.644 . S
C1415 C313 1.613 . S
C1429 C107 1.666 . S
C1435 C359 1.626 . S
C1449 C131 1.600 . S
C1455 C306 1.568 . S
C1469 C149 1.673 . S
C1475 C352 1.648 . S
C1495 C260 1.617 . S
C1489 C159 1.638 . S
C1515 C1035 1.652 . S
C1509 C163 1.689 . S
C1535 C964 1.676 . S
C1529 C135 1.690 . S
C1555 C989 1.654 . S
C1549 C145 1.674 . S
C1569 C177 1.619 . S
C1575 C391 1.605 . S
C1589 C187 1.614 . S
C1595 C444 1.605 . S
C1609 C201 1.672 . S
C1615 C490 1.667 . S
C1629 C205 1.722 . S
C1635 C536 1.700 . S
C1655 C589 1.614 . S
C1649 C173 1.637 . S
C1675 C635 1.665 . S
C1669 C191 1.702 . S
C1695 C582 1.681 . S
C1689 C215 1.707 . S
C1715 C628 1.682 . S
C1709 C233 1.712 . S
C1729 C243 1.625 . S
C1735 C543 1.612 . S
C1755 C497 1.567 . S
C1749 C247 1.576 . S
C1769 C219 1.697 . S
C1775 C412 1.689 . S
C1795 C451 1.639 . S
C1789 C229 1.652 . S
C1815 C274 1.590 . S
C1809 C11 1.601 . S
C1829 C14 1.533 . S
C1835 C320 1.515 . S
C1855 C366 1.663 . S
C1849 C28 1.686 . S
C1875 C398 1.633 . S
C1869 C39 1.673 . S
C1895 C437 1.589 . S
C1889 C0 1.625 . S
C1915 C483 1.468 . S
C1909 C25 1.495 . S
C1929 C42 1.676 . S
C1935 C504 1.638 . S
C1949 C67 1.551 . S
C1955 C405 1.509 . S
C1969 C70 1.572 . S
C1975 C458 1.531 . S
C1989 C81 1.594 . S
C1995 C299 1.581 . S
C2015 C345 1.626 . S
C2009 C53 1.654 . S
C2029 C56 1.571 . S
C2035 C253 1.558 . S
C2055 C529 1.521 . S
C2049 C95 1.553 . S
C2069 C98 1.659 . S
C2075 C596 1.650 . S
C2089 C112 1.732 . S
C2095 C642 1.707 . S
C2115 C681 1.421 . S
C2109 C123 1.417 . S
C2129 C84 1.583 . S
C2135 C727 1.574 . S
C2149 C109 1.357 . S
C2155 C759 1.360 . S
C2169 C126 1.432 . S
C2175 C780 1.448 . S
C2189 C151 1.400 . S
C2195 C674 1.408 . S
C2215 C720 1.545 . S
C2209 C154 1.554 . S
C2229 C165 1.543 . S
C2235 C575 1.517 . S
C2249 C137 1.683 . S
C2255 C621 1.657 . S
C2275 C550 1.666 . S
C2269 C140 1.700 . S
C2295 C826 1.399 . S
C2289 C179 1.383 . S
C2309 C182 1.387 . S
C2315 C872 1.398 . S
C2329 C196 1.647 . S
C2335 C897 1.612 . S
C2355 C950 1.592 . S
C2349 C207 1.624 . S
C2375 C1003 1.644 . S
C2369 C168 1.655 . S
C2389 C193 1.633 . S
C2395 C1049 1.614 . S
C2409 C210 1.639 . S
C2415 C1042 1.617 . S
C2429 C235 1.681 . S
C2435 C957 1.657 . S
C2455 C996 1.614 . S
C2449 C238 1.622 . S
C2475 C851 1.354 . S
C2469 C249 1.340 . S
C2495 C918 1.569 . S
C2489 C221 1.608 . S
C2509 C224 1.410 . S
C2515 C805 1.429 . S
