# Generated by pormake.
# Topology cml, (3,6)-cn, num edge types: 1
# Building blocks:
#     Node 0, Type 0, BuildingBlock: CUQRIR_clean_linker_1, # of connection points: 3
#     Node 1, Type 0, BuildingBlock: CUQRIR_clean_linker_1, # of connection points: 3
#     Node 2, Type 0, BuildingBlock: CUQRIR_clean_linker_1, # of connection points: 3
#     Node 3, Type 0, BuildingBlock: CUQRIR_clean_linker_1, # of connection points: 3
#     Node 4, Type 0, BuildingBlock: CUQRIR_clean_linker_1, # of connection points: 3
#     Node 5, Type 0, BuildingBlock: CUQRIR_clean_linker_1, # of connection points: 3
#     Node 6, Type 0, BuildingBlock: CUQRIR_clean_linker_1, # of connection points: 3
#     Node 7, Type 0, BuildingBlock: CUQRIR_clean_linker_1, # of connection points: 3
#     Node 8, Type 1, BuildingBlock: IZENUY_clean_sbu_0, # of connection points: 6
#     Node 9, Type 1, BuildingBlock: IZENUY_clean_sbu_0, # of connection points: 6
#     Node 10, Type 1, BuildingBlock: IZENUY_clean_sbu_0, # of connection points: 6
#     Node 11, Type 1, BuildingBlock: IZENUY_clean_sbu_0, # of connection points: 6
#     Edge 12, Type (0, 1), BuildingBlock: XIVTED_clean_linker_0, # of connection points: 2
#     Edge 13, Type (0, 1), BuildingBlock: XIVTED_clean_linker_0, # of connection points: 2
#     Edge 14, Type (0, 1), BuildingBlock: XIVTED_clean_linker_0, # of connection points: 2
#     Edge 15, Type (0, 1), BuildingBlock: XIVTED_clean_linker_0, # of connection points: 2
#     Edge 16, Type (0, 1), BuildingBlock: XIVTED_clean_linker_0, # of connection points: 2
#     Edge 17, Type (0, 1), BuildingBlock: XIVTED_clean_linker_0, # of connection points: 2
#     Edge 18, Type (0, 1), BuildingBlock: XIVTED_clean_linker_0, # of connection points: 2
#     Edge 19, Type (0, 1), BuildingBlock: XIVTED_clean_linker_0, # of connection points: 2
#     Edge 20, Type (0, 1), BuildingBlock: XIVTED_clean_linker_0, # of connection points: 2
#     Edge 21, Type (0, 1), BuildingBlock: XIVTED_clean_linker_0, # of connection points: 2
#     Edge 22, Type (0, 1), BuildingBlock: XIVTED_clean_linker_0, # of connection points: 2
#     Edge 23, Type (0, 1), BuildingBlock: XIVTED_clean_linker_0, # of connection points: 2
#     Edge 24, Type (0, 1), BuildingBlock: XIVTED_clean_linker_0, # of connection points: 2
#     Edge 25, Type (0, 1), BuildingBlock: XIVTED_clean_linker_0, # of connection points: 2
#     Edge 26, Type (0, 1), BuildingBlock: XIVTED_clean_linker_0, # of connection points: 2
#     Edge 27, Type (0, 1), BuildingBlock: XIVTED_clean_linker_0, # of connection points: 2
#     Edge 28, Type (0, 1), BuildingBlock: XIVTED_clean_linker_0, # of connection points: 2
#     Edge 29, Type (0, 1), BuildingBlock: XIVTED_clean_linker_0, # of connection points: 2
#     Edge 30, Type (0, 1), BuildingBlock: XIVTED_clean_linker_0, # of connection points: 2
#     Edge 31, Type (0, 1), BuildingBlock: XIVTED_clean_linker_0, # of connection points: 2
#     Edge 32, Type (0, 1), BuildingBlock: XIVTED_clean_linker_0, # of connection points: 2
#     Edge 33, Type (0, 1), BuildingBlock: XIVTED_clean_linker_0, # of connection points: 2
#     Edge 34, Type (0, 1), BuildingBlock: XIVTED_clean_linker_0, # of connection points: 2
#     Edge 35, Type (0, 1), BuildingBlock: XIVTED_clean_linker_0, # of connection points: 2
# Relax obj value: 0.001
# Max RMSD: 0.077
# Mean RMSD: 0.057
data_MOF--net-cml--node1-IZENUY_clean_sbu_0--node2-CUQRIR_clean_linker_1--edge1-XIVTED_clean_linker_0
_symmetry_space_group_name_H-M    P1
_symmetry_Int_Tables_number       1
_symmetry_cell_setting            triclinic
loop_
_symmetry_equiv_pos_as_xyz
'x, y, z'
_cell_length_a     36.527598
_cell_length_b     37.752992
_cell_length_c     32.163289
_cell_angle_alpha  89.912696
_cell_angle_beta   89.810182
_cell_angle_gamma 89.476819
loop_
_atom_site_label
_atom_site_type_symbol
_atom_site_fract_x
_atom_site_fract_y
_atom_site_fract_z
_atom_type_partial_charge
C0 C 0.23491 0.36435 0.04718 0.0
N1 N 0.26095 0.38967 0.04738 0.0
N2 N 0.21975 0.36165 1.00892 0.0
C3 C 0.22691 0.33997 0.08308 0.0
C4 C 0.23754 0.38619 0.98594 0.0
N5 N 0.26297 0.40285 1.00911 0.0
C6 C 0.22813 0.39564 0.94172 0.0
H7 H 0.21844 0.31351 0.07191 0.0
H8 H 0.2042 0.35151 0.1018 0.0
H9 H 0.25113 0.3368 0.10352 0.0
H10 H 0.19896 0.39 0.93516 0.0
H11 H 0.24533 0.37957 0.92027 0.0
H12 H 0.23345 0.42406 0.93554 0.0
C13 C 0.73595 0.66973 0.54866 0.0
N14 N 0.70772 0.64678 0.549 0.0
N15 N 0.75039 0.67253 0.50991 0.0
C16 C 0.74784 0.69111 0.58554 0.0
C17 C 0.72969 0.65055 0.48662 0.0
N18 N 0.70348 0.63524 0.51034 0.0
C19 C 0.73363 0.64567 0.44032 0.0
H20 H 0.72906 0.71417 0.58918 0.0
H21 H 0.77619 0.70085 0.58145 0.0
H22 H 0.7463 0.67506 0.61439 0.0
H23 H 0.7623 0.64867 0.42987 0.0
H24 H 0.71689 0.66616 0.42428 0.0
H25 H 0.72401 0.61915 0.43068 0.0
C26 C 0.72755 0.35423 0.05593 0.0
N27 N 0.70102 0.37962 0.05613 0.0
N28 N 0.74441 0.35291 1.01841 0.0
C29 C 0.73623 0.33 0.09188 0.0
C30 C 0.72709 0.37807 0.99562 0.0
N31 N 0.70051 0.39412 1.0184 0.0
C32 C 0.73519 0.386 0.95065 0.0
H33 H 0.75391 0.34421 0.11418 0.0
H34 H 0.75111 0.30579 0.08183 0.0
H35 H 0.71075 0.32229 0.1083 0.0
H36 H 0.71792 0.3689 0.93088 0.0
H37 H 0.76421 0.38041 0.94279 0.0
H38 H 0.72881 0.41409 0.94322 0.0
C39 C 0.23136 0.68394 0.5595 0.0
N40 N 0.25688 0.65769 0.56113 0.0
N41 N 0.21208 0.68216 0.52361 0.0
C42 C 0.22587 0.71207 0.59216 0.0
C43 C 0.22695 0.65389 0.50356 0.0
N44 N 0.25403 0.63895 0.5264 0.0
C45 C 0.21488 0.64045 0.46186 0.0
H46 H 0.20098 0.70586 0.61049 0.0
H47 H 0.22162 0.73831 0.57725 0.0
H48 H 0.2491 0.71358 0.61406 0.0
H49 H 0.23187 0.6528 0.43724 0.0
H50 H 0.18571 0.64722 0.4561 0.0
H51 H 0.21879 0.61131 0.45993 0.0
C52 C 0.73559 0.86276 0.05082 0.0
N53 N 0.76196 0.88775 0.0508 0.0
N54 N 0.72011 0.8603 1.01271 0.0
C55 C 0.72746 0.83851 0.08679 0.0
C56 C 0.73802 0.88467 0.98959 0.0
N57 N 0.76385 0.90098 1.01254 0.0
C58 C 0.72834 0.89435 0.94552 0.0
H59 H 0.71837 0.81222 0.07571 0.0
H60 H 0.70516 0.85044 0.10579 0.0
H61 H 0.75182 0.8349 0.10692 0.0
H62 H 0.69905 0.88903 0.93925 0.0
H63 H 0.7452 0.8782 0.92382 0.0
H64 H 0.7339 0.92274 0.93939 0.0
C65 C 0.23017 0.17559 0.54899 0.0
N66 N 0.20354 0.15086 0.54935 0.0
N67 N 0.24566 0.17784 0.51072 0.0
C68 C 0.23852 0.19986 0.58473 0.0
C69 C 0.22742 0.15362 0.48791 0.0
N70 N 0.20145 0.13758 0.5112 0.0
C71 C 0.23687 0.14383 0.44378 0.0
H72 H 0.24742 0.22618 0.57337 0.0
H73 H 0.26104 0.18801 0.60334 0.0
H74 H 0.21435 0.20341 0.60532 0.0
H75 H 0.26621 0.1488 0.43718 0.0
H76 H 0.22017 0.16019 0.42219 0.0
H77 H 0.23091 0.11552 0.43781 0.0
C78 C 0.22982 0.85508 0.05705 0.0
N79 N 0.20329 0.88048 0.05787 0.0
N80 N 0.2466 0.85431 1.01943 0.0
C81 C 0.23858 0.83031 0.09245 0.0
C82 C 0.22921 0.8798 0.99723 0.0
N83 N 0.20268 0.89553 1.02043 0.0
C84 C 0.23717 0.8884 0.95239 0.0
H85 H 0.25637 0.84415 0.11496 0.0
H86 H 0.25339 0.80623 0.08185 0.0
H87 H 0.21314 0.82241 0.10883 0.0
H88 H 0.22004 0.87141 0.93233 0.0
H89 H 0.26622 0.88315 0.94439 0.0
H90 H 0.23056 0.91653 0.94546 0.0
C91 C 0.7374 0.19111 0.55324 0.0
N92 N 0.76354 0.16551 0.55578 0.0
N93 N 0.71919 0.18894 0.51671 0.0
C94 C 0.72755 0.21637 0.58776 0.0
C95 C 0.73489 0.16074 0.49733 0.0
N96 N 0.7616 0.14633 0.52125 0.0
C97 C 0.72644 0.14927 0.45365 0.0
H98 H 0.69813 0.22384 0.58643 0.0
H99 H 0.74397 0.24079 0.58441 0.0
H100 H 0.73352 0.20442 0.61857 0.0
H101 H 0.71666 0.17197 0.43463 0.0
H102 H 0.70458 0.12907 0.45471 0.0
H103 H 0.75087 0.13726 0.43848 0.0
Fe104 Fe -0.01926 0.86359 0.34102 0.0
Fe105 Fe 0.97539 0.90507 0.42331 0.0
O106 O 0.97759 0.90437 0.36816 0.0
Fe107 Fe 0.97689 0.94471 0.33963 0.0
O108 O 0.93484 0.9325 0.31328 0.0
O109 O 0.95449 0.87928 0.29586 0.0
O110 O 0.93796 0.84811 0.36292 0.0
C111 C 0.93024 0.84711 0.4012 0.0
C112 C 0.02785 0.90277 0.2945 0.0
O113 O 0.94828 0.86461 0.42759 0.0
C114 C 0.02335 0.96151 0.40302 0.0
O115 O 0.00739 0.84046 0.38084 0.0
O116 O 0.01823 0.88068 0.42846 0.0
O117 O 0.00508 0.92817 0.29621 0.0
O118 O 0.02404 0.87596 0.31742 0.0
C119 C 0.92793 0.95945 0.40634 0.0
O120 O 0.00236 0.94568 0.42832 0.0
O121 O 0.01873 0.95923 0.36419 0.0
C122 C 0.02591 0.85163 0.41111 0.0
O123 O 0.93224 0.92955 0.42316 0.0
O124 O 0.94898 0.96935 0.37741 0.0
C125 C 0.93227 0.90496 0.29124 0.0
Fe126 Fe -0.01365 0.1351 0.92258 0.0
Fe127 Fe -0.01473 0.09681 0.83824 0.0
O128 O -0.01393 0.13654 0.86746 0.0
Fe129 Fe -0.01353 0.17803 0.84165 0.0
O130 O 0.03006 0.18926 0.86483 0.0
O131 O 0.01392 0.1752 0.92859 0.0
O132 O 0.02882 0.10972 0.92347 0.0
C133 C 0.03354 0.08045 0.90516 0.0
C134 C 0.93914 0.19041 0.90993 0.0
O135 O 0.01291 0.07133 0.87549 0.0
C136 C 0.937 0.14283 0.79397 0.0
O137 O 0.95895 0.09493 0.92678 0.0
O138 O 0.94287 0.08288 0.8626 0.0
O139 O 0.96077 0.2018 0.88227 0.0
O140 O 0.9437 0.16003 0.92549 0.0
C141 C 0.03211 0.13536 0.79022 0.0
O142 O 0.95718 0.11536 0.79593 0.0
O143 O 0.94306 0.16933 0.81675 0.0
C144 C 0.9379 0.07996 0.90128 0.0
O145 O 0.02777 0.1076 0.81149 0.0
O146 O 0.01187 0.16223 0.79604 0.0
C147 C 0.03531 0.1907 0.90354 0.0
Fe148 Fe 0.47745 0.36462 0.33906 0.0
Fe149 Fe 0.4762 0.40608 0.42093 0.0
O150 O 0.47612 0.40557 0.36581 0.0
Fe151 Fe 0.47493 0.4457 0.33715 0.0
O152 O 0.43248 0.43359 0.31145 0.0
O153 O 0.45149 0.3804 0.2939 0.0
O154 O 0.43432 0.35139 0.36216 0.0
C155 C 0.4288 0.34941 0.40088 0.0
C156 C 0.52502 0.40264 0.2918 0.0
O157 O 0.44946 0.36526 0.42629 0.0
C158 C 0.52267 0.46315 0.39926 0.0
O159 O 0.5037 0.34075 0.37887 0.0
O160 O 0.51952 0.38195 0.42301 0.0
O161 O 0.50287 0.42864 0.29374 0.0
O162 O 0.52074 0.37568 0.31452 0.0
C163 C 0.42727 0.45992 0.40546 0.0
O164 O 0.50282 0.44683 0.42518 0.0
O165 O 0.51708 0.46077 0.36066 0.0
C166 C 0.52483 0.35194 0.40685 0.0
O167 O 0.43308 0.43053 0.42315 0.0
O168 O 0.44712 0.46991 0.37538 0.0
C169 C 0.42957 0.40622 0.28929 0.0
Fe170 Fe 0.48665 0.63658 0.92045 0.0
Fe171 Fe 0.48639 0.59746 0.83667 0.0
O172 O 0.48692 0.63751 0.8653 0.0
Fe173 Fe 0.48769 0.67877 0.8389 0.0
O174 O 0.53095 0.69019 0.86266 0.0
O175 O 0.51416 0.67674 0.92637 0.0
O176 O 0.52911 0.61122 0.92221 0.0
C177 C 0.53395 0.58175 0.90441 0.0
C178 C 0.43955 0.69176 0.90649 0.0
O179 O 0.51355 0.57233 0.87468 0.0
C180 C 0.43873 0.64302 0.79105 0.0
O181 O 0.45917 0.59645 0.92483 0.0
O182 O 0.44369 0.58389 0.8606 0.0
O183 O 0.46134 0.70292 0.8788 0.0
O184 O 0.44402 0.66154 0.92246 0.0
C185 C 0.53412 0.63547 0.789 0.0
O186 O 0.45881 0.61554 0.79374 0.0
O187 O 0.44468 0.66991 0.81322 0.0
C188 C 0.43833 0.58129 0.89924 0.0
O189 O 0.52919 0.6079 0.81042 0.0
O190 O 0.51385 0.66248 0.79399 0.0
C191 C 0.53584 0.69193 0.90141 0.0
H192 H 0.22756 0.31887 0.94234 0.0
H193 H 0.04122 0.21599 0.9828 0.0
H194 H 0.15411 0.34532 0.04282 0.0
H195 H 0.09378 0.21965 0.86243 0.0
H196 H 0.08687 0.25695 1.00945 0.0
H197 H 0.18302 0.27616 0.91645 0.0
C198 C 0.20186 0.31575 0.95872 0.0
C199 C 0.19411 0.33579 0.99438 0.0
C200 C 0.08839 0.24875 0.97723 0.0
C201 C 0.14357 0.28658 0.96574 0.0
C202 C 0.06248 0.22524 0.962 0.0
C203 C 0.06363 0.21445 0.92024 0.0
C204 C 0.11598 0.26121 0.95071 0.0
C205 C 0.09175 0.22743 0.89475 0.0
C206 C 0.17659 0.29134 0.94412 0.0
C207 C 0.16097 0.3302 1.01528 0.0
N208 N 0.11691 0.25006 0.91043 0.0
N209 N 0.13684 0.30602 1.00068 0.0
H210 H 0.81469 0.65792 0.47157 0.0
H211 H 0.88592 0.85504 0.46891 0.0
H212 H 0.74679 0.74375 0.51591 0.0
H213 H 0.911 0.78306 0.36851 0.0
H214 H 0.84149 0.81241 0.49612 0.0
H215 H 0.85798 0.70129 0.44303 0.0
C216 C 0.80898 0.68595 0.47508 0.0
C217 C 0.77707 0.6975 0.49537 0.0
C218 C 0.85665 0.80611 0.46804 0.0
C219 C 0.82657 0.74688 0.46433 0.0
C220 C 0.88198 0.83029 0.45258 0.0
C221 C 0.902 0.82252 0.41638 0.0
C222 C 0.8521 0.77359 0.44778 0.0
C223 C 0.89587 0.79014 0.39633 0.0
C224 C 0.83355 0.71056 0.45897 0.0
C225 C 0.77119 0.73399 0.50039 0.0
N226 N 0.87174 0.76661 0.4126 0.0
N227 N 0.79582 0.75749 0.48512 0.0
H228 H 0.73817 0.28249 1.00745 0.0
H229 H 0.93483 0.26236 0.90228 0.0
H230 H 0.81379 0.3688 0.99782 0.0
H231 H 0.87841 0.1732 0.95594 0.0
H232 H 0.88747 0.30183 0.93006 0.0
H233 H 0.78621 0.24168 0.98211 0.0
C234 C 0.76508 0.2926 1.00013 0.0
C235 C 0.77246 0.32871 1.00468 0.0
C236 C 0.88552 0.27365 0.93587 0.0
C237 C 0.82693 0.28291 0.97522 0.0
C238 C 0.91244 0.25106 0.91987 0.0
C239 C 0.91059 0.21441 0.92686 0.0
C240 C 0.85618 0.25951 0.95851 0.0
C241 C 0.88098 0.2013 0.95001 0.0
C242 C 0.79236 0.26951 0.98574 0.0
C243 C 0.80737 0.34102 0.99453 0.0
N244 N 0.85477 0.22384 0.96481 0.0
N245 N 0.83334 0.31818 0.97999 0.0
H246 H 0.15088 0.70596 0.56293 0.0
H247 H 0.06993 0.80635 0.36789 0.0
H248 H 0.21263 0.71563 0.44921 0.0
H249 H 0.04841 0.84443 0.49206 0.0
H250 H 0.11652 0.76585 0.39583 0.0
H251 H 0.10682 0.75011 0.5366 0.0
C252 C 0.15521 0.71753 0.53255 0.0
C253 C 0.18535 0.70722 0.50816 0.0
C254 C 0.10171 0.78321 0.41689 0.0
C255 C 0.13482 0.75669 0.47751 0.0
C256 C 0.0751 0.80619 0.40105 0.0
C257 C 0.05536 0.82871 0.42777 0.0
C258 C 0.10799 0.78209 0.45986 0.0
C259 C 0.06321 0.8276 0.47044 0.0
C260 C 0.1301 0.74256 0.51754 0.0
C261 C 0.18937 0.7224 0.4686 0.0
N262 N 0.08865 0.80429 0.48531 0.0
N263 N 0.16421 0.74617 0.45431 0.0
H264 H 0.65437 0.84523 0.0471 0.0
H265 H 0.59491 0.71964 0.86041 0.0
H266 H 0.72665 0.81751 0.946 0.0
H267 H 0.54155 0.71796 0.9804 0.0
H268 H 0.6407 0.75995 0.88853 0.0
H269 H 0.60962 0.80251 1.02087 0.0
C270 C 0.66074 0.82998 1.01948 0.0
C271 C 0.6939 0.8349 0.99839 0.0
C272 C 0.61903 0.7506 0.9087 0.0
C273 C 0.64312 0.78672 0.96793 0.0
C274 C 0.59284 0.72772 0.89265 0.0
C275 C 0.56437 0.71544 0.91808 0.0
C276 C 0.61641 0.76168 0.95029 0.0
C277 C 0.56311 0.72667 0.9597 0.0
C278 C 0.63532 0.80575 1.00448 0.0
C279 C 0.701 0.81485 0.96257 0.0
N280 N 0.58861 0.74935 0.97443 0.0
N281 N 0.67572 0.79177 0.94827 0.0
H282 H 0.31135 0.19286 0.5448 0.0
H283 H 0.37107 0.32049 0.35905 0.0
H284 H 0.23963 0.22044 0.44358 0.0
H285 H 0.42268 0.32249 0.4796 0.0
H286 H 0.32587 0.27895 0.38642 0.0
H287 H 0.35599 0.23594 0.51869 0.0
C288 C 0.30509 0.20811 0.51715 0.0
C289 C 0.27206 0.20308 0.49606 0.0
C290 C 0.34704 0.28861 0.40687 0.0
C291 C 0.32278 0.25172 0.46572 0.0
C292 C 0.37289 0.31221 0.39125 0.0
C293 C 0.40068 0.32499 0.41707 0.0
C294 C 0.34931 0.27731 0.44842 0.0
C295 C 0.40164 0.31345 0.45861 0.0
C296 C 0.33046 0.23255 0.50222 0.0
C297 C 0.26515 0.22315 0.46017 0.0
N298 N 0.37647 0.29008 0.47292 0.0
N299 N 0.29038 0.24646 0.44595 0.0
H300 H 0.23982 0.78408 1.00728 0.0
H301 H 0.43515 0.7638 0.89859 0.0
H302 H 0.31592 0.87004 0.99814 0.0
H303 H 0.3789 0.67468 0.95255 0.0
H304 H 0.38815 0.80337 0.92722 0.0
H305 H 0.28724 0.74337 0.98026 0.0
C306 C 0.26671 0.79414 0.99973 0.0
C307 C 0.27439 0.83012 1.00492 0.0
C308 C 0.38616 0.77516 0.93286 0.0
C309 C 0.32814 0.78444 0.97346 0.0
C310 C 0.41286 0.75253 0.91636 0.0
C311 C 0.41099 0.71586 0.92327 0.0
C312 C 0.35703 0.76104 0.95589 0.0
C313 C 0.38151 0.70279 0.94667 0.0
C314 C 0.29363 0.7711 0.98435 0.0
C315 C 0.30926 0.84235 0.99439 0.0
N316 N 0.35555 0.72535 0.96196 0.0
N317 N 0.33487 0.81959 0.97887 0.0
H318 H 0.72215 0.2604 0.51367 0.0
H319 H 0.53245 0.28083 0.39338 0.0
H320 H 0.65364 0.17188 0.48369 0.0
H321 H 0.58298 0.36802 0.45746 0.0
H322 H 0.57986 0.24117 0.4202 0.0
H323 H 0.67455 0.30092 0.48769 0.0
C324 C 0.6969 0.2496 0.50182 0.0
C325 C 0.69155 0.21287 0.50098 0.0
C326 C 0.58055 0.26895 0.42849 0.0
C327 C 0.63743 0.25879 0.47051 0.0
C328 C 0.55356 0.29171 0.41307 0.0
C329 C 0.55367 0.32789 0.42323 0.0
C330 C 0.60825 0.28241 0.45393 0.0
C331 C 0.58172 0.34032 0.44898 0.0
C332 C 0.66986 0.27264 0.48689 0.0
C333 C 0.65879 0.20004 0.48453 0.0
N334 N 0.608 0.31764 0.4633 0.0
N335 N 0.63297 0.22297 0.46982 0.0
H336 H 0.30756 0.39627 0.94265 0.0
H337 H 0.40856 0.57964 0.97721 0.0
H338 H 0.27817 0.46682 0.04262 0.0
H339 H 0.40458 0.52705 0.85824 0.0
H340 H 0.36555 0.53627 1.0051 0.0
H341 H 0.34898 0.44114 0.91489 0.0
C342 C 0.30982 0.42139 0.95856 0.0
C343 C 0.28917 0.42827 0.99447 0.0
C344 C 0.37395 0.53439 0.97285 0.0
C345 C 0.33683 0.47936 0.96359 0.0
C346 C 0.39853 0.55905 0.95691 0.0
C347 C 0.41027 0.55685 0.91536 0.0
C348 C 0.36149 0.50702 0.94725 0.0
C349 C 0.39622 0.52978 0.8904 0.0
C350 C 0.33342 0.44691 0.94283 0.0
C351 C 0.29375 0.46069 1.01483 0.0
N352 N 0.37282 0.5057 0.90686 0.0
N353 N 0.31717 0.48516 0.99909 0.0
H354 H 0.68791 0.57135 0.54308 0.0
H355 H 0.55432 0.51879 0.35814 0.0
H356 H 0.65553 0.64472 0.44714 0.0
H357 H 0.5536 0.46463 0.47645 0.0
H358 H 0.59742 0.56166 0.38658 0.0
H359 H 0.64324 0.52871 0.51658 0.0
C360 C 0.67115 0.57843 0.51659 0.0
C361 C 0.67562 0.61115 0.49676 0.0
C362 C 0.58777 0.54038 0.40626 0.0
C363 C 0.62529 0.56271 0.46586 0.0
C364 C 0.5634 0.51577 0.38998 0.0
C365 C 0.55026 0.48817 0.41501 0.0
C366 C 0.59952 0.53703 0.44764 0.0
C367 C 0.56286 0.48564 0.45614 0.0
C368 C 0.64588 0.55418 0.50138 0.0
C369 C 0.65345 0.61932 0.46251 0.0
N370 N 0.5869 0.50968 0.47114 0.0
N371 N 0.62947 0.5951 0.44782 0.0
H372 H 0.65392 0.38856 0.95434 0.0
H373 H 0.57789 0.58782 0.97366 0.0
H374 H 0.68975 0.45994 0.04974 0.0
H375 H 0.55016 0.51576 0.8747 0.0
H376 H 0.61819 0.54204 1.00328 0.0
H377 H 0.61392 0.43507 0.92655 0.0
C378 C 0.65324 0.41424 0.96927 0.0
C379 C 0.67525 0.42083 1.00386 0.0
C380 C 0.60331 0.53638 0.97503 0.0
C381 C 0.62959 0.47424 0.97267 0.0
C382 C 0.58039 0.56253 0.95801 0.0
C383 C 0.56045 0.55566 0.92165 0.0
C384 C 0.60624 0.50317 0.95556 0.0
C385 C 0.5648 0.52234 0.90282 0.0
C386 C 0.63046 0.44078 0.95356 0.0
C387 C 0.67309 0.45415 0.02287 0.0
N388 N 0.58706 0.49743 0.92003 0.0
N389 N 0.65072 0.4798 1.00691 0.0
H390 H 0.26084 0.57094 0.55217 0.0
H391 H 0.41062 0.52631 0.37714 0.0
H392 H 0.30442 0.6474 0.46654 0.0
H393 H 0.38189 0.45184 0.47369 0.0
H394 H 0.36896 0.56952 0.40781 0.0
H395 H 0.30295 0.52583 0.5234 0.0
C396 C 0.27981 0.5782 0.52777 0.0
C397 C 0.27988 0.61277 0.51195 0.0
C398 C 0.37167 0.54375 0.42238 0.0
C399 C 0.32704 0.56163 0.47814 0.0
C400 C 0.39545 0.5189 0.40476 0.0
C401 C 0.39999 0.48529 0.42289 0.0
C402 C 0.35197 0.53514 0.45848 0.0
C403 C 0.37934 0.47741 0.45865 0.0
C404 C 0.30354 0.55253 0.51112 0.0
C405 C 0.30397 0.62095 0.47953 0.0
N406 N 0.35625 0.50218 0.47532 0.0
N407 N 0.32653 0.59557 0.46361 0.0
H408 H 0.8079 0.89448 0.94562 0.0
H409 H 0.90857 0.07819 0.9794 0.0
H410 H 0.77943 0.96481 0.04613 0.0
H411 H 0.90416 0.02557 0.86047 0.0
H412 H 0.86599 0.03461 1.00764 0.0
H413 H 0.84903 0.93945 0.91747 0.0
C414 C 0.81033 0.91956 0.96159 0.0
C415 C 0.79002 0.92636 0.99776 0.0
C416 C 0.8742 0.03276 0.97533 0.0
C417 C 0.83731 0.97757 0.96641 0.0
C418 C 0.89852 0.05754 0.95918 0.0
C419 C 0.91002 0.0554 0.91754 0.0
C420 C 0.86173 1.00532 0.94984 0.0
C421 C 0.89596 0.02826 0.8927 0.0
C422 C 0.83375 0.94514 0.94563 0.0
C423 C 0.79476 0.95874 1.01816 0.0
N424 N 0.8728 1.00406 0.90935 0.0
N425 N 0.81799 0.98327 1.00218 0.0
H426 H 0.15747 0.14466 0.44455 0.0
H427 H 0.05129 0.964 0.48179 0.0
H428 H 0.18435 0.07427 0.54561 0.0
H429 H 0.05797 1.01542 0.36204 0.0
H430 H 0.09465 1.00701 0.50947 0.0
H431 H 0.11471 0.10076 0.41774 0.0
C432 C 0.1544 0.11977 0.46089 0.0
C433 C 0.17473 0.11265 0.49684 0.0
C434 C 0.0867 1.00872 0.47712 0.0
C435 C 0.12547 0.06271 0.46707 0.0
C436 C 0.06192 0.98428 0.4613 0.0
C437 C 0.05093 0.98617 0.41954 0.0
C438 C 0.10013 0.03556 0.45116 0.0
C439 C 0.06573 1.01289 0.39437 0.0
C440 C 0.13001 0.09482 0.44572 0.0
C441 C 0.16906 0.08058 0.51777 0.0
N442 N 0.08934 0.03669 0.41067 0.0
N443 N 0.14489 0.05667 0.50257 0.0
H444 H 0.19164 0.96071 0.05335 0.0
H445 H 0.05034 1.01523 0.8736 0.0
H446 H 0.15618 0.89101 0.95607 0.0
H447 H 0.0774 0.08544 0.97461 0.0
H448 H 0.09082 0.97044 0.903 0.0
H449 H 0.1507 1.00738 0.02581 0.0
C450 C 0.17502 0.95537 0.02631 0.0
C451 C 0.17735 0.92241 1.00648 0.0
C452 C 0.08802 0.99562 0.91882 0.0
C453 C 0.13103 0.97512 0.97471 0.0
C454 C 0.06491 0.02135 0.90193 0.0
C455 C 0.06026 0.05422 0.92169 0.0
C456 C 0.10684 1.00258 0.95587 0.0
C457 C 0.0801 0.06049 0.9583 0.0
C458 C 0.15186 0.98187 1.01051 0.0
C459 C 0.15545 0.91639 0.97164 0.0
N460 N 0.10248 0.03485 0.97429 0.0
N461 N 0.13334 0.94251 0.95676 0.0
H462 H 0.83407 0.15167 0.50781 0.0
H463 H 0.86634 0.94729 0.45379 0.0
H464 H 0.74499 0.07797 0.50696 0.0
H465 H 0.93139 0.03134 0.40156 0.0
H466 H 0.82558 0.99223 0.48523 0.0
H467 H 0.87521 0.10475 0.48159 0.0
C468 C 0.82348 0.12537 0.5025 0.0
C469 C 0.78643 0.11833 0.50933 0.0
C470 C 0.84879 1.00065 0.46679 0.0
C471 C 0.83275 0.06483 0.47961 0.0
C472 C 0.87201 0.97511 0.44893 0.0
C473 C 0.90213 0.98558 0.42478 0.0
C474 C 0.85636 0.03678 0.46124 0.0
C475 C 0.9083 0.022 0.41954 0.0
C476 C 0.84671 0.09876 0.48738 0.0
C477 C 0.77354 0.08408 0.50186 0.0
N478 N 0.88581 0.04623 0.43784 0.0
N479 N 0.79671 0.05844 0.48743 0.0
H480 H 0.2436 0.41743 0.12211 0.0
H481 H 0.43624 0.36671 0.21904 0.0
H482 H 0.33368 0.37782 0.04879 0.0
H483 H 0.36655 0.4456 0.2767 0.0
H484 H 0.39594 0.36631 0.15893 0.0
H485 H 0.2853 0.42484 0.18152 0.0
C486 C 0.27233 0.41073 0.11865 0.0
C487 C 0.28558 0.39718 0.08093 0.0
C488 C 0.38947 0.38382 0.18462 0.0
C489 C 0.33293 0.40477 0.14816 0.0
C490 C 0.41231 0.38389 0.21916 0.0
C491 C 0.40465 0.40613 0.2531 0.0
C492 C 0.35825 0.40568 0.18407 0.0
C493 C 0.37345 0.42807 0.25118 0.0
C494 C 0.29602 0.41495 0.15229 0.0
C495 C 0.32277 0.38857 0.07749 0.0
N496 N 0.35111 0.42707 0.21734 0.0
N497 N 0.34515 0.39215 0.11086 0.0
H498 H 0.63933 0.67299 0.55227 0.0
H499 H 0.59175 0.58931 0.77459 0.0
H500 H 0.71763 0.61055 0.6207 0.0
H501 H 0.53647 0.68084 0.72307 0.0
H502 H 0.6341 0.58976 0.71496 0.0
H503 H 0.59625 0.66852 0.61082 0.0
C504 C 0.64713 0.65814 0.57973 0.0
C505 C 0.68176 0.64228 0.58223 0.0
C506 C 0.61267 0.6097 0.71691 0.0
C507 C 0.63318 0.6369 0.64904 0.0
C508 C 0.5885 0.60943 0.75082 0.0
C509 C 0.56059 0.63514 0.75394 0.0
C510 C 0.60843 0.63546 0.68565 0.0
C511 C 0.55767 0.66062 0.72222 0.0
C512 C 0.62281 0.65569 0.61311 0.0
C513 C 0.69105 0.62324 0.61815 0.0
N514 N 0.58111 0.66001 0.6894 0.0
N515 N 0.66685 0.62102 0.65032 0.0
H516 H 0.62698 0.38161 0.05173 0.0
H517 H 0.59281 0.37121 0.29229 0.0
H518 H 0.71711 0.39394 0.13641 0.0
H519 H 0.51889 0.43113 0.21431 0.0
H520 H 0.63696 0.36874 0.23436 0.0
H521 H 0.58416 0.39044 0.1099 0.0
C522 C 0.6377 0.38664 0.08247 0.0
C523 C 0.67556 0.38706 0.08942 0.0
C524 C 0.61111 0.38256 0.23021 0.0
C525 C 0.62705 0.39556 0.15596 0.0
C526 C 0.58596 0.38383 0.26302 0.0
C527 C 0.55236 0.40153 0.25799 0.0
C528 C 0.60198 0.39815 0.19192 0.0
C529 C 0.54469 0.4175 0.2195 0.0
C530 C 0.61335 0.39138 0.11558 0.0
C531 C 0.6881 0.39278 0.13003 0.0
N532 N 0.56914 0.41504 0.18769 0.0
N533 N 0.6639 0.39631 0.16198 0.0
H534 H 0.26331 0.60413 0.61618 0.0
H535 H 0.41139 0.70236 0.75281 0.0
H536 H 0.31285 0.70155 0.5768 0.0
H537 H 0.4034 0.58836 0.75315 0.0
H538 H 0.36812 0.70481 0.69483 0.0
H539 H 0.30864 0.59918 0.67242 0.0
C540 C 0.2842 0.6241 0.61914 0.0
C541 C 0.28481 0.65313 0.59209 0.0
C542 C 0.37588 0.67929 0.70767 0.0
C543 C 0.33548 0.64853 0.65656 0.0
C544 C 0.40029 0.67788 0.74092 0.0
C545 C 0.41101 0.64509 0.75775 0.0
C546 C 0.36152 0.64777 0.69169 0.0
C547 C 0.39597 0.61417 0.74092 0.0
C548 C 0.30978 0.62146 0.65122 0.0
C549 C 0.31173 0.67887 0.59738 0.0
N550 N 0.37177 0.61626 0.70895 0.0
N551 N 0.33581 0.67623 0.62937 0.0
H552 H 0.74522 0.91561 0.12563 0.0
H553 H 0.93857 0.86498 0.22121 0.0
H554 H 0.83463 0.87541 0.05169 0.0
H555 H 0.86906 0.94399 0.27891 0.0
H556 H 0.89783 0.86418 0.16143 0.0
H557 H 0.78733 0.92291 0.18468 0.0
C558 C 0.77389 0.90873 0.12197 0.0
C559 C 0.78683 0.89506 0.08417 0.0
C560 C 0.8915 0.8818 0.18707 0.0
C561 C 0.83466 0.90255 0.15099 0.0
C562 C 0.9146 0.8821 0.22142 0.0
C563 C 0.90712 0.90451 0.25525 0.0
C564 C 0.86023 0.9036 0.18665 0.0
C565 C 0.87584 0.92635 0.25346 0.0
C566 C 0.79781 0.91289 0.1554 0.0
C567 C 0.82396 0.88625 0.08046 0.0
N568 N 0.85328 0.92513 0.21984 0.0
N569 N 0.84657 0.88978 0.11363 0.0
H570 H 0.21953 0.12219 0.62397 0.0
H571 H 0.02768 0.17673 0.72116 0.0
H572 H 0.13122 0.16491 0.55076 0.0
H573 H 0.09358 0.09391 0.77668 0.0
H574 H 0.06868 0.17717 0.66131 0.0
H575 H 0.17702 0.1151 0.68309 0.0
C576 C 0.19102 0.12969 0.62049 0.0
C577 C 0.17848 0.14399 0.58289 0.0
C578 C 0.07415 0.15879 0.68648 0.0
C579 C 0.13026 0.13673 0.64975 0.0
C580 C 0.05091 0.15868 0.72085 0.0
C581 C 0.05731 0.13531 0.7541 0.0
C582 C 0.10453 0.13585 0.68544 0.0
C583 C 0.08766 0.1123 0.75168 0.0
C584 C 0.16687 0.12564 0.65395 0.0
C585 C 0.14156 0.1536 0.5794 0.0
N586 N 0.11043 0.11337 0.71804 0.0
N587 N 0.11876 0.15015 0.61259 0.0
H588 H 0.12921 0.88288 0.05394 0.0
H589 H 0.09571 0.87139 0.29474 0.0
H590 H 0.21974 0.89359 0.13838 0.0
H591 H 0.02184 0.93177 0.21719 0.0
H592 H 0.13975 0.86897 0.23671 0.0
H593 H 0.08667 0.89159 0.11239 0.0
C594 C 0.14009 0.8875 0.08469 0.0
C595 C 0.17798 0.88754 0.09146 0.0
C596 C 0.11394 0.88289 0.23267 0.0
C597 C 0.12975 0.89593 0.15834 0.0
C598 C 0.08885 0.88416 0.26556 0.0
C599 C 0.05527 0.90194 0.2607 0.0
C600 C 0.10479 0.89858 0.19444 0.0
C601 C 0.04761 0.91807 0.22229 0.0
C602 C 0.11589 0.89219 0.11796 0.0
C603 C 0.1907 0.89273 0.1321 0.0
N604 N 0.07199 0.91561 0.19039 0.0
N605 N 0.16664 0.89624 0.1642 0.0
H606 H 0.77923 0.10468 0.59714 0.0
H607 H 0.90276 0.20276 0.76496 0.0
H608 H 0.80692 0.21512 0.5896 0.0
H609 H 0.90862 0.0896 0.74629 0.0
H610 H 0.86073 0.20749 0.7063 0.0
H611 H 0.82134 0.09797 0.65627 0.0
C612 C 0.79442 0.12738 0.60785 0.0
C613 C 0.78951 0.16055 0.58896 0.0
C614 C 0.87119 0.18162 0.71508 0.0
C615 C 0.83677 0.15343 0.65664 0.0
C616 C 0.895 0.17885 0.74877 0.0
C617 C 0.90939 0.14573 0.76049 0.0
C618 C 0.86127 0.15103 0.6932 0.0
C619 C 0.89837 0.11569 0.73817 0.0
C620 C 0.81821 0.12365 0.64159 0.0
C621 C 0.80947 0.18931 0.60401 0.0
N622 N 0.8749 0.11904 0.70562 0.0
N623 N 0.83201 0.18518 0.63717 0.0
loop_
_geom_bond_atom_site_label_1
_geom_bond_atom_site_label_2
_geom_bond_distance
_geom_bond_site_symmetry_2
_ccdc_geom_bond_type
C0 N1 1.317 . S
C0 N2 1.348 1_554 S
C0 C3 1.485 . S
N1 C0 1.317 . S
N1 N5 1.351 1_554 S
N2 C0 1.348 1_556 S
N2 C4 1.346 . S
C3 C0 1.485 . S
C3 H7 0.960 . S
C3 H8 0.961 . S
C3 H9 0.960 . S
C4 N2 1.346 . S
C4 N5 1.320 . S
C4 C6 1.486 . S
N5 N1 1.351 1_556 S
N5 C4 1.320 . S
C6 C4 1.486 . S
C6 H10 0.960 . S
C6 H11 0.960 . S
C6 H12 0.959 . S
H7 C3 0.960 . S
H8 C3 0.961 . S
H9 C3 0.960 . S
H10 C6 0.960 . S
H11 C6 0.960 . S
H12 C6 0.959 . S
C13 N14 1.317 . S
C13 N15 1.348 . S
C13 C16 1.485 . S
N14 C13 1.317 . S
N14 N18 1.370 . S
N15 C13 1.348 . S
N15 C17 1.346 . S
C16 C13 1.485 . S
C16 H20 0.960 . S
C16 H21 0.961 . S
C16 H22 0.960 . S
C17 N15 1.346 . S
C17 N18 1.307 . S
C17 C19 1.486 . S
N18 N14 1.370 . S
N18 C17 1.307 . S
C19 C17 1.486 . S
C19 H23 0.960 . S
C19 H24 0.960 . S
C19 H25 0.959 . S
H20 C16 0.960 . S
H21 C16 0.961 . S
H22 C16 0.960 . S
H23 C19 0.960 . S
H24 C19 0.960 . S
H25 C19 0.959 . S
C26 N27 1.317 . S
C26 N28 1.348 1_554 S
C26 C29 1.485 . S
N27 C26 1.317 . S
N27 N31 1.370 1_554 S
N28 C26 1.348 1_556 S
N28 C30 1.346 . S
C29 C26 1.485 . S
C29 H33 0.960 . S
C29 H34 0.961 . S
C29 H35 0.960 . S
C30 N28 1.346 . S
C30 N31 1.307 . S
C30 C32 1.486 . S
N31 N27 1.370 1_556 S
N31 C30 1.307 . S
C32 C30 1.486 . S
C32 H36 0.960 . S
C32 H37 0.960 . S
C32 H38 0.959 . S
H33 C29 0.960 . S
H34 C29 0.961 . S
H35 C29 0.960 . S
H36 C32 0.960 . S
H37 C32 0.960 . S
H38 C32 0.959 . S
C39 N40 1.317 . S
C39 N41 1.348 . S
C39 C42 1.485 . S
N40 C39 1.317 . S
N40 N44 1.370 . S
N41 C39 1.348 . S
N41 C43 1.346 . S
C42 C39 1.485 . S
C42 H46 0.960 . S
C42 H47 0.961 . S
C42 H48 0.960 . S
C43 N41 1.346 . S
C43 N44 1.307 . S
C43 C45 1.486 . S
N44 N40 1.370 . S
N44 C43 1.307 . S
C45 C43 1.486 . S
C45 H49 0.960 . S
C45 H50 0.960 . S
C45 H51 0.959 . S
H46 C42 0.960 . S
H47 C42 0.961 . S
H48 C42 0.960 . S
H49 C45 0.960 . S
H50 C45 0.960 . S
H51 C45 0.959 . S
C52 N53 1.317 . S
C52 N54 1.348 1_554 S
C52 C55 1.485 . S
N53 C52 1.317 . S
N53 N57 1.351 1_554 S
N54 C52 1.348 1_556 S
N54 C56 1.346 . S
C55 C52 1.485 . S
C55 H59 0.960 . S
C55 H60 0.961 . S
C55 H61 0.960 . S
C56 N54 1.346 . S
C56 N57 1.320 . S
C56 C58 1.486 . S
N57 N53 1.351 1_556 S
N57 C56 1.320 . S
C58 C56 1.486 . S
C58 H62 0.960 . S
C58 H63 0.960 . S
C58 H64 0.959 . S
H59 C55 0.960 . S
H60 C55 0.961 . S
H61 C55 0.960 . S
H62 C58 0.960 . S
H63 C58 0.960 . S
H64 C58 0.959 . S
C65 N66 1.317 . S
C65 N67 1.348 . S
C65 C68 1.485 . S
N66 C65 1.317 . S
N66 N70 1.370 . S
N67 C65 1.348 . S
N67 C69 1.346 . S
C68 C65 1.485 . S
C68 H72 0.960 . S
C68 H73 0.961 . S
C68 H74 0.960 . S
C69 N67 1.346 . S
C69 N70 1.307 . S
C69 C71 1.486 . S
N70 N66 1.370 . S
N70 C69 1.307 . S
C71 C69 1.486 . S
C71 H75 0.960 . S
C71 H76 0.960 . S
C71 H77 0.959 . S
H72 C68 0.960 . S
H73 C68 0.961 . S
H74 C68 0.960 . S
H75 C71 0.960 . S
H76 C71 0.960 . S
H77 C71 0.959 . S
C78 N79 1.317 . S
C78 N80 1.348 1_554 S
C78 C81 1.485 . S
N79 C78 1.317 . S
N79 N83 1.370 1_554 S
N80 C78 1.348 1_556 S
N80 C82 1.346 . S
C81 C78 1.485 . S
C81 H85 0.960 . S
C81 H86 0.961 . S
C81 H87 0.960 . S
C82 N80 1.346 . S
C82 N83 1.307 . S
C82 C84 1.486 . S
N83 N79 1.370 1_556 S
N83 C82 1.307 . S
C84 C82 1.486 . S
C84 H88 0.960 . S
C84 H89 0.960 . S
C84 H90 0.959 . S
H85 C81 0.960 . S
H86 C81 0.961 . S
H87 C81 0.960 . S
H88 C84 0.960 . S
H89 C84 0.960 . S
H90 C84 0.959 . S
C91 N92 1.317 . S
C91 N93 1.348 . S
C91 C94 1.485 . S
N92 C91 1.317 . S
N92 N96 1.370 . S
N93 C91 1.348 . S
N93 C95 1.346 . S
C94 C91 1.485 . S
C94 H98 0.960 . S
C94 H99 0.961 . S
C94 H100 0.960 . S
C95 N93 1.346 . S
C95 N96 1.307 . S
C95 C97 1.486 . S
N96 N92 1.370 . S
N96 C95 1.307 . S
C97 C95 1.486 . S
C97 H101 0.960 . S
C97 H102 0.960 . S
C97 H103 0.959 . S
H98 C94 0.960 . S
H99 C94 0.961 . S
H100 C94 0.960 . S
H101 C97 0.960 . S
H102 C97 0.960 . S
H103 C97 0.959 . S
Fe104 O106 1.918 . S
Fe104 O109 1.997 1_455 S
Fe104 O110 2.002 1_455 S
Fe104 O115 1.976 . S
Fe104 O118 1.996 . S
Fe105 O106 1.918 . S
Fe105 O113 1.997 1_455 S
Fe105 O116 1.996 . S
Fe105 O120 1.976 . S
Fe105 O123 2.002 1_455 S
O106 Fe104 1.918 . S
O106 Fe105 1.918 . S
O106 Fe107 1.918 . S
Fe107 O106 1.918 . S
Fe107 O108 2.002 1_455 S
Fe107 O117 1.976 . S
Fe107 O121 1.996 . S
Fe107 O124 1.997 1_455 S
O108 Fe107 2.002 1_655 S
O108 C125 1.295 . S
O109 Fe104 1.997 1_655 S
O109 C125 1.235 . S
O110 Fe104 2.002 1_655 S
O110 C111 1.295 . S
C111 O110 1.295 . S
C111 O113 1.235 . S
C112 O117 1.287 . S
C112 O118 1.255 . S
O113 Fe105 1.997 1_655 S
O113 C111 1.235 . S
C114 O120 1.287 . S
C114 O121 1.255 . S
O115 Fe104 1.976 . S
O115 C122 1.287 . S
O116 Fe105 1.996 . S
O116 C122 1.255 . S
O117 Fe107 1.976 . S
O117 C112 1.287 . S
O118 Fe104 1.996 . S
O118 C112 1.255 . S
C119 O123 1.295 . S
C119 O124 1.235 . S
O120 Fe105 1.976 . S
O120 C114 1.287 . S
O121 Fe107 1.996 . S
O121 C114 1.255 . S
C122 O115 1.287 . S
C122 O116 1.255 . S
O123 Fe105 2.002 1_655 S
O123 C119 1.295 . S
O124 Fe107 1.997 1_655 S
O124 C119 1.235 . S
C125 O108 1.295 . S
C125 O109 1.235 . S
Fe126 O128 1.919 . S
Fe126 O131 1.984 1_655 S
Fe126 O132 1.989 1_655 S
Fe126 O137 1.989 . S
Fe126 O140 2.008 . S
Fe127 O128 1.919 . S
Fe127 O135 1.984 1_655 S
Fe127 O138 2.009 . S
Fe127 O142 1.989 . S
Fe127 O145 1.989 1_655 S
O128 Fe126 1.919 . S
O128 Fe127 1.919 . S
O128 Fe129 1.918 . S
Fe129 O128 1.918 . S
Fe129 O130 1.989 1_655 S
Fe129 O139 1.989 . S
Fe129 O143 2.009 . S
Fe129 O146 1.983 1_655 S
O130 Fe129 1.989 1_455 S
O130 C147 1.295 . S
O131 Fe126 1.984 1_455 S
O131 C147 1.235 . S
O132 Fe126 1.989 1_455 S
O132 C133 1.295 . S
C133 O132 1.295 . S
C133 O135 1.235 . S
C134 O139 1.287 . S
C134 O140 1.255 . S
O135 Fe127 1.984 1_455 S
O135 C133 1.235 . S
C136 O142 1.287 . S
C136 O143 1.255 . S
O137 Fe126 1.989 . S
O137 C144 1.287 . S
O138 Fe127 2.009 . S
O138 C144 1.255 . S
O139 Fe129 1.989 . S
O139 C134 1.287 . S
O140 Fe126 2.008 . S
O140 C134 1.255 . S
C141 O145 1.295 . S
C141 O146 1.235 . S
O142 Fe127 1.989 . S
O142 C136 1.287 . S
O143 Fe129 2.009 . S
O143 C136 1.255 . S
C144 O137 1.287 . S
C144 O138 1.255 . S
O145 Fe127 1.989 1_455 S
O145 C141 1.295 . S
O146 Fe129 1.983 1_455 S
O146 C141 1.235 . S
C147 O130 1.295 . S
C147 O131 1.235 . S
Fe148 O150 1.918 . S
Fe148 O153 1.997 . S
Fe148 O154 2.002 . S
Fe148 O159 1.976 . S
Fe148 O162 1.996 . S
Fe149 O150 1.918 . S
Fe149 O157 1.997 . S
Fe149 O160 1.996 . S
Fe149 O164 1.976 . S
Fe149 O167 2.002 . S
O150 Fe148 1.918 . S
O150 Fe149 1.918 . S
O150 Fe151 1.918 . S
Fe151 O150 1.918 . S
Fe151 O152 2.002 . S
Fe151 O161 1.976 . S
Fe151 O165 1.996 . S
Fe151 O168 1.997 . S
O152 Fe151 2.002 . S
O152 C169 1.295 . S
O153 Fe148 1.997 . S
O153 C169 1.235 . S
O154 Fe148 2.002 . S
O154 C155 1.295 . S
C155 O154 1.295 . S
C155 O157 1.235 . S
C156 O161 1.287 . S
C156 O162 1.255 . S
O157 Fe149 1.997 . S
O157 C155 1.235 . S
C158 O164 1.287 . S
C158 O165 1.255 . S
O159 Fe148 1.976 . S
O159 C166 1.287 . S
O160 Fe149 1.996 . S
O160 C166 1.255 . S
O161 Fe151 1.976 . S
O161 C156 1.287 . S
O162 Fe148 1.996 . S
O162 C156 1.255 . S
C163 O167 1.295 . S
C163 O168 1.235 . S
O164 Fe149 1.976 . S
O164 C158 1.287 . S
O165 Fe151 1.996 . S
O165 C158 1.255 . S
C166 O159 1.287 . S
C166 O160 1.255 . S
O167 Fe149 2.002 . S
O167 C163 1.295 . S
O168 Fe151 1.997 . S
O168 C163 1.235 . S
C169 O152 1.295 . S
C169 O153 1.235 . S
Fe170 O172 1.918 . S
Fe170 O175 1.997 . S
Fe170 O176 2.002 . S
Fe170 O181 1.976 . S
Fe170 O184 1.996 . S
Fe171 O172 1.918 . S
Fe171 O179 1.997 . S
Fe171 O182 1.996 . S
Fe171 O186 1.976 . S
Fe171 O189 2.002 . S
O172 Fe170 1.918 . S
O172 Fe171 1.918 . S
O172 Fe173 1.918 . S
Fe173 O172 1.918 . S
Fe173 O174 2.002 . S
Fe173 O183 1.976 . S
Fe173 O187 1.996 . S
Fe173 O190 1.997 . S
O174 Fe173 2.002 . S
O174 C191 1.295 . S
O175 Fe170 1.997 . S
O175 C191 1.235 . S
O176 Fe170 2.002 . S
O176 C177 1.295 . S
C177 O176 1.295 . S
C177 O179 1.235 . S
C178 O183 1.287 . S
C178 O184 1.255 . S
O179 Fe171 1.997 . S
O179 C177 1.235 . S
C180 O186 1.287 . S
C180 O187 1.255 . S
O181 Fe170 1.976 . S
O181 C188 1.287 . S
O182 Fe171 1.996 . S
O182 C188 1.255 . S
O183 Fe173 1.976 . S
O183 C178 1.287 . S
O184 Fe170 1.996 . S
O184 C178 1.255 . S
C185 O189 1.295 . S
C185 O190 1.235 . S
O186 Fe171 1.976 . S
O186 C180 1.287 . S
O187 Fe173 1.996 . S
O187 C180 1.255 . S
C188 O181 1.287 . S
C188 O182 1.255 . S
O189 Fe171 2.002 . S
O189 C185 1.295 . S
O190 Fe173 1.997 . S
O190 C185 1.235 . S
C191 O174 1.295 . S
C191 O175 1.235 . S
H192 C198 0.930 . S
H193 C202 0.930 . S
H194 C207 0.929 . S
H195 C205 0.929 . S
H196 C200 0.929 . S
H197 C206 0.929 . S
C198 H192 0.930 . S
C198 C199 1.367 . S
C198 C206 1.378 . S
C199 C198 1.367 . S
C199 C207 1.433 1_556 S
C200 H196 0.929 . S
C200 C202 1.378 . S
C200 C204 1.350 . S
C201 C204 1.463 . S
C201 C206 1.350 . S
C201 N209 1.427 . S
C202 H193 0.930 . S
C202 C200 1.378 . S
C202 C203 1.367 . S
C203 C202 1.367 . S
C203 C205 1.433 . S
C204 C200 1.350 . S
C204 C201 1.463 . S
C204 N208 1.427 . S
C205 H195 0.929 . S
C205 C203 1.433 . S
C205 N208 1.384 . S
C206 H197 0.929 . S
C206 C198 1.378 . S
C206 C201 1.350 . S
C207 H194 0.929 . S
C207 C199 1.433 1_554 S
C207 N209 1.384 1_554 S
N208 C204 1.427 . S
N208 C205 1.384 . S
N209 C201 1.427 . S
N209 C207 1.384 1_556 S
H210 C216 0.930 . S
H211 C220 0.930 . S
H212 C225 0.929 . S
H213 C223 0.929 . S
H214 C218 0.929 . S
H215 C224 0.929 . S
C216 H210 0.930 . S
C216 C217 1.367 . S
C216 C224 1.378 . S
C217 C216 1.367 . S
C217 C225 1.433 . S
C218 H214 0.929 . S
C218 C220 1.378 . S
C218 C222 1.350 . S
C219 C222 1.463 . S
C219 C224 1.350 . S
C219 N227 1.427 . S
C220 H211 0.930 . S
C220 C218 1.378 . S
C220 C221 1.367 . S
C221 C220 1.367 . S
C221 C223 1.433 . S
C222 C218 1.350 . S
C222 C219 1.463 . S
C222 N226 1.427 . S
C223 H213 0.929 . S
C223 C221 1.433 . S
C223 N226 1.384 . S
C224 H215 0.929 . S
C224 C216 1.378 . S
C224 C219 1.350 . S
C225 H212 0.929 . S
C225 C217 1.433 . S
C225 N227 1.384 . S
N226 C222 1.427 . S
N226 C223 1.384 . S
N227 C219 1.427 . S
N227 C225 1.384 . S
H228 C234 0.930 1_554 S
H229 C238 0.930 . S
H230 C243 0.929 . S
H231 C241 0.929 . S
H232 C236 0.929 . S
H233 C242 0.929 . S
C234 H228 0.930 1_556 S
C234 C235 1.367 . S
C234 C242 1.378 . S
C235 C234 1.367 . S
C235 C243 1.433 . S
C236 H232 0.929 . S
C236 C238 1.378 . S
C236 C240 1.350 . S
C237 C240 1.463 . S
C237 C242 1.350 . S
C237 N245 1.427 . S
C238 H229 0.930 . S
C238 C236 1.378 . S
C238 C239 1.367 . S
C239 C238 1.367 . S
C239 C241 1.433 . S
C240 C236 1.350 . S
C240 C237 1.463 . S
C240 N244 1.427 . S
C241 H231 0.929 . S
C241 C239 1.433 . S
C241 N244 1.384 . S
C242 H233 0.929 . S
C242 C234 1.378 . S
C242 C237 1.350 . S
C243 H230 0.929 . S
C243 C235 1.433 . S
C243 N245 1.384 . S
N244 C240 1.427 . S
N244 C241 1.384 . S
N245 C237 1.427 . S
N245 C243 1.384 . S
H246 C252 0.930 . S
H247 C256 0.930 . S
H248 C261 0.929 . S
H249 C259 0.929 . S
H250 C254 0.929 . S
H251 C260 0.929 . S
C252 H246 0.930 . S
C252 C253 1.367 . S
C252 C260 1.378 . S
C253 C252 1.367 . S
C253 C261 1.433 . S
C254 H250 0.929 . S
C254 C256 1.378 . S
C254 C258 1.350 . S
C255 C258 1.463 . S
C255 C260 1.350 . S
C255 N263 1.427 . S
C256 H247 0.930 . S
C256 C254 1.378 . S
C256 C257 1.367 . S
C257 C256 1.367 . S
C257 C259 1.433 . S
C258 C254 1.350 . S
C258 C255 1.463 . S
C258 N262 1.427 . S
C259 H249 0.929 . S
C259 C257 1.433 . S
C259 N262 1.384 . S
C260 H251 0.929 . S
C260 C252 1.378 . S
C260 C255 1.350 . S
C261 H248 0.929 . S
C261 C253 1.433 . S
C261 N263 1.384 . S
N262 C258 1.427 . S
N262 C259 1.384 . S
N263 C255 1.427 . S
N263 C261 1.384 . S
H264 C270 0.930 . S
H265 C274 0.930 . S
H266 C279 0.929 . S
H267 C277 0.929 . S
H268 C272 0.929 . S
H269 C278 0.938 . S
C270 H264 0.930 . S
C270 C271 1.367 1_554 S
C270 C278 1.378 1_554 S
C271 C270 1.367 1_556 S
C271 C279 1.433 . S
C272 H268 0.929 . S
C272 C274 1.378 . S
C272 C276 1.350 . S
C273 C276 1.463 . S
C273 C278 1.350 . S
C273 N281 1.427 . S
C274 H265 0.930 . S
C274 C272 1.378 . S
C274 C275 1.367 . S
C275 C274 1.367 . S
C275 C277 1.433 . S
C276 C272 1.350 . S
C276 C273 1.463 . S
C276 N280 1.427 . S
C277 H267 0.929 . S
C277 C275 1.433 . S
C277 N280 1.384 . S
C278 H269 0.938 . S
C278 C270 1.378 1_556 S
C278 C273 1.350 . S
C279 H266 0.929 . S
C279 C271 1.433 . S
C279 N281 1.384 . S
N280 C276 1.427 . S
N280 C277 1.384 . S
N281 C273 1.427 . S
N281 C279 1.384 . S
H282 C288 0.930 . S
H283 C292 0.930 . S
H284 C297 0.929 . S
H285 C295 0.929 . S
H286 C290 0.929 . S
H287 C296 0.929 . S
C288 H282 0.930 . S
C288 C289 1.367 . S
C288 C296 1.378 . S
C289 C288 1.367 . S
C289 C297 1.433 . S
C290 H286 0.929 . S
C290 C292 1.378 . S
C290 C294 1.350 . S
C291 C294 1.463 . S
C291 C296 1.350 . S
C291 N299 1.427 . S
C292 H283 0.930 . S
C292 C290 1.378 . S
C292 C293 1.367 . S
C293 C292 1.367 . S
C293 C295 1.433 . S
C294 C290 1.350 . S
C294 C291 1.463 . S
C294 N298 1.427 . S
C295 H285 0.929 . S
C295 C293 1.433 . S
C295 N298 1.384 . S
C296 H287 0.929 . S
C296 C288 1.378 . S
C296 C291 1.350 . S
C297 H284 0.929 . S
C297 C289 1.433 . S
C297 N299 1.384 . S
N298 C294 1.427 . S
N298 C295 1.384 . S
N299 C291 1.427 . S
N299 C297 1.384 . S
H300 C306 0.930 1_554 S
H301 C310 0.930 . S
H302 C315 0.929 . S
H303 C313 0.929 . S
H304 C308 0.929 . S
H305 C314 0.929 . S
C306 H300 0.930 1_556 S
C306 C307 1.367 . S
C306 C314 1.378 . S
C307 C306 1.367 . S
C307 C315 1.433 . S
C308 H304 0.929 . S
C308 C310 1.378 . S
C308 C312 1.350 . S
C309 C312 1.463 . S
C309 C314 1.350 . S
C309 N317 1.427 . S
C310 H301 0.930 . S
C310 C308 1.378 . S
C310 C311 1.367 . S
C311 C310 1.367 . S
C311 C313 1.433 . S
C312 C308 1.350 . S
C312 C309 1.463 . S
C312 N316 1.427 . S
C313 H303 0.929 . S
C313 C311 1.433 . S
C313 N316 1.384 . S
C314 H305 0.929 . S
C314 C306 1.378 . S
C314 C309 1.350 . S
C315 H302 0.929 . S
C315 C307 1.433 . S
C315 N317 1.384 . S
N316 C312 1.427 . S
N316 C313 1.384 . S
N317 C309 1.427 . S
N317 C315 1.384 . S
H318 C324 0.930 . S
H319 C328 0.930 . S
H320 C333 0.929 . S
H321 C331 0.929 . S
H322 C326 0.929 . S
H323 C332 0.929 . S
C324 H318 0.930 . S
C324 C325 1.367 . S
C324 C332 1.378 . S
C325 C324 1.367 . S
C325 C333 1.433 . S
C326 H322 0.929 . S
C326 C328 1.378 . S
C326 C330 1.350 . S
C327 C330 1.463 . S
C327 C332 1.350 . S
C327 N335 1.427 . S
C328 H319 0.930 . S
C328 C326 1.378 . S
C328 C329 1.367 . S
C329 C328 1.367 . S
C329 C331 1.433 . S
C330 C326 1.350 . S
C330 C327 1.463 . S
C330 N334 1.427 . S
C331 H321 0.929 . S
C331 C329 1.433 . S
C331 N334 1.384 . S
C332 H323 0.929 . S
C332 C324 1.378 . S
C332 C327 1.350 . S
C333 H320 0.929 . S
C333 C325 1.433 . S
C333 N335 1.384 . S
N334 C330 1.427 . S
N334 C331 1.384 . S
N335 C327 1.427 . S
N335 C333 1.384 . S
H336 C342 0.930 . S
H337 C346 0.930 . S
H338 C351 0.929 . S
H339 C349 0.929 . S
H340 C344 0.929 . S
H341 C350 0.929 . S
C342 H336 0.930 . S
C342 C343 1.367 . S
C342 C350 1.378 . S
C343 C342 1.367 . S
C343 C351 1.433 1_556 S
C344 H340 0.929 . S
C344 C346 1.378 . S
C344 C348 1.350 . S
C345 C348 1.463 . S
C345 C350 1.350 . S
C345 N353 1.427 . S
C346 H337 0.930 . S
C346 C344 1.378 . S
C346 C347 1.367 . S
C347 C346 1.367 . S
C347 C349 1.433 . S
C348 C344 1.350 . S
C348 C345 1.463 . S
C348 N352 1.427 . S
C349 H339 0.929 . S
C349 C347 1.433 . S
C349 N352 1.384 . S
C350 H341 0.929 . S
C350 C342 1.378 . S
C350 C345 1.350 . S
C351 H338 0.929 . S
C351 C343 1.433 1_554 S
C351 N353 1.384 1_554 S
N352 C348 1.427 . S
N352 C349 1.384 . S
N353 C345 1.427 . S
N353 C351 1.384 1_556 S
H354 C360 0.930 . S
H355 C364 0.930 . S
H356 C369 0.929 . S
H357 C367 0.929 . S
H358 C362 0.929 . S
H359 C368 0.929 . S
C360 H354 0.930 . S
C360 C361 1.367 . S
C360 C368 1.378 . S
C361 C360 1.367 . S
C361 C369 1.433 . S
C362 H358 0.929 . S
C362 C364 1.378 . S
C362 C366 1.350 . S
C363 C366 1.463 . S
C363 C368 1.350 . S
C363 N371 1.427 . S
C364 H355 0.930 . S
C364 C362 1.378 . S
C364 C365 1.367 . S
C365 C364 1.367 . S
C365 C367 1.433 . S
C366 C362 1.350 . S
C366 C363 1.463 . S
C366 N370 1.427 . S
C367 H357 0.929 . S
C367 C365 1.433 . S
C367 N370 1.384 . S
C368 H359 0.929 . S
C368 C360 1.378 . S
C368 C363 1.350 . S
C369 H356 0.929 . S
C369 C361 1.433 . S
C369 N371 1.384 . S
N370 C366 1.427 . S
N370 C367 1.384 . S
N371 C363 1.427 . S
N371 C369 1.384 . S
H372 C378 0.930 . S
H373 C382 0.930 . S
H374 C387 0.929 . S
H375 C385 0.929 . S
H376 C380 0.929 . S
H377 C386 0.929 . S
C378 H372 0.930 . S
C378 C379 1.367 . S
C378 C386 1.378 . S
C379 C378 1.367 . S
C379 C387 1.433 1_556 S
C380 H376 0.929 . S
C380 C382 1.378 . S
C380 C384 1.350 . S
C381 C384 1.463 . S
C381 C386 1.350 . S
C381 N389 1.427 . S
C382 H373 0.930 . S
C382 C380 1.378 . S
C382 C383 1.367 . S
C383 C382 1.367 . S
C383 C385 1.433 . S
C384 C380 1.350 . S
C384 C381 1.463 . S
C384 N388 1.427 . S
C385 H375 0.929 . S
C385 C383 1.433 . S
C385 N388 1.384 . S
C386 H377 0.929 . S
C386 C378 1.378 . S
C386 C381 1.350 . S
C387 H374 0.929 . S
C387 C379 1.433 1_554 S
C387 N389 1.384 1_554 S
N388 C384 1.427 . S
N388 C385 1.384 . S
N389 C381 1.427 . S
N389 C387 1.384 1_556 S
H390 C396 0.930 . S
H391 C400 0.930 . S
H392 C405 0.929 . S
H393 C403 0.929 . S
H394 C398 0.929 . S
H395 C404 0.929 . S
C396 H390 0.930 . S
C396 C397 1.367 . S
C396 C404 1.378 . S
C397 C396 1.367 . S
C397 C405 1.433 . S
C398 H394 0.929 . S
C398 C400 1.378 . S
C398 C402 1.350 . S
C399 C402 1.463 . S
C399 C404 1.350 . S
C399 N407 1.427 . S
C400 H391 0.930 . S
C400 C398 1.378 . S
C400 C401 1.367 . S
C401 C400 1.367 . S
C401 C403 1.433 . S
C402 C398 1.350 . S
C402 C399 1.463 . S
C402 N406 1.427 . S
C403 H393 0.929 . S
C403 C401 1.433 . S
C403 N406 1.384 . S
C404 H395 0.929 . S
C404 C396 1.378 . S
C404 C399 1.350 . S
C405 H392 0.929 . S
C405 C397 1.433 . S
C405 N407 1.384 . S
N406 C402 1.427 . S
N406 C403 1.384 . S
N407 C399 1.427 . S
N407 C405 1.384 . S
H408 C414 0.930 . S
H409 C418 0.930 . S
H410 C423 0.929 . S
H411 C421 0.929 1_565 S
H412 C416 0.929 . S
H413 C422 0.929 . S
C414 H408 0.930 . S
C414 C415 1.367 . S
C414 C422 1.378 . S
C415 C414 1.367 . S
C415 C423 1.433 . S
C416 H412 0.929 . S
C416 C418 1.378 . S
C416 C420 1.350 1_545 S
C417 C420 1.463 . S
C417 C422 1.350 . S
C417 N425 1.427 . S
C418 H409 0.930 . S
C418 C416 1.378 . S
C418 C419 1.367 . S
C419 C418 1.367 . S
C419 C421 1.433 . S
C420 C416 1.350 1_565 S
C420 C417 1.463 . S
C420 N424 1.427 . S
C421 H411 0.929 1_545 S
C421 C419 1.433 . S
C421 N424 1.384 1_545 S
C422 H413 0.929 . S
C422 C414 1.378 . S
C422 C417 1.350 . S
C423 H410 0.929 . S
C423 C415 1.433 . S
C423 N425 1.384 . S
N424 C420 1.427 . S
N424 C421 1.384 1_565 S
N425 C417 1.427 . S
N425 C423 1.384 . S
H426 C432 0.930 . S
H427 C436 0.930 . S
H428 C441 0.929 . S
H429 C439 0.929 . S
H430 C434 0.929 . S
H431 C440 0.929 . S
C432 H426 0.930 . S
C432 C433 1.367 . S
C432 C440 1.378 . S
C433 C432 1.367 . S
C433 C441 1.433 . S
C434 H430 0.929 . S
C434 C436 1.378 . S
C434 C438 1.350 1_565 S
C435 C438 1.463 . S
C435 C440 1.350 . S
C435 N443 1.427 . S
C436 H427 0.930 . S
C436 C434 1.378 . S
C436 C437 1.367 . S
C437 C436 1.367 . S
C437 C439 1.433 . S
C438 C434 1.350 1_545 S
C438 C435 1.463 . S
C438 N442 1.427 . S
C439 H429 0.929 . S
C439 C437 1.433 . S
C439 N442 1.384 1_565 S
C440 H431 0.929 . S
C440 C432 1.378 . S
C440 C435 1.350 . S
C441 H428 0.929 . S
C441 C433 1.433 . S
C441 N443 1.384 . S
N442 C438 1.427 . S
N442 C439 1.384 1_545 S
N443 C435 1.427 . S
N443 C441 1.384 . S
H444 C450 0.930 . S
H445 C454 0.930 . S
H446 C459 0.929 . S
H447 C457 0.929 . S
H448 C452 0.913 1_565 S
H449 C458 0.929 1_554 S
C450 H444 0.930 . S
C450 C451 1.367 1_554 S
C450 C458 1.378 1_554 S
C451 C450 1.367 1_556 S
C451 C459 1.433 . S
C452 H448 0.913 1_545 S
C452 C454 1.398 . S
C452 C456 1.347 1_545 S
C453 C456 1.463 . S
C453 C458 1.350 . S
C453 N461 1.427 . S
C454 H445 0.930 . S
C454 C452 1.398 . S
C454 C455 1.367 . S
C455 C454 1.367 . S
C455 C457 1.433 . S
C456 C452 1.347 1_565 S
C456 C453 1.463 . S
C456 N460 1.427 1_565 S
C457 H447 0.929 . S
C457 C455 1.433 . S
C457 N460 1.384 . S
C458 H449 0.929 1_556 S
C458 C450 1.378 1_556 S
C458 C453 1.350 . S
C459 H446 0.929 . S
C459 C451 1.433 . S
C459 N461 1.384 . S
N460 C456 1.427 1_545 S
N460 C457 1.384 . S
N461 C453 1.427 . S
N461 C459 1.384 . S
H462 C468 0.930 . S
H463 C472 0.930 . S
H464 C477 0.929 . S
H465 C475 0.929 . S
H466 C470 0.929 . S
H467 C476 0.929 . S
C468 H462 0.930 . S
C468 C469 1.367 . S
C468 C476 1.378 . S
C469 C468 1.367 . S
C469 C477 1.433 . S
C470 H466 0.929 . S
C470 C472 1.378 . S
C470 C474 1.350 1_565 S
C471 C474 1.463 . S
C471 C476 1.350 . S
C471 N479 1.427 . S
C472 H463 0.930 . S
C472 C470 1.378 . S
C472 C473 1.367 . S
C473 C472 1.367 . S
C473 C475 1.433 . S
C474 C470 1.350 1_545 S
C474 C471 1.463 . S
C474 N478 1.428 . S
C475 H465 0.929 . S
C475 C473 1.433 . S
C475 N478 1.379 1_565 S
C476 H467 0.929 . S
C476 C468 1.378 . S
C476 C471 1.350 . S
C477 H464 0.929 . S
C477 C469 1.433 . S
C477 N479 1.384 . S
N478 C474 1.428 . S
N478 C475 1.379 1_545 S
N479 C471 1.427 . S
N479 C477 1.384 . S
H480 C486 0.930 . S
H481 C490 0.930 . S
H482 C495 0.929 . S
H483 C493 0.929 . S
H484 C488 0.929 . S
H485 C494 0.929 . S
C486 H480 0.930 . S
C486 C487 1.367 . S
C486 C494 1.378 . S
C487 C486 1.367 . S
C487 C495 1.433 . S
C488 H484 0.929 . S
C488 C490 1.378 . S
C488 C492 1.350 . S
C489 C492 1.463 . S
C489 C494 1.350 . S
C489 N497 1.427 . S
C490 H481 0.930 . S
C490 C488 1.378 . S
C490 C491 1.367 . S
C491 C490 1.367 . S
C491 C493 1.433 . S
C492 C488 1.350 . S
C492 C489 1.463 . S
C492 N496 1.427 . S
C493 H483 0.929 . S
C493 C491 1.433 . S
C493 N496 1.384 . S
C494 H485 0.929 . S
C494 C486 1.378 . S
C494 C489 1.350 . S
C495 H482 0.929 . S
C495 C487 1.433 . S
C495 N497 1.384 . S
N496 C492 1.427 . S
N496 C493 1.384 . S
N497 C489 1.427 . S
N497 C495 1.384 . S
H498 C504 0.930 . S
H499 C508 0.930 . S
H500 C513 0.929 . S
H501 C511 0.929 . S
H502 C506 0.929 . S
H503 C512 0.929 . S
C504 H498 0.930 . S
C504 C505 1.367 . S
C504 C512 1.378 . S
C505 C504 1.367 . S
C505 C513 1.433 . S
C506 H502 0.929 . S
C506 C508 1.378 . S
C506 C510 1.350 . S
C507 C510 1.463 . S
C507 C512 1.350 . S
C507 N515 1.427 . S
C508 H499 0.930 . S
C508 C506 1.378 . S
C508 C509 1.367 . S
C509 C508 1.367 . S
C509 C511 1.433 . S
C510 C506 1.350 . S
C510 C507 1.463 . S
C510 N514 1.427 . S
C511 H501 0.929 . S
C511 C509 1.433 . S
C511 N514 1.384 . S
C512 H503 0.929 . S
C512 C504 1.378 . S
C512 C507 1.350 . S
C513 H500 0.929 . S
C513 C505 1.433 . S
C513 N515 1.384 . S
N514 C510 1.427 . S
N514 C511 1.384 . S
N515 C507 1.427 . S
N515 C513 1.384 . S
H516 C522 0.930 . S
H517 C526 0.930 . S
H518 C531 0.929 . S
H519 C529 0.929 . S
H520 C524 0.929 . S
H521 C530 0.929 . S
C522 H516 0.930 . S
C522 C523 1.367 . S
C522 C530 1.378 . S
C523 C522 1.367 . S
C523 C531 1.433 . S
C524 H520 0.929 . S
C524 C526 1.378 . S
C524 C528 1.350 . S
C525 C528 1.463 . S
C525 C530 1.350 . S
C525 N533 1.427 . S
C526 H517 0.930 . S
C526 C524 1.378 . S
C526 C527 1.367 . S
C527 C526 1.367 . S
C527 C529 1.433 . S
C528 C524 1.350 . S
C528 C525 1.463 . S
C528 N532 1.427 . S
C529 H519 0.929 . S
C529 C527 1.433 . S
C529 N532 1.384 . S
C530 H521 0.929 . S
C530 C522 1.378 . S
C530 C525 1.350 . S
C531 H518 0.929 . S
C531 C523 1.433 . S
C531 N533 1.384 . S
N532 C528 1.427 . S
N532 C529 1.384 . S
N533 C525 1.427 . S
N533 C531 1.384 . S
H534 C540 0.930 . S
H535 C544 0.930 . S
H536 C549 0.929 . S
H537 C547 0.929 . S
H538 C542 0.929 . S
H539 C548 0.929 . S
C540 H534 0.930 . S
C540 C541 1.367 . S
C540 C548 1.378 . S
C541 C540 1.367 . S
C541 C549 1.433 . S
C542 H538 0.929 . S
C542 C544 1.378 . S
C542 C546 1.350 . S
C543 C546 1.463 . S
C543 C548 1.350 . S
C543 N551 1.427 . S
C544 H535 0.930 . S
C544 C542 1.378 . S
C544 C545 1.367 . S
C545 C544 1.367 . S
C545 C547 1.433 . S
C546 C542 1.350 . S
C546 C543 1.463 . S
C546 N550 1.427 . S
C547 H537 0.929 . S
C547 C545 1.433 . S
C547 N550 1.384 . S
C548 H539 0.929 . S
C548 C540 1.378 . S
C548 C543 1.350 . S
C549 H536 0.929 . S
C549 C541 1.433 . S
C549 N551 1.384 . S
N550 C546 1.427 . S
N550 C547 1.384 . S
N551 C543 1.427 . S
N551 C549 1.384 . S
H552 C558 0.930 . S
H553 C562 0.930 . S
H554 C567 0.929 . S
H555 C565 0.929 . S
H556 C560 0.929 . S
H557 C566 0.929 . S
C558 H552 0.930 . S
C558 C559 1.367 . S
C558 C566 1.378 . S
C559 C558 1.367 . S
C559 C567 1.433 . S
C560 H556 0.929 . S
C560 C562 1.378 . S
C560 C564 1.350 . S
C561 C564 1.463 . S
C561 C566 1.350 . S
C561 N569 1.427 . S
C562 H553 0.930 . S
C562 C560 1.378 . S
C562 C563 1.367 . S
C563 C562 1.367 . S
C563 C565 1.433 . S
C564 C560 1.350 . S
C564 C561 1.463 . S
C564 N568 1.427 . S
C565 H555 0.929 . S
C565 C563 1.433 . S
C565 N568 1.384 . S
C566 H557 0.929 . S
C566 C558 1.378 . S
C566 C561 1.350 . S
C567 H554 0.929 . S
C567 C559 1.433 . S
C567 N569 1.384 . S
N568 C564 1.427 . S
N568 C565 1.384 . S
N569 C561 1.427 . S
N569 C567 1.384 . S
H570 C576 0.930 . S
H571 C580 0.930 . S
H572 C585 0.929 . S
H573 C583 0.929 . S
H574 C578 0.929 . S
H575 C584 0.929 . S
C576 H570 0.930 . S
C576 C577 1.367 . S
C576 C584 1.378 . S
C577 C576 1.367 . S
C577 C585 1.433 . S
C578 H574 0.929 . S
C578 C580 1.378 . S
C578 C582 1.350 . S
C579 C582 1.463 . S
C579 C584 1.350 . S
C579 N587 1.427 . S
C580 H571 0.930 . S
C580 C578 1.378 . S
C580 C581 1.367 . S
C581 C580 1.367 . S
C581 C583 1.433 . S
C582 C578 1.350 . S
C582 C579 1.463 . S
C582 N586 1.427 . S
C583 H573 0.929 . S
C583 C581 1.433 . S
C583 N586 1.384 . S
C584 H575 0.929 . S
C584 C576 1.378 . S
C584 C579 1.350 . S
C585 H572 0.929 . S
C585 C577 1.433 . S
C585 N587 1.384 . S
N586 C582 1.427 . S
N586 C583 1.384 . S
N587 C579 1.427 . S
N587 C585 1.384 . S
H588 C594 0.930 . S
H589 C598 0.930 . S
H590 C603 0.929 . S
H591 C601 0.929 . S
H592 C596 0.929 . S
H593 C602 0.929 . S
C594 H588 0.930 . S
C594 C595 1.367 . S
C594 C602 1.378 . S
C595 C594 1.367 . S
C595 C603 1.433 . S
C596 H592 0.929 . S
C596 C598 1.378 . S
C596 C600 1.350 . S
C597 C600 1.463 . S
C597 C602 1.350 . S
C597 N605 1.427 . S
C598 H589 0.930 . S
C598 C596 1.378 . S
C598 C599 1.367 . S
C599 C598 1.367 . S
C599 C601 1.433 . S
C600 C596 1.350 . S
C600 C597 1.463 . S
C600 N604 1.427 . S
C601 H591 0.929 . S
C601 C599 1.433 . S
C601 N604 1.384 . S
C602 H593 0.929 . S
C602 C594 1.378 . S
C602 C597 1.350 . S
C603 H590 0.929 . S
C603 C595 1.433 . S
C603 N605 1.384 . S
N604 C600 1.427 . S
N604 C601 1.384 . S
N605 C597 1.427 . S
N605 C603 1.384 . S
H606 C612 0.930 . S
H607 C616 0.930 . S
H608 C621 0.929 . S
H609 C619 0.929 . S
H610 C614 0.929 . S
H611 C620 0.929 . S
C612 H606 0.930 . S
C612 C613 1.367 . S
C612 C620 1.378 . S
C613 C612 1.367 . S
C613 C621 1.433 . S
C614 H610 0.929 . S
C614 C616 1.378 . S
C614 C618 1.350 . S
C615 C618 1.463 . S
C615 C620 1.350 . S
C615 N623 1.427 . S
C616 H607 0.930 . S
C616 C614 1.378 . S
C616 C617 1.367 . S
C617 C616 1.367 . S
C617 C619 1.433 . S
C618 C614 1.350 . S
C618 C615 1.463 . S
C618 N622 1.427 . S
C619 H609 0.929 . S
C619 C617 1.433 . S
C619 N622 1.384 . S
C620 H611 0.929 . S
C620 C612 1.378 . S
C620 C615 1.350 . S
C621 H608 0.929 . S
C621 C613 1.433 . S
C621 N623 1.384 . S
N622 C618 1.427 . S
N622 C619 1.384 . S
N623 C615 1.427 . S
N623 C621 1.384 . S
C199 N2 1.544 . S
C203 C147 1.531 . S
C221 C111 1.536 . S
C217 N15 1.546 . S
C239 C134 1.531 . S
C235 N28 1.522 . S
C257 C122 1.532 . S
C253 N41 1.524 . S
C275 C191 1.534 . S
C271 N54 1.545 . S
C293 C155 1.534 . S
C289 N67 1.545 . S
C307 N80 1.522 . S
C311 C178 1.531 . S
C329 C166 1.531 . S
C325 N93 1.523 . S
C343 N5 1.508 . S
C347 C188 1.509 . S
C365 C158 1.509 . S
C361 N18 1.505 . S
C379 N31 1.523 . S
C383 C177 1.524 . S
C397 N44 1.529 . S
C401 C163 1.524 . S
C419 C144 1.510 . S
C415 N57 1.508 . S
C433 N70 1.500 . S
C437 C114 1.509 . S
C455 C133 1.527 . S
C451 N83 1.528 . S
C473 C119 1.524 . S
C469 N96 1.523 . S
C491 C169 1.529 . S
C487 N1 1.537 . S
C509 C185 1.529 . S
C505 N14 1.534 . S
C523 N27 1.485 . S
C527 C156 1.505 . S
C545 C180 1.504 . S
C541 N40 1.491 . S
C563 C125 1.526 . S
C559 N53 1.536 . S
C577 N66 1.537 . S
C581 C141 1.528 . S
C595 N79 1.488 . S
C599 C112 1.505 . S
C613 N92 1.491 . S
C617 C136 1.504 . S
