# Generated by pormake.
# Topology zzz, (3,6)-cn, num edge types: 1
# Building blocks:
#     Node 0, Type 0, BuildingBlock: VETTIZ_charged_linker_0, # of connection points: 3
#     Node 1, Type 0, BuildingBlock: VETTIZ_charged_linker_0, # of connection points: 3
#     Node 2, Type 0, BuildingBlock: VETTIZ_charged_linker_0, # of connection points: 3
#     Node 3, Type 0, BuildingBlock: VETTIZ_charged_linker_0, # of connection points: 3
#     Node 4, Type 0, BuildingBlock: VETTIZ_charged_linker_0, # of connection points: 3
#     Node 5, Type 0, BuildingBlock: VETTIZ_charged_linker_0, # of connection points: 3
#     Node 6, Type 0, BuildingBlock: VETTIZ_charged_linker_0, # of connection points: 3
#     Node 7, Type 0, BuildingBlock: VETTIZ_charged_linker_0, # of connection points: 3
#     Node 8, Type 1, BuildingBlock: HISSIN_clean_sbu_0, # of connection points: 6
#     Node 9, Type 1, BuildingBlock: HISSIN_clean_sbu_0, # of connection points: 6
#     Node 10, Type 1, BuildingBlock: HISSIN_clean_sbu_0, # of connection points: 6
#     Node 11, Type 1, BuildingBlock: HISSIN_clean_sbu_0, # of connection points: 6
#     Edge 12, Type (0, 1), BuildingBlock: UVAHIK_clean_linker_0, # of connection points: 2
#     Edge 13, Type (0, 1), BuildingBlock: UVAHIK_clean_linker_0, # of connection points: 2
#     Edge 14, Type (0, 1), BuildingBlock: UVAHIK_clean_linker_0, # of connection points: 2
#     Edge 15, Type (0, 1), BuildingBlock: UVAHIK_clean_linker_0, # of connection points: 2
#     Edge 16, Type (0, 1), BuildingBlock: UVAHIK_clean_linker_0, # of connection points: 2
#     Edge 17, Type (0, 1), BuildingBlock: UVAHIK_clean_linker_0, # of connection points: 2
#     Edge 18, Type (0, 1), BuildingBlock: UVAHIK_clean_linker_0, # of connection points: 2
#     Edge 19, Type (0, 1), BuildingBlock: UVAHIK_clean_linker_0, # of connection points: 2
#     Edge 20, Type (0, 1), BuildingBlock: UVAHIK_clean_linker_0, # of connection points: 2
#     Edge 21, Type (0, 1), BuildingBlock: UVAHIK_clean_linker_0, # of connection points: 2
#     Edge 22, Type (0, 1), BuildingBlock: UVAHIK_clean_linker_0, # of connection points: 2
#     Edge 23, Type (0, 1), BuildingBlock: UVAHIK_clean_linker_0, # of connection points: 2
#     Edge 24, Type (0, 1), BuildingBlock: UVAHIK_clean_linker_0, # of connection points: 2
#     Edge 25, Type (0, 1), BuildingBlock: UVAHIK_clean_linker_0, # of connection points: 2
#     Edge 26, Type (0, 1), BuildingBlock: UVAHIK_clean_linker_0, # of connection points: 2
#     Edge 27, Type (0, 1), BuildingBlock: UVAHIK_clean_linker_0, # of connection points: 2
#     Edge 28, Type (0, 1), BuildingBlock: UVAHIK_clean_linker_0, # of connection points: 2
#     Edge 29, Type (0, 1), BuildingBlock: UVAHIK_clean_linker_0, # of connection points: 2
#     Edge 30, Type (0, 1), BuildingBlock: UVAHIK_clean_linker_0, # of connection points: 2
#     Edge 31, Type (0, 1), BuildingBlock: UVAHIK_clean_linker_0, # of connection points: 2
#     Edge 32, Type (0, 1), BuildingBlock: UVAHIK_clean_linker_0, # of connection points: 2
#     Edge 33, Type (0, 1), BuildingBlock: UVAHIK_clean_linker_0, # of connection points: 2
#     Edge 34, Type (0, 1), BuildingBlock: UVAHIK_clean_linker_0, # of connection points: 2
#     Edge 35, Type (0, 1), BuildingBlock: UVAHIK_clean_linker_0, # of connection points: 2
# Relax obj value: 0.364
# Max RMSD: 0.214
# Mean RMSD: 0.191
data_MOF--net-zzz--node1-HISSIN_clean_sbu_0--node2-VETTIZ_charged_linker_0--edge1-UVAHIK_clean_linker_0
_symmetry_space_group_name_H-M    P1
_symmetry_Int_Tables_number       1
_symmetry_cell_setting            triclinic
loop_
_symmetry_equiv_pos_as_xyz
'x, y, z'
_cell_length_a     69.186515
_cell_length_b     69.721369
_cell_length_c     26.628832
_cell_angle_alpha  89.55595
_cell_angle_beta   92.083003
_cell_angle_gamma 91.836933
loop_
_atom_site_label
_atom_site_type_symbol
_atom_site_fract_x
_atom_site_fract_y
_atom_site_fract_z
_atom_type_partial_charge
C0 C 0.78444 0.55759 0.27873 0.0
C1 C 0.8036 0.56405 0.29174 0.0
C2 C 0.81298 0.5772 0.25973 0.0
C3 C 0.78512 0.57702 0.20248 0.0
C4 C 0.77532 0.5646 0.23406 0.0
C5 C 0.75482 0.56036 0.21377 0.0
H6 H 0.68699 0.57704 0.0249 0.0
C7 C 0.77237 0.58156 0.15889 0.0
C8 C 0.7542 0.57242 0.16542 0.0
H9 H 0.67943 0.53916 0.15209 0.0
H10 H 0.71215 0.5478 0.1837 0.0
H11 H 0.71096 0.61235 0.08381 0.0
H12 H 0.72257 0.5633 0.99688 0.0
H13 H 0.74359 0.57754 0.99006 0.0
H14 H 0.72057 0.58636 0.96776 0.0
H15 H 0.70612 0.60975 0.01747 0.0
H16 H 0.72906 0.61938 0.04189 0.0
C17 C 0.7405 0.56734 0.25221 0.0
C18 C 0.75262 0.53869 0.2028 0.0
C19 C 0.80177 0.61026 1.00344 0.0
C20 C 0.79386 0.61352 0.95473 0.0
C21 C 0.77364 0.6151 0.94848 0.0
C22 C 0.76149 0.61078 0.98825 0.0
C23 C 0.76964 0.60478 0.03465 0.0
C24 C 0.78943 0.60585 0.04266 0.0
C25 C 0.79548 0.59948 0.09484 0.0
C26 C 0.77617 0.5922 0.11448 0.0
C27 C 0.76121 0.59523 0.07892 0.0
C28 C 0.80367 0.61738 0.12391 0.0
C29 C 0.81003 0.58313 0.09061 0.0
C30 C 0.69205 0.57092 0.06034 0.0
C31 C 0.68041 0.55775 0.08648 0.0
C32 C 0.68808 0.54947 0.13128 0.0
C33 C 0.70705 0.5545 0.14952 0.0
C34 C 0.71856 0.56764 0.12215 0.0
C35 C 0.71083 0.57544 0.07819 0.0
C36 C 0.72505 0.58775 0.05067 0.0
C37 C 0.74265 0.58666 0.08571 0.0
C38 C 0.73901 0.57503 0.12817 0.0
C39 C 0.71745 0.60842 0.04782 0.0
C40 C 0.72812 0.57845 0.99863 0.0
H41 H 0.81203 0.59352 0.19311 0.0
H42 H 0.77679 0.54761 0.30287 0.0
H43 H 0.76533 0.53372 0.18266 0.0
H44 H 0.73983 0.53509 0.17837 0.0
H45 H 0.7516 0.53028 0.23828 0.0
H46 H 0.74464 0.58215 0.26469 0.0
H47 H 0.74049 0.55786 0.28594 0.0
H48 H 0.72558 0.56794 0.23643 0.0
H49 H 0.81721 0.60918 0.01011 0.0
H50 H 0.76712 0.61835 0.91193 0.0
H51 H 0.74621 0.61117 0.98044 0.0
H52 H 0.80006 0.63106 0.10447 0.0
H53 H 0.81969 0.61723 0.1284 0.0
H54 H 0.79742 0.61849 0.16154 0.0
H55 H 0.8048 0.57261 0.06157 0.0
H56 H 0.81207 0.57477 0.12556 0.0
H57 H 0.82445 0.58889 0.07984 0.0
H58 H 0.82771 0.58224 0.26833 0.0
C59 C 0.80387 0.58374 0.21572 0.0
C60 C 0.9107 0.80145 0.98053 0.0
C61 C 0.90355 0.81897 0.99704 0.0
C62 C 0.90439 0.82284 0.04903 0.0
C63 C 0.92367 0.79499 0.0645 0.0
C64 C 0.92078 0.78973 0.01496 0.0
C65 C 0.93124 0.77173 1.0035 0.0
H66 H 0.99376 0.70286 0.0749 0.0
C67 C 0.93826 0.78241 0.08788 0.0
C68 C 0.94258 0.76852 0.05295 0.0
H69 H 0.95609 0.70662 0.94197 0.0
H70 H 0.9451 0.73671 0.9687 0.0
H71 H 1.00553 0.7534 0.07111 0.0
H72 H 0.96418 0.72144 0.16152 0.0
H73 H 0.98161 0.73598 0.19622 0.0
H74 H 0.98933 0.71546 0.16301 0.0
H75 H 0.01341 0.73499 0.11418 0.0
H76 H 0.00764 0.75835 0.13628 0.0
C77 C 0.9449 0.77612 0.95967 0.0
C78 C 0.91577 0.7555 0.99256 0.0
C79 C 0.96906 0.80506 0.25131 0.0
C80 C 0.98588 0.80096 0.27953 0.0
C81 C 0.99688 0.78535 0.26431 0.0
C82 C 0.99089 0.77412 0.22174 0.0
C83 C 0.97405 0.77888 0.19335 0.0
C84 C 0.96369 0.79431 0.20883 0.0
C85 C 0.94741 0.79917 0.17336 0.0
C86 C 0.94942 0.78426 0.13327 0.0
C87 C 0.96472 0.77184 0.14477 0.0
C88 C 0.95115 0.82004 0.15359 0.0
C89 C 0.92826 0.79596 0.20128 0.0
C90 C 0.98311 0.71028 0.05192 0.0
C91 C 0.97533 0.70188 1.00674 0.0
C92 C 0.96183 0.71224 0.97749 0.0
C93 C 0.95538 0.72984 0.99313 0.0
C94 C 0.96244 0.73767 0.0387 0.0
C95 C 0.9763 0.72828 0.0674 0.0
C96 C 0.98222 0.73991 0.11411 0.0
C97 C 0.9682 0.75654 0.11055 0.0
C98 C 0.95703 0.75506 0.06525 0.0
C99 C 1.00338 0.74704 0.10903 0.0
C100 C 0.97923 0.72754 0.1615 0.0
H101 H 0.91524 0.81528 0.1212 0.0
H102 H 0.90974 0.79767 0.94114 0.0
H103 H 0.90129 0.75913 1.00594 0.0
H104 H 0.9193 0.74197 0.0125 0.0
H105 H 0.914 0.75262 0.95166 0.0
H106 H 0.95244 0.79034 0.96498 0.0
H107 H 0.93667 0.77647 0.92309 0.0
H108 H 0.9565 0.76571 0.95704 0.0
H109 H 0.96055 0.81725 0.26053 0.0
H110 H 0.01 0.78184 0.2853 0.0
H111 H 0.99961 0.76233 0.21205 0.0
H112 H 0.96646 0.82506 0.16005 0.0
H113 H 0.94201 0.83042 0.17244 0.0
H114 H 0.94876 0.8214 0.11245 0.0
H115 H 0.92912 0.78342 0.22729 0.0
H116 H 0.91574 0.7925 0.17555 0.0
H117 H 0.92503 0.80868 0.22401 0.0
H118 H 0.89904 0.83605 0.06352 0.0
C119 C 0.91425 0.81088 0.08274 0.0
C120 C 0.8119 0.98458 0.06012 0.0
C121 C 0.8209 0.97568 0.01946 0.0
C122 C 0.8118 0.95926 0.9978 0.0
C123 C 0.78635 0.95967 0.0576 0.0
C124 C 0.79457 0.97613 0.07902 0.0
C125 C 0.78244 0.98265 0.12229 0.0
H126 H 0.70819 0.95669 0.28004 0.0
C127 C 0.7697 0.95312 0.08691 0.0
C128 C 0.76742 0.96602 0.12659 0.0
H129 H 0.73648 0.01261 0.27421 0.0
H130 H 0.75771 1.00128 0.20935 0.0
H131 H 0.69765 0.95147 0.18938 0.0
H132 H 0.74727 0.93085 0.26244 0.0
H133 H 0.73864 0.91268 0.22095 0.0
H134 H 0.72255 0.92235 0.26559 0.0
H135 H 0.69931 0.9263 0.19706 0.0
H136 H 0.7057 0.93813 0.13913 0.0
C137 C 0.77287 1.00147 0.106 0.0
C138 C 0.79524 0.98488 0.17048 0.0
C139 C 0.72294 0.90128 0.02173 0.0
C140 C 0.7067 0.89231 0.04375 0.0
C141 C 0.70618 0.89169 0.09672 0.0
C142 C 0.71923 0.90296 0.1261 0.0
C143 C 0.73299 0.91469 0.10226 0.0
C144 C 0.73606 0.91221 0.05201 0.0
C145 C 0.75345 0.92385 0.03551 0.0
C146 C 0.75759 0.93639 0.08168 0.0
C147 C 0.74515 0.93119 0.11995 0.0
C148 C 0.74768 0.93593 0.98857 0.0
C149 C 0.76991 0.9097 0.02676 0.0
C150 C 0.7191 0.96656 0.26558 0.0
C151 C 0.72069 0.98547 0.28289 0.0
C152 C 0.73483 0.99791 0.26154 0.0
C153 C 0.74701 0.99139 0.22366 0.0
C154 C 0.74459 0.97245 0.20558 0.0
C155 C 0.73054 0.96061 0.22668 0.0
C156 C 0.72807 0.94163 0.20126 0.0
C157 C 0.74251 0.94397 0.16006 0.0
C158 C 0.75289 0.96176 0.16296 0.0
C159 C 0.7067 0.93913 0.18069 0.0
C160 C 0.73431 0.92594 0.23945 0.0
H161 H 0.78874 0.93895 0.99764 0.0
H162 H 0.81841 0.99737 0.07724 0.0
H163 H 0.80292 0.9714 0.17888 0.0
H164 H 0.78661 0.98809 0.20331 0.0
H165 H 0.80625 0.99668 0.1662 0.0
H166 H 0.766 1.00004 0.06772 0.0
H167 H 0.78379 0.0135 0.1051 0.0
H168 H 0.76131 0.0054 0.13097 0.0
H169 H 0.72445 0.90143 0.98147 0.0
H170 H 0.6947 0.88381 0.11525 0.0
H171 H 0.71755 0.90288 0.16591 0.0
H172 H 0.73393 0.94328 0.99451 0.0
H173 H 0.74559 0.92672 0.95485 0.0
H174 H 0.75856 0.94729 0.97993 0.0
H175 H 0.76632 0.89486 0.03998 0.0
H176 H 0.78347 0.91397 0.04793 0.0
H177 H 0.77299 0.90862 0.98624 0.0
H178 H 0.81802 0.95239 0.96604 0.0
C179 C 0.79479 0.95131 0.01647 0.0
C180 C 0.5043 0.72591 0.23678 0.0
C181 C 0.49455 0.70946 0.2563 0.0
C182 C 0.47682 0.70328 0.23344 0.0
C183 C 0.47826 0.72954 0.17373 0.0
C184 C 0.49568 0.73594 0.19567 0.0
C185 C 0.5031 0.75414 0.16998 0.0
H186 H 0.48411 0.8247 0.99469 0.0
C187 C 0.47264 0.74292 0.13305 0.0
C188 C 0.48681 0.75782 0.13092 0.0
H189 H 0.53687 0.81966 0.08442 0.0
H190 H 0.52364 0.79062 0.12438 0.0
H191 H 0.48267 0.78471 0.96132 0.0
H192 H 0.45336 0.81137 0.07977 0.0
H193 H 0.43629 0.79594 0.04868 0.0
H194 H 0.44793 0.81515 0.01408 0.0
H195 H 0.46031 0.79647 0.94959 0.0
H196 H 0.46102 0.77126 0.965 0.0
C197 C 0.52223 0.74971 0.145 0.0
C198 C 0.50526 0.77031 0.20916 0.0
C199 C 0.41583 0.72499 0.01547 0.0
C200 C 0.40753 0.73413 0.97285 0.0
C201 C 0.41229 0.75371 0.96455 0.0
C202 C 0.42656 0.76326 0.99454 0.0
C203 C 0.43611 0.75322 0.03358 0.0
C204 C 0.42994 0.73479 0.04523 0.0
C205 C 0.44109 0.72669 0.08961 0.0
C206 C 0.45628 0.74262 0.09929 0.0
C207 C 0.45336 0.75798 0.06613 0.0
C208 C 0.45029 0.70784 0.07322 0.0
C209 C 0.42703 0.72428 0.13361 0.0
C210 C 0.49274 0.81757 0.02359 0.0
C211 C 0.51135 0.82462 0.03707 0.0
C212 C 0.52239 0.81451 0.0736 0.0
C213 C 0.51471 0.79769 0.09665 0.0
C214 C 0.49597 0.79073 0.08213 0.0
C215 C 0.48554 0.8007 0.04566 0.0
C216 C 0.46682 0.79075 0.03037 0.0
C217 C 0.4673 0.77326 0.06417 0.0
C218 C 0.48421 0.7732 0.09547 0.0
C219 C 0.46754 0.78558 0.97372 0.0
C220 C 0.45013 0.80395 0.04344 0.0
H221 H 0.4553 0.70741 0.17702 0.0
H222 H 0.51797 0.73099 0.25364 0.0
H223 H 0.49184 0.77113 0.23073 0.0
H224 H 0.50769 0.78455 0.19178 0.0
H225 H 0.5175 0.76765 0.23622 0.0
H226 H 0.52096 0.73566 0.12547 0.0
H227 H 0.53432 0.749 0.17351 0.0
H228 H 0.52613 0.76037 0.11599 0.0
H229 H 0.41258 0.71004 0.02368 0.0
H230 H 0.40567 0.76145 0.93337 0.0
H231 H 0.43018 0.77786 0.98476 0.0
H232 H 0.45644 0.70959 0.03537 0.0
H233 H 0.43936 0.69583 0.07132 0.0
H234 H 0.46245 0.70347 0.09825 0.0
H235 H 0.41382 0.73283 0.12762 0.0
H236 H 0.43364 0.72957 0.16968 0.0
H237 H 0.42213 0.70907 0.13835 0.0
H238 H 0.4692 0.69057 0.24714 0.0
C239 C 0.46871 0.71314 0.19259 0.0
C240 C 0.32799 0.46701 0.12756 0.0
C241 C 0.33968 0.45835 0.16557 0.0
C242 C 0.33324 0.44089 0.1871 0.0
C243 C 0.30307 0.44223 0.13912 0.0
C244 C 0.30984 0.4583 0.11392 0.0
C245 C 0.29556 0.4641 0.07232 0.0
H246 H 0.206 0.44752 0.95852 0.0
C247 C 0.2833 0.4374 0.12058 0.0
C248 C 0.27884 0.44954 0.07964 0.0
H249 H 0.24869 0.49023 0.91452 0.0
H250 H 0.27069 0.47972 0.9824 0.0
H251 H 0.23406 0.41192 0.98774 0.0
H252 H 0.20783 0.45763 0.06187 0.0
H253 H 0.21341 0.44221 0.11224 0.0
H254 H 0.19684 0.43414 0.06222 0.0
H255 H 0.20871 0.4142 0.99803 0.0
H256 H 0.22434 0.40259 0.04367 0.0
C257 C 0.30513 0.4615 0.02147 0.0
C258 C 0.28952 0.48485 0.08172 0.0
C259 C 0.23826 0.40271 0.23788 0.0
C260 C 0.21788 0.40149 0.23645 0.0
C261 C 0.20803 0.40234 0.18909 0.0
C262 C 0.21798 0.40733 0.14586 0.0
C263 C 0.23779 0.41218 0.15014 0.0
C264 C 0.24787 0.40873 0.19476 0.0
C265 C 0.26884 0.41511 0.1925 0.0
C266 C 0.26889 0.42505 0.14116 0.0
C267 C 0.25066 0.42326 0.11683 0.0
C268 C 0.28135 0.39699 0.19451 0.0
C269 C 0.2736 0.42932 0.23607 0.0
C270 C 0.22028 0.45431 0.96258 0.0
C271 C 0.22583 0.46932 0.93042 0.0
C272 C 0.2442 0.47843 0.93856 0.0
C273 C 0.25694 0.47227 0.97778 0.0
C274 C 0.25105 0.45711 1.00973 0.0
C275 C 0.23282 0.44868 1.00187 0.0
C276 C 0.2277 0.43441 0.04184 0.0
C277 C 0.24641 0.43434 0.07312 0.0
C278 C 0.26022 0.44766 0.05462 0.0
C279 C 0.22333 0.4147 0.01675 0.0
C280 C 0.21056 0.44233 0.07103 0.0
H281 H 0.31098 0.41956 0.19161 0.0
H282 H 0.33287 0.4801 0.10915 0.0
H283 H 0.28581 0.48664 0.12167 0.0
H284 H 0.27659 0.48876 0.05897 0.0
H285 H 0.3015 0.49527 0.07345 0.0
H286 H 0.31267 0.44765 0.02088 0.0
H287 H 0.316 0.47323 0.01482 0.0
H288 H 0.29456 0.46098 0.9895 0.0
H289 H 0.24638 0.401 0.27302 0.0
H290 H 0.19242 0.40109 0.18568 0.0
H291 H 0.20958 0.40858 0.11148 0.0
H292 H 0.27246 0.38342 0.19289 0.0
H293 H 0.2904 0.3964 0.22979 0.0
H294 H 0.29094 0.39647 0.16202 0.0
H295 H 0.26295 0.44094 0.23575 0.0
H296 H 0.28803 0.43632 0.23411 0.0
H297 H 0.27318 0.42188 0.27304 0.0
H298 H 0.34197 0.43382 0.21587 0.0
C299 C 0.31516 0.43273 0.17367 0.0
C300 C 0.12012 0.23144 0.26676 0.0
C301 C 0.12603 0.21255 0.25937 0.0
C302 C 0.12364 0.20463 0.21084 0.0
C303 C 0.10492 0.23173 0.1833 0.0
C304 C 0.10927 0.24058 0.22861 0.0
C305 C 0.09891 0.25909 0.23323 0.0
H306 H 0.02775 0.31804 0.15787 0.0
C307 C 0.08986 0.24283 0.15635 0.0
C308 C 0.08628 0.25891 0.18506 0.0
H309 H 0.07128 0.32482 0.27785 0.0
H310 H 0.08563 0.29586 0.25417 0.0
H311 H 0.05969 0.30138 0.0702 0.0
H312 H 0.02215 0.26797 0.16782 0.0
H313 H 0.01959 0.2619 0.10316 0.0
H314 H 0.01229 0.285 0.1235 0.0
H315 H 0.03393 0.3044 0.06768 0.0
H316 H 0.04423 0.28415 0.03855 0.0
C317 C 0.11436 0.27577 0.23367 0.0
C318 C 0.08662 0.25772 0.28086 0.0
C319 C 0.05821 0.21245 1.00238 0.0
C320 C 0.0422 0.21614 0.97055 0.0
C321 C 0.03131 0.23249 0.98063 0.0
C322 C 0.03675 0.24496 0.02116 0.0
C323 C 0.05309 0.24094 0.05237 0.0
C324 C 0.06329 0.22473 0.04219 0.0
C325 C 0.0795 0.22136 0.07927 0.0
C326 C 0.07801 0.23842 0.11326 0.0
C327 C 0.06258 0.25022 0.09814 0.0
C328 C 0.09869 0.22224 0.05076 0.0
C329 C 0.07511 0.20197 0.10673 0.0
C330 C 0.04033 0.31306 0.17886 0.0
C331 C 0.04842 0.32385 0.22005 0.0
C332 C 0.06487 0.31701 0.24601 0.0
C333 C 0.07325 0.30007 0.23215 0.0
C334 C 0.06522 0.28939 0.19178 0.0
C335 C 0.04923 0.29587 0.16487 0.0
C336 C 0.04378 0.2824 0.1213 0.0
C337 C 0.05922 0.26711 0.12702 0.0
C338 C 0.07136 0.27139 0.16944 0.0
C339 C 0.04541 0.29364 0.07153 0.0
C340 C 0.02329 0.27384 0.12904 0.0
H341 H 0.11109 0.20685 0.13773 0.0
H342 H 0.12227 0.23824 0.30304 0.0
H343 H 0.07955 0.24322 0.2841 0.0
H344 H 0.07465 0.26778 0.28056 0.0
H345 H 0.09577 0.26024 0.31545 0.0
H346 H 0.12827 0.27135 0.21833 0.0
H347 H 0.11761 0.28107 0.27239 0.0
H348 H 0.10986 0.28796 0.2094 0.0
H349 H 0.06658 0.19978 0.99732 0.0
H350 H 0.01877 0.23572 0.95692 0.0
H351 H 0.02808 0.2572 0.02696 0.0
H352 H 0.09821 0.23329 0.0204 0.0
H353 H 0.10141 0.20825 0.03303 0.0
H354 H 0.11137 0.22653 0.07504 0.0
H355 H 0.05945 0.19778 0.10411 0.0
H356 H 0.07847 0.20262 0.14762 0.0
H357 H 0.0831 0.19008 0.09044 0.0
H358 H 0.12806 0.19021 0.2033 0.0
C359 C 0.11329 0.2142 0.17276 0.0
C360 C 0.29863 0.03642 1.00298 0.0
C361 C 0.31281 0.04661 0.97453 0.0
C362 C 0.31425 0.06675 0.9786 0.0
C363 C 0.29156 0.06594 0.04493 0.0
C364 C 0.28754 0.04675 0.03719 0.0
C365 C 0.26969 0.04048 0.06652 0.0
H366 H 0.20535 0.06903 0.24406 0.0
C367 C 0.2795 0.073 0.0839 0.0
C368 C 0.26539 0.05888 0.09547 0.0
H369 H 0.20244 0.01452 0.16807 0.0
H370 H 0.23126 0.0241 0.12149 0.0
H371 H 0.24124 0.07165 0.27535 0.0
H372 H 0.2154 0.09591 0.14783 0.0
H373 H 0.23264 0.11293 0.17242 0.0
H374 H 0.21465 0.10258 0.21281 0.0
H375 H 0.24182 0.09697 0.27126 0.0
H376 H 0.26232 0.08338 0.25372 0.0
C377 C 0.27493 0.02387 0.10231 0.0
C378 C 0.25315 0.03496 0.02862 0.0
C379 C 0.31055 0.11886 0.20902 0.0
C380 C 0.30349 0.12682 0.25306 0.0
C381 C 0.2833 0.12858 0.2564 0.0
C382 C 0.27054 0.1196 0.22117 0.0
C383 C 0.27808 0.10867 0.18292 0.0
C384 C 0.29757 0.10995 0.17433 0.0
C385 C 0.30257 0.09916 0.12811 0.0
C386 C 0.28297 0.08921 0.11476 0.0
C387 C 0.2692 0.09389 0.14939 0.0
C388 C 0.31827 0.08448 0.14149 0.0
C389 C 0.30951 0.11396 0.08852 0.0
C390 C 0.21042 0.05915 0.21661 0.0
C391 C 0.20108 0.0412 0.20922 0.0
C392 C 0.20912 0.02858 0.17453 0.0
C393 C 0.22573 0.03419 0.14718 0.0
C394 C 0.23453 0.05254 0.15474 0.0
C395 C 0.2268 0.06441 0.18979 0.0
C396 C 0.23798 0.08296 0.19654 0.0
C397 C 0.25342 0.08091 0.15818 0.0
C398 C 0.25161 0.06307 0.13297 0.0
C399 C 0.2463 0.08392 0.25176 0.0
C400 C 0.22449 0.09957 0.18197 0.0
H401 H 0.30335 0.09179 0.0114 0.0
H402 H 0.29612 0.02114 0.99805 0.0
H403 H 0.25111 0.0466 1.00033 0.0
H404 H 0.23922 0.03264 0.0469 0.0
H405 H 0.25647 0.02165 1.00838 0.0
H406 H 0.2877 0.02802 0.12686 0.0
H407 H 0.27851 0.01096 0.08074 0.0
H408 H 0.26291 0.01993 0.12699 0.0
H409 H 0.3259 0.11782 0.20386 0.0
H410 H 0.27735 0.13561 0.28822 0.0
H411 H 0.25532 0.12073 0.22607 0.0
H412 H 0.31342 0.07455 0.17175 0.0
H413 H 0.33203 0.0918 0.15434 0.0
H414 H 0.32162 0.07578 0.10847 0.0
H415 H 0.31652 0.1269 0.10635 0.0
H416 H 0.29722 0.11888 0.06419 0.0
H417 H 0.32083 0.10812 0.06507 0.0
H418 H 0.324 0.0751 0.95541 0.0
C419 C 0.30329 0.07642 0.01259 0.0
C420 C 0.52714 0.29346 1.00725 0.0
C421 C 0.53706 0.3096 0.98674 0.0
C422 C 0.55501 0.31559 1.0087 0.0
C423 C 0.55298 0.29024 0.07099 0.0
C424 C 0.5356 0.28374 0.04905 0.0
C425 C 0.52803 0.26576 0.07536 0.0
H426 H 0.54435 0.19801 0.25974 0.0
C427 C 0.55803 0.27758 0.11379 0.0
C428 C 0.54378 0.26275 0.11629 0.0
H429 H 0.49426 0.20005 0.15901 0.0
H430 H 0.50752 0.22921 0.11972 0.0
H431 H 0.57745 0.21133 0.18191 0.0
H432 H 0.543 0.23889 0.28864 0.0
H433 H 0.56413 0.25333 0.28741 0.0
H434 H 0.56554 0.22857 0.30721 0.0
H435 H 0.58028 0.2086 0.24885 0.0
H436 H 0.59288 0.22757 0.21575 0.0
C437 C 0.52681 0.24919 0.03721 0.0
C438 C 0.50841 0.27011 0.09784 0.0
C439 C 0.61275 0.29825 0.23558 0.0
C440 C 0.6195 0.29051 0.28166 0.0
C441 C 0.61352 0.2717 0.29492 0.0
C442 C 0.59989 0.26138 0.26478 0.0
C443 C 0.59195 0.27002 0.22116 0.0
C444 C 0.59893 0.28784 0.20619 0.0
C445 C 0.58882 0.29475 0.15877 0.0
C446 C 0.57359 0.27876 0.15003 0.0
C447 C 0.57554 0.2644 0.18664 0.0
C448 C 0.60378 0.29573 0.11664 0.0
C449 C 0.57958 0.31416 0.17002 0.0
C450 C 0.53637 0.20454 0.22862 0.0
C451 C 0.51852 0.19661 0.21171 0.0
C452 C 0.5082 0.20588 0.17228 0.0
C453 C 0.51592 0.22275 0.14961 0.0
C454 C 0.53395 0.23056 0.1673 0.0
C455 C 0.54361 0.22143 0.20671 0.0
C456 C 0.5615 0.23223 0.22475 0.0
C457 C 0.5617 0.24902 0.1885 0.0
C458 C 0.54567 0.24815 0.1542 0.0
C459 C 0.57903 0.21932 0.21792 0.0
C460 C 0.55859 0.23854 0.27984 0.0
H461 H 0.57653 0.31165 0.06539 0.0
H462 H 0.51338 0.28843 0.9908 0.0
H463 H 0.50921 0.28426 0.11693 0.0
H464 H 0.5041 0.25953 0.12666 0.0
H465 H 0.4968 0.27057 0.06797 0.0
H466 H 0.54042 0.2487 0.01631 0.0
H467 H 0.51465 0.25113 1.0094 0.0
H468 H 0.52492 0.23502 0.05531 0.0
H469 H 0.61702 0.31269 0.22438 0.0
H470 H 0.61878 0.26528 0.32979 0.0
H471 H 0.59553 0.24736 0.27774 0.0
H472 H 0.61663 0.287 0.12597 0.0
H473 H 0.60915 0.31069 0.11006 0.0
H474 H 0.59775 0.28971 0.08074 0.0
H475 H 0.57243 0.31348 0.20677 0.0
H476 H 0.56819 0.31814 0.14222 0.0
H477 H 0.59071 0.326 0.17183 0.0
H478 H 0.56284 0.32799 0.99394 0.0
C479 C 0.56296 0.30608 0.0504 0.0
Eu480 Eu 0.99789 0.0165 0.58215 0.0
Eu481 Eu 0.02759 1.00065 0.66785 0.0
C482 C 0.01847 0.0452 0.6664 0.0
C483 C 0.98937 0.0502 0.48056 0.0
C484 C 0.993 0.06781 0.50511 0.0
C485 C 0.01324 0.05961 0.41937 0.0
C486 C 0.00745 0.08055 0.4889 0.0
C487 C 0.99879 0.0468 0.43572 0.0
C488 C 0.01842 0.07612 0.44736 0.0
C489 C 0.98038 0.03389 0.50813 0.0
O490 O 0.99815 1.00389 0.70296 0.0
O491 O 0.9765 1.00386 0.63598 0.0
C492 C 0.98023 1.00269 0.68453 0.0
O493 O 0.99458 0.98446 0.57236 0.0
O494 O 0.04702 1.00283 0.73457 0.0
O495 O 0.03623 0.97503 0.70908 0.0
O496 O 0.02363 0.97687 0.60976 0.0
C497 C 0.00841 0.97228 0.58074 0.0
O498 O 0.02804 0.01969 0.55016 0.0
O499 O 0.04948 0.0073 0.609 0.0
O500 O 0.0321 0.03277 0.67449 0.0
O501 O 0.98872 0.01753 0.50288 0.0
O502 O 0.97658 0.03699 0.55502 0.0
O503 O 1.00294 0.04071 0.63848 0.0
C504 C 0.03443 0.98084 0.79434 0.0
C505 C 0.03457 0.96215 0.81423 0.0
C506 C 1.00587 0.98707 0.8414 0.0
C507 C 0.01973 0.95561 0.84498 0.0
C508 C 0.02071 0.99362 0.81089 0.0
C509 C 1.0046 0.96771 0.85588 0.0
C510 C 0.04393 0.98483 0.74661 0.0
C511 C 0.04571 0.0149 0.56449 0.0
H512 H 0.98597 0.07105 0.5396 0.0
H513 H 0.02103 0.05605 0.38631 0.0
H514 H 0.01097 0.09313 0.51146 0.0
H515 H 0.99621 0.03343 0.41571 0.0
H516 H 0.04487 0.95201 0.80161 0.0
H517 H 0.99449 0.99667 0.85012 0.0
H518 H 0.01901 0.94059 0.85568 0.0
H519 H 0.02017 0.00811 0.79608 0.0
Eu520 Eu 0.52783 0.0266 0.67127 0.0
Eu521 Eu 0.5046 0.99864 0.59136 0.0
C522 C 0.52587 0.98018 0.68746 0.0
C523 C 0.56232 0.03381 0.77537 0.0
C524 C 0.55589 0.02407 0.81845 0.0
C525 C 0.59088 0.01436 0.77785 0.0
C526 C 0.56613 0.00869 0.83858 0.0
C527 C 0.58061 0.02968 0.75761 0.0
C528 C 0.5831 1.00292 0.81636 0.0
C529 C 0.54817 0.04382 0.74213 0.0
O530 O 0.48458 1.00264 0.65589 0.0
O531 O 0.49604 0.03185 0.68339 0.0
C532 C 0.48232 0.01832 0.68178 0.0
O533 O 0.52251 0.04603 0.60464 0.0
O534 O 0.48386 0.97509 0.57403 0.0
O535 O 0.49595 0.99195 0.51367 0.0
O536 O 0.49654 0.02901 0.57034 0.0
C537 C 0.50778 0.04458 0.57229 0.0
O538 O 0.55152 0.01284 0.62815 0.0
O539 O 0.53412 1.00274 0.55789 0.0
O540 O 0.52129 0.97756 0.63961 0.0
O541 O 0.55244 0.04528 0.69486 0.0
O542 O 0.53013 0.03834 0.74708 0.0
O543 O 0.52579 0.9973 0.70763 0.0
C544 C 0.46243 0.98704 0.5109 0.0
C545 C 0.44974 0.99333 0.547 0.0
C546 C 0.44344 1.0034 0.44617 0.0
C547 C 0.43462 0.00522 0.53313 0.0
C548 C 0.45863 0.99147 0.46009 0.0
C549 C 0.43184 0.01108 0.4829 0.0
C550 C 0.48174 0.98053 0.52718 0.0
C551 C 0.55079 0.00692 0.58125 0.0
H552 H 0.54198 0.02704 0.83358 0.0
H553 H 0.60435 0.01078 0.76126 0.0
H554 H 0.55979 1.00034 0.86861 0.0
H555 H 0.58623 0.03713 0.72512 0.0
H556 H 0.45236 0.9904 0.58662 0.0
H557 H 0.4414 0.00737 0.40698 0.0
H558 H 0.42606 0.01094 0.56245 0.0
H559 H 0.46829 0.98694 0.43166 0.0
Eu560 Eu 0.49282 0.51463 0.64959 0.0
Eu561 Eu 0.53077 0.50302 0.58644 0.0
C562 C 0.53582 0.5177 0.70068 0.0
C563 C 0.4501 0.54066 0.70279 0.0
C564 C 0.45724 0.55895 0.68935 0.0
C565 C 0.42071 0.55463 0.73063 0.0
C566 C 0.44622 0.57505 0.69697 0.0
C567 C 0.43176 0.53856 0.72309 0.0
C568 C 0.42785 0.57308 0.71796 0.0
C569 C 0.46136 0.5236 0.69473 0.0
O570 O 0.52073 0.4749 0.62241 0.0
O571 O 0.50041 0.48581 0.68188 0.0
C572 C 0.51036 0.47209 0.66259 0.0
O573 O 0.48277 0.49585 0.58444 0.0
O574 O 0.56116 0.50683 0.56825 0.0
O575 O 0.54257 0.48648 0.52637 0.0
O576 O 0.50558 0.50639 0.53112 0.0
C577 C 0.48816 0.49931 0.53853 0.0
O578 O 0.49834 0.54025 0.59868 0.0
O579 O 0.52981 0.53528 0.57852 0.0
O580 O 0.5417 0.50585 0.66674 0.0
O581 O 0.46156 0.51767 0.64856 0.0
O582 O 0.47841 0.52316 0.71716 0.0
O583 O 0.5189 0.52579 0.69589 0.0
C584 C 0.57556 0.47966 0.53508 0.0
C585 C 0.57802 0.46686 0.57551 0.0
C586 C 0.60094 0.46426 0.49158 0.0
C587 C 0.59176 0.45259 0.5736 0.0
C588 C 0.5873 0.47851 0.49363 0.0
C589 C 0.60313 0.4509 0.53111 0.0
C590 C 0.56012 0.49357 0.53387 0.0
C591 C 0.51465 0.54618 0.57885 0.0
H592 H 0.47136 0.56077 0.67331 0.0
H593 H 0.40655 0.5526 0.74629 0.0
H594 H 0.45227 0.58908 0.68749 0.0
H595 H 0.42599 0.52447 0.73314 0.0
H596 H 0.56902 0.46761 0.60785 0.0
H597 H 0.60911 0.46321 0.45785 0.0
H598 H 0.59318 0.44265 0.60486 0.0
H599 H 0.58548 0.48826 0.46204 0.0
Eu600 Eu 0.01967 0.52511 0.5791 0.0
Eu601 Eu 1.00076 0.4951 0.65856 0.0
C602 C 0.04673 0.5028 0.66057 0.0
C603 C 0.05683 0.53984 0.49078 0.0
C604 C 0.07366 0.53741 0.5212 0.0
C605 C 0.07186 0.5231 0.42342 0.0
C606 C 0.08899 0.52716 0.50374 0.0
C607 C 0.05648 0.53337 0.44093 0.0
C608 C 0.0879 0.51918 0.45543 0.0
C609 C 0.03865 0.54526 0.51366 0.0
O610 O 0.99474 0.52435 0.69038 0.0
O611 O 0.01685 0.54312 0.64854 0.0
C612 C 1.00475 0.54058 0.68511 0.0
O613 O 0.98801 0.53209 0.57473 0.0
O614 O 0.99436 0.48565 0.73471 0.0
O615 O 0.98314 0.46908 0.67127 0.0
O616 O 0.97701 0.50264 0.60171 0.0
C617 C 0.97393 0.51919 0.57941 0.0
O618 O 0.0121 0.49744 0.5374 0.0
O619 O 0.01571 0.47661 0.603 0.0
O620 O 0.03158 0.49911 0.68771 0.0
O621 O 0.02347 0.53447 0.50143 0.0
O622 O 0.03974 0.5488 0.56173 0.0
O623 O 0.04476 0.50896 0.61395 0.0
C624 C 0.96159 0.47624 0.73496 0.0
C625 C 0.94676 0.47985 0.69886 0.0
C626 C 0.94192 0.48946 0.79914 0.0
C627 C 0.93014 0.48903 0.71238 0.0
C628 C 0.95858 0.48022 0.7856 0.0
C629 C 0.92801 0.4948 0.76222 0.0
C630 C 0.98137 0.47294 0.71874 0.0
C631 C 0.01495 0.47999 0.55437 0.0
H632 H 0.07451 0.54219 0.55984 0.0
H633 H 0.07082 0.51748 0.38558 0.0
H634 H 0.10107 0.52435 0.52947 0.0
H635 H 0.04374 0.5351 0.41662 0.0
H636 H 0.9486 0.47706 0.65939 0.0
H637 H 0.94046 0.49342 0.83804 0.0
H638 H 0.91976 0.49299 0.68299 0.0
H639 H 0.96979 0.47762 0.81408 0.0
C640 C 0.18018 0.01819 0.2613 0.0
C641 C 0.18333 0.03632 0.2388 0.0
C642 C 0.16481 0.0149 0.29422 0.0
C643 C 0.11911 0.03727 0.33891 0.0
H644 H 0.12595 1.00228 0.45126 0.0
C645 C 0.05712 0.02237 0.47712 0.0
C646 C 0.06156 0.01759 0.52765 0.0
C647 C 0.07163 0.02401 0.4416 0.0
C648 C 0.12378 0.01234 0.42058 0.0
H649 H 0.17172 0.0648 0.23155 0.0
H650 H 0.14603 0.05949 0.28941 0.0
H651 H 0.15116 0.00603 0.39031 0.0
H652 H 0.08519 0.01114 0.58004 0.0
H653 H 0.11054 0.01474 0.51891 0.0
H654 H 0.09232 0.04443 0.37038 0.0
C655 C 0.15504 0.04754 0.28169 0.0
C656 C 0.13824 0.01424 0.38473 0.0
C657 C 0.17014 0.05072 0.24865 0.0
C658 C 0.08111 0.01478 0.54157 0.0
C659 C 0.09571 0.01668 0.50609 0.0
C660 C 0.10484 0.03559 0.37504 0.0
C661 C 0.15212 0.02965 0.30574 0.0
C662 C 0.13625 0.02681 0.3432 0.0
C663 C 0.09125 0.02123 0.45524 0.0
C664 C 0.10682 0.02308 0.41667 0.0
H665 H 0.18996 0.00672 0.25491 0.0
H666 H 0.16302 1.00078 0.31085 0.0
H667 H 0.11655 0.04685 0.30739 0.0
H668 H 0.04229 0.02454 0.46449 0.0
H669 H 0.06725 0.02713 0.40306 0.0
C670 C 0.52145 0.16222 0.23695 0.0
C671 C 0.51097 0.17914 0.23765 0.0
C672 C 0.51719 0.14698 0.26971 0.0
C673 C 0.50051 0.11367 0.33218 0.0
H674 H 0.4971 0.12869 0.47142 0.0
C675 C 0.49144 0.05783 0.49381 0.0
C676 C 0.50421 0.06052 0.53576 0.0
C677 C 0.48948 0.07222 0.45697 0.0
C678 C 0.49797 0.12425 0.43271 0.0
H679 H 0.48757 0.19328 0.27241 0.0
H680 H 0.48007 0.16661 0.33011 0.0
H681 H 0.4981 0.15329 0.40556 0.0
H682 H 0.52443 0.08081 0.57235 0.0
H683 H 0.52082 0.10588 0.50861 0.0
H684 H 0.5008 0.08465 0.35949 0.0
C685 C 0.49152 0.16509 0.30391 0.0
C686 C 0.49835 0.13834 0.39487 0.0
C687 C 0.49563 0.18025 0.27051 0.0
C688 C 0.51447 0.0782 0.54066 0.0
C689 C 0.51233 0.09264 0.50415 0.0
C690 C 0.49988 0.09956 0.36998 0.0
C691 C 0.50255 0.14843 0.30469 0.0
C692 C 0.49997 0.13327 0.34417 0.0
C693 C 0.50004 0.08975 0.46142 0.0
C694 C 0.49896 0.10468 0.42085 0.0
H695 H 0.53357 0.16116 0.21255 0.0
H696 H 0.5261 0.1345 0.26955 0.0
H697 H 0.50166 0.10925 0.29353 0.0
H698 H 0.4833 0.04441 0.48865 0.0
H699 H 0.47975 0.06957 0.42481 0.0
C700 C 0.35803 0.4855 0.20884 0.0
C701 C 0.35802 0.46737 0.18624 0.0
C702 C 0.37365 0.49172 0.24043 0.0
C703 C 0.42424 0.48051 0.2838 0.0
H704 H 0.40853 0.50107 0.4103 0.0
C705 C 0.45512 0.48964 0.50284 0.0
C706 C 0.47419 0.49633 0.49522 0.0
C707 C 0.44171 0.48768 0.46233 0.0
C708 C 0.41319 0.49525 0.37532 0.0
H709 H 0.3749 0.44219 0.17579 0.0
H710 H 0.40205 0.45295 0.23026 0.0
H711 H 0.38457 0.49585 0.34213 0.0
H712 H 0.49407 0.50611 0.43858 0.0
H713 H 0.47071 0.50278 0.36812 0.0
H714 H 0.45273 0.47923 0.31774 0.0
C715 C 0.39015 0.46248 0.2239 0.0
C716 C 0.39946 0.49254 0.33581 0.0
C717 C 0.37455 0.45627 0.19263 0.0
C718 C 0.47954 0.50083 0.44591 0.0
C719 C 0.46614 0.49886 0.40538 0.0
C720 C 0.43798 0.48324 0.32332 0.0
C721 C 0.38961 0.47996 0.24981 0.0
C722 C 0.40472 0.48486 0.2897 0.0
C723 C 0.44699 0.49236 0.41303 0.0
C724 C 0.43258 0.49038 0.36992 0.0
H725 H 0.34541 0.49427 0.20497 0.0
H726 H 0.37287 0.50541 0.25904 0.0
H727 H 0.42889 0.47473 0.24875 0.0
H728 H 0.45045 0.48602 0.54022 0.0
H729 H 0.42722 0.48232 0.46967 0.0
C730 C 0.05347 0.35828 0.24389 0.0
C731 C 0.04069 0.34227 0.2381 0.0
C732 C 0.04898 0.37374 0.27416 0.0
C733 C 0.01062 0.3985 0.33892 0.0
H734 H 0.05216 0.41201 0.43532 0.0
C735 C 0.01101 0.46635 0.46688 0.0
C736 C 0.01677 0.46399 0.51781 0.0
C737 C 0.01265 0.45144 0.43227 0.0
C738 C 0.04037 0.40839 0.40887 0.0
H739 H 0.01256 0.33058 0.2573 0.0
H740 H 1.00433 0.35805 0.30921 0.0
H741 H 0.05671 0.387 0.37354 0.0
H742 H 0.0289 0.44388 0.57183 0.0
H743 H 0.03221 0.41804 0.5112 0.0
H744 H 0.9944 0.42018 0.37407 0.0
C745 C 0.01796 0.35848 0.29041 0.0
C746 C 0.04303 0.39414 0.37307 0.0
C747 C 0.02257 0.34282 0.26028 0.0
C748 C 0.02429 0.44626 0.53303 0.0
C749 C 0.02626 0.43145 0.49818 0.0
C750 C 0.00807 0.41305 0.37427 0.0
C751 C 0.03148 0.37377 0.29938 0.0
C752 C 0.02823 0.38899 0.33749 0.0
C753 C 0.02043 0.43381 0.44729 0.0
C754 C 0.02291 0.41817 0.40982 0.0
H755 H 0.06758 0.35828 0.22751 0.0
H756 H 0.05958 0.38539 0.27935 0.0
H757 H 0.99893 0.39492 0.31212 0.0
H758 H 1.0051 0.47976 0.45366 0.0
H759 H 0.00818 0.45386 0.39339 0.0
C760 C 0.85444 0.9688 0.99377 0.0
C761 C 0.83983 0.98224 0.99834 0.0
C762 C 0.87014 0.97244 0.96291 0.0
C763 C 0.89831 0.00967 0.89349 0.0
H764 H 0.90896 0.96724 0.8064 0.0
C765 C 0.96619 0.00908 0.76873 0.0
C766 C 0.96395 1.00128 0.72015 0.0
C767 C 0.95109 0.00778 0.80269 0.0
C768 C 0.90625 0.97929 0.83025 0.0
H769 H 0.83101 0.0106 0.97569 0.0
H770 H 0.85889 0.01728 0.92249 0.0
H771 H 0.88358 0.96368 0.86716 0.0
H772 H 0.94378 0.9862 0.66922 0.0
H773 H 0.91753 0.98364 0.72853 0.0
H774 H 0.92116 0.02522 0.85662 0.0
C775 C 0.85804 1.0038 0.94285 0.0
C776 C 0.89171 0.97719 0.86555 0.0
C777 C 0.84212 1.00006 0.97369 0.0
C778 C 0.94607 0.9923 0.70633 0.0
C779 C 0.93104 0.99074 0.74057 0.0
C780 C 0.91313 0.01167 0.85866 0.0
C781 C 0.8719 0.98972 0.93561 0.0
C782 C 0.88749 0.99232 0.89783 0.0
C783 C 0.93329 0.99845 0.78938 0.0
C784 C 0.91734 0.99649 0.82641 0.0
H785 H 0.85314 0.95492 0.01213 0.0
H786 H 0.88067 0.96141 0.95932 0.0
H787 H 0.89555 0.02163 0.91764 0.0
H788 H 0.97965 0.01634 0.78048 0.0
H789 H 0.95355 0.01374 0.83989 0.0
C790 C 0.50764 0.85859 1.00845 0.0
C791 C 0.51883 0.84212 0.01078 0.0
C792 C 0.51232 0.87386 0.97627 0.0
C793 C 0.52921 0.9079 0.91898 0.0
H794 H 0.54072 0.89455 0.78243 0.0
C795 C 0.53941 0.96676 0.76845 0.0
C796 C 0.53005 0.96359 0.72132 0.0
C797 C 0.54155 0.95181 0.80334 0.0
C798 C 0.5375 0.89855 0.82036 0.0
H799 H 0.54407 0.82897 0.98216 0.0
H800 H 0.55241 0.8558 0.92571 0.0
H801 H 0.5382 0.86937 0.84654 0.0
H802 H 0.51634 0.94184 0.67317 0.0
H803 H 0.5197 0.9157 0.73447 0.0
H804 H 0.52778 0.93691 0.89281 0.0
C805 C 0.53993 0.85685 0.94883 0.0
C806 C 0.53629 0.88411 0.85733 0.0
C807 C 0.53533 0.84159 0.9816 0.0
C808 C 0.52364 0.9448 0.70907 0.0
C809 C 0.52564 0.92979 0.74427 0.0
C810 C 0.53049 0.9223 0.88219 0.0
C811 C 0.52825 0.87304 0.94505 0.0
C812 C 0.53176 0.88856 0.90697 0.0
C813 C 0.53421 0.93319 0.7924 0.0
C814 C 0.53436 0.91783 0.83212 0.0
H815 H 0.49475 0.85933 0.03021 0.0
H816 H 0.50285 0.88593 0.97413 0.0
H817 H 0.5259 0.91192 0.95685 0.0
H818 H 0.54479 0.98097 0.77886 0.0
H819 H 0.5487 0.95494 0.83934 0.0
C820 C 0.65516 0.53292 0.05726 0.0
C821 C 0.66096 0.55226 0.06389 0.0
C822 C 0.63895 0.52793 0.02614 0.0
C823 C 0.59688 0.54891 0.95239 0.0
H824 H 0.6037 0.50538 0.86607 0.0
C825 C 0.56827 0.51702 0.7458 0.0
C826 C 0.54861 0.52155 0.7459 0.0
C827 C 0.58034 0.51991 0.78855 0.0
C828 C 0.60159 0.51773 0.8894 0.0
H829 H 0.6533 0.58153 0.04651 0.0
H830 H 0.62571 0.57301 0.99171 0.0
H831 H 0.62686 0.5119 0.9348 0.0
H832 H 0.52624 0.53261 0.79151 0.0
H833 H 0.54712 0.53713 0.86668 0.0
H834 H 0.5723 0.55543 0.90498 0.0
C835 C 0.63335 0.56153 0.01047 0.0
C836 C 0.61476 0.52127 0.92974 0.0
C837 C 0.64937 0.56647 0.04174 0.0
C838 C 0.54134 0.52911 0.78996 0.0
C839 C 0.55339 0.53176 0.83311 0.0
C840 C 0.58385 0.54551 0.91161 0.0
C841 C 0.62821 0.54218 1.0008 0.0
C842 C 0.61283 0.53712 0.96143 0.0
C843 C 0.5731 0.52714 0.83315 0.0
C844 C 0.58618 0.53005 0.87889 0.0
H845 H 0.66377 0.52162 0.07368 0.0
H846 H 0.63524 0.51287 0.02074 0.0
H847 H 0.59457 0.56104 0.97633 0.0
H848 H 0.57444 0.51132 0.71243 0.0
H849 H 0.59547 0.51663 0.78624 0.0
C850 C 0.96535 0.67005 0.96917 0.0
C851 C 0.98033 0.68243 0.98821 0.0
C852 C 0.96935 0.6539 0.941 0.0
C853 C 1.00303 0.61757 0.91049 0.0
H854 H 0.97994 0.62003 0.77562 0.0
C855 C 0.99593 0.55277 0.7703 0.0
C856 C 1.00249 0.55649 0.7216 0.0
C857 C 0.99452 0.56772 0.80506 0.0
C858 C 0.98652 0.61912 0.81307 0.0
H859 H 0.01146 0.68644 0.99567 0.0
H860 H 0.01853 0.65748 0.94763 0.0
H861 H 0.97554 0.6462 0.8345 0.0
H862 H 0.01245 0.57904 0.67139 0.0
H863 H 0.00927 0.60511 0.73126 0.0
H864 H 0.01344 0.59009 0.88935 0.0
C865 C 1.00362 0.66071 0.95404 0.0
C866 C 0.98397 0.63409 0.84683 0.0
C867 C 0.99958 0.67721 0.98183 0.0
C868 C 0.00737 0.5756 0.70848 0.0
C869 C 1.00552 0.59057 0.74279 0.0
C870 C 1.00521 0.60231 0.87696 0.0
C871 C 0.98848 0.6493 0.9318 0.0
C872 C 0.99218 0.63354 0.89593 0.0
C873 C 0.9992 0.58684 0.79164 0.0
C874 C 0.997 0.60293 0.82776 0.0
H875 H 0.95035 0.67341 0.97397 0.0
H876 H 0.95739 0.64526 0.92505 0.0
H877 H 0.00944 0.6167 0.94813 0.0
H878 H 0.99214 0.53824 0.78186 0.0
H879 H 0.98946 0.56438 0.84223 0.0
C880 C 0.1183 0.20091 0.34537 0.0
C881 C 0.12978 0.19955 0.30308 0.0
C882 C 0.11577 0.18525 0.37746 0.0
C883 C 0.11151 0.13423 0.35688 0.0
H884 H 0.08821 0.1363 0.48683 0.0
C885 C 0.05318 0.07874 0.42269 0.0
C886 C 0.03623 0.08772 0.43661 0.0
C887 C 0.07036 0.08947 0.41648 0.0
C888 C 0.09487 0.13539 0.45077 0.0
H889 H 0.15049 0.18192 0.26721 0.0
H890 H 0.14582 0.15437 0.32312 0.0
H891 H 0.11213 0.16101 0.46364 0.0
H892 H 0.02407 0.11512 0.45372 0.0
H893 H 0.05406 0.13371 0.44363 0.0
H894 H 0.09353 0.1091 0.34323 0.0
C895 C 0.13834 0.16741 0.33044 0.0
C896 C 0.10857 0.1495 0.43749 0.0
C897 C 0.14099 0.1832 0.29836 0.0
C898 C 0.03688 0.10767 0.44382 0.0
C899 C 0.05408 0.11832 0.43829 0.0
C900 C 0.09799 0.11999 0.37045 0.0
C901 C 0.1246 0.16783 0.36802 0.0
C902 C 0.11609 0.14978 0.38911 0.0
C903 C 0.07099 0.10933 0.42482 0.0
C904 C 0.08873 0.12113 0.41627 0.0
H905 H 0.10939 0.21316 0.35069 0.0
H906 H 0.10508 0.18622 0.40597 0.0
H907 H 0.11687 0.13397 0.3192 0.0
H908 H 0.05333 0.06335 0.41775 0.0
H909 H 0.0832 0.08223 0.40584 0.0
C910 C 0.33659 0.13188 0.29419 0.0
C911 C 0.31655 0.12852 0.2987 0.0
C912 C 0.34961 0.12519 0.33118 0.0
C913 C 0.34825 0.08339 0.41271 0.0
H914 H 0.40271 0.0961 0.43663 0.0
C915 C 0.40042 0.02746 0.49327 0.0
C916 C 0.4183 0.02662 0.47009 0.0
C917 C 0.38836 0.04285 0.48381 0.0
C918 C 0.38752 0.09235 0.43015 0.0
H919 H 0.29457 0.11922 0.35088 0.0
H920 H 0.31716 0.10876 0.41589 0.0
H921 H 0.38101 0.1208 0.4049 0.0
H922 H 0.43768 0.04154 0.41956 0.0
H923 H 0.41626 0.06789 0.40126 0.0
H924 H 0.35474 0.05484 0.43523 0.0
C925 C 0.32285 0.11549 0.38248 0.0
C926 C 0.37509 0.10653 0.41229 0.0
C927 C 0.30984 0.1218 0.34516 0.0
C928 C 0.42382 0.04152 0.43721 0.0
C929 C 0.41171 0.05686 0.42754 0.0
C930 C 0.36063 0.06928 0.43034 0.0
C931 C 0.34274 0.1155 0.3738 0.0
C932 C 0.35539 0.10207 0.40219 0.0
C933 C 0.39384 0.05771 0.45073 0.0
C934 C 0.38049 0.07344 0.43803 0.0
H935 H 0.3423 0.13781 0.25987 0.0
H936 H 0.36489 0.12579 0.32362 0.0
H937 H 0.33328 0.07923 0.40426 0.0
H938 H 0.39573 0.0162 0.51875 0.0
H939 H 0.37475 0.04313 0.50261 0.0
C940 C 0.64435 0.31648 0.30386 0.0
C941 C 0.63004 0.30309 0.31882 0.0
C942 C 0.65109 0.33102 0.33655 0.0
C943 C 0.64659 0.36844 0.38999 0.0
H944 H 0.64269 0.36592 0.53481 0.0
C945 C 0.60917 0.41572 0.53936 0.0
C946 C 0.6157 0.43421 0.5251 0.0
C947 C 0.61891 0.39956 0.52471 0.0
C948 C 0.64408 0.36685 0.49447 0.0
H949 H 0.61256 0.29367 0.38089 0.0
H950 H 0.62386 0.31901 0.43708 0.0
H951 H 0.64666 0.33648 0.48762 0.0
H952 H 0.63877 0.45027 0.48896 0.0
H953 H 0.6555 0.42196 0.46233 0.0
H954 H 0.64324 0.39864 0.39655 0.0
C955 C 0.63032 0.31823 0.40076 0.0
C956 C 0.64627 0.35 0.46736 0.0
C957 C 0.62375 0.30363 0.36833 0.0
C958 C 0.63309 0.43621 0.49948 0.0
C959 C 0.64274 0.42003 0.48446 0.0
C960 C 0.64465 0.38526 0.41712 0.0
C961 C 0.64346 0.3326 0.38461 0.0
C962 C 0.64653 0.35049 0.41451 0.0
C963 C 0.63531 0.40153 0.49525 0.0
C964 C 0.64243 0.38453 0.46932 0.0
H965 H 0.64967 0.31623 0.26611 0.0
H966 H 0.66155 0.34159 0.32324 0.0
H967 H 0.64654 0.36948 0.3494 0.0
H968 H 0.59576 0.41358 0.55866 0.0
H969 H 0.61269 0.3855 0.53314 0.0
C970 C 0.18734 0.39883 0.28554 0.0
C971 C 0.20703 0.40443 0.2831 0.0
C972 C 0.17545 0.40772 0.31918 0.0
C973 C 0.1748 0.45552 0.37262 0.0
H974 H 0.12593 0.43797 0.42601 0.0
C975 C 0.12213 0.5083 0.45422 0.0
C976 C 0.10245 0.50529 0.44074 0.0
C977 C 0.13553 0.49444 0.44386 0.0
C978 C 0.13952 0.44307 0.41106 0.0
H979 H 0.23011 0.42149 0.32086 0.0
H980 H 0.20972 0.43581 0.38061 0.0
H981 H 0.14869 0.41448 0.39792 0.0
H982 H 0.08139 0.48524 0.40628 0.0
H983 H 0.10487 0.46142 0.38648 0.0
H984 H 0.1655 0.48401 0.38373 0.0
C985 C 0.20327 0.42531 0.35474 0.0
C986 C 0.15257 0.42962 0.39523 0.0
C987 C 0.21506 0.41676 0.32063 0.0
C988 C 0.0965 0.48818 0.41633 0.0
C989 C 0.1099 0.47434 0.40586 0.0
C990 C 0.16181 0.4689 0.38828 0.0
C991 C 0.18315 0.42203 0.3517 0.0
C992 C 0.17025 0.43573 0.37519 0.0
C993 C 0.12956 0.47729 0.41965 0.0
C994 C 0.14389 0.46287 0.40693 0.0
H995 H 0.18073 0.38882 0.25867 0.0
H996 H 0.16001 0.40461 0.31639 0.0
H997 H 0.18805 0.46081 0.35616 0.0
H998 H 0.12718 0.52136 0.47295 0.0
H999 H 0.15055 0.4971 0.45529 0.0
C1000 C 0.91177 0.83809 0.9206 0.0
C1001 C 0.89952 0.83495 0.9611 0.0
C1002 C 0.91357 0.85623 0.89851 0.0
C1003 C 0.91646 0.89708 0.85921 0.0
H1004 H 0.9325 0.92772 0.97534 0.0
C1005 C 0.96933 0.96141 0.84094 0.0
C1006 C 0.98596 0.95928 0.8721 0.0
C1007 C 0.95237 0.95081 0.85006 0.0
C1008 C 0.92782 0.91952 0.94247 0.0
H1009 H 0.87691 0.84748 1.00346 0.0
H1010 H 0.88066 0.87941 0.96601 0.0
H1011 H 0.91141 0.89941 0.98594 0.0
H1012 H 0.9978 0.94506 0.93823 0.0
H1013 H 0.96799 0.92659 0.95488 0.0
H1014 H 0.93403 0.91644 0.81636 0.0
C1015 C 0.88906 0.86786 0.95207 0.0
C1016 C 0.91556 0.90342 0.94836 0.0
C1017 C 0.88701 0.84959 0.97363 0.0
C1018 C 0.98508 0.94707 0.91407 0.0
C1019 C 0.968 0.93663 0.92362 0.0
C1020 C 0.92858 0.9133 0.85324 0.0
C1021 C 0.90328 0.87161 0.91669 0.0
C1022 C 0.9106 0.89148 0.90722 0.0
C1023 C 0.95167 0.93797 0.89079 0.0
C1024 C 0.93516 0.92407 0.89527 0.0
H1025 H 0.92166 0.82729 0.90962 0.0
H1026 H 0.92466 0.85864 0.87127 0.0
H1027 H 0.9128 0.88817 0.82687 0.0
H1028 H 0.96983 0.97031 0.8075 0.0
H1029 H 0.9401 0.95199 0.82394 0.0
C1030 C 0.68952 0.88347 0.96127 0.0
C1031 C 0.68873 0.8881 0.01252 0.0
C1032 C 0.67349 0.88624 0.92866 0.0
C1033 C 0.62252 0.9038 0.92508 0.0
H1034 H 0.64288 0.93854 0.82419 0.0
C1035 C 0.59201 0.97737 0.87958 0.0
C1036 C 0.59157 0.98415 0.82974 0.0
C1037 C 0.59979 0.95959 0.89155 0.0
C1038 C 0.63681 0.9286 0.85131 0.0
H1039 H 0.66931 0.89667 0.07028 0.0
H1040 H 0.64195 0.90118 0.01459 0.0
H1041 H 0.66371 0.9149 0.86287 0.0
H1042 H 0.59791 0.97693 0.75294 0.0
H1043 H 0.6122 0.94628 0.77438 0.0
H1044 H 0.59605 0.91887 0.91621 0.0
C1045 C 0.6548 0.89551 0.99893 0.0
C1046 C 0.64874 0.91489 0.87337 0.0
C1047 C 0.67074 0.89286 0.03131 0.0
C1048 C 0.5986 0.97247 0.79199 0.0
C1049 C 0.60655 0.95479 0.80405 0.0
C1050 C 0.61065 0.9177 0.90341 0.0
C1051 C 0.65637 0.89355 0.94681 0.0
C1052 C 0.64208 0.90305 0.91256 0.0
C1053 C 0.60739 0.94827 0.85401 0.0
C1054 C 0.61803 0.93082 0.86814 0.0
H1055 H 0.7029 0.8791 0.94561 0.0
H1056 H 0.67499 0.88404 0.88879 0.0
H1057 H 0.61678 0.89459 0.95427 0.0
H1058 H 0.58678 0.98598 0.90959 0.0
H1059 H 0.60056 0.95505 0.93056 0.0
C1060 C 0.39956 0.72643 0.88232 0.0
C1061 C 0.39678 0.72247 0.93354 0.0
C1062 C 0.39435 0.71278 0.84581 0.0
C1063 C 0.37382 0.6626 0.82723 0.0
H1064 H 0.41904 0.65869 0.74652 0.0
C1065 C 0.40721 0.59166 0.77447 0.0
C1066 C 0.41668 0.59031 0.72887 0.0
C1067 C 0.39855 0.60865 0.78748 0.0
C1068 C 0.40604 0.65967 0.7677 0.0
H1069 H 0.38339 0.70222 0.9851 0.0
H1070 H 0.37569 0.67795 0.92228 0.0
H1071 H 0.4139 0.68808 0.79054 0.0
H1072 H 0.42319 0.60526 0.65948 0.0
H1073 H 0.40828 0.63506 0.68256 0.0
H1074 H 0.36693 0.63341 0.80672 0.0
C1075 C 0.38175 0.69162 0.90997 0.0
C1076 C 0.40299 0.67666 0.79301 0.0
C1077 C 0.38652 0.70548 0.94636 0.0
C1078 C 0.41637 0.60599 0.69536 0.0
C1079 C 0.40775 0.623 0.70842 0.0
C1080 C 0.37699 0.64547 0.80215 0.0
C1081 C 0.38671 0.69466 0.85968 0.0
C1082 C 0.38723 0.67816 0.82457 0.0
C1083 C 0.39922 0.62469 0.75524 0.0
C1084 C 0.3935 0.64366 0.77352 0.0
H1085 H 0.40727 0.73932 0.8704 0.0
H1086 H 0.39771 0.71591 0.80714 0.0
H1087 H 0.36132 0.66334 0.85037 0.0
H1088 H 0.40733 0.57994 0.80139 0.0
H1089 H 0.39237 0.60957 0.82414 0.0
C1090 C 0.82604 0.61524 0.91351 0.0
C1091 C 0.80607 0.61072 0.91061 0.0
C1092 C 0.83856 0.60638 0.88153 0.0
C1093 C 0.83879 0.55973 0.82102 0.0
H1094 H 0.89079 0.57593 0.78682 0.0
C1095 C 0.89409 0.50643 0.75205 0.0
C1096 C 0.91283 0.50843 0.77393 0.0
C1097 C 0.88049 0.52046 0.75914 0.0
C1098 C 0.87629 0.57122 0.79627 0.0
H1099 H 0.7834 0.59574 0.8661 0.0
H1100 H 0.80505 0.58131 0.80912 0.0
H1101 H 0.86778 0.59994 0.81005 0.0
H1102 H 0.93202 0.52679 0.82011 0.0
H1103 H 0.90814 0.5509 0.83373 0.0
H1104 H 0.8474 0.53103 0.80901 0.0
C1105 C 0.81114 0.59095 0.83767 0.0
C1106 C 0.86312 0.58496 0.80937 0.0
C1107 C 0.79866 0.59954 0.87007 0.0
C1108 C 0.9176 0.52463 0.80351 0.0
C1109 C 0.90403 0.53865 0.81051 0.0
C1110 C 0.85191 0.54604 0.80785 0.0
C1111 C 0.83127 0.59313 0.84548 0.0
C1112 C 0.84433 0.57932 0.82301 0.0
C1113 C 0.88538 0.5368 0.7881 0.0
C1114 C 0.87094 0.55158 0.79655 0.0
H1115 H 0.8322 0.62429 0.94324 0.0
H1116 H 0.854 0.6086 0.88829 0.0
H1117 H 0.8246 0.55476 0.83237 0.0
H1118 H 0.89 0.4941 0.72908 0.0
H1119 H 0.86623 0.51866 0.74129 0.0
C1120 C 0.01848 0.1949 0.91882 0.0
C1121 C 0.03738 0.20236 0.9284 0.0
C1122 C 0.01498 0.17951 0.88523 0.0
C1123 C 0.03939 0.14996 0.78781 0.0
H1124 H 0.99995 0.11163 0.82042 0.0
C1125 C 0.03784 0.07179 0.71103 0.0
C1126 C 0.01996 0.0643 0.69183 0.0
C1127 C 0.03905 0.08948 0.73617 0.0
C1128 C 0.01095 0.12226 0.81057 0.0
H1129 H 0.06717 0.20018 0.90709 0.0
H1130 H 0.06138 0.17338 0.85108 0.0
H1131 H 1.00328 0.14111 0.86931 0.0
H1132 H 0.98927 0.06967 0.6847 0.0
H1133 H 0.99135 0.10021 0.72962 0.0
H1134 H 0.04755 0.13059 0.73051 0.0
C1135 C 0.04902 0.17931 0.86845 0.0
C1136 C 0.01281 0.13933 0.83847 0.0
C1137 C 0.05244 0.1947 0.90137 0.0
C1138 C 1.00332 0.07499 0.69867 0.0
C1139 C 1.00447 0.09247 0.72473 0.0
C1140 C 0.03777 0.13276 0.76065 0.0
C1141 C 0.03031 0.17111 0.86033 0.0
C1142 C 0.02722 0.15345 0.82799 0.0
C1143 C 0.02236 0.09999 0.74379 0.0
C1144 C 0.02363 0.1186 0.77184 0.0
H1145 H 0.00651 0.20037 0.93894 0.0
H1146 H 1.00027 0.17402 0.87949 0.0
H1147 H 0.05033 0.1605 0.7771 0.0
H1148 H 0.05096 0.064 0.70656 0.0
H1149 H 0.05304 0.09477 0.75059 0.0
C1150 C 0.34108 0.02557 0.95861 0.0
C1151 C 0.32638 0.03745 0.93983 0.0
C1152 C 0.35712 0.02165 0.92944 0.0
C1153 C 0.38469 0.04344 0.82406 0.0
H1154 H 0.41165 0.99559 0.82547 0.0
C1155 C 0.46063 0.03705 0.73745 0.0
C1156 C 0.46421 0.02025 0.7107 0.0
C1157 C 0.44373 0.03854 0.76503 0.0
C1158 C 0.40427 0.00906 0.82435 0.0
H1159 H 0.31659 0.05356 0.87447 0.0
H1160 H 0.34403 0.04644 0.82354 0.0
H1161 H 0.38204 0.99813 0.8723 0.0
H1162 H 0.45243 0.99183 0.69246 0.0
H1163 H 0.42324 0.99443 0.74023 0.0
H1164 H 0.4068 0.05439 0.77613 0.0
C1165 C 0.34352 0.04041 0.86108 0.0
C1166 C 0.38732 0.01056 0.85169 0.0
C1167 C 0.32756 0.04426 0.89007 0.0
C1168 C 0.45033 0.00502 0.71249 0.0
C1169 C 0.43354 0.00645 0.74033 0.0
C1170 C 0.4017 0.042 0.79716 0.0
C1171 C 0.35894 0.02962 0.88081 0.0
C1172 C 0.37714 0.02775 0.85177 0.0
C1173 C 0.42992 0.02322 0.76713 0.0
C1174 C 0.41179 0.02477 0.79664 0.0
H1175 H 0.34085 0.02041 0.99707 0.0
H1176 H 0.36864 0.0133 0.94617 0.0
H1177 H 0.37756 0.05704 0.8236 0.0
H1178 H 0.47091 0.04909 0.73724 0.0
H1179 H 0.44166 0.05164 0.78542 0.0
C1180 C 0.51205 0.33094 0.947 0.0
C1181 C 0.52926 0.32097 0.94341 0.0
C1182 C 0.50727 0.34526 0.91164 0.0
C1183 C 0.51026 0.38421 0.85818 0.0
H1184 H 0.52096 0.38159 0.71652 0.0
C1185 C 0.49674 0.44885 0.7258 0.0
C1186 C 0.51025 0.45306 0.68868 0.0
C1187 C 0.49724 0.43162 0.75311 0.0
C1188 C 0.51807 0.38267 0.75607 0.0
H1189 H 0.55432 0.31735 0.89851 0.0
H1190 H 0.54593 0.34198 0.8367 0.0
H1191 H 0.52414 0.35304 0.76954 0.0
H1192 H 0.53475 0.44206 0.65081 0.0
H1193 H 0.53589 0.41213 0.6991 0.0
H1194 H 0.50474 0.41388 0.84539 0.0
C1195 C 0.53606 0.33887 0.86654 0.0
C1196 C 0.51982 0.36623 0.7865 0.0
C1197 C 0.54089 0.32472 0.90201 0.0
C1198 C 0.52404 0.4393 0.67889 0.0
C1199 C 0.52464 0.42205 0.70657 0.0
C1200 C 0.50861 0.40065 0.82789 0.0
C1201 C 0.51952 0.3498 0.87172 0.0
C1202 C 0.51607 0.36679 0.8381 0.0
C1203 C 0.51138 0.41805 0.74459 0.0
C1204 C 0.51261 0.4002 0.77638 0.0
H1205 H 0.50293 0.32851 0.9788 0.0
H1206 H 0.49427 0.35321 0.91647 0.0
H1207 H 0.50763 0.38536 0.89787 0.0
H1208 H 0.48576 0.45896 0.73416 0.0
H1209 H 0.48649 0.42898 0.7811 0.0
C1210 C 0.20522 0.49452 0.88931 0.0
C1211 C 0.21165 0.47561 0.89074 0.0
C1212 C 0.18908 0.49934 0.85879 0.0
C1213 C 0.14634 0.5 0.82421 0.0
H1214 H 0.13552 0.47883 0.6915 0.0
C1215 C 0.06899 0.49556 0.73463 0.0
C1216 C 0.06649 0.50019 0.68333 0.0
C1217 C 0.08753 0.49385 0.75678 0.0
C1218 C 0.13835 0.485 0.72834 0.0
H1219 H 0.20697 0.44722 0.85935 0.0
H1220 H 0.17913 0.45561 0.8057 0.0
H1221 H 0.16716 0.47446 0.73318 0.0
H1222 H 0.08175 0.50645 0.61504 0.0
H1223 H 0.1141 0.50332 0.6537 0.0
H1224 H 0.11748 0.51033 0.81972 0.0
C1225 C 0.18642 0.46677 0.82803 0.0
C1226 C 0.15646 0.48238 0.7524 0.0
C1227 C 0.20236 0.46193 0.85887 0.0
C1228 C 0.08308 0.50284 0.65462 0.0
C1229 C 0.10166 0.50098 0.67676 0.0
C1230 C 0.12819 0.50248 0.80035 0.0
C1231 C 0.1792 0.48539 0.82863 0.0
C1232 C 0.16063 0.48967 0.80089 0.0
C1233 C 0.10413 0.4966 0.72825 0.0
C1234 C 0.12386 0.49482 0.75235 0.0
H1235 H 0.21197 0.50531 0.91384 0.0
H1236 H 0.18402 0.51387 0.85976 0.0
H1237 H 0.14893 0.50564 0.86171 0.0
H1238 H 0.05661 0.49341 0.75801 0.0
H1239 H 0.08885 0.49017 0.79632 0.0
C1240 C 0.01007 0.82316 0.32633 0.0
C1241 C 0.9916 0.81407 0.32239 0.0
C1242 C 0.01359 0.8389 0.35881 0.0
C1243 C 0.98745 0.8788 0.40817 0.0
H1244 H 0.02933 0.88652 0.50708 0.0
C1245 C 0.9894 0.94537 0.53709 0.0
C1246 C 0.00727 0.95328 0.5549 0.0
C1247 C 0.98833 0.92784 0.51138 0.0
C1248 C 0.01769 0.88487 0.47907 0.0
H1249 H 0.96296 0.81342 0.35293 0.0
H1250 H 0.96899 0.8408 0.40829 0.0
H1251 H 0.02696 0.85688 0.45828 0.0
H1252 H 0.03812 0.9488 0.55919 0.0
H1253 H 0.03647 0.91882 0.51254 0.0
H1254 H 0.97845 0.9068 0.42648 0.0
C1255 C 0.98069 0.83598 0.38605 0.0
C1256 C 0.01632 0.86773 0.45125 0.0
C1257 C 0.97728 0.82021 0.3544 0.0
C1258 C 0.02407 0.94309 0.54639 0.0
C1259 C 0.02307 0.92573 0.51971 0.0
C1260 C 0.98901 0.89602 0.43505 0.0
C1261 C 0.99866 0.84594 0.38753 0.0
C1262 C 1.00101 0.86439 0.41594 0.0
C1263 C 1.00517 0.91777 0.50142 0.0
C1264 C 1.00399 0.89935 0.47162 0.0
H1265 H 0.02138 0.81895 0.30201 0.0
H1266 H 0.02762 0.84625 0.35922 0.0
H1267 H 0.97564 0.87682 0.38066 0.0
H1268 H 0.97613 0.95268 0.54336 0.0
H1269 H 0.97416 0.92218 0.49964 0.0
C1270 C 0.70247 0.97971 0.36226 0.0
C1271 C 0.7066 0.99167 0.32086 0.0
C1272 C 0.68687 0.98316 0.39286 0.0
C1273 C 0.63946 0.0073 0.39055 0.0
H1274 H 0.64058 0.99357 0.53193 0.0
C1275 C 0.56881 0.99964 0.50276 0.0
C1276 C 0.5692 0.0054 0.55341 0.0
C1277 C 0.58591 0.99898 0.47588 0.0
C1278 C 0.63995 0.99766 0.49262 0.0
H1279 H 0.69773 0.01719 0.28071 0.0
H1280 H 0.67065 0.02352 0.33465 0.0
H1281 H 0.66996 0.99199 0.4846 0.0
H1282 H 0.58834 0.01494 0.61515 0.0
H1283 H 0.61801 0.0139 0.56849 0.0
H1284 H 0.6095 0.01319 0.39872 0.0
C1285 C 0.67938 0.01121 0.34305 0.0
C1286 C 0.65686 0.99655 0.46513 0.0
C1287 C 0.69513 0.00778 0.31246 0.0
C1288 C 0.58734 0.01033 0.5764 0.0
C1289 C 0.60446 0.00965 0.54949 0.0
C1290 C 0.62252 0.00839 0.41802 0.0
C1291 C 0.67473 0.99871 0.3832 0.0
C1292 C 0.65691 1.00118 0.41346 0.0
C1293 C 0.60407 1.00405 0.49863 0.0
C1294 C 0.6224 1.00343 0.4695 0.0
H1295 H 0.71095 0.96716 0.36998 0.0
H1296 H 0.68385 0.97305 0.42282 0.0
H1297 H 0.63869 0.01082 0.35087 0.0
H1298 H 0.55521 0.99569 0.48352 0.0
H1299 H 0.58486 0.99426 0.43723 0.0
C1300 C 0.51955 0.68857 0.29839 0.0
C1301 C 0.50204 0.69815 0.30014 0.0
C1302 C 0.52407 0.67426 0.3341 0.0
C1303 C 0.50848 0.65232 0.45653 0.0
H1304 H 0.52849 0.60587 0.40201 0.0
C1305 C 0.50026 0.57798 0.55494 0.0
C1306 C 0.51568 0.56533 0.55332 0.0
C1307 C 0.50075 0.59539 0.52811 0.0
C1308 C 0.52313 0.61879 0.41817 0.0
H1309 H 0.47614 0.70111 0.34223 0.0
H1310 H 0.48386 0.67642 0.40398 0.0
H1311 H 0.52642 0.63455 0.34949 0.0
H1312 H 0.54391 0.56147 0.52254 0.0
H1313 H 0.54471 0.59172 0.47598 0.0
H1314 H 0.50465 0.6363 0.52475 0.0
C1315 C 0.49429 0.67984 0.37566 0.0
C1316 C 0.52201 0.63534 0.38799 0.0
C1317 C 0.4898 0.69403 0.3401 0.0
C1318 C 0.53174 0.57078 0.52481 0.0
C1319 C 0.53216 0.58811 0.49773 0.0
C1320 C 0.50949 0.63573 0.48658 0.0
C1321 C 0.5112 0.66928 0.37241 0.0
C1322 C 0.5144 0.6523 0.40642 0.0
C1323 C 0.5166 0.6006 0.4986 0.0
C1324 C 0.51659 0.61865 0.46764 0.0
H1325 H 0.52916 0.6913 0.26774 0.0
H1326 H 0.53739 0.6667 0.33077 0.0
H1327 H 0.50287 0.66514 0.47257 0.0
H1328 H 0.48764 0.57432 0.57637 0.0
H1329 H 0.48841 0.60453 0.52937 0.0
C1330 C 0.82513 0.57085 0.36727 0.0
C1331 C 0.81472 0.55732 0.33716 0.0
C1332 C 0.83969 0.56517 0.4014 0.0
C1333 C 0.87329 0.525 0.42257 0.0
H1334 H 0.89079 0.55604 0.53664 0.0
C1335 C 0.94072 0.50749 0.54977 0.0
C1336 C 0.95428 0.5228 0.55728 0.0
C1337 C 0.9224 0.51064 0.52765 0.0
C1338 C 0.88609 0.54727 0.50481 0.0
H1339 H 0.81037 0.52701 0.32235 0.0
H1340 H 0.83529 0.51684 0.38383 0.0
H1341 H 0.85985 0.56239 0.49391 0.0
H1342 H 0.9589 0.55352 0.54846 0.0
H1343 H 0.9267 0.55905 0.51084 0.0
H1344 H 0.89952 0.50972 0.43443 0.0
C1345 C 0.83265 0.532 0.3798 0.0
C1346 C 0.86835 0.55092 0.48006 0.0
C1347 C 0.81809 0.53776 0.34515 0.0
C1348 C 0.94887 0.5414 0.54305 0.0
C1349 C 0.93039 0.54458 0.52175 0.0
C1350 C 0.89087 0.52115 0.44794 0.0
C1351 C 0.8442 0.54571 0.40705 0.0
C1352 C 0.86184 0.54015 0.43773 0.0
C1353 C 0.917 0.52921 0.51336 0.0
C1354 C 0.89767 0.53249 0.48869 0.0
H1355 H 0.82283 0.58605 0.36206 0.0
H1356 H 0.84818 0.57629 0.42092 0.0
H1357 H 0.86911 0.51654 0.38982 0.0
H1358 H 0.94435 0.49297 0.56027 0.0
H1359 H 0.91238 0.49852 0.52199 0.0
loop_
_geom_bond_atom_site_label_1
_geom_bond_atom_site_label_2
_geom_bond_distance
_geom_bond_site_symmetry_2
_ccdc_geom_bond_type
C0 C1 1.391 . S
C0 C4 1.391 . S
C0 H42 0.948 . S
C1 C0 1.391 . S
C1 C2 1.391 . S
C2 C1 1.391 . S
C2 H58 0.947 . S
C2 C59 1.392 . S
C3 C4 1.391 . S
C3 C7 1.397 . S
C3 C59 1.419 . S
C4 C0 1.391 . S
C4 C3 1.391 . S
C4 C5 1.399 . S
C5 C4 1.399 . S
C5 C8 1.396 . S
C5 C17 1.453 . S
C5 C18 1.684 . S
H6 C30 0.948 . S
C7 C3 1.397 . S
C7 C8 1.394 . S
C7 C26 1.723 . S
C8 C5 1.396 . S
C8 C7 1.394 . S
C8 C38 1.723 . S
H9 C32 0.947 . S
H10 C33 0.948 . S
H11 C39 0.982 . S
H12 C40 0.979 . S
H13 C40 0.980 1_556 S
H14 C40 0.983 1_556 S
H15 C39 0.979 . S
H16 C39 0.977 . S
C17 C5 1.453 . S
C17 H46 0.982 . S
C17 H47 0.979 . S
C17 H48 0.977 . S
C18 C5 1.684 . S
C18 H43 0.979 . S
C18 H44 0.980 . S
C18 H45 0.983 . S
C19 C20 1.391 1_554 S
C19 C24 1.391 . S
C19 H49 0.948 . S
C20 C19 1.391 1_556 S
C20 C21 1.391 . S
C21 C20 1.391 . S
C21 C22 1.392 1_556 S
C21 H50 0.947 . S
C22 C21 1.392 1_554 S
C22 C23 1.419 . S
C22 H51 0.944 1_554 S
C23 C22 1.419 . S
C23 C24 1.391 . S
C23 C27 1.397 . S
C24 C19 1.391 . S
C24 C23 1.391 . S
C24 C25 1.399 . S
C25 C24 1.399 . S
C25 C26 1.396 . S
C25 C28 1.453 . S
C25 C29 1.684 . S
C26 C7 1.723 . S
C26 C25 1.396 . S
C26 C27 1.394 . S
C27 C23 1.397 . S
C27 C26 1.394 . S
C27 C37 1.723 . S
C28 C25 1.453 . S
C28 H52 0.982 . S
C28 H53 0.979 . S
C28 H54 0.977 . S
C29 C25 1.684 . S
C29 H55 0.979 . S
C29 H56 0.980 . S
C29 H57 0.983 . S
C30 H6 0.948 . S
C30 C31 1.391 . S
C30 C35 1.391 . S
C31 C30 1.391 . S
C31 C32 1.391 . S
C32 H9 0.947 . S
C32 C31 1.391 . S
C32 C33 1.392 . S
C33 H10 0.948 . S
C33 C32 1.392 . S
C33 C34 1.419 . S
C34 C33 1.419 . S
C34 C35 1.391 . S
C34 C38 1.397 . S
C35 C30 1.391 . S
C35 C34 1.391 . S
C35 C36 1.399 . S
C36 C35 1.399 . S
C36 C37 1.396 . S
C36 C39 1.453 . S
C36 C40 1.684 . S
C37 C27 1.723 . S
C37 C36 1.396 . S
C37 C38 1.394 . S
C38 C8 1.723 . S
C38 C34 1.397 . S
C38 C37 1.394 . S
C39 H11 0.982 . S
C39 H15 0.979 . S
C39 H16 0.977 . S
C39 C36 1.453 . S
C40 H12 0.979 . S
C40 H13 0.980 1_554 S
C40 H14 0.983 1_554 S
C40 C36 1.684 . S
H41 C59 0.948 . S
H42 C0 0.948 . S
H43 C18 0.979 . S
H44 C18 0.980 . S
H45 C18 0.983 . S
H46 C17 0.982 . S
H47 C17 0.979 . S
H48 C17 0.977 . S
H49 C19 0.948 . S
H50 C21 0.947 . S
H51 C22 0.944 1_556 S
H52 C28 0.982 . S
H53 C28 0.979 . S
H54 C28 0.977 . S
H55 C29 0.979 . S
H56 C29 0.980 . S
H57 C29 0.983 . S
H58 C2 0.947 . S
C59 C2 1.392 . S
C59 C3 1.419 . S
C59 H41 0.948 . S
C60 C61 1.391 . S
C60 C64 1.391 . S
C60 H102 0.948 . S
C61 C60 1.391 . S
C61 C62 1.391 . S
C62 C61 1.391 . S
C62 H118 0.947 . S
C62 C119 1.392 . S
C63 C64 1.391 . S
C63 C67 1.397 . S
C63 C119 1.419 . S
C64 C60 1.391 . S
C64 C63 1.391 . S
C64 C65 1.399 . S
C65 C64 1.399 . S
C65 C68 1.396 . S
C65 C77 1.453 . S
C65 C78 1.684 . S
H66 C90 0.948 . S
C67 C63 1.397 . S
C67 C68 1.394 . S
C67 C86 1.723 . S
C68 C65 1.396 . S
C68 C67 1.394 . S
C68 C98 1.723 . S
H69 C92 0.947 . S
H70 C93 0.948 . S
H71 C99 0.982 . S
H72 C100 0.979 . S
H73 C100 0.980 . S
H74 C100 0.983 . S
H75 C99 0.979 . S
H76 C99 0.977 . S
C77 C65 1.453 . S
C77 H106 0.982 . S
C77 H107 0.979 . S
C77 H108 0.977 . S
C78 C65 1.684 . S
C78 H103 0.979 . S
C78 H104 0.980 . S
C78 H105 0.983 . S
C79 C80 1.391 . S
C79 C84 1.391 . S
C79 H109 0.948 . S
C80 C79 1.391 . S
C80 C81 1.391 . S
C81 C80 1.391 . S
C81 C82 1.392 . S
C81 H110 0.947 . S
C82 C81 1.392 . S
C82 C83 1.419 . S
C82 H111 0.948 . S
C83 C82 1.419 . S
C83 C84 1.391 . S
C83 C87 1.397 . S
C84 C79 1.391 . S
C84 C83 1.391 . S
C84 C85 1.399 . S
C85 C84 1.399 . S
C85 C86 1.396 . S
C85 C88 1.453 . S
C85 C89 1.684 . S
C86 C67 1.723 . S
C86 C85 1.396 . S
C86 C87 1.394 . S
C87 C83 1.397 . S
C87 C86 1.394 . S
C87 C97 1.723 . S
C88 C85 1.453 . S
C88 H112 0.982 . S
C88 H113 0.979 . S
C88 H114 0.977 . S
C89 C85 1.684 . S
C89 H115 0.979 . S
C89 H116 0.980 . S
C89 H117 0.983 . S
C90 H66 0.948 . S
C90 C91 1.391 . S
C90 C95 1.391 . S
C91 C90 1.391 . S
C91 C92 1.391 . S
C92 H69 0.947 . S
C92 C91 1.391 . S
C92 C93 1.392 . S
C93 H70 0.948 . S
C93 C92 1.392 . S
C93 C94 1.419 . S
C94 C93 1.419 . S
C94 C95 1.391 . S
C94 C98 1.397 . S
C95 C90 1.391 . S
C95 C94 1.391 . S
C95 C96 1.399 . S
C96 C95 1.399 . S
C96 C97 1.396 . S
C96 C99 1.453 . S
C96 C100 1.684 . S
C97 C87 1.723 . S
C97 C96 1.396 . S
C97 C98 1.394 . S
C98 C68 1.723 . S
C98 C94 1.397 . S
C98 C97 1.394 . S
C99 H71 0.982 . S
C99 H75 0.979 . S
C99 H76 0.977 . S
C99 C96 1.453 . S
C100 H72 0.979 . S
C100 H73 0.980 . S
C100 H74 0.983 . S
C100 C96 1.684 . S
H101 C119 0.948 . S
H102 C60 0.948 . S
H103 C78 0.979 . S
H104 C78 0.980 . S
H105 C78 0.983 . S
H106 C77 0.982 . S
H107 C77 0.979 . S
H108 C77 0.977 . S
H109 C79 0.948 . S
H110 C81 0.947 . S
H111 C82 0.948 . S
H112 C88 0.982 . S
H113 C88 0.979 . S
H114 C88 0.977 . S
H115 C89 0.979 . S
H116 C89 0.980 . S
H117 C89 0.983 . S
H118 C62 0.947 . S
C119 C62 1.392 . S
C119 C63 1.419 . S
C119 H101 0.948 . S
C120 C121 1.391 . S
C120 C124 1.391 . S
C120 H162 0.948 . S
C121 C120 1.391 . S
C121 C122 1.391 . S
C122 C121 1.391 . S
C122 H178 0.947 . S
C122 C179 1.392 . S
C123 C124 1.391 . S
C123 C127 1.397 . S
C123 C179 1.419 . S
C124 C120 1.391 . S
C124 C123 1.391 . S
C124 C125 1.399 . S
C125 C124 1.399 . S
C125 C128 1.396 . S
C125 C137 1.453 . S
C125 C138 1.684 . S
H126 C150 0.948 . S
C127 C123 1.397 . S
C127 C128 1.394 . S
C127 C146 1.723 . S
C128 C125 1.396 . S
C128 C127 1.394 . S
C128 C158 1.723 . S
H129 C152 0.947 . S
H130 C153 0.948 . S
H131 C159 0.982 . S
H132 C160 0.979 . S
H133 C160 0.980 . S
H134 C160 0.983 . S
H135 C159 0.979 . S
H136 C159 0.977 . S
C137 C125 1.453 . S
C137 H166 0.982 . S
C137 H167 0.979 . S
C137 H168 0.977 . S
C138 C125 1.684 . S
C138 H163 0.979 . S
C138 H164 0.980 . S
C138 H165 0.983 . S
C139 C140 1.391 . S
C139 C144 1.391 . S
C139 H169 0.948 . S
C140 C139 1.391 . S
C140 C141 1.391 . S
C141 C140 1.391 . S
C141 C142 1.392 . S
C141 H170 0.947 . S
C142 C141 1.392 . S
C142 C143 1.419 . S
C142 H171 0.948 . S
C143 C142 1.419 . S
C143 C144 1.391 . S
C143 C147 1.397 . S
C144 C139 1.391 . S
C144 C143 1.391 . S
C144 C145 1.399 . S
C145 C144 1.399 . S
C145 C146 1.396 . S
C145 C148 1.453 . S
C145 C149 1.684 . S
C146 C127 1.723 . S
C146 C145 1.396 . S
C146 C147 1.394 . S
C147 C143 1.397 . S
C147 C146 1.394 . S
C147 C157 1.723 . S
C148 C145 1.453 . S
C148 H172 0.982 . S
C148 H173 0.979 . S
C148 H174 0.977 . S
C149 C145 1.684 . S
C149 H175 0.979 . S
C149 H176 0.980 . S
C149 H177 0.983 . S
C150 H126 0.948 . S
C150 C151 1.391 . S
C150 C155 1.391 . S
C151 C150 1.391 . S
C151 C152 1.391 . S
C152 H129 0.947 . S
C152 C151 1.391 . S
C152 C153 1.392 . S
C153 H130 0.948 . S
C153 C152 1.392 . S
C153 C154 1.419 . S
C154 C153 1.419 . S
C154 C155 1.391 . S
C154 C158 1.397 . S
C155 C150 1.391 . S
C155 C154 1.391 . S
C155 C156 1.399 . S
C156 C155 1.399 . S
C156 C157 1.396 . S
C156 C159 1.453 . S
C156 C160 1.684 . S
C157 C147 1.723 . S
C157 C156 1.396 . S
C157 C158 1.394 . S
C158 C128 1.723 . S
C158 C154 1.397 . S
C158 C157 1.394 . S
C159 H131 0.982 . S
C159 H135 0.979 . S
C159 H136 0.977 . S
C159 C156 1.453 . S
C160 H132 0.979 . S
C160 H133 0.980 . S
C160 H134 0.983 . S
C160 C156 1.684 . S
H161 C179 0.948 . S
H162 C120 0.948 . S
H163 C138 0.979 . S
H164 C138 0.980 . S
H165 C138 0.983 . S
H166 C137 0.982 . S
H167 C137 0.979 . S
H168 C137 0.977 . S
H169 C139 0.948 . S
H170 C141 0.947 . S
H171 C142 0.948 . S
H172 C148 0.982 . S
H173 C148 0.979 . S
H174 C148 0.977 . S
H175 C149 0.979 . S
H176 C149 0.980 . S
H177 C149 0.983 . S
H178 C122 0.947 . S
C179 C122 1.392 . S
C179 C123 1.419 . S
C179 H161 0.948 . S
C180 C181 1.391 . S
C180 C184 1.391 . S
C180 H222 0.948 . S
C181 C180 1.391 . S
C181 C182 1.391 . S
C182 C181 1.391 . S
C182 H238 0.947 . S
C182 C239 1.392 . S
C183 C184 1.391 . S
C183 C187 1.397 . S
C183 C239 1.419 . S
C184 C180 1.391 . S
C184 C183 1.391 . S
C184 C185 1.399 . S
C185 C184 1.399 . S
C185 C188 1.396 . S
C185 C197 1.453 . S
C185 C198 1.684 . S
H186 C210 0.948 . S
C187 C183 1.397 . S
C187 C188 1.394 . S
C187 C206 1.723 . S
C188 C185 1.396 . S
C188 C187 1.394 . S
C188 C218 1.723 . S
H189 C212 0.947 . S
H190 C213 0.948 . S
H191 C219 0.982 . S
H192 C220 0.979 . S
H193 C220 0.980 . S
H194 C220 0.983 . S
H195 C219 0.979 . S
H196 C219 0.977 . S
C197 C185 1.453 . S
C197 H226 0.982 . S
C197 H227 0.979 . S
C197 H228 0.977 . S
C198 C185 1.684 . S
C198 H223 0.979 . S
C198 H224 0.980 . S
C198 H225 0.983 . S
C199 C200 1.391 . S
C199 C204 1.391 . S
C199 H229 0.948 . S
C200 C199 1.391 . S
C200 C201 1.391 1_554 S
C201 C200 1.391 1_556 S
C201 C202 1.392 1_556 S
C201 H230 0.947 . S
C202 C201 1.392 1_554 S
C202 C203 1.419 . S
C202 H231 0.948 . S
C203 C202 1.419 . S
C203 C204 1.391 . S
C203 C207 1.397 . S
C204 C199 1.391 . S
C204 C203 1.391 . S
C204 C205 1.399 . S
C205 C204 1.399 . S
C205 C206 1.396 . S
C205 C208 1.453 . S
C205 C209 1.684 . S
C206 C187 1.723 . S
C206 C205 1.396 . S
C206 C207 1.394 . S
C207 C203 1.397 . S
C207 C206 1.394 . S
C207 C217 1.723 . S
C208 C205 1.453 . S
C208 H232 0.982 . S
C208 H233 0.979 . S
C208 H234 0.977 . S
C209 C205 1.684 . S
C209 H235 0.979 . S
C209 H236 0.980 . S
C209 H237 0.983 . S
C210 H186 0.948 . S
C210 C211 1.391 . S
C210 C215 1.391 . S
C211 C210 1.391 . S
C211 C212 1.391 . S
C212 H189 0.947 . S
C212 C211 1.391 . S
C212 C213 1.392 . S
C213 H190 0.948 . S
C213 C212 1.392 . S
C213 C214 1.419 . S
C214 C213 1.419 . S
C214 C215 1.391 . S
C214 C218 1.397 . S
C215 C210 1.391 . S
C215 C214 1.391 . S
C215 C216 1.399 . S
C216 C215 1.399 . S
C216 C217 1.396 . S
C216 C219 1.453 . S
C216 C220 1.684 . S
C217 C207 1.723 . S
C217 C216 1.396 . S
C217 C218 1.394 . S
C218 C188 1.723 . S
C218 C214 1.397 . S
C218 C217 1.394 . S
C219 H191 0.982 . S
C219 H195 0.979 . S
C219 H196 0.977 . S
C219 C216 1.453 . S
C220 H192 0.979 . S
C220 H193 0.980 . S
C220 H194 0.983 . S
C220 C216 1.684 . S
H221 C239 0.948 . S
H222 C180 0.948 . S
H223 C198 0.979 . S
H224 C198 0.980 . S
H225 C198 0.983 . S
H226 C197 0.982 . S
H227 C197 0.979 . S
H228 C197 0.977 . S
H229 C199 0.948 . S
H230 C201 0.947 . S
H231 C202 0.948 . S
H232 C208 0.982 . S
H233 C208 0.979 . S
H234 C208 0.977 . S
H235 C209 0.979 . S
H236 C209 0.980 . S
H237 C209 0.983 . S
H238 C182 0.947 . S
C239 C182 1.392 . S
C239 C183 1.419 . S
C239 H221 0.948 . S
C240 C241 1.391 . S
C240 C244 1.391 . S
C240 H282 0.948 . S
C241 C240 1.391 . S
C241 C242 1.391 . S
C242 C241 1.391 . S
C242 H298 0.947 . S
C242 C299 1.392 . S
C243 C244 1.391 . S
C243 C247 1.397 . S
C243 C299 1.419 . S
C244 C240 1.391 . S
C244 C243 1.391 . S
C244 C245 1.399 . S
C245 C244 1.399 . S
C245 C248 1.396 . S
C245 C257 1.453 . S
C245 C258 1.684 1_554 S
H246 C270 0.948 . S
C247 C243 1.397 . S
C247 C248 1.394 . S
C247 C266 1.723 . S
C248 C245 1.396 . S
C248 C247 1.394 . S
C248 C278 1.723 . S
H249 C272 0.947 . S
H250 C273 0.948 . S
H251 C279 0.982 . S
H252 C280 0.979 . S
H253 C280 0.980 . S
H254 C280 0.983 1_556 S
H255 C279 0.979 1_556 S
H256 C279 0.977 . S
C257 C245 1.453 . S
C257 H286 0.982 . S
C257 H287 0.979 1_554 S
C257 H288 0.977 1_554 S
C258 C245 1.684 1_556 S
C258 H283 0.979 1_556 S
C258 H284 0.980 . S
C258 H285 0.983 . S
C259 C260 1.391 . S
C259 C264 1.391 . S
C259 H289 0.948 . S
C260 C259 1.391 . S
C260 C261 1.391 . S
C261 C260 1.391 . S
C261 C262 1.392 . S
C261 H290 0.947 . S
C262 C261 1.392 . S
C262 C263 1.419 . S
C262 H291 0.948 . S
C263 C262 1.419 . S
C263 C264 1.391 . S
C263 C267 1.397 . S
C264 C259 1.391 . S
C264 C263 1.391 . S
C264 C265 1.399 . S
C265 C264 1.399 . S
C265 C266 1.396 . S
C265 C268 1.453 . S
C265 C269 1.684 . S
C266 C247 1.723 . S
C266 C265 1.396 . S
C266 C267 1.394 . S
C267 C263 1.397 . S
C267 C266 1.394 . S
C267 C277 1.723 . S
C268 C265 1.453 . S
C268 H292 0.982 . S
C268 H293 0.979 . S
C268 H294 0.977 . S
C269 C265 1.684 . S
C269 H295 0.979 . S
C269 H296 0.980 . S
C269 H297 0.983 . S
C270 H246 0.948 . S
C270 C271 1.391 . S
C270 C275 1.391 . S
C271 C270 1.391 . S
C271 C272 1.391 . S
C272 H249 0.947 . S
C272 C271 1.391 . S
C272 C273 1.392 . S
C273 H250 0.948 . S
C273 C272 1.392 . S
C273 C274 1.419 . S
C274 C273 1.419 . S
C274 C275 1.391 . S
C274 C278 1.397 1_556 S
C275 C270 1.391 . S
C275 C274 1.391 . S
C275 C276 1.399 1_556 S
C276 C275 1.399 1_554 S
C276 C277 1.396 . S
C276 C279 1.453 . S
C276 C280 1.684 . S
C277 C267 1.723 . S
C277 C276 1.396 . S
C277 C278 1.394 . S
C278 C248 1.723 . S
C278 C274 1.397 1_554 S
C278 C277 1.394 . S
C279 H251 0.982 . S
C279 H255 0.979 1_554 S
C279 H256 0.977 . S
C279 C276 1.453 . S
C280 H252 0.979 . S
C280 H253 0.980 . S
C280 H254 0.983 1_554 S
C280 C276 1.684 . S
H281 C299 0.948 . S
H282 C240 0.948 . S
H283 C258 0.979 1_554 S
H284 C258 0.980 . S
H285 C258 0.983 . S
H286 C257 0.982 . S
H287 C257 0.979 1_556 S
H288 C257 0.977 1_556 S
H289 C259 0.948 . S
H290 C261 0.947 . S
H291 C262 0.948 . S
H292 C268 0.982 . S
H293 C268 0.979 . S
H294 C268 0.977 . S
H295 C269 0.979 . S
H296 C269 0.980 . S
H297 C269 0.983 . S
H298 C242 0.947 . S
C299 C242 1.392 . S
C299 C243 1.419 . S
C299 H281 0.948 . S
C300 C301 1.391 . S
C300 C304 1.391 . S
C300 H342 0.948 . S
C301 C300 1.391 . S
C301 C302 1.391 . S
C302 C301 1.391 . S
C302 H358 0.947 . S
C302 C359 1.392 . S
C303 C304 1.391 . S
C303 C307 1.397 . S
C303 C359 1.419 . S
C304 C300 1.391 . S
C304 C303 1.391 . S
C304 C305 1.399 . S
C305 C304 1.399 . S
C305 C308 1.396 . S
C305 C317 1.453 . S
C305 C318 1.684 . S
H306 C330 0.948 . S
C307 C303 1.397 . S
C307 C308 1.394 . S
C307 C326 1.723 1_554 S
C308 C305 1.396 . S
C308 C307 1.394 . S
C308 C338 1.723 . S
H309 C332 0.947 . S
H310 C333 0.948 . S
H311 C339 0.982 . S
H312 C340 0.979 . S
H313 C340 0.980 . S
H314 C340 0.983 . S
H315 C339 0.979 . S
H316 C339 0.977 . S
C317 C305 1.453 . S
C317 H346 0.982 . S
C317 H347 0.979 . S
C317 H348 0.977 . S
C318 C305 1.684 . S
C318 H343 0.979 . S
C318 H344 0.980 . S
C318 H345 0.983 . S
C319 C320 1.391 . S
C319 C324 1.391 . S
C319 H349 0.948 . S
C320 C319 1.391 . S
C320 C321 1.391 . S
C321 C320 1.391 . S
C321 C322 1.392 . S
C321 H350 0.947 . S
C322 C321 1.392 . S
C322 C323 1.419 . S
C322 H351 0.948 . S
C323 C322 1.419 . S
C323 C324 1.391 . S
C323 C327 1.397 . S
C324 C319 1.391 . S
C324 C323 1.391 . S
C324 C325 1.399 . S
C325 C324 1.399 . S
C325 C326 1.396 . S
C325 C328 1.453 . S
C325 C329 1.684 . S
C326 C307 1.723 1_556 S
C326 C325 1.396 . S
C326 C327 1.394 . S
C327 C323 1.397 . S
C327 C326 1.394 . S
C327 C337 1.723 . S
C328 C325 1.453 . S
C328 H352 0.982 . S
C328 H353 0.979 . S
C328 H354 0.977 1_556 S
C329 C325 1.684 . S
C329 H355 0.979 . S
C329 H356 0.988 . S
C329 H357 0.983 . S
C330 H306 0.948 . S
C330 C331 1.391 . S
C330 C335 1.391 . S
C331 C330 1.391 . S
C331 C332 1.391 . S
C332 H309 0.947 . S
C332 C331 1.391 . S
C332 C333 1.392 . S
C333 H310 0.948 . S
C333 C332 1.392 . S
C333 C334 1.419 . S
C334 C333 1.419 . S
C334 C335 1.391 . S
C334 C338 1.397 . S
C335 C330 1.391 . S
C335 C334 1.391 . S
C335 C336 1.399 1_554 S
C336 C335 1.399 1_556 S
C336 C337 1.396 . S
C336 C339 1.453 . S
C336 C340 1.684 . S
C337 C327 1.723 . S
C337 C336 1.396 . S
C337 C338 1.394 1_556 S
C338 C308 1.723 . S
C338 C334 1.397 . S
C338 C337 1.394 1_554 S
C339 H311 0.982 . S
C339 H315 0.979 . S
C339 H316 0.977 . S
C339 C336 1.453 . S
C340 H312 0.979 . S
C340 H313 0.980 . S
C340 H314 0.983 . S
C340 C336 1.684 . S
H341 C359 0.948 . S
H342 C300 0.948 . S
H343 C318 0.979 . S
H344 C318 0.980 . S
H345 C318 0.983 . S
H346 C317 0.982 . S
H347 C317 0.979 . S
H348 C317 0.977 . S
H349 C319 0.948 . S
H350 C321 0.947 . S
H351 C322 0.948 . S
H352 C328 0.982 . S
H353 C328 0.979 . S
H354 C328 0.977 1_554 S
H355 C329 0.979 . S
H356 C329 0.988 . S
H357 C329 0.983 . S
H358 C302 0.947 . S
C359 C302 1.392 . S
C359 C303 1.419 . S
C359 H341 0.948 . S
C360 C361 1.391 . S
C360 C364 1.391 . S
C360 H402 0.948 . S
C361 C360 1.391 . S
C361 C362 1.391 . S
C362 C361 1.391 . S
C362 H418 0.947 . S
C362 C419 1.392 . S
C363 C364 1.391 . S
C363 C367 1.397 . S
C363 C419 1.419 . S
C364 C360 1.391 . S
C364 C363 1.391 . S
C364 C365 1.399 . S
C365 C364 1.399 . S
C365 C368 1.396 . S
C365 C377 1.453 . S
C365 C378 1.684 . S
H366 C390 0.948 . S
C367 C363 1.397 . S
C367 C368 1.394 . S
C367 C386 1.723 1_556 S
C368 C365 1.396 . S
C368 C367 1.394 . S
C368 C398 1.723 1_556 S
H369 C392 0.947 . S
H370 C393 0.948 . S
H371 C399 0.982 . S
H372 C400 0.979 . S
H373 C400 0.980 . S
H374 C400 0.983 . S
H375 C399 0.979 . S
H376 C399 0.977 . S
C377 C365 1.453 . S
C377 H406 0.982 . S
C377 H407 0.979 . S
C377 H408 0.977 . S
C378 C365 1.684 . S
C378 H403 0.979 . S
C378 H404 0.980 . S
C378 H405 0.983 . S
C379 C380 1.391 . S
C379 C384 1.391 . S
C379 H409 0.948 . S
C380 C379 1.391 . S
C380 C381 1.391 . S
C381 C380 1.391 . S
C381 C382 1.392 . S
C381 H410 0.947 . S
C382 C381 1.392 . S
C382 C383 1.419 . S
C382 H411 0.948 . S
C383 C382 1.419 . S
C383 C384 1.391 . S
C383 C387 1.397 . S
C384 C379 1.391 . S
C384 C383 1.391 . S
C384 C385 1.399 . S
C385 C384 1.399 . S
C385 C386 1.396 . S
C385 C388 1.453 . S
C385 C389 1.678 1_554 S
C386 C367 1.723 1_554 S
C386 C385 1.396 . S
C386 C387 1.394 . S
C387 C383 1.397 . S
C387 C386 1.394 . S
C387 C397 1.723 . S
C388 C385 1.453 . S
C388 H412 0.982 . S
C388 H413 0.979 . S
C388 H414 0.977 1_554 S
C389 C385 1.678 1_556 S
C389 H415 0.976 1_556 S
C389 H416 0.992 . S
C389 H417 0.979 1_556 S
C390 H366 0.948 . S
C390 C391 1.391 . S
C390 C395 1.391 . S
C391 C390 1.391 . S
C391 C392 1.391 1_554 S
C392 H369 0.947 . S
C392 C391 1.391 1_556 S
C392 C393 1.392 . S
C393 H370 0.948 . S
C393 C392 1.392 . S
C393 C394 1.419 1_556 S
C394 C393 1.419 1_554 S
C394 C395 1.391 . S
C394 C398 1.397 . S
C395 C390 1.391 . S
C395 C394 1.391 . S
C395 C396 1.399 . S
C396 C395 1.399 . S
C396 C397 1.396 . S
C396 C399 1.453 . S
C396 C400 1.684 . S
C397 C387 1.723 . S
C397 C396 1.396 . S
C397 C398 1.394 . S
C398 C368 1.723 1_554 S
C398 C394 1.397 . S
C398 C397 1.394 . S
C399 H371 0.982 . S
C399 H375 0.979 . S
C399 H376 0.977 . S
C399 C396 1.453 . S
C400 H372 0.979 . S
C400 H373 0.980 . S
C400 H374 0.983 . S
C400 C396 1.684 . S
H401 C419 0.948 . S
H402 C360 0.948 . S
H403 C378 0.979 . S
H404 C378 0.980 . S
H405 C378 0.983 . S
H406 C377 0.982 . S
H407 C377 0.979 . S
H408 C377 0.977 . S
H409 C379 0.948 . S
H410 C381 0.947 . S
H411 C382 0.948 . S
H412 C388 0.982 . S
H413 C388 0.979 . S
H414 C388 0.977 1_556 S
H415 C389 0.976 1_554 S
H416 C389 0.992 . S
H417 C389 0.979 1_554 S
H418 C362 0.947 . S
C419 C362 1.392 . S
C419 C363 1.419 . S
C419 H401 0.948 . S
C420 C421 1.391 . S
C420 C424 1.391 . S
C420 H462 0.948 . S
C421 C420 1.391 . S
C421 C422 1.391 . S
C422 C421 1.391 . S
C422 H478 0.947 . S
C422 C479 1.392 . S
C423 C424 1.391 . S
C423 C427 1.397 1_556 S
C423 C479 1.419 . S
C424 C420 1.391 . S
C424 C423 1.391 . S
C424 C425 1.399 . S
C425 C424 1.399 . S
C425 C428 1.396 1_556 S
C425 C437 1.453 . S
C425 C438 1.684 . S
H426 C450 0.948 . S
C427 C423 1.397 1_554 S
C427 C428 1.394 . S
C427 C446 1.723 . S
C428 C425 1.396 1_554 S
C428 C427 1.394 . S
C428 C458 1.723 . S
H429 C452 0.947 . S
H430 C453 0.948 . S
H431 C459 0.982 . S
H432 C460 0.979 . S
H433 C460 0.980 . S
H434 C460 0.983 . S
H435 C459 0.979 . S
H436 C459 0.977 . S
C437 C425 1.453 . S
C437 H466 0.982 . S
C437 H467 0.979 . S
C437 H468 0.977 . S
C438 C425 1.684 . S
C438 H463 0.979 . S
C438 H464 0.980 . S
C438 H465 0.983 . S
C439 C440 1.391 . S
C439 C444 1.391 . S
C439 H469 0.948 . S
C440 C439 1.391 . S
C440 C441 1.391 . S
C441 C440 1.391 . S
C441 C442 1.392 . S
C441 H470 0.947 . S
C442 C441 1.392 . S
C442 C443 1.419 . S
C442 H471 0.948 . S
C443 C442 1.419 . S
C443 C444 1.391 . S
C443 C447 1.397 . S
C444 C439 1.391 . S
C444 C443 1.391 . S
C444 C445 1.399 . S
C445 C444 1.399 . S
C445 C446 1.396 . S
C445 C448 1.453 . S
C445 C449 1.684 . S
C446 C427 1.723 . S
C446 C445 1.396 . S
C446 C447 1.394 . S
C447 C443 1.397 . S
C447 C446 1.394 . S
C447 C457 1.723 . S
C448 C445 1.453 . S
C448 H472 0.982 . S
C448 H473 0.979 . S
C448 H474 0.977 . S
C449 C445 1.684 . S
C449 H475 0.979 . S
C449 H476 0.980 . S
C449 H477 0.983 . S
C450 H426 0.948 . S
C450 C451 1.391 . S
C450 C455 1.391 . S
C451 C450 1.391 . S
C451 C452 1.391 . S
C452 H429 0.947 . S
C452 C451 1.391 . S
C452 C453 1.392 . S
C453 H430 0.948 . S
C453 C452 1.392 . S
C453 C454 1.419 . S
C454 C453 1.419 . S
C454 C455 1.391 . S
C454 C458 1.397 . S
C455 C450 1.391 . S
C455 C454 1.391 . S
C455 C456 1.399 . S
C456 C455 1.399 . S
C456 C457 1.396 . S
C456 C459 1.453 . S
C456 C460 1.684 . S
C457 C447 1.723 . S
C457 C456 1.396 . S
C457 C458 1.394 . S
C458 C428 1.723 . S
C458 C454 1.397 . S
C458 C457 1.394 . S
C459 H431 0.982 . S
C459 H435 0.979 . S
C459 H436 0.977 . S
C459 C456 1.453 . S
C460 H432 0.979 . S
C460 H433 0.980 . S
C460 H434 0.983 . S
C460 C456 1.684 . S
H461 C479 0.948 . S
H462 C420 0.948 . S
H463 C438 0.979 . S
H464 C438 0.980 . S
H465 C438 0.983 . S
H466 C437 0.982 . S
H467 C437 0.979 . S
H468 C437 0.977 . S
H469 C439 0.948 . S
H470 C441 0.947 . S
H471 C442 0.948 . S
H472 C448 0.982 . S
H473 C448 0.979 . S
H474 C448 0.977 . S
H475 C449 0.979 . S
H476 C449 0.980 . S
H477 C449 0.983 . S
H478 C422 0.947 . S
C479 C422 1.392 . S
C479 C423 1.419 . S
C479 H461 0.948 . S
Eu480 C489 2.828 . S
Eu480 O491 2.392 . S
Eu480 O493 2.418 1_545 S
Eu480 O498 2.373 1_655 S
Eu480 O501 2.488 . S
Eu480 O502 2.471 . S
Eu480 O503 2.349 1_655 S
Eu481 O490 2.373 1_455 S
Eu481 O494 2.488 . S
Eu481 O495 2.471 . S
Eu481 O496 2.349 . S
Eu481 O499 2.392 1_565 S
Eu481 O500 2.418 1_565 S
Eu481 C510 2.828 . S
C482 O500 1.244 . S
C482 O503 1.265 . S
C483 C484 1.379 1_655 S
C483 C487 1.373 . S
C483 C489 1.505 . S
C484 C483 1.379 1_455 S
C484 C486 1.369 . S
C484 H512 0.930 . S
C485 C487 1.383 . S
C485 C488 1.382 1_655 S
C485 H513 0.930 . S
C486 C484 1.369 . S
C486 C488 1.392 . S
C486 H514 0.930 . S
C487 C483 1.373 . S
C487 C485 1.383 . S
C487 H515 0.931 . S
C488 C485 1.382 1_455 S
C488 C486 1.392 . S
C489 Eu480 2.828 . S
C489 C483 1.505 . S
C489 O501 1.249 . S
C489 O502 1.244 . S
O490 Eu481 2.373 1_655 S
O490 C492 1.258 . S
O491 Eu480 2.392 . S
O491 C492 1.242 1_545 S
C492 O490 1.258 . S
C492 O491 1.242 1_565 S
O493 Eu480 2.418 1_565 S
O493 C497 1.244 . S
O494 Eu481 2.488 . S
O494 C510 1.249 . S
O495 Eu481 2.471 . S
O495 C510 1.244 . S
O496 Eu481 2.349 . S
O496 C497 1.265 1_455 S
C497 O493 1.244 . S
C497 O496 1.265 1_655 S
O498 Eu480 2.373 1_455 S
O498 C511 1.258 . S
O499 Eu481 2.392 1_545 S
O499 C511 1.242 . S
O500 Eu481 2.418 1_545 S
O500 C482 1.244 . S
O501 Eu480 2.488 . S
O501 C489 1.249 . S
O502 Eu480 2.471 . S
O502 C489 1.244 . S
O503 Eu480 2.349 1_455 S
O503 C482 1.265 . S
C504 C505 1.379 . S
C504 C508 1.373 . S
C504 C510 1.505 . S
C505 C504 1.379 . S
C505 C507 1.369 . S
C505 H516 0.930 1_455 S
C506 C508 1.383 . S
C506 C509 1.382 . S
C506 H517 0.930 . S
C507 C505 1.369 . S
C507 C509 1.392 . S
C507 H518 0.930 1_455 S
C508 C504 1.373 . S
C508 C506 1.383 . S
C508 H519 0.931 . S
C509 C506 1.382 . S
C509 C507 1.392 . S
C510 Eu481 2.828 . S
C510 O494 1.249 . S
C510 O495 1.244 . S
C510 C504 1.505 . S
C511 O498 1.258 . S
C511 O499 1.242 . S
H512 C484 0.930 . S
H513 C485 0.930 . S
H514 C486 0.930 . S
H515 C487 0.931 . S
H516 C505 0.930 1_655 S
H517 C506 0.930 . S
H518 C507 0.930 1_655 S
H519 C508 0.931 . S
Eu520 C529 2.828 . S
Eu520 O531 2.392 . S
Eu520 O533 2.418 . S
Eu520 O538 2.373 . S
Eu520 O541 2.488 . S
Eu520 O542 2.471 . S
Eu520 O543 2.349 1_545 S
Eu521 O530 2.373 1_565 S
Eu521 O534 2.488 . S
Eu521 O535 2.471 1_565 S
Eu521 O536 2.349 1_565 S
Eu521 O539 2.392 . S
Eu521 O540 2.418 . S
Eu521 C550 2.828 . S
C522 O540 1.244 . S
C522 O543 1.265 . S
C523 C524 1.379 1_545 S
C523 C527 1.373 . S
C523 C529 1.505 . S
C524 C523 1.379 1_565 S
C524 C526 1.369 . S
C524 H552 0.930 . S
C525 C527 1.383 . S
C525 C528 1.382 . S
C525 H553 0.930 . S
C526 C524 1.369 . S
C526 C528 1.392 1_565 S
C526 H554 0.930 . S
C527 C523 1.373 . S
C527 C525 1.383 . S
C527 H555 0.931 . S
C528 C525 1.382 . S
C528 C526 1.392 1_545 S
C529 Eu520 2.828 . S
C529 C523 1.505 . S
C529 O541 1.249 . S
C529 O542 1.244 . S
O530 Eu521 2.373 1_545 S
O530 C532 1.258 . S
O531 Eu520 2.392 . S
O531 C532 1.242 . S
C532 O530 1.258 . S
C532 O531 1.242 . S
O533 Eu520 2.418 . S
O533 C537 1.244 . S
O534 Eu521 2.488 . S
O534 C550 1.249 . S
O535 Eu521 2.471 1_545 S
O535 C550 1.244 1_545 S
O536 Eu521 2.349 1_545 S
O536 C537 1.265 . S
C537 O533 1.244 . S
C537 O536 1.265 . S
O538 Eu520 2.373 . S
O538 C551 1.258 1_545 S
O539 Eu521 2.392 . S
O539 C551 1.242 . S
O540 Eu521 2.418 . S
O540 C522 1.244 . S
O541 Eu520 2.488 . S
O541 C529 1.249 . S
O542 Eu520 2.471 . S
O542 C529 1.244 . S
O543 Eu520 2.349 1_565 S
O543 C522 1.265 . S
C544 C545 1.379 . S
C544 C548 1.373 1_545 S
C544 C550 1.505 1_545 S
C545 C544 1.379 . S
C545 C547 1.369 . S
C545 H556 0.930 . S
C546 C548 1.383 . S
C546 C549 1.382 1_565 S
C546 H557 0.930 . S
C547 C545 1.369 . S
C547 C549 1.392 . S
C547 H558 0.930 . S
C548 C544 1.373 1_565 S
C548 C546 1.383 . S
C548 H559 0.931 . S
C549 C546 1.382 1_545 S
C549 C547 1.392 . S
C550 Eu521 2.828 . S
C550 O534 1.249 . S
C550 O535 1.244 1_565 S
C550 C544 1.505 1_565 S
C551 O538 1.258 1_565 S
C551 O539 1.242 . S
H552 C524 0.930 . S
H553 C525 0.930 . S
H554 C526 0.930 . S
H555 C527 0.931 . S
H556 C545 0.930 . S
H557 C546 0.930 . S
H558 C547 0.930 . S
H559 C548 0.931 . S
Eu560 C569 2.828 . S
Eu560 O571 2.392 . S
Eu560 O573 2.418 . S
Eu560 O578 2.373 . S
Eu560 O581 2.488 . S
Eu560 O582 2.471 . S
Eu560 O583 2.349 . S
Eu561 O570 2.373 . S
Eu561 O574 2.488 . S
Eu561 O575 2.471 . S
Eu561 O576 2.349 . S
Eu561 O579 2.392 . S
Eu561 O580 2.418 . S
Eu561 C590 2.828 . S
C562 O580 1.244 . S
C562 O583 1.265 . S
C563 C564 1.379 . S
C563 C567 1.373 . S
C563 C569 1.505 . S
C564 C563 1.379 . S
C564 C566 1.369 . S
C564 H592 0.930 . S
C565 C567 1.383 . S
C565 C568 1.382 . S
C565 H593 0.930 . S
C566 C564 1.369 . S
C566 C568 1.392 . S
C566 H594 0.930 . S
C567 C563 1.373 . S
C567 C565 1.383 . S
C567 H595 0.931 . S
C568 C565 1.382 . S
C568 C566 1.392 . S
C569 Eu560 2.828 . S
C569 C563 1.505 . S
C569 O581 1.249 . S
C569 O582 1.244 . S
O570 Eu561 2.373 . S
O570 C572 1.258 . S
O571 Eu560 2.392 . S
O571 C572 1.242 . S
C572 O570 1.258 . S
C572 O571 1.242 . S
O573 Eu560 2.418 . S
O573 C577 1.244 . S
O574 Eu561 2.488 . S
O574 C590 1.249 . S
O575 Eu561 2.471 . S
O575 C590 1.244 . S
O576 Eu561 2.349 . S
O576 C577 1.265 . S
C577 O573 1.244 . S
C577 O576 1.265 . S
O578 Eu560 2.373 . S
O578 C591 1.258 . S
O579 Eu561 2.392 . S
O579 C591 1.242 . S
O580 Eu561 2.418 . S
O580 C562 1.244 . S
O581 Eu560 2.488 . S
O581 C569 1.249 . S
O582 Eu560 2.471 . S
O582 C569 1.244 . S
O583 Eu560 2.349 . S
O583 C562 1.265 . S
C584 C585 1.379 . S
C584 C588 1.373 . S
C584 C590 1.505 . S
C585 C584 1.379 . S
C585 C587 1.369 . S
C585 H596 0.930 . S
C586 C588 1.383 . S
C586 C589 1.382 . S
C586 H597 0.930 . S
C587 C585 1.369 . S
C587 C589 1.392 . S
C587 H598 0.930 . S
C588 C584 1.373 . S
C588 C586 1.383 . S
C588 H599 0.931 . S
C589 C586 1.382 . S
C589 C587 1.392 . S
C590 Eu561 2.828 . S
C590 O574 1.249 . S
C590 O575 1.244 . S
C590 C584 1.505 . S
C591 O578 1.258 . S
C591 O579 1.242 . S
H592 C564 0.930 . S
H593 C565 0.930 . S
H594 C566 0.930 . S
H595 C567 0.931 . S
H596 C585 0.930 . S
H597 C586 0.930 . S
H598 C587 0.930 . S
H599 C588 0.931 . S
Eu600 C609 2.828 . S
Eu600 O611 2.392 . S
Eu600 O613 2.418 1_455 S
Eu600 O618 2.373 . S
Eu600 O621 2.488 . S
Eu600 O622 2.471 . S
Eu600 O623 2.349 . S
Eu601 O610 2.373 . S
Eu601 O614 2.488 . S
Eu601 O615 2.471 . S
Eu601 O616 2.349 . S
Eu601 O619 2.392 1_655 S
Eu601 O620 2.418 1_655 S
Eu601 C630 2.828 . S
C602 O620 1.244 . S
C602 O623 1.265 . S
C603 C604 1.379 . S
C603 C607 1.373 . S
C603 C609 1.505 . S
C604 C603 1.379 . S
C604 C606 1.369 . S
C604 H632 0.930 . S
C605 C607 1.383 . S
C605 C608 1.382 . S
C605 H633 0.930 . S
C606 C604 1.369 . S
C606 C608 1.392 . S
C606 H634 0.930 . S
C607 C603 1.373 . S
C607 C605 1.383 . S
C607 H635 0.931 . S
C608 C605 1.382 . S
C608 C606 1.392 . S
C609 Eu600 2.828 . S
C609 C603 1.505 . S
C609 O621 1.249 . S
C609 O622 1.244 . S
O610 Eu601 2.373 . S
O610 C612 1.258 1_655 S
O611 Eu600 2.392 . S
O611 C612 1.242 . S
C612 O610 1.258 1_455 S
C612 O611 1.242 . S
O613 Eu600 2.418 1_655 S
O613 C617 1.244 . S
O614 Eu601 2.488 . S
O614 C630 1.249 . S
O615 Eu601 2.471 . S
O615 C630 1.244 . S
O616 Eu601 2.349 . S
O616 C617 1.265 . S
C617 O613 1.244 . S
C617 O616 1.265 . S
O618 Eu600 2.373 . S
O618 C631 1.258 . S
O619 Eu601 2.392 1_455 S
O619 C631 1.242 . S
O620 Eu601 2.418 1_455 S
O620 C602 1.244 . S
O621 Eu600 2.488 . S
O621 C609 1.249 . S
O622 Eu600 2.471 . S
O622 C609 1.244 . S
O623 Eu600 2.349 . S
O623 C602 1.265 . S
C624 C625 1.379 . S
C624 C628 1.373 . S
C624 C630 1.505 . S
C625 C624 1.379 . S
C625 C627 1.369 . S
C625 H636 0.930 . S
C626 C628 1.383 . S
C626 C629 1.382 . S
C626 H637 0.930 . S
C627 C625 1.369 . S
C627 C629 1.392 . S
C627 H638 0.930 . S
C628 C624 1.373 . S
C628 C626 1.383 . S
C628 H639 0.931 . S
C629 C626 1.382 . S
C629 C627 1.392 . S
C630 Eu601 2.828 . S
C630 O614 1.249 . S
C630 O615 1.244 . S
C630 C624 1.505 . S
C631 O618 1.258 . S
C631 O619 1.242 . S
H632 C604 0.930 . S
H633 C605 0.930 . S
H634 C606 0.930 . S
H635 C607 0.931 . S
H636 C625 0.930 . S
H637 C626 0.930 . S
H638 C627 0.930 . S
H639 C628 0.931 . S
C640 C641 1.349 . S
C640 C642 1.327 . S
C640 H665 0.950 . S
C641 C640 1.349 . S
C641 C657 1.349 . S
C642 C640 1.327 . S
C642 C661 1.429 . S
C642 H666 0.950 . S
C643 C660 1.574 . S
C643 C662 1.368 . S
C643 H667 0.949 . S
H644 C648 0.949 . S
C645 C646 1.349 . S
C645 C647 1.327 . S
C645 H668 0.950 . S
C646 C645 1.349 . S
C646 C658 1.349 . S
C647 C645 1.327 . S
C647 C663 1.429 . S
C647 H669 0.950 . S
C648 H644 0.949 . S
C648 C656 1.574 . S
C648 C664 1.368 . S
H649 C657 0.950 . S
H650 C655 0.950 . S
H651 C656 0.949 . S
H652 C658 0.943 1_565 S
H653 C659 0.950 . S
H654 C660 0.949 . S
C655 H650 0.950 . S
C655 C657 1.327 . S
C655 C661 1.429 . S
C656 C648 1.574 . S
C656 H651 0.949 . S
C656 C662 1.368 . S
C657 C641 1.349 . S
C657 H649 0.950 . S
C657 C655 1.327 . S
C658 C646 1.349 . S
C658 H652 0.943 1_545 S
C658 C659 1.327 . S
C659 H653 0.950 . S
C659 C658 1.327 . S
C659 C663 1.429 . S
C660 C643 1.574 . S
C660 H654 0.949 . S
C660 C664 1.368 . S
C661 C642 1.429 . S
C661 C655 1.429 . S
C661 C662 1.523 . S
C662 C643 1.368 . S
C662 C656 1.368 . S
C662 C661 1.523 . S
C663 C647 1.429 . S
C663 C659 1.429 . S
C663 C664 1.523 . S
C664 C648 1.368 . S
C664 C660 1.368 . S
C664 C663 1.523 . S
H665 C640 0.950 . S
H666 C642 0.950 . S
H667 C643 0.949 . S
H668 C645 0.950 . S
H669 C647 0.950 . S
C670 C671 1.349 . S
C670 C672 1.327 . S
C670 H695 0.950 . S
C671 C670 1.349 . S
C671 C687 1.349 . S
C672 C670 1.327 . S
C672 C691 1.429 . S
C672 H696 0.950 . S
C673 C690 1.574 . S
C673 C692 1.368 . S
C673 H697 0.949 . S
H674 C678 0.949 . S
C675 C676 1.349 . S
C675 C677 1.327 . S
C675 H698 0.950 . S
C676 C675 1.349 . S
C676 C688 1.349 . S
C677 C675 1.327 . S
C677 C693 1.429 . S
C677 H699 0.950 . S
C678 H674 0.949 . S
C678 C686 1.574 . S
C678 C694 1.368 . S
H679 C687 0.950 . S
H680 C685 0.950 . S
H681 C686 0.949 . S
H682 C688 0.950 . S
H683 C689 0.950 . S
H684 C690 0.949 . S
C685 H680 0.950 . S
C685 C687 1.327 . S
C685 C691 1.429 . S
C686 C678 1.574 . S
C686 H681 0.949 . S
C686 C692 1.368 . S
C687 C671 1.349 . S
C687 H679 0.950 . S
C687 C685 1.327 . S
C688 C676 1.349 . S
C688 H682 0.950 . S
C688 C689 1.327 . S
C689 H683 0.950 . S
C689 C688 1.327 . S
C689 C693 1.429 . S
C690 C673 1.574 . S
C690 H684 0.949 . S
C690 C694 1.368 . S
C691 C672 1.429 . S
C691 C685 1.429 . S
C691 C692 1.523 . S
C692 C673 1.368 . S
C692 C686 1.368 . S
C692 C691 1.523 . S
C693 C677 1.429 . S
C693 C689 1.429 . S
C693 C694 1.523 . S
C694 C678 1.368 . S
C694 C690 1.368 . S
C694 C693 1.523 . S
H695 C670 0.950 . S
H696 C672 0.950 . S
H697 C673 0.949 . S
H698 C675 0.950 . S
H699 C677 0.950 . S
C700 C701 1.349 . S
C700 C702 1.327 . S
C700 H725 0.950 . S
C701 C700 1.349 . S
C701 C717 1.349 . S
C702 C700 1.327 . S
C702 C721 1.429 . S
C702 H726 0.950 . S
C703 C720 1.574 . S
C703 C722 1.368 . S
C703 H727 0.949 . S
H704 C708 0.949 . S
C705 C706 1.349 . S
C705 C707 1.327 . S
C705 H728 0.950 . S
C706 C705 1.349 . S
C706 C718 1.349 . S
C707 C705 1.327 . S
C707 C723 1.429 . S
C707 H729 0.950 . S
C708 H704 0.949 . S
C708 C716 1.574 . S
C708 C724 1.368 . S
H709 C717 0.950 . S
H710 C715 0.950 . S
H711 C716 0.949 . S
H712 C718 0.950 . S
H713 C719 0.950 . S
H714 C720 0.949 . S
C715 H710 0.950 . S
C715 C717 1.327 . S
C715 C721 1.429 . S
C716 C708 1.574 . S
C716 H711 0.949 . S
C716 C722 1.368 . S
C717 C701 1.349 . S
C717 H709 0.950 . S
C717 C715 1.327 . S
C718 C706 1.349 . S
C718 H712 0.950 . S
C718 C719 1.327 . S
C719 H713 0.950 . S
C719 C718 1.327 . S
C719 C723 1.429 . S
C720 C703 1.574 . S
C720 H714 0.949 . S
C720 C724 1.368 . S
C721 C702 1.429 . S
C721 C715 1.429 . S
C721 C722 1.523 . S
C722 C703 1.368 . S
C722 C716 1.368 . S
C722 C721 1.523 . S
C723 C707 1.429 . S
C723 C719 1.429 . S
C723 C724 1.523 . S
C724 C708 1.368 . S
C724 C720 1.368 . S
C724 C723 1.523 . S
H725 C700 0.950 . S
H726 C702 0.950 . S
H727 C703 0.949 . S
H728 C705 0.950 . S
H729 C707 0.950 . S
C730 C731 1.349 . S
C730 C732 1.327 . S
C730 H755 0.950 . S
C731 C730 1.349 . S
C731 C747 1.349 . S
C732 C730 1.327 . S
C732 C751 1.429 . S
C732 H756 0.950 . S
C733 C750 1.574 . S
C733 C752 1.368 . S
C733 H757 0.949 . S
H734 C738 0.949 . S
C735 C736 1.349 . S
C735 C737 1.327 . S
C735 H758 0.950 . S
C736 C735 1.349 . S
C736 C748 1.349 . S
C737 C735 1.327 . S
C737 C753 1.429 . S
C737 H759 0.950 . S
C738 H734 0.949 . S
C738 C746 1.574 . S
C738 C754 1.368 . S
H739 C747 0.950 . S
H740 C745 0.950 . S
H741 C746 0.949 . S
H742 C748 0.950 . S
H743 C749 0.950 . S
H744 C750 0.949 . S
C745 H740 0.950 . S
C745 C747 1.327 . S
C745 C751 1.429 . S
C746 C738 1.574 . S
C746 H741 0.949 . S
C746 C752 1.368 . S
C747 C731 1.349 . S
C747 H739 0.950 . S
C747 C745 1.327 . S
C748 C736 1.349 . S
C748 H742 0.950 . S
C748 C749 1.327 . S
C749 H743 0.950 . S
C749 C748 1.327 . S
C749 C753 1.429 . S
C750 C733 1.574 . S
C750 H744 0.949 . S
C750 C754 1.368 . S
C751 C732 1.429 . S
C751 C745 1.429 . S
C751 C752 1.523 . S
C752 C733 1.368 . S
C752 C746 1.368 . S
C752 C751 1.523 . S
C753 C737 1.429 . S
C753 C749 1.429 . S
C753 C754 1.523 . S
C754 C738 1.368 . S
C754 C750 1.368 . S
C754 C753 1.523 . S
H755 C730 0.950 . S
H756 C732 0.950 . S
H757 C733 0.949 . S
H758 C735 0.950 . S
H759 C737 0.950 . S
C760 C761 1.349 . S
C760 C762 1.327 . S
C760 H785 0.950 . S
C761 C760 1.349 . S
C761 C777 1.349 . S
C762 C760 1.327 . S
C762 C781 1.429 . S
C762 H786 0.950 1_554 S
C763 C780 1.574 . S
C763 C782 1.368 . S
C763 H787 0.949 1_556 S
H764 C768 0.949 . S
C765 C766 1.349 . S
C765 C767 1.327 . S
C765 H788 0.950 1_565 S
C766 C765 1.349 . S
C766 C778 1.349 . S
C767 C765 1.327 . S
C767 C783 1.429 . S
C767 H789 0.955 . S
C768 H764 0.949 . S
C768 C776 1.574 . S
C768 C784 1.368 . S
H769 C777 0.950 . S
H770 C775 0.950 . S
H771 C776 0.949 . S
H772 C778 0.950 . S
H773 C779 0.950 . S
H774 C780 0.949 . S
C775 H770 0.950 . S
C775 C777 1.327 . S
C775 C781 1.429 . S
C776 C768 1.574 . S
C776 H771 0.949 . S
C776 C782 1.368 . S
C777 C761 1.349 . S
C777 H769 0.950 . S
C777 C775 1.327 . S
C778 C766 1.349 . S
C778 H772 0.950 . S
C778 C779 1.327 . S
C779 H773 0.950 . S
C779 C778 1.327 . S
C779 C783 1.429 . S
C780 C763 1.574 . S
C780 H774 0.949 . S
C780 C784 1.368 . S
C781 C762 1.429 . S
C781 C775 1.429 . S
C781 C782 1.523 1_554 S
C782 C763 1.368 . S
C782 C776 1.368 . S
C782 C781 1.523 1_556 S
C783 C767 1.429 . S
C783 C779 1.429 . S
C783 C784 1.523 . S
C784 C768 1.368 . S
C784 C780 1.368 . S
C784 C783 1.523 . S
H785 C760 0.950 . S
H786 C762 0.950 1_556 S
H787 C763 0.949 1_554 S
H788 C765 0.950 1_545 S
H789 C767 0.955 . S
C790 C791 1.349 . S
C790 C792 1.327 1_554 S
C790 H815 0.950 . S
C791 C790 1.349 . S
C791 C807 1.349 . S
C792 C790 1.327 1_556 S
C792 C811 1.429 . S
C792 H816 0.950 . S
C793 C810 1.574 . S
C793 C812 1.368 . S
C793 H817 0.949 . S
H794 C798 0.949 . S
C795 C796 1.349 . S
C795 C797 1.327 . S
C795 H818 0.950 . S
C796 C795 1.349 . S
C796 C808 1.349 . S
C797 C795 1.327 . S
C797 C813 1.429 . S
C797 H819 0.950 . S
C798 H794 0.949 . S
C798 C806 1.574 . S
C798 C814 1.368 . S
H799 C807 0.950 . S
H800 C805 0.950 . S
H801 C806 0.949 . S
H802 C808 0.950 . S
H803 C809 0.950 . S
H804 C810 0.949 . S
C805 H800 0.950 . S
C805 C807 1.327 . S
C805 C811 1.429 1_554 S
C806 C798 1.574 . S
C806 H801 0.949 . S
C806 C812 1.368 . S
C807 C791 1.349 . S
C807 H799 0.950 . S
C807 C805 1.327 . S
C808 C796 1.349 . S
C808 H802 0.950 . S
C808 C809 1.327 . S
C809 H803 0.950 . S
C809 C808 1.327 . S
C809 C813 1.429 . S
C810 C793 1.574 . S
C810 H804 0.949 . S
C810 C814 1.368 . S
C811 C792 1.429 . S
C811 C805 1.429 1_556 S
C811 C812 1.523 . S
C812 C793 1.368 . S
C812 C806 1.368 . S
C812 C811 1.523 . S
C813 C797 1.429 . S
C813 C809 1.429 . S
C813 C814 1.523 . S
C814 C798 1.368 . S
C814 C810 1.368 . S
C814 C813 1.523 . S
H815 C790 0.950 . S
H816 C792 0.950 . S
H817 C793 0.949 . S
H818 C795 0.950 . S
H819 C797 0.950 . S
C820 C821 1.349 . S
C820 C822 1.327 . S
C820 H845 0.950 . S
C821 C820 1.349 . S
C821 C837 1.349 . S
C822 C820 1.327 . S
C822 C841 1.429 1_554 S
C822 H846 0.950 . S
C823 C840 1.574 . S
C823 C842 1.368 . S
C823 H847 0.949 . S
H824 C828 0.949 . S
C825 C826 1.349 . S
C825 C827 1.327 . S
C825 H848 0.950 . S
C826 C825 1.349 . S
C826 C838 1.349 . S
C827 C825 1.327 . S
C827 C843 1.429 . S
C827 H849 0.950 . S
C828 H824 0.949 . S
C828 C836 1.574 . S
C828 C844 1.368 . S
H829 C837 0.950 . S
H830 C835 0.950 . S
H831 C836 0.949 . S
H832 C838 0.950 . S
H833 C839 0.950 . S
H834 C840 0.949 . S
C835 H830 0.950 . S
C835 C837 1.327 1_556 S
C835 C841 1.429 . S
C836 C828 1.574 . S
C836 H831 0.949 . S
C836 C842 1.368 . S
C837 C821 1.349 . S
C837 H829 0.950 . S
C837 C835 1.327 1_554 S
C838 C826 1.349 . S
C838 H832 0.950 . S
C838 C839 1.327 . S
C839 H833 0.950 . S
C839 C838 1.327 . S
C839 C843 1.429 . S
C840 C823 1.574 . S
C840 H834 0.949 . S
C840 C844 1.368 . S
C841 C822 1.429 1_556 S
C841 C835 1.429 . S
C841 C842 1.523 . S
C842 C823 1.368 . S
C842 C836 1.368 . S
C842 C841 1.523 . S
C843 C827 1.429 . S
C843 C839 1.429 . S
C843 C844 1.523 . S
C844 C828 1.368 . S
C844 C840 1.368 . S
C844 C843 1.523 . S
H845 C820 0.950 . S
H846 C822 0.950 . S
H847 C823 0.949 . S
H848 C825 0.950 . S
H849 C827 0.950 . S
C850 C851 1.349 . S
C850 C852 1.327 . S
C850 H875 0.950 . S
C851 C850 1.349 . S
C851 C867 1.349 . S
C852 C850 1.327 . S
C852 C871 1.429 . S
C852 H876 0.950 1_554 S
C853 C870 1.574 . S
C853 C872 1.368 . S
C853 H877 0.949 . S
H854 C858 0.949 . S
C855 C856 1.349 1_455 S
C855 C857 1.327 . S
C855 H878 0.950 . S
C856 C855 1.349 1_655 S
C856 C868 1.349 . S
C857 C855 1.327 . S
C857 C873 1.429 1_455 S
C857 H879 0.950 . S
C858 H854 0.949 . S
C858 C866 1.574 . S
C858 C874 1.368 . S
H859 C867 0.950 . S
H860 C865 0.950 . S
H861 C866 0.949 . S
H862 C868 0.950 . S
H863 C869 0.950 . S
H864 C870 0.949 1_455 S
C865 H860 0.950 . S
C865 C867 1.327 . S
C865 C871 1.429 . S
C866 C858 1.574 . S
C866 H861 0.949 . S
C866 C872 1.368 . S
C867 C851 1.349 . S
C867 H859 0.950 . S
C867 C865 1.327 . S
C868 C856 1.349 . S
C868 H862 0.950 . S
C868 C869 1.327 . S
C869 H863 0.950 . S
C869 C868 1.327 . S
C869 C873 1.429 . S
C870 C853 1.574 . S
C870 H864 0.949 1_655 S
C870 C874 1.368 . S
C871 C852 1.429 . S
C871 C865 1.429 . S
C871 C872 1.523 1_554 S
C872 C853 1.368 . S
C872 C866 1.368 . S
C872 C871 1.523 1_556 S
C873 C857 1.429 1_655 S
C873 C869 1.429 . S
C873 C874 1.523 . S
C874 C858 1.368 . S
C874 C870 1.368 . S
C874 C873 1.523 . S
H875 C850 0.950 . S
H876 C852 0.950 1_556 S
H877 C853 0.949 . S
H878 C855 0.950 . S
H879 C857 0.950 . S
C880 C881 1.349 . S
C880 C882 1.327 . S
C880 H905 0.950 . S
C881 C880 1.349 . S
C881 C897 1.349 . S
C882 C880 1.327 . S
C882 C901 1.429 . S
C882 H906 0.950 . S
C883 C900 1.574 . S
C883 C902 1.368 . S
C883 H907 0.949 . S
H884 C888 0.949 . S
C885 C886 1.349 1_455 S
C885 C887 1.327 . S
C885 H908 0.950 . S
C886 C885 1.349 1_655 S
C886 C898 1.349 . S
C887 C885 1.327 . S
C887 C903 1.429 . S
C887 H909 0.950 . S
C888 H884 0.949 . S
C888 C896 1.574 . S
C888 C904 1.368 . S
H889 C897 0.950 . S
H890 C895 0.950 . S
H891 C896 0.949 . S
H892 C898 0.950 . S
H893 C899 0.953 . S
H894 C900 0.949 . S
C895 H890 0.950 . S
C895 C897 1.327 . S
C895 C901 1.429 . S
C896 C888 1.574 . S
C896 H891 0.949 . S
C896 C902 1.368 . S
C897 C881 1.349 . S
C897 H889 0.950 . S
C897 C895 1.327 . S
C898 C886 1.349 . S
C898 H892 0.950 . S
C898 C899 1.330 . S
C899 H893 0.953 . S
C899 C898 1.330 . S
C899 C903 1.422 1_655 S
C900 C883 1.574 . S
C900 H894 0.949 . S
C900 C904 1.368 . S
C901 C882 1.429 . S
C901 C895 1.429 . S
C901 C902 1.523 . S
C902 C883 1.368 . S
C902 C896 1.368 . S
C902 C901 1.523 . S
C903 C887 1.429 . S
C903 C899 1.422 1_455 S
C903 C904 1.523 . S
C904 C888 1.368 . S
C904 C900 1.368 . S
C904 C903 1.523 . S
H905 C880 0.950 . S
H906 C882 0.950 . S
H907 C883 0.949 . S
H908 C885 0.950 . S
H909 C887 0.950 . S
C910 C911 1.349 . S
C910 C912 1.327 . S
C910 H935 0.950 . S
C911 C910 1.349 . S
C911 C927 1.349 . S
C912 C910 1.327 . S
C912 C931 1.429 . S
C912 H936 0.950 . S
C913 C930 1.574 . S
C913 C932 1.368 . S
C913 H937 0.949 . S
H914 C918 0.949 . S
C915 C916 1.349 . S
C915 C917 1.327 . S
C915 H938 0.950 . S
C916 C915 1.349 . S
C916 C928 1.349 . S
C917 C915 1.327 . S
C917 C933 1.429 . S
C917 H939 0.950 . S
C918 H914 0.949 . S
C918 C926 1.574 . S
C918 C934 1.368 . S
H919 C927 0.950 . S
H920 C925 0.950 . S
H921 C926 0.949 . S
H922 C928 0.950 1_565 S
H923 C929 0.950 . S
H924 C930 0.949 . S
C925 H920 0.950 . S
C925 C927 1.327 . S
C925 C931 1.429 . S
C926 C918 1.574 . S
C926 H921 0.949 . S
C926 C932 1.368 . S
C927 C911 1.349 . S
C927 H919 0.950 . S
C927 C925 1.327 . S
C928 C916 1.349 . S
C928 H922 0.950 1_545 S
C928 C929 1.327 . S
C929 H923 0.950 . S
C929 C928 1.327 . S
C929 C933 1.429 . S
C930 C913 1.574 . S
C930 H924 0.949 . S
C930 C934 1.368 . S
C931 C912 1.429 . S
C931 C925 1.429 . S
C931 C932 1.523 . S
C932 C913 1.368 . S
C932 C926 1.368 . S
C932 C931 1.523 . S
C933 C917 1.429 . S
C933 C929 1.429 . S
C933 C934 1.523 . S
C934 C918 1.368 . S
C934 C930 1.368 . S
C934 C933 1.523 . S
H935 C910 0.950 . S
H936 C912 0.950 . S
H937 C913 0.949 . S
H938 C915 0.950 . S
H939 C917 0.950 . S
C940 C941 1.349 . S
C940 C942 1.327 . S
C940 H965 0.950 . S
C941 C940 1.349 . S
C941 C957 1.349 . S
C942 C940 1.327 . S
C942 C961 1.429 . S
C942 H966 0.950 . S
C943 C960 1.574 . S
C943 C962 1.368 . S
C943 H967 0.949 . S
H944 C948 0.949 . S
C945 C946 1.349 . S
C945 C947 1.327 . S
C945 H968 0.950 . S
C946 C945 1.349 . S
C946 C958 1.349 . S
C947 C945 1.327 . S
C947 C963 1.429 . S
C947 H969 0.950 . S
C948 H944 0.949 . S
C948 C956 1.574 . S
C948 C964 1.368 . S
H949 C957 0.950 . S
H950 C955 0.950 . S
H951 C956 0.949 . S
H952 C958 0.950 . S
H953 C959 0.950 . S
H954 C960 0.949 . S
C955 H950 0.950 . S
C955 C957 1.327 . S
C955 C961 1.429 . S
C956 C948 1.574 . S
C956 H951 0.949 . S
C956 C962 1.368 . S
C957 C941 1.349 . S
C957 H949 0.950 . S
C957 C955 1.327 . S
C958 C946 1.349 . S
C958 H952 0.950 . S
C958 C959 1.327 . S
C959 H953 0.950 . S
C959 C958 1.327 . S
C959 C963 1.429 . S
C960 C943 1.574 . S
C960 H954 0.949 . S
C960 C964 1.368 . S
C961 C942 1.429 . S
C961 C955 1.429 . S
C961 C962 1.523 . S
C962 C943 1.368 . S
C962 C956 1.368 . S
C962 C961 1.523 . S
C963 C947 1.429 . S
C963 C959 1.429 . S
C963 C964 1.523 . S
C964 C948 1.368 . S
C964 C960 1.368 . S
C964 C963 1.523 . S
H965 C940 0.950 . S
H966 C942 0.950 . S
H967 C943 0.949 . S
H968 C945 0.950 . S
H969 C947 0.950 . S
C970 C971 1.349 . S
C970 C972 1.327 . S
C970 H995 0.950 . S
C971 C970 1.349 . S
C971 C987 1.349 . S
C972 C970 1.327 . S
C972 C991 1.429 . S
C972 H996 0.950 . S
C973 C990 1.574 . S
C973 C992 1.368 . S
C973 H997 0.949 . S
H974 C978 0.949 . S
C975 C976 1.349 . S
C975 C977 1.327 . S
C975 H998 0.950 . S
C976 C975 1.349 . S
C976 C988 1.349 . S
C977 C975 1.327 . S
C977 C993 1.429 . S
C977 H999 0.950 . S
C978 H974 0.949 . S
C978 C986 1.574 . S
C978 C994 1.368 . S
H979 C987 0.950 . S
H980 C985 0.950 . S
H981 C986 0.949 . S
H982 C988 0.950 . S
H983 C989 0.950 . S
H984 C990 0.949 . S
C985 H980 0.950 . S
C985 C987 1.327 . S
C985 C991 1.429 . S
C986 C978 1.574 . S
C986 H981 0.949 . S
C986 C992 1.368 . S
C987 C971 1.349 . S
C987 H979 0.950 . S
C987 C985 1.327 . S
C988 C976 1.349 . S
C988 H982 0.950 . S
C988 C989 1.327 . S
C989 H983 0.950 . S
C989 C988 1.327 . S
C989 C993 1.429 . S
C990 C973 1.574 . S
C990 H984 0.949 . S
C990 C994 1.368 . S
C991 C972 1.429 . S
C991 C985 1.429 . S
C991 C992 1.523 . S
C992 C973 1.368 . S
C992 C986 1.368 . S
C992 C991 1.523 . S
C993 C977 1.429 . S
C993 C989 1.429 . S
C993 C994 1.523 . S
C994 C978 1.368 . S
C994 C990 1.368 . S
C994 C993 1.523 . S
H995 C970 0.950 . S
H996 C972 0.950 . S
H997 C973 0.949 . S
H998 C975 0.950 . S
H999 C977 0.950 . S
C1000 C1001 1.349 . S
C1000 C1002 1.327 . S
C1000 H1025 0.950 . S
C1001 C1000 1.349 . S
C1001 C1017 1.349 . S
C1002 C1000 1.327 . S
C1002 C1021 1.429 1_554 S
C1002 H1026 0.950 . S
C1003 C1020 1.574 . S
C1003 C1022 1.368 . S
C1003 H1027 0.949 . S
H1004 C1008 0.949 . S
C1005 C1006 1.349 1_655 S
C1005 C1007 1.327 . S
C1005 H1028 0.950 . S
C1006 C1005 1.349 1_455 S
C1006 C1018 1.349 . S
C1007 C1005 1.327 . S
C1007 C1023 1.437 . S
C1007 H1029 0.950 . S
C1008 H1004 0.949 . S
C1008 C1016 1.574 1_455 S
C1008 C1024 1.368 1_455 S
H1009 C1017 0.950 . S
H1010 C1015 0.950 . S
H1011 C1016 0.949 1_454 S
H1012 C1018 0.950 . S
H1013 C1019 0.950 . S
H1014 C1020 0.949 . S
C1015 H1010 0.950 . S
C1015 C1017 1.327 1_556 S
C1015 C1021 1.429 . S
C1016 C1008 1.574 1_655 S
C1016 H1011 0.949 1_656 S
C1016 C1022 1.368 . S
C1017 C1001 1.349 . S
C1017 H1009 0.950 . S
C1017 C1015 1.327 1_554 S
C1018 C1006 1.349 . S
C1018 H1012 0.950 . S
C1018 C1019 1.327 . S
C1019 H1013 0.950 . S
C1019 C1018 1.327 . S
C1019 C1023 1.413 1_455 S
C1020 C1003 1.574 . S
C1020 H1014 0.949 . S
C1020 C1024 1.368 . S
C1021 C1002 1.429 1_556 S
C1021 C1015 1.429 . S
C1021 C1022 1.523 . S
C1022 C1003 1.368 . S
C1022 C1016 1.368 . S
C1022 C1021 1.523 . S
C1023 C1007 1.437 . S
C1023 C1019 1.413 1_655 S
C1023 C1024 1.529 . S
C1024 C1008 1.368 1_655 S
C1024 C1020 1.368 . S
C1024 C1023 1.529 . S
H1025 C1000 0.950 . S
H1026 C1002 0.950 . S
H1027 C1003 0.949 . S
H1028 C1005 0.950 . S
H1029 C1007 0.950 . S
C1030 C1031 1.349 . S
C1030 C1032 1.327 . S
C1030 H1055 0.950 . S
C1031 C1030 1.349 . S
C1031 C1047 1.349 . S
C1032 C1030 1.327 . S
C1032 C1051 1.429 1_554 S
C1032 H1056 0.950 1_554 S
C1033 C1050 1.574 . S
C1033 C1052 1.368 . S
C1033 H1057 0.949 . S
H1034 C1038 0.949 1_545 S
C1035 C1036 1.349 1_565 S
C1035 C1037 1.327 . S
C1035 H1058 0.950 . S
C1036 C1035 1.349 1_545 S
C1036 C1048 1.349 . S
C1037 C1035 1.327 . S
C1037 C1053 1.429 . S
C1037 H1059 0.950 . S
C1038 H1034 0.949 1_565 S
C1038 C1046 1.574 . S
C1038 C1054 1.368 . S
H1039 C1047 0.950 . S
H1040 C1045 0.950 . S
H1041 C1046 0.949 . S
H1042 C1048 0.950 . S
H1043 C1049 0.950 . S
H1044 C1050 0.949 . S
C1045 H1040 0.950 . S
C1045 C1047 1.327 . S
C1045 C1051 1.429 1_554 S
C1046 C1038 1.574 . S
C1046 H1041 0.949 . S
C1046 C1052 1.368 . S
C1047 C1031 1.349 . S
C1047 H1039 0.950 . S
C1047 C1045 1.327 . S
C1048 C1036 1.349 . S
C1048 H1042 0.950 . S
C1048 C1049 1.327 . S
C1049 H1043 0.950 . S
C1049 C1048 1.327 . S
C1049 C1053 1.429 1_545 S
C1050 C1033 1.574 . S
C1050 H1044 0.949 . S
C1050 C1054 1.368 . S
C1051 C1032 1.429 1_556 S
C1051 C1045 1.429 1_556 S
C1051 C1052 1.523 . S
C1052 C1033 1.368 . S
C1052 C1046 1.368 . S
C1052 C1051 1.523 . S
C1053 C1037 1.429 . S
C1053 C1049 1.429 1_565 S
C1053 C1054 1.523 . S
C1054 C1038 1.368 . S
C1054 C1050 1.368 . S
C1054 C1053 1.523 . S
H1055 C1030 0.950 . S
H1056 C1032 0.950 1_556 S
H1057 C1033 0.949 . S
H1058 C1035 0.950 . S
H1059 C1037 0.950 . S
C1060 C1061 1.349 1_556 S
C1060 C1062 1.327 . S
C1060 H1085 0.950 . S
C1061 C1060 1.349 1_554 S
C1061 C1077 1.349 . S
C1062 C1060 1.327 . S
C1062 C1081 1.429 . S
C1062 H1086 0.950 . S
C1063 C1080 1.574 . S
C1063 C1082 1.368 . S
C1063 H1087 0.949 . S
H1064 C1068 0.949 . S
C1065 C1066 1.349 . S
C1065 C1067 1.327 . S
C1065 H1088 0.950 . S
C1066 C1065 1.349 . S
C1066 C1078 1.349 . S
C1067 C1065 1.327 . S
C1067 C1083 1.429 . S
C1067 H1089 0.950 . S
C1068 H1064 0.949 . S
C1068 C1076 1.574 . S
C1068 C1084 1.368 . S
H1069 C1077 0.950 . S
H1070 C1075 0.950 . S
H1071 C1076 0.949 . S
H1072 C1078 0.950 . S
H1073 C1079 0.950 . S
H1074 C1080 0.949 . S
C1075 H1070 0.950 . S
C1075 C1077 1.327 1_556 S
C1075 C1081 1.429 . S
C1076 C1068 1.574 . S
C1076 H1071 0.949 . S
C1076 C1082 1.368 . S
C1077 C1061 1.349 . S
C1077 H1069 0.950 . S
C1077 C1075 1.327 1_554 S
C1078 C1066 1.349 . S
C1078 H1072 0.950 . S
C1078 C1079 1.327 . S
C1079 H1073 0.950 . S
C1079 C1078 1.327 . S
C1079 C1083 1.429 . S
C1080 C1063 1.574 . S
C1080 H1074 0.949 . S
C1080 C1084 1.368 . S
C1081 C1062 1.429 . S
C1081 C1075 1.429 . S
C1081 C1082 1.523 . S
C1082 C1063 1.368 . S
C1082 C1076 1.368 . S
C1082 C1081 1.523 . S
C1083 C1067 1.429 . S
C1083 C1079 1.429 . S
C1083 C1084 1.523 . S
C1084 C1068 1.368 . S
C1084 C1080 1.368 . S
C1084 C1083 1.523 . S
H1085 C1060 0.950 . S
H1086 C1062 0.950 . S
H1087 C1063 0.949 . S
H1088 C1065 0.950 . S
H1089 C1067 0.950 . S
C1090 C1091 1.349 . S
C1090 C1092 1.327 . S
C1090 H1115 0.950 . S
C1091 C1090 1.349 . S
C1091 C1107 1.349 1_556 S
C1092 C1090 1.327 . S
C1092 C1111 1.429 . S
C1092 H1116 0.950 . S
C1093 C1110 1.574 . S
C1093 C1112 1.368 . S
C1093 H1117 0.949 . S
H1094 C1098 0.949 . S
C1095 C1096 1.349 . S
C1095 C1097 1.327 . S
C1095 H1118 0.950 . S
C1096 C1095 1.349 . S
C1096 C1108 1.349 . S
C1097 C1095 1.327 . S
C1097 C1113 1.429 . S
C1097 H1119 0.950 . S
C1098 H1094 0.949 . S
C1098 C1106 1.574 . S
C1098 C1114 1.368 . S
H1099 C1107 0.950 . S
H1100 C1105 0.950 . S
H1101 C1106 0.949 . S
H1102 C1108 0.950 . S
H1103 C1109 0.950 . S
H1104 C1110 0.949 . S
C1105 H1100 0.950 . S
C1105 C1107 1.327 1_556 S
C1105 C1111 1.429 . S
C1106 C1098 1.574 . S
C1106 H1101 0.949 . S
C1106 C1112 1.368 . S
C1107 C1091 1.349 1_554 S
C1107 H1099 0.950 . S
C1107 C1105 1.327 1_554 S
C1108 C1096 1.349 . S
C1108 H1102 0.950 . S
C1108 C1109 1.327 . S
C1109 H1103 0.950 . S
C1109 C1108 1.327 . S
C1109 C1113 1.429 . S
C1110 C1093 1.574 . S
C1110 H1104 0.949 . S
C1110 C1114 1.368 . S
C1111 C1092 1.429 . S
C1111 C1105 1.429 . S
C1111 C1112 1.523 . S
C1112 C1093 1.368 . S
C1112 C1106 1.368 . S
C1112 C1111 1.523 . S
C1113 C1097 1.429 . S
C1113 C1109 1.429 . S
C1113 C1114 1.523 . S
C1114 C1098 1.368 . S
C1114 C1110 1.368 . S
C1114 C1113 1.523 . S
H1115 C1090 0.950 . S
H1116 C1092 0.950 . S
H1117 C1093 0.949 . S
H1118 C1095 0.950 . S
H1119 C1097 0.950 . S
C1120 C1121 1.349 . S
C1120 C1122 1.327 . S
C1120 H1145 0.950 . S
C1121 C1120 1.349 . S
C1121 C1137 1.349 . S
C1122 C1120 1.327 . S
C1122 C1141 1.429 . S
C1122 H1146 0.950 . S
C1123 C1140 1.574 . S
C1123 C1142 1.368 . S
C1123 H1147 0.949 . S
H1124 C1128 0.949 . S
C1125 C1126 1.349 . S
C1125 C1127 1.327 . S
C1125 H1148 0.950 . S
C1126 C1125 1.349 . S
C1126 C1138 1.349 . S
C1127 C1125 1.327 . S
C1127 C1143 1.429 . S
C1127 H1149 0.950 . S
C1128 H1124 0.949 . S
C1128 C1136 1.574 . S
C1128 C1144 1.368 . S
H1129 C1137 0.950 . S
H1130 C1135 0.950 . S
H1131 C1136 0.949 . S
H1132 C1138 0.950 . S
H1133 C1139 0.950 . S
H1134 C1140 0.949 . S
C1135 H1130 0.950 . S
C1135 C1137 1.327 . S
C1135 C1141 1.429 . S
C1136 C1128 1.574 . S
C1136 H1131 0.949 . S
C1136 C1142 1.368 . S
C1137 C1121 1.349 . S
C1137 H1129 0.950 . S
C1137 C1135 1.327 . S
C1138 C1126 1.349 . S
C1138 H1132 0.950 . S
C1138 C1139 1.327 . S
C1139 H1133 0.950 . S
C1139 C1138 1.327 . S
C1139 C1143 1.429 . S
C1140 C1123 1.574 . S
C1140 H1134 0.949 . S
C1140 C1144 1.368 . S
C1141 C1122 1.429 . S
C1141 C1135 1.429 . S
C1141 C1142 1.523 . S
C1142 C1123 1.368 . S
C1142 C1136 1.368 . S
C1142 C1141 1.523 . S
C1143 C1127 1.429 . S
C1143 C1139 1.429 . S
C1143 C1144 1.523 . S
C1144 C1128 1.368 . S
C1144 C1140 1.368 . S
C1144 C1143 1.523 . S
H1145 C1120 0.950 . S
H1146 C1122 0.950 . S
H1147 C1123 0.949 . S
H1148 C1125 0.950 . S
H1149 C1127 0.950 . S
C1150 C1151 1.349 . S
C1150 C1152 1.327 . S
C1150 H1175 0.950 . S
C1151 C1150 1.349 . S
C1151 C1167 1.349 . S
C1152 C1150 1.327 . S
C1152 C1171 1.429 . S
C1152 H1176 0.950 . S
C1153 C1170 1.574 . S
C1153 C1172 1.368 . S
C1153 H1177 0.949 . S
H1154 C1158 0.949 . S
C1155 C1156 1.349 . S
C1155 C1157 1.327 . S
C1155 H1178 0.950 . S
C1156 C1155 1.349 . S
C1156 C1168 1.349 . S
C1157 C1155 1.327 . S
C1157 C1173 1.429 . S
C1157 H1179 0.950 . S
C1158 H1154 0.949 . S
C1158 C1166 1.574 . S
C1158 C1174 1.368 . S
H1159 C1167 0.950 . S
H1160 C1165 0.950 . S
H1161 C1166 0.949 . S
H1162 C1168 0.950 . S
H1163 C1169 0.950 . S
H1164 C1170 0.949 . S
C1165 H1160 0.950 . S
C1165 C1167 1.327 . S
C1165 C1171 1.429 . S
C1166 C1158 1.574 . S
C1166 H1161 0.949 . S
C1166 C1172 1.368 . S
C1167 C1151 1.349 . S
C1167 H1159 0.950 . S
C1167 C1165 1.327 . S
C1168 C1156 1.349 . S
C1168 H1162 0.950 . S
C1168 C1169 1.327 . S
C1169 H1163 0.950 . S
C1169 C1168 1.327 . S
C1169 C1173 1.429 . S
C1170 C1153 1.574 . S
C1170 H1164 0.949 . S
C1170 C1174 1.368 . S
C1171 C1152 1.429 . S
C1171 C1165 1.429 . S
C1171 C1172 1.523 . S
C1172 C1153 1.368 . S
C1172 C1166 1.368 . S
C1172 C1171 1.523 . S
C1173 C1157 1.429 . S
C1173 C1169 1.429 . S
C1173 C1174 1.523 . S
C1174 C1158 1.368 . S
C1174 C1170 1.368 . S
C1174 C1173 1.523 . S
H1175 C1150 0.950 . S
H1176 C1152 0.950 . S
H1177 C1153 0.949 . S
H1178 C1155 0.950 . S
H1179 C1157 0.950 . S
C1180 C1181 1.349 . S
C1180 C1182 1.327 . S
C1180 H1205 0.950 . S
C1181 C1180 1.349 . S
C1181 C1197 1.349 . S
C1182 C1180 1.327 . S
C1182 C1201 1.429 . S
C1182 H1206 0.950 . S
C1183 C1200 1.574 . S
C1183 C1202 1.368 . S
C1183 H1207 0.949 . S
H1184 C1188 0.949 . S
C1185 C1186 1.349 . S
C1185 C1187 1.327 . S
C1185 H1208 0.950 . S
C1186 C1185 1.349 . S
C1186 C1198 1.349 . S
C1187 C1185 1.327 . S
C1187 C1203 1.429 . S
C1187 H1209 0.950 . S
C1188 H1184 0.949 . S
C1188 C1196 1.574 . S
C1188 C1204 1.368 . S
H1189 C1197 0.950 . S
H1190 C1195 0.950 . S
H1191 C1196 0.949 . S
H1192 C1198 0.950 . S
H1193 C1199 0.950 . S
H1194 C1200 0.949 . S
C1195 H1190 0.950 . S
C1195 C1197 1.327 . S
C1195 C1201 1.429 . S
C1196 C1188 1.574 . S
C1196 H1191 0.949 . S
C1196 C1202 1.368 . S
C1197 C1181 1.349 . S
C1197 H1189 0.950 . S
C1197 C1195 1.327 . S
C1198 C1186 1.349 . S
C1198 H1192 0.950 . S
C1198 C1199 1.327 . S
C1199 H1193 0.950 . S
C1199 C1198 1.327 . S
C1199 C1203 1.429 . S
C1200 C1183 1.574 . S
C1200 H1194 0.949 . S
C1200 C1204 1.368 . S
C1201 C1182 1.429 . S
C1201 C1195 1.429 . S
C1201 C1202 1.523 . S
C1202 C1183 1.368 . S
C1202 C1196 1.368 . S
C1202 C1201 1.523 . S
C1203 C1187 1.429 . S
C1203 C1199 1.429 . S
C1203 C1204 1.523 . S
C1204 C1188 1.368 . S
C1204 C1200 1.368 . S
C1204 C1203 1.523 . S
H1205 C1180 0.950 . S
H1206 C1182 0.950 . S
H1207 C1183 0.949 . S
H1208 C1185 0.950 . S
H1209 C1187 0.950 . S
C1210 C1211 1.349 . S
C1210 C1212 1.327 . S
C1210 H1235 0.950 . S
C1211 C1210 1.349 . S
C1211 C1227 1.349 . S
C1212 C1210 1.327 . S
C1212 C1231 1.429 . S
C1212 H1236 0.950 . S
C1213 C1230 1.574 . S
C1213 C1232 1.368 . S
C1213 H1237 0.949 . S
H1214 C1218 0.949 . S
C1215 C1216 1.349 . S
C1215 C1217 1.327 . S
C1215 H1238 0.950 . S
C1216 C1215 1.349 . S
C1216 C1228 1.349 . S
C1217 C1215 1.327 . S
C1217 C1233 1.429 . S
C1217 H1239 0.950 . S
C1218 H1214 0.949 . S
C1218 C1226 1.574 . S
C1218 C1234 1.368 . S
H1219 C1227 0.950 . S
H1220 C1225 0.950 . S
H1221 C1226 0.949 . S
H1222 C1228 0.950 . S
H1223 C1229 0.950 . S
H1224 C1230 0.949 . S
C1225 H1220 0.950 . S
C1225 C1227 1.327 . S
C1225 C1231 1.429 . S
C1226 C1218 1.574 . S
C1226 H1221 0.949 . S
C1226 C1232 1.368 . S
C1227 C1211 1.349 . S
C1227 H1219 0.950 . S
C1227 C1225 1.327 . S
C1228 C1216 1.349 . S
C1228 H1222 0.950 . S
C1228 C1229 1.327 . S
C1229 H1223 0.950 . S
C1229 C1228 1.327 . S
C1229 C1233 1.429 . S
C1230 C1213 1.574 . S
C1230 H1224 0.949 . S
C1230 C1234 1.368 . S
C1231 C1212 1.429 . S
C1231 C1225 1.429 . S
C1231 C1232 1.523 . S
C1232 C1213 1.368 . S
C1232 C1226 1.368 . S
C1232 C1231 1.523 . S
C1233 C1217 1.429 . S
C1233 C1229 1.429 . S
C1233 C1234 1.523 . S
C1234 C1218 1.368 . S
C1234 C1230 1.368 . S
C1234 C1233 1.523 . S
H1235 C1210 0.950 . S
H1236 C1212 0.950 . S
H1237 C1213 0.949 . S
H1238 C1215 0.950 . S
H1239 C1217 0.950 . S
C1240 C1241 1.349 . S
C1240 C1242 1.327 . S
C1240 H1265 0.950 . S
C1241 C1240 1.349 . S
C1241 C1257 1.349 . S
C1242 C1240 1.327 . S
C1242 C1261 1.429 . S
C1242 H1266 0.950 . S
C1243 C1260 1.574 . S
C1243 C1262 1.368 . S
C1243 H1267 0.949 . S
H1244 C1248 0.949 . S
C1245 C1246 1.349 . S
C1245 C1247 1.327 . S
C1245 H1268 0.950 . S
C1246 C1245 1.349 . S
C1246 C1258 1.349 . S
C1247 C1245 1.327 . S
C1247 C1263 1.429 . S
C1247 H1269 0.950 . S
C1248 H1244 0.949 . S
C1248 C1256 1.574 . S
C1248 C1264 1.368 . S
H1249 C1257 0.950 . S
H1250 C1255 0.950 . S
H1251 C1256 0.949 . S
H1252 C1258 0.950 1_455 S
H1253 C1259 0.945 1_455 S
H1254 C1260 0.949 . S
C1255 H1250 0.950 . S
C1255 C1257 1.327 . S
C1255 C1261 1.429 . S
C1256 C1248 1.574 . S
C1256 H1251 0.949 . S
C1256 C1262 1.368 . S
C1257 C1241 1.349 . S
C1257 H1249 0.950 . S
C1257 C1255 1.327 . S
C1258 C1246 1.349 . S
C1258 H1252 0.950 1_655 S
C1258 C1259 1.327 . S
C1259 H1253 0.945 1_655 S
C1259 C1258 1.327 . S
C1259 C1263 1.429 . S
C1260 C1243 1.574 . S
C1260 H1254 0.949 . S
C1260 C1264 1.368 . S
C1261 C1242 1.429 . S
C1261 C1255 1.429 . S
C1261 C1262 1.523 . S
C1262 C1243 1.368 . S
C1262 C1256 1.368 . S
C1262 C1261 1.523 . S
C1263 C1247 1.429 . S
C1263 C1259 1.429 . S
C1263 C1264 1.523 . S
C1264 C1248 1.368 . S
C1264 C1260 1.368 . S
C1264 C1263 1.523 . S
H1265 C1240 0.950 . S
H1266 C1242 0.950 . S
H1267 C1243 0.949 . S
H1268 C1245 0.950 . S
H1269 C1247 0.950 . S
C1270 C1271 1.349 . S
C1270 C1272 1.327 . S
C1270 H1295 0.950 . S
C1271 C1270 1.349 . S
C1271 C1287 1.349 . S
C1272 C1270 1.327 . S
C1272 C1291 1.429 . S
C1272 H1296 0.950 . S
C1273 C1290 1.574 . S
C1273 C1292 1.368 . S
C1273 H1297 0.949 . S
H1274 C1278 0.949 . S
C1275 C1276 1.349 . S
C1275 C1277 1.327 . S
C1275 H1298 0.950 . S
C1276 C1275 1.349 . S
C1276 C1288 1.349 . S
C1277 C1275 1.327 . S
C1277 C1293 1.429 . S
C1277 H1299 0.950 . S
C1278 H1274 0.949 . S
C1278 C1286 1.574 . S
C1278 C1294 1.368 . S
H1279 C1287 0.950 . S
H1280 C1285 0.950 . S
H1281 C1286 0.949 . S
H1282 C1288 0.950 . S
H1283 C1289 0.950 . S
H1284 C1290 0.949 . S
C1285 H1280 0.950 . S
C1285 C1287 1.327 . S
C1285 C1291 1.429 . S
C1286 C1278 1.574 . S
C1286 H1281 0.949 . S
C1286 C1292 1.368 . S
C1287 C1271 1.349 . S
C1287 H1279 0.950 . S
C1287 C1285 1.327 . S
C1288 C1276 1.349 . S
C1288 H1282 0.950 . S
C1288 C1289 1.327 . S
C1289 H1283 0.950 . S
C1289 C1288 1.327 . S
C1289 C1293 1.429 . S
C1290 C1273 1.574 . S
C1290 H1284 0.949 . S
C1290 C1294 1.368 . S
C1291 C1272 1.429 . S
C1291 C1285 1.429 . S
C1291 C1292 1.523 . S
C1292 C1273 1.368 . S
C1292 C1286 1.368 . S
C1292 C1291 1.523 . S
C1293 C1277 1.429 . S
C1293 C1289 1.429 . S
C1293 C1294 1.523 . S
C1294 C1278 1.368 . S
C1294 C1290 1.368 . S
C1294 C1293 1.523 . S
H1295 C1270 0.950 . S
H1296 C1272 0.950 . S
H1297 C1273 0.949 . S
H1298 C1275 0.950 . S
H1299 C1277 0.950 . S
C1300 C1301 1.349 . S
C1300 C1302 1.327 . S
C1300 H1325 0.950 . S
C1301 C1300 1.349 . S
C1301 C1317 1.349 . S
C1302 C1300 1.327 . S
C1302 C1321 1.429 . S
C1302 H1326 0.950 . S
C1303 C1320 1.574 . S
C1303 C1322 1.368 . S
C1303 H1327 0.949 . S
H1304 C1308 0.949 . S
C1305 C1306 1.349 . S
C1305 C1307 1.327 . S
C1305 H1328 0.950 . S
C1306 C1305 1.349 . S
C1306 C1318 1.349 . S
C1307 C1305 1.327 . S
C1307 C1323 1.429 . S
C1307 H1329 0.950 . S
C1308 H1304 0.949 . S
C1308 C1316 1.574 . S
C1308 C1324 1.368 . S
H1309 C1317 0.950 . S
H1310 C1315 0.950 . S
H1311 C1316 0.949 . S
H1312 C1318 0.950 . S
H1313 C1319 0.950 . S
H1314 C1320 0.949 . S
C1315 H1310 0.950 . S
C1315 C1317 1.327 . S
C1315 C1321 1.429 . S
C1316 C1308 1.574 . S
C1316 H1311 0.949 . S
C1316 C1322 1.368 . S
C1317 C1301 1.349 . S
C1317 H1309 0.950 . S
C1317 C1315 1.327 . S
C1318 C1306 1.349 . S
C1318 H1312 0.950 . S
C1318 C1319 1.327 . S
C1319 H1313 0.950 . S
C1319 C1318 1.327 . S
C1319 C1323 1.429 . S
C1320 C1303 1.574 . S
C1320 H1314 0.949 . S
C1320 C1324 1.368 . S
C1321 C1302 1.429 . S
C1321 C1315 1.429 . S
C1321 C1322 1.523 . S
C1322 C1303 1.368 . S
C1322 C1316 1.368 . S
C1322 C1321 1.523 . S
C1323 C1307 1.429 . S
C1323 C1319 1.429 . S
C1323 C1324 1.523 . S
C1324 C1308 1.368 . S
C1324 C1320 1.368 . S
C1324 C1323 1.523 . S
H1325 C1300 0.950 . S
H1326 C1302 0.950 . S
H1327 C1303 0.949 . S
H1328 C1305 0.950 . S
H1329 C1307 0.950 . S
C1330 C1331 1.349 . S
C1330 C1332 1.327 . S
C1330 H1355 0.950 . S
C1331 C1330 1.349 . S
C1331 C1347 1.349 . S
C1332 C1330 1.327 . S
C1332 C1351 1.429 . S
C1332 H1356 0.950 . S
C1333 C1350 1.574 . S
C1333 C1352 1.368 . S
C1333 H1357 0.949 . S
H1334 C1338 0.949 . S
C1335 C1336 1.349 . S
C1335 C1337 1.327 . S
C1335 H1358 0.950 . S
C1336 C1335 1.349 . S
C1336 C1348 1.349 . S
C1337 C1335 1.327 . S
C1337 C1353 1.429 . S
C1337 H1359 0.950 . S
C1338 H1334 0.949 . S
C1338 C1346 1.574 . S
C1338 C1354 1.368 . S
H1339 C1347 0.950 . S
H1340 C1345 0.950 . S
H1341 C1346 0.949 . S
H1342 C1348 0.950 . S
H1343 C1349 0.950 . S
H1344 C1350 0.949 . S
C1345 H1340 0.950 . S
C1345 C1347 1.327 . S
C1345 C1351 1.429 . S
C1346 C1338 1.574 . S
C1346 H1341 0.949 . S
C1346 C1352 1.368 . S
C1347 C1331 1.349 . S
C1347 H1339 0.950 . S
C1347 C1345 1.327 . S
C1348 C1336 1.349 . S
C1348 H1342 0.950 . S
C1348 C1349 1.327 . S
C1349 H1343 0.950 . S
C1349 C1348 1.327 . S
C1349 C1353 1.429 . S
C1350 C1333 1.574 . S
C1350 H1344 0.949 . S
C1350 C1354 1.368 . S
C1351 C1332 1.429 . S
C1351 C1345 1.429 . S
C1351 C1352 1.523 . S
C1352 C1333 1.368 . S
C1352 C1346 1.368 . S
C1352 C1351 1.523 . S
C1353 C1337 1.429 . S
C1353 C1349 1.429 . S
C1353 C1354 1.523 . S
C1354 C1338 1.368 . S
C1354 C1350 1.368 . S
C1354 C1353 1.523 . S
H1355 C1330 0.950 . S
H1356 C1332 0.950 . S
H1357 C1333 0.949 . S
H1358 C1335 0.950 . S
H1359 C1337 0.950 . S
C641 C391 2.716 . S
C646 C511 2.754 . S
C676 C537 1.999 . S
C671 C451 1.923 . S
C706 C577 2.113 . S
C701 C241 1.823 . S
C736 C631 2.688 . S
C731 C331 2.384 . S
C766 C492 2.754 . S
C761 C121 2.454 . S
C791 C211 1.963 . S
C796 C522 1.998 . S
C821 C31 2.025 . S
C826 C562 2.113 . S
C851 C91 2.423 . S
C856 C612 2.689 1_655 S
C886 C488 0.282 1_655 S
C881 C301 0.629 . S
C916 C549 0.467 . S
C911 C380 0.453 . S
C946 C589 0.256 . S
C941 C440 0.263 . S
C971 C260 0.783 . S
C976 C608 0.379 . S
C1001 C61 0.482 . S
C1006 C509 0.283 . S
C1036 C528 0.467 . S
C1031 C140 0.471 . S
C1066 C568 0.256 . S
C1061 C200 0.205 . S
C1091 C20 0.601 . S
C1096 C629 0.380 . S
C1121 C320 2.363 . S
C1126 C482 2.527 . S
C1151 C361 2.876 . S
C1156 C532 3.335 . S
C1186 C572 2.999 . S
C1181 C421 2.532 . S
C1216 C602 2.269 . S
C1211 C271 2.123 . S
C1241 C80 2.394 . S
C1246 C497 2.527 . S
C1276 C551 3.335 . S
C1271 C151 3.200 . S
C1306 C591 2.999 . S
C1301 C181 2.587 . S
C1331 C1 1.845 . S
C1336 C617 2.270 . S
