# Generated by pormake.
# Topology tsx, (6,3)-cn, num edge types: 1
# Building blocks:
#     Node 0, Type 0, BuildingBlock: JUFBIX_clean_sbu_0, # of connection points: 6
#     Node 1, Type 0, BuildingBlock: JUFBIX_clean_sbu_0, # of connection points: 6
#     Node 2, Type 1, BuildingBlock: BETDAH_clean_linker_0, # of connection points: 3
#     Node 3, Type 1, BuildingBlock: BETDAH_clean_linker_0, # of connection points: 3
#     Node 4, Type 1, BuildingBlock: BETDAH_clean_linker_0, # of connection points: 3
#     Node 5, Type 1, BuildingBlock: BETDAH_clean_linker_0, # of connection points: 3
#     Edge 6, Type (0, 1), BuildingBlock: UVAHIK_clean_linker_0, # of connection points: 2
#     Edge 7, Type (0, 1), BuildingBlock: UVAHIK_clean_linker_0, # of connection points: 2
#     Edge 8, Type (0, 1), BuildingBlock: UVAHIK_clean_linker_0, # of connection points: 2
#     Edge 9, Type (0, 1), BuildingBlock: UVAHIK_clean_linker_0, # of connection points: 2
#     Edge 10, Type (0, 1), BuildingBlock: UVAHIK_clean_linker_0, # of connection points: 2
#     Edge 11, Type (0, 1), BuildingBlock: UVAHIK_clean_linker_0, # of connection points: 2
#     Edge 12, Type (0, 1), BuildingBlock: UVAHIK_clean_linker_0, # of connection points: 2
#     Edge 13, Type (0, 1), BuildingBlock: UVAHIK_clean_linker_0, # of connection points: 2
#     Edge 14, Type (0, 1), BuildingBlock: UVAHIK_clean_linker_0, # of connection points: 2
#     Edge 15, Type (0, 1), BuildingBlock: UVAHIK_clean_linker_0, # of connection points: 2
#     Edge 16, Type (0, 1), BuildingBlock: UVAHIK_clean_linker_0, # of connection points: 2
#     Edge 17, Type (0, 1), BuildingBlock: UVAHIK_clean_linker_0, # of connection points: 2
# Relax obj value: 0.101
# Max RMSD: 0.124
# Mean RMSD: 0.113
data_MOF--net-tsx--node1-JUFBIX_clean_sbu_0--node2-BETDAH_clean_linker_0--edge1-UVAHIK_clean_linker_0
_symmetry_space_group_name_H-M    P1
_symmetry_Int_Tables_number       1
_symmetry_cell_setting            triclinic
loop_
_symmetry_equiv_pos_as_xyz
'x, y, z'
_cell_length_a     26.164839
_cell_length_b     30.82586
_cell_length_c     42.186124
_cell_angle_alpha  91.838865
_cell_angle_beta   98.584025
_cell_angle_gamma 97.672309
loop_
_atom_site_label
_atom_site_type_symbol
_atom_site_fract_x
_atom_site_fract_y
_atom_site_fract_z
_atom_type_partial_charge
Co0 Co 0.04895 0.98634 0.00444 0.0
C1 C 0.99984 0.00905 0.94439 0.0
Co2 Co 0.98222 0.02329 0.00559 0.0
C3 C 0.12289 0.92134 0.00871 0.0
C4 C 0.14635 0.97902 0.98461 0.0
N5 N 0.10824 0.96041 0.00018 0.0
N6 N 0.16901 0.91556 -0.00062 0.0
C7 C 0.18357 0.95189 0.98426 0.0
H8 H 0.10009 0.89755 0.02117 0.0
H9 H 0.14645 0.00999 0.97327 0.0
C10 C 0.03157 0.00256 0.06566 0.0
N11 N 0.9237 0.04968 0.00933 0.0
C12 C 0.91114 0.08825 -0.00149 0.0
C13 C 0.88385 0.03349 0.02444 0.0
N14 N 0.86486 0.09637 0.00606 0.0
C15 C 0.8475 0.06195 0.02227 0.0
C16 C 0.95842 0.93078 0.00125 0.0
O17 O 0.06072 0.98297 0.05011 0.0
O18 O 0.99606 0.02175 0.05061 0.0
O19 O 0.94079 0.96712 0.003 0.0
O20 O 0.00687 0.93087 0.0007 0.0
O21 O 0.96905 0.02533 0.96051 0.0
H22 H 0.88153 0.00304 0.03654 0.0
H23 H 0.93515 0.10973 0.9851 0.0
O24 O 0.03638 0.99034 0.95894 0.0
O25 O 0.09043 0.04236 0.00848 0.0
O26 O 0.02415 0.07886 0.0081 0.0
C27 C 0.07283 0.07876 0.00903 0.0
H28 H 0.21783 0.95772 0.97259 0.0
H29 H 0.81155 0.05809 0.03234 0.0
Co30 Co 0.5505 0.48691 0.50298 0.0
C31 C 0.50026 0.51141 0.44366 0.0
Co32 Co 0.48501 0.52492 0.50529 0.0
C33 C 0.61899 0.41826 0.50248 0.0
C34 C 0.64591 0.47741 0.4811 0.0
N35 N 0.60808 0.45943 0.49717 0.0
N36 N 0.6617 0.41018 0.48994 0.0
C37 C 0.67873 0.44748 0.47675 0.0
H38 H 0.59456 0.39399 0.51358 0.0
H39 H 0.6481 0.50961 0.47155 0.0
C40 C 0.53562 0.50242 0.56465 0.0
N41 N 0.42798 0.55259 0.5103 0.0
C42 C 0.41562 0.59114 0.49936 0.0
C43 C 0.38893 0.5373 0.52634 0.0
N44 N 0.37017 0.6001 0.5077 0.0
C45 C 0.35318 0.56628 0.52458 0.0
C46 C 0.45859 0.43284 0.50027 0.0
O47 O 0.56367 0.48244 0.54852 0.0
O48 O 0.50038 0.52246 0.5502 0.0
O49 O 0.44193 0.4695 0.50269 0.0
O50 O 0.50672 0.43224 0.49909 0.0
O51 O 0.47034 0.52788 0.46031 0.0
H52 H 0.38664 0.50702 0.53864 0.0
H53 H 0.43904 0.6119 0.48517 0.0
O54 O 0.53659 0.49199 0.45764 0.0
O55 O 0.59363 0.54216 0.50718 0.0
O56 O 0.52847 0.57977 0.5078 0.0
C57 C 0.57693 0.57892 0.50824 0.0
H58 H 0.71183 0.45232 0.46397 0.0
H59 H 0.31781 0.5631 0.53527 0.0
H60 H 0.06908 0.93693 0.39654 0.0
H61 H 0.991 0.04597 0.41905 0.0
H62 H 0.0807 0.98393 0.49404 0.0
C63 C 0.05812 0.9592 0.41395 0.0
C64 C 0.07706 0.95616 0.44642 0.0
C65 C 0.02754 0.99171 0.40365 0.0
C66 C 0.01484 0.02095 0.42671 0.0
C67 C 0.03359 0.01779 0.45961 0.0
C68 C 0.06564 0.98608 0.46899 0.0
N69 N 0.02154 0.04577 0.48401 0.0
C70 C 0.98272 0.07263 0.47977 0.0
H71 H 0.91473 0.97076 0.59509 0.0
H72 H 0.07462 0.03291 0.61008 0.0
H73 H 0.01374 0.95223 0.5247 0.0
C74 C 0.95179 0.97839 0.58657 0.0
C75 C 0.95865 0.95897 0.55723 0.0
C76 C 0.99356 0.00416 0.60642 0.0
C77 C 0.04146 0.014 0.59501 0.0
C78 C 0.04828 0.99565 0.5653 0.0
C79 C 0.00732 0.9677 0.54691 0.0
N80 N 0.09779 0.0007 0.55524 0.0
C81 C 0.12674 0.04137 0.55342 0.0
H82 H 0.56795 0.43507 0.89591 0.0
H83 H 0.49015 0.54492 0.9169 0.0
H84 H 0.5748 0.48125 0.99318 0.0
C85 C 0.55639 0.45738 0.91304 0.0
C86 C 0.57353 0.45393 0.9457 0.0
C87 C 0.52675 0.49029 0.90225 0.0
C88 C 0.5133 0.51962 0.92496 0.0
C89 C 0.53016 0.51601 0.95805 0.0
C90 C 0.56118 0.48378 0.96797 0.0
N91 N 0.51706 0.54391 0.98214 0.0
C92 C 0.48107 0.57324 0.97694 0.0
H93 H 0.40989 0.47297 0.09495 0.0
H94 H 0.57027 0.53387 0.1089 0.0
H95 H 0.50751 0.45243 0.02416 0.0
C96 C 0.44683 0.48012 0.08622 0.0
C97 C 0.45309 0.46014 0.05695 0.0
C98 C 0.48904 0.50584 0.10575 0.0
C99 C 0.53679 0.51504 0.09406 0.0
C100 C 0.543 0.49615 0.06439 0.0
C101 C 0.50157 0.4683 0.04633 0.0
N102 N 0.59227 0.50049 0.05401 0.0
C103 C 0.62252 0.5407 0.0527 0.0
C104 C 0.09195 0.1611 0.01253 0.0
C105 C 0.10911 0.12001 0.00983 0.0
C106 C 0.12716 0.19972 0.01333 0.0
C107 C 0.26837 0.23903 0.03182 0.0
H108 H 0.23343 0.34231 0.98796 0.0
C109 C 0.42462 0.38545 0.0302 0.0
C110 C 0.41154 0.4258 0.04047 0.0
C111 C 0.38584 0.34985 0.02087 0.0
C112 C 0.24358 0.31369 0.00036 0.0
H113 H 0.17627 0.08728 0.00493 0.0
H114 H 0.2369 0.1541 0.0058 0.0
H115 H 0.16843 0.27646 0.98391 0.0
H116 H 0.3472 0.46157 0.04605 0.0
H117 H 0.27934 0.39894 0.03028 0.0
H118 H 0.34309 0.27586 0.04845 0.0
C119 C 0.1967 0.15672 0.00803 0.0
C120 C 0.20637 0.27612 -0.00182 0.0
C121 C 0.16178 0.11834 0.0074 0.0
C122 C 0.3585 0.43067 0.03876 0.0
C123 C 0.31963 0.39493 0.02947 0.0
C124 C 0.30541 0.27629 0.03386 0.0
C125 C 0.18005 0.19787 0.01138 0.0
C126 C 0.21854 0.23831 0.0138 0.0
C127 C 0.33315 0.35373 0.02173 0.0
C128 C 0.2936 0.31397 0.01808 0.0
H129 H 0.05153 0.16342 0.01433 0.0
H130 H 0.11323 0.23094 0.01617 0.0
H131 H 0.27865 0.21089 0.0448 0.0
H132 H 0.46501 0.38038 0.03135 0.0
H133 H 0.39732 0.31866 0.01441 0.0
C134 C 0.25117 0.88404 0.00429 0.0
C135 C 0.19656 0.87802 0.00214 0.0
C136 C 0.2781 0.84833 0.00184 0.0
C137 C 0.27291 0.72929 0.00705 0.0
H138 H 0.3747 0.74461 0.94876 0.0
C139 C 0.39203 0.59143 0.97675 0.0
C140 C 0.44502 0.60487 0.97565 0.0
C141 C 0.35801 0.6226 0.97844 0.0
C142 C 0.34684 0.73986 0.96535 0.0
H143 H 0.12761 0.82948 0.99768 0.0
H144 H 0.17512 0.76634 0.99369 0.0
H145 H 0.32238 0.80244 0.9567 0.0
H146 H 0.50476 0.66047 0.97557 0.0
H147 H 0.44587 0.71511 0.97874 0.0
H148 H 0.29831 0.66693 0.01619 0.0
C149 C 0.19685 0.79903 0.99712 0.0
C150 C 0.31676 0.77302 0.96986 0.0
C151 C 0.1697 0.83507 -0.00049 0.0
C152 C 0.46373 0.64957 0.97594 0.0
C153 C 0.4299 0.68073 0.97767 0.0
C154 C 0.30335 0.69606 0.00267 0.0
C155 C 0.25119 0.80551 0.99726 0.0
C156 C 0.28011 0.76849 0.99117 0.0
C157 C 0.37662 0.6677 0.97915 0.0
C158 C 0.34132 0.70129 0.98214 0.0
H159 H 0.27307 0.91666 0.00706 0.0
H160 H 0.32009 0.85433 0.00291 0.0
H161 H 0.24505 0.72494 0.02367 0.0
H162 H 0.37711 0.55691 0.97683 0.0
H163 H 0.31722 0.61138 0.97922 0.0
C164 C 0.86972 0.89011 0.00308 0.0
C165 C 0.92312 0.88928 0.00229 0.0
C166 C 0.8369 0.85183 0.00717 0.0
C167 C 0.82449 0.73103 0.00164 0.0
H168 H 0.72645 0.73942 0.06134 0.0
C169 C 0.66351 0.58884 0.01583 0.0
C170 C 0.65477 0.58039 0.04712 0.0
C171 C 0.69625 0.6264 0.01002 0.0
C172 C 0.75384 0.73645 0.04478 0.0
H173 H 0.98359 0.84724 0.00423 0.0
H174 H 0.92609 0.78022 0.01147 0.0
H175 H 0.78415 0.80464 0.05122 0.0
H176 H 0.67231 0.60351 0.09698 0.0
H177 H 0.73005 0.66954 0.08703 0.0
H178 H 0.79466 0.66265 0.99559 0.0
C179 C 0.90966 0.81056 0.00873 0.0
C180 C 0.78649 0.77392 0.03868 0.0
C181 C 0.94262 0.84897 0.00465 0.0
C182 C 0.6786 0.60984 0.07263 0.0
C183 C 0.71136 0.64753 0.06687 0.0
C184 C 0.79169 0.69355 0.00766 0.0
C185 C 0.8566 0.81173 0.01058 0.0
C186 C 0.8221 0.77169 0.01698 0.0
C187 C 0.72075 0.65612 0.03549 0.0
C188 C 0.75594 0.69585 0.02928 0.0
H189 H 0.8533 0.92055 0.00115 0.0
H190 H 0.79603 0.85369 0.00787 0.0
H191 H 0.85127 0.72827 0.98466 0.0
H192 H 0.64525 0.56626 0.99586 0.0
H193 H 0.70204 0.63235 0.98556 0.0
C194 C 0.78451 0.12889 0.99075 0.0
C195 C 0.83904 0.13396 -0.00114 0.0
C196 C 0.75884 0.16533 0.9849 0.0
C197 C 0.76662 0.28088 0.00523 0.0
H198 H 0.66645 0.28097 0.92763 0.0
C199 C 0.65509 0.42839 0.97287 0.0
C200 C 0.60417 0.41864 0.95603 0.0
C201 C 0.68594 0.39493 0.9791 0.0
C202 C 0.69361 0.28126 0.9497 0.0
H203 H 0.90966 0.18083 0.0074 0.0
H204 H 0.86436 0.24522 0.99775 0.0
H205 H 0.7169 0.22034 0.93579 0.0
H206 H 0.5441 0.36677 0.9342 0.0
H207 H 0.5966 0.30815 0.94631 0.0
H208 H 0.74203 0.34095 0.01982 0.0
C209 C 0.84176 0.21286 0.99567 0.0
C210 C 0.7228 0.24667 0.95417 0.0
C211 C 0.86759 0.17619 0.00093 0.0
C212 C 0.58358 0.37496 0.94691 0.0
C213 C 0.61392 0.34154 0.95358 0.0
C214 C 0.73676 0.31529 0.00101 0.0
C215 C 0.78716 0.20764 0.98757 0.0
C216 C 0.75918 0.24596 0.98207 0.0
C217 C 0.666 0.35115 0.96895 0.0
C218 C 0.69939 0.31562 0.97333 0.0
H219 H 0.76177 0.09662 0.98883 0.0
H220 H 0.71668 0.16053 0.97883 0.0
H221 H 0.79427 0.28081 0.02707 0.0
H222 H 0.67168 0.46201 0.97999 0.0
H223 H 0.7259 0.40364 0.99082 0.0
C224 C 0.59751 0.66113 0.51191 0.0
C225 C 0.61388 0.61977 0.509 0.0
C226 C 0.63321 0.69941 0.51254 0.0
C227 C 0.77478 0.73744 0.53007 0.0
H228 H 0.73988 0.84134 0.48705 0.0
C229 C 0.93094 0.88454 0.52987 0.0
C230 C 0.91748 0.92465 0.54033 0.0
C231 C 0.8924 0.84888 0.52016 0.0
C232 C 0.75004 0.81255 0.49921 0.0
H233 H 0.6802 0.58618 0.50362 0.0
H234 H 0.74173 0.65245 0.50421 0.0
H235 H 0.67465 0.77569 0.48291 0.0
H236 H 0.85276 0.95999 0.54585 0.0
H237 H 0.78535 0.89728 0.52945 0.0
H238 H 0.8497 0.77397 0.54664 0.0
C239 C 0.70175 0.65553 0.5067 0.0
C240 C 0.7127 0.77508 0.49697 0.0
C241 C 0.66632 0.61747 0.50624 0.0
C242 C 0.86435 0.92926 0.53841 0.0
C243 C 0.82573 0.89348 0.52876 0.0
C244 C 0.81196 0.77463 0.53219 0.0
C245 C 0.68584 0.69695 0.5102 0.0
C246 C 0.72477 0.73709 0.51238 0.0
C247 C 0.83958 0.85246 0.52082 0.0
C248 C 0.80014 0.81259 0.51678 0.0
H249 H 0.5573 0.66395 0.51397 0.0
H250 H 0.61984 0.73084 0.51553 0.0
H251 H 0.78502 0.70914 0.54285 0.0
H252 H 0.97143 0.8797 0.53116 0.0
H253 H 0.90415 0.81786 0.51355 0.0
C254 C 0.68866 0.34277 0.51382 0.0
C255 C 0.68286 0.36963 0.48763 0.0
C256 C 0.71588 0.3066 0.5125 0.0
C257 C 0.81674 0.26902 0.46981 0.0
H258 H 0.78055 0.1572 0.50608 0.0
C259 C 0.93044 0.12509 0.45212 0.0
C260 C 0.94342 0.1013 0.47914 0.0
C261 C 0.89468 0.15497 0.45255 0.0
C262 C 0.79135 0.18839 0.49605 0.0
H263 H 0.69672 0.37775 0.4387 0.0
H264 H 0.74296 0.3147 0.43608 0.0
H265 H 0.72424 0.21425 0.50841 0.0
H266 H 0.92951 0.08871 0.52748 0.0
H267 H 0.86728 0.14128 0.52853 0.0
H268 H 0.88386 0.24372 0.45768 0.0
C269 C 0.72841 0.32214 0.45807 0.0
C270 C 0.75911 0.22106 0.49742 0.0
C271 C 0.70178 0.35819 0.45951 0.0
C272 C 0.91965 0.10684 0.50635 0.0
C273 C 0.8839 0.1367 0.50684 0.0
C274 C 0.8488 0.23652 0.46843 0.0
C275 C 0.73731 0.29667 0.48485 0.0
C276 C 0.7713 0.26168 0.48411 0.0
C277 C 0.87149 0.16159 0.48009 0.0
C278 C 0.83647 0.19571 0.48138 0.0
H279 H 0.67441 0.35101 0.53575 0.0
H280 H 0.72206 0.28764 0.53356 0.0
H281 H 0.82807 0.30028 0.46002 0.0
H282 H 0.94846 0.12106 0.43089 0.0
H283 H 0.88542 0.1731 0.43137 0.0
C284 C 0.36972 0.39304 0.50305 0.0
C285 C 0.42273 0.39166 0.50128 0.0
C286 C 0.33658 0.35487 0.50704 0.0
C287 C 0.32258 0.23391 0.49975 0.0
H288 H 0.22749 0.24133 0.5614 0.0
C289 C 0.16462 0.09038 0.51589 0.0
C290 C 0.15758 0.08158 0.54741 0.0
C291 C 0.19615 0.12841 0.50966 0.0
C292 C 0.25404 0.23865 0.54427 0.0
H293 H 0.48214 0.34883 0.50142 0.0
H294 H 0.4242 0.2821 0.50854 0.0
H295 H 0.28458 0.30677 0.55099 0.0
H296 H 0.17688 0.10459 0.59725 0.0
H297 H 0.2326 0.17139 0.58657 0.0
H298 H 0.29272 0.16557 0.4935 0.0
C299 C 0.40824 0.31274 0.5066 0.0
C300 C 0.28632 0.27625 0.53801 0.0
C301 C 0.44147 0.35099 0.5026 0.0
C302 C 0.18185 0.11118 0.57274 0.0
C303 C 0.21344 0.14933 0.56655 0.0
C304 C 0.29019 0.1963 0.50596 0.0
C305 C 0.3556 0.31438 0.50938 0.0
C306 C 0.32097 0.27434 0.51567 0.0
C307 C 0.2212 0.15823 0.53494 0.0
C308 C 0.25556 0.19824 0.52831 0.0
H309 H 0.3539 0.42378 0.50196 0.0
H310 H 0.29603 0.35713 0.5085 0.0
H311 H 0.34856 0.2314 0.48225 0.0
H312 H 0.14604 0.0677 0.49607 0.0
H313 H 0.20068 0.13458 0.48503 0.0
C314 C 0.28991 0.63276 0.4926 0.0
C315 C 0.34449 0.63768 0.50028 0.0
C316 C 0.26441 0.66921 0.4864 0.0
C317 C 0.27254 0.78481 0.5055 0.0
H318 H 0.17233 0.78407 0.42782 0.0
C319 C 0.15957 0.93137 0.47291 0.0
C320 C 0.10853 0.92121 0.4563 0.0
C321 C 0.19092 0.89824 0.47899 0.0
C322 C 0.19953 0.78461 0.44989 0.0
H323 H 0.41539 0.68423 0.50773 0.0
H324 H 0.37035 0.7487 0.49754 0.0
H325 H 0.22296 0.72359 0.43634 0.0
H326 H 0.04883 0.8689 0.43471 0.0
H327 H 0.10226 0.81084 0.44653 0.0
H328 H 0.24771 0.84489 0.51979 0.0
C329 C 0.34761 0.71645 0.49604 0.0
C330 C 0.22882 0.75012 0.45457 0.0
C331 C 0.37327 0.67974 0.50161 0.0
C332 C 0.0884 0.87743 0.4472 0.0
C333 C 0.11927 0.84433 0.45371 0.0
C334 C 0.24256 0.81911 0.50108 0.0
C335 C 0.29296 0.71137 0.48833 0.0
C336 C 0.26515 0.74969 0.48252 0.0
C337 C 0.17139 0.85436 0.46893 0.0
C338 C 0.20515 0.81912 0.47338 0.0
H339 H 0.26702 0.6006 0.49124 0.0
H340 H 0.22221 0.66455 0.48064 0.0
H341 H 0.30017 0.78494 0.52737 0.0
H342 H 0.1758 0.96508 0.48002 0.0
H343 H 0.23091 0.90727 0.49059 0.0
C344 C 0.04617 0.96625 0.11788 0.0
C345 C 0.03747 0.00361 0.10093 0.0
C346 C 0.0437 0.96614 0.15083 0.0
C347 C 0.99222 0.02784 0.21428 0.0
H348 H 0.07216 0.95681 0.27129 0.0
C349 C 0.02088 0.03663 0.35491 0.0
C350 C 0.0127 0.99578 0.3686 0.0
C351 C 0.01855 0.0389 0.32161 0.0
C352 C 0.04946 0.97664 0.25551 0.0
H353 H 0.0227 0.07086 0.10501 0.0
H354 H 0.02177 0.0718 0.16251 0.0
H355 H 0.0843 0.95896 0.21517 0.0
H356 H 0.99036 0.92587 0.35797 0.0
H357 H 0.9878 0.9299 0.30011 0.0
H358 H 0.95914 0.04668 0.2554 0.0
C359 C 0.02786 0.04177 0.15052 0.0
C360 C 0.05613 0.97772 0.22329 0.0
C361 C 0.02905 0.04147 0.1176 0.0
C362 C 0.99801 0.95774 0.34818 0.0
C363 C 0.99654 0.95996 0.31512 0.0
C364 C 0.98642 0.02744 0.24669 0.0
C365 C 0.0336 0.00375 0.16751 0.0
C366 C 0.02741 0.00316 0.20212 0.0
C367 C 0.0085 0.00035 0.30169 0.0
C368 C 0.01467 0.00155 0.26747 0.0
H369 H 0.05217 0.93653 0.10539 0.0
H370 H 0.04777 0.93603 0.16286 0.0
H371 H 0.96839 0.04705 0.19873 0.0
H372 H 0.03249 0.06646 0.37 0.0
H373 H 0.02775 0.07045 0.31166 0.0
C374 C 0.9553 0.03479 0.893 0.0
C375 C 0.99558 0.01429 0.90942 0.0
C376 C 0.95305 0.04166 0.86024 0.0
C377 C 0.94079 0.02434 0.78767 0.0
H378 H 0.06828 0.05858 0.75261 0.0
C379 C 0.96145 0.98391 0.6577 0.0
C380 C 0.98896 0.01498 0.64045 0.0
C381 C 0.95899 0.992 0.69003 0.0
C382 C 0.03224 0.04974 0.76208 0.0
H383 H 0.06502 0.98492 0.90429 0.0
H384 H 0.06069 0.99649 0.8472 0.0
H385 H 0.07116 0.05719 0.81074 0.0
H386 H 0.03542 0.07923 0.64404 0.0
H387 H 0.03219 0.0929 0.70128 0.0
H388 H 0.9021 0.01585 0.739 0.0
C389 C 0.03127 0.00777 0.85972 0.0
C390 C 0.03397 0.04842 0.7953 0.0
C391 C 0.03339 0.00071 0.89237 0.0
C392 C 0.01405 0.05454 0.65658 0.0
C393 C 0.01209 0.06244 0.68927 0.0
C394 C 0.93912 0.02544 0.75447 0.0
C395 C 0.99119 0.02844 0.84331 0.0
C396 C 0.98847 0.03465 0.80839 0.0
C397 C 0.9846 0.0311 0.70627 0.0
C398 C 0.98504 0.03705 0.74132 0.0
H399 H 0.92572 0.04586 0.90548 0.0
H400 H 0.92182 0.05783 0.84826 0.0
H401 H 0.9051 0.01349 0.797 0.0
H402 H 0.94315 0.95239 0.6466 0.0
H403 H 0.93863 0.96675 0.70265 0.0
C404 C 0.53652 0.54138 0.61701 0.0
C405 C 0.54242 0.50305 0.59992 0.0
C406 C 0.53537 0.54144 0.64993 0.0
C407 C 0.55879 0.47523 0.722 0.0
H408 H 0.46545 0.54777 0.75429 0.0
C409 C 0.49889 0.45655 0.84659 0.0
C410 C 0.51348 0.4945 0.8671 0.0
C411 C 0.49844 0.45878 0.81361 0.0
C412 C 0.49174 0.52753 0.74555 0.0
H413 H 0.55283 0.43489 0.60361 0.0
H414 H 0.54858 0.4341 0.66112 0.0
H415 H 0.47562 0.54834 0.69778 0.0
H416 H 0.53442 0.56508 0.86871 0.0
H417 H 0.53155 0.56913 0.81051 0.0
H418 H 0.57293 0.45324 0.76978 0.0
C419 C 0.54643 0.46467 0.64941 0.0
C420 C 0.49805 0.52803 0.71323 0.0
C421 C 0.54884 0.46496 0.61644 0.0
C422 C 0.52283 0.53533 0.85354 0.0
C423 C 0.52156 0.53762 0.82032 0.0
C424 C 0.55162 0.47412 0.75414 0.0
C425 C 0.5386 0.50277 0.66648 0.0
C426 C 0.53194 0.50207 0.701 0.0
C427 C 0.51143 0.49912 0.80033 0.0
C428 C 0.51815 0.50032 0.76618 0.0
H429 H 0.53191 0.5713 0.60474 0.0
H430 H 0.5311 0.57179 0.66225 0.0
H431 H 0.58589 0.4554 0.71379 0.0
H432 H 0.49037 0.42471 0.85626 0.0
H433 H 0.48955 0.42877 0.79855 0.0
C434 C 0.45544 0.53852 0.39283 0.0
C435 C 0.49539 0.51719 0.40872 0.0
C436 C 0.45272 0.54582 0.3601 0.0
C437 C 0.43884 0.52905 0.28734 0.0
H438 H 0.56594 0.5615 0.25146 0.0
C439 C 0.45724 0.48678 0.15735 0.0
C440 C 0.48496 0.51728 0.13978 0.0
C441 C 0.4552 0.49544 0.18966 0.0
C442 C 0.53002 0.55319 0.26116 0.0
H443 H 0.56379 0.48679 0.4027 0.0
H444 H 0.55865 0.49912 0.3457 0.0
H445 H 0.56968 0.56027 0.30965 0.0
H446 H 0.53227 0.58111 0.1428 0.0
H447 H 0.52983 0.59575 0.20004 0.0
H448 H 0.39942 0.52084 0.23883 0.0
C449 C 0.52985 0.51072 0.35859 0.0
C450 C 0.53223 0.55197 0.29442 0.0
C451 C 0.53242 0.50323 0.39119 0.0
C452 C 0.51072 0.55685 0.15559 0.0
C453 C 0.50919 0.56531 0.18828 0.0
C454 C 0.43669 0.53005 0.2541 0.0
C455 C 0.4901 0.53221 0.34269 0.0
C456 C 0.48686 0.53875 0.3078 0.0
C457 C 0.48147 0.53454 0.20559 0.0
C458 C 0.48246 0.54096 0.24065 0.0
H459 H 0.42648 0.54989 0.4057 0.0
H460 H 0.42174 0.56258 0.34851 0.0
H461 H 0.40325 0.51865 0.2969 0.0
H462 H 0.43843 0.45526 0.14651 0.0
H463 H 0.43466 0.4706 0.20253 0.0
loop_
_geom_bond_atom_site_label_1
_geom_bond_atom_site_label_2
_geom_bond_distance
_geom_bond_site_symmetry_2
_ccdc_geom_bond_type
Co0 N5 2.057 . S
Co0 O17 2.021 . S
Co0 O20 2.062 1_455 S
Co0 O24 2.117 1_554 S
Co0 O25 2.020 1_565 S
C1 O21 1.259 1_455 S
C1 O24 1.258 1_545 S
Co2 N11 2.057 . S
Co2 O18 2.117 1_655 S
Co2 O19 2.019 1_545 S
Co2 O21 2.021 1_554 S
Co2 O26 2.062 1_655 S
C3 N5 1.316 . S
C3 N6 1.347 . S
C3 H8 0.931 . S
C4 N5 1.375 1_556 S
C4 C7 1.350 . S
C4 H9 0.930 . S
N5 Co0 2.057 . S
N5 C3 1.316 . S
N5 C4 1.375 1_554 S
N6 C3 1.347 . S
N6 C7 1.373 1_554 S
C7 C4 1.350 . S
C7 N6 1.373 1_556 S
C7 H28 0.931 . S
H8 C3 0.931 . S
H9 C4 0.930 . S
C10 O17 1.259 1_545 S
C10 O18 1.258 . S
N11 Co2 2.057 . S
N11 C12 1.316 1_554 S
N11 C13 1.375 . S
C12 N11 1.316 1_556 S
C12 N14 1.347 1_556 S
C12 H23 0.931 . S
C13 N11 1.375 . S
C13 C15 1.350 . S
C13 H22 0.930 . S
N14 C12 1.347 1_554 S
N14 C15 1.373 . S
C15 C13 1.350 . S
C15 N14 1.373 . S
C15 H29 0.931 . S
C16 O19 1.256 . S
C16 O20 1.255 . S
O17 Co0 2.021 . S
O17 C10 1.259 1_565 S
O18 Co2 2.117 1_455 S
O18 C10 1.258 . S
O19 Co2 2.019 1_565 S
O19 C16 1.256 . S
O20 Co0 2.062 1_655 S
O20 C16 1.255 . S
O21 C1 1.259 1_655 S
O21 Co2 2.021 1_556 S
H22 C13 0.930 . S
H23 C12 0.931 . S
O24 Co0 2.117 1_556 S
O24 C1 1.258 1_565 S
O25 Co0 2.020 1_545 S
O25 C27 1.256 . S
O26 Co2 2.062 1_455 S
O26 C27 1.255 . S
C27 O25 1.256 . S
C27 O26 1.255 . S
H28 C7 0.931 . S
H29 C15 0.931 . S
Co30 N35 2.057 . S
Co30 O47 2.021 . S
Co30 O50 2.062 . S
Co30 O54 2.117 . S
Co30 O55 2.020 . S
C31 O51 1.259 . S
C31 O54 1.258 . S
Co32 N41 2.057 . S
Co32 O48 2.117 . S
Co32 O49 2.020 . S
Co32 O51 2.021 . S
Co32 O56 2.062 . S
C33 N35 1.316 . S
C33 N36 1.347 . S
C33 H38 0.931 . S
C34 N35 1.375 . S
C34 C37 1.350 . S
C34 H39 0.930 . S
N35 Co30 2.057 . S
N35 C33 1.316 . S
N35 C34 1.375 . S
N36 C33 1.347 . S
N36 C37 1.373 . S
C37 C34 1.350 . S
C37 N36 1.373 . S
C37 H58 0.931 . S
H38 C33 0.931 . S
H39 C34 0.930 . S
C40 O47 1.259 . S
C40 O48 1.258 . S
N41 Co32 2.057 . S
N41 C42 1.316 . S
N41 C43 1.375 . S
C42 N41 1.316 . S
C42 N44 1.347 . S
C42 H53 0.931 . S
C43 N41 1.375 . S
C43 C45 1.350 . S
C43 H52 0.930 . S
N44 C42 1.347 . S
N44 C45 1.373 . S
C45 C43 1.350 . S
C45 N44 1.373 . S
C45 H59 0.931 . S
C46 O49 1.256 . S
C46 O50 1.255 . S
O47 Co30 2.021 . S
O47 C40 1.259 . S
O48 Co32 2.117 . S
O48 C40 1.258 . S
O49 Co32 2.020 . S
O49 C46 1.256 . S
O50 Co30 2.062 . S
O50 C46 1.255 . S
O51 C31 1.259 . S
O51 Co32 2.021 . S
H52 C43 0.930 . S
H53 C42 0.931 . S
O54 Co30 2.117 . S
O54 C31 1.258 . S
O55 Co30 2.020 . S
O55 C57 1.256 . S
O56 Co32 2.062 . S
O56 C57 1.255 . S
C57 O55 1.256 . S
C57 O56 1.255 . S
H58 C37 0.931 . S
H59 C45 0.931 . S
H60 C63 0.929 . S
H61 C66 0.929 1_655 S
H62 C68 0.930 . S
C63 H60 0.929 . S
C63 C64 1.398 . S
C63 C65 1.396 . S
C64 C63 1.398 . S
C64 C68 1.407 . S
C65 C63 1.396 . S
C65 C66 1.394 1_565 S
C66 H61 0.929 1_455 S
C66 C65 1.394 1_545 S
C66 C67 1.382 . S
C67 C66 1.382 . S
C67 C68 1.392 1_545 S
C67 N69 1.420 1_455 S
C68 H62 0.930 . S
C68 C64 1.407 . S
C68 C67 1.392 1_565 S
N69 C67 1.420 1_655 S
N69 C70 1.244 . S
C70 N69 1.244 . S
H71 C74 0.929 . S
H72 C77 0.929 . S
H73 C79 0.930 . S
C74 H71 0.929 . S
C74 C75 1.398 . S
C74 C76 1.396 1_565 S
C75 C74 1.398 . S
C75 C79 1.407 . S
C76 C74 1.396 1_545 S
C76 C77 1.394 1_655 S
C77 H72 0.929 . S
C77 C76 1.394 1_455 S
C77 C78 1.382 . S
C78 C77 1.382 . S
C78 C79 1.392 1_445 S
C78 N80 1.420 . S
C79 H73 0.930 . S
C79 C75 1.407 . S
C79 C78 1.392 1_665 S
N80 C78 1.420 . S
N80 C81 1.244 . S
C81 N80 1.244 . S
H82 C85 0.929 . S
H83 C88 0.929 . S
H84 C90 0.930 . S
C85 H82 0.929 . S
C85 C86 1.398 . S
C85 C87 1.396 . S
C86 C85 1.398 . S
C86 C90 1.407 . S
C87 C85 1.396 . S
C87 C88 1.394 . S
C88 H83 0.929 . S
C88 C87 1.394 . S
C88 C89 1.382 . S
C89 C88 1.382 . S
C89 C90 1.392 . S
C89 N91 1.420 . S
C90 H84 0.930 . S
C90 C86 1.407 . S
C90 C89 1.392 . S
N91 C89 1.420 . S
N91 C92 1.244 . S
C92 N91 1.244 . S
H93 C96 0.929 . S
H94 C99 0.929 . S
H95 C101 0.930 . S
C96 H93 0.929 . S
C96 C97 1.398 . S
C96 C98 1.396 . S
C97 C96 1.398 . S
C97 C101 1.407 . S
C98 C96 1.396 . S
C98 C99 1.394 . S
C99 H94 0.929 . S
C99 C98 1.394 . S
C99 C100 1.382 . S
C100 C99 1.382 . S
C100 C101 1.392 . S
C100 N102 1.420 . S
C101 H95 0.930 . S
C101 C97 1.407 . S
C101 C100 1.392 . S
N102 C100 1.420 . S
N102 C103 1.244 . S
C103 N102 1.244 . S
C104 C105 1.349 1_556 S
C104 C106 1.327 . S
C104 H129 0.950 . S
C105 C104 1.349 1_554 S
C105 C121 1.349 . S
C106 C104 1.327 . S
C106 C125 1.429 1_556 S
C106 H130 0.950 . S
C107 C124 1.574 . S
C107 C126 1.368 . S
C107 H131 0.949 . S
H108 C112 0.949 1_556 S
C109 C110 1.349 . S
C109 C111 1.327 . S
C109 H132 0.950 . S
C110 C109 1.349 . S
C110 C122 1.349 . S
C111 C109 1.327 . S
C111 C127 1.429 . S
C111 H133 0.950 . S
C112 H108 0.949 1_554 S
C112 C120 1.574 1_554 S
C112 C128 1.368 . S
H113 C121 0.950 . S
H114 C119 0.950 . S
H115 C120 0.947 . S
H116 C122 0.950 . S
H117 C123 0.950 1_556 S
H118 C124 0.949 . S
C119 H114 0.950 . S
C119 C121 1.327 . S
C119 C125 1.429 . S
C120 C112 1.574 1_556 S
C120 H115 0.947 . S
C120 C126 1.370 1_556 S
C121 C105 1.349 . S
C121 H113 0.950 . S
C121 C119 1.327 . S
C122 C110 1.349 . S
C122 H116 0.950 . S
C122 C123 1.327 . S
C123 H117 0.950 1_554 S
C123 C122 1.327 . S
C123 C127 1.429 . S
C124 C107 1.574 . S
C124 H118 0.949 . S
C124 C128 1.368 . S
C125 C106 1.429 1_554 S
C125 C119 1.429 . S
C125 C126 1.523 . S
C126 C107 1.368 . S
C126 C120 1.370 1_554 S
C126 C125 1.523 . S
C127 C111 1.429 . S
C127 C123 1.429 . S
C127 C128 1.523 . S
C128 C112 1.368 . S
C128 C124 1.368 . S
C128 C127 1.523 . S
H129 C104 0.950 . S
H130 C106 0.950 . S
H131 C107 0.949 . S
H132 C109 0.950 . S
H133 C111 0.950 . S
C134 C135 1.349 1_556 S
C134 C136 1.327 . S
C134 H159 0.950 . S
C135 C134 1.349 1_554 S
C135 C151 1.349 . S
C136 C134 1.327 . S
C136 C155 1.429 1_556 S
C136 H160 0.950 . S
C137 C154 1.574 . S
C137 C156 1.368 . S
C137 H161 0.949 . S
H138 C142 0.949 . S
C139 C140 1.349 . S
C139 C141 1.327 1_556 S
C139 H162 0.950 1_556 S
C140 C139 1.349 . S
C140 C152 1.349 . S
C141 C139 1.327 1_554 S
C141 C157 1.429 1_554 S
C141 H163 0.950 . S
C142 H138 0.949 . S
C142 C150 1.574 . S
C142 C158 1.368 . S
H143 C151 0.950 . S
H144 C149 0.950 . S
H145 C150 0.949 . S
H146 C152 0.950 . S
H147 C153 0.950 . S
H148 C154 0.949 . S
C149 H144 0.950 . S
C149 C151 1.327 . S
C149 C155 1.429 . S
C150 C142 1.574 . S
C150 H145 0.949 . S
C150 C156 1.368 1_556 S
C151 C135 1.349 . S
C151 H143 0.950 . S
C151 C149 1.327 . S
C152 C140 1.349 . S
C152 H146 0.950 . S
C152 C153 1.327 . S
C153 H147 0.950 . S
C153 C152 1.327 . S
C153 C157 1.429 . S
C154 C137 1.574 . S
C154 H148 0.949 . S
C154 C158 1.368 1_554 S
C155 C136 1.429 1_554 S
C155 C149 1.429 . S
C155 C156 1.523 . S
C156 C137 1.368 . S
C156 C150 1.368 1_554 S
C156 C155 1.523 . S
C157 C141 1.429 1_556 S
C157 C153 1.429 . S
C157 C158 1.523 . S
C158 C142 1.368 . S
C158 C154 1.368 1_556 S
C158 C157 1.523 . S
H159 C134 0.950 . S
H160 C136 0.950 . S
H161 C137 0.949 . S
H162 C139 0.950 1_554 S
H163 C141 0.950 . S
C164 C165 1.349 . S
C164 C166 1.327 . S
C164 H189 0.950 . S
C165 C164 1.349 . S
C165 C181 1.349 1_554 S
C166 C164 1.327 . S
C166 C185 1.429 . S
C166 H190 0.950 . S
C167 C184 1.574 . S
C167 C186 1.368 1_556 S
C167 H191 0.949 . S
H168 C172 0.949 . S
C169 C170 1.349 . S
C169 C171 1.327 . S
C169 H192 0.950 1_554 S
C170 C169 1.349 . S
C170 C182 1.349 . S
C171 C169 1.327 . S
C171 C187 1.429 . S
C171 H193 0.950 1_554 S
C172 H168 0.949 . S
C172 C180 1.574 . S
C172 C188 1.368 . S
H173 C181 0.950 . S
H174 C179 0.950 . S
H175 C180 0.949 . S
H176 C182 0.950 . S
H177 C183 0.950 . S
H178 C184 0.949 . S
C179 H174 0.950 . S
C179 C181 1.327 . S
C179 C185 1.429 1_556 S
C180 C172 1.574 . S
C180 H175 0.949 . S
C180 C186 1.368 . S
C181 C165 1.349 1_556 S
C181 H173 0.950 . S
C181 C179 1.327 . S
C182 C170 1.349 . S
C182 H176 0.950 . S
C182 C183 1.327 . S
C183 H177 0.950 . S
C183 C182 1.327 . S
C183 C187 1.429 . S
C184 C167 1.574 . S
C184 H178 0.949 . S
C184 C188 1.368 1_556 S
C185 C166 1.429 . S
C185 C179 1.429 1_554 S
C185 C186 1.523 . S
C186 C167 1.368 1_554 S
C186 C180 1.368 . S
C186 C185 1.523 . S
C187 C171 1.429 . S
C187 C183 1.429 . S
C187 C188 1.523 . S
C188 C172 1.368 . S
C188 C184 1.368 1_554 S
C188 C187 1.523 . S
H189 C164 0.950 . S
H190 C166 0.950 . S
H191 C167 0.949 . S
H192 C169 0.950 1_556 S
H193 C171 0.950 1_556 S
C194 C195 1.349 . S
C194 C196 1.327 . S
C194 H219 0.950 . S
C195 C194 1.349 . S
C195 C211 1.349 1_556 S
C196 C194 1.327 . S
C196 C215 1.429 . S
C196 H220 0.950 . S
C197 C214 1.573 1_554 S
C197 C216 1.360 1_554 S
C197 H221 0.958 . S
H198 C202 0.949 . S
C199 C200 1.349 . S
C199 C201 1.327 . S
C199 H222 0.950 . S
C200 C199 1.349 . S
C200 C212 1.349 . S
C201 C199 1.327 . S
C201 C217 1.429 . S
C201 H223 0.950 1_556 S
C202 H198 0.949 . S
C202 C210 1.574 . S
C202 C218 1.368 . S
H203 C211 0.950 . S
H204 C209 0.950 . S
H205 C210 0.949 . S
H206 C212 0.950 . S
H207 C213 0.950 . S
H208 C214 0.949 1_554 S
C209 H204 0.950 . S
C209 C211 1.327 . S
C209 C215 1.429 1_554 S
C210 C202 1.574 . S
C210 H205 0.949 . S
C210 C216 1.368 . S
C211 C195 1.349 1_554 S
C211 H203 0.950 . S
C211 C209 1.327 . S
C212 C200 1.349 . S
C212 H206 0.950 . S
C212 C213 1.327 . S
C213 H207 0.950 . S
C213 C212 1.327 . S
C213 C217 1.429 . S
C214 C197 1.573 1_556 S
C214 H208 0.949 1_556 S
C214 C218 1.368 . S
C215 C196 1.429 . S
C215 C209 1.429 1_556 S
C215 C216 1.523 . S
C216 C197 1.360 1_556 S
C216 C210 1.368 . S
C216 C215 1.523 . S
C217 C201 1.429 . S
C217 C213 1.429 . S
C217 C218 1.523 . S
C218 C202 1.368 . S
C218 C214 1.368 . S
C218 C217 1.523 . S
H219 C194 0.950 . S
H220 C196 0.950 . S
H221 C197 0.958 . S
H222 C199 0.950 . S
H223 C201 0.950 1_554 S
C224 C225 1.349 . S
C224 C226 1.327 . S
C224 H249 0.950 . S
C225 C224 1.349 . S
C225 C241 1.349 . S
C226 C224 1.327 . S
C226 C245 1.429 . S
C226 H250 0.950 . S
C227 C244 1.574 . S
C227 C246 1.368 . S
C227 H251 0.949 . S
H228 C232 0.949 . S
C229 C230 1.349 . S
C229 C231 1.327 . S
C229 H252 0.950 . S
C230 C229 1.349 . S
C230 C242 1.349 . S
C231 C229 1.327 . S
C231 C247 1.429 . S
C231 H253 0.950 . S
C232 H228 0.949 . S
C232 C240 1.574 . S
C232 C248 1.368 . S
H233 C241 0.950 . S
H234 C239 0.950 . S
H235 C240 0.949 . S
H236 C242 0.950 . S
H237 C243 0.950 . S
H238 C244 0.949 . S
C239 H234 0.950 . S
C239 C241 1.327 . S
C239 C245 1.429 . S
C240 C232 1.574 . S
C240 H235 0.949 . S
C240 C246 1.368 . S
C241 C225 1.349 . S
C241 H233 0.950 . S
C241 C239 1.327 . S
C242 C230 1.349 . S
C242 H236 0.950 . S
C242 C243 1.327 . S
C243 H237 0.950 . S
C243 C242 1.327 . S
C243 C247 1.429 . S
C244 C227 1.574 . S
C244 H238 0.949 . S
C244 C248 1.368 . S
C245 C226 1.429 . S
C245 C239 1.429 . S
C245 C246 1.523 . S
C246 C227 1.368 . S
C246 C240 1.368 . S
C246 C245 1.523 . S
C247 C231 1.429 . S
C247 C243 1.429 . S
C247 C248 1.523 . S
C248 C232 1.368 . S
C248 C244 1.368 . S
C248 C247 1.523 . S
H249 C224 0.950 . S
H250 C226 0.950 . S
H251 C227 0.949 . S
H252 C229 0.950 . S
H253 C231 0.950 . S
C254 C255 1.349 . S
C254 C256 1.327 . S
C254 H279 0.950 . S
C255 C254 1.349 . S
C255 C271 1.349 . S
C256 C254 1.327 . S
C256 C275 1.429 . S
C256 H280 0.950 . S
C257 C274 1.574 . S
C257 C276 1.368 . S
C257 H281 0.949 . S
H258 C262 0.949 . S
C259 C260 1.349 . S
C259 C261 1.327 . S
C259 H282 0.950 . S
C260 C259 1.349 . S
C260 C272 1.349 . S
C261 C259 1.327 . S
C261 C277 1.429 . S
C261 H283 0.950 . S
C262 H258 0.949 . S
C262 C270 1.574 . S
C262 C278 1.368 . S
H263 C271 0.950 . S
H264 C269 0.950 . S
H265 C270 0.949 . S
H266 C272 0.950 . S
H267 C273 0.950 . S
H268 C274 0.949 . S
C269 H264 0.950 . S
C269 C271 1.327 . S
C269 C275 1.429 . S
C270 C262 1.574 . S
C270 H265 0.949 . S
C270 C276 1.368 . S
C271 C255 1.349 . S
C271 H263 0.950 . S
C271 C269 1.327 . S
C272 C260 1.349 . S
C272 H266 0.950 . S
C272 C273 1.327 . S
C273 H267 0.950 . S
C273 C272 1.327 . S
C273 C277 1.429 . S
C274 C257 1.574 . S
C274 H268 0.949 . S
C274 C278 1.368 . S
C275 C256 1.429 . S
C275 C269 1.429 . S
C275 C276 1.523 . S
C276 C257 1.368 . S
C276 C270 1.368 . S
C276 C275 1.523 . S
C277 C261 1.429 . S
C277 C273 1.429 . S
C277 C278 1.523 . S
C278 C262 1.368 . S
C278 C274 1.368 . S
C278 C277 1.523 . S
H279 C254 0.950 . S
H280 C256 0.950 . S
H281 C257 0.949 . S
H282 C259 0.950 . S
H283 C261 0.950 . S
C284 C285 1.349 . S
C284 C286 1.327 . S
C284 H309 0.950 . S
C285 C284 1.349 . S
C285 C301 1.349 . S
C286 C284 1.327 . S
C286 C305 1.429 . S
C286 H310 0.950 . S
C287 C304 1.574 . S
C287 C306 1.368 . S
C287 H311 0.949 . S
H288 C292 0.949 . S
C289 C290 1.349 . S
C289 C291 1.327 . S
C289 H312 0.950 . S
C290 C289 1.349 . S
C290 C302 1.349 . S
C291 C289 1.327 . S
C291 C307 1.429 . S
C291 H313 0.950 . S
C292 H288 0.949 . S
C292 C300 1.574 . S
C292 C308 1.368 . S
H293 C301 0.950 . S
H294 C299 0.950 . S
H295 C300 0.949 . S
H296 C302 0.950 . S
H297 C303 0.950 . S
H298 C304 0.949 . S
C299 H294 0.950 . S
C299 C301 1.327 . S
C299 C305 1.429 . S
C300 C292 1.574 . S
C300 H295 0.949 . S
C300 C306 1.368 . S
C301 C285 1.349 . S
C301 H293 0.950 . S
C301 C299 1.327 . S
C302 C290 1.349 . S
C302 H296 0.950 . S
C302 C303 1.327 . S
C303 H297 0.950 . S
C303 C302 1.327 . S
C303 C307 1.429 . S
C304 C287 1.574 . S
C304 H298 0.949 . S
C304 C308 1.368 . S
C305 C286 1.429 . S
C305 C299 1.429 . S
C305 C306 1.523 . S
C306 C287 1.368 . S
C306 C300 1.368 . S
C306 C305 1.523 . S
C307 C291 1.429 . S
C307 C303 1.429 . S
C307 C308 1.523 . S
C308 C292 1.368 . S
C308 C304 1.368 . S
C308 C307 1.523 . S
H309 C284 0.950 . S
H310 C286 0.950 . S
H311 C287 0.949 . S
H312 C289 0.950 . S
H313 C291 0.950 . S
C314 C315 1.349 . S
C314 C316 1.327 . S
C314 H339 0.950 . S
C315 C314 1.349 . S
C315 C331 1.349 . S
C316 C314 1.327 . S
C316 C335 1.429 . S
C316 H340 0.950 . S
C317 C334 1.574 . S
C317 C336 1.368 . S
C317 H341 0.949 . S
H318 C322 0.949 . S
C319 C320 1.349 . S
C319 C321 1.327 . S
C319 H342 0.950 . S
C320 C319 1.349 . S
C320 C332 1.349 . S
C321 C319 1.327 . S
C321 C337 1.429 . S
C321 H343 0.950 . S
C322 H318 0.949 . S
C322 C330 1.574 . S
C322 C338 1.368 . S
H323 C331 0.950 . S
H324 C329 0.950 . S
H325 C330 0.949 . S
H326 C332 0.950 . S
H327 C333 0.950 . S
H328 C334 0.949 . S
C329 H324 0.950 . S
C329 C331 1.327 . S
C329 C335 1.429 . S
C330 C322 1.574 . S
C330 H325 0.949 . S
C330 C336 1.368 . S
C331 C315 1.349 . S
C331 H323 0.950 . S
C331 C329 1.327 . S
C332 C320 1.349 . S
C332 H326 0.950 . S
C332 C333 1.327 . S
C333 H327 0.950 . S
C333 C332 1.327 . S
C333 C337 1.429 . S
C334 C317 1.574 . S
C334 H328 0.949 . S
C334 C338 1.368 . S
C335 C316 1.429 . S
C335 C329 1.429 . S
C335 C336 1.523 . S
C336 C317 1.368 . S
C336 C330 1.368 . S
C336 C335 1.523 . S
C337 C321 1.429 . S
C337 C333 1.429 . S
C337 C338 1.523 . S
C338 C322 1.368 . S
C338 C334 1.368 . S
C338 C337 1.523 . S
H339 C314 0.950 . S
H340 C316 0.950 . S
H341 C317 0.949 . S
H342 C319 0.950 . S
H343 C321 0.950 . S
C344 C345 1.349 1_565 S
C344 C346 1.327 . S
C344 H369 0.950 . S
C345 C344 1.349 1_545 S
C345 C361 1.349 . S
C346 C344 1.327 . S
C346 C365 1.429 1_565 S
C346 H370 0.950 . S
C347 C364 1.574 . S
C347 C366 1.368 . S
C347 H371 0.949 1_455 S
H348 C352 0.949 . S
C349 C350 1.349 . S
C349 C351 1.327 . S
C349 H372 0.950 1_455 S
C350 C349 1.349 . S
C350 C362 1.349 1_545 S
C351 C349 1.327 . S
C351 C367 1.429 . S
C351 H373 0.950 1_455 S
C352 H348 0.949 . S
C352 C360 1.574 . S
C352 C368 1.368 1_565 S
H353 C361 0.950 1_655 S
H354 C359 0.950 1_655 S
H355 C360 0.949 . S
H356 C362 0.950 . S
H357 C363 0.950 . S
H358 C364 0.949 1_655 S
C359 H354 0.950 1_455 S
C359 C361 1.327 . S
C359 C365 1.429 . S
C360 C352 1.574 . S
C360 H355 0.949 . S
C360 C366 1.368 1_565 S
C361 C345 1.349 . S
C361 H353 0.950 1_455 S
C361 C359 1.327 . S
C362 C350 1.349 1_565 S
C362 H356 0.950 . S
C362 C363 1.327 . S
C363 H357 0.950 . S
C363 C362 1.327 . S
C363 C367 1.429 1_565 S
C364 C347 1.574 . S
C364 H358 0.949 1_455 S
C364 C368 1.368 . S
C365 C346 1.429 1_545 S
C365 C359 1.429 . S
C365 C366 1.523 . S
C366 C347 1.368 . S
C366 C360 1.368 1_545 S
C366 C365 1.523 . S
C367 C351 1.429 . S
C367 C363 1.429 1_545 S
C367 C368 1.523 . S
C368 C352 1.368 1_545 S
C368 C364 1.368 . S
C368 C367 1.523 . S
H369 C344 0.950 . S
H370 C346 0.950 . S
H371 C347 0.949 1_655 S
H372 C349 0.950 1_655 S
H373 C351 0.950 1_655 S
C374 C375 1.349 . S
C374 C376 1.327 . S
C374 H399 0.950 . S
C375 C374 1.349 . S
C375 C391 1.349 1_445 S
C376 C374 1.327 . S
C376 C395 1.429 . S
C376 H400 0.950 . S
C377 C394 1.574 . S
C377 C396 1.368 1_665 S
C377 H401 0.949 . S
H378 C382 0.949 . S
C379 C380 1.349 1_565 S
C379 C381 1.327 . S
C379 H402 0.950 . S
C380 C379 1.349 1_545 S
C380 C392 1.349 1_655 S
C381 C379 1.327 . S
C381 C397 1.429 1_565 S
C381 H403 0.950 . S
C382 H378 0.949 . S
C382 C390 1.574 . S
C382 C398 1.366 1_455 S
H383 C391 0.950 . S
H384 C389 0.950 . S
H385 C390 0.949 . S
H386 C392 0.950 . S
H387 C393 0.950 . S
H388 C394 0.949 . S
C389 H384 0.950 . S
C389 C391 1.327 . S
C389 C395 1.429 1_665 S
C390 C382 1.574 . S
C390 H385 0.949 . S
C390 C396 1.368 . S
C391 C375 1.349 1_665 S
C391 H383 0.950 . S
C391 C389 1.327 . S
C392 C380 1.349 1_455 S
C392 H386 0.950 . S
C392 C393 1.327 . S
C393 H387 0.950 . S
C393 C392 1.327 . S
C393 C397 1.429 1_455 S
C394 C377 1.574 . S
C394 H388 0.949 . S
C394 C398 1.371 1_565 S
C395 C376 1.429 . S
C395 C389 1.429 1_445 S
C395 C396 1.523 . S
C396 C377 1.368 1_445 S
C396 C390 1.368 . S
C396 C395 1.523 . S
C397 C381 1.429 1_545 S
C397 C393 1.429 1_655 S
C397 C398 1.522 . S
C398 C382 1.366 1_655 S
C398 C394 1.371 1_545 S
C398 C397 1.522 . S
H399 C374 0.950 . S
H400 C376 0.950 . S
H401 C377 0.949 . S
H402 C379 0.950 . S
H403 C381 0.950 . S
C404 C405 1.349 . S
C404 C406 1.327 . S
C404 H429 0.950 . S
C405 C404 1.349 . S
C405 C421 1.349 . S
C406 C404 1.327 . S
C406 C425 1.429 . S
C406 H430 0.950 . S
C407 C424 1.574 . S
C407 C426 1.368 . S
C407 H431 0.949 . S
H408 C412 0.949 . S
C409 C410 1.349 . S
C409 C411 1.327 . S
C409 H432 0.950 . S
C410 C409 1.349 . S
C410 C422 1.349 . S
C411 C409 1.327 . S
C411 C427 1.429 . S
C411 H433 0.950 . S
C412 H408 0.949 . S
C412 C420 1.574 . S
C412 C428 1.368 . S
H413 C421 0.950 . S
H414 C419 0.950 . S
H415 C420 0.949 . S
H416 C422 0.950 . S
H417 C423 0.950 . S
H418 C424 0.949 . S
C419 H414 0.950 . S
C419 C421 1.327 . S
C419 C425 1.429 . S
C420 C412 1.574 . S
C420 H415 0.949 . S
C420 C426 1.368 . S
C421 C405 1.349 . S
C421 H413 0.950 . S
C421 C419 1.327 . S
C422 C410 1.349 . S
C422 H416 0.950 . S
C422 C423 1.327 . S
C423 H417 0.950 . S
C423 C422 1.327 . S
C423 C427 1.429 . S
C424 C407 1.574 . S
C424 H418 0.949 . S
C424 C428 1.368 . S
C425 C406 1.429 . S
C425 C419 1.429 . S
C425 C426 1.523 . S
C426 C407 1.368 . S
C426 C420 1.368 . S
C426 C425 1.523 . S
C427 C411 1.429 . S
C427 C423 1.429 . S
C427 C428 1.523 . S
C428 C412 1.368 . S
C428 C424 1.368 . S
C428 C427 1.523 . S
H429 C404 0.950 . S
H430 C406 0.950 . S
H431 C407 0.949 . S
H432 C409 0.950 . S
H433 C411 0.950 . S
C434 C435 1.349 . S
C434 C436 1.327 . S
C434 H459 0.950 . S
C435 C434 1.349 . S
C435 C451 1.349 . S
C436 C434 1.327 . S
C436 C455 1.429 . S
C436 H460 0.950 . S
C437 C454 1.574 . S
C437 C456 1.368 . S
C437 H461 0.949 . S
H438 C442 0.949 . S
C439 C440 1.349 . S
C439 C441 1.327 . S
C439 H462 0.950 . S
C440 C439 1.349 . S
C440 C452 1.349 . S
C441 C439 1.327 . S
C441 C457 1.429 . S
C441 H463 0.950 . S
C442 H438 0.949 . S
C442 C450 1.574 . S
C442 C458 1.368 . S
H443 C451 0.950 . S
H444 C449 0.950 . S
H445 C450 0.949 . S
H446 C452 0.950 . S
H447 C453 0.950 . S
H448 C454 0.949 . S
C449 H444 0.950 . S
C449 C451 1.327 . S
C449 C455 1.429 . S
C450 C442 1.574 . S
C450 H445 0.949 . S
C450 C456 1.368 . S
C451 C435 1.349 . S
C451 H443 0.950 . S
C451 C449 1.327 . S
C452 C440 1.349 . S
C452 H446 0.950 . S
C452 C453 1.327 . S
C453 H447 0.950 . S
C453 C452 1.327 . S
C453 C457 1.429 . S
C454 C437 1.574 . S
C454 H448 0.949 . S
C454 C458 1.368 . S
C455 C436 1.429 . S
C455 C449 1.429 . S
C455 C456 1.523 . S
C456 C437 1.368 . S
C456 C450 1.368 . S
C456 C455 1.523 . S
C457 C441 1.429 . S
C457 C453 1.429 . S
C457 C458 1.523 . S
C458 C442 1.368 . S
C458 C454 1.368 . S
C458 C457 1.523 . S
H459 C434 0.950 . S
H460 C436 0.950 . S
H461 C437 0.949 . S
H462 C439 0.950 . S
H463 C441 0.950 . S
C110 C97 1.435 . S
C105 C27 1.463 . S
C135 N6 1.299 . S
C140 C92 1.323 . S
C165 C16 1.376 . S
C170 C103 1.343 . S
C195 N14 1.422 1_556 S
C200 C86 1.421 . S
C225 C57 1.463 . S
C230 C75 1.435 . S
C255 N36 1.299 . S
C260 C70 1.322 . S
C290 C81 1.343 . S
C285 C46 1.376 . S
C320 C64 1.422 . S
C315 N44 1.422 . S
C345 C10 1.473 . S
C350 C65 1.470 1_545 S
C375 C1 1.541 . S
C380 C76 1.536 . S
C410 C87 1.470 . S
C405 C40 1.473 . S
C435 C31 1.541 . S
C440 C98 1.536 . S
