# Generated by pormake.
# Topology ptr, (4,4)-cn, num edge types: 1
# Building blocks:
#     Node 0, Type 0, BuildingBlock: AZAVOO_clean_sbu_0, # of connection points: 4
#     Node 1, Type 0, BuildingBlock: AZAVOO_clean_sbu_0, # of connection points: 4
#     Node 2, Type 0, BuildingBlock: AZAVOO_clean_sbu_0, # of connection points: 4
#     Node 3, Type 0, BuildingBlock: AZAVOO_clean_sbu_0, # of connection points: 4
#     Node 4, Type 0, BuildingBlock: AZAVOO_clean_sbu_0, # of connection points: 4
#     Node 5, Type 0, BuildingBlock: AZAVOO_clean_sbu_0, # of connection points: 4
#     Node 6, Type 0, BuildingBlock: AZAVOO_clean_sbu_0, # of connection points: 4
#     Node 7, Type 0, BuildingBlock: AZAVOO_clean_sbu_0, # of connection points: 4
#     Node 8, Type 0, BuildingBlock: AZAVOO_clean_sbu_0, # of connection points: 4
#     Node 9, Type 0, BuildingBlock: AZAVOO_clean_sbu_0, # of connection points: 4
#     Node 10, Type 0, BuildingBlock: AZAVOO_clean_sbu_0, # of connection points: 4
#     Node 11, Type 0, BuildingBlock: AZAVOO_clean_sbu_0, # of connection points: 4
#     Node 12, Type 0, BuildingBlock: AZAVOO_clean_sbu_0, # of connection points: 4
#     Node 13, Type 0, BuildingBlock: AZAVOO_clean_sbu_0, # of connection points: 4
#     Node 14, Type 0, BuildingBlock: AZAVOO_clean_sbu_0, # of connection points: 4
#     Node 15, Type 0, BuildingBlock: AZAVOO_clean_sbu_0, # of connection points: 4
#     Node 16, Type 0, BuildingBlock: AZAVOO_clean_sbu_0, # of connection points: 4
#     Node 17, Type 0, BuildingBlock: AZAVOO_clean_sbu_0, # of connection points: 4
#     Node 18, Type 1, BuildingBlock: AZAVOO_clean_linker_0, # of connection points: 4
#     Node 19, Type 1, BuildingBlock: AZAVOO_clean_linker_0, # of connection points: 4
#     Node 20, Type 1, BuildingBlock: AZAVOO_clean_linker_0, # of connection points: 4
#     Node 21, Type 1, BuildingBlock: AZAVOO_clean_linker_0, # of connection points: 4
#     Node 22, Type 1, BuildingBlock: AZAVOO_clean_linker_0, # of connection points: 4
#     Node 23, Type 1, BuildingBlock: AZAVOO_clean_linker_0, # of connection points: 4
#     Node 24, Type 1, BuildingBlock: AZAVOO_clean_linker_0, # of connection points: 4
#     Node 25, Type 1, BuildingBlock: AZAVOO_clean_linker_0, # of connection points: 4
#     Node 26, Type 1, BuildingBlock: AZAVOO_clean_linker_0, # of connection points: 4
#     Node 27, Type 1, BuildingBlock: AZAVOO_clean_linker_0, # of connection points: 4
#     Node 28, Type 1, BuildingBlock: AZAVOO_clean_linker_0, # of connection points: 4
#     Node 29, Type 1, BuildingBlock: AZAVOO_clean_linker_0, # of connection points: 4
#     Node 30, Type 1, BuildingBlock: AZAVOO_clean_linker_0, # of connection points: 4
#     Node 31, Type 1, BuildingBlock: AZAVOO_clean_linker_0, # of connection points: 4
#     Node 32, Type 1, BuildingBlock: AZAVOO_clean_linker_0, # of connection points: 4
#     Node 33, Type 1, BuildingBlock: AZAVOO_clean_linker_0, # of connection points: 4
#     Node 34, Type 1, BuildingBlock: AZAVOO_clean_linker_0, # of connection points: 4
#     Node 35, Type 1, BuildingBlock: AZAVOO_clean_linker_0, # of connection points: 4
#     Edge 36, Type (0, 1), BuildingBlock: FUNLAD_clean_linker_0, # of connection points: 2
#     Edge 37, Type (0, 1), BuildingBlock: FUNLAD_clean_linker_0, # of connection points: 2
#     Edge 38, Type (0, 1), BuildingBlock: FUNLAD_clean_linker_0, # of connection points: 2
#     Edge 39, Type (0, 1), BuildingBlock: FUNLAD_clean_linker_0, # of connection points: 2
#     Edge 40, Type (0, 1), BuildingBlock: FUNLAD_clean_linker_0, # of connection points: 2
#     Edge 41, Type (0, 1), BuildingBlock: FUNLAD_clean_linker_0, # of connection points: 2
#     Edge 42, Type (0, 1), BuildingBlock: FUNLAD_clean_linker_0, # of connection points: 2
#     Edge 43, Type (0, 1), BuildingBlock: FUNLAD_clean_linker_0, # of connection points: 2
#     Edge 44, Type (0, 1), BuildingBlock: FUNLAD_clean_linker_0, # of connection points: 2
#     Edge 45, Type (0, 1), BuildingBlock: FUNLAD_clean_linker_0, # of connection points: 2
#     Edge 46, Type (0, 1), BuildingBlock: FUNLAD_clean_linker_0, # of connection points: 2
#     Edge 47, Type (0, 1), BuildingBlock: FUNLAD_clean_linker_0, # of connection points: 2
#     Edge 48, Type (0, 1), BuildingBlock: FUNLAD_clean_linker_0, # of connection points: 2
#     Edge 49, Type (0, 1), BuildingBlock: FUNLAD_clean_linker_0, # of connection points: 2
#     Edge 50, Type (0, 1), BuildingBlock: FUNLAD_clean_linker_0, # of connection points: 2
#     Edge 51, Type (0, 1), BuildingBlock: FUNLAD_clean_linker_0, # of connection points: 2
#     Edge 52, Type (0, 1), BuildingBlock: FUNLAD_clean_linker_0, # of connection points: 2
#     Edge 53, Type (0, 1), BuildingBlock: FUNLAD_clean_linker_0, # of connection points: 2
#     Edge 54, Type (0, 1), BuildingBlock: FUNLAD_clean_linker_0, # of connection points: 2
#     Edge 55, Type (0, 1), BuildingBlock: FUNLAD_clean_linker_0, # of connection points: 2
#     Edge 56, Type (0, 1), BuildingBlock: FUNLAD_clean_linker_0, # of connection points: 2
#     Edge 57, Type (0, 1), BuildingBlock: FUNLAD_clean_linker_0, # of connection points: 2
#     Edge 58, Type (0, 1), BuildingBlock: FUNLAD_clean_linker_0, # of connection points: 2
#     Edge 59, Type (0, 1), BuildingBlock: FUNLAD_clean_linker_0, # of connection points: 2
#     Edge 60, Type (0, 1), BuildingBlock: FUNLAD_clean_linker_0, # of connection points: 2
#     Edge 61, Type (0, 1), BuildingBlock: FUNLAD_clean_linker_0, # of connection points: 2
#     Edge 62, Type (0, 1), BuildingBlock: FUNLAD_clean_linker_0, # of connection points: 2
#     Edge 63, Type (0, 1), BuildingBlock: FUNLAD_clean_linker_0, # of connection points: 2
#     Edge 64, Type (0, 1), BuildingBlock: FUNLAD_clean_linker_0, # of connection points: 2
#     Edge 65, Type (0, 1), BuildingBlock: FUNLAD_clean_linker_0, # of connection points: 2
#     Edge 66, Type (0, 1), BuildingBlock: FUNLAD_clean_linker_0, # of connection points: 2
#     Edge 67, Type (0, 1), BuildingBlock: FUNLAD_clean_linker_0, # of connection points: 2
#     Edge 68, Type (0, 1), BuildingBlock: FUNLAD_clean_linker_0, # of connection points: 2
#     Edge 69, Type (0, 1), BuildingBlock: FUNLAD_clean_linker_0, # of connection points: 2
#     Edge 70, Type (0, 1), BuildingBlock: FUNLAD_clean_linker_0, # of connection points: 2
#     Edge 71, Type (0, 1), BuildingBlock: FUNLAD_clean_linker_0, # of connection points: 2
#     Edge 72, Type (0, 1), BuildingBlock: FUNLAD_clean_linker_0, # of connection points: 2
#     Edge 73, Type (0, 1), BuildingBlock: FUNLAD_clean_linker_0, # of connection points: 2
#     Edge 74, Type (0, 1), BuildingBlock: FUNLAD_clean_linker_0, # of connection points: 2
#     Edge 75, Type (0, 1), BuildingBlock: FUNLAD_clean_linker_0, # of connection points: 2
#     Edge 76, Type (0, 1), BuildingBlock: FUNLAD_clean_linker_0, # of connection points: 2
#     Edge 77, Type (0, 1), BuildingBlock: FUNLAD_clean_linker_0, # of connection points: 2
#     Edge 78, Type (0, 1), BuildingBlock: FUNLAD_clean_linker_0, # of connection points: 2
#     Edge 79, Type (0, 1), BuildingBlock: FUNLAD_clean_linker_0, # of connection points: 2
#     Edge 80, Type (0, 1), BuildingBlock: FUNLAD_clean_linker_0, # of connection points: 2
#     Edge 81, Type (0, 1), BuildingBlock: FUNLAD_clean_linker_0, # of connection points: 2
#     Edge 82, Type (0, 1), BuildingBlock: FUNLAD_clean_linker_0, # of connection points: 2
#     Edge 83, Type (0, 1), BuildingBlock: FUNLAD_clean_linker_0, # of connection points: 2
#     Edge 84, Type (0, 1), BuildingBlock: FUNLAD_clean_linker_0, # of connection points: 2
#     Edge 85, Type (0, 1), BuildingBlock: FUNLAD_clean_linker_0, # of connection points: 2
#     Edge 86, Type (0, 1), BuildingBlock: FUNLAD_clean_linker_0, # of connection points: 2
#     Edge 87, Type (0, 1), BuildingBlock: FUNLAD_clean_linker_0, # of connection points: 2
#     Edge 88, Type (0, 1), BuildingBlock: FUNLAD_clean_linker_0, # of connection points: 2
#     Edge 89, Type (0, 1), BuildingBlock: FUNLAD_clean_linker_0, # of connection points: 2
#     Edge 90, Type (0, 1), BuildingBlock: FUNLAD_clean_linker_0, # of connection points: 2
#     Edge 91, Type (0, 1), BuildingBlock: FUNLAD_clean_linker_0, # of connection points: 2
#     Edge 92, Type (0, 1), BuildingBlock: FUNLAD_clean_linker_0, # of connection points: 2
#     Edge 93, Type (0, 1), BuildingBlock: FUNLAD_clean_linker_0, # of connection points: 2
#     Edge 94, Type (0, 1), BuildingBlock: FUNLAD_clean_linker_0, # of connection points: 2
#     Edge 95, Type (0, 1), BuildingBlock: FUNLAD_clean_linker_0, # of connection points: 2
#     Edge 96, Type (0, 1), BuildingBlock: FUNLAD_clean_linker_0, # of connection points: 2
#     Edge 97, Type (0, 1), BuildingBlock: FUNLAD_clean_linker_0, # of connection points: 2
#     Edge 98, Type (0, 1), BuildingBlock: FUNLAD_clean_linker_0, # of connection points: 2
#     Edge 99, Type (0, 1), BuildingBlock: FUNLAD_clean_linker_0, # of connection points: 2
#     Edge 100, Type (0, 1), BuildingBlock: FUNLAD_clean_linker_0, # of connection points: 2
#     Edge 101, Type (0, 1), BuildingBlock: FUNLAD_clean_linker_0, # of connection points: 2
#     Edge 102, Type (0, 1), BuildingBlock: FUNLAD_clean_linker_0, # of connection points: 2
#     Edge 103, Type (0, 1), BuildingBlock: FUNLAD_clean_linker_0, # of connection points: 2
#     Edge 104, Type (0, 1), BuildingBlock: FUNLAD_clean_linker_0, # of connection points: 2
#     Edge 105, Type (0, 1), BuildingBlock: FUNLAD_clean_linker_0, # of connection points: 2
#     Edge 106, Type (0, 1), BuildingBlock: FUNLAD_clean_linker_0, # of connection points: 2
#     Edge 107, Type (0, 1), BuildingBlock: FUNLAD_clean_linker_0, # of connection points: 2
# Relax obj value: 0.120
# Max RMSD: 0.323
# Mean RMSD: 0.192
data_MOF--net-ptr--node1-AZAVOO_clean_sbu_0--node2-AZAVOO_clean_linker_0--edge1-FUNLAD_clean_linker_0
_symmetry_space_group_name_H-M    P1
_symmetry_Int_Tables_number       1
_symmetry_cell_setting            triclinic
loop_
_symmetry_equiv_pos_as_xyz
'x, y, z'
_cell_length_a     93.790492
_cell_length_b     91.107452
_cell_length_c     76.053439
_cell_angle_alpha  93.392988
_cell_angle_beta   93.377318
_cell_angle_gamma 120.14176
loop_
_atom_site_label
_atom_site_type_symbol
_atom_site_fract_x
_atom_site_fract_y
_atom_site_fract_z
_atom_type_partial_charge
Mg0 Mg 0.01949 0.36013 0.9944 0.0
O1 O 0.00846 0.36741 0.01729 0.0
O2 O 0.988 0.37076 0.00554 0.0
Mg3 Mg 0.98604 0.36588 0.97542 0.0
C4 C 0.99697 0.37091 0.01892 0.0
C5 C 0.03974 0.35811 0.02868 0.0
O6 O 0.04043 0.3723 0.03465 0.0
O7 O 0.997 0.33331 0.98996 0.0
O8 O 0.97743 0.33754 0.97732 0.0
O9 O 0.03721 0.38787 0.9923 0.0
O10 O 0.01232 0.37295 0.9776 0.0
C11 C 0.98229 0.32762 0.9828 0.0
C12 C 0.0257 0.38745 0.9816 0.0
O13 O 0.03242 0.35095 0.01339 0.0
Mg14 Mg 0.64041 0.63321 0.08421 0.0
O15 O 0.62216 0.62834 0.06009 0.0
O16 O 0.59913 0.62597 0.06978 0.0
Mg17 Mg 0.60291 0.62972 0.10009 0.0
C18 C 0.60754 0.62592 0.0572 0.0
C19 C 0.6741 0.64089 0.07192 0.0
O20 O 0.67476 0.63534 0.08734 0.0
O21 O 0.64632 0.66057 0.08887 0.0
O22 O 0.62361 0.65778 0.09984 0.0
O23 O 0.62936 0.60517 0.08553 0.0
O24 O 0.62094 0.62092 0.09957 0.0
C25 C 0.63825 0.66704 0.09542 0.0
C26 C 0.61908 0.60609 0.09557 0.0
O27 O 0.6612 0.6412 0.0665 0.0
Mg28 Mg 0.36675 0.9873 0.00098 0.0
O29 O 0.3857 0.99567 0.02521 0.0
O30 O 0.40895 0.01912 0.0202 0.0
Mg31 Mg 0.40489 0.02519 0.99212 0.0
C32 C 0.40053 0.0076 0.03015 0.0
C33 C 0.33195 0.96862 0.01298 0.0
O34 O 0.32963 0.97445 0.99834 0.0
O35 O 0.36264 0.00929 0.00778 0.0
O36 O 0.38543 0.03199 0.00055 0.0
O37 O 0.37615 0.97115 0.98917 0.0
O38 O 0.38563 0.99813 0.98474 0.0
C39 C 0.37105 0.02518 0.00605 0.0
C40 C 0.3866 0.98458 0.98212 0.0
O41 O 0.34626 0.97101 0.0176 0.0
Mg42 Mg 0.98733 0.64876 0.06791 0.0
O43 O -0.00057 0.64042 0.04711 0.0
O44 O 0.0199 0.63845 0.06122 0.0
Mg45 Mg 0.02107 0.64564 0.09072 0.0
C46 C 0.0112 0.63717 0.04703 0.0
C47 C 0.9716 0.66738 0.04961 0.0
O48 O 0.97639 0.67553 0.0656 0.0
O49 O 0.00931 0.67605 0.07096 0.0
O50 O 0.02908 0.67313 0.08535 0.0
O51 O 0.97024 0.62132 0.07179 0.0
O52 O 0.99462 0.63783 0.08711 0.0
C53 C 0.02405 0.68233 0.07832 0.0
C54 C 0.98166 0.62292 0.08349 0.0
O55 O 0.97423 0.65518 0.04605 0.0
Mg56 Mg 0.36363 0.37369 0.98144 0.0
O57 O 0.3831 0.38149 0.00512 0.0
O58 O 0.40698 0.38674 0.99519 0.0
Mg59 Mg 0.40262 0.38231 0.96489 0.0
C60 C 0.39834 0.38584 0.00788 0.0
C61 C 0.32902 0.36074 0.99463 0.0
O62 O 0.32627 0.36394 0.97856 0.0
O63 O 0.36129 0.34769 0.97739 0.0
O64 O 0.38481 0.35353 0.96606 0.0
O65 O 0.37126 0.40101 0.97937 0.0
O66 O 0.38202 0.38748 0.96543 0.0
C67 C 0.37071 0.3429 0.97089 0.0
C68 C 0.38198 0.40144 0.9691 0.0
O69 O 0.34341 0.36373 -3e-05 0.0
Mg70 Mg 0.63874 0.01751 0.06458 0.0
O71 O 0.62144 0.00939 0.0389 0.0
O72 O 0.59861 0.98463 0.04181 0.0
Mg73 Mg 0.60103 0.9775 0.06975 0.0
C74 C 0.60723 0.99691 0.03273 0.0
C75 C 0.67426 0.03715 0.05498 0.0
O76 O 0.67552 0.02968 0.06875 0.0
O77 O 0.64481 0.9969 0.05783 0.0
O78 O 0.62221 0.97286 0.06294 0.0
O79 O 0.62722 0.03183 0.0758 0.0
O80 O 0.61858 0.00473 0.07881 0.0
C81 C 0.63705 0.98084 0.05867 0.0
C82 C 0.6166 0.01765 0.08158 0.0
O83 O 0.66033 0.03564 0.05018 0.0
Mg84 Mg 0.67826 0.69589 0.33229 0.0
O85 O 0.66663 0.70537 0.35268 0.0
O86 O 0.648 0.70958 0.33763 0.0
Mg87 Mg 0.64667 0.70168 0.30829 0.0
C88 C 0.65584 0.71002 0.35214 0.0
C89 C 0.70256 0.68693 0.35042 0.0
O90 O 0.70734 0.68977 0.33445 0.0
O91 O 0.65524 0.66926 0.32907 0.0
O92 O 0.63699 0.6739 0.31388 0.0
O93 O 0.69676 0.72304 0.32826 0.0
O94 O 0.67242 0.70752 0.31264 0.0
C95 C 0.64083 0.66391 0.32121 0.0
C96 C 0.68588 0.722 0.31617 0.0
O97 O 0.69041 0.68859 0.35432 0.0
Mg98 Mg 0.3034 0.96518 0.4193 0.0
O99 O 0.28399 0.95921 0.39598 0.0
O100 O 0.26152 0.95732 0.40665 0.0
Mg101 Mg 0.26678 0.96243 0.43683 0.0
C102 C 0.2693 0.9567 0.39367 0.0
C103 C 0.33241 0.96529 0.40271 0.0
O104 O 0.33046 0.95603 0.41595 0.0
O105 O 0.30944 0.99268 0.42279 0.0
O106 O 0.28705 0.99023 0.43432 0.0
O107 O 0.29267 0.93749 0.42178 0.0
O108 O 0.28485 0.95374 0.43597 0.0
C109 C 0.3014 0.9993 0.42912 0.0
C110 C 0.28293 0.93882 0.43231 0.0
O111 O 0.32297 0.97139 0.40031 0.0
Mg112 Mg 0.0446 0.32195 0.34002 0.0
O113 O 0.06424 0.32986 0.36366 0.0
O114 O 0.08829 0.35065 0.35614 0.0
Mg115 Mg 0.0842 0.35557 0.32772 0.0
C116 C 0.07967 0.34075 0.36731 0.0
C117 C 0.01074 0.30862 0.35352 0.0
O118 O 0.00986 0.3162 0.33967 0.0
O119 O 0.04413 0.34634 0.34593 0.0
O120 O 0.0679 0.36626 0.33693 0.0
O121 O 0.05033 0.30258 0.32838 0.0
O122 O 0.0626 0.3295 0.32268 0.0
C123 C 0.05414 0.36176 0.34332 0.0
C124 C 0.06131 0.31477 0.32028 0.0
O125 O 0.02394 0.30831 0.35749 0.0
Mg126 Mg 0.6515 0.96923 0.40195 0.0
O127 O 0.66494 0.96019 0.38366 0.0
O128 O 0.68332 0.95713 0.40077 0.0
Mg129 Mg 0.68269 0.96542 0.4295 0.0
C130 C 0.67615 0.95618 0.38559 0.0
C131 C 0.63864 0.9885 0.38013 0.0
O132 O 0.64487 0.9984 0.39512 0.0
O133 O 0.67402 0.99619 0.40535 0.0
O134 O 0.69225 0.99283 0.4224 0.0
O135 O 0.63345 0.94206 0.40613 0.0
O136 O 0.65689 0.9587 0.42303 0.0
C137 C 0.68827 0.00217 0.41391 0.0
C138 C 0.64383 0.94391 0.41928 0.0
O139 O 0.63969 0.97512 0.37825 0.0
Mg140 Mg 0.03543 0.71671 0.32387 0.0
O141 O 0.05621 0.7233 0.34574 0.0
O142 O 0.07927 0.72961 0.33313 0.0
Mg143 Mg 0.07309 0.72701 0.30306 0.0
C144 C 0.07153 0.72778 0.34685 0.0
C145 C 0.0022 0.69259 0.33806 0.0
O146 O 0.99931 0.68631 0.32138 0.0
O147 O 0.03298 0.69093 0.31661 0.0
O148 O 0.05554 0.698 0.30267 0.0
O149 O 0.04299 0.74432 0.32448 0.0
O150 O 0.05256 0.73158 0.30723 0.0
C151 C 0.04193 0.6868 0.30799 0.0
C152 C 0.05285 0.74535 0.31276 0.0
O153 O 0.01629 0.70547 0.34352 0.0
Mg154 Mg 0.29836 0.35837 0.39448 0.0
O155 O 0.27896 0.34583 0.37045 0.0
O156 O 0.25671 0.32291 0.37829 0.0
Mg157 Mg 0.26181 0.32137 0.40777 0.0
C158 C 0.26444 0.33286 0.36671 0.0
C159 C 0.33273 0.37613 0.3814 0.0
O160 O 0.33556 0.37205 0.39698 0.0
O161 O 0.30388 0.33695 0.39175 0.0
O162 O 0.28208 0.31504 0.40159 0.0
O163 O 0.28804 0.37474 0.40299 0.0
O164 O 0.27988 0.34912 0.41139 0.0
C165 C 0.29628 0.32162 0.39568 0.0
C166 C 0.27828 0.36237 0.41178 0.0
O167 O 0.31819 0.37291 0.3764 0.0
Mg168 Mg 0.34729 0.02903 0.66529 0.0
O169 O 0.33641 0.03898 0.686 0.0
O170 O 0.31588 0.04099 0.67213 0.0
Mg171 Mg 0.31351 0.03225 0.64278 0.0
C172 C 0.32495 0.04268 0.68617 0.0
C173 C 0.36742 0.01455 0.68277 0.0
O174 O 0.36547 0.00882 0.66602 0.0
O175 O 0.32489 0.00213 0.66406 0.0
O176 O 0.3051 0.00496 0.64956 0.0
O177 O 0.36473 0.05579 0.65957 0.0
O178 O 0.33974 0.03924 0.64551 0.0
C179 C 0.31002 0.99587 0.65708 0.0
C180 C 0.35312 0.05394 0.64797 0.0
O181 O 0.36112 0.02356 0.68725 0.0
Mg182 Mg 0.96974 0.29269 0.74481 0.0
O183 O 0.95096 0.28554 0.72035 0.0
O184 O 0.92702 0.28039 0.73015 0.0
Mg185 Mg 0.93018 0.28342 0.7604 0.0
C186 C 0.9358 0.28152 0.71752 0.0
C187 C 0.00353 0.30178 0.73337 0.0
O188 O 0.00264 0.29409 0.7477 0.0
O189 O 0.972 0.31867 0.74941 0.0
O190 O 0.94803 0.31222 0.76007 0.0
O191 O 0.96212 0.2653 0.74614 0.0
O192 O 0.95069 0.27825 0.75982 0.0
C193 C 0.96226 0.32311 0.75574 0.0
C194 C 0.95096 0.26444 0.75597 0.0
O195 O 0.99128 0.30324 0.7279 0.0
Mg196 Mg 0.71406 0.66218 0.67299 0.0
O197 O 0.73465 0.67363 0.69597 0.0
O198 O 0.75626 0.69701 0.68791 0.0
Mg199 Mg 0.7497 0.6998 0.65928 0.0
C200 C 0.74928 0.68652 0.6993 0.0
C201 C 0.68024 0.64166 0.68669 0.0
O202 O 0.67654 0.64513 0.67113 0.0
O203 O 0.70878 0.68357 0.67846 0.0
O204 O 0.72999 0.70589 0.66835 0.0
O205 O 0.72382 0.64617 0.66179 0.0
O206 O 0.73144 0.67217 0.65497 0.0
C207 C 0.71621 0.69911 0.67517 0.0
C208 C 0.73304 0.65895 0.65316 0.0
O209 O 0.69528 0.64655 0.69159 0.0
Mg210 Mg 0.32623 0.31207 0.73502 0.0
O211 O 0.3397 0.30438 0.7153 0.0
O212 O 0.35782 0.3001 0.73129 0.0
Mg213 Mg 0.35616 0.30496 0.76065 0.0
C214 C 0.35096 0.30036 0.7164 0.0
C215 C 0.30673 0.31186 0.69941 0.0
O216 O 0.30305 0.29587 0.69731 0.0
O217 O 0.34902 0.33873 0.74131 0.0
O218 O 0.36602 0.33331 0.75781 0.0
O219 O 0.3073 0.2844 0.73625 0.0
O220 O 0.33049 0.29882 0.75403 0.0
C221 C 0.36271 0.34376 0.7507 0.0
C222 C 0.31722 0.28451 0.74892 0.0
O223 O 0.31603 0.32137 0.71305 0.0
Mg224 Mg 0.70243 0.04158 0.64585 0.0
O225 O 0.72018 0.04589 0.67017 0.0
O226 O 0.74374 0.04913 0.66118 0.0
Mg227 Mg 0.74106 0.04733 0.63087 0.0
C228 C 0.73478 0.04839 0.67349 0.0
C229 C 0.66632 0.0253 0.65654 0.0
O230 O 0.66305 0.02307 0.63923 0.0
O231 O 0.69736 0.01461 0.63975 0.0
O232 O 0.72077 0.01894 0.62922 0.0
O233 O 0.71265 0.06956 0.64623 0.0
O234 O 0.72247 0.05545 0.63155 0.0
C235 C 0.70601 0.00896 0.63293 0.0
C236 C 0.72362 0.06983 0.63648 0.0
O237 O 0.6813 0.03244 0.66322 0.0
Mg238 Mg 0.95786 0.68639 0.72573 0.0
O239 O 0.93729 0.67476 0.7026 0.0
O240 O 0.91468 0.65353 0.71215 0.0
Mg241 Mg 0.9206 0.6522 0.74142 0.0
C242 C 0.9222 0.66264 0.69993 0.0
C243 C 0.99164 0.70144 0.71245 0.0
O244 O 0.99374 0.69752 0.72838 0.0
O245 O 0.96072 0.66322 0.72273 0.0
O246 O 0.93853 0.64301 0.73388 0.0
O247 O 0.9502 0.70498 0.73484 0.0
O248 O 0.94041 0.67927 0.74366 0.0
C249 C 0.9522 0.64811 0.72708 0.0
C250 C 0.94022 0.69332 0.74419 0.0
O251 O 0.9775 0.69904 0.70692 0.0
H252 H 0.16013 0.33002 0.03656 0.0
H253 H 0.25789 0.28649 0.16743 0.0
H254 H 0.15867 0.32981 0.13596 0.0
H255 H 0.13745 0.33611 0.12537 0.0
H256 H 0.1012 0.28218 0.11863 0.0
H257 H 0.12274 0.27599 0.12925 0.0
H258 H 0.18241 0.33054 0.11019 0.0
H259 H 0.17673 0.33534 0.0799 0.0
H260 H 0.13776 0.28246 0.0698 0.0
H261 H 0.14371 0.2778 0.10008 0.0
H262 H 0.21045 0.33025 0.13089 0.0
H263 H 0.23054 0.33823 0.10901 0.0
H264 H 0.20054 0.28828 0.08016 0.0
H265 H 0.18045 0.28037 0.10224 0.0
H266 H 0.21174 0.32327 0.16954 0.0
H267 H 0.23747 0.32382 0.17874 0.0
H268 H 0.21887 0.27502 0.14821 0.0
H269 H 0.19313 0.27456 0.13927 0.0
H270 H 0.18055 0.32086 0.18738 0.0
H271 H 0.19011 0.32257 0.21831 0.0
H272 H 0.18811 0.27434 0.20802 0.0
H273 H 0.17759 0.27231 0.17714 0.0
H274 H 0.15204 0.31966 0.17065 0.0
H275 H 0.13441 0.31608 0.19431 0.0
H276 H 0.12184 0.26348 0.19446 0.0
H277 H 0.13963 0.26724 0.17074 0.0
O278 O 0.16222 0.32782 0.04845 0.0
O279 O 0.14228 0.30055 0.04396 0.0
O280 O 0.25682 0.31166 0.17952 0.0
O281 O 0.24785 0.2866 0.164 0.0
C282 C 0.15576 0.29908 0.13819 0.0
C283 C 0.16691 0.30092 0.12565 0.0
C284 C 0.18147 0.30064 0.13078 0.0
C285 C 0.18487 0.2984 0.14843 0.0
C286 C 0.17361 0.29632 0.16096 0.0
C287 C 0.15885 0.29626 0.1557 0.0
C288 C 0.1422 0.30246 0.13341 0.0
C289 C 0.14608 0.31937 0.13244 0.0
C290 C 0.13393 0.32294 0.12647 0.0
C291 C 0.11763 0.30965 0.12121 0.0
C292 C 0.11368 0.29268 0.12251 0.0
C293 C 0.12589 0.28911 0.12865 0.0
C294 C 0.16356 0.3038 0.10723 0.0
C295 C 0.17274 0.31999 0.10135 0.0
C296 C 0.16943 0.3227 0.08408 0.0
C297 C 0.15681 0.30927 0.07241 0.0
C298 C 0.14759 0.29307 0.07842 0.0
C299 C 0.15095 0.29037 0.09569 0.0
C300 C 0.19408 0.30473 0.11814 0.0
C301 C 0.20833 0.32098 0.11995 0.0
C302 C 0.21969 0.32555 0.10739 0.0
C303 C 0.21702 0.3139 0.09286 0.0
C304 C 0.20292 0.29745 0.0913 0.0
C305 C 0.19146 0.29294 0.10383 0.0
C306 C 0.20055 0.29882 0.15385 0.0
C307 C 0.21323 0.31268 0.16493 0.0
C308 C 0.22792 0.31298 0.17012 0.0
C309 C 0.23021 0.29944 0.16423 0.0
C310 C 0.2175 0.28564 0.15301 0.0
C311 C 0.2028 0.28534 0.14786 0.0
C312 C 0.17828 0.29642 0.18001 0.0
C313 C 0.18183 0.31048 0.19188 0.0
C314 C 0.18753 0.31154 0.20951 0.0
C315 C 0.1901 0.2987 0.21563 0.0
C316 C 0.18615 0.28439 0.2038 0.0
C317 C 0.18024 0.28324 0.18614 0.0
C318 C 0.14691 0.29364 0.16881 0.0
C319 C 0.14516 0.30726 0.17549 0.0
C320 C 0.13512 0.30519 0.18904 0.0
C321 C 0.12669 0.28947 0.19622 0.0
C322 C 0.12827 0.27577 0.1893 0.0
C323 C 0.13831 0.27785 0.17569 0.0
C324 C 0.15328 0.31221 0.05408 0.0
C325 C 0.24578 0.29967 0.16974 0.0
H326 H 0.69462 0.83745 0.06616 0.0
H327 H 0.73777 0.99258 0.20368 0.0
H328 H 0.68365 0.8424 0.17535 0.0
H329 H 0.67307 0.81303 0.16313 0.0
H330 H 0.72138 0.82705 0.14709 0.0
H331 H 0.73206 0.85652 0.15995 0.0
H332 H 0.68762 0.85516 0.13904 0.0
H333 H 0.68561 0.84426 0.10828 0.0
H334 H 0.73797 0.87964 0.10703 0.0
H335 H 0.73983 0.89027 0.13791 0.0
H336 H 0.68925 0.88723 0.14244 0.0
H337 H 0.68558 0.90193 0.11836 0.0
H338 H 0.73739 0.94085 0.12759 0.0
H339 H 0.74102 0.92578 0.15171 0.0
H340 H 0.69254 0.90838 0.18178 0.0
H341 H 0.69401 0.93576 0.18855 0.0
H342 H 0.74751 0.96096 0.19614 0.0
H343 H 0.74581 0.93348 0.18934 0.0
H344 H 0.68856 0.88196 0.21026 0.0
H345 H 0.68506 0.89252 0.23903 0.0
H346 H 0.738 0.92678 0.24846 0.0
H347 H 0.74143 0.91573 0.21968 0.0
H348 H 0.68809 0.85467 0.20743 0.0
H349 H 0.68665 0.83562 0.22948 0.0
H350 H 0.73897 0.85418 0.22832 0.0
H351 H 0.74032 0.87347 0.20646 0.0
O352 O 0.69571 0.84192 0.07834 0.0
O353 O 0.72265 0.8604 0.07836 0.0
O354 O 0.70928 0.96803 0.19696 0.0
O355 O 0.73682 0.9816 0.20094 0.0
C356 C 0.71381 0.8697 0.17328 0.0
C357 C 0.71519 0.87992 0.15948 0.0
C358 C 0.71714 0.8962 0.16338 0.0
C359 C 0.7181 0.90242 0.18111 0.0
C360 C 0.71686 0.89228 0.19494 0.0
C361 C 0.71497 0.87601 0.19104 0.0
C362 C 0.70866 0.85154 0.16874 0.0
C363 C 0.69211 0.83903 0.16977 0.0
C364 C 0.68602 0.82232 0.1625 0.0
C365 C 0.69634 0.81782 0.15391 0.0
C366 C 0.71317 0.83016 0.15368 0.0
C367 C 0.71929 0.84695 0.16103 0.0
C368 C 0.71391 0.87335 0.14075 0.0
C369 C 0.69866 0.86043 0.13214 0.0
C370 C 0.69754 0.85428 0.11455 0.0
C371 C 0.71164 0.86105 0.1052 0.0
C372 C 0.72688 0.87412 0.11385 0.0
C373 C 0.72799 0.88022 0.13147 0.0
C374 C 0.7154 0.90541 0.14873 0.0
C375 C 0.69986 0.89881 0.13913 0.0
C376 C 0.69782 0.90717 0.12532 0.0
C377 C 0.71125 0.92243 0.12097 0.0
C378 C 0.72684 0.9291 0.13067 0.0
C379 C 0.72893 0.92056 0.14442 0.0
C380 C 0.71907 0.91903 0.18508 0.0
C381 C 0.70454 0.91985 0.18489 0.0
C382 C 0.70543 0.93549 0.18877 0.0
C383 C 0.72089 0.95056 0.19289 0.0
C384 C 0.73541 0.94962 0.19303 0.0
C385 C 0.7345 0.93397 0.18915 0.0
C386 C 0.71527 0.89781 0.21308 0.0
C387 C 0.69944 0.89139 0.21874 0.0
C388 C 0.69747 0.89749 0.23513 0.0
C389 C 0.71127 0.9104 0.246 0.0
C390 C 0.72716 0.91683 0.24031 0.0
C391 C 0.72915 0.9105 0.22398 0.0
C392 C 0.71434 0.86552 0.20547 0.0
C393 C 0.69929 0.85485 0.21219 0.0
C394 C 0.69848 0.84387 0.22465 0.0
C395 C 0.71269 0.84334 0.23058 0.0
C396 C 0.72785 0.85442 0.22416 0.0
C397 C 0.72864 0.86538 0.21164 0.0
C398 C 0.7104 0.85449 0.0865 0.0
C399 C 0.72191 0.96721 0.19704 0.0
H400 H 0.13612 0.86083 0.0521 0.0
H401 H 0.28513 0.96677 0.18593 0.0
H402 H 0.13243 0.87144 0.14379 0.0
H403 H 0.10843 0.84418 0.13111 0.0
H404 H 0.12876 0.81732 0.15818 0.0
H405 H 0.15291 0.8445 0.17013 0.0
H406 H 0.16261 0.89835 0.12245 0.0
H407 H 0.15139 0.88685 0.09169 0.0
H408 H 0.15249 0.84105 0.10105 0.0
H409 H 0.16393 0.8528 0.13169 0.0
H410 H 0.20082 0.92857 0.13964 0.0
H411 H 0.21941 0.93884 0.11611 0.0
H412 H 0.21602 0.8898 0.1083 0.0
H413 H 0.1979 0.87981 0.13202 0.0
H414 H 0.20364 0.93619 0.18305 0.0
H415 H 0.23209 0.95999 0.19015 0.0
H416 H 0.25058 0.92723 0.17256 0.0
H417 H 0.22209 0.90351 0.16571 0.0
H418 H 0.17703 0.91382 0.20928 0.0
H419 H 0.19061 0.92397 0.23967 0.0
H420 H 0.22075 0.9014 0.22978 0.0
H421 H 0.20733 0.89158 0.19956 0.0
H422 H 0.13865 0.88143 0.18701 0.0
H423 H 0.12041 0.86594 0.20938 0.0
H424 H 0.15457 0.84989 0.22717 0.0
H425 H 0.17253 0.86509 0.20462 0.0
O426 O 0.14065 0.86516 0.06429 0.0
O427 O 0.14139 0.84185 0.06981 0.0
O428 O 0.26363 0.97388 0.19223 0.0
O429 O 0.27377 0.95759 0.18326 0.0
C430 C 0.16073 0.87601 0.16195 0.0
C431 C 0.17061 0.88337 0.14804 0.0
C432 C 0.18703 0.89712 0.1519 0.0
C433 C 0.19352 0.90377 0.16965 0.0
C434 C 0.1837 0.8964 0.18359 0.0
C435 C 0.16724 0.88261 0.17974 0.0
C436 C 0.14448 0.85996 0.15778 0.0
C437 C 0.13148 0.85965 0.14728 0.0
C438 C 0.11778 0.84407 0.14007 0.0
C439 C 0.11687 0.82861 0.14338 0.0
C440 C 0.12929 0.82902 0.15507 0.0
C441 C 0.14299 0.84454 0.16213 0.0
C442 C 0.16394 0.87635 0.12932 0.0
C443 C 0.16045 0.88585 0.11781 0.0
C444 C 0.15402 0.87924 0.10026 0.0
C445 C 0.15099 0.86301 0.09392 0.0
C446 C 0.15463 0.85357 0.1055 0.0
C447 C 0.16111 0.86022 0.12302 0.0
C448 C 0.19792 0.90341 0.13742 0.0
C449 C 0.20412 0.92009 0.13282 0.0
C450 C 0.2147 0.92591 0.11945 0.0
C451 C 0.21902 0.91505 0.11035 0.0
C452 C 0.21268 0.89833 0.11492 0.0
C453 C 0.20234 0.89263 0.12844 0.0
C454 C 0.21082 0.91818 0.17376 0.0
C455 C 0.21387 0.9342 0.18075 0.0
C456 C 0.23012 0.94776 0.18478 0.0
C457 C 0.24362 0.94552 0.18188 0.0
C458 C 0.24049 0.92941 0.17491 0.0
C459 C 0.22423 0.91585 0.17092 0.0
C460 C 0.19132 0.90212 0.2022 0.0
C461 C 0.18655 0.91107 0.21376 0.0
C462 C 0.19427 0.9168 0.2311 0.0
C463 C 0.20689 0.91364 0.23709 0.0
C464 C 0.21136 0.90438 0.22549 0.0
C465 C 0.20366 0.89869 0.20825 0.0
C466 C 0.15698 0.8745 0.19428 0.0
C467 C 0.14226 0.87472 0.19588 0.0
C468 C 0.13187 0.86588 0.20862 0.0
C469 C 0.13613 0.8568 0.22005 0.0
C470 C 0.15112 0.85703 0.21875 0.0
C471 C 0.16139 0.86569 0.20588 0.0
C472 C 0.14406 0.85598 0.0753 0.0
C473 C 0.2609 0.95988 0.18612 0.0
H474 H 0.28265 0.15441 0.00315 0.0
H475 H 0.30022 0.03088 0.87794 0.0
H476 H 0.27352 0.15126 0.90847 0.0
H477 H 0.28146 0.18036 0.92017 0.0
H478 H 0.33082 0.19873 0.90489 0.0
H479 H 0.32289 0.16971 0.89351 0.0
H480 H 0.2686 0.11955 0.93173 0.0
H481 H 0.26967 0.13063 0.9622 0.0
H482 H 0.32121 0.16879 0.96066 0.0
H483 H 0.32002 0.15744 0.9303 0.0
H484 H 0.26928 0.08484 0.9178 0.0
H485 H 0.27344 0.06981 0.94156 0.0
H486 H 0.32426 0.11098 0.95276 0.0
H487 H 0.31993 0.12579 0.92926 0.0
H488 H 0.26563 0.07932 0.87302 0.0
H489 H 0.26374 0.05168 0.86691 0.0
H490 H 0.31389 0.0732 0.89139 0.0
H491 H 0.31567 0.10079 0.89721 0.0
H492 H 0.26986 0.10735 0.84591 0.0
H493 H 0.27213 0.09683 0.81634 0.0
H494 H 0.32052 0.10543 0.83465 0.0
H495 H 0.31834 0.11642 0.86378 0.0
H496 H 0.27057 0.14192 0.86557 0.0
H497 H 0.27406 0.16224 0.84411 0.0
H498 H 0.32309 0.17097 0.83755 0.0
H499 H 0.31956 0.15081 0.85917 0.0
O500 O 0.28252 0.15019 0.99112 0.0
O501 O 0.30896 0.1696 0.98961 0.0
O502 O 0.27494 0.03125 0.86759 0.0
O503 O 0.30064 0.04167 0.88015 0.0
C504 C 0.29404 0.14068 0.89609 0.0
C505 C 0.29336 0.13104 0.91024 0.0
C506 C 0.29244 0.11518 0.90685 0.0
C507 C 0.29177 0.10873 0.88927 0.0
C508 C 0.2925 0.1184 0.8751 0.0
C509 C 0.29347 0.13431 0.8785 0.0
C510 C 0.29762 0.15842 0.90012 0.0
C511 C 0.28592 0.16166 0.90731 0.0
C512 C 0.29047 0.17824 0.91397 0.0
C513 C 0.30681 0.19173 0.91361 0.0
C514 C 0.31822 0.18852 0.90556 0.0
C515 C 0.31365 0.17201 0.89887 0.0
C516 C 0.29417 0.13779 0.92877 0.0
C517 C 0.2801 0.13029 0.93802 0.0
C518 C 0.28075 0.13666 0.95541 0.0
C519 C 0.29551 0.15064 0.96385 0.0
C520 C 0.30963 0.15805 0.95454 0.0
C521 C 0.30897 0.15163 0.93718 0.0
C522 C 0.29429 0.10641 0.92189 0.0
C523 C 0.28122 0.09063 0.92557 0.0
C524 C 0.28364 0.08208 0.93908 0.0
C525 C 0.29916 0.08924 0.94912 0.0
C526 C 0.31206 0.10526 0.94558 0.0
C527 C 0.30964 0.11372 0.93209 0.0
C528 C 0.29072 0.092 0.88568 0.0
C529 C 0.27618 0.07802 0.87704 0.0
C530 C 0.27514 0.06226 0.87358 0.0
C531 C 0.28866 0.06022 0.87871 0.0
C532 C 0.30324 0.07431 0.88731 0.0
C533 C 0.30427 0.09007 0.89072 0.0
C534 C 0.2939 0.11254 0.85698 0.0
C535 C 0.28098 0.10707 0.84342 0.0
C536 C 0.28226 0.10095 0.82661 0.0
C537 C 0.29651 0.10025 0.82312 0.0
C538 C 0.30948 0.106 0.83676 0.0
C539 C 0.30821 0.11214 0.85347 0.0
C540 C 0.29479 0.14488 0.86387 0.0
C541 C 0.28193 0.14801 0.85924 0.0
C542 C 0.28392 0.15955 0.84695 0.0
C543 C 0.29887 0.16823 0.83921 0.0
C544 C 0.31149 0.16457 0.84342 0.0
C545 C 0.30946 0.15298 0.85564 0.0
C546 C 0.29614 0.15742 0.98229 0.0
C547 C 0.2876 0.04349 0.87512 0.0
H548 H 0.83697 0.1525 0.01322 0.0
H549 H 0.74549 0.00404 0.871 0.0
H550 H 0.83507 0.15525 0.91523 0.0
H551 H 0.85596 0.18369 0.92871 0.0
H552 H 0.89367 0.16984 0.92554 0.0
H553 H 0.87256 0.14142 0.91153 0.0
H554 H 0.81259 0.12911 0.93848 0.0
H555 H 0.81889 0.13969 0.96993 0.0
H556 H 0.8609 0.1321 0.9726 0.0
H557 H 0.85434 0.12137 0.94117 0.0
H558 H 0.78449 0.09706 0.91338 0.0
H559 H 0.7657 0.08498 0.93608 0.0
H560 H 0.80043 0.07396 0.96347 0.0
H561 H 0.81926 0.08613 0.94047 0.0
H562 H 0.78277 0.08894 0.87562 0.0
H563 H 0.75878 0.06085 0.86552 0.0
H564 H 0.78363 0.03694 0.88997 0.0
H565 H 0.80763 0.06512 0.89982 0.0
H566 H 0.80867 0.11998 0.85956 0.0
H567 H 0.79866 0.11082 0.82825 0.0
H568 H 0.81221 0.07202 0.83005 0.0
H569 H 0.82262 0.08161 0.86143 0.0
H570 H 0.83572 0.15149 0.87887 0.0
H571 H 0.85023 0.16928 0.85577 0.0
H572 H 0.87067 0.13707 0.84354 0.0
H573 H 0.85639 0.11956 0.86709 0.0
O574 O 0.83467 0.14821 0.00081 0.0
O575 O 0.85617 0.14415 0.00145 0.0
O576 O 0.74262 0.02823 0.86238 0.0
O577 O 0.75483 0.01531 0.87479 0.0
C578 C 0.83915 0.12863 0.90614 0.0
C579 C 0.82918 0.11805 0.9185 0.0
C580 C 0.81524 0.10191 0.91259 0.0
C581 C 0.81162 0.09608 0.89436 0.0
C582 C 0.82159 0.10669 0.88198 0.0
C583 C 0.83538 0.12296 0.88789 0.0
C584 C 0.85235 0.14635 0.9124 0.0
C585 C 0.84789 0.15846 0.91723 0.0
C586 C 0.85982 0.17462 0.92511 0.0
C587 C 0.87645 0.17896 0.92847 0.0
C588 C 0.88098 0.16693 0.92307 0.0
C589 C 0.86898 0.15072 0.91507 0.0
C590 C 0.83294 0.12436 0.93762 0.0
C591 C 0.82308 0.12964 0.94593 0.0
C592 C 0.82674 0.13573 0.96387 0.0
C593 C 0.84039 0.13672 0.97379 0.0
C594 C 0.85029 0.13148 0.96536 0.0
C595 C 0.84658 0.12535 0.94742 0.0
C596 C 0.80316 0.09235 0.92521 0.0
C597 C 0.78786 0.09163 0.92402 0.0
C598 C 0.77715 0.08474 0.93703 0.0
C599 C 0.78159 0.07852 0.95157 0.0
C600 C 0.79676 0.0788 0.95249 0.0
C601 C 0.80745 0.08561 0.93934 0.0
C602 C 0.797 0.07905 0.88827 0.0
C603 C 0.78306 0.07762 0.87865 0.0
C604 C 0.76935 0.06156 0.87296 0.0
C605 C 0.7693 0.04664 0.8769 0.0
C606 C 0.78326 0.04816 0.88667 0.0
C607 C 0.79698 0.06423 0.89232 0.0
C608 C 0.81646 0.10153 0.86272 0.0
C609 C 0.80969 0.10966 0.85313 0.0
C610 C 0.80382 0.10429 0.8353 0.0
C611 C 0.80452 0.0906 0.82671 0.0
C612 C 0.81161 0.08267 0.83628 0.0
C613 C 0.8175 0.08807 0.85418 0.0
C614 C 0.8452 0.1344 0.87478 0.0
C615 C 0.84358 0.14847 0.87142 0.0
C616 C 0.85167 0.15845 0.85806 0.0
C617 C 0.86148 0.15448 0.84775 0.0
C618 C 0.8633 0.14051 0.85135 0.0
C619 C 0.85517 0.13051 0.86475 0.0
C620 C 0.84427 0.14324 0.99284 0.0
C621 C 0.75476 0.02955 0.87089 0.0
H622 H 0.87436 0.73643 0.04072 0.0
H623 H 0.73055 0.68831 0.90198 0.0
H624 H 0.87944 0.7397 0.94658 0.0
H625 H 0.90295 0.73824 0.96017 0.0
H626 H 0.87831 0.68458 0.94146 0.0
H627 H 0.85519 0.68636 0.92754 0.0
H628 H 0.85055 0.74025 0.96926 0.0
H629 H 0.86115 0.7434 0.00027 0.0
H630 H 0.85423 0.69268 0.99338 0.0
H631 H 0.84344 0.68963 0.96248 0.0
H632 H 0.8136 0.73262 0.95186 0.0
H633 H 0.79321 0.727 0.97319 0.0
H634 H 0.79016 0.67888 0.98067 0.0
H635 H 0.81033 0.68452 0.95937 0.0
H636 H 0.81322 0.73389 0.90857 0.0
H637 H 0.78642 0.73138 0.90024 0.0
H638 H 0.76147 0.68052 0.91691 0.0
H639 H 0.78834 0.68314 0.92498 0.0
H640 H 0.84011 0.73301 0.88407 0.0
H641 H 0.82825 0.72898 0.8533 0.0
H642 H 0.79074 0.67748 0.86068 0.0
H643 H 0.80269 0.68158 0.89127 0.0
H644 H 0.87274 0.73684 0.90273 0.0
H645 H 0.88786 0.73473 0.87831 0.0
H646 H 0.85169 0.68096 0.86758 0.0
H647 H 0.83685 0.68317 0.89204 0.0
O648 O 0.87002 0.73487 0.02847 0.0
O649 O 0.86635 0.70878 0.02418 0.0
O650 O 0.75474 0.71583 0.89673 0.0
O651 O 0.74132 0.68965 0.90517 0.0
C652 C 0.85004 0.71306 0.93121 0.0
C653 C 0.84031 0.71315 0.94469 0.0
C654 C 0.82468 0.71144 0.94021 0.0
C655 C 0.81903 0.7103 0.92227 0.0
C656 C 0.82875 0.71021 0.90879 0.0
C657 C 0.84418 0.71146 0.91327 0.0
C658 C 0.86564 0.71314 0.93609 0.0
C659 C 0.8794 0.72778 0.945 0.0
C660 C 0.89271 0.72685 0.95293 0.0
C661 C 0.89243 0.71122 0.95216 0.0
C662 C 0.87906 0.69686 0.9422 0.0
C663 C 0.86581 0.69783 0.93421 0.0
C664 C 0.84637 0.71478 0.96361 0.0
C665 C 0.85129 0.72983 0.97451 0.0
C666 C 0.85736 0.73159 0.9922 0.0
C667 C 0.8586 0.71832 0.99929 0.0
C668 C 0.8535 0.70318 0.98833 0.0
C669 C 0.84738 0.70141 0.97066 0.0
C670 C 0.81349 0.70901 0.95416 0.0
C671 C 0.80862 0.72096 0.95826 0.0
C672 C 0.79695 0.7177 0.97036 0.0
C673 C 0.79013 0.70251 0.97862 0.0
C674 C 0.79538 0.6908 0.97475 0.0
C675 C 0.8069 0.694 0.96258 0.0
C676 C 0.80271 0.70875 0.91748 0.0
C677 C 0.80194 0.72223 0.91041 0.0
C678 C 0.78662 0.72076 0.90568 0.0
C679 C 0.77179 0.70575 0.90794 0.0
C680 C 0.77264 0.69226 0.91502 0.0
C681 C 0.78797 0.69374 0.9197 0.0
C682 C 0.82215 0.70764 0.88992 0.0
C683 C 0.82941 0.72083 0.87895 0.0
C684 C 0.82266 0.7185 0.86141 0.0
C685 C 0.80848 0.70296 0.85465 0.0
C686 C 0.80148 0.68968 0.86561 0.0
C687 C 0.80831 0.69198 0.88305 0.0
C688 C 0.85375 0.71015 0.89909 0.0
C689 C 0.8682 0.72461 0.89513 0.0
C690 C 0.87671 0.72341 0.88115 0.0
C691 C 0.87094 0.70768 0.87105 0.0
C692 C 0.85653 0.6932 0.87524 0.0
C693 C 0.84801 0.69444 0.88913 0.0
C694 C 0.8652 0.7203 0.01804 0.0
C695 C 0.75548 0.70412 0.90293 0.0
H696 H 0.82082 0.65601 0.36353 0.0
H697 H 0.91273 0.60488 0.50197 0.0
H698 H 0.82399 0.66478 0.47339 0.0
H699 H 0.80529 0.67326 0.45988 0.0
H700 H 0.77439 0.62219 0.43379 0.0
H701 H 0.79299 0.61369 0.44782 0.0
H702 H 0.83929 0.66198 0.43954 0.0
H703 H 0.83347 0.66464 0.40846 0.0
H704 H 0.81278 0.61033 0.39621 0.0
H705 H 0.81853 0.60785 0.42739 0.0
H706 H 0.87299 0.66012 0.45375 0.0
H707 H 0.89457 0.66359 0.43503 0.0
H708 H 0.86783 0.60926 0.41956 0.0
H709 H 0.84619 0.6059 0.43851 0.0
H710 H 0.88072 0.65514 0.4914 0.0
H711 H 0.90429 0.65183 0.50079 0.0
H712 H 0.8741 0.59743 0.48605 0.0
H713 H 0.85061 0.60094 0.47684 0.0
H714 H 0.85932 0.66151 0.5116 0.0
H715 H 0.87128 0.66531 0.5421 0.0
H716 H 0.84659 0.61057 0.54269 0.0
H717 H 0.83438 0.60691 0.51209 0.0
H718 H 0.83236 0.6623 0.50578 0.0
H719 H 0.81759 0.66355 0.53072 0.0
H720 H 0.78322 0.60927 0.52011 0.0
H721 H 0.79848 0.60814 0.49549 0.0
O722 O 0.82303 0.65468 0.37574 0.0
O723 O 0.8126 0.62672 0.37013 0.0
O724 O 0.91859 0.63459 0.50584 0.0
O725 O 0.90362 0.60656 0.49837 0.0
C726 C 0.82278 0.63458 0.4673 0.0
C727 C 0.83252 0.6331 0.45456 0.0
C728 C 0.846 0.63103 0.45995 0.0
C729 C 0.84968 0.63024 0.47797 0.0
C730 C 0.84023 0.63208 0.49072 0.0
C731 C 0.82665 0.63401 0.48538 0.0
C732 C 0.80977 0.63859 0.46171 0.0
C733 C 0.81289 0.65527 0.46525 0.0
C734 C 0.80231 0.66015 0.45732 0.0
C735 C 0.78845 0.64844 0.44562 0.0
C736 C 0.78488 0.63147 0.44285 0.0
C737 C 0.79548 0.62659 0.45082 0.0
C738 C 0.82926 0.63472 0.43567 0.0
C739 C 0.83347 0.65068 0.43011 0.0
C740 C 0.83015 0.65216 0.41236 0.0
C741 C 0.82264 0.63769 0.39985 0.0
C742 C 0.81856 0.62172 0.4055 0.0
C743 C 0.82185 0.62027 0.42327 0.0
C744 C 0.85808 0.63279 0.44738 0.0
C745 C 0.87174 0.649 0.44619 0.0
C746 C 0.88408 0.65092 0.43563 0.0
C747 C 0.88293 0.63667 0.42599 0.0
C748 C 0.86897 0.62045 0.42682 0.0
C749 C 0.85665 0.61851 0.43758 0.0
C750 C 0.86399 0.62826 0.48357 0.0
C751 C 0.87923 0.64252 0.49029 0.0
C752 C 0.89266 0.64059 0.4956 0.0
C753 C 0.89107 0.62435 0.4942 0.0
C754 C 0.87575 0.61011 0.48734 0.0
C755 C 0.86232 0.61206 0.48207 0.0
C756 C 0.84587 0.63395 0.50976 0.0
C757 C 0.85624 0.65034 0.51845 0.0
C758 C 0.8632 0.65248 0.53577 0.0
C759 C 0.85998 0.63824 0.54474 0.0
C760 C 0.84918 0.62177 0.53616 0.0
C761 C 0.84222 0.61965 0.51873 0.0
C762 C 0.81644 0.63515 0.49888 0.0
C763 C 0.82151 0.65075 0.50874 0.0
C764 C 0.81302 0.65142 0.52294 0.0
C765 C 0.79925 0.63648 0.52747 0.0
C766 C 0.79392 0.62095 0.51715 0.0
C767 C 0.80248 0.6203 0.50298 0.0
C768 C 0.8191 0.63929 0.38101 0.0
C769 C 0.90529 0.62222 0.49983 0.0
H770 H 0.35478 0.1752 0.39246 0.0
H771 H 0.38383 0.31638 0.5304 0.0
H772 H 0.3449 0.17152 0.48865 0.0
H773 H 0.33999 0.14387 0.47632 0.0
H774 H 0.39153 0.16029 0.49037 0.0
H775 H 0.39633 0.18818 0.50285 0.0
H776 H 0.34636 0.19456 0.46413 0.0
H777 H 0.345 0.18494 0.43303 0.0
H778 H 0.397 0.20071 0.44027 0.0
H779 H 0.39821 0.21044 0.47132 0.0
H780 H 0.34286 0.22059 0.4864 0.0
H781 H 0.33375 0.23169 0.46252 0.0
H782 H 0.38294 0.25599 0.44542 0.0
H783 H 0.39202 0.24465 0.46953 0.0
H784 H 0.3489 0.23167 0.52557 0.0
H785 H 0.34774 0.25742 0.53361 0.0
H786 H 0.39609 0.28816 0.51563 0.0
H787 H 0.39718 0.26231 0.50787 0.0
H788 H 0.35035 0.20357 0.54581 0.0
H789 H 0.34725 0.21453 0.57452 0.0
H790 H 0.39533 0.2598 0.57412 0.0
H791 H 0.39864 0.24827 0.5458 0.0
H792 H 0.34906 0.17393 0.52657 0.0
H793 H 0.34899 0.15491 0.54795 0.0
H794 H 0.40016 0.19152 0.56619 0.0
H795 H 0.40011 0.21053 0.5446 0.0
O796 O 0.35561 0.17917 0.40478 0.0
O797 O 0.38236 0.18746 0.40921 0.0
O798 O 0.35919 0.28962 0.53654 0.0
O799 O 0.38398 0.30599 0.52738 0.0
C800 C 0.37382 0.19905 0.50205 0.0
C801 C 0.37327 0.20905 0.48884 0.0
C802 C 0.37279 0.22395 0.49358 0.0
C803 C 0.37399 0.22954 0.5116 0.0
C804 C 0.37514 0.21987 0.52495 0.0
C805 C 0.37482 0.20445 0.52014 0.0
C806 C 0.37097 0.18183 0.49652 0.0
C807 C 0.35511 0.16911 0.48919 0.0
C808 C 0.35237 0.15339 0.48204 0.0
C809 C 0.36544 0.15004 0.48211 0.0
C810 C 0.38124 0.16256 0.49013 0.0
C811 C 0.384 0.17843 0.49726 0.0
C812 C 0.37244 0.20338 0.46989 0.0
C813 C 0.35748 0.19608 0.45892 0.0
C814 C 0.35672 0.19052 0.44118 0.0
C815 C 0.3709 0.19209 0.43415 0.0
C816 C 0.38586 0.19935 0.44525 0.0
C817 C 0.3866 0.20492 0.46298 0.0
C818 C 0.36809 0.23193 0.47972 0.0
C819 C 0.35171 0.22841 0.47758 0.0
C820 C 0.34649 0.23458 0.46383 0.0
C821 C 0.3576 0.2445 0.45201 0.0
C822 C 0.37415 0.24833 0.45436 0.0
C823 C 0.37934 0.24195 0.46808 0.0
C824 C 0.3732 0.24516 0.51633 0.0
C825 C 0.35927 0.24399 0.5235 0.0
C826 C 0.35862 0.25871 0.52802 0.0
C827 C 0.37185 0.27487 0.52531 0.0
C828 C 0.38571 0.27594 0.51794 0.0
C829 C 0.38636 0.2612 0.51347 0.0
C830 C 0.37476 0.22507 0.54374 0.0
C831 C 0.36046 0.21557 0.55221 0.0
C832 C 0.35859 0.22201 0.56849 0.0
C833 C 0.37092 0.23819 0.57652 0.0
C834 C 0.38563 0.24726 0.56842 0.0
C835 C 0.38755 0.24071 0.55221 0.0
C836 C 0.37466 0.19348 0.53387 0.0
C837 C 0.36027 0.17782 0.53514 0.0
C838 C 0.36026 0.16697 0.54733 0.0
C839 C 0.37463 0.17165 0.55861 0.0
C840 C 0.3889 0.18761 0.55771 0.0
C841 C 0.38891 0.19844 0.54539 0.0
C842 C 0.37004 0.18613 0.41531 0.0
C843 C 0.37123 0.29055 0.5301 0.0
H844 H 0.80279 0.18726 0.37618 0.0
H845 H 0.94932 0.29821 0.51081 0.0
H846 H 0.79823 0.19437 0.46826 0.0
H847 H 0.77475 0.16645 0.45624 0.0
H848 H 0.79812 0.14178 0.48208 0.0
H849 H 0.82174 0.16959 0.49326 0.0
H850 H 0.82761 0.22346 0.44728 0.0
H851 H 0.81678 0.21239 0.41635 0.0
H852 H 0.82122 0.16815 0.42416 0.0
H853 H 0.83223 0.17948 0.45498 0.0
H854 H 0.86492 0.25484 0.4642 0.0
H855 H 0.88575 0.26749 0.44319 0.0
H856 H 0.8862 0.22033 0.43549 0.0
H857 H 0.86593 0.20809 0.45687 0.0
H858 H 0.86705 0.26132 0.50827 0.0
H859 H 0.89463 0.28655 0.51559 0.0
H860 H 0.91674 0.2575 0.49705 0.0
H861 H 0.88911 0.23234 0.49001 0.0
H862 H 0.84157 0.23592 0.53513 0.0
H863 H 0.85423 0.24396 0.56592 0.0
H864 H 0.88828 0.22706 0.55278 0.0
H865 H 0.87514 0.21848 0.52243 0.0
H866 H 0.80611 0.20621 0.51384 0.0
H867 H 0.79004 0.19187 0.53806 0.0
H868 H 0.82332 0.17308 0.54996 0.0
H869 H 0.83946 0.1878 0.52608 0.0
O870 O 0.80718 0.19145 0.38843 0.0
O871 O 0.80965 0.16893 0.39315 0.0
O872 O 0.92629 0.30277 0.51756 0.0
O873 O 0.93827 0.28843 0.50809 0.0
C874 C 0.82738 0.20065 0.48599 0.0
C875 C 0.83698 0.20896 0.4722 0.0
C876 C 0.85296 0.22343 0.47628 0.0
C877 C 0.85929 0.22982 0.49412 0.0
C878 C 0.84982 0.22145 0.50791 0.0
C879 C 0.83379 0.207 0.50384 0.0
C880 C 0.81171 0.18403 0.48164 0.0
C881 C 0.7981 0.1829 0.47156 0.0
C882 C 0.78469 0.16695 0.46473 0.0
C883 C 0.7847 0.1519 0.46797 0.0
C884 C 0.7979 0.15312 0.47901 0.0
C885 C 0.8113 0.16901 0.48567 0.0
C886 C 0.83056 0.2022 0.45339 0.0
C887 C 0.82626 0.2114 0.44226 0.0
C888 C 0.82006 0.20503 0.42461 0.0
C889 C 0.81808 0.18935 0.41779 0.0
C890 C 0.82254 0.18024 0.42899 0.0
C891 C 0.82878 0.18665 0.44661 0.0
C892 C 0.86393 0.23056 0.46202 0.0
C893 C 0.86941 0.24723 0.45779 0.0
C894 C 0.88124 0.25439 0.44576 0.0
C895 C 0.88772 0.24494 0.43782 0.0
C896 C 0.88166 0.22802 0.44161 0.0
C897 C 0.86994 0.22094 0.45365 0.0
C898 C 0.87609 0.24507 0.49847 0.0
C899 C 0.87788 0.26045 0.50581 0.0
C900 C 0.89364 0.27483 0.50996 0.0
C901 C 0.9079 0.27406 0.50685 0.0
C902 C 0.90603 0.25856 0.49957 0.0
C903 C 0.89027 0.24418 0.49547 0.0
C904 C 0.8575 0.2267 0.52654 0.0
C905 C 0.85173 0.23394 0.53899 0.0
C906 C 0.85905 0.23861 0.55651 0.0
C907 C 0.87226 0.23613 0.56185 0.0
C908 C 0.87797 0.22891 0.54925 0.0
C909 C 0.87061 0.22417 0.53183 0.0
C910 C 0.82395 0.19809 0.51831 0.0
C911 C 0.80989 0.19901 0.52175 0.0
C912 C 0.80073 0.19077 0.53553 0.0
C913 C 0.80544 0.18138 0.54602 0.0
C914 C 0.81953 0.18047 0.54241 0.0
C915 C 0.82871 0.18877 0.5287 0.0
C916 C 0.8114 0.18258 0.39907 0.0
C917 C 0.92467 0.28931 0.51118 0.0
H918 H 0.99184 0.5136 0.3359 0.0
H919 H 0.00929 0.38915 0.21119 0.0
H920 H 0.96937 0.49982 0.24325 0.0
H921 H 0.97666 0.52885 0.25426 0.0
H922 H 0.02167 0.54906 0.22842 0.0
H923 H 0.0146 0.52012 0.21806 0.0
H924 H 0.97167 0.472 0.26761 0.0
H925 H 0.97574 0.48563 0.29764 0.0
H926 H 0.02326 0.52707 0.28676 0.0
H927 H 0.01913 0.51317 0.25688 0.0
H928 H 0.97628 0.439 0.25511 0.0
H929 H 0.98745 0.42901 0.27854 0.0
H930 H 0.03489 0.47554 0.28052 0.0
H931 H 0.02387 0.485 0.25674 0.0
H932 H 0.96522 0.42827 0.21099 0.0
H933 H 0.96644 0.40216 0.20592 0.0
H934 H 0.01925 0.43094 0.22146 0.0
H935 H 0.01789 0.45697 0.22626 0.0
H936 H 0.96092 0.4513 0.18206 0.0
H937 H 0.95913 0.43624 0.15335 0.0
H938 H 0.01083 0.45162 0.16314 0.0
H939 H 0.01257 0.46677 0.19154 0.0
H940 H 0.96102 0.48694 0.2002 0.0
H941 H 0.95991 0.50523 0.17846 0.0
H942 H 0.00767 0.51587 0.16349 0.0
H943 H 0.00878 0.49779 0.18544 0.0
O944 O 0.99052 0.50839 0.32399 0.0
O945 O 0.0148 0.52943 0.31769 0.0
O946 O 0.98129 0.38507 0.20514 0.0
O947 O 0.00845 0.39928 0.21311 0.0
C948 C 0.98943 0.49062 0.22704 0.0
C949 C 0.99233 0.48334 0.24176 0.0
C950 C 0.99327 0.46842 0.23914 0.0
C951 C 0.99062 0.46031 0.22187 0.0
C952 C 0.98769 0.46754 0.2071 0.0
C953 C 0.98702 0.48267 0.20969 0.0
C954 C 0.99147 0.50787 0.2299 0.0
C955 C 0.98057 0.51057 0.2396 0.0
C956 C 0.98476 0.52713 0.24587 0.0
C957 C -0.00011 0.54119 0.24246 0.0
C958 C 0.0101 0.53845 0.23155 0.0
C959 C 0.00595 0.52194 0.22539 0.0
C960 C 0.99501 0.49168 0.26003 0.0
C961 C 0.98295 0.48401 0.27177 0.0
C962 C 0.98531 0.49184 0.2889 0.0
C963 C -0.0002 0.50748 0.29459 0.0
C964 C 0.01193 0.51506 0.28279 0.0
C965 C 0.00958 0.50719 0.2657 0.0
C966 C 0.99928 0.4627 0.25425 0.0
C967 C 0.98903 0.44703 0.26073 0.0
C968 C 0.9954 0.44143 0.27418 0.0
C969 C 0.01208 0.45147 0.28131 0.0
C970 C 0.02207 0.46741 0.27514 0.0
C971 C 0.01576 0.4729 0.26167 0.0
C972 C 0.99143 0.44447 0.21914 0.0
C973 C 0.97703 0.42889 0.21332 0.0
C974 C 0.97777 0.41401 0.21043 0.0
C975 C 0.99295 0.41446 0.21333 0.0
C976 C 0.00736 0.43013 0.21915 0.0
C977 C 0.00661 0.445 0.22198 0.0
C978 C 0.98682 0.45996 0.18894 0.0
C979 C 0.97189 0.4516 0.17785 0.0
C980 C 0.97089 0.44302 0.16151 0.0
C981 C 0.9848 0.44258 0.15615 0.0
C982 C -0.00015 0.45148 0.16707 0.0
C983 C 0.00088 0.46018 0.18324 0.0
C984 C 0.98497 0.49103 0.19437 0.0
C985 C 0.97104 0.4929 0.19191 0.0
C986 C 0.97041 0.5033 0.17946 0.0
C987 C 0.98376 0.51207 0.16937 0.0
C988 C 0.99728 0.5094 0.1712 0.0
C989 C 0.99787 0.49896 0.1836 0.0
C990 C 0.00222 0.51581 0.31276 0.0
C991 C 0.9938 0.39869 0.21026 0.0
H992 H 0.50048 0.48376 0.34868 0.0
H993 H 0.4041 0.34741 0.19697 0.0
H994 H 0.50386 0.49243 0.25426 0.0
H995 H 0.52626 0.52004 0.26778 0.0
H996 H 0.56183 0.50464 0.25665 0.0
H997 H 0.53903 0.47659 0.24365 0.0
H998 H 0.47853 0.46651 0.2729 0.0
H999 H 0.48403 0.47486 0.30483 0.0
H1000 H 0.52373 0.46364 0.30688 0.0
H1001 H 0.51796 0.45512 0.27495 0.0
H1002 H 0.45062 0.43915 0.24547 0.0
H1003 H 0.42986 0.42657 0.26624 0.0
H1004 H 0.4586 0.40741 0.29217 0.0
H1005 H 0.47954 0.42037 0.27131 0.0
H1006 H 0.45025 0.43243 0.20686 0.0
H1007 H 0.42476 0.40639 0.19467 0.0
H1008 H 0.44271 0.37611 0.21877 0.0
H1009 H 0.46824 0.40226 0.23071 0.0
H1010 H 0.48042 0.46255 0.19235 0.0
H1011 H 0.47125 0.45469 0.16079 0.0
H1012 H 0.47602 0.41003 0.16329 0.0
H1013 H 0.48599 0.41852 0.19481 0.0
H1014 H 0.50756 0.49133 0.21433 0.0
H1015 H 0.5247 0.50897 0.19241 0.0
H1016 H 0.54026 0.47247 0.18059 0.0
H1017 H 0.52317 0.45495 0.20275 0.0
O1018 O 0.49848 0.48035 0.33606 0.0
O1019 O 0.51883 0.47449 0.33638 0.0
O1020 O 0.40543 0.37405 0.18944 0.0
O1021 O 0.41407 0.3579 0.20161 0.0
C1022 C 0.50579 0.46548 0.24081 0.0
C1023 C 0.49441 0.45495 0.25226 0.0
C1024 C 0.47971 0.43991 0.24521 0.0
C1025 C 0.47669 0.435 0.2268 0.0
C1026 C 0.48817 0.44539 0.21534 0.0
C1027 C 0.50274 0.46063 0.22237 0.0
C1028 C 0.51982 0.4825 0.24808 0.0
C1029 C 0.51649 0.49501 0.25477 0.0
C1030 C 0.52934 0.51083 0.26235 0.0
C1031 C 0.54587 0.5146 0.26324 0.0
C1032 C 0.54922 0.50208 0.25634 0.0
C1033 C 0.53626 0.48613 0.24879 0.0
C1034 C 0.49773 0.46004 0.27166 0.0
C1035 C 0.48832 0.46573 0.2803 0.0
C1036 C 0.49153 0.47056 0.29853 0.0
C1037 C 0.5043 0.46988 0.30842 0.0
C1038 C 0.51379 0.46428 0.29967 0.0
C1039 C 0.51052 0.45942 0.28144 0.0
C1040 C 0.46651 0.43058 0.25684 0.0
C1041 C 0.45227 0.43196 0.25543 0.0
C1042 C 0.44042 0.42473 0.26731 0.0
C1043 C 0.44255 0.41595 0.28086 0.0
C1044 C 0.45668 0.41424 0.28199 0.0
C1045 C 0.46858 0.42151 0.27005 0.0
C1046 C 0.46114 0.4192 0.21951 0.0
C1047 C 0.44869 0.42015 0.20938 0.0
C1048 C 0.43412 0.40527 0.20249 0.0
C1049 C 0.43171 0.38916 0.20571 0.0
C1050 C 0.44418 0.3883 0.21601 0.0
C1051 C 0.45876 0.4032 0.22286 0.0
C1052 C 0.48399 0.44118 0.19585 0.0
C1053 C 0.47986 0.45128 0.186 0.0
C1054 C 0.47439 0.44663 0.16801 0.0
C1055 C 0.47271 0.43162 0.15953 0.0
C1056 C 0.4773 0.42174 0.16935 0.0
C1057 C 0.48292 0.42651 0.18737 0.0
C1058 C 0.51424 0.47195 0.21019 0.0
C1059 C 0.51487 0.48729 0.2072 0.0
C1060 C 0.52451 0.49723 0.19455 0.0
C1061 C 0.53371 0.49201 0.18471 0.0
C1062 C 0.53337 0.47684 0.18806 0.0
C1063 C 0.52364 0.46683 0.20066 0.0
C1064 C 0.50769 0.47503 0.32779 0.0
C1065 C 0.41626 0.3733 0.19841 0.0
H1066 H 0.50991 0.00725 0.36407 0.0
H1067 H 0.38499 0.99188 0.2184 0.0
H1068 H 0.52664 0.03088 0.27499 0.0
H1069 H 0.54985 0.02884 0.2884 0.0
H1070 H 0.53005 0.97913 0.2595 0.0
H1071 H 0.50697 0.98143 0.24597 0.0
H1072 H 0.49691 0.0269 0.29575 0.0
H1073 H 0.50314 0.02331 0.32637 0.0
H1074 H 0.4945 0.97311 0.3093 0.0
H1075 H 0.4881 0.97679 0.27878 0.0
H1076 H 0.46741 0.02868 0.27481 0.0
H1077 H 0.44745 0.02537 0.29584 0.0
H1078 H 0.43404 0.97271 0.2981 0.0
H1079 H 0.45413 0.97621 0.27718 0.0
H1080 H 0.4675 0.03314 0.2336 0.0
H1081 H 0.44212 0.0333 0.22444 0.0
H1082 H 0.41306 0.97991 0.23252 0.0
H1083 H 0.43854 0.97988 0.24145 0.0
H1084 H 0.49687 0.03591 0.21256 0.0
H1085 H 0.48915 0.03877 0.18215 0.0
H1086 H 0.44833 0.98667 0.17744 0.0
H1087 H 0.45653 0.98379 0.20753 0.0
H1088 H 0.52691 0.03526 0.2342 0.0
H1089 H 0.5453 0.03932 0.21105 0.0
H1090 H 0.50905 0.98968 0.18474 0.0
H1091 H 0.49108 0.98554 0.20824 0.0
O1092 O 0.50731 0.00837 0.35189 0.0
O1093 O 0.50283 0.98269 0.3424 0.0
O1094 O 0.41072 0.01961 0.21795 0.0
O1095 O 0.39521 0.99218 0.22195 0.0
C1096 C 0.49972 0.00636 0.25391 0.0
C1097 C 0.48851 0.00441 0.26648 0.0
C1098 C 0.47388 0.00458 0.26134 0.0
C1099 C 0.47029 0.00643 0.2436 0.0
C1100 C 0.48135 0.00813 0.23097 0.0
C1101 C 0.49611 0.00817 0.23615 0.0
C1102 C 0.51511 0.00628 0.25958 0.0
C1103 C 0.52752 0.01971 0.2713 0.0
C1104 C 0.54067 0.01844 0.27905 0.0
C1105 C 0.54168 0.00371 0.27521 0.0
C1106 C 0.5297 0.99068 0.26267 0.0
C1107 C 0.51651 0.99197 0.25492 0.0
C1108 C 0.49207 0.00211 0.28508 0.0
C1109 C 0.4963 0.01511 0.29868 0.0
C1110 C 0.49989 0.01304 0.31614 0.0
C1111 C 0.49934 0.99793 0.32028 0.0
C1112 C 0.49505 0.98491 0.30657 0.0
C1113 C 0.49142 0.98699 0.28914 0.0
C1114 C 0.46219 0.00269 0.27452 0.0
C1115 C 0.46017 0.01646 0.2799 0.0
C1116 C 0.44872 0.01451 0.29182 0.0
C1117 C 0.43915 0.99876 0.29859 0.0
C1118 C 0.44137 0.98505 0.29329 0.0
C1119 C 0.45279 0.987 0.28133 0.0
C1120 C 0.45484 0.00651 0.2382 0.0
C1121 C 0.45564 0.02149 0.23334 0.0
C1122 C 0.44113 0.02155 0.22814 0.0
C1123 C 0.42555 0.00661 0.22776 0.0
C1124 C 0.42484 0.99163 0.23268 0.0
C1125 C 0.43936 0.99158 0.23783 0.0
C1126 C 0.47725 0.00965 0.21223 0.0
C1127 C 0.48639 0.02507 0.20484 0.0
C1128 C 0.48187 0.02672 0.18753 0.0
C1129 C 0.46808 0.01296 0.17735 0.0
C1130 C 0.45914 0.99745 0.18478 0.0
C1131 C 0.46372 0.9958 0.20202 0.0
C1132 C 0.50771 0.01011 0.22287 0.0
C1133 C 0.52309 0.02519 0.22354 0.0
C1134 C 0.53347 0.02756 0.21022 0.0
C1135 C 0.52859 0.01486 0.196 0.0
C1136 C 0.51326 -0.00037 0.1956 0.0
C1137 C 0.50295 0.99726 0.20894 0.0
C1138 C 0.50325 0.99581 0.33882 0.0
C1139 C 0.4101 0.00659 0.22225 0.0
H1140 H 0.50959 0.02552 0.7061 0.0
H1141 H 0.60447 0.97997 0.83744 0.0
H1142 H 0.50647 0.0278 0.80052 0.0
H1143 H 0.48303 0.02976 0.78788 0.0
H1144 H 0.44998 0.97686 0.79544 0.0
H1145 H 0.47372 0.97492 0.80754 0.0
H1146 H 0.53393 0.02861 0.77962 0.0
H1147 H 0.52769 0.03216 0.749 0.0
H1148 H 0.48563 0.98071 0.74276 0.0
H1149 H 0.49213 0.97727 0.77334 0.0
H1150 H 0.5623 0.02695 0.80127 0.0
H1151 H 0.58246 0.03034 0.78056 0.0
H1152 H 0.54742 0.98067 0.75344 0.0
H1153 H 0.52723 0.97749 0.77421 0.0
H1154 H 0.56262 0.02136 0.84088 0.0
H1155 H 0.58747 0.02006 0.84958 0.0
H1156 H 0.56588 0.9708 0.81909 0.0
H1157 H 0.54102 0.97218 0.81067 0.0
H1158 H 0.5344 0.02031 0.86093 0.0
H1159 H 0.54318 0.01856 0.89132 0.0
H1160 H 0.53229 0.96716 0.87646 0.0
H1161 H 0.52318 0.96892 0.8462 0.0
H1162 H 0.50536 0.02274 0.84153 0.0
H1163 H 0.48885 0.02182 0.86566 0.0
H1164 H 0.47358 0.9688 0.869 0.0
H1165 H 0.4898 0.96976 0.84456 0.0
O1166 O 0.51189 0.02381 0.71815 0.0
O1167 O 0.49038 0.9973 0.71564 0.0
O1168 O 0.60527 0.0061 0.8498 0.0
O1169 O 0.59477 0.98079 0.83425 0.0
C1170 C 0.50642 -0.00045 0.81008 0.0
C1171 C 0.5172 0.00062 0.79731 0.0
C1172 C 0.53151 -0.00018 0.80232 0.0
C1173 C 0.53492 0.99763 0.81999 0.0
C1174 C 0.52408 0.99637 0.83271 0.0
C1175 C 0.50981 0.9973 0.82776 0.0
C1176 C 0.49181 0.00119 0.80483 0.0
C1177 C 0.49413 0.0167 0.79964 0.0
C1178 C 0.48069 0.01781 0.79251 0.0
C1179 C 0.4646 0.00343 0.79054 0.0
C1180 C 0.46223 0.9881 0.79652 0.0
C1181 C 0.47574 0.98699 0.80359 0.0
C1182 C 0.51352 0.00267 0.77865 0.0
C1183 C 0.52344 0.01809 0.77157 0.0
C1184 C 0.51981 0.0201 0.7541 0.0
C1185 C 0.50615 0.00672 0.74343 0.0
C1186 C 0.49624 0.99127 0.75061 0.0
C1187 C 0.49991 0.98927 0.76807 0.0
C1188 C 0.54337 0.00196 0.78925 0.0
C1189 C 0.559 0.01682 0.79084 0.0
C1190 C 0.5705 0.01869 0.77906 0.0
C1191 C 0.56657 0.00571 0.76544 0.0
C1192 C 0.55076 0.99094 0.76371 0.0
C1193 C 0.53925 0.98907 0.77555 0.0
C1194 C 0.55002 0.99683 0.82521 0.0
C1195 C 0.56326 0.01027 0.83618 0.0
C1196 C 0.57745 0.00951 0.84108 0.0
C1197 C 0.57866 0.99531 0.83503 0.0
C1198 C 0.56536 0.98191 0.82399 0.0
C1199 C 0.55116 0.98266 0.81914 0.0
C1200 C 0.52815 0.99474 0.8514 0.0
C1201 C 0.53369 0.0086 0.86433 0.0
C1202 C 0.53885 0.00763 0.88161 0.0
C1203 C 0.53853 0.99275 0.88626 0.0
C1204 C 0.53254 0.97873 0.87334 0.0
C1205 C 0.52741 0.97973 0.85606 0.0
C1206 C 0.49872 0.99631 0.8413 0.0
C1207 C 0.49824 0.01088 0.84732 0.0
C1208 C 0.48896 0.01037 0.86121 0.0
C1209 C 0.48002 0.99527 0.86932 0.0
C1210 C 0.48022 0.98058 0.86294 0.0
C1211 C 0.48951 0.98111 0.84904 0.0
C1212 C 0.50228 0.00892 0.7249 0.0
C1213 C 0.59372 0.99446 0.84018 0.0
H1214 H 0.98594 0.48044 0.7302 0.0
H1215 H 0.02634 0.63538 0.85522 0.0
H1216 H 0.98663 0.48696 0.82716 0.0
H1217 H 0.98355 0.45999 0.81498 0.0
H1218 H 0.0365 0.48142 0.82462 0.0
H1219 H 0.03945 0.50851 0.83693 0.0
H1220 H 0.98476 0.50922 0.80054 0.0
H1221 H 0.98038 0.49585 0.77034 0.0
H1222 H 0.03203 0.51013 0.77348 0.0
H1223 H 0.03625 0.52362 0.80363 0.0
H1224 H 0.98467 0.54059 0.81966 0.0
H1225 H 0.97656 0.55163 0.79495 0.0
H1226 H 0.02352 0.56705 0.77429 0.0
H1227 H 0.03176 0.55638 0.79955 0.0
H1228 H 0.99129 0.5513 0.85834 0.0
H1229 H 0.99066 0.57765 0.86428 0.0
H1230 H 0.03764 0.60581 0.84263 0.0
H1231 H 0.03821 0.57939 0.83698 0.0
H1232 H 0.99348 0.5253 0.88054 0.0
H1233 H 0.99242 0.53841 0.90906 0.0
H1234 H 0.04099 0.58173 0.90493 0.0
H1235 H 0.0421 0.56826 0.87659 0.0
H1236 H 0.99246 0.4942 0.86485 0.0
H1237 H 0.99436 0.47792 0.88835 0.0
H1238 H 0.04614 0.51597 0.90129 0.0
H1239 H 0.04415 0.53201 0.87737 0.0
O1240 O 0.98798 0.48595 0.7421 0.0
O1241 O 0.01462 0.49359 0.7444 0.0
O1242 O 0.00223 0.60972 0.8642 0.0
O1243 O 0.0263 0.62478 0.85309 0.0
C1244 C 0.01509 0.51663 0.83688 0.0
C1245 C 0.01335 0.52515 0.82273 0.0
C1246 C 0.01317 0.54041 0.82622 0.0
C1247 C 0.01528 0.54749 0.84386 0.0
C1248 C 0.01723 0.53906 0.85807 0.0
C1249 C 0.01705 0.52356 0.85456 0.0
C1250 C 0.01325 0.49963 0.83286 0.0
C1251 C 0.99752 0.4857 0.82699 0.0
C1252 C 0.99581 0.4704 0.81988 0.0
C1253 C 0.00983 0.46874 0.81858 0.0
C1254 C 0.02551 0.48238 0.82548 0.0
C1255 C 0.02721 0.49779 0.83255 0.0
C1256 C 0.01084 0.51749 0.80419 0.0
C1257 C 0.99513 0.50958 0.79461 0.0
C1258 C 0.99266 0.50189 0.77739 0.0
C1259 C 0.00586 0.50192 0.76949 0.0
C1260 C 0.0216 0.50989 0.77916 0.0
C1261 C 0.02406 0.51761 0.79637 0.0
C1262 C 0.00885 0.54786 0.81146 0.0
C1263 C 0.99327 0.54651 0.80989 0.0
C1264 C 0.98858 0.55259 0.79562 0.0
C1265 C 0.99933 0.56004 0.78255 0.0
C1266 C 0.015 0.56145 0.7842 0.0
C1267 C 0.01972 0.55537 0.79856 0.0
C1268 C 0.01487 0.56348 0.8474 0.0
C1269 C 0.00149 0.5632 0.85502 0.0
C1270 C 0.00114 0.57825 0.85833 0.0
C1271 C 0.01413 0.59385 0.85396 0.0
C1272 C 0.02746 0.59404 0.84619 0.0
C1273 C 0.02781 0.57897 0.84294 0.0
C1274 C 0.01789 0.5458 0.87654 0.0
C1275 C 0.00407 0.5374 0.88603 0.0
C1276 C 0.0034 0.54502 0.90219 0.0
C1277 C 0.01654 0.5612 0.90914 0.0
C1278 C 0.03072 0.56921 0.89999 0.0
C1279 C 0.03137 0.56156 0.88381 0.0
C1280 C 0.0182 0.51418 0.86934 0.0
C1281 C 0.00421 0.499 0.87277 0.0
C1282 C 0.00529 0.48982 0.88631 0.0
C1283 C 0.0204 0.49568 0.89673 0.0
C1284 C 0.03437 0.51105 0.8934 0.0
C1285 C 0.03325 0.52026 0.87982 0.0
C1286 C 0.00316 0.4936 0.75125 0.0
C1287 C 0.0138 0.60988 0.85742 0.0
H1288 H 0.4859 0.53492 0.71516 0.0
H1289 H 0.62277 0.63413 0.86465 0.0
H1290 H 0.47327 0.5375 0.80745 0.0
H1291 H 0.44847 0.51052 0.79531 0.0
H1292 H 0.46983 0.48266 0.81814 0.0
H1293 H 0.49438 0.50949 0.83004 0.0
H1294 H 0.50563 0.56701 0.78816 0.0
H1295 H 0.49719 0.55782 0.75652 0.0
H1296 H 0.49908 0.51204 0.76352 0.0
H1297 H 0.50771 0.52148 0.79508 0.0
H1298 H 0.5426 0.59658 0.80793 0.0
H1299 H 0.56418 0.60865 0.78765 0.0
H1300 H 0.56251 0.56035 0.78027 0.0
H1301 H 0.54164 0.54877 0.80108 0.0
H1302 H 0.54115 0.60226 0.84984 0.0
H1303 H 0.56883 0.62629 0.86016 0.0
H1304 H 0.5898 0.59451 0.8481 0.0
H1305 H 0.56204 0.57057 0.83799 0.0
H1306 H 0.51499 0.58102 0.87204 0.0
H1307 H 0.52477 0.58996 0.9037 0.0
H1308 H 0.5507 0.562 0.90153 0.0
H1309 H 0.54126 0.55352 0.86988 0.0
H1310 H 0.47707 0.54379 0.85309 0.0
H1311 H 0.45806 0.52361 0.87241 0.0
H1312 H 0.49254 0.50618 0.88323 0.0
H1313 H 0.51127 0.52612 0.86388 0.0
O1314 O 0.48932 0.53835 0.7277 0.0
O1315 O 0.49042 0.51499 0.73202 0.0
O1316 O 0.60029 0.64064 0.86668 0.0
O1317 O 0.6117 0.62485 0.86067 0.0
C1318 C 0.50125 0.54157 0.82574 0.0
C1319 C 0.51215 0.5505 0.81314 0.0
C1320 C 0.52811 0.5645 0.81883 0.0
C1321 C 0.53283 0.5702 0.83704 0.0
C1322 C 0.52185 0.56145 0.84961 0.0
C1323 C 0.50618 0.54699 0.844 0.0
C1324 C 0.48551 0.52543 0.81983 0.0
C1325 C 0.47242 0.52553 0.81 0.0
C1326 C 0.45835 0.51014 0.803 0.0
C1327 C 0.45716 0.49445 0.80584 0.0
C1328 C 0.4702 0.49449 0.816 0.0
C1329 C 0.48424 0.50981 0.82285 0.0
C1330 C 0.50711 0.54483 0.79393 0.0
C1331 C 0.50422 0.55501 0.78282 0.0
C1332 C 0.49939 0.54971 0.76476 0.0
C1333 C 0.49739 0.53415 0.7575 0.0
C1334 C 0.50043 0.52405 0.76869 0.0
C1335 C 0.5053 0.52938 0.78673 0.0
C1336 C 0.54054 0.5718 0.8059 0.0
C1337 C 0.54695 0.58867 0.8019 0.0
C1338 C 0.55918 0.59548 0.79025 0.0
C1339 C 0.56513 0.58548 0.78239 0.0
C1340 C 0.55845 0.5685 0.78631 0.0
C1341 C 0.54636 0.56179 0.79802 0.0
C1342 C 0.54964 0.58475 0.84311 0.0
C1343 C 0.55175 0.60054 0.84946 0.0
C1344 C 0.56757 0.61423 0.85532 0.0
C1345 C 0.58154 0.61232 0.85493 0.0
C1346 C 0.57933 0.59642 0.84857 0.0
C1347 C 0.5635 0.58274 0.84275 0.0
C1348 C 0.52738 0.56659 0.86877 0.0
C1349 C 0.52278 0.57685 0.87845 0.0
C1350 C 0.52839 0.58197 0.89643 0.0
C1351 C 0.53841 0.57659 0.90499 0.0
C1352 C 0.54287 0.56618 0.89525 0.0
C1353 C 0.53753 0.56137 0.87724 0.0
C1354 C 0.49557 0.53647 0.85723 0.0
C1355 C 0.48059 0.53581 0.85991 0.0
C1356 C 0.46981 0.52435 0.87094 0.0
C1357 C 0.47383 0.51331 0.8792 0.0
C1358 C 0.4891 0.51446 0.8769 0.0
C1359 C 0.49986 0.52594 0.86602 0.0
C1360 C 0.49218 0.52853 0.73833 0.0
C1361 C 0.59837 0.62682 0.86113 0.0
H1362 H 0.62233 0.82484 0.67302 0.0
H1363 H 0.64838 0.70386 0.55367 0.0
H1364 H 0.60773 0.8144 0.57929 0.0
H1365 H 0.61317 0.84323 0.5882 0.0
H1366 H 0.66099 0.8645 0.56789 0.0
H1367 H 0.65541 0.83581 0.55903 0.0
H1368 H 0.60689 0.78586 0.60368 0.0
H1369 H 0.60875 0.79846 0.63367 0.0
H1370 H 0.65839 0.83914 0.62792 0.0
H1371 H 0.65643 0.8263 0.59805 0.0
H1372 H 0.60839 0.75233 0.5903 0.0
H1373 H 0.61378 0.73861 0.61456 0.0
H1374 H 0.66413 0.78107 0.62397 0.0
H1375 H 0.65852 0.79468 0.60001 0.0
H1376 H 0.60479 0.74336 0.54816 0.0
H1377 H 0.60609 0.71722 0.54393 0.0
H1378 H 0.65813 0.74566 0.56333 0.0
H1379 H 0.65668 0.77172 0.56731 0.0
H1380 H 0.60373 0.76312 0.52011 0.0
H1381 H 0.60601 0.75059 0.49158 0.0
H1382 H 0.65917 0.77655 0.50367 0.0
H1383 H 0.65675 0.78872 0.53213 0.0
H1384 H 0.60232 0.80222 0.53721 0.0
H1385 H 0.60075 0.81872 0.51365 0.0
H1386 H 0.64977 0.8312 0.50149 0.0
H1387 H 0.65135 0.81492 0.52526 0.0
O1388 O 0.62189 0.82003 0.66115 0.0
O1389 O 0.64733 0.84071 0.65749 0.0
O1390 O 0.62079 0.7 0.5451 0.0
O1391 O 0.64753 0.71401 0.55513 0.0
C1392 C 0.62925 0.80585 0.56562 0.0
C1393 C 0.6302 0.79758 0.58043 0.0
C1394 C 0.63042 0.78224 0.57793 0.0
C1395 C 0.62974 0.77517 0.56066 0.0
C1396 C 0.62886 0.78344 0.54585 0.0
C1397 C 0.62832 0.79864 0.54829 0.0
C1398 C 0.63117 0.82304 0.56849 0.0
C1399 C 0.61923 0.82533 0.57648 0.0
C1400 C 0.62241 0.84177 0.58167 0.0
C1401 C 0.63754 0.85615 0.57883 0.0
C1402 C 0.64911 0.85374 0.57006 0.0
C1403 C 0.64596 0.83734 0.56497 0.0
C1404 C 0.63147 0.80523 0.59867 0.0
C1405 C 0.61816 0.79747 0.60896 0.0
C1406 C 0.61925 0.80471 0.62606 0.0
C1407 C 0.6337 0.81984 0.63318 0.0
C1408 C 0.64707 0.82751 0.62284 0.0
C1409 C 0.64597 0.82023 0.60576 0.0
C1410 C 0.63307 0.77448 0.59346 0.0
C1411 C 0.62049 0.75871 0.59781 0.0
C1412 C 0.62361 0.7509 0.6116 0.0
C1413 C 0.63938 0.75875 0.62123 0.0
C1414 C 0.65176 0.77481 0.61709 0.0
C1415 C 0.64863 0.78258 0.60334 0.0
C1416 C 0.63062 0.75937 0.55807 0.0
C1417 C 0.61646 0.7439 0.55143 0.0
C1418 C 0.61724 0.729 0.54906 0.0
C1419 C 0.63222 0.72935 0.55332 0.0
C1420 C 0.6464 0.74493 0.55994 0.0
C1421 C 0.64561 0.75983 0.56226 0.0
C1422 C 0.63009 0.77691 0.52804 0.0
C1423 C 0.61584 0.76619 0.51646 0.0
C1424 C 0.61716 0.75899 0.50029 0.0
C1425 C 0.63277 0.76266 0.49544 0.0
C1426 C 0.64701 0.77367 0.50699 0.0
C1427 C 0.64566 0.7806 0.52321 0.0
C1428 C 0.62687 0.80721 0.53283 0.0
C1429 C 0.61262 0.80834 0.5293 0.0
C1430 C 0.61178 0.81781 0.51592 0.0
C1431 C 0.62513 0.82623 0.50574 0.0
C1432 C 0.63919 0.82465 0.50895 0.0
C1433 C 0.6401 0.81531 0.52248 0.0
C1434 C 0.63478 0.82754 0.65132 0.0
C1435 C 0.6331 0.71354 0.55091 0.0
H1436 H 0.16706 0.80709 0.69359 0.0
H1437 H 0.07291 0.6813 0.53321 0.0
H1438 H 0.17146 0.8247 0.60233 0.0
H1439 H 0.19492 0.85147 0.61633 0.0
H1440 H 0.22854 0.83536 0.5992 0.0
H1441 H 0.20482 0.80857 0.58496 0.0
H1442 H 0.14488 0.79636 0.618 0.0
H1443 H 0.15048 0.80193 0.65026 0.0
H1444 H 0.18995 0.79057 0.64808 0.0
H1445 H 0.18409 0.78485 0.61582 0.0
H1446 H 0.11691 0.7712 0.58763 0.0
H1447 H 0.09499 0.75611 0.60652 0.0
H1448 H 0.12297 0.73523 0.63051 0.0
H1449 H 0.14506 0.75057 0.61137 0.0
H1450 H 0.11618 0.76617 0.54958 0.0
H1451 H 0.09132 0.74022 0.53597 0.0
H1452 H 0.11102 0.70986 0.55607 0.0
H1453 H 0.13591 0.73593 0.56942 0.0
H1454 H 0.14586 0.79883 0.53738 0.0
H1455 H 0.13543 0.79246 0.50607 0.0
H1456 H 0.14162 0.74847 0.50317 0.0
H1457 H 0.15279 0.75545 0.53438 0.0
H1458 H 0.17306 0.82701 0.56394 0.0
H1459 H 0.19009 0.84844 0.54479 0.0
H1460 H 0.20527 0.81435 0.5224 0.0
H1461 H 0.18828 0.79295 0.54186 0.0
O1462 O 0.16501 0.80476 0.68082 0.0
O1463 O 0.18522 0.79887 0.67897 0.0
O1464 O 0.07305 0.70794 0.52836 0.0
O1465 O 0.08261 0.69176 0.53843 0.0
C1466 C 0.17195 0.79843 0.58432 0.0
C1467 C 0.16064 0.78671 0.59502 0.0
C1468 C 0.14598 0.77212 0.58708 0.0
C1469 C 0.14312 0.76866 0.56846 0.0
C1470 C 0.15439 0.78037 0.55769 0.0
C1471 C 0.1687 0.7954 0.56565 0.0
C1472 C 0.18644 0.81465 0.59276 0.0
C1473 C 0.18389 0.8269 0.60172 0.0
C1474 C 0.19732 0.84216 0.60978 0.0
C1475 C 0.21363 0.84551 0.60904 0.0
C1476 C 0.21615 0.83323 0.59992 0.0
C1477 C 0.20265 0.81791 0.59184 0.0
C1478 C 0.16397 0.79004 0.61462 0.0
C1479 C 0.15464 0.79495 0.62454 0.0
C1480 C 0.15791 0.79819 0.64295 0.0
C1481 C 0.17065 0.79667 0.65176 0.0
C1482 C 0.18004 0.79183 0.64172 0.0
C1483 C 0.17672 0.78856 0.62331 0.0
C1484 C 0.13249 0.76186 0.59804 0.0
C1485 C 0.1182 0.76315 0.59675 0.0
C1486 C 0.10567 0.75448 0.60754 0.0
C1487 C 0.1072 0.74438 0.61993 0.0
C1488 C 0.1215 0.74299 0.62114 0.0
C1489 C 0.13406 0.75165 0.61021 0.0
C1490 C 0.12791 0.75292 0.56031 0.0
C1491 C 0.11515 0.75391 0.55091 0.0
C1492 C 0.10094 0.73907 0.54321 0.0
C1493 C 0.0992 0.72296 0.54489 0.0
C1494 C 0.11197 0.72205 0.55448 0.0
C1495 C 0.12619 0.73691 0.56214 0.0
C1496 C 0.15015 0.77765 0.53816 0.0
C1497 C 0.14539 0.78808 0.52987 0.0
C1498 C 0.1392 0.78427 0.51202 0.0
C1499 C 0.13747 0.76982 0.50214 0.0
C1500 C 0.14291 0.75977 0.51032 0.0
C1501 C 0.14923 0.76369 0.52817 0.0
C1502 C 0.17961 0.80852 0.55444 0.0
C1503 C 0.18028 0.82428 0.55512 0.0
C1504 C 0.18998 0.83648 0.54416 0.0
C1505 C 0.19904 0.83307 0.53216 0.0
C1506 C 0.19832 0.81726 0.53146 0.0
C1507 C 0.18872 0.80509 0.54258 0.0
C1508 C 0.17412 0.80015 0.67132 0.0
C1509 C 0.08415 0.70715 0.53671 0.0
H1510 H 0.20765 0.38052 0.70658 0.0
H1511 H 0.06614 0.3544 0.5783 0.0
H1512 H 0.21086 0.38356 0.61465 0.0
H1513 H 0.23104 0.37547 0.62469 0.0
H1514 H 0.19988 0.32526 0.59669 0.0
H1515 H 0.17952 0.33318 0.5875 0.0
H1516 H 0.1854 0.39055 0.63724 0.0
H1517 H 0.19602 0.3913 0.66764 0.0
H1518 H 0.1825 0.33843 0.65755 0.0
H1519 H 0.17174 0.33781 0.62725 0.0
H1520 H 0.15064 0.38943 0.62121 0.0
H1521 H 0.13113 0.38648 0.64281 0.0
H1522 H 0.12175 0.33576 0.64978 0.0
H1523 H 0.14095 0.33869 0.62811 0.0
H1524 H 0.14818 0.39049 0.57861 0.0
H1525 H 0.12293 0.39184 0.57283 0.0
H1526 H 0.09403 0.34129 0.58944 0.0
H1527 H 0.11934 0.34004 0.59495 0.0
H1528 H 0.16949 0.3855 0.55126 0.0
H1529 H 0.1566 0.38077 0.52084 0.0
H1530 H 0.11912 0.3299 0.53036 0.0
H1531 H 0.13198 0.33483 0.56063 0.0
H1532 H 0.20162 0.38802 0.56868 0.0
H1533 H 0.21412 0.38763 0.54147 0.0
H1534 H 0.17806 0.33388 0.52954 0.0
H1535 H 0.16529 0.33468 0.55641 0.0
O1536 O 0.20331 0.37992 0.69454 0.0
O1537 O 0.19618 0.35274 0.68866 0.0
O1538 O 0.09172 0.38006 0.57183 0.0
O1539 O 0.07631 0.35417 0.5804 0.0
C1540 C 0.17993 0.36245 0.59715 0.0
C1541 C 0.17163 0.36393 0.61154 0.0
C1542 C 0.15713 0.3649 0.60837 0.0
C1543 C 0.15099 0.36455 0.59083 0.0
C1544 C 0.15926 0.36311 0.57651 0.0
C1545 C 0.17384 0.36233 0.57968 0.0
C1546 C 0.1937 0.35896 0.60035 0.0
C1547 C 0.20857 0.37092 0.61044 0.0
C1548 C 0.2201 0.36628 0.61612 0.0
C1549 C 0.21698 0.34963 0.6117 0.0
C1550 C 0.20253 0.33807 0.60065 0.0
C1551 C 0.19099 0.34267 0.59513 0.0
C1552 C 0.17793 0.36418 0.63002 0.0
C1553 C 0.18472 0.37915 0.64164 0.0
C1554 C 0.19079 0.37954 0.65899 0.0
C1555 C 0.19016 0.36494 0.66501 0.0
C1556 C 0.18323 0.34991 0.65332 0.0
C1557 C 0.17711 0.34954 0.636 0.0
C1558 C 0.14726 0.3643 0.62316 0.0
C1559 C 0.14453 0.3778 0.62763 0.0
C1560 C 0.13336 0.37607 0.63987 0.0
C1561 C 0.12493 0.36089 0.64797 0.0
C1562 C 0.12823 0.3477 0.64396 0.0
C1563 C 0.13922 0.34936 0.63161 0.0
C1564 C 0.13559 0.36522 0.58731 0.0
C1565 C 0.13637 0.37972 0.58096 0.0
C1566 C 0.12194 0.38046 0.57769 0.0
C1567 C 0.10646 0.36668 0.58073 0.0
C1568 C 0.10574 0.35214 0.58701 0.0
C1569 C 0.12017 0.3514 0.59022 0.0
C1570 C 0.1516 0.36054 0.55812 0.0
C1571 C 0.1585 0.37337 0.54671 0.0
C1572 C 0.15117 0.3706 0.52936 0.0
C1573 C 0.13679 0.35498 0.52322 0.0
C1574 C 0.13 0.34217 0.53475 0.0
C1575 C 0.13735 0.34493 0.55202 0.0
C1576 C 0.18263 0.36138 0.56449 0.0
C1577 C 0.1966 0.37614 0.56027 0.0
C1578 C 0.20372 0.37586 0.54471 0.0
C1579 C 0.19704 0.36074 0.5332 0.0
C1580 C 0.18332 0.34583 0.53787 0.0
C1581 C 0.17613 0.34618 0.55332 0.0
C1582 C 0.1967 0.36543 0.68342 0.0
C1583 C 0.0911 0.36744 0.57736 0.0
C1584 C 0.98122 0.37891 0.03917 0.0
C1585 C 0.99462 0.37639 0.03676 0.0
C1586 C 0.97968 0.38539 0.05563 0.0
C1587 C 0.99167 0.38973 0.07008 0.0
C1588 C 0.00471 0.38658 0.06781 0.0
C1589 C 0.00618 0.38001 0.05137 0.0
C1590 C 0.9912 0.39757 0.08765 0.0
C1591 C 0.98227 0.40527 0.09033 0.0
C1592 C 0.98264 0.41418 0.10763 0.0
C1593 C 0.97557 0.42464 0.10787 0.0
C1594 C 0.97602 0.43368 0.12362 0.0
C1595 C 0.98363 0.43252 0.13951 0.0
H1596 H 0.99487 0.40435 0.1245 0.0
C1597 C 0.99036 0.42179 0.13942 0.0
C1598 C 0.98977 0.41263 0.12373 0.0
H1599 H 0.99598 0.42037 0.15157 0.0
H1600 H 0.97194 0.37603 0.02827 0.0
H1601 H 0.96907 0.38691 0.05684 0.0
H1602 H 0.01403 0.38958 0.07871 0.0
H1603 H 0.01663 0.37817 0.05006 0.0
H1604 H -0.00061 0.39782 0.09846 0.0
H1605 H 0.97496 0.40598 0.0792 0.0
H1606 H 0.96986 0.42602 0.09576 0.0
H1607 H 0.97074 0.44186 0.1233 0.0
C1608 C 0.60479 0.57488 0.09965 0.0
C1609 C 0.60585 0.5908 0.10251 0.0
C1610 C 0.59315 0.56084 0.10761 0.0
C1611 C 0.58235 0.56252 0.11856 0.0
C1612 C 0.58299 0.57823 0.12077 0.0
C1613 C 0.59468 0.59224 0.11299 0.0
C1614 C 0.57044 0.54842 0.12819 0.0
C1615 C 0.57292 0.53596 0.13353 0.0
C1616 C 0.56219 0.5236 0.14556 0.0
C1617 C 0.569 0.51657 0.1569 0.0
C1618 C 0.55968 0.50603 0.16942 0.0
C1619 C 0.54335 0.50229 0.17078 0.0
H1620 H 0.5396 0.52366 0.13736 0.0
C1621 C 0.53629 0.50868 0.15891 0.0
C1622 C 0.54555 0.51912 0.14635 0.0
H1623 H 0.52356 0.5056 0.15934 0.0
H1624 H 0.61317 0.57334 0.09156 0.0
H1625 H 0.59269 0.54878 0.10519 0.0
H1626 H 0.57475 0.57985 0.12904 0.0
H1627 H 0.59515 0.60428 0.11558 0.0
H1628 H 0.56017 0.54947 0.13263 0.0
H1629 H 0.58405 0.53584 0.13055 0.0
H1630 H 0.58173 0.51967 0.15646 0.0
H1631 H 0.56542 0.50124 0.17838 0.0
C1632 C 0.42449 0.02079 0.05398 0.0
C1633 C 0.40831 0.00769 0.04775 0.0
C1634 C 0.43197 0.02047 0.07032 0.0
C1635 C 0.4234 0.00704 0.08081 0.0
C1636 C 0.40728 0.99399 0.07457 0.0
C1637 C 0.39978 0.99434 0.05831 0.0
C1638 C 0.431 0.00577 0.09794 0.0
C1639 C 0.44344 0.01927 0.10815 0.0
C1640 C 0.45035 0.01763 0.12554 0.0
C1641 C 0.4569 0.03132 0.13887 0.0
C1642 C 0.46289 0.02993 0.1556 0.0
C1643 C 0.46265 0.01486 0.15928 0.0
H1644 H 0.44626 0.99218 0.11886 0.0
C1645 C 0.45667 0.0014 0.14569 0.0
C1646 C 0.45061 0.00276 0.12901 0.0
H1647 H 0.45669 0.98978 0.14794 0.0
H1648 H 0.43147 0.03121 0.04616 0.0
H1649 H 0.44458 0.03054 0.07442 0.0
H1650 H 0.40042 0.98344 0.08231 0.0
H1651 H 0.38733 0.98399 0.05394 0.0
H1652 H 0.42546 0.99324 0.10272 0.0
H1653 H 0.44798 0.03205 0.10434 0.0
H1654 H 0.45699 0.04297 0.13649 0.0
H1655 H 0.46728 0.04051 0.16578 0.0
C1656 C 0.409 0.99871 0.96233 0.0
C1657 C 0.39893 0.98438 0.97104 0.0
C1658 C 0.41966 0.99822 0.95059 0.0
C1659 C 0.42062 0.98338 0.94737 0.0
C1660 C 0.41072 0.96913 0.95627 0.0
C1661 C 0.40002 0.96962 0.96804 0.0
C1662 C 0.43081 0.98196 0.93385 0.0
C1663 C 0.44392 0.99562 0.9284 0.0
C1664 C 0.45316 0.99464 0.9136 0.0
C1665 C 0.46906 0.00851 0.91229 0.0
C1666 C 0.47781 0.00865 0.89801 0.0
C1667 C 0.47079 0.99495 0.88462 0.0
H1668 H 0.43371 0.9702 0.90037 0.0
C1669 C 0.4549 0.98102 0.88593 0.0
C1670 C 0.44614 0.98088 0.90022 0.0
H1671 H 0.44906 0.9704 0.87567 0.0
H1672 H 0.4083 0.0102 0.96411 0.0
H1673 H 0.42658 0.00929 0.94359 0.0
H1674 H 0.41109 0.95748 0.95391 0.0
H1675 H 0.39234 0.95833 0.97447 0.0
H1676 H 0.42736 0.96922 0.92835 0.0
H1677 H 0.44831 0.00821 0.93515 0.0
H1678 H 0.47474 0.01933 0.92233 0.0
H1679 H 0.49012 0.01947 0.89751 0.0
C1680 C 0.015 0.40181 0.96236 0.0
C1681 C 0.02756 0.40301 0.97443 0.0
C1682 C 0.01675 0.41621 0.95499 0.0
C1683 C 0.03113 0.43223 0.9595 0.0
C1684 C 0.04379 0.43346 0.97144 0.0
C1685 C 0.04198 0.419 0.97894 0.0
C1686 C 0.03357 0.44747 0.95095 0.0
C1687 C 0.02076 0.4494 0.94533 0.0
C1688 C 0.02216 0.46301 0.93446 0.0
C1689 C 0.00893 0.46613 0.93306 0.0
C1690 C 0.00867 0.47721 0.92132 0.0
C1691 C 0.02159 0.48538 0.91057 0.0
H1692 H 0.04564 0.46933 0.92448 0.0
C1693 C 0.03513 0.48276 0.91238 0.0
C1694 C 0.03541 0.47166 0.92416 0.0
H1695 H 0.04517 0.48868 0.90411 0.0
H1696 H 0.00389 0.38967 0.95824 0.0
H1697 H 0.00699 0.41458 0.94532 0.0
H1698 H 0.05509 0.4456 0.97494 0.0
H1699 H 0.05195 0.42032 0.98809 0.0
H1700 H 0.04617 0.45723 0.94932 0.0
H1701 H 0.00843 0.44036 0.94865 0.0
H1702 H 0.99855 0.45963 0.94079 0.0
H1703 H 0.99817 0.47916 0.92043 0.0
C1704 C 0.58269 0.61474 0.03491 0.0
C1705 C 0.59997 0.62254 0.03867 0.0
C1706 C 0.57548 0.61093 0.01739 0.0
C1707 C 0.58542 0.61502 0.00328 0.0
C1708 C 0.6027 0.62328 0.00704 0.0
C1709 C 0.6099 0.62684 0.02454 0.0
C1710 C 0.57814 0.61093 0.98455 0.0
C1711 C 0.5636 0.5967 0.97893 0.0
C1712 C 0.55692 0.59188 0.96 0.0
C1713 C 0.54812 0.57455 0.95349 0.0
C1714 C 0.54207 0.56959 0.93562 0.0
C1715 C 0.54435 0.58185 0.92402 0.0
H1716 H 0.56541 0.6176 0.95317 0.0
C1717 C 0.55268 0.59916 0.93062 0.0
C1718 C 0.55901 0.60416 0.94844 0.0
H1719 H 0.55457 0.60884 0.92191 0.0
H1720 H 0.57468 0.61131 0.04548 0.0
H1721 H 0.56214 0.60493 0.01495 0.0
H1722 H 0.61063 0.6267 0.9964 0.0
H1723 H 0.62326 0.63299 0.02699 0.0
H1724 H 0.58558 0.61914 0.97493 0.0
H1725 H 0.55703 0.58757 0.98825 0.0
H1726 H 0.54622 0.56485 0.96217 0.0
H1727 H 0.53556 0.55615 0.93085 0.0
C1728 C 0.00313 0.6258 0.0149 0.0
C1729 C 0.01442 0.63092 0.03014 0.0
C1730 C 0.00563 0.61875 0.99937 0.0
C1731 C 0.01951 0.6167 0.99874 0.0
C1732 C 0.03111 0.62245 0.01372 0.0
C1733 C 0.02855 0.62936 0.02928 0.0
C1734 C 0.02234 0.60871 0.98275 0.0
C1735 C 0.00986 0.59653 0.97132 0.0
C1736 C 0.01219 0.58773 0.95557 0.0
C1737 C 0.99873 0.57843 0.94255 0.0
C1738 C 0.00013 0.56977 0.9276 0.0
C1739 C 0.01504 0.57009 0.92532 0.0
H1740 H 0.03767 0.59442 0.96325 0.0
C1741 C 0.02851 0.57925 0.93837 0.0
C1742 C 0.02711 0.58791 0.95338 0.0
H1743 H 0.04009 0.57953 0.9371 0.0
H1744 H 0.99218 0.62694 0.01504 0.0
H1745 H 0.9967 0.61502 0.98789 0.0
H1746 H 0.04201 0.62122 0.01353 0.0
H1747 H 0.0376 0.63331 0.0407 0.0
H1748 H 0.03509 0.61259 0.98092 0.0
H1749 H 0.99717 0.59264 0.97358 0.0
H1750 H 0.98707 0.57798 0.94387 0.0
H1751 H 0.98958 0.56304 0.91766 0.0
C1752 C 0.40471 0.4169 0.95007 0.0
C1753 C 0.39364 0.41721 0.96153 0.0
C1754 C 0.41487 0.43122 0.94168 0.0
C1755 C 0.41402 0.44616 0.94429 0.0
C1756 C 0.40349 0.44677 0.95632 0.0
C1757 C 0.3933 0.43238 0.96481 0.0
C1758 C 0.42414 0.46119 0.93465 0.0
C1759 C 0.42814 0.45939 0.91826 0.0
C1760 C 0.43949 0.47368 0.90846 0.0
C1761 C 0.44728 0.47009 0.89507 0.0
C1762 C 0.45837 0.48299 0.88562 0.0
C1763 C 0.46178 0.49979 0.8892 0.0
H1764 H 0.43655 0.49367 0.92178 0.0
C1765 C 0.45366 0.50341 0.90224 0.0
C1766 C 0.44264 0.49048 0.91188 0.0
H1767 H 0.45604 0.51628 0.90514 0.0
H1768 H 0.40539 0.4055 0.94727 0.0
H1769 H 0.42336 0.43047 0.93314 0.0
H1770 H 0.40281 0.45823 0.95878 0.0
H1771 H 0.38495 0.43304 0.97364 0.0
H1772 H 0.42827 0.47376 0.94124 0.0
H1773 H 0.42344 0.44662 0.91179 0.0
H1774 H 0.44497 0.45726 0.89204 0.0
H1775 H 0.46421 0.47978 0.87541 0.0
C1776 C 0.58476 0.98335 0.00737 0.0
C1777 C 0.60037 0.99687 0.01462 0.0
C1778 C 0.57811 0.98352 0.99049 0.0
C1779 C 0.58689 0.99732 0.98048 0.0
C1780 C 0.60262 0.01063 0.98761 0.0
C1781 C 0.60927 0.01046 0.00447 0.0
C1782 C 0.58035 0.99825 0.96251 0.0
C1783 C 0.56419 0.98927 0.95619 0.0
C1784 C 0.55787 0.99056 0.93829 0.0
C1785 C 0.54295 0.97672 0.93005 0.0
C1786 C 0.53662 0.97742 0.91321 0.0
C1787 C 0.54498 0.99209 0.90433 0.0
H1788 H 0.57734 0.01653 0.9356 0.0
C1789 C 0.55974 0.00608 0.91271 0.0
C1790 C 0.56611 0.00536 0.92951 0.0
H1791 H 0.56652 0.01754 0.90618 0.0
H1792 H 0.57762 0.97258 0.01472 0.0
H1793 H 0.56621 0.9727 0.98536 0.0
H1794 H 0.60975 0.02135 0.98017 0.0
H1795 H 0.62136 0.02107 0.00957 0.0
H1796 H 0.58934 0.00695 0.95431 0.0
H1797 H 0.55511 0.9804 0.96419 0.0
H1798 H 0.53624 0.96525 0.9366 0.0
H1799 H 0.5251 0.96652 0.9072 0.0
C1800 C 0.60224 0.03095 0.09688 0.0
C1801 C 0.603 0.01634 0.09151 0.0
C1802 C 0.5904 0.02987 0.10794 0.0
C1803 C 0.57909 0.01412 0.11376 0.0
C1804 C 0.57935 -0.00055 0.10762 0.0
C1805 C 0.59124 0.00055 0.09677 0.0
C1806 C 0.56718 0.01235 0.12663 0.0
C1807 C 0.56983 0.02497 0.1389 0.0
C1808 C 0.55902 0.02209 0.15335 0.0
C1809 C 0.55758 0.03568 0.16084 0.0
C1810 C 0.54774 0.03339 0.17471 0.0
C1811 C 0.53932 0.01749 0.18152 0.0
H1812 H 0.5522 0.9957 0.1555 0.0
C1813 C 0.54107 0.004 0.17426 0.0
C1814 C 0.55082 0.00627 0.16038 0.0
H1815 H 0.53508 0.99173 0.1795 0.0
H1816 H 0.61107 0.04329 0.09295 0.0
H1817 H 0.59026 0.04138 0.11195 0.0
H1818 H 0.5707 0.98714 0.11179 0.0
H1819 H 0.59144 0.98904 0.09294 0.0
H1820 H 0.55641 -0.00027 0.12681 0.0
H1821 H 0.5804 0.03771 0.13877 0.0
H1822 H 0.56394 0.04805 0.15581 0.0
H1823 H 0.54655 0.044 0.17992 0.0
C1824 C 0.9931 0.61042 0.10448 0.0
C1825 C 0.98045 0.60808 0.0918 0.0
C1826 C 0.99224 0.59663 0.11241 0.0
C1827 C 0.97845 0.58008 0.1082 0.0
C1828 C 0.96582 0.57772 0.09541 0.0
C1829 C 0.96679 0.59156 0.08729 0.0
C1830 C 0.97696 0.56503 0.11659 0.0
C1831 C 0.98616 0.56639 0.13159 0.0
C1832 C 0.98529 0.55168 0.13994 0.0
C1833 C 0.99924 0.55444 0.15073 0.0
C1834 C 0.99885 0.54139 0.15977 0.0
C1835 C 0.98439 0.52528 0.15841 0.0
H1836 H 0.95971 0.53296 0.13043 0.0
C1837 C 0.97039 0.5224 0.14752 0.0
C1838 C 0.97084 0.53547 0.1383 0.0
H1839 H 0.95906 0.51011 0.1463 0.0
H1840 H 0.00376 0.62294 0.10838 0.0
H1841 H 0.00262 0.59919 0.12162 0.0
H1842 H 0.95511 0.56513 0.09176 0.0
H1843 H 0.95683 0.58932 0.07755 0.0
H1844 H 0.96798 0.55246 0.11013 0.0
H1845 H 0.99509 0.57887 0.13821 0.0
H1846 H 0.01049 0.56684 0.15234 0.0
H1847 H 0.00973 0.54412 0.16831 0.0
C1848 C 0.42346 0.39725 0.02996 0.0
C1849 C 0.40625 0.39024 0.02637 0.0
C1850 C 0.43095 0.40191 0.04741 0.0
C1851 C 0.42136 0.3995 0.06171 0.0
C1852 C 0.40417 0.39239 0.05806 0.0
C1853 C 0.3967 0.38781 0.04065 0.0
C1854 C 0.42868 0.40486 0.08052 0.0
C1855 C 0.44425 0.409 0.08632 0.0
C1856 C 0.45129 0.41481 0.10517 0.0
C1857 C 0.46479 0.41319 0.11139 0.0
C1858 C 0.47179 0.41862 0.12899 0.0
C1859 C 0.46552 0.42595 0.14074 0.0
H1860 H 0.43521 0.42447 0.11258 0.0
C1861 C 0.45214 0.42776 0.13445 0.0
C1862 C 0.44519 0.42239 0.11689 0.0
H1863 H 0.44688 0.43321 0.14316 0.0
H1864 H 0.43122 0.39942 0.01928 0.0
H1865 H 0.44427 0.40772 0.04946 0.0
H1866 H 0.39644 0.39045 0.06875 0.0
H1867 H 0.38342 0.38244 0.03842 0.0
H1868 H 0.42056 0.40496 0.09006 0.0
H1869 H 0.45205 0.40757 0.07722 0.0
H1870 H 0.4699 0.40761 0.10262 0.0
H1871 H 0.48224 0.41726 0.13333 0.0
C1872 C 0.65686 0.71323 0.38533 0.0
C1873 C 0.65269 0.71681 0.36871 0.0
C1874 C 0.65406 0.71998 0.4009 0.0
C1875 C 0.64724 0.73063 0.40011 0.0
C1876 C 0.64324 0.73432 0.38354 0.0
C1877 C 0.64574 0.72734 0.368 0.0
C1878 C 0.64492 0.73878 0.41629 0.0
C1879 C 0.6408 0.73123 0.43134 0.0
C1880 C 0.63846 0.73958 0.44738 0.0
C1881 C 0.62681 0.72952 0.45868 0.0
C1882 C 0.62461 0.73706 0.47406 0.0
C1883 C 0.63431 0.75477 0.47861 0.0
H1884 H 0.65746 0.76542 0.4437 0.0
C1885 C 0.64606 0.76483 0.46738 0.0
C1886 C 0.64808 0.75733 0.45188 0.0
H1887 H 0.65372 0.77851 0.47061 0.0
H1888 H 0.66228 0.7052 0.38632 0.0
H1889 H 0.65763 0.7172 0.41352 0.0
H1890 H 0.63811 0.74261 0.38259 0.0
H1891 H 0.64252 0.73049 0.35543 0.0
H1892 H 0.64577 0.75106 0.41542 0.0
H1893 H 0.63825 0.71822 0.43167 0.0
H1894 H 0.61936 0.71581 0.45558 0.0
H1895 H 0.61563 0.729 0.48263 0.0
C1896 C 0.26044 0.92575 0.45229 0.0
C1897 C 0.27041 0.92387 0.44033 0.0
C1898 C 0.24984 0.9121 0.46132 0.0
C1899 C 0.24914 0.89632 0.45875 0.0
C1900 C 0.25844 0.89418 0.4461 0.0
C1901 C 0.26903 0.90785 0.43702 0.0
C1902 C 0.23911 0.882 0.46926 0.0
C1903 C 0.23601 0.88461 0.48589 0.0
C1904 C 0.22675 0.87084 0.49734 0.0
C1905 C 0.22768 0.87548 0.5155 0.0
C1906 C 0.21889 0.86319 0.52682 0.0
C1907 C 0.20895 0.84595 0.52024 0.0
H1908 H 0.21534 0.84936 0.47682 0.0
C1909 C 0.20807 0.8412 0.50213 0.0
C1910 C 0.2168 0.85352 0.49074 0.0
H1911 H 0.20026 0.82802 0.49666 0.0
H1912 H 0.26109 0.93787 0.45505 0.0
H1913 H 0.24234 0.91404 0.4704 0.0
H1914 H 0.25794 0.88208 0.44368 0.0
H1915 H 0.27647 0.90596 0.42779 0.0
H1916 H 0.23535 0.86923 0.46357 0.0
H1917 H 0.24117 0.89761 0.49187 0.0
H1918 H 0.2352 0.8887 0.52098 0.0
H1919 H 0.2199 0.8672 0.54076 0.0
C1920 C 0.07832 0.33334 0.39868 0.0
C1921 C 0.08773 0.34242 0.38528 0.0
C1922 C 0.08581 0.33558 0.41585 0.0
C1923 C 0.10298 0.34691 0.41999 0.0
C1924 C 0.11235 0.35579 0.4065 0.0
C1925 C 0.10486 0.35359 0.38937 0.0
C1926 C 0.11161 0.35035 0.43816 0.0
C1927 C 0.10474 0.34129 0.45179 0.0
C1928 C 0.11344 0.34536 0.46994 0.0
C1929 C 0.10388 0.3401 0.48429 0.0
C1930 C 0.11146 0.34342 0.50155 0.0
C1931 C 0.12882 0.35194 0.50488 0.0
H1932 H 0.13865 0.35763 0.46252 0.0
C1933 C 0.13843 0.35716 0.49053 0.0
C1934 C 0.13084 0.35386 0.47323 0.0
H1935 H 0.15181 0.36344 0.49264 0.0
H1936 H 0.06508 0.3247 0.39603 0.0
H1937 H 0.0779 0.32863 0.42572 0.0
H1938 H 0.12557 0.36462 0.40922 0.0
H1939 H 0.11252 0.3608 0.37939 0.0
H1940 H 0.12421 0.36111 0.44036 0.0
H1941 H 0.09208 0.33073 0.45001 0.0
H1942 H 0.09047 0.33349 0.48215 0.0
H1943 H 0.1037 0.33939 0.51233 0.0
C1944 C 0.06799 0.29518 0.30272 0.0
C1945 C 0.07123 0.31176 0.30771 0.0
C1946 C 0.07572 0.29218 0.28888 0.0
C1947 C 0.08692 0.30579 0.27989 0.0
C1948 C 0.09064 0.32239 0.28548 0.0
C1949 C 0.08291 0.32536 0.29918 0.0
C1950 C 0.09399 0.30334 0.26378 0.0
C1951 C 0.09411 0.28907 0.2584 0.0
C1952 C 0.1011 0.28777 0.24178 0.0
C1953 C 0.11012 0.27933 0.24096 0.0
C1954 C 0.11806 0.2794 0.22593 0.0
C1955 C 0.11691 0.28775 0.21139 0.0
H1956 H 0.09175 0.30131 0.22681 0.0
C1957 C 0.10704 0.2953 0.21186 0.0
C1958 C 0.09919 0.29528 0.22686 0.0
H1959 H 0.10555 0.30142 0.20068 0.0
H1960 H 0.05896 0.28442 0.30897 0.0
H1961 H 0.0723 0.27915 0.28486 0.0
H1962 H 0.09921 0.33312 0.27882 0.0
H1963 H 0.08568 0.33828 0.30258 0.0
H1964 H 0.09964 0.31413 0.25597 0.0
H1965 H 0.09002 0.27863 0.26664 0.0
H1966 H 0.11159 0.27329 0.25222 0.0
H1967 H 0.12562 0.27351 0.22599 0.0
C1968 C 0.70238 0.7532 0.31169 0.0
C1969 C 0.68829 0.73695 0.30717 0.0
C1970 C 0.70446 0.76713 0.30283 0.0
C1971 C 0.69243 0.76498 0.28932 0.0
C1972 C 0.67835 0.74878 0.28501 0.0
C1973 C 0.67637 0.73493 0.29367 0.0
C1974 C 0.69377 0.7791 0.27937 0.0
C1975 C 0.70817 0.79311 0.27691 0.0
C1976 C 0.70899 0.80596 0.26515 0.0
C1977 C 0.72246 0.82277 0.26793 0.0
C1978 C 0.72368 0.835 0.25684 0.0
C1979 C 0.71146 0.83062 0.24267 0.0
H1980 H 0.68678 0.7886 0.24754 0.0
C1981 C 0.69814 0.81375 0.23972 0.0
C1982 C 0.69695 0.80155 0.25073 0.0
H1983 H 0.68879 0.80984 0.22861 0.0
H1984 H 0.71177 0.75518 0.32206 0.0
H1985 H 0.71532 0.7795 0.30679 0.0
H1986 H 0.6689 0.74674 0.27465 0.0
H1987 H 0.66551 0.72259 0.28959 0.0
H1988 H 0.68224 0.77733 0.27309 0.0
H1989 H 0.71976 0.79522 0.2834 0.0
H1990 H 0.73202 0.82647 0.27878 0.0
H1991 H 0.7341 0.84791 0.25943 0.0
C1992 C 0.26969 0.95358 0.36072 0.0
C1993 C 0.26099 0.95281 0.37539 0.0
C1994 C 0.26183 0.94971 0.34349 0.0
C1995 C 0.24496 0.94476 0.34052 0.0
C1996 C 0.23638 0.9443 0.35519 0.0
C1997 C 0.24426 0.94824 0.37241 0.0
C1998 C 0.23591 0.94021 0.32244 0.0
C1999 C 0.24104 0.93558 0.30805 0.0
C2000 C 0.23194 0.9307 0.29003 0.0
C2001 C 0.24076 0.93185 0.27541 0.0
C2002 C 0.23269 0.92666 0.25827 0.0
C2003 C 0.2155 0.91999 0.25531 0.0
H2004 H 0.20737 0.92265 0.29801 0.0
C2005 C 0.20664 0.91898 0.26991 0.0
C2006 C 0.21474 0.92423 0.28711 0.0
H2007 H 0.19334 0.91365 0.2681 0.0
H2008 H 0.28265 0.95726 0.36249 0.0
H2009 H 0.26917 0.95088 0.33266 0.0
H2010 H 0.22344 0.9407 0.35334 0.0
H2011 H 0.23717 0.94757 0.38338 0.0
H2012 H 0.22445 0.94044 0.32114 0.0
H2013 H 0.25249 0.93533 0.30927 0.0
H2014 H 0.254 0.93676 0.27725 0.0
H2015 H 0.23995 0.92787 0.24731 0.0
C2016 C 0.67693 0.9528 0.35268 0.0
C2017 C 0.68094 0.95001 0.36979 0.0
C2018 C 0.68151 0.94692 0.33785 0.0
C2019 C 0.69006 0.938 0.33984 0.0
C2020 C 0.69385 0.93503 0.3569 0.0
C2021 C 0.68951 0.94112 0.37172 0.0
C2022 C 0.69445 0.9309 0.3244 0.0
C2023 C 0.69824 0.93834 0.30925 0.0
C2024 C 0.70228 0.93095 0.29371 0.0
C2025 C 0.71279 0.94187 0.28204 0.0
C2026 C 0.71619 0.93523 0.26684 0.0
C2027 C 0.70886 0.91751 0.26286 0.0
H2028 H 0.68664 0.90438 0.29827 0.0
C2029 C 0.69839 0.90658 0.27455 0.0
C2030 C 0.69514 0.91322 0.28984 0.0
H2031 H 0.69256 0.89287 0.27177 0.0
H2032 H 0.6703 0.95956 0.35073 0.0
H2033 H 0.67801 0.94905 0.32484 0.0
H2034 H 0.70027 0.92804 0.35878 0.0
H2035 H 0.69268 0.93862 0.3847 0.0
H2036 H 0.69532 0.91958 0.32593 0.0
H2037 H 0.69904 0.95059 0.30838 0.0
H2038 H 0.71832 0.95556 0.28463 0.0
H2039 H 0.72413 0.94393 0.25792 0.0
C2040 C 0.0713 0.76123 0.29014 0.0
C2041 C 0.06393 0.76156 0.30559 0.0
C2042 C 0.08089 0.77618 0.2824 0.0
C2043 C 0.08343 0.79185 0.28999 0.0
C2044 C 0.07666 0.79237 0.30583 0.0
C2045 C 0.06678 0.77728 0.31347 0.0
C2046 C 0.09334 0.80765 0.28146 0.0
C2047 C 0.09185 0.80755 0.26374 0.0
C2048 C 0.10279 0.82205 0.25397 0.0
C2049 C 0.09706 0.82278 0.23677 0.0
C2050 C 0.10771 0.83468 0.22608 0.0
C2051 C 0.12441 0.84594 0.2323 0.0
H2052 H 0.12427 0.83342 0.27358 0.0
C2053 C 0.13005 0.84564 0.24974 0.0
C2054 C 0.11932 0.83384 0.26052 0.0
H2055 H 0.14287 0.85422 0.25486 0.0
H2056 H 0.06938 0.74935 0.28374 0.0
H2057 H 0.08636 0.77547 0.27046 0.0
H2058 H 0.07865 0.80436 0.31201 0.0
H2059 H 0.06132 0.77791 0.32545 0.0
H2060 H 0.10169 0.81937 0.28982 0.0
H2061 H 0.08221 0.79607 0.25585 0.0
H2062 H 0.08442 0.81374 0.23136 0.0
H2063 H 0.10307 0.83448 0.21262 0.0
C2064 C 0.23976 0.31635 0.34404 0.0
C2065 C 0.25644 0.32918 0.34833 0.0
C2066 C 0.23225 0.31299 0.32669 0.0
C2067 C 0.24133 0.3223 0.31314 0.0
C2068 C 0.25799 0.3351 0.3175 0.0
C2069 C 0.26545 0.33851 0.33483 0.0
C2070 C 0.23399 0.3197 0.29449 0.0
C2071 C 0.21895 0.30666 0.28777 0.0
C2072 C 0.21189 0.30487 0.26916 0.0
C2073 C 0.19914 0.28879 0.26148 0.0
C2074 C 0.19206 0.28669 0.24411 0.0
C2075 C 0.19752 0.30069 0.23408 0.0
H2076 H 0.22654 0.33165 0.26465 0.0
C2077 C 0.21021 0.31679 0.24183 0.0
C2078 C 0.21719 0.31891 0.25916 0.0
H2079 H 0.21486 0.32784 0.23445 0.0
H2080 H 0.23242 0.30898 0.35414 0.0
H2081 H 0.21931 0.30328 0.32417 0.0
H2082 H 0.26531 0.34256 0.30744 0.0
H2083 H 0.27833 0.34847 0.33761 0.0
H2084 H 0.24171 0.32893 0.28582 0.0
H2085 H 0.21162 0.29658 0.29583 0.0
H2086 H 0.19465 0.27778 0.26892 0.0
H2087 H 0.18216 0.27416 0.23865 0.0
C2088 C 0.25515 0.34967 0.43106 0.0
C2089 C 0.26652 0.36379 0.42288 0.0
C2090 C 0.2456 0.35145 0.44345 0.0
C2091 C 0.24724 0.36745 0.44802 0.0
C2092 C 0.25822 0.38146 0.43947 0.0
C2093 C 0.26767 0.37963 0.42689 0.0
C2094 C 0.23902 0.37018 0.46293 0.0
C2095 C 0.2247 0.35772 0.46788 0.0
C2096 C 0.2178 0.35963 0.48434 0.0
C2097 C 0.20064 0.35007 0.48519 0.0
C2098 C 0.19388 0.35065 0.50093 0.0
C2099 C 0.2042 0.36055 0.51629 0.0
H2100 H 0.24149 0.37683 0.49957 0.0
C2101 C 0.22142 0.37015 0.5154 0.0
C2102 C 0.22815 0.36973 0.4996 0.0
H2103 H 0.22978 0.37765 0.52702 0.0
H2104 H 0.25403 0.33732 0.42841 0.0
H2105 H 0.23761 0.34044 0.45008 0.0
H2106 H 0.25981 0.39395 0.44286 0.0
H2107 H 0.27639 0.39079 0.42091 0.0
H2108 H 0.24512 0.3828 0.47018 0.0
H2109 H 0.21772 0.34564 0.45964 0.0
H2110 H 0.19242 0.34211 0.47365 0.0
H2111 H 0.18055 0.34335 0.50101 0.0
C2112 C 0.62927 0.91265 0.42347 0.0
C2113 C 0.64116 0.92964 0.4296 0.0
C2114 C 0.62666 0.89938 0.43371 0.0
C2115 C 0.63579 0.90294 0.45033 0.0
C2116 C 0.64757 0.91991 0.45642 0.0
C2117 C 0.65035 0.93309 0.44612 0.0
C2118 C 0.63289 0.88951 0.46213 0.0
C2119 C 0.62801 0.87329 0.45625 0.0
C2120 C 0.62627 0.86061 0.46864 0.0
C2121 C 0.63067 0.84841 0.46382 0.0
C2122 C 0.63014 0.83707 0.47576 0.0
C2123 C 0.62485 0.8375 0.4926 0.0
H2124 H 0.61663 0.86966 0.48924 0.0
C2125 C 0.61982 0.84927 0.49713 0.0
C2126 C 0.62053 0.86071 0.48529 0.0
H2127 H 0.61574 0.84995 0.51003 0.0
H2128 H 0.62196 0.90963 0.41082 0.0
H2129 H 0.61723 0.88645 0.4288 0.0
H2130 H 0.65468 0.92301 0.46922 0.0
H2131 H 0.65949 0.94605 0.45131 0.0
H2132 H 0.636 0.8935 0.47626 0.0
H2133 H 0.62653 0.86957 0.44213 0.0
H2134 H 0.63498 0.84798 0.451 0.0
H2135 H 0.63392 0.828 0.47186 0.0
C2136 C 0.07227 0.72829 0.37994 0.0
C2137 C 0.08069 0.73144 0.36466 0.0
C2138 C 0.08093 0.73237 0.39676 0.0
C2139 C 0.09831 0.7399 0.39874 0.0
C2140 C 0.10665 0.74257 0.38346 0.0
C2141 C 0.09797 0.73844 0.36662 0.0
C2142 C 0.10809 0.74497 0.41644 0.0
C2143 C 0.10276 0.74861 0.43126 0.0
C2144 C 0.11234 0.75422 0.4491 0.0
C2145 C 0.10684 0.76093 0.46241 0.0
C2146 C 0.11507 0.7661 0.47948 0.0
C2147 C 0.1291 0.7647 0.48375 0.0
H2148 H 0.13087 0.74725 0.44374 0.0
C2149 C 0.13464 0.75792 0.47049 0.0
C2150 C 0.12635 0.75268 0.45337 0.0
H2151 H 0.14542 0.75669 0.47333 0.0
H2152 H 0.05893 0.72269 0.37895 0.0
H2153 H 0.07389 0.72943 0.40811 0.0
H2154 H 0.11999 0.74816 0.38455 0.0
H2155 H 0.10488 0.74096 0.35515 0.0
H2156 H 0.1204 0.74665 0.41689 0.0
H2157 H 0.09097 0.7482 0.43029 0.0
H2158 H 0.09602 0.76213 0.45964 0.0
H2159 H 0.11021 0.77089 0.48943 0.0
C2160 C 0.30943 0.05319 0.70378 0.0
C2161 C 0.32231 0.04955 0.70308 0.0
C2162 C 0.30723 0.06018 0.71953 0.0
C2163 C 0.31784 0.06363 0.73502 0.0
C2164 C 0.33071 0.06002 0.73432 0.0
C2165 C 0.33288 0.05298 0.71858 0.0
C2166 C 0.31635 0.07167 0.75188 0.0
C2167 C 0.30215 0.07068 0.7561 0.0
C2168 C 0.30089 0.07877 0.77305 0.0
C2169 C 0.28559 0.07161 0.78017 0.0
C2170 C 0.28407 0.07869 0.79628 0.0
C2171 C 0.2978 0.09324 0.80551 0.0
H2172 H 0.32634 0.0999 0.7766 0.0
C2173 C 0.31298 0.10074 0.79805 0.0
C2174 C 0.31451 0.09361 0.78201 0.0
H2175 H 0.32369 0.1122 0.80458 0.0
H2176 H 0.30111 0.05084 0.69208 0.0
H2177 H 0.29747 0.06322 0.71934 0.0
H2178 H 0.33915 0.06267 0.746 0.0
H2179 H 0.34298 0.05042 0.71854 0.0
H2180 H 0.32725 0.07802 0.76146 0.0
H2181 H 0.2908 0.06294 0.74737 0.0
H2182 H 0.27486 0.06028 0.77344 0.0
H2183 H 0.27224 0.0725 0.80169 0.0
C2184 C 0.92769 0.24814 0.77416 0.0
C2185 C 0.93917 0.24837 0.76296 0.0
C2186 C 0.91751 0.23351 0.78214 0.0
C2187 C 0.9185 0.21869 0.77906 0.0
C2188 C 0.92983 0.21882 0.7677 0.0
C2189 C 0.94 0.23349 0.75962 0.0
C2190 C 0.90895 0.20357 0.78879 0.0
C2191 C 0.89445 0.19987 0.79493 0.0
C2192 C 0.8859 0.18672 0.80719 0.0
C2193 C 0.86925 0.18122 0.80927 0.0
C2194 C 0.86121 0.1704 0.8221 0.0
C2195 C 0.8697 0.16492 0.83326 0.0
H2196 H 0.90726 0.18513 0.81724 0.0
C2197 C 0.88624 0.17001 0.83089 0.0
C2198 C 0.8943 0.18085 0.81804 0.0
H2199 H 0.89316 0.16615 0.83944 0.0
H2200 H 0.92691 0.25943 0.7773 0.0
H2201 H 0.90941 0.23419 0.7913 0.0
H2202 H 0.93098 0.20764 0.76527 0.0
H2203 H 0.94881 0.23331 0.75115 0.0
H2204 H 0.91416 0.19549 0.79105 0.0
H2205 H 0.88857 0.20703 0.79106 0.0
H2206 H 0.8625 0.18557 0.80116 0.0
H2207 H 0.84837 0.16647 0.82342 0.0
C2208 C 0.75155 0.6774 0.72932 0.0
C2209 C 0.75832 0.68945 0.71701 0.0
C2210 C 0.75989 0.68025 0.74613 0.0
C2211 C 0.77514 0.69538 0.75114 0.0
C2212 C 0.78206 0.70724 0.73872 0.0
C2213 C 0.77375 0.70435 0.72186 0.0
C2214 C 0.78431 0.69906 0.76901 0.0
C2215 C 0.77688 0.692 0.78339 0.0
C2216 C 0.78561 0.69552 0.80149 0.0
C2217 C 0.77599 0.6903 0.81581 0.0
C2218 C 0.78343 0.69283 0.83301 0.0
C2219 C 0.80072 0.70063 0.83635 0.0
H2220 H 0.81091 0.70719 0.79423 0.0
C2221 C 0.81043 0.70596 0.82211 0.0
C2222 C 0.80298 0.70335 0.80483 0.0
H2223 H 0.82378 0.7118 0.82427 0.0
H2224 H 0.73981 0.66566 0.72597 0.0
H2225 H 0.75438 0.67043 0.75498 0.0
H2226 H 0.79387 0.7189 0.74212 0.0
H2227 H 0.77939 0.71389 0.71271 0.0
H2228 H 0.79742 0.70853 0.77035 0.0
H2229 H 0.76352 0.68364 0.78214 0.0
H2230 H 0.76262 0.68421 0.8137 0.0
H2231 H 0.77563 0.68876 0.84375 0.0
C2232 C 0.74499 0.64315 0.63771 0.0
C2233 C 0.74437 0.65816 0.64094 0.0
C2234 C 0.75424 0.6418 0.62459 0.0
C2235 C 0.76301 0.65546 0.61442 0.0
C2236 C 0.76303 0.67071 0.61832 0.0
C2237 C 0.75375 0.67203 0.63133 0.0
C2238 C 0.77193 0.65434 0.59936 0.0
C2239 C 0.76836 0.63956 0.59024 0.0
C2240 C 0.77626 0.63899 0.57408 0.0
C2241 C 0.77828 0.625 0.56982 0.0
C2242 C 0.78562 0.6241 0.55464 0.0
C2243 C 0.79088 0.63708 0.54325 0.0
H2244 H 0.77921 0.66244 0.56494 0.0
C2245 C 0.78844 0.65086 0.54728 0.0
C2246 C 0.78119 0.65181 0.5625 0.0
H2247 H 0.79198 0.66086 0.53857 0.0
H2248 H 0.738 0.63228 0.645 0.0
H2249 H 0.75436 0.63002 0.62245 0.0
H2250 H 0.76979 0.68149 0.61083 0.0
H2251 H 0.75357 0.68378 0.63345 0.0
H2252 H 0.78121 0.66632 0.59502 0.0
H2253 H 0.75932 0.62744 0.59449 0.0
H2254 H 0.77441 0.61487 0.57843 0.0
H2255 H 0.78747 0.61338 0.55203 0.0
C2256 C 0.36948 0.08427 0.64069 0.0
C2257 C 0.35495 0.06816 0.63798 0.0
C2258 C 0.37144 0.09736 0.63048 0.0
C2259 C 0.35881 0.09458 0.61739 0.0
C2260 C 0.34426 0.07851 0.61492 0.0
C2261 C 0.34235 0.06548 0.62503 0.0
C2262 C 0.36034 0.10754 0.60541 0.0
C2263 C 0.37251 0.12407 0.60724 0.0
C2264 C 0.37342 0.13621 0.59446 0.0
C2265 C 0.38115 0.15369 0.6002 0.0
C2266 C 0.38176 0.1653 0.58857 0.0
C2267 C 0.37469 0.15963 0.57093 0.0
H2268 H 0.36155 0.11747 0.5714 0.0
C2269 C 0.36747 0.14224 0.56503 0.0
C2270 C 0.36692 0.13068 0.5766 0.0
H2271 H 0.36235 0.13756 0.55138 0.0
H2272 H 0.37947 0.08671 0.6505 0.0
H2273 H 0.38299 0.10938 0.63272 0.0
H2274 H 0.33434 0.07591 0.60491 0.0
H2275 H 0.33108 0.0532 0.6224 0.0
H2276 H 0.35057 0.10316 0.5946 0.0
H2277 H 0.38167 0.12917 0.61868 0.0
H2278 H 0.38645 0.15833 0.61381 0.0
H2279 H 0.38742 0.17864 0.59348 0.0
C2280 C 0.93581 0.27553 0.68483 0.0
C2281 C 0.928 0.27791 0.69905 0.0
C2282 C 0.92814 0.27164 0.66749 0.0
C2283 C 0.91252 0.27011 0.664 0.0
C2284 C 0.90494 0.27294 0.67813 0.0
C2285 C 0.91251 0.27664 0.69547 0.0
C2286 C 0.90391 0.26587 0.64581 0.0
C2287 C 0.90557 0.25596 0.63322 0.0
C2288 C 0.89646 0.25098 0.61521 0.0
C2289 C 0.89343 0.2358 0.60582 0.0
C2290 C 0.88529 0.23083 0.5887 0.0
C2291 C 0.88019 0.24108 0.58042 0.0
H2292 H 0.89379 0.27324 0.61365 0.0
C2293 C 0.8832 0.25629 0.58983 0.0
C2294 C 0.89127 0.26121 0.60703 0.0
H2295 H 0.87973 0.26463 0.58373 0.0
H2296 H 0.94778 0.27652 0.68709 0.0
H2297 H 0.93458 0.27005 0.65686 0.0
H2298 H 0.89299 0.27201 0.6758 0.0
H2299 H 0.90619 0.27854 0.70606 0.0
H2300 H 0.89507 0.27006 0.64318 0.0
H2301 H 0.91316 0.25041 0.63648 0.0
H2302 H 0.8973 0.22769 0.61179 0.0
H2303 H 0.88296 0.21891 0.58197 0.0
C2304 C 0.34821 0.29444 0.68323 0.0
C2305 C 0.35582 0.29513 0.7 0.0
C2306 C 0.35228 0.28862 0.66794 0.0
C2307 C 0.36397 0.28322 0.66912 0.0
C2308 C 0.3719 0.28443 0.68582 0.0
C2309 C 0.36786 0.29025 0.70106 0.0
C2310 C 0.36837 0.27634 0.6534 0.0
C2311 C 0.3585 0.26956 0.63803 0.0
C2312 C 0.36227 0.26164 0.62259 0.0
C2313 C 0.34947 0.25174 0.60906 0.0
C2314 C 0.35226 0.24404 0.59428 0.0
C2315 C 0.36796 0.24601 0.59261 0.0
H2316 H 0.38849 0.27163 0.63062 0.0
C2317 C 0.38085 0.256 0.60607 0.0
C2318 C 0.37809 0.2638 0.62084 0.0
H2319 H 0.39309 0.25778 0.60522 0.0
H2320 H 0.33901 0.29827 0.6819 0.0
H2321 H 0.34628 0.2885 0.65531 0.0
H2322 H 0.38107 0.28055 0.68715 0.0
H2323 H 0.37408 0.29068 0.71371 0.0
H2324 H 0.37971 0.27592 0.65517 0.0
H2325 H 0.3466 0.26889 0.63686 0.0
H2326 H 0.33721 0.24995 0.60988 0.0
H2327 H 0.34213 0.23679 0.58398 0.0
C2328 C 0.73543 0.10071 0.63229 0.0
C2329 C 0.73672 0.08597 0.63078 0.0
C2330 C 0.74681 0.11545 0.6251 0.0
C2331 C 0.75977 0.11572 0.61644 0.0
C2332 C 0.76157 0.10134 0.61584 0.0
C2333 C 0.75007 0.08655 0.62274 0.0
C2334 C 0.77118 0.13043 0.60722 0.0
C2335 C 0.76614 0.1397 0.59846 0.0
C2336 C 0.77646 0.15188 0.58613 0.0
C2337 C 0.76866 0.15353 0.57069 0.0
C2338 C 0.77804 0.16343 0.55784 0.0
C2339 C 0.79546 0.1721 0.56032 0.0
H2340 H 0.80025 0.16064 0.60109 0.0
C2341 C 0.80325 0.1712 0.57627 0.0
C2342 C 0.79386 0.16119 0.58904 0.0
H2343 H 0.81663 0.17811 0.57881 0.0
H2344 H 0.72532 0.1007 0.63849 0.0
H2345 H 0.74534 0.12651 0.62616 0.0
H2346 H 0.77153 0.10129 0.60935 0.0
H2347 H 0.75149 0.07549 0.62141 0.0
H2348 H 0.78336 0.13215 0.60565 0.0
H2349 H 0.75338 0.13673 0.5985 0.0
H2350 H 0.75526 0.14655 0.5682 0.0
H2351 H 0.77162 0.16374 0.54569 0.0
C2352 C 0.92119 0.66819 0.66806 0.0
C2353 C 0.91319 0.65884 0.68204 0.0
C2354 C 0.91277 0.66443 0.65114 0.0
C2355 C 0.89615 0.65112 0.64776 0.0
C2356 C 0.88809 0.64201 0.66178 0.0
C2357 C 0.89651 0.64574 0.6787 0.0
C2358 C 0.88669 0.64676 0.62999 0.0
C2359 C 0.89395 0.64999 0.6148 0.0
C2360 C 0.88476 0.64634 0.59698 0.0
C2361 C 0.89346 0.65554 0.58329 0.0
C2362 C 0.8854 0.65283 0.56638 0.0
C2363 C 0.86845 0.64071 0.56268 0.0
H2364 H 0.86078 0.62615 0.60321 0.0
C2365 C 0.85978 0.63113 0.57621 0.0
C2366 C 0.86784 0.6339 0.59321 0.0
H2367 H 0.84672 0.62165 0.57372 0.0
H2368 H 0.93398 0.67848 0.67017 0.0
H2369 H 0.9193 0.67221 0.6409 0.0
H2370 H 0.87525 0.63183 0.65961 0.0
H2371 H 0.8899 0.63832 0.68915 0.0
H2372 H 0.8733 0.64059 0.62957 0.0
H2373 H 0.90733 0.65604 0.61531 0.0
H2374 H 0.90652 0.66504 0.58573 0.0
H2375 H 0.89251 0.66017 0.55614 0.0
C2376 C 0.91923 0.6833 0.766 0.0
C2377 C 0.92968 0.69624 0.75593 0.0
C2378 C 0.91086 0.68652 0.77881 0.0
C2379 C 0.91291 0.70286 0.78204 0.0
C2380 C 0.92254 0.71553 0.77127 0.0
C2381 C 0.93094 0.71228 0.75836 0.0
C2382 C 0.90532 0.70693 0.79674 0.0
C2383 C 0.9034 0.69956 0.81196 0.0
C2384 C 0.89545 0.70245 0.82706 0.0
C2385 C 0.89024 0.6906 0.83966 0.0
C2386 C 0.88246 0.69242 0.854 0.0
C2387 C 0.87981 0.70623 0.85616 0.0
H2388 H 0.89727 0.72618 0.82027 0.0
C2389 C 0.88535 0.71837 0.84383 0.0
C2390 C 0.89309 0.71651 0.82939 0.0
H2391 H 0.88343 0.72914 0.84517 0.0
H2392 H 0.91784 0.67076 0.76441 0.0
H2393 H 0.90294 0.6762 0.7863 0.0
H2394 H 0.92408 0.72814 0.77331 0.0
H2395 H 0.93884 0.7225 0.75074 0.0
H2396 H 0.90172 0.7164 0.79502 0.0
H2397 H 0.90762 0.69052 0.81344 0.0
H2398 H 0.89203 0.67974 0.83833 0.0
H2399 H 0.87856 0.68301 0.86344 0.0
C2400 C 0.32505 0.26962 0.77064 0.0
C2401 C 0.31383 0.26882 0.75703 0.0
C2402 C 0.32194 0.25514 0.7788 0.0
C2403 C 0.30721 0.23946 0.77392 0.0
C2404 C 0.29609 0.23855 0.76006 0.0
C2405 C 0.29934 0.25308 0.7517 0.0
C2406 C 0.30326 0.22388 0.78283 0.0
C2407 C 0.31025 0.22455 0.79911 0.0
C2408 C 0.30712 0.20939 0.80824 0.0
C2409 C 0.31929 0.21128 0.82132 0.0
C2410 C 0.31673 0.19778 0.83098 0.0
C2411 C 0.30182 0.18206 0.82796 0.0
H2412 H 0.28241 0.19175 0.79531 0.0
C2413 C 0.2896 0.18007 0.81483 0.0
C2414 C 0.29223 0.19359 0.805 0.0
H2415 H 0.27796 0.16809 0.81226 0.0
H2416 H 0.3363 0.28148 0.77518 0.0
H2417 H 0.33127 0.25644 0.78881 0.0
H2418 H 0.28475 0.22661 0.75584 0.0
H2419 H 0.29044 0.25202 0.74122 0.0
H2420 H 0.29428 0.2116 0.77577 0.0
H2421 H 0.31903 0.23681 0.80628 0.0
H2422 H 0.33082 0.22334 0.82419 0.0
H2423 H 0.32626 0.19981 0.84121 0.0
C2424 C 0.75782 0.0541 0.69652 0.0
C2425 C 0.74167 0.05096 0.69223 0.0
C2426 C 0.7645 0.05717 0.7142 0.0
C2427 C 0.75517 0.05726 0.72803 0.0
C2428 C 0.7389 0.0537 0.7237 0.0
C2429 C 0.73224 0.05063 0.70606 0.0
C2430 C 0.76176 0.06107 0.74708 0.0
C2431 C 0.77796 0.06859 0.75304 0.0
C2432 C 0.78419 0.07353 0.77215 0.0
C2433 C 0.79942 0.07509 0.77802 0.0
C2434 C 0.80595 0.08037 0.79577 0.0
C2435 C 0.79747 0.08444 0.80797 0.0
H2436 H 0.76422 0.07712 0.78038 0.0
C2437 C 0.78224 0.08291 0.80209 0.0
C2438 C 0.77571 0.07759 0.7844 0.0
H2439 H 0.77535 0.08585 0.81119 0.0
H2440 H 0.76539 0.05429 0.68622 0.0
H2441 H 0.77689 0.05935 0.71681 0.0
H2442 H 0.73136 0.05355 0.73402 0.0
H2443 H 0.71973 0.04818 0.7033 0.0
H2444 H 0.75273 0.05795 0.75661 0.0
H2445 H 0.78717 0.07145 0.74379 0.0
H2446 H 0.80632 0.07225 0.76883 0.0
H2447 H 0.8178 0.08161 0.79986 0.0
C2448 C 0.05517 0.3578 0.05669 0.0
C2449 C 0.04747 0.35045 0.03952 0.0
C2450 C 0.06266 0.35062 0.06673 0.0
C2451 C 0.06254 0.33586 0.0598 0.0
C2452 C 0.05485 0.32858 0.04264 0.0
C2453 C 0.04733 0.3357 0.03265 0.0
C2454 C 0.07106 0.32821 0.06948 0.0
C2455 C 0.07482 0.33058 0.08719 0.0
C2456 C 0.08451 0.3239 0.0964 0.0
C2457 C 0.09396 0.33259 0.11253 0.0
C2458 C 0.10427 0.32759 0.12093 0.0
C2459 C 0.10521 0.31365 0.11347 0.0
H2460 H 0.07723 0.30195 0.07734 0.0
C2461 C 0.09506 0.30436 0.09783 0.0
C2462 C 0.08479 0.3094 0.08939 0.0
H2463 H 0.0955 0.29355 0.09176 0.0
H2464 H 0.05557 0.36921 0.06234 0.0
H2465 H 0.06886 0.35698 0.07967 0.0
H2466 H 0.05467 0.31731 0.03689 0.0
H2467 H 0.04154 0.3297 0.01946 0.0
H2468 H 0.07452 0.32046 0.06146 0.0
H2469 H 0.07149 0.3384 0.09527 0.0
H2470 H 0.0938 0.34363 0.11839 0.0
H2471 H 0.11173 0.33483 0.13313 0.0
C2472 C 0.63832 0.69329 0.10741 0.0
C2473 C 0.64654 0.68583 0.09924 0.0
C2474 C 0.64657 0.71079 0.1126 0.0
C2475 C 0.66325 0.72134 0.10956 0.0
C2476 C 0.67139 0.71395 0.10111 0.0
C2477 C 0.66312 0.69642 0.09592 0.0
C2478 C 0.67279 0.73978 0.11613 0.0
C2479 C 0.66553 0.74909 0.11923 0.0
C2480 C 0.67451 0.76711 0.12726 0.0
C2481 C 0.66664 0.77667 0.12556 0.0
C2482 C 0.6739 0.79319 0.13396 0.0
C2483 C 0.68918 0.80054 0.14441 0.0
H2484 H 0.6963 0.76752 0.13953 0.0
C2485 C 0.69729 0.79117 0.14587 0.0
C2486 C 0.68999 0.77457 0.13747 0.0
H2487 H 0.70902 0.79648 0.15396 0.0
H2488 H 0.6256 0.68553 0.11031 0.0
H2489 H 0.63996 0.71581 0.11956 0.0
H2490 H 0.68425 0.72174 0.09872 0.0
H2491 H 0.66988 0.69112 0.0897 0.0
H2492 H 0.68618 0.7458 0.11819 0.0
H2493 H 0.65232 0.74338 0.11554 0.0
H2494 H 0.65472 0.77128 0.11782 0.0
H2495 H 0.66749 0.80021 0.13231 0.0
C2496 C 0.30281 0.95846 0.01961 0.0
C2497 C 0.31864 0.96116 0.02483 0.0
C2498 C 0.29062 0.95281 0.03134 0.0
C2499 C 0.29401 0.94971 0.04855 0.0
C2500 C 0.30976 0.95221 0.05368 0.0
C2501 C 0.32193 0.95776 0.04192 0.0
C2502 C 0.28179 0.9448 0.06178 0.0
C2503 C 0.26529 0.93641 0.05739 0.0
C2504 C 0.25333 0.93153 0.07088 0.0
C2505 C 0.23796 0.91637 0.06747 0.0
C2506 C 0.2267 0.91112 0.0802 0.0
C2507 C 0.23048 0.92114 0.09644 0.0
H2508 H 0.26848 0.95382 0.08977 0.0
C2509 C 0.24558 0.93665 0.09959 0.0
C2510 C 0.25694 0.9418 0.08695 0.0
H2511 H 0.24878 0.94459 0.11201 0.0
H2512 H 0.29992 0.96108 0.00658 0.0
H2513 H 0.27878 0.95147 0.02704 0.0
H2514 H 0.31273 0.95001 0.06689 0.0
H2515 H 0.33403 0.95981 0.04639 0.0
H2516 H 0.28659 0.9476 0.07568 0.0
H2517 H 0.2603 0.932 0.04363 0.0
H2518 H 0.23482 0.90837 0.05509 0.0
H2519 H 0.21504 0.8992 0.07738 0.0
C2520 C 0.34631 0.02777 0.01175 0.0
C2521 C 0.36304 0.03555 0.00838 0.0
C2522 C 0.33779 0.03667 0.0106 0.0
C2523 C 0.34585 0.05352 0.00603 0.0
C2524 C 0.3629 0.06175 0.00427 0.0
C2525 C 0.37141 0.05285 0.00534 0.0
C2526 C 0.33669 0.06237 0.00144 0.0
C2527 C 0.32097 0.05393 0.99368 0.0
C2528 C 0.31345 0.06259 0.98422 0.0
C2529 C 0.30214 0.05374 0.96918 0.0
C2530 C 0.29679 0.06218 0.95824 0.0
C2531 C 0.3025 0.07962 0.96224 0.0
H2532 H 0.32638 0.08674 0.00083 0.0
C2533 C 0.31276 0.08813 0.97806 0.0
C2534 C 0.31818 0.0797 0.98896 0.0
H2535 H 0.31702 0.10146 0.98174 0.0
H2536 H 0.33953 0.01455 0.01445 0.0
H2537 H 0.3248 0.03013 0.01273 0.0
H2538 H 0.36945 0.07481 0.00099 0.0
H2539 H 0.38433 0.05931 0.00292 0.0
H2540 H 0.34392 0.07618 0.00185 0.0
H2541 H 0.31429 0.04008 0.99174 0.0
H2542 H 0.29818 0.0405 0.96531 0.0
H2543 H 0.28894 0.05525 0.94613 0.0
C2544 C 0.9541 0.30239 0.97333 0.0
C2545 C 0.97081 0.30893 0.97951 0.0
C2546 C 0.94359 0.28494 0.9685 0.0
C2547 C 0.94955 0.27357 0.96978 0.0
C2548 C 0.96616 0.28005 0.97624 0.0
C2549 C 0.97667 0.29752 0.98121 0.0
C2550 C 0.93907 0.25519 0.96322 0.0
C2551 C 0.92244 0.24666 0.96287 0.0
C2552 C 0.91155 0.2288 0.95481 0.0
C2553 C 0.89565 0.21928 0.96028 0.0
C2554 C 0.88447 0.20298 0.95204 0.0
C2555 C 0.88884 0.19587 0.9379 0.0
H2556 H 0.92811 0.22868 0.93602 0.0
C2557 C 0.90488 0.20525 0.93261 0.0
C2558 C 0.91613 0.22157 0.94095 0.0
H2559 H 0.90856 0.20024 0.92163 0.0
H2560 H 0.94918 0.3108 0.97178 0.0
H2561 H 0.93101 0.28055 0.96311 0.0
H2562 H 0.9711 0.27159 0.97723 0.0
H2563 H 0.9895 0.30213 0.98582 0.0
H2564 H 0.9453 0.24854 0.95877 0.0
H2565 H 0.91641 0.2529 0.96896 0.0
H2566 H 0.89179 0.22454 0.97089 0.0
H2567 H 0.87234 0.19597 0.9567 0.0
C2568 C 0.68854 0.65518 0.04596 0.0
C2569 C 0.68849 0.64747 0.06144 0.0
C2570 C 0.70237 0.66195 0.0364 0.0
C2571 C 0.71648 0.66116 0.04217 0.0
C2572 C 0.71627 0.6531 0.05739 0.0
C2573 C 0.70248 0.64641 0.067 0.0
C2574 C 0.7314 0.66804 0.03236 0.0
C2575 C 0.7358 0.68091 0.02208 0.0
C2576 C 0.75045 0.68737 0.01185 0.0
C2577 C 0.75058 0.69544 0.99664 0.0
C2578 C 0.7637 0.70084 0.9861 0.0
C2579 C 0.77703 0.69837 0.99066 0.0
H2580 H 0.76496 0.68019 0.02886 0.0
C2581 C 0.77728 0.69101 0.0063 0.0
C2582 C 0.76419 0.68563 0.01684 0.0
H2583 H 0.78758 0.68931 0.01035 0.0
H2584 H 0.6779 0.65608 0.04124 0.0
H2585 H 0.7018 0.66751 0.02439 0.0
H2586 H 0.72689 0.65213 0.062 0.0
H2587 H 0.70281 0.64047 0.07882 0.0
H2588 H 0.73901 0.66225 0.03389 0.0
H2589 H 0.72815 0.68667 0.02057 0.0
H2590 H 0.74026 0.69712 0.9926 0.0
H2591 H 0.76312 0.7064 0.97407 0.0
C2592 C 0.95998 0.68551 0.0404 0.0
C2593 C 0.96323 0.67234 0.03608 0.0
C2594 C 0.95187 0.69012 0.02783 0.0
C2595 C 0.94693 0.68176 0.01051 0.0
C2596 C 0.95014 0.66855 0.00623 0.0
C2597 C 0.95825 0.66392 0.01883 0.0
C2598 C 0.9376 0.68575 0.99693 0.0
C2599 C 0.93753 0.70055 0.99766 0.0
C2600 C 0.92686 0.70378 0.98515 0.0
C2601 C 0.92178 0.71514 0.9911 0.0
C2602 C 0.91097 0.71786 0.98024 0.0
C2603 C 0.90516 0.70948 0.963 0.0
H2604 H 0.92563 0.68742 0.96242 0.0
C2605 C 0.91079 0.69863 0.95677 0.0
C2606 C 0.92153 0.6958 0.96771 0.0
H2607 H 0.90684 0.69223 0.94344 0.0
H2608 H 0.96352 0.69217 0.0536 0.0
H2609 H 0.94917 0.69994 0.032 0.0
H2610 H 0.94634 0.66175 0.99308 0.0
H2611 H 0.96053 0.65368 0.01507 0.0
H2612 H 0.93026 0.67588 0.98615 0.0
H2613 H 0.94486 0.71047 0.00837 0.0
H2614 H 0.92575 0.72154 0.00444 0.0
H2615 H 0.90671 0.72609 0.98564 0.0
C2616 C 0.34836 0.31223 0.97057 0.0
C2617 C 0.36465 0.3244 0.96765 0.0
C2618 C 0.34215 0.29486 0.96585 0.0
C2619 C 0.35209 0.28931 0.95805 0.0
C2620 C 0.36858 0.30139 0.95593 0.0
C2621 C 0.37477 0.31874 0.96059 0.0
C2622 C 0.3458 0.27114 0.95183 0.0
C2623 C 0.32967 0.2597 0.94688 0.0
C2624 C 0.32372 0.24199 0.93906 0.0
C2625 C 0.30856 0.23318 0.92828 0.0
C2626 C 0.30291 0.21678 0.9201 0.0
C2627 C 0.31235 0.20889 0.92255 0.0
H2628 H 0.34417 0.23972 0.95084 0.0
C2629 C 0.32723 0.21745 0.93377 0.0
C2630 C 0.33281 0.23375 0.94204 0.0
H2631 H 0.33451 0.21145 0.9363 0.0
H2632 H 0.34027 0.31612 0.97615 0.0
H2633 H 0.32957 0.28589 0.9683 0.0
H2634 H 0.37658 0.29745 0.95019 0.0
H2635 H 0.38742 0.32772 0.95829 0.0
H2636 H 0.35506 0.26755 0.94988 0.0
H2637 H 0.32058 0.26374 0.94727 0.0
H2638 H 0.30121 0.23913 0.92592 0.0
H2639 H 0.29135 0.21042 0.91157 0.0
C2640 C 0.70217 0.04349 0.04715 0.0
C2641 C 0.68802 0.04485 0.0437 0.0
C2642 C 0.71425 0.04874 0.0353 0.0
C2643 C 0.71252 0.05568 0.01981 0.0
C2644 C 0.69865 0.0576 0.01674 0.0
C2645 C 0.68653 0.05226 0.02855 0.0
C2646 C 0.7241 0.05989 0.00589 0.0
C2647 C 0.73915 0.0614 0.00819 0.0
C2648 C 0.74987 0.0648 0.99357 0.0
C2649 C 0.76716 0.07388 0.9975 0.0
C2650 C 0.77753 0.0779 0.9839 0.0
C2651 C 0.77076 0.07273 0.96612 0.0
H2652 H 0.72987 0.05126 0.97236 0.0
C2653 C 0.75346 0.06292 0.96227 0.0
C2654 C 0.74312 0.05894 0.97584 0.0
H2655 H 0.7479 0.05842 0.94872 0.0
H2656 H 0.70364 0.03773 0.05866 0.0
H2657 H 0.7245 0.04668 0.0381 0.0
H2658 H 0.69695 0.06286 0.00493 0.0
H2659 H 0.67578 0.0535 0.02551 0.0
H2660 H 0.71998 0.062 0.99313 0.0
H2661 H 0.74421 0.06093 0.0212 0.0
H2662 H 0.77266 0.07832 0.01107 0.0
H2663 H 0.79081 0.08557 0.98727 0.0
C2664 C 0.66325 0.98054 0.05466 0.0
C2665 C 0.64621 0.9716 0.05678 0.0
C2666 C 0.67261 0.97255 0.05624 0.0
C2667 C 0.66509 0.95546 0.06 0.0
C2668 C 0.64784 0.94614 0.06048 0.0
C2669 C 0.63849 0.95412 0.05897 0.0
C2670 C 0.67483 0.94732 0.06508 0.0
C2671 C 0.6903 0.95624 0.0735 0.0
C2672 C 0.69797 0.94804 0.08359 0.0
C2673 C 0.70902 0.95731 0.0987 0.0
C2674 C 0.7142 0.94923 0.11038 0.0
C2675 C 0.70846 0.93173 0.10709 0.0
H2676 H 0.68553 0.9235 0.0676 0.0
C2677 C 0.69857 0.9228 0.09121 0.0
C2678 C 0.69344 0.93088 0.07951 0.0
H2679 H 0.69433 0.90938 0.08814 0.0
H2680 H 0.66957 0.99395 0.05263 0.0
H2681 H 0.68577 0.97996 0.05506 0.0
H2682 H 0.64169 0.93287 0.0631 0.0
H2683 H 0.62536 0.94677 0.0604 0.0
H2684 H 0.66806 0.9335 0.06444 0.0
H2685 H 0.6965 0.97006 0.0755 0.0
H2686 H 0.71287 0.97059 0.10207 0.0
H2687 H 0.72183 0.95644 0.12252 0.0
C2688 C 0.02952 0.71234 0.08131 0.0
C2689 C 0.03552 0.70097 0.07996 0.0
C2690 C 0.04054 0.72987 0.08547 0.0
C2691 C 0.05772 0.73629 0.08804 0.0
C2692 C 0.06368 0.72502 0.08553 0.0
C2693 C 0.0527 0.70753 0.08175 0.0
C2694 C 0.06987 0.75443 0.09407 0.0
C2695 C 0.06663 0.76408 0.10543 0.0
C2696 C 0.07976 0.78093 0.11439 0.0
C2697 C 0.07534 0.79255 0.1214 0.0
C2698 C 0.08732 0.8081 0.13077 0.0
C2699 C 0.10392 0.8122 0.13353 0.0
H2700 H 0.10034 0.77636 0.11264 0.0
C2701 C 0.10831 0.80057 0.12651 0.0
C2702 C 0.0964 0.78511 0.11719 0.0
H2703 H 0.12103 0.80343 0.12818 0.0
H2704 H 0.01632 0.70762 0.07994 0.0
H2705 H 0.03558 0.7383 0.08686 0.0
H2706 H 0.07686 0.72967 0.08727 0.0
H2707 H 0.05768 0.69909 0.0806 0.0
H2708 H 0.08234 0.75935 0.09033 0.0
H2709 H 0.05411 0.75918 0.10904 0.0
H2710 H 0.06258 0.78957 0.11968 0.0
H2711 H 0.08354 0.81677 0.13609 0.0
C2712 C 0.2999 0.35127 0.00094 0.0
C2713 C 0.3155 0.35343 0.00625 0.0
C2714 C 0.28711 0.34431 0.0119 0.0
C2715 C 0.28968 0.33939 0.02843 0.0
C2716 C 0.30516 0.34125 0.03358 0.0
C2717 C 0.31798 0.3483 0.02267 0.0
C2718 C 0.27647 0.33208 0.04052 0.0
C2719 C 0.26453 0.33613 0.04107 0.0
C2720 C 0.25205 0.32985 0.05403 0.0
C2721 C 0.24567 0.3401 0.05979 0.0
C2722 C 0.23426 0.33487 0.07235 0.0
C2723 C 0.22879 0.31913 0.0792 0.0
H2724 H 0.25062 0.30545 0.05606 0.0
C2725 C 0.23475 0.30858 0.07304 0.0
C2726 C 0.24632 0.3139 0.06059 0.0
H2727 H 0.23068 0.29636 0.07808 0.0
H2728 H 0.29754 0.35494 0.98829 0.0
H2729 H 0.27519 0.34259 0.00725 0.0
H2730 H 0.30742 0.33743 0.04618 0.0
H2731 H 0.32982 0.34967 0.0271 0.0
H2732 H 0.27737 0.32414 0.05011 0.0
H2733 H 0.26463 0.34545 0.03272 0.0
H2734 H 0.24974 0.35234 0.05479 0.0
H2735 H 0.22965 0.34312 0.07666 0.0
C2736 C 0.72482 0.68043 0.35894 0.0
C2737 C 0.71109 0.68164 0.3634 0.0
C2738 C 0.73288 0.6753 0.37096 0.0
C2739 C 0.72746 0.67133 0.38783 0.0
C2740 C 0.71358 0.67228 0.3922 0.0
C2741 C 0.70553 0.67748 0.38016 0.0
C2742 C 0.73573 0.66566 0.40081 0.0
C2743 C 0.75195 0.67067 0.40125 0.0
C2744 C 0.76066 0.66501 0.41366 0.0
C2745 C 0.77799 0.67492 0.41674 0.0
C2746 C 0.78689 0.6697 0.42742 0.0
C2747 C 0.77868 0.65432 0.4352 0.0
H2748 H 0.73905 0.64143 0.41917 0.0
C2749 C 0.76131 0.64436 0.4322 0.0
C2750 C 0.75236 0.64965 0.42156 0.0
H2751 H 0.75464 0.63244 0.438 0.0
H2752 H 0.72934 0.68336 0.34609 0.0
H2753 H 0.74316 0.67416 0.36682 0.0
H2754 H 0.70903 0.66911 0.40501 0.0
H2755 H 0.69492 0.67817 0.38397 0.0
H2756 H 0.7284 0.65776 0.41066 0.0
H2757 H 0.75949 0.67989 0.39244 0.0
H2758 H 0.78473 0.6867 0.41069 0.0
H2759 H 0.80028 0.6775 0.42914 0.0
C2760 C 0.32648 0.02867 0.43132 0.0
C2761 C 0.30924 0.0181 0.43143 0.0
C2762 C 0.334 0.04636 0.43501 0.0
C2763 C 0.32438 0.05382 0.43874 0.0
C2764 C 0.30712 0.04332 0.43808 0.0
C2765 C 0.29963 0.02565 0.43463 0.0
C2766 C 0.33181 0.07242 0.4434 0.0
C2767 C 0.34703 0.08244 0.4521 0.0
C2768 C 0.35319 0.10051 0.45865 0.0
C2769 C 0.36364 0.10758 0.47456 0.0
C2770 C 0.36817 0.12395 0.48199 0.0
C2771 C 0.36239 0.13354 0.47352 0.0
H2772 H 0.34082 0.1058 0.437 0.0
C2773 C 0.35282 0.12686 0.45704 0.0
C2774 C 0.3483 0.11056 0.44966 0.0
H2775 H 0.34859 0.13418 0.44996 0.0
H2776 H 0.33423 0.02325 0.42882 0.0
H2777 H 0.34729 0.05414 0.43492 0.0
H2778 H 0.29941 0.04877 0.44071 0.0
H2779 H 0.28631 0.0179 0.43465 0.0
H2780 H 0.32378 0.07765 0.44109 0.0
H2781 H 0.35445 0.07689 0.45609 0.0
H2782 H 0.36775 0.10016 0.48164 0.0
H2783 H 0.37561 0.12881 0.49467 0.0
C2784 C 0.98272 0.30251 0.36071 0.0
C2785 C 0.99676 0.30102 0.36452 0.0
C2786 C 0.96958 0.29562 0.37121 0.0
C2787 C 0.97013 0.28694 0.38571 0.0
C2788 C 0.98424 0.28559 0.38956 0.0
C2789 C 0.9974 0.29252 0.37908 0.0
C2790 C 0.95654 0.27943 0.3974 0.0
C2791 C 0.94093 0.2759 0.39291 0.0
C2792 C 0.9275 0.26799 0.40469 0.0
C2793 C 0.91406 0.27074 0.40279 0.0
C2794 C 0.90114 0.26335 0.41356 0.0
C2795 C 0.90132 0.25288 0.4263 0.0
H2796 H 0.93739 0.25442 0.41886 0.0
C2797 C 0.91469 0.24999 0.42807 0.0
C2798 C 0.92758 0.25737 0.41734 0.0
H2799 H 0.91527 0.24209 0.43786 0.0
H2800 H 0.98193 0.30916 0.34969 0.0
H2801 H 0.95925 0.29747 0.36801 0.0
H2802 H 0.98507 0.27908 0.40071 0.0
H2803 H 0.00807 0.29121 0.38242 0.0
H2804 H 0.95964 0.27654 0.41021 0.0
H2805 H 0.93769 0.27895 0.38027 0.0
H2806 H 0.9136 0.2787 0.393 0.0
H2807 H 0.89091 0.26565 0.41176 0.0
C2808 C 0.06041 0.39195 0.34619 0.0
C2809 C 0.04884 0.37445 0.34574 0.0
C2810 C 0.05509 0.4037 0.34493 0.0
C2811 C 0.03803 0.39809 0.34274 0.0
C2812 C 0.02659 0.38085 0.34408 0.0
C2813 C 0.03192 0.36912 0.3456 0.0
C2814 C 0.03168 0.40928 0.33708 0.0
C2815 C 0.04036 0.42243 0.32753 0.0
C2816 C 0.03313 0.43089 0.31717 0.0
C2817 C 0.04194 0.44026 0.30362 0.0
C2818 C 0.03518 0.44711 0.29223 0.0
C2819 C 0.01945 0.44491 0.29419 0.0
H2820 H 0.01054 0.42247 0.33012 0.0
C2821 C 0.0108 0.43605 0.30811 0.0
C2822 C 0.01759 0.42916 0.31957 0.0
H2823 H 0.99877 0.43443 0.31012 0.0
H2824 H 0.07357 0.3965 0.34679 0.0
H2825 H 0.06437 0.41702 0.34495 0.0
H2826 H 0.0134 0.37621 0.34276 0.0
H2827 H 0.02269 0.35573 0.34544 0.0
H2828 H 0.01876 0.40493 0.33848 0.0
H2829 H 0.05293 0.42588 0.32525 0.0
H2830 H 0.05392 0.44183 0.30141 0.0
H2831 H 0.0421 0.45368 0.28152 0.0
C2832 C 0.63324 0.6332 0.32088 0.0
C2833 C 0.62843 0.64543 0.31913 0.0
C2834 C 0.62177 0.61581 0.31636 0.0
C2835 C 0.60525 0.61038 0.31011 0.0
C2836 C 0.60031 0.62256 0.30947 0.0
C2837 C 0.61175 0.63986 0.31381 0.0
C2838 C 0.59284 0.59243 0.30336 0.0
C2839 C 0.59656 0.58048 0.298 0.0
C2840 C 0.58377 0.56368 0.28875 0.0
C2841 C 0.58487 0.54909 0.29107 0.0
C2842 C 0.57273 0.53315 0.2826 0.0
C2843 C 0.55941 0.53156 0.27145 0.0
H2844 H 0.56995 0.57327 0.27438 0.0
C2845 C 0.55877 0.54633 0.26859 0.0
C2846 C 0.57078 0.56217 0.27712 0.0
H2847 H 0.54898 0.54567 0.25967 0.0
H2848 H 0.64599 0.63708 0.32505 0.0
H2849 H 0.626 0.60682 0.31758 0.0
H2850 H 0.58765 0.61877 0.30493 0.0
H2851 H 0.60757 0.64892 0.31253 0.0
H2852 H 0.57998 0.58924 0.30159 0.0
H2853 H 0.60916 0.58298 0.30001 0.0
H2854 H 0.59491 0.54998 0.29974 0.0
H2855 H 0.57357 0.52202 0.28513 0.0
C2856 C 0.34741 0.97822 0.3765 0.0
C2857 C 0.34529 0.96839 0.39074 0.0
C2858 C 0.35952 0.98102 0.36514 0.0
C2859 C 0.36986 0.97411 0.36786 0.0
C2860 C 0.36759 0.96414 0.38196 0.0
C2861 C 0.3555 0.96136 0.39333 0.0
C2862 C 0.38277 0.9765 0.35604 0.0
C2863 C 0.38978 0.98956 0.34597 0.0
C2864 C 0.40264 0.99179 0.33415 0.0
C2865 C 0.4046 0.00117 0.31958 0.0
C2866 C 0.41646 0.00348 0.30807 0.0
C2867 C 0.42674 0.99657 0.31098 0.0
H2868 H 0.41253 0.97843 0.34872 0.0
C2869 C 0.42502 0.98747 0.32575 0.0
C2870 C 0.41316 0.98516 0.33727 0.0
H2871 H 0.43301 0.98233 0.32856 0.0
H2872 H 0.33962 0.98367 0.37404 0.0
H2873 H 0.36044 0.98829 0.3541 0.0
H2874 H 0.37526 0.95854 0.38428 0.0
H2875 H 0.35415 0.95366 0.40412 0.0
H2876 H 0.38669 0.96714 0.35589 0.0
H2877 H 0.38584 0.99891 0.34602 0.0
H2878 H 0.39676 0.00653 0.31694 0.0
H2879 H 0.41739 0.01044 0.29671 0.0
C2880 C 0.61998 0.98036 0.35174 0.0
C2881 C 0.62949 0.99233 0.36632 0.0
C2882 C 0.61024 0.98352 0.33963 0.0
C2883 C 0.60993 0.99884 0.34177 0.0
C2884 C 0.61984 0.01094 0.35607 0.0
C2885 C 0.62948 0.00775 0.36818 0.0
C2886 C 0.59874 0.00238 0.33036 0.0
C2887 C 0.5901 0.99323 0.31493 0.0
C2888 C 0.57806 0.99652 0.30482 0.0
C2889 C 0.57427 0.99159 0.28651 0.0
C2890 C 0.56264 0.99408 0.27678 0.0
C2891 C 0.55447 0.00148 0.2852 0.0
H2892 H 0.57167 0.00702 0.32744 0.0
C2893 C 0.55813 0.00622 0.30356 0.0
C2894 C 0.5697 0.00372 0.31326 0.0
H2895 H 0.55169 0.01146 0.31056 0.0
H2896 H 0.61967 0.96831 0.34998 0.0
H2897 H 0.60264 0.97367 0.32903 0.0
H2898 H 0.61989 0.02284 0.35813 0.0
H2899 H 0.63671 0.0173 0.37921 0.0
H2900 H 0.59766 0.01324 0.33502 0.0
H2901 H 0.59203 0.98325 0.30922 0.0
H2902 H 0.58037 0.98583 0.2797 0.0
H2903 H 0.56011 0.9903 0.26266 0.0
C2904 C 0.04482 0.66374 0.29208 0.0
C2905 C 0.03584 0.66851 0.30284 0.0
C2906 C 0.0385 0.64669 0.28582 0.0
C2907 C 0.02309 0.63389 0.29037 0.0
C2908 C 0.01421 0.63861 0.30133 0.0
C2909 C 0.02053 0.65572 0.30756 0.0
C2910 C 0.01555 0.61573 0.28308 0.0
C2911 C 0.02459 0.60905 0.27724 0.0
C2912 C 0.01745 0.59131 0.26884 0.0
C2913 C 0.02801 0.58464 0.26759 0.0
C2914 C 0.02225 0.56841 0.25906 0.0
C2915 C 0.00577 0.55845 0.25143 0.0
H2916 H 0.99242 0.58611 0.2615 0.0
C2917 C 0.99508 0.56499 0.25275 0.0
C2918 C 0.00088 0.58131 0.26128 0.0
H2919 H 0.98235 0.55762 0.24687 0.0
H2920 H 0.05658 0.67324 0.28802 0.0
H2921 H 0.04554 0.64378 0.27693 0.0
H2922 H 0.00226 0.62905 0.30493 0.0
H2923 H 0.01323 0.65893 0.31577 0.0
H2924 H 0.00223 0.60766 0.28291 0.0
H2925 H 0.03801 0.61679 0.279 0.0
H2926 H 0.04083 0.59204 0.27323 0.0
H2927 H 0.03071 0.5636 0.25859 0.0
C2928 C 0.36178 0.38588 0.37473 0.0
C2929 C 0.34582 0.38264 0.36921 0.0
C2930 C 0.37382 0.39072 0.36286 0.0
C2931 C 0.37009 0.39228 0.34511 0.0
C2932 C 0.35429 0.38961 0.33979 0.0
C2933 C 0.34227 0.38481 0.35168 0.0
C2934 C 0.38218 0.3967 0.3317 0.0
C2935 C 0.39588 0.39541 0.33358 0.0
C2936 C 0.40751 0.39975 0.31977 0.0
C2937 C 0.42442 0.40636 0.32489 0.0
C2938 C 0.43578 0.41124 0.31225 0.0
C2939 C 0.4304 0.40937 0.29417 0.0
H2940 H 0.38901 0.39152 0.29715 0.0
C2941 C 0.41336 0.40201 0.28901 0.0
C2942 C 0.40203 0.39724 0.30165 0.0
H2943 H 0.40876 0.39999 0.27515 0.0
H2944 H 0.36497 0.38449 0.38821 0.0
H2945 H 0.38596 0.39323 0.36778 0.0
H2946 H 0.3511 0.3909 0.32627 0.0
H2947 H 0.3301 0.38247 0.347 0.0
H2948 H 0.37944 0.40096 0.31959 0.0
H2949 H 0.39908 0.39149 0.34566 0.0
H2950 H 0.42891 0.40822 0.33877 0.0
H2951 H 0.44883 0.41699 0.3167 0.0
C2952 C 0.2975 0.29528 0.4004 0.0
C2953 C 0.30491 0.31176 0.3949 0.0
C2954 C 0.30651 0.28695 0.40215 0.0
C2955 C 0.32312 0.29487 0.39828 0.0
C2956 C 0.33024 0.31098 0.39197 0.0
C2957 C 0.32123 0.31932 0.3902 0.0
C2958 C 0.33393 0.28778 0.40294 0.0
C2959 C 0.32794 0.27124 0.40529 0.0
C2960 C 0.33756 0.26457 0.41468 0.0
C2961 C 0.3533 0.27528 0.42413 0.0
C2962 C 0.36035 0.26856 0.43545 0.0
C2963 C 0.35177 0.25112 0.4377 0.0
H2964 H 0.31757 0.23835 0.40893 0.0
C2965 C 0.33663 0.24029 0.42745 0.0
C2966 C 0.32964 0.24695 0.41605 0.0
H2967 H 0.32987 0.22673 0.42879 0.0
H2968 H 0.28497 0.28908 0.40415 0.0
H2969 H 0.30061 0.27477 0.40753 0.0
H2970 H 0.34303 0.31743 0.389 0.0
H2971 H 0.32734 0.33199 0.38586 0.0
H2972 H 0.34711 0.29683 0.40539 0.0
H2973 H 0.31494 0.26215 0.40126 0.0
H2974 H 0.35992 0.28893 0.42371 0.0
H2975 H 0.37202 0.27718 0.44328 0.0
C2976 C 0.69524 0.03263 0.41411 0.0
C2977 C 0.70044 0.02062 0.41491 0.0
C2978 C 0.70682 0.05013 0.41716 0.0
C2979 C 0.7238 0.05586 0.42074 0.0
C2980 C 0.729 0.04387 0.42054 0.0
C2981 C 0.71745 0.02644 0.41789 0.0
C2982 C 0.73648 0.07413 0.42521 0.0
C2983 C 0.73372 0.08511 0.43502 0.0
C2984 C 0.74709 0.10256 0.44244 0.0
C2985 C 0.74272 0.11432 0.44915 0.0
C2986 C 0.75486 0.13043 0.45728 0.0
C2987 C 0.77164 0.13504 0.45903 0.0
H2988 H 0.76801 0.09866 0.43967 0.0
C2989 C 0.77601 0.12336 0.45214 0.0
C2990 C 0.76394 0.10732 0.44408 0.0
H2991 H 0.78885 0.12659 0.453 0.0
H2992 H 0.68219 0.02849 0.4118 0.0
H2993 H 0.70247 0.0591 0.4168 0.0
H2994 H 0.74203 0.04798 0.4231 0.0
H2995 H 0.72183 0.01749 0.4184 0.0
H2996 H 0.74879 0.07806 0.42154 0.0
H2997 H 0.72128 0.08093 0.43856 0.0
H2998 H 0.72985 0.11098 0.44826 0.0
H2999 H 0.75106 0.1391 0.46254 0.0
C3000 C 0.97331 0.67126 0.34388 0.0
C3001 C 0.98907 0.68509 0.35012 0.0
C3002 C 0.96067 0.66459 0.35507 0.0
C3003 C 0.9636 0.67158 0.37282 0.0
C3004 C 0.97942 0.68528 0.37906 0.0
C3005 C 0.99204 0.69194 0.36788 0.0
C3006 C 0.95037 0.66577 0.385 0.0
C3007 C 0.93593 0.65076 0.38242 0.0
C3008 C 0.92256 0.64611 0.39427 0.0
C3009 C 0.906 0.63508 0.38732 0.0
C3010 C 0.89305 0.63153 0.39774 0.0
C3011 C 0.89647 0.63893 0.41533 0.0
H3012 H 0.93854 0.66056 0.41832 0.0
C3013 C 0.91304 0.64921 0.42256 0.0
C3014 C 0.92596 0.65268 0.4122 0.0
H3015 H 0.91602 0.65469 0.43624 0.0
H3016 H 0.9706 0.66573 0.33024 0.0
H3017 H 0.9486 0.65434 0.34951 0.0
H3018 H 0.98202 0.69099 0.39263 0.0
H3019 H 0.00405 0.70259 0.37312 0.0
H3020 H 0.95266 0.67462 0.39648 0.0
H3021 H 0.93333 0.6419 0.37088 0.0
H3022 H 0.90305 0.62965 0.37362 0.0
H3023 H 0.88037 0.62352 0.39187 0.0
C3024 C 0.37917 0.0167 0.71404 0.0
C3025 C 0.37717 0.01091 0.69602 0.0
C3026 C 0.38876 0.01355 0.72637 0.0
C3027 C 0.39668 0.00464 0.72089 0.0
C3028 C 0.39436 0.99859 0.70292 0.0
C3029 C 0.38477 0.0017 0.69064 0.0
C3030 C 0.4074 0.00124 0.73324 0.0
C3031 C 0.41407 0.00962 0.7495 0.0
C3032 C 0.42603 0.00708 0.76082 0.0
C3033 C 0.43717 0.02031 0.77365 0.0
C3034 C 0.44935 0.01895 0.7837 0.0
C3035 C 0.45063 0.00424 0.78122 0.0
H3036 H 0.41807 0.98123 0.74974 0.0
C3037 C 0.43899 0.99067 0.76897 0.0
C3038 C 0.42678 0.99201 0.75896 0.0
H3039 H 0.43961 0.97917 0.76666 0.0
H3040 H 0.37334 0.02369 0.71864 0.0
H3041 H 0.38975 0.01803 0.74012 0.0
H3042 H 0.40017 0.99159 0.69828 0.0
H3043 H 0.38345 0.99699 0.67688 0.0
H3044 H 0.41079 0.99219 0.72806 0.0
H3045 H 0.41185 0.01968 0.75424 0.0
H3046 H 0.43674 0.03195 0.7756 0.0
H3047 H 0.4579 0.02951 0.79327 0.0
C3048 C 0.98475 0.35393 0.75979 0.0
C3049 C 0.96786 0.34146 0.75912 0.0
C3050 C 0.99012 0.37111 0.76463 0.0
C3051 C 0.97866 0.37612 0.76875 0.0
C3052 C 0.96174 0.36377 0.76725 0.0
C3053 C 0.9564 0.34662 0.76264 0.0
C3054 C 0.98377 0.394 0.7748 0.0
C3055 C 0.99847 0.40503 0.78406 0.0
C3056 C 0.00238 0.42209 0.79198 0.0
C3057 C 0.01302 0.42937 0.80775 0.0
C3058 C 0.01579 0.44475 0.8163 0.0
C3059 C 0.00799 0.4531 0.80915 0.0
H3060 H 0.98764 0.42617 0.77184 0.0
C3061 C 0.99804 0.44626 0.79291 0.0
C3062 C 0.99532 0.43098 0.78437 0.0
H3063 H 0.9923 0.45273 0.78682 0.0
H3064 H 0.99388 0.35038 0.75705 0.0
H3065 H 0.00321 0.38038 0.76513 0.0
H3066 H 0.95264 0.36734 0.77016 0.0
H3067 H 0.94328 0.33737 0.76206 0.0
H3068 H 0.97439 0.3976 0.77304 0.0
H3069 H 0.00723 0.40088 0.78741 0.0
H3070 H 0.01876 0.42288 0.81378 0.0
H3071 H 0.0236 0.44981 0.82875 0.0
C3072 C 0.65061 0.62754 0.69304 0.0
C3073 C 0.66727 0.63336 0.69877 0.0
C3074 C 0.63843 0.62059 0.70469 0.0
C3075 C 0.64269 0.61949 0.72243 0.0
C3076 C 0.65928 0.62483 0.72797 0.0
C3077 C 0.67146 0.63173 0.7163 0.0
C3078 C 0.63023 0.6126 0.73543 0.0
C3079 C 0.61567 0.61229 0.73371 0.0
C3080 C 0.60316 0.60556 0.7467 0.0
C3081 C 0.59064 0.60976 0.74611 0.0
C3082 C 0.5784 0.60342 0.75777 0.0
C3083 C 0.57836 0.59266 0.77028 0.0
H3084 H 0.61213 0.5907 0.7599 0.0
C3085 C 0.5909 0.58848 0.77091 0.0
C3086 C 0.60307 0.59472 0.7592 0.0
H3087 H 0.59134 0.58035 0.7805 0.0
H3088 H 0.64695 0.62841 0.67955 0.0
H3089 H 0.62572 0.61601 0.69964 0.0
H3090 H 0.66289 0.62393 0.74149 0.0
H3091 H 0.68418 0.63603 0.72112 0.0
H3092 H 0.6337 0.60852 0.74722 0.0
H3093 H 0.61295 0.6178 0.72266 0.0
H3094 H 0.59028 0.61794 0.73653 0.0
H3095 H 0.56878 0.6067 0.75675 0.0
C3096 C 0.69137 0.70107 0.68208 0.0
C3097 C 0.70778 0.70904 0.67762 0.0
C3098 C 0.68244 0.70956 0.68146 0.0
C3099 C 0.68976 0.7262 0.67633 0.0
C3100 C 0.70656 0.73465 0.67337 0.0
C3101 C 0.71547 0.72615 0.67391 0.0
C3102 C 0.68003 0.73458 0.67236 0.0
C3103 C 0.664 0.72568 0.66558 0.0
C3104 C 0.65577 0.73376 0.65634 0.0
C3105 C 0.64404 0.72438 0.64176 0.0
C3106 C 0.63804 0.73229 0.63084 0.0
C3107 C 0.6435 0.74973 0.63443 0.0
H3108 H 0.66882 0.7583 0.67226 0.0
C3109 C 0.65421 0.75876 0.64986 0.0
C3110 C 0.66028 0.75086 0.66073 0.0
H3111 H 0.65828 0.7721 0.65324 0.0
H3112 H 0.68513 0.68799 0.68529 0.0
H3113 H 0.66968 0.70288 0.68447 0.0
H3114 H 0.71257 0.74756 0.66963 0.0
H3115 H 0.72816 0.73277 0.67066 0.0
H3116 H 0.68694 0.74835 0.67226 0.0
H3117 H 0.65755 0.71183 0.66412 0.0
H3118 H 0.64026 0.71115 0.63817 0.0
H3119 H 0.62989 0.72496 0.61904 0.0
C3120 C 0.30393 0.96573 0.65752 0.0
C3121 C 0.29823 0.97732 0.65657 0.0
C3122 C 0.29273 0.94812 0.65492 0.0
C3123 C 0.27562 0.94182 0.65152 0.0
C3124 C 0.26991 0.9534 0.65155 0.0
C3125 C 0.28109 0.97096 0.65385 0.0
C3126 C 0.26335 0.92334 0.64751 0.0
C3127 C 0.26669 0.91238 0.63858 0.0
C3128 C 0.2536 0.89462 0.63207 0.0
C3129 C 0.25504 0.88702 0.61618 0.0
C3130 C 0.24226 0.87091 0.60888 0.0
C3131 C 0.22785 0.86197 0.61745 0.0
H3132 H 0.23828 0.89053 0.65368 0.0
C3133 C 0.22682 0.86922 0.63384 0.0
C3134 C 0.23954 0.88535 0.64108 0.0
H3135 H 0.2161 0.86247 0.64104 0.0
H3136 H 0.31707 0.97024 0.65966 0.0
H3137 H 0.29749 0.9395 0.65545 0.0
H3138 H 0.25678 0.94888 0.64916 0.0
H3139 H 0.27629 0.97955 0.65321 0.0
H3140 H 0.25069 0.91912 0.65025 0.0
H3141 H 0.27894 0.91704 0.63424 0.0
H3142 H 0.2658 0.89383 0.60904 0.0
H3143 H 0.24344 0.86575 0.59621 0.0
C3144 C 0.02058 0.31877 0.70995 0.0
C3145 C 0.01872 0.30894 0.72414 0.0
C3146 C 0.03512 0.32572 0.70149 0.0
C3147 C 0.04809 0.32297 0.70709 0.0
C3148 C 0.04609 0.31297 0.7211 0.0
C3149 C 0.03164 0.30612 0.72961 0.0
C3150 C 0.06356 0.32956 0.69824 0.0
C3151 C 0.0696 0.34328 0.68899 0.0
C3152 C 0.08474 0.3491 0.67965 0.0
C3153 C 0.08635 0.35785 0.66462 0.0
C3154 C 0.09977 0.36231 0.65468 0.0
C3155 C 0.1119 0.35819 0.65967 0.0
H3156 H 0.09706 0.33988 0.69715 0.0
C3157 C 0.11078 0.35028 0.67524 0.0
C3158 C 0.09741 0.34587 0.6852 0.0
H3159 H 0.12016 0.34731 0.67961 0.0
H3160 H 0.01081 0.3211 0.70536 0.0
H3161 H 0.03593 0.3329 0.69038 0.0
H3162 H 0.05581 0.3105 0.72557 0.0
H3163 H 0.03059 0.29855 0.74045 0.0
H3164 H 0.07017 0.32268 0.6995 0.0
H3165 H 0.06296 0.35012 0.68754 0.0
H3166 H 0.07689 0.36069 0.66018 0.0
H3167 H 0.10026 0.36833 0.64269 0.0
C3168 C 0.28793 0.30772 0.67233 0.0
C3169 C 0.29919 0.31845 0.68677 0.0
C3170 C 0.27992 0.31363 0.66117 0.0
C3171 C 0.28293 0.33039 0.66428 0.0
C3172 C 0.29472 0.3413 0.67824 0.0
C3173 C 0.30271 0.3354 0.6894 0.0
C3174 C 0.27389 0.33689 0.65352 0.0
C3175 C 0.25857 0.32664 0.64513 0.0
C3176 C 0.24849 0.33295 0.63603 0.0
C3177 C 0.23121 0.3222 0.63363 0.0
C3178 C 0.2211 0.32759 0.62563 0.0
C3179 C 0.228 0.34386 0.61961 0.0
H3180 H 0.26877 0.35766 0.63087 0.0
C3181 C 0.24534 0.35456 0.6217 0.0
C3182 C 0.25549 0.34916 0.62977 0.0
H3183 H 0.25106 0.36707 0.61697 0.0
H3184 H 0.28509 0.29466 0.66978 0.0
H3185 H 0.2714 0.30499 0.65017 0.0
H3186 H 0.29744 0.35432 0.68084 0.0
H3187 H 0.31142 0.34407 0.7003 0.0
H3188 H 0.27947 0.35063 0.6539 0.0
H3189 H 0.25247 0.313 0.64613 0.0
H3190 H 0.22544 0.30964 0.63827 0.0
H3191 H 0.20779 0.3191 0.62454 0.0
C3192 C 0.68143 0.97916 0.62947 0.0
C3193 C 0.69832 0.99038 0.62787 0.0
C3194 C 0.67381 0.96194 0.62298 0.0
C3195 C 0.68298 0.95554 0.61486 0.0
C3196 C 0.69992 0.96667 0.61371 0.0
C3197 C 0.70752 0.98385 0.62017 0.0
C3198 C 0.67528 0.93773 0.60646 0.0
C3199 C 0.66061 0.92473 0.61003 0.0
C3200 C 0.65362 0.90716 0.60128 0.0
C3201 C 0.64415 0.89318 0.61068 0.0
C3202 C 0.63842 0.87654 0.60318 0.0
C3203 C 0.64189 0.87357 0.58601 0.0
H3204 H 0.66305 0.91459 0.5759 0.0
C3205 C 0.65059 0.88753 0.57627 0.0
C3206 C 0.65637 0.90414 0.58379 0.0
H3207 H 0.65312 0.88564 0.56287 0.0
H3208 H 0.67394 0.98377 0.63524 0.0
H3209 H 0.66066 0.95392 0.62383 0.0
H3210 H 0.70729 0.96212 0.60751 0.0
H3211 H 0.72055 0.99209 0.61872 0.0
H3212 H 0.68238 0.93515 0.59726 0.0
H3213 H 0.65404 0.92662 0.62039 0.0
H3214 H 0.64169 0.89516 0.62409 0.0
H3215 H 0.63186 0.86608 0.61109 0.0
C3216 C 0.02066 0.70972 0.70711 0.0
C3217 C 0.00512 0.70715 0.70077 0.0
C3218 C 0.03317 0.71415 0.6959 0.0
C3219 C 0.03035 0.71598 0.67799 0.0
C3220 C 0.01494 0.71383 0.6718 0.0
C3221 C 0.00243 0.70943 0.68303 0.0
C3222 C 0.04313 0.72045 0.6654 0.0
C3223 C 0.05664 0.71891 0.66814 0.0
C3224 C 0.06928 0.72396 0.65537 0.0
C3225 C 0.08594 0.73056 0.66172 0.0
C3226 C 0.09827 0.73664 0.65014 0.0
C3227 C 0.09411 0.73603 0.63195 0.0
H3228 H 0.05223 0.71677 0.6316 0.0
C3229 C 0.07732 0.72847 0.62549 0.0
C3230 C 0.06502 0.72248 0.63705 0.0
H3231 H 0.07369 0.72741 0.61147 0.0
H3232 H 0.02318 0.70821 0.72077 0.0
H3233 H 0.04499 0.71624 0.70147 0.0
H3234 H 0.01246 0.71534 0.65812 0.0
H3235 H 0.9906 0.70758 0.67773 0.0
H3236 H 0.04121 0.72521 0.65325 0.0
H3237 H 0.05902 0.71449 0.68028 0.0
H3238 H 0.08949 0.73161 0.67576 0.0
H3239 H 0.11111 0.74244 0.65553 0.0
C3240 C 0.94993 0.61976 0.72978 0.0
C3241 C 0.95916 0.63671 0.72573 0.0
C3242 C 0.95732 0.60979 0.7311 0.0
C3243 C 0.97411 0.61657 0.72836 0.0
C3244 C 0.98307 0.63319 0.72344 0.0
C3245 C 0.97566 0.64313 0.72199 0.0
C3246 C 0.9832 0.6077 0.73319 0.0
C3247 C 0.97571 0.59066 0.73346 0.0
C3248 C 0.98307 0.58206 0.74342 0.0
C3249 C 0.97234 0.56549 0.74772 0.0
C3250 C 0.97785 0.55797 0.75972 0.0
C3251 C 0.99426 0.56684 0.7677 0.0
H3252 H 0.00883 0.60284 0.74684 0.0
C3253 C 0.00539 0.58282 0.76232 0.0
C3254 C -0.0001 0.59035 0.75023 0.0
H3255 H 0.01816 0.58993 0.76811 0.0
H3256 H 0.9372 0.61441 0.7327 0.0
H3257 H 0.95007 0.59721 0.73539 0.0
H3258 H 0.99605 0.63876 0.72139 0.0
H3259 H 0.98314 0.65613 0.7188 0.0
H3260 H 0.99614 0.61585 0.73812 0.0
H3261 H 0.96288 0.58279 0.72787 0.0
H3262 H 0.95939 0.55866 0.7425 0.0
H3263 H 0.96908 0.54541 0.76323 0.0
C3264 C 0.37019 0.37451 0.75152 0.0
C3265 C 0.3747 0.36227 0.75481 0.0
C3266 C 0.3809 0.39175 0.75759 0.0
C3267 C 0.3964 0.39707 0.76696 0.0
C3268 C 0.40111 0.38491 0.76955 0.0
C3269 C 0.39045 0.36777 0.76354 0.0
C3270 C 0.40757 0.41474 0.77545 0.0
C3271 C 0.40677 0.42855 0.77152 0.0
C3272 C 0.41844 0.4457 0.7809 0.0
C3273 C 0.42438 0.4602 0.77162 0.0
C3274 C 0.43655 0.47622 0.77988 0.0
C3275 C 0.44283 0.47803 0.79763 0.0
H3276 H 0.41918 0.43691 0.80669 0.0
C3277 C 0.43608 0.46368 0.80719 0.0
C3278 C 0.42401 0.44771 0.79894 0.0
H3279 H 0.44033 0.46474 0.82101 0.0
H3280 H 0.35811 0.37069 0.7449 0.0
H3281 H 0.37667 0.40065 0.75553 0.0
H3282 H 0.41297 0.38861 0.77666 0.0
H3283 H 0.39442 0.35875 0.76621 0.0
H3284 H 0.41731 0.41648 0.78532 0.0
H3285 H 0.39826 0.42759 0.76061 0.0
H3286 H 0.42012 0.45901 0.75778 0.0
H3287 H 0.44153 0.48703 0.77214 0.0
C3288 C 0.6564 0.0221 0.68667 0.0
C3289 C 0.65284 0.02014 0.66819 0.0
C3290 C 0.64385 0.01789 0.69776 0.0
C3291 C 0.62742 0.01177 0.69062 0.0
C3292 C 0.62378 0.00929 0.67214 0.0
C3293 C 0.63635 0.01348 0.66102 0.0
C3294 C 0.61382 0.00777 0.702 0.0
C3295 C 0.61645 0.01539 0.71856 0.0
C3296 C 0.60313 0.01204 0.73016 0.0
C3297 C 0.60759 0.01671 0.74843 0.0
C3298 C 0.59571 0.01446 0.75986 0.0
C3299 C 0.57905 0.00759 0.75327 0.0
H3300 H 0.58247 0.00177 0.7095 0.0
C3301 C 0.57451 0.00283 0.73499 0.0
C3302 C 0.58641 0.00508 0.72352 0.0
H3303 H 0.5618 0.99776 0.72949 0.0
H3304 H 0.66893 0.02695 0.69262 0.0
H3305 H 0.6471 0.01933 0.71189 0.0
H3306 H 0.61121 0.0044 0.66628 0.0
H3307 H 0.63317 0.0117 0.64683 0.0
H3308 H 0.60131 0.99866 0.69624 0.0
H3309 H 0.62901 0.02466 0.72409 0.0
H3310 H 0.62036 0.02213 0.75391 0.0
H3311 H 0.59958 0.01804 0.77391 0.0
loop_
_geom_bond_atom_site_label_1
_geom_bond_atom_site_label_2
_geom_bond_distance
_geom_bond_site_symmetry_2
_ccdc_geom_bond_type
Mg0 O1 2.028 . S
Mg0 O7 1.986 1_455 S
Mg0 O9 2.114 . S
Mg0 O10 2.251 1_554 S
Mg0 O13 2.010 . S
O1 Mg0 2.028 . S
O1 C4 1.248 . S
O2 Mg3 2.028 . S
O2 C4 1.249 1_655 S
Mg3 O2 2.028 . S
Mg3 O8 2.032 . S
Mg3 O10 2.079 1_654 S
C4 O1 1.248 . S
C4 O2 1.249 1_455 S
C5 O6 1.264 . S
C5 O13 1.249 . S
O6 C5 1.264 . S
O7 Mg0 1.986 1_655 S
O7 C11 1.246 . S
O8 Mg3 2.032 . S
O8 C11 1.259 . S
O9 Mg0 2.114 . S
O9 C12 1.252 1_554 S
O10 Mg0 2.251 1_556 S
O10 Mg3 2.079 1_456 S
O10 C12 1.273 . S
C11 O7 1.246 . S
C11 O8 1.259 . S
C12 O9 1.252 1_556 S
C12 O10 1.273 . S
O13 Mg0 2.010 . S
O13 C5 1.249 . S
Mg14 O15 2.028 . S
Mg14 O21 1.986 . S
Mg14 O23 2.114 . S
Mg14 O24 2.251 . S
Mg14 O27 2.010 . S
O15 Mg14 2.028 . S
O15 C18 1.250 . S
O16 Mg17 2.028 . S
O16 C18 1.248 . S
Mg17 O16 2.028 . S
Mg17 O22 2.032 . S
Mg17 O24 2.079 . S
C18 O15 1.250 . S
C18 O16 1.248 . S
C19 O20 1.264 . S
C19 O27 1.249 . S
O20 C19 1.264 . S
O21 Mg14 1.986 . S
O21 C25 1.246 . S
O22 Mg17 2.032 . S
O22 C25 1.259 . S
O23 Mg14 2.114 . S
O23 C26 1.252 . S
O24 Mg14 2.251 . S
O24 Mg17 2.079 . S
O24 C26 1.273 . S
C25 O21 1.246 . S
C25 O22 1.259 . S
C26 O23 1.252 . S
C26 O24 1.273 . S
O27 Mg14 2.010 . S
O27 C19 1.249 . S
Mg28 O29 2.028 1_565 S
Mg28 O35 1.986 1_565 S
Mg28 O37 2.114 . S
Mg28 O38 2.222 1_564 S
Mg28 O41 2.010 . S
O29 Mg28 2.028 1_545 S
O29 C32 1.250 . S
O30 Mg31 2.028 . S
O30 C32 1.248 . S
Mg31 O30 2.028 . S
Mg31 O36 2.032 . S
Mg31 O38 2.066 1_554 S
C32 O29 1.250 . S
C32 O30 1.248 . S
C33 O34 1.264 . S
C33 O41 1.249 . S
O34 C33 1.264 . S
O35 Mg28 1.986 1_545 S
O35 C39 1.246 . S
O36 Mg31 2.032 . S
O36 C39 1.259 . S
O37 Mg28 2.114 . S
O37 C40 1.252 1_554 S
O38 Mg28 2.222 1_546 S
O38 Mg31 2.066 1_556 S
O38 C40 1.277 1_545 S
C39 O35 1.246 . S
C39 O36 1.259 . S
C40 O37 1.252 1_556 S
C40 O38 1.277 1_565 S
O41 Mg28 2.010 . S
O41 C33 1.249 . S
Mg42 O43 2.018 1_655 S
Mg42 O49 1.986 1_655 S
Mg42 O51 2.114 . S
Mg42 O52 2.251 1_655 S
Mg42 O55 2.010 . S
O43 Mg42 2.018 1_455 S
O43 C46 1.274 . S
O44 Mg45 2.028 . S
O44 C46 1.248 . S
Mg45 O44 2.028 . S
Mg45 O50 2.032 . S
Mg45 O52 2.079 . S
C46 O43 1.274 . S
C46 O44 1.248 . S
C47 O48 1.264 . S
C47 O55 1.249 . S
O48 C47 1.264 . S
O49 Mg42 1.986 1_455 S
O49 C53 1.246 . S
O50 Mg45 2.032 . S
O50 C53 1.259 . S
O51 Mg42 2.114 . S
O51 C54 1.252 . S
O52 Mg42 2.251 1_455 S
O52 Mg45 2.079 . S
O52 C54 1.273 1_455 S
C53 O49 1.246 . S
C53 O50 1.259 . S
C54 O51 1.252 . S
C54 O52 1.273 1_655 S
O55 Mg42 2.010 . S
O55 C47 1.249 . S
Mg56 O57 2.028 1_556 S
Mg56 O63 1.986 . S
Mg56 O65 2.114 . S
Mg56 O66 2.251 . S
Mg56 O69 2.010 1_556 S
O57 Mg56 2.028 1_554 S
O57 C60 1.250 . S
O58 Mg59 2.028 1_554 S
O58 C60 1.248 . S
Mg59 O58 2.028 1_556 S
Mg59 O64 2.032 . S
Mg59 O66 2.079 . S
C60 O57 1.250 . S
C60 O58 1.248 . S
C61 O62 1.264 . S
C61 O69 1.249 . S
O62 C61 1.264 . S
O63 Mg56 1.986 . S
O63 C67 1.246 . S
O64 Mg59 2.032 . S
O64 C67 1.259 . S
O65 Mg56 2.114 . S
O65 C68 1.252 . S
O66 Mg56 2.251 . S
O66 Mg59 2.079 . S
O66 C68 1.273 . S
C67 O63 1.246 . S
C67 O64 1.259 . S
C68 O65 1.252 . S
C68 O66 1.273 . S
O69 Mg56 2.010 1_554 S
O69 C61 1.249 . S
Mg70 O71 2.028 . S
Mg70 O77 1.974 1_545 S
Mg70 O79 2.114 . S
Mg70 O80 2.251 . S
Mg70 O83 2.010 . S
O71 Mg70 2.028 . S
O71 C74 1.250 . S
O72 Mg73 2.028 . S
O72 C74 1.248 1_565 S
Mg73 O72 2.028 . S
Mg73 O78 2.032 . S
Mg73 O80 2.079 1_565 S
C74 O71 1.250 . S
C74 O72 1.248 1_545 S
C75 O76 1.264 . S
C75 O83 1.249 . S
O76 C75 1.264 . S
O77 Mg70 1.974 1_565 S
O77 C81 1.255 . S
O78 Mg73 2.032 . S
O78 C81 1.259 . S
O79 Mg70 2.114 . S
O79 C82 1.252 . S
O80 Mg70 2.251 . S
O80 Mg73 2.079 1_545 S
O80 C82 1.273 . S
C81 O77 1.255 . S
C81 O78 1.259 . S
C82 O79 1.252 . S
C82 O80 1.273 . S
O83 Mg70 2.010 . S
O83 C75 1.249 . S
Mg84 O85 2.028 . S
Mg84 O91 1.986 . S
Mg84 O93 2.114 . S
Mg84 O94 2.251 . S
Mg84 O97 2.010 . S
O85 Mg84 2.028 . S
O85 C88 1.250 . S
O86 Mg87 2.028 . S
O86 C88 1.248 . S
Mg87 O86 2.028 . S
Mg87 O92 2.032 . S
Mg87 O94 2.079 . S
C88 O85 1.250 . S
C88 O86 1.248 . S
C89 O90 1.264 . S
C89 O97 1.249 . S
O90 C89 1.264 . S
O91 Mg84 1.986 . S
O91 C95 1.246 . S
O92 Mg87 2.032 . S
O92 C95 1.259 . S
O93 Mg84 2.114 . S
O93 C96 1.252 . S
O94 Mg84 2.251 . S
O94 Mg87 2.079 . S
O94 C96 1.273 . S
C95 O91 1.246 . S
C95 O92 1.259 . S
C96 O93 1.252 . S
C96 O94 1.273 . S
O97 Mg84 2.010 . S
O97 C89 1.249 . S
Mg98 O99 2.028 . S
Mg98 O105 1.986 . S
Mg98 O107 2.114 . S
Mg98 O108 2.251 . S
Mg98 O111 2.010 . S
O99 Mg98 2.028 . S
O99 C102 1.250 . S
O100 Mg101 2.028 . S
O100 C102 1.248 . S
Mg101 O100 2.028 . S
Mg101 O106 2.032 . S
Mg101 O108 2.079 . S
C102 O99 1.250 . S
C102 O100 1.248 . S
C103 O104 1.264 . S
C103 O111 1.249 . S
O104 C103 1.264 . S
O105 Mg98 1.986 . S
O105 C109 1.246 . S
O106 Mg101 2.032 . S
O106 C109 1.259 . S
O107 Mg98 2.114 . S
O107 C110 1.252 . S
O108 Mg98 2.251 . S
O108 Mg101 2.079 . S
O108 C110 1.273 . S
C109 O105 1.246 . S
C109 O106 1.259 . S
C110 O107 1.252 . S
C110 O108 1.273 . S
O111 Mg98 2.010 . S
O111 C103 1.249 . S
Mg112 O113 2.028 . S
Mg112 O119 1.986 . S
Mg112 O121 2.114 . S
Mg112 O122 2.251 . S
Mg112 O125 2.010 . S
O113 Mg112 2.028 . S
O113 C116 1.250 . S
O114 Mg115 2.028 . S
O114 C116 1.248 . S
Mg115 O114 2.028 . S
Mg115 O120 2.032 . S
Mg115 O122 2.079 . S
C116 O113 1.250 . S
C116 O114 1.248 . S
C117 O118 1.264 1_455 S
C117 O125 1.249 . S
O118 C117 1.264 1_655 S
O119 Mg112 1.986 . S
O119 C123 1.246 . S
O120 Mg115 2.032 . S
O120 C123 1.259 . S
O121 Mg112 2.114 . S
O121 C124 1.252 . S
O122 Mg112 2.251 . S
O122 Mg115 2.079 . S
O122 C124 1.273 . S
C123 O119 1.246 . S
C123 O120 1.259 . S
C124 O121 1.252 . S
C124 O122 1.273 . S
O125 Mg112 2.010 . S
O125 C117 1.249 . S
Mg126 O127 2.028 . S
Mg126 O133 1.986 . S
Mg126 O135 2.114 . S
Mg126 O136 2.251 . S
Mg126 O139 2.010 . S
O127 Mg126 2.028 . S
O127 C130 1.250 . S
O128 Mg129 2.028 . S
O128 C130 1.248 . S
Mg129 O128 2.028 . S
Mg129 O134 2.032 . S
Mg129 O136 2.079 . S
C130 O127 1.250 . S
C130 O128 1.248 . S
C131 O132 1.264 . S
C131 O139 1.249 . S
O132 C131 1.264 . S
O133 Mg126 1.986 . S
O133 C137 1.246 . S
O134 Mg129 2.032 . S
O134 C137 1.259 . S
O135 Mg126 2.114 . S
O135 C138 1.252 . S
O136 Mg126 2.251 . S
O136 Mg129 2.079 . S
O136 C138 1.273 . S
C137 O133 1.246 . S
C137 O134 1.259 . S
C138 O135 1.252 . S
C138 O136 1.273 . S
O139 Mg126 2.010 . S
O139 C131 1.249 . S
Mg140 O141 2.028 . S
Mg140 O147 1.986 . S
Mg140 O149 2.114 . S
Mg140 O150 2.251 . S
Mg140 O153 2.010 . S
O141 Mg140 2.028 . S
O141 C144 1.250 . S
O142 Mg143 2.028 . S
O142 C144 1.248 . S
Mg143 O142 2.028 . S
Mg143 O148 2.032 . S
Mg143 O150 2.079 . S
C144 O141 1.250 . S
C144 O142 1.248 . S
C145 O146 1.331 . S
C145 O153 1.178 1_655 S
O146 C145 1.331 . S
O147 Mg140 1.986 . S
O147 C151 1.246 . S
O148 Mg143 2.032 . S
O148 C151 1.259 . S
O149 Mg140 2.114 . S
O149 C152 1.252 . S
O150 Mg140 2.251 . S
O150 Mg143 2.079 . S
O150 C152 1.273 . S
C151 O147 1.246 . S
C151 O148 1.259 . S
C152 O149 1.252 . S
C152 O150 1.273 . S
O153 Mg140 2.010 . S
O153 C145 1.178 1_455 S
Mg154 O155 2.028 . S
Mg154 O161 1.986 . S
Mg154 O163 2.114 . S
Mg154 O164 2.251 . S
Mg154 O167 2.010 . S
O155 Mg154 2.028 . S
O155 C158 1.250 . S
O156 Mg157 2.028 . S
O156 C158 1.248 . S
Mg157 O156 2.028 . S
Mg157 O162 2.032 . S
Mg157 O164 2.079 . S
C158 O155 1.250 . S
C158 O156 1.248 . S
C159 O160 1.264 . S
C159 O167 1.249 . S
O160 C159 1.264 . S
O161 Mg154 1.986 . S
O161 C165 1.246 . S
O162 Mg157 2.032 . S
O162 C165 1.259 . S
O163 Mg154 2.114 . S
O163 C166 1.252 . S
O164 Mg154 2.251 . S
O164 Mg157 2.079 . S
O164 C166 1.273 . S
C165 O161 1.246 . S
C165 O162 1.259 . S
C166 O163 1.252 . S
C166 O164 1.273 . S
O167 Mg154 2.010 . S
O167 C159 1.249 . S
Mg168 O169 2.028 . S
Mg168 O175 1.986 . S
Mg168 O177 2.114 . S
Mg168 O178 2.251 . S
Mg168 O181 2.010 . S
O169 Mg168 2.028 . S
O169 C172 1.250 . S
O170 Mg171 2.028 . S
O170 C172 1.248 . S
Mg171 O170 2.028 . S
Mg171 O176 2.032 . S
Mg171 O178 2.079 . S
C172 O169 1.250 . S
C172 O170 1.248 . S
C173 O174 1.264 . S
C173 O181 1.249 . S
O174 C173 1.264 . S
O175 Mg168 1.986 . S
O175 C179 1.246 . S
O176 Mg171 2.032 . S
O176 C179 1.259 . S
O177 Mg168 2.114 . S
O177 C180 1.252 . S
O178 Mg168 2.251 . S
O178 Mg171 2.079 . S
O178 C180 1.273 . S
C179 O175 1.246 . S
C179 O176 1.259 . S
C180 O177 1.252 . S
C180 O178 1.273 . S
O181 Mg168 2.010 . S
O181 C173 1.249 . S
Mg182 O183 2.028 . S
Mg182 O189 1.986 . S
Mg182 O191 2.114 . S
Mg182 O192 2.251 . S
Mg182 O195 2.010 . S
O183 Mg182 2.028 . S
O183 C186 1.250 . S
O184 Mg185 2.028 . S
O184 C186 1.248 . S
Mg185 O184 2.028 . S
Mg185 O190 2.032 . S
Mg185 O192 2.079 . S
C186 O183 1.250 . S
C186 O184 1.248 . S
C187 O188 1.264 . S
C187 O195 1.249 1_455 S
O188 C187 1.264 . S
O189 Mg182 1.986 . S
O189 C193 1.246 . S
O190 Mg185 2.032 . S
O190 C193 1.259 . S
O191 Mg182 2.114 . S
O191 C194 1.252 . S
O192 Mg182 2.251 . S
O192 Mg185 2.079 . S
O192 C194 1.273 . S
C193 O189 1.246 . S
C193 O190 1.259 . S
C194 O191 1.252 . S
C194 O192 1.273 . S
O195 Mg182 2.010 . S
O195 C187 1.249 1_655 S
Mg196 O197 2.028 . S
Mg196 O203 1.986 . S
Mg196 O205 2.114 . S
Mg196 O206 2.251 . S
Mg196 O209 2.010 . S
O197 Mg196 2.028 . S
O197 C200 1.250 . S
O198 Mg199 2.028 . S
O198 C200 1.248 . S
Mg199 O198 2.028 . S
Mg199 O204 2.032 . S
Mg199 O206 2.079 . S
C200 O197 1.250 . S
C200 O198 1.248 . S
C201 O202 1.264 . S
C201 O209 1.249 . S
O202 C201 1.264 . S
O203 Mg196 1.986 . S
O203 C207 1.246 . S
O204 Mg199 2.032 . S
O204 C207 1.259 . S
O205 Mg196 2.114 . S
O205 C208 1.252 . S
O206 Mg196 2.251 . S
O206 Mg199 2.079 . S
O206 C208 1.273 . S
C207 O203 1.246 . S
C207 O204 1.259 . S
C208 O205 1.252 . S
C208 O206 1.273 . S
O209 Mg196 2.010 . S
O209 C201 1.249 . S
Mg210 O211 2.028 . S
Mg210 O217 1.986 . S
Mg210 O219 2.114 . S
Mg210 O220 2.251 . S
Mg210 O223 2.010 . S
O211 Mg210 2.028 . S
O211 C214 1.250 . S
O212 Mg213 2.028 . S
O212 C214 1.248 . S
Mg213 O212 2.028 . S
Mg213 O218 2.032 . S
Mg213 O220 2.079 . S
C214 O211 1.250 . S
C214 O212 1.248 . S
C215 O216 1.264 . S
C215 O223 1.249 . S
O216 C215 1.264 . S
O217 Mg210 1.986 . S
O217 C221 1.246 . S
O218 Mg213 2.032 . S
O218 C221 1.259 . S
O219 Mg210 2.114 . S
O219 C222 1.252 . S
O220 Mg210 2.251 . S
O220 Mg213 2.079 . S
O220 C222 1.273 . S
C221 O217 1.246 . S
C221 O218 1.259 . S
C222 O219 1.252 . S
C222 O220 1.273 . S
O223 Mg210 2.010 . S
O223 C215 1.249 . S
Mg224 O225 2.028 . S
Mg224 O231 1.986 . S
Mg224 O233 2.114 . S
Mg224 O234 2.251 . S
Mg224 O237 2.010 . S
O225 Mg224 2.028 . S
O225 C228 1.250 . S
O226 Mg227 2.028 . S
O226 C228 1.248 . S
Mg227 O226 2.028 . S
Mg227 O232 2.032 . S
Mg227 O234 2.079 . S
C228 O225 1.250 . S
C228 O226 1.248 . S
C229 O230 1.264 . S
C229 O237 1.249 . S
O230 C229 1.264 . S
O231 Mg224 1.986 . S
O231 C235 1.246 . S
O232 Mg227 2.032 . S
O232 C235 1.259 . S
O233 Mg224 2.114 . S
O233 C236 1.252 . S
O234 Mg224 2.251 . S
O234 Mg227 2.079 . S
O234 C236 1.273 . S
C235 O231 1.246 . S
C235 O232 1.259 . S
C236 O233 1.252 . S
C236 O234 1.273 . S
O237 Mg224 2.010 . S
O237 C229 1.249 . S
Mg238 O239 2.028 . S
Mg238 O245 1.986 . S
Mg238 O247 2.114 . S
Mg238 O248 2.251 . S
Mg238 O251 2.010 . S
O239 Mg238 2.028 . S
O239 C242 1.250 . S
O240 Mg241 2.028 . S
O240 C242 1.248 . S
Mg241 O240 2.028 . S
Mg241 O246 2.032 . S
Mg241 O248 2.079 . S
C242 O239 1.250 . S
C242 O240 1.248 . S
C243 O244 1.264 . S
C243 O251 1.249 1_455 S
O244 C243 1.264 . S
O245 Mg238 1.986 . S
O245 C249 1.246 . S
O246 Mg241 2.032 . S
O246 C249 1.259 . S
O247 Mg238 2.114 . S
O247 C250 1.252 . S
O248 Mg238 2.251 . S
O248 Mg241 2.079 . S
O248 C250 1.273 . S
C249 O245 1.246 . S
C249 O246 1.259 . S
C250 O247 1.252 . S
C250 O248 1.273 . S
O251 Mg238 2.010 . S
O251 C243 1.249 1_655 S
H252 O278 0.856 . S
H253 O281 0.854 . S
H254 C289 0.930 . S
H255 C290 0.930 . S
H256 C292 0.930 . S
H257 C293 0.930 . S
H258 C295 0.931 . S
H259 C296 0.930 . S
H260 C298 0.930 . S
H261 C299 0.929 . S
H262 C301 0.930 . S
H263 C302 0.931 . S
H264 C304 0.930 . S
H265 C305 0.929 . S
H266 C307 0.931 . S
H267 C308 0.930 . S
H268 C310 0.930 . S
H269 C311 0.932 . S
H270 C313 0.930 . S
H271 C314 0.929 . S
H272 C316 0.931 . S
H273 C317 0.930 . S
H274 C319 0.929 . S
H275 C320 0.931 . S
H276 C322 0.930 . S
H277 C323 0.929 . S
O278 H252 0.856 . S
O278 C324 1.300 . S
O279 C324 1.209 . S
O280 C325 1.199 . S
O281 H253 0.854 . S
O281 C325 1.297 . S
C282 C283 1.404 . S
C282 C287 1.397 . S
C282 C288 1.492 . S
C283 C282 1.404 . S
C283 C284 1.396 . S
C283 C294 1.492 . S
C284 C283 1.396 . S
C284 C285 1.397 . S
C284 C300 1.509 . S
C285 C284 1.397 . S
C285 C286 1.412 . S
C285 C306 1.485 . S
C286 C285 1.412 . S
C286 C287 1.388 . S
C286 C312 1.490 . S
C287 C282 1.397 . S
C287 C286 1.388 . S
C287 C318 1.519 . S
C288 C282 1.492 . S
C288 C289 1.363 . S
C288 C293 1.390 . S
C289 H254 0.930 . S
C289 C288 1.363 . S
C289 C290 1.372 . S
C290 H255 0.930 . S
C290 C289 1.372 . S
C290 C291 1.383 . S
C291 C290 1.383 . S
C291 C292 1.395 . S
C292 H256 0.930 . S
C292 C291 1.395 . S
C292 C293 1.362 . S
C293 H257 0.930 . S
C293 C288 1.390 . S
C293 C292 1.362 . S
C294 C283 1.492 . S
C294 C295 1.377 . S
C294 C299 1.397 . S
C295 H258 0.931 . S
C295 C294 1.377 . S
C295 C296 1.376 . S
C296 H259 0.930 . S
C296 C295 1.376 . S
C296 C297 1.376 . S
C297 C296 1.376 . S
C297 C298 1.378 . S
C297 C324 1.486 . S
C298 H260 0.930 . S
C298 C297 1.378 . S
C298 C299 1.376 . S
C299 H261 0.929 . S
C299 C294 1.397 . S
C299 C298 1.376 . S
C300 C284 1.509 . S
C300 C301 1.391 . S
C300 C305 1.386 . S
C301 H262 0.930 . S
C301 C300 1.391 . S
C301 C302 1.375 . S
C302 H263 0.931 . S
C302 C301 1.375 . S
C302 C303 1.375 . S
C303 C302 1.375 . S
C303 C304 1.361 . S
C304 H264 0.930 . S
C304 C303 1.361 . S
C304 C305 1.399 . S
C305 H265 0.929 . S
C305 C300 1.386 . S
C305 C304 1.399 . S
C306 C285 1.485 . S
C306 C307 1.394 . S
C306 C311 1.360 . S
C307 H266 0.931 . S
C307 C306 1.394 . S
C307 C308 1.372 . S
C308 H267 0.930 . S
C308 C307 1.372 . S
C308 C309 1.397 . S
C309 C308 1.397 . S
C309 C310 1.390 . S
C309 C325 1.476 . S
C310 H268 0.930 . S
C310 C309 1.390 . S
C310 C311 1.366 . S
C311 H269 0.932 . S
C311 C306 1.360 . S
C311 C310 1.366 . S
C312 C286 1.490 . S
C312 C313 1.380 . S
C312 C317 1.386 . S
C313 H270 0.930 . S
C313 C312 1.380 . S
C313 C314 1.381 . S
C314 H271 0.929 . S
C314 C313 1.381 . S
C314 C315 1.371 . S
C315 C314 1.371 . S
C315 C316 1.380 . S
C316 H272 0.931 . S
C316 C315 1.380 . S
C316 C317 1.387 . S
C317 H273 0.930 . S
C317 C312 1.386 . S
C317 C316 1.387 . S
C318 C287 1.519 . S
C318 C319 1.377 . S
C318 C323 1.361 . S
C319 H274 0.929 . S
C319 C318 1.377 . S
C319 C320 1.386 . S
C320 H275 0.931 . S
C320 C319 1.386 . S
C320 C321 1.363 . S
C321 C320 1.363 . S
C321 C322 1.385 . S
C322 H276 0.930 . S
C322 C321 1.385 . S
C322 C323 1.396 . S
C323 H277 0.929 . S
C323 C318 1.361 . S
C323 C322 1.396 . S
C324 O278 1.300 . S
C324 O279 1.209 . S
C324 C297 1.486 . S
C325 O280 1.199 . S
C325 O281 1.297 . S
C325 C309 1.476 . S
H326 O352 0.856 . S
H327 O355 0.854 . S
H328 C363 0.930 . S
H329 C364 0.930 . S
H330 C366 0.930 . S
H331 C367 0.930 . S
H332 C369 0.931 . S
H333 C370 0.930 . S
H334 C372 0.930 . S
H335 C373 0.929 . S
H336 C375 0.930 . S
H337 C376 0.931 . S
H338 C378 0.930 . S
H339 C379 0.929 . S
H340 C381 0.931 . S
H341 C382 0.930 . S
H342 C384 0.930 . S
H343 C385 0.932 . S
H344 C387 0.930 . S
H345 C388 0.929 . S
H346 C390 0.931 . S
H347 C391 0.930 . S
H348 C393 0.929 . S
H349 C394 0.931 . S
H350 C396 0.930 . S
H351 C397 0.929 . S
O352 H326 0.856 . S
O352 C398 1.300 . S
O353 C398 1.209 . S
O354 C399 1.199 . S
O355 H327 0.854 . S
O355 C399 1.297 . S
C356 C357 1.404 . S
C356 C361 1.397 . S
C356 C362 1.492 . S
C357 C356 1.404 . S
C357 C358 1.396 . S
C357 C368 1.492 . S
C358 C357 1.396 . S
C358 C359 1.397 . S
C358 C374 1.509 . S
C359 C358 1.397 . S
C359 C360 1.412 . S
C359 C380 1.485 . S
C360 C359 1.412 . S
C360 C361 1.388 . S
C360 C386 1.490 . S
C361 C356 1.397 . S
C361 C360 1.388 . S
C361 C392 1.519 . S
C362 C356 1.492 . S
C362 C363 1.363 . S
C362 C367 1.390 . S
C363 H328 0.930 . S
C363 C362 1.363 . S
C363 C364 1.372 . S
C364 H329 0.930 . S
C364 C363 1.372 . S
C364 C365 1.383 . S
C365 C364 1.383 . S
C365 C366 1.395 . S
C366 H330 0.930 . S
C366 C365 1.395 . S
C366 C367 1.362 . S
C367 H331 0.930 . S
C367 C362 1.390 . S
C367 C366 1.362 . S
C368 C357 1.492 . S
C368 C369 1.377 . S
C368 C373 1.397 . S
C369 H332 0.931 . S
C369 C368 1.377 . S
C369 C370 1.376 . S
C370 H333 0.930 . S
C370 C369 1.376 . S
C370 C371 1.376 . S
C371 C370 1.376 . S
C371 C372 1.378 . S
C371 C398 1.486 . S
C372 H334 0.930 . S
C372 C371 1.378 . S
C372 C373 1.376 . S
C373 H335 0.929 . S
C373 C368 1.397 . S
C373 C372 1.376 . S
C374 C358 1.509 . S
C374 C375 1.391 . S
C374 C379 1.386 . S
C375 H336 0.930 . S
C375 C374 1.391 . S
C375 C376 1.375 . S
C376 H337 0.931 . S
C376 C375 1.375 . S
C376 C377 1.375 . S
C377 C376 1.375 . S
C377 C378 1.361 . S
C378 H338 0.930 . S
C378 C377 1.361 . S
C378 C379 1.399 . S
C379 H339 0.929 . S
C379 C374 1.386 . S
C379 C378 1.399 . S
C380 C359 1.485 . S
C380 C381 1.394 . S
C380 C385 1.360 . S
C381 H340 0.931 . S
C381 C380 1.394 . S
C381 C382 1.372 . S
C382 H341 0.930 . S
C382 C381 1.372 . S
C382 C383 1.397 . S
C383 C382 1.397 . S
C383 C384 1.390 . S
C383 C399 1.476 . S
C384 H342 0.930 . S
C384 C383 1.390 . S
C384 C385 1.366 . S
C385 H343 0.932 . S
C385 C380 1.360 . S
C385 C384 1.366 . S
C386 C360 1.490 . S
C386 C387 1.380 . S
C386 C391 1.386 . S
C387 H344 0.930 . S
C387 C386 1.380 . S
C387 C388 1.381 . S
C388 H345 0.929 . S
C388 C387 1.381 . S
C388 C389 1.371 . S
C389 C388 1.371 . S
C389 C390 1.380 . S
C390 H346 0.931 . S
C390 C389 1.380 . S
C390 C391 1.387 . S
C391 H347 0.930 . S
C391 C386 1.386 . S
C391 C390 1.387 . S
C392 C361 1.519 . S
C392 C393 1.377 . S
C392 C397 1.361 . S
C393 H348 0.929 . S
C393 C392 1.377 . S
C393 C394 1.386 . S
C394 H349 0.931 . S
C394 C393 1.386 . S
C394 C395 1.363 . S
C395 C394 1.363 . S
C395 C396 1.385 . S
C396 H350 0.930 . S
C396 C395 1.385 . S
C396 C397 1.396 . S
C397 H351 0.929 . S
C397 C392 1.361 . S
C397 C396 1.396 . S
C398 O352 1.300 . S
C398 O353 1.209 . S
C398 C371 1.486 . S
C399 O354 1.199 . S
C399 O355 1.297 . S
C399 C383 1.476 . S
H400 O426 0.856 . S
H401 O429 0.854 . S
H402 C437 0.930 . S
H403 C438 0.930 . S
H404 C440 0.930 . S
H405 C441 0.930 . S
H406 C443 0.931 . S
H407 C444 0.930 . S
H408 C446 0.930 . S
H409 C447 0.929 . S
H410 C449 0.930 . S
H411 C450 0.931 . S
H412 C452 0.930 . S
H413 C453 0.929 . S
H414 C455 0.931 . S
H415 C456 0.930 . S
H416 C458 0.930 . S
H417 C459 0.932 . S
H418 C461 0.930 . S
H419 C462 0.929 . S
H420 C464 0.931 . S
H421 C465 0.930 . S
H422 C467 0.929 . S
H423 C468 0.931 . S
H424 C470 0.930 . S
H425 C471 0.929 . S
O426 H400 0.856 . S
O426 C472 1.300 . S
O427 C472 1.209 . S
O428 C473 1.199 . S
O429 H401 0.854 . S
O429 C473 1.297 . S
C430 C431 1.404 . S
C430 C435 1.397 . S
C430 C436 1.492 . S
C431 C430 1.404 . S
C431 C432 1.396 . S
C431 C442 1.492 . S
C432 C431 1.396 . S
C432 C433 1.397 . S
C432 C448 1.509 . S
C433 C432 1.397 . S
C433 C434 1.412 . S
C433 C454 1.485 . S
C434 C433 1.412 . S
C434 C435 1.388 . S
C434 C460 1.490 . S
C435 C430 1.397 . S
C435 C434 1.388 . S
C435 C466 1.519 . S
C436 C430 1.492 . S
C436 C437 1.363 . S
C436 C441 1.390 . S
C437 H402 0.930 . S
C437 C436 1.363 . S
C437 C438 1.372 . S
C438 H403 0.930 . S
C438 C437 1.372 . S
C438 C439 1.383 . S
C439 C438 1.383 . S
C439 C440 1.395 . S
C440 H404 0.930 . S
C440 C439 1.395 . S
C440 C441 1.362 . S
C441 H405 0.930 . S
C441 C436 1.390 . S
C441 C440 1.362 . S
C442 C431 1.492 . S
C442 C443 1.377 . S
C442 C447 1.397 . S
C443 H406 0.931 . S
C443 C442 1.377 . S
C443 C444 1.376 . S
C444 H407 0.930 . S
C444 C443 1.376 . S
C444 C445 1.376 . S
C445 C444 1.376 . S
C445 C446 1.378 . S
C445 C472 1.486 . S
C446 H408 0.930 . S
C446 C445 1.378 . S
C446 C447 1.376 . S
C447 H409 0.929 . S
C447 C442 1.397 . S
C447 C446 1.376 . S
C448 C432 1.509 . S
C448 C449 1.391 . S
C448 C453 1.386 . S
C449 H410 0.930 . S
C449 C448 1.391 . S
C449 C450 1.375 . S
C450 H411 0.931 . S
C450 C449 1.375 . S
C450 C451 1.375 . S
C451 C450 1.375 . S
C451 C452 1.361 . S
C452 H412 0.930 . S
C452 C451 1.361 . S
C452 C453 1.399 . S
C453 H413 0.929 . S
C453 C448 1.386 . S
C453 C452 1.399 . S
C454 C433 1.485 . S
C454 C455 1.394 . S
C454 C459 1.360 . S
C455 H414 0.931 . S
C455 C454 1.394 . S
C455 C456 1.372 . S
C456 H415 0.930 . S
C456 C455 1.372 . S
C456 C457 1.397 . S
C457 C456 1.397 . S
C457 C458 1.390 . S
C457 C473 1.476 . S
C458 H416 0.930 . S
C458 C457 1.390 . S
C458 C459 1.366 . S
C459 H417 0.932 . S
C459 C454 1.360 . S
C459 C458 1.366 . S
C460 C434 1.490 . S
C460 C461 1.380 . S
C460 C465 1.386 . S
C461 H418 0.930 . S
C461 C460 1.380 . S
C461 C462 1.381 . S
C462 H419 0.929 . S
C462 C461 1.381 . S
C462 C463 1.371 . S
C463 C462 1.371 . S
C463 C464 1.380 . S
C464 H420 0.931 . S
C464 C463 1.380 . S
C464 C465 1.387 . S
C465 H421 0.930 . S
C465 C460 1.386 . S
C465 C464 1.387 . S
C466 C435 1.519 . S
C466 C467 1.377 . S
C466 C471 1.361 . S
C467 H422 0.929 . S
C467 C466 1.377 . S
C467 C468 1.386 . S
C468 H423 0.931 . S
C468 C467 1.386 . S
C468 C469 1.363 . S
C469 C468 1.363 . S
C469 C470 1.385 . S
C470 H424 0.930 . S
C470 C469 1.385 . S
C470 C471 1.396 . S
C471 H425 0.929 . S
C471 C466 1.361 . S
C471 C470 1.396 . S
C472 O426 1.300 . S
C472 O427 1.209 . S
C472 C445 1.486 . S
C473 O428 1.199 . S
C473 O429 1.297 . S
C473 C457 1.476 . S
H474 O500 0.856 1_554 S
H475 O503 0.854 . S
H476 C511 0.930 . S
H477 C512 0.930 . S
H478 C514 0.930 . S
H479 C515 0.930 . S
H480 C517 0.931 . S
H481 C518 0.930 . S
H482 C520 0.930 . S
H483 C521 0.929 . S
H484 C523 0.930 . S
H485 C524 0.931 . S
H486 C526 0.930 . S
H487 C527 0.929 . S
H488 C529 0.931 . S
H489 C530 0.930 . S
H490 C532 0.930 . S
H491 C533 0.932 . S
H492 C535 0.930 . S
H493 C536 0.929 . S
H494 C538 0.931 . S
H495 C539 0.930 . S
H496 C541 0.929 . S
H497 C542 0.931 . S
H498 C544 0.930 . S
H499 C545 0.929 . S
O500 H474 0.856 1_556 S
O500 C546 1.300 . S
O501 C546 1.209 . S
O502 C547 1.199 . S
O503 H475 0.854 . S
O503 C547 1.297 . S
C504 C505 1.404 . S
C504 C509 1.397 . S
C504 C510 1.492 . S
C505 C504 1.404 . S
C505 C506 1.396 . S
C505 C516 1.492 . S
C506 C505 1.396 . S
C506 C507 1.397 . S
C506 C522 1.509 . S
C507 C506 1.397 . S
C507 C508 1.412 . S
C507 C528 1.485 . S
C508 C507 1.412 . S
C508 C509 1.388 . S
C508 C534 1.490 . S
C509 C504 1.397 . S
C509 C508 1.388 . S
C509 C540 1.519 . S
C510 C504 1.492 . S
C510 C511 1.363 . S
C510 C515 1.390 . S
C511 H476 0.930 . S
C511 C510 1.363 . S
C511 C512 1.372 . S
C512 H477 0.930 . S
C512 C511 1.372 . S
C512 C513 1.383 . S
C513 C512 1.383 . S
C513 C514 1.395 . S
C514 H478 0.930 . S
C514 C513 1.395 . S
C514 C515 1.362 . S
C515 H479 0.930 . S
C515 C510 1.390 . S
C515 C514 1.362 . S
C516 C505 1.492 . S
C516 C517 1.377 . S
C516 C521 1.397 . S
C517 H480 0.931 . S
C517 C516 1.377 . S
C517 C518 1.376 . S
C518 H481 0.930 . S
C518 C517 1.376 . S
C518 C519 1.376 . S
C519 C518 1.376 . S
C519 C520 1.378 . S
C519 C546 1.486 . S
C520 H482 0.930 . S
C520 C519 1.378 . S
C520 C521 1.376 . S
C521 H483 0.929 . S
C521 C516 1.397 . S
C521 C520 1.376 . S
C522 C506 1.509 . S
C522 C523 1.391 . S
C522 C527 1.386 . S
C523 H484 0.930 . S
C523 C522 1.391 . S
C523 C524 1.375 . S
C524 H485 0.931 . S
C524 C523 1.375 . S
C524 C525 1.375 . S
C525 C524 1.375 . S
C525 C526 1.361 . S
C526 H486 0.930 . S
C526 C525 1.361 . S
C526 C527 1.399 . S
C527 H487 0.929 . S
C527 C522 1.386 . S
C527 C526 1.399 . S
C528 C507 1.485 . S
C528 C529 1.394 . S
C528 C533 1.360 . S
C529 H488 0.931 . S
C529 C528 1.394 . S
C529 C530 1.372 . S
C530 H489 0.930 . S
C530 C529 1.372 . S
C530 C531 1.397 . S
C531 C530 1.397 . S
C531 C532 1.390 . S
C531 C547 1.476 . S
C532 H490 0.930 . S
C532 C531 1.390 . S
C532 C533 1.366 . S
C533 H491 0.932 . S
C533 C528 1.360 . S
C533 C532 1.366 . S
C534 C508 1.490 . S
C534 C535 1.380 . S
C534 C539 1.386 . S
C535 H492 0.930 . S
C535 C534 1.380 . S
C535 C536 1.381 . S
C536 H493 0.929 . S
C536 C535 1.381 . S
C536 C537 1.371 . S
C537 C536 1.371 . S
C537 C538 1.380 . S
C538 H494 0.931 . S
C538 C537 1.380 . S
C538 C539 1.387 . S
C539 H495 0.930 . S
C539 C534 1.386 . S
C539 C538 1.387 . S
C540 C509 1.519 . S
C540 C541 1.377 . S
C540 C545 1.361 . S
C541 H496 0.929 . S
C541 C540 1.377 . S
C541 C542 1.386 . S
C542 H497 0.931 . S
C542 C541 1.386 . S
C542 C543 1.363 . S
C543 C542 1.363 . S
C543 C544 1.385 . S
C544 H498 0.930 . S
C544 C543 1.385 . S
C544 C545 1.396 . S
C545 H499 0.929 . S
C545 C540 1.361 . S
C545 C544 1.396 . S
C546 O500 1.300 . S
C546 O501 1.209 . S
C546 C519 1.486 . S
C547 O502 1.199 . S
C547 O503 1.297 . S
C547 C531 1.476 . S
H548 O574 0.856 . S
H549 O577 0.854 . S
H550 C585 0.930 . S
H551 C586 0.930 . S
H552 C588 0.930 . S
H553 C589 0.930 . S
H554 C591 0.931 . S
H555 C592 0.930 . S
H556 C594 0.930 . S
H557 C595 0.929 . S
H558 C597 0.930 . S
H559 C598 0.931 . S
H560 C600 0.930 . S
H561 C601 0.929 . S
H562 C603 0.931 . S
H563 C604 0.930 . S
H564 C606 0.930 . S
H565 C607 0.932 . S
H566 C609 0.930 . S
H567 C610 0.929 . S
H568 C612 0.931 . S
H569 C613 0.930 . S
H570 C615 0.929 . S
H571 C616 0.931 . S
H572 C618 0.930 . S
H573 C619 0.929 . S
O574 H548 0.856 . S
O574 C620 1.300 1_554 S
O575 C620 1.209 1_554 S
O576 C621 1.199 . S
O577 H549 0.854 . S
O577 C621 1.297 . S
C578 C579 1.404 . S
C578 C583 1.397 . S
C578 C584 1.492 . S
C579 C578 1.404 . S
C579 C580 1.396 . S
C579 C590 1.492 . S
C580 C579 1.396 . S
C580 C581 1.397 . S
C580 C596 1.509 . S
C581 C580 1.397 . S
C581 C582 1.412 . S
C581 C602 1.485 . S
C582 C581 1.412 . S
C582 C583 1.388 . S
C582 C608 1.490 . S
C583 C578 1.397 . S
C583 C582 1.388 . S
C583 C614 1.519 . S
C584 C578 1.492 . S
C584 C585 1.363 . S
C584 C589 1.390 . S
C585 H550 0.930 . S
C585 C584 1.363 . S
C585 C586 1.372 . S
C586 H551 0.930 . S
C586 C585 1.372 . S
C586 C587 1.383 . S
C587 C586 1.383 . S
C587 C588 1.395 . S
C588 H552 0.930 . S
C588 C587 1.395 . S
C588 C589 1.362 . S
C589 H553 0.930 . S
C589 C584 1.390 . S
C589 C588 1.362 . S
C590 C579 1.492 . S
C590 C591 1.377 . S
C590 C595 1.397 . S
C591 H554 0.931 . S
C591 C590 1.377 . S
C591 C592 1.376 . S
C592 H555 0.930 . S
C592 C591 1.376 . S
C592 C593 1.376 . S
C593 C592 1.376 . S
C593 C594 1.378 . S
C593 C620 1.486 . S
C594 H556 0.930 . S
C594 C593 1.378 . S
C594 C595 1.376 . S
C595 H557 0.929 . S
C595 C590 1.397 . S
C595 C594 1.376 . S
C596 C580 1.509 . S
C596 C597 1.391 . S
C596 C601 1.386 . S
C597 H558 0.930 . S
C597 C596 1.391 . S
C597 C598 1.375 . S
C598 H559 0.931 . S
C598 C597 1.375 . S
C598 C599 1.375 . S
C599 C598 1.375 . S
C599 C600 1.361 . S
C600 H560 0.930 . S
C600 C599 1.361 . S
C600 C601 1.399 . S
C601 H561 0.929 . S
C601 C596 1.386 . S
C601 C600 1.399 . S
C602 C581 1.485 . S
C602 C603 1.394 . S
C602 C607 1.360 . S
C603 H562 0.931 . S
C603 C602 1.394 . S
C603 C604 1.372 . S
C604 H563 0.930 . S
C604 C603 1.372 . S
C604 C605 1.397 . S
C605 C604 1.397 . S
C605 C606 1.390 . S
C605 C621 1.476 . S
C606 H564 0.930 . S
C606 C605 1.390 . S
C606 C607 1.366 . S
C607 H565 0.932 . S
C607 C602 1.360 . S
C607 C606 1.366 . S
C608 C582 1.490 . S
C608 C609 1.380 . S
C608 C613 1.386 . S
C609 H566 0.930 . S
C609 C608 1.380 . S
C609 C610 1.381 . S
C610 H567 0.929 . S
C610 C609 1.381 . S
C610 C611 1.371 . S
C611 C610 1.371 . S
C611 C612 1.380 . S
C612 H568 0.931 . S
C612 C611 1.380 . S
C612 C613 1.387 . S
C613 H569 0.930 . S
C613 C608 1.386 . S
C613 C612 1.387 . S
C614 C583 1.519 . S
C614 C615 1.377 . S
C614 C619 1.361 . S
C615 H570 0.929 . S
C615 C614 1.377 . S
C615 C616 1.386 . S
C616 H571 0.931 . S
C616 C615 1.386 . S
C616 C617 1.363 . S
C617 C616 1.363 . S
C617 C618 1.385 . S
C618 H572 0.930 . S
C618 C617 1.385 . S
C618 C619 1.396 . S
C619 H573 0.929 . S
C619 C614 1.361 . S
C619 C618 1.396 . S
C620 O574 1.300 1_556 S
C620 O575 1.209 1_556 S
C620 C593 1.486 . S
C621 O576 1.199 . S
C621 O577 1.297 . S
C621 C605 1.476 . S
H622 O648 0.856 . S
H623 O651 0.854 . S
H624 C659 0.930 . S
H625 C660 0.930 . S
H626 C662 0.930 . S
H627 C663 0.930 . S
H628 C665 0.931 . S
H629 C666 0.930 . S
H630 C668 0.930 . S
H631 C669 0.929 . S
H632 C671 0.930 . S
H633 C672 0.931 . S
H634 C674 0.930 . S
H635 C675 0.929 . S
H636 C677 0.931 . S
H637 C678 0.930 . S
H638 C680 0.930 . S
H639 C681 0.932 . S
H640 C683 0.930 . S
H641 C684 0.929 . S
H642 C686 0.931 . S
H643 C687 0.930 . S
H644 C689 0.929 . S
H645 C690 0.931 . S
H646 C692 0.930 . S
H647 C693 0.929 . S
O648 H622 0.856 . S
O648 C694 1.300 . S
O649 C694 1.209 . S
O650 C695 1.199 . S
O651 H623 0.854 . S
O651 C695 1.297 . S
C652 C653 1.404 . S
C652 C657 1.397 . S
C652 C658 1.492 . S
C653 C652 1.404 . S
C653 C654 1.396 . S
C653 C664 1.492 . S
C654 C653 1.396 . S
C654 C655 1.397 . S
C654 C670 1.509 . S
C655 C654 1.397 . S
C655 C656 1.412 . S
C655 C676 1.485 . S
C656 C655 1.412 . S
C656 C657 1.388 . S
C656 C682 1.490 . S
C657 C652 1.397 . S
C657 C656 1.388 . S
C657 C688 1.519 . S
C658 C652 1.492 . S
C658 C659 1.363 . S
C658 C663 1.390 . S
C659 H624 0.930 . S
C659 C658 1.363 . S
C659 C660 1.372 . S
C660 H625 0.930 . S
C660 C659 1.372 . S
C660 C661 1.383 . S
C661 C660 1.383 . S
C661 C662 1.395 . S
C662 H626 0.930 . S
C662 C661 1.395 . S
C662 C663 1.362 . S
C663 H627 0.930 . S
C663 C658 1.390 . S
C663 C662 1.362 . S
C664 C653 1.492 . S
C664 C665 1.377 . S
C664 C669 1.397 . S
C665 H628 0.931 . S
C665 C664 1.377 . S
C665 C666 1.376 . S
C666 H629 0.930 . S
C666 C665 1.376 . S
C666 C667 1.376 . S
C667 C666 1.376 . S
C667 C668 1.378 . S
C667 C694 1.486 1_556 S
C668 H630 0.930 . S
C668 C667 1.378 . S
C668 C669 1.376 . S
C669 H631 0.929 . S
C669 C664 1.397 . S
C669 C668 1.376 . S
C670 C654 1.509 . S
C670 C671 1.391 . S
C670 C675 1.386 . S
C671 H632 0.930 . S
C671 C670 1.391 . S
C671 C672 1.375 . S
C672 H633 0.931 . S
C672 C671 1.375 . S
C672 C673 1.375 . S
C673 C672 1.375 . S
C673 C674 1.361 . S
C674 H634 0.930 . S
C674 C673 1.361 . S
C674 C675 1.399 . S
C675 H635 0.929 . S
C675 C670 1.386 . S
C675 C674 1.399 . S
C676 C655 1.485 . S
C676 C677 1.394 . S
C676 C681 1.360 . S
C677 H636 0.931 . S
C677 C676 1.394 . S
C677 C678 1.372 . S
C678 H637 0.930 . S
C678 C677 1.372 . S
C678 C679 1.397 . S
C679 C678 1.397 . S
C679 C680 1.390 . S
C679 C695 1.476 . S
C680 H638 0.930 . S
C680 C679 1.390 . S
C680 C681 1.366 . S
C681 H639 0.932 . S
C681 C676 1.360 . S
C681 C680 1.366 . S
C682 C656 1.490 . S
C682 C683 1.380 . S
C682 C687 1.386 . S
C683 H640 0.930 . S
C683 C682 1.380 . S
C683 C684 1.381 . S
C684 H641 0.929 . S
C684 C683 1.381 . S
C684 C685 1.371 . S
C685 C684 1.371 . S
C685 C686 1.380 . S
C686 H642 0.931 . S
C686 C685 1.380 . S
C686 C687 1.387 . S
C687 H643 0.930 . S
C687 C682 1.386 . S
C687 C686 1.387 . S
C688 C657 1.519 . S
C688 C689 1.377 . S
C688 C693 1.361 . S
C689 H644 0.929 . S
C689 C688 1.377 . S
C689 C690 1.386 . S
C690 H645 0.931 . S
C690 C689 1.386 . S
C690 C691 1.363 . S
C691 C690 1.363 . S
C691 C692 1.385 . S
C692 H646 0.930 . S
C692 C691 1.385 . S
C692 C693 1.396 . S
C693 H647 0.929 . S
C693 C688 1.361 . S
C693 C692 1.396 . S
C694 O648 1.300 . S
C694 O649 1.209 . S
C694 C667 1.486 1_554 S
C695 O650 1.199 . S
C695 O651 1.297 . S
C695 C679 1.476 . S
H696 O722 0.856 . S
H697 O725 0.854 . S
H698 C733 0.930 . S
H699 C734 0.930 . S
H700 C736 0.930 . S
H701 C737 0.930 . S
H702 C739 0.931 . S
H703 C740 0.930 . S
H704 C742 0.930 . S
H705 C743 0.929 . S
H706 C745 0.930 . S
H707 C746 0.931 . S
H708 C748 0.930 . S
H709 C749 0.929 . S
H710 C751 0.931 . S
H711 C752 0.930 . S
H712 C754 0.930 . S
H713 C755 0.932 . S
H714 C757 0.930 . S
H715 C758 0.929 . S
H716 C760 0.931 . S
H717 C761 0.930 . S
H718 C763 0.929 . S
H719 C764 0.931 . S
H720 C766 0.930 . S
H721 C767 0.929 . S
O722 H696 0.856 . S
O722 C768 1.300 . S
O723 C768 1.209 . S
O724 C769 1.199 . S
O725 H697 0.854 . S
O725 C769 1.297 . S
C726 C727 1.404 . S
C726 C731 1.397 . S
C726 C732 1.492 . S
C727 C726 1.404 . S
C727 C728 1.396 . S
C727 C738 1.492 . S
C728 C727 1.396 . S
C728 C729 1.397 . S
C728 C744 1.509 . S
C729 C728 1.397 . S
C729 C730 1.412 . S
C729 C750 1.485 . S
C730 C729 1.412 . S
C730 C731 1.388 . S
C730 C756 1.490 . S
C731 C726 1.397 . S
C731 C730 1.388 . S
C731 C762 1.519 . S
C732 C726 1.492 . S
C732 C733 1.363 . S
C732 C737 1.390 . S
C733 H698 0.930 . S
C733 C732 1.363 . S
C733 C734 1.372 . S
C734 H699 0.930 . S
C734 C733 1.372 . S
C734 C735 1.383 . S
C735 C734 1.383 . S
C735 C736 1.395 . S
C736 H700 0.930 . S
C736 C735 1.395 . S
C736 C737 1.362 . S
C737 H701 0.930 . S
C737 C732 1.390 . S
C737 C736 1.362 . S
C738 C727 1.492 . S
C738 C739 1.377 . S
C738 C743 1.397 . S
C739 H702 0.931 . S
C739 C738 1.377 . S
C739 C740 1.376 . S
C740 H703 0.930 . S
C740 C739 1.376 . S
C740 C741 1.376 . S
C741 C740 1.376 . S
C741 C742 1.378 . S
C741 C768 1.486 . S
C742 H704 0.930 . S
C742 C741 1.378 . S
C742 C743 1.376 . S
C743 H705 0.929 . S
C743 C738 1.397 . S
C743 C742 1.376 . S
C744 C728 1.509 . S
C744 C745 1.391 . S
C744 C749 1.386 . S
C745 H706 0.930 . S
C745 C744 1.391 . S
C745 C746 1.375 . S
C746 H707 0.931 . S
C746 C745 1.375 . S
C746 C747 1.375 . S
C747 C746 1.375 . S
C747 C748 1.361 . S
C748 H708 0.930 . S
C748 C747 1.361 . S
C748 C749 1.399 . S
C749 H709 0.929 . S
C749 C744 1.386 . S
C749 C748 1.399 . S
C750 C729 1.485 . S
C750 C751 1.394 . S
C750 C755 1.360 . S
C751 H710 0.931 . S
C751 C750 1.394 . S
C751 C752 1.372 . S
C752 H711 0.930 . S
C752 C751 1.372 . S
C752 C753 1.397 . S
C753 C752 1.397 . S
C753 C754 1.390 . S
C753 C769 1.476 . S
C754 H712 0.930 . S
C754 C753 1.390 . S
C754 C755 1.366 . S
C755 H713 0.932 . S
C755 C750 1.360 . S
C755 C754 1.366 . S
C756 C730 1.490 . S
C756 C757 1.380 . S
C756 C761 1.386 . S
C757 H714 0.930 . S
C757 C756 1.380 . S
C757 C758 1.381 . S
C758 H715 0.929 . S
C758 C757 1.381 . S
C758 C759 1.371 . S
C759 C758 1.371 . S
C759 C760 1.380 . S
C760 H716 0.931 . S
C760 C759 1.380 . S
C760 C761 1.387 . S
C761 H717 0.930 . S
C761 C756 1.386 . S
C761 C760 1.387 . S
C762 C731 1.519 . S
C762 C763 1.377 . S
C762 C767 1.361 . S
C763 H718 0.929 . S
C763 C762 1.377 . S
C763 C764 1.386 . S
C764 H719 0.931 . S
C764 C763 1.386 . S
C764 C765 1.363 . S
C765 C764 1.363 . S
C765 C766 1.385 . S
C766 H720 0.930 . S
C766 C765 1.385 . S
C766 C767 1.396 . S
C767 H721 0.929 . S
C767 C762 1.361 . S
C767 C766 1.396 . S
C768 O722 1.300 . S
C768 O723 1.209 . S
C768 C741 1.486 . S
C769 O724 1.199 . S
C769 O725 1.297 . S
C769 C753 1.476 . S
H770 O796 0.856 . S
H771 O799 0.854 . S
H772 C807 0.930 . S
H773 C808 0.930 . S
H774 C810 0.930 . S
H775 C811 0.930 . S
H776 C813 0.931 . S
H777 C814 0.930 . S
H778 C816 0.930 . S
H779 C817 0.929 . S
H780 C819 0.930 . S
H781 C820 0.931 . S
H782 C822 0.930 . S
H783 C823 0.929 . S
H784 C825 0.931 . S
H785 C826 0.930 . S
H786 C828 0.930 . S
H787 C829 0.932 . S
H788 C831 0.930 . S
H789 C832 0.929 . S
H790 C834 0.931 . S
H791 C835 0.930 . S
H792 C837 0.929 . S
H793 C838 0.931 . S
H794 C840 0.930 . S
H795 C841 0.929 . S
O796 H770 0.856 . S
O796 C842 1.300 . S
O797 C842 1.209 . S
O798 C843 1.199 . S
O799 H771 0.854 . S
O799 C843 1.297 . S
C800 C801 1.404 . S
C800 C805 1.397 . S
C800 C806 1.492 . S
C801 C800 1.404 . S
C801 C802 1.396 . S
C801 C812 1.492 . S
C802 C801 1.396 . S
C802 C803 1.397 . S
C802 C818 1.509 . S
C803 C802 1.397 . S
C803 C804 1.412 . S
C803 C824 1.485 . S
C804 C803 1.412 . S
C804 C805 1.388 . S
C804 C830 1.490 . S
C805 C800 1.397 . S
C805 C804 1.388 . S
C805 C836 1.519 . S
C806 C800 1.492 . S
C806 C807 1.363 . S
C806 C811 1.390 . S
C807 H772 0.930 . S
C807 C806 1.363 . S
C807 C808 1.372 . S
C808 H773 0.930 . S
C808 C807 1.372 . S
C808 C809 1.383 . S
C809 C808 1.383 . S
C809 C810 1.395 . S
C810 H774 0.930 . S
C810 C809 1.395 . S
C810 C811 1.362 . S
C811 H775 0.930 . S
C811 C806 1.390 . S
C811 C810 1.362 . S
C812 C801 1.492 . S
C812 C813 1.377 . S
C812 C817 1.397 . S
C813 H776 0.931 . S
C813 C812 1.377 . S
C813 C814 1.376 . S
C814 H777 0.930 . S
C814 C813 1.376 . S
C814 C815 1.376 . S
C815 C814 1.376 . S
C815 C816 1.378 . S
C815 C842 1.486 . S
C816 H778 0.930 . S
C816 C815 1.378 . S
C816 C817 1.376 . S
C817 H779 0.929 . S
C817 C812 1.397 . S
C817 C816 1.376 . S
C818 C802 1.509 . S
C818 C819 1.391 . S
C818 C823 1.386 . S
C819 H780 0.930 . S
C819 C818 1.391 . S
C819 C820 1.375 . S
C820 H781 0.931 . S
C820 C819 1.375 . S
C820 C821 1.375 . S
C821 C820 1.375 . S
C821 C822 1.361 . S
C822 H782 0.930 . S
C822 C821 1.361 . S
C822 C823 1.399 . S
C823 H783 0.929 . S
C823 C818 1.386 . S
C823 C822 1.399 . S
C824 C803 1.485 . S
C824 C825 1.394 . S
C824 C829 1.360 . S
C825 H784 0.931 . S
C825 C824 1.394 . S
C825 C826 1.372 . S
C826 H785 0.930 . S
C826 C825 1.372 . S
C826 C827 1.397 . S
C827 C826 1.397 . S
C827 C828 1.390 . S
C827 C843 1.476 . S
C828 H786 0.930 . S
C828 C827 1.390 . S
C828 C829 1.366 . S
C829 H787 0.932 . S
C829 C824 1.360 . S
C829 C828 1.366 . S
C830 C804 1.490 . S
C830 C831 1.380 . S
C830 C835 1.386 . S
C831 H788 0.930 . S
C831 C830 1.380 . S
C831 C832 1.381 . S
C832 H789 0.929 . S
C832 C831 1.381 . S
C832 C833 1.371 . S
C833 C832 1.371 . S
C833 C834 1.380 . S
C834 H790 0.931 . S
C834 C833 1.380 . S
C834 C835 1.387 . S
C835 H791 0.930 . S
C835 C830 1.386 . S
C835 C834 1.387 . S
C836 C805 1.519 . S
C836 C837 1.377 . S
C836 C841 1.361 . S
C837 H792 0.929 . S
C837 C836 1.377 . S
C837 C838 1.386 . S
C838 H793 0.931 . S
C838 C837 1.386 . S
C838 C839 1.363 . S
C839 C838 1.363 . S
C839 C840 1.385 . S
C840 H794 0.930 . S
C840 C839 1.385 . S
C840 C841 1.396 . S
C841 H795 0.929 . S
C841 C836 1.361 . S
C841 C840 1.396 . S
C842 O796 1.300 . S
C842 O797 1.209 . S
C842 C815 1.486 . S
C843 O798 1.199 . S
C843 O799 1.297 . S
C843 C827 1.476 . S
H844 O870 0.856 . S
H845 O873 0.854 . S
H846 C881 0.930 . S
H847 C882 0.930 . S
H848 C884 0.930 . S
H849 C885 0.930 . S
H850 C887 0.931 . S
H851 C888 0.930 . S
H852 C890 0.930 . S
H853 C891 0.929 . S
H854 C893 0.930 . S
H855 C894 0.931 . S
H856 C896 0.930 . S
H857 C897 0.929 . S
H858 C899 0.931 . S
H859 C900 0.930 . S
H860 C902 0.930 . S
H861 C903 0.932 . S
H862 C905 0.930 . S
H863 C906 0.929 . S
H864 C908 0.931 . S
H865 C909 0.930 . S
H866 C911 0.929 . S
H867 C912 0.931 . S
H868 C914 0.930 . S
H869 C915 0.929 . S
O870 H844 0.856 . S
O870 C916 1.300 . S
O871 C916 1.209 . S
O872 C917 1.199 . S
O873 H845 0.854 . S
O873 C917 1.297 . S
C874 C875 1.404 . S
C874 C879 1.397 . S
C874 C880 1.492 . S
C875 C874 1.404 . S
C875 C876 1.396 . S
C875 C886 1.492 . S
C876 C875 1.396 . S
C876 C877 1.397 . S
C876 C892 1.509 . S
C877 C876 1.397 . S
C877 C878 1.412 . S
C877 C898 1.485 . S
C878 C877 1.412 . S
C878 C879 1.388 . S
C878 C904 1.490 . S
C879 C874 1.397 . S
C879 C878 1.388 . S
C879 C910 1.519 . S
C880 C874 1.492 . S
C880 C881 1.363 . S
C880 C885 1.390 . S
C881 H846 0.930 . S
C881 C880 1.363 . S
C881 C882 1.372 . S
C882 H847 0.930 . S
C882 C881 1.372 . S
C882 C883 1.383 . S
C883 C882 1.383 . S
C883 C884 1.395 . S
C884 H848 0.930 . S
C884 C883 1.395 . S
C884 C885 1.362 . S
C885 H849 0.930 . S
C885 C880 1.390 . S
C885 C884 1.362 . S
C886 C875 1.492 . S
C886 C887 1.377 . S
C886 C891 1.397 . S
C887 H850 0.931 . S
C887 C886 1.377 . S
C887 C888 1.376 . S
C888 H851 0.930 . S
C888 C887 1.376 . S
C888 C889 1.376 . S
C889 C888 1.376 . S
C889 C890 1.378 . S
C889 C916 1.486 . S
C890 H852 0.930 . S
C890 C889 1.378 . S
C890 C891 1.376 . S
C891 H853 0.929 . S
C891 C886 1.397 . S
C891 C890 1.376 . S
C892 C876 1.509 . S
C892 C893 1.391 . S
C892 C897 1.386 . S
C893 H854 0.930 . S
C893 C892 1.391 . S
C893 C894 1.375 . S
C894 H855 0.931 . S
C894 C893 1.375 . S
C894 C895 1.375 . S
C895 C894 1.375 . S
C895 C896 1.361 . S
C896 H856 0.930 . S
C896 C895 1.361 . S
C896 C897 1.399 . S
C897 H857 0.929 . S
C897 C892 1.386 . S
C897 C896 1.399 . S
C898 C877 1.485 . S
C898 C899 1.394 . S
C898 C903 1.360 . S
C899 H858 0.931 . S
C899 C898 1.394 . S
C899 C900 1.372 . S
C900 H859 0.930 . S
C900 C899 1.372 . S
C900 C901 1.397 . S
C901 C900 1.397 . S
C901 C902 1.390 . S
C901 C917 1.476 . S
C902 H860 0.930 . S
C902 C901 1.390 . S
C902 C903 1.366 . S
C903 H861 0.932 . S
C903 C898 1.360 . S
C903 C902 1.366 . S
C904 C878 1.490 . S
C904 C905 1.380 . S
C904 C909 1.386 . S
C905 H862 0.930 . S
C905 C904 1.380 . S
C905 C906 1.381 . S
C906 H863 0.929 . S
C906 C905 1.381 . S
C906 C907 1.371 . S
C907 C906 1.371 . S
C907 C908 1.380 . S
C908 H864 0.931 . S
C908 C907 1.380 . S
C908 C909 1.387 . S
C909 H865 0.930 . S
C909 C904 1.386 . S
C909 C908 1.387 . S
C910 C879 1.519 . S
C910 C911 1.377 . S
C910 C915 1.361 . S
C911 H866 0.929 . S
C911 C910 1.377 . S
C911 C912 1.386 . S
C912 H867 0.931 . S
C912 C911 1.386 . S
C912 C913 1.363 . S
C913 C912 1.363 . S
C913 C914 1.385 . S
C914 H868 0.930 . S
C914 C913 1.385 . S
C914 C915 1.396 . S
C915 H869 0.929 . S
C915 C910 1.361 . S
C915 C914 1.396 . S
C916 O870 1.300 . S
C916 O871 1.209 . S
C916 C889 1.486 . S
C917 O872 1.199 . S
C917 O873 1.297 . S
C917 C901 1.476 . S
H918 O944 0.856 . S
H919 O947 0.854 . S
H920 C955 0.930 . S
H921 C956 0.930 . S
H922 C958 0.930 . S
H923 C959 0.930 . S
H924 C961 0.931 . S
H925 C962 0.935 . S
H926 C964 0.930 . S
H927 C965 0.929 . S
H928 C967 0.930 . S
H929 C968 0.937 . S
H930 C970 0.930 . S
H931 C971 0.929 . S
H932 C973 0.931 . S
H933 C974 0.930 . S
H934 C976 0.930 . S
H935 C977 0.932 . S
H936 C979 0.930 . S
H937 C980 0.929 . S
H938 C982 0.931 . S
H939 C983 0.930 . S
H940 C985 0.929 . S
H941 C986 0.931 . S
H942 C988 0.930 . S
H943 C989 0.929 . S
O944 H918 0.856 . S
O944 C990 1.300 . S
O945 C990 1.209 . S
O946 C991 1.199 1_655 S
O947 H919 0.854 . S
O947 C991 1.297 . S
C948 C949 1.404 . S
C948 C953 1.393 . S
C948 C954 1.492 . S
C949 C948 1.404 . S
C949 C950 1.396 . S
C949 C960 1.492 . S
C950 C949 1.396 . S
C950 C951 1.397 . S
C950 C966 1.509 . S
C951 C950 1.397 . S
C951 C952 1.427 . S
C951 C972 1.485 . S
C952 C951 1.427 . S
C952 C953 1.399 . S
C952 C978 1.491 1_455 S
C953 C948 1.393 . S
C953 C952 1.399 . S
C953 C984 1.497 1_455 S
C954 C948 1.492 . S
C954 C955 1.363 1_455 S
C954 C959 1.390 . S
C955 H920 0.930 . S
C955 C954 1.363 1_655 S
C955 C956 1.372 . S
C956 H921 0.930 . S
C956 C955 1.372 . S
C956 C957 1.383 . S
C957 C956 1.383 . S
C957 C958 1.395 1_655 S
C958 H922 0.930 . S
C958 C957 1.395 1_455 S
C958 C959 1.362 . S
C959 H923 0.930 . S
C959 C954 1.390 . S
C959 C958 1.362 . S
C960 C949 1.492 . S
C960 C961 1.377 1_455 S
C960 C965 1.397 . S
C961 H924 0.931 . S
C961 C960 1.377 1_655 S
C961 C962 1.375 . S
C962 H925 0.935 . S
C962 C961 1.375 . S
C962 C963 1.372 1_655 S
C963 C962 1.372 1_455 S
C963 C964 1.378 . S
C963 C990 1.486 . S
C964 H926 0.930 . S
C964 C963 1.378 . S
C964 C965 1.376 . S
C965 H927 0.929 . S
C965 C960 1.397 . S
C965 C964 1.376 . S
C966 C950 1.509 . S
C966 C967 1.391 1_455 S
C966 C971 1.386 . S
C967 H928 0.930 . S
C967 C966 1.391 1_655 S
C967 C968 1.383 . S
C968 H929 0.937 . S
C968 C967 1.383 . S
C968 C969 1.361 1_655 S
C969 C968 1.361 1_455 S
C969 C970 1.361 . S
C970 H930 0.930 . S
C970 C969 1.361 . S
C970 C971 1.399 . S
C971 H931 0.929 . S
C971 C966 1.386 . S
C971 C970 1.399 . S
C972 C951 1.485 . S
C972 C973 1.394 1_455 S
C972 C977 1.360 . S
C973 H932 0.931 . S
C973 C972 1.394 1_655 S
C973 C974 1.372 . S
C974 H933 0.930 . S
C974 C973 1.372 . S
C974 C975 1.397 1_655 S
C975 C974 1.397 1_455 S
C975 C976 1.390 . S
C975 C991 1.476 . S
C976 H934 0.930 . S
C976 C975 1.390 . S
C976 C977 1.366 . S
C977 H935 0.932 . S
C977 C972 1.360 . S
C977 C976 1.366 . S
C978 C952 1.491 1_655 S
C978 C979 1.380 . S
C978 C983 1.386 1_655 S
C979 H936 0.930 . S
C979 C978 1.380 . S
C979 C980 1.381 . S
C980 H937 0.929 . S
C980 C979 1.381 . S
C980 C981 1.371 . S
C981 C980 1.371 . S
C981 C982 1.380 1_655 S
C982 H938 0.931 . S
C982 C981 1.380 1_455 S
C982 C983 1.387 . S
C983 H939 0.930 . S
C983 C978 1.386 1_455 S
C983 C982 1.387 . S
C984 C953 1.497 1_655 S
C984 C985 1.388 . S
C984 C989 1.354 1_655 S
C985 H940 0.929 . S
C985 C984 1.388 . S
C985 C986 1.386 . S
C986 H941 0.931 . S
C986 C985 1.386 . S
C986 C987 1.353 1_655 S
C987 C986 1.353 1_455 S
C987 C988 1.400 . S
C988 H942 0.930 . S
C988 C987 1.400 . S
C988 C989 1.396 . S
C989 H943 0.929 . S
C989 C984 1.354 1_455 S
C989 C988 1.396 . S
C990 O944 1.300 . S
C990 O945 1.209 . S
C990 C963 1.486 . S
C991 O946 1.199 1_455 S
C991 O947 1.297 . S
C991 C975 1.476 . S
H992 O1018 0.856 . S
H993 O1021 0.854 . S
H994 C1029 0.930 . S
H995 C1030 0.930 . S
H996 C1032 0.930 . S
H997 C1033 0.930 . S
H998 C1035 0.931 . S
H999 C1036 0.930 . S
H1000 C1038 0.930 . S
H1001 C1039 0.929 . S
H1002 C1041 0.930 . S
H1003 C1042 0.931 . S
H1004 C1044 0.930 . S
H1005 C1045 0.929 . S
H1006 C1047 0.931 . S
H1007 C1048 0.930 . S
H1008 C1050 0.930 . S
H1009 C1051 0.932 . S
H1010 C1053 0.930 . S
H1011 C1054 0.929 . S
H1012 C1056 0.931 . S
H1013 C1057 0.930 . S
H1014 C1059 0.929 . S
H1015 C1060 0.931 . S
H1016 C1062 0.930 . S
H1017 C1063 0.929 . S
O1018 H992 0.856 . S
O1018 C1064 1.300 . S
O1019 C1064 1.209 . S
O1020 C1065 1.199 . S
O1021 H993 0.854 . S
O1021 C1065 1.297 . S
C1022 C1023 1.404 . S
C1022 C1027 1.397 . S
C1022 C1028 1.492 . S
C1023 C1022 1.404 . S
C1023 C1024 1.396 . S
C1023 C1034 1.492 . S
C1024 C1023 1.396 . S
C1024 C1025 1.397 . S
C1024 C1040 1.509 . S
C1025 C1024 1.397 . S
C1025 C1026 1.412 . S
C1025 C1046 1.485 . S
C1026 C1025 1.412 . S
C1026 C1027 1.388 . S
C1026 C1052 1.490 . S
C1027 C1022 1.397 . S
C1027 C1026 1.388 . S
C1027 C1058 1.519 . S
C1028 C1022 1.492 . S
C1028 C1029 1.363 . S
C1028 C1033 1.390 . S
C1029 H994 0.930 . S
C1029 C1028 1.363 . S
C1029 C1030 1.372 . S
C1030 H995 0.930 . S
C1030 C1029 1.372 . S
C1030 C1031 1.383 . S
C1031 C1030 1.383 . S
C1031 C1032 1.395 . S
C1032 H996 0.930 . S
C1032 C1031 1.395 . S
C1032 C1033 1.362 . S
C1033 H997 0.930 . S
C1033 C1028 1.390 . S
C1033 C1032 1.362 . S
C1034 C1023 1.492 . S
C1034 C1035 1.377 . S
C1034 C1039 1.397 . S
C1035 H998 0.931 . S
C1035 C1034 1.377 . S
C1035 C1036 1.376 . S
C1036 H999 0.930 . S
C1036 C1035 1.376 . S
C1036 C1037 1.376 . S
C1037 C1036 1.376 . S
C1037 C1038 1.378 . S
C1037 C1064 1.486 . S
C1038 H1000 0.930 . S
C1038 C1037 1.378 . S
C1038 C1039 1.376 . S
C1039 H1001 0.929 . S
C1039 C1034 1.397 . S
C1039 C1038 1.376 . S
C1040 C1024 1.509 . S
C1040 C1041 1.391 . S
C1040 C1045 1.386 . S
C1041 H1002 0.930 . S
C1041 C1040 1.391 . S
C1041 C1042 1.375 . S
C1042 H1003 0.931 . S
C1042 C1041 1.375 . S
C1042 C1043 1.375 . S
C1043 C1042 1.375 . S
C1043 C1044 1.361 . S
C1044 H1004 0.930 . S
C1044 C1043 1.361 . S
C1044 C1045 1.399 . S
C1045 H1005 0.929 . S
C1045 C1040 1.386 . S
C1045 C1044 1.399 . S
C1046 C1025 1.485 . S
C1046 C1047 1.394 . S
C1046 C1051 1.360 . S
C1047 H1006 0.931 . S
C1047 C1046 1.394 . S
C1047 C1048 1.372 . S
C1048 H1007 0.930 . S
C1048 C1047 1.372 . S
C1048 C1049 1.397 . S
C1049 C1048 1.397 . S
C1049 C1050 1.390 . S
C1049 C1065 1.476 . S
C1050 H1008 0.930 . S
C1050 C1049 1.390 . S
C1050 C1051 1.366 . S
C1051 H1009 0.932 . S
C1051 C1046 1.360 . S
C1051 C1050 1.366 . S
C1052 C1026 1.490 . S
C1052 C1053 1.380 . S
C1052 C1057 1.386 . S
C1053 H1010 0.930 . S
C1053 C1052 1.380 . S
C1053 C1054 1.381 . S
C1054 H1011 0.929 . S
C1054 C1053 1.381 . S
C1054 C1055 1.371 . S
C1055 C1054 1.371 . S
C1055 C1056 1.380 . S
C1056 H1012 0.931 . S
C1056 C1055 1.380 . S
C1056 C1057 1.387 . S
C1057 H1013 0.930 . S
C1057 C1052 1.386 . S
C1057 C1056 1.387 . S
C1058 C1027 1.519 . S
C1058 C1059 1.377 . S
C1058 C1063 1.361 . S
C1059 H1014 0.929 . S
C1059 C1058 1.377 . S
C1059 C1060 1.386 . S
C1060 H1015 0.931 . S
C1060 C1059 1.386 . S
C1060 C1061 1.363 . S
C1061 C1060 1.363 . S
C1061 C1062 1.385 . S
C1062 H1016 0.930 . S
C1062 C1061 1.385 . S
C1062 C1063 1.396 . S
C1063 H1017 0.929 . S
C1063 C1058 1.361 . S
C1063 C1062 1.396 . S
C1064 O1018 1.300 . S
C1064 O1019 1.209 . S
C1064 C1037 1.486 . S
C1065 O1020 1.199 . S
C1065 O1021 1.297 . S
C1065 C1049 1.476 . S
H1066 O1092 0.856 . S
H1067 O1095 0.854 . S
H1068 C1103 0.930 . S
H1069 C1104 0.930 . S
H1070 C1106 0.930 . S
H1071 C1107 0.930 . S
H1072 C1109 0.931 . S
H1073 C1110 0.931 . S
H1074 C1112 0.930 . S
H1075 C1113 0.929 . S
H1076 C1115 0.930 . S
H1077 C1116 0.951 . S
H1078 C1118 0.930 . S
H1079 C1119 0.929 . S
H1080 C1121 0.931 . S
H1081 C1122 0.930 . S
H1082 C1124 0.930 . S
H1083 C1125 0.932 . S
H1084 C1127 0.930 . S
H1085 C1128 0.929 . S
H1086 C1130 0.931 . S
H1087 C1131 0.930 . S
H1088 C1133 0.929 . S
H1089 C1134 0.931 . S
H1090 C1136 0.930 . S
H1091 C1137 0.929 . S
O1092 H1066 0.856 . S
O1092 C1138 1.300 . S
O1093 C1138 1.209 . S
O1094 C1139 1.199 1_545 S
O1095 H1067 0.854 . S
O1095 C1139 1.297 . S
C1096 C1097 1.404 . S
C1096 C1101 1.415 . S
C1096 C1102 1.492 . S
C1097 C1096 1.404 . S
C1097 C1098 1.396 . S
C1097 C1108 1.492 . S
C1098 C1097 1.396 . S
C1098 C1099 1.397 . S
C1098 C1114 1.509 . S
C1099 C1098 1.397 . S
C1099 C1100 1.408 . S
C1099 C1120 1.485 . S
C1100 C1099 1.408 . S
C1100 C1101 1.376 . S
C1100 C1126 1.481 1_565 S
C1101 C1096 1.415 . S
C1101 C1100 1.376 . S
C1101 C1132 1.537 1_565 S
C1102 C1096 1.492 . S
C1102 C1103 1.363 1_565 S
C1102 C1107 1.390 . S
C1103 H1068 0.930 . S
C1103 C1102 1.363 1_545 S
C1103 C1104 1.372 . S
C1104 H1069 0.930 . S
C1104 C1103 1.372 . S
C1104 C1105 1.383 . S
C1105 C1104 1.383 . S
C1105 C1106 1.395 1_545 S
C1106 H1070 0.930 . S
C1106 C1105 1.395 1_565 S
C1106 C1107 1.362 . S
C1107 H1071 0.930 . S
C1107 C1102 1.390 . S
C1107 C1106 1.362 . S
C1108 C1097 1.492 . S
C1108 C1109 1.377 1_565 S
C1108 C1113 1.397 . S
C1109 H1072 0.931 . S
C1109 C1108 1.377 1_545 S
C1109 C1110 1.376 . S
C1110 H1073 0.931 . S
C1110 C1109 1.376 . S
C1110 C1111 1.374 1_545 S
C1111 C1110 1.374 1_565 S
C1111 C1112 1.378 . S
C1111 C1138 1.486 . S
C1112 H1074 0.930 . S
C1112 C1111 1.378 . S
C1112 C1113 1.376 . S
C1113 H1075 0.929 . S
C1113 C1108 1.397 . S
C1113 C1112 1.376 . S
C1114 C1098 1.509 . S
C1114 C1115 1.391 1_565 S
C1114 C1119 1.386 . S
C1115 H1076 0.930 . S
C1115 C1114 1.391 1_545 S
C1115 C1116 1.372 . S
C1116 H1077 0.951 . S
C1116 C1115 1.372 . S
C1116 C1117 1.359 1_545 S
C1117 C1116 1.359 1_565 S
C1117 C1118 1.361 . S
C1118 H1078 0.930 . S
C1118 C1117 1.361 . S
C1118 C1119 1.399 . S
C1119 H1079 0.929 . S
C1119 C1114 1.386 . S
C1119 C1118 1.399 . S
C1120 C1099 1.485 . S
C1120 C1121 1.394 1_565 S
C1120 C1125 1.360 . S
C1121 H1080 0.931 . S
C1121 C1120 1.394 1_545 S
C1121 C1122 1.372 . S
C1122 H1081 0.930 . S
C1122 C1121 1.372 . S
C1122 C1123 1.397 1_545 S
C1123 C1122 1.397 1_565 S
C1123 C1124 1.390 . S
C1123 C1139 1.476 . S
C1124 H1082 0.930 . S
C1124 C1123 1.390 . S
C1124 C1125 1.366 . S
C1125 H1083 0.932 . S
C1125 C1120 1.360 . S
C1125 C1124 1.366 . S
C1126 C1100 1.481 1_545 S
C1126 C1127 1.380 . S
C1126 C1131 1.386 1_545 S
C1127 H1084 0.930 . S
C1127 C1126 1.380 . S
C1127 C1128 1.381 . S
C1128 H1085 0.929 . S
C1128 C1127 1.381 . S
C1128 C1129 1.371 . S
C1129 C1128 1.371 . S
C1129 C1130 1.380 1_545 S
C1130 H1086 0.931 . S
C1130 C1129 1.380 1_565 S
C1130 C1131 1.387 . S
C1131 H1087 0.930 . S
C1131 C1126 1.386 1_565 S
C1131 C1130 1.387 . S
C1132 C1101 1.537 1_545 S
C1132 C1133 1.381 . S
C1132 C1137 1.353 1_545 S
C1133 H1088 0.929 . S
C1133 C1132 1.381 . S
C1133 C1134 1.386 . S
C1134 H1089 0.931 . S
C1134 C1133 1.386 . S
C1134 C1135 1.351 1_545 S
C1135 C1134 1.351 1_565 S
C1135 C1136 1.392 . S
C1136 H1090 0.930 . S
C1136 C1135 1.392 . S
C1136 C1137 1.396 . S
C1137 H1091 0.929 . S
C1137 C1132 1.353 1_565 S
C1137 C1136 1.396 . S
C1138 O1092 1.300 . S
C1138 O1093 1.209 . S
C1138 C1111 1.486 . S
C1139 O1094 1.199 1_565 S
C1139 O1095 1.297 . S
C1139 C1123 1.476 . S
H1140 O1166 0.856 . S
H1141 O1169 0.854 . S
H1142 C1177 0.930 . S
H1143 C1178 0.930 . S
H1144 C1180 0.930 . S
H1145 C1181 0.930 . S
H1146 C1183 0.931 . S
H1147 C1184 0.930 . S
H1148 C1186 0.930 . S
H1149 C1187 0.929 . S
H1150 C1189 0.930 . S
H1151 C1190 0.931 . S
H1152 C1192 0.930 . S
H1153 C1193 0.929 . S
H1154 C1195 0.931 . S
H1155 C1196 0.930 . S
H1156 C1198 0.930 . S
H1157 C1199 0.932 . S
H1158 C1201 0.930 . S
H1159 C1202 0.929 . S
H1160 C1204 0.931 . S
H1161 C1205 0.930 . S
H1162 C1207 0.929 . S
H1163 C1208 0.931 . S
H1164 C1210 0.930 . S
H1165 C1211 0.929 . S
O1166 H1140 0.856 . S
O1166 C1212 1.300 . S
O1167 C1212 1.209 1_565 S
O1168 C1213 1.199 1_545 S
O1169 H1141 0.854 . S
O1169 C1213 1.297 . S
C1170 C1171 1.383 . S
C1170 C1175 1.380 1_545 S
C1170 C1176 1.538 . S
C1171 C1170 1.383 . S
C1171 C1172 1.421 . S
C1171 C1182 1.492 . S
C1172 C1171 1.421 . S
C1172 C1173 1.385 1_545 S
C1172 C1188 1.502 . S
C1173 C1172 1.385 1_565 S
C1173 C1174 1.414 . S
C1173 C1194 1.491 . S
C1174 C1173 1.414 . S
C1174 C1175 1.378 . S
C1174 C1200 1.494 . S
C1175 C1170 1.380 1_565 S
C1175 C1174 1.378 . S
C1175 C1206 1.519 . S
C1176 C1170 1.538 . S
C1176 C1177 1.363 . S
C1176 C1181 1.390 1_545 S
C1177 H1142 0.930 . S
C1177 C1176 1.363 . S
C1177 C1178 1.372 . S
C1178 H1143 0.930 . S
C1178 C1177 1.372 . S
C1178 C1179 1.383 . S
C1179 C1178 1.383 . S
C1179 C1180 1.395 1_545 S
C1180 H1144 0.930 . S
C1180 C1179 1.395 1_565 S
C1180 C1181 1.362 . S
C1181 H1145 0.930 . S
C1181 C1176 1.390 1_565 S
C1181 C1180 1.362 . S
C1182 C1171 1.492 . S
C1182 C1183 1.377 . S
C1182 C1187 1.397 1_545 S
C1183 H1146 0.931 . S
C1183 C1182 1.377 . S
C1183 C1184 1.376 . S
C1184 H1147 0.930 . S
C1184 C1183 1.376 . S
C1184 C1185 1.376 . S
C1185 C1184 1.376 . S
C1185 C1186 1.378 1_545 S
C1185 C1212 1.486 . S
C1186 H1148 0.930 . S
C1186 C1185 1.378 1_565 S
C1186 C1187 1.376 . S
C1187 H1149 0.929 . S
C1187 C1182 1.397 1_565 S
C1187 C1186 1.376 . S
C1188 C1172 1.502 . S
C1188 C1189 1.402 . S
C1188 C1193 1.369 1_545 S
C1189 H1150 0.930 . S
C1189 C1188 1.402 . S
C1189 C1190 1.375 . S
C1190 H1151 0.931 . S
C1190 C1189 1.375 . S
C1190 C1191 1.371 1_545 S
C1191 C1190 1.371 1_565 S
C1191 C1192 1.364 . S
C1192 H1152 0.930 . S
C1192 C1191 1.364 . S
C1192 C1193 1.399 . S
C1193 H1153 0.929 . S
C1193 C1188 1.369 1_565 S
C1193 C1192 1.399 . S
C1194 C1173 1.491 . S
C1194 C1195 1.394 1_565 S
C1194 C1199 1.360 . S
C1195 H1154 0.931 . S
C1195 C1194 1.394 1_545 S
C1195 C1196 1.372 . S
C1196 H1155 0.930 . S
C1196 C1195 1.372 . S
C1196 C1197 1.397 1_545 S
C1197 C1196 1.397 1_565 S
C1197 C1198 1.390 . S
C1197 C1213 1.476 . S
C1198 H1156 0.930 . S
C1198 C1197 1.390 . S
C1198 C1199 1.366 . S
C1199 H1157 0.932 . S
C1199 C1194 1.360 . S
C1199 C1198 1.366 . S
C1200 C1174 1.494 . S
C1200 C1201 1.379 1_565 S
C1200 C1205 1.387 . S
C1201 H1158 0.930 . S
C1201 C1200 1.379 1_545 S
C1201 C1202 1.381 . S
C1202 H1159 0.929 . S
C1202 C1201 1.381 . S
C1202 C1203 1.371 . S
C1203 C1202 1.371 . S
C1203 C1204 1.380 1_545 S
C1204 H1160 0.931 . S
C1204 C1203 1.380 1_565 S
C1204 C1205 1.387 . S
C1205 H1161 0.930 . S
C1205 C1200 1.387 . S
C1205 C1204 1.387 . S
C1206 C1175 1.519 . S
C1206 C1207 1.377 1_565 S
C1206 C1211 1.361 . S
C1207 H1162 0.929 . S
C1207 C1206 1.377 1_545 S
C1207 C1208 1.386 . S
C1208 H1163 0.931 . S
C1208 C1207 1.386 . S
C1208 C1209 1.363 1_545 S
C1209 C1208 1.363 1_565 S
C1209 C1210 1.385 . S
C1210 H1164 0.930 . S
C1210 C1209 1.385 . S
C1210 C1211 1.396 . S
C1211 H1165 0.929 . S
C1211 C1206 1.361 . S
C1211 C1210 1.396 . S
C1212 O1166 1.300 . S
C1212 O1167 1.209 1_545 S
C1212 C1185 1.486 . S
C1213 O1168 1.199 1_565 S
C1213 O1169 1.297 . S
C1213 C1197 1.476 . S
H1214 O1240 0.856 . S
H1215 O1243 0.854 . S
H1216 C1251 0.930 . S
H1217 C1252 0.930 . S
H1218 C1254 0.930 . S
H1219 C1255 0.930 . S
H1220 C1257 0.931 . S
H1221 C1258 0.930 . S
H1222 C1260 0.930 . S
H1223 C1261 0.929 . S
H1224 C1263 0.930 . S
H1225 C1264 0.931 . S
H1226 C1266 0.930 . S
H1227 C1267 0.929 . S
H1228 C1269 0.931 . S
H1229 C1270 0.930 . S
H1230 C1272 0.930 . S
H1231 C1273 0.932 . S
H1232 C1275 0.930 . S
H1233 C1276 0.929 . S
H1234 C1278 0.931 . S
H1235 C1279 0.930 . S
H1236 C1281 0.929 . S
H1237 C1282 0.931 . S
H1238 C1284 0.930 . S
H1239 C1285 0.929 . S
O1240 H1214 0.856 . S
O1240 C1286 1.300 . S
O1241 C1286 1.209 1_455 S
O1242 C1287 1.199 1_655 S
O1243 H1215 0.854 . S
O1243 C1287 1.297 . S
C1244 C1245 1.404 . S
C1244 C1249 1.396 1_655 S
C1244 C1250 1.492 . S
C1245 C1244 1.404 . S
C1245 C1246 1.396 . S
C1245 C1256 1.492 . S
C1246 C1245 1.396 . S
C1246 C1247 1.397 . S
C1246 C1262 1.509 . S
C1247 C1246 1.397 . S
C1247 C1248 1.400 1_655 S
C1247 C1268 1.522 1_655 S
C1248 C1247 1.400 1_455 S
C1248 C1249 1.411 . S
C1248 C1274 1.485 . S
C1249 C1244 1.396 1_455 S
C1249 C1248 1.411 . S
C1249 C1280 1.515 . S
C1250 C1244 1.492 . S
C1250 C1251 1.363 . S
C1250 C1255 1.390 1_655 S
C1251 H1216 0.930 . S
C1251 C1250 1.363 . S
C1251 C1252 1.372 . S
C1252 H1217 0.930 . S
C1252 C1251 1.372 . S
C1252 C1253 1.383 . S
C1253 C1252 1.383 . S
C1253 C1254 1.395 1_655 S
C1254 H1218 0.930 . S
C1254 C1253 1.395 1_455 S
C1254 C1255 1.362 . S
C1255 H1219 0.930 . S
C1255 C1250 1.390 1_455 S
C1255 C1254 1.362 . S
C1256 C1245 1.492 . S
C1256 C1257 1.377 . S
C1256 C1261 1.397 1_655 S
C1257 H1220 0.931 . S
C1257 C1256 1.377 . S
C1257 C1258 1.376 . S
C1258 H1221 0.930 . S
C1258 C1257 1.376 . S
C1258 C1259 1.376 . S
C1259 C1258 1.376 . S
C1259 C1260 1.378 1_655 S
C1259 C1286 1.486 . S
C1260 H1222 0.930 . S
C1260 C1259 1.378 1_455 S
C1260 C1261 1.376 . S
C1261 H1223 0.929 . S
C1261 C1256 1.397 1_455 S
C1261 C1260 1.376 . S
C1262 C1246 1.509 . S
C1262 C1263 1.391 . S
C1262 C1267 1.386 1_655 S
C1263 H1224 0.930 . S
C1263 C1262 1.391 . S
C1263 C1264 1.375 . S
C1264 H1225 0.931 . S
C1264 C1263 1.375 . S
C1264 C1265 1.375 . S
C1265 C1264 1.375 . S
C1265 C1266 1.361 1_655 S
C1266 H1226 0.930 . S
C1266 C1265 1.361 1_455 S
C1266 C1267 1.399 . S
C1267 H1227 0.929 . S
C1267 C1262 1.386 1_455 S
C1267 C1266 1.399 . S
C1268 C1247 1.522 1_455 S
C1268 C1269 1.330 1_455 S
C1268 C1273 1.391 . S
C1269 H1228 0.931 . S
C1269 C1268 1.330 1_655 S
C1269 C1270 1.372 . S
C1270 H1229 0.930 . S
C1270 C1269 1.372 . S
C1270 C1271 1.397 1_655 S
C1271 C1270 1.397 1_455 S
C1271 C1272 1.390 . S
C1271 C1287 1.476 . S
C1272 H1230 0.930 . S
C1272 C1271 1.390 . S
C1272 C1273 1.366 . S
C1273 H1231 0.932 . S
C1273 C1268 1.391 . S
C1273 C1272 1.366 . S
C1274 C1248 1.485 . S
C1274 C1275 1.380 1_455 S
C1274 C1279 1.386 . S
C1275 H1232 0.930 . S
C1275 C1274 1.380 1_655 S
C1275 C1276 1.381 . S
C1276 H1233 0.929 . S
C1276 C1275 1.381 . S
C1276 C1277 1.371 1_655 S
C1277 C1276 1.371 1_455 S
C1277 C1278 1.380 . S
C1278 H1234 0.931 . S
C1278 C1277 1.380 . S
C1278 C1279 1.387 . S
C1279 H1235 0.930 . S
C1279 C1274 1.386 . S
C1279 C1278 1.387 . S
C1280 C1249 1.515 . S
C1280 C1281 1.377 1_455 S
C1280 C1285 1.361 . S
C1281 H1236 0.929 . S
C1281 C1280 1.377 1_655 S
C1281 C1282 1.386 . S
C1282 H1237 0.931 . S
C1282 C1281 1.386 . S
C1282 C1283 1.363 1_655 S
C1283 C1282 1.363 1_455 S
C1283 C1284 1.385 . S
C1284 H1238 0.930 . S
C1284 C1283 1.385 . S
C1284 C1285 1.396 . S
C1285 H1239 0.929 . S
C1285 C1280 1.361 . S
C1285 C1284 1.396 . S
C1286 O1240 1.300 . S
C1286 O1241 1.209 1_655 S
C1286 C1259 1.486 . S
C1287 O1242 1.199 1_455 S
C1287 O1243 1.297 . S
C1287 C1271 1.476 . S
H1288 O1314 0.856 . S
H1289 O1317 0.854 . S
H1290 C1325 0.930 . S
H1291 C1326 0.930 . S
H1292 C1328 0.930 . S
H1293 C1329 0.930 . S
H1294 C1331 0.931 . S
H1295 C1332 0.930 . S
H1296 C1334 0.930 . S
H1297 C1335 0.929 . S
H1298 C1337 0.930 . S
H1299 C1338 0.931 . S
H1300 C1340 0.930 . S
H1301 C1341 0.929 . S
H1302 C1343 0.931 . S
H1303 C1344 0.930 . S
H1304 C1346 0.930 . S
H1305 C1347 0.932 . S
H1306 C1349 0.930 . S
H1307 C1350 0.929 . S
H1308 C1352 0.931 . S
H1309 C1353 0.930 . S
H1310 C1355 0.929 . S
H1311 C1356 0.931 . S
H1312 C1358 0.930 . S
H1313 C1359 0.929 . S
O1314 H1288 0.856 . S
O1314 C1360 1.300 . S
O1315 C1360 1.209 . S
O1316 C1361 1.199 . S
O1317 H1289 0.854 . S
O1317 C1361 1.297 . S
C1318 C1319 1.404 . S
C1318 C1323 1.397 . S
C1318 C1324 1.492 . S
C1319 C1318 1.404 . S
C1319 C1320 1.396 . S
C1319 C1330 1.492 . S
C1320 C1319 1.396 . S
C1320 C1321 1.397 . S
C1320 C1336 1.509 . S
C1321 C1320 1.397 . S
C1321 C1322 1.412 . S
C1321 C1342 1.485 . S
C1322 C1321 1.412 . S
C1322 C1323 1.388 . S
C1322 C1348 1.490 . S
C1323 C1318 1.397 . S
C1323 C1322 1.388 . S
C1323 C1354 1.519 . S
C1324 C1318 1.492 . S
C1324 C1325 1.363 . S
C1324 C1329 1.390 . S
C1325 H1290 0.930 . S
C1325 C1324 1.363 . S
C1325 C1326 1.372 . S
C1326 H1291 0.930 . S
C1326 C1325 1.372 . S
C1326 C1327 1.383 . S
C1327 C1326 1.383 . S
C1327 C1328 1.395 . S
C1328 H1292 0.930 . S
C1328 C1327 1.395 . S
C1328 C1329 1.362 . S
C1329 H1293 0.930 . S
C1329 C1324 1.390 . S
C1329 C1328 1.362 . S
C1330 C1319 1.492 . S
C1330 C1331 1.377 . S
C1330 C1335 1.397 . S
C1331 H1294 0.931 . S
C1331 C1330 1.377 . S
C1331 C1332 1.376 . S
C1332 H1295 0.930 . S
C1332 C1331 1.376 . S
C1332 C1333 1.376 . S
C1333 C1332 1.376 . S
C1333 C1334 1.378 . S
C1333 C1360 1.486 . S
C1334 H1296 0.930 . S
C1334 C1333 1.378 . S
C1334 C1335 1.376 . S
C1335 H1297 0.929 . S
C1335 C1330 1.397 . S
C1335 C1334 1.376 . S
C1336 C1320 1.509 . S
C1336 C1337 1.391 . S
C1336 C1341 1.386 . S
C1337 H1298 0.930 . S
C1337 C1336 1.391 . S
C1337 C1338 1.375 . S
C1338 H1299 0.931 . S
C1338 C1337 1.375 . S
C1338 C1339 1.375 . S
C1339 C1338 1.375 . S
C1339 C1340 1.361 . S
C1340 H1300 0.930 . S
C1340 C1339 1.361 . S
C1340 C1341 1.399 . S
C1341 H1301 0.929 . S
C1341 C1336 1.386 . S
C1341 C1340 1.399 . S
C1342 C1321 1.485 . S
C1342 C1343 1.394 . S
C1342 C1347 1.360 . S
C1343 H1302 0.931 . S
C1343 C1342 1.394 . S
C1343 C1344 1.372 . S
C1344 H1303 0.930 . S
C1344 C1343 1.372 . S
C1344 C1345 1.397 . S
C1345 C1344 1.397 . S
C1345 C1346 1.390 . S
C1345 C1361 1.476 . S
C1346 H1304 0.930 . S
C1346 C1345 1.390 . S
C1346 C1347 1.366 . S
C1347 H1305 0.932 . S
C1347 C1342 1.360 . S
C1347 C1346 1.366 . S
C1348 C1322 1.490 . S
C1348 C1349 1.380 . S
C1348 C1353 1.386 . S
C1349 H1306 0.930 . S
C1349 C1348 1.380 . S
C1349 C1350 1.381 . S
C1350 H1307 0.929 . S
C1350 C1349 1.381 . S
C1350 C1351 1.371 . S
C1351 C1350 1.371 . S
C1351 C1352 1.380 . S
C1352 H1308 0.931 . S
C1352 C1351 1.380 . S
C1352 C1353 1.387 . S
C1353 H1309 0.930 . S
C1353 C1348 1.386 . S
C1353 C1352 1.387 . S
C1354 C1323 1.519 . S
C1354 C1355 1.377 . S
C1354 C1359 1.361 . S
C1355 H1310 0.929 . S
C1355 C1354 1.377 . S
C1355 C1356 1.386 . S
C1356 H1311 0.931 . S
C1356 C1355 1.386 . S
C1356 C1357 1.363 . S
C1357 C1356 1.363 . S
C1357 C1358 1.385 . S
C1358 H1312 0.930 . S
C1358 C1357 1.385 . S
C1358 C1359 1.396 . S
C1359 H1313 0.929 . S
C1359 C1354 1.361 . S
C1359 C1358 1.396 . S
C1360 O1314 1.300 . S
C1360 O1315 1.209 . S
C1360 C1333 1.486 . S
C1361 O1316 1.199 . S
C1361 O1317 1.297 . S
C1361 C1345 1.476 . S
H1362 O1388 0.856 . S
H1363 O1391 0.854 . S
H1364 C1399 0.930 . S
H1365 C1400 0.930 . S
H1366 C1402 0.930 . S
H1367 C1403 0.930 . S
H1368 C1405 0.931 . S
H1369 C1406 0.930 . S
H1370 C1408 0.930 . S
H1371 C1409 0.929 . S
H1372 C1411 0.930 . S
H1373 C1412 0.931 . S
H1374 C1414 0.930 . S
H1375 C1415 0.929 . S
H1376 C1417 0.931 . S
H1377 C1418 0.930 . S
H1378 C1420 0.930 . S
H1379 C1421 0.932 . S
H1380 C1423 0.930 . S
H1381 C1424 0.929 . S
H1382 C1426 0.931 . S
H1383 C1427 0.930 . S
H1384 C1429 0.929 . S
H1385 C1430 0.931 . S
H1386 C1432 0.930 . S
H1387 C1433 0.929 . S
O1388 H1362 0.856 . S
O1388 C1434 1.300 . S
O1389 C1434 1.209 . S
O1390 C1435 1.199 . S
O1391 H1363 0.854 . S
O1391 C1435 1.297 . S
C1392 C1393 1.404 . S
C1392 C1397 1.397 . S
C1392 C1398 1.492 . S
C1393 C1392 1.404 . S
C1393 C1394 1.396 . S
C1393 C1404 1.492 . S
C1394 C1393 1.396 . S
C1394 C1395 1.397 . S
C1394 C1410 1.509 . S
C1395 C1394 1.397 . S
C1395 C1396 1.412 . S
C1395 C1416 1.485 . S
C1396 C1395 1.412 . S
C1396 C1397 1.388 . S
C1396 C1422 1.490 . S
C1397 C1392 1.397 . S
C1397 C1396 1.388 . S
C1397 C1428 1.519 . S
C1398 C1392 1.492 . S
C1398 C1399 1.363 . S
C1398 C1403 1.390 . S
C1399 H1364 0.930 . S
C1399 C1398 1.363 . S
C1399 C1400 1.372 . S
C1400 H1365 0.930 . S
C1400 C1399 1.372 . S
C1400 C1401 1.383 . S
C1401 C1400 1.383 . S
C1401 C1402 1.395 . S
C1402 H1366 0.930 . S
C1402 C1401 1.395 . S
C1402 C1403 1.362 . S
C1403 H1367 0.930 . S
C1403 C1398 1.390 . S
C1403 C1402 1.362 . S
C1404 C1393 1.492 . S
C1404 C1405 1.377 . S
C1404 C1409 1.397 . S
C1405 H1368 0.931 . S
C1405 C1404 1.377 . S
C1405 C1406 1.376 . S
C1406 H1369 0.930 . S
C1406 C1405 1.376 . S
C1406 C1407 1.376 . S
C1407 C1406 1.376 . S
C1407 C1408 1.378 . S
C1407 C1434 1.486 . S
C1408 H1370 0.930 . S
C1408 C1407 1.378 . S
C1408 C1409 1.376 . S
C1409 H1371 0.929 . S
C1409 C1404 1.397 . S
C1409 C1408 1.376 . S
C1410 C1394 1.509 . S
C1410 C1411 1.391 . S
C1410 C1415 1.386 . S
C1411 H1372 0.930 . S
C1411 C1410 1.391 . S
C1411 C1412 1.375 . S
C1412 H1373 0.931 . S
C1412 C1411 1.375 . S
C1412 C1413 1.375 . S
C1413 C1412 1.375 . S
C1413 C1414 1.361 . S
C1414 H1374 0.930 . S
C1414 C1413 1.361 . S
C1414 C1415 1.399 . S
C1415 H1375 0.929 . S
C1415 C1410 1.386 . S
C1415 C1414 1.399 . S
C1416 C1395 1.485 . S
C1416 C1417 1.394 . S
C1416 C1421 1.360 . S
C1417 H1376 0.931 . S
C1417 C1416 1.394 . S
C1417 C1418 1.372 . S
C1418 H1377 0.930 . S
C1418 C1417 1.372 . S
C1418 C1419 1.397 . S
C1419 C1418 1.397 . S
C1419 C1420 1.390 . S
C1419 C1435 1.476 . S
C1420 H1378 0.930 . S
C1420 C1419 1.390 . S
C1420 C1421 1.366 . S
C1421 H1379 0.932 . S
C1421 C1416 1.360 . S
C1421 C1420 1.366 . S
C1422 C1396 1.490 . S
C1422 C1423 1.380 . S
C1422 C1427 1.386 . S
C1423 H1380 0.930 . S
C1423 C1422 1.380 . S
C1423 C1424 1.381 . S
C1424 H1381 0.929 . S
C1424 C1423 1.381 . S
C1424 C1425 1.371 . S
C1425 C1424 1.371 . S
C1425 C1426 1.380 . S
C1426 H1382 0.931 . S
C1426 C1425 1.380 . S
C1426 C1427 1.387 . S
C1427 H1383 0.930 . S
C1427 C1422 1.386 . S
C1427 C1426 1.387 . S
C1428 C1397 1.519 . S
C1428 C1429 1.377 . S
C1428 C1433 1.361 . S
C1429 H1384 0.929 . S
C1429 C1428 1.377 . S
C1429 C1430 1.386 . S
C1430 H1385 0.931 . S
C1430 C1429 1.386 . S
C1430 C1431 1.363 . S
C1431 C1430 1.363 . S
C1431 C1432 1.385 . S
C1432 H1386 0.930 . S
C1432 C1431 1.385 . S
C1432 C1433 1.396 . S
C1433 H1387 0.929 . S
C1433 C1428 1.361 . S
C1433 C1432 1.396 . S
C1434 O1388 1.300 . S
C1434 O1389 1.209 . S
C1434 C1407 1.486 . S
C1435 O1390 1.199 . S
C1435 O1391 1.297 . S
C1435 C1419 1.476 . S
H1436 O1462 0.856 . S
H1437 O1465 0.854 . S
H1438 C1473 0.930 . S
H1439 C1474 0.930 . S
H1440 C1476 0.930 . S
H1441 C1477 0.930 . S
H1442 C1479 0.931 . S
H1443 C1480 0.930 . S
H1444 C1482 0.930 . S
H1445 C1483 0.929 . S
H1446 C1485 0.930 . S
H1447 C1486 0.931 . S
H1448 C1488 0.930 . S
H1449 C1489 0.929 . S
H1450 C1491 0.931 . S
H1451 C1492 0.930 . S
H1452 C1494 0.930 . S
H1453 C1495 0.932 . S
H1454 C1497 0.930 . S
H1455 C1498 0.929 . S
H1456 C1500 0.931 . S
H1457 C1501 0.930 . S
H1458 C1503 0.929 . S
H1459 C1504 0.931 . S
H1460 C1506 0.930 . S
H1461 C1507 0.929 . S
O1462 H1436 0.856 . S
O1462 C1508 1.300 . S
O1463 C1508 1.209 . S
O1464 C1509 1.199 . S
O1465 H1437 0.854 . S
O1465 C1509 1.297 . S
C1466 C1467 1.404 . S
C1466 C1471 1.397 . S
C1466 C1472 1.492 . S
C1467 C1466 1.404 . S
C1467 C1468 1.396 . S
C1467 C1478 1.492 . S
C1468 C1467 1.396 . S
C1468 C1469 1.397 . S
C1468 C1484 1.509 . S
C1469 C1468 1.397 . S
C1469 C1470 1.412 . S
C1469 C1490 1.485 . S
C1470 C1469 1.412 . S
C1470 C1471 1.388 . S
C1470 C1496 1.490 . S
C1471 C1466 1.397 . S
C1471 C1470 1.388 . S
C1471 C1502 1.519 . S
C1472 C1466 1.492 . S
C1472 C1473 1.363 . S
C1472 C1477 1.390 . S
C1473 H1438 0.930 . S
C1473 C1472 1.363 . S
C1473 C1474 1.372 . S
C1474 H1439 0.930 . S
C1474 C1473 1.372 . S
C1474 C1475 1.383 . S
C1475 C1474 1.383 . S
C1475 C1476 1.395 . S
C1476 H1440 0.930 . S
C1476 C1475 1.395 . S
C1476 C1477 1.362 . S
C1477 H1441 0.930 . S
C1477 C1472 1.390 . S
C1477 C1476 1.362 . S
C1478 C1467 1.492 . S
C1478 C1479 1.377 . S
C1478 C1483 1.397 . S
C1479 H1442 0.931 . S
C1479 C1478 1.377 . S
C1479 C1480 1.376 . S
C1480 H1443 0.930 . S
C1480 C1479 1.376 . S
C1480 C1481 1.376 . S
C1481 C1480 1.376 . S
C1481 C1482 1.378 . S
C1481 C1508 1.486 . S
C1482 H1444 0.930 . S
C1482 C1481 1.378 . S
C1482 C1483 1.376 . S
C1483 H1445 0.929 . S
C1483 C1478 1.397 . S
C1483 C1482 1.376 . S
C1484 C1468 1.509 . S
C1484 C1485 1.391 . S
C1484 C1489 1.386 . S
C1485 H1446 0.930 . S
C1485 C1484 1.391 . S
C1485 C1486 1.375 . S
C1486 H1447 0.931 . S
C1486 C1485 1.375 . S
C1486 C1487 1.375 . S
C1487 C1486 1.375 . S
C1487 C1488 1.361 . S
C1488 H1448 0.930 . S
C1488 C1487 1.361 . S
C1488 C1489 1.399 . S
C1489 H1449 0.929 . S
C1489 C1484 1.386 . S
C1489 C1488 1.399 . S
C1490 C1469 1.485 . S
C1490 C1491 1.394 . S
C1490 C1495 1.360 . S
C1491 H1450 0.931 . S
C1491 C1490 1.394 . S
C1491 C1492 1.372 . S
C1492 H1451 0.930 . S
C1492 C1491 1.372 . S
C1492 C1493 1.397 . S
C1493 C1492 1.397 . S
C1493 C1494 1.390 . S
C1493 C1509 1.476 . S
C1494 H1452 0.930 . S
C1494 C1493 1.390 . S
C1494 C1495 1.366 . S
C1495 H1453 0.932 . S
C1495 C1490 1.360 . S
C1495 C1494 1.366 . S
C1496 C1470 1.490 . S
C1496 C1497 1.380 . S
C1496 C1501 1.386 . S
C1497 H1454 0.930 . S
C1497 C1496 1.380 . S
C1497 C1498 1.381 . S
C1498 H1455 0.929 . S
C1498 C1497 1.381 . S
C1498 C1499 1.371 . S
C1499 C1498 1.371 . S
C1499 C1500 1.380 . S
C1500 H1456 0.931 . S
C1500 C1499 1.380 . S
C1500 C1501 1.387 . S
C1501 H1457 0.930 . S
C1501 C1496 1.386 . S
C1501 C1500 1.387 . S
C1502 C1471 1.519 . S
C1502 C1503 1.377 . S
C1502 C1507 1.361 . S
C1503 H1458 0.929 . S
C1503 C1502 1.377 . S
C1503 C1504 1.386 . S
C1504 H1459 0.931 . S
C1504 C1503 1.386 . S
C1504 C1505 1.363 . S
C1505 C1504 1.363 . S
C1505 C1506 1.385 . S
C1506 H1460 0.930 . S
C1506 C1505 1.385 . S
C1506 C1507 1.396 . S
C1507 H1461 0.929 . S
C1507 C1502 1.361 . S
C1507 C1506 1.396 . S
C1508 O1462 1.300 . S
C1508 O1463 1.209 . S
C1508 C1481 1.486 . S
C1509 O1464 1.199 . S
C1509 O1465 1.297 . S
C1509 C1493 1.476 . S
H1510 O1536 0.856 . S
H1511 O1539 0.854 . S
H1512 C1547 0.930 . S
H1513 C1548 0.930 . S
H1514 C1550 0.930 . S
H1515 C1551 0.930 . S
H1516 C1553 0.931 . S
H1517 C1554 0.930 . S
H1518 C1556 0.930 . S
H1519 C1557 0.929 . S
H1520 C1559 0.930 . S
H1521 C1560 0.931 . S
H1522 C1562 0.930 . S
H1523 C1563 0.929 . S
H1524 C1565 0.931 . S
H1525 C1566 0.930 . S
H1526 C1568 0.930 . S
H1527 C1569 0.932 . S
H1528 C1571 0.930 . S
H1529 C1572 0.929 . S
H1530 C1574 0.931 . S
H1531 C1575 0.930 . S
H1532 C1577 0.929 . S
H1533 C1578 0.931 . S
H1534 C1580 0.930 . S
H1535 C1581 0.929 . S
O1536 H1510 0.856 . S
O1536 C1582 1.300 . S
O1537 C1582 1.209 . S
O1538 C1583 1.199 . S
O1539 H1511 0.854 . S
O1539 C1583 1.297 . S
C1540 C1541 1.404 . S
C1540 C1545 1.397 . S
C1540 C1546 1.492 . S
C1541 C1540 1.404 . S
C1541 C1542 1.396 . S
C1541 C1552 1.492 . S
C1542 C1541 1.396 . S
C1542 C1543 1.397 . S
C1542 C1558 1.509 . S
C1543 C1542 1.397 . S
C1543 C1544 1.412 . S
C1543 C1564 1.485 . S
C1544 C1543 1.412 . S
C1544 C1545 1.388 . S
C1544 C1570 1.490 . S
C1545 C1540 1.397 . S
C1545 C1544 1.388 . S
C1545 C1576 1.519 . S
C1546 C1540 1.492 . S
C1546 C1547 1.363 . S
C1546 C1551 1.390 . S
C1547 H1512 0.930 . S
C1547 C1546 1.363 . S
C1547 C1548 1.372 . S
C1548 H1513 0.930 . S
C1548 C1547 1.372 . S
C1548 C1549 1.383 . S
C1549 C1548 1.383 . S
C1549 C1550 1.395 . S
C1550 H1514 0.930 . S
C1550 C1549 1.395 . S
C1550 C1551 1.362 . S
C1551 H1515 0.930 . S
C1551 C1546 1.390 . S
C1551 C1550 1.362 . S
C1552 C1541 1.492 . S
C1552 C1553 1.377 . S
C1552 C1557 1.397 . S
C1553 H1516 0.931 . S
C1553 C1552 1.377 . S
C1553 C1554 1.376 . S
C1554 H1517 0.930 . S
C1554 C1553 1.376 . S
C1554 C1555 1.376 . S
C1555 C1554 1.376 . S
C1555 C1556 1.378 . S
C1555 C1582 1.486 . S
C1556 H1518 0.930 . S
C1556 C1555 1.378 . S
C1556 C1557 1.376 . S
C1557 H1519 0.929 . S
C1557 C1552 1.397 . S
C1557 C1556 1.376 . S
C1558 C1542 1.509 . S
C1558 C1559 1.391 . S
C1558 C1563 1.386 . S
C1559 H1520 0.930 . S
C1559 C1558 1.391 . S
C1559 C1560 1.375 . S
C1560 H1521 0.931 . S
C1560 C1559 1.375 . S
C1560 C1561 1.375 . S
C1561 C1560 1.375 . S
C1561 C1562 1.361 . S
C1562 H1522 0.930 . S
C1562 C1561 1.361 . S
C1562 C1563 1.399 . S
C1563 H1523 0.929 . S
C1563 C1558 1.386 . S
C1563 C1562 1.399 . S
C1564 C1543 1.485 . S
C1564 C1565 1.394 . S
C1564 C1569 1.360 . S
C1565 H1524 0.931 . S
C1565 C1564 1.394 . S
C1565 C1566 1.372 . S
C1566 H1525 0.930 . S
C1566 C1565 1.372 . S
C1566 C1567 1.397 . S
C1567 C1566 1.397 . S
C1567 C1568 1.390 . S
C1567 C1583 1.476 . S
C1568 H1526 0.930 . S
C1568 C1567 1.390 . S
C1568 C1569 1.366 . S
C1569 H1527 0.932 . S
C1569 C1564 1.360 . S
C1569 C1568 1.366 . S
C1570 C1544 1.490 . S
C1570 C1571 1.380 . S
C1570 C1575 1.386 . S
C1571 H1528 0.930 . S
C1571 C1570 1.380 . S
C1571 C1572 1.381 . S
C1572 H1529 0.929 . S
C1572 C1571 1.381 . S
C1572 C1573 1.371 . S
C1573 C1572 1.371 . S
C1573 C1574 1.380 . S
C1574 H1530 0.931 . S
C1574 C1573 1.380 . S
C1574 C1575 1.387 . S
C1575 H1531 0.930 . S
C1575 C1570 1.386 . S
C1575 C1574 1.387 . S
C1576 C1545 1.519 . S
C1576 C1577 1.377 . S
C1576 C1581 1.361 . S
C1577 H1532 0.929 . S
C1577 C1576 1.377 . S
C1577 C1578 1.386 . S
C1578 H1533 0.931 . S
C1578 C1577 1.386 . S
C1578 C1579 1.363 . S
C1579 C1578 1.363 . S
C1579 C1580 1.385 . S
C1580 H1534 0.930 . S
C1580 C1579 1.385 . S
C1580 C1581 1.396 . S
C1581 H1535 0.929 . S
C1581 C1576 1.361 . S
C1581 C1580 1.396 . S
C1582 O1536 1.300 . S
C1582 O1537 1.209 . S
C1582 C1555 1.486 . S
C1583 O1538 1.199 . S
C1583 O1539 1.297 . S
C1583 C1567 1.476 . S
C1584 C1585 1.333 1_655 S
C1584 C1586 1.383 . S
C1584 H1600 0.951 . S
C1585 C1584 1.333 1_455 S
C1585 C1589 1.413 . S
C1586 C1584 1.383 . S
C1586 C1587 1.402 . S
C1586 H1601 0.951 . S
C1587 C1586 1.402 . S
C1587 C1588 1.375 1_655 S
C1587 C1590 1.481 . S
C1588 C1587 1.375 1_455 S
C1588 C1589 1.367 . S
C1588 H1602 0.951 . S
C1589 C1585 1.413 . S
C1589 C1588 1.367 . S
C1589 H1603 0.950 . S
C1590 C1587 1.481 . S
C1590 C1591 1.297 . S
C1590 H1604 0.950 1_655 S
C1591 C1590 1.297 . S
C1591 C1592 1.479 . S
C1591 H1605 0.950 . S
C1592 C1591 1.479 . S
C1592 C1593 1.375 . S
C1592 C1598 1.404 . S
C1593 C1592 1.375 . S
C1593 C1594 1.369 . S
C1593 H1606 0.950 . S
C1594 C1593 1.369 . S
C1594 C1595 1.392 . S
C1594 H1607 0.951 . S
C1595 C1594 1.392 . S
C1595 C1597 1.384 . S
H1596 C1598 0.949 1_455 S
C1597 C1595 1.384 . S
C1597 C1598 1.385 . S
C1597 H1599 0.950 1_655 S
C1598 C1592 1.404 . S
C1598 H1596 0.949 1_655 S
C1598 C1597 1.385 . S
H1599 C1597 0.950 1_455 S
H1600 C1584 0.951 . S
H1601 C1586 0.951 . S
H1602 C1588 0.951 . S
H1603 C1589 0.950 . S
H1604 C1590 0.950 1_455 S
H1605 C1591 0.950 . S
H1606 C1593 0.950 . S
H1607 C1594 0.951 . S
C1608 C1609 1.386 . S
C1608 C1610 1.383 . S
C1608 H1624 0.951 . S
C1609 C1608 1.386 . S
C1609 C1613 1.383 . S
C1610 C1608 1.383 . S
C1610 C1611 1.402 . S
C1610 H1625 0.951 . S
C1611 C1610 1.402 . S
C1611 C1612 1.375 . S
C1611 C1614 1.481 . S
C1612 C1611 1.375 . S
C1612 C1613 1.367 . S
C1612 H1626 0.951 . S
C1613 C1609 1.383 . S
C1613 C1612 1.367 . S
C1613 H1627 0.950 . S
C1614 C1611 1.481 . S
C1614 C1615 1.297 . S
C1614 H1628 0.950 . S
C1615 C1614 1.297 . S
C1615 C1616 1.479 . S
C1615 H1629 0.950 . S
C1616 C1615 1.479 . S
C1616 C1617 1.375 . S
C1616 C1622 1.404 . S
C1617 C1616 1.375 . S
C1617 C1618 1.369 . S
C1617 H1630 0.950 . S
C1618 C1617 1.369 . S
C1618 C1619 1.392 . S
C1618 H1631 0.951 . S
C1619 C1618 1.392 . S
C1619 C1621 1.384 . S
H1620 C1622 0.949 . S
C1621 C1619 1.384 . S
C1621 C1622 1.385 . S
C1621 H1623 0.950 . S
C1622 C1616 1.404 . S
C1622 H1620 0.949 . S
C1622 C1621 1.385 . S
H1623 C1621 0.950 . S
H1624 C1608 0.951 . S
H1625 C1610 0.951 . S
H1626 C1612 0.951 . S
H1627 C1613 0.950 . S
H1628 C1614 0.950 . S
H1629 C1615 0.950 . S
H1630 C1617 0.950 . S
H1631 C1618 0.951 . S
C1632 C1633 1.386 . S
C1632 C1634 1.383 . S
C1632 H1648 0.951 . S
C1633 C1632 1.386 . S
C1633 C1637 1.383 1_545 S
C1634 C1632 1.383 . S
C1634 C1635 1.402 . S
C1634 H1649 0.951 . S
C1635 C1634 1.402 . S
C1635 C1636 1.375 1_545 S
C1635 C1638 1.481 . S
C1636 C1635 1.375 1_565 S
C1636 C1637 1.367 . S
C1636 H1650 0.951 . S
C1637 C1633 1.383 1_565 S
C1637 C1636 1.367 . S
C1637 H1651 0.950 . S
C1638 C1635 1.481 . S
C1638 C1639 1.297 . S
C1638 H1652 0.950 1_545 S
C1639 C1638 1.297 . S
C1639 C1640 1.479 . S
C1639 H1653 0.950 . S
C1640 C1639 1.479 . S
C1640 C1641 1.375 . S
C1640 C1646 1.404 1_545 S
C1641 C1640 1.375 . S
C1641 C1642 1.369 . S
C1641 H1654 0.950 . S
C1642 C1641 1.369 . S
C1642 C1643 1.392 . S
C1642 H1655 0.951 . S
C1643 C1642 1.392 . S
C1643 C1645 1.384 1_545 S
H1644 C1646 0.949 . S
C1645 C1643 1.384 1_565 S
C1645 C1646 1.385 . S
C1645 H1647 0.950 . S
C1646 C1640 1.404 1_565 S
C1646 H1644 0.949 . S
C1646 C1645 1.385 . S
H1647 C1645 0.950 . S
H1648 C1632 0.951 . S
H1649 C1634 0.951 . S
H1650 C1636 0.951 . S
H1651 C1637 0.950 . S
H1652 C1638 0.950 1_565 S
H1653 C1639 0.950 . S
H1654 C1641 0.950 . S
H1655 C1642 0.951 . S
C1656 C1657 1.386 . S
C1656 C1658 1.383 . S
C1656 H1672 0.951 1_565 S
C1657 C1656 1.386 . S
C1657 C1661 1.383 . S
C1658 C1656 1.383 . S
C1658 C1659 1.402 . S
C1658 H1673 0.950 1_565 S
C1659 C1658 1.402 . S
C1659 C1660 1.375 . S
C1659 C1662 1.481 . S
C1660 C1659 1.375 . S
C1660 C1661 1.367 . S
C1660 H1674 0.951 . S
C1661 C1657 1.383 . S
C1661 C1660 1.367 . S
C1661 H1675 0.950 . S
C1662 C1659 1.481 . S
C1662 C1663 1.297 . S
C1662 H1676 0.950 . S
C1663 C1662 1.297 . S
C1663 C1664 1.479 . S
C1663 H1677 0.950 . S
C1664 C1663 1.479 . S
C1664 C1665 1.375 . S
C1664 C1670 1.404 . S
C1665 C1664 1.375 . S
C1665 C1666 1.369 . S
C1665 H1678 0.950 1_565 S
C1666 C1665 1.369 . S
C1666 C1667 1.392 . S
C1666 H1679 0.951 1_565 S
C1667 C1666 1.392 . S
C1667 C1669 1.384 . S
H1668 C1670 0.949 . S
C1669 C1667 1.384 . S
C1669 C1670 1.385 . S
C1669 H1671 0.950 . S
C1670 C1664 1.404 . S
C1670 H1668 0.949 . S
C1670 C1669 1.385 . S
H1671 C1669 0.950 . S
H1672 C1656 0.951 1_545 S
H1673 C1658 0.950 1_545 S
H1674 C1660 0.951 . S
H1675 C1661 0.950 . S
H1676 C1662 0.950 . S
H1677 C1663 0.950 . S
H1678 C1665 0.950 1_545 S
H1679 C1666 0.951 1_545 S
C1680 C1681 1.386 . S
C1680 C1682 1.383 . S
C1680 H1696 0.951 1_455 S
C1681 C1680 1.386 . S
C1681 C1685 1.383 . S
C1682 C1680 1.383 . S
C1682 C1683 1.402 . S
C1682 H1697 0.951 1_455 S
C1683 C1682 1.402 . S
C1683 C1684 1.375 . S
C1683 C1686 1.481 . S
C1684 C1683 1.375 . S
C1684 C1685 1.367 . S
C1684 H1698 0.951 . S
C1685 C1681 1.383 . S
C1685 C1684 1.367 . S
C1685 H1699 0.950 . S
C1686 C1683 1.481 . S
C1686 C1687 1.297 . S
C1686 H1700 0.950 . S
C1687 C1686 1.297 . S
C1687 C1688 1.479 . S
C1687 H1701 0.955 . S
C1688 C1687 1.479 . S
C1688 C1689 1.375 1_455 S
C1688 C1694 1.404 . S
C1689 C1688 1.375 1_655 S
C1689 C1690 1.369 . S
C1689 H1702 0.950 . S
C1690 C1689 1.369 . S
C1690 C1691 1.392 1_655 S
C1690 H1703 0.951 . S
C1691 C1690 1.392 1_455 S
C1691 C1693 1.384 . S
H1692 C1694 0.949 . S
C1693 C1691 1.384 . S
C1693 C1694 1.385 . S
C1693 H1695 0.950 . S
C1694 C1688 1.404 . S
C1694 H1692 0.949 . S
C1694 C1693 1.385 . S
H1695 C1693 0.950 . S
H1696 C1680 0.951 1_655 S
H1697 C1682 0.951 1_655 S
H1698 C1684 0.951 . S
H1699 C1685 0.950 . S
H1700 C1686 0.950 . S
H1701 C1687 0.955 . S
H1702 C1689 0.950 . S
H1703 C1690 0.951 . S
C1704 C1705 1.386 . S
C1704 C1706 1.383 . S
C1704 H1720 0.951 . S
C1705 C1704 1.386 . S
C1705 C1709 1.383 . S
C1706 C1704 1.383 . S
C1706 C1707 1.402 1_554 S
C1706 H1721 0.951 . S
C1707 C1706 1.402 1_556 S
C1707 C1708 1.375 . S
C1707 C1710 1.481 . S
C1708 C1707 1.375 . S
C1708 C1709 1.367 1_556 S
C1708 H1722 0.951 . S
C1709 C1705 1.383 . S
C1709 C1708 1.367 1_554 S
C1709 H1723 0.950 . S
C1710 C1707 1.481 . S
C1710 C1711 1.297 . S
C1710 H1724 0.950 . S
C1711 C1710 1.297 . S
C1711 C1712 1.479 . S
C1711 H1725 0.950 . S
C1712 C1711 1.479 . S
C1712 C1713 1.375 . S
C1712 C1718 1.404 . S
C1713 C1712 1.375 . S
C1713 C1714 1.369 . S
C1713 H1726 0.950 . S
C1714 C1713 1.369 . S
C1714 C1715 1.392 . S
C1714 H1727 0.951 . S
C1715 C1714 1.392 . S
C1715 C1717 1.384 . S
H1716 C1718 0.949 . S
C1717 C1715 1.384 . S
C1717 C1718 1.385 . S
C1717 H1719 0.950 . S
C1718 C1712 1.404 . S
C1718 H1716 0.949 . S
C1718 C1717 1.385 . S
H1719 C1717 0.950 . S
H1720 C1704 0.951 . S
H1721 C1706 0.951 . S
H1722 C1708 0.951 . S
H1723 C1709 0.950 . S
H1724 C1710 0.950 . S
H1725 C1711 0.950 . S
H1726 C1713 0.950 . S
H1727 C1714 0.951 . S
C1728 C1729 1.386 1_656 S
C1728 C1730 1.415 . S
C1728 H1744 0.951 . S
C1729 C1728 1.386 1_454 S
C1729 C1733 1.383 . S
C1730 C1728 1.415 . S
C1730 C1731 1.335 1_655 S
C1730 H1745 0.988 . S
C1731 C1730 1.335 1_455 S
C1731 C1732 1.415 . S
C1731 C1734 1.481 . S
C1732 C1731 1.415 . S
C1732 C1733 1.328 1_556 S
C1732 H1746 0.952 . S
C1733 C1729 1.383 . S
C1733 C1732 1.328 1_554 S
C1733 H1747 0.950 . S
C1734 C1731 1.481 . S
C1734 C1735 1.297 . S
C1734 H1748 0.950 . S
C1735 C1734 1.297 . S
C1735 C1736 1.479 . S
C1735 H1749 0.950 1_455 S
C1736 C1735 1.479 . S
C1736 C1737 1.375 1_455 S
C1736 C1742 1.404 . S
C1737 C1736 1.375 1_655 S
C1737 C1738 1.369 . S
C1737 H1750 0.950 . S
C1738 C1737 1.369 . S
C1738 C1739 1.392 1_655 S
C1738 H1751 0.951 . S
C1739 C1738 1.392 1_455 S
C1739 C1741 1.384 . S
H1740 C1742 0.949 . S
C1741 C1739 1.384 . S
C1741 C1742 1.385 . S
C1741 H1743 0.950 . S
C1742 C1736 1.404 . S
C1742 H1740 0.949 . S
C1742 C1741 1.385 . S
H1743 C1741 0.950 . S
H1744 C1728 0.951 . S
H1745 C1730 0.988 . S
H1746 C1732 0.952 . S
H1747 C1733 0.950 . S
H1748 C1734 0.950 . S
H1749 C1735 0.950 1_655 S
H1750 C1737 0.950 . S
H1751 C1738 0.951 . S
C1752 C1753 1.386 . S
C1752 C1754 1.383 . S
C1752 H1768 0.951 . S
C1753 C1752 1.386 . S
C1753 C1757 1.383 . S
C1754 C1752 1.383 . S
C1754 C1755 1.402 . S
C1754 H1769 0.951 . S
C1755 C1754 1.402 . S
C1755 C1756 1.375 . S
C1755 C1758 1.481 . S
C1756 C1755 1.375 . S
C1756 C1757 1.367 . S
C1756 H1770 0.951 . S
C1757 C1753 1.383 . S
C1757 C1756 1.367 . S
C1757 H1771 0.950 . S
C1758 C1755 1.481 . S
C1758 C1759 1.297 . S
C1758 H1772 0.950 . S
C1759 C1758 1.297 . S
C1759 C1760 1.479 . S
C1759 H1773 0.950 . S
C1760 C1759 1.479 . S
C1760 C1761 1.375 . S
C1760 C1766 1.404 . S
C1761 C1760 1.375 . S
C1761 C1762 1.369 . S
C1761 H1774 0.950 . S
C1762 C1761 1.369 . S
C1762 C1763 1.392 . S
C1762 H1775 0.951 . S
C1763 C1762 1.392 . S
C1763 C1765 1.384 . S
H1764 C1766 0.949 . S
C1765 C1763 1.384 . S
C1765 C1766 1.385 . S
C1765 H1767 0.950 . S
C1766 C1760 1.404 . S
C1766 H1764 0.949 . S
C1766 C1765 1.385 . S
H1767 C1765 0.950 . S
H1768 C1752 0.951 . S
H1769 C1754 0.951 . S
H1770 C1756 0.951 . S
H1771 C1757 0.950 . S
H1772 C1758 0.950 . S
H1773 C1759 0.950 . S
H1774 C1761 0.950 . S
H1775 C1762 0.951 . S
C1776 C1777 1.386 1_565 S
C1776 C1778 1.377 1_564 S
C1776 H1792 0.951 . S
C1777 C1776 1.386 1_545 S
C1777 C1781 1.383 1_554 S
C1778 C1776 1.377 1_546 S
C1778 C1779 1.405 . S
C1778 H1793 0.953 1_545 S
C1779 C1778 1.405 . S
C1779 C1780 1.375 . S
C1779 C1782 1.481 . S
C1780 C1779 1.375 . S
C1780 C1781 1.367 . S
C1780 H1794 0.951 . S
C1781 C1777 1.383 1_556 S
C1781 C1780 1.367 . S
C1781 H1795 0.950 . S
C1782 C1779 1.481 . S
C1782 C1783 1.297 . S
C1782 H1796 0.950 . S
C1783 C1782 1.297 . S
C1783 C1784 1.479 . S
C1783 H1797 0.950 . S
C1784 C1783 1.479 . S
C1784 C1785 1.376 1_545 S
C1784 C1790 1.404 . S
C1785 C1784 1.376 1_565 S
C1785 C1786 1.364 . S
C1785 H1798 0.954 . S
C1786 C1785 1.364 . S
C1786 C1787 1.392 1_565 S
C1786 H1799 0.951 . S
C1787 C1786 1.392 1_545 S
C1787 C1789 1.384 . S
H1788 C1790 0.949 . S
C1789 C1787 1.384 . S
C1789 C1790 1.385 . S
C1789 H1791 0.950 . S
C1790 C1784 1.404 . S
C1790 H1788 0.949 . S
C1790 C1789 1.385 . S
H1791 C1789 0.950 . S
H1792 C1776 0.951 . S
H1793 C1778 0.953 1_565 S
H1794 C1780 0.951 . S
H1795 C1781 0.950 . S
H1796 C1782 0.950 . S
H1797 C1783 0.950 . S
H1798 C1785 0.954 . S
H1799 C1786 0.951 . S
C1800 C1801 1.386 . S
C1800 C1802 1.383 . S
C1800 H1816 0.951 . S
C1801 C1800 1.386 . S
C1801 C1805 1.383 . S
C1802 C1800 1.383 . S
C1802 C1803 1.402 . S
C1802 H1817 0.951 . S
C1803 C1802 1.402 . S
C1803 C1804 1.375 . S
C1803 C1806 1.481 . S
C1804 C1803 1.375 . S
C1804 C1805 1.367 . S
C1804 H1818 0.951 1_545 S
C1805 C1801 1.383 . S
C1805 C1804 1.367 . S
C1805 H1819 0.952 . S
C1806 C1803 1.481 . S
C1806 C1807 1.297 . S
C1806 H1820 0.950 1_545 S
C1807 C1806 1.297 . S
C1807 C1808 1.479 . S
C1807 H1821 0.950 . S
C1808 C1807 1.479 . S
C1808 C1809 1.375 . S
C1808 C1814 1.404 1_545 S
C1809 C1808 1.375 . S
C1809 C1810 1.369 . S
C1809 H1822 0.950 . S
C1810 C1809 1.369 . S
C1810 C1811 1.392 . S
C1810 H1823 0.951 . S
C1811 C1810 1.392 . S
C1811 C1813 1.384 1_545 S
H1812 C1814 0.949 . S
C1813 C1811 1.384 1_565 S
C1813 C1814 1.385 . S
C1813 H1815 0.950 . S
C1814 C1808 1.404 1_565 S
C1814 H1812 0.949 . S
C1814 C1813 1.385 . S
H1815 C1813 0.950 . S
H1816 C1800 0.951 . S
H1817 C1802 0.951 . S
H1818 C1804 0.951 1_565 S
H1819 C1805 0.952 . S
H1820 C1806 0.950 1_565 S
H1821 C1807 0.950 . S
H1822 C1809 0.950 . S
H1823 C1810 0.951 . S
C1824 C1825 1.386 1_455 S
C1824 C1826 1.383 . S
C1824 H1840 0.951 . S
C1825 C1824 1.386 1_655 S
C1825 C1829 1.383 . S
C1826 C1824 1.383 . S
C1826 C1827 1.402 1_455 S
C1826 H1841 0.951 . S
C1827 C1826 1.402 1_655 S
C1827 C1828 1.375 . S
C1827 C1830 1.481 . S
C1828 C1827 1.375 . S
C1828 C1829 1.367 . S
C1828 H1842 0.951 . S
C1829 C1825 1.383 . S
C1829 C1828 1.367 . S
C1829 H1843 0.950 . S
C1830 C1827 1.481 . S
C1830 C1831 1.297 . S
C1830 H1844 0.950 . S
C1831 C1830 1.297 . S
C1831 C1832 1.479 . S
C1831 H1845 0.950 1_655 S
C1832 C1831 1.479 . S
C1832 C1833 1.375 1_655 S
C1832 C1838 1.404 . S
C1833 C1832 1.375 1_455 S
C1833 C1834 1.369 . S
C1833 H1846 0.950 . S
C1834 C1833 1.369 . S
C1834 C1835 1.378 1_455 S
C1834 H1847 0.951 . S
C1835 C1834 1.378 1_655 S
C1835 C1837 1.418 . S
H1836 C1838 0.949 . S
C1837 C1835 1.418 . S
C1837 C1838 1.385 . S
C1837 H1839 0.950 . S
C1838 C1832 1.404 . S
C1838 H1836 0.949 . S
C1838 C1837 1.385 . S
H1839 C1837 0.950 . S
H1840 C1824 0.951 . S
H1841 C1826 0.951 . S
H1842 C1828 0.951 . S
H1843 C1829 0.950 . S
H1844 C1830 0.950 . S
H1845 C1831 0.950 1_455 S
H1846 C1833 0.950 . S
H1847 C1834 0.951 . S
C1848 C1849 1.386 . S
C1848 C1850 1.383 . S
C1848 H1864 0.951 . S
C1849 C1848 1.386 . S
C1849 C1853 1.383 . S
C1850 C1848 1.383 . S
C1850 C1851 1.402 . S
C1850 H1865 0.951 . S
C1851 C1850 1.402 . S
C1851 C1852 1.375 . S
C1851 C1854 1.481 . S
C1852 C1851 1.375 . S
C1852 C1853 1.367 . S
C1852 H1866 0.951 . S
C1853 C1849 1.383 . S
C1853 C1852 1.367 . S
C1853 H1867 0.950 . S
C1854 C1851 1.481 . S
C1854 C1855 1.297 . S
C1854 H1868 0.950 . S
C1855 C1854 1.297 . S
C1855 C1856 1.479 . S
C1855 H1869 0.950 . S
C1856 C1855 1.479 . S
C1856 C1857 1.375 . S
C1856 C1862 1.404 . S
C1857 C1856 1.375 . S
C1857 C1858 1.369 . S
C1857 H1870 0.950 . S
C1858 C1857 1.369 . S
C1858 C1859 1.392 . S
C1858 H1871 0.951 . S
C1859 C1858 1.392 . S
C1859 C1861 1.384 . S
H1860 C1862 0.949 . S
C1861 C1859 1.384 . S
C1861 C1862 1.385 . S
C1861 H1863 0.950 . S
C1862 C1856 1.404 . S
C1862 H1860 0.949 . S
C1862 C1861 1.385 . S
H1863 C1861 0.950 . S
H1864 C1848 0.951 . S
H1865 C1850 0.951 . S
H1866 C1852 0.951 . S
H1867 C1853 0.950 . S
H1868 C1854 0.950 . S
H1869 C1855 0.950 . S
H1870 C1857 0.950 . S
H1871 C1858 0.951 . S
C1872 C1873 1.386 . S
C1872 C1874 1.383 . S
C1872 H1888 0.951 . S
C1873 C1872 1.386 . S
C1873 C1877 1.383 . S
C1874 C1872 1.383 . S
C1874 C1875 1.402 . S
C1874 H1889 0.951 . S
C1875 C1874 1.402 . S
C1875 C1876 1.375 . S
C1875 C1878 1.481 . S
C1876 C1875 1.375 . S
C1876 C1877 1.367 . S
C1876 H1890 0.951 . S
C1877 C1873 1.383 . S
C1877 C1876 1.367 . S
C1877 H1891 0.950 . S
C1878 C1875 1.481 . S
C1878 C1879 1.297 . S
C1878 H1892 0.950 . S
C1879 C1878 1.297 . S
C1879 C1880 1.479 . S
C1879 H1893 0.950 . S
C1880 C1879 1.479 . S
C1880 C1881 1.375 . S
C1880 C1886 1.404 . S
C1881 C1880 1.375 . S
C1881 C1882 1.369 . S
C1881 H1894 0.950 . S
C1882 C1881 1.369 . S
C1882 C1883 1.392 . S
C1882 H1895 0.951 . S
C1883 C1882 1.392 . S
C1883 C1885 1.384 . S
H1884 C1886 0.949 . S
C1885 C1883 1.384 . S
C1885 C1886 1.385 . S
C1885 H1887 0.950 . S
C1886 C1880 1.404 . S
C1886 H1884 0.949 . S
C1886 C1885 1.385 . S
H1887 C1885 0.950 . S
H1888 C1872 0.951 . S
H1889 C1874 0.951 . S
H1890 C1876 0.951 . S
H1891 C1877 0.950 . S
H1892 C1878 0.950 . S
H1893 C1879 0.950 . S
H1894 C1881 0.950 . S
H1895 C1882 0.951 . S
C1896 C1897 1.386 . S
C1896 C1898 1.383 . S
C1896 H1912 0.951 . S
C1897 C1896 1.386 . S
C1897 C1901 1.383 . S
C1898 C1896 1.383 . S
C1898 C1899 1.402 . S
C1898 H1913 0.951 . S
C1899 C1898 1.402 . S
C1899 C1900 1.375 . S
C1899 C1902 1.481 . S
C1900 C1899 1.375 . S
C1900 C1901 1.367 . S
C1900 H1914 0.951 . S
C1901 C1897 1.383 . S
C1901 C1900 1.367 . S
C1901 H1915 0.950 . S
C1902 C1899 1.481 . S
C1902 C1903 1.297 . S
C1902 H1916 0.950 . S
C1903 C1902 1.297 . S
C1903 C1904 1.479 . S
C1903 H1917 0.950 . S
C1904 C1903 1.479 . S
C1904 C1905 1.375 . S
C1904 C1910 1.404 . S
C1905 C1904 1.375 . S
C1905 C1906 1.369 . S
C1905 H1918 0.950 . S
C1906 C1905 1.369 . S
C1906 C1907 1.392 . S
C1906 H1919 0.951 . S
C1907 C1906 1.392 . S
C1907 C1909 1.384 . S
H1908 C1910 0.949 . S
C1909 C1907 1.384 . S
C1909 C1910 1.385 . S
C1909 H1911 0.950 . S
C1910 C1904 1.404 . S
C1910 H1908 0.949 . S
C1910 C1909 1.385 . S
H1911 C1909 0.950 . S
H1912 C1896 0.951 . S
H1913 C1898 0.951 . S
H1914 C1900 0.951 . S
H1915 C1901 0.950 . S
H1916 C1902 0.950 . S
H1917 C1903 0.950 . S
H1918 C1905 0.950 . S
H1919 C1906 0.951 . S
C1920 C1921 1.386 . S
C1920 C1922 1.383 . S
C1920 H1936 0.951 . S
C1921 C1920 1.386 . S
C1921 C1925 1.383 . S
C1922 C1920 1.383 . S
C1922 C1923 1.402 . S
C1922 H1937 0.951 . S
C1923 C1922 1.402 . S
C1923 C1924 1.375 . S
C1923 C1926 1.481 . S
C1924 C1923 1.375 . S
C1924 C1925 1.367 . S
C1924 H1938 0.951 . S
C1925 C1921 1.383 . S
C1925 C1924 1.367 . S
C1925 H1939 0.950 . S
C1926 C1923 1.481 . S
C1926 C1927 1.297 . S
C1926 H1940 0.950 . S
C1927 C1926 1.297 . S
C1927 C1928 1.479 . S
C1927 H1941 0.950 . S
C1928 C1927 1.479 . S
C1928 C1929 1.375 . S
C1928 C1934 1.404 . S
C1929 C1928 1.375 . S
C1929 C1930 1.369 . S
C1929 H1942 0.950 . S
C1930 C1929 1.369 . S
C1930 C1931 1.392 . S
C1930 H1943 0.951 . S
C1931 C1930 1.392 . S
C1931 C1933 1.384 . S
H1932 C1934 0.949 . S
C1933 C1931 1.384 . S
C1933 C1934 1.385 . S
C1933 H1935 0.950 . S
C1934 C1928 1.404 . S
C1934 H1932 0.949 . S
C1934 C1933 1.385 . S
H1935 C1933 0.950 . S
H1936 C1920 0.951 . S
H1937 C1922 0.951 . S
H1938 C1924 0.951 . S
H1939 C1925 0.950 . S
H1940 C1926 0.950 . S
H1941 C1927 0.950 . S
H1942 C1929 0.950 . S
H1943 C1930 0.951 . S
C1944 C1945 1.386 . S
C1944 C1946 1.383 . S
C1944 H1960 0.951 . S
C1945 C1944 1.386 . S
C1945 C1949 1.383 . S
C1946 C1944 1.383 . S
C1946 C1947 1.402 . S
C1946 H1961 0.951 . S
C1947 C1946 1.402 . S
C1947 C1948 1.375 . S
C1947 C1950 1.481 . S
C1948 C1947 1.375 . S
C1948 C1949 1.367 . S
C1948 H1962 0.951 . S
C1949 C1945 1.383 . S
C1949 C1948 1.367 . S
C1949 H1963 0.950 . S
C1950 C1947 1.481 . S
C1950 C1951 1.297 . S
C1950 H1964 0.950 . S
C1951 C1950 1.297 . S
C1951 C1952 1.479 . S
C1951 H1965 0.950 . S
C1952 C1951 1.479 . S
C1952 C1953 1.375 . S
C1952 C1958 1.404 . S
C1953 C1952 1.375 . S
C1953 C1954 1.369 . S
C1953 H1966 0.950 . S
C1954 C1953 1.369 . S
C1954 C1955 1.392 . S
C1954 H1967 0.951 . S
C1955 C1954 1.392 . S
C1955 C1957 1.384 . S
H1956 C1958 0.949 . S
C1957 C1955 1.384 . S
C1957 C1958 1.385 . S
C1957 H1959 0.950 . S
C1958 C1952 1.404 . S
C1958 H1956 0.949 . S
C1958 C1957 1.385 . S
H1959 C1957 0.950 . S
H1960 C1944 0.951 . S
H1961 C1946 0.951 . S
H1962 C1948 0.951 . S
H1963 C1949 0.950 . S
H1964 C1950 0.950 . S
H1965 C1951 0.950 . S
H1966 C1953 0.950 . S
H1967 C1954 0.951 . S
C1968 C1969 1.386 . S
C1968 C1970 1.383 . S
C1968 H1984 0.951 . S
C1969 C1968 1.386 . S
C1969 C1973 1.383 . S
C1970 C1968 1.383 . S
C1970 C1971 1.402 . S
C1970 H1985 0.951 . S
C1971 C1970 1.402 . S
C1971 C1972 1.375 . S
C1971 C1974 1.481 . S
C1972 C1971 1.375 . S
C1972 C1973 1.367 . S
C1972 H1986 0.951 . S
C1973 C1969 1.383 . S
C1973 C1972 1.367 . S
C1973 H1987 0.950 . S
C1974 C1971 1.481 . S
C1974 C1975 1.297 . S
C1974 H1988 0.950 . S
C1975 C1974 1.297 . S
C1975 C1976 1.479 . S
C1975 H1989 0.950 . S
C1976 C1975 1.479 . S
C1976 C1977 1.375 . S
C1976 C1982 1.404 . S
C1977 C1976 1.375 . S
C1977 C1978 1.369 . S
C1977 H1990 0.950 . S
C1978 C1977 1.369 . S
C1978 C1979 1.392 . S
C1978 H1991 0.951 . S
C1979 C1978 1.392 . S
C1979 C1981 1.384 . S
H1980 C1982 0.949 . S
C1981 C1979 1.384 . S
C1981 C1982 1.385 . S
C1981 H1983 0.950 . S
C1982 C1976 1.404 . S
C1982 H1980 0.949 . S
C1982 C1981 1.385 . S
H1983 C1981 0.950 . S
H1984 C1968 0.951 . S
H1985 C1970 0.951 . S
H1986 C1972 0.951 . S
H1987 C1973 0.950 . S
H1988 C1974 0.950 . S
H1989 C1975 0.950 . S
H1990 C1977 0.950 . S
H1991 C1978 0.951 . S
C1992 C1993 1.386 . S
C1992 C1994 1.383 . S
C1992 H2008 0.951 . S
C1993 C1992 1.386 . S
C1993 C1997 1.383 . S
C1994 C1992 1.383 . S
C1994 C1995 1.402 . S
C1994 H2009 0.951 . S
C1995 C1994 1.402 . S
C1995 C1996 1.375 . S
C1995 C1998 1.481 . S
C1996 C1995 1.375 . S
C1996 C1997 1.367 . S
C1996 H2010 0.951 . S
C1997 C1993 1.383 . S
C1997 C1996 1.367 . S
C1997 H2011 0.950 . S
C1998 C1995 1.481 . S
C1998 C1999 1.297 . S
C1998 H2012 0.950 . S
C1999 C1998 1.297 . S
C1999 C2000 1.479 . S
C1999 H2013 0.950 . S
C2000 C1999 1.479 . S
C2000 C2001 1.375 . S
C2000 C2006 1.404 . S
C2001 C2000 1.375 . S
C2001 C2002 1.369 . S
C2001 H2014 0.950 . S
C2002 C2001 1.369 . S
C2002 C2003 1.392 . S
C2002 H2015 0.951 . S
C2003 C2002 1.392 . S
C2003 C2005 1.384 . S
H2004 C2006 0.949 . S
C2005 C2003 1.384 . S
C2005 C2006 1.385 . S
C2005 H2007 0.950 . S
C2006 C2000 1.404 . S
C2006 H2004 0.949 . S
C2006 C2005 1.385 . S
H2007 C2005 0.950 . S
H2008 C1992 0.951 . S
H2009 C1994 0.951 . S
H2010 C1996 0.951 . S
H2011 C1997 0.950 . S
H2012 C1998 0.950 . S
H2013 C1999 0.950 . S
H2014 C2001 0.950 . S
H2015 C2002 0.951 . S
C2016 C2017 1.386 . S
C2016 C2018 1.383 . S
C2016 H2032 0.951 . S
C2017 C2016 1.386 . S
C2017 C2021 1.383 . S
C2018 C2016 1.383 . S
C2018 C2019 1.402 . S
C2018 H2033 0.951 . S
C2019 C2018 1.402 . S
C2019 C2020 1.375 . S
C2019 C2022 1.481 . S
C2020 C2019 1.375 . S
C2020 C2021 1.367 . S
C2020 H2034 0.951 . S
C2021 C2017 1.383 . S
C2021 C2020 1.367 . S
C2021 H2035 0.950 . S
C2022 C2019 1.481 . S
C2022 C2023 1.297 . S
C2022 H2036 0.950 . S
C2023 C2022 1.297 . S
C2023 C2024 1.479 . S
C2023 H2037 0.950 . S
C2024 C2023 1.479 . S
C2024 C2025 1.375 . S
C2024 C2030 1.404 . S
C2025 C2024 1.375 . S
C2025 C2026 1.369 . S
C2025 H2038 0.950 . S
C2026 C2025 1.369 . S
C2026 C2027 1.392 . S
C2026 H2039 0.951 . S
C2027 C2026 1.392 . S
C2027 C2029 1.384 . S
H2028 C2030 0.949 . S
C2029 C2027 1.384 . S
C2029 C2030 1.385 . S
C2029 H2031 0.950 . S
C2030 C2024 1.404 . S
C2030 H2028 0.949 . S
C2030 C2029 1.385 . S
H2031 C2029 0.950 . S
H2032 C2016 0.951 . S
H2033 C2018 0.951 . S
H2034 C2020 0.951 . S
H2035 C2021 0.950 . S
H2036 C2022 0.950 . S
H2037 C2023 0.950 . S
H2038 C2025 0.950 . S
H2039 C2026 0.951 . S
C2040 C2041 1.386 . S
C2040 C2042 1.383 . S
C2040 H2056 0.951 . S
C2041 C2040 1.386 . S
C2041 C2045 1.383 . S
C2042 C2040 1.383 . S
C2042 C2043 1.402 . S
C2042 H2057 0.951 . S
C2043 C2042 1.402 . S
C2043 C2044 1.375 . S
C2043 C2046 1.481 . S
C2044 C2043 1.375 . S
C2044 C2045 1.367 . S
C2044 H2058 0.951 . S
C2045 C2041 1.383 . S
C2045 C2044 1.367 . S
C2045 H2059 0.950 . S
C2046 C2043 1.481 . S
C2046 C2047 1.297 . S
C2046 H2060 0.950 . S
C2047 C2046 1.297 . S
C2047 C2048 1.479 . S
C2047 H2061 0.950 . S
C2048 C2047 1.479 . S
C2048 C2049 1.375 . S
C2048 C2054 1.404 . S
C2049 C2048 1.375 . S
C2049 C2050 1.369 . S
C2049 H2062 0.950 . S
C2050 C2049 1.369 . S
C2050 C2051 1.392 . S
C2050 H2063 0.951 . S
C2051 C2050 1.392 . S
C2051 C2053 1.384 . S
H2052 C2054 0.949 . S
C2053 C2051 1.384 . S
C2053 C2054 1.385 . S
C2053 H2055 0.950 . S
C2054 C2048 1.404 . S
C2054 H2052 0.949 . S
C2054 C2053 1.385 . S
H2055 C2053 0.950 . S
H2056 C2040 0.951 . S
H2057 C2042 0.951 . S
H2058 C2044 0.951 . S
H2059 C2045 0.950 . S
H2060 C2046 0.950 . S
H2061 C2047 0.950 . S
H2062 C2049 0.950 . S
H2063 C2050 0.951 . S
C2064 C2065 1.386 . S
C2064 C2066 1.383 . S
C2064 H2080 0.951 . S
C2065 C2064 1.386 . S
C2065 C2069 1.383 . S
C2066 C2064 1.383 . S
C2066 C2067 1.402 . S
C2066 H2081 0.951 . S
C2067 C2066 1.402 . S
C2067 C2068 1.375 . S
C2067 C2070 1.481 . S
C2068 C2067 1.375 . S
C2068 C2069 1.367 . S
C2068 H2082 0.951 . S
C2069 C2065 1.383 . S
C2069 C2068 1.367 . S
C2069 H2083 0.950 . S
C2070 C2067 1.481 . S
C2070 C2071 1.297 . S
C2070 H2084 0.950 . S
C2071 C2070 1.297 . S
C2071 C2072 1.479 . S
C2071 H2085 0.950 . S
C2072 C2071 1.479 . S
C2072 C2073 1.375 . S
C2072 C2078 1.404 . S
C2073 C2072 1.375 . S
C2073 C2074 1.369 . S
C2073 H2086 0.950 . S
C2074 C2073 1.369 . S
C2074 C2075 1.392 . S
C2074 H2087 0.951 . S
C2075 C2074 1.392 . S
C2075 C2077 1.384 . S
H2076 C2078 0.949 . S
C2077 C2075 1.384 . S
C2077 C2078 1.385 . S
C2077 H2079 0.950 . S
C2078 C2072 1.404 . S
C2078 H2076 0.949 . S
C2078 C2077 1.385 . S
H2079 C2077 0.950 . S
H2080 C2064 0.951 . S
H2081 C2066 0.951 . S
H2082 C2068 0.951 . S
H2083 C2069 0.950 . S
H2084 C2070 0.950 . S
H2085 C2071 0.950 . S
H2086 C2073 0.950 . S
H2087 C2074 0.951 . S
C2088 C2089 1.386 . S
C2088 C2090 1.383 . S
C2088 H2104 0.951 . S
C2089 C2088 1.386 . S
C2089 C2093 1.383 . S
C2090 C2088 1.383 . S
C2090 C2091 1.402 . S
C2090 H2105 0.951 . S
C2091 C2090 1.402 . S
C2091 C2092 1.375 . S
C2091 C2094 1.481 . S
C2092 C2091 1.375 . S
C2092 C2093 1.367 . S
C2092 H2106 0.951 . S
C2093 C2089 1.383 . S
C2093 C2092 1.367 . S
C2093 H2107 0.950 . S
C2094 C2091 1.481 . S
C2094 C2095 1.297 . S
C2094 H2108 0.950 . S
C2095 C2094 1.297 . S
C2095 C2096 1.479 . S
C2095 H2109 0.950 . S
C2096 C2095 1.479 . S
C2096 C2097 1.375 . S
C2096 C2102 1.404 . S
C2097 C2096 1.375 . S
C2097 C2098 1.369 . S
C2097 H2110 0.950 . S
C2098 C2097 1.369 . S
C2098 C2099 1.392 . S
C2098 H2111 0.951 . S
C2099 C2098 1.392 . S
C2099 C2101 1.384 . S
H2100 C2102 0.949 . S
C2101 C2099 1.384 . S
C2101 C2102 1.385 . S
C2101 H2103 0.950 . S
C2102 C2096 1.404 . S
C2102 H2100 0.949 . S
C2102 C2101 1.385 . S
H2103 C2101 0.950 . S
H2104 C2088 0.951 . S
H2105 C2090 0.951 . S
H2106 C2092 0.951 . S
H2107 C2093 0.950 . S
H2108 C2094 0.950 . S
H2109 C2095 0.950 . S
H2110 C2097 0.950 . S
H2111 C2098 0.951 . S
C2112 C2113 1.386 . S
C2112 C2114 1.383 . S
C2112 H2128 0.951 . S
C2113 C2112 1.386 . S
C2113 C2117 1.383 . S
C2114 C2112 1.383 . S
C2114 C2115 1.402 . S
C2114 H2129 0.951 . S
C2115 C2114 1.402 . S
C2115 C2116 1.375 . S
C2115 C2118 1.481 . S
C2116 C2115 1.375 . S
C2116 C2117 1.367 . S
C2116 H2130 0.951 . S
C2117 C2113 1.383 . S
C2117 C2116 1.367 . S
C2117 H2131 0.950 . S
C2118 C2115 1.481 . S
C2118 C2119 1.297 . S
C2118 H2132 0.950 . S
C2119 C2118 1.297 . S
C2119 C2120 1.479 . S
C2119 H2133 0.950 . S
C2120 C2119 1.479 . S
C2120 C2121 1.375 . S
C2120 C2126 1.404 . S
C2121 C2120 1.375 . S
C2121 C2122 1.369 . S
C2121 H2134 0.950 . S
C2122 C2121 1.369 . S
C2122 C2123 1.392 . S
C2122 H2135 0.951 . S
C2123 C2122 1.392 . S
C2123 C2125 1.384 . S
H2124 C2126 0.949 . S
C2125 C2123 1.384 . S
C2125 C2126 1.385 . S
C2125 H2127 0.950 . S
C2126 C2120 1.404 . S
C2126 H2124 0.949 . S
C2126 C2125 1.385 . S
H2127 C2125 0.950 . S
H2128 C2112 0.951 . S
H2129 C2114 0.951 . S
H2130 C2116 0.951 . S
H2131 C2117 0.950 . S
H2132 C2118 0.950 . S
H2133 C2119 0.950 . S
H2134 C2121 0.950 . S
H2135 C2122 0.951 . S
C2136 C2137 1.386 . S
C2136 C2138 1.383 . S
C2136 H2152 0.951 . S
C2137 C2136 1.386 . S
C2137 C2141 1.383 . S
C2138 C2136 1.383 . S
C2138 C2139 1.402 . S
C2138 H2153 0.951 . S
C2139 C2138 1.402 . S
C2139 C2140 1.375 . S
C2139 C2142 1.481 . S
C2140 C2139 1.375 . S
C2140 C2141 1.367 . S
C2140 H2154 0.951 . S
C2141 C2137 1.383 . S
C2141 C2140 1.367 . S
C2141 H2155 0.950 . S
C2142 C2139 1.481 . S
C2142 C2143 1.297 . S
C2142 H2156 0.950 . S
C2143 C2142 1.297 . S
C2143 C2144 1.479 . S
C2143 H2157 0.950 . S
C2144 C2143 1.479 . S
C2144 C2145 1.375 . S
C2144 C2150 1.404 . S
C2145 C2144 1.375 . S
C2145 C2146 1.369 . S
C2145 H2158 0.950 . S
C2146 C2145 1.369 . S
C2146 C2147 1.392 . S
C2146 H2159 0.951 . S
C2147 C2146 1.392 . S
C2147 C2149 1.384 . S
H2148 C2150 0.949 . S
C2149 C2147 1.384 . S
C2149 C2150 1.385 . S
C2149 H2151 0.950 . S
C2150 C2144 1.404 . S
C2150 H2148 0.949 . S
C2150 C2149 1.385 . S
H2151 C2149 0.950 . S
H2152 C2136 0.951 . S
H2153 C2138 0.951 . S
H2154 C2140 0.951 . S
H2155 C2141 0.950 . S
H2156 C2142 0.950 . S
H2157 C2143 0.950 . S
H2158 C2145 0.950 . S
H2159 C2146 0.951 . S
C2160 C2161 1.386 . S
C2160 C2162 1.383 . S
C2160 H2176 0.951 . S
C2161 C2160 1.386 . S
C2161 C2165 1.383 . S
C2162 C2160 1.383 . S
C2162 C2163 1.402 . S
C2162 H2177 0.951 . S
C2163 C2162 1.402 . S
C2163 C2164 1.375 . S
C2163 C2166 1.481 . S
C2164 C2163 1.375 . S
C2164 C2165 1.367 . S
C2164 H2178 0.951 . S
C2165 C2161 1.383 . S
C2165 C2164 1.367 . S
C2165 H2179 0.950 . S
C2166 C2163 1.481 . S
C2166 C2167 1.297 . S
C2166 H2180 0.950 . S
C2167 C2166 1.297 . S
C2167 C2168 1.479 . S
C2167 H2181 0.950 . S
C2168 C2167 1.479 . S
C2168 C2169 1.375 . S
C2168 C2174 1.404 . S
C2169 C2168 1.375 . S
C2169 C2170 1.369 . S
C2169 H2182 0.950 . S
C2170 C2169 1.369 . S
C2170 C2171 1.392 . S
C2170 H2183 0.951 . S
C2171 C2170 1.392 . S
C2171 C2173 1.384 . S
H2172 C2174 0.949 . S
C2173 C2171 1.384 . S
C2173 C2174 1.385 . S
C2173 H2175 0.950 . S
C2174 C2168 1.404 . S
C2174 H2172 0.949 . S
C2174 C2173 1.385 . S
H2175 C2173 0.950 . S
H2176 C2160 0.951 . S
H2177 C2162 0.951 . S
H2178 C2164 0.951 . S
H2179 C2165 0.950 . S
H2180 C2166 0.950 . S
H2181 C2167 0.950 . S
H2182 C2169 0.950 . S
H2183 C2170 0.951 . S
C2184 C2185 1.386 . S
C2184 C2186 1.383 . S
C2184 H2200 0.951 . S
C2185 C2184 1.386 . S
C2185 C2189 1.383 . S
C2186 C2184 1.383 . S
C2186 C2187 1.402 . S
C2186 H2201 0.951 . S
C2187 C2186 1.402 . S
C2187 C2188 1.375 . S
C2187 C2190 1.481 . S
C2188 C2187 1.375 . S
C2188 C2189 1.367 . S
C2188 H2202 0.951 . S
C2189 C2185 1.383 . S
C2189 C2188 1.367 . S
C2189 H2203 0.950 . S
C2190 C2187 1.481 . S
C2190 C2191 1.297 . S
C2190 H2204 0.950 . S
C2191 C2190 1.297 . S
C2191 C2192 1.479 . S
C2191 H2205 0.950 . S
C2192 C2191 1.479 . S
C2192 C2193 1.375 . S
C2192 C2198 1.404 . S
C2193 C2192 1.375 . S
C2193 C2194 1.369 . S
C2193 H2206 0.950 . S
C2194 C2193 1.369 . S
C2194 C2195 1.392 . S
C2194 H2207 0.951 . S
C2195 C2194 1.392 . S
C2195 C2197 1.384 . S
H2196 C2198 0.949 . S
C2197 C2195 1.384 . S
C2197 C2198 1.385 . S
C2197 H2199 0.950 . S
C2198 C2192 1.404 . S
C2198 H2196 0.949 . S
C2198 C2197 1.385 . S
H2199 C2197 0.950 . S
H2200 C2184 0.951 . S
H2201 C2186 0.951 . S
H2202 C2188 0.951 . S
H2203 C2189 0.950 . S
H2204 C2190 0.950 . S
H2205 C2191 0.950 . S
H2206 C2193 0.950 . S
H2207 C2194 0.951 . S
C2208 C2209 1.386 . S
C2208 C2210 1.383 . S
C2208 H2224 0.951 . S
C2209 C2208 1.386 . S
C2209 C2213 1.383 . S
C2210 C2208 1.383 . S
C2210 C2211 1.402 . S
C2210 H2225 0.951 . S
C2211 C2210 1.402 . S
C2211 C2212 1.375 . S
C2211 C2214 1.481 . S
C2212 C2211 1.375 . S
C2212 C2213 1.367 . S
C2212 H2226 0.951 . S
C2213 C2209 1.383 . S
C2213 C2212 1.367 . S
C2213 H2227 0.950 . S
C2214 C2211 1.481 . S
C2214 C2215 1.297 . S
C2214 H2228 0.950 . S
C2215 C2214 1.297 . S
C2215 C2216 1.479 . S
C2215 H2229 0.950 . S
C2216 C2215 1.479 . S
C2216 C2217 1.375 . S
C2216 C2222 1.404 . S
C2217 C2216 1.375 . S
C2217 C2218 1.369 . S
C2217 H2230 0.950 . S
C2218 C2217 1.369 . S
C2218 C2219 1.392 . S
C2218 H2231 0.951 . S
C2219 C2218 1.392 . S
C2219 C2221 1.384 . S
H2220 C2222 0.949 . S
C2221 C2219 1.384 . S
C2221 C2222 1.385 . S
C2221 H2223 0.950 . S
C2222 C2216 1.404 . S
C2222 H2220 0.949 . S
C2222 C2221 1.385 . S
H2223 C2221 0.950 . S
H2224 C2208 0.951 . S
H2225 C2210 0.951 . S
H2226 C2212 0.951 . S
H2227 C2213 0.950 . S
H2228 C2214 0.950 . S
H2229 C2215 0.950 . S
H2230 C2217 0.950 . S
H2231 C2218 0.951 . S
C2232 C2233 1.386 . S
C2232 C2234 1.383 . S
C2232 H2248 0.951 . S
C2233 C2232 1.386 . S
C2233 C2237 1.383 . S
C2234 C2232 1.383 . S
C2234 C2235 1.402 . S
C2234 H2249 0.951 . S
C2235 C2234 1.402 . S
C2235 C2236 1.375 . S
C2235 C2238 1.481 . S
C2236 C2235 1.375 . S
C2236 C2237 1.367 . S
C2236 H2250 0.951 . S
C2237 C2233 1.383 . S
C2237 C2236 1.367 . S
C2237 H2251 0.950 . S
C2238 C2235 1.481 . S
C2238 C2239 1.297 . S
C2238 H2252 0.950 . S
C2239 C2238 1.297 . S
C2239 C2240 1.479 . S
C2239 H2253 0.950 . S
C2240 C2239 1.479 . S
C2240 C2241 1.375 . S
C2240 C2246 1.404 . S
C2241 C2240 1.375 . S
C2241 C2242 1.369 . S
C2241 H2254 0.950 . S
C2242 C2241 1.369 . S
C2242 C2243 1.392 . S
C2242 H2255 0.951 . S
C2243 C2242 1.392 . S
C2243 C2245 1.384 . S
H2244 C2246 0.949 . S
C2245 C2243 1.384 . S
C2245 C2246 1.385 . S
C2245 H2247 0.950 . S
C2246 C2240 1.404 . S
C2246 H2244 0.949 . S
C2246 C2245 1.385 . S
H2247 C2245 0.950 . S
H2248 C2232 0.951 . S
H2249 C2234 0.951 . S
H2250 C2236 0.951 . S
H2251 C2237 0.950 . S
H2252 C2238 0.950 . S
H2253 C2239 0.950 . S
H2254 C2241 0.950 . S
H2255 C2242 0.951 . S
C2256 C2257 1.386 . S
C2256 C2258 1.383 . S
C2256 H2272 0.951 . S
C2257 C2256 1.386 . S
C2257 C2261 1.383 . S
C2258 C2256 1.383 . S
C2258 C2259 1.402 . S
C2258 H2273 0.951 . S
C2259 C2258 1.402 . S
C2259 C2260 1.375 . S
C2259 C2262 1.481 . S
C2260 C2259 1.375 . S
C2260 C2261 1.367 . S
C2260 H2274 0.951 . S
C2261 C2257 1.383 . S
C2261 C2260 1.367 . S
C2261 H2275 0.950 . S
C2262 C2259 1.481 . S
C2262 C2263 1.297 . S
C2262 H2276 0.950 . S
C2263 C2262 1.297 . S
C2263 C2264 1.479 . S
C2263 H2277 0.950 . S
C2264 C2263 1.479 . S
C2264 C2265 1.375 . S
C2264 C2270 1.404 . S
C2265 C2264 1.375 . S
C2265 C2266 1.369 . S
C2265 H2278 0.950 . S
C2266 C2265 1.369 . S
C2266 C2267 1.392 . S
C2266 H2279 0.951 . S
C2267 C2266 1.392 . S
C2267 C2269 1.384 . S
H2268 C2270 0.949 . S
C2269 C2267 1.384 . S
C2269 C2270 1.385 . S
C2269 H2271 0.950 . S
C2270 C2264 1.404 . S
C2270 H2268 0.949 . S
C2270 C2269 1.385 . S
H2271 C2269 0.950 . S
H2272 C2256 0.951 . S
H2273 C2258 0.951 . S
H2274 C2260 0.951 . S
H2275 C2261 0.950 . S
H2276 C2262 0.950 . S
H2277 C2263 0.950 . S
H2278 C2265 0.950 . S
H2279 C2266 0.951 . S
C2280 C2281 1.386 . S
C2280 C2282 1.383 . S
C2280 H2296 0.951 . S
C2281 C2280 1.386 . S
C2281 C2285 1.383 . S
C2282 C2280 1.383 . S
C2282 C2283 1.402 . S
C2282 H2297 0.951 . S
C2283 C2282 1.402 . S
C2283 C2284 1.375 . S
C2283 C2286 1.481 . S
C2284 C2283 1.375 . S
C2284 C2285 1.367 . S
C2284 H2298 0.951 . S
C2285 C2281 1.383 . S
C2285 C2284 1.367 . S
C2285 H2299 0.950 . S
C2286 C2283 1.481 . S
C2286 C2287 1.297 . S
C2286 H2300 0.950 . S
C2287 C2286 1.297 . S
C2287 C2288 1.479 . S
C2287 H2301 0.950 . S
C2288 C2287 1.479 . S
C2288 C2289 1.375 . S
C2288 C2294 1.404 . S
C2289 C2288 1.375 . S
C2289 C2290 1.369 . S
C2289 H2302 0.950 . S
C2290 C2289 1.369 . S
C2290 C2291 1.392 . S
C2290 H2303 0.951 . S
C2291 C2290 1.392 . S
C2291 C2293 1.384 . S
H2292 C2294 0.949 . S
C2293 C2291 1.384 . S
C2293 C2294 1.385 . S
C2293 H2295 0.950 . S
C2294 C2288 1.404 . S
C2294 H2292 0.949 . S
C2294 C2293 1.385 . S
H2295 C2293 0.950 . S
H2296 C2280 0.951 . S
H2297 C2282 0.951 . S
H2298 C2284 0.951 . S
H2299 C2285 0.950 . S
H2300 C2286 0.950 . S
H2301 C2287 0.950 . S
H2302 C2289 0.950 . S
H2303 C2290 0.951 . S
C2304 C2305 1.386 . S
C2304 C2306 1.383 . S
C2304 H2320 0.951 . S
C2305 C2304 1.386 . S
C2305 C2309 1.383 . S
C2306 C2304 1.383 . S
C2306 C2307 1.402 . S
C2306 H2321 0.951 . S
C2307 C2306 1.402 . S
C2307 C2308 1.375 . S
C2307 C2310 1.481 . S
C2308 C2307 1.375 . S
C2308 C2309 1.367 . S
C2308 H2322 0.951 . S
C2309 C2305 1.383 . S
C2309 C2308 1.367 . S
C2309 H2323 0.950 . S
C2310 C2307 1.481 . S
C2310 C2311 1.297 . S
C2310 H2324 0.950 . S
C2311 C2310 1.297 . S
C2311 C2312 1.479 . S
C2311 H2325 0.950 . S
C2312 C2311 1.479 . S
C2312 C2313 1.375 . S
C2312 C2318 1.404 . S
C2313 C2312 1.375 . S
C2313 C2314 1.369 . S
C2313 H2326 0.950 . S
C2314 C2313 1.369 . S
C2314 C2315 1.392 . S
C2314 H2327 0.951 . S
C2315 C2314 1.392 . S
C2315 C2317 1.384 . S
H2316 C2318 0.949 . S
C2317 C2315 1.384 . S
C2317 C2318 1.385 . S
C2317 H2319 0.950 . S
C2318 C2312 1.404 . S
C2318 H2316 0.949 . S
C2318 C2317 1.385 . S
H2319 C2317 0.950 . S
H2320 C2304 0.951 . S
H2321 C2306 0.951 . S
H2322 C2308 0.951 . S
H2323 C2309 0.950 . S
H2324 C2310 0.950 . S
H2325 C2311 0.950 . S
H2326 C2313 0.950 . S
H2327 C2314 0.951 . S
C2328 C2329 1.386 . S
C2328 C2330 1.383 . S
C2328 H2344 0.951 . S
C2329 C2328 1.386 . S
C2329 C2333 1.383 . S
C2330 C2328 1.383 . S
C2330 C2331 1.402 . S
C2330 H2345 0.951 . S
C2331 C2330 1.402 . S
C2331 C2332 1.375 . S
C2331 C2334 1.481 . S
C2332 C2331 1.375 . S
C2332 C2333 1.367 . S
C2332 H2346 0.951 . S
C2333 C2329 1.383 . S
C2333 C2332 1.367 . S
C2333 H2347 0.950 . S
C2334 C2331 1.481 . S
C2334 C2335 1.297 . S
C2334 H2348 0.950 . S
C2335 C2334 1.297 . S
C2335 C2336 1.479 . S
C2335 H2349 0.950 . S
C2336 C2335 1.479 . S
C2336 C2337 1.375 . S
C2336 C2342 1.404 . S
C2337 C2336 1.375 . S
C2337 C2338 1.369 . S
C2337 H2350 0.950 . S
C2338 C2337 1.369 . S
C2338 C2339 1.392 . S
C2338 H2351 0.951 . S
C2339 C2338 1.392 . S
C2339 C2341 1.384 . S
H2340 C2342 0.949 . S
C2341 C2339 1.384 . S
C2341 C2342 1.385 . S
C2341 H2343 0.950 . S
C2342 C2336 1.404 . S
C2342 H2340 0.949 . S
C2342 C2341 1.385 . S
H2343 C2341 0.950 . S
H2344 C2328 0.951 . S
H2345 C2330 0.951 . S
H2346 C2332 0.951 . S
H2347 C2333 0.950 . S
H2348 C2334 0.950 . S
H2349 C2335 0.950 . S
H2350 C2337 0.950 . S
H2351 C2338 0.951 . S
C2352 C2353 1.386 . S
C2352 C2354 1.383 . S
C2352 H2368 0.951 . S
C2353 C2352 1.386 . S
C2353 C2357 1.383 . S
C2354 C2352 1.383 . S
C2354 C2355 1.402 . S
C2354 H2369 0.951 . S
C2355 C2354 1.402 . S
C2355 C2356 1.375 . S
C2355 C2358 1.481 . S
C2356 C2355 1.375 . S
C2356 C2357 1.367 . S
C2356 H2370 0.951 . S
C2357 C2353 1.383 . S
C2357 C2356 1.367 . S
C2357 H2371 0.950 . S
C2358 C2355 1.481 . S
C2358 C2359 1.297 . S
C2358 H2372 0.950 . S
C2359 C2358 1.297 . S
C2359 C2360 1.479 . S
C2359 H2373 0.950 . S
C2360 C2359 1.479 . S
C2360 C2361 1.375 . S
C2360 C2366 1.404 . S
C2361 C2360 1.375 . S
C2361 C2362 1.369 . S
C2361 H2374 0.950 . S
C2362 C2361 1.369 . S
C2362 C2363 1.392 . S
C2362 H2375 0.951 . S
C2363 C2362 1.392 . S
C2363 C2365 1.384 . S
H2364 C2366 0.949 . S
C2365 C2363 1.384 . S
C2365 C2366 1.385 . S
C2365 H2367 0.950 . S
C2366 C2360 1.404 . S
C2366 H2364 0.949 . S
C2366 C2365 1.385 . S
H2367 C2365 0.950 . S
H2368 C2352 0.951 . S
H2369 C2354 0.951 . S
H2370 C2356 0.951 . S
H2371 C2357 0.950 . S
H2372 C2358 0.950 . S
H2373 C2359 0.950 . S
H2374 C2361 0.950 . S
H2375 C2362 0.951 . S
C2376 C2377 1.386 . S
C2376 C2378 1.383 . S
C2376 H2392 0.951 . S
C2377 C2376 1.386 . S
C2377 C2381 1.383 . S
C2378 C2376 1.383 . S
C2378 C2379 1.402 . S
C2378 H2393 0.951 . S
C2379 C2378 1.402 . S
C2379 C2380 1.375 . S
C2379 C2382 1.481 . S
C2380 C2379 1.375 . S
C2380 C2381 1.367 . S
C2380 H2394 0.951 . S
C2381 C2377 1.383 . S
C2381 C2380 1.367 . S
C2381 H2395 0.950 . S
C2382 C2379 1.481 . S
C2382 C2383 1.297 . S
C2382 H2396 0.950 . S
C2383 C2382 1.297 . S
C2383 C2384 1.479 . S
C2383 H2397 0.950 . S
C2384 C2383 1.479 . S
C2384 C2385 1.375 . S
C2384 C2390 1.404 . S
C2385 C2384 1.375 . S
C2385 C2386 1.369 . S
C2385 H2398 0.950 . S
C2386 C2385 1.369 . S
C2386 C2387 1.392 . S
C2386 H2399 0.951 . S
C2387 C2386 1.392 . S
C2387 C2389 1.384 . S
H2388 C2390 0.949 . S
C2389 C2387 1.384 . S
C2389 C2390 1.385 . S
C2389 H2391 0.950 . S
C2390 C2384 1.404 . S
C2390 H2388 0.949 . S
C2390 C2389 1.385 . S
H2391 C2389 0.950 . S
H2392 C2376 0.951 . S
H2393 C2378 0.951 . S
H2394 C2380 0.951 . S
H2395 C2381 0.950 . S
H2396 C2382 0.950 . S
H2397 C2383 0.950 . S
H2398 C2385 0.950 . S
H2399 C2386 0.951 . S
C2400 C2401 1.386 . S
C2400 C2402 1.383 . S
C2400 H2416 0.951 . S
C2401 C2400 1.386 . S
C2401 C2405 1.383 . S
C2402 C2400 1.383 . S
C2402 C2403 1.402 . S
C2402 H2417 0.951 . S
C2403 C2402 1.402 . S
C2403 C2404 1.375 . S
C2403 C2406 1.481 . S
C2404 C2403 1.375 . S
C2404 C2405 1.367 . S
C2404 H2418 0.951 . S
C2405 C2401 1.383 . S
C2405 C2404 1.367 . S
C2405 H2419 0.950 . S
C2406 C2403 1.481 . S
C2406 C2407 1.297 . S
C2406 H2420 0.950 . S
C2407 C2406 1.297 . S
C2407 C2408 1.479 . S
C2407 H2421 0.950 . S
C2408 C2407 1.479 . S
C2408 C2409 1.375 . S
C2408 C2414 1.404 . S
C2409 C2408 1.375 . S
C2409 C2410 1.369 . S
C2409 H2422 0.950 . S
C2410 C2409 1.369 . S
C2410 C2411 1.392 . S
C2410 H2423 0.951 . S
C2411 C2410 1.392 . S
C2411 C2413 1.384 . S
H2412 C2414 0.949 . S
C2413 C2411 1.384 . S
C2413 C2414 1.385 . S
C2413 H2415 0.950 . S
C2414 C2408 1.404 . S
C2414 H2412 0.949 . S
C2414 C2413 1.385 . S
H2415 C2413 0.950 . S
H2416 C2400 0.951 . S
H2417 C2402 0.951 . S
H2418 C2404 0.951 . S
H2419 C2405 0.950 . S
H2420 C2406 0.950 . S
H2421 C2407 0.950 . S
H2422 C2409 0.950 . S
H2423 C2410 0.951 . S
C2424 C2425 1.386 . S
C2424 C2426 1.383 . S
C2424 H2440 0.951 . S
C2425 C2424 1.386 . S
C2425 C2429 1.383 . S
C2426 C2424 1.383 . S
C2426 C2427 1.402 . S
C2426 H2441 0.951 . S
C2427 C2426 1.402 . S
C2427 C2428 1.375 . S
C2427 C2430 1.481 . S
C2428 C2427 1.375 . S
C2428 C2429 1.367 . S
C2428 H2442 0.951 . S
C2429 C2425 1.383 . S
C2429 C2428 1.367 . S
C2429 H2443 0.950 . S
C2430 C2427 1.481 . S
C2430 C2431 1.297 . S
C2430 H2444 0.950 . S
C2431 C2430 1.297 . S
C2431 C2432 1.479 . S
C2431 H2445 0.950 . S
C2432 C2431 1.479 . S
C2432 C2433 1.375 . S
C2432 C2438 1.404 . S
C2433 C2432 1.375 . S
C2433 C2434 1.369 . S
C2433 H2446 0.950 . S
C2434 C2433 1.369 . S
C2434 C2435 1.392 . S
C2434 H2447 0.951 . S
C2435 C2434 1.392 . S
C2435 C2437 1.384 . S
H2436 C2438 0.949 . S
C2437 C2435 1.384 . S
C2437 C2438 1.385 . S
C2437 H2439 0.950 . S
C2438 C2432 1.404 . S
C2438 H2436 0.949 . S
C2438 C2437 1.385 . S
H2439 C2437 0.950 . S
H2440 C2424 0.951 . S
H2441 C2426 0.951 . S
H2442 C2428 0.951 . S
H2443 C2429 0.950 . S
H2444 C2430 0.950 . S
H2445 C2431 0.950 . S
H2446 C2433 0.950 . S
H2447 C2434 0.951 . S
C2448 C2449 1.386 . S
C2448 C2450 1.383 . S
C2448 H2464 0.951 . S
C2449 C2448 1.386 . S
C2449 C2453 1.383 . S
C2450 C2448 1.383 . S
C2450 C2451 1.402 . S
C2450 H2465 0.951 . S
C2451 C2450 1.402 . S
C2451 C2452 1.375 . S
C2451 C2454 1.481 . S
C2452 C2451 1.375 . S
C2452 C2453 1.367 . S
C2452 H2466 0.951 . S
C2453 C2449 1.383 . S
C2453 C2452 1.367 . S
C2453 H2467 0.950 . S
C2454 C2451 1.481 . S
C2454 C2455 1.297 . S
C2454 H2468 0.950 . S
C2455 C2454 1.297 . S
C2455 C2456 1.479 . S
C2455 H2469 0.950 . S
C2456 C2455 1.479 . S
C2456 C2457 1.375 . S
C2456 C2462 1.404 . S
C2457 C2456 1.375 . S
C2457 C2458 1.369 . S
C2457 H2470 0.950 . S
C2458 C2457 1.369 . S
C2458 C2459 1.392 . S
C2458 H2471 0.951 . S
C2459 C2458 1.392 . S
C2459 C2461 1.384 . S
H2460 C2462 0.949 . S
C2461 C2459 1.384 . S
C2461 C2462 1.385 . S
C2461 H2463 0.950 . S
C2462 C2456 1.404 . S
C2462 H2460 0.949 . S
C2462 C2461 1.385 . S
H2463 C2461 0.950 . S
H2464 C2448 0.951 . S
H2465 C2450 0.951 . S
H2466 C2452 0.951 . S
H2467 C2453 0.950 . S
H2468 C2454 0.950 . S
H2469 C2455 0.950 . S
H2470 C2457 0.950 . S
H2471 C2458 0.951 . S
C2472 C2473 1.386 . S
C2472 C2474 1.383 . S
C2472 H2488 0.951 . S
C2473 C2472 1.386 . S
C2473 C2477 1.383 . S
C2474 C2472 1.383 . S
C2474 C2475 1.402 . S
C2474 H2489 0.951 . S
C2475 C2474 1.402 . S
C2475 C2476 1.375 . S
C2475 C2478 1.481 . S
C2476 C2475 1.375 . S
C2476 C2477 1.367 . S
C2476 H2490 0.951 . S
C2477 C2473 1.383 . S
C2477 C2476 1.367 . S
C2477 H2491 0.950 . S
C2478 C2475 1.481 . S
C2478 C2479 1.297 . S
C2478 H2492 0.950 . S
C2479 C2478 1.297 . S
C2479 C2480 1.479 . S
C2479 H2493 0.950 . S
C2480 C2479 1.479 . S
C2480 C2481 1.375 . S
C2480 C2486 1.404 . S
C2481 C2480 1.375 . S
C2481 C2482 1.369 . S
C2481 H2494 0.950 . S
C2482 C2481 1.369 . S
C2482 C2483 1.392 . S
C2482 H2495 0.951 . S
C2483 C2482 1.392 . S
C2483 C2485 1.384 . S
H2484 C2486 0.949 . S
C2485 C2483 1.384 . S
C2485 C2486 1.385 . S
C2485 H2487 0.950 . S
C2486 C2480 1.404 . S
C2486 H2484 0.949 . S
C2486 C2485 1.385 . S
H2487 C2485 0.950 . S
H2488 C2472 0.951 . S
H2489 C2474 0.951 . S
H2490 C2476 0.951 . S
H2491 C2477 0.950 . S
H2492 C2478 0.950 . S
H2493 C2479 0.950 . S
H2494 C2481 0.950 . S
H2495 C2482 0.951 . S
C2496 C2497 1.386 . S
C2496 C2498 1.383 . S
C2496 H2512 0.951 . S
C2497 C2496 1.386 . S
C2497 C2501 1.383 . S
C2498 C2496 1.383 . S
C2498 C2499 1.402 . S
C2498 H2513 0.951 . S
C2499 C2498 1.402 . S
C2499 C2500 1.375 . S
C2499 C2502 1.481 . S
C2500 C2499 1.375 . S
C2500 C2501 1.367 . S
C2500 H2514 0.951 . S
C2501 C2497 1.383 . S
C2501 C2500 1.367 . S
C2501 H2515 0.950 . S
C2502 C2499 1.481 . S
C2502 C2503 1.297 . S
C2502 H2516 0.950 . S
C2503 C2502 1.297 . S
C2503 C2504 1.479 . S
C2503 H2517 0.950 . S
C2504 C2503 1.479 . S
C2504 C2505 1.375 . S
C2504 C2510 1.404 . S
C2505 C2504 1.375 . S
C2505 C2506 1.369 . S
C2505 H2518 0.950 . S
C2506 C2505 1.369 . S
C2506 C2507 1.392 . S
C2506 H2519 0.951 . S
C2507 C2506 1.392 . S
C2507 C2509 1.384 . S
H2508 C2510 0.949 . S
C2509 C2507 1.384 . S
C2509 C2510 1.385 . S
C2509 H2511 0.950 . S
C2510 C2504 1.404 . S
C2510 H2508 0.949 . S
C2510 C2509 1.385 . S
H2511 C2509 0.950 . S
H2512 C2496 0.951 . S
H2513 C2498 0.951 . S
H2514 C2500 0.951 . S
H2515 C2501 0.950 . S
H2516 C2502 0.950 . S
H2517 C2503 0.950 . S
H2518 C2505 0.950 . S
H2519 C2506 0.951 . S
C2520 C2521 1.386 1_556 S
C2520 C2522 1.383 . S
C2520 H2536 0.951 . S
C2521 C2520 1.386 1_554 S
C2521 C2525 1.383 . S
C2522 C2520 1.383 . S
C2522 C2523 1.402 . S
C2522 H2537 0.951 . S
C2523 C2522 1.402 . S
C2523 C2524 1.375 1_556 S
C2523 C2526 1.481 . S
C2524 C2523 1.375 1_554 S
C2524 C2525 1.367 . S
C2524 H2538 0.951 . S
C2525 C2521 1.383 . S
C2525 C2524 1.367 . S
C2525 H2539 0.950 . S
C2526 C2523 1.481 . S
C2526 C2527 1.297 . S
C2526 H2540 0.950 . S
C2527 C2526 1.297 . S
C2527 C2528 1.479 . S
C2527 H2541 0.950 . S
C2528 C2527 1.479 . S
C2528 C2529 1.375 . S
C2528 C2534 1.404 . S
C2529 C2528 1.375 . S
C2529 C2530 1.369 . S
C2529 H2542 0.950 . S
C2530 C2529 1.369 . S
C2530 C2531 1.392 . S
C2530 H2543 0.951 . S
C2531 C2530 1.392 . S
C2531 C2533 1.384 . S
H2532 C2534 0.949 . S
C2533 C2531 1.384 . S
C2533 C2534 1.385 . S
C2533 H2535 0.950 . S
C2534 C2528 1.404 . S
C2534 H2532 0.949 . S
C2534 C2533 1.385 . S
H2535 C2533 0.950 . S
H2536 C2520 0.951 . S
H2537 C2522 0.951 . S
H2538 C2524 0.951 . S
H2539 C2525 0.950 . S
H2540 C2526 0.950 . S
H2541 C2527 0.950 . S
H2542 C2529 0.950 . S
H2543 C2530 0.951 . S
C2544 C2545 1.386 . S
C2544 C2546 1.383 . S
C2544 H2560 0.951 . S
C2545 C2544 1.386 . S
C2545 C2549 1.383 . S
C2546 C2544 1.383 . S
C2546 C2547 1.402 . S
C2546 H2561 0.951 . S
C2547 C2546 1.402 . S
C2547 C2548 1.375 . S
C2547 C2550 1.481 . S
C2548 C2547 1.375 . S
C2548 C2549 1.367 . S
C2548 H2562 0.951 . S
C2549 C2545 1.383 . S
C2549 C2548 1.367 . S
C2549 H2563 0.950 . S
C2550 C2547 1.481 . S
C2550 C2551 1.297 . S
C2550 H2564 0.950 . S
C2551 C2550 1.297 . S
C2551 C2552 1.479 . S
C2551 H2565 0.950 . S
C2552 C2551 1.479 . S
C2552 C2553 1.375 . S
C2552 C2558 1.404 . S
C2553 C2552 1.375 . S
C2553 C2554 1.369 . S
C2553 H2566 0.950 . S
C2554 C2553 1.369 . S
C2554 C2555 1.392 . S
C2554 H2567 0.951 . S
C2555 C2554 1.392 . S
C2555 C2557 1.384 . S
H2556 C2558 0.949 . S
C2557 C2555 1.384 . S
C2557 C2558 1.385 . S
C2557 H2559 0.950 . S
C2558 C2552 1.404 . S
C2558 H2556 0.949 . S
C2558 C2557 1.385 . S
H2559 C2557 0.950 . S
H2560 C2544 0.951 . S
H2561 C2546 0.951 . S
H2562 C2548 0.951 . S
H2563 C2549 0.950 . S
H2564 C2550 0.950 . S
H2565 C2551 0.950 . S
H2566 C2553 0.950 . S
H2567 C2554 0.951 . S
C2568 C2569 1.386 . S
C2568 C2570 1.383 . S
C2568 H2584 0.951 . S
C2569 C2568 1.386 . S
C2569 C2573 1.383 . S
C2570 C2568 1.383 . S
C2570 C2571 1.402 . S
C2570 H2585 0.951 . S
C2571 C2570 1.402 . S
C2571 C2572 1.375 . S
C2571 C2574 1.481 . S
C2572 C2571 1.375 . S
C2572 C2573 1.367 . S
C2572 H2586 0.951 . S
C2573 C2569 1.383 . S
C2573 C2572 1.367 . S
C2573 H2587 0.950 . S
C2574 C2571 1.481 . S
C2574 C2575 1.297 . S
C2574 H2588 0.950 . S
C2575 C2574 1.297 . S
C2575 C2576 1.479 1_554 S
C2575 H2589 0.950 1_554 S
C2576 C2575 1.479 1_556 S
C2576 C2577 1.375 . S
C2576 C2582 1.404 1_556 S
C2577 C2576 1.375 . S
C2577 C2578 1.369 . S
C2577 H2590 0.950 . S
C2578 C2577 1.369 . S
C2578 C2579 1.392 . S
C2578 H2591 0.951 . S
C2579 C2578 1.392 . S
C2579 C2581 1.384 . S
H2580 C2582 0.949 . S
C2581 C2579 1.384 . S
C2581 C2582 1.385 1_556 S
C2581 H2583 0.950 . S
C2582 C2576 1.404 1_554 S
C2582 H2580 0.949 . S
C2582 C2581 1.385 1_554 S
H2583 C2581 0.950 . S
H2584 C2568 0.951 . S
H2585 C2570 0.951 . S
H2586 C2572 0.951 . S
H2587 C2573 0.950 . S
H2588 C2574 0.950 . S
H2589 C2575 0.950 1_556 S
H2590 C2577 0.950 . S
H2591 C2578 0.951 . S
C2592 C2593 1.386 . S
C2592 C2594 1.383 . S
C2592 H2608 0.951 . S
C2593 C2592 1.386 . S
C2593 C2597 1.383 . S
C2594 C2592 1.383 . S
C2594 C2595 1.402 1_554 S
C2594 H2609 0.951 . S
C2595 C2594 1.402 1_556 S
C2595 C2596 1.375 . S
C2595 C2598 1.481 . S
C2596 C2595 1.375 . S
C2596 C2597 1.367 1_556 S
C2596 H2610 0.951 . S
C2597 C2593 1.383 . S
C2597 C2596 1.367 1_554 S
C2597 H2611 0.937 1_554 S
C2598 C2595 1.481 . S
C2598 C2599 1.297 . S
C2598 H2612 0.950 . S
C2599 C2598 1.297 . S
C2599 C2600 1.479 . S
C2599 H2613 0.950 . S
C2600 C2599 1.479 . S
C2600 C2601 1.375 . S
C2600 C2606 1.404 . S
C2601 C2600 1.375 . S
C2601 C2602 1.369 . S
C2601 H2614 0.950 . S
C2602 C2601 1.369 . S
C2602 C2603 1.392 . S
C2602 H2615 0.951 . S
C2603 C2602 1.392 . S
C2603 C2605 1.384 . S
H2604 C2606 0.949 . S
C2605 C2603 1.384 . S
C2605 C2606 1.385 . S
C2605 H2607 0.950 . S
C2606 C2600 1.404 . S
C2606 H2604 0.949 . S
C2606 C2605 1.385 . S
H2607 C2605 0.950 . S
H2608 C2592 0.951 . S
H2609 C2594 0.951 . S
H2610 C2596 0.951 . S
H2611 C2597 0.937 1_556 S
H2612 C2598 0.950 . S
H2613 C2599 0.950 . S
H2614 C2601 0.950 . S
H2615 C2602 0.951 . S
C2616 C2617 1.386 . S
C2616 C2618 1.383 . S
C2616 H2632 0.951 . S
C2617 C2616 1.386 . S
C2617 C2621 1.383 . S
C2618 C2616 1.383 . S
C2618 C2619 1.402 . S
C2618 H2633 0.951 . S
C2619 C2618 1.402 . S
C2619 C2620 1.375 . S
C2619 C2622 1.481 . S
C2620 C2619 1.375 . S
C2620 C2621 1.367 . S
C2620 H2634 0.951 . S
C2621 C2617 1.383 . S
C2621 C2620 1.367 . S
C2621 H2635 0.950 . S
C2622 C2619 1.481 . S
C2622 C2623 1.297 . S
C2622 H2636 0.950 . S
C2623 C2622 1.297 . S
C2623 C2624 1.479 . S
C2623 H2637 0.950 . S
C2624 C2623 1.479 . S
C2624 C2625 1.375 . S
C2624 C2630 1.404 . S
C2625 C2624 1.375 . S
C2625 C2626 1.369 . S
C2625 H2638 0.950 . S
C2626 C2625 1.369 . S
C2626 C2627 1.392 . S
C2626 H2639 0.951 . S
C2627 C2626 1.392 . S
C2627 C2629 1.384 . S
H2628 C2630 0.949 . S
C2629 C2627 1.384 . S
C2629 C2630 1.385 . S
C2629 H2631 0.950 . S
C2630 C2624 1.404 . S
C2630 H2628 0.949 . S
C2630 C2629 1.385 . S
H2631 C2629 0.950 . S
H2632 C2616 0.951 . S
H2633 C2618 0.951 . S
H2634 C2620 0.951 . S
H2635 C2621 0.950 . S
H2636 C2622 0.950 . S
H2637 C2623 0.950 . S
H2638 C2625 0.950 . S
H2639 C2626 0.951 . S
C2640 C2641 1.386 . S
C2640 C2642 1.383 . S
C2640 H2656 0.951 . S
C2641 C2640 1.386 . S
C2641 C2645 1.383 . S
C2642 C2640 1.383 . S
C2642 C2643 1.402 . S
C2642 H2657 0.951 . S
C2643 C2642 1.402 . S
C2643 C2644 1.367 1_554 S
C2643 C2646 1.481 1_554 S
C2644 C2643 1.367 1_556 S
C2644 C2645 1.331 1_556 S
C2644 H2658 0.998 . S
C2645 C2641 1.383 . S
C2645 C2644 1.331 1_554 S
C2645 H2659 0.950 . S
C2646 C2643 1.481 1_556 S
C2646 C2647 1.297 . S
C2646 H2660 0.950 . S
C2647 C2646 1.297 . S
C2647 C2648 1.479 . S
C2647 H2661 0.949 1_556 S
C2648 C2647 1.479 . S
C2648 C2649 1.375 . S
C2648 C2654 1.404 . S
C2649 C2648 1.375 . S
C2649 C2650 1.369 . S
C2649 H2662 0.950 . S
C2650 C2649 1.369 . S
C2650 C2651 1.392 . S
C2650 H2663 0.951 . S
C2651 C2650 1.392 . S
C2651 C2653 1.384 . S
H2652 C2654 0.949 . S
C2653 C2651 1.384 . S
C2653 C2654 1.385 . S
C2653 H2655 0.950 . S
C2654 C2648 1.404 . S
C2654 H2652 0.949 . S
C2654 C2653 1.385 . S
H2655 C2653 0.950 . S
H2656 C2640 0.951 . S
H2657 C2642 0.951 . S
H2658 C2644 0.998 . S
H2659 C2645 0.950 . S
H2660 C2646 0.950 . S
H2661 C2647 0.949 1_554 S
H2662 C2649 0.950 . S
H2663 C2650 0.951 . S
C2664 C2665 1.386 . S
C2664 C2666 1.383 . S
C2664 H2680 0.951 . S
C2665 C2664 1.386 . S
C2665 C2669 1.383 . S
C2666 C2664 1.383 . S
C2666 C2667 1.402 . S
C2666 H2681 0.951 . S
C2667 C2666 1.402 . S
C2667 C2668 1.375 . S
C2667 C2670 1.481 . S
C2668 C2667 1.375 . S
C2668 C2669 1.367 . S
C2668 H2682 0.951 . S
C2669 C2665 1.383 . S
C2669 C2668 1.367 . S
C2669 H2683 0.950 . S
C2670 C2667 1.481 . S
C2670 C2671 1.297 . S
C2670 H2684 0.950 . S
C2671 C2670 1.297 . S
C2671 C2672 1.479 . S
C2671 H2685 0.950 . S
C2672 C2671 1.479 . S
C2672 C2673 1.375 . S
C2672 C2678 1.404 . S
C2673 C2672 1.375 . S
C2673 C2674 1.369 . S
C2673 H2686 0.950 . S
C2674 C2673 1.369 . S
C2674 C2675 1.392 . S
C2674 H2687 0.951 . S
C2675 C2674 1.392 . S
C2675 C2677 1.384 . S
H2676 C2678 0.949 . S
C2677 C2675 1.384 . S
C2677 C2678 1.385 . S
C2677 H2679 0.950 . S
C2678 C2672 1.404 . S
C2678 H2676 0.949 . S
C2678 C2677 1.385 . S
H2679 C2677 0.950 . S
H2680 C2664 0.951 . S
H2681 C2666 0.951 . S
H2682 C2668 0.951 . S
H2683 C2669 0.950 . S
H2684 C2670 0.950 . S
H2685 C2671 0.950 . S
H2686 C2673 0.950 . S
H2687 C2674 0.951 . S
C2688 C2689 1.386 . S
C2688 C2690 1.383 . S
C2688 H2704 0.951 . S
C2689 C2688 1.386 . S
C2689 C2693 1.383 . S
C2690 C2688 1.383 . S
C2690 C2691 1.402 . S
C2690 H2705 0.951 . S
C2691 C2690 1.402 . S
C2691 C2692 1.375 . S
C2691 C2694 1.481 . S
C2692 C2691 1.375 . S
C2692 C2693 1.367 . S
C2692 H2706 0.951 . S
C2693 C2689 1.383 . S
C2693 C2692 1.367 . S
C2693 H2707 0.950 . S
C2694 C2691 1.481 . S
C2694 C2695 1.297 . S
C2694 H2708 0.950 . S
C2695 C2694 1.297 . S
C2695 C2696 1.479 . S
C2695 H2709 0.950 . S
C2696 C2695 1.479 . S
C2696 C2697 1.375 . S
C2696 C2702 1.404 . S
C2697 C2696 1.375 . S
C2697 C2698 1.369 . S
C2697 H2710 0.950 . S
C2698 C2697 1.369 . S
C2698 C2699 1.392 . S
C2698 H2711 0.951 . S
C2699 C2698 1.392 . S
C2699 C2701 1.384 . S
H2700 C2702 0.949 . S
C2701 C2699 1.384 . S
C2701 C2702 1.385 . S
C2701 H2703 0.950 . S
C2702 C2696 1.404 . S
C2702 H2700 0.949 . S
C2702 C2701 1.385 . S
H2703 C2701 0.950 . S
H2704 C2688 0.951 . S
H2705 C2690 0.951 . S
H2706 C2692 0.951 . S
H2707 C2693 0.950 . S
H2708 C2694 0.950 . S
H2709 C2695 0.950 . S
H2710 C2697 0.950 . S
H2711 C2698 0.951 . S
C2712 C2713 1.386 . S
C2712 C2714 1.383 . S
C2712 H2728 0.951 . S
C2713 C2712 1.386 . S
C2713 C2717 1.383 . S
C2714 C2712 1.383 . S
C2714 C2715 1.402 . S
C2714 H2729 0.951 . S
C2715 C2714 1.402 . S
C2715 C2716 1.375 . S
C2715 C2718 1.481 . S
C2716 C2715 1.375 . S
C2716 C2717 1.367 . S
C2716 H2730 0.951 . S
C2717 C2713 1.383 . S
C2717 C2716 1.367 . S
C2717 H2731 0.950 . S
C2718 C2715 1.481 . S
C2718 C2719 1.297 . S
C2718 H2732 0.950 . S
C2719 C2718 1.297 . S
C2719 C2720 1.479 . S
C2719 H2733 0.950 . S
C2720 C2719 1.479 . S
C2720 C2721 1.375 . S
C2720 C2726 1.404 . S
C2721 C2720 1.375 . S
C2721 C2722 1.369 . S
C2721 H2734 0.950 . S
C2722 C2721 1.369 . S
C2722 C2723 1.392 . S
C2722 H2735 0.951 . S
C2723 C2722 1.392 . S
C2723 C2725 1.384 . S
H2724 C2726 0.949 . S
C2725 C2723 1.384 . S
C2725 C2726 1.385 . S
C2725 H2727 0.950 . S
C2726 C2720 1.404 . S
C2726 H2724 0.949 . S
C2726 C2725 1.385 . S
H2727 C2725 0.950 . S
H2728 C2712 0.951 . S
H2729 C2714 0.951 . S
H2730 C2716 0.951 . S
H2731 C2717 0.950 . S
H2732 C2718 0.950 . S
H2733 C2719 0.950 . S
H2734 C2721 0.950 . S
H2735 C2722 0.951 . S
C2736 C2737 1.386 . S
C2736 C2738 1.383 . S
C2736 H2752 0.951 . S
C2737 C2736 1.386 . S
C2737 C2741 1.383 . S
C2738 C2736 1.383 . S
C2738 C2739 1.402 . S
C2738 H2753 0.951 . S
C2739 C2738 1.402 . S
C2739 C2740 1.375 . S
C2739 C2742 1.481 . S
C2740 C2739 1.375 . S
C2740 C2741 1.367 . S
C2740 H2754 0.951 . S
C2741 C2737 1.383 . S
C2741 C2740 1.367 . S
C2741 H2755 0.950 . S
C2742 C2739 1.481 . S
C2742 C2743 1.297 . S
C2742 H2756 0.950 . S
C2743 C2742 1.297 . S
C2743 C2744 1.479 . S
C2743 H2757 0.950 . S
C2744 C2743 1.479 . S
C2744 C2745 1.375 . S
C2744 C2750 1.404 . S
C2745 C2744 1.375 . S
C2745 C2746 1.369 . S
C2745 H2758 0.950 . S
C2746 C2745 1.369 . S
C2746 C2747 1.392 . S
C2746 H2759 0.951 . S
C2747 C2746 1.392 . S
C2747 C2749 1.384 . S
H2748 C2750 0.949 . S
C2749 C2747 1.384 . S
C2749 C2750 1.385 . S
C2749 H2751 0.950 . S
C2750 C2744 1.404 . S
C2750 H2748 0.949 . S
C2750 C2749 1.385 . S
H2751 C2749 0.950 . S
H2752 C2736 0.951 . S
H2753 C2738 0.951 . S
H2754 C2740 0.951 . S
H2755 C2741 0.950 . S
H2756 C2742 0.950 . S
H2757 C2743 0.950 . S
H2758 C2745 0.950 . S
H2759 C2746 0.951 . S
C2760 C2761 1.386 . S
C2760 C2762 1.383 . S
C2760 H2776 0.951 . S
C2761 C2760 1.386 . S
C2761 C2765 1.383 . S
C2762 C2760 1.383 . S
C2762 C2763 1.402 . S
C2762 H2777 0.951 . S
C2763 C2762 1.402 . S
C2763 C2764 1.375 . S
C2763 C2766 1.481 . S
C2764 C2763 1.375 . S
C2764 C2765 1.367 . S
C2764 H2778 0.951 . S
C2765 C2761 1.383 . S
C2765 C2764 1.367 . S
C2765 H2779 0.950 . S
C2766 C2763 1.481 . S
C2766 C2767 1.297 . S
C2766 H2780 0.950 . S
C2767 C2766 1.297 . S
C2767 C2768 1.479 . S
C2767 H2781 0.950 . S
C2768 C2767 1.479 . S
C2768 C2769 1.375 . S
C2768 C2774 1.404 . S
C2769 C2768 1.375 . S
C2769 C2770 1.369 . S
C2769 H2782 0.950 . S
C2770 C2769 1.369 . S
C2770 C2771 1.392 . S
C2770 H2783 0.951 . S
C2771 C2770 1.392 . S
C2771 C2773 1.384 . S
H2772 C2774 0.949 . S
C2773 C2771 1.384 . S
C2773 C2774 1.385 . S
C2773 H2775 0.950 . S
C2774 C2768 1.404 . S
C2774 H2772 0.949 . S
C2774 C2773 1.385 . S
H2775 C2773 0.950 . S
H2776 C2760 0.951 . S
H2777 C2762 0.951 . S
H2778 C2764 0.951 . S
H2779 C2765 0.950 . S
H2780 C2766 0.950 . S
H2781 C2767 0.950 . S
H2782 C2769 0.950 . S
H2783 C2770 0.951 . S
C2784 C2785 1.386 . S
C2784 C2786 1.383 . S
C2784 H2800 0.951 . S
C2785 C2784 1.386 . S
C2785 C2789 1.383 . S
C2786 C2784 1.383 . S
C2786 C2787 1.402 . S
C2786 H2801 0.951 . S
C2787 C2786 1.402 . S
C2787 C2788 1.375 . S
C2787 C2790 1.481 . S
C2788 C2787 1.375 . S
C2788 C2789 1.367 . S
C2788 H2802 0.951 . S
C2789 C2785 1.383 . S
C2789 C2788 1.367 . S
C2789 H2803 0.950 . S
C2790 C2787 1.481 . S
C2790 C2791 1.297 . S
C2790 H2804 0.950 . S
C2791 C2790 1.297 . S
C2791 C2792 1.479 . S
C2791 H2805 0.950 . S
C2792 C2791 1.479 . S
C2792 C2793 1.375 . S
C2792 C2798 1.404 . S
C2793 C2792 1.375 . S
C2793 C2794 1.369 . S
C2793 H2806 0.950 . S
C2794 C2793 1.369 . S
C2794 C2795 1.392 . S
C2794 H2807 0.951 . S
C2795 C2794 1.392 . S
C2795 C2797 1.384 . S
H2796 C2798 0.949 . S
C2797 C2795 1.384 . S
C2797 C2798 1.385 . S
C2797 H2799 0.950 . S
C2798 C2792 1.404 . S
C2798 H2796 0.949 . S
C2798 C2797 1.385 . S
H2799 C2797 0.950 . S
H2800 C2784 0.951 . S
H2801 C2786 0.951 . S
H2802 C2788 0.951 . S
H2803 C2789 0.950 . S
H2804 C2790 0.950 . S
H2805 C2791 0.950 . S
H2806 C2793 0.950 . S
H2807 C2794 0.951 . S
C2808 C2809 1.386 . S
C2808 C2810 1.383 . S
C2808 H2824 0.951 . S
C2809 C2808 1.386 . S
C2809 C2813 1.383 . S
C2810 C2808 1.383 . S
C2810 C2811 1.402 . S
C2810 H2825 0.951 . S
C2811 C2810 1.402 . S
C2811 C2812 1.375 . S
C2811 C2814 1.481 . S
C2812 C2811 1.375 . S
C2812 C2813 1.367 . S
C2812 H2826 0.951 . S
C2813 C2809 1.383 . S
C2813 C2812 1.367 . S
C2813 H2827 0.950 . S
C2814 C2811 1.481 . S
C2814 C2815 1.297 . S
C2814 H2828 0.950 . S
C2815 C2814 1.297 . S
C2815 C2816 1.479 . S
C2815 H2829 0.950 . S
C2816 C2815 1.479 . S
C2816 C2817 1.375 . S
C2816 C2822 1.404 . S
C2817 C2816 1.375 . S
C2817 C2818 1.369 . S
C2817 H2830 0.950 . S
C2818 C2817 1.369 . S
C2818 C2819 1.392 . S
C2818 H2831 0.951 . S
C2819 C2818 1.392 . S
C2819 C2821 1.384 . S
H2820 C2822 0.930 1_655 S
C2821 C2819 1.384 . S
C2821 C2822 1.385 . S
C2821 H2823 0.950 1_455 S
C2822 C2816 1.404 . S
C2822 H2820 0.930 1_455 S
C2822 C2821 1.385 . S
H2823 C2821 0.950 1_655 S
H2824 C2808 0.951 . S
H2825 C2810 0.951 . S
H2826 C2812 0.951 . S
H2827 C2813 0.950 . S
H2828 C2814 0.950 . S
H2829 C2815 0.950 . S
H2830 C2817 0.950 . S
H2831 C2818 0.951 . S
C2832 C2833 1.386 . S
C2832 C2834 1.383 . S
C2832 H2848 0.951 . S
C2833 C2832 1.386 . S
C2833 C2837 1.383 . S
C2834 C2832 1.383 . S
C2834 C2835 1.402 . S
C2834 H2849 0.951 . S
C2835 C2834 1.402 . S
C2835 C2836 1.375 . S
C2835 C2838 1.481 . S
C2836 C2835 1.375 . S
C2836 C2837 1.367 . S
C2836 H2850 0.951 . S
C2837 C2833 1.383 . S
C2837 C2836 1.367 . S
C2837 H2851 0.950 . S
C2838 C2835 1.481 . S
C2838 C2839 1.297 . S
C2838 H2852 0.950 . S
C2839 C2838 1.297 . S
C2839 C2840 1.479 . S
C2839 H2853 0.950 . S
C2840 C2839 1.479 . S
C2840 C2841 1.375 . S
C2840 C2846 1.404 . S
C2841 C2840 1.375 . S
C2841 C2842 1.369 . S
C2841 H2854 0.950 . S
C2842 C2841 1.369 . S
C2842 C2843 1.392 . S
C2842 H2855 0.951 . S
C2843 C2842 1.392 . S
C2843 C2845 1.384 . S
H2844 C2846 0.949 . S
C2845 C2843 1.384 . S
C2845 C2846 1.385 . S
C2845 H2847 0.950 . S
C2846 C2840 1.404 . S
C2846 H2844 0.949 . S
C2846 C2845 1.385 . S
H2847 C2845 0.950 . S
H2848 C2832 0.951 . S
H2849 C2834 0.951 . S
H2850 C2836 0.951 . S
H2851 C2837 0.950 . S
H2852 C2838 0.950 . S
H2853 C2839 0.950 . S
H2854 C2841 0.950 . S
H2855 C2842 0.951 . S
C2856 C2857 1.386 . S
C2856 C2858 1.383 . S
C2856 H2872 0.951 . S
C2857 C2856 1.386 . S
C2857 C2861 1.383 . S
C2858 C2856 1.383 . S
C2858 C2859 1.402 . S
C2858 H2873 0.951 . S
C2859 C2858 1.402 . S
C2859 C2860 1.375 . S
C2859 C2862 1.481 . S
C2860 C2859 1.375 . S
C2860 C2861 1.367 . S
C2860 H2874 0.951 . S
C2861 C2857 1.383 . S
C2861 C2860 1.367 . S
C2861 H2875 0.950 . S
C2862 C2859 1.481 . S
C2862 C2863 1.297 . S
C2862 H2876 0.950 . S
C2863 C2862 1.297 . S
C2863 C2864 1.479 . S
C2863 H2877 0.950 . S
C2864 C2863 1.479 . S
C2864 C2865 1.375 . S
C2864 C2870 1.404 . S
C2865 C2864 1.375 . S
C2865 C2866 1.369 . S
C2865 H2878 0.931 1_565 S
C2866 C2865 1.369 . S
C2866 C2867 1.392 . S
C2866 H2879 0.951 . S
C2867 C2866 1.392 . S
C2867 C2869 1.384 . S
H2868 C2870 0.949 . S
C2869 C2867 1.384 . S
C2869 C2870 1.385 . S
C2869 H2871 0.950 . S
C2870 C2864 1.404 . S
C2870 H2868 0.949 . S
C2870 C2869 1.385 . S
H2871 C2869 0.950 . S
H2872 C2856 0.951 . S
H2873 C2858 0.951 . S
H2874 C2860 0.951 . S
H2875 C2861 0.950 . S
H2876 C2862 0.950 . S
H2877 C2863 0.950 . S
H2878 C2865 0.931 1_545 S
H2879 C2866 0.951 . S
C2880 C2881 1.386 . S
C2880 C2882 1.383 . S
C2880 H2896 0.951 . S
C2881 C2880 1.386 . S
C2881 C2885 1.383 . S
C2882 C2880 1.383 . S
C2882 C2883 1.402 . S
C2882 H2897 0.951 . S
C2883 C2882 1.402 . S
C2883 C2884 1.375 . S
C2883 C2886 1.481 . S
C2884 C2883 1.375 . S
C2884 C2885 1.367 . S
C2884 H2898 0.951 . S
C2885 C2881 1.383 . S
C2885 C2884 1.367 . S
C2885 H2899 0.950 . S
C2886 C2883 1.481 . S
C2886 C2887 1.297 . S
C2886 H2900 0.950 . S
C2887 C2886 1.297 . S
C2887 C2888 1.479 . S
C2887 H2901 0.950 . S
C2888 C2887 1.479 . S
C2888 C2889 1.375 . S
C2888 C2894 1.404 . S
C2889 C2888 1.375 . S
C2889 C2890 1.369 . S
C2889 H2902 0.950 . S
C2890 C2889 1.369 . S
C2890 C2891 1.392 . S
C2890 H2903 0.951 1_565 S
C2891 C2890 1.392 . S
C2891 C2893 1.384 . S
H2892 C2894 0.949 . S
C2893 C2891 1.384 . S
C2893 C2894 1.385 . S
C2893 H2895 0.950 . S
C2894 C2888 1.404 . S
C2894 H2892 0.949 . S
C2894 C2893 1.385 . S
H2895 C2893 0.950 . S
H2896 C2880 0.951 . S
H2897 C2882 0.951 . S
H2898 C2884 0.951 . S
H2899 C2885 0.950 . S
H2900 C2886 0.950 . S
H2901 C2887 0.950 . S
H2902 C2889 0.950 . S
H2903 C2890 0.951 1_545 S
C2904 C2905 1.386 . S
C2904 C2906 1.383 . S
C2904 H2920 0.951 . S
C2905 C2904 1.386 . S
C2905 C2909 1.383 . S
C2906 C2904 1.383 . S
C2906 C2907 1.402 . S
C2906 H2921 0.951 . S
C2907 C2906 1.402 . S
C2907 C2908 1.375 . S
C2907 C2910 1.481 . S
C2908 C2907 1.375 . S
C2908 C2909 1.367 . S
C2908 H2922 0.951 1_455 S
C2909 C2905 1.383 . S
C2909 C2908 1.367 . S
C2909 H2923 0.950 . S
C2910 C2907 1.481 . S
C2910 C2911 1.297 . S
C2910 H2924 0.950 1_455 S
C2911 C2910 1.297 . S
C2911 C2912 1.479 . S
C2911 H2925 0.950 . S
C2912 C2911 1.479 . S
C2912 C2913 1.375 . S
C2912 C2918 1.404 1_455 S
C2913 C2912 1.375 . S
C2913 C2914 1.369 . S
C2913 H2926 0.950 . S
C2914 C2913 1.369 . S
C2914 C2915 1.392 1_455 S
C2914 H2927 0.951 . S
C2915 C2914 1.392 1_655 S
C2915 C2917 1.384 . S
H2916 C2918 0.949 . S
C2917 C2915 1.384 . S
C2917 C2918 1.385 . S
C2917 H2919 0.950 . S
C2918 C2912 1.404 1_655 S
C2918 H2916 0.949 . S
C2918 C2917 1.385 . S
H2919 C2917 0.950 . S
H2920 C2904 0.951 . S
H2921 C2906 0.951 . S
H2922 C2908 0.951 1_655 S
H2923 C2909 0.950 . S
H2924 C2910 0.950 1_655 S
H2925 C2911 0.950 . S
H2926 C2913 0.950 . S
H2927 C2914 0.951 . S
C2928 C2929 1.386 . S
C2928 C2930 1.383 . S
C2928 H2944 0.951 . S
C2929 C2928 1.386 . S
C2929 C2933 1.383 . S
C2930 C2928 1.383 . S
C2930 C2931 1.402 . S
C2930 H2945 0.951 . S
C2931 C2930 1.402 . S
C2931 C2932 1.375 . S
C2931 C2934 1.481 . S
C2932 C2931 1.375 . S
C2932 C2933 1.367 . S
C2932 H2946 0.951 . S
C2933 C2929 1.383 . S
C2933 C2932 1.367 . S
C2933 H2947 0.950 . S
C2934 C2931 1.481 . S
C2934 C2935 1.297 . S
C2934 H2948 0.950 . S
C2935 C2934 1.297 . S
C2935 C2936 1.479 . S
C2935 H2949 0.950 . S
C2936 C2935 1.479 . S
C2936 C2937 1.375 . S
C2936 C2942 1.404 . S
C2937 C2936 1.375 . S
C2937 C2938 1.369 . S
C2937 H2950 0.950 . S
C2938 C2937 1.369 . S
C2938 C2939 1.392 . S
C2938 H2951 0.951 . S
C2939 C2938 1.392 . S
C2939 C2941 1.384 . S
H2940 C2942 0.949 . S
C2941 C2939 1.384 . S
C2941 C2942 1.385 . S
C2941 H2943 0.950 . S
C2942 C2936 1.404 . S
C2942 H2940 0.949 . S
C2942 C2941 1.385 . S
H2943 C2941 0.950 . S
H2944 C2928 0.951 . S
H2945 C2930 0.951 . S
H2946 C2932 0.951 . S
H2947 C2933 0.950 . S
H2948 C2934 0.950 . S
H2949 C2935 0.950 . S
H2950 C2937 0.950 . S
H2951 C2938 0.951 . S
C2952 C2953 1.386 . S
C2952 C2954 1.383 . S
C2952 H2968 0.951 . S
C2953 C2952 1.386 . S
C2953 C2957 1.383 . S
C2954 C2952 1.383 . S
C2954 C2955 1.402 . S
C2954 H2969 0.951 . S
C2955 C2954 1.402 . S
C2955 C2956 1.375 . S
C2955 C2958 1.481 . S
C2956 C2955 1.375 . S
C2956 C2957 1.367 . S
C2956 H2970 0.951 . S
C2957 C2953 1.383 . S
C2957 C2956 1.367 . S
C2957 H2971 0.950 . S
C2958 C2955 1.481 . S
C2958 C2959 1.297 . S
C2958 H2972 0.950 . S
C2959 C2958 1.297 . S
C2959 C2960 1.479 . S
C2959 H2973 0.950 . S
C2960 C2959 1.479 . S
C2960 C2961 1.375 . S
C2960 C2966 1.404 . S
C2961 C2960 1.375 . S
C2961 C2962 1.369 . S
C2961 H2974 0.950 . S
C2962 C2961 1.369 . S
C2962 C2963 1.392 . S
C2962 H2975 0.951 . S
C2963 C2962 1.392 . S
C2963 C2965 1.384 . S
H2964 C2966 0.949 . S
C2965 C2963 1.384 . S
C2965 C2966 1.385 . S
C2965 H2967 0.950 . S
C2966 C2960 1.404 . S
C2966 H2964 0.949 . S
C2966 C2965 1.385 . S
H2967 C2965 0.950 . S
H2968 C2952 0.951 . S
H2969 C2954 0.951 . S
H2970 C2956 0.951 . S
H2971 C2957 0.950 . S
H2972 C2958 0.950 . S
H2973 C2959 0.950 . S
H2974 C2961 0.950 . S
H2975 C2962 0.951 . S
C2976 C2977 1.386 . S
C2976 C2978 1.383 . S
C2976 H2992 0.951 . S
C2977 C2976 1.386 . S
C2977 C2981 1.383 . S
C2978 C2976 1.383 . S
C2978 C2979 1.402 . S
C2978 H2993 0.951 . S
C2979 C2978 1.402 . S
C2979 C2980 1.375 . S
C2979 C2982 1.481 . S
C2980 C2979 1.375 . S
C2980 C2981 1.367 . S
C2980 H2994 0.951 . S
C2981 C2977 1.383 . S
C2981 C2980 1.367 . S
C2981 H2995 0.950 . S
C2982 C2979 1.481 . S
C2982 C2983 1.297 . S
C2982 H2996 0.950 . S
C2983 C2982 1.297 . S
C2983 C2984 1.479 . S
C2983 H2997 0.950 . S
C2984 C2983 1.479 . S
C2984 C2985 1.375 . S
C2984 C2990 1.404 . S
C2985 C2984 1.375 . S
C2985 C2986 1.369 . S
C2985 H2998 0.950 . S
C2986 C2985 1.369 . S
C2986 C2987 1.392 . S
C2986 H2999 0.951 . S
C2987 C2986 1.392 . S
C2987 C2989 1.384 . S
H2988 C2990 0.949 . S
C2989 C2987 1.384 . S
C2989 C2990 1.385 . S
C2989 H2991 0.950 . S
C2990 C2984 1.404 . S
C2990 H2988 0.949 . S
C2990 C2989 1.385 . S
H2991 C2989 0.950 . S
H2992 C2976 0.951 . S
H2993 C2978 0.951 . S
H2994 C2980 0.951 . S
H2995 C2981 0.950 . S
H2996 C2982 0.950 . S
H2997 C2983 0.950 . S
H2998 C2985 0.950 . S
H2999 C2986 0.951 . S
C3000 C3001 1.386 . S
C3000 C3002 1.383 . S
C3000 H3016 0.951 . S
C3001 C3000 1.386 . S
C3001 C3005 1.383 . S
C3002 C3000 1.383 . S
C3002 C3003 1.402 . S
C3002 H3017 0.951 . S
C3003 C3002 1.402 . S
C3003 C3004 1.375 . S
C3003 C3006 1.481 . S
C3004 C3003 1.375 . S
C3004 C3005 1.367 . S
C3004 H3018 0.951 . S
C3005 C3001 1.383 . S
C3005 C3004 1.367 . S
C3005 H3019 0.950 . S
C3006 C3003 1.481 . S
C3006 C3007 1.297 . S
C3006 H3020 0.950 . S
C3007 C3006 1.297 . S
C3007 C3008 1.479 . S
C3007 H3021 0.950 . S
C3008 C3007 1.479 . S
C3008 C3009 1.375 . S
C3008 C3014 1.404 . S
C3009 C3008 1.375 . S
C3009 C3010 1.369 . S
C3009 H3022 0.950 . S
C3010 C3009 1.369 . S
C3010 C3011 1.392 . S
C3010 H3023 0.951 . S
C3011 C3010 1.392 . S
C3011 C3013 1.384 . S
H3012 C3014 0.949 . S
C3013 C3011 1.384 . S
C3013 C3014 1.385 . S
C3013 H3015 0.950 . S
C3014 C3008 1.404 . S
C3014 H3012 0.949 . S
C3014 C3013 1.385 . S
H3015 C3013 0.950 . S
H3016 C3000 0.951 . S
H3017 C3002 0.951 . S
H3018 C3004 0.951 . S
H3019 C3005 0.950 . S
H3020 C3006 0.950 . S
H3021 C3007 0.950 . S
H3022 C3009 0.950 . S
H3023 C3010 0.951 . S
C3024 C3025 1.386 . S
C3024 C3026 1.383 . S
C3024 H3040 0.951 . S
C3025 C3024 1.386 . S
C3025 C3029 1.383 . S
C3026 C3024 1.383 . S
C3026 C3027 1.402 . S
C3026 H3041 0.951 . S
C3027 C3026 1.402 . S
C3027 C3028 1.375 . S
C3027 C3030 1.481 . S
C3028 C3027 1.375 . S
C3028 C3029 1.367 . S
C3028 H3042 0.951 . S
C3029 C3025 1.383 . S
C3029 C3028 1.367 . S
C3029 H3043 0.950 . S
C3030 C3027 1.481 . S
C3030 C3031 1.297 . S
C3030 H3044 0.950 . S
C3031 C3030 1.297 . S
C3031 C3032 1.479 . S
C3031 H3045 0.950 . S
C3032 C3031 1.479 . S
C3032 C3033 1.375 . S
C3032 C3038 1.404 . S
C3033 C3032 1.375 . S
C3033 C3034 1.369 . S
C3033 H3046 0.950 . S
C3034 C3033 1.369 . S
C3034 C3035 1.392 . S
C3034 H3047 0.951 . S
C3035 C3034 1.392 . S
C3035 C3037 1.384 . S
H3036 C3038 0.949 1_565 S
C3037 C3035 1.384 . S
C3037 C3038 1.385 . S
C3037 H3039 0.950 1_545 S
C3038 C3032 1.404 . S
C3038 H3036 0.949 1_545 S
C3038 C3037 1.385 . S
H3039 C3037 0.950 1_565 S
H3040 C3024 0.951 . S
H3041 C3026 0.951 . S
H3042 C3028 0.951 . S
H3043 C3029 0.950 . S
H3044 C3030 0.950 . S
H3045 C3031 0.950 . S
H3046 C3033 0.950 . S
H3047 C3034 0.951 . S
C3048 C3049 1.386 . S
C3048 C3050 1.383 . S
C3048 H3064 0.951 . S
C3049 C3048 1.386 . S
C3049 C3053 1.383 . S
C3050 C3048 1.383 . S
C3050 C3051 1.402 . S
C3050 H3065 0.951 . S
C3051 C3050 1.402 . S
C3051 C3052 1.375 . S
C3051 C3054 1.481 . S
C3052 C3051 1.375 . S
C3052 C3053 1.367 . S
C3052 H3066 0.951 . S
C3053 C3049 1.383 . S
C3053 C3052 1.367 . S
C3053 H3067 0.950 . S
C3054 C3051 1.481 . S
C3054 C3055 1.297 . S
C3054 H3068 0.950 . S
C3055 C3054 1.297 . S
C3055 C3056 1.479 . S
C3055 H3069 0.950 . S
C3056 C3055 1.479 . S
C3056 C3057 1.347 1_655 S
C3056 C3062 1.404 . S
C3057 C3056 1.347 1_455 S
C3057 C3058 1.345 . S
C3057 H3070 1.004 . S
C3058 C3057 1.345 . S
C3058 C3059 1.392 1_455 S
C3058 H3071 0.951 . S
C3059 C3058 1.392 1_655 S
C3059 C3061 1.384 . S
H3060 C3062 0.949 . S
C3061 C3059 1.384 . S
C3061 C3062 1.385 . S
C3061 H3063 0.950 . S
C3062 C3056 1.404 . S
C3062 H3060 0.949 . S
C3062 C3061 1.385 . S
H3063 C3061 0.950 . S
H3064 C3048 0.951 . S
H3065 C3050 0.951 . S
H3066 C3052 0.951 . S
H3067 C3053 0.950 . S
H3068 C3054 0.950 . S
H3069 C3055 0.950 . S
H3070 C3057 1.004 . S
H3071 C3058 0.951 . S
C3072 C3073 1.386 . S
C3072 C3074 1.383 . S
C3072 H3088 0.951 . S
C3073 C3072 1.386 . S
C3073 C3077 1.383 . S
C3074 C3072 1.383 . S
C3074 C3075 1.402 . S
C3074 H3089 0.951 . S
C3075 C3074 1.402 . S
C3075 C3076 1.375 . S
C3075 C3078 1.481 . S
C3076 C3075 1.375 . S
C3076 C3077 1.367 . S
C3076 H3090 0.951 . S
C3077 C3073 1.383 . S
C3077 C3076 1.367 . S
C3077 H3091 0.950 . S
C3078 C3075 1.481 . S
C3078 C3079 1.297 . S
C3078 H3092 0.950 . S
C3079 C3078 1.297 . S
C3079 C3080 1.479 . S
C3079 H3093 0.950 . S
C3080 C3079 1.479 . S
C3080 C3081 1.375 . S
C3080 C3086 1.404 . S
C3081 C3080 1.375 . S
C3081 C3082 1.369 . S
C3081 H3094 0.950 . S
C3082 C3081 1.369 . S
C3082 C3083 1.392 . S
C3082 H3095 0.951 . S
C3083 C3082 1.392 . S
C3083 C3085 1.384 . S
H3084 C3086 0.949 . S
C3085 C3083 1.384 . S
C3085 C3086 1.385 . S
C3085 H3087 0.950 . S
C3086 C3080 1.404 . S
C3086 H3084 0.949 . S
C3086 C3085 1.385 . S
H3087 C3085 0.950 . S
H3088 C3072 0.951 . S
H3089 C3074 0.951 . S
H3090 C3076 0.951 . S
H3091 C3077 0.950 . S
H3092 C3078 0.950 . S
H3093 C3079 0.950 . S
H3094 C3081 0.950 . S
H3095 C3082 0.951 . S
C3096 C3097 1.386 . S
C3096 C3098 1.383 . S
C3096 H3112 0.951 . S
C3097 C3096 1.386 . S
C3097 C3101 1.383 . S
C3098 C3096 1.383 . S
C3098 C3099 1.402 . S
C3098 H3113 0.951 . S
C3099 C3098 1.402 . S
C3099 C3100 1.375 . S
C3099 C3102 1.481 . S
C3100 C3099 1.375 . S
C3100 C3101 1.367 . S
C3100 H3114 0.951 . S
C3101 C3097 1.383 . S
C3101 C3100 1.367 . S
C3101 H3115 0.950 . S
C3102 C3099 1.481 . S
C3102 C3103 1.297 . S
C3102 H3116 0.950 . S
C3103 C3102 1.297 . S
C3103 C3104 1.479 . S
C3103 H3117 0.950 . S
C3104 C3103 1.479 . S
C3104 C3105 1.375 . S
C3104 C3110 1.404 . S
C3105 C3104 1.375 . S
C3105 C3106 1.369 . S
C3105 H3118 0.950 . S
C3106 C3105 1.369 . S
C3106 C3107 1.392 . S
C3106 H3119 0.951 . S
C3107 C3106 1.392 . S
C3107 C3109 1.384 . S
H3108 C3110 0.949 . S
C3109 C3107 1.384 . S
C3109 C3110 1.385 . S
C3109 H3111 0.950 . S
C3110 C3104 1.404 . S
C3110 H3108 0.949 . S
C3110 C3109 1.385 . S
H3111 C3109 0.950 . S
H3112 C3096 0.951 . S
H3113 C3098 0.951 . S
H3114 C3100 0.951 . S
H3115 C3101 0.950 . S
H3116 C3102 0.950 . S
H3117 C3103 0.950 . S
H3118 C3105 0.950 . S
H3119 C3106 0.951 . S
C3120 C3121 1.386 . S
C3120 C3122 1.383 . S
C3120 H3136 0.951 . S
C3121 C3120 1.386 . S
C3121 C3125 1.383 . S
C3122 C3120 1.383 . S
C3122 C3123 1.402 . S
C3122 H3137 0.951 . S
C3123 C3122 1.402 . S
C3123 C3124 1.375 . S
C3123 C3126 1.481 . S
C3124 C3123 1.375 . S
C3124 C3125 1.367 . S
C3124 H3138 0.951 . S
C3125 C3121 1.383 . S
C3125 C3124 1.367 . S
C3125 H3139 0.950 . S
C3126 C3123 1.481 . S
C3126 C3127 1.297 . S
C3126 H3140 0.950 . S
C3127 C3126 1.297 . S
C3127 C3128 1.479 . S
C3127 H3141 0.950 . S
C3128 C3127 1.479 . S
C3128 C3129 1.375 . S
C3128 C3134 1.404 . S
C3129 C3128 1.375 . S
C3129 C3130 1.369 . S
C3129 H3142 0.950 . S
C3130 C3129 1.369 . S
C3130 C3131 1.392 . S
C3130 H3143 0.951 . S
C3131 C3130 1.392 . S
C3131 C3133 1.384 . S
H3132 C3134 0.949 . S
C3133 C3131 1.384 . S
C3133 C3134 1.385 . S
C3133 H3135 0.950 . S
C3134 C3128 1.404 . S
C3134 H3132 0.949 . S
C3134 C3133 1.385 . S
H3135 C3133 0.950 . S
H3136 C3120 0.951 . S
H3137 C3122 0.951 . S
H3138 C3124 0.951 . S
H3139 C3125 0.950 . S
H3140 C3126 0.950 . S
H3141 C3127 0.950 . S
H3142 C3129 0.950 . S
H3143 C3130 0.951 . S
C3144 C3145 1.386 . S
C3144 C3146 1.383 . S
C3144 H3160 0.951 . S
C3145 C3144 1.386 . S
C3145 C3149 1.383 . S
C3146 C3144 1.383 . S
C3146 C3147 1.402 . S
C3146 H3161 0.951 . S
C3147 C3146 1.402 . S
C3147 C3148 1.375 . S
C3147 C3150 1.481 . S
C3148 C3147 1.375 . S
C3148 C3149 1.367 . S
C3148 H3162 0.951 . S
C3149 C3145 1.383 . S
C3149 C3148 1.367 . S
C3149 H3163 0.950 . S
C3150 C3147 1.481 . S
C3150 C3151 1.297 . S
C3150 H3164 0.950 . S
C3151 C3150 1.297 . S
C3151 C3152 1.479 . S
C3151 H3165 0.950 . S
C3152 C3151 1.479 . S
C3152 C3153 1.375 . S
C3152 C3158 1.404 . S
C3153 C3152 1.375 . S
C3153 C3154 1.369 . S
C3153 H3166 0.950 . S
C3154 C3153 1.369 . S
C3154 C3155 1.392 . S
C3154 H3167 0.951 . S
C3155 C3154 1.392 . S
C3155 C3157 1.384 . S
H3156 C3158 0.949 . S
C3157 C3155 1.384 . S
C3157 C3158 1.385 . S
C3157 H3159 0.950 . S
C3158 C3152 1.404 . S
C3158 H3156 0.949 . S
C3158 C3157 1.385 . S
H3159 C3157 0.950 . S
H3160 C3144 0.951 . S
H3161 C3146 0.951 . S
H3162 C3148 0.951 . S
H3163 C3149 0.950 . S
H3164 C3150 0.950 . S
H3165 C3151 0.950 . S
H3166 C3153 0.950 . S
H3167 C3154 0.951 . S
C3168 C3169 1.386 . S
C3168 C3170 1.383 . S
C3168 H3184 0.951 . S
C3169 C3168 1.386 . S
C3169 C3173 1.383 . S
C3170 C3168 1.383 . S
C3170 C3171 1.402 . S
C3170 H3185 0.951 . S
C3171 C3170 1.402 . S
C3171 C3172 1.375 . S
C3171 C3174 1.481 . S
C3172 C3171 1.375 . S
C3172 C3173 1.367 . S
C3172 H3186 0.951 . S
C3173 C3169 1.383 . S
C3173 C3172 1.367 . S
C3173 H3187 0.950 . S
C3174 C3171 1.481 . S
C3174 C3175 1.297 . S
C3174 H3188 0.950 . S
C3175 C3174 1.297 . S
C3175 C3176 1.479 . S
C3175 H3189 0.950 . S
C3176 C3175 1.479 . S
C3176 C3177 1.375 . S
C3176 C3182 1.404 . S
C3177 C3176 1.375 . S
C3177 C3178 1.369 . S
C3177 H3190 0.950 . S
C3178 C3177 1.369 . S
C3178 C3179 1.392 . S
C3178 H3191 0.951 . S
C3179 C3178 1.392 . S
C3179 C3181 1.384 . S
H3180 C3182 0.949 . S
C3181 C3179 1.384 . S
C3181 C3182 1.385 . S
C3181 H3183 0.950 . S
C3182 C3176 1.404 . S
C3182 H3180 0.949 . S
C3182 C3181 1.385 . S
H3183 C3181 0.950 . S
H3184 C3168 0.951 . S
H3185 C3170 0.951 . S
H3186 C3172 0.951 . S
H3187 C3173 0.950 . S
H3188 C3174 0.950 . S
H3189 C3175 0.950 . S
H3190 C3177 0.950 . S
H3191 C3178 0.951 . S
C3192 C3193 1.386 . S
C3192 C3194 1.383 . S
C3192 H3208 0.951 . S
C3193 C3192 1.386 . S
C3193 C3197 1.383 . S
C3194 C3192 1.383 . S
C3194 C3195 1.402 . S
C3194 H3209 0.951 . S
C3195 C3194 1.402 . S
C3195 C3196 1.375 . S
C3195 C3198 1.481 . S
C3196 C3195 1.375 . S
C3196 C3197 1.367 . S
C3196 H3210 0.951 . S
C3197 C3193 1.383 . S
C3197 C3196 1.367 . S
C3197 H3211 0.950 . S
C3198 C3195 1.481 . S
C3198 C3199 1.297 . S
C3198 H3212 0.950 . S
C3199 C3198 1.297 . S
C3199 C3200 1.479 . S
C3199 H3213 0.950 . S
C3200 C3199 1.479 . S
C3200 C3201 1.375 . S
C3200 C3206 1.404 . S
C3201 C3200 1.375 . S
C3201 C3202 1.369 . S
C3201 H3214 0.950 . S
C3202 C3201 1.369 . S
C3202 C3203 1.392 . S
C3202 H3215 0.951 . S
C3203 C3202 1.392 . S
C3203 C3205 1.384 . S
H3204 C3206 0.949 . S
C3205 C3203 1.384 . S
C3205 C3206 1.385 . S
C3205 H3207 0.950 . S
C3206 C3200 1.404 . S
C3206 H3204 0.949 . S
C3206 C3205 1.385 . S
H3207 C3205 0.950 . S
H3208 C3192 0.951 . S
H3209 C3194 0.951 . S
H3210 C3196 0.951 . S
H3211 C3197 0.950 . S
H3212 C3198 0.950 . S
H3213 C3199 0.950 . S
H3214 C3201 0.950 . S
H3215 C3202 0.951 . S
C3216 C3217 1.386 . S
C3216 C3218 1.383 . S
C3216 H3232 0.951 . S
C3217 C3216 1.386 . S
C3217 C3221 1.383 . S
C3218 C3216 1.383 . S
C3218 C3219 1.402 . S
C3218 H3233 0.951 . S
C3219 C3218 1.402 . S
C3219 C3220 1.375 . S
C3219 C3222 1.481 . S
C3220 C3219 1.375 . S
C3220 C3221 1.367 . S
C3220 H3234 0.951 . S
C3221 C3217 1.383 . S
C3221 C3220 1.367 . S
C3221 H3235 0.950 1_455 S
C3222 C3219 1.481 . S
C3222 C3223 1.297 . S
C3222 H3236 0.950 . S
C3223 C3222 1.297 . S
C3223 C3224 1.479 . S
C3223 H3237 0.950 . S
C3224 C3223 1.479 . S
C3224 C3225 1.375 . S
C3224 C3230 1.404 . S
C3225 C3224 1.375 . S
C3225 C3226 1.369 . S
C3225 H3238 0.950 . S
C3226 C3225 1.369 . S
C3226 C3227 1.392 . S
C3226 H3239 0.951 . S
C3227 C3226 1.392 . S
C3227 C3229 1.384 . S
H3228 C3230 0.949 . S
C3229 C3227 1.384 . S
C3229 C3230 1.385 . S
C3229 H3231 0.950 . S
C3230 C3224 1.404 . S
C3230 H3228 0.949 . S
C3230 C3229 1.385 . S
H3231 C3229 0.950 . S
H3232 C3216 0.951 . S
H3233 C3218 0.951 . S
H3234 C3220 0.951 . S
H3235 C3221 0.950 1_655 S
H3236 C3222 0.950 . S
H3237 C3223 0.950 . S
H3238 C3225 0.950 . S
H3239 C3226 0.951 . S
C3240 C3241 1.386 . S
C3240 C3242 1.383 . S
C3240 H3256 0.951 . S
C3241 C3240 1.386 . S
C3241 C3245 1.383 . S
C3242 C3240 1.383 . S
C3242 C3243 1.402 . S
C3242 H3257 0.951 . S
C3243 C3242 1.402 . S
C3243 C3244 1.375 . S
C3243 C3246 1.481 . S
C3244 C3243 1.375 . S
C3244 C3245 1.367 . S
C3244 H3258 0.951 . S
C3245 C3241 1.383 . S
C3245 C3244 1.367 . S
C3245 H3259 0.950 . S
C3246 C3243 1.481 . S
C3246 C3247 1.297 . S
C3246 H3260 0.950 . S
C3247 C3246 1.297 . S
C3247 C3248 1.479 . S
C3247 H3261 0.950 . S
C3248 C3247 1.479 . S
C3248 C3249 1.375 . S
C3248 C3254 1.404 . S
C3249 C3248 1.375 . S
C3249 C3250 1.369 . S
C3249 H3262 0.950 . S
C3250 C3249 1.369 . S
C3250 C3251 1.392 . S
C3250 H3263 0.951 . S
C3251 C3250 1.392 . S
C3251 C3253 1.384 1_655 S
H3252 C3254 0.949 1_455 S
C3253 C3251 1.384 1_455 S
C3253 C3254 1.385 1_455 S
C3253 H3255 0.950 . S
C3254 C3248 1.404 . S
C3254 H3252 0.949 1_655 S
C3254 C3253 1.385 1_655 S
H3255 C3253 0.950 . S
H3256 C3240 0.951 . S
H3257 C3242 0.951 . S
H3258 C3244 0.951 . S
H3259 C3245 0.950 . S
H3260 C3246 0.950 . S
H3261 C3247 0.950 . S
H3262 C3249 0.950 . S
H3263 C3250 0.951 . S
C3264 C3265 1.386 . S
C3264 C3266 1.383 . S
C3264 H3280 0.951 . S
C3265 C3264 1.386 . S
C3265 C3269 1.383 . S
C3266 C3264 1.383 . S
C3266 C3267 1.402 . S
C3266 H3281 0.951 . S
C3267 C3266 1.402 . S
C3267 C3268 1.375 . S
C3267 C3270 1.481 . S
C3268 C3267 1.375 . S
C3268 C3269 1.367 . S
C3268 H3282 0.951 . S
C3269 C3265 1.383 . S
C3269 C3268 1.367 . S
C3269 H3283 0.950 . S
C3270 C3267 1.481 . S
C3270 C3271 1.297 . S
C3270 H3284 0.950 . S
C3271 C3270 1.297 . S
C3271 C3272 1.479 . S
C3271 H3285 0.950 . S
C3272 C3271 1.479 . S
C3272 C3273 1.375 . S
C3272 C3278 1.404 . S
C3273 C3272 1.375 . S
C3273 C3274 1.369 . S
C3273 H3286 0.950 . S
C3274 C3273 1.369 . S
C3274 C3275 1.392 . S
C3274 H3287 0.951 . S
C3275 C3274 1.392 . S
C3275 C3277 1.384 . S
H3276 C3278 0.949 . S
C3277 C3275 1.384 . S
C3277 C3278 1.385 . S
C3277 H3279 0.950 . S
C3278 C3272 1.404 . S
C3278 H3276 0.949 . S
C3278 C3277 1.385 . S
H3279 C3277 0.950 . S
H3280 C3264 0.951 . S
H3281 C3266 0.951 . S
H3282 C3268 0.951 . S
H3283 C3269 0.950 . S
H3284 C3270 0.950 . S
H3285 C3271 0.950 . S
H3286 C3273 0.950 . S
H3287 C3274 0.951 . S
C3288 C3289 1.386 . S
C3288 C3290 1.383 . S
C3288 H3304 0.951 . S
C3289 C3288 1.386 . S
C3289 C3293 1.383 . S
C3290 C3288 1.383 . S
C3290 C3291 1.402 . S
C3290 H3305 0.951 . S
C3291 C3290 1.402 . S
C3291 C3292 1.375 . S
C3291 C3294 1.481 . S
C3292 C3291 1.375 . S
C3292 C3293 1.367 . S
C3292 H3306 0.951 . S
C3293 C3289 1.383 . S
C3293 C3292 1.367 . S
C3293 H3307 0.950 . S
C3294 C3291 1.481 . S
C3294 C3295 1.297 . S
C3294 H3308 0.950 . S
C3295 C3294 1.297 . S
C3295 C3296 1.479 . S
C3295 H3309 0.950 . S
C3296 C3295 1.479 . S
C3296 C3297 1.375 . S
C3296 C3302 1.404 . S
C3297 C3296 1.375 . S
C3297 C3298 1.369 . S
C3297 H3310 0.950 . S
C3298 C3297 1.369 . S
C3298 C3299 1.392 . S
C3298 H3311 0.951 . S
C3299 C3298 1.392 . S
C3299 C3301 1.390 . S
H3300 C3302 0.949 . S
C3301 C3299 1.390 . S
C3301 C3302 1.389 . S
C3301 H3303 0.945 1_545 S
C3302 C3296 1.404 . S
C3302 H3300 0.949 . S
C3302 C3301 1.389 . S
H3303 C3301 0.945 1_565 S
H3304 C3288 0.951 . S
H3305 C3290 0.951 . S
H3306 C3292 0.951 . S
H3307 C3293 0.950 . S
H3308 C3294 0.950 . S
H3309 C3295 0.950 . S
H3310 C3297 0.950 . S
H3311 C3298 0.951 . S
C1585 C4 1.164 . S
C1595 C981 1.072 . S
C1609 C26 1.565 . S
C1619 C1061 1.516 . S
C1643 C1129 1.145 . S
C1633 C32 1.228 . S
C1657 C40 1.639 . S
C1667 C1209 1.625 . S
C1681 C12 1.452 . S
C1691 C1283 1.440 . S
C1705 C18 1.490 . S
C1715 C1351 1.501 . S
C1729 C46 1.034 . S
C1739 C1277 0.942 . S
C1763 C1357 1.436 . S
C1753 C68 1.439 . S
C1787 C1203 1.265 . S
C1777 C74 1.254 . S
C1801 C82 1.584 . S
C1811 C1135 1.614 1_545 S
C1835 C987 1.443 1_655 S
C1825 C54 1.474 . S
C1849 C60 1.339 . S
C1859 C1055 1.380 . S
C1873 C88 1.337 . S
C1883 C1425 1.209 . S
C1897 C110 1.602 . S
C1907 C1505 1.506 . S
C1931 C1573 1.478 . S
C1921 C116 1.519 . S
C1945 C124 1.733 . S
C1955 C321 1.737 . S
C1969 C96 1.622 . S
C1979 C395 1.600 . S
C1993 C102 1.502 . S
C2003 C463 1.430 . S
C2017 C130 1.014 . S
C2027 C389 1.059 . S
C2041 C152 1.518 . S
C2051 C469 1.520 . S
C2075 C315 1.403 . S
C2065 C158 1.368 . S
C2099 C1579 1.728 . S
C2089 C166 1.717 . S
C2123 C1431 1.431 . S
C2113 C138 1.440 . S
C2147 C1499 1.386 . S
C2137 C144 1.393 . S
C2161 C172 1.281 . S
C2171 C537 1.152 . S
C2185 C194 1.652 . S
C2195 C617 1.589 . S
C2209 C200 1.537 . S
C2219 C685 1.471 . S
C2233 C208 1.804 . S
C2243 C765 1.799 . S
C2267 C839 1.582 . S
C2257 C180 1.604 . S
C2291 C907 1.540 . S
C2281 C186 1.546 . S
C2315 C833 1.167 . S
C2305 C214 1.160 . S
C2339 C913 1.476 . S
C2329 C236 1.476 . S
C2353 C242 1.315 . S
C2363 C759 1.276 . S
C2387 C691 1.621 . S
C2377 C250 1.620 . S
C2401 C222 1.513 . S
C2411 C543 1.509 . S
C2435 C611 1.392 . S
C2425 C228 1.379 . S
C2459 C291 1.920 . S
C2449 C5 1.712 . S
C2473 C25 1.335 . S
C2483 C365 1.334 . S
C2507 C451 1.442 . S
C2497 C33 1.345 . S
C2531 C525 1.064 . S
C2521 C39 1.045 . S
C2555 C587 1.490 . S
C2545 C11 1.484 1_556 S
C2579 C673 1.463 . S
C2569 C19 1.208 . S
C2593 C47 1.902 . S
C2603 C661 2.060 . S
C2617 C67 1.545 . S
C2627 C513 1.489 . S
C2641 C75 1.539 . S
C2651 C599 1.676 . S
C2665 C81 1.341 . S
C2675 C377 1.200 . S
C2699 C439 1.635 . S
C2689 C53 1.690 . S
C2713 C61 1.384 . S
C2723 C303 1.630 . S
C2747 C735 1.814 . S
C2737 C89 1.682 . S
C2761 C109 1.482 1_545 S
C2771 C809 1.461 . S
C2785 C117 1.262 1_655 S
C2795 C895 1.486 . S
C2819 C969 0.805 . S
C2809 C123 0.870 . S
C2833 C95 1.367 . S
C2843 C1031 1.325 . S
C2857 C103 1.082 . S
C2867 C1117 1.264 . S
C2881 C131 1.509 . S
C2891 C1105 1.626 1_565 S
C2905 C151 1.265 . S
C2915 C957 1.205 . S
C2939 C1043 1.540 . S
C2929 C159 1.397 . S
C2953 C165 1.326 . S
C2963 C821 1.241 . S
C2977 C137 1.705 1_545 S
C2987 C883 1.648 . S
C3011 C747 1.687 . S
C3001 C145 1.588 . S
C3035 C1179 1.676 . S
C3025 C173 1.472 . S
C3049 C193 1.110 . S
C3059 C1253 1.077 . S
C3073 C201 1.214 . S
C3083 C1339 1.317 . S
C3107 C1413 1.068 . S
C3097 C207 1.044 . S
C3131 C1475 1.516 . S
C3121 C179 1.539 1_565 S
C3145 C187 1.293 . S
C3155 C1561 1.541 . S
C3169 C215 1.787 . S
C3179 C1549 1.934 . S
C3193 C235 1.660 1_565 S
C3203 C1401 1.618 . S
C3227 C1487 1.669 . S
C3217 C243 1.463 . S
C3251 C1265 0.936 . S
C3241 C249 0.925 . S
C3275 C1327 1.556 . S
C3265 C221 1.571 . S
C3289 C229 1.162 . S
C3299 C1191 1.344 1_545 S
