# Generated by pormake.
# Topology dag, (6,3)-cn, num edge types: 1
# Building blocks:
#     Node 0, Type 0, BuildingBlock: OJICUG_clean_sbu_0, # of connection points: 6
#     Node 1, Type 0, BuildingBlock: OJICUG_clean_sbu_0, # of connection points: 6
#     Node 2, Type 0, BuildingBlock: OJICUG_clean_sbu_0, # of connection points: 6
#     Node 3, Type 0, BuildingBlock: OJICUG_clean_sbu_0, # of connection points: 6
#     Node 4, Type 1, BuildingBlock: KAKCAD_clean_linker_0, # of connection points: 3
#     Node 5, Type 1, BuildingBlock: KAKCAD_clean_linker_0, # of connection points: 3
#     Node 6, Type 1, BuildingBlock: KAKCAD_clean_linker_0, # of connection points: 3
#     Node 7, Type 1, BuildingBlock: KAKCAD_clean_linker_0, # of connection points: 3
#     Node 8, Type 1, BuildingBlock: KAKCAD_clean_linker_0, # of connection points: 3
#     Node 9, Type 1, BuildingBlock: KAKCAD_clean_linker_0, # of connection points: 3
#     Node 10, Type 1, BuildingBlock: KAKCAD_clean_linker_0, # of connection points: 3
#     Node 11, Type 1, BuildingBlock: KAKCAD_clean_linker_0, # of connection points: 3
#     Edge 12, Type (0, 1), BuildingBlock: MIFKUJ_clean_linker_0, # of connection points: 2
#     Edge 13, Type (0, 1), BuildingBlock: MIFKUJ_clean_linker_0, # of connection points: 2
#     Edge 14, Type (0, 1), BuildingBlock: MIFKUJ_clean_linker_0, # of connection points: 2
#     Edge 15, Type (0, 1), BuildingBlock: MIFKUJ_clean_linker_0, # of connection points: 2
#     Edge 16, Type (0, 1), BuildingBlock: MIFKUJ_clean_linker_0, # of connection points: 2
#     Edge 17, Type (0, 1), BuildingBlock: MIFKUJ_clean_linker_0, # of connection points: 2
#     Edge 18, Type (0, 1), BuildingBlock: MIFKUJ_clean_linker_0, # of connection points: 2
#     Edge 19, Type (0, 1), BuildingBlock: MIFKUJ_clean_linker_0, # of connection points: 2
#     Edge 20, Type (0, 1), BuildingBlock: MIFKUJ_clean_linker_0, # of connection points: 2
#     Edge 21, Type (0, 1), BuildingBlock: MIFKUJ_clean_linker_0, # of connection points: 2
#     Edge 22, Type (0, 1), BuildingBlock: MIFKUJ_clean_linker_0, # of connection points: 2
#     Edge 23, Type (0, 1), BuildingBlock: MIFKUJ_clean_linker_0, # of connection points: 2
#     Edge 24, Type (0, 1), BuildingBlock: MIFKUJ_clean_linker_0, # of connection points: 2
#     Edge 25, Type (0, 1), BuildingBlock: MIFKUJ_clean_linker_0, # of connection points: 2
#     Edge 26, Type (0, 1), BuildingBlock: MIFKUJ_clean_linker_0, # of connection points: 2
#     Edge 27, Type (0, 1), BuildingBlock: MIFKUJ_clean_linker_0, # of connection points: 2
#     Edge 28, Type (0, 1), BuildingBlock: MIFKUJ_clean_linker_0, # of connection points: 2
#     Edge 29, Type (0, 1), BuildingBlock: MIFKUJ_clean_linker_0, # of connection points: 2
#     Edge 30, Type (0, 1), BuildingBlock: MIFKUJ_clean_linker_0, # of connection points: 2
#     Edge 31, Type (0, 1), BuildingBlock: MIFKUJ_clean_linker_0, # of connection points: 2
#     Edge 32, Type (0, 1), BuildingBlock: MIFKUJ_clean_linker_0, # of connection points: 2
#     Edge 33, Type (0, 1), BuildingBlock: MIFKUJ_clean_linker_0, # of connection points: 2
#     Edge 34, Type (0, 1), BuildingBlock: MIFKUJ_clean_linker_0, # of connection points: 2
#     Edge 35, Type (0, 1), BuildingBlock: MIFKUJ_clean_linker_0, # of connection points: 2
# Relax obj value: 0.252
# Max RMSD: 0.198
# Mean RMSD: 0.164
data_MOF--net-dag--node1-OJICUG_clean_sbu_0--node2-KAKCAD_clean_linker_0--edge1-MIFKUJ_clean_linker_0
_symmetry_space_group_name_H-M    P1
_symmetry_Int_Tables_number       1
_symmetry_cell_setting            triclinic
loop_
_symmetry_equiv_pos_as_xyz
'x, y, z'
_cell_length_a     54.550398
_cell_length_b     56.983829
_cell_length_c     55.997159
_cell_angle_alpha  95.157348
_cell_angle_beta   90.109426
_cell_angle_gamma 90.055696
loop_
_atom_site_label
_atom_site_type_symbol
_atom_site_fract_x
_atom_site_fract_y
_atom_site_fract_z
_atom_type_partial_charge
Sc0 Sc 0.12872 0.84456 0.04823 0.0
Sc1 Sc 0.14619 0.78515 0.048 0.0
Sc2 Sc 0.18386 0.83025 0.07564 0.0
O3 O 0.15295 0.81993 0.05722 0.0
C4 C 0.18044 0.86946 0.03955 0.0
C5 C 0.12941 0.80925 0.00098 0.0
C6 C 0.20369 0.78768 0.03963 0.0
C7 C 0.09263 0.80335 0.06168 0.0
C8 C 0.14348 0.86516 0.1005 0.0
C9 C 0.1668 0.78576 0.10167 0.0
O10 O 0.15716 0.86826 0.03836 0.0
O11 O 0.13513 0.79131 0.01184 0.0
O12 O 0.20695 0.80528 0.05492 0.0
O13 O 0.09721 0.8243 0.05697 0.0
O14 O 0.16508 0.85675 0.099 0.0
O15 O 0.15638 0.77541 0.08323 0.0
O16 O 0.12747 0.86105 0.08417 0.0
O17 O 0.10879 0.78724 0.06034 0.0
O18 O 0.17681 0.80592 0.10182 0.0
O19 O 0.12749 0.82984 0.01163 0.0
O20 O 0.19327 0.85564 0.05103 0.0
O21 O 0.18265 0.77908 0.03448 0.0
Sc22 Sc 0.68872 0.66952 0.478 0.0
Sc23 Sc 0.64875 0.71287 0.50522 0.0
Sc24 Sc 0.63876 0.65291 0.51216 0.0
O25 O 0.65882 0.67847 0.49851 0.0
C26 C 0.64968 0.63008 0.45933 0.0
C27 C 0.66565 0.71061 0.45041 0.0
C28 C 0.59715 0.68817 0.49626 0.0
C29 C 0.70684 0.7154 0.51066 0.0
C30 C 0.69328 0.63339 0.51779 0.0
C31 C 0.63884 0.69232 0.55573 0.0
O32 O 0.66958 0.64139 0.45726 0.0
O33 O 0.65539 0.721 0.46879 0.0
O34 O 0.60442 0.66883 0.50351 0.0
O35 O 0.71085 0.69707 0.49645 0.0
O36 O 0.6705 0.63383 0.52246 0.0
O37 O 0.64038 0.70936 0.5426 0.0
O38 O 0.70289 0.64578 0.50251 0.0
O39 O 0.6854 0.72285 0.51608 0.0
O40 O 0.63935 0.67085 0.54745 0.0
O41 O 0.67772 0.69165 0.45096 0.0
O42 O 0.63637 0.63265 0.47798 0.0
O43 O 0.61129 0.70572 0.49477 0.0
Sc44 Sc 0.8528 0.21672 0.00798 0.0
Sc45 Sc 0.81229 0.17594 0.97741 0.0
Sc46 Sc 0.86537 0.15581 0.00498 0.0
O47 O 0.84346 0.18283 0.99687 0.0
C48 C 0.90497 0.19464 0.99366 0.0
C49 C 0.83277 0.22173 0.95516 0.0
C50 C 0.85075 0.14056 0.95062 0.0
C51 C 0.79474 0.21666 0.01631 0.0
C52 C 0.86663 0.18944 0.0537 0.0
C53 C 0.81222 0.13338 0.01073 0.0
O54 O 0.89051 0.21208 0.99705 0.0
O55 O 0.81946 0.20344 0.95483 0.0
O56 O 0.8646 0.13959 0.96878 0.0
O57 O 0.81613 0.22508 0.02021 0.0
O58 O 0.86855 0.16942 0.04185 0.0
O59 O 0.80138 0.14716 0.99755 0.0
O60 O 0.86111 0.20813 0.04403 0.0
O61 O 0.79042 0.1989 0.00147 0.0
O62 O 0.83509 0.13459 0.01499 0.0
O63 O 0.84596 0.22894 0.97309 0.0
O64 O 0.89844 0.17358 0.99608 0.0
O65 O 0.83123 0.15277 0.95098 0.0
Sc66 Sc 0.36668 0.34379 0.54592 0.0
Sc67 Sc 0.31775 0.32411 0.57964 0.0
Sc68 Sc 0.3564 0.28283 0.54738 0.0
O69 O 0.34693 0.31688 0.55763 0.0
C70 C 0.36421 0.30798 0.499 0.0
C71 C 0.31203 0.36408 0.54398 0.0
C72 C 0.29802 0.28079 0.54446 0.0
C73 C 0.35715 0.36234 0.60046 0.0
C74 C 0.40882 0.30665 0.55566 0.0
C75 C 0.34186 0.28021 0.60228 0.0
O76 O 0.36536 0.32871 0.50942 0.0
O77 O 0.303 0.35026 0.55822 0.0
O78 O 0.31919 0.27319 0.53822 0.0
O79 O 0.36989 0.36142 0.58141 0.0
O80 O 0.39464 0.28892 0.55555 0.0
O81 O 0.32925 0.299 0.60369 0.0
O82 O 0.40131 0.32707 0.55178 0.0
O83 O 0.33761 0.3504 0.60219 0.0
O84 O 0.35216 0.27179 0.58304 0.0
O85 O 0.33462 0.36396 0.53846 0.0
O86 O 0.36188 0.28972 0.51035 0.0
O87 O 0.29473 0.29865 0.55944 0.0
C88 C 0.98881 0.18426 0.29291 0.0
C89 C 0.96756 0.17266 0.28384 0.0
C90 C 0.00466 0.17328 0.30808 0.0
C91 C 0.99965 0.15039 0.31424 0.0
C92 C 0.97774 0.13933 0.30621 0.0
C93 C 0.96179 0.15039 0.29125 0.0
C94 C 0.0184 0.13719 0.32675 0.0
C95 C 0.03086 0.14771 0.34689 0.0
C96 C 0.05018 0.13587 0.35735 0.0
C97 C 0.0566 0.11308 0.34759 0.0
C98 C 0.0445 0.10236 0.32725 0.0
C99 C 0.02532 0.11459 0.31709 0.0
C100 C 0.05304 0.07933 0.31536 0.0
C101 C 0.07817 0.07378 0.31422 0.0
C102 C 0.03629 0.06334 0.30373 0.0
C103 C 0.04451 0.04302 0.2903 0.0
C104 C 0.0697 0.03786 0.28852 0.0
C105 C 0.06502 0.14791 0.37718 0.0
C106 C 0.07137 0.17182 0.37686 0.0
C107 C 0.07441 0.13526 0.39562 0.0
C108 C 0.09062 0.14596 0.41263 0.0
C109 C 0.09756 0.1696 0.41175 0.0
C110 C 0.08736 0.18257 0.39403 0.0
C111 C 0.08635 0.05323 0.30119 0.0
H112 H 0.99362 0.20148 0.28757 0.0
H113 H 0.02149 0.18216 0.31389 0.0
H114 H 0.97339 0.12174 0.31083 0.0
H115 H 0.94566 0.14093 0.28436 0.0
H116 H 0.02559 0.1652 0.35426 0.0
H117 H 0.01657 0.10712 0.30075 0.0
H118 H 0.07162 0.10397 0.35539 0.0
H119 H 0.09173 0.08569 0.32266 0.0
H120 H 0.01677 0.06672 0.30455 0.0
H121 H 0.03105 0.03185 0.28067 0.0
H122 H 0.06485 0.18203 0.36273 0.0
H123 H 0.06954 0.11696 0.39669 0.0
H124 H 0.10584 0.04965 0.30075 0.0
H125 H 0.09262 0.20075 0.39277 0.0
H126 H 0.09799 0.13565 0.42631 0.0
C127 C 0.41859 0.55113 0.79419 0.0
C128 C 0.43693 0.53528 0.78558 0.0
C129 C 0.4248 0.57259 0.8068 0.0
C130 C 0.4495 0.57867 0.81112 0.0
C131 C 0.4678 0.56239 0.80335 0.0
C132 C 0.46158 0.54094 0.7907 0.0
C133 C 0.4561 0.60262 0.82198 0.0
C134 C 0.44223 0.61368 0.84084 0.0
C135 C 0.44646 0.63738 0.8492 0.0
C136 C 0.4657 0.64966 0.8391 0.0
C137 C 0.48015 0.63871 0.82055 0.0
C138 C 0.47507 0.61524 0.81207 0.0
C139 C 0.4994 0.65203 0.80862 0.0
C140 C 0.49546 0.67546 0.80352 0.0
C141 C 0.52118 0.64076 0.80062 0.0
C142 C 0.53783 0.65205 0.78662 0.0
C143 C 0.53337 0.67509 0.78051 0.0
C144 C 0.42967 0.64968 0.86719 0.0
C145 C 0.40444 0.64459 0.86653 0.0
C146 C 0.43839 0.66714 0.88452 0.0
C147 C 0.42219 0.67949 0.90041 0.0
C148 C 0.39692 0.67452 0.89951 0.0
C149 C 0.38836 0.65664 0.8826 0.0
C150 C 0.51231 0.68689 0.78974 0.0
H151 H 0.39944 0.54746 0.79026 0.0
H152 H 0.41026 0.58485 0.8122 0.0
H153 H 0.48698 0.56641 0.80671 0.0
H154 H 0.47611 0.52892 0.7846 0.0
H155 H 0.42788 0.60381 0.8488 0.0
H156 H 0.48508 0.60712 0.79681 0.0
H157 H 0.46903 0.66795 0.84521 0.0
H158 H 0.47884 0.68467 0.80925 0.0
H159 H 0.52504 0.62288 0.80458 0.0
H160 H 0.55362 0.64219 0.77966 0.0
H161 H 0.39687 0.63159 0.85324 0.0
H162 H 0.45773 0.67135 0.8858 0.0
H163 H 0.50845 0.70476 0.78574 0.0
H164 H 0.36914 0.6519 0.88165 0.0
H165 H 0.42947 0.69323 0.91307 0.0
C166 C 0.82674 0.79336 0.13649 0.0
C167 C 0.84729 0.80831 0.13676 0.0
C168 C 0.80336 0.80262 0.14151 0.0
C169 C 0.80008 0.82702 0.14668 0.0
C170 C 0.82068 0.84187 0.14724 0.0
C171 C 0.84397 0.83264 0.14231 0.0
C172 C 0.77529 0.83719 0.1512 0.0
C173 C 0.7588 0.82701 0.16647 0.0
C174 C 0.73573 0.83733 0.17174 0.0
C175 C 0.72925 0.85797 0.16115 0.0
C176 C 0.74581 0.86857 0.14626 0.0
C177 C 0.76857 0.85789 0.14112 0.0
C178 C 0.74034 0.89165 0.13726 0.0
C179 C 0.71816 0.89568 0.1255 0.0
C180 C 0.75789 0.90972 0.13997 0.0
C181 C 0.75371 0.93119 0.13061 0.0
C182 C 0.73189 0.93511 0.11822 0.0
C183 C 0.71951 0.82759 0.18983 0.0
C184 C 0.71841 0.80318 0.1918 0.0
C185 C 0.70644 0.84272 0.20647 0.0
C186 C 0.69355 0.83377 0.22519 0.0
C187 C 0.6937 0.80949 0.228 0.0
C188 C 0.70585 0.79426 0.21073 0.0
C189 C 0.71405 0.91721 0.11587 0.0
H190 H 0.82874 0.77452 0.13242 0.0
H191 H 0.78779 0.79077 0.14088 0.0
H192 H 0.81881 0.8607 0.1515 0.0
H193 H 0.85934 0.8447 0.14236 0.0
H194 H 0.76452 0.8117 0.17519 0.0
H195 H 0.78117 0.86585 0.12924 0.0
H196 H 0.71168 0.86628 0.16507 0.0
H197 H 0.70435 0.88199 0.12319 0.0
H198 H 0.77503 0.90716 0.1492 0.0
H199 H 0.76797 0.94448 0.13243 0.0
H200 H 0.72782 0.79093 0.17906 0.0
H201 H 0.70698 0.86164 0.20575 0.0
H202 H 0.69703 0.91979 0.10646 0.0
H203 H 0.70664 0.77549 0.21233 0.0
H204 H 0.68399 0.84601 0.23782 0.0
C205 C 0.67158 0.30553 0.63405 0.0
C206 C 0.66527 0.30681 0.60987 0.0
C207 C 0.69491 0.3123 0.64241 0.0
C208 C 0.71249 0.32042 0.62674 0.0
C209 C 0.70653 0.32062 0.60232 0.0
C210 C 0.68316 0.31393 0.59399 0.0
C211 C 0.73606 0.33056 0.63628 0.0
C212 C 0.74864 0.32043 0.6547 0.0
C213 C 0.76922 0.33163 0.66585 0.0
C214 C 0.77751 0.35297 0.65791 0.0
C215 C 0.76545 0.36306 0.63919 0.0
C216 C 0.74485 0.35171 0.62844 0.0
C217 C 0.77272 0.38654 0.6322 0.0
C218 C 0.77581 0.40554 0.64975 0.0
C219 C 0.77438 0.39059 0.60788 0.0
C220 C 0.77796 0.41338 0.60121 0.0
C221 C 0.77968 0.43257 0.61874 0.0
C222 C 0.78098 0.3219 0.68682 0.0
C223 C 0.76648 0.31229 0.70425 0.0
C224 C 0.80656 0.32285 0.69007 0.0
C225 C 0.81733 0.31456 0.71039 0.0
C226 C 0.80274 0.305 0.72776 0.0
C227 C 0.77723 0.30387 0.72441 0.0
C228 C 0.77914 0.42837 0.64307 0.0
H229 H 0.65811 0.30039 0.64679 0.0
H230 H 0.69874 0.31224 0.66139 0.0
H231 H 0.71978 0.32641 0.58972 0.0
H232 H 0.67894 0.31474 0.57517 0.0
H233 H 0.74221 0.30388 0.66054 0.0
H234 H 0.73478 0.36018 0.61488 0.0
H235 H 0.79293 0.36213 0.66671 0.0
H236 H 0.77442 0.40294 0.66863 0.0
H237 H 0.77217 0.37621 0.59402 0.0
H238 H 0.77807 0.41612 0.58231 0.0
H239 H 0.74669 0.31178 0.70266 0.0
H240 H 0.81829 0.32992 0.67686 0.0
H241 H 0.78053 0.44286 0.65693 0.0
H242 H 0.76547 0.29701 0.73772 0.0
H243 H 0.83707 0.31549 0.71246 0.0
C244 C 0.53828 0.46829 0.25643 0.0
C245 C 0.56275 0.47227 0.26366 0.0
C246 C 0.53143 0.44707 0.24366 0.0
C247 C 0.54893 0.42942 0.23776 0.0
C248 C 0.57361 0.43395 0.24378 0.0
C249 C 0.58044 0.4551 0.2566 0.0
C250 C 0.5413 0.40548 0.22779 0.0
C251 C 0.55551 0.39265 0.21027 0.0
C252 C 0.55059 0.36874 0.20371 0.0
C253 C 0.53101 0.35772 0.21452 0.0
C254 C 0.51622 0.37047 0.23156 0.0
C255 C 0.52136 0.39436 0.23794 0.0
C256 C 0.49686 0.35852 0.2445 0.0
C257 C 0.47362 0.36882 0.24794 0.0
C258 C 0.50217 0.33772 0.25515 0.0
C259 C 0.48501 0.32807 0.26998 0.0
C260 C 0.46206 0.33888 0.27428 0.0
C261 C 0.56717 0.35489 0.18702 0.0
C262 C 0.5731 0.36276 0.16469 0.0
C263 C 0.57807 0.33422 0.19391 0.0
C264 C 0.5951 0.32195 0.17899 0.0
C265 C 0.60119 0.32991 0.15674 0.0
C266 C 0.58981 0.35022 0.14954 0.0
C267 C 0.45634 0.35901 0.26253 0.0
H268 H 0.52427 0.48132 0.26123 0.0
H269 H 0.51231 0.44419 0.23899 0.0
H270 H 0.58749 0.42059 0.23983 0.0
H271 H 0.59938 0.45737 0.26216 0.0
H272 H 0.57108 0.40098 0.20246 0.0
H273 H 0.5108 0.40385 0.25207 0.0
H274 H 0.52738 0.33917 0.20976 0.0
H275 H 0.46901 0.38473 0.23971 0.0
H276 H 0.52006 0.32958 0.253 0.0
H277 H 0.49026 0.3128 0.27898 0.0
H278 H 0.56489 0.37866 0.15902 0.0
H279 H 0.57393 0.32793 0.21115 0.0
H280 H 0.43868 0.36753 0.26501 0.0
H281 H 0.59435 0.35674 0.1325 0.0
H282 H 0.60359 0.30627 0.18485 0.0
C283 C 0.16513 0.19538 0.90852 0.0
C284 C 0.15833 0.19912 0.93275 0.0
C285 C 0.1889 0.18805 0.90223 0.0
C286 C 0.20635 0.18442 0.92006 0.0
C287 C 0.19987 0.18945 0.94426 0.0
C288 C 0.17611 0.19665 0.95054 0.0
C289 C 0.23049 0.17359 0.91359 0.0
C290 C 0.24357 0.17987 0.89356 0.0
C291 C 0.26552 0.16836 0.88667 0.0
C292 C 0.27451 0.15045 0.89992 0.0
C293 C 0.26139 0.1436 0.9197 0.0
C294 C 0.23959 0.15547 0.92653 0.0
C295 C 0.26849 0.12235 0.9316 0.0
C296 C 0.27488 0.10143 0.91777 0.0
C297 C 0.2658 0.12193 0.95652 0.0
C298 C 0.26741 0.1007 0.96707 0.0
C299 C 0.27188 0.07951 0.95295 0.0
C300 C 0.278 0.17375 0.86447 0.0
C301 C 0.26524 0.1713 0.84261 0.0
C302 C 0.3026 0.18103 0.86488 0.0
C303 C 0.31413 0.18626 0.8437 0.0
C304 C 0.30137 0.18367 0.82182 0.0
C305 C 0.2769 0.17601 0.82142 0.0
C306 C 0.2766 0.0802 0.92837 0.0
H307 H 0.15175 0.19696 0.89444 0.0
H308 H 0.19321 0.18411 0.88343 0.0
H309 H 0.21302 0.18726 0.9584 0.0
H310 H 0.17149 0.19981 0.96936 0.0
H311 H 0.23665 0.19363 0.8832 0.0
H312 H 0.22881 0.14956 0.94109 0.0
H313 H 0.29118 0.14124 0.89423 0.0
H314 H 0.27686 0.10111 0.89851 0.0
H315 H 0.2613 0.13785 0.96769 0.0
H316 H 0.26406 0.1007 0.98614 0.0
H317 H 0.24629 0.16554 0.84192 0.0
H318 H 0.31272 0.18299 0.88161 0.0
H319 H 0.27988 0.06411 0.91701 0.0
H320 H 0.26667 0.17411 0.80475 0.0
H321 H 0.33302 0.19218 0.84436 0.0
C322 C 0.33039 0.682 0.41686 0.0
C323 C 0.34884 0.6647 0.41583 0.0
C324 C 0.30608 0.6758 0.41118 0.0
C325 C 0.2998 0.65219 0.40453 0.0
C326 C 0.31837 0.63508 0.40276 0.0
C327 C 0.34258 0.64126 0.40826 0.0
C328 C 0.27394 0.64505 0.40005 0.0
C329 C 0.25891 0.65715 0.38494 0.0
C330 C 0.23478 0.64942 0.37959 0.0
C331 C 0.22571 0.62961 0.39012 0.0
C332 C 0.2408 0.61714 0.40484 0.0
C333 C 0.26469 0.62514 0.40994 0.0
C334 C 0.23262 0.59469 0.41356 0.0
C335 C 0.2107 0.59318 0.42645 0.0
C336 C 0.24763 0.57474 0.4098 0.0
C337 C 0.24143 0.5539 0.41951 0.0
C338 C 0.22007 0.55251 0.4333 0.0
C339 C 0.22015 0.66067 0.36125 0.0
C340 C 0.22211 0.68498 0.35898 0.0
C341 C 0.20564 0.64687 0.34459 0.0
C342 C 0.19434 0.6569 0.32556 0.0
C343 C 0.1976 0.68091 0.32243 0.0
C344 C 0.21116 0.69493 0.33972 0.0
C345 C 0.20456 0.57226 0.43644 0.0
H346 H 0.33459 0.70019 0.42274 0.0
H347 H 0.29208 0.68932 0.41272 0.0
H348 H 0.31414 0.61683 0.39715 0.0
H349 H 0.35642 0.6276 0.40666 0.0
H350 H 0.26657 0.67179 0.37636 0.0
H351 H 0.27624 0.61565 0.42158 0.0
H352 H 0.20727 0.6233 0.3862 0.0
H353 H 0.19884 0.60838 0.42954 0.0
H354 H 0.26451 0.57542 0.3997 0.0
H355 H 0.25399 0.53918 0.41705 0.0
H356 H 0.23271 0.69627 0.37173 0.0
H357 H 0.20382 0.62806 0.34553 0.0
H358 H 0.18796 0.57166 0.44695 0.0
H359 H 0.21429 0.71345 0.3379 0.0
H360 H 0.18359 0.64563 0.31294 0.0
C361 C 0.01489 0.8237 0.75796 0.0
C362 C 0.01226 0.82738 0.78302 0.0
C363 C 0.00121 0.83704 0.74281 0.0
C364 C 0.98483 0.8544 0.7525 0.0
C365 C 0.98191 0.85765 0.77749 0.0
C366 C 0.99552 0.84448 0.79251 0.0
C367 C 0.97074 0.86939 0.73697 0.0
C368 C 0.95839 0.85948 0.71645 0.0
C369 C 0.94262 0.8733 0.70348 0.0
C370 C 0.93985 0.89741 0.71111 0.0
C371 C 0.95156 0.90732 0.73192 0.0
C372 C 0.96755 0.89341 0.74423 0.0
C373 C 0.9442 0.93087 0.74299 0.0
C374 C 0.94227 0.95044 0.72947 0.0
C375 C 0.93754 0.93338 0.76731 0.0
C376 C 0.9288 0.95479 0.77783 0.0
C377 C 0.92658 0.97429 0.76436 0.0
C378 C 0.92685 0.86202 0.68391 0.0
C379 C 0.93546 0.8431 0.66829 0.0
C380 C 0.9024 0.86933 0.68161 0.0
C381 C 0.88692 0.85789 0.66448 0.0
C382 C 0.89521 0.83845 0.64945 0.0
C383 C 0.9198 0.83138 0.65132 0.0
C384 C 0.93375 0.9721 0.74017 0.0
H385 H 0.02754 0.81059 0.75006 0.0
H386 H 0.00381 0.83413 0.72361 0.0
H387 H 0.96908 0.87052 0.78555 0.0
H388 H 0.9933 0.84819 0.81169 0.0
H389 H 0.95978 0.84069 0.7116 0.0
H390 H 0.97683 0.90119 0.76016 0.0
H391 H 0.92746 0.90822 0.70168 0.0
H392 H 0.94727 0.94894 0.71069 0.0
H393 H 0.93846 0.91855 0.77811 0.0
H394 H 0.92369 0.9561 0.7966 0.0
H395 H 0.95424 0.83714 0.66934 0.0
H396 H 0.89482 0.88348 0.69353 0.0
H397 H 0.93222 0.98694 0.72946 0.0
H398 H 0.9268 0.8164 0.64014 0.0
H399 H 0.86828 0.8642 0.66326 0.0
H400 H 0.09855 0.86956 0.12135 0.0
H401 H 0.08661 0.89597 0.15612 0.0
H402 H 0.16063 0.92279 0.16227 0.0
H403 H 0.17294 0.8953 0.12829 0.0
H404 H 0.14431 0.92029 0.20446 0.0
H405 H 0.11158 0.95259 0.13525 0.0
H406 H 0.08822 0.95288 0.09752 0.0
H407 H 0.02194 0.93757 0.13437 0.0
H408 H 0.04497 0.9369 0.17228 0.0
H409 H 0.11175 0.03469 0.26144 0.0
H410 H 0.12495 0.00216 0.23317 0.0
H411 H 0.06055 0.96264 0.24901 0.0
H412 H 0.04778 0.99443 0.27857 0.0
H413 H 0.07117 0.97089 0.19727 0.0
H414 H 0.1069 0.94185 0.26791 0.0
H415 H 0.13233 0.94508 0.3045 0.0
H416 H 0.19584 0.95907 0.26284 0.0
H417 H 0.17069 0.95628 0.22602 0.0
C418 C 0.11228 0.88104 0.13021 0.0
C419 C 0.13661 0.88057 0.12203 0.0
C420 C 0.10542 0.89622 0.15001 0.0
C421 C 0.12255 0.91187 0.1615 0.0
C422 C 0.14704 0.91098 0.15369 0.0
C423 C 0.15405 0.89532 0.13424 0.0
C424 C 0.11482 0.92943 0.18131 0.0
C425 C 0.12846 0.93149 0.20273 0.0
C426 C 0.09397 0.94398 0.17929 0.0
C427 C 0.08004 0.94445 0.15654 0.0
C428 C 0.09205 0.94912 0.13527 0.0
C429 C 0.07887 0.94938 0.11386 0.0
C430 C 0.05362 0.94518 0.11354 0.0
C431 C 0.0415 0.94078 0.13464 0.0
C432 C 0.0546 0.94048 0.1561 0.0
C433 C 0.10065 0.01887 0.25956 0.0
C434 C 0.0786 0.01735 0.27242 0.0
C435 C 0.10819 0.00036 0.2432 0.0
C436 C 0.0937 0.98011 0.23907 0.0
C437 C 0.07191 0.97824 0.25198 0.0
C438 C 0.06457 0.99655 0.26872 0.0
C439 C 0.10063 0.96156 0.22016 0.0
C440 C 0.08689 0.95949 0.19892 0.0
C441 C 0.1217 0.94748 0.22213 0.0
C442 C 0.13685 0.94909 0.24424 0.0
C443 C 0.12624 0.94585 0.26657 0.0
C444 C 0.14061 0.94755 0.28735 0.0
C445 C 0.16567 0.95234 0.286 0.0
C446 C 0.17642 0.95538 0.26386 0.0
C447 C 0.16211 0.95372 0.24303 0.0
H448 H 0.17678 0.95364 0.30211 0.0
H449 H 0.04345 0.94538 0.09695 0.0
H450 H 0.60959 0.72597 0.57857 0.0
H451 H 0.59804 0.72945 0.62092 0.0
H452 H 0.64885 0.67385 0.63385 0.0
H453 H 0.65912 0.66939 0.59125 0.0
H454 H 0.60913 0.66381 0.65173 0.0
H455 H 0.65544 0.73478 0.65765 0.0
H456 H 0.66932 0.77369 0.64706 0.0
H457 H 0.5972 0.80183 0.66068 0.0
H458 H 0.58277 0.76299 0.67104 0.0
H459 H 0.58338 0.67106 0.7752 0.0
H460 H 0.60762 0.68101 0.74086 0.0
H461 H 0.54437 0.71353 0.71158 0.0
H462 H 0.51962 0.70268 0.74507 0.0
H463 H 0.5944 0.7367 0.70513 0.0
H464 H 0.54893 0.66213 0.69322 0.0
H465 H 0.53724 0.62323 0.70568 0.0
H466 H 0.61287 0.60233 0.70497 0.0
H467 H 0.62502 0.64131 0.69291 0.0
C468 C 0.6186 0.71486 0.59061 0.0
C469 C 0.6351 0.69733 0.58173 0.0
C470 C 0.61213 0.71694 0.61488 0.0
C471 C 0.62266 0.70201 0.63078 0.0
C472 C 0.6403 0.68547 0.62201 0.0
C473 C 0.64623 0.68296 0.59769 0.0
C474 C 0.61332 0.70167 0.65572 0.0
C475 C 0.60654 0.67981 0.66348 0.0
C476 C 0.60939 0.72247 0.67114 0.0
C477 C 0.61797 0.7459 0.66495 0.0
C478 C 0.64248 0.74921 0.65822 0.0
C479 C 0.65046 0.77127 0.65229 0.0
C480 C 0.63414 0.79021 0.65315 0.0
C481 C 0.60982 0.78714 0.66001 0.0
C482 C 0.60173 0.76511 0.66594 0.0
C483 C 0.57462 0.68054 0.76162 0.0
C484 C 0.54936 0.68561 0.76274 0.0
C485 C 0.58861 0.68647 0.74217 0.0
C486 C 0.57769 0.69789 0.72372 0.0
C487 C 0.55312 0.70487 0.72579 0.0
C488 C 0.53901 0.69864 0.74503 0.0
C489 C 0.59054 0.69901 0.70065 0.0
C490 C 0.59765 0.72087 0.6933 0.0
C491 C 0.59525 0.67824 0.68567 0.0
C492 C 0.5879 0.65469 0.69246 0.0
C493 C 0.56307 0.6493 0.69593 0.0
C494 C 0.55636 0.62724 0.70288 0.0
C495 C 0.57431 0.61034 0.70619 0.0
C496 C 0.59899 0.61545 0.70245 0.0
C497 C 0.6058 0.63752 0.69556 0.0
H498 H 0.56908 0.59327 0.71157 0.0
H499 H 0.64036 0.80727 0.64855 0.0
H500 H 0.82963 0.09731 0.03495 0.0
H501 H 0.80648 0.06517 0.04993 0.0
H502 H 0.73924 0.09419 0.02476 0.0
H503 H 0.76229 0.12667 0.0096 0.0
H504 H 0.73531 0.07864 0.07084 0.0
H505 H 0.76098 0.04897 0.99288 0.0
H506 H 0.79005 0.041 0.95948 0.0
H507 H 0.83369 0.9984 0.0026 0.0
H508 H 0.80508 0.00641 0.03641 0.0
H509 H 0.71565 0.94034 0.07277 0.0
H510 H 0.71786 0.97595 0.05143 0.0
H511 H 0.74487 0.01515 0.11565 0.0
H512 H 0.74199 0.9799 0.13716 0.0
H513 H 0.75915 0.99679 0.04268 0.0
H514 H 0.73392 0.07281 0.11556 0.0
H515 H 0.70333 0.08081 0.14761 0.0
H516 H 0.65444 0.03017 0.11155 0.0
H517 H 0.68456 0.0221 0.0791 0.0
C518 C 0.80991 0.09703 0.03264 0.0
C519 C 0.79786 0.11455 0.0209 0.0
C520 C 0.79672 0.07856 0.04117 0.0
C521 C 0.77122 0.07718 0.03817 0.0
C522 C 0.75894 0.09494 0.02714 0.0
C523 C 0.77217 0.11342 0.01844 0.0
C524 C 0.75773 0.05681 0.04631 0.0
C525 C 0.7403 0.06071 0.06461 0.0
C526 C 0.76376 0.03348 0.03759 0.0
C527 C 0.78093 0.0284 0.01723 0.0
C528 C 0.77686 0.03803 0.9953 0.0
C529 C 0.79325 0.03349 0.97628 0.0
C530 C 0.81372 0.01923 0.97893 0.0
C531 C 0.81782 0.00944 0.00058 0.0
C532 C 0.8015 0.01395 0.01967 0.0
C533 C 0.72127 0.95674 0.08252 0.0
C534 C 0.72887 0.95731 0.10657 0.0
C535 C 0.72267 0.97704 0.07028 0.0
C536 C 0.73149 0.99824 0.08193 0.0
C537 C 0.73767 0.99912 0.10634 0.0
C538 C 0.73627 0.97889 0.11856 0.0
C539 C 0.73746 0.01851 0.06808 0.0
C540 C 0.75363 0.01464 0.04867 0.0
C541 C 0.72996 0.04179 0.07559 0.0
C542 C 0.7116 0.04676 0.09493 0.0
C543 C 0.71658 0.06348 0.11437 0.0
C544 C 0.69933 0.068 0.13264 0.0
C545 C 0.67698 0.05597 0.13164 0.0
C546 C 0.67179 0.03943 0.11234 0.0
C547 C 0.68897 0.03485 0.09402 0.0
H548 H 0.66366 0.05949 0.14581 0.0
H549 H 0.82639 0.01574 0.96418 0.0
H550 H 0.44626 0.33663 0.54718 0.0
H551 H 0.48992 0.33154 0.55472 0.0
H552 H 0.47529 0.26467 0.58228 0.0
H553 H 0.4314 0.26951 0.57467 0.0
H554 H 0.50678 0.29475 0.61151 0.0
H555 H 0.49971 0.26335 0.52961 0.0
H556 H 0.48704 0.26334 0.48732 0.0
H557 H 0.53078 0.32499 0.48017 0.0
H558 H 0.54343 0.32559 0.52254 0.0
H559 H 0.63433 0.27123 0.62051 0.0
H560 H 0.59098 0.2664 0.60964 0.0
H561 H 0.59486 0.32819 0.57054 0.0
H562 H 0.6381 0.33294 0.58112 0.0
H563 H 0.56828 0.29541 0.54638 0.0
H564 H 0.57156 0.33011 0.62805 0.0
H565 H 0.58338 0.33251 0.67074 0.0
H566 H 0.54617 0.26724 0.6787 0.0
H567 H 0.5344 0.2643 0.63595 0.0
C568 C 0.45225 0.32081 0.55484 0.0
C569 C 0.43531 0.30345 0.56029 0.0
C570 C 0.47724 0.31789 0.55902 0.0
C571 C 0.4858 0.29764 0.56884 0.0
C572 C 0.469 0.28038 0.57459 0.0
C573 C 0.44396 0.28316 0.57016 0.0
C574 C 0.51232 0.2949 0.57348 0.0
C575 C 0.52026 0.29439 0.59725 0.0
C576 C 0.5298 0.295 0.55488 0.0
C577 C 0.52237 0.29461 0.52932 0.0
C578 C 0.50648 0.27701 0.51908 0.0
C579 C 0.49933 0.27688 0.49508 0.0
C580 C 0.50806 0.29418 0.48108 0.0
C581 C 0.52402 0.31161 0.49104 0.0
C582 C 0.53121 0.31184 0.51504 0.0
C583 C 0.62593 0.2837 0.60951 0.0
C584 C 0.63961 0.30249 0.60172 0.0
C585 C 0.60117 0.28094 0.60333 0.0
C586 C 0.58958 0.29713 0.58955 0.0
C587 C 0.60341 0.31545 0.58114 0.0
C588 C 0.62816 0.31811 0.58715 0.0
C589 C 0.56286 0.29564 0.58451 0.0
C590 C 0.55485 0.2954 0.56065 0.0
C591 C 0.54529 0.29511 0.60307 0.0
C592 C 0.55237 0.29684 0.62875 0.0
C593 C 0.56608 0.31617 0.63886 0.0
C594 C 0.57274 0.31764 0.66307 0.0
C595 C 0.5656 0.3 0.6774 0.0
C596 C 0.55173 0.28087 0.66756 0.0
C597 C 0.54506 0.27929 0.64335 0.0
H598 H 0.57076 0.30118 0.69615 0.0
H599 H 0.5025 0.29404 0.46251 0.0
H600 H 0.6727 0.61886 0.41628 0.0
H601 H 0.65709 0.59411 0.38169 0.0
H602 H 0.59114 0.58087 0.42071 0.0
H603 H 0.60662 0.60528 0.45544 0.0
H604 H 0.60717 0.5416 0.39761 0.0
H605 H 0.59219 0.62019 0.37768 0.0
H606 H 0.6033 0.66129 0.37198 0.0
H607 H 0.65409 0.63706 0.3167 0.0
H608 H 0.64354 0.5958 0.32235 0.0
H609 H 0.53664 0.49146 0.30218 0.0
H610 H 0.55021 0.52135 0.33328 0.0
H611 H 0.61819 0.52892 0.29554 0.0
H612 H 0.60436 0.49954 0.26375 0.0
H613 H 0.60101 0.57171 0.31733 0.0
H614 H 0.61609 0.49277 0.33867 0.0
H615 H 0.60438 0.45199 0.34505 0.0
H616 H 0.55219 0.47773 0.39841 0.0
H617 H 0.56334 0.51869 0.39209 0.0
C618 C 0.6549 0.61062 0.41757 0.0
C619 C 0.64093 0.61412 0.43869 0.0
C620 C 0.64594 0.5966 0.3977 0.0
C621 C 0.62275 0.58598 0.39847 0.0
C622 C 0.609 0.58902 0.41966 0.0
C623 C 0.61794 0.60298 0.43954 0.0
C624 C 0.61286 0.57149 0.3773 0.0
C625 C 0.60552 0.54832 0.38015 0.0
C626 C 0.61114 0.58011 0.35439 0.0
C627 C 0.61722 0.60491 0.3506 0.0
C628 C 0.60583 0.62364 0.36441 0.0
C629 C 0.61202 0.64696 0.36119 0.0
C630 C 0.62944 0.65178 0.34403 0.0
C631 C 0.64062 0.63329 0.33 0.0
C632 C 0.63453 0.60993 0.3332 0.0
C633 C 0.55417 0.49994 0.30005 0.0
C634 C 0.56951 0.49292 0.28054 0.0
C635 C 0.56199 0.51689 0.31799 0.0
C636 C 0.58538 0.527 0.31692 0.0
C637 C 0.60012 0.52121 0.29676 0.0
C638 C 0.59228 0.50427 0.27873 0.0
C639 C 0.59522 0.54195 0.33779 0.0
C640 C 0.60262 0.5651 0.33484 0.0
C641 C 0.59688 0.5334 0.36071 0.0
C642 C 0.59039 0.50878 0.36475 0.0
C643 C 0.60201 0.48973 0.35165 0.0
C644 C 0.59548 0.46658 0.35527 0.0
C645 C 0.57751 0.46227 0.37208 0.0
C646 C 0.56608 0.4811 0.38537 0.0
C647 C 0.57251 0.50428 0.38179 0.0
H648 H 0.57248 0.44434 0.37485 0.0
H649 H 0.63422 0.66984 0.34155 0.0
H650 H 0.92353 0.2316 0.97122 0.0
H651 H 0.96644 0.23807 0.96023 0.0
H652 H 0.98725 0.17416 0.99073 0.0
H653 H 0.94458 0.1673 0.00132 0.0
H654 H 0.0167 0.21642 0.00512 0.0
H655 H 0.98301 0.17053 0.93483 0.0
H656 H 0.95384 0.16359 0.90123 0.0
H657 H 0.97637 0.2282 0.87381 0.0
H658 H 0.00543 0.23569 0.90748 0.0
H659 H 0.13185 0.17783 0.96571 0.0
H660 H 0.08873 0.18335 0.9758 0.0
H661 H 0.08269 0.23583 0.92511 0.0
H662 H 0.12606 0.22994 0.91454 0.0
H663 H 0.04486 0.20747 0.92057 0.0
H664 H 0.08226 0.25147 0.98654 0.0
H665 H 0.1112 0.26023 0.02003 0.0
H666 H 0.08146 0.2032 0.05602 0.0
H667 H 0.05257 0.19385 0.02259 0.0
C668 C 0.93728 0.21896 0.97559 0.0
C669 C 0.93071 0.19891 0.98708 0.0
C670 C 0.9617 0.22266 0.96927 0.0
C671 C 0.97988 0.20658 0.97472 0.0
C672 C 0.97342 0.18676 0.98644 0.0
C673 C 0.94903 0.18283 0.99235 0.0
C674 C 0.00576 0.21008 0.96818 0.0
C675 C 0.02296 0.21441 0.98667 0.0
C676 C 0.01361 0.20836 0.94406 0.0
C677 C 0.99616 0.20382 0.92383 0.0
C678 C 0.98156 0.18338 0.92178 0.0
C679 C 0.96508 0.17932 0.90269 0.0
C680 C 0.9632 0.19548 0.88543 0.0
C681 C 0.97781 0.21572 0.88721 0.0
C682 C 0.99429 0.21988 0.90629 0.0
C683 C 0.12147 0.19083 0.95698 0.0
C684 C 0.13239 0.20365 0.93953 0.0
C685 C 0.09679 0.194 0.96278 0.0
C686 C 0.08254 0.21036 0.95158 0.0
C687 C 0.09336 0.2232 0.93408 0.0
C688 C 0.11809 0.21984 0.92806 0.0
C689 C 0.05613 0.21309 0.9576 0.0
C690 C 0.03873 0.20997 0.93905 0.0
C691 C 0.04803 0.2163 0.9817 0.0
C692 C 0.06532 0.22188 0.00196 0.0
C693 C 0.08199 0.24069 0.00152 0.0
C694 C 0.09838 0.24578 0.02051 0.0
C695 C 0.09819 0.23226 0.04013 0.0
C696 C 0.08158 0.21365 0.04081 0.0
C697 C 0.06517 0.20848 0.02186 0.0
H698 H 0.1109 0.23623 0.05481 0.0
H699 H 0.95051 0.19227 0.87062 0.0
H700 H 0.32505 0.39895 0.51599 0.0
H701 H 0.29887 0.42916 0.50135 0.0
H702 H 0.23605 0.39955 0.5344 0.0
H703 H 0.26214 0.36898 0.54918 0.0
H704 H 0.22623 0.41266 0.4883 0.0
H705 H 0.2591 0.44688 0.56195 0.0
H706 H 0.29131 0.45725 0.59202 0.0
H707 H 0.3284 0.49829 0.54249 0.0
H708 H 0.29662 0.48787 0.51197 0.0
H709 H 0.20626 0.55044 0.47996 0.0
H710 H 0.20874 0.51615 0.50316 0.0
H711 H 0.22835 0.47256 0.43902 0.0
H712 H 0.22488 0.50647 0.41569 0.0
H713 H 0.25006 0.49598 0.50962 0.0
H714 H 0.21942 0.41557 0.44378 0.0
H715 H 0.18576 0.40529 0.41531 0.0
H716 H 0.13975 0.45737 0.45283 0.0
H717 H 0.17299 0.46775 0.48175 0.0
C718 C 0.30567 0.39869 0.52011 0.0
C719 C 0.29578 0.38161 0.53397 0.0
C720 C 0.29074 0.41604 0.51176 0.0
C721 C 0.26562 0.41674 0.51709 0.0
C722 C 0.25543 0.39932 0.5302 0.0
C723 C 0.2704 0.38194 0.53869 0.0
C724 C 0.25042 0.43618 0.50933 0.0
C725 C 0.23119 0.43092 0.49305 0.0
C726 C 0.25644 0.45995 0.51625 0.0
C727 C 0.27551 0.46649 0.53463 0.0
C728 C 0.2742 0.458 0.55741 0.0
C729 C 0.29238 0.4639 0.57455 0.0
C730 C 0.3119 0.4784 0.56916 0.0
C731 C 0.31326 0.48706 0.54664 0.0
C732 C 0.29515 0.4812 0.52943 0.0
C733 C 0.21009 0.53335 0.47065 0.0
C734 C 0.21571 0.53119 0.44607 0.0
C735 C 0.21167 0.51379 0.48396 0.0
C736 C 0.21882 0.49176 0.47289 0.0
C737 C 0.22248 0.48924 0.44798 0.0
C738 C 0.22078 0.50872 0.43468 0.0
C739 C 0.22649 0.47257 0.48754 0.0
C740 C 0.24449 0.47782 0.50517 0.0
C741 C 0.21901 0.44888 0.4821 0.0
C742 C 0.19879 0.44251 0.46491 0.0
C743 C 0.20208 0.42473 0.44608 0.0
C744 C 0.18307 0.41891 0.42982 0.0
C745 C 0.16065 0.4307 0.43223 0.0
C746 C 0.15716 0.4483 0.45094 0.0
C747 C 0.17609 0.45418 0.46725 0.0
H748 H 0.14597 0.42618 0.41962 0.0
H749 H 0.32596 0.48294 0.58245 0.0
H750 H 0.11112 0.84217 0.97332 0.0
H751 H 0.09809 0.83674 0.93177 0.0
H752 H 0.12156 0.76418 0.92751 0.0
H753 H 0.13412 0.7693 0.96972 0.0
H754 H 0.11897 0.82657 0.89092 0.0
H755 H 0.08252 0.73189 0.88883 0.0
H756 H 0.06736 0.70383 0.91656 0.0
H757 H 0.0429 0.76142 0.96542 0.0
H758 H 0.05766 0.78975 0.93786 0.0
H759 H 0.06107 0.81557 0.77878 0.0
H760 H 0.08753 0.80175 0.80992 0.0
H761 H 0.02493 0.79834 0.85652 0.0
H762 H 0.99829 0.81027 0.82498 0.0
H763 H 0.05496 0.76702 0.86735 0.0
H764 H 0.06251 0.84998 0.85387 0.0
H765 H 0.07188 0.88309 0.82984 0.0
H766 H 0.14517 0.85708 0.81832 0.0
H767 H 0.1361 0.82365 0.84209 0.0
C768 C 0.11373 0.82504 0.96363 0.0
C769 C 0.12349 0.80611 0.97502 0.0
C770 C 0.10635 0.822 0.93973 0.0
C771 C 0.10866 0.80001 0.9265 0.0
C772 C 0.11929 0.78124 0.93746 0.0
C773 C 0.12651 0.78421 0.96157 0.0
C774 C 0.09859 0.79692 0.90175 0.0
C775 C 0.10524 0.8133 0.88563 0.0
C776 C 0.08056 0.77974 0.89483 0.0
C777 C 0.07151 0.76288 0.91145 0.0
C778 C 0.07389 0.73852 0.90549 0.0
C779 C 0.06536 0.72259 0.92116 0.0
C780 C 0.05427 0.73084 0.94278 0.0
C781 C 0.05158 0.75505 0.94872 0.0
C782 C 0.06005 0.77104 0.93309 0.0
C783 C 0.05282 0.81106 0.79534 0.0
C784 C 0.02764 0.81467 0.79964 0.0
C785 C 0.06803 0.80339 0.81324 0.0
C786 C 0.05839 0.79974 0.83589 0.0
C787 C 0.03294 0.80126 0.83934 0.0
C788 C 0.01773 0.80843 0.82136 0.0
C789 C 0.07456 0.79734 0.85696 0.0
C790 C 0.06924 0.77981 0.8723 0.0
C791 C 0.09306 0.81415 0.86368 0.0
C792 C 0.09854 0.8342 0.84944 0.0
C793 C 0.08057 0.85127 0.84608 0.0
C794 C 0.08583 0.87009 0.83253 0.0
C795 C 0.10908 0.87214 0.82249 0.0
C796 C 0.12715 0.85542 0.82605 0.0
C797 C 0.12196 0.83654 0.83954 0.0
H798 H 0.11312 0.88673 0.81201 0.0
H799 H 0.04769 0.71848 0.9549 0.0
H800 H 0.84293 0.15219 0.90491 0.0
H801 H 0.85657 0.13055 0.86754 0.0
H802 H 0.88801 0.07695 0.90805 0.0
H803 H 0.87553 0.09911 0.94531 0.0
H804 H 0.91781 0.08442 0.87506 0.0
H805 H 0.82886 0.07205 0.87608 0.0
H806 H 0.78599 0.08595 0.8773 0.0
H807 H 0.79809 0.12155 0.81392 0.0
H808 H 0.84108 0.10798 0.81246 0.0
H809 H 0.88457 0.97996 0.79002 0.0
H810 H 0.87135 0.01492 0.81502 0.0
H811 H 0.93263 0.05393 0.79011 0.0
H812 H 0.94613 0.01864 0.76511 0.0
H813 H 0.85864 0.06029 0.81004 0.0
H814 H 0.95595 0.08627 0.84059 0.0
H815 H 0.99737 0.06899 0.84206 0.0
H816 H 0.96594 0.00041 0.84659 0.0
H817 H 0.9244 0.01734 0.84549 0.0
C818 C 0.85269 0.13573 0.90575 0.0
C819 C 0.85805 0.1272 0.92796 0.0
C820 C 0.86048 0.12337 0.88439 0.0
C821 C 0.87315 0.10194 0.88487 0.0
C822 C 0.87844 0.0935 0.90713 0.0
C823 C 0.87118 0.10609 0.92844 0.0
C824 C 0.88072 0.08787 0.86244 0.0
C825 C 0.90488 0.07938 0.86076 0.0
C826 C 0.86403 0.08134 0.84357 0.0
C827 C 0.83815 0.08917 0.84427 0.0
C828 C 0.82236 0.08289 0.86246 0.0
C829 C 0.79806 0.09071 0.86319 0.0
C830 C 0.78934 0.10466 0.84572 0.0
C831 C 0.80487 0.11076 0.82744 0.0
C832 C 0.82918 0.10298 0.82663 0.0
C833 C 0.89499 0.99611 0.78958 0.0
C834 C 0.91654 0.99658 0.77595 0.0
C835 C 0.88732 0.01612 0.80371 0.0
C836 C 0.90115 0.03694 0.80461 0.0
C837 C 0.9218 0.03796 0.78976 0.0
C838 C 0.92944 0.01788 0.77546 0.0
C839 C 0.89537 0.05627 0.82325 0.0
C840 C 0.87166 0.06585 0.82411 0.0
C841 C 0.91227 0.06336 0.8417 0.0
C842 C 0.93713 0.05302 0.84259 0.0
C843 C 0.95792 0.06751 0.84192 0.0
C844 C 0.9814 0.05779 0.84271 0.0
C845 C 0.98429 0.03361 0.8443 0.0
C846 C 0.96369 0.01912 0.84524 0.0
C847 C 0.94018 0.02877 0.84453 0.0
H848 H 0.00248 0.02611 0.84488 0.0
H849 H 0.77053 0.11072 0.84634 0.0
H850 H 0.35995 0.34202 0.468 0.0
H851 H 0.36888 0.33871 0.42529 0.0
H852 H 0.38357 0.26451 0.42706 0.0
H853 H 0.37477 0.26769 0.47015 0.0
H854 H 0.42053 0.28695 0.40656 0.0
H855 H 0.33476 0.28121 0.39534 0.0
H856 H 0.29113 0.29098 0.40184 0.0
H857 H 0.3034 0.35988 0.37886 0.0
H858 H 0.34716 0.35064 0.37237 0.0
H859 H 0.45241 0.29317 0.28376 0.0
H860 H 0.42888 0.28012 0.31736 0.0
H861 H 0.40973 0.35219 0.33945 0.0
H862 H 0.43367 0.36546 0.30659 0.0
H863 H 0.37075 0.32089 0.34389 0.0
H864 H 0.45748 0.3286 0.3642 0.0
H865 H 0.50135 0.31937 0.35843 0.0
H866 H 0.48662 0.24621 0.36511 0.0
H867 H 0.44256 0.25499 0.37058 0.0
C868 C 0.36476 0.32489 0.45932 0.0
C869 C 0.36685 0.30516 0.47257 0.0
C870 C 0.36965 0.32298 0.4348 0.0
C871 C 0.37669 0.30132 0.42293 0.0
C872 C 0.37804 0.28137 0.43588 0.0
C873 C 0.37297 0.28323 0.46048 0.0
C874 C 0.38507 0.30042 0.39769 0.0
C875 C 0.40939 0.29369 0.39264 0.0
C876 C 0.37066 0.30954 0.37963 0.0
C877 C 0.34431 0.31524 0.38346 0.0
C878 C 0.32821 0.29851 0.39181 0.0
C879 C 0.30344 0.30394 0.39548 0.0
C880 C 0.29451 0.32605 0.39084 0.0
C881 C 0.31033 0.34276 0.38244 0.0
C882 C 0.33512 0.3374 0.3787 0.0
C883 C 0.4431 0.30624 0.2957 0.0
C884 C 0.44514 0.33041 0.29252 0.0
C885 C 0.42953 0.29872 0.31478 0.0
C886 C 0.4177 0.31522 0.33093 0.0
C887 C 0.41859 0.33917 0.32707 0.0
C888 C 0.43227 0.34671 0.30816 0.0
C889 C 0.40631 0.30808 0.35315 0.0
C890 C 0.38154 0.31341 0.35762 0.0
C891 C 0.42027 0.29765 0.37071 0.0
C892 C 0.44672 0.29239 0.36745 0.0
C893 C 0.46357 0.31052 0.36422 0.0
C894 C 0.48847 0.30538 0.36104 0.0
C895 C 0.49675 0.2822 0.36132 0.0
C896 C 0.48016 0.26414 0.36483 0.0
C897 C 0.45523 0.26918 0.36797 0.0
H898 H 0.51604 0.27826 0.35887 0.0
H899 H 0.27533 0.33023 0.39371 0.0
H900 H 0.22877 0.87178 0.02657 0.0
H901 H 0.2495 0.90417 0.00891 0.0
H902 H 0.18137 0.94271 0.00968 0.0
H903 H 0.16045 0.91015 0.02634 0.0
H904 H 0.20356 0.94793 0.97019 0.0
H905 H 0.22849 0.95324 0.0536 0.0
H906 H 0.24703 0.93856 0.08962 0.0
H907 H 0.31568 0.92837 0.05275 0.0
H908 H 0.29745 0.94276 0.01642 0.0
H909 H 0.23403 0.06726 0.98058 0.0
H910 H 0.22451 0.02833 0.99301 0.0
H911 H 0.29104 0.00069 0.96001 0.0
H912 H 0.30074 0.03987 0.94724 0.0
H913 H 0.27584 0.98654 0.01095 0.0
H914 H 0.2496 0.98705 0.92859 0.0
H915 H 0.22938 0.00469 0.89508 0.0
H916 H 0.16095 0.00639 0.93296 0.0
H917 H 0.18087 0.98913 0.96689 0.0
C918 C 0.21821 0.88713 0.02285 0.0
C919 C 0.19298 0.88845 0.02794 0.0
C920 C 0.23011 0.90567 0.01285 0.0
C921 C 0.2171 0.92607 0.0083 0.0
C922 C 0.19182 0.92716 0.01297 0.0
C923 C 0.17987 0.90852 0.02255 0.0
C924 C 0.22957 0.9466 0.99909 0.0
C925 C 0.21935 0.95632 0.97917 0.0
C926 C 0.25056 0.95734 0.0104 0.0
C927 C 0.26154 0.9488 0.03223 0.0
C928 C 0.2475 0.94771 0.05314 0.0
C929 C 0.25795 0.93947 0.07361 0.0
C930 C 0.2825 0.93247 0.07345 0.0
C931 C 0.29666 0.93376 0.05284 0.0
C932 C 0.28628 0.94196 0.03231 0.0
C933 C 0.24697 0.05307 0.97643 0.0
C934 C 0.26819 0.0566 0.96301 0.0
C935 C 0.24142 0.03084 0.98343 0.0
C936 C 0.25704 0.01175 0.9773 0.0
C937 C 0.27883 0.01531 0.96488 0.0
C938 C 0.28427 0.03759 0.95755 0.0
C939 C 0.24935 0.98794 0.98262 0.0
C940 C 0.26041 0.97772 0.00175 0.0
C941 C 0.2289 0.9769 0.97087 0.0
C942 C 0.21678 0.98696 0.95035 0.0
C943 C 0.23029 0.99136 0.92986 0.0
C944 C 0.21887 0.00126 0.91077 0.0
C945 C 0.1939 0.00669 0.91191 0.0
C946 C 0.18029 0.00218 0.93211 0.0
C947 C 0.19163 0.99232 0.95126 0.0
H948 H 0.1851 0.01436 0.89712 0.0
H949 H 0.29056 0.92609 0.08931 0.0
H950 H 0.56069 0.65582 0.49985 0.0
H951 H 0.51929 0.65659 0.48373 0.0
H952 H 0.53344 0.72428 0.45774 0.0
H953 H 0.57513 0.72385 0.47409 0.0
H954 H 0.48745 0.722 0.47737 0.0
H955 H 0.53471 0.67754 0.41898 0.0
H956 H 0.56441 0.64768 0.40294 0.0
H957 H 0.51825 0.59268 0.42535 0.0
H958 H 0.48845 0.62229 0.44199 0.0
H959 H 0.3761 0.70352 0.40655 0.0
H960 H 0.41881 0.71215 0.41814 0.0
H961 H 0.42194 0.64789 0.45327 0.0
H962 H 0.37942 0.63941 0.44227 0.0
H963 H 0.46115 0.65301 0.42291 0.0
H964 H 0.41632 0.70026 0.48536 0.0
H965 H 0.38729 0.73144 0.5 0.0
H966 H 0.42989 0.78274 0.46656 0.0
H967 H 0.45901 0.75179 0.45146 0.0
C968 C 0.55507 0.67099 0.49085 0.0
C969 C 0.57138 0.68969 0.48811 0.0
C970 C 0.53138 0.67135 0.48157 0.0
C971 C 0.52347 0.69029 0.46917 0.0
C972 C 0.53927 0.70944 0.46715 0.0
C973 C 0.56308 0.70913 0.4765 0.0
C974 C 0.49884 0.6895 0.45795 0.0
C975 C 0.48179 0.70716 0.4651 0.0
C976 C 0.49154 0.67016 0.44187 0.0
C977 C 0.50938 0.65219 0.43187 0.0
C978 C 0.53096 0.6591 0.42067 0.0
C979 C 0.54782 0.6422 0.41145 0.0
C980 C 0.54323 0.61828 0.41311 0.0
C981 C 0.52178 0.61122 0.42406 0.0
C982 C 0.50488 0.62806 0.43338 0.0
C983 C 0.38583 0.69139 0.41697 0.0
C984 C 0.37442 0.67066 0.42328 0.0
C985 C 0.41022 0.6963 0.4235 0.0
C986 C 0.42351 0.6806 0.43648 0.0
C987 C 0.41206 0.66012 0.44304 0.0
C988 C 0.38778 0.65525 0.43664 0.0
C989 C 0.44952 0.68499 0.4431 0.0
C990 C 0.4669 0.66802 0.43492 0.0
C991 C 0.45714 0.70511 0.4579 0.0
C992 C 0.43966 0.72367 0.46705 0.0
C993 C 0.41937 0.71816 0.48096 0.0
C994 C 0.40293 0.73579 0.48937 0.0
C995 C 0.4067 0.75905 0.48414 0.0
C996 C 0.42697 0.76472 0.47055 0.0
C997 C 0.44345 0.74714 0.46208 0.0
H998 H 0.39396 0.77268 0.49068 0.0
H999 H 0.55623 0.60522 0.40584 0.0
H1000 H 0.39833 0.38996 0.60434 0.0
H1001 H 0.41193 0.41583 0.63886 0.0
H1002 H 0.34899 0.39597 0.679 0.0
H1003 H 0.33498 0.37016 0.64442 0.0
H1004 H 0.35597 0.44308 0.68341 0.0
H1005 H 0.40514 0.3748 0.69109 0.0
H1006 H 0.43337 0.34263 0.6774 0.0
H1007 H 0.48862 0.39316 0.66296 0.0
H1008 H 0.46058 0.42567 0.67623 0.0
H1009 H 0.39915 0.50442 0.79098 0.0
H1010 H 0.386 0.47157 0.76265 0.0
H1011 H 0.44643 0.48504 0.71619 0.0
H1012 H 0.45966 0.51781 0.74437 0.0
H1013 H 0.43953 0.43839 0.71785 0.0
H1014 H 0.3894 0.50619 0.70616 0.0
H1015 H 0.36122 0.53876 0.71877 0.0
H1016 H 0.30788 0.48919 0.73987 0.0
H1017 H 0.33592 0.45632 0.72769 0.0
C1018 C 0.38734 0.391 0.62049 0.0
C1019 C 0.36553 0.37793 0.62155 0.0
C1020 C 0.39525 0.40572 0.64028 0.0
C1021 C 0.38164 0.40759 0.6616 0.0
C1022 C 0.35981 0.39471 0.66273 0.0
C1023 C 0.35186 0.37994 0.64294 0.0
C1024 C 0.38985 0.42364 0.6824 0.0
C1025 C 0.37406 0.44177 0.69127 0.0
C1026 C 0.41365 0.4222 0.69228 0.0
C1027 C 0.43067 0.40269 0.68449 0.0
C1028 C 0.42324 0.37907 0.68484 0.0
C1029 C 0.43923 0.36077 0.67717 0.0
C1030 C 0.46276 0.36585 0.66926 0.0
C1031 C 0.47038 0.38925 0.66907 0.0
C1032 C 0.45445 0.40762 0.6767 0.0
C1033 C 0.4097 0.50028 0.77479 0.0
C1034 C 0.43036 0.5138 0.76985 0.0
C1035 C 0.40219 0.48151 0.75864 0.0
C1036 C 0.41504 0.47608 0.73715 0.0
C1037 C 0.43626 0.4889 0.73268 0.0
C1038 C 0.44383 0.50759 0.74884 0.0
C1039 C 0.40573 0.45795 0.71867 0.0
C1040 C 0.42132 0.43948 0.7102 0.0
C1041 C 0.38178 0.4591 0.70907 0.0
C1042 C 0.36486 0.47883 0.71628 0.0
C1043 C 0.37174 0.50225 0.71366 0.0
C1044 C 0.35578 0.52076 0.7207 0.0
C1045 C 0.3328 0.51605 0.73018 0.0
C1046 C 0.32571 0.49281 0.73257 0.0
C1047 C 0.34162 0.47424 0.72559 0.0
H1048 H 0.32047 0.53041 0.73562 0.0
H1049 H 0.4751 0.35166 0.66332 0.0
H1050 H 0.07506 0.76149 0.07585 0.0
H1051 H 0.03289 0.75247 0.08704 0.0
H1052 H 0.01098 0.82315 0.07502 0.0
H1053 H 0.05269 0.8323 0.0637 0.0
H1054 H 0.0038 0.77189 0.12298 0.0
H1055 H 0.95563 0.82272 0.05 0.0
H1056 H 0.96265 0.83072 0.00799 0.0
H1057 H 0.00679 0.76838 0.99682 0.0
H1058 H 0.99977 0.75981 0.03864 0.0
H1059 H 0.89083 0.82074 0.15855 0.0
H1060 H 0.93193 0.80955 0.14495 0.0
H1061 H 0.90117 0.76308 0.08747 0.0
H1062 H 0.85984 0.775 0.10048 0.0
H1063 H 0.9342 0.78962 0.07035 0.0
H1064 H 0.93321 0.74095 0.134 0.0
H1065 H 0.92635 0.72956 0.1749 0.0
H1066 H 0.97986 0.7803 0.20251 0.0
H1067 H 0.9868 0.79226 0.16183 0.0
C1068 C 0.06125 0.7751 0.07552 0.0
C1069 C 0.0673 0.79761 0.06877 0.0
C1070 C 0.03719 0.7699 0.08197 0.0
C1071 C 0.01877 0.78703 0.08153 0.0
C1072 C 0.02483 0.80953 0.07506 0.0
C1073 C 0.04877 0.81476 0.06871 0.0
C1074 C 0.9932 0.78193 0.08829 0.0
C1075 C 0.98853 0.77552 0.11145 0.0
C1076 C 0.97333 0.78586 0.07288 0.0
C1077 C 0.97726 0.7907 0.04753 0.0
C1078 C 0.9667 0.81063 0.03855 0.0
C1079 C 0.97072 0.81529 0.01477 0.0
C1080 C 0.9852 0.8001 -0.00023 0.0
C1081 C 0.99564 0.78017 0.00848 0.0
C1082 C 0.99167 0.77543 0.03223 0.0
C1083 C 0.89279 0.80802 0.1431 0.0
C1084 C 0.87207 0.79894 0.13046 0.0
C1085 C 0.91632 0.80138 0.13551 0.0
C1086 C 0.91969 0.7853 0.11529 0.0
C1087 C 0.89902 0.77546 0.10317 0.0
C1088 C 0.87542 0.78217 0.11072 0.0
C1089 C 0.94473 0.7808 0.10558 0.0
C1090 C 0.94935 0.78545 0.0818 0.0
C1091 C 0.96447 0.77469 0.12026 0.0
C1092 C 0.96044 0.76757 0.14483 0.0
C1093 C 0.9434 0.7498 0.14881 0.0
C1094 C 0.93952 0.74322 0.17196 0.0
C1095 C 0.95264 0.75421 0.1913 0.0
C1096 C 0.96971 0.77179 0.18751 0.0
C1097 C 0.97366 0.77844 0.1644 0.0
H1098 H 0.94961 0.7491 0.20921 0.0
H1099 H 0.98831 0.80375 0.98138 0.0
H1100 H 0.68299 0.6129 0.55881 0.0
H1101 H 0.70713 0.58347 0.57743 0.0
H1102 H 0.76304 0.58722 0.52356 0.0
H1103 H 0.73897 0.61687 0.50473 0.0
H1104 H 0.74694 0.54162 0.52889 0.0
H1105 H 0.7764 0.60778 0.579 0.0
H1106 H 0.77294 0.64473 0.60525 0.0
H1107 H 0.73117 0.60901 0.65591 0.0
H1108 H 0.73407 0.57189 0.6298 0.0
H1109 H 0.80728 0.4512 0.5842 0.0
H1110 H 0.80218 0.48984 0.56881 0.0
H1111 H 0.74524 0.50688 0.62091 0.0
H1112 H 0.75076 0.46872 0.63669 0.0
H1113 H 0.77039 0.54501 0.61479 0.0
H1114 H 0.73292 0.48265 0.56255 0.0
H1115 H 0.73267 0.4454 0.53644 0.0
H1116 H 0.78552 0.47381 0.49009 0.0
H1117 H 0.78631 0.51114 0.51615 0.0
C1118 C 0.70054 0.60768 0.55102 0.0
C1119 C 0.70899 0.61713 0.53019 0.0
C1120 C 0.71439 0.59098 0.5618 0.0
C1121 C 0.73694 0.58331 0.55196 0.0
C1122 C 0.74573 0.59303 0.53147 0.0
C1123 C 0.73197 0.60997 0.52078 0.0
C1124 C 0.75008 0.56372 0.56202 0.0
C1125 C 0.75269 0.54251 0.54752 0.0
C1126 C 0.75696 0.5648 0.58646 0.0
C1127 C 0.75536 0.58705 0.60235 0.0
C1128 C 0.76634 0.60782 0.59566 0.0
C1129 C 0.7645 0.6288 0.61053 0.0
C1130 C 0.75182 0.62923 0.63222 0.0
C1131 C 0.741 0.60865 0.63911 0.0
C1132 C 0.74277 0.58763 0.62429 0.0
C1133 C 0.79398 0.4634 0.59257 0.0
C1134 C 0.77932 0.45695 0.61153 0.0
C1135 C 0.79105 0.48543 0.58377 0.0
C1136 C 0.77299 0.50109 0.59341 0.0
C1137 C 0.7593 0.49513 0.61319 0.0
C1138 C 0.76248 0.4733 0.62221 0.0
C1139 C 0.76669 0.52273 0.5818 0.0
C1140 C 0.76526 0.54428 0.59601 0.0
C1141 C 0.76046 0.52191 0.55716 0.0
C1142 C 0.75991 0.49954 0.54144 0.0
C1143 C 0.74461 0.48088 0.54688 0.0
C1144 C 0.74435 0.45977 0.53209 0.0
C1145 C 0.75913 0.45722 0.51166 0.0
C1146 C 0.77413 0.4758 0.50595 0.0
C1147 C 0.77449 0.49693 0.52072 0.0
H1148 H 0.7589 0.44086 0.50022 0.0
H1149 H 0.7504 0.64549 0.64371 0.0
H1150 H 0.85628 0.22565 0.0881 0.0
H1151 H 0.86695 0.22803 0.1308 0.0
H1152 H 0.90076 0.15944 0.12039 0.0
H1153 H 0.88952 0.15659 0.07826 0.0
H1154 H 0.87712 0.16202 0.15999 0.0
H1155 H 0.93401 0.21296 0.12288 0.0
H1156 H 0.94559 0.24642 0.10018 0.0
H1157 H 0.91001 0.29436 0.15262 0.0
H1158 H 0.89799 0.26111 0.17549 0.0
H1159 H 0.985 0.19041 0.24377 0.0
H1160 H 0.96179 0.19951 0.20856 0.0
H1161 H 0.8942 0.18564 0.24472 0.0
H1162 H 0.91756 0.17584 0.27993 0.0
H1163 H 0.92843 0.22824 0.19535 0.0
H1164 H 0.85515 0.15702 0.20469 0.0
H1165 H 0.84922 0.12055 0.2247 0.0
H1166 H 0.92688 0.10821 0.22318 0.0
H1167 H 0.9332 0.1444 0.20288 0.0
C1168 C 0.86587 0.21104 0.09499 0.0
C1169 C 0.87211 0.19096 0.07973 0.0
C1170 C 0.872 0.21245 0.11938 0.0
C1171 C 0.88488 0.19401 0.12881 0.0
C1172 C 0.89071 0.17385 0.11364 0.0
C1173 C 0.88432 0.17229 0.08945 0.0
C1174 C 0.89316 0.19562 0.1542 0.0
C1175 C 0.8881 0.17666 0.1678 0.0
C1176 C 0.90764 0.2146 0.16442 0.0
C1177 C 0.91485 0.23456 0.15071 0.0
C1178 C 0.92851 0.23063 0.12946 0.0
C1179 C 0.93518 0.24955 0.11659 0.0
C1180 C 0.92847 0.27249 0.12491 0.0
C1181 C 0.91514 0.27657 0.14617 0.0
C1182 C 0.90841 0.2577 0.15909 0.0
C1183 C 0.96517 0.18987 0.24447 0.0
C1184 C 0.95308 0.18223 0.26451 0.0
C1185 C 0.95189 0.19508 0.2243 0.0
C1186 C 0.92626 0.19289 0.2238 0.0
C1187 C 0.914 0.18701 0.24451 0.0
C1188 C 0.92733 0.18144 0.26461 0.0
C1189 C 0.91297 0.19433 0.2008 0.0
C1190 C 0.91695 0.2139 0.18774 0.0
C1191 C 0.89824 0.1755 0.19067 0.0
C1192 C 0.89464 0.15356 0.20259 0.0
C1193 C 0.87093 0.14647 0.20859 0.0
C1194 C 0.86751 0.12586 0.21997 0.0
C1195 C 0.88767 0.11212 0.2253 0.0
C1196 C 0.91129 0.1189 0.21914 0.0
C1197 C 0.9148 0.13946 0.2077 0.0
H1198 H 0.88499 0.09619 0.23414 0.0
H1199 H 0.93365 0.28712 0.11492 0.0
H1200 H 0.16898 0.80721 0.14692 0.0
H1201 H 0.16996 0.7888 0.1845 0.0
H1202 H 0.16628 0.72006 0.1454 0.0
H1203 H 0.1642 0.73856 0.10755 0.0
H1204 H 0.13927 0.72025 0.18385 0.0
H1205 H 0.22132 0.74397 0.16867 0.0
H1206 H 0.25446 0.77105 0.15913 0.0
H1207 H 0.23867 0.81563 0.22318 0.0
H1208 H 0.2052 0.78897 0.23294 0.0
H1209 H 0.19573 0.65918 0.27671 0.0
H1210 H 0.18503 0.6766 0.23993 0.0
H1211 H 0.17021 0.74294 0.28049 0.0
H1212 H 0.17962 0.7254 0.31772 0.0
H1213 H 0.20575 0.74363 0.2418 0.0
H1214 H 0.12413 0.71662 0.25698 0.0
H1215 H 0.093 0.6872 0.26569 0.0
H1216 H 0.11114 0.64554 0.2004 0.0
H1217 H 0.14265 0.67457 0.19147 0.0
C1218 C 0.1684 0.78816 0.14629 0.0
C1219 C 0.16686 0.77429 0.12428 0.0
C1220 C 0.16901 0.77765 0.1678 0.0
C1221 C 0.1688 0.75302 0.16777 0.0
C1222 C 0.1666 0.7391 0.14585 0.0
C1223 C 0.16549 0.74966 0.12426 0.0
C1224 C 0.17137 0.74195 0.19064 0.0
C1225 C 0.15398 0.72516 0.19638 0.0
C1226 C 0.19041 0.74854 0.20716 0.0
C1227 C 0.2106 0.76458 0.20141 0.0
C1228 C 0.2248 0.75963 0.18063 0.0
C1229 C 0.24366 0.77489 0.1752 0.0
C1230 C 0.24863 0.79508 0.19051 0.0
C1231 C 0.23478 0.8 0.21132 0.0
C1232 C 0.21588 0.78481 0.21683 0.0
C1233 C 0.18945 0.67727 0.27804 0.0
C1234 C 0.18864 0.69088 0.30032 0.0
C1235 C 0.1835 0.68721 0.25691 0.0
C1236 C 0.17688 0.711 0.25757 0.0
C1237 C 0.17537 0.72452 0.2797 0.0
C1238 C 0.18094 0.7145 0.30092 0.0
C1239 C 0.17358 0.72217 0.23499 0.0
C1240 C 0.19098 0.73887 0.22928 0.0
C1241 C 0.15489 0.71513 0.21836 0.0
C1242 C 0.13593 0.69767 0.22368 0.0
C1243 C 0.12165 0.70108 0.24459 0.0
C1244 C 0.1039 0.6845 0.24954 0.0
C1245 C 0.10014 0.66448 0.23364 0.0
C1246 C 0.11409 0.66104 0.21272 0.0
C1247 C 0.13188 0.67757 0.20769 0.0
H1248 H 0.08638 0.65167 0.2375 0.0
H1249 H 0.26323 0.80687 0.18627 0.0
H1250 H 0.70655 0.74674 0.55041 0.0
H1251 H 0.74123 0.76766 0.56966 0.0
H1252 H 0.78976 0.735 0.51572 0.0
H1253 H 0.75507 0.71324 0.49672 0.0
H1254 H 0.81043 0.73483 0.55767 0.0
H1255 H 0.77234 0.79403 0.51606 0.0
H1256 H 0.73858 0.81831 0.50243 0.0
H1257 H 0.72491 0.84586 0.57507 0.0
H1258 H 0.75837 0.8215 0.5892 0.0
H1259 H 0.9042 0.81798 0.6038 0.0
H1260 H 0.87504 0.79672 0.57634 0.0
H1261 H 0.8179 0.80846 0.62911 0.0
H1262 H 0.84688 0.82868 0.65696 0.0
H1263 H 0.80543 0.82062 0.58184 0.0
H1264 H 0.84167 0.75708 0.62252 0.0
H1265 H 0.87627 0.73309 0.63487 0.0
H1266 H 0.8949 0.71484 0.56107 0.0
H1267 H 0.86057 0.73902 0.54829 0.0
C1268 C 0.72455 0.74408 0.5425 0.0
C1269 C 0.728 0.72843 0.52191 0.0
C1270 C 0.74439 0.75617 0.55348 0.0
C1271 C 0.76806 0.75333 0.54385 0.0
C1272 C 0.77164 0.73758 0.52339 0.0
C1273 C 0.7518 0.72519 0.51254 0.0
C1274 C 0.789 0.7664 0.55569 0.0
C1275 C 0.80954 0.75368 0.56249 0.0
C1276 C 0.78788 0.79099 0.56212 0.0
C1277 C 0.7678 0.80581 0.5537 0.0
C1278 C 0.76204 0.80516 0.52915 0.0
C1279 C 0.74297 0.81895 0.52133 0.0
C1280 C 0.72958 0.83359 0.53788 0.0
C1281 C 0.73529 0.83451 0.56228 0.0
C1282 C 0.75434 0.82074 0.5702 0.0
C1283 C 0.88552 0.81578 0.60969 0.0
C1284 C 0.87789 0.82528 0.63257 0.0
C1285 C 0.86888 0.80375 0.59392 0.0
C1286 C 0.84435 0.80119 0.60072 0.0
C1287 C 0.83672 0.8105 0.62348 0.0
C1288 C 0.85333 0.82221 0.63931 0.0
C1289 C 0.82632 0.78892 0.58425 0.0
C1290 C 0.8064 0.80184 0.57659 0.0
C1291 C 0.82819 0.76464 0.57676 0.0
C1292 C 0.84877 0.75009 0.58446 0.0
C1293 C 0.85329 0.74814 0.60893 0.0
C1294 C 0.87282 0.73447 0.61601 0.0
C1295 C 0.88783 0.72252 0.59877 0.0
C1296 C 0.88329 0.72415 0.57441 0.0
C1297 C 0.8638 0.73783 0.56723 0.0
H1298 H 0.90293 0.71193 0.60428 0.0
H1299 H 0.71482 0.84425 0.53178 0.0
H1300 H 0.74607 0.21517 0.00432 0.0
H1301 H 0.71189 0.23378 0.02721 0.0
H1302 H 0.76226 0.26147 0.08214 0.0
H1303 H 0.79657 0.24334 0.05925 0.0
H1304 H 0.71847 0.23735 0.09841 0.0
H1305 H 0.7433 0.29788 0.04769 0.0
H1306 H 0.75238 0.31299 0.00876 0.0
H1307 H 0.67902 0.2966 0.98476 0.0
H1308 H 0.66962 0.28106 0.02346 0.0
H1309 H 0.64743 0.3188 0.16969 0.0
H1310 H 0.67903 0.29868 0.1447 0.0
H1311 H 0.62882 0.29228 0.08473 0.0
H1312 H 0.59752 0.31347 0.10956 0.0
H1313 H 0.67092 0.30333 0.0693 0.0
H1314 H 0.64408 0.2445 0.11851 0.0
H1315 H 0.63343 0.22716 0.15593 0.0
H1316 H 0.70757 0.23663 0.18088 0.0
H1317 H 0.71859 0.25433 0.14374 0.0
C1318 C 0.74986 0.22524 0.02127 0.0
C1319 C 0.77401 0.22786 0.02996 0.0
C1320 C 0.73035 0.23587 0.03426 0.0
C1321 C 0.73465 0.24898 0.05628 0.0
C1322 C 0.75865 0.2514 0.06515 0.0
C1323 C 0.7782 0.24113 0.052 0.0
C1324 C 0.71413 0.26021 0.07016 0.0
C1325 C 0.70817 0.25193 0.09224 0.0
C1326 C 0.70024 0.27861 0.06156 0.0
C1327 C 0.70585 0.28807 0.03836 0.0
C1328 C 0.72918 0.29729 0.03403 0.0
C1329 C 0.73437 0.30598 0.01202 0.0
C1330 C 0.71631 0.30569 0.99427 0.0
C1331 C 0.693 0.29678 0.99851 0.0
C1332 C 0.68773 0.28804 0.02048 0.0
C1333 C 0.64317 0.31299 0.15119 0.0
C1334 C 0.62007 0.31748 0.14153 0.0
C1335 C 0.66116 0.30139 0.13694 0.0
C1336 C 0.65618 0.29345 0.11293 0.0
C1337 C 0.6331 0.29814 0.10321 0.0
C1338 C 0.61524 0.31019 0.11736 0.0
C1339 C 0.67525 0.28071 0.09792 0.0
C1340 C 0.68098 0.28864 0.07555 0.0
C1341 C 0.68863 0.26164 0.10606 0.0
C1342 C 0.68211 0.25093 0.12841 0.0
C1343 C 0.65807 0.24304 0.13205 0.0
C1344 C 0.65198 0.23312 0.1532 0.0
C1345 C 0.6698 0.23085 0.17079 0.0
C1346 C 0.69378 0.23843 0.16724 0.0
C1347 C 0.69997 0.24838 0.14613 0.0
H1348 H 0.66504 0.22317 0.18716 0.0
H1349 H 0.72036 0.31242 0.97724 0.0
H1350 H 0.34983 0.23312 0.60522 0.0
H1351 H 0.35036 0.21223 0.6417 0.0
H1352 H 0.34044 0.27812 0.6848 0.0
H1353 H 0.33947 0.29903 0.64858 0.0
H1354 H 0.3763 0.24567 0.70303 0.0
H1355 H 0.29238 0.24893 0.67261 0.0
H1356 H 0.26083 0.24147 0.64123 0.0
H1357 H 0.27679 0.16742 0.63679 0.0
H1358 H 0.30871 0.17453 0.66793 0.0
H1359 H 0.3222 0.22537 0.81328 0.0
H1360 H 0.33648 0.23727 0.77482 0.0
H1361 H 0.32148 0.16732 0.74166 0.0
H1362 H 0.30599 0.15586 0.77998 0.0
H1363 H 0.30324 0.19636 0.71551 0.0
H1364 H 0.38209 0.1911 0.75035 0.0
H1365 H 0.41457 0.19735 0.78094 0.0
H1366 H 0.41085 0.27206 0.77632 0.0
H1367 H 0.37809 0.26632 0.74595 0.0
C1368 C 0.34807 0.24315 0.6225 0.0
C1369 C 0.34435 0.26765 0.62408 0.0
C1370 C 0.3484 0.23122 0.64326 0.0
C1371 C 0.34542 0.24369 0.66584 0.0
C1372 C 0.34286 0.26825 0.66751 0.0
C1373 C 0.3421 0.28011 0.64681 0.0
C1374 C 0.34281 0.23118 0.68766 0.0
C1375 C 0.36038 0.23487 0.70591 0.0
C1376 C 0.32241 0.21655 0.69092 0.0
C1377 C 0.30312 0.21229 0.67235 0.0
C1378 C 0.28931 0.23109 0.66478 0.0
C1379 C 0.27133 0.22692 0.64707 0.0
C1380 C 0.26687 0.20399 0.63696 0.0
C1381 C 0.28031 0.18518 0.6446 0.0
C1382 C 0.29834 0.18926 0.66227 0.0
C1383 C 0.32241 0.21248 0.79783 0.0
C1384 C 0.31304 0.18976 0.79944 0.0
C1385 C 0.33071 0.21921 0.77588 0.0
C1386 C 0.33041 0.20311 0.7553 0.0
C1387 C 0.32191 0.18007 0.75722 0.0
C1388 C 0.31312 0.17351 0.77907 0.0
C1389 C 0.3366 0.21102 0.73146 0.0
C1390 C 0.31959 0.20661 0.71271 0.0
C1391 C 0.35775 0.22469 0.72769 0.0
C1392 C 0.3775 0.22827 0.74595 0.0
C1393 C 0.38807 0.20888 0.75597 0.0
C1394 C 0.40656 0.21233 0.77326 0.0
C1395 C 0.41474 0.23509 0.7806 0.0
C1396 C 0.40449 0.25444 0.77063 0.0
C1397 C 0.38598 0.25109 0.75334 0.0
H1398 H 0.42905 0.23772 0.79399 0.0
H1399 H 0.25294 0.2008 0.62326 0.0
H1400 H 0.66162 0.75696 0.44197 0.0
H1401 H 0.65997 0.77316 0.40298 0.0
H1402 H 0.66091 0.70266 0.36749 0.0
H1403 H 0.66387 0.68655 0.40632 0.0
H1404 H 0.69103 0.72687 0.34642 0.0
H1405 H 0.60827 0.73999 0.37019 0.0
H1406 H 0.57408 0.75357 0.39663 0.0
H1407 H 0.5986 0.82512 0.39583 0.0
H1408 H 0.63317 0.81194 0.36965 0.0
H1409 H 0.67015 0.7672 0.23177 0.0
H1410 H 0.65877 0.74993 0.26863 0.0
H1411 H 0.68098 0.81364 0.31038 0.0
H1412 H 0.69356 0.83067 0.27396 0.0
H1413 H 0.63538 0.79099 0.32606 0.0
H1414 H 0.72088 0.77448 0.30475 0.0
H1415 H 0.75328 0.75919 0.2769 0.0
H1416 H 0.71965 0.69075 0.27156 0.0
H1417 H 0.68681 0.70576 0.2991 0.0
C1418 C 0.66131 0.74498 0.42581 0.0
C1419 C 0.66309 0.72055 0.42711 0.0
C1420 C 0.66017 0.75421 0.40353 0.0
C1421 C 0.66001 0.73914 0.38221 0.0
C1422 C 0.6611 0.71468 0.38362 0.0
C1423 C 0.66282 0.70549 0.40582 0.0
C1424 C 0.66042 0.74883 0.35843 0.0
C1425 C 0.67846 0.74054 0.3419 0.0
C1426 C 0.64428 0.76689 0.35244 0.0
C1427 C 0.62344 0.77494 0.3681 0.0
C1428 C 0.60648 0.7586 0.37578 0.0
C1429 C 0.58701 0.76623 0.39071 0.0
C1430 C 0.5842 0.79018 0.39794 0.0
C1431 C 0.60081 0.80657 0.39022 0.0
C1432 C 0.62033 0.79903 0.37532 0.0
C1433 C 0.67258 0.77761 0.24876 0.0
C1434 C 0.68309 0.80027 0.24981 0.0
C1435 C 0.66581 0.76778 0.26976 0.0
C1436 C 0.66914 0.78053 0.29213 0.0
C1437 C 0.67812 0.80363 0.29322 0.0
C1438 C 0.68522 0.81335 0.27229 0.0
C1439 C 0.66591 0.76899 0.31451 0.0
C1440 C 0.64753 0.77703 0.33069 0.0
C1441 C 0.68138 0.75036 0.32006 0.0
C1442 C 0.70126 0.74131 0.30373 0.0
C1443 C 0.72029 0.75623 0.29746 0.0
C1444 C 0.73874 0.74761 0.28177 0.0
C1445 C 0.73848 0.72403 0.27241 0.0
C1446 C 0.7198 0.70902 0.27879 0.0
C1447 C 0.70127 0.71757 0.29443 0.0
H1448 H 0.75279 0.71739 0.26027 0.0
H1449 H 0.56911 0.79606 0.4095 0.0
H1450 H 0.8083 0.21002 0.91334 0.0
H1451 H 0.81271 0.22714 0.87547 0.0
H1452 H 0.86441 0.27787 0.90766 0.0
H1453 H 0.86025 0.26066 0.94616 0.0
H1454 H 0.82788 0.29675 0.87766 0.0
H1455 H 0.88772 0.23629 0.87321 0.0
H1456 H 0.904 0.19668 0.87814 0.0
H1457 H 0.85173 0.16618 0.82696 0.0
H1458 H 0.83477 0.20559 0.82203 0.0
H1459 H 0.83757 0.32705 0.75709 0.0
H1460 H 0.85227 0.31523 0.79565 0.0
H1461 H 0.80698 0.25294 0.78669 0.0
H1462 H 0.79264 0.26439 0.74806 0.0
H1463 H 0.85151 0.24373 0.80621 0.0
H1464 H 0.78664 0.3023 0.81829 0.0
H1465 H 0.76806 0.34128 0.81474 0.0
H1466 H 0.82918 0.37475 0.85243 0.0
H1467 H 0.84827 0.33592 0.85591 0.0
C1468 C 0.82056 0.22491 0.91261 0.0
C1469 C 0.83404 0.23387 0.93287 0.0
C1470 C 0.82313 0.23459 0.89083 0.0
C1471 C 0.83921 0.25345 0.88871 0.0
C1472 C 0.85206 0.26315 0.90898 0.0
C1473 C 0.84961 0.25333 0.93092 0.0
C1474 C 0.84216 0.26268 0.86505 0.0
C1475 C 0.83374 0.28545 0.86209 0.0
C1476 C 0.84953 0.24773 0.8448 0.0
C1477 C 0.85993 0.22395 0.84729 0.0
C1478 C 0.8796 0.22114 0.86307 0.0
C1479 C 0.88897 0.19872 0.86585 0.0
C1480 C 0.87896 0.17895 0.85281 0.0
C1481 C 0.85951 0.18154 0.83699 0.0
C1482 C 0.85003 0.20393 0.83417 0.0
C1483 C 0.83117 0.3106 0.76315 0.0
C1484 C 0.81377 0.29674 0.74972 0.0
C1485 C 0.83947 0.30395 0.7852 0.0
C1486 C 0.8305 0.28335 0.79412 0.0
C1487 C 0.81412 0.26891 0.78015 0.0
C1488 C 0.80577 0.27557 0.7582 0.0
C1489 C 0.83645 0.27753 0.81873 0.0
C1490 C 0.84646 0.25534 0.82184 0.0
C1491 C 0.8305 0.29298 0.83913 0.0
C1492 C 0.81902 0.31627 0.83707 0.0
C1493 C 0.7962 0.31799 0.82564 0.0
C1494 C 0.78557 0.34005 0.82367 0.0
C1495 C 0.79748 0.36049 0.83328 0.0
C1496 C 0.82001 0.3589 0.84494 0.0
C1497 C 0.83074 0.33689 0.84691 0.0
H1498 H 0.78921 0.37755 0.83175 0.0
H1499 H 0.88632 0.16162 0.85494 0.0
H1500 H 0.29631 0.23779 0.51856 0.0
H1501 H 0.26099 0.21885 0.49817 0.0
H1502 H 0.21536 0.27758 0.52375 0.0
H1503 H 0.25052 0.29643 0.54477 0.0
H1504 H 0.19126 0.23753 0.52624 0.0
H1505 H 0.23751 0.27234 0.46651 0.0
H1506 H 0.27449 0.28109 0.44368 0.0
H1507 H 0.28146 0.20787 0.41894 0.0
H1508 H 0.24474 0.19861 0.442 0.0
H1509 H 0.09677 0.21277 0.43747 0.0
H1510 H 0.12981 0.23137 0.46226 0.0
H1511 H 0.17449 0.1694 0.44733 0.0
H1512 H 0.14159 0.15074 0.42259 0.0
H1513 H 0.19816 0.21222 0.43937 0.0
H1514 H 0.15049 0.17861 0.50042 0.0
H1515 H 0.11276 0.17184 0.52301 0.0
H1516 H 0.10719 0.246 0.54397 0.0
H1517 H 0.14472 0.25325 0.52121 0.0
C1518 C 0.27876 0.24667 0.51996 0.0
C1519 C 0.2763 0.26873 0.53316 0.0
C1520 C 0.25859 0.23584 0.50822 0.0
C1521 C 0.23563 0.247 0.50907 0.0
C1522 C 0.23292 0.26868 0.5228 0.0
C1523 C 0.25306 0.27945 0.53477 0.0
C1524 C 0.21465 0.23625 0.49517 0.0
C1525 C 0.19267 0.23228 0.50718 0.0
C1526 C 0.21655 0.22923 0.47033 0.0
C1527 C 0.23849 0.23475 0.45618 0.0
C1528 C 0.24702 0.25807 0.45634 0.0
C1529 C 0.26793 0.26313 0.44334 0.0
C1530 C 0.28035 0.24504 0.4299 0.0
C1531 C 0.27184 0.22186 0.42938 0.0
C1532 C 0.25097 0.2167 0.44241 0.0
C1533 C 0.11359 0.2031 0.43963 0.0
C1534 C 0.11662 0.1803 0.42819 0.0
C1535 C 0.13237 0.21368 0.45384 0.0
C1536 C 0.15452 0.2017 0.45663 0.0
C1537 C 0.15749 0.17888 0.44539 0.0
C1538 C 0.13865 0.1682 0.43144 0.0
C1539 C 0.17498 0.21326 0.47052 0.0
C1540 C 0.19682 0.21748 0.45844 0.0
C1541 C 0.17279 0.22084 0.49516 0.0
C1542 C 0.15027 0.21649 0.5089 0.0
C1543 C 0.1411 0.1935 0.50967 0.0
C1544 C 0.11978 0.18957 0.52254 0.0
C1545 C 0.10755 0.20848 0.53486 0.0
C1546 C 0.11666 0.23136 0.53439 0.0
C1547 C 0.13797 0.23539 0.52152 0.0
H1548 H 0.09104 0.20541 0.54482 0.0
H1549 H 0.29655 0.24899 0.41986 0.0
H1550 H 0.25211 0.79202 0.05254 0.0
H1551 H 0.28744 0.77354 0.03165 0.0
H1552 H 0.23936 0.74097 0.97698 0.0
H1553 H 0.20401 0.75866 0.99814 0.0
H1554 H 0.27106 0.71038 0.9882 0.0
H1555 H 0.2756 0.79084 0.96907 0.0
H1556 H 0.27774 0.83399 0.97785 0.0
H1557 H 0.34549 0.82715 0.01577 0.0
H1558 H 0.34356 0.7839 0.0075 0.0
H1559 H 0.35035 0.68848 0.88917 0.0
H1560 H 0.3205 0.70815 0.91638 0.0
H1561 H 0.37375 0.71237 0.97353 0.0
H1562 H 0.4036 0.69147 0.94676 0.0
H1563 H 0.34287 0.75661 0.96473 0.0
H1564 H 0.33785 0.67465 0.98028 0.0
H1565 H 0.33466 0.63205 0.96828 0.0
H1566 H 0.26603 0.64298 0.9333 0.0
H1567 H 0.26901 0.68572 0.94478 0.0
C1568 C 0.24908 0.78094 0.03606 0.0
C1569 C 0.22524 0.7768 0.02702 0.0
C1570 C 0.26931 0.77046 0.02407 0.0
C1571 C 0.26611 0.75606 0.00258 0.0
C1572 C 0.24231 0.75194 0.99357 0.0
C1573 C 0.2221 0.76211 0.00569 0.0
C1574 C 0.28737 0.74497 0.98946 0.0
C1575 C 0.28665 0.72059 0.98299 0.0
C1576 C 0.30803 0.75813 0.98302 0.0
C1577 C 0.30928 0.78412 0.98791 0.0
C1578 C 0.29085 0.79853 0.97944 0.0
C1579 C 0.29205 0.823 0.9843 0.0
C1580 C 0.3117 0.8333 0.99742 0.0
C1581 C 0.33025 0.81914 0.00565 0.0
C1582 C 0.32912 0.79465 0.00087 0.0
C1583 C 0.35575 0.69326 0.90758 0.0
C1584 C 0.37936 0.688 0.9158 0.0
C1585 C 0.33871 0.70474 0.92302 0.0
C1586 C 0.34497 0.71156 0.94689 0.0
C1587 C 0.36869 0.70724 0.95508 0.0
C1588 C 0.38572 0.69538 0.93971 0.0
C1589 C 0.32616 0.72231 0.96334 0.0
C1590 C 0.32736 0.74652 0.97033 0.0
C1591 C 0.30572 0.70912 0.96995 0.0
C1592 C 0.30378 0.68341 0.96321 0.0
C1593 C 0.32219 0.668 0.96984 0.0
C1594 C 0.3204 0.64382 0.96317 0.0
C1595 C 0.30018 0.63482 0.94998 0.0
C1596 C 0.28169 0.64998 0.94349 0.0
C1597 C 0.28341 0.67417 0.9501 0.0
H1598 H 0.29883 0.6161 0.94483 0.0
H1599 H 0.31259 0.85225 0.00117 0.0
loop_
_geom_bond_atom_site_label_1
_geom_bond_atom_site_label_2
_geom_bond_distance
_geom_bond_site_symmetry_2
_ccdc_geom_bond_type
Sc0 O3 2.025 . S
Sc0 O10 2.105 . S
Sc0 O13 2.105 . S
Sc0 O16 2.105 . S
Sc0 O19 2.105 . S
Sc1 O3 2.025 . S
Sc1 O11 2.105 . S
Sc1 O15 2.105 . S
Sc1 O17 2.105 . S
Sc1 O21 2.105 . S
Sc2 O3 2.025 . S
Sc2 O12 2.105 . S
Sc2 O14 2.105 . S
Sc2 O18 2.105 . S
Sc2 O20 2.105 . S
O3 Sc0 2.025 . S
O3 Sc1 2.025 . S
O3 Sc2 2.025 . S
C4 O10 1.268 . S
C4 O20 1.268 . S
C5 O11 1.255 1_556 S
C5 O19 1.257 1_556 S
C6 O12 1.268 . S
C6 O21 1.268 . S
C7 O13 1.268 . S
C7 O17 1.268 . S
C8 O14 1.268 . S
C8 O16 1.268 . S
C9 O15 1.268 . S
C9 O18 1.268 . S
O10 Sc0 2.105 . S
O10 C4 1.268 . S
O11 Sc1 2.105 . S
O11 C5 1.255 1_554 S
O12 Sc2 2.105 . S
O12 C6 1.268 . S
O13 Sc0 2.105 . S
O13 C7 1.268 . S
O14 Sc2 2.105 . S
O14 C8 1.268 . S
O15 Sc1 2.105 . S
O15 C9 1.268 . S
O16 Sc0 2.105 . S
O16 C8 1.268 . S
O17 Sc1 2.105 . S
O17 C7 1.268 . S
O18 Sc2 2.105 . S
O18 C9 1.268 . S
O19 Sc0 2.105 . S
O19 C5 1.257 1_554 S
O20 Sc2 2.105 . S
O20 C4 1.268 . S
O21 Sc1 2.105 . S
O21 C6 1.268 . S
Sc22 O25 2.025 . S
Sc22 O32 2.105 . S
Sc22 O35 2.105 . S
Sc22 O38 2.105 . S
Sc22 O41 2.105 . S
Sc23 O25 2.025 . S
Sc23 O33 2.105 . S
Sc23 O37 2.105 . S
Sc23 O39 2.105 . S
Sc23 O43 2.105 . S
Sc24 O25 2.025 . S
Sc24 O34 2.105 . S
Sc24 O36 2.105 . S
Sc24 O40 2.105 . S
Sc24 O42 2.105 . S
O25 Sc22 2.025 . S
O25 Sc23 2.025 . S
O25 Sc24 2.025 . S
C26 O32 1.268 . S
C26 O42 1.268 . S
C27 O33 1.268 . S
C27 O41 1.268 . S
C28 O34 1.268 . S
C28 O43 1.268 . S
C29 O35 1.268 . S
C29 O39 1.268 . S
C30 O36 1.268 . S
C30 O38 1.268 . S
C31 O37 1.268 . S
C31 O40 1.268 . S
O32 Sc22 2.105 . S
O32 C26 1.268 . S
O33 Sc23 2.105 . S
O33 C27 1.268 . S
O34 Sc24 2.105 . S
O34 C28 1.268 . S
O35 Sc22 2.105 . S
O35 C29 1.268 . S
O36 Sc24 2.105 . S
O36 C30 1.268 . S
O37 Sc23 2.105 . S
O37 C31 1.268 . S
O38 Sc22 2.105 . S
O38 C30 1.268 . S
O39 Sc23 2.105 . S
O39 C29 1.268 . S
O40 Sc24 2.105 . S
O40 C31 1.268 . S
O41 Sc22 2.105 . S
O41 C27 1.268 . S
O42 Sc24 2.105 . S
O42 C26 1.268 . S
O43 Sc23 2.105 . S
O43 C28 1.268 . S
Sc44 O47 2.025 . S
Sc44 O54 2.105 1_554 S
Sc44 O57 2.105 . S
Sc44 O60 2.105 . S
Sc44 O63 2.105 1_554 S
Sc45 O47 2.025 1_556 S
Sc45 O55 2.105 . S
Sc45 O59 2.105 1_556 S
Sc45 O61 2.105 1_556 S
Sc45 O65 2.105 . S
Sc46 O47 2.025 . S
Sc46 O56 2.105 1_554 S
Sc46 O58 2.105 . S
Sc46 O62 2.105 . S
Sc46 O64 2.105 1_554 S
O47 Sc44 2.025 . S
O47 Sc45 2.025 1_554 S
O47 Sc46 2.025 . S
C48 O54 1.268 . S
C48 O64 1.268 . S
C49 O55 1.268 . S
C49 O63 1.268 . S
C50 O56 1.268 . S
C50 O65 1.268 . S
C51 O57 1.268 . S
C51 O61 1.268 . S
C52 O58 1.268 . S
C52 O60 1.268 . S
C53 O59 1.268 . S
C53 O62 1.268 . S
O54 Sc44 2.105 1_556 S
O54 C48 1.268 . S
O55 Sc45 2.105 . S
O55 C49 1.268 . S
O56 Sc46 2.105 1_556 S
O56 C50 1.268 . S
O57 Sc44 2.105 . S
O57 C51 1.268 . S
O58 Sc46 2.105 . S
O58 C52 1.268 . S
O59 Sc45 2.105 1_554 S
O59 C53 1.268 . S
O60 Sc44 2.105 . S
O60 C52 1.268 . S
O61 Sc45 2.105 1_554 S
O61 C51 1.268 . S
O62 Sc46 2.105 . S
O62 C53 1.268 . S
O63 Sc44 2.105 1_556 S
O63 C49 1.268 . S
O64 Sc46 2.105 1_556 S
O64 C48 1.268 . S
O65 Sc45 2.105 . S
O65 C50 1.268 . S
Sc66 O69 2.025 . S
Sc66 O76 2.105 . S
Sc66 O79 2.105 . S
Sc66 O82 2.105 . S
Sc66 O85 2.105 . S
Sc67 O69 2.025 . S
Sc67 O77 2.105 . S
Sc67 O81 2.105 . S
Sc67 O83 2.105 . S
Sc67 O87 2.105 . S
Sc68 O69 2.025 . S
Sc68 O78 2.105 . S
Sc68 O80 2.105 . S
Sc68 O84 2.105 . S
Sc68 O86 2.105 . S
O69 Sc66 2.025 . S
O69 Sc67 2.025 . S
O69 Sc68 2.025 . S
C70 O76 1.268 . S
C70 O86 1.268 . S
C71 O77 1.268 . S
C71 O85 1.268 . S
C72 O78 1.268 . S
C72 O87 1.268 . S
C73 O79 1.268 . S
C73 O83 1.268 . S
C74 O80 1.268 . S
C74 O82 1.268 . S
C75 O81 1.268 . S
C75 O84 1.268 . S
O76 Sc66 2.105 . S
O76 C70 1.268 . S
O77 Sc67 2.105 . S
O77 C71 1.268 . S
O78 Sc68 2.105 . S
O78 C72 1.268 . S
O79 Sc66 2.105 . S
O79 C73 1.268 . S
O80 Sc68 2.105 . S
O80 C74 1.268 . S
O81 Sc67 2.105 . S
O81 C75 1.268 . S
O82 Sc66 2.105 . S
O82 C74 1.268 . S
O83 Sc67 2.105 . S
O83 C73 1.268 . S
O84 Sc68 2.105 . S
O84 C75 1.268 . S
O85 Sc66 2.105 . S
O85 C71 1.268 . S
O86 Sc68 2.105 . S
O86 C70 1.268 . S
O87 Sc67 2.105 . S
O87 C72 1.268 . S
C88 C89 1.351 1_455 S
C88 C90 1.430 . S
C88 H112 0.934 . S
C89 C88 1.351 1_655 S
C89 C93 1.397 . S
C90 C88 1.430 . S
C90 C91 1.384 . S
C90 H113 0.930 . S
C91 C90 1.384 . S
C91 C92 1.377 1_455 S
C91 C94 1.481 . S
C92 C91 1.377 1_655 S
C92 C93 1.389 . S
C92 H114 0.929 . S
C93 C89 1.397 . S
C93 C92 1.389 . S
C93 H115 0.931 . S
C94 C91 1.481 . S
C94 C95 1.387 . S
C94 C99 1.390 . S
C95 C94 1.387 . S
C95 C96 1.401 . S
C95 H116 0.930 . S
C96 C95 1.401 . S
C96 C97 1.376 . S
C96 C105 1.511 . S
C97 C96 1.376 . S
C97 C98 1.392 . S
C97 H118 0.931 . S
C98 C97 1.392 . S
C98 C99 1.361 . S
C98 C100 1.500 . S
C99 C94 1.390 . S
C99 C98 1.361 . S
C99 H117 0.931 . S
C100 C98 1.500 . S
C100 C101 1.371 . S
C100 C102 1.365 . S
C101 C100 1.371 . S
C101 C111 1.386 . S
C101 H119 0.931 . S
C102 C100 1.365 . S
C102 C103 1.409 . S
C102 H120 0.929 . S
C103 C102 1.409 . S
C103 C104 1.380 . S
C103 H121 0.930 . S
C104 C103 1.380 . S
C104 C111 1.357 . S
C105 C96 1.511 . S
C105 C106 1.341 . S
C105 C107 1.371 . S
C106 C105 1.341 . S
C106 C110 1.394 . S
C106 H122 0.930 . S
C107 C105 1.371 . S
C107 C108 1.392 . S
C107 H123 0.931 . S
C108 C107 1.392 . S
C108 C109 1.331 . S
C108 H126 0.932 . S
C109 C108 1.331 . S
C109 C110 1.336 . S
C110 C106 1.394 . S
C110 C109 1.336 . S
C110 H125 0.929 . S
C111 C101 1.386 . S
C111 C104 1.357 . S
C111 H124 0.928 . S
H112 C88 0.934 . S
H113 C90 0.930 . S
H114 C92 0.929 . S
H115 C93 0.931 . S
H116 C95 0.930 . S
H117 C99 0.931 . S
H118 C97 0.931 . S
H119 C101 0.931 . S
H120 C102 0.929 . S
H121 C103 0.930 . S
H122 C106 0.930 . S
H123 C107 0.931 . S
H124 C111 0.928 . S
H125 C110 0.929 . S
H126 C108 0.932 . S
C127 C128 1.386 . S
C127 C129 1.397 . S
C127 H151 0.931 . S
C128 C127 1.386 . S
C128 C132 1.397 . S
C129 C127 1.397 . S
C129 C130 1.384 . S
C129 H152 0.930 . S
C130 C129 1.384 . S
C130 C131 1.377 . S
C130 C133 1.481 . S
C131 C130 1.377 . S
C131 C132 1.389 . S
C131 H153 0.929 . S
C132 C128 1.397 . S
C132 C131 1.389 . S
C132 H154 0.931 . S
C133 C130 1.481 . S
C133 C134 1.387 . S
C133 C138 1.390 . S
C134 C133 1.387 . S
C134 C135 1.401 . S
C134 H155 0.930 . S
C135 C134 1.401 . S
C135 C136 1.376 . S
C135 C144 1.511 . S
C136 C135 1.376 . S
C136 C137 1.392 . S
C136 H157 0.931 . S
C137 C136 1.392 . S
C137 C138 1.361 . S
C137 C139 1.500 . S
C138 C133 1.390 . S
C138 C137 1.361 . S
C138 H156 0.931 . S
C139 C137 1.500 . S
C139 C140 1.371 . S
C139 C141 1.365 . S
C140 C139 1.371 . S
C140 C150 1.386 . S
C140 H158 0.931 . S
C141 C139 1.365 . S
C141 C142 1.409 . S
C141 H159 0.929 . S
C142 C141 1.409 . S
C142 C143 1.380 . S
C142 H160 0.930 . S
C143 C142 1.380 . S
C143 C150 1.357 . S
C144 C135 1.511 . S
C144 C145 1.341 . S
C144 C146 1.371 . S
C145 C144 1.341 . S
C145 C149 1.394 . S
C145 H161 0.930 . S
C146 C144 1.371 . S
C146 C147 1.392 . S
C146 H162 0.931 . S
C147 C146 1.392 . S
C147 C148 1.331 . S
C147 H165 0.932 . S
C148 C147 1.331 . S
C148 C149 1.336 . S
C149 C145 1.394 . S
C149 C148 1.336 . S
C149 H164 0.929 . S
C150 C140 1.386 . S
C150 C143 1.357 . S
C150 H163 0.928 . S
H151 C127 0.931 . S
H152 C129 0.930 . S
H153 C131 0.929 . S
H154 C132 0.931 . S
H155 C134 0.930 . S
H156 C138 0.931 . S
H157 C136 0.931 . S
H158 C140 0.931 . S
H159 C141 0.929 . S
H160 C142 0.930 . S
H161 C145 0.930 . S
H162 C146 0.931 . S
H163 C150 0.928 . S
H164 C149 0.929 . S
H165 C147 0.932 . S
C166 C167 1.386 . S
C166 C168 1.397 . S
C166 H190 0.931 . S
C167 C166 1.386 . S
C167 C171 1.397 . S
C168 C166 1.397 . S
C168 C169 1.384 . S
C168 H191 0.930 . S
C169 C168 1.384 . S
C169 C170 1.377 . S
C169 C172 1.481 . S
C170 C169 1.377 . S
C170 C171 1.389 . S
C170 H192 0.929 . S
C171 C167 1.397 . S
C171 C170 1.389 . S
C171 H193 0.931 . S
C172 C169 1.481 . S
C172 C173 1.387 . S
C172 C177 1.390 . S
C173 C172 1.387 . S
C173 C174 1.401 . S
C173 H194 0.930 . S
C174 C173 1.401 . S
C174 C175 1.376 . S
C174 C183 1.511 . S
C175 C174 1.376 . S
C175 C176 1.392 . S
C175 H196 0.931 . S
C176 C175 1.392 . S
C176 C177 1.361 . S
C176 C178 1.500 . S
C177 C172 1.390 . S
C177 C176 1.361 . S
C177 H195 0.931 . S
C178 C176 1.500 . S
C178 C179 1.371 . S
C178 C180 1.365 . S
C179 C178 1.371 . S
C179 C189 1.386 . S
C179 H197 0.931 . S
C180 C178 1.365 . S
C180 C181 1.409 . S
C180 H198 0.929 . S
C181 C180 1.409 . S
C181 C182 1.380 . S
C181 H199 0.930 . S
C182 C181 1.380 . S
C182 C189 1.357 . S
C183 C174 1.511 . S
C183 C184 1.341 . S
C183 C185 1.371 . S
C184 C183 1.341 . S
C184 C188 1.394 . S
C184 H200 0.930 . S
C185 C183 1.371 . S
C185 C186 1.392 . S
C185 H201 0.931 . S
C186 C185 1.392 . S
C186 C187 1.331 . S
C186 H204 0.932 . S
C187 C186 1.331 . S
C187 C188 1.336 . S
C188 C184 1.394 . S
C188 C187 1.336 . S
C188 H203 0.929 . S
C189 C179 1.386 . S
C189 C182 1.357 . S
C189 H202 0.928 . S
H190 C166 0.931 . S
H191 C168 0.930 . S
H192 C170 0.929 . S
H193 C171 0.931 . S
H194 C173 0.930 . S
H195 C177 0.931 . S
H196 C175 0.931 . S
H197 C179 0.931 . S
H198 C180 0.929 . S
H199 C181 0.930 . S
H200 C184 0.930 . S
H201 C185 0.931 . S
H202 C189 0.928 . S
H203 C188 0.929 . S
H204 C186 0.932 . S
C205 C206 1.386 . S
C205 C207 1.397 . S
C205 H229 0.931 . S
C206 C205 1.386 . S
C206 C210 1.397 . S
C207 C205 1.397 . S
C207 C208 1.384 . S
C207 H230 0.930 . S
C208 C207 1.384 . S
C208 C209 1.377 . S
C208 C211 1.481 . S
C209 C208 1.377 . S
C209 C210 1.389 . S
C209 H231 0.929 . S
C210 C206 1.397 . S
C210 C209 1.389 . S
C210 H232 0.931 . S
C211 C208 1.481 . S
C211 C212 1.387 . S
C211 C216 1.390 . S
C212 C211 1.387 . S
C212 C213 1.401 . S
C212 H233 0.930 . S
C213 C212 1.401 . S
C213 C214 1.376 . S
C213 C222 1.511 . S
C214 C213 1.376 . S
C214 C215 1.392 . S
C214 H235 0.931 . S
C215 C214 1.392 . S
C215 C216 1.361 . S
C215 C217 1.500 . S
C216 C211 1.390 . S
C216 C215 1.361 . S
C216 H234 0.931 . S
C217 C215 1.500 . S
C217 C218 1.371 . S
C217 C219 1.365 . S
C218 C217 1.371 . S
C218 C228 1.386 . S
C218 H236 0.931 . S
C219 C217 1.365 . S
C219 C220 1.409 . S
C219 H237 0.929 . S
C220 C219 1.409 . S
C220 C221 1.380 . S
C220 H238 0.930 . S
C221 C220 1.380 . S
C221 C228 1.357 . S
C222 C213 1.511 . S
C222 C223 1.341 . S
C222 C224 1.371 . S
C223 C222 1.341 . S
C223 C227 1.394 . S
C223 H239 0.930 . S
C224 C222 1.371 . S
C224 C225 1.392 . S
C224 H240 0.931 . S
C225 C224 1.392 . S
C225 C226 1.331 . S
C225 H243 0.932 . S
C226 C225 1.331 . S
C226 C227 1.336 . S
C227 C223 1.394 . S
C227 C226 1.336 . S
C227 H242 0.929 . S
C228 C218 1.386 . S
C228 C221 1.357 . S
C228 H241 0.928 . S
H229 C205 0.931 . S
H230 C207 0.930 . S
H231 C209 0.929 . S
H232 C210 0.931 . S
H233 C212 0.930 . S
H234 C216 0.931 . S
H235 C214 0.931 . S
H236 C218 0.931 . S
H237 C219 0.929 . S
H238 C220 0.930 . S
H239 C223 0.930 . S
H240 C224 0.931 . S
H241 C228 0.928 . S
H242 C227 0.929 . S
H243 C225 0.932 . S
C244 C245 1.386 . S
C244 C246 1.397 . S
C244 H268 0.931 . S
C245 C244 1.386 . S
C245 C249 1.397 . S
C246 C244 1.397 . S
C246 C247 1.384 . S
C246 H269 0.930 . S
C247 C246 1.384 . S
C247 C248 1.377 . S
C247 C250 1.481 . S
C248 C247 1.377 . S
C248 C249 1.389 . S
C248 H270 0.929 . S
C249 C245 1.397 . S
C249 C248 1.389 . S
C249 H271 0.931 . S
C250 C247 1.481 . S
C250 C251 1.387 . S
C250 C255 1.390 . S
C251 C250 1.387 . S
C251 C252 1.401 . S
C251 H272 0.930 . S
C252 C251 1.401 . S
C252 C253 1.376 . S
C252 C261 1.511 . S
C253 C252 1.376 . S
C253 C254 1.392 . S
C253 H274 0.931 . S
C254 C253 1.392 . S
C254 C255 1.361 . S
C254 C256 1.500 . S
C255 C250 1.390 . S
C255 C254 1.361 . S
C255 H273 0.931 . S
C256 C254 1.500 . S
C256 C257 1.371 . S
C256 C258 1.365 . S
C257 C256 1.371 . S
C257 C267 1.386 . S
C257 H275 0.931 . S
C258 C256 1.365 . S
C258 C259 1.409 . S
C258 H276 0.929 . S
C259 C258 1.409 . S
C259 C260 1.380 . S
C259 H277 0.930 . S
C260 C259 1.380 . S
C260 C267 1.357 . S
C261 C252 1.511 . S
C261 C262 1.341 . S
C261 C263 1.371 . S
C262 C261 1.341 . S
C262 C266 1.394 . S
C262 H278 0.930 . S
C263 C261 1.371 . S
C263 C264 1.392 . S
C263 H279 0.931 . S
C264 C263 1.392 . S
C264 C265 1.331 . S
C264 H282 0.932 . S
C265 C264 1.331 . S
C265 C266 1.336 . S
C266 C262 1.394 . S
C266 C265 1.336 . S
C266 H281 0.929 . S
C267 C257 1.386 . S
C267 C260 1.357 . S
C267 H280 0.928 . S
H268 C244 0.931 . S
H269 C246 0.930 . S
H270 C248 0.929 . S
H271 C249 0.931 . S
H272 C251 0.930 . S
H273 C255 0.931 . S
H274 C253 0.931 . S
H275 C257 0.931 . S
H276 C258 0.929 . S
H277 C259 0.930 . S
H278 C262 0.930 . S
H279 C263 0.931 . S
H280 C267 0.928 . S
H281 C266 0.929 . S
H282 C264 0.932 . S
C283 C284 1.386 . S
C283 C285 1.397 . S
C283 H307 0.931 . S
C284 C283 1.386 . S
C284 C288 1.397 . S
C285 C283 1.397 . S
C285 C286 1.384 . S
C285 H308 0.930 . S
C286 C285 1.384 . S
C286 C287 1.377 . S
C286 C289 1.481 . S
C287 C286 1.377 . S
C287 C288 1.389 . S
C287 H309 0.929 . S
C288 C284 1.397 . S
C288 C287 1.389 . S
C288 H310 0.931 . S
C289 C286 1.481 . S
C289 C290 1.387 . S
C289 C294 1.390 . S
C290 C289 1.387 . S
C290 C291 1.401 . S
C290 H311 0.930 . S
C291 C290 1.401 . S
C291 C292 1.376 . S
C291 C300 1.511 . S
C292 C291 1.376 . S
C292 C293 1.392 . S
C292 H313 0.931 . S
C293 C292 1.392 . S
C293 C294 1.361 . S
C293 C295 1.500 . S
C294 C289 1.390 . S
C294 C293 1.361 . S
C294 H312 0.931 . S
C295 C293 1.500 . S
C295 C296 1.371 . S
C295 C297 1.365 . S
C296 C295 1.371 . S
C296 C306 1.386 . S
C296 H314 0.931 . S
C297 C295 1.365 . S
C297 C298 1.409 . S
C297 H315 0.929 . S
C298 C297 1.409 . S
C298 C299 1.380 . S
C298 H316 0.930 . S
C299 C298 1.380 . S
C299 C306 1.357 . S
C300 C291 1.511 . S
C300 C301 1.341 . S
C300 C302 1.371 . S
C301 C300 1.341 . S
C301 C305 1.394 . S
C301 H317 0.930 . S
C302 C300 1.371 . S
C302 C303 1.392 . S
C302 H318 0.931 . S
C303 C302 1.392 . S
C303 C304 1.331 . S
C303 H321 0.932 . S
C304 C303 1.331 . S
C304 C305 1.336 . S
C305 C301 1.394 . S
C305 C304 1.336 . S
C305 H320 0.929 . S
C306 C296 1.386 . S
C306 C299 1.357 . S
C306 H319 0.928 . S
H307 C283 0.931 . S
H308 C285 0.930 . S
H309 C287 0.929 . S
H310 C288 0.931 . S
H311 C290 0.930 . S
H312 C294 0.931 . S
H313 C292 0.931 . S
H314 C296 0.931 . S
H315 C297 0.929 . S
H316 C298 0.930 . S
H317 C301 0.930 . S
H318 C302 0.931 . S
H319 C306 0.928 . S
H320 C305 0.929 . S
H321 C303 0.932 . S
C322 C323 1.386 . S
C322 C324 1.397 . S
C322 H346 0.931 . S
C323 C322 1.386 . S
C323 C327 1.397 . S
C324 C322 1.397 . S
C324 C325 1.384 . S
C324 H347 0.930 . S
C325 C324 1.384 . S
C325 C326 1.377 . S
C325 C328 1.481 . S
C326 C325 1.377 . S
C326 C327 1.389 . S
C326 H348 0.929 . S
C327 C323 1.397 . S
C327 C326 1.389 . S
C327 H349 0.931 . S
C328 C325 1.481 . S
C328 C329 1.387 . S
C328 C333 1.390 . S
C329 C328 1.387 . S
C329 C330 1.401 . S
C329 H350 0.930 . S
C330 C329 1.401 . S
C330 C331 1.376 . S
C330 C339 1.511 . S
C331 C330 1.376 . S
C331 C332 1.392 . S
C331 H352 0.931 . S
C332 C331 1.392 . S
C332 C333 1.361 . S
C332 C334 1.500 . S
C333 C328 1.390 . S
C333 C332 1.361 . S
C333 H351 0.931 . S
C334 C332 1.500 . S
C334 C335 1.371 . S
C334 C336 1.365 . S
C335 C334 1.371 . S
C335 C345 1.386 . S
C335 H353 0.931 . S
C336 C334 1.365 . S
C336 C337 1.409 . S
C336 H354 0.929 . S
C337 C336 1.409 . S
C337 C338 1.380 . S
C337 H355 0.930 . S
C338 C337 1.380 . S
C338 C345 1.357 . S
C339 C330 1.511 . S
C339 C340 1.341 . S
C339 C341 1.371 . S
C340 C339 1.341 . S
C340 C344 1.394 . S
C340 H356 0.930 . S
C341 C339 1.371 . S
C341 C342 1.392 . S
C341 H357 0.931 . S
C342 C341 1.392 . S
C342 C343 1.331 . S
C342 H360 0.932 . S
C343 C342 1.331 . S
C343 C344 1.336 . S
C344 C340 1.394 . S
C344 C343 1.336 . S
C344 H359 0.929 . S
C345 C335 1.386 . S
C345 C338 1.357 . S
C345 H358 0.928 . S
H346 C322 0.931 . S
H347 C324 0.930 . S
H348 C326 0.929 . S
H349 C327 0.931 . S
H350 C329 0.930 . S
H351 C333 0.931 . S
H352 C331 0.931 . S
H353 C335 0.931 . S
H354 C336 0.929 . S
H355 C337 0.930 . S
H356 C340 0.930 . S
H357 C341 0.931 . S
H358 C345 0.928 . S
H359 C344 0.929 . S
H360 C342 0.932 . S
C361 C362 1.386 . S
C361 C363 1.397 1_455 S
C361 H385 0.931 . S
C362 C361 1.386 . S
C362 C366 1.397 . S
C363 C361 1.397 1_655 S
C363 C364 1.384 . S
C363 H386 0.930 . S
C364 C363 1.384 . S
C364 C365 1.377 . S
C364 C367 1.481 . S
C365 C364 1.377 . S
C365 C366 1.389 1_655 S
C365 H387 0.929 . S
C366 C362 1.397 . S
C366 C365 1.389 1_455 S
C366 H388 0.931 . S
C367 C364 1.481 . S
C367 C368 1.387 . S
C367 C372 1.390 . S
C368 C367 1.387 . S
C368 C369 1.401 . S
C368 H389 0.930 . S
C369 C368 1.401 . S
C369 C370 1.376 . S
C369 C378 1.511 . S
C370 C369 1.376 . S
C370 C371 1.392 . S
C370 H391 0.931 . S
C371 C370 1.392 . S
C371 C372 1.361 . S
C371 C373 1.500 . S
C372 C367 1.390 . S
C372 C371 1.361 . S
C372 H390 0.931 . S
C373 C371 1.500 . S
C373 C374 1.371 . S
C373 C375 1.365 . S
C374 C373 1.371 . S
C374 C384 1.386 . S
C374 H392 0.931 . S
C375 C373 1.365 . S
C375 C376 1.409 . S
C375 H393 0.929 . S
C376 C375 1.409 . S
C376 C377 1.380 . S
C376 H394 0.930 . S
C377 C376 1.380 . S
C377 C384 1.357 . S
C378 C369 1.511 . S
C378 C379 1.341 . S
C378 C380 1.371 . S
C379 C378 1.341 . S
C379 C383 1.394 . S
C379 H395 0.930 . S
C380 C378 1.371 . S
C380 C381 1.392 . S
C380 H396 0.931 . S
C381 C380 1.392 . S
C381 C382 1.331 . S
C381 H399 0.932 . S
C382 C381 1.331 . S
C382 C383 1.336 . S
C383 C379 1.394 . S
C383 C382 1.336 . S
C383 H398 0.929 . S
C384 C374 1.386 . S
C384 C377 1.357 . S
C384 H397 0.928 . S
H385 C361 0.931 . S
H386 C363 0.930 . S
H387 C365 0.929 . S
H388 C366 0.931 . S
H389 C368 0.930 . S
H390 C372 0.931 . S
H391 C370 0.931 . S
H392 C374 0.931 . S
H393 C375 0.929 . S
H394 C376 0.930 . S
H395 C379 0.930 . S
H396 C380 0.931 . S
H397 C384 0.928 . S
H398 C383 0.929 . S
H399 C381 0.932 . S
H400 C418 0.951 . S
H401 C420 0.951 . S
H402 C422 0.950 . S
H403 C423 0.950 . S
H404 C425 0.950 . S
H405 C428 0.950 . S
H406 C429 0.950 . S
H407 C431 0.950 . S
H408 C432 0.950 . S
H409 C433 0.951 . S
H410 C435 0.951 . S
H411 C437 0.950 . S
H412 C438 0.950 . S
H413 C440 0.950 . S
H414 C443 0.950 . S
H415 C444 0.950 . S
H416 C446 0.950 . S
H417 C447 0.950 . S
C418 H400 0.951 . S
C418 C419 1.366 . S
C418 C420 1.388 . S
C419 C418 1.366 . S
C419 C423 1.385 . S
C420 H401 0.951 . S
C420 C418 1.388 . S
C420 C421 1.366 . S
C421 C420 1.366 . S
C421 C422 1.414 . S
C421 C424 1.499 . S
C422 H402 0.950 . S
C422 C421 1.414 . S
C422 C423 1.374 . S
C423 H403 0.950 . S
C423 C419 1.385 . S
C423 C422 1.374 . S
C424 C421 1.499 . S
C424 C425 1.373 . S
C424 C426 1.389 . S
C425 H404 0.950 . S
C425 C424 1.373 . S
C425 C441 1.377 . S
C426 C424 1.389 . S
C426 C427 1.524 . S
C426 C440 1.377 . S
C427 C426 1.524 . S
C427 C428 1.397 . S
C427 C432 1.363 . S
C428 H405 0.950 . S
C428 C427 1.397 . S
C428 C429 1.334 . S
C429 H406 0.950 . S
C429 C428 1.334 . S
C429 C430 1.287 . S
C430 C429 1.287 . S
C430 C431 1.524 . S
C430 H449 0.913 . S
C431 H407 0.950 . S
C431 C430 1.524 . S
C431 C432 1.415 . S
C432 H408 0.950 . S
C432 C427 1.363 . S
C432 C431 1.415 . S
C433 H409 0.951 . S
C433 C434 1.366 . S
C433 C435 1.388 1_545 S
C434 C433 1.366 . S
C434 C438 1.385 1_545 S
C435 H410 0.951 . S
C435 C433 1.388 1_565 S
C435 C436 1.366 . S
C436 C435 1.366 . S
C436 C437 1.414 . S
C436 C439 1.499 . S
C437 H411 0.950 . S
C437 C436 1.414 . S
C437 C438 1.374 . S
C438 H412 0.950 . S
C438 C434 1.385 1_565 S
C438 C437 1.374 . S
C439 C436 1.499 . S
C439 C440 1.373 . S
C439 C441 1.389 . S
C440 H413 0.950 . S
C440 C426 1.377 . S
C440 C439 1.373 . S
C441 C425 1.377 . S
C441 C439 1.389 . S
C441 C442 1.524 . S
C442 C441 1.524 . S
C442 C443 1.397 . S
C442 C447 1.363 . S
C443 H414 0.950 . S
C443 C442 1.397 . S
C443 C444 1.334 . S
C444 H415 0.950 . S
C444 C443 1.334 . S
C444 C445 1.287 . S
C445 C444 1.287 . S
C445 C446 1.524 . S
C445 H448 0.999 . S
C446 H416 0.950 . S
C446 C445 1.524 . S
C446 C447 1.415 . S
C447 H417 0.950 . S
C447 C442 1.363 . S
C447 C446 1.415 . S
H448 C445 0.999 . S
H449 C430 0.913 . S
H450 C468 0.951 . S
H451 C470 0.951 . S
H452 C472 0.950 . S
H453 C473 0.950 . S
H454 C475 0.950 . S
H455 C478 0.950 . S
H456 C479 0.950 . S
H457 C481 0.950 . S
H458 C482 0.950 . S
H459 C483 0.951 . S
H460 C485 0.951 . S
H461 C487 0.950 . S
H462 C488 0.950 . S
H463 C490 0.950 . S
H464 C493 0.950 . S
H465 C494 0.950 . S
H466 C496 0.950 . S
H467 C497 0.950 . S
C468 H450 0.951 . S
C468 C469 1.366 . S
C468 C470 1.388 . S
C469 C468 1.366 . S
C469 C473 1.385 . S
C470 H451 0.951 . S
C470 C468 1.388 . S
C470 C471 1.366 . S
C471 C470 1.366 . S
C471 C472 1.414 . S
C471 C474 1.499 . S
C472 H452 0.950 . S
C472 C471 1.414 . S
C472 C473 1.374 . S
C473 H453 0.950 . S
C473 C469 1.385 . S
C473 C472 1.374 . S
C474 C471 1.499 . S
C474 C475 1.373 . S
C474 C476 1.389 . S
C475 H454 0.950 . S
C475 C474 1.373 . S
C475 C491 1.377 . S
C476 C474 1.389 . S
C476 C477 1.524 . S
C476 C490 1.377 . S
C477 C476 1.524 . S
C477 C478 1.397 . S
C477 C482 1.363 . S
C478 H455 0.950 . S
C478 C477 1.397 . S
C478 C479 1.334 . S
C479 H456 0.950 . S
C479 C478 1.334 . S
C479 C480 1.287 . S
C480 C479 1.287 . S
C480 C481 1.524 . S
C480 H499 0.913 . S
C481 H457 0.950 . S
C481 C480 1.524 . S
C481 C482 1.415 . S
C482 H458 0.950 . S
C482 C477 1.363 . S
C482 C481 1.415 . S
C483 H459 0.951 . S
C483 C484 1.366 . S
C483 C485 1.388 . S
C484 C483 1.366 . S
C484 C488 1.385 . S
C485 H460 0.951 . S
C485 C483 1.388 . S
C485 C486 1.366 . S
C486 C485 1.366 . S
C486 C487 1.414 . S
C486 C489 1.499 . S
C487 H461 0.950 . S
C487 C486 1.414 . S
C487 C488 1.374 . S
C488 H462 0.950 . S
C488 C484 1.385 . S
C488 C487 1.374 . S
C489 C486 1.499 . S
C489 C490 1.373 . S
C489 C491 1.389 . S
C490 H463 0.950 . S
C490 C476 1.377 . S
C490 C489 1.373 . S
C491 C475 1.377 . S
C491 C489 1.389 . S
C491 C492 1.524 . S
C492 C491 1.524 . S
C492 C493 1.397 . S
C492 C497 1.363 . S
C493 H464 0.950 . S
C493 C492 1.397 . S
C493 C494 1.334 . S
C494 H465 0.950 . S
C494 C493 1.334 . S
C494 C495 1.287 . S
C495 C494 1.287 . S
C495 C496 1.524 . S
C495 H498 0.999 . S
C496 H466 0.950 . S
C496 C495 1.524 . S
C496 C497 1.415 . S
C497 H467 0.950 . S
C497 C492 1.363 . S
C497 C496 1.415 . S
H498 C495 0.999 . S
H499 C480 0.913 . S
H500 C518 0.951 . S
H501 C520 0.951 . S
H502 C522 0.950 . S
H503 C523 0.950 . S
H504 C525 0.950 . S
H505 C528 0.950 . S
H506 C529 0.950 . S
H507 C531 0.950 1_565 S
H508 C532 0.975 . S
H509 C533 0.951 . S
H510 C535 0.951 . S
H511 C537 0.950 . S
H512 C538 0.950 . S
H513 C540 0.950 1_565 S
H514 C543 0.950 . S
H515 C544 0.950 . S
H516 C546 0.950 . S
H517 C547 0.950 . S
C518 H500 0.951 . S
C518 C519 1.366 . S
C518 C520 1.388 . S
C519 C518 1.366 . S
C519 C523 1.385 . S
C520 H501 0.951 . S
C520 C518 1.388 . S
C520 C521 1.366 . S
C521 C520 1.366 . S
C521 C522 1.414 . S
C521 C524 1.499 . S
C522 H502 0.950 . S
C522 C521 1.414 . S
C522 C523 1.374 . S
C523 H503 0.950 . S
C523 C519 1.385 . S
C523 C522 1.374 . S
C524 C521 1.499 . S
C524 C525 1.373 . S
C524 C526 1.389 . S
C525 H504 0.950 . S
C525 C524 1.373 . S
C525 C541 1.377 . S
C526 C524 1.389 . S
C526 C527 1.524 . S
C526 C540 1.377 . S
C527 C526 1.524 . S
C527 C528 1.397 . S
C527 C532 1.363 . S
C528 H505 0.950 . S
C528 C527 1.397 . S
C528 C529 1.334 1_554 S
C529 H506 0.950 . S
C529 C528 1.334 1_556 S
C529 C530 1.286 . S
C530 C529 1.286 . S
C530 C531 1.528 1_556 S
C530 H549 0.909 . S
C531 H507 0.950 1_545 S
C531 C530 1.528 1_554 S
C531 C532 1.415 . S
C532 H508 0.975 . S
C532 C527 1.363 . S
C532 C531 1.415 . S
C533 H509 0.951 . S
C533 C534 1.366 . S
C533 C535 1.388 . S
C534 C533 1.366 . S
C534 C538 1.385 . S
C535 H510 0.951 . S
C535 C533 1.388 . S
C535 C536 1.366 . S
C536 C535 1.366 . S
C536 C537 1.414 . S
C536 C539 1.499 1_565 S
C537 H511 0.950 . S
C537 C536 1.414 . S
C537 C538 1.374 . S
C538 H512 0.950 . S
C538 C534 1.385 . S
C538 C537 1.374 . S
C539 C536 1.499 1_545 S
C539 C540 1.373 . S
C539 C541 1.389 . S
C540 H513 0.950 1_545 S
C540 C526 1.377 . S
C540 C539 1.373 . S
C541 C525 1.377 . S
C541 C539 1.389 . S
C541 C542 1.524 . S
C542 C541 1.524 . S
C542 C543 1.397 . S
C542 C547 1.363 . S
C543 H514 0.950 . S
C543 C542 1.397 . S
C543 C544 1.334 . S
C544 H515 0.950 . S
C544 C543 1.334 . S
C544 C545 1.287 . S
C545 C544 1.287 . S
C545 C546 1.524 . S
C545 H548 0.999 . S
C546 H516 0.950 . S
C546 C545 1.524 . S
C546 C547 1.415 . S
C547 H517 0.950 . S
C547 C542 1.363 . S
C547 C546 1.415 . S
H548 C545 0.999 . S
H549 C530 0.909 . S
H550 C568 0.951 . S
H551 C570 0.951 . S
H552 C572 0.950 . S
H553 C573 0.950 . S
H554 C575 0.950 . S
H555 C578 0.950 . S
H556 C579 0.950 . S
H557 C581 0.950 . S
H558 C582 0.950 . S
H559 C583 0.951 . S
H560 C585 0.951 . S
H561 C587 0.950 . S
H562 C588 0.950 . S
H563 C590 0.950 . S
H564 C593 0.950 . S
H565 C594 0.950 . S
H566 C596 0.950 . S
H567 C597 0.950 . S
C568 H550 0.951 . S
C568 C569 1.366 . S
C568 C570 1.388 . S
C569 C568 1.366 . S
C569 C573 1.385 . S
C570 H551 0.951 . S
C570 C568 1.388 . S
C570 C571 1.366 . S
C571 C570 1.366 . S
C571 C572 1.414 . S
C571 C574 1.499 . S
C572 H552 0.950 . S
C572 C571 1.414 . S
C572 C573 1.374 . S
C573 H553 0.950 . S
C573 C569 1.385 . S
C573 C572 1.374 . S
C574 C571 1.499 . S
C574 C575 1.373 . S
C574 C576 1.389 . S
C575 H554 0.950 . S
C575 C574 1.373 . S
C575 C591 1.377 . S
C576 C574 1.389 . S
C576 C577 1.524 . S
C576 C590 1.377 . S
C577 C576 1.524 . S
C577 C578 1.397 . S
C577 C582 1.363 . S
C578 H555 0.950 . S
C578 C577 1.397 . S
C578 C579 1.334 . S
C579 H556 0.950 . S
C579 C578 1.334 . S
C579 C580 1.287 . S
C580 C579 1.287 . S
C580 C581 1.524 . S
C580 H599 0.913 . S
C581 H557 0.950 . S
C581 C580 1.524 . S
C581 C582 1.415 . S
C582 H558 0.950 . S
C582 C577 1.363 . S
C582 C581 1.415 . S
C583 H559 0.951 . S
C583 C584 1.366 . S
C583 C585 1.388 . S
C584 C583 1.366 . S
C584 C588 1.385 . S
C585 H560 0.951 . S
C585 C583 1.388 . S
C585 C586 1.366 . S
C586 C585 1.366 . S
C586 C587 1.414 . S
C586 C589 1.499 . S
C587 H561 0.950 . S
C587 C586 1.414 . S
C587 C588 1.374 . S
C588 H562 0.950 . S
C588 C584 1.385 . S
C588 C587 1.374 . S
C589 C586 1.499 . S
C589 C590 1.373 . S
C589 C591 1.389 . S
C590 H563 0.950 . S
C590 C576 1.377 . S
C590 C589 1.373 . S
C591 C575 1.377 . S
C591 C589 1.389 . S
C591 C592 1.524 . S
C592 C591 1.524 . S
C592 C593 1.397 . S
C592 C597 1.363 . S
C593 H564 0.950 . S
C593 C592 1.397 . S
C593 C594 1.334 . S
C594 H565 0.950 . S
C594 C593 1.334 . S
C594 C595 1.287 . S
C595 C594 1.287 . S
C595 C596 1.524 . S
C595 H598 0.999 . S
C596 H566 0.950 . S
C596 C595 1.524 . S
C596 C597 1.415 . S
C597 H567 0.950 . S
C597 C592 1.363 . S
C597 C596 1.415 . S
H598 C595 0.999 . S
H599 C580 0.913 . S
H600 C618 0.951 . S
H601 C620 0.951 . S
H602 C622 0.950 . S
H603 C623 0.950 . S
H604 C625 0.950 . S
H605 C628 0.950 . S
H606 C629 0.950 . S
H607 C631 0.950 . S
H608 C632 0.950 . S
H609 C633 0.951 . S
H610 C635 0.951 . S
H611 C637 0.950 . S
H612 C638 0.950 . S
H613 C640 0.950 . S
H614 C643 0.950 . S
H615 C644 0.950 . S
H616 C646 0.950 . S
H617 C647 0.950 . S
C618 H600 0.951 . S
C618 C619 1.366 . S
C618 C620 1.388 . S
C619 C618 1.366 . S
C619 C623 1.385 . S
C620 H601 0.951 . S
C620 C618 1.388 . S
C620 C621 1.366 . S
C621 C620 1.366 . S
C621 C622 1.414 . S
C621 C624 1.499 . S
C622 H602 0.950 . S
C622 C621 1.414 . S
C622 C623 1.374 . S
C623 H603 0.950 . S
C623 C619 1.385 . S
C623 C622 1.374 . S
C624 C621 1.499 . S
C624 C625 1.373 . S
C624 C626 1.389 . S
C625 H604 0.950 . S
C625 C624 1.373 . S
C625 C641 1.377 . S
C626 C624 1.389 . S
C626 C627 1.524 . S
C626 C640 1.377 . S
C627 C626 1.524 . S
C627 C628 1.397 . S
C627 C632 1.363 . S
C628 H605 0.950 . S
C628 C627 1.397 . S
C628 C629 1.334 . S
C629 H606 0.950 . S
C629 C628 1.334 . S
C629 C630 1.287 . S
C630 C629 1.287 . S
C630 C631 1.524 . S
C630 H649 0.913 . S
C631 H607 0.950 . S
C631 C630 1.524 . S
C631 C632 1.415 . S
C632 H608 0.950 . S
C632 C627 1.363 . S
C632 C631 1.415 . S
C633 H609 0.951 . S
C633 C634 1.366 . S
C633 C635 1.388 . S
C634 C633 1.366 . S
C634 C638 1.385 . S
C635 H610 0.951 . S
C635 C633 1.388 . S
C635 C636 1.366 . S
C636 C635 1.366 . S
C636 C637 1.414 . S
C636 C639 1.499 . S
C637 H611 0.950 . S
C637 C636 1.414 . S
C637 C638 1.374 . S
C638 H612 0.950 . S
C638 C634 1.385 . S
C638 C637 1.374 . S
C639 C636 1.499 . S
C639 C640 1.373 . S
C639 C641 1.389 . S
C640 H613 0.950 . S
C640 C626 1.377 . S
C640 C639 1.373 . S
C641 C625 1.377 . S
C641 C639 1.389 . S
C641 C642 1.524 . S
C642 C641 1.524 . S
C642 C643 1.397 . S
C642 C647 1.363 . S
C643 H614 0.950 . S
C643 C642 1.397 . S
C643 C644 1.334 . S
C644 H615 0.950 . S
C644 C643 1.334 . S
C644 C645 1.287 . S
C645 C644 1.287 . S
C645 C646 1.524 . S
C645 H648 0.999 . S
C646 H616 0.950 . S
C646 C645 1.524 . S
C646 C647 1.415 . S
C647 H617 0.950 . S
C647 C642 1.363 . S
C647 C646 1.415 . S
H648 C645 0.999 . S
H649 C630 0.913 . S
H650 C668 0.951 . S
H651 C670 0.951 . S
H652 C672 0.924 1_554 S
H653 C673 0.950 1_554 S
H654 C675 0.950 . S
H655 C678 0.950 . S
H656 C679 0.950 . S
H657 C681 0.950 . S
H658 C682 0.950 1_455 S
H659 C683 0.951 . S
H660 C685 0.951 . S
H661 C687 0.950 . S
H662 C688 0.950 . S
H663 C690 0.950 . S
H664 C693 0.950 . S
H665 C694 0.950 . S
H666 C696 0.950 . S
H667 C697 0.950 . S
C668 H650 0.951 . S
C668 C669 1.366 . S
C668 C670 1.388 . S
C669 C668 1.366 . S
C669 C673 1.385 . S
C670 H651 0.951 . S
C670 C668 1.388 . S
C670 C671 1.366 . S
C671 C670 1.366 . S
C671 C672 1.414 . S
C671 C674 1.499 1_655 S
C672 H652 0.924 1_556 S
C672 C671 1.414 . S
C672 C673 1.374 . S
C673 H653 0.950 1_556 S
C673 C669 1.385 . S
C673 C672 1.374 . S
C674 C671 1.499 1_455 S
C674 C675 1.373 . S
C674 C676 1.389 . S
C675 H654 0.950 . S
C675 C674 1.373 . S
C675 C691 1.377 . S
C676 C674 1.389 . S
C676 C677 1.524 1_455 S
C676 C690 1.377 . S
C677 C676 1.524 1_655 S
C677 C678 1.397 . S
C677 C682 1.363 . S
C678 H655 0.950 . S
C678 C677 1.397 . S
C678 C679 1.334 . S
C679 H656 0.950 . S
C679 C678 1.334 . S
C679 C680 1.287 . S
C680 C679 1.287 . S
C680 C681 1.524 . S
C680 H699 0.913 . S
C681 H657 0.950 . S
C681 C680 1.524 . S
C681 C682 1.415 . S
C682 H658 0.950 1_655 S
C682 C677 1.363 . S
C682 C681 1.415 . S
C683 H659 0.951 . S
C683 C684 1.366 . S
C683 C685 1.388 . S
C684 C683 1.366 . S
C684 C688 1.385 . S
C685 H660 0.951 . S
C685 C683 1.388 . S
C685 C686 1.366 . S
C686 C685 1.366 . S
C686 C687 1.414 . S
C686 C689 1.499 . S
C687 H661 0.950 . S
C687 C686 1.414 . S
C687 C688 1.374 . S
C688 H662 0.950 . S
C688 C684 1.385 . S
C688 C687 1.374 . S
C689 C686 1.499 . S
C689 C690 1.373 . S
C689 C691 1.389 . S
C690 H663 0.950 . S
C690 C676 1.377 . S
C690 C689 1.373 . S
C691 C675 1.377 . S
C691 C689 1.389 . S
C691 C692 1.524 . S
C692 C691 1.524 . S
C692 C693 1.397 . S
C692 C697 1.363 1_556 S
C693 H664 0.950 . S
C693 C692 1.397 . S
C693 C694 1.334 . S
C694 H665 0.950 . S
C694 C693 1.334 . S
C694 C695 1.287 1_556 S
C695 C694 1.287 1_554 S
C695 C696 1.524 . S
C695 H698 0.999 . S
C696 H666 0.950 . S
C696 C695 1.524 . S
C696 C697 1.415 . S
C697 H667 0.950 . S
C697 C692 1.363 1_554 S
C697 C696 1.415 . S
H698 C695 0.999 . S
H699 C680 0.913 . S
H700 C718 0.951 . S
H701 C720 0.951 . S
H702 C722 0.950 . S
H703 C723 0.950 . S
H704 C725 0.950 . S
H705 C728 0.950 . S
H706 C729 0.950 . S
H707 C731 0.950 . S
H708 C732 0.950 . S
H709 C733 0.951 . S
H710 C735 0.951 . S
H711 C737 0.950 . S
H712 C738 0.950 . S
H713 C740 0.950 . S
H714 C743 0.950 . S
H715 C744 0.950 . S
H716 C746 0.950 . S
H717 C747 0.950 . S
C718 H700 0.951 . S
C718 C719 1.366 . S
C718 C720 1.388 . S
C719 C718 1.366 . S
C719 C723 1.385 . S
C720 H701 0.951 . S
C720 C718 1.388 . S
C720 C721 1.366 . S
C721 C720 1.366 . S
C721 C722 1.414 . S
C721 C724 1.499 . S
C722 H702 0.950 . S
C722 C721 1.414 . S
C722 C723 1.374 . S
C723 H703 0.950 . S
C723 C719 1.385 . S
C723 C722 1.374 . S
C724 C721 1.499 . S
C724 C725 1.373 . S
C724 C726 1.389 . S
C725 H704 0.950 . S
C725 C724 1.373 . S
C725 C741 1.377 . S
C726 C724 1.389 . S
C726 C727 1.524 . S
C726 C740 1.377 . S
C727 C726 1.524 . S
C727 C728 1.397 . S
C727 C732 1.363 . S
C728 H705 0.950 . S
C728 C727 1.397 . S
C728 C729 1.334 . S
C729 H706 0.950 . S
C729 C728 1.334 . S
C729 C730 1.287 . S
C730 C729 1.287 . S
C730 C731 1.524 . S
C730 H749 0.913 . S
C731 H707 0.950 . S
C731 C730 1.524 . S
C731 C732 1.415 . S
C732 H708 0.950 . S
C732 C727 1.363 . S
C732 C731 1.415 . S
C733 H709 0.951 . S
C733 C734 1.366 . S
C733 C735 1.388 . S
C734 C733 1.366 . S
C734 C738 1.385 . S
C735 H710 0.951 . S
C735 C733 1.388 . S
C735 C736 1.366 . S
C736 C735 1.366 . S
C736 C737 1.414 . S
C736 C739 1.499 . S
C737 H711 0.950 . S
C737 C736 1.414 . S
C737 C738 1.374 . S
C738 H712 0.950 . S
C738 C734 1.385 . S
C738 C737 1.374 . S
C739 C736 1.499 . S
C739 C740 1.373 . S
C739 C741 1.389 . S
C740 H713 0.950 . S
C740 C726 1.377 . S
C740 C739 1.373 . S
C741 C725 1.377 . S
C741 C739 1.389 . S
C741 C742 1.524 . S
C742 C741 1.524 . S
C742 C743 1.397 . S
C742 C747 1.363 . S
C743 H714 0.950 . S
C743 C742 1.397 . S
C743 C744 1.334 . S
C744 H715 0.950 . S
C744 C743 1.334 . S
C744 C745 1.287 . S
C745 C744 1.287 . S
C745 C746 1.524 . S
C745 H748 0.999 . S
C746 H716 0.950 . S
C746 C745 1.524 . S
C746 C747 1.415 . S
C747 H717 0.950 . S
C747 C742 1.363 . S
C747 C746 1.415 . S
H748 C745 0.999 . S
H749 C730 0.913 . S
H750 C768 0.951 . S
H751 C770 0.951 . S
H752 C772 0.950 . S
H753 C773 0.950 . S
H754 C775 0.950 . S
H755 C778 0.950 . S
H756 C779 0.950 . S
H757 C781 0.950 1_655 S
H758 C782 0.950 . S
H759 C783 0.951 . S
H760 C785 0.951 . S
H761 C787 0.950 . S
H762 C788 0.950 . S
H763 C790 0.950 . S
H764 C793 0.950 . S
H765 C794 0.950 . S
H766 C796 0.950 . S
H767 C797 0.950 . S
C768 H750 0.951 . S
C768 C769 1.366 . S
C768 C770 1.388 . S
C769 C768 1.366 . S
C769 C773 1.385 . S
C770 H751 0.951 . S
C770 C768 1.388 . S
C770 C771 1.366 . S
C771 C770 1.366 . S
C771 C772 1.414 . S
C771 C774 1.499 . S
C772 H752 0.950 . S
C772 C771 1.414 . S
C772 C773 1.374 . S
C773 H753 0.950 . S
C773 C769 1.385 . S
C773 C772 1.374 . S
C774 C771 1.499 . S
C774 C775 1.373 . S
C774 C776 1.389 . S
C775 H754 0.950 . S
C775 C774 1.373 . S
C775 C791 1.377 . S
C776 C774 1.389 . S
C776 C777 1.524 . S
C776 C790 1.377 . S
C777 C776 1.524 . S
C777 C778 1.397 . S
C777 C782 1.363 . S
C778 H755 0.950 . S
C778 C777 1.397 . S
C778 C779 1.334 . S
C779 H756 0.950 . S
C779 C778 1.334 . S
C779 C780 1.287 . S
C780 C779 1.287 . S
C780 C781 1.524 . S
C780 H799 0.913 . S
C781 H757 0.950 1_455 S
C781 C780 1.524 . S
C781 C782 1.415 . S
C782 H758 0.950 . S
C782 C777 1.363 . S
C782 C781 1.415 . S
C783 H759 0.951 . S
C783 C784 1.366 . S
C783 C785 1.388 . S
C784 C783 1.366 . S
C784 C788 1.385 . S
C785 H760 0.951 . S
C785 C783 1.388 . S
C785 C786 1.366 . S
C786 C785 1.366 . S
C786 C787 1.414 . S
C786 C789 1.499 . S
C787 H761 0.950 . S
C787 C786 1.414 . S
C787 C788 1.374 . S
C788 H762 0.950 . S
C788 C784 1.385 . S
C788 C787 1.374 . S
C789 C786 1.499 . S
C789 C790 1.373 . S
C789 C791 1.389 . S
C790 H763 0.950 . S
C790 C776 1.377 . S
C790 C789 1.373 . S
C791 C775 1.377 . S
C791 C789 1.389 . S
C791 C792 1.524 . S
C792 C791 1.524 . S
C792 C793 1.397 . S
C792 C797 1.363 . S
C793 H764 0.950 . S
C793 C792 1.397 . S
C793 C794 1.334 . S
C794 H765 0.950 . S
C794 C793 1.334 . S
C794 C795 1.287 . S
C795 C794 1.287 . S
C795 C796 1.524 . S
C795 H798 0.999 . S
C796 H766 0.950 . S
C796 C795 1.524 . S
C796 C797 1.415 . S
C797 H767 0.950 . S
C797 C792 1.363 . S
C797 C796 1.415 . S
H798 C795 0.999 . S
H799 C780 0.913 . S
H800 C818 0.951 . S
H801 C820 0.951 . S
H802 C822 0.950 . S
H803 C823 0.950 . S
H804 C825 0.950 . S
H805 C828 0.950 . S
H806 C829 0.950 . S
H807 C831 0.950 . S
H808 C832 0.950 . S
H809 C833 0.951 . S
H810 C835 0.951 . S
H811 C837 0.950 . S
H812 C838 0.950 . S
H813 C840 0.950 . S
H814 C843 0.950 . S
H815 C844 0.951 . S
H816 C846 0.950 . S
H817 C847 0.950 . S
C818 H800 0.951 . S
C818 C819 1.366 . S
C818 C820 1.388 . S
C819 C818 1.366 . S
C819 C823 1.385 . S
C820 H801 0.951 . S
C820 C818 1.388 . S
C820 C821 1.366 . S
C821 C820 1.366 . S
C821 C822 1.414 . S
C821 C824 1.499 . S
C822 H802 0.950 . S
C822 C821 1.414 . S
C822 C823 1.374 . S
C823 H803 0.950 . S
C823 C819 1.385 . S
C823 C822 1.374 . S
C824 C821 1.499 . S
C824 C825 1.373 . S
C824 C826 1.389 . S
C825 H804 0.950 . S
C825 C824 1.373 . S
C825 C841 1.377 . S
C826 C824 1.389 . S
C826 C827 1.524 . S
C826 C840 1.377 . S
C827 C826 1.524 . S
C827 C828 1.397 . S
C827 C832 1.363 . S
C828 H805 0.950 . S
C828 C827 1.397 . S
C828 C829 1.334 . S
C829 H806 0.950 . S
C829 C828 1.334 . S
C829 C830 1.287 . S
C830 C829 1.287 . S
C830 C831 1.524 . S
C830 H849 0.913 . S
C831 H807 0.950 . S
C831 C830 1.524 . S
C831 C832 1.415 . S
C832 H808 0.950 . S
C832 C827 1.363 . S
C832 C831 1.415 . S
C833 H809 0.951 . S
C833 C834 1.366 . S
C833 C835 1.388 . S
C834 C833 1.366 . S
C834 C838 1.385 1_565 S
C835 H810 0.951 . S
C835 C833 1.388 . S
C835 C836 1.366 1_565 S
C836 C835 1.366 1_545 S
C836 C837 1.414 . S
C836 C839 1.499 . S
C837 H811 0.950 . S
C837 C836 1.414 . S
C837 C838 1.374 . S
C838 H812 0.950 . S
C838 C834 1.385 1_545 S
C838 C837 1.374 . S
C839 C836 1.499 . S
C839 C840 1.373 . S
C839 C841 1.389 . S
C840 H813 0.950 . S
C840 C826 1.377 . S
C840 C839 1.373 . S
C841 C825 1.377 . S
C841 C839 1.389 . S
C841 C842 1.524 . S
C842 C841 1.524 . S
C842 C843 1.397 . S
C842 C847 1.363 . S
C843 H814 0.950 . S
C843 C842 1.397 . S
C843 C844 1.334 . S
C844 H815 0.951 . S
C844 C843 1.334 . S
C844 C845 1.287 1_545 S
C845 C844 1.287 1_565 S
C845 C846 1.524 . S
C845 H848 0.999 . S
C846 H816 0.950 . S
C846 C845 1.524 . S
C846 C847 1.415 1_565 S
C847 H817 0.950 . S
C847 C842 1.363 . S
C847 C846 1.415 1_545 S
H848 C845 0.999 . S
H849 C830 0.913 . S
H850 C868 0.951 . S
H851 C870 0.951 . S
H852 C872 0.950 . S
H853 C873 0.950 . S
H854 C875 0.950 . S
H855 C878 0.950 . S
H856 C879 0.950 . S
H857 C881 0.950 . S
H858 C882 0.950 . S
H859 C883 0.951 . S
H860 C885 0.951 . S
H861 C887 0.950 . S
H862 C888 0.950 . S
H863 C890 0.950 . S
H864 C893 0.950 . S
H865 C894 0.950 . S
H866 C896 0.950 . S
H867 C897 0.950 . S
C868 H850 0.951 . S
C868 C869 1.366 . S
C868 C870 1.388 . S
C869 C868 1.366 . S
C869 C873 1.385 . S
C870 H851 0.951 . S
C870 C868 1.388 . S
C870 C871 1.366 . S
C871 C870 1.366 . S
C871 C872 1.414 . S
C871 C874 1.499 . S
C872 H852 0.950 . S
C872 C871 1.414 . S
C872 C873 1.374 . S
C873 H853 0.950 . S
C873 C869 1.385 . S
C873 C872 1.374 . S
C874 C871 1.499 . S
C874 C875 1.373 . S
C874 C876 1.389 . S
C875 H854 0.950 . S
C875 C874 1.373 . S
C875 C891 1.377 . S
C876 C874 1.389 . S
C876 C877 1.524 . S
C876 C890 1.377 . S
C877 C876 1.524 . S
C877 C878 1.397 . S
C877 C882 1.363 . S
C878 H855 0.950 . S
C878 C877 1.397 . S
C878 C879 1.334 . S
C879 H856 0.950 . S
C879 C878 1.334 . S
C879 C880 1.287 . S
C880 C879 1.287 . S
C880 C881 1.524 . S
C880 H899 0.913 . S
C881 H857 0.950 . S
C881 C880 1.524 . S
C881 C882 1.415 . S
C882 H858 0.950 . S
C882 C877 1.363 . S
C882 C881 1.415 . S
C883 H859 0.951 . S
C883 C884 1.366 . S
C883 C885 1.388 . S
C884 C883 1.366 . S
C884 C888 1.385 . S
C885 H860 0.951 . S
C885 C883 1.388 . S
C885 C886 1.366 . S
C886 C885 1.366 . S
C886 C887 1.414 . S
C886 C889 1.499 . S
C887 H861 0.950 . S
C887 C886 1.414 . S
C887 C888 1.374 . S
C888 H862 0.950 . S
C888 C884 1.385 . S
C888 C887 1.374 . S
C889 C886 1.499 . S
C889 C890 1.373 . S
C889 C891 1.389 . S
C890 H863 0.950 . S
C890 C876 1.377 . S
C890 C889 1.373 . S
C891 C875 1.377 . S
C891 C889 1.389 . S
C891 C892 1.524 . S
C892 C891 1.524 . S
C892 C893 1.397 . S
C892 C897 1.363 . S
C893 H864 0.950 . S
C893 C892 1.397 . S
C893 C894 1.334 . S
C894 H865 0.950 . S
C894 C893 1.334 . S
C894 C895 1.287 . S
C895 C894 1.287 . S
C895 C896 1.524 . S
C895 H898 0.999 . S
C896 H866 0.950 . S
C896 C895 1.524 . S
C896 C897 1.415 . S
C897 H867 0.950 . S
C897 C892 1.363 . S
C897 C896 1.415 . S
H898 C895 0.999 . S
H899 C880 0.913 . S
H900 C918 0.951 . S
H901 C920 0.951 . S
H902 C922 0.950 . S
H903 C923 0.950 . S
H904 C925 0.950 . S
H905 C928 0.950 . S
H906 C929 0.950 . S
H907 C931 0.950 . S
H908 C932 0.950 . S
H909 C933 0.951 . S
H910 C935 0.951 . S
H911 C937 0.950 1_565 S
H912 C938 0.950 . S
H913 C940 0.950 . S
H914 C943 0.951 . S
H915 C944 0.950 . S
H916 C946 0.950 . S
H917 C947 0.950 . S
C918 H900 0.951 . S
C918 C919 1.366 1_556 S
C918 C920 1.388 . S
C919 C918 1.366 1_554 S
C919 C923 1.385 . S
C920 H901 0.951 . S
C920 C918 1.388 . S
C920 C921 1.366 . S
C921 C920 1.366 . S
C921 C922 1.414 1_556 S
C921 C924 1.499 . S
C922 H902 0.950 . S
C922 C921 1.414 1_554 S
C922 C923 1.374 . S
C923 H903 0.950 . S
C923 C919 1.385 . S
C923 C922 1.374 . S
C924 C921 1.499 . S
C924 C925 1.373 . S
C924 C926 1.389 . S
C925 H904 0.950 . S
C925 C924 1.373 . S
C925 C941 1.377 . S
C926 C924 1.389 . S
C926 C927 1.524 . S
C926 C940 1.377 . S
C927 C926 1.524 . S
C927 C928 1.397 1_556 S
C927 C932 1.363 . S
C928 H905 0.950 . S
C928 C927 1.397 1_554 S
C928 C929 1.334 . S
C929 H906 0.950 . S
C929 C928 1.334 . S
C929 C930 1.287 . S
C930 C929 1.287 . S
C930 C931 1.524 1_554 S
C930 H949 0.913 . S
C931 H907 0.950 . S
C931 C930 1.524 1_556 S
C931 C932 1.415 . S
C932 H908 0.950 . S
C932 C927 1.363 . S
C932 C931 1.415 . S
C933 H909 0.951 . S
C933 C934 1.366 . S
C933 C935 1.388 . S
C934 C933 1.366 . S
C934 C938 1.385 . S
C935 H910 0.951 . S
C935 C933 1.388 . S
C935 C936 1.366 . S
C936 C935 1.366 . S
C936 C937 1.414 . S
C936 C939 1.499 1_545 S
C937 H911 0.950 1_545 S
C937 C936 1.414 . S
C937 C938 1.374 . S
C938 H912 0.950 . S
C938 C934 1.385 . S
C938 C937 1.374 . S
C939 C936 1.499 1_565 S
C939 C940 1.373 . S
C939 C941 1.389 . S
C940 H913 0.950 . S
C940 C926 1.377 . S
C940 C939 1.373 . S
C941 C925 1.377 . S
C941 C939 1.389 . S
C941 C942 1.524 1_565 S
C942 C941 1.524 1_545 S
C942 C943 1.397 . S
C942 C947 1.363 . S
C943 H914 0.951 . S
C943 C942 1.397 . S
C943 C944 1.334 . S
C944 H915 0.950 . S
C944 C943 1.334 . S
C944 C945 1.287 . S
C945 C944 1.287 . S
C945 C946 1.524 . S
C945 H948 0.999 . S
C946 H916 0.950 . S
C946 C945 1.524 . S
C946 C947 1.415 . S
C947 H917 0.950 . S
C947 C942 1.363 . S
C947 C946 1.415 . S
H948 C945 0.999 . S
H949 C930 0.913 . S
H950 C968 0.951 . S
H951 C970 0.951 . S
H952 C972 0.950 . S
H953 C973 0.950 . S
H954 C975 0.950 . S
H955 C978 0.950 . S
H956 C979 0.950 . S
H957 C981 0.950 . S
H958 C982 0.950 . S
H959 C983 0.951 . S
H960 C985 0.951 . S
H961 C987 0.950 . S
H962 C988 0.950 . S
H963 C990 0.950 . S
H964 C993 0.950 . S
H965 C994 0.950 . S
H966 C996 0.950 . S
H967 C997 0.950 . S
C968 H950 0.951 . S
C968 C969 1.366 . S
C968 C970 1.388 . S
C969 C968 1.366 . S
C969 C973 1.385 . S
C970 H951 0.951 . S
C970 C968 1.388 . S
C970 C971 1.366 . S
C971 C970 1.366 . S
C971 C972 1.414 . S
C971 C974 1.499 . S
C972 H952 0.950 . S
C972 C971 1.414 . S
C972 C973 1.374 . S
C973 H953 0.950 . S
C973 C969 1.385 . S
C973 C972 1.374 . S
C974 C971 1.499 . S
C974 C975 1.373 . S
C974 C976 1.389 . S
C975 H954 0.950 . S
C975 C974 1.373 . S
C975 C991 1.377 . S
C976 C974 1.389 . S
C976 C977 1.524 . S
C976 C990 1.377 . S
C977 C976 1.524 . S
C977 C978 1.397 . S
C977 C982 1.363 . S
C978 H955 0.950 . S
C978 C977 1.397 . S
C978 C979 1.334 . S
C979 H956 0.950 . S
C979 C978 1.334 . S
C979 C980 1.287 . S
C980 C979 1.287 . S
C980 C981 1.524 . S
C980 H999 0.913 . S
C981 H957 0.950 . S
C981 C980 1.524 . S
C981 C982 1.415 . S
C982 H958 0.950 . S
C982 C977 1.363 . S
C982 C981 1.415 . S
C983 H959 0.951 . S
C983 C984 1.366 . S
C983 C985 1.388 . S
C984 C983 1.366 . S
C984 C988 1.385 . S
C985 H960 0.951 . S
C985 C983 1.388 . S
C985 C986 1.366 . S
C986 C985 1.366 . S
C986 C987 1.414 . S
C986 C989 1.499 . S
C987 H961 0.950 . S
C987 C986 1.414 . S
C987 C988 1.374 . S
C988 H962 0.950 . S
C988 C984 1.385 . S
C988 C987 1.374 . S
C989 C986 1.499 . S
C989 C990 1.373 . S
C989 C991 1.389 . S
C990 H963 0.950 . S
C990 C976 1.377 . S
C990 C989 1.373 . S
C991 C975 1.377 . S
C991 C989 1.389 . S
C991 C992 1.524 . S
C992 C991 1.524 . S
C992 C993 1.397 . S
C992 C997 1.363 . S
C993 H964 0.950 . S
C993 C992 1.397 . S
C993 C994 1.334 . S
C994 H965 0.950 . S
C994 C993 1.334 . S
C994 C995 1.287 . S
C995 C994 1.287 . S
C995 C996 1.524 . S
C995 H998 0.999 . S
C996 H966 0.950 . S
C996 C995 1.524 . S
C996 C997 1.415 . S
C997 H967 0.950 . S
C997 C992 1.363 . S
C997 C996 1.415 . S
H998 C995 0.999 . S
H999 C980 0.913 . S
H1000 C1018 0.951 . S
H1001 C1020 0.951 . S
H1002 C1022 0.950 . S
H1003 C1023 0.950 . S
H1004 C1025 0.950 . S
H1005 C1028 0.950 . S
H1006 C1029 0.950 . S
H1007 C1031 0.950 . S
H1008 C1032 0.950 . S
H1009 C1033 0.951 . S
H1010 C1035 0.951 . S
H1011 C1037 0.950 . S
H1012 C1038 0.950 . S
H1013 C1040 0.950 . S
H1014 C1043 0.950 . S
H1015 C1044 0.950 . S
H1016 C1046 0.950 . S
H1017 C1047 0.950 . S
C1018 H1000 0.951 . S
C1018 C1019 1.366 . S
C1018 C1020 1.388 . S
C1019 C1018 1.366 . S
C1019 C1023 1.385 . S
C1020 H1001 0.951 . S
C1020 C1018 1.388 . S
C1020 C1021 1.366 . S
C1021 C1020 1.366 . S
C1021 C1022 1.414 . S
C1021 C1024 1.499 . S
C1022 H1002 0.950 . S
C1022 C1021 1.414 . S
C1022 C1023 1.374 . S
C1023 H1003 0.950 . S
C1023 C1019 1.385 . S
C1023 C1022 1.374 . S
C1024 C1021 1.499 . S
C1024 C1025 1.373 . S
C1024 C1026 1.389 . S
C1025 H1004 0.950 . S
C1025 C1024 1.373 . S
C1025 C1041 1.377 . S
C1026 C1024 1.389 . S
C1026 C1027 1.524 . S
C1026 C1040 1.377 . S
C1027 C1026 1.524 . S
C1027 C1028 1.397 . S
C1027 C1032 1.363 . S
C1028 H1005 0.950 . S
C1028 C1027 1.397 . S
C1028 C1029 1.334 . S
C1029 H1006 0.950 . S
C1029 C1028 1.334 . S
C1029 C1030 1.287 . S
C1030 C1029 1.287 . S
C1030 C1031 1.524 . S
C1030 H1049 0.913 . S
C1031 H1007 0.950 . S
C1031 C1030 1.524 . S
C1031 C1032 1.415 . S
C1032 H1008 0.950 . S
C1032 C1027 1.363 . S
C1032 C1031 1.415 . S
C1033 H1009 0.951 . S
C1033 C1034 1.366 . S
C1033 C1035 1.388 . S
C1034 C1033 1.366 . S
C1034 C1038 1.385 . S
C1035 H1010 0.951 . S
C1035 C1033 1.388 . S
C1035 C1036 1.366 . S
C1036 C1035 1.366 . S
C1036 C1037 1.414 . S
C1036 C1039 1.499 . S
C1037 H1011 0.950 . S
C1037 C1036 1.414 . S
C1037 C1038 1.374 . S
C1038 H1012 0.950 . S
C1038 C1034 1.385 . S
C1038 C1037 1.374 . S
C1039 C1036 1.499 . S
C1039 C1040 1.373 . S
C1039 C1041 1.389 . S
C1040 H1013 0.950 . S
C1040 C1026 1.377 . S
C1040 C1039 1.373 . S
C1041 C1025 1.377 . S
C1041 C1039 1.389 . S
C1041 C1042 1.524 . S
C1042 C1041 1.524 . S
C1042 C1043 1.397 . S
C1042 C1047 1.363 . S
C1043 H1014 0.950 . S
C1043 C1042 1.397 . S
C1043 C1044 1.334 . S
C1044 H1015 0.950 . S
C1044 C1043 1.334 . S
C1044 C1045 1.287 . S
C1045 C1044 1.287 . S
C1045 C1046 1.524 . S
C1045 H1048 0.999 . S
C1046 H1016 0.950 . S
C1046 C1045 1.524 . S
C1046 C1047 1.415 . S
C1047 H1017 0.950 . S
C1047 C1042 1.363 . S
C1047 C1046 1.415 . S
H1048 C1045 0.999 . S
H1049 C1030 0.913 . S
H1050 C1068 0.951 . S
H1051 C1070 0.951 . S
H1052 C1072 0.950 . S
H1053 C1073 0.950 . S
H1054 C1075 0.950 1_455 S
H1055 C1078 0.950 1_455 S
H1056 C1079 0.950 . S
H1057 C1081 0.950 . S
H1058 C1082 0.950 . S
H1059 C1083 0.951 . S
H1060 C1085 0.951 . S
H1061 C1087 0.950 . S
H1062 C1088 0.950 . S
H1063 C1090 0.950 . S
H1064 C1093 0.950 . S
H1065 C1094 0.950 . S
H1066 C1096 0.950 . S
H1067 C1097 0.950 . S
C1068 H1050 0.951 . S
C1068 C1069 1.366 . S
C1068 C1070 1.388 . S
C1069 C1068 1.366 . S
C1069 C1073 1.385 . S
C1070 H1051 0.951 . S
C1070 C1068 1.388 . S
C1070 C1071 1.366 . S
C1071 C1070 1.366 . S
C1071 C1072 1.414 . S
C1071 C1074 1.499 1_455 S
C1072 H1052 0.950 . S
C1072 C1071 1.414 . S
C1072 C1073 1.374 . S
C1073 H1053 0.950 . S
C1073 C1069 1.385 . S
C1073 C1072 1.374 . S
C1074 C1071 1.499 1_655 S
C1074 C1075 1.373 . S
C1074 C1076 1.389 . S
C1075 H1054 0.950 1_655 S
C1075 C1074 1.373 . S
C1075 C1091 1.377 . S
C1076 C1074 1.389 . S
C1076 C1077 1.524 . S
C1076 C1090 1.377 . S
C1077 C1076 1.524 . S
C1077 C1078 1.397 . S
C1077 C1082 1.363 . S
C1078 H1055 0.950 1_655 S
C1078 C1077 1.397 . S
C1078 C1079 1.334 1_655 S
C1079 H1056 0.950 . S
C1079 C1078 1.334 1_455 S
C1079 C1080 1.287 1_455 S
C1080 C1079 1.287 1_655 S
C1080 C1081 1.524 . S
C1080 H1099 0.913 . S
C1081 H1057 0.950 . S
C1081 C1080 1.524 . S
C1081 C1082 1.415 . S
C1082 H1058 0.950 . S
C1082 C1077 1.363 . S
C1082 C1081 1.415 . S
C1083 H1059 0.951 . S
C1083 C1084 1.366 . S
C1083 C1085 1.388 . S
C1084 C1083 1.366 . S
C1084 C1088 1.385 . S
C1085 H1060 0.951 . S
C1085 C1083 1.388 . S
C1085 C1086 1.366 . S
C1086 C1085 1.366 . S
C1086 C1087 1.414 . S
C1086 C1089 1.499 . S
C1087 H1061 0.950 . S
C1087 C1086 1.414 . S
C1087 C1088 1.374 . S
C1088 H1062 0.950 . S
C1088 C1084 1.385 . S
C1088 C1087 1.374 . S
C1089 C1086 1.499 . S
C1089 C1090 1.373 . S
C1089 C1091 1.389 . S
C1090 H1063 0.950 . S
C1090 C1076 1.377 . S
C1090 C1089 1.373 . S
C1091 C1075 1.377 . S
C1091 C1089 1.389 . S
C1091 C1092 1.524 . S
C1092 C1091 1.524 . S
C1092 C1093 1.397 . S
C1092 C1097 1.363 . S
C1093 H1064 0.950 . S
C1093 C1092 1.397 . S
C1093 C1094 1.334 . S
C1094 H1065 0.950 . S
C1094 C1093 1.334 . S
C1094 C1095 1.287 . S
C1095 C1094 1.287 . S
C1095 C1096 1.524 . S
C1095 H1098 0.999 . S
C1096 H1066 0.950 . S
C1096 C1095 1.524 . S
C1096 C1097 1.415 . S
C1097 H1067 0.950 . S
C1097 C1092 1.363 . S
C1097 C1096 1.415 . S
H1098 C1095 0.999 . S
H1099 C1080 0.913 . S
H1100 C1118 0.951 . S
H1101 C1120 0.951 . S
H1102 C1122 0.950 . S
H1103 C1123 0.950 . S
H1104 C1125 0.950 . S
H1105 C1128 0.950 . S
H1106 C1129 0.950 . S
H1107 C1131 0.950 . S
H1108 C1132 0.950 . S
H1109 C1133 0.951 . S
H1110 C1135 0.951 . S
H1111 C1137 0.950 . S
H1112 C1138 0.950 . S
H1113 C1140 0.950 . S
H1114 C1143 0.950 . S
H1115 C1144 0.950 . S
H1116 C1146 0.950 . S
H1117 C1147 0.950 . S
C1118 H1100 0.951 . S
C1118 C1119 1.366 . S
C1118 C1120 1.388 . S
C1119 C1118 1.366 . S
C1119 C1123 1.385 . S
C1120 H1101 0.951 . S
C1120 C1118 1.388 . S
C1120 C1121 1.366 . S
C1121 C1120 1.366 . S
C1121 C1122 1.414 . S
C1121 C1124 1.499 . S
C1122 H1102 0.950 . S
C1122 C1121 1.414 . S
C1122 C1123 1.374 . S
C1123 H1103 0.950 . S
C1123 C1119 1.385 . S
C1123 C1122 1.374 . S
C1124 C1121 1.499 . S
C1124 C1125 1.373 . S
C1124 C1126 1.389 . S
C1125 H1104 0.950 . S
C1125 C1124 1.373 . S
C1125 C1141 1.377 . S
C1126 C1124 1.389 . S
C1126 C1127 1.524 . S
C1126 C1140 1.377 . S
C1127 C1126 1.524 . S
C1127 C1128 1.397 . S
C1127 C1132 1.363 . S
C1128 H1105 0.950 . S
C1128 C1127 1.397 . S
C1128 C1129 1.334 . S
C1129 H1106 0.950 . S
C1129 C1128 1.334 . S
C1129 C1130 1.287 . S
C1130 C1129 1.287 . S
C1130 C1131 1.524 . S
C1130 H1149 0.913 . S
C1131 H1107 0.950 . S
C1131 C1130 1.524 . S
C1131 C1132 1.415 . S
C1132 H1108 0.950 . S
C1132 C1127 1.363 . S
C1132 C1131 1.415 . S
C1133 H1109 0.951 . S
C1133 C1134 1.366 . S
C1133 C1135 1.388 . S
C1134 C1133 1.366 . S
C1134 C1138 1.385 . S
C1135 H1110 0.951 . S
C1135 C1133 1.388 . S
C1135 C1136 1.366 . S
C1136 C1135 1.366 . S
C1136 C1137 1.414 . S
C1136 C1139 1.499 . S
C1137 H1111 0.950 . S
C1137 C1136 1.414 . S
C1137 C1138 1.374 . S
C1138 H1112 0.950 . S
C1138 C1134 1.385 . S
C1138 C1137 1.374 . S
C1139 C1136 1.499 . S
C1139 C1140 1.373 . S
C1139 C1141 1.389 . S
C1140 H1113 0.950 . S
C1140 C1126 1.377 . S
C1140 C1139 1.373 . S
C1141 C1125 1.377 . S
C1141 C1139 1.389 . S
C1141 C1142 1.524 . S
C1142 C1141 1.524 . S
C1142 C1143 1.397 . S
C1142 C1147 1.363 . S
C1143 H1114 0.950 . S
C1143 C1142 1.397 . S
C1143 C1144 1.334 . S
C1144 H1115 0.950 . S
C1144 C1143 1.334 . S
C1144 C1145 1.287 . S
C1145 C1144 1.287 . S
C1145 C1146 1.524 . S
C1145 H1148 0.999 . S
C1146 H1116 0.950 . S
C1146 C1145 1.524 . S
C1146 C1147 1.415 . S
C1147 H1117 0.950 . S
C1147 C1142 1.363 . S
C1147 C1146 1.415 . S
H1148 C1145 0.999 . S
H1149 C1130 0.913 . S
H1150 C1168 0.951 . S
H1151 C1170 0.951 . S
H1152 C1172 0.950 . S
H1153 C1173 0.950 . S
H1154 C1175 0.950 . S
H1155 C1178 0.950 . S
H1156 C1179 0.950 . S
H1157 C1181 0.950 . S
H1158 C1182 0.950 . S
H1159 C1183 0.951 . S
H1160 C1185 0.951 . S
H1161 C1187 0.950 . S
H1162 C1188 0.950 . S
H1163 C1190 0.950 . S
H1164 C1193 0.950 . S
H1165 C1194 0.950 . S
H1166 C1196 0.950 . S
H1167 C1197 0.950 . S
C1168 H1150 0.951 . S
C1168 C1169 1.366 . S
C1168 C1170 1.388 . S
C1169 C1168 1.366 . S
C1169 C1173 1.385 . S
C1170 H1151 0.951 . S
C1170 C1168 1.388 . S
C1170 C1171 1.366 . S
C1171 C1170 1.366 . S
C1171 C1172 1.414 . S
C1171 C1174 1.499 . S
C1172 H1152 0.950 . S
C1172 C1171 1.414 . S
C1172 C1173 1.374 . S
C1173 H1153 0.950 . S
C1173 C1169 1.385 . S
C1173 C1172 1.374 . S
C1174 C1171 1.499 . S
C1174 C1175 1.373 . S
C1174 C1176 1.389 . S
C1175 H1154 0.950 . S
C1175 C1174 1.373 . S
C1175 C1191 1.377 . S
C1176 C1174 1.389 . S
C1176 C1177 1.524 . S
C1176 C1190 1.377 . S
C1177 C1176 1.524 . S
C1177 C1178 1.397 . S
C1177 C1182 1.363 . S
C1178 H1155 0.950 . S
C1178 C1177 1.397 . S
C1178 C1179 1.334 . S
C1179 H1156 0.950 . S
C1179 C1178 1.334 . S
C1179 C1180 1.287 . S
C1180 C1179 1.287 . S
C1180 C1181 1.524 . S
C1180 H1199 0.913 . S
C1181 H1157 0.950 . S
C1181 C1180 1.524 . S
C1181 C1182 1.415 . S
C1182 H1158 0.950 . S
C1182 C1177 1.363 . S
C1182 C1181 1.415 . S
C1183 H1159 0.951 . S
C1183 C1184 1.366 . S
C1183 C1185 1.388 . S
C1184 C1183 1.366 . S
C1184 C1188 1.385 . S
C1185 H1160 0.951 . S
C1185 C1183 1.388 . S
C1185 C1186 1.366 . S
C1186 C1185 1.366 . S
C1186 C1187 1.414 . S
C1186 C1189 1.499 . S
C1187 H1161 0.950 . S
C1187 C1186 1.414 . S
C1187 C1188 1.374 . S
C1188 H1162 0.950 . S
C1188 C1184 1.385 . S
C1188 C1187 1.374 . S
C1189 C1186 1.499 . S
C1189 C1190 1.373 . S
C1189 C1191 1.389 . S
C1190 H1163 0.950 . S
C1190 C1176 1.377 . S
C1190 C1189 1.373 . S
C1191 C1175 1.377 . S
C1191 C1189 1.389 . S
C1191 C1192 1.524 . S
C1192 C1191 1.524 . S
C1192 C1193 1.397 . S
C1192 C1197 1.363 . S
C1193 H1164 0.950 . S
C1193 C1192 1.397 . S
C1193 C1194 1.334 . S
C1194 H1165 0.950 . S
C1194 C1193 1.334 . S
C1194 C1195 1.287 . S
C1195 C1194 1.287 . S
C1195 C1196 1.524 . S
C1195 H1198 0.999 . S
C1196 H1166 0.950 . S
C1196 C1195 1.524 . S
C1196 C1197 1.415 . S
C1197 H1167 0.950 . S
C1197 C1192 1.363 . S
C1197 C1196 1.415 . S
H1198 C1195 0.999 . S
H1199 C1180 0.913 . S
H1200 C1218 0.951 . S
H1201 C1220 0.951 . S
H1202 C1222 0.950 . S
H1203 C1223 0.950 . S
H1204 C1225 0.950 . S
H1205 C1228 0.950 . S
H1206 C1229 0.950 . S
H1207 C1231 0.950 . S
H1208 C1232 0.950 . S
H1209 C1233 0.951 . S
H1210 C1235 0.951 . S
H1211 C1237 0.950 . S
H1212 C1238 0.950 . S
H1213 C1240 0.950 . S
H1214 C1243 0.950 . S
H1215 C1244 0.950 . S
H1216 C1246 0.950 . S
H1217 C1247 0.950 . S
C1218 H1200 0.951 . S
C1218 C1219 1.366 . S
C1218 C1220 1.388 . S
C1219 C1218 1.366 . S
C1219 C1223 1.385 . S
C1220 H1201 0.951 . S
C1220 C1218 1.388 . S
C1220 C1221 1.366 . S
C1221 C1220 1.366 . S
C1221 C1222 1.414 . S
C1221 C1224 1.499 . S
C1222 H1202 0.950 . S
C1222 C1221 1.414 . S
C1222 C1223 1.374 . S
C1223 H1203 0.950 . S
C1223 C1219 1.385 . S
C1223 C1222 1.374 . S
C1224 C1221 1.499 . S
C1224 C1225 1.373 . S
C1224 C1226 1.389 . S
C1225 H1204 0.950 . S
C1225 C1224 1.373 . S
C1225 C1241 1.377 . S
C1226 C1224 1.389 . S
C1226 C1227 1.524 . S
C1226 C1240 1.377 . S
C1227 C1226 1.524 . S
C1227 C1228 1.397 . S
C1227 C1232 1.363 . S
C1228 H1205 0.950 . S
C1228 C1227 1.397 . S
C1228 C1229 1.334 . S
C1229 H1206 0.950 . S
C1229 C1228 1.334 . S
C1229 C1230 1.287 . S
C1230 C1229 1.287 . S
C1230 C1231 1.524 . S
C1230 H1249 0.913 . S
C1231 H1207 0.950 . S
C1231 C1230 1.524 . S
C1231 C1232 1.415 . S
C1232 H1208 0.950 . S
C1232 C1227 1.363 . S
C1232 C1231 1.415 . S
C1233 H1209 0.951 . S
C1233 C1234 1.366 . S
C1233 C1235 1.388 . S
C1234 C1233 1.366 . S
C1234 C1238 1.385 . S
C1235 H1210 0.951 . S
C1235 C1233 1.388 . S
C1235 C1236 1.366 . S
C1236 C1235 1.366 . S
C1236 C1237 1.414 . S
C1236 C1239 1.499 . S
C1237 H1211 0.950 . S
C1237 C1236 1.414 . S
C1237 C1238 1.374 . S
C1238 H1212 0.950 . S
C1238 C1234 1.385 . S
C1238 C1237 1.374 . S
C1239 C1236 1.499 . S
C1239 C1240 1.373 . S
C1239 C1241 1.389 . S
C1240 H1213 0.950 . S
C1240 C1226 1.377 . S
C1240 C1239 1.373 . S
C1241 C1225 1.377 . S
C1241 C1239 1.389 . S
C1241 C1242 1.524 . S
C1242 C1241 1.524 . S
C1242 C1243 1.397 . S
C1242 C1247 1.363 . S
C1243 H1214 0.950 . S
C1243 C1242 1.397 . S
C1243 C1244 1.334 . S
C1244 H1215 0.950 . S
C1244 C1243 1.334 . S
C1244 C1245 1.287 . S
C1245 C1244 1.287 . S
C1245 C1246 1.524 . S
C1245 H1248 0.999 . S
C1246 H1216 0.950 . S
C1246 C1245 1.524 . S
C1246 C1247 1.415 . S
C1247 H1217 0.950 . S
C1247 C1242 1.363 . S
C1247 C1246 1.415 . S
H1248 C1245 0.999 . S
H1249 C1230 0.913 . S
H1250 C1268 0.951 . S
H1251 C1270 0.951 . S
H1252 C1272 0.950 . S
H1253 C1273 0.950 . S
H1254 C1275 0.950 . S
H1255 C1278 0.950 . S
H1256 C1279 0.950 . S
H1257 C1281 0.950 . S
H1258 C1282 0.950 . S
H1259 C1283 0.951 . S
H1260 C1285 0.951 . S
H1261 C1287 0.950 . S
H1262 C1288 0.950 . S
H1263 C1290 0.950 . S
H1264 C1293 0.950 . S
H1265 C1294 0.950 . S
H1266 C1296 0.950 . S
H1267 C1297 0.950 . S
C1268 H1250 0.951 . S
C1268 C1269 1.366 . S
C1268 C1270 1.388 . S
C1269 C1268 1.366 . S
C1269 C1273 1.385 . S
C1270 H1251 0.951 . S
C1270 C1268 1.388 . S
C1270 C1271 1.366 . S
C1271 C1270 1.366 . S
C1271 C1272 1.414 . S
C1271 C1274 1.499 . S
C1272 H1252 0.950 . S
C1272 C1271 1.414 . S
C1272 C1273 1.374 . S
C1273 H1253 0.950 . S
C1273 C1269 1.385 . S
C1273 C1272 1.374 . S
C1274 C1271 1.499 . S
C1274 C1275 1.373 . S
C1274 C1276 1.389 . S
C1275 H1254 0.950 . S
C1275 C1274 1.373 . S
C1275 C1291 1.377 . S
C1276 C1274 1.389 . S
C1276 C1277 1.524 . S
C1276 C1290 1.377 . S
C1277 C1276 1.524 . S
C1277 C1278 1.397 . S
C1277 C1282 1.363 . S
C1278 H1255 0.950 . S
C1278 C1277 1.397 . S
C1278 C1279 1.334 . S
C1279 H1256 0.950 . S
C1279 C1278 1.334 . S
C1279 C1280 1.287 . S
C1280 C1279 1.287 . S
C1280 C1281 1.524 . S
C1280 H1299 0.913 . S
C1281 H1257 0.950 . S
C1281 C1280 1.524 . S
C1281 C1282 1.415 . S
C1282 H1258 0.950 . S
C1282 C1277 1.363 . S
C1282 C1281 1.415 . S
C1283 H1259 0.951 . S
C1283 C1284 1.366 . S
C1283 C1285 1.388 . S
C1284 C1283 1.366 . S
C1284 C1288 1.385 . S
C1285 H1260 0.951 . S
C1285 C1283 1.388 . S
C1285 C1286 1.366 . S
C1286 C1285 1.366 . S
C1286 C1287 1.414 . S
C1286 C1289 1.499 . S
C1287 H1261 0.950 . S
C1287 C1286 1.414 . S
C1287 C1288 1.374 . S
C1288 H1262 0.950 . S
C1288 C1284 1.385 . S
C1288 C1287 1.374 . S
C1289 C1286 1.499 . S
C1289 C1290 1.373 . S
C1289 C1291 1.389 . S
C1290 H1263 0.950 . S
C1290 C1276 1.377 . S
C1290 C1289 1.373 . S
C1291 C1275 1.377 . S
C1291 C1289 1.389 . S
C1291 C1292 1.524 . S
C1292 C1291 1.524 . S
C1292 C1293 1.397 . S
C1292 C1297 1.363 . S
C1293 H1264 0.950 . S
C1293 C1292 1.397 . S
C1293 C1294 1.334 . S
C1294 H1265 0.950 . S
C1294 C1293 1.334 . S
C1294 C1295 1.287 . S
C1295 C1294 1.287 . S
C1295 C1296 1.524 . S
C1295 H1298 0.999 . S
C1296 H1266 0.950 . S
C1296 C1295 1.524 . S
C1296 C1297 1.415 . S
C1297 H1267 0.950 . S
C1297 C1292 1.363 . S
C1297 C1296 1.415 . S
H1298 C1295 0.999 . S
H1299 C1280 0.913 . S
H1300 C1318 0.951 . S
H1301 C1320 0.951 . S
H1302 C1322 0.950 . S
H1303 C1323 0.950 . S
H1304 C1325 0.950 . S
H1305 C1328 0.950 . S
H1306 C1329 0.950 . S
H1307 C1331 0.950 1_556 S
H1308 C1332 0.950 . S
H1309 C1333 0.951 . S
H1310 C1335 0.951 . S
H1311 C1337 0.950 . S
H1312 C1338 0.950 . S
H1313 C1340 0.950 . S
H1314 C1343 0.950 . S
H1315 C1344 0.950 . S
H1316 C1346 0.950 . S
H1317 C1347 0.950 . S
C1318 H1300 0.951 . S
C1318 C1319 1.366 . S
C1318 C1320 1.388 . S
C1319 C1318 1.366 . S
C1319 C1323 1.385 . S
C1320 H1301 0.951 . S
C1320 C1318 1.388 . S
C1320 C1321 1.366 . S
C1321 C1320 1.366 . S
C1321 C1322 1.414 . S
C1321 C1324 1.499 . S
C1322 H1302 0.950 . S
C1322 C1321 1.414 . S
C1322 C1323 1.374 . S
C1323 H1303 0.950 . S
C1323 C1319 1.385 . S
C1323 C1322 1.374 . S
C1324 C1321 1.499 . S
C1324 C1325 1.373 . S
C1324 C1326 1.389 . S
C1325 H1304 0.950 . S
C1325 C1324 1.373 . S
C1325 C1341 1.377 . S
C1326 C1324 1.389 . S
C1326 C1327 1.524 . S
C1326 C1340 1.377 . S
C1327 C1326 1.524 . S
C1327 C1328 1.397 . S
C1327 C1332 1.363 . S
C1328 H1305 0.950 . S
C1328 C1327 1.397 . S
C1328 C1329 1.334 . S
C1329 H1306 0.950 . S
C1329 C1328 1.334 . S
C1329 C1330 1.321 . S
C1330 C1329 1.321 . S
C1330 C1331 1.529 . S
C1330 H1349 0.868 1_554 S
C1331 H1307 0.950 1_554 S
C1331 C1330 1.529 . S
C1331 C1332 1.415 . S
C1332 H1308 0.950 . S
C1332 C1327 1.363 . S
C1332 C1331 1.415 . S
C1333 H1309 0.951 . S
C1333 C1334 1.366 . S
C1333 C1335 1.388 . S
C1334 C1333 1.366 . S
C1334 C1338 1.385 . S
C1335 H1310 0.951 . S
C1335 C1333 1.388 . S
C1335 C1336 1.366 . S
C1336 C1335 1.366 . S
C1336 C1337 1.414 . S
C1336 C1339 1.499 . S
C1337 H1311 0.950 . S
C1337 C1336 1.414 . S
C1337 C1338 1.374 . S
C1338 H1312 0.950 . S
C1338 C1334 1.385 . S
C1338 C1337 1.374 . S
C1339 C1336 1.499 . S
C1339 C1340 1.373 . S
C1339 C1341 1.389 . S
C1340 H1313 0.950 . S
C1340 C1326 1.377 . S
C1340 C1339 1.373 . S
C1341 C1325 1.377 . S
C1341 C1339 1.389 . S
C1341 C1342 1.524 . S
C1342 C1341 1.524 . S
C1342 C1343 1.397 . S
C1342 C1347 1.363 . S
C1343 H1314 0.950 . S
C1343 C1342 1.397 . S
C1343 C1344 1.334 . S
C1344 H1315 0.950 . S
C1344 C1343 1.334 . S
C1344 C1345 1.287 . S
C1345 C1344 1.287 . S
C1345 C1346 1.524 . S
C1345 H1348 0.999 . S
C1346 H1316 0.950 . S
C1346 C1345 1.524 . S
C1346 C1347 1.415 . S
C1347 H1317 0.950 . S
C1347 C1342 1.363 . S
C1347 C1346 1.415 . S
H1348 C1345 0.999 . S
H1349 C1330 0.868 1_556 S
H1350 C1368 0.951 . S
H1351 C1370 0.951 . S
H1352 C1372 0.950 . S
H1353 C1373 0.950 . S
H1354 C1375 0.950 . S
H1355 C1378 0.950 . S
H1356 C1379 0.950 . S
H1357 C1381 0.950 . S
H1358 C1382 0.950 . S
H1359 C1383 0.951 . S
H1360 C1385 0.951 . S
H1361 C1387 0.950 . S
H1362 C1388 0.950 . S
H1363 C1390 0.950 . S
H1364 C1393 0.950 . S
H1365 C1394 0.950 . S
H1366 C1396 0.950 . S
H1367 C1397 0.950 . S
C1368 H1350 0.951 . S
C1368 C1369 1.366 . S
C1368 C1370 1.388 . S
C1369 C1368 1.366 . S
C1369 C1373 1.385 . S
C1370 H1351 0.951 . S
C1370 C1368 1.388 . S
C1370 C1371 1.366 . S
C1371 C1370 1.366 . S
C1371 C1372 1.414 . S
C1371 C1374 1.499 . S
C1372 H1352 0.950 . S
C1372 C1371 1.414 . S
C1372 C1373 1.374 . S
C1373 H1353 0.950 . S
C1373 C1369 1.385 . S
C1373 C1372 1.374 . S
C1374 C1371 1.499 . S
C1374 C1375 1.373 . S
C1374 C1376 1.389 . S
C1375 H1354 0.950 . S
C1375 C1374 1.373 . S
C1375 C1391 1.377 . S
C1376 C1374 1.389 . S
C1376 C1377 1.524 . S
C1376 C1390 1.377 . S
C1377 C1376 1.524 . S
C1377 C1378 1.397 . S
C1377 C1382 1.363 . S
C1378 H1355 0.950 . S
C1378 C1377 1.397 . S
C1378 C1379 1.334 . S
C1379 H1356 0.950 . S
C1379 C1378 1.334 . S
C1379 C1380 1.287 . S
C1380 C1379 1.287 . S
C1380 C1381 1.524 . S
C1380 H1399 0.913 . S
C1381 H1357 0.950 . S
C1381 C1380 1.524 . S
C1381 C1382 1.415 . S
C1382 H1358 0.950 . S
C1382 C1377 1.363 . S
C1382 C1381 1.415 . S
C1383 H1359 0.951 . S
C1383 C1384 1.366 . S
C1383 C1385 1.388 . S
C1384 C1383 1.366 . S
C1384 C1388 1.385 . S
C1385 H1360 0.951 . S
C1385 C1383 1.388 . S
C1385 C1386 1.366 . S
C1386 C1385 1.366 . S
C1386 C1387 1.414 . S
C1386 C1389 1.499 . S
C1387 H1361 0.950 . S
C1387 C1386 1.414 . S
C1387 C1388 1.374 . S
C1388 H1362 0.950 . S
C1388 C1384 1.385 . S
C1388 C1387 1.374 . S
C1389 C1386 1.499 . S
C1389 C1390 1.373 . S
C1389 C1391 1.389 . S
C1390 H1363 0.950 . S
C1390 C1376 1.377 . S
C1390 C1389 1.373 . S
C1391 C1375 1.377 . S
C1391 C1389 1.389 . S
C1391 C1392 1.524 . S
C1392 C1391 1.524 . S
C1392 C1393 1.397 . S
C1392 C1397 1.363 . S
C1393 H1364 0.950 . S
C1393 C1392 1.397 . S
C1393 C1394 1.334 . S
C1394 H1365 0.950 . S
C1394 C1393 1.334 . S
C1394 C1395 1.287 . S
C1395 C1394 1.287 . S
C1395 C1396 1.524 . S
C1395 H1398 0.999 . S
C1396 H1366 0.950 . S
C1396 C1395 1.524 . S
C1396 C1397 1.415 . S
C1397 H1367 0.950 . S
C1397 C1392 1.363 . S
C1397 C1396 1.415 . S
H1398 C1395 0.999 . S
H1399 C1380 0.913 . S
H1400 C1418 0.951 . S
H1401 C1420 0.951 . S
H1402 C1422 0.950 . S
H1403 C1423 0.950 . S
H1404 C1425 0.950 . S
H1405 C1428 0.950 . S
H1406 C1429 0.950 . S
H1407 C1431 0.950 . S
H1408 C1432 0.950 . S
H1409 C1433 0.951 . S
H1410 C1435 0.951 . S
H1411 C1437 0.950 . S
H1412 C1438 0.950 . S
H1413 C1440 0.950 . S
H1414 C1443 0.950 . S
H1415 C1444 0.950 . S
H1416 C1446 0.950 . S
H1417 C1447 0.950 . S
C1418 H1400 0.951 . S
C1418 C1419 1.366 . S
C1418 C1420 1.388 . S
C1419 C1418 1.366 . S
C1419 C1423 1.385 . S
C1420 H1401 0.951 . S
C1420 C1418 1.388 . S
C1420 C1421 1.366 . S
C1421 C1420 1.366 . S
C1421 C1422 1.414 . S
C1421 C1424 1.499 . S
C1422 H1402 0.950 . S
C1422 C1421 1.414 . S
C1422 C1423 1.374 . S
C1423 H1403 0.950 . S
C1423 C1419 1.385 . S
C1423 C1422 1.374 . S
C1424 C1421 1.499 . S
C1424 C1425 1.373 . S
C1424 C1426 1.389 . S
C1425 H1404 0.950 . S
C1425 C1424 1.373 . S
C1425 C1441 1.377 . S
C1426 C1424 1.389 . S
C1426 C1427 1.524 . S
C1426 C1440 1.377 . S
C1427 C1426 1.524 . S
C1427 C1428 1.397 . S
C1427 C1432 1.363 . S
C1428 H1405 0.950 . S
C1428 C1427 1.397 . S
C1428 C1429 1.334 . S
C1429 H1406 0.950 . S
C1429 C1428 1.334 . S
C1429 C1430 1.287 . S
C1430 C1429 1.287 . S
C1430 C1431 1.524 . S
C1430 H1449 0.913 . S
C1431 H1407 0.950 . S
C1431 C1430 1.524 . S
C1431 C1432 1.415 . S
C1432 H1408 0.950 . S
C1432 C1427 1.363 . S
C1432 C1431 1.415 . S
C1433 H1409 0.951 . S
C1433 C1434 1.366 . S
C1433 C1435 1.388 . S
C1434 C1433 1.366 . S
C1434 C1438 1.385 . S
C1435 H1410 0.951 . S
C1435 C1433 1.388 . S
C1435 C1436 1.366 . S
C1436 C1435 1.366 . S
C1436 C1437 1.414 . S
C1436 C1439 1.499 . S
C1437 H1411 0.950 . S
C1437 C1436 1.414 . S
C1437 C1438 1.374 . S
C1438 H1412 0.950 . S
C1438 C1434 1.385 . S
C1438 C1437 1.374 . S
C1439 C1436 1.499 . S
C1439 C1440 1.373 . S
C1439 C1441 1.389 . S
C1440 H1413 0.950 . S
C1440 C1426 1.377 . S
C1440 C1439 1.373 . S
C1441 C1425 1.377 . S
C1441 C1439 1.389 . S
C1441 C1442 1.524 . S
C1442 C1441 1.524 . S
C1442 C1443 1.397 . S
C1442 C1447 1.363 . S
C1443 H1414 0.950 . S
C1443 C1442 1.397 . S
C1443 C1444 1.334 . S
C1444 H1415 0.950 . S
C1444 C1443 1.334 . S
C1444 C1445 1.287 . S
C1445 C1444 1.287 . S
C1445 C1446 1.524 . S
C1445 H1448 0.999 . S
C1446 H1416 0.950 . S
C1446 C1445 1.524 . S
C1446 C1447 1.415 . S
C1447 H1417 0.950 . S
C1447 C1442 1.363 . S
C1447 C1446 1.415 . S
H1448 C1445 0.999 . S
H1449 C1430 0.913 . S
H1450 C1468 0.951 . S
H1451 C1470 0.951 . S
H1452 C1472 0.950 . S
H1453 C1473 0.950 . S
H1454 C1475 0.950 . S
H1455 C1478 0.950 . S
H1456 C1479 0.950 . S
H1457 C1481 0.950 . S
H1458 C1482 0.950 . S
H1459 C1483 0.951 . S
H1460 C1485 0.951 . S
H1461 C1487 0.950 . S
H1462 C1488 0.950 . S
H1463 C1490 0.950 . S
H1464 C1493 0.950 . S
H1465 C1494 0.950 . S
H1466 C1496 0.950 . S
H1467 C1497 0.950 . S
C1468 H1450 0.951 . S
C1468 C1469 1.366 . S
C1468 C1470 1.388 . S
C1469 C1468 1.366 . S
C1469 C1473 1.385 . S
C1470 H1451 0.951 . S
C1470 C1468 1.388 . S
C1470 C1471 1.366 . S
C1471 C1470 1.366 . S
C1471 C1472 1.414 . S
C1471 C1474 1.499 . S
C1472 H1452 0.950 . S
C1472 C1471 1.414 . S
C1472 C1473 1.374 . S
C1473 H1453 0.950 . S
C1473 C1469 1.385 . S
C1473 C1472 1.374 . S
C1474 C1471 1.499 . S
C1474 C1475 1.373 . S
C1474 C1476 1.389 . S
C1475 H1454 0.950 . S
C1475 C1474 1.373 . S
C1475 C1491 1.377 . S
C1476 C1474 1.389 . S
C1476 C1477 1.524 . S
C1476 C1490 1.377 . S
C1477 C1476 1.524 . S
C1477 C1478 1.397 . S
C1477 C1482 1.363 . S
C1478 H1455 0.950 . S
C1478 C1477 1.397 . S
C1478 C1479 1.334 . S
C1479 H1456 0.950 . S
C1479 C1478 1.334 . S
C1479 C1480 1.287 . S
C1480 C1479 1.287 . S
C1480 C1481 1.524 . S
C1480 H1499 0.913 . S
C1481 H1457 0.950 . S
C1481 C1480 1.524 . S
C1481 C1482 1.415 . S
C1482 H1458 0.950 . S
C1482 C1477 1.363 . S
C1482 C1481 1.415 . S
C1483 H1459 0.951 . S
C1483 C1484 1.366 . S
C1483 C1485 1.388 . S
C1484 C1483 1.366 . S
C1484 C1488 1.385 . S
C1485 H1460 0.951 . S
C1485 C1483 1.388 . S
C1485 C1486 1.366 . S
C1486 C1485 1.366 . S
C1486 C1487 1.414 . S
C1486 C1489 1.499 . S
C1487 H1461 0.950 . S
C1487 C1486 1.414 . S
C1487 C1488 1.374 . S
C1488 H1462 0.950 . S
C1488 C1484 1.385 . S
C1488 C1487 1.374 . S
C1489 C1486 1.499 . S
C1489 C1490 1.373 . S
C1489 C1491 1.389 . S
C1490 H1463 0.950 . S
C1490 C1476 1.377 . S
C1490 C1489 1.373 . S
C1491 C1475 1.377 . S
C1491 C1489 1.389 . S
C1491 C1492 1.524 . S
C1492 C1491 1.524 . S
C1492 C1493 1.397 . S
C1492 C1497 1.363 . S
C1493 H1464 0.950 . S
C1493 C1492 1.397 . S
C1493 C1494 1.334 . S
C1494 H1465 0.950 . S
C1494 C1493 1.334 . S
C1494 C1495 1.287 . S
C1495 C1494 1.287 . S
C1495 C1496 1.524 . S
C1495 H1498 0.999 . S
C1496 H1466 0.950 . S
C1496 C1495 1.524 . S
C1496 C1497 1.415 . S
C1497 H1467 0.950 . S
C1497 C1492 1.363 . S
C1497 C1496 1.415 . S
H1498 C1495 0.999 . S
H1499 C1480 0.913 . S
H1500 C1518 0.951 . S
H1501 C1520 0.951 . S
H1502 C1522 0.950 . S
H1503 C1523 0.950 . S
H1504 C1525 0.950 . S
H1505 C1528 0.950 . S
H1506 C1529 0.950 . S
H1507 C1531 0.950 . S
H1508 C1532 0.950 . S
H1509 C1533 0.951 . S
H1510 C1535 0.951 . S
H1511 C1537 0.950 . S
H1512 C1538 0.950 . S
H1513 C1540 0.950 . S
H1514 C1543 0.950 . S
H1515 C1544 0.950 . S
H1516 C1546 0.950 . S
H1517 C1547 0.950 . S
C1518 H1500 0.951 . S
C1518 C1519 1.366 . S
C1518 C1520 1.388 . S
C1519 C1518 1.366 . S
C1519 C1523 1.385 . S
C1520 H1501 0.951 . S
C1520 C1518 1.388 . S
C1520 C1521 1.366 . S
C1521 C1520 1.366 . S
C1521 C1522 1.414 . S
C1521 C1524 1.499 . S
C1522 H1502 0.950 . S
C1522 C1521 1.414 . S
C1522 C1523 1.374 . S
C1523 H1503 0.950 . S
C1523 C1519 1.385 . S
C1523 C1522 1.374 . S
C1524 C1521 1.499 . S
C1524 C1525 1.373 . S
C1524 C1526 1.389 . S
C1525 H1504 0.950 . S
C1525 C1524 1.373 . S
C1525 C1541 1.377 . S
C1526 C1524 1.389 . S
C1526 C1527 1.524 . S
C1526 C1540 1.377 . S
C1527 C1526 1.524 . S
C1527 C1528 1.397 . S
C1527 C1532 1.363 . S
C1528 H1505 0.950 . S
C1528 C1527 1.397 . S
C1528 C1529 1.334 . S
C1529 H1506 0.950 . S
C1529 C1528 1.334 . S
C1529 C1530 1.287 . S
C1530 C1529 1.287 . S
C1530 C1531 1.524 . S
C1530 H1549 0.913 . S
C1531 H1507 0.950 . S
C1531 C1530 1.524 . S
C1531 C1532 1.415 . S
C1532 H1508 0.950 . S
C1532 C1527 1.363 . S
C1532 C1531 1.415 . S
C1533 H1509 0.951 . S
C1533 C1534 1.366 . S
C1533 C1535 1.388 . S
C1534 C1533 1.366 . S
C1534 C1538 1.385 . S
C1535 H1510 0.951 . S
C1535 C1533 1.388 . S
C1535 C1536 1.366 . S
C1536 C1535 1.366 . S
C1536 C1537 1.414 . S
C1536 C1539 1.499 . S
C1537 H1511 0.950 . S
C1537 C1536 1.414 . S
C1537 C1538 1.374 . S
C1538 H1512 0.950 . S
C1538 C1534 1.385 . S
C1538 C1537 1.374 . S
C1539 C1536 1.499 . S
C1539 C1540 1.373 . S
C1539 C1541 1.389 . S
C1540 H1513 0.950 . S
C1540 C1526 1.377 . S
C1540 C1539 1.373 . S
C1541 C1525 1.377 . S
C1541 C1539 1.389 . S
C1541 C1542 1.524 . S
C1542 C1541 1.524 . S
C1542 C1543 1.397 . S
C1542 C1547 1.363 . S
C1543 H1514 0.950 . S
C1543 C1542 1.397 . S
C1543 C1544 1.334 . S
C1544 H1515 0.950 . S
C1544 C1543 1.334 . S
C1544 C1545 1.287 . S
C1545 C1544 1.287 . S
C1545 C1546 1.524 . S
C1545 H1548 0.999 . S
C1546 H1516 0.950 . S
C1546 C1545 1.524 . S
C1546 C1547 1.415 . S
C1547 H1517 0.950 . S
C1547 C1542 1.363 . S
C1547 C1546 1.415 . S
H1548 C1545 0.999 . S
H1549 C1530 0.913 . S
H1550 C1568 0.951 . S
H1551 C1570 0.951 . S
H1552 C1572 0.950 . S
H1553 C1573 0.950 . S
H1554 C1575 0.950 . S
H1555 C1578 0.950 . S
H1556 C1579 0.950 . S
H1557 C1581 0.950 . S
H1558 C1582 0.950 . S
H1559 C1583 0.951 . S
H1560 C1585 0.951 . S
H1561 C1587 0.950 . S
H1562 C1588 0.950 . S
H1563 C1590 0.950 . S
H1564 C1593 0.950 . S
H1565 C1594 0.950 . S
H1566 C1596 0.950 . S
H1567 C1597 0.950 . S
C1568 H1550 0.951 . S
C1568 C1569 1.366 . S
C1568 C1570 1.388 . S
C1569 C1568 1.366 . S
C1569 C1573 1.385 1_554 S
C1570 H1551 0.951 . S
C1570 C1568 1.388 . S
C1570 C1571 1.366 1_554 S
C1571 C1570 1.366 1_556 S
C1571 C1572 1.414 . S
C1571 C1574 1.499 . S
C1572 H1552 0.950 . S
C1572 C1571 1.414 . S
C1572 C1573 1.374 . S
C1573 H1553 0.950 . S
C1573 C1569 1.385 1_556 S
C1573 C1572 1.374 . S
C1574 C1571 1.499 . S
C1574 C1575 1.373 . S
C1574 C1576 1.389 . S
C1575 H1554 0.950 . S
C1575 C1574 1.373 . S
C1575 C1591 1.377 . S
C1576 C1574 1.389 . S
C1576 C1577 1.524 . S
C1576 C1590 1.377 . S
C1577 C1576 1.524 . S
C1577 C1578 1.397 . S
C1577 C1582 1.363 . S
C1578 H1555 0.950 . S
C1578 C1577 1.397 . S
C1578 C1579 1.334 . S
C1579 H1556 0.950 . S
C1579 C1578 1.334 . S
C1579 C1580 1.287 . S
C1580 C1579 1.287 . S
C1580 C1581 1.524 . S
C1580 H1599 0.913 . S
C1581 H1557 0.950 . S
C1581 C1580 1.524 . S
C1581 C1582 1.415 . S
C1582 H1558 0.950 . S
C1582 C1577 1.363 . S
C1582 C1581 1.415 . S
C1583 H1559 0.951 . S
C1583 C1584 1.366 . S
C1583 C1585 1.388 . S
C1584 C1583 1.366 . S
C1584 C1588 1.385 . S
C1585 H1560 0.951 . S
C1585 C1583 1.388 . S
C1585 C1586 1.366 . S
C1586 C1585 1.366 . S
C1586 C1587 1.414 . S
C1586 C1589 1.499 . S
C1587 H1561 0.950 . S
C1587 C1586 1.414 . S
C1587 C1588 1.374 . S
C1588 H1562 0.950 . S
C1588 C1584 1.385 . S
C1588 C1587 1.374 . S
C1589 C1586 1.499 . S
C1589 C1590 1.373 . S
C1589 C1591 1.389 . S
C1590 H1563 0.950 . S
C1590 C1576 1.377 . S
C1590 C1589 1.373 . S
C1591 C1575 1.377 . S
C1591 C1589 1.389 . S
C1591 C1592 1.524 . S
C1592 C1591 1.524 . S
C1592 C1593 1.397 . S
C1592 C1597 1.363 . S
C1593 H1564 0.950 . S
C1593 C1592 1.397 . S
C1593 C1594 1.334 . S
C1594 H1565 0.950 . S
C1594 C1593 1.334 . S
C1594 C1595 1.287 . S
C1595 C1594 1.287 . S
C1595 C1596 1.524 . S
C1595 H1598 0.999 . S
C1596 H1566 0.950 . S
C1596 C1595 1.524 . S
C1596 C1597 1.415 . S
C1597 H1567 0.950 . S
C1597 C1592 1.363 . S
C1597 C1596 1.415 . S
H1598 C1595 0.999 . S
H1599 C1580 0.913 . S
C419 C8 1.487 . S
C434 C104 1.446 . S
C469 C31 1.328 . S
C484 C143 1.270 . S
C519 C53 1.661 . S
C534 C182 1.587 . S
C584 C206 1.353 . S
C569 C74 1.352 . S
C634 C245 1.445 . S
C619 C26 1.481 . S
C669 C48 1.355 . S
C684 C284 1.354 . S
C719 C71 1.651 . S
C734 C338 1.576 . S
C769 C5 1.355 . S
C784 C362 1.273 . S
C819 C50 1.486 . S
C834 C377 1.443 . S
C884 C260 1.267 . S
C869 C70 1.328 . S
C934 C299 1.592 . S
C919 C4 1.661 . S
C969 C28 1.351 . S
C984 C323 1.356 . S
C1034 C128 1.439 . S
C1019 C73 1.481 . S
C1069 C7 1.355 . S
C1084 C167 1.359 . S
C1134 C221 1.580 . S
C1119 C30 1.650 . S
C1184 C89 1.268 . S
C1169 C52 1.329 . S
C1234 C343 1.400 . S
C1219 C9 1.434 . S
C1284 C382 1.289 . S
C1269 C29 1.296 . S
C1319 C51 1.290 . S
C1334 C265 1.287 . S
C1384 C304 1.398 . S
C1369 C75 1.444 . S
C1434 C187 1.410 . S
C1419 C27 1.444 . S
C1469 C49 1.434 . S
C1484 C226 1.389 . S
C1534 C109 1.279 . S
C1519 C72 1.295 . S
C1584 C148 1.277 . S
C1569 C6 1.290 . S
