# Generated by pormake.
# Topology rtl, (3,6)-cn, num edge types: 1
# Building blocks:
#     Node 0, Type 0, BuildingBlock: QEWDON_clean_linker_0, # of connection points: 3
#     Node 1, Type 0, BuildingBlock: QEWDON_clean_linker_0, # of connection points: 3
#     Node 2, Type 0, BuildingBlock: QEWDON_clean_linker_0, # of connection points: 3
#     Node 3, Type 0, BuildingBlock: QEWDON_clean_linker_0, # of connection points: 3
#     Node 4, Type 1, BuildingBlock: KUMBOL_clean_sbu_1, # of connection points: 6
#     Node 5, Type 1, BuildingBlock: KUMBOL_clean_sbu_1, # of connection points: 6
#     Edge 6, Type (0, 1), BuildingBlock: MIFKUJ_clean_linker_0, # of connection points: 2
#     Edge 7, Type (0, 1), BuildingBlock: MIFKUJ_clean_linker_0, # of connection points: 2
#     Edge 8, Type (0, 1), BuildingBlock: MIFKUJ_clean_linker_0, # of connection points: 2
#     Edge 9, Type (0, 1), BuildingBlock: MIFKUJ_clean_linker_0, # of connection points: 2
#     Edge 10, Type (0, 1), BuildingBlock: MIFKUJ_clean_linker_0, # of connection points: 2
#     Edge 11, Type (0, 1), BuildingBlock: MIFKUJ_clean_linker_0, # of connection points: 2
#     Edge 12, Type (0, 1), BuildingBlock: MIFKUJ_clean_linker_0, # of connection points: 2
#     Edge 13, Type (0, 1), BuildingBlock: MIFKUJ_clean_linker_0, # of connection points: 2
#     Edge 14, Type (0, 1), BuildingBlock: MIFKUJ_clean_linker_0, # of connection points: 2
#     Edge 15, Type (0, 1), BuildingBlock: MIFKUJ_clean_linker_0, # of connection points: 2
#     Edge 16, Type (0, 1), BuildingBlock: MIFKUJ_clean_linker_0, # of connection points: 2
#     Edge 17, Type (0, 1), BuildingBlock: MIFKUJ_clean_linker_0, # of connection points: 2
# Relax obj value: 0.084
# Max RMSD: 0.265
# Mean RMSD: 0.205
data_MOF--net-rtl--node1-KUMBOL_clean_sbu_1--node2-QEWDON_clean_linker_0--edge1-MIFKUJ_clean_linker_0
_symmetry_space_group_name_H-M    P1
_symmetry_Int_Tables_number       1
_symmetry_cell_setting            triclinic
loop_
_symmetry_equiv_pos_as_xyz
'x, y, z'
_cell_length_a     48.415849
_cell_length_b     48.070161
_cell_length_c     33.54669
_cell_angle_alpha  81.510279
_cell_angle_beta   100.53245
_cell_angle_gamma 90.783223
loop_
_atom_site_label
_atom_site_type_symbol
_atom_site_fract_x
_atom_site_fract_y
_atom_site_fract_z
_atom_type_partial_charge
H0 H 0.24827 0.83394 0.09107 0.0
C1 C 0.23685 0.83999 0.06012 0.0
C2 C 0.20962 0.85194 0.05343 0.0
C3 C 0.25009 0.83674 0.02703 0.0
H4 H 0.17538 0.87054 1.00664 0.0
C5 C 0.19572 0.86011 0.01266 0.0
C6 C 0.2087 0.85707 0.97929 0.0
C7 C 0.2359 0.84529 0.98676 0.0
C8 C 0.28056 0.83013 0.0346 0.0
H9 H 0.24651 0.84387 0.96131 0.0
C10 C 0.2912 0.80343 0.03151 0.0
C11 C 0.32061 0.7984 0.03846 0.0
C12 C 0.29928 0.85167 0.0442 0.0
H13 H 0.29147 0.87229 0.04652 0.0
C14 C 0.32813 0.84706 0.05016 0.0
H15 H 0.27671 0.78671 0.02452 0.0
C16 C 0.33873 0.82082 0.04713 0.0
H17 H 0.36131 0.81825 0.05123 0.0
H18 H 0.34239 0.86398 0.05699 0.0
H19 H 0.72929 0.71612 0.58393 0.0
C20 C 0.71727 0.70918 0.60775 0.0
C21 C 0.69156 0.69538 0.59796 0.0
C22 C 0.72797 0.71305 0.64853 0.0
H23 H 0.6576 0.67368 0.62225 0.0
C24 C 0.67662 0.68554 0.62937 0.0
C25 C 0.68678 0.68909 0.6702 0.0
C26 C 0.71232 0.70315 0.67935 0.0
C27 C 0.75656 0.72492 0.66022 0.0
H28 H 0.72021 0.70618 0.71076 0.0
C29 C 0.76609 0.7494 0.63775 0.0
C30 C 0.7928 0.76053 0.65155 0.0
C31 C 0.77463 0.71139 0.69524 0.0
H32 H 0.76838 0.69226 0.71255 0.0
C33 C 0.80104 0.72212 0.70834 0.0
H34 H 0.75258 0.76019 0.6107 0.0
C35 C 0.80999 0.74656 0.68693 0.0
H36 H 0.8306 0.75454 0.69789 0.0
H37 H 0.81463 0.71145 0.73537 0.0
H38 H 0.8058 0.19414 0.10217 0.0
C39 C 0.81497 0.19031 0.07629 0.0
C40 C 0.84188 0.17775 0.08297 0.0
C41 C 0.79919 0.19648 0.03638 0.0
H42 H 0.87309 0.16111 0.05422 0.0
C43 C 0.85302 0.172 0.04909 0.0
C44 C 0.83765 0.17805 0.00899 0.0
C45 C 0.81077 0.19044 1.00298 0.0
C46 C 0.76912 0.20506 0.02976 0.0
H47 H 0.79845 0.19486 0.97229 0.0
C48 C 0.76023 0.2297 0.04251 0.0
C49 C 0.73129 0.23662 0.03606 0.0
C50 C 0.74891 0.1877 0.01058 0.0
H51 H 0.75519 0.16864 1.00075 0.0
C52 C 0.72042 0.19444 1.00439 0.0
H53 H 0.77563 0.24332 0.05716 0.0
C54 C 0.71164 0.21864 0.01701 0.0
H55 H 0.68936 0.2236 0.01123 0.0
H56 H 0.70506 0.18086 0.98963 0.0
H57 H 0.33931 0.29189 0.50179 0.0
C58 C 0.34481 0.30369 0.47429 0.0
C59 C 0.35892 0.32946 0.47649 0.0
C60 C 0.34024 0.29188 0.43759 0.0
H61 H 0.37805 0.36379 0.44251 0.0
C62 C 0.36706 0.34404 0.44101 0.0
C63 C 0.36271 0.33272 0.40423 0.0
C64 C 0.34926 0.30673 0.40273 0.0
C65 C 0.33006 0.2624 0.43679 0.0
H66 H 0.34635 0.29775 0.37446 0.0
C67 C 0.30627 0.25212 0.45338 0.0
C68 C 0.29799 0.22377 0.4524 0.0
C69 C 0.34517 0.24395 0.41956 0.0
H70 H 0.36374 0.25089 0.40735 0.0
C71 C 0.33693 0.21621 0.41833 0.0
H72 H 0.29441 0.26597 0.4669 0.0
C73 C 0.3136 0.2062 0.43448 0.0
H74 H 0.30755 0.18458 0.43257 0.0
H75 H 0.34876 0.20235 0.40482 0.0
C76 C 0.98108 0.09332 0.48603 0.0
C77 C 0.93129 0.08596 0.46349 0.0
C78 C 0.95744 0.07694 0.48776 0.0
C79 C 0.92956 0.11112 0.4359 0.0
C80 C 0.97925 0.11898 0.45909 0.0
C81 C 0.95354 0.12745 0.43339 0.0
N82 N 1.00545 0.08482 0.51206 0.0
C83 C 0.02774 0.10257 0.51554 0.0
C84 C 1.00307 0.13579 0.45972 0.0
C85 C 0.02729 0.12773 0.48852 0.0
Gd86 Gd 0.04342 0.98464 0.50091 0.0
Gd87 Gd 1.00448 0.04071 0.55361 0.0
N88 N 0.95991 0.0524 0.5141 0.0
C89 C 0.90767 0.06945 0.46789 0.0
C90 C 0.93682 0.03675 0.51974 0.0
C91 C 0.91042 0.04488 0.49645 0.0
H92 H 0.93884 0.01799 0.54222 0.0
H93 H 0.8922 0.03228 0.50064 0.0
H94 H 0.0995 0.01875 0.47092 0.0
H95 H 0.04578 0.09781 0.53961 0.0
H96 H 0.15034 0.02172 0.49718 0.0
H97 H 0.88721 0.07566 0.44981 0.0
H98 H 0.90971 0.11828 0.41672 0.0
H99 H 0.02322 0.92215 0.54229 0.0
H100 H 1.00263 0.15554 0.4393 0.0
H101 H 0.04545 0.14113 0.49041 0.0
H102 H 0.16854 0.94631 0.61012 0.0
H103 H 0.95182 0.14698 0.4123 0.0
H104 H 0.09278 0.88343 0.63015 0.0
H105 H 0.04309 0.88247 0.59539 0.0
N106 N 0.06123 0.94503 0.54776 0.0
C107 C 0.08891 0.94513 0.56454 0.0
C108 C 0.045 0.9224 0.55712 0.0
C109 C 0.08422 0.90067 0.60673 0.0
C110 C 0.05616 0.90004 0.58716 0.0
C111 C 0.10111 0.92321 0.59507 0.0
H112 H 0.13944 0.9079 0.63632 0.0
N113 N 0.09277 0.98651 0.51877 0.0
C114 C 0.10513 0.96682 0.54998 0.0
C115 C 0.15045 0.98778 0.54698 0.0
C116 C 0.13423 0.96711 0.56536 0.0
C117 C 0.10889 1.005 0.49836 0.0
C118 C 0.1378 1.00643 0.51274 0.0
O119 O 0.98709 0.02737 0.49166 0.0
O120 O 0.02545 0.02473 0.46212 0.0
O121 O 0.06299 0.96562 0.45658 0.0
O122 O 0.01775 0.96334 0.45542 0.0
O123 O 0.9891 0.99579 0.56492 0.0
O124 O 0.99912 0.97316 0.51186 0.0
O125 O 0.04037 0.97719 0.56809 0.0
O126 O 0.04497 0.02005 0.59011 0.0
O127 O 0.98415 0.03388 0.60727 0.0
O128 O 1.0029 0.07372 0.59091 0.0
O129 O 0.05616 0.0307 0.492 0.0
O130 O 0.05093 0.04738 0.55141 0.0
C131 C 0.99932 0.0325 0.45959 0.0
C132 C 0.98448 0.97595 0.54094 0.0
C133 C 0.03462 0.94034 0.40469 0.0
C134 C 0.04998 0.92325 0.34666 0.0
C135 C 1.00426 0.91041 0.36375 0.0
C136 C 0.00924 0.92602 0.39606 0.0
C137 C 0.02438 0.90898 0.33929 0.0
C138 C 0.05517 0.93873 0.38002 0.0
C139 C 0.03884 0.9568 0.43935 0.0
C140 C 0.14629 0.9462 0.59745 0.0
C141 C 0.12974 0.92428 0.61229 0.0
H142 H 0.17288 0.98876 0.55788 0.0
C143 C 0.05136 0.99315 0.59511 0.0
C144 C 0.06404 0.04709 0.52024 0.0
C145 C 0.96259 0.07466 0.62094 0.0
C146 C 0.93277 0.08933 0.66598 0.0
C147 C 0.92123 0.10407 0.59232 0.0
C148 C 0.94496 0.08997 0.58723 0.0
C149 C 0.91508 0.10372 0.63132 0.0
C150 C 0.95661 0.07466 0.66057 0.0
C151 C 0.98762 0.05963 0.61475 0.0
H152 H 0.98469 0.89931 0.35765 0.0
H153 H 0.99315 0.92669 0.41452 0.0
H154 H 0.01994 0.89637 0.3147 0.0
H155 H 0.07472 0.94989 0.38615 0.0
H156 H 0.9078 0.11573 0.56596 0.0
H157 H 0.94974 0.09155 0.55696 0.0
H158 H 0.89688 0.1155 0.6345 0.0
H159 H 0.97042 0.06342 0.68695 0.0
C160 C 0.61129 0.55187 0.06095 0.0
C161 C 0.60542 0.59808 0.01966 0.0
C162 C 0.59405 0.57453 0.0411 0.0
C163 C 0.63427 0.59848 0.01839 0.0
C164 C 0.64028 0.55228 0.05994 0.0
C165 C 0.65164 0.57566 0.03848 0.0
N166 N 0.59964 0.52928 0.0808 0.0
C167 C 0.61586 0.50694 0.10158 0.0
C168 C 0.65698 0.52914 0.08053 0.0
C169 C 0.64472 0.50648 0.10171 0.0
Gd170 Gd 0.49373 0.49624 0.99993 0.0
Gd171 Gd 0.55117 0.53198 0.07884 0.0
N172 N 0.56599 0.57307 0.04158 0.0
C173 C 0.58741 0.62041 0.99984 0.0
C174 C 0.54859 0.59532 0.02384 0.0
C175 C 0.55892 0.61912 1.00227 0.0
H176 H 0.52679 0.59501 0.02638 0.0
H177 H 0.54493 0.63653 0.9877 0.0
H178 H 0.52393 0.43156 0.03427 0.0
H179 H 0.60662 0.48981 0.11899 0.0
H180 H 0.51378 0.38772 0.07626 0.0
H181 H 0.59531 0.63884 0.98294 0.0
H182 H 0.64334 0.61633 1.0019 0.0
H183 H 0.43544 0.53597 0.98277 0.0
H184 H 0.67936 0.52868 0.08061 0.0
H185 H 0.65747 0.48876 0.11848 0.0
H186 H 0.42074 0.40212 0.10019 0.0
H187 H 0.67385 0.5763 0.03723 0.0
H188 H 0.37404 0.48992 0.04177 0.0
H189 H 0.38818 0.53315 1.00097 0.0
N190 N 0.44803 0.49512 0.01382 0.0
C191 C 0.4404 0.47078 0.03509 0.0
C192 C 0.42957 0.51718 1.00101 0.0
C193 C 0.39478 0.49104 0.03385 0.0
C194 C 0.40273 0.51553 0.01095 0.0
C195 C 0.41366 0.46826 0.0462 0.0
H196 H 0.38643 0.44114 0.07886 0.0
N197 N 0.48602 0.45224 0.03749 0.0
C198 C 0.45996 0.44879 0.04741 0.0
C199 C 0.47284 0.40178 0.08197 0.0
C200 C 0.45293 0.42367 0.07068 0.0
C201 C 0.5047 0.43022 0.04602 0.0
C202 C 0.49865 0.40492 0.06901 0.0
O203 O 0.55968 0.53254 0.01435 0.0
O204 O 0.51672 0.53301 0.97088 0.0
O205 O 0.49557 0.46731 0.95647 0.0
O206 O 0.46318 0.49937 0.94304 0.0
O207 O 0.50667 0.55018 0.0622 0.0
O208 O 0.48836 0.54319 0.99567 0.0
O209 O 0.48649 0.49982 0.06425 0.0
O210 O 0.52977 0.4934 0.10542 0.0
O211 O 0.54254 0.56236 0.11682 0.0
O212 O 0.57633 0.53204 0.13973 0.0
O213 O 0.53893 0.48012 0.01242 0.0
O214 O 0.55695 0.48529 0.07963 0.0
C215 C 0.54372 0.53864 0.97794 0.0
C216 C 0.48876 0.55657 0.02733 0.0
C217 C 0.47883 0.48428 0.88689 0.0
C218 C 0.47022 0.47141 0.81772 0.0
C219 C 0.50141 0.51 0.83417 0.0
C220 C 0.49683 0.50557 0.87447 0.0
C221 C 0.48824 0.49313 0.80597 0.0
C222 C 0.46552 0.46726 0.85849 0.0
C223 C 0.47455 0.47905 0.9297 0.0
C224 C 0.42636 0.42117 0.08198 0.0
C225 C 0.40679 0.44338 0.06976 0.0
H226 H 0.46827 0.38217 0.09988 0.0
C227 C 0.50252 0.48976 0.09922 0.0
C228 C 0.5574 0.47347 0.04668 0.0
C229 C 0.55392 0.54921 0.1883 0.0
C230 C 0.56024 0.56229 0.25715 0.0
C231 C 0.52255 0.53095 0.2342 0.0
C232 C 0.53092 0.5327 0.19627 0.0
C233 C 0.53707 0.54555 0.26449 0.0
C234 C 0.56858 0.56386 0.21876 0.0
C235 C 0.56201 0.55256 0.14775 0.0
H236 H 0.51529 0.52655 0.82477 0.0
H237 H 0.50742 0.51863 0.89599 0.0
H238 H 0.49201 0.49725 0.77481 0.0
H239 H 0.45204 0.45046 0.86842 0.0
H240 H 0.50465 0.51832 0.24008 0.0
H241 H 0.51927 0.52149 0.17301 0.0
H242 H 0.53025 0.54358 0.29377 0.0
H243 H 0.586 0.57706 0.21211 0.0
H244 H 0.29587 0.17475 0.50394 0.0
H245 H 0.25413 0.14902 0.5184 0.0
H246 H 0.20157 0.21854 0.45191 0.0
H247 H 0.24363 0.2445 0.43696 0.0
H248 H 0.18167 0.19005 0.52391 0.0
H249 H 0.21029 0.1688 0.40179 0.0
H250 H 0.24449 0.15537 0.3616 0.0
H251 H 0.26009 0.07655 0.44143 0.0
H252 H 0.22631 0.08974 0.48255 0.0
H253 H 0.08016 0.07064 0.4488 0.0
H254 H 0.11722 0.10485 0.43992 0.0
H255 H 0.13682 0.10431 0.57076 0.0
H256 H 0.09935 0.07043 0.57963 0.0
H257 H 0.17096 0.10172 0.46274 0.0
H258 H 0.16586 0.1653 0.59392 0.0
H259 H 0.13131 0.18103 0.63188 0.0
H260 H 0.06563 0.17846 0.52761 0.0
H261 H 0.09975 0.16249 0.48903 0.0
C262 C 0.27547 0.18485 0.49305 0.0
C263 C 0.27307 0.21158 0.46889 0.0
C264 C 0.25159 0.17008 0.50133 0.0
C265 C 0.22463 0.18159 0.48568 0.0
C266 C 0.22215 0.20919 0.46424 0.0
C267 C 0.24619 0.22406 0.45584 0.0
C268 C 0.19943 0.1636 0.48842 0.0
C269 C 0.17926 0.17076 0.51052 0.0
C270 C 0.196 0.13857 0.47051 0.0
C271 C 0.21595 0.13036 0.44544 0.0
C272 C 0.22115 0.14868 0.41094 0.0
C273 C 0.24045 0.14111 0.38798 0.0
C274 C 0.2545 0.11515 0.399 0.0
C275 C 0.24921 0.09667 0.43295 0.0
C276 C 0.22998 0.10418 0.45608 0.0
C277 C 0.0924 0.07777 0.4757 0.0
C278 C 0.08686 0.0677 0.51495 0.0
C279 C 0.11358 0.09744 0.47059 0.0
C280 C 0.12979 0.10761 0.50456 0.0
C281 C 0.12433 0.09743 0.54387 0.0
C282 C 0.103 0.07786 0.54896 0.0
C283 C 0.1531 0.12782 0.4988 0.0
C284 C 0.17311 0.12103 0.47612 0.0
C285 C 0.15614 0.15328 0.51585 0.0
C286 C 0.13533 0.16251 0.53875 0.0
C287 C 0.14403 0.16806 0.5791 0.0
C288 C 0.12452 0.17692 0.60074 0.0
C289 C 0.09627 0.18054 0.58221 0.0
C290 C 0.08748 0.17533 0.54199 0.0
C291 C 0.10687 0.16629 0.52027 0.0
H292 H 0.0812 0.1875 0.59896 0.0
H293 H 0.26944 0.10932 0.3812 0.0
H294 H 0.30214 0.75973 0.98604 0.0
H295 H 0.32609 0.71606 0.98032 0.0
H296 H 0.39175 0.73045 0.08028 0.0
H297 H 0.36758 0.77293 0.08764 0.0
H298 H 0.41084 0.7201 1.00612 0.0
H299 H 0.34989 0.68287 0.10076 0.0
H300 H 0.30401 0.67372 0.12182 0.0
H301 H 0.27754 0.62951 0.01939 0.0
H302 H 0.32316 0.63877 0.99738 0.0
H303 H 0.46727 0.57274 0.09002 0.0
H304 H 0.43367 0.61092 0.08688 0.0
H305 H 0.42898 0.62994 0.95614 0.0
H306 H 0.46232 0.59125 0.95895 0.0
H307 H 0.37694 0.62306 0.03947 0.0
H308 H 0.43175 0.70433 0.9396 0.0
H309 H 0.47829 0.71218 0.92 0.0
H310 H 0.51797 0.66764 0.03647 0.0
H311 H 0.47176 0.66002 0.05701 0.0
C312 C 0.32138 0.75333 1.00732 0.0
C313 C 0.3331 0.7703 0.03683 0.0
C314 C 0.33515 0.72846 1.00379 0.0
C315 C 0.36095 0.72025 0.02948 0.0
C316 C 0.37213 0.7366 0.05969 0.0
C317 C 0.35826 0.76105 0.06367 0.0
C318 C 0.37693 0.69502 0.02485 0.0
C319 C 0.40325 0.69891 0.01297 0.0
C320 C 0.36717 0.66734 0.03395 0.0
C321 C 0.33977 0.66185 0.04712 0.0
C322 C 0.33417 0.67148 0.08247 0.0
C323 C 0.30824 0.6662 0.09464 0.0
C324 C 0.28783 0.65113 0.07187 0.0
C325 C 0.29334 0.64124 0.03694 0.0
C326 C 0.31923 0.64649 0.02461 0.0
C327 C 0.45898 0.58494 0.06053 0.0
C328 C 0.46761 0.57913 0.02474 0.0
C329 C 0.43956 0.60658 0.05876 0.0
C330 C 0.42879 0.62327 0.02131 0.0
C331 C 0.43699 0.61727 0.98536 0.0
C332 C 0.45606 0.59523 0.987 0.0
C333 C 0.41076 0.64822 0.02069 0.0
C334 C 0.3842 0.64428 0.03174 0.0
C335 C 0.42028 0.67591 0.0109 0.0
C336 C 0.44828 0.68134 0.99959 0.0
C337 C 0.45044 0.69637 0.96109 0.0
C338 C 0.47675 0.70077 0.94982 0.0
C339 C 0.50106 0.69033 0.97691 0.0
C340 C 0.49912 0.67564 0.01546 0.0
C341 C 0.47288 0.67128 0.02692 0.0
H342 H 0.5214 0.69366 0.96807 0.0
H343 H 0.26779 0.64705 0.08136 0.0
H344 H 0.80556 0.77034 0.57438 0.0
H345 H 0.83361 0.8093 0.54717 0.0
H346 H 0.83411 0.84774 0.65561 0.0
H347 H 0.80628 0.80895 0.68266 0.0
H348 H 0.82989 0.88767 0.58663 0.0
H349 H 0.88757 0.80586 0.64998 0.0
H350 H 0.90174 0.75593 0.65863 0.0
H351 H 0.91546 0.7663 0.53442 0.0
H352 H 0.90095 0.81623 0.52486 0.0
H353 H 0.95224 0.97057 0.60111 0.0
H354 H 0.91596 0.93607 0.61239 0.0
H355 H 0.92918 0.89935 0.50749 0.0
H356 H 0.96596 0.93343 0.49646 0.0
H357 H 0.92405 0.85901 0.56729 0.0
H358 H 0.87036 0.94139 0.50455 0.0
H359 H 0.8565 0.99143 0.49488 0.0
H360 H 0.83498 0.9806 0.61479 0.0
H361 H 0.84898 0.9305 0.62536 0.0
C362 C 0.81094 0.78759 0.59169 0.0
C363 C 0.80364 0.78673 0.6305 0.0
C364 C 0.82719 0.80971 0.57636 0.0
C365 C 0.83635 0.83136 0.59957 0.0
C366 C 0.82738 0.83138 0.63708 0.0
C367 C 0.81142 0.80923 0.6525 0.0
C368 C 0.85715 0.85262 0.58692 0.0
C369 C 0.85051 0.88141 0.58257 0.0
C370 C 0.88394 0.84459 0.58074 0.0
C371 C 0.89287 0.81467 0.58657 0.0
C372 C 0.89341 0.79743 0.62442 0.0
C373 C 0.90152 0.76915 0.6295 0.0
C374 C 0.90942 0.75793 0.59705 0.0
C375 C 0.90929 0.77501 0.5595 0.0
C376 C 0.90112 0.8033 0.55423 0.0
C377 C 0.94746 0.95523 0.5803 0.0
C378 C 0.96212 0.95499 0.54775 0.0
C379 C 0.9265 0.93553 0.58668 0.0
C380 C 0.91936 0.91522 0.56045 0.0
C381 C 0.93413 0.91477 0.52815 0.0
C382 C 0.95519 0.9344 0.52183 0.0
C383 C 0.89694 0.89419 0.56725 0.0
C384 C 0.90331 0.86539 0.57072 0.0
C385 C 0.86985 0.90224 0.5723 0.0
C386 C 0.86093 0.93223 0.56586 0.0
C387 C 0.86281 0.94971 0.52895 0.0
C388 C 0.85493 0.97808 0.5233 0.0
C389 C 0.84497 0.98922 0.55426 0.0
C390 C 0.84273 0.97195 0.59086 0.0
C391 C 0.85059 0.94354 0.59666 0.0
H392 H 0.83893 0.01121 0.54986 0.0
H393 H 0.9157 0.73603 0.60104 0.0
H394 H 0.69084 0.24104 0.08148 0.0
H395 H 0.66606 0.28369 0.08773 0.0
H396 H 0.72177 0.33401 0.02081 0.0
H397 H 0.74699 0.29112 0.015 0.0
H398 H 0.70636 0.3616 0.08008 0.0
H399 H 0.66061 0.31474 0.97032 0.0
H400 H 0.64005 0.2743 0.93852 0.0
H401 H 0.57876 0.26584 0.01713 0.0
H402 H 0.59927 0.30597 0.04991 0.0
H403 H 0.5715 0.45225 0.98179 0.0
H404 H 0.60533 0.41481 0.98294 0.0
H405 H 0.62591 0.40665 0.11472 0.0
H406 H 0.59127 0.44352 0.114 0.0
H407 H 0.60499 0.36014 0.0191 0.0
H408 H 0.69807 0.38894 0.14126 0.0
H409 H 0.7209 0.43124 0.16513 0.0
H410 H 0.68917 0.48004 0.04816 0.0
H411 H 0.66635 0.43805 0.02353 0.0
C412 C 0.69822 0.26125 0.06892 0.0
C413 C 0.7207 0.26275 0.04745 0.0
C414 C 0.68398 0.28563 0.07239 0.0
C415 C 0.69161 0.31206 0.05396 0.0
C416 C 0.71541 0.31386 0.03515 0.0
C417 C 0.72986 0.28937 0.03193 0.0
C418 C 0.6731 0.33714 0.05105 0.0
C419 C 0.68417 0.36123 0.06696 0.0
C420 C 0.64427 0.33709 0.03282 0.0
C421 C 0.63164 0.3132 0.01281 0.0
C422 C 0.64286 0.30414 0.98101 0.0
C423 C 0.63121 0.28128 0.9628 0.0
C424 C 0.60815 0.26747 0.97585 0.0
C425 C 0.59664 0.27654 1.00708 0.0
C426 C 0.60827 0.29935 0.02548 0.0
C427 C 0.5832 0.44258 0.01111 0.0
C428 C 0.57882 0.45124 0.04781 0.0
C429 C 0.60261 0.42116 0.01167 0.0
C430 C 0.61839 0.40805 0.04885 0.0
C431 C 0.6143 0.41675 0.08558 0.0
C432 C 0.59457 0.43797 0.0851 0.0
C433 C 0.63801 0.38434 0.04918 0.0
C434 C 0.62711 0.36047 0.03259 0.0
C435 C 0.66705 0.38493 0.06589 0.0
C436 C 0.68027 0.41039 0.08074 0.0
C437 C 0.69597 0.4087 0.12066 0.0
C438 C 0.70892 0.43262 0.1343 0.0
C439 C 0.70649 0.4583 0.10818 0.0
C440 C 0.69101 0.46015 0.06839 0.0
C441 C 0.67796 0.43632 0.05464 0.0
H442 H 0.71653 0.4768 0.11878 0.0
H443 H 0.59916 0.24978 0.96172 0.0
H444 H 0.15357 0.85063 0.05951 0.0
H445 H 0.13177 0.86571 0.11301 0.0
H446 H 0.21336 0.88093 0.18169 0.0
H447 H 0.23551 0.86761 0.12722 0.0
H448 H 0.16932 0.84876 0.2273 0.0
H449 H 0.18599 0.93471 0.14108 0.0
H450 H 0.1843 0.965 0.0746 0.0
H451 H 0.0943 0.96008 0.04996 0.0
H452 H 0.0955 0.92933 0.11606 0.0
H453 H 0.10748 0.9152 0.36724 0.0
H454 H 0.13974 0.90627 0.32177 0.0
H455 H 0.07099 0.91691 0.21866 0.0
H456 H 0.03927 0.92711 0.26328 0.0
H457 H 0.11458 0.93834 0.19397 0.0
H458 H 0.09617 0.85029 0.27332 0.0
H459 H 0.09514 0.81723 0.33667 0.0
H460 H 0.18466 0.82307 0.37146 0.0
H461 H 0.18616 0.85647 0.30851 0.0
C462 C 0.16703 0.85739 0.0857 0.0
C463 C 0.19645 0.85808 0.08845 0.0
C464 C 0.15446 0.86578 0.11649 0.0
C465 C 0.17094 0.87454 0.15121 0.0
C466 C 0.20028 0.87413 0.15517 0.0
C467 C 0.2129 0.86627 0.12398 0.0
C468 C 0.15723 0.88526 0.18227 0.0
C469 C 0.15777 0.86859 0.22044 0.0
C470 C 0.14168 0.9108 0.17289 0.0
C471 C 0.14086 0.92949 0.13332 0.0
C472 C 0.16586 0.93986 0.12131 0.0
C473 C 0.16498 0.95716 0.08374 0.0
C474 C 0.13921 0.9644 0.05802 0.0
C475 C 0.11425 0.95442 0.06989 0.0
C476 C 0.11502 0.93708 0.10742 0.0
C477 C 0.09942 0.91621 0.33474 0.0
C478 C 0.07067 0.92142 0.31907 0.0
C479 C 0.11781 0.91076 0.3088 0.0
C480 C 0.10776 0.91022 0.26676 0.0
C481 C 0.07938 0.91694 0.25089 0.0
C482 C 0.06114 0.92256 0.27661 0.0
C483 C 0.12614 0.90166 0.23919 0.0
C484 C 0.12644 0.9187 0.20139 0.0
C485 C 0.14208 0.8762 0.24872 0.0
C486 C 0.14124 0.85613 0.2865 0.0
C487 C 0.11561 0.84468 0.29465 0.0
C488 C 0.11494 0.82586 0.33044 0.0
C489 C 0.13981 0.81813 0.35814 0.0
C490 C 0.16541 0.82913 0.35003 0.0
C491 C 0.16618 0.848 0.31429 0.0
H492 H 0.13925 0.80355 0.38584 0.0
H493 H 0.13858 0.9778 0.02894 0.0
H494 H 0.62984 0.68829 0.66886 0.0
H495 H 0.60467 0.66367 0.72021 0.0
H496 H 0.68357 0.63637 0.79789 0.0
H497 H 0.70889 0.66031 0.74612 0.0
H498 H 0.6477 0.59334 0.79252 0.0
H499 H 0.64277 0.68855 0.81958 0.0
H500 H 0.63191 0.73934 0.80211 0.0
H501 H 0.54482 0.72155 0.76303 0.0
H502 H 0.55523 0.67062 0.77976 0.0
H503 H 0.59956 0.54129 0.97443 0.0
H504 H 0.62219 0.56832 0.92248 0.0
H505 H 0.54108 0.5962 0.85209 0.0
H506 H 0.51822 0.57029 0.90561 0.0
H507 H 0.57648 0.63883 0.85176 0.0
H508 H 0.58039 0.54423 0.82493 0.0
H509 H 0.59034 0.49328 0.84244 0.0
H510 H 0.67803 0.50949 0.87934 0.0
H511 H 0.66856 0.56058 0.8626 0.0
C512 C 0.64188 0.67711 0.69691 0.0
C513 C 0.67146 0.67634 0.70325 0.0
C514 C 0.62742 0.66318 0.72644 0.0
C515 C 0.64215 0.64825 0.76319 0.0
C516 C 0.67168 0.64775 0.76987 0.0
C517 C 0.68616 0.66172 0.74037 0.0
C518 C 0.62682 0.63234 0.794 0.0
C519 C 0.63241 0.6034 0.80585 0.0
C520 C 0.60613 0.64515 0.81052 0.0
C521 C 0.59984 0.67576 0.80054 0.0
C522 C 0.62134 0.69546 0.80695 0.0
C523 C 0.61526 0.72427 0.79725 0.0
C524 C 0.58771 0.73366 0.78137 0.0
C525 C 0.56616 0.71425 0.77528 0.0
C526 C 0.57214 0.6854 0.7849 0.0
C527 C 0.58644 0.55329 0.94808 0.0
C528 C 0.55701 0.55364 0.94436 0.0
C529 C 0.59946 0.56857 0.91807 0.0
C530 C 0.58342 0.58405 0.88285 0.0
C531 C 0.55398 0.58439 0.87887 0.0
C532 C 0.5409 0.56933 0.9093 0.0
C533 C 0.59755 0.59988 0.85053 0.0
C534 C 0.59171 0.62875 0.83833 0.0
C535 C 0.61787 0.58699 0.83341 0.0
C536 C 0.62373 0.55625 0.84277 0.0
C537 C 0.60178 0.53694 0.83696 0.0
C538 C 0.60733 0.50803 0.84674 0.0
C539 C 0.63479 0.49816 0.86206 0.0
C540 C 0.65677 0.51717 0.86749 0.0
C541 C 0.65133 0.54611 0.85781 0.0
H542 H 0.63905 0.47577 0.86966 0.0
H543 H 0.58304 0.75598 0.77388 0.0
H544 H 0.82126 0.14974 0.14839 0.0
H545 H 0.84811 0.12739 0.21401 0.0
H546 H 0.92484 0.15981 0.17807 0.0
H547 H 0.89809 0.18227 0.11246 0.0
H548 H 0.93024 0.10498 0.20571 0.0
H549 H 0.89697 0.18538 0.25256 0.0
H550 H 0.86203 0.21922 0.26279 0.0
H551 H 0.82152 0.15274 0.32982 0.0
H552 H 0.85598 0.1184 0.31946 0.0
H553 H 0.0196 0.06798 0.40087 0.0
H554 H 0.99266 0.09413 0.33769 0.0
H555 H 0.91637 0.05586 0.36703 0.0
H556 H 0.94331 0.02933 0.4298 0.0
H557 H 0.91113 0.11408 0.34351 0.0
H558 H 0.9437 0.03376 0.29541 0.0
H559 H 0.9792 0.99997 0.28669 0.0
H560 H 0.0214 0.06672 0.22293 0.0
H561 H 0.98639 0.10102 0.2319 0.0
C562 C 0.84376 0.15272 0.15486 0.0
C563 C 0.85753 0.16777 0.12513 0.0
C564 C 0.85913 0.13982 0.19238 0.0
C565 C 0.88855 0.14189 0.20107 0.0
C566 C 0.9022 0.15775 0.17201 0.0
C567 C 0.88688 0.17061 0.13454 0.0
C568 C 0.90524 0.12622 0.23931 0.0
C569 C 0.92633 0.10736 0.23587 0.0
C570 C 0.89972 0.12867 0.27869 0.0
C571 C 0.87887 0.14926 0.28479 0.0
C572 C 0.88045 0.17792 0.26912 0.0
C573 C 0.86076 0.19721 0.27502 0.0
C574 C 0.83951 0.18812 0.29682 0.0
C575 C 0.83795 0.15974 0.31286 0.0
C576 C 0.85757 0.14036 0.307 0.0
C577 C 0.99713 0.0649 0.39349 0.0
C578 C 0.98345 0.04684 0.42027 0.0
C579 C 0.98177 0.07992 0.35756 0.0
C580 C 0.9525 0.07696 0.3477 0.0
C581 C 0.9389 0.05857 0.37414 0.0
C582 C 0.95428 0.04343 0.40992 0.0
C583 C 0.93607 0.09307 0.3098 0.0
C584 C 0.91505 0.11189 0.31333 0.0
C585 C 0.94164 0.09061 0.27052 0.0
C586 C 0.96258 0.07001 0.26471 0.0
C587 C 0.96068 0.04128 0.27984 0.0
C588 C 0.98069 0.02203 0.2748 0.0
C589 C 1.00259 0.03121 0.25436 0.0
C590 C 1.00446 0.05965 0.23881 0.0
C591 C 0.98452 0.07901 0.24385 0.0
H592 H 0.01806 0.01627 0.25049 0.0
H593 H 0.8243 0.20309 0.30137 0.0
H594 H 0.32766 0.33542 0.53577 0.0
H595 H 0.34308 0.35525 0.59971 0.0
H596 H 0.42603 0.36706 0.57066 0.0
H597 H 0.41091 0.34719 0.50751 0.0
H598 H 0.42848 0.34578 0.65076 0.0
H599 H 0.37949 0.42141 0.55297 0.0
H600 H 0.33864 0.44384 0.50451 0.0
H601 H 0.29006 0.43489 0.60059 0.0
H602 H 0.33056 0.41205 0.64952 0.0
H603 H 0.49386 0.44978 0.76051 0.0
H604 H 0.47158 0.42189 0.70873 0.0
H605 H 0.3941 0.42279 0.75476 0.0
H606 H 0.41611 0.45166 0.80606 0.0
H607 H 0.38406 0.43329 0.67274 0.0
H608 H 0.43508 0.36297 0.77273 0.0
H609 H 0.47607 0.34087 0.8212 0.0
H610 H 0.52063 0.33922 0.72203 0.0
H611 H 0.48006 0.36169 0.67299 0.0
C612 C 0.34921 0.34208 0.5433 0.0
C613 C 0.36796 0.34009 0.51635 0.0
C614 C 0.35797 0.35352 0.57968 0.0
C615 C 0.38568 0.36291 0.58985 0.0
C616 C 0.40456 0.36006 0.56353 0.0
C617 C 0.39581 0.34889 0.52723 0.0
C618 C 0.39525 0.37637 0.6272 0.0
C619 C 0.41884 0.36498 0.65549 0.0
C620 C 0.38222 0.40098 0.63411 0.0
C621 C 0.35791 0.41471 0.60475 0.0
C622 C 0.36002 0.424 0.56367 0.0
C623 C 0.33695 0.43683 0.53613 0.0
C624 C 0.31174 0.4407 0.54943 0.0
C625 C 0.30958 0.43182 0.59032 0.0
C626 C 0.33258 0.41894 0.61796 0.0
C627 C 0.47203 0.44421 0.75959 0.0
C628 C 0.45678 0.45312 0.78747 0.0
C629 C 0.45937 0.42794 0.73018 0.0
C630 C 0.4312 0.41987 0.72804 0.0
C631 C 0.41588 0.42862 0.75587 0.0
C632 C 0.42857 0.44495 0.78541 0.0
C633 C 0.41775 0.40307 0.69586 0.0
C634 C 0.39346 0.41383 0.6685 0.0
C635 C 0.43011 0.37782 0.68984 0.0
C636 C 0.45457 0.3642 0.71921 0.0
C637 C 0.45369 0.35808 0.76127 0.0
C638 C 0.47685 0.34546 0.78885 0.0
C639 C 0.50096 0.33869 0.77471 0.0
C640 C 0.50195 0.34448 0.73294 0.0
C641 C 0.47886 0.35713 0.70523 0.0
H642 H 0.51886 0.32892 0.79611 0.0
H643 H 0.29391 0.45065 0.52807 0.0
H644 H 0.63791 0.70174 0.55495 0.0
H645 H 0.61813 0.68247 0.49257 0.0
H646 H 0.70064 0.65437 0.48349 0.0
H647 H 0.72064 0.67353 0.54635 0.0
H648 H 0.66641 0.6745 0.40594 0.0
H649 H 0.66143 0.6092 0.52738 0.0
H650 H 0.64997 0.59482 0.59606 0.0
H651 H 0.56263 0.61276 0.5477 0.0
H652 H 0.57364 0.62774 0.47883 0.0
H653 H 0.6171 0.56951 0.27948 0.0
H654 H 0.64143 0.59528 0.33305 0.0
H655 H 0.56171 0.61738 0.36076 0.0
H656 H 0.53732 0.59168 0.30741 0.0
H657 H 0.59697 0.5997 0.42906 0.0
H658 H 0.60133 0.66551 0.30801 0.0
H659 H 0.61235 0.68145 0.23945 0.0
H660 H 0.69989 0.66348 0.28618 0.0
H661 H 0.68933 0.64705 0.35495 0.0
C662 C 0.65194 0.69185 0.53933 0.0
C663 C 0.68079 0.68884 0.55589 0.0
C664 C 0.6406 0.68087 0.50367 0.0
C665 C 0.65783 0.66653 0.48379 0.0
C666 C 0.68696 0.66529 0.49842 0.0
C667 C 0.69837 0.67633 0.53426 0.0
C668 C 0.64494 0.65073 0.45027 0.0
C669 C 0.65151 0.65789 0.41102 0.0
C670 C 0.62516 0.62934 0.45678 0.0
C671 C 0.6184 0.61983 0.49802 0.0
C672 C 0.6398 0.61026 0.53144 0.0
C673 C 0.63339 0.60199 0.5704 0.0
C674 C 0.6056 0.60294 0.57626 0.0
C675 C 0.58415 0.61207 0.54313 0.0
C676 C 0.59046 0.62044 0.50412 0.0
C677 C 0.60473 0.58011 0.29669 0.0
C678 C 0.57522 0.57843 0.28917 0.0
C679 C 0.61869 0.59486 0.32733 0.0
C680 C 0.60344 0.60852 0.35084 0.0
C681 C 0.57399 0.60696 0.34321 0.0
C682 C 0.56005 0.59215 0.31275 0.0
C683 C 0.61802 0.62369 0.38426 0.0
C684 C 0.61187 0.61629 0.42374 0.0
C685 C 0.63809 0.64487 0.37782 0.0
C686 C 0.6445 0.65476 0.33653 0.0
C687 C 0.6229 0.66473 0.30359 0.0
C688 C 0.62907 0.6739 0.26471 0.0
C689 C 0.6568 0.6734 0.25843 0.0
C690 C 0.67842 0.66381 0.29107 0.0
C691 C 0.67236 0.65459 0.33002 0.0
H692 H 0.66153 0.68052 0.22831 0.0
H693 H 0.60068 0.59654 0.60645 0.0
H694 H 0.80924 0.15371 0.94463 0.0
H695 H 0.82838 0.13638 0.89029 0.0
H696 H 0.91095 0.16348 0.94104 0.0
H697 H 0.89173 0.1819 0.99464 0.0
H698 H 0.90191 0.1753 0.85991 0.0
H699 H 0.89228 0.09385 0.95663 0.0
H700 H 0.86781 0.06072 1.00131 0.0
H701 H 0.80897 0.04267 0.89632 0.0
H702 H 0.83285 0.07602 0.85104 0.0
H703 H 0.96876 0.10232 0.73363 0.0
H704 H 0.95615 0.11388 0.79698 0.0
H705 H 0.86981 0.09361 0.75391 0.0
H706 H 0.88239 0.0816 0.69117 0.0
H707 H 0.8847 0.07668 0.8355 0.0
H708 H 0.89236 0.16109 0.74007 0.0
H709 H 0.91689 0.19427 0.6955 0.0
H710 H 0.98001 0.20639 0.79919 0.0
H711 H 0.95603 0.17295 0.84429 0.0
C712 C 0.83138 0.15647 0.94389 0.0
C713 C 0.84893 0.16919 0.97416 0.0
C714 C 0.84239 0.14617 0.91306 0.0
C715 C 0.87125 0.1481 0.91196 0.0
C716 C 0.88867 0.16153 0.94138 0.0
C717 C 0.87766 0.17191 0.97217 0.0
C718 C 0.8832 0.13606 0.88017 0.0
C719 C 0.89853 0.15359 0.85509 0.0
C720 C 0.87856 0.10782 0.87337 0.0
C721 C 0.86422 0.08762 0.90048 0.0
C722 C 0.874 0.08297 0.94309 0.0
C723 C 0.86025 0.06413 0.96852 0.0
C724 C 0.83681 0.04965 0.95167 0.0
C725 C 0.82711 0.05393 0.90934 0.0
C726 C 0.84077 0.07278 0.88377 0.0
C727 C 0.94726 0.09964 0.73822 0.0
C728 C 0.92652 0.0913 0.70729 0.0
C729 C 0.94001 0.1065 0.77423 0.0
C730 C 0.91191 0.10514 0.77988 0.0
C731 C 0.89158 0.095 0.75021 0.0
C732 C 0.89878 0.08825 0.71428 0.0
C733 C 0.9031 0.11602 0.81505 0.0
C734 C 0.88832 0.09829 0.8407 0.0
C735 C 0.9083 0.14405 0.82246 0.0
C736 C 0.92259 0.1643 0.79544 0.0
C737 C 0.91158 0.17068 0.7533 0.0
C738 C 0.92536 0.18955 0.72795 0.0
C739 C 0.95004 0.20237 0.74448 0.0
C740 C 0.96093 0.19641 0.78642 0.0
C741 C 0.94725 0.17751 0.81188 0.0
H742 H 0.96068 0.21698 0.72481 0.0
H743 H 0.82619 0.03507 0.97141 0.0
H744 H 0.35321 0.38669 0.36484 0.0
H745 H 0.37643 0.41127 0.31058 0.0
H746 H 0.42416 0.33602 0.31182 0.0
H747 H 0.40032 0.31112 0.36512 0.0
H748 H 0.45573 0.39084 0.32047 0.0
H749 H 0.38089 0.34829 0.23567 0.0
H750 H 0.33157 0.33704 0.21029 0.0
H751 H 0.31175 0.42499 0.17413 0.0
H752 H 0.36089 0.4368 0.19996 0.0
H753 H 0.52341 0.44351 0.15334 0.0
H754 H 0.49968 0.41483 0.20319 0.0
H755 H 0.42822 0.47175 0.16896 0.0
H756 H 0.45133 0.49931 0.11752 0.0
H757 H 0.4089 0.42341 0.17715 0.0
H758 H 0.48116 0.46741 0.26591 0.0
H759 H 0.52943 0.48029 0.29507 0.0
H760 H 0.55321 0.39303 0.32573 0.0
H761 H 0.50511 0.37957 0.29709 0.0
C762 C 0.36834 0.37532 0.35303 0.0
C763 C 0.37481 0.34695 0.36892 0.0
C764 C 0.3816 0.38935 0.32213 0.0
C765 C 0.40203 0.37547 0.30718 0.0
C766 C 0.40843 0.3471 0.32286 0.0
C767 C 0.39469 0.33287 0.35307 0.0
C768 C 0.41744 0.39094 0.27636 0.0
C769 C 0.44565 0.39771 0.28895 0.0
C770 C 0.40407 0.40048 0.23561 0.0
C771 C 0.37449 0.39344 0.22027 0.0
C772 C 0.36594 0.36526 0.22279 0.0
C773 C 0.33804 0.35877 0.2082 0.0
C774 C 0.31851 0.38029 0.19075 0.0
C775 C 0.32688 0.40834 0.18775 0.0
C776 C 0.35476 0.41494 0.20234 0.0
C777 C 0.50278 0.45001 0.15693 0.0
C778 C 0.48929 0.47374 0.13185 0.0
C779 C 0.4892 0.43367 0.18558 0.0
C780 C 0.46222 0.44126 0.1908 0.0
C781 C 0.44897 0.46526 0.16586 0.0
C782 C 0.46225 0.48116 0.13656 0.0
C783 C 0.44737 0.42398 0.22122 0.0
C784 C 0.41917 0.41673 0.20862 0.0
C785 C 0.46066 0.41439 0.26224 0.0
C786 C 0.48964 0.4225 0.27899 0.0
C787 C 0.49675 0.45099 0.27861 0.0
C788 C 0.52404 0.45839 0.29508 0.0
C789 C 0.54438 0.43753 0.31191 0.0
C790 C 0.53745 0.40918 0.31258 0.0
C791 C 0.51016 0.40164 0.29638 0.0
H792 H 0.56549 0.44333 0.3246 0.0
H793 H 0.29692 0.37522 0.17943 0.0
H794 H 0.15532 0.84747 0.94087 0.0
H795 H 0.13107 0.8697 0.87308 0.0
H796 H 0.20568 0.91628 0.85542 0.0
H797 H 0.23017 0.89375 0.92285 0.0
H798 H 0.15359 0.94929 0.841 0.0
H799 H 0.19141 0.86683 0.80292 0.0
H800 H 0.19966 0.81587 0.80738 0.0
H801 H 0.11078 0.80288 0.7779 0.0
H802 H 0.10197 0.85373 0.77387 0.0
H803 H 0.10064 0.01139 0.63569 0.0
H804 H 0.13019 0.98747 0.69837 0.0
H805 H 0.06938 0.92113 0.70496 0.0
H806 H 0.04079 0.94433 0.64129 0.0
H807 H 0.1173 0.89811 0.72457 0.0
H808 H 0.07726 0.97684 0.76756 0.0
H809 H 0.0657 0.02681 0.76629 0.0
H810 H 0.15354 0.04586 0.79078 0.0
H811 H 0.16562 0.99603 0.79167 0.0
C812 C 0.16661 0.86222 0.92228 0.0
C813 C 0.19467 0.86877 0.93699 0.0
C814 C 0.15277 0.87486 0.88361 0.0
C815 C 0.1666 0.89461 0.85921 0.0
C816 C 0.19466 0.90106 0.87373 0.0
C817 C 0.20867 0.88805 0.91208 0.0
C818 C 0.1514 0.90927 0.81925 0.0
C819 C 0.14599 0.93824 0.81526 0.0
C820 C 0.14075 0.89463 0.78623 0.0
C821 C 0.14603 0.86406 0.78851 0.0
C822 C 0.17361 0.85308 0.79777 0.0
C823 C 0.17839 0.82422 0.80014 0.0
C824 C 0.15576 0.80614 0.79304 0.0
C825 C 0.1283 0.8169 0.78345 0.0
C826 C 0.1234 0.84574 0.78108 0.0
C827 C 0.0936 0.99182 0.65089 0.0
C828 C 0.06839 0.97979 0.63411 0.0
C829 C 0.11043 0.97814 0.68672 0.0
C830 C 0.10187 0.95265 0.70713 0.0
C831 C 0.07658 0.94072 0.69006 0.0
C832 C 0.06013 0.95405 0.65381 0.0
C833 C 0.11905 0.93831 0.7462 0.0
C834 C 0.1249 0.90934 0.75012 0.0
C835 C 0.12953 0.95283 0.77959 0.0
C836 C 0.12234 0.98277 0.77925 0.0
C837 C 0.0941 0.99172 0.7724 0.0
C838 C 0.08746 0.02001 0.77179 0.0
C839 C 0.10887 0.03951 0.77833 0.0
C840 C 0.13698 0.03074 0.78564 0.0
C841 C 0.14374 1.00248 0.78623 0.0
H842 H 0.10368 0.0614 0.77784 0.0
H843 H 0.1595 0.7838 0.79488 0.0
loop_
_geom_bond_atom_site_label_1
_geom_bond_atom_site_label_2
_geom_bond_distance
_geom_bond_site_symmetry_2
_ccdc_geom_bond_type
H0 C1 0.949 . S
C1 H0 0.949 . S
C1 C2 1.395 . S
C1 C3 1.391 . S
C2 C1 1.395 . S
C2 C5 1.390 . S
C3 C1 1.391 . S
C3 C7 1.387 1_554 S
C3 C8 1.491 . S
H4 C5 0.950 . S
C5 C2 1.390 . S
C5 H4 0.950 . S
C5 C6 1.378 1_554 S
C6 C5 1.378 1_556 S
C6 C7 1.409 . S
C7 C3 1.387 1_556 S
C7 C6 1.409 . S
C7 H9 0.951 . S
C8 C3 1.491 . S
C8 C10 1.382 . S
C8 C12 1.404 1_554 S
H9 C7 0.951 . S
C10 C8 1.382 . S
C10 C11 1.390 . S
C10 H15 0.949 . S
C11 C10 1.390 . S
C11 C16 1.399 . S
C12 C8 1.404 1_556 S
C12 H13 0.950 . S
C12 C14 1.375 . S
H13 C12 0.950 . S
C14 C12 1.375 . S
C14 C16 1.382 1_556 S
C14 H18 0.950 . S
H15 C10 0.949 . S
C16 C11 1.399 . S
C16 C14 1.382 1_554 S
C16 H17 0.952 . S
H17 C16 0.952 . S
H18 C14 0.950 . S
H19 C20 0.949 . S
C20 H19 0.949 . S
C20 C21 1.395 . S
C20 C22 1.391 . S
C21 C20 1.395 . S
C21 C24 1.390 . S
C22 C20 1.391 . S
C22 C26 1.387 . S
C22 C27 1.491 . S
H23 C24 0.950 . S
C24 C21 1.390 . S
C24 H23 0.950 . S
C24 C25 1.378 . S
C25 C24 1.378 . S
C25 C26 1.409 . S
C26 C22 1.387 . S
C26 C25 1.409 . S
C26 H28 0.951 . S
C27 C22 1.491 . S
C27 C29 1.382 . S
C27 C31 1.404 . S
H28 C26 0.951 . S
C29 C27 1.382 . S
C29 C30 1.390 . S
C29 H34 0.949 . S
C30 C29 1.390 . S
C30 C35 1.399 . S
C31 C27 1.404 . S
C31 H32 0.950 . S
C31 C33 1.375 . S
H32 C31 0.950 . S
C33 C31 1.375 . S
C33 C35 1.382 . S
C33 H37 0.950 . S
H34 C29 0.949 . S
C35 C30 1.399 . S
C35 C33 1.382 . S
C35 H36 0.952 . S
H36 C35 0.952 . S
H37 C33 0.950 . S
H38 C39 0.949 . S
C39 H38 0.949 . S
C39 C40 1.395 . S
C39 C41 1.391 . S
C40 C39 1.395 . S
C40 C43 1.390 . S
C41 C39 1.391 . S
C41 C45 1.387 1_554 S
C41 C46 1.491 1_554 S
H42 C43 0.950 . S
C43 C40 1.390 . S
C43 H42 0.950 . S
C43 C44 1.378 1_554 S
C44 C43 1.378 1_556 S
C44 C45 1.409 . S
C45 C41 1.387 1_556 S
C45 C44 1.409 . S
C45 H47 0.951 . S
C46 C41 1.491 1_556 S
C46 C48 1.382 1_556 S
C46 C50 1.404 . S
H47 C45 0.951 . S
C48 C46 1.382 1_554 S
C48 C49 1.390 . S
C48 H53 0.949 . S
C49 C48 1.390 . S
C49 C54 1.399 1_554 S
C50 C46 1.404 . S
C50 H51 0.950 . S
C50 C52 1.375 . S
H51 C50 0.950 . S
C52 C50 1.375 . S
C52 C54 1.382 . S
C52 H56 0.950 . S
H53 C48 0.949 . S
C54 C49 1.399 1_556 S
C54 C52 1.382 . S
C54 H55 0.952 . S
H55 C54 0.952 . S
H56 C52 0.950 . S
H57 C58 0.949 . S
C58 H57 0.949 . S
C58 C59 1.395 . S
C58 C60 1.391 . S
C59 C58 1.395 . S
C59 C62 1.390 . S
C60 C58 1.391 . S
C60 C64 1.387 . S
C60 C65 1.491 . S
H61 C62 0.950 . S
C62 C59 1.390 . S
C62 H61 0.950 . S
C62 C63 1.378 . S
C63 C62 1.378 . S
C63 C64 1.409 . S
C64 C60 1.387 . S
C64 C63 1.409 . S
C64 H66 0.951 . S
C65 C60 1.491 . S
C65 C67 1.382 . S
C65 C69 1.404 . S
H66 C64 0.951 . S
C67 C65 1.382 . S
C67 C68 1.390 . S
C67 H72 0.949 . S
C68 C67 1.390 . S
C68 C73 1.399 . S
C69 C65 1.404 . S
C69 H70 0.950 . S
C69 C71 1.375 . S
H70 C69 0.950 . S
C71 C69 1.375 . S
C71 C73 1.382 . S
C71 H75 0.950 . S
H72 C67 0.949 . S
C73 C68 1.399 . S
C73 C71 1.382 . S
C73 H74 0.952 . S
H74 C73 0.952 . S
H75 C71 0.950 . S
C76 C78 1.422 . S
C76 C80 1.415 . S
C76 N82 1.369 . S
C77 C78 1.421 . S
C77 C79 1.417 . S
C77 C89 1.422 . S
C78 C76 1.422 . S
C78 C77 1.421 . S
C78 N88 1.359 . S
C79 C77 1.417 . S
C79 C81 1.329 . S
C79 H98 0.930 . S
C80 C76 1.415 . S
C80 C81 1.437 . S
C80 C84 1.413 . S
C81 C79 1.329 . S
C81 C80 1.437 . S
C81 H103 0.929 . S
N82 C76 1.369 . S
N82 C83 1.338 1_655 S
N82 Gd87 2.622 . S
C83 N82 1.338 1_455 S
C83 C85 1.378 . S
C83 H95 0.929 . S
C84 C80 1.413 . S
C84 C85 1.348 1_655 S
C84 H100 0.931 . S
C85 C83 1.378 . S
C85 C84 1.348 1_455 S
C85 H101 0.930 . S
Gd86 N106 2.622 . S
Gd86 N113 2.570 . S
Gd86 O120 2.353 1_565 S
Gd86 O121 2.468 . S
Gd86 O122 2.427 . S
Gd86 O124 2.388 1_455 S
Gd86 O125 2.386 . S
Gd86 O129 2.307 1_565 S
Gd86 C139 2.805 . S
Gd87 N82 2.622 . S
Gd87 N88 2.570 . S
Gd87 O119 2.386 . S
Gd87 O123 2.307 1_545 S
Gd87 O126 2.353 1_655 S
Gd87 O127 2.468 . S
Gd87 O128 2.427 1_655 S
Gd87 O130 2.388 1_655 S
Gd87 C151 2.805 . S
N88 C78 1.359 . S
N88 Gd87 2.570 . S
N88 C90 1.343 . S
C89 C77 1.422 . S
C89 C91 1.321 . S
C89 H97 0.931 . S
C90 N88 1.343 . S
C90 C91 1.390 . S
C90 H92 0.931 . S
C91 C89 1.321 . S
C91 C90 1.390 . S
C91 H93 0.930 . S
H92 C90 0.931 . S
H93 C91 0.930 . S
H94 C117 0.931 . S
H95 C83 0.929 . S
H96 C118 0.930 . S
H97 C89 0.931 . S
H98 C79 0.930 . S
H99 C108 0.929 1_655 S
H100 C84 0.931 . S
H101 C85 0.930 . S
H102 C140 0.930 . S
H103 C81 0.929 . S
H104 C109 0.931 . S
H105 C110 0.930 1_655 S
N106 Gd86 2.622 . S
N106 C107 1.369 . S
N106 C108 1.338 . S
C107 N106 1.369 . S
C107 C111 1.415 . S
C107 C114 1.422 . S
C108 H99 0.929 1_455 S
C108 N106 1.338 . S
C108 C110 1.378 . S
C109 H104 0.931 . S
C109 C110 1.348 . S
C109 C111 1.413 . S
C110 H105 0.930 1_455 S
C110 C108 1.378 . S
C110 C109 1.348 . S
C111 C107 1.415 . S
C111 C109 1.413 . S
C111 C141 1.437 . S
H112 C141 0.929 . S
N113 Gd86 2.570 . S
N113 C114 1.359 . S
N113 C117 1.343 . S
C114 C107 1.422 . S
C114 N113 1.359 . S
C114 C116 1.421 . S
C115 C116 1.422 . S
C115 C118 1.321 . S
C115 H142 0.931 . S
C116 C114 1.421 . S
C116 C115 1.422 . S
C116 C140 1.417 . S
C117 H94 0.931 . S
C117 N113 1.343 . S
C117 C118 1.390 . S
C118 H96 0.930 . S
C118 C115 1.321 . S
C118 C117 1.390 . S
O119 Gd87 2.386 . S
O119 C131 1.265 . S
O120 Gd86 2.353 1_545 S
O120 C131 1.242 1_455 S
O121 Gd86 2.468 . S
O121 C139 1.263 . S
O122 Gd86 2.427 . S
O122 C139 1.252 . S
O123 Gd87 2.307 1_565 S
O123 C132 1.261 . S
O124 Gd86 2.388 1_655 S
O124 C132 1.252 . S
O125 Gd86 2.386 . S
O125 C143 1.265 . S
O126 Gd87 2.353 1_455 S
O126 C143 1.242 1_545 S
O127 Gd87 2.468 . S
O127 C151 1.263 . S
O128 Gd87 2.427 1_455 S
O128 C151 1.252 1_455 S
O129 Gd86 2.307 1_545 S
O129 C144 1.261 . S
O130 Gd87 2.388 1_455 S
O130 C144 1.252 . S
C131 O119 1.265 . S
C131 O120 1.242 1_655 S
C132 O123 1.261 . S
C132 O124 1.252 . S
C133 C136 1.394 . S
C133 C138 1.370 . S
C133 C139 1.500 . S
C134 C137 1.383 . S
C134 C138 1.395 . S
C135 C136 1.396 . S
C135 C137 1.365 . S
C135 H152 0.929 . S
C136 C133 1.394 . S
C136 C135 1.396 . S
C136 H153 0.930 . S
C137 C134 1.383 . S
C137 C135 1.365 . S
C137 H154 0.931 . S
C138 C133 1.370 . S
C138 C134 1.395 . S
C138 H155 0.930 . S
C139 Gd86 2.805 . S
C139 O121 1.263 . S
C139 O122 1.252 . S
C139 C133 1.500 . S
C140 H102 0.930 . S
C140 C116 1.417 . S
C140 C141 1.329 . S
C141 C111 1.437 . S
C141 H112 0.929 . S
C141 C140 1.329 . S
H142 C115 0.931 . S
C143 O125 1.265 . S
C143 O126 1.242 1_565 S
C144 O129 1.261 . S
C144 O130 1.252 . S
C145 C148 1.394 . S
C145 C150 1.370 . S
C145 C151 1.500 . S
C146 C149 1.383 . S
C146 C150 1.395 . S
C147 C148 1.396 . S
C147 C149 1.365 . S
C147 H156 0.929 . S
C148 C145 1.394 . S
C148 C147 1.396 . S
C148 H157 0.930 1_655 S
C149 C146 1.383 . S
C149 C147 1.365 . S
C149 H158 0.931 . S
C150 C145 1.370 . S
C150 C146 1.395 . S
C150 H159 0.930 . S
C151 Gd87 2.805 . S
C151 O127 1.263 . S
C151 O128 1.252 1_655 S
C151 C145 1.500 . S
H152 C135 0.929 . S
H153 C136 0.930 . S
H154 C137 0.931 . S
H155 C138 0.930 . S
H156 C147 0.929 . S
H157 C148 0.930 1_455 S
H158 C149 0.931 . S
H159 C150 0.930 . S
C160 C162 1.422 . S
C160 C164 1.415 . S
C160 N166 1.369 . S
C161 C162 1.421 . S
C161 C163 1.417 . S
C161 C173 1.422 . S
C162 C160 1.422 . S
C162 C161 1.421 . S
C162 N172 1.359 . S
C163 C161 1.417 . S
C163 C165 1.329 . S
C163 H182 0.930 . S
C164 C160 1.415 . S
C164 C165 1.437 . S
C164 C168 1.413 . S
C165 C163 1.329 . S
C165 C164 1.437 . S
C165 H187 0.929 . S
N166 C160 1.369 . S
N166 C167 1.338 . S
N166 Gd171 2.622 . S
C167 N166 1.338 . S
C167 C169 1.378 . S
C167 H179 0.929 . S
C168 C164 1.413 . S
C168 C169 1.348 . S
C168 H184 0.931 . S
C169 C167 1.378 . S
C169 C168 1.348 . S
C169 H185 0.930 . S
Gd170 N190 2.622 . S
Gd170 N197 2.570 1_556 S
Gd170 O204 2.353 . S
Gd170 O205 2.468 . S
Gd170 O206 2.427 . S
Gd170 O208 2.388 1_556 S
Gd170 O209 2.386 1_556 S
Gd170 O213 2.307 1_556 S
Gd170 C223 2.805 . S
Gd171 N166 2.622 . S
Gd171 N172 2.570 . S
Gd171 O203 2.386 . S
Gd171 O207 2.307 . S
Gd171 O210 2.353 . S
Gd171 O211 2.468 . S
Gd171 O212 2.427 . S
Gd171 O214 2.388 . S
Gd171 C235 2.805 . S
N172 C162 1.359 . S
N172 Gd171 2.570 . S
N172 C174 1.343 . S
C173 C161 1.422 . S
C173 C175 1.321 . S
C173 H181 0.931 . S
C174 N172 1.343 . S
C174 C175 1.390 . S
C174 H176 0.931 . S
C175 C173 1.321 . S
C175 C174 1.390 . S
C175 H177 0.930 . S
H176 C174 0.931 . S
H177 C175 0.930 . S
H178 C201 0.931 . S
H179 C167 0.929 . S
H180 C202 0.930 . S
H181 C173 0.931 . S
H182 C163 0.930 . S
H183 C192 0.929 . S
H184 C168 0.931 . S
H185 C169 0.930 . S
H186 C224 0.930 . S
H187 C165 0.929 . S
H188 C193 0.931 . S
H189 C194 0.930 . S
N190 Gd170 2.622 . S
N190 C191 1.369 1_556 S
N190 C192 1.338 . S
C191 N190 1.369 1_554 S
C191 C195 1.415 . S
C191 C198 1.422 . S
C192 H183 0.929 . S
C192 N190 1.338 . S
C192 C194 1.378 . S
C193 H188 0.931 . S
C193 C194 1.348 1_554 S
C193 C195 1.413 . S
C194 H189 0.930 . S
C194 C192 1.378 . S
C194 C193 1.348 1_556 S
C195 C191 1.415 . S
C195 C193 1.413 . S
C195 C225 1.437 . S
H196 C225 0.929 . S
N197 Gd170 2.570 1_554 S
N197 C198 1.359 . S
N197 C201 1.343 . S
C198 C191 1.422 . S
C198 N197 1.359 . S
C198 C200 1.421 . S
C199 C200 1.422 . S
C199 C202 1.321 . S
C199 H226 0.931 . S
C200 C198 1.421 . S
C200 C199 1.422 . S
C200 C224 1.417 . S
C201 H178 0.931 . S
C201 N197 1.343 . S
C201 C202 1.390 . S
C202 H180 0.930 . S
C202 C199 1.321 . S
C202 C201 1.390 . S
O203 Gd171 2.386 . S
O203 C215 1.265 1_554 S
O204 Gd170 2.353 . S
O204 C215 1.242 . S
O205 Gd170 2.468 . S
O205 C223 1.263 . S
O206 Gd170 2.427 . S
O206 C223 1.252 . S
O207 Gd171 2.307 . S
O207 C216 1.261 . S
O208 Gd170 2.388 1_554 S
O208 C216 1.252 . S
O209 Gd170 2.386 1_554 S
O209 C227 1.265 . S
O210 Gd171 2.353 . S
O210 C227 1.242 . S
O211 Gd171 2.468 . S
O211 C235 1.263 . S
O212 Gd171 2.427 . S
O212 C235 1.252 . S
O213 Gd170 2.307 1_554 S
O213 C228 1.261 . S
O214 Gd171 2.388 . S
O214 C228 1.252 . S
C215 O203 1.265 1_556 S
C215 O204 1.242 . S
C216 O207 1.261 . S
C216 O208 1.252 . S
C217 C220 1.394 . S
C217 C222 1.370 . S
C217 C223 1.500 . S
C218 C221 1.383 . S
C218 C222 1.395 . S
C219 C220 1.396 . S
C219 C221 1.365 . S
C219 H236 0.929 . S
C220 C217 1.394 . S
C220 C219 1.396 . S
C220 H237 0.930 . S
C221 C218 1.383 . S
C221 C219 1.365 . S
C221 H238 0.931 . S
C222 C217 1.370 . S
C222 C218 1.395 . S
C222 H239 0.930 . S
C223 Gd170 2.805 . S
C223 O205 1.263 . S
C223 O206 1.252 . S
C223 C217 1.500 . S
C224 H186 0.930 . S
C224 C200 1.417 . S
C224 C225 1.329 . S
C225 C195 1.437 . S
C225 H196 0.929 . S
C225 C224 1.329 . S
H226 C199 0.931 . S
C227 O209 1.265 . S
C227 O210 1.242 . S
C228 O213 1.261 . S
C228 O214 1.252 . S
C229 C232 1.394 . S
C229 C234 1.370 . S
C229 C235 1.500 . S
C230 C233 1.383 . S
C230 C234 1.395 . S
C231 C232 1.396 . S
C231 C233 1.365 . S
C231 H240 0.929 . S
C232 C229 1.394 . S
C232 C231 1.396 . S
C232 H241 0.930 . S
C233 C230 1.383 . S
C233 C231 1.365 . S
C233 H242 0.931 . S
C234 C229 1.370 . S
C234 C230 1.395 . S
C234 H243 0.930 . S
C235 Gd171 2.805 . S
C235 O211 1.263 . S
C235 O212 1.252 . S
C235 C229 1.500 . S
H236 C219 0.929 . S
H237 C220 0.930 . S
H238 C221 0.931 . S
H239 C222 0.930 . S
H240 C231 0.929 . S
H241 C232 0.930 . S
H242 C233 0.931 . S
H243 C234 0.930 . S
H244 C262 0.951 . S
H245 C264 0.951 . S
H246 C266 0.950 . S
H247 C267 0.950 . S
H248 C269 0.950 . S
H249 C272 0.950 . S
H250 C273 0.950 . S
H251 C275 0.950 . S
H252 C276 0.950 . S
H253 C277 0.951 . S
H254 C279 0.951 . S
H255 C281 0.950 . S
H256 C282 0.950 . S
H257 C284 0.950 . S
H258 C287 0.950 . S
H259 C288 0.950 . S
H260 C290 0.950 . S
H261 C291 0.950 . S
C262 H244 0.951 . S
C262 C263 1.366 . S
C262 C264 1.388 . S
C263 C262 1.366 . S
C263 C267 1.385 . S
C264 H245 0.951 . S
C264 C262 1.388 . S
C264 C265 1.366 . S
C265 C264 1.366 . S
C265 C266 1.414 . S
C265 C268 1.499 . S
C266 H246 0.950 . S
C266 C265 1.414 . S
C266 C267 1.374 . S
C267 H247 0.950 . S
C267 C263 1.385 . S
C267 C266 1.374 . S
C268 C265 1.499 . S
C268 C269 1.373 . S
C268 C270 1.389 . S
C269 H248 0.950 . S
C269 C268 1.373 . S
C269 C285 1.377 . S
C270 C268 1.389 . S
C270 C271 1.524 . S
C270 C284 1.377 . S
C271 C270 1.524 . S
C271 C272 1.397 . S
C271 C276 1.363 . S
C272 H249 0.950 . S
C272 C271 1.397 . S
C272 C273 1.334 . S
C273 H250 0.950 . S
C273 C272 1.334 . S
C273 C274 1.287 . S
C274 C273 1.287 . S
C274 C275 1.524 . S
C274 H293 0.913 . S
C275 H251 0.950 . S
C275 C274 1.524 . S
C275 C276 1.415 . S
C276 H252 0.950 . S
C276 C271 1.363 . S
C276 C275 1.415 . S
C277 H253 0.951 . S
C277 C278 1.366 . S
C277 C279 1.388 . S
C278 C277 1.366 . S
C278 C282 1.385 . S
C279 H254 0.951 . S
C279 C277 1.388 . S
C279 C280 1.366 . S
C280 C279 1.366 . S
C280 C281 1.414 . S
C280 C283 1.499 . S
C281 H255 0.950 . S
C281 C280 1.414 . S
C281 C282 1.374 . S
C282 H256 0.950 . S
C282 C278 1.385 . S
C282 C281 1.374 . S
C283 C280 1.499 . S
C283 C284 1.373 . S
C283 C285 1.389 . S
C284 H257 0.950 . S
C284 C270 1.377 . S
C284 C283 1.373 . S
C285 C269 1.377 . S
C285 C283 1.389 . S
C285 C286 1.524 . S
C286 C285 1.524 . S
C286 C287 1.397 . S
C286 C291 1.363 . S
C287 H258 0.950 . S
C287 C286 1.397 . S
C287 C288 1.334 . S
C288 H259 0.950 . S
C288 C287 1.334 . S
C288 C289 1.287 . S
C289 C288 1.287 . S
C289 C290 1.524 . S
C289 H292 0.999 . S
C290 H260 0.950 . S
C290 C289 1.524 . S
C290 C291 1.415 . S
C291 H261 0.950 . S
C291 C286 1.363 . S
C291 C290 1.415 . S
H292 C289 0.999 . S
H293 C274 0.913 . S
H294 C312 0.951 . S
H295 C314 0.951 . S
H296 C316 0.950 . S
H297 C317 0.950 . S
H298 C319 0.950 . S
H299 C322 0.950 . S
H300 C323 0.950 . S
H301 C325 0.950 . S
H302 C326 0.950 . S
H303 C327 0.951 . S
H304 C329 0.951 . S
H305 C331 0.950 . S
H306 C332 0.950 . S
H307 C334 0.950 . S
H308 C337 0.950 . S
H309 C338 0.950 . S
H310 C340 0.950 . S
H311 C341 0.950 . S
C312 H294 0.951 . S
C312 C313 1.366 . S
C312 C314 1.388 . S
C313 C312 1.366 . S
C313 C317 1.385 . S
C314 H295 0.951 . S
C314 C312 1.388 . S
C314 C315 1.366 . S
C315 C314 1.366 . S
C315 C316 1.414 . S
C315 C318 1.499 . S
C316 H296 0.950 . S
C316 C315 1.414 . S
C316 C317 1.374 . S
C317 H297 0.950 . S
C317 C313 1.385 . S
C317 C316 1.374 . S
C318 C315 1.499 . S
C318 C319 1.373 . S
C318 C320 1.389 . S
C319 H298 0.950 . S
C319 C318 1.373 . S
C319 C335 1.377 . S
C320 C318 1.389 . S
C320 C321 1.524 . S
C320 C334 1.377 . S
C321 C320 1.524 . S
C321 C322 1.397 . S
C321 C326 1.363 . S
C322 H299 0.950 . S
C322 C321 1.397 . S
C322 C323 1.334 . S
C323 H300 0.950 . S
C323 C322 1.334 . S
C323 C324 1.287 . S
C324 C323 1.287 . S
C324 C325 1.524 . S
C324 H343 0.913 . S
C325 H301 0.950 . S
C325 C324 1.524 . S
C325 C326 1.415 . S
C326 H302 0.950 . S
C326 C321 1.363 . S
C326 C325 1.415 . S
C327 H303 0.951 . S
C327 C328 1.366 . S
C327 C329 1.388 . S
C328 C327 1.366 . S
C328 C332 1.385 . S
C329 H304 0.951 . S
C329 C327 1.388 . S
C329 C330 1.366 . S
C330 C329 1.366 . S
C330 C331 1.414 . S
C330 C333 1.499 . S
C331 H305 0.950 . S
C331 C330 1.414 . S
C331 C332 1.374 . S
C332 H306 0.950 . S
C332 C328 1.385 . S
C332 C331 1.374 . S
C333 C330 1.499 . S
C333 C334 1.373 . S
C333 C335 1.389 . S
C334 H307 0.950 . S
C334 C320 1.377 . S
C334 C333 1.373 . S
C335 C319 1.377 . S
C335 C333 1.389 . S
C335 C336 1.530 . S
C336 C335 1.530 . S
C336 C337 1.390 1_554 S
C336 C341 1.364 . S
C337 H308 0.950 . S
C337 C336 1.390 1_556 S
C337 C338 1.334 . S
C338 H309 0.950 . S
C338 C337 1.334 . S
C338 C339 1.287 . S
C339 C338 1.287 . S
C339 C340 1.524 . S
C339 H342 0.999 . S
C340 H310 0.950 . S
C340 C339 1.524 . S
C340 C341 1.415 1_556 S
C341 H311 0.950 . S
C341 C336 1.364 . S
C341 C340 1.415 1_554 S
H342 C339 0.999 . S
H343 C324 0.913 . S
H344 C362 0.951 . S
H345 C364 0.951 . S
H346 C366 0.950 . S
H347 C367 0.950 . S
H348 C369 0.950 . S
H349 C372 0.950 . S
H350 C373 0.950 . S
H351 C375 0.950 . S
H352 C376 0.950 . S
H353 C377 0.951 . S
H354 C379 0.951 . S
H355 C381 0.950 . S
H356 C382 0.950 . S
H357 C384 0.950 . S
H358 C387 0.950 . S
H359 C388 0.964 . S
H360 C390 0.950 . S
H361 C391 0.950 . S
C362 H344 0.951 . S
C362 C363 1.366 . S
C362 C364 1.388 . S
C363 C362 1.366 . S
C363 C367 1.385 . S
C364 H345 0.951 . S
C364 C362 1.388 . S
C364 C365 1.366 . S
C365 C364 1.366 . S
C365 C366 1.414 . S
C365 C368 1.499 . S
C366 H346 0.950 . S
C366 C365 1.414 . S
C366 C367 1.374 . S
C367 H347 0.950 . S
C367 C363 1.385 . S
C367 C366 1.374 . S
C368 C365 1.499 . S
C368 C369 1.373 . S
C368 C370 1.389 . S
C369 H348 0.950 . S
C369 C368 1.373 . S
C369 C385 1.377 . S
C370 C368 1.389 . S
C370 C371 1.524 . S
C370 C384 1.377 . S
C371 C370 1.524 . S
C371 C372 1.397 . S
C371 C376 1.363 . S
C372 H349 0.950 . S
C372 C371 1.397 . S
C372 C373 1.334 . S
C373 H350 0.950 . S
C373 C372 1.334 . S
C373 C374 1.287 . S
C374 C373 1.287 . S
C374 C375 1.524 . S
C374 H393 0.913 . S
C375 H351 0.950 . S
C375 C374 1.524 . S
C375 C376 1.415 . S
C376 H352 0.950 . S
C376 C371 1.363 . S
C376 C375 1.415 . S
C377 H353 0.951 . S
C377 C378 1.366 . S
C377 C379 1.388 . S
C378 C377 1.366 . S
C378 C382 1.385 . S
C379 H354 0.951 . S
C379 C377 1.388 . S
C379 C380 1.366 . S
C380 C379 1.366 . S
C380 C381 1.414 . S
C380 C383 1.499 . S
C381 H355 0.950 . S
C381 C380 1.414 . S
C381 C382 1.374 . S
C382 H356 0.950 . S
C382 C378 1.385 . S
C382 C381 1.374 . S
C383 C380 1.499 . S
C383 C384 1.373 . S
C383 C385 1.389 . S
C384 H357 0.950 . S
C384 C370 1.377 . S
C384 C383 1.373 . S
C385 C369 1.377 . S
C385 C383 1.389 . S
C385 C386 1.524 . S
C386 C385 1.524 . S
C386 C387 1.397 . S
C386 C391 1.363 . S
C387 H358 0.950 . S
C387 C386 1.397 . S
C387 C388 1.334 . S
C388 H359 0.964 . S
C388 C387 1.334 . S
C388 C389 1.287 . S
C389 C388 1.287 . S
C389 C390 1.524 . S
C389 H392 0.999 1_565 S
C390 H360 0.950 . S
C390 C389 1.524 . S
C390 C391 1.415 . S
C391 H361 0.950 . S
C391 C386 1.363 . S
C391 C390 1.415 . S
H392 C389 0.999 1_545 S
H393 C374 0.913 . S
H394 C412 0.951 . S
H395 C414 0.951 . S
H396 C416 0.950 1_556 S
H397 C417 0.950 1_556 S
H398 C419 0.950 . S
H399 C422 0.950 . S
H400 C423 0.950 . S
H401 C425 0.950 . S
H402 C426 0.950 1_554 S
H403 C427 0.951 . S
H404 C429 0.951 . S
H405 C431 0.950 . S
H406 C432 0.950 . S
H407 C434 0.951 . S
H408 C437 0.950 . S
H409 C438 0.950 . S
H410 C440 0.950 . S
H411 C441 0.950 . S
C412 H394 0.951 . S
C412 C413 1.366 . S
C412 C414 1.388 . S
C413 C412 1.366 . S
C413 C417 1.385 . S
C414 H395 0.951 . S
C414 C412 1.388 . S
C414 C415 1.366 . S
C415 C414 1.366 . S
C415 C416 1.414 . S
C415 C418 1.499 . S
C416 H396 0.950 1_554 S
C416 C415 1.414 . S
C416 C417 1.374 . S
C417 H397 0.950 1_554 S
C417 C413 1.385 . S
C417 C416 1.374 . S
C418 C415 1.499 . S
C418 C419 1.373 . S
C418 C420 1.389 . S
C419 H398 0.950 . S
C419 C418 1.373 . S
C419 C435 1.377 . S
C420 C418 1.389 . S
C420 C421 1.524 1_554 S
C420 C434 1.377 . S
C421 C420 1.524 1_556 S
C421 C422 1.397 . S
C421 C426 1.363 . S
C422 H399 0.950 . S
C422 C421 1.397 . S
C422 C423 1.334 . S
C423 H400 0.950 . S
C423 C422 1.334 . S
C423 C424 1.287 . S
C424 C423 1.287 . S
C424 C425 1.524 . S
C424 H443 0.913 . S
C425 H401 0.950 . S
C425 C424 1.524 . S
C425 C426 1.415 . S
C426 H402 0.950 1_556 S
C426 C421 1.363 . S
C426 C425 1.415 . S
C427 H403 0.951 . S
C427 C428 1.366 . S
C427 C429 1.388 . S
C428 C427 1.366 . S
C428 C432 1.385 . S
C429 H404 0.951 . S
C429 C427 1.388 . S
C429 C430 1.366 . S
C430 C429 1.366 . S
C430 C431 1.414 . S
C430 C433 1.499 . S
C431 H405 0.950 . S
C431 C430 1.414 . S
C431 C432 1.374 . S
C432 H406 0.950 . S
C432 C428 1.385 . S
C432 C431 1.374 . S
C433 C430 1.499 . S
C433 C434 1.373 . S
C433 C435 1.389 . S
C434 H407 0.951 . S
C434 C420 1.377 . S
C434 C433 1.373 . S
C435 C419 1.377 . S
C435 C433 1.389 . S
C435 C436 1.524 . S
C436 C435 1.524 . S
C436 C437 1.397 . S
C436 C441 1.363 . S
C437 H408 0.950 . S
C437 C436 1.397 . S
C437 C438 1.334 . S
C438 H409 0.950 . S
C438 C437 1.334 . S
C438 C439 1.287 . S
C439 C438 1.287 . S
C439 C440 1.524 . S
C439 H442 0.999 . S
C440 H410 0.950 . S
C440 C439 1.524 . S
C440 C441 1.415 . S
C441 H411 0.950 . S
C441 C436 1.363 . S
C441 C440 1.415 . S
H442 C439 0.999 . S
H443 C424 0.913 . S
H444 C462 0.951 . S
H445 C464 0.951 . S
H446 C466 0.950 . S
H447 C467 0.950 . S
H448 C469 0.950 . S
H449 C472 0.950 . S
H450 C473 0.950 . S
H451 C475 0.950 . S
H452 C476 0.950 . S
H453 C477 0.951 . S
H454 C479 0.951 . S
H455 C481 0.950 . S
H456 C482 0.950 . S
H457 C484 0.950 . S
H458 C487 0.950 . S
H459 C488 0.950 . S
H460 C490 0.950 . S
H461 C491 0.950 . S
C462 H444 0.951 . S
C462 C463 1.366 . S
C462 C464 1.388 . S
C463 C462 1.366 . S
C463 C467 1.385 . S
C464 H445 0.951 . S
C464 C462 1.388 . S
C464 C465 1.366 . S
C465 C464 1.366 . S
C465 C466 1.414 . S
C465 C468 1.499 . S
C466 H446 0.950 . S
C466 C465 1.414 . S
C466 C467 1.374 . S
C467 H447 0.950 . S
C467 C463 1.385 . S
C467 C466 1.374 . S
C468 C465 1.499 . S
C468 C469 1.373 . S
C468 C470 1.389 . S
C469 H448 0.950 . S
C469 C468 1.373 . S
C469 C485 1.377 . S
C470 C468 1.389 . S
C470 C471 1.524 . S
C470 C484 1.377 . S
C471 C470 1.524 . S
C471 C472 1.397 . S
C471 C476 1.363 . S
C472 H449 0.950 . S
C472 C471 1.397 . S
C472 C473 1.334 . S
C473 H450 0.950 . S
C473 C472 1.334 . S
C473 C474 1.287 . S
C474 C473 1.287 . S
C474 C475 1.524 . S
C474 H493 0.913 1_565 S
C475 H451 0.950 . S
C475 C474 1.524 . S
C475 C476 1.415 . S
C476 H452 0.950 . S
C476 C471 1.363 . S
C476 C475 1.415 . S
C477 H453 0.951 . S
C477 C478 1.366 . S
C477 C479 1.388 . S
C478 C477 1.366 . S
C478 C482 1.385 . S
C479 H454 0.951 . S
C479 C477 1.388 . S
C479 C480 1.366 . S
C480 C479 1.366 . S
C480 C481 1.414 . S
C480 C483 1.499 . S
C481 H455 0.950 . S
C481 C480 1.414 . S
C481 C482 1.374 . S
C482 H456 0.950 . S
C482 C478 1.385 . S
C482 C481 1.374 . S
C483 C480 1.499 . S
C483 C484 1.373 . S
C483 C485 1.389 . S
C484 H457 0.950 . S
C484 C470 1.377 . S
C484 C483 1.373 . S
C485 C469 1.377 . S
C485 C483 1.389 . S
C485 C486 1.524 . S
C486 C485 1.524 . S
C486 C487 1.397 . S
C486 C491 1.363 . S
C487 H458 0.950 . S
C487 C486 1.397 . S
C487 C488 1.334 . S
C488 H459 0.950 . S
C488 C487 1.334 . S
C488 C489 1.287 . S
C489 C488 1.287 . S
C489 C490 1.524 . S
C489 H492 0.999 . S
C490 H460 0.950 . S
C490 C489 1.524 . S
C490 C491 1.415 . S
C491 H461 0.950 . S
C491 C486 1.363 . S
C491 C490 1.415 . S
H492 C489 0.999 . S
H493 C474 0.913 1_545 S
H494 C512 0.951 . S
H495 C514 0.951 . S
H496 C516 0.950 . S
H497 C517 0.950 . S
H498 C519 0.950 . S
H499 C522 0.950 . S
H500 C523 0.950 . S
H501 C525 0.950 . S
H502 C526 0.950 . S
H503 C527 0.951 . S
H504 C529 0.951 . S
H505 C531 0.950 . S
H506 C532 0.950 . S
H507 C534 0.950 . S
H508 C537 0.950 . S
H509 C538 0.950 . S
H510 C540 0.950 . S
H511 C541 0.950 . S
C512 H494 0.951 . S
C512 C513 1.366 . S
C512 C514 1.388 . S
C513 C512 1.366 . S
C513 C517 1.385 . S
C514 H495 0.951 . S
C514 C512 1.388 . S
C514 C515 1.366 . S
C515 C514 1.366 . S
C515 C516 1.414 . S
C515 C518 1.499 . S
C516 H496 0.950 . S
C516 C515 1.414 . S
C516 C517 1.374 . S
C517 H497 0.950 . S
C517 C513 1.385 . S
C517 C516 1.374 . S
C518 C515 1.499 . S
C518 C519 1.373 . S
C518 C520 1.389 . S
C519 H498 0.950 . S
C519 C518 1.373 . S
C519 C535 1.377 . S
C520 C518 1.389 . S
C520 C521 1.524 . S
C520 C534 1.377 . S
C521 C520 1.524 . S
C521 C522 1.397 . S
C521 C526 1.363 . S
C522 H499 0.950 . S
C522 C521 1.397 . S
C522 C523 1.334 . S
C523 H500 0.950 . S
C523 C522 1.334 . S
C523 C524 1.287 . S
C524 C523 1.287 . S
C524 C525 1.524 . S
C524 H543 0.913 . S
C525 H501 0.950 . S
C525 C524 1.524 . S
C525 C526 1.415 . S
C526 H502 0.950 . S
C526 C521 1.363 . S
C526 C525 1.415 . S
C527 H503 0.951 . S
C527 C528 1.366 . S
C527 C529 1.388 . S
C528 C527 1.366 . S
C528 C532 1.385 . S
C529 H504 0.951 . S
C529 C527 1.388 . S
C529 C530 1.366 . S
C530 C529 1.366 . S
C530 C531 1.414 . S
C530 C533 1.499 . S
C531 H505 0.950 . S
C531 C530 1.414 . S
C531 C532 1.374 . S
C532 H506 0.950 . S
C532 C528 1.385 . S
C532 C531 1.374 . S
C533 C530 1.499 . S
C533 C534 1.373 . S
C533 C535 1.389 . S
C534 H507 0.950 . S
C534 C520 1.377 . S
C534 C533 1.373 . S
C535 C519 1.377 . S
C535 C533 1.389 . S
C535 C536 1.524 . S
C536 C535 1.524 . S
C536 C537 1.397 . S
C536 C541 1.363 . S
C537 H508 0.950 . S
C537 C536 1.397 . S
C537 C538 1.334 . S
C538 H509 0.950 . S
C538 C537 1.334 . S
C538 C539 1.287 . S
C539 C538 1.287 . S
C539 C540 1.524 . S
C539 H542 0.999 . S
C540 H510 0.950 . S
C540 C539 1.524 . S
C540 C541 1.415 . S
C541 H511 0.950 . S
C541 C536 1.363 . S
C541 C540 1.415 . S
H542 C539 0.999 . S
H543 C524 0.913 . S
H544 C562 0.951 . S
H545 C564 0.951 . S
H546 C566 0.950 . S
H547 C567 0.950 . S
H548 C569 0.950 . S
H549 C572 0.950 . S
H550 C573 0.950 . S
H551 C575 0.950 . S
H552 C576 0.950 . S
H553 C577 0.951 . S
H554 C579 0.951 . S
H555 C581 0.950 . S
H556 C582 0.950 . S
H557 C584 0.950 . S
H558 C587 0.950 . S
H559 C588 0.950 . S
H560 C590 0.950 . S
H561 C591 0.950 . S
C562 H544 0.951 . S
C562 C563 1.366 . S
C562 C564 1.388 . S
C563 C562 1.366 . S
C563 C567 1.385 . S
C564 H545 0.951 . S
C564 C562 1.388 . S
C564 C565 1.366 . S
C565 C564 1.366 . S
C565 C566 1.414 . S
C565 C568 1.499 . S
C566 H546 0.950 . S
C566 C565 1.414 . S
C566 C567 1.374 . S
C567 H547 0.950 . S
C567 C563 1.385 . S
C567 C566 1.374 . S
C568 C565 1.499 . S
C568 C569 1.373 . S
C568 C570 1.389 . S
C569 H548 0.950 . S
C569 C568 1.373 . S
C569 C585 1.377 . S
C570 C568 1.389 . S
C570 C571 1.524 . S
C570 C584 1.377 . S
C571 C570 1.524 . S
C571 C572 1.397 . S
C571 C576 1.363 . S
C572 H549 0.950 . S
C572 C571 1.397 . S
C572 C573 1.334 . S
C573 H550 0.950 . S
C573 C572 1.334 . S
C573 C574 1.287 . S
C574 C573 1.287 . S
C574 C575 1.524 . S
C574 H593 0.913 . S
C575 H551 0.950 . S
C575 C574 1.524 . S
C575 C576 1.415 . S
C576 H552 0.950 . S
C576 C571 1.363 . S
C576 C575 1.415 . S
C577 H553 0.951 . S
C577 C578 1.366 . S
C577 C579 1.388 . S
C578 C577 1.366 . S
C578 C582 1.385 . S
C579 H554 0.951 . S
C579 C577 1.388 . S
C579 C580 1.366 . S
C580 C579 1.366 . S
C580 C581 1.414 . S
C580 C583 1.499 . S
C581 H555 0.950 . S
C581 C580 1.414 . S
C581 C582 1.374 . S
C582 H556 0.950 . S
C582 C578 1.385 . S
C582 C581 1.374 . S
C583 C580 1.499 . S
C583 C584 1.373 . S
C583 C585 1.389 . S
C584 H557 0.950 . S
C584 C570 1.377 . S
C584 C583 1.373 . S
C585 C569 1.377 . S
C585 C583 1.389 . S
C585 C586 1.524 . S
C586 C585 1.524 . S
C586 C587 1.397 . S
C586 C591 1.363 . S
C587 H558 0.950 . S
C587 C586 1.397 . S
C587 C588 1.334 1_545 S
C588 H559 0.950 . S
C588 C587 1.334 1_565 S
C588 C589 1.287 . S
C589 C588 1.287 . S
C589 C590 1.524 . S
C589 H592 0.999 . S
C590 H560 0.950 . S
C590 C589 1.524 . S
C590 C591 1.415 1_565 S
C591 H561 0.950 . S
C591 C586 1.363 . S
C591 C590 1.415 1_545 S
H592 C589 0.999 . S
H593 C574 0.913 . S
H594 C612 0.951 . S
H595 C614 0.951 . S
H596 C616 0.950 . S
H597 C617 0.950 . S
H598 C619 0.950 . S
H599 C622 0.950 . S
H600 C623 0.950 . S
H601 C625 0.950 . S
H602 C626 0.950 . S
H603 C627 0.951 . S
H604 C629 0.951 . S
H605 C631 0.950 . S
H606 C632 0.950 . S
H607 C634 0.950 . S
H608 C637 0.950 . S
H609 C638 0.950 . S
H610 C640 0.950 . S
H611 C641 0.950 . S
C612 H594 0.951 . S
C612 C613 1.366 . S
C612 C614 1.388 . S
C613 C612 1.366 . S
C613 C617 1.385 . S
C614 H595 0.951 . S
C614 C612 1.388 . S
C614 C615 1.366 . S
C615 C614 1.366 . S
C615 C616 1.414 . S
C615 C618 1.499 . S
C616 H596 0.950 . S
C616 C615 1.414 . S
C616 C617 1.374 . S
C617 H597 0.950 . S
C617 C613 1.385 . S
C617 C616 1.374 . S
C618 C615 1.499 . S
C618 C619 1.373 . S
C618 C620 1.389 . S
C619 H598 0.950 . S
C619 C618 1.373 . S
C619 C635 1.377 . S
C620 C618 1.389 . S
C620 C621 1.524 . S
C620 C634 1.377 . S
C621 C620 1.524 . S
C621 C622 1.397 . S
C621 C626 1.363 . S
C622 H599 0.950 . S
C622 C621 1.397 . S
C622 C623 1.334 . S
C623 H600 0.950 . S
C623 C622 1.334 . S
C623 C624 1.287 . S
C624 C623 1.287 . S
C624 C625 1.524 . S
C624 H643 0.913 . S
C625 H601 0.950 . S
C625 C624 1.524 . S
C625 C626 1.415 . S
C626 H602 0.950 . S
C626 C621 1.363 . S
C626 C625 1.415 . S
C627 H603 0.951 . S
C627 C628 1.366 . S
C627 C629 1.388 . S
C628 C627 1.366 . S
C628 C632 1.385 . S
C629 H604 0.951 . S
C629 C627 1.388 . S
C629 C630 1.366 . S
C630 C629 1.366 . S
C630 C631 1.414 . S
C630 C633 1.499 . S
C631 H605 0.950 . S
C631 C630 1.414 . S
C631 C632 1.374 . S
C632 H606 0.950 . S
C632 C628 1.385 . S
C632 C631 1.374 . S
C633 C630 1.499 . S
C633 C634 1.373 . S
C633 C635 1.389 . S
C634 H607 0.950 . S
C634 C620 1.377 . S
C634 C633 1.373 . S
C635 C619 1.377 . S
C635 C633 1.389 . S
C635 C636 1.524 . S
C636 C635 1.524 . S
C636 C637 1.397 . S
C636 C641 1.363 . S
C637 H608 0.950 . S
C637 C636 1.397 . S
C637 C638 1.334 . S
C638 H609 0.950 . S
C638 C637 1.334 . S
C638 C639 1.287 . S
C639 C638 1.287 . S
C639 C640 1.524 . S
C639 H642 0.999 . S
C640 H610 0.950 . S
C640 C639 1.524 . S
C640 C641 1.415 . S
C641 H611 0.950 . S
C641 C636 1.363 . S
C641 C640 1.415 . S
H642 C639 0.999 . S
H643 C624 0.913 . S
H644 C662 0.951 . S
H645 C664 0.951 . S
H646 C666 0.950 . S
H647 C667 0.950 . S
H648 C669 0.950 . S
H649 C672 0.950 . S
H650 C673 0.950 . S
H651 C675 0.950 . S
H652 C676 0.950 . S
H653 C677 0.951 . S
H654 C679 0.951 . S
H655 C681 0.950 . S
H656 C682 0.950 . S
H657 C684 0.950 . S
H658 C687 0.950 . S
H659 C688 0.950 . S
H660 C690 0.950 . S
H661 C691 0.950 . S
C662 H644 0.951 . S
C662 C663 1.366 . S
C662 C664 1.388 . S
C663 C662 1.366 . S
C663 C667 1.385 . S
C664 H645 0.951 . S
C664 C662 1.388 . S
C664 C665 1.366 . S
C665 C664 1.366 . S
C665 C666 1.414 . S
C665 C668 1.499 . S
C666 H646 0.950 . S
C666 C665 1.414 . S
C666 C667 1.374 . S
C667 H647 0.950 . S
C667 C663 1.385 . S
C667 C666 1.374 . S
C668 C665 1.499 . S
C668 C669 1.373 . S
C668 C670 1.389 . S
C669 H648 0.950 . S
C669 C668 1.373 . S
C669 C685 1.377 . S
C670 C668 1.389 . S
C670 C671 1.524 . S
C670 C684 1.377 . S
C671 C670 1.524 . S
C671 C672 1.397 . S
C671 C676 1.363 . S
C672 H649 0.950 . S
C672 C671 1.397 . S
C672 C673 1.334 . S
C673 H650 0.950 . S
C673 C672 1.334 . S
C673 C674 1.287 . S
C674 C673 1.287 . S
C674 C675 1.524 . S
C674 H693 0.913 . S
C675 H651 0.950 . S
C675 C674 1.524 . S
C675 C676 1.415 . S
C676 H652 0.950 . S
C676 C671 1.363 . S
C676 C675 1.415 . S
C677 H653 0.951 . S
C677 C678 1.366 . S
C677 C679 1.388 . S
C678 C677 1.366 . S
C678 C682 1.385 . S
C679 H654 0.951 . S
C679 C677 1.388 . S
C679 C680 1.366 . S
C680 C679 1.366 . S
C680 C681 1.414 . S
C680 C683 1.499 . S
C681 H655 0.950 . S
C681 C680 1.414 . S
C681 C682 1.374 . S
C682 H656 0.950 . S
C682 C678 1.385 . S
C682 C681 1.374 . S
C683 C680 1.499 . S
C683 C684 1.373 . S
C683 C685 1.389 . S
C684 H657 0.950 . S
C684 C670 1.377 . S
C684 C683 1.373 . S
C685 C669 1.377 . S
C685 C683 1.389 . S
C685 C686 1.524 . S
C686 C685 1.524 . S
C686 C687 1.397 . S
C686 C691 1.363 . S
C687 H658 0.950 . S
C687 C686 1.397 . S
C687 C688 1.334 . S
C688 H659 0.950 . S
C688 C687 1.334 . S
C688 C689 1.287 . S
C689 C688 1.287 . S
C689 C690 1.524 . S
C689 H692 0.999 . S
C690 H660 0.950 . S
C690 C689 1.524 . S
C690 C691 1.415 . S
C691 H661 0.950 . S
C691 C686 1.363 . S
C691 C690 1.415 . S
H692 C689 0.999 . S
H693 C674 0.913 . S
H694 C712 0.951 . S
H695 C714 0.951 . S
H696 C716 0.950 . S
H697 C717 0.950 . S
H698 C719 0.950 . S
H699 C722 0.950 . S
H700 C723 0.950 . S
H701 C725 0.950 1_565 S
H702 C726 0.950 . S
H703 C727 0.951 . S
H704 C729 0.951 . S
H705 C731 0.950 . S
H706 C732 0.950 . S
H707 C734 0.950 . S
H708 C737 0.950 . S
H709 C738 0.950 . S
H710 C740 0.950 . S
H711 C741 0.950 . S
C712 H694 0.951 . S
C712 C713 1.366 . S
C712 C714 1.388 . S
C713 C712 1.366 . S
C713 C717 1.385 . S
C714 H695 0.951 . S
C714 C712 1.388 . S
C714 C715 1.366 . S
C715 C714 1.366 . S
C715 C716 1.414 . S
C715 C718 1.499 . S
C716 H696 0.950 . S
C716 C715 1.414 . S
C716 C717 1.374 . S
C717 H697 0.950 . S
C717 C713 1.385 . S
C717 C716 1.374 . S
C718 C715 1.499 . S
C718 C719 1.373 . S
C718 C720 1.389 . S
C719 H698 0.950 . S
C719 C718 1.373 . S
C719 C735 1.377 . S
C720 C718 1.389 . S
C720 C721 1.524 . S
C720 C734 1.377 . S
C721 C720 1.524 . S
C721 C722 1.397 . S
C721 C726 1.363 . S
C722 H699 0.950 . S
C722 C721 1.397 . S
C722 C723 1.334 . S
C723 H700 0.950 . S
C723 C722 1.334 . S
C723 C724 1.287 . S
C724 C723 1.287 . S
C724 C725 1.524 . S
C724 H743 0.913 1_545 S
C725 H701 0.950 1_545 S
C725 C724 1.524 . S
C725 C726 1.415 . S
C726 H702 0.950 . S
C726 C721 1.363 . S
C726 C725 1.415 . S
C727 H703 0.951 . S
C727 C728 1.366 . S
C727 C729 1.388 . S
C728 C727 1.366 . S
C728 C732 1.385 . S
C729 H704 0.951 . S
C729 C727 1.388 . S
C729 C730 1.366 . S
C730 C729 1.366 . S
C730 C731 1.414 . S
C730 C733 1.499 . S
C731 H705 0.950 . S
C731 C730 1.414 . S
C731 C732 1.374 . S
C732 H706 0.950 . S
C732 C728 1.385 . S
C732 C731 1.374 . S
C733 C730 1.499 . S
C733 C734 1.373 . S
C733 C735 1.389 . S
C734 H707 0.950 . S
C734 C720 1.377 . S
C734 C733 1.373 . S
C735 C719 1.377 . S
C735 C733 1.389 . S
C735 C736 1.524 . S
C736 C735 1.524 . S
C736 C737 1.397 . S
C736 C741 1.363 . S
C737 H708 0.950 . S
C737 C736 1.397 . S
C737 C738 1.334 . S
C738 H709 0.950 . S
C738 C737 1.334 . S
C738 C739 1.287 . S
C739 C738 1.287 . S
C739 C740 1.524 . S
C739 H742 0.999 . S
C740 H710 0.950 . S
C740 C739 1.524 . S
C740 C741 1.415 . S
C741 H711 0.950 . S
C741 C736 1.363 . S
C741 C740 1.415 . S
H742 C739 0.999 . S
H743 C724 0.913 1_565 S
H744 C762 0.951 . S
H745 C764 0.951 . S
H746 C766 0.950 . S
H747 C767 0.950 . S
H748 C769 0.950 . S
H749 C772 0.950 . S
H750 C773 0.950 . S
H751 C775 0.950 . S
H752 C776 0.950 . S
H753 C777 0.951 . S
H754 C779 0.951 . S
H755 C781 0.950 . S
H756 C782 0.950 . S
H757 C784 0.950 . S
H758 C787 0.950 . S
H759 C788 0.950 . S
H760 C790 0.950 . S
H761 C791 0.950 . S
C762 H744 0.951 . S
C762 C763 1.366 . S
C762 C764 1.388 . S
C763 C762 1.366 . S
C763 C767 1.385 . S
C764 H745 0.951 . S
C764 C762 1.388 . S
C764 C765 1.366 . S
C765 C764 1.366 . S
C765 C766 1.414 . S
C765 C768 1.499 . S
C766 H746 0.950 . S
C766 C765 1.414 . S
C766 C767 1.374 . S
C767 H747 0.950 . S
C767 C763 1.385 . S
C767 C766 1.374 . S
C768 C765 1.499 . S
C768 C769 1.373 . S
C768 C770 1.389 . S
C769 H748 0.950 . S
C769 C768 1.373 . S
C769 C785 1.377 . S
C770 C768 1.389 . S
C770 C771 1.524 . S
C770 C784 1.377 . S
C771 C770 1.524 . S
C771 C772 1.397 . S
C771 C776 1.363 . S
C772 H749 0.950 . S
C772 C771 1.397 . S
C772 C773 1.334 . S
C773 H750 0.950 . S
C773 C772 1.334 . S
C773 C774 1.287 . S
C774 C773 1.287 . S
C774 C775 1.524 . S
C774 H793 0.913 . S
C775 H751 0.950 . S
C775 C774 1.524 . S
C775 C776 1.415 . S
C776 H752 0.950 . S
C776 C771 1.363 . S
C776 C775 1.415 . S
C777 H753 0.951 . S
C777 C778 1.366 . S
C777 C779 1.388 . S
C778 C777 1.366 . S
C778 C782 1.385 . S
C779 H754 0.951 . S
C779 C777 1.388 . S
C779 C780 1.366 . S
C780 C779 1.366 . S
C780 C781 1.414 . S
C780 C783 1.499 . S
C781 H755 0.950 . S
C781 C780 1.414 . S
C781 C782 1.374 . S
C782 H756 0.950 . S
C782 C778 1.385 . S
C782 C781 1.374 . S
C783 C780 1.499 . S
C783 C784 1.373 . S
C783 C785 1.389 . S
C784 H757 0.950 . S
C784 C770 1.377 . S
C784 C783 1.373 . S
C785 C769 1.377 . S
C785 C783 1.389 . S
C785 C786 1.524 . S
C786 C785 1.524 . S
C786 C787 1.397 . S
C786 C791 1.363 . S
C787 H758 0.950 . S
C787 C786 1.397 . S
C787 C788 1.334 . S
C788 H759 0.950 . S
C788 C787 1.334 . S
C788 C789 1.287 . S
C789 C788 1.287 . S
C789 C790 1.524 . S
C789 H792 0.999 . S
C790 H760 0.950 . S
C790 C789 1.524 . S
C790 C791 1.415 . S
C791 H761 0.950 . S
C791 C786 1.363 . S
C791 C790 1.415 . S
H792 C789 0.999 . S
H793 C774 0.913 . S
H794 C812 0.951 . S
H795 C814 0.951 . S
H796 C816 0.950 . S
H797 C817 0.950 . S
H798 C819 0.950 . S
H799 C822 0.950 . S
H800 C823 0.950 . S
H801 C825 0.950 . S
H802 C826 0.950 . S
H803 C827 0.951 . S
H804 C829 0.951 . S
H805 C831 0.950 . S
H806 C832 0.950 . S
H807 C834 0.950 . S
H808 C837 0.950 1_565 S
H809 C838 0.950 . S
H810 C840 0.950 . S
H811 C841 0.950 1_565 S
C812 H794 0.951 . S
C812 C813 1.366 . S
C812 C814 1.388 . S
C813 C812 1.366 . S
C813 C817 1.385 . S
C814 H795 0.951 . S
C814 C812 1.388 . S
C814 C815 1.366 . S
C815 C814 1.366 . S
C815 C816 1.414 . S
C815 C818 1.499 . S
C816 H796 0.950 . S
C816 C815 1.414 . S
C816 C817 1.374 . S
C817 H797 0.950 . S
C817 C813 1.385 . S
C817 C816 1.374 . S
C818 C815 1.499 . S
C818 C819 1.373 . S
C818 C820 1.389 . S
C819 H798 0.950 . S
C819 C818 1.373 . S
C819 C835 1.377 . S
C820 C818 1.389 . S
C820 C821 1.524 . S
C820 C834 1.377 . S
C821 C820 1.524 . S
C821 C822 1.397 . S
C821 C826 1.363 . S
C822 H799 0.950 . S
C822 C821 1.397 . S
C822 C823 1.334 . S
C823 H800 0.950 . S
C823 C822 1.334 . S
C823 C824 1.287 . S
C824 C823 1.287 . S
C824 C825 1.524 . S
C824 H843 0.913 . S
C825 H801 0.950 . S
C825 C824 1.524 . S
C825 C826 1.415 . S
C826 H802 0.950 . S
C826 C821 1.363 . S
C826 C825 1.415 . S
C827 H803 0.951 . S
C827 C828 1.366 . S
C827 C829 1.388 . S
C828 C827 1.366 . S
C828 C832 1.385 . S
C829 H804 0.951 . S
C829 C827 1.388 . S
C829 C830 1.366 . S
C830 C829 1.366 . S
C830 C831 1.414 . S
C830 C833 1.499 . S
C831 H805 0.950 . S
C831 C830 1.414 . S
C831 C832 1.374 . S
C832 H806 0.950 . S
C832 C828 1.385 . S
C832 C831 1.374 . S
C833 C830 1.499 . S
C833 C834 1.373 . S
C833 C835 1.389 . S
C834 H807 0.950 . S
C834 C820 1.377 . S
C834 C833 1.373 . S
C835 C819 1.377 . S
C835 C833 1.389 . S
C835 C836 1.524 . S
C836 C835 1.524 . S
C836 C837 1.397 1_565 S
C836 C841 1.363 1_565 S
C837 H808 0.950 1_545 S
C837 C836 1.397 1_545 S
C837 C838 1.334 . S
C838 H809 0.950 . S
C838 C837 1.334 . S
C838 C839 1.287 . S
C839 C838 1.287 . S
C839 C840 1.524 . S
C839 H842 0.999 . S
C840 H810 0.950 . S
C840 C839 1.524 . S
C840 C841 1.415 . S
C841 H811 0.950 1_545 S
C841 C836 1.363 1_545 S
C841 C840 1.415 . S
H842 C839 0.999 . S
H843 C824 0.913 . S
C278 C144 1.732 . S
C263 C68 1.689 . S
C313 C11 1.608 . S
C328 C216 1.742 . S
C363 C30 1.660 . S
C378 C132 1.756 . S
C413 C49 1.654 . S
C428 C228 1.711 . S
C478 C134 1.537 . S
C463 C2 1.704 . S
C528 C215 1.824 . S
C513 C25 1.821 . S
C563 C40 1.715 . S
C578 C131 1.732 . S
C613 C59 1.692 . S
C628 C218 1.519 . S
C678 C230 1.448 . S
C663 C21 1.615 . S
C728 C146 1.450 . S
C713 C44 1.639 . S
C778 C227 1.706 . S
C763 C63 1.706 . S
C813 C6 1.645 . S
C828 C143 1.648 . S
