# Generated by pormake.
# Topology tsx, (6,3)-cn, num edge types: 1
# Building blocks:
#     Node 0, Type 0, BuildingBlock: FUNLAD_clean_sbu_0, # of connection points: 6
#     Node 1, Type 0, BuildingBlock: FUNLAD_clean_sbu_0, # of connection points: 6
#     Node 2, Type 1, BuildingBlock: BETDIP_clean_linker_0, # of connection points: 3
#     Node 3, Type 1, BuildingBlock: BETDIP_clean_linker_0, # of connection points: 3
#     Node 4, Type 1, BuildingBlock: BETDIP_clean_linker_0, # of connection points: 3
#     Node 5, Type 1, BuildingBlock: BETDIP_clean_linker_0, # of connection points: 3
#     Edge 6, Type (0, 1), BuildingBlock: EZIPEK_clean_linker_0, # of connection points: 2
#     Edge 7, Type (0, 1), BuildingBlock: EZIPEK_clean_linker_0, # of connection points: 2
#     Edge 8, Type (0, 1), BuildingBlock: EZIPEK_clean_linker_0, # of connection points: 2
#     Edge 9, Type (0, 1), BuildingBlock: EZIPEK_clean_linker_0, # of connection points: 2
#     Edge 10, Type (0, 1), BuildingBlock: EZIPEK_clean_linker_0, # of connection points: 2
#     Edge 11, Type (0, 1), BuildingBlock: EZIPEK_clean_linker_0, # of connection points: 2
#     Edge 12, Type (0, 1), BuildingBlock: EZIPEK_clean_linker_0, # of connection points: 2
#     Edge 13, Type (0, 1), BuildingBlock: EZIPEK_clean_linker_0, # of connection points: 2
#     Edge 14, Type (0, 1), BuildingBlock: EZIPEK_clean_linker_0, # of connection points: 2
#     Edge 15, Type (0, 1), BuildingBlock: EZIPEK_clean_linker_0, # of connection points: 2
#     Edge 16, Type (0, 1), BuildingBlock: EZIPEK_clean_linker_0, # of connection points: 2
#     Edge 17, Type (0, 1), BuildingBlock: EZIPEK_clean_linker_0, # of connection points: 2
# Relax obj value: 0.117
# Max RMSD: 0.123
# Mean RMSD: 0.117
data_MOF--net-tsx--node1-FUNLAD_clean_sbu_0--node2-BETDIP_clean_linker_0--edge1-EZIPEK_clean_linker_0
_symmetry_space_group_name_H-M    P1
_symmetry_Int_Tables_number       1
_symmetry_cell_setting            triclinic
loop_
_symmetry_equiv_pos_as_xyz
'x, y, z'
_cell_length_a     14.291077
_cell_length_b     15.255178
_cell_length_c     30.808538
_cell_angle_alpha  91.751444
_cell_angle_beta   101.74717
_cell_angle_gamma 89.677409
loop_
_atom_site_label
_atom_site_type_symbol
_atom_site_fract_x
_atom_site_fract_y
_atom_site_fract_z
_atom_type_partial_charge
C0 C 0.88296 0.78235 0.97649 0.0
N1 N 0.02618 0.91186 0.09072 0.0
C2 C 0.94005 0.92184 0.10266 0.0
C3 C 0.93538 0.93561 0.14701 0.0
C4 C 0.02008 0.93804 0.17909 0.0
C5 C 0.10767 0.92263 0.16638 0.0
C6 C 0.10916 0.90997 0.1215 0.0
Zn7 Zn 0.02774 0.9133 0.02531 0.0
C8 C 0.15845 0.78836 -0.00617 0.0
N9 N 0.01337 0.92407 0.88681 0.0
C10 C 0.93024 0.9232 0.85604 0.0
C11 C 0.09907 0.93724 0.87515 0.0
C12 C 0.10305 0.95452 0.83136 0.0
C13 C 0.01804 0.95786 0.79953 0.0
C14 C 0.93099 0.94008 0.81182 0.0
Zn15 Zn 0.01148 0.91804 0.95262 0.0
O16 O 0.92091 0.8159 0.014 0.0
C17 C 0.8805 0.04422 0.97858 0.0
O18 O 0.9067 0.81077 0.94165 0.0
H19 H 0.16425 0.93778 0.90017 0.0
H20 H 0.87504 0.92281 0.07757 0.0
H21 H 0.86302 0.91296 0.86613 0.0
O22 O 0.92021 0.01836 0.01692 0.0
O23 O 0.90323 1.00917 0.94456 0.0
H24 H 0.17665 0.90232 0.11107 0.0
O25 O 0.1149 0.02751 0.96711 0.0
O26 O 0.13491 1.01045 0.03868 0.0
O27 O 0.11929 0.82643 0.95888 0.0
O28 O 0.13553 0.81058 0.03055 0.0
C29 C 0.15373 0.05233 0.00666 0.0
H30 H 0.8669 0.94742 0.15605 0.0
H31 H 0.17414 0.92437 0.19069 0.0
H32 H 0.17113 0.96855 0.82276 0.0
H33 H 0.86421 0.9428 0.78781 0.0
C34 C 0.40713 0.50459 0.51059 0.0
N35 N 0.58465 0.64725 0.60546 0.0
C36 C 0.51175 0.65118 0.62779 0.0
C37 C 0.52749 0.62894 0.67211 0.0
C38 C 0.61886 0.60258 0.6933 0.0
C39 C 0.69479 0.60672 0.671 0.0
C40 C 0.67586 0.62965 0.62652 0.0
Zn41 Zn 0.54939 0.64327 0.53821 0.0
C42 C 0.66764 0.51698 0.49634 0.0
N43 N 0.4692 0.62305 0.3977 0.0
C44 C 0.38199 0.59203 0.37671 0.0
C45 C 0.54089 0.63396 0.37524 0.0
C46 C 0.52808 0.60876 0.33054 0.0
C47 C 0.44087 0.57189 0.30891 0.0
C48 C 0.36623 0.56558 0.33195 0.0
Zn49 Zn 0.50331 0.63429 0.46545 0.0
O50 O 0.45149 0.54999 0.54299 0.0
C51 C 0.38191 0.75903 0.50173 0.0
O52 O 0.41716 0.52139 0.47152 0.0
H53 H 0.61002 0.65752 0.39263 0.0
H54 H 0.43969 0.66422 0.61033 0.0
H55 H 0.32616 0.58361 0.39518 0.0
O56 O 0.44039 0.74282 0.53771 0.0
O57 O 0.38835 0.7176 0.4662 0.0
H58 H 0.73256 0.62682 0.60803 0.0
O59 O 0.58993 0.74908 0.46415 0.0
O60 O 0.64727 0.74009 0.53579 0.0
O61 O 0.61714 0.55109 0.46268 0.0
O62 O 0.65548 0.54051 0.53485 0.0
C63 C 0.64245 0.77965 0.49993 0.0
H64 H 0.4676 0.62555 0.68864 0.0
H65 H 0.76592 0.58596 0.6867 0.0
H66 H 0.58698 0.61418 0.31352 0.0
H67 H 0.29812 0.53722 0.31598 0.0
H68 H 0.07095 0.10068 0.48658 0.0
H69 H 0.93412 0.15091 0.35147 0.0
H70 H 0.12046 0.92905 0.38116 0.0
H71 H 0.81913 0.21331 0.38903 0.0
C72 C 0.86387 0.2467 0.41736 0.0
C73 C 0.0569 0.08295 0.45165 0.0
C74 C 0.1004 1.0081 0.43757 0.0
C75 C -0.00394 0.13482 0.42092 0.0
C76 C 0.97893 0.1107 0.3757 0.0
C77 C 0.02421 0.03649 0.36147 0.0
C78 C 0.08385 0.98515 0.39243 0.0
N79 N 0.95348 0.21032 0.43694 0.0
H80 H 0.89646 0.16884 0.5051 0.0
H81 H 0.10038 0.16525 0.6289 0.0
H82 H 0.87347 0.9782 0.60198 0.0
H83 H 0.15346 0.28693 0.60615 0.0
C84 C 0.14625 0.27751 0.57063 0.0
C85 C 0.92494 0.13814 0.53589 0.0
C86 C 0.87878 0.06486 0.54834 0.0
C87 C 0.00796 0.17268 0.56347 0.0
C88 C 0.03862 0.13893 0.60611 0.0
C89 C 0.98728 0.07144 0.62037 0.0
C90 C 0.91085 0.03224 0.5909 0.0
N91 N 0.06129 0.23725 0.54639 0.0
H92 H 0.55063 0.34023 0.96351 0.0
H93 H 0.48206 0.52515 0.85888 0.0
H94 H 0.70594 0.3369 0.85828 0.0
H95 H 0.33571 0.52635 0.87863 0.0
C96 C 0.35648 0.52526 0.91453 0.0
C97 C 0.56088 0.36571 0.93253 0.0
C98 C 0.63341 0.32968 0.91305 0.0
C99 C 0.50404 0.43502 0.91294 0.0
C100 C 0.52219 0.46955 0.87381 0.0
C101 C 0.59497 0.43435 0.8543 0.0
C102 C 0.64956 0.36378 0.8735 0.0
N103 N 0.43467 0.47297 0.93498 0.0
H104 H 0.46187 0.40753 0.00893 0.0
H105 H 0.54274 0.55259 0.13007 0.0
H106 H 0.35301 0.3347 0.124 0.0
H107 H 0.63763 0.44853 0.01 0.0
C108 C 0.62775 0.51726 0.01752 0.0
C109 C 0.45747 0.41341 0.04271 0.0
C110 C 0.39424 0.3606 0.06142 0.0
C111 C 0.51314 0.4812 0.06782 0.0
C112 C 0.50426 0.49787 0.11141 0.0
C113 C 0.44654 0.44534 0.13132 0.0
C114 C 0.39607 0.37497 0.10726 0.0
N115 N 0.57188 0.5397 0.0496 0.0
C116 C 0.17892 0.20575 0.04136 0.0
C117 C 0.21033 0.13595 0.0159 0.0
C118 C 0.34227 0.22988 0.00463 0.0
C119 C 0.32118 0.29355 0.0361 0.0
N120 N 0.19175 0.35932 0.06455 0.0
N121 N 0.32856 0.07954 0.97669 0.0
C122 C 0.23103 0.28624 0.04867 0.0
C123 C 0.29397 0.14748 -0.00134 0.0
N124 N 0.10053 0.195 0.0598 0.0
N125 N 0.39286 0.25324 0.97403 0.0
H126 H 0.29336 0.01966 0.96966 0.0
H127 H 0.39594 0.08069 0.96862 0.0
H128 H 0.39246 0.31782 0.96478 0.0
H129 H 0.40751 0.21042 0.94937 0.0
H130 H 0.08326 0.23756 0.08405 0.0
H131 H 0.05473 0.14136 0.05285 0.0
H132 H 0.12197 0.36244 0.06964 0.0
H133 H 0.22542 0.42031 0.06755 0.0
C134 C 0.21463 0.63108 -0.00464 0.0
C135 C 0.23112 0.72081 -0.01116 0.0
C136 C 0.33269 0.68152 0.93623 0.0
C137 C 0.31507 0.59159 0.94145 0.0
N138 N 0.23571 0.47856 0.97316 0.0
N139 N 0.33113 0.82939 0.96698 0.0
C140 C 0.25675 0.56545 0.97113 0.0
C141 C 0.29876 0.74494 0.96372 0.0
N142 N 0.15889 0.60937 0.02454 0.0
N143 N 0.37949 0.70682 0.90411 0.0
H144 H 0.30985 0.87506 -0.01103 0.0
H145 H 0.38586 0.85099 0.9522 0.0
H146 H 0.40959 0.66265 0.88439 0.0
H147 H 0.38395 0.77185 0.89537 0.0
H148 H 0.1453 0.54567 0.03247 0.0
H149 H 0.12965 0.65634 0.04312 0.0
H150 H 0.18496 0.45473 -0.01044 0.0
H151 H 0.26493 0.42952 0.9557 0.0
C152 C 0.71529 0.73133 0.97492 0.0
C153 C 0.81222 0.71027 0.97551 0.0
C154 C 0.78895 0.56514 0.00423 0.0
C155 C 0.69068 0.58423 0.00248 0.0
N156 N 0.55751 0.68234 0.98174 0.0
N157 N 0.93514 0.60134 0.97999 0.0
C158 C 0.65303 0.66659 -0.01352 0.0
C159 C 0.84669 0.62504 -0.01343 0.0
N160 N 0.68362 0.81387 0.9635 0.0
N161 N 0.82956 0.49329 0.02605 0.0
H162 H 0.97819 0.64397 0.96676 0.0
H163 H 0.96131 0.53749 0.98326 0.0
H164 H 0.79152 0.44904 0.04094 0.0
H165 H 0.90294 0.48181 0.033 0.0
H166 H 0.61748 0.83899 0.96663 0.0
H167 H 0.72581 0.85904 0.95141 0.0
H168 H 0.52461 0.74034 0.97029 0.0
H169 H 0.5093 0.63526 -0.01266 0.0
C170 C 0.85735 0.2036 0.96304 0.0
C171 C 0.81823 0.12246 0.97223 0.0
C172 C 0.65764 0.1758 0.94143 0.0
C173 C 0.69616 0.25915 0.93533 0.0
N174 N 0.83094 0.35818 0.9503 0.0
N175 N 0.68117 0.03885 0.98025 0.0
C176 C 0.79552 0.27499 0.94952 0.0
C177 C 0.71813 0.1114 0.96506 0.0
N178 N 0.95321 0.21127 0.96488 0.0
N179 N 0.5654 0.15574 0.92188 0.0
H180 H 0.72471 0.9919 -0.00163 0.0
H181 H 0.60834 0.03036 0.97896 0.0
H182 H 0.5207 0.19929 0.90194 0.0
H183 H 0.53652 0.09315 0.92174 0.0
H184 H 0.98435 0.26529 0.9535 0.0
H185 H 0.00082 0.16043 0.9745 0.0
H186 H 0.90168 0.37435 0.96412 0.0
H187 H 0.78782 0.41263 0.94115 0.0
C188 C 0.75474 0.88599 0.47672 0.0
C189 C 0.6856 0.86796 0.5022 0.0
C190 C 0.71242 0.01366 0.53898 0.0
C191 C 0.79275 0.02282 0.51989 0.0
N192 N 0.84961 0.99775 0.45292 0.0
N193 N 0.59231 0.91792 0.55602 0.0
C194 C 0.80218 0.96789 0.48332 0.0
C195 C 0.66085 0.9337 0.53218 0.0
N196 N 0.78003 0.82335 0.44859 0.0
N197 N 0.68782 0.0819 0.56414 0.0
H198 H 0.54956 0.86253 0.55091 0.0
H199 H 0.57947 0.95812 0.58206 0.0
H200 H 0.7267 0.14047 0.56862 0.0
H201 H 0.62568 0.0842 0.57682 0.0
H202 H 0.83811 0.83019 0.43327 0.0
H203 H 0.74763 0.76187 0.443 0.0
H204 H 0.85266 0.96472 0.42314 0.0
H205 H 0.87253 0.062 0.45522 0.0
C206 C 0.68482 0.35849 0.47674 0.0
C207 C 0.72849 0.44175 0.48822 0.0
C208 C 0.86232 0.39696 0.45389 0.0
C209 C 0.81959 0.31305 0.44332 0.0
N210 N 0.70219 0.20702 0.45391 0.0
N211 N 0.86648 0.53443 0.49644 0.0
C212 C 0.73468 0.2916 0.45775 0.0
C213 C 0.82041 0.4586 0.47996 0.0
N214 N 0.59309 0.34494 0.48149 0.0
N215 N 0.9387 0.42003 0.4363 0.0
H216 H 0.83627 0.58048 0.51528 0.0
H217 H 0.93716 0.54774 0.49502 0.0
H218 H 0.96823 0.37807 0.41536 0.0
H219 H 0.96706 0.48312 0.43897 0.0
H220 H 0.55281 0.28999 0.46853 0.0
H221 H 0.55483 0.39176 0.49587 0.0
H222 H 0.64752 0.18542 0.46875 0.0
H223 H 0.73513 0.15645 0.43915 0.0
C224 C 0.2548 0.41687 0.49482 0.0
C225 C 0.34741 0.43204 0.52041 0.0
C226 C 0.31527 0.32926 0.57549 0.0
C227 C 0.22237 0.31504 0.54951 0.0
N228 N 0.13734 0.30489 0.47363 0.0
N229 N 0.47638 0.37925 0.57749 0.0
C230 C 0.20117 0.34687 0.50588 0.0
C231 C 0.38117 0.38097 0.55849 0.0
N232 N 0.21535 0.47029 0.46119 0.0
N233 N 0.34126 0.29274 0.61614 0.0
H234 H 0.52795 0.41418 0.56572 0.0
H235 H 0.50581 0.33596 0.60208 0.0
H236 H 0.30086 0.24457 0.62713 0.0
H237 H 0.40218 0.31161 0.63926 0.0
H238 H 0.14477 0.46308 0.44411 0.0
H239 H 0.2485 0.52664 0.45348 0.0
H240 H 0.12563 0.32203 0.44044 0.0
H241 H 0.11512 0.2427 0.47899 0.0
C242 C 0.22301 0.82301 0.50708 0.0
C243 C 0.31573 0.83439 0.49853 0.0
C244 C 0.27051 0.97935 0.46919 0.0
C245 C 0.17405 0.95923 0.46846 0.0
N246 N 0.05611 0.86632 0.48921 0.0
N247 N 0.4267 0.92114 0.4681 0.0
C248 C 0.14965 0.88298 0.48898 0.0
C249 C 0.3399 0.91281 0.47953 0.0
N250 N 0.20514 0.75398 0.53143 0.0
N251 N 0.29507 0.06135 0.45869 0.0
H252 H 0.47889 0.87312 0.47418 0.0
H253 H 0.44411 0.97218 0.44947 0.0
H254 H 0.2449 0.11122 0.45044 0.0
H255 H 0.36563 0.08237 0.46264 0.0
H256 H 0.14093 0.7453 0.54174 0.0
H257 H 0.25793 0.70888 0.54437 0.0
H258 H 0.03137 0.80758 0.49902 0.0
H259 H 0.00258 0.91147 0.47797 0.0
C260 C 0.97795 0.90721 0.25232 0.0
C261 C 0.01748 0.96442 0.22538 0.0
C262 C 0.06228 0.06884 0.28782 0.0
C263 C 0.01599 0.01502 0.31376 0.0
N264 N 0.91417 0.89184 0.31882 0.0
N265 N 0.07651 0.10832 0.21406 0.0
C266 C 0.96889 0.93678 0.29538 0.0
C267 C 0.05342 0.04795 0.24208 0.0
N268 N 0.95239 0.82371 0.23737 0.0
N269 N 0.1184 0.13745 0.30716 0.0
H270 H 0.06982 0.09614 0.18006 0.0
H271 H 0.09346 0.17329 0.22376 0.0
H272 H 0.12824 0.15462 0.34081 0.0
H273 H 0.16218 0.17248 0.29066 0.0
H274 H 0.93261 0.7761 0.2573 0.0
H275 H 0.95871 0.79958 0.20605 0.0
H276 H 0.87061 0.83912 0.30548 0.0
H277 H 0.90555 0.91224 0.3504 0.0
C278 C 0.04804 0.93217 0.72239 0.0
C279 C 0.0189 0.98895 0.7545 0.0
C280 C 0.97338 0.10133 0.69913 0.0
C281 C 0.00658 0.04634 0.66745 0.0
N282 N 0.09093 0.91709 0.65014 0.0
N283 N 0.97545 0.13416 0.77667 0.0
C284 C 0.04894 0.964 0.67953 0.0
C285 C 0.98834 0.07569 0.74385 0.0
N286 N 0.07137 0.84708 0.73239 0.0
N287 N 0.9232 0.17595 0.68612 0.0
H288 H 0.98564 0.11791 0.80995 0.0
H289 H 0.96331 0.20081 0.7716 0.0
H290 H 0.91047 0.1977 0.6537 0.0
H291 H 0.88732 0.21267 0.70667 0.0
H292 H 0.08324 0.79974 0.70905 0.0
H293 H 0.07236 0.82197 0.76359 0.0
H294 H 0.131 0.86055 0.65822 0.0
H295 H 0.09247 0.93895 0.61851 0.0
C296 C 0.65914 0.60127 0.77652 0.0
C297 C 0.62942 0.55582 0.73528 0.0
C298 C 0.58354 0.42815 0.77226 0.0
C299 C 0.61428 0.47293 0.81364 0.0
N300 N 0.6998 0.59282 0.85677 0.0
N301 N 0.58652 0.41996 0.69399 0.0
C302 C 0.65818 0.55675 0.81629 0.0
C303 C 0.5994 0.46705 0.73326 0.0
N304 N 0.68502 0.68753 0.77747 0.0
N305 N 0.53459 0.35075 0.76994 0.0
H306 H 0.59667 0.4466 0.66451 0.0
H307 H 0.57452 0.35256 0.6914 0.0
H308 H 0.52156 0.31967 0.7978 0.0
H309 H 0.50034 0.32059 0.74021 0.0
H310 H 0.69718 0.72733 0.80612 0.0
H311 H 0.68938 0.72087 0.74887 0.0
H312 H 0.74034 0.65007 0.86087 0.0
H313 H 0.70048 0.5615 0.88649 0.0
C314 C 0.47847 0.4532 0.25717 0.0
C315 C 0.43144 0.5335 0.26337 0.0
C316 C 0.37564 0.54269 0.18301 0.0
C317 C 0.43395 0.46956 0.17679 0.0
N318 N 0.54648 0.3581 0.20714 0.0
N319 N 0.34054 0.65883 0.23285 0.0
C320 C 0.48629 0.42499 0.21366 0.0
C321 C 0.38055 0.57906 0.22646 0.0
N322 N 0.51412 0.40326 0.29291 0.0
N323 N 0.31492 0.57658 0.14731 0.0
H324 H 0.34164 0.68692 0.26424 0.0
H325 H 0.31202 0.70002 0.20716 0.0
H326 H 0.30997 0.55174 0.11499 0.0
H327 H 0.2637 0.62413 0.14999 0.0
H328 H 0.54066 0.34007 0.29021 0.0
H329 H 0.50945 0.42183 0.32528 0.0
H330 H 0.59523 0.32996 0.23271 0.0
H331 H 0.55237 0.33435 0.1757 0.0
loop_
_geom_bond_atom_site_label_1
_geom_bond_atom_site_label_2
_geom_bond_distance
_geom_bond_site_symmetry_2
_ccdc_geom_bond_type
C0 O16 1.251 . S
C0 O18 1.254 1_554 S
N1 C2 1.333 1_445 S
N1 C6 1.307 . S
N1 Zn7 2.020 . S
C2 N1 1.333 1_665 S
C2 C3 1.379 . S
C2 H20 0.952 . S
C3 C2 1.379 . S
C3 C4 1.390 1_665 S
C3 H30 0.949 . S
C4 C3 1.390 1_445 S
C4 C5 1.357 . S
C5 C4 1.357 . S
C5 C6 1.370 . S
C5 H31 0.950 . S
C6 N1 1.307 . S
C6 C5 1.370 . S
C6 H24 0.948 . S
Zn7 N1 2.020 . S
Zn7 O16 2.039 1_445 S
Zn7 O22 2.034 1_455 S
Zn7 O26 2.025 . S
Zn7 O28 2.024 1_545 S
C8 O27 1.246 1_554 S
C8 O28 1.249 . S
N9 C10 1.307 1_545 S
N9 C11 1.333 1_655 S
N9 Zn15 2.020 1_655 S
C10 N9 1.307 1_565 S
C10 C14 1.370 . S
C10 H21 0.948 . S
C11 N9 1.333 1_455 S
C11 C12 1.379 . S
C11 H19 0.952 . S
C12 C11 1.379 . S
C12 C13 1.390 1_455 S
C12 H32 0.949 . S
C13 C12 1.390 1_655 S
C13 C14 1.357 1_545 S
C14 C10 1.370 . S
C14 C13 1.357 1_565 S
C14 H33 0.950 . S
Zn15 N9 2.020 1_455 S
Zn15 O18 2.025 1_445 S
Zn15 O23 2.024 1_455 S
Zn15 O25 2.039 . S
Zn15 O27 2.034 1_545 S
O16 C0 1.251 . S
O16 Zn7 2.039 1_665 S
C17 O22 1.245 . S
C17 O23 1.249 1_554 S
O18 C0 1.254 1_556 S
O18 Zn15 2.025 1_665 S
H19 C11 0.952 . S
H20 C2 0.952 . S
H21 C10 0.948 . S
O22 Zn7 2.034 1_655 S
O22 C17 1.245 . S
O23 Zn15 2.024 1_655 S
O23 C17 1.249 1_556 S
H24 C6 0.948 . S
O25 Zn15 2.039 . S
O25 C29 1.251 1_556 S
O26 Zn7 2.025 . S
O26 C29 1.254 . S
O27 C8 1.246 1_556 S
O27 Zn15 2.034 1_565 S
O28 Zn7 2.024 1_565 S
O28 C8 1.249 . S
C29 O25 1.251 1_554 S
C29 O26 1.254 . S
H30 C3 0.949 . S
H31 C5 0.950 . S
H32 C12 0.949 . S
H33 C14 0.950 . S
C34 O50 1.251 . S
C34 O52 1.254 . S
N35 C36 1.333 . S
N35 C40 1.307 . S
N35 Zn41 2.020 . S
C36 N35 1.333 . S
C36 C37 1.379 . S
C36 H54 0.952 . S
C37 C36 1.379 . S
C37 C38 1.390 . S
C37 H64 0.949 . S
C38 C37 1.390 . S
C38 C39 1.357 . S
C39 C38 1.357 . S
C39 C40 1.370 . S
C39 H65 0.950 . S
C40 N35 1.307 . S
C40 C39 1.370 . S
C40 H58 0.948 . S
Zn41 N35 2.020 . S
Zn41 O50 2.039 . S
Zn41 O56 2.034 . S
Zn41 O60 2.025 . S
Zn41 O62 2.024 . S
C42 O61 1.246 . S
C42 O62 1.249 . S
N43 C44 1.307 . S
N43 C45 1.333 . S
N43 Zn49 2.020 . S
C44 N43 1.307 . S
C44 C48 1.370 . S
C44 H55 0.948 . S
C45 N43 1.333 . S
C45 C46 1.379 . S
C45 H53 0.952 . S
C46 C45 1.379 . S
C46 C47 1.390 . S
C46 H66 0.949 . S
C47 C46 1.390 . S
C47 C48 1.357 . S
C48 C44 1.370 . S
C48 C47 1.357 . S
C48 H67 0.950 . S
Zn49 N43 2.020 . S
Zn49 O52 2.025 . S
Zn49 O57 2.024 . S
Zn49 O59 2.039 . S
Zn49 O61 2.034 . S
O50 C34 1.251 . S
O50 Zn41 2.039 . S
C51 O56 1.246 . S
C51 O57 1.249 . S
O52 C34 1.254 . S
O52 Zn49 2.025 . S
H53 C45 0.952 . S
H54 C36 0.952 . S
H55 C44 0.948 . S
O56 Zn41 2.034 . S
O56 C51 1.246 . S
O57 Zn49 2.024 . S
O57 C51 1.249 . S
H58 C40 0.948 . S
O59 Zn49 2.039 . S
O59 C63 1.251 . S
O60 Zn41 2.025 . S
O60 C63 1.254 . S
O61 C42 1.246 . S
O61 Zn49 2.034 . S
O62 Zn41 2.024 . S
O62 C42 1.249 . S
C63 O59 1.251 . S
C63 O60 1.254 . S
H64 C37 0.949 . S
H65 C39 0.950 . S
H66 C46 0.949 . S
H67 C48 0.950 . S
H68 C73 0.930 . S
H69 C76 0.930 1_655 S
H70 C78 0.930 . S
H71 C72 1.016 . S
C72 H71 1.016 . S
C72 N79 1.286 . S
C73 H68 0.930 . S
C73 C74 1.397 . S
C73 C75 1.361 1_565 S
C74 C73 1.397 . S
C74 C78 1.390 . S
C75 C73 1.361 1_545 S
C75 C76 1.393 . S
C75 N79 1.413 1_455 S
C76 H69 0.930 1_455 S
C76 C75 1.393 . S
C76 C77 1.399 1_545 S
C77 C76 1.399 1_565 S
C77 C78 1.381 . S
C78 H70 0.930 . S
C78 C74 1.390 . S
C78 C77 1.381 . S
N79 C72 1.286 . S
N79 C75 1.413 1_655 S
H80 C85 0.930 . S
H81 C88 0.930 . S
H82 C90 0.930 . S
H83 C84 1.016 . S
C84 H83 1.016 . S
C84 N91 1.286 . S
C85 H80 0.930 . S
C85 C86 1.397 . S
C85 C87 1.361 1_665 S
C86 C85 1.397 . S
C86 C90 1.390 . S
C87 C85 1.361 1_445 S
C87 C88 1.393 . S
C87 N91 1.413 . S
C88 H81 0.930 . S
C88 C87 1.393 . S
C88 C89 1.399 1_455 S
C89 C88 1.399 1_655 S
C89 C90 1.381 1_545 S
C90 H82 0.930 . S
C90 C86 1.390 . S
C90 C89 1.381 1_565 S
N91 C84 1.286 . S
N91 C87 1.413 . S
H92 C97 0.930 . S
H93 C100 0.930 . S
H94 C102 0.930 . S
H95 C96 1.016 . S
C96 H95 1.016 . S
C96 N103 1.286 1_556 S
C97 H92 0.930 . S
C97 C98 1.397 1_554 S
C97 C99 1.361 1_554 S
C98 C97 1.397 1_556 S
C98 C102 1.390 . S
C99 C97 1.361 1_556 S
C99 C100 1.393 . S
C99 N103 1.413 1_556 S
C100 H93 0.930 . S
C100 C99 1.393 . S
C100 C101 1.399 . S
C101 C100 1.399 . S
C101 C102 1.381 . S
C102 H94 0.930 . S
C102 C98 1.390 . S
C102 C101 1.381 . S
N103 C96 1.286 1_554 S
N103 C99 1.413 1_554 S
H104 C109 0.930 1_556 S
H105 C112 0.930 . S
H106 C114 0.930 . S
H107 C108 1.016 . S
C108 H107 1.016 . S
C108 N115 1.286 . S
C109 H104 0.930 1_554 S
C109 C110 1.397 . S
C109 C111 1.361 . S
C110 C109 1.397 . S
C110 C114 1.390 . S
C111 C109 1.361 . S
C111 C112 1.393 . S
C111 N115 1.413 . S
C112 H105 0.930 . S
C112 C111 1.393 . S
C112 C113 1.399 . S
C113 C112 1.399 . S
C113 C114 1.381 . S
C114 H106 0.930 . S
C114 C110 1.390 . S
C114 C113 1.381 . S
N115 C108 1.286 . S
N115 C111 1.413 . S
C116 C117 1.363 . S
C116 C122 1.379 . S
C116 N124 1.356 . S
C117 C116 1.363 . S
C117 C123 1.363 1_554 S
C118 C119 1.363 1_556 S
C118 C123 1.379 . S
C118 N125 1.356 . S
C119 C118 1.363 1_554 S
C119 C122 1.363 . S
N120 C122 1.356 . S
N120 H132 0.984 . S
N120 H133 0.985 . S
N121 C123 1.356 . S
N121 H126 0.984 . S
N121 H127 0.985 . S
C122 C116 1.379 . S
C122 C119 1.363 . S
C122 N120 1.356 . S
C123 C117 1.363 1_556 S
C123 C118 1.379 . S
C123 N121 1.356 . S
N124 C116 1.356 . S
N124 H130 0.984 . S
N124 H131 0.984 . S
N125 C118 1.356 . S
N125 H128 0.984 . S
N125 H129 0.985 . S
H126 N121 0.984 . S
H127 N121 0.985 . S
H128 N125 0.984 . S
H129 N125 0.985 . S
H130 N124 0.984 . S
H131 N124 0.984 . S
H132 N120 0.984 . S
H133 N120 0.985 . S
C134 C135 1.363 1_556 S
C134 C140 1.379 . S
C134 N142 1.356 . S
C135 C134 1.363 1_554 S
C135 C141 1.363 . S
C136 C137 1.363 . S
C136 C141 1.379 . S
C136 N143 1.356 . S
C137 C136 1.363 . S
C137 C140 1.363 1_554 S
N138 C140 1.356 . S
N138 H150 0.984 . S
N138 H151 0.985 . S
N139 C141 1.356 . S
N139 H144 0.984 . S
N139 H145 0.985 . S
C140 C134 1.379 . S
C140 C137 1.363 1_556 S
C140 N138 1.356 . S
C141 C135 1.363 . S
C141 C136 1.379 . S
C141 N139 1.356 . S
N142 C134 1.356 . S
N142 H148 0.984 . S
N142 H149 0.984 . S
N143 C136 1.356 . S
N143 H146 0.984 . S
N143 H147 0.985 . S
H144 N139 0.984 . S
H145 N139 0.985 . S
H146 N143 0.984 . S
H147 N143 0.985 . S
H148 N142 0.984 . S
H149 N142 0.984 . S
H150 N138 0.984 . S
H151 N138 0.985 . S
C152 C153 1.353 1_556 S
C152 C158 1.379 . S
C152 N160 1.356 . S
C153 C152 1.353 1_554 S
C153 C159 1.376 . S
C154 C155 1.374 . S
C154 C159 1.379 . S
C154 N161 1.356 . S
C155 C154 1.374 . S
C155 C158 1.349 1_554 S
N156 C158 1.356 . S
N156 H168 0.984 . S
N156 H169 0.985 . S
N157 C159 1.356 . S
N157 H162 0.984 . S
N157 H163 0.985 . S
C158 C152 1.379 . S
C158 C155 1.349 1_556 S
C158 N156 1.356 . S
C159 C153 1.376 . S
C159 C154 1.379 . S
C159 N157 1.356 . S
N160 C152 1.356 . S
N160 H166 0.984 . S
N160 H167 0.984 . S
N161 C154 1.356 . S
N161 H164 0.984 . S
N161 H165 0.985 . S
H162 N157 0.984 . S
H163 N157 0.985 . S
H164 N161 0.984 . S
H165 N161 0.985 . S
H166 N160 0.984 . S
H167 N160 0.984 . S
H168 N156 0.984 . S
H169 N156 0.985 . S
C170 C171 1.363 . S
C170 C176 1.379 . S
C170 N178 1.356 . S
C171 C170 1.363 . S
C171 C177 1.363 1_556 S
C172 C173 1.363 1_554 S
C172 C177 1.379 . S
C172 N179 1.356 . S
C173 C172 1.363 1_556 S
C173 C176 1.363 . S
N174 C176 1.356 . S
N174 H186 0.984 . S
N174 H187 0.985 . S
N175 C177 1.356 . S
N175 H180 0.984 . S
N175 H181 0.985 . S
C176 C170 1.379 . S
C176 C173 1.363 . S
C176 N174 1.356 . S
C177 C171 1.363 1_554 S
C177 C172 1.379 . S
C177 N175 1.356 . S
N178 C170 1.356 . S
N178 H184 0.984 . S
N178 H185 0.984 . S
N179 C172 1.356 . S
N179 H182 0.984 . S
N179 H183 0.985 . S
H180 N175 0.984 . S
H181 N175 0.985 . S
H182 N179 0.984 . S
H183 N179 0.985 . S
H184 N178 0.984 . S
H185 N178 0.984 . S
H186 N174 0.984 . S
H187 N174 0.985 . S
C188 C189 1.363 . S
C188 C194 1.379 . S
C188 N196 1.356 . S
C189 C188 1.363 . S
C189 C195 1.363 . S
C190 C191 1.363 . S
C190 C195 1.379 . S
C190 N197 1.356 . S
C191 C190 1.363 . S
C191 C194 1.363 . S
N192 C194 1.356 . S
N192 H204 0.984 . S
N192 H205 0.985 . S
N193 C195 1.356 . S
N193 H198 0.984 . S
N193 H199 0.985 . S
C194 C188 1.379 . S
C194 C191 1.363 . S
C194 N192 1.356 . S
C195 C189 1.363 . S
C195 C190 1.379 . S
C195 N193 1.356 . S
N196 C188 1.356 . S
N196 H202 0.984 . S
N196 H203 0.984 . S
N197 C190 1.356 . S
N197 H200 0.984 . S
N197 H201 0.985 . S
H198 N193 0.984 . S
H199 N193 0.985 . S
H200 N197 0.984 . S
H201 N197 0.985 . S
H202 N196 0.984 . S
H203 N196 0.984 . S
H204 N192 0.984 . S
H205 N192 0.985 . S
C206 C207 1.363 . S
C206 C212 1.379 . S
C206 N214 1.356 . S
C207 C206 1.363 . S
C207 C213 1.363 . S
C208 C209 1.363 . S
C208 C213 1.379 . S
C208 N215 1.356 . S
C209 C208 1.363 . S
C209 C212 1.363 . S
N210 C212 1.356 . S
N210 H222 0.984 . S
N210 H223 0.985 . S
N211 C213 1.356 . S
N211 H216 0.984 . S
N211 H217 0.985 . S
C212 C206 1.379 . S
C212 C209 1.363 . S
C212 N210 1.356 . S
C213 C207 1.363 . S
C213 C208 1.379 . S
C213 N211 1.356 . S
N214 C206 1.356 . S
N214 H220 0.984 . S
N214 H221 0.984 . S
N215 C208 1.356 . S
N215 H218 0.984 . S
N215 H219 0.985 . S
H216 N211 0.984 . S
H217 N211 0.985 . S
H218 N215 0.984 . S
H219 N215 0.985 . S
H220 N214 0.984 . S
H221 N214 0.984 . S
H222 N210 0.984 . S
H223 N210 0.985 . S
C224 C225 1.363 . S
C224 C230 1.379 . S
C224 N232 1.356 . S
C225 C224 1.363 . S
C225 C231 1.363 . S
C226 C227 1.363 . S
C226 C231 1.379 . S
C226 N233 1.356 . S
C227 C226 1.363 . S
C227 C230 1.363 . S
N228 C230 1.356 . S
N228 H240 0.984 . S
N228 H241 0.985 . S
N229 C231 1.356 . S
N229 H234 0.984 . S
N229 H235 0.985 . S
C230 C224 1.379 . S
C230 C227 1.363 . S
C230 N228 1.356 . S
C231 C225 1.363 . S
C231 C226 1.379 . S
C231 N229 1.356 . S
N232 C224 1.356 . S
N232 H238 0.984 . S
N232 H239 0.984 . S
N233 C226 1.356 . S
N233 H236 0.984 . S
N233 H237 0.985 . S
H234 N229 0.984 . S
H235 N229 0.985 . S
H236 N233 0.984 . S
H237 N233 0.985 . S
H238 N232 0.984 . S
H239 N232 0.984 . S
H240 N228 0.984 . S
H241 N228 0.985 . S
C242 C243 1.363 . S
C242 C248 1.379 . S
C242 N250 1.356 . S
C243 C242 1.363 . S
C243 C249 1.363 . S
C244 C245 1.363 . S
C244 C249 1.379 . S
C244 N251 1.356 . S
C245 C244 1.363 . S
C245 C248 1.363 . S
N246 C248 1.356 . S
N246 H258 0.984 . S
N246 H259 0.985 . S
N247 C249 1.356 . S
N247 H252 0.984 . S
N247 H253 0.985 . S
C248 C242 1.379 . S
C248 C245 1.363 . S
C248 N246 1.356 . S
C249 C243 1.363 . S
C249 C244 1.379 . S
C249 N247 1.356 . S
N250 C242 1.356 . S
N250 H256 0.984 . S
N250 H257 0.984 . S
N251 C244 1.356 . S
N251 H254 0.984 . S
N251 H255 0.985 . S
H252 N247 0.984 . S
H253 N247 0.985 . S
H254 N251 0.984 . S
H255 N251 0.985 . S
H256 N250 0.984 . S
H257 N250 0.984 . S
H258 N246 0.984 . S
H259 N246 0.985 . S
C260 C261 1.363 1_565 S
C260 C266 1.379 . S
C260 N268 1.356 1_455 S
C261 C260 1.363 1_545 S
C261 C267 1.363 . S
C262 C263 1.363 . S
C262 C267 1.379 . S
C262 N269 1.356 . S
C263 C262 1.363 . S
C263 C266 1.363 1_545 S
N264 C266 1.356 1_655 S
N264 H276 0.984 . S
N264 H277 0.985 . S
N265 C267 1.356 . S
N265 H270 0.984 . S
N265 H271 0.985 . S
C266 C260 1.379 . S
C266 C263 1.363 1_565 S
C266 N264 1.356 1_455 S
C267 C261 1.363 . S
C267 C262 1.379 . S
C267 N265 1.356 . S
N268 C260 1.356 1_655 S
N268 H274 0.984 . S
N268 H275 0.984 . S
N269 C262 1.356 . S
N269 H272 0.984 . S
N269 H273 0.985 . S
H270 N265 0.984 . S
H271 N265 0.985 . S
H272 N269 0.984 . S
H273 N269 0.985 . S
H274 N268 0.984 . S
H275 N268 0.984 . S
H276 N264 0.984 . S
H277 N264 0.985 . S
C278 C279 1.363 1_465 S
C278 C284 1.379 . S
C278 N286 1.356 . S
C279 C278 1.363 1_645 S
C279 C285 1.363 . S
C280 C281 1.363 . S
C280 C285 1.379 . S
C280 N287 1.356 . S
C281 C280 1.363 . S
C281 C284 1.363 1_645 S
N282 C284 1.356 . S
N282 H294 0.984 . S
N282 H295 0.985 . S
N283 C285 1.356 . S
N283 H288 0.984 . S
N283 H289 0.985 . S
C284 C278 1.379 . S
C284 C281 1.363 1_465 S
C284 N282 1.356 . S
C285 C279 1.363 . S
C285 C280 1.379 . S
C285 N283 1.356 . S
N286 C278 1.356 . S
N286 H292 0.984 . S
N286 H293 0.984 . S
N287 C280 1.356 . S
N287 H290 0.984 . S
N287 H291 0.985 . S
H288 N283 0.984 . S
H289 N283 0.985 . S
H290 N287 0.984 . S
H291 N287 0.985 . S
H292 N286 0.984 . S
H293 N286 0.984 . S
H294 N282 0.984 . S
H295 N282 0.985 . S
C296 C297 1.363 . S
C296 C302 1.379 . S
C296 N304 1.356 . S
C297 C296 1.363 . S
C297 C303 1.363 . S
C298 C299 1.363 . S
C298 C303 1.379 . S
C298 N305 1.356 . S
C299 C298 1.363 . S
C299 C302 1.363 . S
N300 C302 1.356 . S
N300 H312 0.984 . S
N300 H313 0.985 . S
N301 C303 1.356 . S
N301 H306 0.984 . S
N301 H307 0.985 . S
C302 C296 1.379 . S
C302 C299 1.363 . S
C302 N300 1.356 . S
C303 C297 1.363 . S
C303 C298 1.379 . S
C303 N301 1.356 . S
N304 C296 1.356 . S
N304 H310 0.984 . S
N304 H311 0.984 . S
N305 C298 1.356 . S
N305 H308 0.984 . S
N305 H309 0.985 . S
H306 N301 0.984 . S
H307 N301 0.985 . S
H308 N305 0.984 . S
H309 N305 0.985 . S
H310 N304 0.984 . S
H311 N304 0.984 . S
H312 N300 0.984 . S
H313 N300 0.985 . S
C314 C315 1.363 . S
C314 C320 1.379 . S
C314 N322 1.356 . S
C315 C314 1.363 . S
C315 C321 1.363 . S
C316 C317 1.363 . S
C316 C321 1.379 . S
C316 N323 1.356 . S
C317 C316 1.363 . S
C317 C320 1.363 . S
N318 C320 1.356 . S
N318 H330 0.984 . S
N318 H331 0.985 . S
N319 C321 1.356 . S
N319 H324 0.984 . S
N319 H325 0.985 . S
C320 C314 1.379 . S
C320 C317 1.363 . S
C320 N318 1.356 . S
C321 C315 1.363 . S
C321 C316 1.379 . S
C321 N319 1.356 . S
N322 C314 1.356 . S
N322 H328 0.984 . S
N322 H329 0.984 . S
N323 C316 1.356 . S
N323 H326 0.984 . S
N323 H327 0.985 . S
H324 N319 0.984 . S
H325 N319 0.985 . S
H326 N323 0.984 . S
H327 N323 0.985 . S
H328 N322 0.984 . S
H329 N322 0.984 . S
H330 N318 0.984 . S
H331 N318 0.985 . S
C119 C110 1.474 . S
C117 C29 1.516 . S
C135 C8 1.460 . S
C137 C96 1.397 1_554 S
C153 C0 1.462 . S
C155 C108 1.411 . S
C171 C17 1.516 1_556 S
C173 C98 1.477 . S
C189 C63 1.516 . S
C191 C86 1.475 . S
C207 C42 1.460 . S
C209 C72 1.397 . S
C227 C84 1.402 . S
C225 C34 1.464 . S
C245 C74 1.477 . S
C243 C51 1.516 . S
C261 C4 1.525 . S
C263 C77 1.521 1_545 S
C279 C13 1.516 . S
C281 C89 1.514 . S
C299 C101 1.521 . S
C297 C38 1.525 . S
C315 C47 1.516 . S
C317 C113 1.514 . S
