# Generated by pormake.
# Topology anh, (6,3)-cn, num edge types: 1
# Building blocks:
#     Node 0, Type 0, BuildingBlock: HISSIN_clean_sbu_0, # of connection points: 6
#     Node 1, Type 0, BuildingBlock: HISSIN_clean_sbu_0, # of connection points: 6
#     Node 2, Type 0, BuildingBlock: HISSIN_clean_sbu_0, # of connection points: 6
#     Node 3, Type 1, BuildingBlock: BETDAH_clean_linker_0, # of connection points: 3
#     Node 4, Type 1, BuildingBlock: BETDAH_clean_linker_0, # of connection points: 3
#     Node 5, Type 1, BuildingBlock: BETDAH_clean_linker_0, # of connection points: 3
#     Node 6, Type 1, BuildingBlock: BETDAH_clean_linker_0, # of connection points: 3
#     Node 7, Type 1, BuildingBlock: BETDAH_clean_linker_0, # of connection points: 3
#     Node 8, Type 1, BuildingBlock: BETDAH_clean_linker_0, # of connection points: 3
#     Edge 9, Type (0, 1), BuildingBlock: KIFKEQ_clean_linker_1, # of connection points: 2
#     Edge 10, Type (0, 1), BuildingBlock: KIFKEQ_clean_linker_1, # of connection points: 2
#     Edge 11, Type (0, 1), BuildingBlock: KIFKEQ_clean_linker_1, # of connection points: 2
#     Edge 12, Type (0, 1), BuildingBlock: KIFKEQ_clean_linker_1, # of connection points: 2
#     Edge 13, Type (0, 1), BuildingBlock: KIFKEQ_clean_linker_1, # of connection points: 2
#     Edge 14, Type (0, 1), BuildingBlock: KIFKEQ_clean_linker_1, # of connection points: 2
#     Edge 15, Type (0, 1), BuildingBlock: KIFKEQ_clean_linker_1, # of connection points: 2
#     Edge 16, Type (0, 1), BuildingBlock: KIFKEQ_clean_linker_1, # of connection points: 2
#     Edge 17, Type (0, 1), BuildingBlock: KIFKEQ_clean_linker_1, # of connection points: 2
#     Edge 18, Type (0, 1), BuildingBlock: KIFKEQ_clean_linker_1, # of connection points: 2
#     Edge 19, Type (0, 1), BuildingBlock: KIFKEQ_clean_linker_1, # of connection points: 2
#     Edge 20, Type (0, 1), BuildingBlock: KIFKEQ_clean_linker_1, # of connection points: 2
#     Edge 21, Type (0, 1), BuildingBlock: KIFKEQ_clean_linker_1, # of connection points: 2
#     Edge 22, Type (0, 1), BuildingBlock: KIFKEQ_clean_linker_1, # of connection points: 2
#     Edge 23, Type (0, 1), BuildingBlock: KIFKEQ_clean_linker_1, # of connection points: 2
#     Edge 24, Type (0, 1), BuildingBlock: KIFKEQ_clean_linker_1, # of connection points: 2
#     Edge 25, Type (0, 1), BuildingBlock: KIFKEQ_clean_linker_1, # of connection points: 2
#     Edge 26, Type (0, 1), BuildingBlock: KIFKEQ_clean_linker_1, # of connection points: 2
# Relax obj value: 0.233
# Max RMSD: 0.144
# Mean RMSD: 0.106
data_MOF--net-anh--node1-HISSIN_clean_sbu_0--node2-BETDAH_clean_linker_0--edge1-KIFKEQ_clean_linker_1
_symmetry_space_group_name_H-M    P1
_symmetry_Int_Tables_number       1
_symmetry_cell_setting            triclinic
loop_
_symmetry_equiv_pos_as_xyz
'x, y, z'
_cell_length_a     30.455933
_cell_length_b     30.439608
_cell_length_c     50.435092
_cell_angle_alpha  94.87892
_cell_angle_beta   89.229139
_cell_angle_gamma 120.18278
loop_
_atom_site_label
_atom_site_type_symbol
_atom_site_fract_x
_atom_site_fract_y
_atom_site_fract_z
_atom_type_partial_charge
Eu0 Eu 1.04731 0.5493 0.16695 0.0
Eu1 Eu 1.1112 0.67378 0.16786 0.0
C2 C 1.08432 0.61952 0.22207 0.0
C3 C 0.99393 0.40485 0.15221 0.0
C4 C 0.94682 0.36374 0.14287 0.0
C5 C 1.0333 0.35388 0.14013 0.0
C6 C 0.94256 0.31748 0.13306 0.0
C7 C 1.03758 0.40036 0.14981 0.0
C8 C 0.98541 0.31141 0.1326 0.0
C9 C 0.99557 0.45003 0.16628 0.0
O10 O 0.17058 0.65065 0.17204 0.0
O11 O 1.12635 0.56711 0.15447 0.0
C12 C 0.16967 0.60902 0.16166 0.0
O13 O 1.0485 0.56445 0.12443 0.0
O14 O 0.16397 0.74791 0.18844 0.0
O15 O 1.13351 0.74391 0.14922 0.0
O16 O 1.11844 0.64465 0.12609 0.0
C17 C 1.08528 0.60167 0.1127 0.0
O18 O 0.98964 0.5748 0.17604 0.0
O19 O 1.03021 0.65244 0.15879 0.0
O20 O 1.08475 0.65642 0.21008 0.0
O21 O 1.03453 0.47932 0.18236 0.0
O22 O 0.98192 0.47584 0.15259 0.0
O23 O 1.08056 0.57936 0.20827 0.0
C24 C 0.22017 0.80229 0.15871 0.0
C25 C 0.24075 0.7778 0.14249 0.0
C26 C 0.30373 0.87795 0.16454 0.0
C27 C 0.29268 0.80266 0.13795 0.0
C28 C 0.2516 0.85294 0.16911 0.0
C29 C 0.32499 0.85236 0.1497 0.0
C30 C 0.16809 0.77243 0.16772 0.0
C31 C 0.98868 0.61348 0.16671 0.0
H32 H 0.91277 0.36655 0.14444 0.0
H33 H 1.06699 0.35039 0.13981 0.0
H34 H 0.905 0.28542 0.12779 0.0
H35 H 1.07457 0.43191 0.15654 0.0
H36 H 0.2171 0.73845 0.13448 0.0
H37 H 0.32778 0.91603 0.17411 0.0
H38 H 0.30793 0.78215 0.12629 0.0
H39 H 0.23636 0.87214 0.1819 0.0
Eu40 Eu 0.65404 1.07077 0.50938 0.0
Eu41 Eu 0.59624 0.1351 0.50011 0.0
C42 C 0.61891 0.11733 0.55984 0.0
C43 C 0.74311 1.01456 0.50313 0.0
C44 C 0.73374 0.96517 0.49548 0.0
C45 C 0.83244 1.04825 0.49391 0.0
C46 C 0.77352 0.95715 0.48781 0.0
C47 C 0.79249 1.05629 0.50144 0.0
C48 C 0.82358 0.99844 0.48783 0.0
C49 C 0.70186 1.02081 0.51492 0.0
O50 O 0.67835 0.19447 0.50875 0.0
O51 O 0.71498 0.14686 0.49539 0.0
C52 C 0.71799 0.19152 0.50063 0.0
O53 O 0.62758 1.0537 0.46676 0.0
O54 O 0.57115 0.18829 0.5143 0.0
O55 O 0.55605 0.15673 0.47322 0.0
O56 O 0.63229 0.12932 0.46125 0.0
C57 C 0.63201 1.08791 0.45133 0.0
O58 O 0.57119 1.01602 0.51713 0.0
O59 O 0.53401 1.05251 0.49482 0.0
O60 O 0.58923 0.1246 0.54427 0.0
O61 O 0.71429 1.0644 0.52814 0.0
O62 O 0.66008 1.00247 0.50056 0.0
O63 O 0.65052 0.10308 0.55037 0.0
C64 C 0.58331 0.24411 0.48251 0.0
C65 C 0.62958 0.26284 0.46951 0.0
C66 C 0.59798 0.3303 0.49003 0.0
C67 C 0.66059 0.31509 0.46757 0.0
C68 C 0.56686 0.27788 0.49192 0.0
C69 C 0.64612 0.34955 0.47885 0.0
C70 C 0.55766 0.1919 0.49056 0.0
C71 C 0.53117 1.01341 0.50568 0.0
H72 H 0.69596 0.93247 0.49664 0.0
H73 H 0.87057 1.08079 0.4939 0.0
H74 H 0.76548 0.91826 0.48362 0.0
H75 H 0.80068 0.09492 0.50696 0.0
H76 H 0.64333 0.23747 0.46237 0.0
H77 H 0.586 0.35592 0.49914 0.0
H78 H 0.69725 0.32877 0.45864 0.0
H79 H 0.53158 0.26413 0.5023 0.0
Eu80 Eu 0.65076 0.689 0.82893 0.0
Eu81 Eu 0.76826 0.75328 0.8526 0.0
C82 C 0.67686 0.70681 0.89168 0.0
C83 C 0.51617 0.63101 0.7929 0.0
C84 C 0.48221 0.64553 0.80376 0.0
C85 C 0.45713 0.58551 0.75512 0.0
C86 C 0.43509 0.62795 0.79113 0.0
C87 C 0.50426 0.60298 0.76782 0.0
C88 C 0.42084 0.59527 0.76743 0.0
C89 C 0.5576 0.63519 0.80974 0.0
O90 O 0.7498 0.67085 0.85266 0.0
O91 O 0.67424 0.62972 0.82813 0.0
C92 C 0.71206 0.62937 0.84012 0.0
O93 O 0.70145 0.7251 0.79469 0.0
O94 O 0.82681 0.77456 0.88339 0.0
O95 O 0.8466 0.81227 0.84689 0.0
O96 O 0.76904 0.722 0.81089 0.0
C97 C 0.74395 0.72468 0.79086 0.0
O98 O 0.66462 0.76911 0.83747 0.0
O99 O 0.75184 0.81262 0.83853 0.0
O100 O 0.71872 0.74884 0.88706 0.0
O101 O 0.59625 0.63543 0.79812 0.0
O102 O 0.57023 0.66368 0.83236 0.0
O103 O 0.64993 0.67291 0.87197 0.0
C104 C 0.90378 0.79045 0.86364 0.0
C105 C 0.94979 0.82523 0.85274 0.0
C106 C 0.92949 0.72672 0.85962 0.0
C107 C 0.98518 0.8105 0.8449 0.0
C108 C 0.89425 0.74124 0.86726 0.0
C109 C 0.97481 0.76067 0.84779 0.0
C110 C 0.86353 0.80329 0.8682 0.0
C111 C 0.70833 0.8118 0.83682 0.0
H112 H 0.49011 0.66693 0.82309 0.0
H113 H 0.44769 0.56117 0.73667 0.0
H114 H 0.40816 0.63604 0.80142 0.0
H115 H 0.52969 0.59113 0.75896 0.0
H116 H 0.9576 0.86321 0.84952 0.0
H117 H 0.9209 0.68848 0.86283 0.0
H118 H 1.01978 0.83749 0.83589 0.0
H119 H 0.85895 0.71336 0.87537 0.0
H120 H 0.63926 1.01132 0.24912 0.0
H121 H 0.77505 1.01074 0.27072 0.0
H122 H 0.71698 0.96847 0.18985 0.0
C123 C 0.67124 1.00675 0.2434 0.0
C124 C 0.67406 0.98996 0.21694 0.0
C125 C 0.70751 1.01486 0.26298 0.0
C126 C 0.74661 1.00474 0.25595 0.0
C127 C 0.75047 0.98873 0.22958 0.0
C128 C 0.71425 0.98151 0.21013 0.0
N129 N 0.79143 0.98076 0.22283 0.0
C130 C 0.81781 0.9983 0.19982 0.0
H131 H 0.82606 0.66549 0.59509 0.0
H132 H 0.96229 0.80887 0.6165 0.0
H133 H 0.93987 0.73647 0.53715 0.0
C134 C 0.86197 0.69704 0.58968 0.0
C135 C 0.87899 0.69606 0.56373 0.0
C136 C 0.89121 0.73765 0.60891 0.0
C137 C 0.93931 0.77672 0.60218 0.0
C138 C 0.9567 0.77633 0.57635 0.0
C139 C 0.92645 0.73611 0.55718 0.0
N140 N 1.00298 0.81841 0.56926 0.0
C141 C 1.00305 0.84439 0.54795 0.0
H142 H 1.1282 0.60499 0.91102 0.0
H143 H 1.09108 0.45016 0.9151 0.0
H144 H 1.11654 0.51208 0.83926 0.0
C145 C 1.12332 0.56993 0.90087 0.0
C146 C 1.12398 0.56409 0.87292 0.0
C147 C 1.11244 0.52958 0.91618 0.0
C148 C 1.10068 0.48195 0.90345 0.0
C149 C 1.10256 0.47552 0.87572 0.0
C150 C 1.11521 0.517 0.86063 0.0
N151 N 1.09095 0.42698 0.86333 0.0
C152 C 1.10825 0.42193 0.83828 0.0
H153 H 0.21224 0.70641 0.41846 0.0
H154 H 1.07003 0.57038 0.4302 0.0
H155 H 0.1732 0.65667 0.49694 0.0
C156 C 0.1861 0.67913 0.43159 0.0
C157 C 0.19851 0.68671 0.45892 0.0
C158 C 1.13969 0.63781 0.42109 0.0
C159 C 1.10548 0.60266 0.43825 0.0
C160 C 1.11783 0.60897 0.46569 0.0
C161 C 0.16389 0.65157 0.47582 0.0
N162 N 1.08572 0.57369 0.48387 0.0
C163 C 1.04013 0.52782 0.47794 0.0
H164 H 0.67911 0.29325 0.75308 0.0
H165 H 0.68975 0.16165 0.76825 0.0
H166 H 0.71449 0.2752 0.8322 0.0
C167 C 0.68598 0.27163 0.76674 0.0
C168 C 0.69765 0.29059 0.7937 0.0
C169 C 0.68289 0.22521 0.75716 0.0
C170 C 0.69141 0.19709 0.77525 0.0
C171 C 0.70289 0.21516 0.80235 0.0
C172 C 0.70616 0.26185 0.81127 0.0
N173 N 0.7112 0.18776 0.82138 0.0
C174 C 0.70968 0.14108 0.81652 0.0
H175 H 0.69173 0.62439 0.0805 0.0
H176 H 0.55596 0.63274 0.09379 0.0
H177 H 0.63274 0.61341 0.15908 0.0
C178 C 0.66295 0.62313 0.09382 0.0
C179 C 0.66718 0.6179 0.12093 0.0
C180 C 0.62348 0.62916 0.0839 0.0
C181 C 0.58667 0.6286 0.10138 0.0
C182 C 0.58944 0.62219 0.12853 0.0
C183 C 0.63027 0.61779 0.13814 0.0
N184 N 0.5524 0.61997 0.14691 0.0
C185 C 0.50814 0.62126 0.14132 0.0
H186 H 0.18696 0.52948 0.14725 0.0
H187 H 0.26548 0.69288 0.16576 0.0
H188 H 0.26856 0.53339 0.14083 0.0
H189 H 0.34645 0.69709 0.15854 0.0
H190 H 0.48624 0.68239 0.17337 0.0
H191 H 0.40478 0.67917 0.17758 0.0
H192 H 0.34049 0.55795 0.11377 0.0
H193 H 0.42232 0.56066 0.11033 0.0
C194 C 0.22152 0.56628 0.14983 0.0
C195 C 0.21928 0.61072 0.15733 0.0
C196 C 0.26853 0.56865 0.14593 0.0
C197 C 0.31476 0.61557 0.14925 0.0
C198 C 0.31219 0.66002 0.15633 0.0
C199 C 0.26538 0.65761 0.16038 0.0
C200 C 0.45479 0.65553 0.16004 0.0
C201 C 0.46067 0.62217 0.14136 0.0
C202 C 0.40791 0.65367 0.16236 0.0
C203 C 0.36538 0.61829 0.14602 0.0
C204 C 0.37181 0.58529 0.127 0.0
C205 C 0.41888 0.58715 0.12475 0.0
H206 H 0.81393 0.20695 0.48984 0.0
H207 H 0.73028 0.28677 0.50043 0.0
H208 H 0.89119 0.28762 0.4828 0.0
H209 H 0.80619 0.36612 0.49243 0.0
H210 H 0.95991 0.51013 0.50744 0.0
H211 H 0.88326 0.42862 0.51247 0.0
H212 H 0.93601 0.35441 0.45424 0.0
H213 H 1.01386 0.43665 0.45006 0.0
C214 C 0.81187 0.24153 0.49056 0.0
C215 C 0.76574 0.2401 0.49604 0.0
C216 C 0.85618 0.28789 0.4863 0.0
C217 C 0.85546 0.33403 0.48722 0.0
C218 C 0.80894 0.33204 0.49219 0.0
C219 C 0.76504 0.28609 0.49666 0.0
C220 C 0.9547 0.47644 0.49547 0.0
C221 C 0.99235 0.4797 0.47813 0.0
C222 C 0.9106 0.4295 0.49827 0.0
C223 C 0.90277 0.38429 0.48371 0.0
C224 C 0.94062 0.38796 0.46605 0.0
C225 C 0.985 0.43515 0.46336 0.0
H226 H 0.62688 0.82719 0.83393 0.0
H227 H 0.79061 0.90655 0.83099 0.0
H228 H 0.62777 0.9062 0.82761 0.0
H229 H 0.79142 0.98508 0.82398 0.0
H230 H 0.77936 0.12894 0.84175 0.0
H231 H 0.77902 1.04952 0.84624 0.0
H232 H 0.64193 0.96707 0.79654 0.0
H233 H 0.64207 1.04706 0.79277 0.0
C234 C 0.66312 0.86139 0.83186 0.0
C235 C 0.70869 0.86024 0.83315 0.0
C236 C 0.6636 0.90679 0.82799 0.0
C237 C 0.70967 0.95246 0.82524 0.0
C238 C 0.75519 0.95112 0.82641 0.0
C239 C 0.75471 0.9058 0.83034 0.0
C240 C 0.74952 1.09382 0.83157 0.0
C241 C 0.71099 1.094 0.81676 0.0
C242 C 0.74932 1.04819 0.83405 0.0
C243 C 0.71045 1.00142 0.82177 0.0
C244 C 0.67214 1.00201 0.8066 0.0
C245 C 0.67239 1.04784 0.80417 0.0
H246 H 0.89158 0.53062 0.16313 0.0
H247 H 0.97414 0.69469 0.16336 0.0
H248 H 0.81194 0.52944 0.15437 0.0
H249 H 0.89461 0.69348 0.1551 0.0
H250 H 0.73381 0.67337 0.16311 0.0
H251 H 0.80973 0.67117 0.17678 0.0
H252 H 0.77533 0.55053 0.11483 0.0
H253 H 0.70008 0.55331 0.10097 0.0
C254 C 0.89273 0.56649 0.16172 0.0
C255 C 0.93946 0.61274 0.16394 0.0
C256 C 0.84709 0.56578 0.15653 0.0
C257 C 0.84678 0.61137 0.15399 0.0
C258 C 0.8933 0.6577 0.15712 0.0
C259 C 0.93899 0.65833 0.16175 0.0
C260 C 0.74217 0.64599 0.15264 0.0
C261 C 0.71086 0.61356 0.13093 0.0
C262 C 0.78585 0.64495 0.16034 0.0
C263 C 0.79874 0.61068 0.1469 0.0
C264 C 0.76643 0.57712 0.12576 0.0
C265 C 0.72342 0.57889 0.11773 0.0
H266 H 0.43564 0.99899 0.49883 0.0
H267 H 0.51492 0.91625 0.50662 0.0
H268 H 0.35554 0.91832 0.49072 0.0
H269 H 0.43471 0.83545 0.49797 0.0
H270 H 0.29399 0.71617 0.44161 0.0
H271 H 0.374 0.79332 0.45626 0.0
H272 H 0.29403 0.83722 0.514 0.0
H273 H 0.21395 0.75933 0.4996 0.0
C274 C 0.43595 0.9636 0.49906 0.0
C275 C 0.48183 0.96421 0.5034 0.0
C276 C 0.38995 0.91734 0.49451 0.0
C277 C 0.38871 0.87042 0.49362 0.0
C278 C 0.43441 0.87094 0.49841 0.0
C279 C 0.48032 0.91725 0.50353 0.0
C280 C 0.29361 0.74204 0.45763 0.0
C281 C 0.24765 0.73167 0.46945 0.0
C282 C 0.33947 0.78609 0.46612 0.0
C283 C 0.34043 0.82148 0.48628 0.0
C284 C 0.29454 0.81081 0.49835 0.0
C285 C 0.24877 0.76612 0.49023 0.0
H286 H 0.62953 0.53406 0.83417 0.0
H287 H 0.79322 0.61256 0.84134 0.0
H288 H 0.62662 0.45298 0.82605 0.0
H289 H 0.79064 0.5308 0.83203 0.0
H290 H 0.76466 0.36726 0.8307 0.0
H291 H 0.76898 0.44823 0.84508 0.0
H292 H 0.64233 0.40777 0.79139 0.0
H293 H 0.63617 0.32644 0.77839 0.0
C294 C 0.66507 0.534 0.834 0.0
C295 C 0.71163 0.58 0.83817 0.0
C296 C 0.66345 0.4873 0.82909 0.0
C297 C 0.70841 0.48491 0.8277 0.0
C298 C 0.75512 0.53081 0.83299 0.0
C299 C 0.75669 0.57781 0.8383 0.0
C300 C 0.73724 0.37535 0.82228 0.0
C301 C 0.70015 0.33998 0.80324 0.0
C302 C 0.74015 0.42222 0.8303 0.0
C303 C 0.70596 0.435 0.81956 0.0
C304 C 0.66888 0.3994 0.8006 0.0
C305 C 0.66582 0.35271 0.79274 0.0
H306 H 0.83374 0.93082 0.45232 0.0
H307 H 0.90936 1.04221 0.51937 0.0
H308 H 0.89219 0.89886 0.45715 0.0
H309 H 0.96662 1.01002 0.52459 0.0
H310 H 1.05965 0.94324 0.53794 0.0
H311 H 1.03033 0.98958 0.51273 0.0
H312 H 0.89143 0.84778 0.49049 0.0
H313 H 0.92188 0.80218 0.51478 0.0
C314 C 0.86364 0.94927 0.46765 0.0
C315 C 0.86642 0.9884 0.48575 0.0
C316 C 0.89704 0.93094 0.47047 0.0
C317 C 0.93347 0.95107 0.49161 0.0
C318 C 0.93944 0.9937 0.50793 0.0
C319 C 0.90636 1.01222 0.50498 0.0
C320 C 1.02382 0.92212 0.52671 0.0
C321 C 0.99277 0.86952 0.52813 0.0
C322 C 1.0068 0.94852 0.51246 0.0
C323 C 0.95815 0.92262 0.49988 0.0
C324 C 0.92929 0.86909 0.49959 0.0
C325 C 0.94651 0.84283 0.51364 0.0
H326 H 0.95108 0.66909 0.82191 0.0
H327 H 1.07931 0.81281 0.85271 0.0
H328 H 1.00418 0.63176 0.81741 0.0
H329 H 1.13469 0.77682 0.84587 0.0
H330 H 0.17458 0.66858 0.8855 0.0
H331 H 0.15107 0.72616 0.86912 0.0
H332 H 1.06385 0.61323 0.80424 0.0
H333 H 1.0806 0.55289 0.82308 0.0
C334 C 0.99118 0.69312 0.82713 0.0
C335 C 1.01051 0.74314 0.8388 0.0
C336 C 1.02233 0.67196 0.82402 0.0
C337 C 1.07415 0.70061 0.83197 0.0
C338 C 1.09473 0.7528 0.84047 0.0
C339 C 1.06308 0.77375 0.84411 0.0
C340 C 0.14994 0.65566 0.86786 0.0
C341 C 1.12656 0.60453 0.85698 0.0
C342 C 1.13731 0.68946 0.85794 0.0
C343 C 1.10271 0.67353 0.83613 0.0
C344 C 1.08784 0.62588 0.82212 0.0
C345 C 1.09849 0.59127 0.83276 0.0
H346 H 0.37726 0.80418 0.15854 0.0
H347 H 0.39874 0.95043 0.14184 0.0
H348 H 0.46771 0.84195 0.1664 0.0
H349 H 0.49051 0.98862 0.14898 0.0
H350 H 0.62392 1.04233 0.21099 0.0
H351 H 0.54385 1.01138 0.18699 0.0
H352 H 0.5517 0.88049 0.15267 0.0
H353 H 0.62985 0.9095 0.17843 0.0
C354 C 0.40162 0.8442 0.15564 0.0
C355 C 0.38086 0.87443 0.14973 0.0
C356 C 0.4538 0.86598 0.16006 0.0
C357 C 0.48673 0.91857 0.1585 0.0
C358 C 0.46623 0.9482 0.15085 0.0
C359 C 0.41374 0.92639 0.14669 0.0
C360 C 0.6087 1.00705 0.19821 0.0
C361 C 0.63252 0.97761 0.19733 0.0
C362 C 0.56305 0.98965 0.18404 0.0
C363 C 0.54052 0.94274 0.16828 0.0
C364 C 0.56719 0.91606 0.16521 0.0
C365 C 0.61249 0.93308 0.17973 0.0
H366 H 0.74462 0.39315 0.49549 0.0
H367 H 0.63234 0.43064 0.47225 0.0
H368 H 0.80336 0.4821 0.50916 0.0
H369 H 0.69175 0.52077 0.48578 0.0
H370 H 0.77603 0.64772 0.55519 0.0
H371 H 0.72257 0.56833 0.52813 0.0
H372 H 0.85645 0.56784 0.49892 0.0
H373 H 0.90993 0.64594 0.52729 0.0
C374 C 0.73316 0.42075 0.4924 0.0
C375 C 0.68388 0.40486 0.48275 0.0
C376 C 0.76693 0.47198 0.50028 0.0
C377 C 0.7523 0.50874 0.49871 0.0
C378 C 0.70394 0.49329 0.48764 0.0
C379 C 0.66996 0.44178 0.47983 0.0
C380 C 0.79408 0.63074 0.54293 0.0
C381 C 0.84718 0.65251 0.54388 0.0
C382 C 0.76341 0.58558 0.52705 0.0
C383 C 0.78514 0.5613 0.51153 0.0
C384 C 0.83844 0.58507 0.51101 0.0
C385 C 0.86915 0.63012 0.52708 0.0
H386 H 0.3486 0.62413 0.76729 0.0
H387 H 0.3684 0.49374 0.75003 0.0
H388 H 0.25828 0.56725 0.77208 0.0
H389 H 0.27771 0.43703 0.75331 0.0
H390 H 0.17529 0.39082 0.82897 0.0
H391 H 0.24166 0.42338 0.79666 0.0
H392 H 0.17173 0.49959 0.76208 0.0
H393 H 1.10525 0.46676 0.79493 0.0
C394 C 0.33339 0.5834 0.7634 0.0
C395 C 0.36608 0.56358 0.75936 0.0
C396 C 0.28133 0.55062 0.76584 0.0
C397 C 0.26104 0.49744 0.76398 0.0
C398 C 0.29248 0.47783 0.75559 0.0
C399 C 0.34461 0.51058 0.75343 0.0
C400 C 0.173 0.41263 0.81368 0.0
C401 C 1.13593 0.42684 0.81438 0.0
C402 C 0.21091 0.43125 0.79502 0.0
C403 C 0.21249 0.46483 0.77694 0.0
C404 C 0.17194 0.47442 0.77595 0.0
C405 C 1.13386 0.45555 0.79464 0.0
H406 H 1.02765 0.27201 0.16308 0.0
H407 H 0.92488 0.23227 0.09553 0.0
H408 H 0.9936 0.18282 0.16861 0.0
H409 H 0.89099 0.14187 0.1007 0.0
H410 H 0.91543 1.02869 0.18868 0.0
H411 H 0.968 0.09552 0.15973 0.0
H412 H 0.83471 0.09952 0.13483 0.0
H413 H 0.78296 1.03212 0.16285 0.0
C414 C 0.99948 0.24415 0.14853 0.0
C415 C 0.97793 0.25918 0.12934 0.0
C416 C 0.97983 0.19257 0.15167 0.0
C417 C 0.93833 0.15496 0.13559 0.0
C418 C 0.9219 0.16995 0.11393 0.0
C419 C 0.94136 0.22168 0.11092 0.0
C420 C 0.89744 1.04262 0.17605 0.0
C421 C 0.84559 1.02595 0.1779 0.0
C422 C 0.92743 1.08101 0.15962 0.0
C423 C 0.9059 0.10374 0.14529 0.0
C424 C 0.85281 1.08289 0.14528 0.0
C425 C 0.82298 1.04437 0.16152 0.0
H426 H 1.04866 0.50961 0.08457 0.0
H427 H 1.13602 0.67146 0.07631 0.0
H428 H 1.05815 0.49149 0.0379 0.0
H429 H 0.14351 0.65332 0.02879 0.0
H430 H 0.18629 0.60433 0.94962 0.0
H431 H 0.18179 0.62217 -0.00262 0.0
H432 H 1.02898 0.49252 -0.00436 0.0
H433 H 1.03488 0.47373 0.94821 0.0
C434 C 1.06934 0.54146 0.07263 0.0
C435 C 1.09117 0.59205 0.08405 0.0
C436 C 1.07458 0.53099 0.04575 0.0
C437 C 1.10111 0.57082 0.02937 0.0
C438 C 1.12331 0.62161 0.04084 0.0
C439 C 1.11875 0.63213 0.068 0.0
C440 C 0.15207 0.57943 0.95967 0.0
C441 C 1.11104 0.53748 0.94542 0.0
C442 C 0.14923 0.58991 0.98694 0.0
C443 C 1.10494 0.55902 0.00046 0.0
C444 C 1.06409 0.51667 0.98609 0.0
C445 C 1.0673 0.50579 0.9589 0.0
H446 H 0.60994 0.99876 0.42348 0.0
H447 H 0.67464 0.1596 0.41502 0.0
H448 H 0.63176 0.98558 0.37829 0.0
H449 H 0.69782 0.14652 0.36949 0.0
H450 H 0.68143 1.0864 0.27992 0.0
H451 H 0.66314 0.10658 0.32505 0.0
H452 H 0.70685 1.0042 0.35432 0.0
H453 H 0.72254 0.98201 0.30908 0.0
C454 C 0.62888 1.03141 0.41191 0.0
C455 C 0.64087 1.08032 0.42287 0.0
C456 C 0.64183 1.02389 0.38604 0.0
C457 C 0.66751 1.06513 0.37043 0.0
C458 C 0.67802 0.11393 0.38101 0.0
C459 C 0.6647 0.12145 0.40703 0.0
C460 C 0.68702 1.0681 0.29601 0.0
C461 C 0.70271 1.03195 0.29083 0.0
C462 C 0.67708 1.08015 0.32191 0.0
C463 C 0.68281 1.05648 0.34325 0.0
C464 C 0.70096 1.0223 0.33824 0.0
C465 C 0.71066 1.01007 0.31233 0.0
H466 H 0.81894 0.70545 0.77522 0.0
H467 H 0.71605 0.75034 0.74576 0.0
H468 H 0.85455 0.71081 0.73151 0.0
H469 H 0.75316 0.75762 0.70197 0.0
H470 H 0.79332 0.71058 0.62078 0.0
H471 H 0.75774 0.70788 0.66437 0.0
H472 H 0.90693 0.76954 0.70126 0.0
H473 H 0.94198 0.76905 0.65761 0.0
C474 C 0.80414 0.71687 0.75942 0.0
C475 C 0.76461 0.72747 0.76396 0.0
C476 C 0.82493 0.72037 0.73435 0.0
C477 C 0.80712 0.73506 0.71318 0.0
C478 C 0.76745 0.74561 0.71771 0.0
C479 C 0.74624 0.74161 0.74282 0.0
C480 C 0.81852 0.72299 0.63819 0.0
C481 C 0.87047 0.73933 0.63565 0.0
C482 C 0.79817 0.7222 0.66323 0.0
C483 C 0.82932 0.73827 0.68643 0.0
C484 C 0.88158 0.75601 0.68386 0.0
C485 C 0.90188 0.75638 0.65879 0.0
H486 H 0.59658 0.18432 0.58819 0.0
H487 H 0.64321 1.07388 0.59775 0.0
H488 H 0.60846 0.20826 0.63637 0.0
H489 H 0.6543 0.09724 0.6457 0.0
H490 H 0.62479 0.1262 0.73451 0.0
H491 H 0.60365 0.0968 0.68732 0.0
H492 H 0.68973 0.25235 0.66711 0.0
H493 H 0.71303 0.28181 0.71387 0.0
C494 C 0.60838 0.16451 0.6006 0.0
C495 C 0.61916 0.12739 0.58916 0.0
C496 C 0.61554 0.17844 0.62812 0.0
C497 C 0.63255 0.15475 0.64477 0.0
C498 C 0.64093 0.11597 0.63344 0.0
C499 C 0.63476 0.10278 0.60594 0.0
C500 C 0.63986 0.1542 0.72005 0.0
C501 C 0.67048 0.20656 0.72827 0.0
C502 C 0.62734 0.1373 0.69301 0.0
C503 C 0.64447 0.17236 0.67357 0.0
C504 C 0.67504 0.22453 0.68168 0.0
C505 C 0.68828 0.24136 0.70859 0.0
H506 H 0.71374 0.77246 0.93705 0.0
H507 H 0.6071 0.61556 0.90971 0.0
H508 H 0.69427 0.75223 0.98315 0.0
H509 H 0.58795 0.59545 0.9558 0.0
H510 H 0.63053 0.57307 0.04065 0.0
H511 H 0.63798 0.59155 -0.00594 0.0
H512 H 0.62272 0.72336 0.01591 0.0
H513 H 0.6151 0.70463 0.06267 0.0
C514 C 0.68582 0.73378 0.94083 0.0
C515 C 0.66213 0.69563 0.91962 0.0
C516 C 0.67446 0.72226 0.96726 0.0
C517 C 0.63966 0.67219 0.97315 0.0
C518 C 0.61522 0.63429 0.95194 0.0
C519 C 0.62605 0.64593 0.9255 0.0
C520 C 0.62821 0.60566 0.03544 0.0
C521 C 0.62229 0.63744 0.0553 0.0
C522 C 0.63221 0.61612 0.00875 0.0
C523 C 0.63111 0.65903 0.00128 0.0
C524 C 0.62407 0.69023 0.02107 0.0
C525 C 0.61927 0.67928 0.04777 0.0
H526 H 1.10952 0.56296 0.25041 0.0
H527 H 1.07238 0.68286 0.26056 0.0
H528 H 1.11995 0.56645 0.29828 0.0
H529 H 1.0826 0.68588 0.30916 0.0
H530 H 1.05507 0.62745 0.39606 0.0
H531 H 1.04005 0.62472 0.34795 0.0
H532 H 0.18402 0.63361 0.3329 0.0
H533 H 0.19907 0.63677 0.38065 0.0
C534 C 1.10333 0.59004 0.26284 0.0
C535 C 1.09016 0.62275 0.25153 0.0
C536 C 1.10954 0.59208 0.29036 0.0
C537 C 1.1022 0.62645 0.30748 0.0
C538 C 1.08821 0.65878 0.29639 0.0
C539 C 1.0827 0.65729 0.26862 0.0
C540 C 1.08316 0.62835 0.38236 0.0
C541 C 1.12812 0.63209 0.39203 0.0
C542 C 1.07486 0.62738 0.35493 0.0
C543 C 1.11094 0.6291 0.33669 0.0
C544 C 0.15544 0.63201 0.34644 0.0
C545 C 0.16407 0.63383 0.37375 0.0
loop_
_geom_bond_atom_site_label_1
_geom_bond_atom_site_label_2
_geom_bond_distance
_geom_bond_site_symmetry_2
_ccdc_geom_bond_type
Eu0 C9 2.828 . S
Eu0 O11 2.392 1_655 S
Eu0 O13 2.418 . S
Eu0 O18 2.373 . S
Eu0 O21 2.488 . S
Eu0 O22 2.471 . S
Eu0 O23 2.349 1_655 S
Eu1 O10 2.373 . S
Eu1 O14 2.488 . S
Eu1 O15 2.471 . S
Eu1 O16 2.349 . S
Eu1 O19 2.392 1_455 S
Eu1 O20 2.418 . S
Eu1 C30 2.828 . S
C2 O20 1.244 . S
C2 O23 1.265 . S
C3 C4 1.379 . S
C3 C7 1.373 . S
C3 C9 1.505 . S
C4 C3 1.379 . S
C4 C6 1.369 . S
C4 H32 0.930 . S
C5 C7 1.383 . S
C5 C8 1.382 . S
C5 H33 0.930 . S
C6 C4 1.369 . S
C6 C8 1.392 . S
C6 H34 0.930 . S
C7 C3 1.373 . S
C7 C5 1.383 . S
C7 H35 0.931 . S
C8 C5 1.382 . S
C8 C6 1.392 . S
C9 Eu0 2.828 . S
C9 C3 1.505 . S
C9 O21 1.249 . S
C9 O22 1.244 . S
O10 Eu1 2.373 . S
O10 C12 1.258 . S
O11 Eu0 2.392 1_455 S
O11 C12 1.242 . S
C12 O10 1.258 . S
C12 O11 1.242 . S
O13 Eu0 2.418 . S
O13 C17 1.244 1_655 S
O14 Eu1 2.488 . S
O14 C30 1.249 . S
O15 Eu1 2.471 . S
O15 C30 1.244 . S
O16 Eu1 2.349 . S
O16 C17 1.265 . S
C17 O13 1.244 1_455 S
C17 O16 1.265 . S
O18 Eu0 2.373 . S
O18 C31 1.258 . S
O19 Eu1 2.392 1_655 S
O19 C31 1.242 . S
O20 Eu1 2.418 . S
O20 C2 1.244 . S
O21 Eu0 2.488 . S
O21 C9 1.249 . S
O22 Eu0 2.471 . S
O22 C9 1.244 . S
O23 Eu0 2.349 1_455 S
O23 C2 1.265 . S
C24 C25 1.379 . S
C24 C28 1.373 . S
C24 C30 1.505 . S
C25 C24 1.379 . S
C25 C27 1.369 . S
C25 H36 0.930 . S
C26 C28 1.383 . S
C26 C29 1.382 . S
C26 H37 0.930 . S
C27 C25 1.369 . S
C27 C29 1.392 . S
C27 H38 0.930 . S
C28 C24 1.373 . S
C28 C26 1.383 . S
C28 H39 0.931 . S
C29 C26 1.382 . S
C29 C27 1.392 . S
C30 Eu1 2.828 . S
C30 O14 1.249 . S
C30 O15 1.244 . S
C30 C24 1.505 . S
C31 O18 1.258 . S
C31 O19 1.242 . S
H32 C4 0.930 . S
H33 C5 0.930 . S
H34 C6 0.930 . S
H35 C7 0.931 . S
H36 C25 0.930 . S
H37 C26 0.930 . S
H38 C27 0.930 . S
H39 C28 0.931 . S
Eu40 C49 2.828 . S
Eu40 O51 2.392 1_565 S
Eu40 O53 2.418 . S
Eu40 O58 2.373 . S
Eu40 O61 2.488 . S
Eu40 O62 2.471 . S
Eu40 O63 2.349 1_565 S
Eu41 O50 2.373 . S
Eu41 O54 2.488 . S
Eu41 O55 2.471 . S
Eu41 O56 2.349 . S
Eu41 O59 2.392 1_545 S
Eu41 O60 2.418 . S
Eu41 C70 2.828 . S
C42 O60 1.244 . S
C42 O63 1.265 . S
C43 C44 1.379 . S
C43 C47 1.373 . S
C43 C49 1.505 . S
C44 C43 1.379 . S
C44 C46 1.369 . S
C44 H72 0.930 . S
C45 C47 1.383 . S
C45 C48 1.382 . S
C45 H73 0.930 . S
C46 C44 1.369 . S
C46 C48 1.392 . S
C46 H74 0.930 . S
C47 C43 1.373 . S
C47 C45 1.383 . S
C47 H75 0.931 . S
C48 C45 1.382 . S
C48 C46 1.392 . S
C49 Eu40 2.828 . S
C49 C43 1.505 . S
C49 O61 1.249 . S
C49 O62 1.244 . S
O50 Eu41 2.373 . S
O50 C52 1.258 . S
O51 Eu40 2.392 1_545 S
O51 C52 1.242 . S
C52 O50 1.258 . S
C52 O51 1.242 . S
O53 Eu40 2.418 . S
O53 C57 1.244 1_565 S
O54 Eu41 2.488 . S
O54 C70 1.249 . S
O55 Eu41 2.471 . S
O55 C70 1.244 . S
O56 Eu41 2.349 . S
O56 C57 1.265 . S
C57 O53 1.244 1_545 S
C57 O56 1.265 . S
O58 Eu40 2.373 . S
O58 C71 1.258 . S
O59 Eu41 2.392 1_565 S
O59 C71 1.242 . S
O60 Eu41 2.418 . S
O60 C42 1.244 . S
O61 Eu40 2.488 . S
O61 C49 1.249 . S
O62 Eu40 2.471 . S
O62 C49 1.244 . S
O63 Eu40 2.349 1_545 S
O63 C42 1.265 . S
C64 C65 1.379 . S
C64 C68 1.373 . S
C64 C70 1.505 . S
C65 C64 1.379 . S
C65 C67 1.369 . S
C65 H76 0.930 . S
C66 C68 1.383 . S
C66 C69 1.382 . S
C66 H77 0.930 . S
C67 C65 1.369 . S
C67 C69 1.392 . S
C67 H78 0.930 . S
C68 C64 1.373 . S
C68 C66 1.383 . S
C68 H79 0.931 . S
C69 C66 1.382 . S
C69 C67 1.392 . S
C70 Eu41 2.828 . S
C70 O54 1.249 . S
C70 O55 1.244 . S
C70 C64 1.505 . S
C71 O58 1.258 . S
C71 O59 1.242 . S
H72 C44 0.930 . S
H73 C45 0.930 . S
H74 C46 0.930 . S
H75 C47 0.931 . S
H76 C65 0.930 . S
H77 C66 0.930 . S
H78 C67 0.930 . S
H79 C68 0.931 . S
Eu80 C89 2.828 . S
Eu80 O91 2.392 . S
Eu80 O93 2.418 . S
Eu80 O98 2.373 . S
Eu80 O101 2.488 . S
Eu80 O102 2.471 . S
Eu80 O103 2.349 . S
Eu81 O90 2.373 . S
Eu81 O94 2.488 . S
Eu81 O95 2.471 . S
Eu81 O96 2.349 . S
Eu81 O99 2.392 . S
Eu81 O100 2.418 . S
Eu81 C110 2.828 . S
C82 O100 1.244 . S
C82 O103 1.265 . S
C83 C84 1.379 . S
C83 C87 1.373 . S
C83 C89 1.505 . S
C84 C83 1.379 . S
C84 C86 1.369 . S
C84 H112 0.930 . S
C85 C87 1.383 . S
C85 C88 1.382 . S
C85 H113 0.930 . S
C86 C84 1.369 . S
C86 C88 1.392 . S
C86 H114 0.930 . S
C87 C83 1.373 . S
C87 C85 1.383 . S
C87 H115 0.931 . S
C88 C85 1.382 . S
C88 C86 1.392 . S
C89 Eu80 2.828 . S
C89 C83 1.505 . S
C89 O101 1.249 . S
C89 O102 1.244 . S
O90 Eu81 2.373 . S
O90 C92 1.258 . S
O91 Eu80 2.392 . S
O91 C92 1.242 . S
C92 O90 1.258 . S
C92 O91 1.242 . S
O93 Eu80 2.418 . S
O93 C97 1.244 . S
O94 Eu81 2.488 . S
O94 C110 1.249 . S
O95 Eu81 2.471 . S
O95 C110 1.244 . S
O96 Eu81 2.349 . S
O96 C97 1.265 . S
C97 O93 1.244 . S
C97 O96 1.265 . S
O98 Eu80 2.373 . S
O98 C111 1.258 . S
O99 Eu81 2.392 . S
O99 C111 1.242 . S
O100 Eu81 2.418 . S
O100 C82 1.244 . S
O101 Eu80 2.488 . S
O101 C89 1.249 . S
O102 Eu80 2.471 . S
O102 C89 1.244 . S
O103 Eu80 2.349 . S
O103 C82 1.265 . S
C104 C105 1.379 . S
C104 C108 1.373 . S
C104 C110 1.505 . S
C105 C104 1.379 . S
C105 C107 1.369 . S
C105 H116 0.930 . S
C106 C108 1.383 . S
C106 C109 1.382 . S
C106 H117 0.930 . S
C107 C105 1.369 . S
C107 C109 1.392 . S
C107 H118 0.930 . S
C108 C104 1.373 . S
C108 C106 1.383 . S
C108 H119 0.931 . S
C109 C106 1.382 . S
C109 C107 1.392 . S
C110 Eu81 2.828 . S
C110 O94 1.249 . S
C110 O95 1.244 . S
C110 C104 1.505 . S
C111 O98 1.258 . S
C111 O99 1.242 . S
H112 C84 0.930 . S
H113 C85 0.930 . S
H114 C86 0.930 . S
H115 C87 0.931 . S
H116 C105 0.930 . S
H117 C106 0.930 . S
H118 C107 0.930 . S
H119 C108 0.931 . S
H120 C123 0.929 1_565 S
H121 C126 0.929 . S
H122 C128 0.930 . S
C123 H120 0.929 1_545 S
C123 C124 1.398 1_545 S
C123 C125 1.396 . S
C124 C123 1.398 1_565 S
C124 C128 1.407 1_565 S
C125 C123 1.396 . S
C125 C126 1.394 . S
C126 H121 0.929 . S
C126 C125 1.394 . S
C126 C127 1.382 . S
C127 C126 1.382 . S
C127 C128 1.392 . S
C127 N129 1.420 . S
C128 H122 0.930 . S
C128 C124 1.407 1_545 S
C128 C127 1.392 . S
N129 C127 1.420 . S
N129 C130 1.244 . S
C130 N129 1.244 . S
H131 C134 0.929 . S
H132 C137 0.929 . S
H133 C139 0.930 . S
C134 H131 0.929 . S
C134 C135 1.398 . S
C134 C136 1.396 . S
C135 C134 1.398 . S
C135 C139 1.407 . S
C136 C134 1.396 . S
C136 C137 1.394 . S
C137 H132 0.929 . S
C137 C136 1.394 . S
C137 C138 1.382 . S
C138 C137 1.382 . S
C138 C139 1.392 . S
C138 N140 1.420 . S
C139 H133 0.930 . S
C139 C135 1.407 . S
C139 C138 1.392 . S
N140 C138 1.420 . S
N140 C141 1.244 . S
C141 N140 1.244 . S
H142 C145 0.929 1_655 S
H143 C148 0.929 . S
H144 C150 0.930 . S
C145 H142 0.929 1_455 S
C145 C146 1.398 . S
C145 C147 1.396 . S
C146 C145 1.398 . S
C146 C150 1.407 . S
C147 C145 1.396 . S
C147 C148 1.394 . S
C148 H143 0.929 . S
C148 C147 1.394 . S
C148 C149 1.382 . S
C149 C148 1.382 . S
C149 C150 1.392 . S
C149 N151 1.420 . S
C150 H144 0.930 . S
C150 C146 1.407 . S
C150 C149 1.392 . S
N151 C149 1.420 . S
N151 C152 1.244 . S
C152 N151 1.244 . S
H153 C156 0.929 . S
H154 C159 0.929 1_655 S
H155 C161 0.930 . S
C156 H153 0.929 . S
C156 C157 1.398 . S
C156 C158 1.396 . S
C157 C156 1.398 . S
C157 C161 1.407 . S
C158 C156 1.396 . S
C158 C159 1.394 . S
C159 H154 0.929 1_455 S
C159 C158 1.394 . S
C159 C160 1.382 . S
C160 C159 1.382 . S
C160 C161 1.392 . S
C160 N162 1.420 1_455 S
C161 H155 0.930 . S
C161 C157 1.407 . S
C161 C160 1.392 . S
N162 C160 1.420 1_655 S
N162 C163 1.244 . S
C163 N162 1.244 . S
H164 C167 0.929 . S
H165 C170 0.929 1_565 S
H166 C172 0.930 . S
C167 H164 0.929 . S
C167 C168 1.398 . S
C167 C169 1.396 . S
C168 C167 1.398 . S
C168 C172 1.407 . S
C169 C167 1.396 . S
C169 C170 1.394 . S
C170 H165 0.929 1_545 S
C170 C169 1.394 . S
C170 C171 1.382 . S
C171 C170 1.382 . S
C171 C172 1.392 . S
C171 N173 1.397 1_545 S
C172 H166 0.930 . S
C172 C168 1.407 . S
C172 C171 1.392 . S
N173 C171 1.397 1_565 S
N173 C174 1.268 . S
C174 N173 1.268 . S
H175 C178 0.929 . S
H176 C181 0.929 . S
H177 C183 0.930 . S
C178 H175 0.929 . S
C178 C179 1.398 . S
C178 C180 1.396 . S
C179 C178 1.398 . S
C179 C183 1.407 . S
C180 C178 1.396 . S
C180 C181 1.394 . S
C181 H176 0.929 . S
C181 C180 1.394 . S
C181 C182 1.382 . S
C182 C181 1.382 . S
C182 C183 1.392 . S
C182 N184 1.420 . S
C183 H177 0.930 . S
C183 C179 1.407 . S
C183 C182 1.392 . S
N184 C182 1.420 . S
N184 C185 1.244 . S
C185 N184 1.244 . S
H186 C194 0.950 . S
H187 C199 0.950 . S
H188 C196 0.950 . S
H189 C198 0.950 . S
H190 C200 0.950 . S
H191 C202 0.950 . S
H192 C204 0.950 . S
H193 C205 0.950 . S
C194 H186 0.950 . S
C194 C195 1.386 . S
C194 C196 1.391 . S
C195 C194 1.386 . S
C195 C199 1.393 . S
C196 H188 0.950 . S
C196 C194 1.391 . S
C196 C197 1.400 . S
C197 C196 1.400 . S
C197 C198 1.398 . S
C197 C203 1.491 . S
C198 H189 0.950 . S
C198 C197 1.398 . S
C198 C199 1.391 . S
C199 H187 0.950 . S
C199 C195 1.393 . S
C199 C198 1.391 . S
C200 H190 0.950 . S
C200 C201 1.386 . S
C200 C202 1.391 . S
C201 C200 1.386 . S
C201 C205 1.393 . S
C202 H191 0.950 . S
C202 C200 1.391 . S
C202 C203 1.400 . S
C203 C197 1.491 . S
C203 C202 1.400 . S
C203 C204 1.398 . S
C204 H192 0.950 . S
C204 C203 1.398 . S
C204 C205 1.391 . S
C205 H193 0.950 . S
C205 C201 1.393 . S
C205 C204 1.391 . S
H206 C214 0.950 . S
H207 C219 0.950 . S
H208 C216 0.950 . S
H209 C218 0.950 . S
H210 C220 0.950 . S
H211 C222 0.950 . S
H212 C224 0.950 . S
H213 C225 0.950 . S
C214 H206 0.950 . S
C214 C215 1.386 . S
C214 C216 1.391 . S
C215 C214 1.386 . S
C215 C219 1.393 . S
C216 H208 0.950 . S
C216 C214 1.391 . S
C216 C217 1.400 . S
C217 C216 1.400 . S
C217 C218 1.398 . S
C217 C223 1.491 . S
C218 H209 0.950 . S
C218 C217 1.398 . S
C218 C219 1.391 . S
C219 H207 0.950 . S
C219 C215 1.393 . S
C219 C218 1.391 . S
C220 H210 0.950 . S
C220 C221 1.386 . S
C220 C222 1.391 . S
C221 C220 1.386 . S
C221 C225 1.393 . S
C222 H211 0.950 . S
C222 C220 1.391 . S
C222 C223 1.400 . S
C223 C217 1.491 . S
C223 C222 1.400 . S
C223 C224 1.398 . S
C224 H212 0.950 . S
C224 C223 1.398 . S
C224 C225 1.391 . S
C225 H213 0.950 . S
C225 C221 1.393 . S
C225 C224 1.391 . S
H226 C234 0.950 . S
H227 C239 0.950 . S
H228 C236 0.950 . S
H229 C238 0.950 . S
H230 C240 0.950 . S
H231 C242 0.950 . S
H232 C244 0.950 . S
H233 C245 0.950 . S
C234 H226 0.950 . S
C234 C235 1.386 . S
C234 C236 1.391 . S
C235 C234 1.386 . S
C235 C239 1.393 . S
C236 H228 0.950 . S
C236 C234 1.391 . S
C236 C237 1.400 . S
C237 C236 1.400 . S
C237 C238 1.398 . S
C237 C243 1.491 . S
C238 H229 0.950 . S
C238 C237 1.398 . S
C238 C239 1.391 . S
C239 H227 0.950 . S
C239 C235 1.393 . S
C239 C238 1.391 . S
C240 H230 0.950 . S
C240 C241 1.386 . S
C240 C242 1.391 . S
C241 C240 1.386 . S
C241 C245 1.393 . S
C242 H231 0.950 . S
C242 C240 1.391 . S
C242 C243 1.400 . S
C243 C237 1.491 . S
C243 C242 1.400 . S
C243 C244 1.398 . S
C244 H232 0.950 . S
C244 C243 1.398 . S
C244 C245 1.391 . S
C245 H233 0.950 . S
C245 C241 1.393 . S
C245 C244 1.391 . S
H246 C254 0.950 . S
H247 C259 0.950 . S
H248 C256 0.950 . S
H249 C258 0.950 . S
H250 C260 0.950 . S
H251 C262 0.950 . S
H252 C264 0.950 . S
H253 C265 0.950 . S
C254 H246 0.950 . S
C254 C255 1.386 . S
C254 C256 1.391 . S
C255 C254 1.386 . S
C255 C259 1.393 . S
C256 H248 0.950 . S
C256 C254 1.391 . S
C256 C257 1.400 . S
C257 C256 1.400 . S
C257 C258 1.398 . S
C257 C263 1.491 . S
C258 H249 0.950 . S
C258 C257 1.398 . S
C258 C259 1.391 . S
C259 H247 0.950 . S
C259 C255 1.393 . S
C259 C258 1.391 . S
C260 H250 0.950 . S
C260 C261 1.386 . S
C260 C262 1.391 . S
C261 C260 1.386 . S
C261 C265 1.393 . S
C262 H251 0.950 . S
C262 C260 1.391 . S
C262 C263 1.400 . S
C263 C257 1.491 . S
C263 C262 1.400 . S
C263 C264 1.398 . S
C264 H252 0.950 . S
C264 C263 1.398 . S
C264 C265 1.391 . S
C265 H253 0.950 . S
C265 C261 1.393 . S
C265 C264 1.391 . S
H266 C274 0.950 . S
H267 C279 0.950 . S
H268 C276 0.950 . S
H269 C278 0.950 . S
H270 C280 0.950 . S
H271 C282 0.950 . S
H272 C284 0.950 . S
H273 C285 0.950 . S
C274 H266 0.950 . S
C274 C275 1.386 . S
C274 C276 1.391 . S
C275 C274 1.386 . S
C275 C279 1.393 . S
C276 H268 0.950 . S
C276 C274 1.391 . S
C276 C277 1.400 . S
C277 C276 1.400 . S
C277 C278 1.398 . S
C277 C283 1.491 . S
C278 H269 0.950 . S
C278 C277 1.398 . S
C278 C279 1.391 . S
C279 H267 0.950 . S
C279 C275 1.393 . S
C279 C278 1.391 . S
C280 H270 0.950 . S
C280 C281 1.386 . S
C280 C282 1.391 . S
C281 C280 1.386 . S
C281 C285 1.393 . S
C282 H271 0.950 . S
C282 C280 1.391 . S
C282 C283 1.400 . S
C283 C277 1.491 . S
C283 C282 1.400 . S
C283 C284 1.398 . S
C284 H272 0.950 . S
C284 C283 1.398 . S
C284 C285 1.391 . S
C285 H273 0.950 . S
C285 C281 1.393 . S
C285 C284 1.391 . S
H286 C294 0.950 . S
H287 C299 0.950 . S
H288 C296 0.950 . S
H289 C298 0.950 . S
H290 C300 0.950 . S
H291 C302 0.950 . S
H292 C304 0.950 . S
H293 C305 0.950 . S
C294 H286 0.950 . S
C294 C295 1.386 . S
C294 C296 1.391 . S
C295 C294 1.386 . S
C295 C299 1.393 . S
C296 H288 0.950 . S
C296 C294 1.391 . S
C296 C297 1.400 . S
C297 C296 1.400 . S
C297 C298 1.398 . S
C297 C303 1.491 . S
C298 H289 0.950 . S
C298 C297 1.398 . S
C298 C299 1.391 . S
C299 H287 0.950 . S
C299 C295 1.393 . S
C299 C298 1.391 . S
C300 H290 0.950 . S
C300 C301 1.386 . S
C300 C302 1.391 . S
C301 C300 1.386 . S
C301 C305 1.393 . S
C302 H291 0.950 . S
C302 C300 1.391 . S
C302 C303 1.400 . S
C303 C297 1.491 . S
C303 C302 1.400 . S
C303 C304 1.398 . S
C304 H292 0.950 . S
C304 C303 1.398 . S
C304 C305 1.391 . S
C305 H293 0.950 . S
C305 C301 1.393 . S
C305 C304 1.391 . S
H306 C314 0.950 . S
H307 C319 0.950 . S
H308 C316 0.950 . S
H309 C318 0.950 . S
H310 C320 0.950 . S
H311 C322 0.950 . S
H312 C324 0.950 . S
H313 C325 0.950 . S
C314 H306 0.950 . S
C314 C315 1.386 . S
C314 C316 1.391 . S
C315 C314 1.386 . S
C315 C319 1.393 . S
C316 H308 0.950 . S
C316 C314 1.391 . S
C316 C317 1.400 . S
C317 C316 1.400 . S
C317 C318 1.398 . S
C317 C323 1.491 . S
C318 H309 0.950 . S
C318 C317 1.398 . S
C318 C319 1.391 . S
C319 H307 0.950 . S
C319 C315 1.393 . S
C319 C318 1.391 . S
C320 H310 0.950 . S
C320 C321 1.386 . S
C320 C322 1.391 . S
C321 C320 1.386 . S
C321 C325 1.393 . S
C322 H311 0.950 . S
C322 C320 1.391 . S
C322 C323 1.400 . S
C323 C317 1.491 . S
C323 C322 1.400 . S
C323 C324 1.398 . S
C324 H312 0.950 . S
C324 C323 1.398 . S
C324 C325 1.391 . S
C325 H313 0.950 . S
C325 C321 1.393 . S
C325 C324 1.391 . S
H326 C334 0.950 . S
H327 C339 0.950 . S
H328 C336 0.950 . S
H329 C338 0.950 . S
H330 C340 0.950 1_455 S
H331 C342 0.950 . S
H332 C344 0.950 . S
H333 C345 0.950 . S
C334 H326 0.950 . S
C334 C335 1.386 . S
C334 C336 1.391 . S
C335 C334 1.386 . S
C335 C339 1.393 . S
C336 H328 0.950 . S
C336 C334 1.391 . S
C336 C337 1.400 . S
C337 C336 1.400 . S
C337 C338 1.398 . S
C337 C343 1.491 . S
C338 H329 0.950 . S
C338 C337 1.398 . S
C338 C339 1.391 . S
C339 H327 0.950 . S
C339 C335 1.393 . S
C339 C338 1.391 . S
C340 H330 0.950 1_655 S
C340 C341 1.385 1_655 S
C340 C342 1.391 . S
C341 C340 1.385 1_455 S
C341 C345 1.392 1_455 S
C342 H331 0.950 . S
C342 C340 1.391 . S
C342 C343 1.400 . S
C343 C337 1.491 . S
C343 C342 1.400 . S
C343 C344 1.398 . S
C344 H332 0.950 . S
C344 C343 1.398 . S
C344 C345 1.391 . S
C345 H333 0.950 . S
C345 C341 1.392 1_655 S
C345 C344 1.391 . S
H346 C354 0.950 . S
H347 C359 0.950 . S
H348 C356 0.950 . S
H349 C358 0.950 . S
H350 C360 0.950 1_545 S
H351 C362 0.950 . S
H352 C364 0.950 . S
H353 C365 0.950 . S
C354 H346 0.950 . S
C354 C355 1.386 . S
C354 C356 1.391 . S
C355 C354 1.386 . S
C355 C359 1.393 . S
C356 H348 0.950 . S
C356 C354 1.391 . S
C356 C357 1.400 . S
C357 C356 1.400 . S
C357 C358 1.398 . S
C357 C363 1.491 . S
C358 H349 0.950 . S
C358 C357 1.398 . S
C358 C359 1.391 . S
C359 H347 0.950 . S
C359 C355 1.393 . S
C359 C358 1.391 . S
C360 H350 0.950 1_565 S
C360 C361 1.386 . S
C360 C362 1.391 . S
C361 C360 1.386 . S
C361 C365 1.393 . S
C362 H351 0.950 . S
C362 C360 1.391 . S
C362 C363 1.400 . S
C363 C357 1.491 . S
C363 C362 1.400 . S
C363 C364 1.398 . S
C364 H352 0.950 . S
C364 C363 1.398 . S
C364 C365 1.391 . S
C365 H353 0.950 . S
C365 C361 1.393 . S
C365 C364 1.391 . S
H366 C374 0.950 . S
H367 C379 0.950 . S
H368 C376 0.950 . S
H369 C378 0.950 . S
H370 C380 0.950 . S
H371 C382 0.950 . S
H372 C384 0.950 . S
H373 C385 0.950 . S
C374 H366 0.950 . S
C374 C375 1.386 . S
C374 C376 1.391 . S
C375 C374 1.386 . S
C375 C379 1.393 . S
C376 H368 0.950 . S
C376 C374 1.391 . S
C376 C377 1.400 . S
C377 C376 1.400 . S
C377 C378 1.398 . S
C377 C383 1.491 . S
C378 H369 0.950 . S
C378 C377 1.398 . S
C378 C379 1.391 . S
C379 H367 0.950 . S
C379 C375 1.393 . S
C379 C378 1.391 . S
C380 H370 0.950 . S
C380 C381 1.386 . S
C380 C382 1.391 . S
C381 C380 1.386 . S
C381 C385 1.393 . S
C382 H371 0.950 . S
C382 C380 1.391 . S
C382 C383 1.400 . S
C383 C377 1.491 . S
C383 C382 1.400 . S
C383 C384 1.398 . S
C384 H372 0.950 . S
C384 C383 1.398 . S
C384 C385 1.391 . S
C385 H373 0.950 . S
C385 C381 1.393 . S
C385 C384 1.391 . S
H386 C394 0.950 . S
H387 C399 0.950 . S
H388 C396 0.950 . S
H389 C398 0.950 . S
H390 C400 0.950 . S
H391 C402 0.950 . S
H392 C404 0.950 . S
H393 C405 0.950 . S
C394 H386 0.950 . S
C394 C395 1.386 . S
C394 C396 1.391 . S
C395 C394 1.386 . S
C395 C399 1.393 . S
C396 H388 0.950 . S
C396 C394 1.391 . S
C396 C397 1.400 . S
C397 C396 1.400 . S
C397 C398 1.398 . S
C397 C403 1.491 . S
C398 H389 0.950 . S
C398 C397 1.398 . S
C398 C399 1.391 . S
C399 H387 0.950 . S
C399 C395 1.393 . S
C399 C398 1.391 . S
C400 H390 0.950 . S
C400 C401 1.386 . S
C400 C402 1.391 . S
C401 C400 1.386 . S
C401 C405 1.393 . S
C402 H391 0.950 . S
C402 C400 1.391 . S
C402 C403 1.400 . S
C403 C397 1.491 . S
C403 C402 1.400 . S
C403 C404 1.398 . S
C404 H392 0.950 . S
C404 C403 1.398 . S
C404 C405 1.391 . S
C405 H393 0.950 . S
C405 C401 1.393 . S
C405 C404 1.391 . S
H406 C414 0.950 . S
H407 C419 0.950 . S
H408 C416 0.950 . S
H409 C418 0.950 . S
H410 C420 0.950 . S
H411 C422 0.950 . S
H412 C424 0.950 . S
H413 C425 0.950 . S
C414 H406 0.950 . S
C414 C415 1.386 . S
C414 C416 1.391 . S
C415 C414 1.386 . S
C415 C419 1.393 . S
C416 H408 0.950 . S
C416 C414 1.391 . S
C416 C417 1.400 . S
C417 C416 1.400 . S
C417 C418 1.398 . S
C417 C423 1.491 . S
C418 H409 0.950 . S
C418 C417 1.398 . S
C418 C419 1.391 . S
C419 H407 0.950 . S
C419 C415 1.393 . S
C419 C418 1.391 . S
C420 H410 0.950 . S
C420 C421 1.386 . S
C420 C422 1.391 . S
C421 C420 1.386 . S
C421 C425 1.393 . S
C422 H411 0.950 . S
C422 C420 1.391 . S
C422 C423 1.400 . S
C423 C417 1.491 . S
C423 C422 1.400 . S
C423 C424 1.398 . S
C424 H412 0.950 . S
C424 C423 1.398 . S
C424 C425 1.391 . S
C425 H413 0.950 . S
C425 C421 1.393 . S
C425 C424 1.391 . S
H426 C434 0.950 . S
H427 C439 0.950 . S
H428 C436 0.950 . S
H429 C438 0.950 . S
H430 C440 0.950 . S
H431 C442 0.950 . S
H432 C444 0.950 1_554 S
H433 C445 0.950 . S
C434 H426 0.950 . S
C434 C435 1.386 . S
C434 C436 1.391 . S
C435 C434 1.386 . S
C435 C439 1.393 . S
C436 H428 0.950 . S
C436 C434 1.391 . S
C436 C437 1.400 . S
C437 C436 1.400 . S
C437 C438 1.398 . S
C437 C443 1.491 . S
C438 H429 0.950 . S
C438 C437 1.398 . S
C438 C439 1.391 . S
C439 H427 0.950 . S
C439 C435 1.393 . S
C439 C438 1.391 . S
C440 H430 0.950 . S
C440 C441 1.386 . S
C440 C442 1.391 . S
C441 C440 1.386 . S
C441 C445 1.393 . S
C442 H431 0.950 . S
C442 C440 1.391 . S
C442 C443 1.400 1_556 S
C443 C437 1.491 . S
C443 C442 1.400 1_554 S
C443 C444 1.398 1_554 S
C444 H432 0.950 1_556 S
C444 C443 1.398 1_556 S
C444 C445 1.391 . S
C445 H433 0.950 . S
C445 C441 1.393 . S
C445 C444 1.391 . S
H446 C454 0.950 . S
H447 C459 0.950 . S
H448 C456 0.950 . S
H449 C458 0.950 . S
H450 C460 0.950 . S
H451 C462 0.950 . S
H452 C464 0.950 1_565 S
H453 C465 0.950 1_565 S
C454 H446 0.950 . S
C454 C455 1.386 1_565 S
C454 C456 1.391 . S
C455 C454 1.386 1_545 S
C455 C459 1.393 . S
C456 H448 0.950 . S
C456 C454 1.391 . S
C456 C457 1.400 1_565 S
C457 C456 1.400 1_545 S
C457 C458 1.398 . S
C457 C463 1.491 . S
C458 H449 0.950 . S
C458 C457 1.398 . S
C458 C459 1.391 . S
C459 H447 0.950 . S
C459 C455 1.393 . S
C459 C458 1.391 . S
C460 H450 0.950 . S
C460 C461 1.386 . S
C460 C462 1.391 . S
C461 C460 1.386 . S
C461 C465 1.393 . S
C462 H451 0.950 . S
C462 C460 1.391 . S
C462 C463 1.400 . S
C463 C457 1.491 . S
C463 C462 1.400 . S
C463 C464 1.398 . S
C464 H452 0.950 1_545 S
C464 C463 1.398 . S
C464 C465 1.391 . S
C465 H453 0.950 1_545 S
C465 C461 1.393 . S
C465 C464 1.391 . S
H466 C474 0.950 . S
H467 C479 0.950 . S
H468 C476 0.950 . S
H469 C478 0.950 . S
H470 C480 0.950 . S
H471 C482 0.950 . S
H472 C484 0.950 . S
H473 C485 0.950 . S
C474 H466 0.950 . S
C474 C475 1.386 . S
C474 C476 1.391 . S
C475 C474 1.386 . S
C475 C479 1.393 . S
C476 H468 0.950 . S
C476 C474 1.391 . S
C476 C477 1.400 . S
C477 C476 1.400 . S
C477 C478 1.398 . S
C477 C483 1.491 . S
C478 H469 0.950 . S
C478 C477 1.398 . S
C478 C479 1.391 . S
C479 H467 0.950 . S
C479 C475 1.393 . S
C479 C478 1.391 . S
C480 H470 0.950 . S
C480 C481 1.386 . S
C480 C482 1.391 . S
C481 C480 1.386 . S
C481 C485 1.393 . S
C482 H471 0.950 . S
C482 C480 1.391 . S
C482 C483 1.400 . S
C483 C477 1.491 . S
C483 C482 1.400 . S
C483 C484 1.398 . S
C484 H472 0.950 . S
C484 C483 1.398 . S
C484 C485 1.391 . S
C485 H473 0.950 . S
C485 C481 1.393 . S
C485 C484 1.391 . S
H486 C494 0.950 . S
H487 C499 0.950 . S
H488 C496 0.950 . S
H489 C498 0.950 . S
H490 C500 0.950 . S
H491 C502 0.950 . S
H492 C504 0.950 . S
H493 C505 0.950 . S
C494 H486 0.950 . S
C494 C495 1.386 . S
C494 C496 1.391 . S
C495 C494 1.386 . S
C495 C499 1.393 1_545 S
C496 H488 0.950 . S
C496 C494 1.391 . S
C496 C497 1.400 . S
C497 C496 1.400 . S
C497 C498 1.398 1_545 S
C497 C503 1.491 . S
C498 H489 0.950 . S
C498 C497 1.398 1_565 S
C498 C499 1.391 . S
C499 H487 0.950 . S
C499 C495 1.393 1_565 S
C499 C498 1.391 . S
C500 H490 0.950 . S
C500 C501 1.386 1_565 S
C500 C502 1.391 . S
C501 C500 1.386 1_545 S
C501 C505 1.393 . S
C502 H491 0.950 . S
C502 C500 1.391 . S
C502 C503 1.400 1_565 S
C503 C497 1.491 . S
C503 C502 1.400 1_545 S
C503 C504 1.398 . S
C504 H492 0.950 . S
C504 C503 1.398 . S
C504 C505 1.391 . S
C505 H493 0.950 . S
C505 C501 1.393 . S
C505 C504 1.391 . S
H506 C514 0.950 . S
H507 C519 0.950 . S
H508 C516 0.950 . S
H509 C518 0.950 . S
H510 C520 0.950 . S
H511 C522 0.950 . S
H512 C524 0.950 . S
H513 C525 0.950 . S
C514 H506 0.950 . S
C514 C515 1.386 . S
C514 C516 1.391 . S
C515 C514 1.386 . S
C515 C519 1.393 . S
C516 H508 0.950 . S
C516 C514 1.391 . S
C516 C517 1.400 . S
C517 C516 1.400 . S
C517 C518 1.398 . S
C517 C523 1.491 1_556 S
C518 H509 0.950 . S
C518 C517 1.398 . S
C518 C519 1.391 . S
C519 H507 0.950 . S
C519 C515 1.393 . S
C519 C518 1.391 . S
C520 H510 0.950 . S
C520 C521 1.386 . S
C520 C522 1.391 . S
C521 C520 1.386 . S
C521 C525 1.393 . S
C522 H511 0.950 . S
C522 C520 1.391 . S
C522 C523 1.400 . S
C523 C517 1.491 1_554 S
C523 C522 1.400 . S
C523 C524 1.398 . S
C524 H512 0.950 . S
C524 C523 1.398 . S
C524 C525 1.391 . S
C525 H513 0.950 . S
C525 C521 1.393 . S
C525 C524 1.391 . S
H526 C534 0.950 . S
H527 C539 0.950 . S
H528 C536 0.950 . S
H529 C538 0.950 . S
H530 C540 0.950 . S
H531 C542 0.950 . S
H532 C544 0.950 . S
H533 C545 0.950 . S
C534 H526 0.950 . S
C534 C535 1.386 . S
C534 C536 1.391 . S
C535 C534 1.386 . S
C535 C539 1.393 1_455 S
C536 H528 0.950 . S
C536 C534 1.391 . S
C536 C537 1.400 . S
C537 C536 1.400 . S
C537 C538 1.398 1_455 S
C537 C543 1.491 . S
C538 H529 0.950 . S
C538 C537 1.398 1_655 S
C538 C539 1.391 . S
C539 H527 0.950 . S
C539 C535 1.393 1_655 S
C539 C538 1.391 . S
C540 H530 0.950 . S
C540 C541 1.386 1_655 S
C540 C542 1.391 . S
C541 C540 1.386 1_455 S
C541 C545 1.393 . S
C542 H531 0.950 . S
C542 C540 1.391 . S
C542 C543 1.400 1_655 S
C543 C537 1.491 . S
C543 C542 1.400 1_455 S
C543 C544 1.398 . S
C544 H532 0.950 . S
C544 C543 1.398 . S
C544 C545 1.391 . S
C545 H533 0.950 . S
C545 C541 1.393 . S
C545 C544 1.391 . S
C195 C12 3.026 . S
C201 C185 2.969 . S
C215 C52 3.026 . S
C221 C163 2.974 . S
C235 C111 3.049 . S
C241 C174 2.976 . S
C255 C31 3.020 . S
C261 C179 2.964 . S
C281 C157 2.971 . S
C275 C71 3.023 . S
C301 C168 2.941 . S
C295 C92 2.986 . S
C315 C48 0.636 . S
C321 C141 0.589 . S
C335 C109 0.446 . S
C341 C146 0.249 . S
C355 C29 0.388 . S
C361 C124 0.183 . S
C381 C135 0.253 . S
C375 C69 0.403 . S
C401 C152 0.307 . S
C395 C88 0.368 . S
C415 C8 0.422 . S
C421 C130 0.406 . S
C441 C147 1.231 . S
C435 C17 1.193 . S
C455 C57 1.193 . S
C461 C125 1.212 . S
C475 C97 1.215 . S
C481 C136 1.243 . S
C501 C169 1.730 . S
C495 C42 1.694 . S
C521 C180 1.745 . S
C515 C82 1.729 . S
C535 C2 1.726 . S
C541 C158 1.757 . S
