# Generated by pormake.
# Topology ssb, (4,4)-cn, num edge types: 1
# Building blocks:
#     Node 0, Type 0, BuildingBlock: KUFVIS_clean_linker_0, # of connection points: 4
#     Node 1, Type 0, BuildingBlock: KUFVIS_clean_linker_0, # of connection points: 4
#     Node 2, Type 0, BuildingBlock: KUFVIS_clean_linker_0, # of connection points: 4
#     Node 3, Type 0, BuildingBlock: KUFVIS_clean_linker_0, # of connection points: 4
#     Node 4, Type 0, BuildingBlock: KUFVIS_clean_linker_0, # of connection points: 4
#     Node 5, Type 0, BuildingBlock: KUFVIS_clean_linker_0, # of connection points: 4
#     Node 6, Type 0, BuildingBlock: KUFVIS_clean_linker_0, # of connection points: 4
#     Node 7, Type 0, BuildingBlock: KUFVIS_clean_linker_0, # of connection points: 4
#     Node 8, Type 1, BuildingBlock: KOZSID_clean_sbu_0, # of connection points: 4
#     Node 9, Type 1, BuildingBlock: KOZSID_clean_sbu_0, # of connection points: 4
#     Node 10, Type 1, BuildingBlock: KOZSID_clean_sbu_0, # of connection points: 4
#     Node 11, Type 1, BuildingBlock: KOZSID_clean_sbu_0, # of connection points: 4
#     Node 12, Type 1, BuildingBlock: KOZSID_clean_sbu_0, # of connection points: 4
#     Node 13, Type 1, BuildingBlock: KOZSID_clean_sbu_0, # of connection points: 4
#     Node 14, Type 1, BuildingBlock: KOZSID_clean_sbu_0, # of connection points: 4
#     Node 15, Type 1, BuildingBlock: KOZSID_clean_sbu_0, # of connection points: 4
#     Edge 16, Type (0, 1), BuildingBlock: CIFDUS_clean_linker_0, # of connection points: 2
#     Edge 17, Type (0, 1), BuildingBlock: CIFDUS_clean_linker_0, # of connection points: 2
#     Edge 18, Type (0, 1), BuildingBlock: CIFDUS_clean_linker_0, # of connection points: 2
#     Edge 19, Type (0, 1), BuildingBlock: CIFDUS_clean_linker_0, # of connection points: 2
#     Edge 20, Type (0, 1), BuildingBlock: CIFDUS_clean_linker_0, # of connection points: 2
#     Edge 21, Type (0, 1), BuildingBlock: CIFDUS_clean_linker_0, # of connection points: 2
#     Edge 22, Type (0, 1), BuildingBlock: CIFDUS_clean_linker_0, # of connection points: 2
#     Edge 23, Type (0, 1), BuildingBlock: CIFDUS_clean_linker_0, # of connection points: 2
#     Edge 24, Type (0, 1), BuildingBlock: CIFDUS_clean_linker_0, # of connection points: 2
#     Edge 25, Type (0, 1), BuildingBlock: CIFDUS_clean_linker_0, # of connection points: 2
#     Edge 26, Type (0, 1), BuildingBlock: CIFDUS_clean_linker_0, # of connection points: 2
#     Edge 27, Type (0, 1), BuildingBlock: CIFDUS_clean_linker_0, # of connection points: 2
#     Edge 28, Type (0, 1), BuildingBlock: CIFDUS_clean_linker_0, # of connection points: 2
#     Edge 29, Type (0, 1), BuildingBlock: CIFDUS_clean_linker_0, # of connection points: 2
#     Edge 30, Type (0, 1), BuildingBlock: CIFDUS_clean_linker_0, # of connection points: 2
#     Edge 31, Type (0, 1), BuildingBlock: CIFDUS_clean_linker_0, # of connection points: 2
#     Edge 32, Type (0, 1), BuildingBlock: CIFDUS_clean_linker_0, # of connection points: 2
#     Edge 33, Type (0, 1), BuildingBlock: CIFDUS_clean_linker_0, # of connection points: 2
#     Edge 34, Type (0, 1), BuildingBlock: CIFDUS_clean_linker_0, # of connection points: 2
#     Edge 35, Type (0, 1), BuildingBlock: CIFDUS_clean_linker_0, # of connection points: 2
#     Edge 36, Type (0, 1), BuildingBlock: CIFDUS_clean_linker_0, # of connection points: 2
#     Edge 37, Type (0, 1), BuildingBlock: CIFDUS_clean_linker_0, # of connection points: 2
#     Edge 38, Type (0, 1), BuildingBlock: CIFDUS_clean_linker_0, # of connection points: 2
#     Edge 39, Type (0, 1), BuildingBlock: CIFDUS_clean_linker_0, # of connection points: 2
#     Edge 40, Type (0, 1), BuildingBlock: CIFDUS_clean_linker_0, # of connection points: 2
#     Edge 41, Type (0, 1), BuildingBlock: CIFDUS_clean_linker_0, # of connection points: 2
#     Edge 42, Type (0, 1), BuildingBlock: CIFDUS_clean_linker_0, # of connection points: 2
#     Edge 43, Type (0, 1), BuildingBlock: CIFDUS_clean_linker_0, # of connection points: 2
#     Edge 44, Type (0, 1), BuildingBlock: CIFDUS_clean_linker_0, # of connection points: 2
#     Edge 45, Type (0, 1), BuildingBlock: CIFDUS_clean_linker_0, # of connection points: 2
#     Edge 46, Type (0, 1), BuildingBlock: CIFDUS_clean_linker_0, # of connection points: 2
#     Edge 47, Type (0, 1), BuildingBlock: CIFDUS_clean_linker_0, # of connection points: 2
# Relax obj value: 0.003
# Max RMSD: 0.069
# Mean RMSD: 0.033
data_MOF--net-ssb--node1-KOZSID_clean_sbu_0--node2-KUFVIS_clean_linker_0--edge1-CIFDUS_clean_linker_0
_symmetry_space_group_name_H-M    P1
_symmetry_Int_Tables_number       1
_symmetry_cell_setting            triclinic
loop_
_symmetry_equiv_pos_as_xyz
'x, y, z'
_cell_length_a     48.533232
_cell_length_b     48.303286
_cell_length_c     35.570386
_cell_angle_alpha  92.88912
_cell_angle_beta   95.554582
_cell_angle_gamma 89.958291
loop_
_atom_site_label
_atom_site_type_symbol
_atom_site_fract_x
_atom_site_fract_y
_atom_site_fract_z
_atom_type_partial_charge
H0 H 0.21266 0.19608 0.38147 0.0
H1 H 0.27867 0.20359 0.31223 0.0
H2 H 0.21396 0.26614 0.31289 0.0
H3 H 0.22967 0.28582 0.2678 0.0
H4 H 0.29908 0.29589 0.20447 0.0
H5 H 0.29738 0.22624 0.2728 0.0
C6 C 0.22239 0.20755 0.36085 0.0
C7 C 0.21075 0.23249 0.34869 0.0
C8 C 0.24692 0.19739 0.34823 0.0
C9 C 0.25961 0.21205 0.32088 0.0
C10 C 0.24787 0.23709 0.30597 0.0
C11 C 0.2233 0.24686 0.32113 0.0
C12 C 0.2615 0.25351 0.27635 0.0
C13 C 0.24946 0.2782 0.26061 0.0
C14 C 0.2632 0.2939 0.23519 0.0
C15 C 0.28869 0.28451 0.2246 0.0
C16 C 0.30062 0.26015 0.23787 0.0
C17 C 0.28714 0.24478 0.26334 0.0
H18 H 0.70252 0.30558 0.19714 0.0
H19 H 0.78299 0.29937 0.25752 0.0
H20 H 0.71979 0.23717 0.26659 0.0
H21 H 0.75459 0.2104 0.27789 0.0
H22 H 0.82725 0.20735 0.35527 0.0
H23 H 0.80063 0.28567 0.31367 0.0
C24 C 0.71687 0.29496 0.21678 0.0
C25 C 0.70877 0.26995 0.23028 0.0
C26 C 0.74354 0.3057 0.22664 0.0
C27 C 0.76209 0.29147 0.25161 0.0
C28 C 0.75422 0.26646 0.26677 0.0
C29 C 0.72706 0.25609 0.25584 0.0
C30 C 0.77473 0.25041 0.29174 0.0
C31 C 0.77145 0.22152 0.29407 0.0
C32 C 0.78988 0.20617 0.31745 0.0
C33 C 0.81313 0.2192 0.33684 0.0
C34 C 0.81731 0.24774 0.33507 0.0
C35 C 0.79775 0.26345 0.31336 0.0
H36 H 0.7975 0.8082 0.37726 0.0
H37 H 0.79245 0.73946 0.29754 0.0
H38 H 0.72981 0.80423 0.29087 0.0
H39 H 0.70797 0.78042 0.24703 0.0
H40 H 0.70275 0.71105 0.16794 0.0
H41 H 0.77367 0.71895 0.24856 0.0
C42 C 0.78617 0.79737 0.35314 0.0
C43 C 0.76187 0.80888 0.33624 0.0
C44 C 0.79696 0.77264 0.33889 0.0
C45 C 0.7833 0.75861 0.30687 0.0
C46 C 0.75841 0.76887 0.28826 0.0
C47 C 0.74829 0.79473 0.30352 0.0
C48 C 0.74335 0.75253 0.25383 0.0
C49 C 0.71754 0.76181 0.23669 0.0
C50 C 0.70332 0.74732 0.20531 0.0
C51 C 0.71452 0.72277 0.19085 0.0
C52 C 0.73987 0.7124 0.20615 0.0
C53 C 0.75413 0.72732 0.23764 0.0
H54 H 0.20502 0.81357 0.32959 0.0
H55 H 0.27389 0.80578 0.26418 0.0
H56 H 0.21269 0.7397 0.25997 0.0
H57 H 0.24448 0.71403 0.23938 0.0
H58 H 0.30086 0.71196 0.15441 0.0
H59 H 0.28343 0.78978 0.20928 0.0
C60 C 0.21616 0.80133 0.30962 0.0
C61 C 0.20701 0.77458 0.29777 0.0
C62 C 0.23973 0.81252 0.29667 0.0
C63 C 0.25486 0.79693 0.27172 0.0
C64 C 0.24554 0.77046 0.25714 0.0
C65 C 0.22102 0.75967 0.27031 0.0
C66 C 0.26155 0.75433 0.2289 0.0
C67 C 0.25795 0.72533 0.22309 0.0
C68 C 0.27126 0.71035 0.1954 0.0
C69 C 0.28994 0.72382 0.175 0.0
C70 C 0.2948 0.75227 0.18054 0.0
C71 C 0.28036 0.76759 0.20702 0.0
H72 H 0.30135 0.71713 0.85906 0.0
H73 H 0.22614 0.72853 0.78862 0.0
H74 H 0.29816 0.78056 0.7796 0.0
H75 H 0.27282 0.80818 0.74712 0.0
H76 H 0.20427 0.81061 0.66253 0.0
H77 H 0.21108 0.74229 0.73434 0.0
C78 C 0.28965 0.72819 0.83704 0.0
C79 C 0.30208 0.75052 0.82153 0.0
C80 C 0.26259 0.71964 0.8248 0.0
C81 C 0.24733 0.73478 0.79654 0.0
C82 C 0.25965 0.75722 0.77876 0.0
C83 C 0.28742 0.76428 0.79193 0.0
C84 C 0.24429 0.77275 0.74629 0.0
C85 C 0.25437 0.79827 0.73336 0.0
C86 C 0.2407 0.81147 0.70192 0.0
C87 C 0.21588 0.79984 0.68489 0.0
C88 C 0.20505 0.7753 0.6969 0.0
C89 C 0.21943 0.76176 0.72696 0.0
H90 H 0.29644 0.30066 0.92595 0.0
H91 H 0.29307 0.23937 0.83495 0.0
H92 H 0.22704 0.29965 0.84242 0.0
H93 H 0.21383 0.28806 0.78443 0.0
H94 H 0.19883 0.21504 0.71248 0.0
H95 H 0.26247 0.21368 0.80388 0.0
C96 C 0.28548 0.29116 0.90051 0.0
C97 C 0.261 0.30304 0.88499 0.0
C98 C 0.2967 0.2679 0.88284 0.0
C99 C 0.28317 0.25655 0.84878 0.0
C100 C 0.25721 0.26709 0.83361 0.0
C101 C 0.24665 0.29072 0.85232 0.0
C102 C 0.24083 0.2531 0.79949 0.0
C103 C 0.21888 0.26666 0.77814 0.0
C104 C 0.20328 0.25264 0.74751 0.0
C105 C 0.21015 0.22546 0.73697 0.0
C106 C 0.23208 0.21199 0.75674 0.0
C107 C 0.2467 0.22544 0.78827 0.0
H108 H 0.71065 0.28718 0.89297 0.0
H109 H 0.75943 0.30364 0.80144 0.0
H110 H 0.71784 0.22441 0.80714 0.0
H111 H 0.72415 0.21807 0.74753 0.0
H112 H 0.79387 0.21662 0.68258 0.0
H113 H 0.79201 0.27651 0.77549 0.0
C114 C 0.71882 0.2812 0.86648 0.0
C115 C 0.71136 0.25516 0.85026 0.0
C116 C 0.73479 0.29992 0.84858 0.0
C117 C 0.74689 0.28971 0.81557 0.0
C118 C 0.7419 0.26175 0.80027 0.0
C119 C 0.72318 0.24523 0.81786 0.0
C120 C 0.75583 0.2495 0.76644 0.0
C121 C 0.74413 0.2265 0.74313 0.0
C122 C 0.75805 0.21427 0.71327 0.0
C123 C 0.7832 0.22572 0.70562 0.0
C124 C 0.7952 0.24826 0.72752 0.0
C125 C 0.78183 0.25977 0.75812 0.0
H126 H 0.72059 0.71248 0.85286 0.0
H127 H 0.79291 0.72664 0.79682 0.0
H128 H 0.7231 0.78274 0.78447 0.0
H129 H 0.75498 0.81237 0.77283 0.0
H130 H 0.81538 0.81744 0.69389 0.0
H131 H 0.79996 0.73897 0.7393 0.0
C132 C 0.73127 0.72479 0.83405 0.0
C133 C 0.7191 0.74905 0.82044 0.0
C134 C 0.7576 0.71671 0.82507 0.0
C135 C 0.77217 0.73291 0.80211 0.0
C136 C 0.76008 0.7568 0.78632 0.0
C137 C 0.73334 0.76474 0.79608 0.0
C138 C 0.77554 0.77337 0.7603 0.0
C139 C 0.77 0.80185 0.75671 0.0
C140 C 0.78412 0.81742 0.73253 0.0
C141 C 0.80446 0.80498 0.71226 0.0
C142 C 0.81043 0.77671 0.71464 0.0
C143 C 0.79587 0.76096 0.73863 0.0
C144 C 0.04937 0.29954 0.60893 0.0
C145 C 0.05858 0.32565 0.62266 0.0
C146 C 0.04386 0.34435 0.60136 0.0
C147 C 0.02645 0.3287 0.57608 0.0
N148 N 0.02903 0.30111 0.58 0.0
Co149 Co 0.00735 0.27109 0.54917 0.0
N150 N 0.98818 0.29848 0.51486 0.0
C151 C 0.99249 0.32619 0.51644 0.0
C152 C 0.97703 0.33967 0.48876 0.0
C153 C 0.96185 0.31938 0.46822 0.0
C154 C 0.96874 0.29461 0.48488 0.0
N155 N 0.98499 0.24113 0.51926 0.0
C156 C 0.96475 0.24274 0.49025 0.0
C157 C 0.95272 0.21697 0.48028 0.0
C158 C 0.96599 0.19847 0.50332 0.0
C159 C 0.98508 0.21388 0.5263 0.0
N160 N 0.02744 0.24358 0.58239 0.0
C161 C 0.02416 0.21572 0.57968 0.0
C162 C 0.04202 0.20191 0.60429 0.0
C163 C 0.05794 0.2221 0.62374 0.0
C164 C 0.04863 0.24725 0.61007 0.0
N165 N 0.97727 0.27485 0.58384 0.0
C166 C 0.93008 0.27792 0.62487 0.0
C167 C 0.94607 0.25392 0.6238 0.0
C168 C 0.96927 0.25278 0.60319 0.0
C169 C 0.93896 0.30086 0.60684 0.0
C170 C 0.96266 0.29906 0.58726 0.0
N171 N 0.0372 0.26723 0.51453 0.0
C172 C 0.06842 0.23804 0.48121 0.0
C173 C 0.08293 0.26113 0.4715 0.0
C174 C 0.07358 0.2874 0.48229 0.0
C175 C 0.05085 0.28997 0.50376 0.0
C176 C 0.04556 0.24152 0.5021 0.0
H177 H 0.04512 0.31053 0.51214 0.0
H178 H 0.03535 0.22309 0.50865 0.0
H179 H 0.97989 0.23351 0.60266 0.0
H180 H 0.96836 0.31742 0.57449 0.0
C181 C 0.00971 0.33908 0.54591 0.0
C182 C 0.06085 0.27394 0.62403 0.0
C183 C 0.9559 0.26807 0.4716 0.0
C184 C 0.00383 0.20321 0.55401 0.0
H185 H 0.0746 0.33062 0.64531 0.0
H186 H 0.04619 0.36668 0.60332 0.0
H187 H 0.9765 0.3617 0.48443 0.0
H188 H 0.94712 0.32255 0.444 0.0
H189 H 0.93588 0.21197 0.45881 0.0
H190 H 0.96211 0.17641 0.50342 0.0
H191 H 0.04345 0.17977 0.60748 0.0
H192 H 0.07467 0.21861 0.64533 0.0
H193 H 0.94 0.2356 0.63737 0.0
H194 H 0.92745 0.32008 0.60745 0.0
H195 H 0.07504 0.2173 0.47333 0.0
H196 H 0.08443 0.30581 0.4755 0.0
C197 C 0.71844 0.05963 0.56786 0.0
C198 C 0.69278 0.07049 0.57452 0.0
C199 C 0.67337 0.05457 0.55307 0.0
C200 C 0.6881 0.03483 0.5346 0.0
N201 N 0.71581 0.03704 0.54305 0.0
Co202 Co 0.7445 0.01225 0.52172 0.0
N203 N 0.71575 0.98801 0.49142 0.0
C204 C 0.68801 0.991 0.49068 0.0
C205 C 0.67327 0.97089 0.46876 0.0
C206 C 0.69273 0.95378 0.45489 0.0
C207 C 0.71836 0.96451 0.46907 0.0
N208 N 0.77325 0.98795 0.49966 0.0
C209 C 0.77059 0.96483 0.47594 0.0
C210 C 0.7962 0.95479 0.46755 0.0
C211 C 0.8157 0.97182 0.48685 0.0
C212 C 0.80101 0.99135 0.50577 0.0
N213 N 0.77331 0.03589 0.55287 0.0
C214 C 0.80107 0.03248 0.5542 0.0
C215 C 0.81586 0.05175 0.57747 0.0
C216 C 0.79647 0.06844 0.59216 0.0
C217 C 0.77073 0.05831 0.57718 0.0
N218 N 0.74355 0.98759 0.56443 0.0
C219 C 0.74244 0.94907 0.62118 0.0
C220 C 0.76741 0.95721 0.60844 0.0
C221 C 0.7675 0.97644 0.5806 0.0
C222 C 0.71807 0.9614 0.60593 0.0
C223 C 0.71909 0.98048 0.5778 0.0
N224 N 0.74543 0.03697 0.47887 0.0
C225 C 0.771 0.06733 0.44282 0.0
C226 C 0.74675 0.07531 0.42178 0.0
C227 C 0.72189 0.0629 0.42892 0.0
C228 C 0.7217 0.044 0.4574 0.0
C229 C 0.7699 0.04817 0.47059 0.0
H230 H 0.70204 0.0357 0.46183 0.0
H231 H 0.78915 0.0433 0.48545 0.0
H232 H 0.78719 0.98146 0.57201 0.0
H233 H 0.69981 0.98885 0.56686 0.0
C234 C 0.67651 0.01309 0.51074 0.0
C235 C 0.74459 0.07115 0.58656 0.0
C236 C 0.74449 0.95119 0.46114 0.0
C237 C 0.81266 0.0119 0.53159 0.0
H238 H 0.68845 0.08794 0.59328 0.0
H239 H 0.65111 0.05685 0.55157 0.0
H240 H 0.651 0.9688 0.46367 0.0
H241 H 0.68856 0.93536 0.43662 0.0
H242 H 0.80034 0.93677 0.44965 0.0
H243 H 0.83796 0.96985 0.48764 0.0
H244 H 0.83814 0.05373 0.58264 0.0
H245 H 0.80088 0.0863 0.61139 0.0
H246 H 0.78689 0.94804 0.61874 0.0
H247 H 0.69823 0.95612 0.61523 0.0
H248 H 0.79082 0.07654 0.43904 0.0
H249 H 0.70255 0.06798 0.413 0.0
C250 C 0.04759 0.77842 0.56066 0.0
C251 C 0.05643 0.80403 0.57677 0.0
C252 C 0.04063 0.82348 0.55836 0.0
C253 C 0.02305 0.80869 0.53227 0.0
N254 N 0.02633 0.78091 0.5334 0.0
Co255 Co 0.00584 0.7516 0.49976 0.0
N256 N 0.98578 0.7802 0.46856 0.0
C257 C 0.98913 0.80805 0.47268 0.0
C258 C 0.97206 0.82235 0.44759 0.0
C259 C 0.95663 0.80251 0.42648 0.0
C260 C 0.9652 0.77713 0.44001 0.0
N261 N 0.98479 0.72232 0.46675 0.0
C262 C 0.96368 0.72482 0.4392 0.0
C263 C 0.95363 0.69916 0.42481 0.0
C264 C 0.96857 0.67972 0.44445 0.0
C265 C 0.9868 0.69457 0.46959 0.0
N266 N 0.02655 0.72308 0.53038 0.0
C267 C 0.02389 0.69523 0.52562 0.0
C268 C 0.0423 0.68097 0.54906 0.0
C269 C 0.05812 0.70089 0.56944 0.0
C270 C 0.04832 0.72621 0.55724 0.0
N271 N 0.97554 0.75227 0.53409 0.0
C272 C 0.929 0.75369 0.57634 0.0
C273 C 0.94256 0.72875 0.56892 0.0
C274 C 0.96558 0.72848 0.54769 0.0
C275 C 0.93988 0.7779 0.56379 0.0
C276 C 0.96299 0.77677 0.54331 0.0
N277 N 0.03607 0.75104 0.46546 0.0
C278 C 0.06875 0.72621 0.42867 0.0
C279 C 0.08251 0.75088 0.42325 0.0
C280 C 0.072 0.77558 0.43787 0.0
C281 C 0.04887 0.77524 0.45827 0.0
C282 C 0.04573 0.72673 0.44991 0.0
H283 H 0.04215 0.79485 0.4687 0.0
H284 H 0.03648 0.70723 0.45415 0.0
H285 H 0.97462 0.70876 0.54201 0.0
H286 H 0.96991 0.79607 0.53465 0.0
C287 C 0.00612 0.82022 0.50308 0.0
C288 C 0.06146 0.75256 0.57008 0.0
C289 C 0.95181 0.75092 0.42672 0.0
C290 C 0.00522 0.68317 0.49718 0.0
H291 H 0.07331 0.80819 0.59852 0.0
H292 H 0.04272 0.84578 0.56216 0.0
H293 H 0.9702 0.8446 0.44594 0.0
H294 H 0.94026 0.80637 0.40451 0.0
H295 H 0.93686 0.69501 0.4029 0.0
H296 H 0.96599 0.65744 0.44142 0.0
H297 H 0.04463 0.65873 0.55016 0.0
H298 H 0.07544 0.69721 0.59009 0.0
H299 H 0.93488 0.70946 0.57826 0.0
H300 H 0.93038 0.7978 0.56946 0.0
H301 H 0.07633 0.70656 0.41786 0.0
H302 H 0.08196 0.79519 0.43412 0.0
C303 C 0.2871 0.96366 0.58417 0.0
C304 C 0.31184 0.9568 0.60436 0.0
C305 C 0.33023 0.97769 0.60009 0.0
C306 C 0.31583 0.99607 0.57749 0.0
N307 N 0.28957 0.98803 0.56694 0.0
Co308 Co 0.26195 0.0092 0.5344 0.0
N309 N 0.29087 0.03365 0.51677 0.0
C310 C 0.3172 0.03595 0.53249 0.0
C311 C 0.33287 0.05366 0.51428 0.0
C312 C 0.31528 0.06351 0.48557 0.0
C313 C 0.28956 0.05153 0.48807 0.0
N314 N 0.23413 0.03053 0.50248 0.0
C315 C 0.23732 0.0494 0.47596 0.0
C316 C 0.21195 0.06081 0.46353 0.0
C317 C 0.1924 0.04877 0.48271 0.0
C318 C 0.20672 0.03086 0.50597 0.0
N319 N 0.23301 0.98475 0.55176 0.0
C320 C 0.2057 0.9901 0.54916 0.0
C321 C 0.19053 0.97015 0.56414 0.0
C322 C 0.20948 0.95108 0.57738 0.0
C323 C 0.23527 0.96046 0.56966 0.0
N324 N 0.2577 0.03541 0.57707 0.0
C325 C 0.24945 0.07309 0.63678 0.0
C326 C 0.24938 0.04467 0.64215 0.0
C327 C 0.25397 0.02614 0.61199 0.0
C328 C 0.25402 0.08239 0.60139 0.0
C329 C 0.25784 0.06325 0.57187 0.0
N330 N 0.26619 0.98303 0.49197 0.0
C331 C 0.24571 0.95205 0.44219 0.0
C332 C 0.27195 0.94235 0.43471 0.0
C333 C 0.29529 0.95412 0.45569 0.0
C334 C 0.29195 0.97447 0.4841 0.0
C335 C 0.2433 0.9724 0.47085 0.0
H336 H 0.31024 0.98281 0.50018 0.0
H337 H 0.22285 0.97899 0.47658 0.0
H338 H 0.25418 1.00433 0.61692 0.0
H339 H 0.26055 0.07113 0.54473 0.0
C340 C 0.32721 0.01863 0.56111 0.0
C341 C 0.26142 0.94728 0.58349 0.0
C342 C 0.26402 0.0594 0.4649 0.0
C343 C 0.19491 0.01218 0.52859 0.0
H344 H 0.31616 0.93865 0.62052 0.0
H345 H 0.35181 0.97882 0.61111 0.0
H346 H 0.35471 0.05831 0.52045 0.0
H347 H 0.32081 0.07805 0.46539 0.0
H348 H 0.20794 0.07683 0.44357 0.0
H349 H 0.17032 0.05254 0.47982 0.0
H350 H 0.16829 0.96931 0.56478 0.0
H351 H 0.20492 0.93271 0.59188 0.0
H352 H 0.24594 0.0369 0.66936 0.0
H353 H 0.25395 0.10433 0.59635 0.0
H354 H 0.22705 0.94326 0.42706 0.0
H355 H 0.31595 0.94741 0.45056 0.0
C356 C 0.55121 0.79762 0.06359 0.0
C357 C 0.56327 0.82296 0.07556 0.0
C358 C 0.54933 0.8425 0.05482 0.0
C359 C 0.52971 0.82798 0.03139 0.0
N360 N 0.52983 0.80044 0.0365 0.0
Co361 Co 0.50679 0.77138 1.00576 0.0
N362 N 0.48746 0.79978 0.97355 0.0
C363 C 0.49126 0.82753 0.97701 0.0
C364 C 0.47322 0.84193 0.95321 0.0
C365 C 0.4564 0.82222 0.93405 0.0
C366 C 0.4653 0.79689 0.94726 0.0
N367 N 0.48491 0.74214 0.97385 0.0
C368 C 0.46407 0.74474 0.94607 0.0
C369 C 0.45422 0.71913 0.93123 0.0
C370 C 0.46898 0.69961 0.95102 0.0
C371 C 0.48699 0.71438 0.97658 0.0
N372 N 0.52495 0.74307 0.03917 0.0
C373 C 0.51931 0.7156 0.03776 0.0
C374 C 0.53522 0.70142 0.06432 0.0
C375 C 0.55226 0.72093 0.08349 0.0
C376 C 0.54581 0.74595 0.06732 0.0
N377 N 0.47669 0.7753 0.04018 0.0
C378 C 0.43141 0.78098 0.08432 0.0
C379 C 0.43763 0.75548 0.06707 0.0
C380 C 0.46035 0.75302 0.04585 0.0
C381 C 0.44859 0.80355 0.07997 0.0
C382 C 0.4708 0.80036 0.05756 0.0
N383 N 0.53677 0.76737 0.97116 0.0
C384 C 0.57018 0.73853 0.94143 0.0
C385 C 0.57955 0.76082 0.9224 0.0
C386 C 0.56726 0.78667 0.92878 0.0
C387 C 0.54613 0.78947 0.9531 0.0
C388 C 0.54899 0.74216 0.96511 0.0
H389 H 0.53768 0.80971 0.95682 0.0
H390 H 0.54297 0.72414 0.97833 0.0
H391 H 0.46408 0.73282 0.03407 0.0
H392 H 0.48268 0.81853 0.05435 0.0
C393 C 0.51123 0.83942 1.0039 0.0
C394 C 0.56161 0.77133 0.07746 0.0
C395 C 0.45112 0.77083 0.93565 0.0
C396 C 0.50236 0.70325 0.00751 0.0
H397 H 0.58069 0.82679 0.09656 0.0
H398 H 0.55342 0.86457 0.05605 0.0
H399 H 0.47191 0.86416 0.95092 0.0
H400 H 0.4391 0.82602 0.91341 0.0
H401 H 0.43723 0.71509 0.90961 0.0
H402 H 0.46573 0.6774 0.94867 0.0
H403 H 0.53548 0.67929 0.06791 0.0
H404 H 0.56841 0.71705 0.10577 0.0
H405 H 0.4251 0.73734 0.07024 0.0
H406 H 0.44452 0.82369 0.09304 0.0
H407 H 0.57933 0.71818 0.93853 0.0
H408 H 0.57357 0.80465 0.91472 0.0
C409 C 0.22145 0.54621 0.08939 0.0
C410 C 0.19672 0.5558 0.10154 0.0
C411 C 0.17609 0.54223 0.07908 0.0
C412 C 0.18947 0.52534 0.05462 0.0
N413 N 0.21735 0.52679 0.06065 0.0
Co414 Co 0.24495 0.50762 0.0302 0.0
N415 N 0.21481 0.48975 0.99479 0.0
C416 C 0.18721 0.49212 0.99659 0.0
C417 C 0.17168 0.47629 0.9693 0.0
C418 C 0.19053 0.46256 0.94926 0.0
C419 C 0.21648 0.47094 0.9656 0.0
N420 N 0.27263 0.48932 0.99895 0.0
C421 C 0.26862 0.47135 0.96848 0.0
C422 C 0.29344 0.46357 0.95477 0.0
C423 C 0.31395 0.47686 0.9778 0.0
C424 C 0.30052 0.49197 1.00408 0.0
N425 N 0.27509 0.52465 0.06646 0.0
C426 C 0.30265 0.52044 0.06665 0.0
C427 C 0.31806 0.53539 0.09506 0.0
C428 C 0.29921 0.55032 0.11373 0.0
C429 C 0.27337 0.54355 0.09549 0.0
N430 N 0.2451 0.47448 0.06272 0.0
C431 C 0.24792 0.43001 0.11329 0.0
C432 C 0.27105 0.4386 0.09617 0.0
C433 C 0.26924 0.46037 0.07148 0.0
C434 C 0.2228 0.44338 0.10291 0.0
C435 C 0.22186 0.46535 0.0778 0.0
N436 N 0.2452 0.54073 0.99778 0.0
C437 C 0.27143 0.57546 0.96894 0.0
C438 C 0.2478 0.58532 0.94804 0.0
C439 C 0.22242 0.57314 0.95417 0.0
C440 C 0.22158 0.55108 0.97896 0.0
C441 C 0.26972 0.55362 0.9931 0.0
H442 H 0.20168 0.54243 0.98216 0.0
H443 H 0.28879 0.54733 0.00742 0.0
H444 H 0.28794 0.46556 0.06019 0.0
H445 H 0.20218 0.47488 0.07133 0.0
C446 C 0.17657 0.50892 0.02469 0.0
C447 C 0.24817 0.55785 0.10377 0.0
C448 C 0.24204 0.4593 0.95379 0.0
C449 C 0.31348 0.50587 0.03648 0.0
H450 H 0.19401 0.57158 0.12356 0.0
H451 H 0.154 0.54504 0.07966 0.0
H452 H 0.14936 0.47451 0.96499 0.0
H453 H 0.18581 0.44763 0.92578 0.0
H454 H 0.29642 0.44903 0.93137 0.0
H455 H 0.33606 0.47475 0.97658 0.0
H456 H 0.34039 0.53654 0.10019 0.0
H457 H 0.30395 0.56541 0.13698 0.0
H458 H 0.29089 0.42862 0.102 0.0
H459 H 0.20412 0.43754 0.11493 0.0
H460 H 0.29157 0.58446 0.96647 0.0
H461 H 0.20337 0.57996 0.93909 0.0
C462 C 0.46269 0.26897 0.98526 0.0
C463 C 0.45254 0.29397 0.97208 0.0
C464 C 0.46877 0.31437 0.99046 0.0
C465 C 0.4877 0.30079 0.01388 0.0
N466 N 0.48485 0.27287 0.01133 0.0
Co467 Co 0.507 0.24544 0.0424 0.0
N468 N 0.52982 0.2757 0.07098 0.0
C469 C 0.52847 0.3031 0.06475 0.0
C470 C 0.548 0.31878 0.08651 0.0
C471 C 0.56284 0.30037 0.10799 0.0
C472 C 0.55119 0.27435 0.09848 0.0
N473 N 0.52856 0.21814 0.07431 0.0
C474 C 0.54896 0.22224 0.10305 0.0
C475 C 0.55721 0.19744 0.11869 0.0
C476 C 0.54198 0.17694 0.0987 0.0
C477 C 0.52511 0.1903 0.07236 0.0
N478 N 0.48456 0.21522 0.01314 0.0
C479 C 0.48778 0.18764 0.01647 0.0
C480 C 0.46928 0.17191 0.99283 0.0
C481 C 0.45313 0.19058 0.97334 0.0
C482 C 0.4627 0.2167 0.98638 0.0
N483 N 0.53495 0.24259 1.00449 0.0
C484 C 0.57564 0.2395 0.95234 0.0
C485 C 0.56855 0.21618 0.97109 0.0
C486 C 0.54811 0.21809 0.99651 0.0
C487 C 0.56199 0.26429 0.96014 0.0
C488 C 0.5421 0.2654 0.98608 0.0
N489 N 0.47921 0.24821 0.08017 0.0
C490 C 0.44756 0.22667 0.11886 0.0
C491 C 0.43832 0.25253 0.13205 0.0
C492 C 0.45021 0.27613 0.1187 0.0
C493 C 0.47053 0.27353 0.09344 0.0
C494 C 0.4677 0.225 0.09308 0.0
H495 H 0.47879 0.29235 0.08474 0.0
H496 H 0.47361 0.20468 0.08389 0.0
H497 H 0.54339 0.19944 0.00933 0.0
H498 H 0.53299 0.28511 0.99083 0.0
C499 C 0.50844 0.31362 0.03857 0.0
C500 C 0.45001 0.24223 0.97293 0.0
C501 C 0.56138 0.24905 0.11616 0.0
C502 C 0.50648 0.17728 0.04461 0.0
H503 H 0.435 0.29721 0.95162 0.0
H504 H 0.46681 0.33649 0.98746 0.0
H505 H 0.55121 0.34096 0.08656 0.0
H506 H 0.58042 0.30567 0.12809 0.0
H507 H 0.57276 0.1944 0.14202 0.0
H508 H 0.54318 0.15489 0.10274 0.0
H509 H 0.46722 0.14956 0.99084 0.0
H510 H 0.43595 0.18559 0.95236 0.0
H511 H 0.57841 0.19643 0.96577 0.0
H512 H 0.56697 0.28305 0.94671 0.0
H513 H 0.43951 0.20765 0.1285 0.0
H514 H 0.44362 0.29675 0.12711 0.0
C515 C 0.7339 0.5558 0.06611 0.0
C516 C 0.70779 0.56505 0.07343 0.0
C517 C 0.68911 0.54867 0.05136 0.0
C518 C 0.70475 0.53021 0.03207 0.0
N519 N 0.73233 0.53363 0.04073 0.0
Co520 Co 0.76222 0.51059 0.01932 0.0
N521 N 0.73494 0.48923 0.98272 0.0
C522 C 0.70745 0.49419 0.9772 0.0
C523 C 0.69428 0.47911 0.94713 0.0
C524 C 0.71446 0.4632 0.9329 0.0
C525 C 0.73884 0.46879 0.95592 0.0
N526 N 0.79189 0.48657 0.999 0.0
C527 C 0.79001 0.46332 0.97522 0.0
C528 C 0.81561 0.45042 0.9747 0.0
C529 C 0.8342 0.46634 0.99751 0.0
C530 C 0.81908 0.4877 0.01157 0.0
N531 N 0.78954 0.53308 0.05468 0.0
C532 C 0.81731 0.52995 0.05793 0.0
C533 C 0.83117 0.54942 0.08203 0.0
C534 C 0.81107 0.5664 0.0945 0.0
C535 C 0.78597 0.55618 0.07744 0.0
N536 N 0.75843 0.48307 0.05812 0.0
C537 C 0.7551 0.43661 0.10196 0.0
C538 C 0.77962 0.45184 0.10351 0.0
C539 C 0.7808 0.47497 0.08156 0.0
C540 C 0.73172 0.44639 0.08083 0.0
C541 C 0.73375 0.46963 0.05963 0.0
N542 N 0.76603 0.53777 0.98026 0.0
C543 C 0.79397 0.56374 0.94138 0.0
C544 C 0.77026 0.57589 0.92393 0.0
C545 C 0.74463 0.56898 0.93545 0.0
C546 C 0.74302 0.55026 0.96351 0.0
C547 C 0.79137 0.54458 0.96916 0.0
H548 H 0.72285 0.54643 0.9713 0.0
H549 H 0.81003 0.53558 0.98134 0.0
H550 H 0.80027 0.48532 0.08306 0.0
H551 H 0.71527 0.47568 0.04365 0.0
C552 C 0.69446 0.51237 1.00175 0.0
C553 C 0.75943 0.56967 0.08278 0.0
C554 C 0.76451 0.45268 0.95294 0.0
C555 C 0.8296 0.50841 0.03794 0.0
H556 H 0.70279 0.58239 0.09201 0.0
H557 H 0.66682 0.55079 0.04843 0.0
H558 H 0.67254 0.47942 0.93696 0.0
H559 H 0.7113 0.44866 0.90873 0.0
H560 H 0.82058 0.43111 0.96035 0.0
H561 H 0.85604 0.4623 1.00405 0.0
H562 H 0.85329 0.55129 0.08925 0.0
H563 H 0.81456 0.58447 0.1136 0.0
H564 H 0.79814 0.44519 0.12005 0.0
H565 H 0.71203 0.43566 0.07981 0.0
H566 H 0.81428 0.56878 0.9334 0.0
H567 H 0.72578 0.57847 0.92337 0.0
H568 H 0.2014 0.23269 0.42286 0.0
H569 H 0.16391 0.25697 0.31462 0.0
H570 H 0.12149 0.26995 0.34341 0.0
H571 H 0.09369 0.271 0.39902 0.0
H572 H 0.13104 0.24281 0.5051 0.0
H573 H 0.17462 0.2342 0.47742 0.0
C574 C 0.18392 0.24062 0.40533 0.0
C575 C 0.18583 0.24339 0.36638 0.0
C576 C 0.1594 0.2471 0.42176 0.0
C577 C 0.16317 0.25464 0.34462 0.0
C578 C 0.13879 0.26184 0.36105 0.0
C579 C 0.11152 0.26316 0.41594 0.0
C580 C 0.1093 0.25748 0.45401 0.0
C581 C 0.13645 0.25767 0.39948 0.0
C582 C 0.13236 0.24721 0.47575 0.0
C583 C 0.15724 0.24232 0.45994 0.0
H584 H 0.74229 0.18801 0.34074 0.0
H585 H 0.82296 0.16048 0.31417 0.0
H586 H 0.81468 0.11522 0.33924 0.0
H587 H 0.78678 0.08596 0.37538 0.0
H588 H 0.70834 0.11612 0.40829 0.0
H589 H 0.71293 0.15734 0.37274 0.0
C590 C 0.75772 0.1718 0.33957 0.0
C591 C 0.78316 0.1774 0.3257 0.0
C592 C 0.75323 0.14636 0.35532 0.0
C593 C 0.80325 0.15651 0.32484 0.0
C594 C 0.79854 0.13075 0.33926 0.0
C595 C 0.77064 0.10151 0.37479 0.0
C596 C 0.74745 0.098 0.39506 0.0
C597 C 0.77399 0.12583 0.35576 0.0
C598 C 0.72635 0.11802 0.39286 0.0
C599 C 0.72908 0.14182 0.37283 0.0
H600 H 0.84654 0.76532 0.31011 0.0
H601 H 0.80585 0.75795 0.41155 0.0
H602 H 0.85019 0.74848 0.44732 0.0
H603 H 0.90112 0.74659 0.45101 0.0
H604 H 0.94236 0.75608 0.35064 0.0
H605 H 0.89751 0.76037 0.31301 0.0
C606 C 0.84744 0.76098 0.33982 0.0
C607 C 0.82307 0.76212 0.35822 0.0
C608 C 0.87317 0.75633 0.36043 0.0
C609 C 0.82441 0.757 0.39688 0.0
C610 C 0.84974 0.75175 0.41734 0.0
C611 C 0.90009 0.74925 0.42079 0.0
C612 C 0.92471 0.75111 0.40339 0.0
C613 C 0.87432 0.75205 0.39965 0.0
C614 C 0.92348 0.75464 0.36436 0.0
C615 C 0.8979 0.75711 0.34298 0.0
H616 H 0.28122 0.82591 0.35029 0.0
H617 H 0.21646 0.86092 0.27613 0.0
H618 H 0.22354 0.90625 0.30974 0.0
H619 H 0.24369 0.93375 0.3654 0.0
H620 H 0.30594 0.89754 0.44272 0.0
H621 H 0.30494 0.85511 0.40236 0.0
C622 C 0.26935 0.84377 0.34097 0.0
C623 C 0.24855 0.8405 0.3109 0.0
C624 C 0.27289 0.86939 0.36127 0.0
C625 C 0.23275 0.86336 0.29915 0.0
C626 C 0.23666 0.8891 0.3185 0.0
C627 C 0.2572 0.91664 0.3732 0.0
C628 C 0.27456 0.91864 0.4072 0.0
C629 C 0.25593 0.89205 0.35047 0.0
C630 C 0.29243 0.89658 0.4166 0.0
C631 C 0.29172 0.87221 0.39369 0.0
H632 H 0.18814 0.77161 0.62156 0.0
H633 H 0.16081 0.7557 0.73029 0.0
H634 H 0.11418 0.74514 0.70033 0.0
H635 H 0.07999 0.74481 0.64363 0.0
H636 H 0.10738 0.7629 0.53589 0.0
H637 H 0.15504 0.76866 0.56493 0.0
C638 C 0.17201 0.76572 0.63873 0.0
C639 C 0.17794 0.76474 0.67821 0.0
C640 C 0.14515 0.7604 0.62145 0.0
C641 C 0.15691 0.75648 0.69986 0.0
C642 C 0.13016 0.7507 0.68277 0.0
C643 C 0.09658 0.74966 0.62666 0.0
C644 C 0.09048 0.75343 0.58781 0.0
C645 C 0.12387 0.75323 0.64371 0.0
C646 C 0.11185 0.7599 0.56585 0.0
C647 C 0.139 0.7632 0.58245 0.0
H648 H 0.20074 0.16566 0.74009 0.0
H649 H 0.28367 0.19767 0.74042 0.0
H650 H 0.29751 0.15541 0.7066 0.0
H651 H 0.28431 0.11214 0.67007 0.0
H652 H 0.20171 0.07964 0.66994 0.0
H653 H 0.18933 0.11914 0.71096 0.0
C654 C 0.22192 0.16306 0.73322 0.0
C655 C 0.24114 0.18466 0.74224 0.0
C656 C 0.22966 0.13879 0.7137 0.0
C657 C 0.26861 0.18117 0.73373 0.0
C658 C 0.27647 0.15714 0.71423 0.0
C659 C 0.26383 0.11353 0.67985 0.0
C660 C 0.24383 0.09341 0.66717 0.0
C661 C 0.25695 0.13623 0.7031 0.0
C662 C 0.21734 0.09505 0.67973 0.0
C663 C 0.21026 0.11765 0.70286 0.0
H664 H 0.80607 0.27346 0.66441 0.0
H665 H 0.84528 0.24428 0.7687 0.0
H666 H 0.89107 0.25186 0.74698 0.0
H667 H 0.91972 0.26276 0.69541 0.0
H668 H 0.87997 0.2933 0.59203 0.0
H669 H 0.83474 0.28944 0.61617 0.0
C670 C 0.82472 0.26946 0.68268 0.0
C671 C 0.82243 0.25851 0.71816 0.0
C672 C 0.85085 0.27378 0.66989 0.0
C673 C 0.84662 0.25308 0.74152 0.0
C674 C 0.87275 0.25715 0.72891 0.0
C675 C 0.90114 0.26883 0.67843 0.0
C676 C 0.90319 0.27817 0.64188 0.0
C677 C 0.87511 0.26683 0.69272 0.0
C678 C 0.87898 0.2862 0.62028 0.0
C679 C 0.85309 0.28389 0.63402 0.0
H680 H 0.73661 0.83465 0.69625 0.0
H681 H 0.81509 0.86383 0.75058 0.0
H682 H 0.80655 0.90975 0.72562 0.0
H683 H 0.77988 0.93896 0.68113 0.0
H684 H 0.70408 0.90742 0.62049 0.0
H685 H 0.70781 0.86556 0.65603 0.0
C686 C 0.75136 0.85142 0.70344 0.0
C687 C 0.7763 0.84624 0.72525 0.0
C688 C 0.74685 0.87722 0.68754 0.0
C689 C 0.79568 0.86768 0.73399 0.0
C690 C 0.79086 0.89377 0.71952 0.0
C691 C 0.76409 0.923 0.67578 0.0
C692 C 0.742 0.92622 0.64765 0.0
C693 C 0.76704 0.89839 0.69503 0.0
C694 C 0.72127 0.90567 0.642 0.0
C695 C 0.72353 0.88153 0.66208 0.0
H696 H 0.81576 0.78374 0.64055 0.0
H697 H 0.85356 0.7423 0.73682 0.0
H698 H 0.89278 0.72883 0.70123 0.0
H699 H 0.91874 0.73349 0.64463 0.0
H700 H 0.88078 0.77719 0.55038 0.0
H701 H 0.83944 0.78525 0.58321 0.0
C702 C 0.8325 0.77159 0.65372 0.0
C703 C 0.83189 0.76438 0.69149 0.0
C704 C 0.85517 0.7646 0.63347 0.0
C705 C 0.85346 0.7481 0.70779 0.0
C706 C 0.87602 0.74061 0.68752 0.0
C707 C 0.90119 0.74436 0.63117 0.0
C708 C 0.90293 0.75501 0.59527 0.0
C709 C 0.87748 0.7494 0.65064 0.0
C710 C 0.88009 0.76913 0.57817 0.0
C711 C 0.85642 0.77372 0.5969 0.0
H712 H 0.24191 0.82349 0.62763 0.0
H713 H 0.26215 0.85927 0.7404 0.0
H714 H 0.27203 0.90387 0.71414 0.0
H715 H 0.27107 0.93409 0.65869 0.0
H716 H 0.24911 0.8977 0.54675 0.0
H717 H 0.24331 0.8524 0.57297 0.0
C718 C 0.24858 0.84097 0.64666 0.0
C719 C 0.25097 0.83776 0.68624 0.0
C720 C 0.25365 0.86673 0.63132 0.0
C721 C 0.26022 0.86076 0.70999 0.0
C722 C 0.26563 0.88646 0.69489 0.0
C723 C 0.26548 0.91609 0.64007 0.0
C724 C 0.26082 0.91928 0.60058 0.0
C725 C 0.2619 0.8899 0.65558 0.0
C726 C 0.25306 0.89583 0.57702 0.0
C727 C 0.24968 0.8699 0.59209 0.0
H728 H 0.14959 0.25478 0.76215 0.0
H729 H 0.2048 0.27739 0.68102 0.0
H730 H 0.16524 0.28858 0.63619 0.0
H731 H 0.11477 0.28648 0.61739 0.0
H732 H 0.05964 0.26267 0.69802 0.0
H733 H 0.09899 0.25756 0.74581 0.0
C734 C 0.15283 0.26302 0.7351 0.0
C735 C 0.17996 0.26576 0.72501 0.0
C736 C 0.12993 0.26872 0.70918 0.0
C737 C 0.18405 0.27568 0.68954 0.0
C738 C 0.16144 0.28178 0.66381 0.0
C739 C 0.11148 0.28069 0.64569 0.0
C740 C 0.0845 0.27474 0.65427 0.0
C741 C 0.13427 0.27758 0.67287 0.0
C742 C 0.08031 0.26722 0.69092 0.0
C743 C 0.10279 0.26425 0.71814 0.0
H744 H 0.76458 0.15918 0.7266 0.0
H745 H 0.72985 0.21429 0.64337 0.0
H746 H 0.72142 0.1751 0.5971 0.0
H747 H 0.72771 0.12532 0.57833 0.0
H748 H 0.76249 0.07024 0.66167 0.0
H749 H 0.76712 0.10875 0.70944 0.0
C750 C 0.75438 0.16243 0.69869 0.0
C751 C 0.74723 0.18965 0.68881 0.0
C752 C 0.75008 0.13969 0.67187 0.0
C753 C 0.73491 0.19356 0.65204 0.0
C754 C 0.73038 0.17113 0.62541 0.0
C755 C 0.73592 0.12172 0.6071 0.0
C756 C 0.74489 0.09482 0.61625 0.0
C757 C 0.73843 0.14413 0.63465 0.0
C758 C 0.75558 0.09065 0.65373 0.0
C759 C 0.75822 0.11273 0.68111 0.0
H760 H 0.87137 0.23632 0.32996 0.0
H761 H 0.81706 0.28639 0.39373 0.0
H762 H 0.85585 0.29889 0.44105 0.0
H763 H 0.90423 0.29088 0.46784 0.0
H764 H 0.95843 0.2416 0.40278 0.0
H765 H 0.92085 0.23343 0.35234 0.0
C766 C 0.86826 0.25054 0.35376 0.0
C767 C 0.84149 0.26049 0.35843 0.0
C768 C 0.89057 0.25735 0.38088 0.0
C769 C 0.83757 0.27876 0.3894 0.0
C770 C 0.85969 0.28564 0.41661 0.0
C771 C 0.90782 0.2788 0.44225 0.0
C772 C 0.93387 0.2665 0.43911 0.0
C773 C 0.88611 0.27438 0.41323 0.0
C774 C 0.93843 0.25099 0.40585 0.0
C775 C 0.91697 0.24633 0.37708 0.0
H776 H 0.76054 0.82456 0.41125 0.0
H777 H 0.7417 0.85525 0.29998 0.0
H778 H 0.73308 0.90147 0.32832 0.0
H779 H 0.73474 0.93451 0.3853 0.0
H780 H 0.75579 0.90318 0.4956 0.0
H781 H 0.76016 0.85632 0.46726 0.0
C782 C 0.75449 0.84128 0.39299 0.0
C783 C 0.75211 0.83614 0.35322 0.0
C784 C 0.75029 0.868 0.40951 0.0
C785 C 0.74358 0.85821 0.3305 0.0
C786 C 0.73892 0.88484 0.34679 0.0
C787 C 0.74 0.9173 0.40302 0.0
C788 C 0.74491 0.92236 0.44266 0.0
C789 C 0.74278 0.89019 0.38629 0.0
C790 C 0.75187 0.89987 0.4652 0.0
C791 C 0.75439 0.87306 0.44893 0.0
H792 H 0.2001 0.77542 0.37225 0.0
H793 H 0.16032 0.7476 0.26336 0.0
H794 H 0.11873 0.73495 0.29307 0.0
H795 H 0.09198 0.73647 0.34983 0.0
H796 H 0.1322 0.76713 0.4572 0.0
H797 H 0.17517 0.77413 0.42843 0.0
C798 C 0.18238 0.76645 0.35496 0.0
C799 C 0.1832 0.76283 0.31554 0.0
C800 C 0.15848 0.75996 0.37207 0.0
C801 C 0.16027 0.7506 0.29373 0.0
C802 C 0.13641 0.74358 0.31072 0.0
C803 C 0.11036 0.74422 0.36685 0.0
C804 C 0.109 0.75134 0.40557 0.0
C805 C 0.135 0.74881 0.3498 0.0
C806 C 0.1328 0.76161 0.42738 0.0
C807 C 0.15734 0.76565 0.41092 0.0
H808 H 0.23815 0.14163 0.33112 0.0
H809 H 0.28176 0.1989 0.41245 0.0
H810 H 0.29207 0.16146 0.45551 0.0
H811 H 0.2839 0.11337 0.47333 0.0
H812 H 0.24274 0.05517 0.39082 0.0
H813 H 0.23611 0.09167 0.3454 0.0
C814 C 0.25083 0.14565 0.35764 0.0
C815 C 0.25972 0.17308 0.36806 0.0
C816 C 0.25659 0.12382 0.38256 0.0
C817 C 0.27531 0.17799 0.40321 0.0
C818 C 0.28088 0.15657 0.42812 0.0
C819 C 0.27428 0.10839 0.44502 0.0
C820 C 0.26399 0.08127 0.43564 0.0
C821 C 0.27101 0.12951 0.4186 0.0
C822 C 0.25094 0.07569 0.39893 0.0
C823 C 0.24709 0.09665 0.37289 0.0
H824 H 0.67195 0.71866 0.81953 0.0
H825 H 0.70626 0.79944 0.85266 0.0
H826 H 0.66531 0.8112 0.88553 0.0
H827 H 0.62197 0.79643 0.91041 0.0
H828 H 0.58753 0.71581 0.87486 0.0
H829 H 0.62636 0.70605 0.838 0.0
C830 C 0.67024 0.73901 0.83346 0.0
C831 C 0.69217 0.7581 0.83383 0.0
C832 C 0.64681 0.74547 0.85255 0.0
C833 C 0.68958 0.78446 0.85173 0.0
C834 C 0.66628 0.79107 0.87084 0.0
C835 C 0.62263 0.77693 0.89409 0.0
C836 C 0.60196 0.75667 0.89642 0.0
C837 C 0.64505 0.77146 0.87228 0.0
C838 C 0.60343 0.73151 0.87486 0.0
C839 C 0.62559 0.72594 0.85339 0.0
H840 H 0.28654 0.66898 0.83095 0.0
H841 H 0.21463 0.71423 0.86042 0.0
H842 H 0.20238 0.67634 0.89962 0.0
H843 H 0.21484 0.63157 0.93045 0.0
H844 H 0.2874 0.5877 0.89914 0.0
H845 H 0.29657 0.62356 0.85654 0.0
C846 C 0.2679 0.67044 0.84548 0.0
C847 C 0.2516 0.69463 0.84258 0.0
C848 C 0.26132 0.6488 0.86844 0.0
C849 C 0.22748 0.6959 0.86164 0.0
C850 C 0.22065 0.67426 0.88446 0.0
C851 C 0.23245 0.62969 0.91398 0.0
C852 C 0.25072 0.60689 0.9191 0.0
C853 C 0.23778 0.65077 0.88887 0.0
C854 C 0.27334 0.60509 0.89704 0.0
C855 C 0.27857 0.62562 0.87226 0.0
H856 H 0.3469 0.26127 0.85456 0.0
H857 H 0.30425 0.24868 0.95312 0.0
H858 H 0.34779 0.23662 0.98881 0.0
H859 H 0.39871 0.23478 0.99422 0.0
H860 H 0.44205 0.24909 0.89703 0.0
H861 H 0.39788 0.25511 0.85845 0.0
C862 C 0.34717 0.25522 0.88354 0.0
C863 C 0.32247 0.25585 0.90125 0.0
C864 C 0.37251 0.24894 0.90425 0.0
C865 C 0.32306 0.24835 0.93899 0.0
C866 C 0.34795 0.24157 0.95945 0.0
C867 C 0.3983 0.23864 0.96439 0.0
C868 C 0.42335 0.24151 0.9483 0.0
C869 C 0.3729 0.24255 0.94273 0.0
C870 C 0.42285 0.24674 0.90977 0.0
C871 C 0.39764 0.2503 0.88785 0.0
H872 H 0.77662 0.34113 0.84804 0.0
H873 H 0.69509 0.32884 0.88409 0.0
H874 H 0.69967 0.37068 0.92358 0.0
H875 H 0.72698 0.41023 0.95128 0.0
H876 H 0.79946 0.43348 0.89915 0.0
H877 H 0.79872 0.38837 0.86404 0.0
C878 C 0.75969 0.34765 0.86409 0.0
C879 C 0.73658 0.32975 0.86514 0.0
C880 C 0.76109 0.37388 0.88481 0.0
C881 C 0.71444 0.34008 0.88493 0.0
C882 C 0.71669 0.36461 0.90737 0.0
C883 C 0.74243 0.40592 0.93172 0.0
C884 C 0.76382 0.42531 0.92938 0.0
C885 C 0.74015 0.38137 0.90832 0.0
C886 C 0.78344 0.41871 0.90344 0.0
C887 C 0.78273 0.39297 0.88262 0.0
H888 H 0.6561 0.28302 0.24461 0.0
H889 H 0.70343 0.22968 0.17479 0.0
H890 H 0.6614 0.21676 0.13397 0.0
H891 H 0.61218 0.22543 0.11372 0.0
H892 H 0.56409 0.27653 0.18539 0.0
H893 H 0.60519 0.28552 0.23004 0.0
C894 C 0.65692 0.26788 0.22116 0.0
C895 C 0.68264 0.25708 0.21276 0.0
C896 C 0.63263 0.2606 0.1978 0.0
C897 C 0.68372 0.23786 0.182 0.0
C898 C 0.65975 0.23072 0.15846 0.0
C899 C 0.61064 0.238 0.13957 0.0
C900 C 0.58534 0.25073 0.14601 0.0
C901 C 0.63424 0.24264 0.1654 0.0
C902 C 0.5835 0.26686 0.17967 0.0
C903 C 0.60697 0.272 0.20515 0.0
H904 H 0.73873 0.69586 0.13106 0.0
H905 H 0.76349 0.66743 0.24221 0.0
H906 H 0.77316 0.62134 0.21429 0.0
H907 H 0.77092 0.58764 0.15804 0.0
H908 H 0.7444 0.6167 0.04789 0.0
H909 H 0.7386 0.66352 0.07554 0.0
C910 C 0.74631 0.67966 0.14937 0.0
C911 C 0.75007 0.68539 0.189 0.0
C912 C 0.75119 0.653 0.13314 0.0
C913 C 0.76052 0.66401 0.21176 0.0
C914 C 0.76579 0.63744 0.19574 0.0
C915 C 0.76418 0.60435 0.14015 0.0
C916 C 0.75813 0.59862 0.10078 0.0
C917 C 0.76068 0.63147 0.15648 0.0
C918 C 0.7492 0.6205 0.0781 0.0
C919 C 0.74588 0.6473 0.09396 0.0
H920 H 0.34366 0.7788 0.20435 0.0
H921 H 0.29126 0.75238 0.10425 0.0
H922 H 0.32856 0.76108 0.06491 0.0
H923 H 0.37784 0.77016 0.05983 0.0
H924 H 0.43083 0.79694 0.15906 0.0
H925 H 0.39179 0.79436 0.19785 0.0
C926 C 0.34022 0.77588 0.17383 0.0
C927 C 0.31476 0.76496 0.15718 0.0
C928 C 0.36208 0.78045 0.15132 0.0
C929 C 0.31067 0.76085 0.11762 0.0
C930 C 0.33206 0.76558 0.09515 0.0
C931 C 0.38065 0.77584 0.08987 0.0
C932 C 0.40713 0.78346 0.10672 0.0
C933 C 0.35814 0.77438 0.11181 0.0
C934 C 0.41058 0.79102 0.14555 0.0
C935 C 0.38828 0.78944 0.1677 0.0
H936 H 0.28871 0.34402 0.23599 0.0
H937 H 0.21312 0.302 0.19314 0.0
H938 H 0.20036 0.34098 0.15303 0.0
H939 H 0.21344 0.38535 0.12495 0.0
H940 H 0.28985 0.4259 0.16926 0.0
H941 H 0.29942 0.38943 0.21322 0.0
C942 C 0.26911 0.34361 0.21848 0.0
C943 C 0.25189 0.31998 0.21786 0.0
C944 C 0.26228 0.36579 0.1949 0.0
C945 C 0.22664 0.31994 0.19477 0.0
C946 C 0.21952 0.34216 0.1714 0.0
C947 C 0.23198 0.3864 0.14457 0.0
C948 C 0.25116 0.40838 0.14279 0.0
C949 C 0.23755 0.36497 0.17038 0.0
C950 C 0.275 0.40913 0.16884 0.0
C951 C 0.28048 0.38826 0.19437 0.0
H952 H 0.3494 0.2879 0.2444 0.0
H953 H 0.31017 0.21253 0.19653 0.0
H954 H 0.35001 0.20254 0.16054 0.0
H955 H 0.3936 0.21813 0.13758 0.0
H956 H 0.43351 0.29274 0.18843 0.0
H957 H 0.39567 0.30027 0.22774 0.0
C958 C 0.34993 0.26896 0.22674 0.0
C959 C 0.32697 0.25093 0.22312 0.0
C960 C 0.37274 0.26355 0.20595 0.0
C961 C 0.32776 0.22653 0.20007 0.0
C962 C 0.35041 0.221 0.1792 0.0
C963 C 0.39444 0.23576 0.15775 0.0
C964 C 0.41636 0.25517 0.15902 0.0
C965 C 0.37272 0.23977 0.18113 0.0
C966 C 0.41665 0.2779 0.18551 0.0
C967 C 0.39507 0.28213 0.20845 0.0
H968 H 0.73498 0.31623 0.15273 0.0
H969 H 0.77125 0.35162 0.25983 0.0
H970 H 0.77997 0.39517 0.23016 0.0
H971 H 0.77345 0.42432 0.17439 0.0
H972 H 0.73472 0.3884 0.06884 0.0
H973 H 0.73029 0.34403 0.09743 0.0
C974 C 0.74474 0.3335 0.16965 0.0
C975 C 0.75202 0.33093 0.20851 0.0
C976 C 0.74891 0.35846 0.15273 0.0
C977 C 0.76542 0.35315 0.22984 0.0
C978 C 0.7702 0.37808 0.21294 0.0
C979 C 0.76427 0.40665 0.15773 0.0
C980 C 0.75405 0.40965 0.11977 0.0
C981 C 0.76146 0.38117 0.17454 0.0
C982 C 0.74223 0.38668 0.09833 0.0
C983 C 0.73982 0.36129 0.11456 0.0
H984 H 0.68713 0.74989 0.1303 0.0
H985 H 0.6583 0.76627 0.24015 0.0
H986 H 0.61213 0.77691 0.21033 0.0
H987 H 0.57889 0.77803 0.15265 0.0
H988 H 0.60792 0.7599 0.04351 0.0
H989 H 0.65496 0.75311 0.07322 0.0
C990 C 0.67076 0.75585 0.14775 0.0
C991 C 0.67615 0.75705 0.18744 0.0
C992 C 0.64422 0.76137 0.13045 0.0
C993 C 0.65482 0.76535 0.20957 0.0
C994 C 0.62833 0.7712 0.19252 0.0
C995 C 0.5957 0.77288 0.1356 0.0
C996 C 0.59025 0.76945 0.09609 0.0
C997 C 0.62264 0.76877 0.15299 0.0
C998 C 0.6119 0.76266 0.07398 0.0
C999 C 0.63869 0.75876 0.09096 0.0
H1000 H 0.25776 0.68715 0.12593 0.0
H1001 H 0.27022 0.6676 0.24326 0.0
H1002 H 0.26302 0.61818 0.22543 0.0
H1003 H 0.25571 0.58036 0.17552 0.0
H1004 H 0.24425 0.60082 0.05857 0.0
H1005 H 0.24877 0.65025 0.07696 0.0
C1006 C 0.25893 0.67202 0.14758 0.0
C1007 C 0.26483 0.68078 0.18573 0.0
C1008 C 0.25511 0.64393 0.13709 0.0
C1009 C 0.26569 0.6612 0.21368 0.0
C1010 C 0.26174 0.63302 0.20348 0.0
C1011 C 0.25411 0.59583 0.15436 0.0
C1012 C 0.24983 0.58745 0.11592 0.0
C1013 C 0.25684 0.62413 0.1652 0.0
C1014 C 0.24762 0.60722 0.08832 0.0
C1015 C 0.2502 0.63532 0.09881 0.0
H1016 H 0.32247 0.75777 0.89509 0.0
H1017 H 0.34627 0.76167 0.78179 0.0
H1018 H 0.39446 0.77028 0.80709 0.0
H1019 H 0.43054 0.77308 0.86177 0.0
H1020 H 0.40629 0.76761 0.97446 0.0
H1021 H 0.35762 0.76299 0.94927 0.0
C1022 C 0.3382 0.76057 0.87591 0.0
C1023 C 0.33081 0.75882 0.83658 0.0
C1024 C 0.36582 0.76503 0.89064 0.0
C1025 C 0.35135 0.76304 0.81215 0.0
C1026 C 0.37895 0.76776 0.82662 0.0
C1027 C 0.41442 0.77122 0.8806 0.0
C1028 C 0.42167 0.77072 0.91979 0.0
C1029 C 0.38652 0.76829 0.8658 0.0
C1030 C 0.40092 0.76811 0.9442 0.0
C1031 C 0.3732 0.76542 0.9298 0.0
H1032 H 0.25049 0.3508 0.85021 0.0
H1033 H 0.25172 0.3142 0.9584 0.0
H1034 H 0.24383 0.35967 0.98896 0.0
H1035 H 0.24097 0.41032 0.98557 0.0
H1036 H 0.24204 0.44738 0.87821 0.0
H1037 H 0.24458 0.40128 0.84623 0.0
C1038 C 0.24837 0.35281 0.88031 0.0
C1039 C 0.25159 0.3294 0.90216 0.0
C1040 C 0.24464 0.37906 0.89772 0.0
C1041 C 0.2493 0.3321 0.94121 0.0
C1042 C 0.24492 0.35802 0.95864 0.0
C1043 C 0.24145 0.40806 0.95512 0.0
C1044 C 0.24144 0.43172 0.93396 0.0
C1045 C 0.24328 0.3817 0.93732 0.0
C1046 C 0.2421 0.42911 0.89467 0.0
C1047 C 0.24356 0.40288 0.87657 0.0
H1048 H 0.65728 0.26076 0.8292 0.0
H1049 H 0.71424 0.22037 0.90881 0.0
H1050 H 0.6761 0.20904 0.94611 0.0
H1051 H 0.62756 0.21672 0.96054 0.0
H1052 H 0.57184 0.26033 0.88239 0.0
H1053 H 0.60821 0.26434 0.84015 0.0
C1054 C 0.66106 0.24852 0.85394 0.0
C1055 C 0.68831 0.24077 0.86582 0.0
C1056 C 0.63928 0.24332 0.87602 0.0
C1057 C 0.69328 0.22585 0.89865 0.0
C1058 C 0.67152 0.21978 0.92022 0.0
C1059 C 0.62327 0.22658 0.9339 0.0
C1060 C 0.59706 0.23848 0.92486 0.0
C1061 C 0.64457 0.22929 0.90991 0.0
C1062 C 0.59192 0.25139 0.89033 0.0
C1063 C 0.61269 0.25361 0.86607 0.0
H1064 H 0.74011 0.66488 0.80598 0.0
H1065 H 0.80082 0.71186 0.87908 0.0
H1066 H 0.8137 0.67025 0.91354 0.0
H1067 H 0.80219 0.62239 0.92843 0.0
H1068 H 0.74043 0.57628 0.85551 0.0
H1069 H 0.73374 0.6154 0.81481 0.0
C1070 C 0.75664 0.66569 0.82887 0.0
C1071 C 0.76948 0.69109 0.84034 0.0
C1072 C 0.76352 0.64193 0.84866 0.0
C1073 C 0.79082 0.69229 0.86993 0.0
C1074 C 0.79801 0.6686 0.88968 0.0
C1075 C 0.78793 0.6207 0.90298 0.0
C1076 C 0.77153 0.59675 0.89514 0.0
C1077 C 0.78377 0.64354 0.88013 0.0
C1078 C 0.75298 0.59474 0.86224 0.0
C1079 C 0.7491 0.61708 0.83907 0.0
loop_
_geom_bond_atom_site_label_1
_geom_bond_atom_site_label_2
_geom_bond_distance
_geom_bond_site_symmetry_2
_ccdc_geom_bond_type
H0 C6 0.930 . S
H1 C9 0.931 . S
H2 C11 0.931 . S
H3 C13 0.930 . S
H4 C15 0.930 . S
H5 C17 0.931 . S
C6 H0 0.930 . S
C6 C7 1.380 . S
C6 C8 1.394 . S
C7 C6 1.380 . S
C7 C11 1.382 . S
C8 C6 1.394 . S
C8 C9 1.400 . S
C9 H1 0.931 . S
C9 C8 1.400 . S
C9 C10 1.375 . S
C10 C9 1.375 . S
C10 C11 1.415 . S
C10 C12 1.501 . S
C11 H2 0.931 . S
C11 C7 1.382 . S
C11 C10 1.415 . S
C12 C10 1.501 . S
C12 C13 1.384 . S
C12 C17 1.408 . S
C13 H3 0.930 . S
C13 C12 1.384 . S
C13 C14 1.389 . S
C14 C13 1.389 . S
C14 C15 1.405 . S
C15 H4 0.930 . S
C15 C14 1.405 . S
C15 C16 1.364 . S
C16 C15 1.364 . S
C16 C17 1.400 . S
C17 H5 0.931 . S
C17 C12 1.408 . S
C17 C16 1.400 . S
H18 C24 0.930 . S
H19 C27 0.931 . S
H20 C29 0.931 . S
H21 C31 0.930 . S
H22 C33 0.930 . S
H23 C35 0.931 . S
C24 H18 0.930 . S
C24 C25 1.380 . S
C24 C26 1.394 . S
C25 C24 1.380 . S
C25 C29 1.382 . S
C26 C24 1.394 . S
C26 C27 1.400 . S
C27 H19 0.931 . S
C27 C26 1.400 . S
C27 C28 1.375 . S
C28 C27 1.375 . S
C28 C29 1.415 . S
C28 C30 1.501 . S
C29 H20 0.931 . S
C29 C25 1.382 . S
C29 C28 1.415 . S
C30 C28 1.501 . S
C30 C31 1.384 . S
C30 C35 1.408 . S
C31 H21 0.930 . S
C31 C30 1.384 . S
C31 C32 1.389 . S
C32 C31 1.389 . S
C32 C33 1.405 . S
C33 H22 0.930 . S
C33 C32 1.405 . S
C33 C34 1.364 . S
C34 C33 1.364 . S
C34 C35 1.400 . S
C35 H23 0.931 . S
C35 C30 1.408 . S
C35 C34 1.400 . S
H36 C42 0.930 . S
H37 C45 0.931 . S
H38 C47 0.931 . S
H39 C49 0.930 . S
H40 C51 0.930 . S
H41 C53 0.931 . S
C42 H36 0.930 . S
C42 C43 1.380 . S
C42 C44 1.394 . S
C43 C42 1.380 . S
C43 C47 1.382 . S
C44 C42 1.394 . S
C44 C45 1.400 . S
C45 H37 0.931 . S
C45 C44 1.400 . S
C45 C46 1.375 . S
C46 C45 1.375 . S
C46 C47 1.415 . S
C46 C48 1.501 . S
C47 H38 0.931 . S
C47 C43 1.382 . S
C47 C46 1.415 . S
C48 C46 1.501 . S
C48 C49 1.384 . S
C48 C53 1.408 . S
C49 H39 0.930 . S
C49 C48 1.384 . S
C49 C50 1.389 . S
C50 C49 1.389 . S
C50 C51 1.405 . S
C51 H40 0.930 . S
C51 C50 1.405 . S
C51 C52 1.364 . S
C52 C51 1.364 . S
C52 C53 1.400 . S
C53 H41 0.931 . S
C53 C48 1.408 . S
C53 C52 1.400 . S
H54 C60 0.930 . S
H55 C63 0.931 . S
H56 C65 0.931 . S
H57 C67 0.930 . S
H58 C69 0.930 . S
H59 C71 0.931 . S
C60 H54 0.930 . S
C60 C61 1.380 . S
C60 C62 1.394 . S
C61 C60 1.380 . S
C61 C65 1.382 . S
C62 C60 1.394 . S
C62 C63 1.400 . S
C63 H55 0.931 . S
C63 C62 1.400 . S
C63 C64 1.375 . S
C64 C63 1.375 . S
C64 C65 1.415 . S
C64 C66 1.501 . S
C65 H56 0.931 . S
C65 C61 1.382 . S
C65 C64 1.415 . S
C66 C64 1.501 . S
C66 C67 1.384 . S
C66 C71 1.408 . S
C67 H57 0.930 . S
C67 C66 1.384 . S
C67 C68 1.389 . S
C68 C67 1.389 . S
C68 C69 1.405 . S
C69 H58 0.930 . S
C69 C68 1.405 . S
C69 C70 1.364 . S
C70 C69 1.364 . S
C70 C71 1.400 . S
C71 H59 0.931 . S
C71 C66 1.408 . S
C71 C70 1.400 . S
H72 C78 0.930 . S
H73 C81 0.931 . S
H74 C83 0.931 . S
H75 C85 0.930 . S
H76 C87 0.930 . S
H77 C89 0.931 . S
C78 H72 0.930 . S
C78 C79 1.380 . S
C78 C80 1.394 . S
C79 C78 1.380 . S
C79 C83 1.382 . S
C80 C78 1.394 . S
C80 C81 1.400 . S
C81 H73 0.931 . S
C81 C80 1.400 . S
C81 C82 1.375 . S
C82 C81 1.375 . S
C82 C83 1.415 . S
C82 C84 1.501 . S
C83 H74 0.931 . S
C83 C79 1.382 . S
C83 C82 1.415 . S
C84 C82 1.501 . S
C84 C85 1.384 . S
C84 C89 1.408 . S
C85 H75 0.930 . S
C85 C84 1.384 . S
C85 C86 1.389 . S
C86 C85 1.389 . S
C86 C87 1.405 . S
C87 H76 0.930 . S
C87 C86 1.405 . S
C87 C88 1.364 . S
C88 C87 1.364 . S
C88 C89 1.400 . S
C89 H77 0.931 . S
C89 C84 1.408 . S
C89 C88 1.400 . S
H90 C96 0.930 . S
H91 C99 0.931 . S
H92 C101 0.931 . S
H93 C103 0.930 . S
H94 C105 0.930 . S
H95 C107 0.931 . S
C96 H90 0.930 . S
C96 C97 1.380 . S
C96 C98 1.394 . S
C97 C96 1.380 . S
C97 C101 1.382 . S
C98 C96 1.394 . S
C98 C99 1.400 . S
C99 H91 0.931 . S
C99 C98 1.400 . S
C99 C100 1.375 . S
C100 C99 1.375 . S
C100 C101 1.415 . S
C100 C102 1.501 . S
C101 H92 0.931 . S
C101 C97 1.382 . S
C101 C100 1.415 . S
C102 C100 1.501 . S
C102 C103 1.384 . S
C102 C107 1.408 . S
C103 H93 0.930 . S
C103 C102 1.384 . S
C103 C104 1.389 . S
C104 C103 1.389 . S
C104 C105 1.405 . S
C105 H94 0.930 . S
C105 C104 1.405 . S
C105 C106 1.364 . S
C106 C105 1.364 . S
C106 C107 1.400 . S
C107 H95 0.931 . S
C107 C102 1.408 . S
C107 C106 1.400 . S
H108 C114 0.930 . S
H109 C117 0.931 . S
H110 C119 0.931 . S
H111 C121 0.930 . S
H112 C123 0.930 . S
H113 C125 0.931 . S
C114 H108 0.930 . S
C114 C115 1.380 . S
C114 C116 1.394 . S
C115 C114 1.380 . S
C115 C119 1.382 . S
C116 C114 1.394 . S
C116 C117 1.400 . S
C117 H109 0.931 . S
C117 C116 1.400 . S
C117 C118 1.375 . S
C118 C117 1.375 . S
C118 C119 1.415 . S
C118 C120 1.501 . S
C119 H110 0.931 . S
C119 C115 1.382 . S
C119 C118 1.415 . S
C120 C118 1.501 . S
C120 C121 1.384 . S
C120 C125 1.408 . S
C121 H111 0.930 . S
C121 C120 1.384 . S
C121 C122 1.389 . S
C122 C121 1.389 . S
C122 C123 1.405 . S
C123 H112 0.930 . S
C123 C122 1.405 . S
C123 C124 1.364 . S
C124 C123 1.364 . S
C124 C125 1.400 . S
C125 H113 0.931 . S
C125 C120 1.408 . S
C125 C124 1.400 . S
H126 C132 0.930 . S
H127 C135 0.931 . S
H128 C137 0.931 . S
H129 C139 0.930 . S
H130 C141 0.930 . S
H131 C143 0.931 . S
C132 H126 0.930 . S
C132 C133 1.380 . S
C132 C134 1.394 . S
C133 C132 1.380 . S
C133 C137 1.382 . S
C134 C132 1.394 . S
C134 C135 1.400 . S
C135 H127 0.931 . S
C135 C134 1.400 . S
C135 C136 1.375 . S
C136 C135 1.375 . S
C136 C137 1.415 . S
C136 C138 1.501 . S
C137 H128 0.931 . S
C137 C133 1.382 . S
C137 C136 1.415 . S
C138 C136 1.501 . S
C138 C139 1.384 . S
C138 C143 1.408 . S
C139 H129 0.930 . S
C139 C138 1.384 . S
C139 C140 1.389 . S
C140 C139 1.389 . S
C140 C141 1.405 . S
C141 H130 0.930 . S
C141 C140 1.405 . S
C141 C142 1.364 . S
C142 C141 1.364 . S
C142 C143 1.400 . S
C143 H131 0.931 . S
C143 C138 1.408 . S
C143 C142 1.400 . S
C144 C145 1.443 . S
C144 N148 1.376 . S
C144 C182 1.389 . S
C145 C144 1.443 . S
C145 C146 1.340 . S
C145 H185 0.951 . S
C146 C145 1.340 . S
C146 C147 1.439 . S
C146 H186 0.950 . S
C147 C146 1.439 . S
C147 N148 1.374 . S
C147 C181 1.395 . S
N148 C144 1.376 . S
N148 C147 1.374 . S
N148 Co149 2.008 . S
Co149 N148 2.008 . S
Co149 N150 1.995 1_455 S
Co149 N155 2.008 1_455 S
Co149 N160 1.995 . S
Co149 N165 2.282 1_455 S
Co149 N171 2.282 . S
N150 Co149 1.995 1_655 S
N150 C151 1.376 . S
N150 C154 1.383 . S
C151 N150 1.376 . S
C151 C152 1.446 . S
C151 C181 1.391 1_655 S
C152 C151 1.446 . S
C152 C153 1.339 . S
C152 H187 0.949 . S
C153 C152 1.339 . S
C153 C154 1.439 . S
C153 H188 0.950 . S
C154 N150 1.383 . S
C154 C153 1.439 . S
C154 C183 1.392 . S
N155 Co149 2.008 1_655 S
N155 C156 1.376 . S
N155 C159 1.374 . S
C156 N155 1.376 . S
C156 C157 1.443 . S
C156 C183 1.389 . S
C157 C156 1.443 . S
C157 C158 1.340 . S
C157 H189 0.951 . S
C158 C157 1.340 . S
C158 C159 1.439 . S
C158 H190 0.950 . S
C159 N155 1.374 . S
C159 C158 1.439 . S
C159 C184 1.417 . S
N160 Co149 1.995 . S
N160 C161 1.376 . S
N160 C164 1.383 . S
C161 N160 1.376 . S
C161 C162 1.446 . S
C161 C184 1.368 1_455 S
C162 C161 1.446 . S
C162 C163 1.339 . S
C162 H191 0.949 . S
C163 C162 1.339 . S
C163 C164 1.439 . S
C163 H192 0.950 . S
C164 N160 1.383 . S
C164 C163 1.439 . S
C164 C182 1.392 . S
N165 Co149 2.282 1_655 S
N165 C168 1.332 . S
N165 C170 1.332 . S
C166 C167 1.386 . S
C166 C169 1.388 . S
C167 C166 1.386 . S
C167 C168 1.382 . S
C167 H193 0.950 . S
C168 N165 1.332 . S
C168 C167 1.382 . S
C168 H179 0.952 . S
C169 C166 1.388 . S
C169 C170 1.382 . S
C169 H194 0.950 . S
C170 N165 1.332 . S
C170 C169 1.382 . S
C170 H180 0.948 . S
N171 Co149 2.282 . S
N171 C175 1.332 . S
N171 C176 1.332 . S
C172 C173 1.388 . S
C172 C176 1.382 . S
C172 H195 0.950 . S
C173 C172 1.388 . S
C173 C174 1.386 . S
C174 C173 1.386 . S
C174 C175 1.382 . S
C174 H196 0.950 . S
C175 N171 1.332 . S
C175 C174 1.382 . S
C175 H177 0.952 . S
C176 N171 1.332 . S
C176 C172 1.382 . S
C176 H178 0.948 . S
H177 C175 0.952 . S
H178 C176 0.948 . S
H179 C168 0.952 . S
H180 C170 0.948 . S
C181 C147 1.395 . S
C181 C151 1.391 1_455 S
C182 C144 1.389 . S
C182 C164 1.392 . S
C183 C154 1.392 . S
C183 C156 1.389 . S
C184 C159 1.417 . S
C184 C161 1.368 1_655 S
H185 C145 0.951 . S
H186 C146 0.950 . S
H187 C152 0.949 . S
H188 C153 0.950 . S
H189 C157 0.951 . S
H190 C158 0.950 . S
H191 C162 0.949 . S
H192 C163 0.950 . S
H193 C167 0.950 . S
H194 C169 0.950 . S
H195 C172 0.950 . S
H196 C174 0.950 . S
C197 C198 1.443 . S
C197 N201 1.376 . S
C197 C235 1.389 . S
C198 C197 1.443 . S
C198 C199 1.340 . S
C198 H238 0.951 . S
C199 C198 1.340 . S
C199 C200 1.439 . S
C199 H239 0.950 . S
C200 C199 1.439 . S
C200 N201 1.374 . S
C200 C234 1.395 . S
N201 C197 1.376 . S
N201 C200 1.374 . S
N201 Co202 2.008 . S
Co202 N201 2.008 . S
Co202 N203 1.995 1_545 S
Co202 N208 2.008 1_545 S
Co202 N213 1.995 . S
Co202 N218 2.282 1_545 S
Co202 N224 2.282 . S
N203 Co202 1.995 1_565 S
N203 C204 1.376 . S
N203 C207 1.383 . S
C204 N203 1.376 . S
C204 C205 1.446 . S
C204 C234 1.391 1_565 S
C205 C204 1.446 . S
C205 C206 1.339 . S
C205 H240 0.949 . S
C206 C205 1.339 . S
C206 C207 1.439 . S
C206 H241 0.950 . S
C207 N203 1.383 . S
C207 C206 1.439 . S
C207 C236 1.392 . S
N208 Co202 2.008 1_565 S
N208 C209 1.376 . S
N208 C212 1.374 . S
C209 N208 1.376 . S
C209 C210 1.443 . S
C209 C236 1.389 . S
C210 C209 1.443 . S
C210 C211 1.340 . S
C210 H242 0.951 . S
C211 C210 1.340 . S
C211 C212 1.439 . S
C211 H243 0.950 . S
C212 N208 1.374 . S
C212 C211 1.439 . S
C212 C237 1.369 1_565 S
N213 Co202 1.995 . S
N213 C214 1.376 . S
N213 C217 1.383 . S
C214 N213 1.376 . S
C214 C215 1.446 . S
C214 C237 1.419 . S
C215 C214 1.446 . S
C215 C216 1.339 . S
C215 H244 0.949 . S
C216 C215 1.339 . S
C216 C217 1.439 . S
C216 H245 0.950 . S
C217 N213 1.383 . S
C217 C216 1.439 . S
C217 C235 1.392 . S
N218 Co202 2.282 1_565 S
N218 C221 1.332 . S
N218 C223 1.332 . S
C219 C220 1.386 . S
C219 C222 1.388 . S
C220 C219 1.386 . S
C220 C221 1.382 . S
C220 H246 0.950 . S
C221 N218 1.332 . S
C221 C220 1.382 . S
C221 H232 0.952 . S
C222 C219 1.388 . S
C222 C223 1.382 . S
C222 H247 0.950 . S
C223 N218 1.332 . S
C223 C222 1.382 . S
C223 H233 0.948 . S
N224 Co202 2.282 . S
N224 C228 1.332 . S
N224 C229 1.332 . S
C225 C226 1.388 . S
C225 C229 1.382 . S
C225 H248 0.950 . S
C226 C225 1.388 . S
C226 C227 1.386 . S
C227 C226 1.386 . S
C227 C228 1.382 . S
C227 H249 0.950 . S
C228 N224 1.332 . S
C228 C227 1.382 . S
C228 H230 0.952 . S
C229 N224 1.332 . S
C229 C225 1.382 . S
C229 H231 0.948 . S
H230 C228 0.952 . S
H231 C229 0.948 . S
H232 C221 0.952 . S
H233 C223 0.948 . S
C234 C200 1.395 . S
C234 C204 1.391 1_545 S
C235 C197 1.389 . S
C235 C217 1.392 . S
C236 C207 1.392 . S
C236 C209 1.389 . S
C237 C212 1.369 1_545 S
C237 C214 1.419 . S
H238 C198 0.951 . S
H239 C199 0.950 . S
H240 C205 0.949 . S
H241 C206 0.950 . S
H242 C210 0.951 . S
H243 C211 0.950 . S
H244 C215 0.949 . S
H245 C216 0.950 . S
H246 C220 0.950 . S
H247 C222 0.950 . S
H248 C225 0.950 . S
H249 C227 0.950 . S
C250 C251 1.443 . S
C250 N254 1.376 . S
C250 C288 1.389 . S
C251 C250 1.443 . S
C251 C252 1.340 . S
C251 H291 0.951 . S
C252 C251 1.340 . S
C252 C253 1.439 . S
C252 H292 0.950 . S
C253 C252 1.439 . S
C253 N254 1.374 . S
C253 C287 1.395 . S
N254 C250 1.376 . S
N254 C253 1.374 . S
N254 Co255 2.008 . S
Co255 N254 2.008 . S
Co255 N256 1.995 1_455 S
Co255 N261 2.008 1_455 S
Co255 N266 1.995 . S
Co255 N271 2.282 1_455 S
Co255 N277 2.282 . S
N256 Co255 1.995 1_655 S
N256 C257 1.376 . S
N256 C260 1.383 . S
C257 N256 1.376 . S
C257 C258 1.446 . S
C257 C287 1.391 1_655 S
C258 C257 1.446 . S
C258 C259 1.339 . S
C258 H293 0.949 . S
C259 C258 1.339 . S
C259 C260 1.439 . S
C259 H294 0.950 . S
C260 N256 1.383 . S
C260 C259 1.439 . S
C260 C289 1.392 . S
N261 Co255 2.008 1_655 S
N261 C262 1.376 . S
N261 C265 1.374 . S
C262 N261 1.376 . S
C262 C263 1.443 . S
C262 C289 1.389 . S
C263 C262 1.443 . S
C263 C264 1.340 . S
C263 H295 0.951 . S
C264 C263 1.340 . S
C264 C265 1.439 . S
C264 H296 0.950 . S
C265 N261 1.374 . S
C265 C264 1.439 . S
C265 C290 1.395 . S
N266 Co255 1.995 . S
N266 C267 1.376 . S
N266 C270 1.383 . S
C267 N266 1.376 . S
C267 C268 1.446 . S
C267 C290 1.391 1_455 S
C268 C267 1.446 . S
C268 C269 1.339 . S
C268 H297 0.949 . S
C269 C268 1.339 . S
C269 C270 1.439 . S
C269 H298 0.950 . S
C270 N266 1.383 . S
C270 C269 1.439 . S
C270 C288 1.392 . S
N271 Co255 2.282 1_655 S
N271 C274 1.332 . S
N271 C276 1.332 . S
C272 C273 1.386 . S
C272 C275 1.388 . S
C273 C272 1.386 . S
C273 C274 1.382 . S
C273 H299 0.950 . S
C274 N271 1.332 . S
C274 C273 1.382 . S
C274 H285 0.952 . S
C275 C272 1.388 . S
C275 C276 1.382 . S
C275 H300 0.950 . S
C276 N271 1.332 . S
C276 C275 1.382 . S
C276 H286 0.948 . S
N277 Co255 2.282 . S
N277 C281 1.332 . S
N277 C282 1.332 . S
C278 C279 1.388 . S
C278 C282 1.382 . S
C278 H301 0.950 . S
C279 C278 1.388 . S
C279 C280 1.386 . S
C280 C279 1.386 . S
C280 C281 1.382 . S
C280 H302 0.950 . S
C281 N277 1.332 . S
C281 C280 1.382 . S
C281 H283 0.952 . S
C282 N277 1.332 . S
C282 C278 1.382 . S
C282 H284 0.948 . S
H283 C281 0.952 . S
H284 C282 0.948 . S
H285 C274 0.952 . S
H286 C276 0.948 . S
C287 C253 1.395 . S
C287 C257 1.391 1_455 S
C288 C250 1.389 . S
C288 C270 1.392 . S
C289 C260 1.392 . S
C289 C262 1.389 . S
C290 C265 1.395 . S
C290 C267 1.391 1_655 S
H291 C251 0.951 . S
H292 C252 0.950 . S
H293 C258 0.949 . S
H294 C259 0.950 . S
H295 C263 0.951 . S
H296 C264 0.950 . S
H297 C268 0.949 . S
H298 C269 0.950 . S
H299 C273 0.950 . S
H300 C275 0.950 . S
H301 C278 0.950 . S
H302 C280 0.950 . S
C303 C304 1.443 . S
C303 N307 1.376 . S
C303 C341 1.389 . S
C304 C303 1.443 . S
C304 C305 1.340 . S
C304 H344 0.951 . S
C305 C304 1.340 . S
C305 C306 1.439 . S
C305 H345 0.950 . S
C306 C305 1.439 . S
C306 N307 1.374 . S
C306 C340 1.400 . S
N307 C303 1.376 . S
N307 C306 1.374 . S
N307 Co308 2.008 1_565 S
Co308 N307 2.008 1_545 S
Co308 N309 1.995 . S
Co308 N314 2.008 . S
Co308 N319 1.995 1_545 S
Co308 N324 2.282 . S
Co308 N330 2.282 1_545 S
N309 Co308 1.995 . S
N309 C310 1.376 . S
N309 C313 1.383 . S
C310 N309 1.376 . S
C310 C311 1.446 . S
C310 C340 1.386 1_545 S
C311 C310 1.446 . S
C311 C312 1.339 . S
C311 H346 0.949 . S
C312 C311 1.339 . S
C312 C313 1.439 . S
C312 H347 0.950 . S
C313 N309 1.383 . S
C313 C312 1.439 . S
C313 C342 1.392 . S
N314 Co308 2.008 . S
N314 C315 1.376 . S
N314 C318 1.374 . S
C315 N314 1.376 . S
C315 C316 1.443 . S
C315 C342 1.389 . S
C316 C315 1.443 . S
C316 C317 1.340 . S
C316 H348 0.951 . S
C317 C316 1.340 . S
C317 C318 1.439 . S
C317 H349 0.950 . S
C318 N314 1.374 . S
C318 C317 1.439 . S
C318 C343 1.395 . S
N319 Co308 1.995 1_565 S
N319 C320 1.376 . S
N319 C323 1.383 . S
C320 N319 1.376 . S
C320 C321 1.446 . S
C320 C343 1.391 1_565 S
C321 C320 1.446 . S
C321 C322 1.339 . S
C321 H350 0.949 . S
C322 C321 1.339 . S
C322 C323 1.439 . S
C322 H351 0.950 . S
C323 N319 1.383 . S
C323 C322 1.439 . S
C323 C341 1.392 . S
N324 Co308 2.282 . S
N324 C327 1.332 . S
N324 C329 1.332 . S
C325 C326 1.386 . S
C325 C328 1.388 . S
C326 C325 1.386 . S
C326 C327 1.382 . S
C326 H352 0.950 . S
C327 N324 1.332 . S
C327 C326 1.382 . S
C327 H338 0.952 . S
C328 C325 1.388 . S
C328 C329 1.382 . S
C328 H353 0.950 . S
C329 N324 1.332 . S
C329 C328 1.382 . S
C329 H339 0.948 . S
N330 Co308 2.282 1_565 S
N330 C334 1.332 . S
N330 C335 1.332 . S
C331 C332 1.388 . S
C331 C335 1.382 . S
C331 H354 0.950 . S
C332 C331 1.388 . S
C332 C333 1.386 . S
C333 C332 1.386 . S
C333 C334 1.382 . S
C333 H355 0.950 . S
C334 N330 1.332 . S
C334 C333 1.382 . S
C334 H336 0.952 . S
C335 N330 1.332 . S
C335 C331 1.382 . S
C335 H337 0.948 . S
H336 C334 0.952 . S
H337 C335 0.948 . S
H338 C327 0.952 . S
H339 C329 0.948 . S
C340 C306 1.400 . S
C340 C310 1.386 1_565 S
C341 C303 1.389 . S
C341 C323 1.392 . S
C342 C313 1.392 . S
C342 C315 1.389 . S
C343 C318 1.395 . S
C343 C320 1.391 1_545 S
H344 C304 0.951 . S
H345 C305 0.950 . S
H346 C311 0.949 . S
H347 C312 0.950 . S
H348 C316 0.951 . S
H349 C317 0.950 . S
H350 C321 0.949 . S
H351 C322 0.950 . S
H352 C326 0.950 . S
H353 C328 0.950 . S
H354 C331 0.950 . S
H355 C333 0.950 . S
C356 C357 1.443 . S
C356 N360 1.376 . S
C356 C394 1.389 . S
C357 C356 1.443 . S
C357 C358 1.340 . S
C357 H397 0.951 . S
C358 C357 1.340 . S
C358 C359 1.439 . S
C358 H398 0.950 . S
C359 C358 1.439 . S
C359 N360 1.374 . S
C359 C393 1.394 . S
N360 C356 1.376 . S
N360 C359 1.374 . S
N360 Co361 2.012 . S
Co361 N360 2.012 . S
Co361 N362 1.990 1_554 S
Co361 N367 2.004 1_554 S
Co361 N372 2.000 . S
Co361 N377 2.290 . S
Co361 N383 2.275 1_554 S
N362 Co361 1.990 1_556 S
N362 C363 1.376 . S
N362 C366 1.383 . S
C363 N362 1.376 . S
C363 C364 1.446 . S
C363 C393 1.392 1_556 S
C364 C363 1.446 . S
C364 C365 1.339 . S
C364 H399 0.949 . S
C365 C364 1.339 . S
C365 C366 1.439 . S
C365 H400 0.950 . S
C366 N362 1.383 . S
C366 C365 1.439 . S
C366 C395 1.392 . S
N367 Co361 2.004 1_556 S
N367 C368 1.376 . S
N367 C371 1.374 . S
C368 N367 1.376 . S
C368 C369 1.443 . S
C368 C395 1.389 . S
C369 C368 1.443 . S
C369 C370 1.340 . S
C369 H401 0.951 . S
C370 C369 1.340 . S
C370 C371 1.439 . S
C370 H402 0.950 . S
C371 N367 1.374 . S
C371 C370 1.439 . S
C371 C396 1.383 1_556 S
N372 Co361 2.000 . S
N372 C373 1.376 . S
N372 C376 1.383 . S
C373 N372 1.376 . S
C373 C374 1.446 . S
C373 C396 1.403 . S
C374 C373 1.446 . S
C374 C375 1.339 . S
C374 H403 0.949 . S
C375 C374 1.339 . S
C375 C376 1.439 . S
C375 H404 0.950 . S
C376 N372 1.383 . S
C376 C375 1.439 . S
C376 C394 1.392 . S
N377 Co361 2.290 . S
N377 C380 1.332 . S
N377 C382 1.332 . S
C378 C379 1.386 . S
C378 C381 1.388 . S
C379 C378 1.386 . S
C379 C380 1.382 . S
C379 H405 0.950 . S
C380 N377 1.332 . S
C380 C379 1.382 . S
C380 H391 0.952 . S
C381 C378 1.388 . S
C381 C382 1.382 . S
C381 H406 0.950 . S
C382 N377 1.332 . S
C382 C381 1.382 . S
C382 H392 0.948 . S
N383 Co361 2.275 1_556 S
N383 C387 1.332 . S
N383 C388 1.332 . S
C384 C385 1.388 . S
C384 C388 1.382 . S
C384 H407 0.950 . S
C385 C384 1.388 . S
C385 C386 1.386 . S
C386 C385 1.386 . S
C386 C387 1.382 . S
C386 H408 0.950 . S
C387 N383 1.332 . S
C387 C386 1.382 . S
C387 H389 0.952 . S
C388 N383 1.332 . S
C388 C384 1.382 . S
C388 H390 0.948 . S
H389 C387 0.952 . S
H390 C388 0.948 . S
H391 C380 0.952 . S
H392 C382 0.948 . S
C393 C359 1.394 . S
C393 C363 1.392 1_554 S
C394 C356 1.389 . S
C394 C376 1.392 . S
C395 C366 1.392 . S
C395 C368 1.389 . S
C396 C371 1.383 1_554 S
C396 C373 1.403 . S
H397 C357 0.951 . S
H398 C358 0.950 . S
H399 C364 0.949 . S
H400 C365 0.950 . S
H401 C369 0.951 . S
H402 C370 0.950 . S
H403 C374 0.949 . S
H404 C375 0.950 . S
H405 C379 0.950 . S
H406 C381 0.950 . S
H407 C384 0.950 . S
H408 C386 0.950 . S
C409 C410 1.443 . S
C409 N413 1.376 . S
C409 C447 1.389 . S
C410 C409 1.443 . S
C410 C411 1.340 . S
C410 H450 0.951 . S
C411 C410 1.340 . S
C411 C412 1.439 . S
C411 H451 0.950 . S
C412 C411 1.439 . S
C412 N413 1.374 . S
C412 C446 1.395 . S
N413 C409 1.376 . S
N413 C412 1.374 . S
N413 Co414 2.008 . S
Co414 N413 2.008 . S
Co414 N415 1.995 1_554 S
Co414 N420 2.008 . S
Co414 N425 1.995 . S
Co414 N430 2.282 . S
Co414 N436 2.282 1_554 S
N415 Co414 1.995 1_556 S
N415 C416 1.376 . S
N415 C419 1.383 . S
C416 N415 1.376 . S
C416 C417 1.446 . S
C416 C446 1.391 1_556 S
C417 C416 1.446 . S
C417 C418 1.339 . S
C417 H452 0.949 . S
C418 C417 1.339 . S
C418 C419 1.439 . S
C418 H453 0.950 . S
C419 N415 1.383 . S
C419 C418 1.439 . S
C419 C448 1.392 . S
N420 Co414 2.008 . S
N420 C421 1.376 1_554 S
N420 C424 1.374 . S
C421 N420 1.376 1_556 S
C421 C422 1.443 . S
C421 C448 1.389 . S
C422 C421 1.443 . S
C422 C423 1.340 1_556 S
C422 H454 0.951 . S
C423 C422 1.340 1_554 S
C423 C424 1.439 . S
C423 H455 0.950 . S
C424 N420 1.374 . S
C424 C423 1.439 . S
C424 C449 1.395 . S
N425 Co414 1.995 . S
N425 C426 1.376 . S
N425 C429 1.383 . S
C426 N425 1.376 . S
C426 C427 1.446 . S
C426 C449 1.391 . S
C427 C426 1.446 . S
C427 C428 1.339 . S
C427 H456 0.949 . S
C428 C427 1.339 . S
C428 C429 1.439 . S
C428 H457 0.950 . S
C429 N425 1.383 . S
C429 C428 1.439 . S
C429 C447 1.392 . S
N430 Co414 2.282 . S
N430 C433 1.332 . S
N430 C435 1.332 . S
C431 C432 1.386 . S
C431 C434 1.388 . S
C432 C431 1.386 . S
C432 C433 1.382 . S
C432 H458 0.950 . S
C433 N430 1.332 . S
C433 C432 1.382 . S
C433 H444 0.952 . S
C434 C431 1.388 . S
C434 C435 1.382 . S
C434 H459 0.950 . S
C435 N430 1.332 . S
C435 C434 1.382 . S
C435 H445 0.948 . S
N436 Co414 2.282 1_556 S
N436 C440 1.332 . S
N436 C441 1.332 . S
C437 C438 1.388 . S
C437 C441 1.382 . S
C437 H460 0.950 . S
C438 C437 1.388 . S
C438 C439 1.386 . S
C439 C438 1.386 . S
C439 C440 1.382 . S
C439 H461 0.950 . S
C440 N436 1.332 . S
C440 C439 1.382 . S
C440 H442 0.952 . S
C441 N436 1.332 . S
C441 C437 1.382 . S
C441 H443 0.948 . S
H442 C440 0.952 . S
H443 C441 0.948 . S
H444 C433 0.952 . S
H445 C435 0.948 . S
C446 C412 1.395 . S
C446 C416 1.391 1_554 S
C447 C409 1.389 . S
C447 C429 1.392 . S
C448 C419 1.392 . S
C448 C421 1.389 . S
C449 C424 1.395 . S
C449 C426 1.391 . S
H450 C410 0.951 . S
H451 C411 0.950 . S
H452 C417 0.949 . S
H453 C418 0.950 . S
H454 C422 0.951 . S
H455 C423 0.950 . S
H456 C427 0.949 . S
H457 C428 0.950 . S
H458 C432 0.950 . S
H459 C434 0.950 . S
H460 C437 0.950 . S
H461 C439 0.950 . S
C462 C463 1.443 . S
C462 N466 1.376 1_556 S
C462 C500 1.389 . S
C463 C462 1.443 . S
C463 C464 1.340 1_556 S
C463 H503 0.951 . S
C464 C463 1.340 1_554 S
C464 C465 1.439 . S
C464 H504 0.950 . S
C465 C464 1.439 . S
C465 N466 1.374 . S
C465 C499 1.395 . S
N466 C462 1.376 1_554 S
N466 C465 1.374 . S
N466 Co467 2.008 . S
Co467 N466 2.008 . S
Co467 N468 1.995 . S
Co467 N473 2.008 . S
Co467 N478 1.995 . S
Co467 N483 2.282 1_554 S
Co467 N489 2.282 . S
N468 Co467 1.995 . S
N468 C469 1.376 . S
N468 C472 1.383 . S
C469 N468 1.376 . S
C469 C470 1.446 . S
C469 C499 1.391 . S
C470 C469 1.446 . S
C470 C471 1.339 . S
C470 H505 0.949 . S
C471 C470 1.339 . S
C471 C472 1.439 . S
C471 H506 0.950 . S
C472 N468 1.383 . S
C472 C471 1.439 . S
C472 C501 1.392 . S
N473 Co467 2.008 . S
N473 C474 1.376 . S
N473 C477 1.374 . S
C474 N473 1.376 . S
C474 C475 1.443 . S
C474 C501 1.389 . S
C475 C474 1.443 . S
C475 C476 1.340 . S
C475 H507 0.951 . S
C476 C475 1.340 . S
C476 C477 1.439 . S
C476 H508 0.950 . S
C477 N473 1.374 . S
C477 C476 1.439 . S
C477 C502 1.395 . S
N478 Co467 1.995 . S
N478 C479 1.376 . S
N478 C482 1.383 1_554 S
C479 N478 1.376 . S
C479 C480 1.446 1_554 S
C479 C502 1.391 . S
C480 C479 1.446 1_556 S
C480 C481 1.339 . S
C480 H509 0.949 . S
C481 C480 1.339 . S
C481 C482 1.439 . S
C481 H510 0.950 . S
C482 N478 1.383 1_556 S
C482 C481 1.439 . S
C482 C500 1.392 . S
N483 Co467 2.282 1_556 S
N483 C486 1.332 . S
N483 C488 1.332 . S
C484 C485 1.386 . S
C484 C487 1.388 . S
C485 C484 1.386 . S
C485 C486 1.382 . S
C485 H511 0.950 . S
C486 N483 1.332 . S
C486 C485 1.382 . S
C486 H497 0.952 . S
C487 C484 1.388 . S
C487 C488 1.382 . S
C487 H512 0.950 . S
C488 N483 1.332 . S
C488 C487 1.382 . S
C488 H498 0.948 1_556 S
N489 Co467 2.282 . S
N489 C493 1.332 . S
N489 C494 1.332 . S
C490 C491 1.388 . S
C490 C494 1.382 . S
C490 H513 0.950 . S
C491 C490 1.388 . S
C491 C492 1.386 . S
C492 C491 1.386 . S
C492 C493 1.382 . S
C492 H514 0.950 . S
C493 N489 1.332 . S
C493 C492 1.382 . S
C493 H495 0.952 . S
C494 N489 1.332 . S
C494 C490 1.382 . S
C494 H496 0.948 . S
H495 C493 0.952 . S
H496 C494 0.948 . S
H497 C486 0.952 . S
H498 C488 0.948 1_554 S
C499 C465 1.395 . S
C499 C469 1.391 . S
C500 C462 1.389 . S
C500 C482 1.392 . S
C501 C472 1.392 . S
C501 C474 1.389 . S
C502 C477 1.395 . S
C502 C479 1.391 . S
H503 C463 0.951 . S
H504 C464 0.950 . S
H505 C470 0.949 . S
H506 C471 0.950 . S
H507 C475 0.951 . S
H508 C476 0.950 . S
H509 C480 0.949 . S
H510 C481 0.950 . S
H511 C485 0.950 . S
H512 C487 0.950 . S
H513 C490 0.950 . S
H514 C492 0.950 . S
C515 C516 1.443 . S
C515 N519 1.376 . S
C515 C553 1.389 . S
C516 C515 1.443 . S
C516 C517 1.340 . S
C516 H556 0.951 . S
C517 C516 1.340 . S
C517 C518 1.439 . S
C517 H557 0.950 . S
C518 C517 1.439 . S
C518 N519 1.374 . S
C518 C552 1.395 1_554 S
N519 C515 1.376 . S
N519 C518 1.374 . S
N519 Co520 2.008 . S
Co520 N519 2.008 . S
Co520 N521 1.995 1_554 S
Co520 N526 2.008 1_554 S
Co520 N531 1.995 . S
Co520 N536 2.282 . S
Co520 N542 2.282 1_554 S
N521 Co520 1.995 1_556 S
N521 C522 1.376 . S
N521 C525 1.383 . S
C522 N521 1.376 . S
C522 C523 1.446 . S
C522 C552 1.391 . S
C523 C522 1.446 . S
C523 C524 1.339 . S
C523 H558 0.949 . S
C524 C523 1.339 . S
C524 C525 1.439 . S
C524 H559 0.950 . S
C525 N521 1.383 . S
C525 C524 1.439 . S
C525 C554 1.392 . S
N526 Co520 2.008 1_556 S
N526 C527 1.376 . S
N526 C530 1.374 1_556 S
C527 N526 1.376 . S
C527 C528 1.443 . S
C527 C554 1.389 . S
C528 C527 1.443 . S
C528 C529 1.340 . S
C528 H560 0.951 . S
C529 C528 1.340 . S
C529 C530 1.439 1_556 S
C529 H561 0.950 . S
C530 N526 1.374 1_554 S
C530 C529 1.439 1_554 S
C530 C555 1.395 . S
N531 Co520 1.995 . S
N531 C532 1.376 . S
N531 C535 1.383 . S
C532 N531 1.376 . S
C532 C533 1.446 . S
C532 C555 1.391 . S
C533 C532 1.446 . S
C533 C534 1.339 . S
C533 H562 0.949 . S
C534 C533 1.339 . S
C534 C535 1.439 . S
C534 H563 0.950 . S
C535 N531 1.383 . S
C535 C534 1.439 . S
C535 C553 1.392 . S
N536 Co520 2.282 . S
N536 C539 1.332 . S
N536 C541 1.332 . S
C537 C538 1.386 . S
C537 C540 1.388 . S
C538 C537 1.386 . S
C538 C539 1.382 . S
C538 H564 0.950 . S
C539 N536 1.332 . S
C539 C538 1.382 . S
C539 H550 0.952 . S
C540 C537 1.388 . S
C540 C541 1.382 . S
C540 H565 0.950 . S
C541 N536 1.332 . S
C541 C540 1.382 . S
C541 H551 0.948 . S
N542 Co520 2.282 1_556 S
N542 C546 1.332 . S
N542 C547 1.332 . S
C543 C544 1.388 . S
C543 C547 1.382 . S
C543 H566 0.950 . S
C544 C543 1.388 . S
C544 C545 1.386 . S
C545 C544 1.386 . S
C545 C546 1.382 . S
C545 H567 0.950 . S
C546 N542 1.332 . S
C546 C545 1.382 . S
C546 H548 0.952 . S
C547 N542 1.332 . S
C547 C543 1.382 . S
C547 H549 0.948 . S
H548 C546 0.952 . S
H549 C547 0.948 . S
H550 C539 0.952 . S
H551 C541 0.948 . S
C552 C518 1.395 1_556 S
C552 C522 1.391 . S
C553 C515 1.389 . S
C553 C535 1.392 . S
C554 C525 1.392 . S
C554 C527 1.389 . S
C555 C530 1.395 . S
C555 C532 1.391 . S
H556 C516 0.951 . S
H557 C517 0.950 . S
H558 C523 0.949 . S
H559 C524 0.950 . S
H560 C528 0.951 . S
H561 C529 0.950 . S
H562 C533 0.949 . S
H563 C534 0.950 . S
H564 C538 0.950 . S
H565 C540 0.950 . S
H566 C543 0.950 . S
H567 C545 0.950 . S
H568 C574 0.930 . S
H569 C577 0.930 . S
H570 C578 0.930 . S
H571 C579 0.930 . S
H572 C582 0.930 . S
H573 C583 0.930 . S
C574 H568 0.930 . S
C574 C575 1.355 . S
C574 C576 1.415 . S
C575 C574 1.355 . S
C575 C577 1.419 . S
C576 C574 1.415 . S
C576 C581 1.425 . S
C576 C583 1.409 . S
C577 H569 0.930 . S
C577 C575 1.419 . S
C577 C578 1.362 . S
C578 H570 0.930 . S
C578 C577 1.362 . S
C578 C581 1.409 . S
C579 H571 0.930 . S
C579 C580 1.355 . S
C579 C581 1.415 . S
C580 C579 1.355 . S
C580 C582 1.419 . S
C581 C576 1.425 . S
C581 C578 1.409 . S
C581 C579 1.415 . S
C582 H572 0.930 . S
C582 C580 1.419 . S
C582 C583 1.362 . S
C583 H573 0.930 . S
C583 C576 1.409 . S
C583 C582 1.362 . S
H584 C590 0.930 . S
H585 C593 0.930 . S
H586 C594 0.930 . S
H587 C595 0.930 . S
H588 C598 0.930 . S
H589 C599 0.930 . S
C590 H584 0.930 . S
C590 C591 1.355 . S
C590 C592 1.415 . S
C591 C590 1.355 . S
C591 C593 1.419 . S
C592 C590 1.415 . S
C592 C597 1.425 . S
C592 C599 1.409 . S
C593 H585 0.930 . S
C593 C591 1.419 . S
C593 C594 1.362 . S
C594 H586 0.930 . S
C594 C593 1.362 . S
C594 C597 1.409 . S
C595 H587 0.930 . S
C595 C596 1.355 . S
C595 C597 1.415 . S
C596 C595 1.355 . S
C596 C598 1.419 . S
C597 C592 1.425 . S
C597 C594 1.409 . S
C597 C595 1.415 . S
C598 H588 0.930 . S
C598 C596 1.419 . S
C598 C599 1.362 . S
C599 H589 0.930 . S
C599 C592 1.409 . S
C599 C598 1.362 . S
H600 C606 0.930 . S
H601 C609 0.930 . S
H602 C610 0.930 . S
H603 C611 0.930 . S
H604 C614 0.930 . S
H605 C615 0.930 . S
C606 H600 0.930 . S
C606 C607 1.355 . S
C606 C608 1.415 . S
C607 C606 1.355 . S
C607 C609 1.419 . S
C608 C606 1.415 . S
C608 C613 1.425 . S
C608 C615 1.409 . S
C609 H601 0.930 . S
C609 C607 1.419 . S
C609 C610 1.362 . S
C610 H602 0.930 . S
C610 C609 1.362 . S
C610 C613 1.409 . S
C611 H603 0.930 . S
C611 C612 1.355 . S
C611 C613 1.415 . S
C612 C611 1.355 . S
C612 C614 1.419 . S
C613 C608 1.425 . S
C613 C610 1.409 . S
C613 C611 1.415 . S
C614 H604 0.930 . S
C614 C612 1.419 . S
C614 C615 1.362 . S
C615 H605 0.930 . S
C615 C608 1.409 . S
C615 C614 1.362 . S
H616 C622 0.930 . S
H617 C625 0.930 . S
H618 C626 0.930 . S
H619 C627 0.930 . S
H620 C630 0.930 . S
H621 C631 0.930 . S
C622 H616 0.930 . S
C622 C623 1.355 . S
C622 C624 1.415 . S
C623 C622 1.355 . S
C623 C625 1.419 . S
C624 C622 1.415 . S
C624 C629 1.425 . S
C624 C631 1.409 . S
C625 H617 0.930 . S
C625 C623 1.419 . S
C625 C626 1.362 . S
C626 H618 0.930 . S
C626 C625 1.362 . S
C626 C629 1.409 . S
C627 H619 0.930 . S
C627 C628 1.355 . S
C627 C629 1.415 . S
C628 C627 1.355 . S
C628 C630 1.419 . S
C629 C624 1.425 . S
C629 C626 1.409 . S
C629 C627 1.415 . S
C630 H620 0.930 . S
C630 C628 1.419 . S
C630 C631 1.362 . S
C631 H621 0.930 . S
C631 C624 1.409 . S
C631 C630 1.362 . S
H632 C638 0.930 . S
H633 C641 0.930 . S
H634 C642 0.930 . S
H635 C643 0.930 . S
H636 C646 0.930 . S
H637 C647 0.930 . S
C638 H632 0.930 . S
C638 C639 1.355 . S
C638 C640 1.415 . S
C639 C638 1.355 . S
C639 C641 1.419 . S
C640 C638 1.415 . S
C640 C645 1.425 . S
C640 C647 1.409 . S
C641 H633 0.930 . S
C641 C639 1.419 . S
C641 C642 1.362 . S
C642 H634 0.930 . S
C642 C641 1.362 . S
C642 C645 1.409 . S
C643 H635 0.930 . S
C643 C644 1.355 . S
C643 C645 1.415 . S
C644 C643 1.355 . S
C644 C646 1.419 . S
C645 C640 1.425 . S
C645 C642 1.409 . S
C645 C643 1.415 . S
C646 H636 0.930 . S
C646 C644 1.419 . S
C646 C647 1.362 . S
C647 H637 0.930 . S
C647 C640 1.409 . S
C647 C646 1.362 . S
H648 C654 0.930 . S
H649 C657 0.930 . S
H650 C658 0.930 . S
H651 C659 0.930 . S
H652 C662 0.930 . S
H653 C663 0.930 . S
C654 H648 0.930 . S
C654 C655 1.355 . S
C654 C656 1.415 . S
C655 C654 1.355 . S
C655 C657 1.419 . S
C656 C654 1.415 . S
C656 C661 1.425 . S
C656 C663 1.409 . S
C657 H649 0.930 . S
C657 C655 1.419 . S
C657 C658 1.362 . S
C658 H650 0.930 . S
C658 C657 1.362 . S
C658 C661 1.409 . S
C659 H651 0.930 . S
C659 C660 1.355 . S
C659 C661 1.415 . S
C660 C659 1.355 . S
C660 C662 1.419 . S
C661 C656 1.425 . S
C661 C658 1.409 . S
C661 C659 1.415 . S
C662 H652 0.930 . S
C662 C660 1.419 . S
C662 C663 1.362 . S
C663 H653 0.930 . S
C663 C656 1.409 . S
C663 C662 1.362 . S
H664 C670 0.930 . S
H665 C673 0.930 . S
H666 C674 0.930 . S
H667 C675 0.930 . S
H668 C678 0.930 . S
H669 C679 0.930 . S
C670 H664 0.930 . S
C670 C671 1.355 . S
C670 C672 1.415 . S
C671 C670 1.355 . S
C671 C673 1.419 . S
C672 C670 1.415 . S
C672 C677 1.425 . S
C672 C679 1.409 . S
C673 H665 0.930 . S
C673 C671 1.419 . S
C673 C674 1.362 . S
C674 H666 0.930 . S
C674 C673 1.362 . S
C674 C677 1.409 . S
C675 H667 0.930 . S
C675 C676 1.355 . S
C675 C677 1.415 . S
C676 C675 1.355 . S
C676 C678 1.419 . S
C677 C672 1.425 . S
C677 C674 1.409 . S
C677 C675 1.415 . S
C678 H668 0.930 . S
C678 C676 1.419 . S
C678 C679 1.362 . S
C679 H669 0.930 . S
C679 C672 1.409 . S
C679 C678 1.362 . S
H680 C686 0.930 . S
H681 C689 0.930 . S
H682 C690 0.930 . S
H683 C691 0.930 . S
H684 C694 0.930 . S
H685 C695 0.930 . S
C686 H680 0.930 . S
C686 C687 1.355 . S
C686 C688 1.415 . S
C687 C686 1.355 . S
C687 C689 1.419 . S
C688 C686 1.415 . S
C688 C693 1.425 . S
C688 C695 1.409 . S
C689 H681 0.930 . S
C689 C687 1.419 . S
C689 C690 1.362 . S
C690 H682 0.930 . S
C690 C689 1.362 . S
C690 C693 1.409 . S
C691 H683 0.930 . S
C691 C692 1.355 . S
C691 C693 1.415 . S
C692 C691 1.355 . S
C692 C694 1.419 . S
C693 C688 1.425 . S
C693 C690 1.409 . S
C693 C691 1.415 . S
C694 H684 0.930 . S
C694 C692 1.419 . S
C694 C695 1.362 . S
C695 H685 0.930 . S
C695 C688 1.409 . S
C695 C694 1.362 . S
H696 C702 0.930 . S
H697 C705 0.930 . S
H698 C706 0.930 . S
H699 C707 0.930 . S
H700 C710 0.930 . S
H701 C711 0.930 . S
C702 H696 0.930 . S
C702 C703 1.355 . S
C702 C704 1.415 . S
C703 C702 1.355 . S
C703 C705 1.419 . S
C704 C702 1.415 . S
C704 C709 1.425 . S
C704 C711 1.409 . S
C705 H697 0.930 . S
C705 C703 1.419 . S
C705 C706 1.362 . S
C706 H698 0.930 . S
C706 C705 1.362 . S
C706 C709 1.409 . S
C707 H699 0.930 . S
C707 C708 1.355 . S
C707 C709 1.415 . S
C708 C707 1.355 . S
C708 C710 1.419 . S
C709 C704 1.425 . S
C709 C706 1.409 . S
C709 C707 1.415 . S
C710 H700 0.930 . S
C710 C708 1.419 . S
C710 C711 1.362 . S
C711 H701 0.930 . S
C711 C704 1.409 . S
C711 C710 1.362 . S
H712 C718 0.930 . S
H713 C721 0.930 . S
H714 C722 0.930 . S
H715 C723 0.930 . S
H716 C726 0.930 . S
H717 C727 0.930 . S
C718 H712 0.930 . S
C718 C719 1.355 . S
C718 C720 1.415 . S
C719 C718 1.355 . S
C719 C721 1.419 . S
C720 C718 1.415 . S
C720 C725 1.425 . S
C720 C727 1.409 . S
C721 H713 0.930 . S
C721 C719 1.419 . S
C721 C722 1.362 . S
C722 H714 0.930 . S
C722 C721 1.362 . S
C722 C725 1.409 . S
C723 H715 0.930 . S
C723 C724 1.355 . S
C723 C725 1.415 . S
C724 C723 1.355 . S
C724 C726 1.419 . S
C725 C720 1.425 . S
C725 C722 1.409 . S
C725 C723 1.415 . S
C726 H716 0.930 . S
C726 C724 1.419 . S
C726 C727 1.362 . S
C727 H717 0.930 . S
C727 C720 1.409 . S
C727 C726 1.362 . S
H728 C734 0.930 . S
H729 C737 0.930 . S
H730 C738 0.930 . S
H731 C739 0.930 . S
H732 C742 0.930 . S
H733 C743 0.930 . S
C734 H728 0.930 . S
C734 C735 1.355 . S
C734 C736 1.415 . S
C735 C734 1.355 . S
C735 C737 1.419 . S
C736 C734 1.415 . S
C736 C741 1.425 . S
C736 C743 1.409 . S
C737 H729 0.930 . S
C737 C735 1.419 . S
C737 C738 1.362 . S
C738 H730 0.930 . S
C738 C737 1.362 . S
C738 C741 1.409 . S
C739 H731 0.930 . S
C739 C740 1.355 . S
C739 C741 1.415 . S
C740 C739 1.355 . S
C740 C742 1.419 . S
C741 C736 1.425 . S
C741 C738 1.409 . S
C741 C739 1.415 . S
C742 H732 0.930 . S
C742 C740 1.419 . S
C742 C743 1.362 . S
C743 H733 0.930 . S
C743 C736 1.409 . S
C743 C742 1.362 . S
H744 C750 0.930 . S
H745 C753 0.930 . S
H746 C754 0.930 . S
H747 C755 0.930 . S
H748 C758 0.930 . S
H749 C759 0.930 . S
C750 H744 0.930 . S
C750 C751 1.355 . S
C750 C752 1.415 . S
C751 C750 1.355 . S
C751 C753 1.419 . S
C752 C750 1.415 . S
C752 C757 1.425 . S
C752 C759 1.409 . S
C753 H745 0.930 . S
C753 C751 1.419 . S
C753 C754 1.362 . S
C754 H746 0.930 . S
C754 C753 1.362 . S
C754 C757 1.409 . S
C755 H747 0.930 . S
C755 C756 1.355 . S
C755 C757 1.415 . S
C756 C755 1.355 . S
C756 C758 1.419 . S
C757 C752 1.425 . S
C757 C754 1.409 . S
C757 C755 1.415 . S
C758 H748 0.930 . S
C758 C756 1.419 . S
C758 C759 1.362 . S
C759 H749 0.930 . S
C759 C752 1.409 . S
C759 C758 1.362 . S
H760 C766 0.930 . S
H761 C769 0.930 . S
H762 C770 0.930 . S
H763 C771 0.930 . S
H764 C774 0.930 . S
H765 C775 0.930 . S
C766 H760 0.930 . S
C766 C767 1.355 . S
C766 C768 1.415 . S
C767 C766 1.355 . S
C767 C769 1.419 . S
C768 C766 1.415 . S
C768 C773 1.425 . S
C768 C775 1.409 . S
C769 H761 0.930 . S
C769 C767 1.419 . S
C769 C770 1.362 . S
C770 H762 0.930 . S
C770 C769 1.362 . S
C770 C773 1.409 . S
C771 H763 0.930 . S
C771 C772 1.355 . S
C771 C773 1.415 . S
C772 C771 1.355 . S
C772 C774 1.419 . S
C773 C768 1.425 . S
C773 C770 1.409 . S
C773 C771 1.415 . S
C774 H764 0.930 . S
C774 C772 1.419 . S
C774 C775 1.362 . S
C775 H765 0.930 . S
C775 C768 1.409 . S
C775 C774 1.362 . S
H776 C782 0.930 . S
H777 C785 0.930 . S
H778 C786 0.930 . S
H779 C787 0.930 . S
H780 C790 0.930 . S
H781 C791 0.930 . S
C782 H776 0.930 . S
C782 C783 1.355 . S
C782 C784 1.415 . S
C783 C782 1.355 . S
C783 C785 1.419 . S
C784 C782 1.415 . S
C784 C789 1.425 . S
C784 C791 1.409 . S
C785 H777 0.930 . S
C785 C783 1.419 . S
C785 C786 1.362 . S
C786 H778 0.930 . S
C786 C785 1.362 . S
C786 C789 1.409 . S
C787 H779 0.930 . S
C787 C788 1.355 . S
C787 C789 1.415 . S
C788 C787 1.355 . S
C788 C790 1.419 . S
C789 C784 1.425 . S
C789 C786 1.409 . S
C789 C787 1.415 . S
C790 H780 0.930 . S
C790 C788 1.419 . S
C790 C791 1.362 . S
C791 H781 0.930 . S
C791 C784 1.409 . S
C791 C790 1.362 . S
H792 C798 0.930 . S
H793 C801 0.930 . S
H794 C802 0.930 . S
H795 C803 0.930 . S
H796 C806 0.930 . S
H797 C807 0.930 . S
C798 H792 0.930 . S
C798 C799 1.355 . S
C798 C800 1.415 . S
C799 C798 1.355 . S
C799 C801 1.419 . S
C800 C798 1.415 . S
C800 C805 1.425 . S
C800 C807 1.409 . S
C801 H793 0.930 . S
C801 C799 1.419 . S
C801 C802 1.362 . S
C802 H794 0.930 . S
C802 C801 1.362 . S
C802 C805 1.409 . S
C803 H795 0.930 . S
C803 C804 1.355 . S
C803 C805 1.415 . S
C804 C803 1.355 . S
C804 C806 1.419 . S
C805 C800 1.425 . S
C805 C802 1.409 . S
C805 C803 1.415 . S
C806 H796 0.930 . S
C806 C804 1.419 . S
C806 C807 1.362 . S
C807 H797 0.930 . S
C807 C800 1.409 . S
C807 C806 1.362 . S
H808 C814 0.930 . S
H809 C817 0.930 . S
H810 C818 0.930 . S
H811 C819 0.930 . S
H812 C822 0.930 . S
H813 C823 0.930 . S
C814 H808 0.930 . S
C814 C815 1.355 . S
C814 C816 1.415 . S
C815 C814 1.355 . S
C815 C817 1.419 . S
C816 C814 1.415 . S
C816 C821 1.425 . S
C816 C823 1.409 . S
C817 H809 0.930 . S
C817 C815 1.419 . S
C817 C818 1.362 . S
C818 H810 0.930 . S
C818 C817 1.362 . S
C818 C821 1.409 . S
C819 H811 0.930 . S
C819 C820 1.355 . S
C819 C821 1.415 . S
C820 C819 1.355 . S
C820 C822 1.419 . S
C821 C816 1.425 . S
C821 C818 1.409 . S
C821 C819 1.415 . S
C822 H812 0.930 . S
C822 C820 1.419 . S
C822 C823 1.362 . S
C823 H813 0.930 . S
C823 C816 1.409 . S
C823 C822 1.362 . S
H824 C830 0.930 . S
H825 C833 0.930 . S
H826 C834 0.930 . S
H827 C835 0.930 . S
H828 C838 0.930 . S
H829 C839 0.930 . S
C830 H824 0.930 . S
C830 C831 1.355 . S
C830 C832 1.415 . S
C831 C830 1.355 . S
C831 C833 1.419 . S
C832 C830 1.415 . S
C832 C837 1.425 . S
C832 C839 1.409 . S
C833 H825 0.930 . S
C833 C831 1.419 . S
C833 C834 1.362 . S
C834 H826 0.930 . S
C834 C833 1.362 . S
C834 C837 1.409 . S
C835 H827 0.930 . S
C835 C836 1.355 . S
C835 C837 1.415 . S
C836 C835 1.355 . S
C836 C838 1.419 . S
C837 C832 1.425 . S
C837 C834 1.409 . S
C837 C835 1.415 . S
C838 H828 0.930 . S
C838 C836 1.419 . S
C838 C839 1.362 . S
C839 H829 0.930 . S
C839 C832 1.409 . S
C839 C838 1.362 . S
H840 C846 0.930 . S
H841 C849 0.930 . S
H842 C850 0.930 . S
H843 C851 0.930 . S
H844 C854 0.930 . S
H845 C855 0.930 . S
C846 H840 0.930 . S
C846 C847 1.355 . S
C846 C848 1.415 . S
C847 C846 1.355 . S
C847 C849 1.419 . S
C848 C846 1.415 . S
C848 C853 1.425 . S
C848 C855 1.409 . S
C849 H841 0.930 . S
C849 C847 1.419 . S
C849 C850 1.362 . S
C850 H842 0.930 . S
C850 C849 1.362 . S
C850 C853 1.409 . S
C851 H843 0.930 . S
C851 C852 1.355 . S
C851 C853 1.415 . S
C852 C851 1.355 . S
C852 C854 1.419 . S
C853 C848 1.425 . S
C853 C850 1.409 . S
C853 C851 1.415 . S
C854 H844 0.930 . S
C854 C852 1.419 . S
C854 C855 1.362 . S
C855 H845 0.930 . S
C855 C848 1.409 . S
C855 C854 1.362 . S
H856 C862 0.930 . S
H857 C865 0.930 . S
H858 C866 0.930 . S
H859 C867 0.930 . S
H860 C870 0.930 . S
H861 C871 0.930 . S
C862 H856 0.930 . S
C862 C863 1.355 . S
C862 C864 1.415 . S
C863 C862 1.355 . S
C863 C865 1.419 . S
C864 C862 1.415 . S
C864 C869 1.425 . S
C864 C871 1.409 . S
C865 H857 0.930 . S
C865 C863 1.419 . S
C865 C866 1.362 . S
C866 H858 0.930 . S
C866 C865 1.362 . S
C866 C869 1.409 . S
C867 H859 0.930 . S
C867 C868 1.355 . S
C867 C869 1.415 . S
C868 C867 1.355 . S
C868 C870 1.419 . S
C869 C864 1.425 . S
C869 C866 1.409 . S
C869 C867 1.415 . S
C870 H860 0.930 . S
C870 C868 1.419 . S
C870 C871 1.362 . S
C871 H861 0.930 . S
C871 C864 1.409 . S
C871 C870 1.362 . S
H872 C878 0.930 . S
H873 C881 0.930 . S
H874 C882 0.930 . S
H875 C883 0.930 . S
H876 C886 0.930 . S
H877 C887 0.930 . S
C878 H872 0.930 . S
C878 C879 1.355 . S
C878 C880 1.415 . S
C879 C878 1.355 . S
C879 C881 1.419 . S
C880 C878 1.415 . S
C880 C885 1.425 . S
C880 C887 1.409 . S
C881 H873 0.930 . S
C881 C879 1.419 . S
C881 C882 1.362 . S
C882 H874 0.930 . S
C882 C881 1.362 . S
C882 C885 1.409 . S
C883 H875 0.930 . S
C883 C884 1.355 . S
C883 C885 1.415 . S
C884 C883 1.355 . S
C884 C886 1.419 . S
C885 C880 1.425 . S
C885 C882 1.409 . S
C885 C883 1.415 . S
C886 H876 0.930 . S
C886 C884 1.419 . S
C886 C887 1.362 . S
C887 H877 0.930 . S
C887 C880 1.409 . S
C887 C886 1.362 . S
H888 C894 0.930 . S
H889 C897 0.930 . S
H890 C898 0.930 . S
H891 C899 0.930 . S
H892 C902 0.930 . S
H893 C903 0.930 . S
C894 H888 0.930 . S
C894 C895 1.355 . S
C894 C896 1.415 . S
C895 C894 1.355 . S
C895 C897 1.419 . S
C896 C894 1.415 . S
C896 C901 1.425 . S
C896 C903 1.409 . S
C897 H889 0.930 . S
C897 C895 1.419 . S
C897 C898 1.362 . S
C898 H890 0.930 . S
C898 C897 1.362 . S
C898 C901 1.409 . S
C899 H891 0.930 . S
C899 C900 1.355 . S
C899 C901 1.415 . S
C900 C899 1.355 . S
C900 C902 1.419 . S
C901 C896 1.425 . S
C901 C898 1.409 . S
C901 C899 1.415 . S
C902 H892 0.930 . S
C902 C900 1.419 . S
C902 C903 1.362 . S
C903 H893 0.930 . S
C903 C896 1.409 . S
C903 C902 1.362 . S
H904 C910 0.930 . S
H905 C913 0.930 . S
H906 C914 0.930 . S
H907 C915 0.930 . S
H908 C918 0.930 . S
H909 C919 0.930 . S
C910 H904 0.930 . S
C910 C911 1.355 . S
C910 C912 1.415 . S
C911 C910 1.355 . S
C911 C913 1.419 . S
C912 C910 1.415 . S
C912 C917 1.425 . S
C912 C919 1.409 . S
C913 H905 0.930 . S
C913 C911 1.419 . S
C913 C914 1.362 . S
C914 H906 0.930 . S
C914 C913 1.362 . S
C914 C917 1.409 . S
C915 H907 0.930 . S
C915 C916 1.355 . S
C915 C917 1.415 . S
C916 C915 1.355 . S
C916 C918 1.419 . S
C917 C912 1.425 . S
C917 C914 1.409 . S
C917 C915 1.415 . S
C918 H908 0.930 . S
C918 C916 1.419 . S
C918 C919 1.362 . S
C919 H909 0.930 . S
C919 C912 1.409 . S
C919 C918 1.362 . S
H920 C926 0.930 . S
H921 C929 0.930 . S
H922 C930 0.930 . S
H923 C931 0.930 . S
H924 C934 0.930 . S
H925 C935 0.930 . S
C926 H920 0.930 . S
C926 C927 1.355 . S
C926 C928 1.415 . S
C927 C926 1.355 . S
C927 C929 1.419 . S
C928 C926 1.415 . S
C928 C933 1.425 . S
C928 C935 1.409 . S
C929 H921 0.930 . S
C929 C927 1.419 . S
C929 C930 1.362 . S
C930 H922 0.930 . S
C930 C929 1.362 . S
C930 C933 1.409 . S
C931 H923 0.930 . S
C931 C932 1.355 . S
C931 C933 1.415 . S
C932 C931 1.355 . S
C932 C934 1.419 . S
C933 C928 1.425 . S
C933 C930 1.409 . S
C933 C931 1.415 . S
C934 H924 0.930 . S
C934 C932 1.419 . S
C934 C935 1.362 . S
C935 H925 0.930 . S
C935 C928 1.409 . S
C935 C934 1.362 . S
H936 C942 0.930 . S
H937 C945 0.930 . S
H938 C946 0.930 . S
H939 C947 0.930 . S
H940 C950 0.930 . S
H941 C951 0.930 . S
C942 H936 0.930 . S
C942 C943 1.355 . S
C942 C944 1.415 . S
C943 C942 1.355 . S
C943 C945 1.419 . S
C944 C942 1.415 . S
C944 C949 1.425 . S
C944 C951 1.409 . S
C945 H937 0.930 . S
C945 C943 1.419 . S
C945 C946 1.362 . S
C946 H938 0.930 . S
C946 C945 1.362 . S
C946 C949 1.409 . S
C947 H939 0.930 . S
C947 C948 1.355 . S
C947 C949 1.415 . S
C948 C947 1.355 . S
C948 C950 1.419 . S
C949 C944 1.425 . S
C949 C946 1.409 . S
C949 C947 1.415 . S
C950 H940 0.930 . S
C950 C948 1.419 . S
C950 C951 1.362 . S
C951 H941 0.930 . S
C951 C944 1.409 . S
C951 C950 1.362 . S
H952 C958 0.930 . S
H953 C961 0.930 . S
H954 C962 0.930 . S
H955 C963 0.930 . S
H956 C966 0.930 . S
H957 C967 0.930 . S
C958 H952 0.930 . S
C958 C959 1.355 . S
C958 C960 1.415 . S
C959 C958 1.355 . S
C959 C961 1.419 . S
C960 C958 1.415 . S
C960 C965 1.425 . S
C960 C967 1.409 . S
C961 H953 0.930 . S
C961 C959 1.419 . S
C961 C962 1.362 . S
C962 H954 0.930 . S
C962 C961 1.362 . S
C962 C965 1.409 . S
C963 H955 0.930 . S
C963 C964 1.355 . S
C963 C965 1.415 . S
C964 C963 1.355 . S
C964 C966 1.419 . S
C965 C960 1.425 . S
C965 C962 1.409 . S
C965 C963 1.415 . S
C966 H956 0.930 . S
C966 C964 1.419 . S
C966 C967 1.362 . S
C967 H957 0.930 . S
C967 C960 1.409 . S
C967 C966 1.362 . S
H968 C974 0.930 . S
H969 C977 0.930 . S
H970 C978 0.930 . S
H971 C979 0.930 . S
H972 C982 0.930 . S
H973 C983 0.930 . S
C974 H968 0.930 . S
C974 C975 1.355 . S
C974 C976 1.415 . S
C975 C974 1.355 . S
C975 C977 1.419 . S
C976 C974 1.415 . S
C976 C981 1.425 . S
C976 C983 1.409 . S
C977 H969 0.930 . S
C977 C975 1.419 . S
C977 C978 1.362 . S
C978 H970 0.930 . S
C978 C977 1.362 . S
C978 C981 1.409 . S
C979 H971 0.930 . S
C979 C980 1.355 . S
C979 C981 1.415 . S
C980 C979 1.355 . S
C980 C982 1.419 . S
C981 C976 1.425 . S
C981 C978 1.409 . S
C981 C979 1.415 . S
C982 H972 0.930 . S
C982 C980 1.419 . S
C982 C983 1.362 . S
C983 H973 0.930 . S
C983 C976 1.409 . S
C983 C982 1.362 . S
H984 C990 0.930 . S
H985 C993 0.930 . S
H986 C994 0.930 . S
H987 C995 0.930 . S
H988 C998 0.930 . S
H989 C999 0.930 . S
C990 H984 0.930 . S
C990 C991 1.355 . S
C990 C992 1.415 . S
C991 C990 1.355 . S
C991 C993 1.419 . S
C992 C990 1.415 . S
C992 C997 1.425 . S
C992 C999 1.409 . S
C993 H985 0.930 . S
C993 C991 1.419 . S
C993 C994 1.362 . S
C994 H986 0.930 . S
C994 C993 1.362 . S
C994 C997 1.409 . S
C995 H987 0.930 . S
C995 C996 1.355 . S
C995 C997 1.415 . S
C996 C995 1.355 . S
C996 C998 1.419 . S
C997 C992 1.425 . S
C997 C994 1.409 . S
C997 C995 1.415 . S
C998 H988 0.930 . S
C998 C996 1.419 . S
C998 C999 1.362 . S
C999 H989 0.930 . S
C999 C992 1.409 . S
C999 C998 1.362 . S
H1000 C1006 0.930 . S
H1001 C1009 0.930 . S
H1002 C1010 0.930 . S
H1003 C1011 0.930 . S
H1004 C1014 0.930 . S
H1005 C1015 0.930 . S
C1006 H1000 0.930 . S
C1006 C1007 1.355 . S
C1006 C1008 1.415 . S
C1007 C1006 1.355 . S
C1007 C1009 1.419 . S
C1008 C1006 1.415 . S
C1008 C1013 1.425 . S
C1008 C1015 1.409 . S
C1009 H1001 0.930 . S
C1009 C1007 1.419 . S
C1009 C1010 1.362 . S
C1010 H1002 0.930 . S
C1010 C1009 1.362 . S
C1010 C1013 1.409 . S
C1011 H1003 0.930 . S
C1011 C1012 1.355 . S
C1011 C1013 1.415 . S
C1012 C1011 1.355 . S
C1012 C1014 1.419 . S
C1013 C1008 1.425 . S
C1013 C1010 1.409 . S
C1013 C1011 1.415 . S
C1014 H1004 0.930 . S
C1014 C1012 1.419 . S
C1014 C1015 1.362 . S
C1015 H1005 0.930 . S
C1015 C1008 1.409 . S
C1015 C1014 1.362 . S
H1016 C1022 0.930 . S
H1017 C1025 0.930 . S
H1018 C1026 0.930 . S
H1019 C1027 0.930 . S
H1020 C1030 0.930 . S
H1021 C1031 0.930 . S
C1022 H1016 0.930 . S
C1022 C1023 1.355 . S
C1022 C1024 1.415 . S
C1023 C1022 1.355 . S
C1023 C1025 1.419 . S
C1024 C1022 1.415 . S
C1024 C1029 1.425 . S
C1024 C1031 1.409 . S
C1025 H1017 0.930 . S
C1025 C1023 1.419 . S
C1025 C1026 1.362 . S
C1026 H1018 0.930 . S
C1026 C1025 1.362 . S
C1026 C1029 1.409 . S
C1027 H1019 0.930 . S
C1027 C1028 1.355 . S
C1027 C1029 1.415 . S
C1028 C1027 1.355 . S
C1028 C1030 1.419 . S
C1029 C1024 1.425 . S
C1029 C1026 1.409 . S
C1029 C1027 1.415 . S
C1030 H1020 0.930 . S
C1030 C1028 1.419 . S
C1030 C1031 1.362 . S
C1031 H1021 0.930 . S
C1031 C1024 1.409 . S
C1031 C1030 1.362 . S
H1032 C1038 0.930 . S
H1033 C1041 0.930 . S
H1034 C1042 0.930 . S
H1035 C1043 0.930 . S
H1036 C1046 0.930 . S
H1037 C1047 0.930 . S
C1038 H1032 0.930 . S
C1038 C1039 1.355 . S
C1038 C1040 1.415 . S
C1039 C1038 1.355 . S
C1039 C1041 1.419 . S
C1040 C1038 1.415 . S
C1040 C1045 1.425 . S
C1040 C1047 1.409 . S
C1041 H1033 0.930 . S
C1041 C1039 1.419 . S
C1041 C1042 1.362 . S
C1042 H1034 0.930 . S
C1042 C1041 1.362 . S
C1042 C1045 1.409 . S
C1043 H1035 0.930 . S
C1043 C1044 1.355 . S
C1043 C1045 1.415 . S
C1044 C1043 1.355 . S
C1044 C1046 1.419 . S
C1045 C1040 1.425 . S
C1045 C1042 1.409 . S
C1045 C1043 1.415 . S
C1046 H1036 0.930 . S
C1046 C1044 1.419 . S
C1046 C1047 1.362 . S
C1047 H1037 0.930 . S
C1047 C1040 1.409 . S
C1047 C1046 1.362 . S
H1048 C1054 0.930 . S
H1049 C1057 0.930 . S
H1050 C1058 0.930 . S
H1051 C1059 0.930 . S
H1052 C1062 0.930 . S
H1053 C1063 0.930 . S
C1054 H1048 0.930 . S
C1054 C1055 1.355 . S
C1054 C1056 1.415 . S
C1055 C1054 1.355 . S
C1055 C1057 1.419 . S
C1056 C1054 1.415 . S
C1056 C1061 1.425 . S
C1056 C1063 1.409 . S
C1057 H1049 0.930 . S
C1057 C1055 1.419 . S
C1057 C1058 1.362 . S
C1058 H1050 0.930 . S
C1058 C1057 1.362 . S
C1058 C1061 1.409 . S
C1059 H1051 0.930 . S
C1059 C1060 1.355 . S
C1059 C1061 1.415 . S
C1060 C1059 1.355 . S
C1060 C1062 1.419 . S
C1061 C1056 1.425 . S
C1061 C1058 1.409 . S
C1061 C1059 1.415 . S
C1062 H1052 0.930 . S
C1062 C1060 1.419 . S
C1062 C1063 1.362 . S
C1063 H1053 0.930 . S
C1063 C1056 1.409 . S
C1063 C1062 1.362 . S
H1064 C1070 0.930 . S
H1065 C1073 0.930 . S
H1066 C1074 0.930 . S
H1067 C1075 0.930 . S
H1068 C1078 0.930 . S
H1069 C1079 0.930 . S
C1070 H1064 0.930 . S
C1070 C1071 1.355 . S
C1070 C1072 1.415 . S
C1071 C1070 1.355 . S
C1071 C1073 1.419 . S
C1072 C1070 1.415 . S
C1072 C1077 1.425 . S
C1072 C1079 1.409 . S
C1073 H1065 0.930 . S
C1073 C1071 1.419 . S
C1073 C1074 1.362 . S
C1074 H1066 0.930 . S
C1074 C1073 1.362 . S
C1074 C1077 1.409 . S
C1075 H1067 0.930 . S
C1075 C1076 1.355 . S
C1075 C1077 1.415 . S
C1076 C1075 1.355 . S
C1076 C1078 1.419 . S
C1077 C1072 1.425 . S
C1077 C1074 1.409 . S
C1077 C1075 1.415 . S
C1078 H1068 0.930 . S
C1078 C1076 1.419 . S
C1078 C1079 1.362 . S
C1079 H1069 0.930 . S
C1079 C1072 1.409 . S
C1079 C1078 1.362 . S
C580 C173 1.492 . S
C575 C7 1.445 . S
C596 C226 1.290 . S
C591 C32 1.223 . S
C612 C289 1.548 . S
C607 C44 1.521 . S
C628 C332 1.264 . S
C623 C62 1.183 . S
C639 C88 1.462 . S
C644 C288 1.536 . S
C660 C325 1.328 . S
C655 C106 1.311 . S
C676 C166 1.489 . S
C671 C124 1.421 . S
C692 C219 1.237 . S
C687 C140 1.159 . S
C708 C272 1.540 . S
C703 C142 1.490 . S
C724 C341 1.802 . S
C719 C86 1.729 . S
C740 C182 1.566 . S
C735 C104 1.478 . S
C756 C235 1.753 . S
C751 C122 1.682 . S
C772 C183 1.568 . S
C767 C34 1.475 . S
C788 C236 1.806 . S
C783 C43 1.746 . S
C804 C279 1.549 . S
C799 C61 1.495 . S
C820 C342 1.769 . S
C815 C8 1.712 . S
C836 C385 1.482 . S
C831 C133 1.432 . S
C847 C80 1.582 . S
C852 C438 1.670 . S
C863 C98 1.506 . S
C868 C500 1.556 . S
C879 C116 1.588 . S
C884 C554 1.669 . S
C895 C25 1.476 . S
C900 C501 1.521 . S
C911 C52 1.669 . S
C916 C553 1.733 . S
C927 C70 1.424 . S
C932 C378 1.502 . S
C948 C431 1.634 . S
C943 C14 1.548 . S
C964 C491 1.492 . S
C959 C16 1.378 . S
C975 C26 1.355 . S
C980 C537 1.387 . S
C991 C50 1.570 . S
C996 C394 1.608 . S
C1007 C68 1.290 . S
C1012 C447 1.344 . S
C1028 C395 1.555 . S
C1023 C79 1.511 . S
C1044 C448 1.393 . S
C1039 C97 1.313 . S
C1055 C115 1.493 . S
C1060 C484 1.558 . S
C1076 C544 1.324 . S
C1071 C134 1.247 . S
