# Generated by pormake.
# Topology anh, (6,3)-cn, num edge types: 1
# Building blocks:
#     Node 0, Type 0, BuildingBlock: CUKXOW_clean_sbu_0, # of connection points: 6
#     Node 1, Type 0, BuildingBlock: CUKXOW_clean_sbu_0, # of connection points: 6
#     Node 2, Type 0, BuildingBlock: CUKXOW_clean_sbu_0, # of connection points: 6
#     Node 3, Type 1, BuildingBlock: PAMTOO_clean_linker_0, # of connection points: 3
#     Node 4, Type 1, BuildingBlock: PAMTOO_clean_linker_0, # of connection points: 3
#     Node 5, Type 1, BuildingBlock: PAMTOO_clean_linker_0, # of connection points: 3
#     Node 6, Type 1, BuildingBlock: PAMTOO_clean_linker_0, # of connection points: 3
#     Node 7, Type 1, BuildingBlock: PAMTOO_clean_linker_0, # of connection points: 3
#     Node 8, Type 1, BuildingBlock: PAMTOO_clean_linker_0, # of connection points: 3
#     Edge 9, Type (0, 1), BuildingBlock: MIFKUJ_clean_linker_0, # of connection points: 2
#     Edge 10, Type (0, 1), BuildingBlock: MIFKUJ_clean_linker_0, # of connection points: 2
#     Edge 11, Type (0, 1), BuildingBlock: MIFKUJ_clean_linker_0, # of connection points: 2
#     Edge 12, Type (0, 1), BuildingBlock: MIFKUJ_clean_linker_0, # of connection points: 2
#     Edge 13, Type (0, 1), BuildingBlock: MIFKUJ_clean_linker_0, # of connection points: 2
#     Edge 14, Type (0, 1), BuildingBlock: MIFKUJ_clean_linker_0, # of connection points: 2
#     Edge 15, Type (0, 1), BuildingBlock: MIFKUJ_clean_linker_0, # of connection points: 2
#     Edge 16, Type (0, 1), BuildingBlock: MIFKUJ_clean_linker_0, # of connection points: 2
#     Edge 17, Type (0, 1), BuildingBlock: MIFKUJ_clean_linker_0, # of connection points: 2
#     Edge 18, Type (0, 1), BuildingBlock: MIFKUJ_clean_linker_0, # of connection points: 2
#     Edge 19, Type (0, 1), BuildingBlock: MIFKUJ_clean_linker_0, # of connection points: 2
#     Edge 20, Type (0, 1), BuildingBlock: MIFKUJ_clean_linker_0, # of connection points: 2
#     Edge 21, Type (0, 1), BuildingBlock: MIFKUJ_clean_linker_0, # of connection points: 2
#     Edge 22, Type (0, 1), BuildingBlock: MIFKUJ_clean_linker_0, # of connection points: 2
#     Edge 23, Type (0, 1), BuildingBlock: MIFKUJ_clean_linker_0, # of connection points: 2
#     Edge 24, Type (0, 1), BuildingBlock: MIFKUJ_clean_linker_0, # of connection points: 2
#     Edge 25, Type (0, 1), BuildingBlock: MIFKUJ_clean_linker_0, # of connection points: 2
#     Edge 26, Type (0, 1), BuildingBlock: MIFKUJ_clean_linker_0, # of connection points: 2
# Relax obj value: 0.105
# Max RMSD: 0.154
# Mean RMSD: 0.126
data_MOF--net-anh--node1-CUKXOW_clean_sbu_0--node2-PAMTOO_clean_linker_0--edge1-MIFKUJ_clean_linker_0
_symmetry_space_group_name_H-M    P1
_symmetry_Int_Tables_number       1
_symmetry_cell_setting            triclinic
loop_
_symmetry_equiv_pos_as_xyz
'x, y, z'
_cell_length_a     38.004135
_cell_length_b     37.112474
_cell_length_c     62.946432
_cell_angle_alpha  91.387625
_cell_angle_beta   91.90685
_cell_angle_gamma 114.85593
loop_
_atom_site_label
_atom_site_type_symbol
_atom_site_fract_x
_atom_site_fract_y
_atom_site_fract_z
_atom_type_partial_charge
Tb0 Tb 0.08994 0.52873 0.15311 0.0
C1 C 0.06534 0.49281 0.19837 0.0
Tb2 Tb 0.03389 0.43615 0.1565 0.0
O3 O 0.04267 0.54942 0.15221 0.0
O4 O 0.03062 0.49077 0.15319 0.0
O5 O 0.0875 0.52378 0.18744 0.0
C6 C 0.968 0.3721 0.16114 0.0
O7 O 0.04211 0.45736 0.18965 0.0
C8 C 0.10876 0.4491 0.15626 0.0
C9 C 0.05856 0.47261 0.11212 0.0
O10 O 0.98339 0.40226 0.17457 0.0
O11 O 0.98996 0.37767 0.14501 0.0
O12 O 0.07988 0.41415 0.15734 0.0
O13 O 0.09357 0.47356 0.15574 0.0
O14 O 0.0297 0.44708 0.1229 0.0
O15 O 0.08864 0.5033 0.12136 0.0
C16 C 0.15332 0.59682 0.15242 0.0
O17 O 0.12424 0.5851 0.13849 0.0
O18 O 0.14668 0.57014 0.16657 0.0
C19 C 1.01433 0.51409 0.1527 0.0
Tb20 Tb 0.53617 0.99755 0.50652 0.0
C21 C 0.57035 0.02412 0.46121 0.0
Tb22 Tb 0.61981 0.05673 0.50382 0.0
O23 O 0.51826 0.04383 0.51694 0.0
O24 O 0.56519 0.05773 0.49779 0.0
O25 O 0.54356 0.9965 0.47214 0.0
C26 C 0.68633 0.12237 0.50576 0.0
O27 O 0.60008 0.05461 0.47073 0.0
C28 C 0.60776 0.9815 0.50084 0.0
C29 C 0.5861 0.02926 0.54907 0.0
O30 O 0.68175 0.08783 0.49814 0.0
O31 O 0.65356 0.11988 0.51248 0.0
O32 O 0.63631 0.00994 0.4923 0.0
O33 O 0.59066 0.99658 0.51239 0.0
O34 O 0.61273 0.05731 0.53825 0.0
O35 O 0.55677 0.99866 0.53934 0.0
C36 C 0.46963 0.93197 0.50381 0.0
O37 O 0.4768 0.96301 0.51611 0.0
O38 O 0.49983 0.93785 0.49297 0.0
C39 C 0.54725 0.07251 0.5089 0.0
Tb40 Tb 0.57482 0.54455 0.83017 0.0
C41 C 0.61565 0.55504 0.87621 0.0
Tb42 Tb 0.66417 0.57197 0.83523 0.0
O43 O 0.57042 0.49094 0.81277 0.0
O44 O 0.61375 0.51773 0.83641 0.0
O45 O 0.58564 0.55493 0.86462 0.0
C46 C 0.73107 0.56628 0.83261 0.0
O47 O 0.64791 0.55677 0.86775 0.0
C48 C 0.647 0.63393 0.83631 0.0
C49 C 0.62339 0.57047 0.78985 0.0
O50 O 0.72376 0.58746 0.8471 0.0
O51 O 0.70067 0.54806 0.81997 0.0
O52 O 0.68232 0.63684 0.83808 0.0
O53 O 0.62488 0.5976 0.83403 0.0
O54 O 0.65327 0.56894 0.80073 0.0
O55 O 0.59116 0.56714 0.79885 0.0
C56 C 0.49975 0.52803 0.83128 0.0
O57 O 0.51652 0.50749 0.83979 0.0
O58 O 0.52544 0.55856 0.82238 0.0
C59 C 0.60095 0.49027 0.82221 0.0
H60 H 0.61977 0.07401 0.23587 0.0
H61 H 0.50845 0.97491 0.22448 0.0
H62 H 0.5721 0.03676 0.17186 0.0
H63 H 0.48248 0.99826 0.1623 0.0
C64 C 0.47687 0.98104 0.17699 0.0
O65 O 0.51004 0.9767 0.18315 0.0
H66 H 0.46887 0.99754 0.18953 0.0
C67 C 0.59632 0.05488 0.22496 0.0
C68 C 0.59992 0.05999 0.20294 0.0
C69 C 0.5633 0.02474 0.23309 0.0
C70 C 0.53426 0.9984 0.21873 0.0
C71 C 0.53778 1.00274 0.19676 0.0
C72 C 0.57027 0.03355 0.1889 0.0
H73 H 0.59808 0.61594 0.56291 0.0
H74 H 0.60316 0.50277 0.55479 0.0
H75 H 0.58721 0.56259 0.50014 0.0
H76 H 0.55294 0.46883 0.4899 0.0
C77 C 0.55956 0.46624 0.50696 0.0
O78 O 0.59371 0.49848 0.51341 0.0
H79 H 0.53482 0.46625 0.51601 0.0
C80 C 0.59723 0.59171 0.5526 0.0
C81 C 0.59175 0.59314 0.53055 0.0
C82 C 0.60173 0.55955 0.56152 0.0
C83 C 0.59986 0.52791 0.54816 0.0
C84 C 0.59469 0.52897 0.52607 0.0
C85 C 0.59115 0.56185 0.51722 0.0
H86 H 0.98905 0.42213 0.88158 0.0
H87 H 0.08989 0.39678 0.8819 0.0
H88 H 0.04181 0.41636 0.82309 0.0
H89 H 0.07087 0.35832 0.81662 0.0
C90 C 0.09239 0.36565 0.83029 0.0
O91 O 0.09609 0.40011 0.8408 0.0
H92 H 0.08232 0.34051 0.84123 0.0
C93 C 1.01082 0.41644 0.87321 0.0
C94 C 1.01165 0.41926 0.85106 0.0
C95 C 0.03939 0.40932 0.88474 0.0
C96 C 0.06705 0.40167 0.87349 0.0
C97 C 0.06724 0.40342 0.85127 0.0
C98 C 0.04014 0.41303 0.84014 0.0
H99 H 0.98766 0.46322 0.42309 0.0
H100 H 0.0966 0.56611 0.43257 0.0
H101 H 0.03529 0.50693 0.48653 0.0
H102 H 0.08024 0.59563 0.49655 0.0
C103 C 0.09521 0.60108 0.48129 0.0
O104 O 0.09682 0.5664 0.47411 0.0
H105 H 0.0784 0.61077 0.46973 0.0
C106 C 1.00994 0.4849 0.43372 0.0
C107 C 1.00729 0.48124 0.45586 0.0
C108 C 0.04215 0.51522 0.42515 0.0
C109 C 0.07166 0.54239 0.43892 0.0
C110 C 0.06879 0.53954 0.46098 0.0
C111 C 0.03695 0.50888 0.46942 0.0
H112 H 0.59487 0.97331 0.77463 0.0
H113 H 0.61725 0.09622 0.78578 0.0
H114 H 0.62145 0.02595 0.83816 0.0
H115 H 0.60244 0.0991 0.85407 0.0
C116 C 0.60085 0.1046 0.83686 0.0
O117 O 0.62875 0.09658 0.82684 0.0
H118 H 0.57101 0.08426 0.8307 0.0
C119 C 0.60104 0.99859 0.78549 0.0
C120 C 0.60692 0.99488 0.80732 0.0
C121 C 0.60509 0.03505 0.77744 0.0
C122 C 0.61437 0.06792 0.79161 0.0
C123 C 0.61986 0.06455 0.81344 0.0
C124 C 0.6167 0.02822 0.82127 0.0
H125 H 0.64561 0.49169 0.10259 0.0
H126 H 0.53589 0.49939 0.10621 0.0
H127 H 0.59212 0.48111 0.16273 0.0
H128 H 0.49771 0.44461 0.16568 0.0
C129 C 0.49539 0.45559 0.14967 0.0
O130 O 0.52935 0.48938 0.14669 0.0
H131 H 0.49254 0.43161 0.13781 0.0
C132 C 0.62185 0.49134 0.1118 0.0
C133 C 0.62307 0.48604 0.13374 0.0
C134 C 0.59083 0.49639 0.10162 0.0
C135 C 0.55978 0.49496 0.11368 0.0
C136 C 0.55957 0.48899 0.13559 0.0
C137 C 0.5916 0.48484 0.14574 0.0
H138 H 0.13609 0.39341 0.1494 0.0
H139 H 0.20279 0.4012 0.14793 0.0
H140 H 0.24409 0.52781 0.15894 0.0
H141 H 0.17639 0.52 0.1595 0.0
H142 H 0.29019 0.51567 0.13235 0.0
H143 H 0.24665 0.46237 0.19935 0.0
H144 H 0.20296 0.4169 0.2246 0.0
H145 H 0.21627 0.31855 0.19455 0.0
H146 H 0.25964 0.36334 0.16893 0.0
H147 H 0.48366 0.52469 0.15805 0.0
H148 H 0.42138 0.53044 0.159 0.0
H149 H 0.36027 0.40612 0.14067 0.0
H150 H 0.42196 0.40046 0.13959 0.0
H151 H 0.32755 0.42443 0.17402 0.0
H152 H 0.37046 0.48084 0.106 0.0
H153 H 0.41542 0.52878 0.08216 0.0
H154 H 0.40575 0.62504 0.11683 0.0
H155 H 0.36115 0.5777 0.14108 0.0
C156 C 0.15924 0.42306 0.15148 0.0
C157 C 0.15054 0.45603 0.1548 0.0
C158 C 0.19773 0.42749 0.15079 0.0
C159 C 0.22926 0.46501 0.15393 0.0
C160 C 0.2207 0.49836 0.15665 0.0
C161 C 0.18184 0.49392 0.15704 0.0
C162 C 0.27059 0.46866 0.15452 0.0
C163 C 0.2984 0.49611 0.14178 0.0
C164 C 0.28208 0.44325 0.16666 0.0
C165 C 0.25619 0.4162 0.18212 0.0
C166 C 0.24008 0.43101 0.19805 0.0
C167 C 0.21539 0.40536 0.21243 0.0
C168 C 0.20678 0.36485 0.21115 0.0
C169 C 0.22294 0.34993 0.19552 0.0
C170 C 0.24762 0.37545 0.18107 0.0
C171 C 0.45701 0.49882 0.15377 0.0
C172 C 0.45813 0.46228 0.14817 0.0
C173 C 0.42124 0.50209 0.15438 0.0
C174 C 0.38561 0.46876 0.14977 0.0
C175 C 0.38695 0.43242 0.14426 0.0
C176 C 0.42245 0.42927 0.14348 0.0
C177 C 0.34675 0.47061 0.15145 0.0
C178 C 0.31939 0.44418 0.16471 0.0
C179 C 0.33604 0.49736 0.14007 0.0
C180 C 0.36286 0.52577 0.12551 0.0
C181 C 0.37821 0.51227 0.10867 0.0
C182 C 0.40358 0.53932 0.09505 0.0
C183 C 0.41354 0.57994 0.09802 0.0
C184 C 0.39808 0.59358 0.11458 0.0
C185 C 0.37275 0.56665 0.12825 0.0
H186 H 0.43317 0.60084 0.08746 0.0
H187 H 0.18765 0.34504 0.2223 0.0
H188 H 0.75514 0.13082 0.49029 0.0
H189 H 0.81231 0.19291 0.4855 0.0
H190 H 0.75432 0.25927 0.51343 0.0
H191 H 0.69717 0.19714 0.51844 0.0
H192 H 0.81594 0.25202 0.46108 0.0
H193 H 0.82318 0.34472 0.53786 0.0
H194 H 0.80876 0.33418 0.57573 0.0
H195 H 0.82609 0.2271 0.57237 0.0
H196 H 0.84109 0.23727 0.53458 0.0
H197 H 0.93033 0.45323 0.44388 0.0
H198 H 0.87691 0.39368 0.45585 0.0
H199 H 0.95634 0.37358 0.49936 0.0
H200 H 1.00989 0.43321 0.48751 0.0
H201 H 0.88703 0.35649 0.51703 0.0
H202 H 0.93234 0.32498 0.45178 0.0
H203 H 0.95001 0.33391 0.41431 0.0
H204 H 0.83337 0.31372 0.39542 0.0
H205 H 0.81515 0.30526 0.43284 0.0
C206 C 0.75484 0.15864 0.49567 0.0
C207 C 0.72188 0.15933 0.50472 0.0
C208 C 0.78741 0.19404 0.49286 0.0
C209 C 0.7876 0.23066 0.49916 0.0
C210 C 0.75498 0.23131 0.50871 0.0
C211 C 0.72236 0.19587 0.51151 0.0
C212 C 0.82096 0.26821 0.49452 0.0
C213 C 0.83149 0.27481 0.47334 0.0
C214 C 0.84146 0.29777 0.51054 0.0
C215 C 0.83288 0.29159 0.53333 0.0
C216 C 0.82405 0.31901 0.54523 0.0
C217 C 0.81575 0.31309 0.56667 0.0
C218 C 0.81639 0.27993 0.57643 0.0
C219 C 0.82545 0.25269 0.56477 0.0
C220 C 0.83379 0.25849 0.54333 0.0
C221 C 0.93634 0.43621 0.45608 0.0
C222 C 0.97432 0.4476 0.46461 0.0
C223 C 0.90583 0.40231 0.46294 0.0
C224 C 0.91282 0.37894 0.47826 0.0
C225 C 0.95035 0.39123 0.48752 0.0
C226 C 0.98089 0.42529 0.48075 0.0
C227 C 0.88154 0.34038 0.48358 0.0
C228 C 0.87139 0.33364 0.50483 0.0
C229 C 0.86173 0.31031 0.46768 0.0
C230 C 0.87248 0.31483 0.44513 0.0
C231 C 0.91053 0.32269 0.43965 0.0
C232 C 0.92063 0.32764 0.41842 0.0
C233 C 0.89285 0.32447 0.4025 0.0
C234 C 0.85487 0.31622 0.40777 0.0
C235 C 0.84463 0.31131 0.42899 0.0
H236 H 0.90074 0.32833 0.38607 0.0
H237 H 0.80995 0.27539 0.59303 0.0
H238 H 0.57535 0.63361 0.82822 0.0
H239 H 0.55997 0.69167 0.82731 0.0
H240 H 0.67958 0.76853 0.84467 0.0
H241 H 0.69485 0.71091 0.84564 0.0
H242 H 0.62821 0.79034 0.86591 0.0
H243 H 0.64718 0.75341 0.79383 0.0
H244 H 0.63078 0.70431 0.76383 0.0
H245 H 0.51422 0.69499 0.75997 0.0
H246 H 0.52964 0.74321 0.79041 0.0
H247 H 0.66109 0.98116 0.83109 0.0
H248 H 0.6603 0.91675 0.83938 0.0
H249 H 0.54568 0.8572 0.80909 0.0
H250 H 0.5473 0.92164 0.80001 0.0
H251 H 0.58552 0.8217 0.7962 0.0
H252 H 0.56507 0.86127 0.86538 0.0
H253 H 0.57664 0.90515 0.89737 0.0
H254 H 0.68929 0.90635 0.90815 0.0
H255 H 0.67863 0.86291 0.87606 0.0
C256 C 0.59813 0.66286 0.83203 0.0
C257 C 0.63628 0.66783 0.83686 0.0
C258 C 0.58939 0.69599 0.8315 0.0
C259 C 0.61872 0.7345 0.83581 0.0
C260 C 0.65649 0.73917 0.84135 0.0
C261 C 0.66521 0.70622 0.84177 0.0
C262 C 0.61118 0.77038 0.83326 0.0
C263 C 0.61902 0.79739 0.85068 0.0
C264 C 0.59807 0.77892 0.81353 0.0
C265 C 0.58944 0.75158 0.79454 0.0
C266 C 0.61801 0.74078 0.78664 0.0
C267 C 0.60887 0.71305 0.76958 0.0
C268 C 0.57144 0.69646 0.76003 0.0
C269 C 0.54316 0.70779 0.76743 0.0
C270 C 0.55207 0.73527 0.7846 0.0
C271 C 0.63549 0.9543 0.82658 0.0
C272 C 0.60423 0.95633 0.81498 0.0
C273 C 0.63495 0.91742 0.83136 0.0
C274 C 0.6027 0.88183 0.82509 0.0
C275 C 0.57095 0.88404 0.81407 0.0
C276 C 0.57179 0.92086 0.80897 0.0
C277 C 0.60314 0.84243 0.82885 0.0
C278 C 0.59412 0.81469 0.8116 0.0
C279 C 0.6146 0.83297 0.84885 0.0
C280 C 0.62115 0.85905 0.8682 0.0
C281 C 0.59242 0.87111 0.87449 0.0
C282 C 0.5988 0.89587 0.89265 0.0
C283 C 0.63371 0.90859 0.90476 0.0
C284 C 0.66228 0.8965 0.89875 0.0
C285 C 0.65606 0.87176 0.88059 0.0
H286 H 0.63859 0.92777 0.91882 0.0
H287 H 0.56435 0.67484 0.74689 0.0
H288 H 0.98332 0.56752 0.15675 0.0
H289 H 0.91532 0.55622 0.1569 0.0
H290 H 0.88036 0.42984 0.14975 0.0
H291 H 0.94923 0.44133 0.14936 0.0
H292 H 0.83424 0.45234 0.12412 0.0
H293 H 0.87354 0.47279 0.19752 0.0
H294 H 0.91515 0.50627 0.22937 0.0
H295 H 0.89562 0.61046 0.21903 0.0
H296 H 0.85442 0.5779 0.18689 0.0
H297 H 0.63753 0.41999 0.1373 0.0
H298 H 0.70079 0.4181 0.14403 0.0
H299 H 0.75396 0.54534 0.15513 0.0
H300 H 0.6905 0.54687 0.14893 0.0
H301 H 0.78856 0.5147 0.18107 0.0
H302 H 0.7548 0.49608 0.1056 0.0
H303 H 0.71298 0.46233 0.07384 0.0
H304 H 0.72192 0.35396 0.0885 0.0
H305 H 0.76309 0.38691 0.12059 0.0
C306 C 0.96128 0.53721 0.15532 0.0
C307 C 0.97202 0.50535 0.15326 0.0
C308 C 0.92214 0.53074 0.15549 0.0
C309 C 0.89211 0.49209 0.15366 0.0
C310 C 0.90266 0.46001 0.15132 0.0
C311 C 0.94214 0.46654 0.15124 0.0
C312 C 0.85016 0.48597 0.15398 0.0
C313 C 0.82417 0.46539 0.13681 0.0
C314 C 0.83652 0.50333 0.17028 0.0
C315 C 0.8611 0.52298 0.18968 0.0
C316 C 0.87833 0.50295 0.20194 0.0
C317 C 0.90182 0.52174 0.22006 0.0
C318 C 0.90806 0.56047 0.2262 0.0
C319 C 0.89077 0.58047 0.21425 0.0
C320 C 0.86732 0.56184 0.19608 0.0
C321 C 0.66251 0.44733 0.14194 0.0
C322 C 0.65869 0.48345 0.14314 0.0
C323 C 0.69896 0.44639 0.14542 0.0
C324 C 0.7329 0.4817 0.14972 0.0
C325 C 0.72865 0.51756 0.15187 0.0
C326 C 0.69218 0.51844 0.1485 0.0
C327 C 0.77285 0.48182 0.151 0.0
C328 C 0.79852 0.50134 0.16847 0.0
C329 C 0.78615 0.46347 0.13499 0.0
C330 C 0.76181 0.44386 0.11556 0.0
C331 C 0.74768 0.465 0.10209 0.0
C332 C 0.72406 0.44602 0.08404 0.0
C333 C 0.71474 0.406 0.07917 0.0
C334 C 0.72912 0.38494 0.0923 0.0
C335 C 0.7526 0.40375 0.11041 0.0
H336 H 0.69638 0.3913 0.06522 0.0
H337 H 0.92625 0.57496 0.24023 0.0
H338 H 0.4457 0.87313 0.47286 0.0
H339 H 0.38291 0.81486 0.46926 0.0
H340 H 0.34829 0.85153 0.52748 0.0
H341 H 0.41064 0.91035 0.53089 0.0
H342 H 0.33368 0.7664 0.52253 0.0
H343 H 0.31301 0.87058 0.48689 0.0
H344 H 0.32821 0.92341 0.4611 0.0
H345 H 0.31288 0.83888 0.40984 0.0
H346 H 0.29817 0.78562 0.4354 0.0
H347 H 0.13079 0.64785 0.51706 0.0
H348 H 0.19602 0.70205 0.52093 0.0
H349 H 0.21558 0.68135 0.45549 0.0
H350 H 0.14986 0.6279 0.45146 0.0
H351 H 0.23981 0.75741 0.46364 0.0
H352 H 0.25809 0.65262 0.49737 0.0
H353 H 0.24515 0.5984 0.52207 0.0
H354 H 0.26754 0.68075 0.57534 0.0
H355 H 0.28008 0.73541 0.55094 0.0
C356 C 0.4247 0.86862 0.4849 0.0
C357 C 0.43273 0.89615 0.50209 0.0
C358 C 0.38897 0.83544 0.48283 0.0
C359 C 0.36112 0.82911 0.49809 0.0
C360 C 0.36954 0.85601 0.51559 0.0
C361 C 0.40498 0.88956 0.51746 0.0
C362 C 0.32268 0.79508 0.49544 0.0
C363 C 0.31287 0.76449 0.50983 0.0
C364 C 0.29629 0.7923 0.47847 0.0
C365 C 0.30495 0.82423 0.46308 0.0
C366 C 0.31327 0.86334 0.47015 0.0
C367 C 0.32171 0.89334 0.45556 0.0
C368 C 0.32164 0.88454 0.43385 0.0
C369 C 0.313 0.84567 0.42667 0.0
C370 C 0.30459 0.81556 0.4412 0.0
C371 C 0.14916 0.65481 0.50357 0.0
C372 C 0.13564 0.63353 0.48403 0.0
C373 C 0.18645 0.6856 0.50581 0.0
C374 C 0.21095 0.69536 0.4886 0.0
C375 C 0.19728 0.67424 0.46901 0.0
C376 C 0.1599 0.64367 0.46674 0.0
C377 C 0.25037 0.72842 0.49083 0.0
C378 C 0.26049 0.75897 0.47634 0.0
C379 C 0.27725 0.73084 0.50756 0.0
C380 C 0.26965 0.69805 0.52231 0.0
C381 C 0.25993 0.65912 0.51434 0.0
C382 C 0.25273 0.62831 0.52829 0.0
C383 C 0.25542 0.63611 0.55026 0.0
C384 C 0.26541 0.67475 0.55832 0.0
C385 C 0.2726 0.70566 0.54444 0.0
H386 H 0.24986 0.61222 0.56103 0.0
H387 H 0.32817 0.9078 0.42258 0.0
H388 H 0.64688 0.47137 0.85016 0.0
H389 H 0.65386 0.40868 0.85095 0.0
H390 H 0.58353 0.36818 0.79251 0.0
H391 H 0.57546 0.4301 0.79214 0.0
H392 H 0.55697 0.3138 0.81947 0.0
H393 H 0.68564 0.3921 0.79667 0.0
H394 H 0.75169 0.4459 0.79743 0.0
H395 H 0.77622 0.41247 0.8591 0.0
H396 H 0.71019 0.35841 0.8587 0.0
H397 H 0.5777 0.13486 0.80267 0.0
H398 H 0.5842 0.20294 0.79851 0.0
H399 H 0.64506 0.23782 0.85993 0.0
H400 H 0.63905 0.16985 0.86391 0.0
H401 H 0.67761 0.29497 0.8317 0.0
H402 H 0.54897 0.21718 0.85439 0.0
H403 H 0.48429 0.16077 0.85267 0.0
H404 H 0.46025 0.19365 0.79076 0.0
H405 H 0.52503 0.24997 0.792 0.0
C406 C 0.63345 0.44928 0.83733 0.0
C407 C 0.61032 0.4554 0.82119 0.0
C408 C 0.63761 0.41348 0.83772 0.0
C409 C 0.61927 0.38346 0.82176 0.0
C410 C 0.59777 0.3906 0.8051 0.0
C411 C 0.59326 0.42608 0.80485 0.0
C412 C 0.61939 0.3434 0.82329 0.0
C413 C 0.58352 0.30983 0.82175 0.0
C414 C 0.65376 0.33789 0.82704 0.0
C415 C 0.69285 0.37145 0.82773 0.0
C416 C 0.70495 0.39653 0.8105 0.0
C417 C 0.74247 0.427 0.81084 0.0
C418 C 0.76816 0.4327 0.82834 0.0
C419 C 0.75631 0.40804 0.84557 0.0
C420 C 0.71887 0.37743 0.84527 0.0
C421 C 0.59264 0.15721 0.81518 0.0
C422 C 0.60721 0.14706 0.83377 0.0
C423 C 0.59625 0.19601 0.81285 0.0
C424 C 0.61447 0.22538 0.8291 0.0
C425 C 0.63068 0.21567 0.84725 0.0
C426 C 0.62711 0.17685 0.84956 0.0
C427 C 0.61536 0.26575 0.82751 0.0
C428 C 0.65122 0.2992 0.82925 0.0
C429 C 0.58102 0.27128 0.82394 0.0
C430 C 0.54199 0.23754 0.8232 0.0
C431 C 0.53 0.2122 0.84035 0.0
C432 C 0.49331 0.18028 0.83947 0.0
C433 C 0.46822 0.17357 0.82159 0.0
C434 C 0.47974 0.19885 0.80458 0.0
C435 C 0.51643 0.23079 0.80537 0.0
H436 H 0.43982 0.14884 0.82094 0.0
H437 H 0.79733 0.45598 0.82851 0.0
H438 H 0.5509 0.91961 0.51959 0.0
H439 H 0.54333 0.85086 0.52091 0.0
H440 H 0.6449 0.88021 0.48415 0.0
H441 H 0.65161 0.94861 0.48211 0.0
H442 H 0.59214 0.80886 0.47172 0.0
H443 H 0.64806 0.87454 0.53953 0.0
H444 H 0.65112 0.91339 0.57245 0.0
H445 H 0.54208 0.82302 0.58998 0.0
H446 H 0.53813 0.78386 0.55701 0.0
H447 H 0.63617 0.64606 0.50209 0.0
H448 H 0.63494 0.70978 0.49361 0.0
H449 H 0.53534 0.68207 0.53186 0.0
H450 H 0.53748 0.61927 0.54084 0.0
H451 H 0.5864 0.75239 0.5428 0.0
H452 H 0.53166 0.68518 0.47535 0.0
H453 H 0.52896 0.64676 0.44233 0.0
H454 H 0.63597 0.73951 0.4241 0.0
H455 H 0.63958 0.77827 0.45715 0.0
C456 C 0.57137 0.91127 0.51162 0.0
C457 C 0.60201 0.93951 0.50087 0.0
C458 C 0.56717 0.872 0.51248 0.0
C459 C 0.59399 0.86038 0.50298 0.0
C460 C 0.6239 0.88836 0.49167 0.0
C461 C 0.62783 0.92751 0.4906 0.0
C462 C 0.59179 0.8196 0.50548 0.0
C463 C 0.59125 0.79663 0.48728 0.0
C464 C 0.58999 0.80323 0.52573 0.0
C465 C 0.59264 0.82645 0.54572 0.0
C466 C 0.62464 0.86306 0.55035 0.0
C467 C 0.62654 0.88513 0.56902 0.0
C468 C 0.59676 0.87073 0.58327 0.0
C469 C 0.5651 0.83416 0.57891 0.0
C470 C 0.56303 0.812 0.56025 0.0
C471 C 0.61352 0.6533 0.50822 0.0
C472 C 0.58689 0.62783 0.52208 0.0
C473 C 0.61278 0.6897 0.50339 0.0
C474 C 0.58495 0.7009 0.51204 0.0
C475 C 0.55724 0.67439 0.52507 0.0
C476 C 0.55831 0.6384 0.5301 0.0
C477 C 0.5863 0.74125 0.50901 0.0
C478 C 0.58697 0.76435 0.52719 0.0
C479 C 0.58828 0.75765 0.48875 0.0
C480 C 0.58606 0.73446 0.46883 0.0
C481 C 0.55476 0.69725 0.46438 0.0
C482 C 0.55304 0.67544 0.44564 0.0
C483 C 0.58232 0.69064 0.43116 0.0
C484 C 0.61333 0.72775 0.43535 0.0
C485 C 0.61521 0.74967 0.45407 0.0
H486 H 0.58094 0.6737 0.41666 0.0
H487 H 0.59826 0.88789 0.5977 0.0
H488 H 0.79637 0.59974 0.85875 0.0
H489 H 0.8552 0.58824 0.85686 0.0
H490 H 0.80627 0.51258 0.80044 0.0
H491 H 0.74805 0.52426 0.80217 0.0
H492 H 0.85905 0.52294 0.86239 0.0
H493 H 0.8707 0.5017 0.77068 0.0
H494 H 0.86477 0.53369 0.73772 0.0
H495 H 0.88994 0.64257 0.77332 0.0
H496 H 0.89659 0.61146 0.80646 0.0
H497 H 0.93292 0.38626 0.84955 0.0
H498 H 0.89166 0.42001 0.84031 0.0
H499 H 0.99188 0.52119 0.8208 0.0
H500 H 0.03299 0.48683 0.82937 0.0
H501 H 0.92618 0.51237 0.79781 0.0
H502 H 0.96873 0.52154 0.87049 0.0
H503 H 0.98072 0.49569 0.90437 0.0
H504 H 0.85831 0.42544 0.90871 0.0
H505 H 0.84562 0.45064 0.87472 0.0
C506 C 0.7986 0.58115 0.84581 0.0
C507 C 0.76772 0.56249 0.83075 0.0
C508 C 0.83215 0.57468 0.84469 0.0
C509 C 0.83522 0.5496 0.82847 0.0
C510 C 0.80493 0.53251 0.8129 0.0
C511 C 0.77147 0.53886 0.81404 0.0
C512 C 0.86722 0.53676 0.8293 0.0
C513 C 0.87406 0.52126 0.84831 0.0
C514 C 0.8874 0.53503 0.81105 0.0
C515 C 0.88396 0.55413 0.7911 0.0
C516 C 0.87525 0.53255 0.77148 0.0
C517 C 0.87168 0.55051 0.75276 0.0
C518 C 0.8769 0.59011 0.75343 0.0
C519 C 0.88579 0.61186 0.77282 0.0
C520 C 0.8894 0.59405 0.79159 0.0
C521 C 0.94574 0.41505 0.84252 0.0
C522 C 0.98591 0.43421 0.84024 0.0
C523 C 0.92233 0.43436 0.83735 0.0
C524 C 0.93902 0.47344 0.83042 0.0
C525 C 0.97857 0.49111 0.82622 0.0
C526 C 1.00195 0.4715 0.83108 0.0
C527 C 0.91634 0.4974 0.83055 0.0
C528 C 0.91147 0.51488 0.81186 0.0
C529 C 0.89891 0.50226 0.84926 0.0
C530 C 0.90625 0.48777 0.86999 0.0
C531 C 0.94438 0.50046 0.87863 0.0
C532 C 0.95131 0.48591 0.89784 0.0
C533 C 0.92032 0.45881 0.90865 0.0
C534 C 0.8823 0.44639 0.90031 0.0
C535 C 0.87521 0.46086 0.88109 0.0
H536 H 0.92576 0.44752 0.9235 0.0
H537 H 0.8741 0.60395 0.73892 0.0
H538 H 0.16765 0.65832 0.12608 0.0
H539 H 0.22275 0.72395 0.12881 0.0
H540 H 0.27087 0.68756 0.18286 0.0
H541 H 0.21563 0.62233 0.18039 0.0
H542 H 0.27104 0.75866 0.19067 0.0
H543 H 0.30971 0.6961 0.13367 0.0
H544 H 0.30133 0.66059 0.09892 0.0
H545 H 0.28942 0.75667 0.06761 0.0
H546 H 0.29725 0.79254 0.10222 0.0
H547 H 0.45826 0.915 0.20071 0.0
H548 H 0.40338 0.85007 0.195 0.0
H549 H 0.36356 0.89239 0.14005 0.0
H550 H 0.41946 0.95713 0.14532 0.0
H551 H 0.3574 0.81959 0.13176 0.0
H552 H 0.32022 0.88301 0.18837 0.0
H553 H 0.32799 0.91866 0.22302 0.0
H554 H 0.33583 0.82119 0.25496 0.0
H555 H 0.32862 0.78516 0.22048 0.0
C556 C 0.19019 0.66433 0.13841 0.0
C557 C 0.18748 0.63541 0.15304 0.0
C558 C 0.22167 0.70173 0.13993 0.0
C559 C 0.25105 0.71058 0.15597 0.0
C560 C 0.24851 0.68141 0.17039 0.0
C561 C 0.21703 0.64415 0.16893 0.0
C562 C 0.28383 0.7506 0.15829 0.0
C563 C 0.29023 0.77178 0.17787 0.0
C564 C 0.30809 0.76821 0.14138 0.0
C565 C 0.30369 0.74682 0.12055 0.0
C566 C 0.30502 0.70952 0.11939 0.0
C567 C 0.30042 0.68936 0.09972 0.0
C568 C 0.29473 0.70631 0.08108 0.0
C569 C 0.29377 0.74354 0.08207 0.0
C570 C 0.29833 0.76383 0.1017 0.0
C571 C 0.43804 0.91028 0.18728 0.0
C572 C 0.4435 0.94076 0.17318 0.0
C573 C 0.40649 0.8733 0.18413 0.0
C574 C 0.37909 0.86644 0.16721 0.0
C575 C 0.38439 0.89695 0.15316 0.0
C576 C 0.41623 0.93387 0.15619 0.0
C577 C 0.34493 0.82745 0.16425 0.0
C578 C 0.33817 0.80652 0.14454 0.0
C579 C 0.32018 0.81007 0.18103 0.0
C580 C 0.3242 0.83154 0.20182 0.0
C581 C 0.32385 0.86929 0.20277 0.0
C582 C 0.32812 0.88955 0.22238 0.0
C583 C 0.33249 0.87224 0.24117 0.0
C584 C 0.33248 0.83457 0.2404 0.0
C585 C 0.32825 0.8142 0.22082 0.0
H586 H 0.33581 0.88798 0.25634 0.0
H587 H 0.29115 0.69064 0.06587 0.0
H588 H 0.50344 0.10426 0.52839 0.0
H589 H 0.51042 0.17289 0.52802 0.0
H590 H 0.61066 0.20466 0.49006 0.0
H591 H 0.60282 0.13541 0.48959 0.0
H592 H 0.61593 0.25995 0.52824 0.0
H593 H 0.54057 0.19742 0.4639 0.0
H594 H 0.48718 0.14439 0.44289 0.0
H595 H 0.40371 0.16448 0.47989 0.0
H596 H 0.45668 0.21725 0.50136 0.0
H597 H 0.62054 0.44769 0.49733 0.0
H598 H 0.62297 0.38265 0.49852 0.0
H599 H 0.5077 0.33176 0.52226 0.0
H600 H 0.50527 0.39654 0.52109 0.0
H601 H 0.51361 0.28671 0.49005 0.0
H602 H 0.58642 0.34778 0.55458 0.0
H603 H 0.63814 0.39894 0.57742 0.0
H604 H 0.72471 0.3808 0.54229 0.0
H605 H 0.67348 0.32991 0.51902 0.0
C606 C 0.52702 0.12584 0.51998 0.0
C607 C 0.55273 0.11449 0.50913 0.0
C608 C 0.53102 0.16505 0.51984 0.0
C609 C 0.56112 0.19387 0.50908 0.0
C610 C 0.58741 0.18291 0.49858 0.0
C611 C 0.58295 0.14339 0.49837 0.0
C612 C 0.56373 0.23489 0.50813 0.0
C613 C 0.59402 0.26608 0.51959 0.0
C614 C 0.53453 0.24253 0.49732 0.0
C615 C 0.5026 0.21099 0.48438 0.0
C616 C 0.51084 0.19027 0.46769 0.0
C617 C 0.48065 0.16031 0.45567 0.0
C618 C 0.44207 0.151 0.46008 0.0
C619 C 0.43361 0.1717 0.4765 0.0
C620 C 0.46371 0.20165 0.48859 0.0
C621 C 0.59608 0.42274 0.50319 0.0
C622 C 0.56305 0.4274 0.50957 0.0
C623 C 0.59745 0.38559 0.50384 0.0
C624 C 0.56563 0.35227 0.51065 0.0
C625 C 0.53266 0.35697 0.517 0.0
C626 C 0.53138 0.39406 0.51646 0.0
C627 C 0.56578 0.31214 0.51029 0.0
C628 C 0.53585 0.28092 0.49858 0.0
C629 C 0.59519 0.30453 0.52104 0.0
C630 C 0.6261 0.33539 0.53486 0.0
C631 C 0.61649 0.355 0.55156 0.0
C632 C 0.64572 0.38389 0.56463 0.0
C633 C 0.68469 0.39322 0.56126 0.0
C634 C 0.69451 0.37361 0.54485 0.0
C635 C 0.66538 0.34473 0.53172 0.0
H636 H 0.70728 0.41556 0.5714 0.0
H637 H 0.41874 0.1278 0.45076 0.0
H638 H 0.44522 0.46413 0.84892 0.0
H639 H 0.37505 0.43646 0.84212 0.0
H640 H 0.38858 0.53307 0.80154 0.0
H641 H 0.45929 0.56128 0.80851 0.0
H642 H 0.32732 0.51501 0.82748 0.0
H643 H 0.3716 0.44583 0.77874 0.0
H644 H 0.40845 0.40874 0.76666 0.0
H645 H 0.34524 0.31391 0.80729 0.0
H646 H 0.3084 0.35071 0.81989 0.0
H647 H 0.12825 0.41139 0.79762 0.0
H648 H 0.19747 0.43766 0.79045 0.0
H649 H 0.21369 0.36474 0.8387 0.0
H650 H 0.14471 0.33892 0.84612 0.0
H651 H 0.25993 0.37399 0.80142 0.0
H652 H 0.22475 0.4506 0.85398 0.0
H653 H 0.18737 0.48762 0.86537 0.0
H654 H 0.23409 0.56934 0.81566 0.0
H655 H 0.27116 0.53224 0.80372 0.0
C656 C 0.43323 0.47973 0.83874 0.0
C657 C 0.4575 0.51466 0.82913 0.0
C658 C 0.39321 0.46374 0.83474 0.0
C659 C 0.37682 0.48226 0.82094 0.0
C660 C 0.40083 0.5182 0.81207 0.0
C661 C 0.44105 0.53429 0.8161 0.0
C662 C 0.33453 0.46353 0.81591 0.0
C663 C 0.31265 0.4845 0.82131 0.0
C664 C 0.31546 0.42363 0.80795 0.0
C665 C 0.33739 0.40119 0.80036 0.0
C666 C 0.36574 0.4172 0.78522 0.0
C667 C 0.3866 0.3962 0.77826 0.0
C668 C 0.37923 0.35902 0.78622 0.0
C669 C 0.35092 0.34272 0.80114 0.0
C670 C 0.33 0.36362 0.80818 0.0
C671 C 0.14644 0.39999 0.8061 0.0
C672 C 0.13139 0.37304 0.82229 0.0
C673 C 0.18582 0.41505 0.80207 0.0
C674 C 0.21049 0.40324 0.81416 0.0
C675 C 0.19492 0.37396 0.82915 0.0
C676 C 0.15563 0.35924 0.83337 0.0
C677 C 0.25297 0.42519 0.81351 0.0
C678 C 0.27479 0.40479 0.80709 0.0
C679 C 0.27202 0.46569 0.82038 0.0
C680 C 0.25031 0.48838 0.82779 0.0
C681 C 0.22678 0.47626 0.84537 0.0
C682 C 0.20569 0.49727 0.85194 0.0
C683 C 0.20827 0.53075 0.84121 0.0
C684 C 0.23205 0.54335 0.82393 0.0
C685 C 0.25309 0.52233 0.81725 0.0
H686 H 0.19192 0.54699 0.84632 0.0
H687 H 0.39542 0.34281 0.78081 0.0
H688 H 0.92656 0.31206 0.13197 0.0
H689 H 0.86235 0.25742 0.13608 0.0
H690 H 0.8607 0.3019 0.19984 0.0
H691 H 0.92446 0.35635 0.19579 0.0
H692 H 0.83796 0.22202 0.19806 0.0
H693 H 0.81041 0.31872 0.16168 0.0
H694 H 0.81517 0.36527 0.13353 0.0
H695 H 0.7691 0.26808 0.08714 0.0
H696 H 0.76505 0.22096 0.11498 0.0
H697 H 0.63924 0.13565 0.22003 0.0
H698 H 0.70084 0.18664 0.20939 0.0
H699 H 0.70099 0.11089 0.15646 0.0
H700 H 0.6401 0.05858 0.16755 0.0
H701 H 0.72409 0.20292 0.15048 0.0
H702 H 0.7528 0.10659 0.1903 0.0
H703 H 0.74556 0.06427 0.22095 0.0
H704 H 0.78681 0.16733 0.26349 0.0
H705 H 0.79367 0.21019 0.23309 0.0
C706 C 0.91247 0.30994 0.14686 0.0
C707 C 0.93033 0.33824 0.16358 0.0
C708 C 0.87583 0.27893 0.14916 0.0
C709 C 0.85677 0.27579 0.16823 0.0
C710 C 0.87497 0.30376 0.18502 0.0
C711 C 0.91132 0.33485 0.18267 0.0
C712 C 0.81781 0.24347 0.17085 0.0
C713 C 0.81312 0.21795 0.18766 0.0
C714 C 0.78542 0.2381 0.15722 0.0
C715 C 0.78795 0.26633 0.14038 0.0
C716 C 0.80175 0.30728 0.14544 0.0
C717 C 0.80424 0.33378 0.12954 0.0
C718 C 0.79249 0.31966 0.10855 0.0
C719 C 0.77826 0.27899 0.10341 0.0
C720 C 0.77592 0.25236 0.11924 0.0
C721 C 0.65233 0.12959 0.20617 0.0
C722 C 0.63497 0.09263 0.19488 0.0
C723 C 0.6873 0.15899 0.19999 0.0
C724 C 0.70532 0.15232 0.18223 0.0
C725 C 0.68725 0.1165 0.17017 0.0
C726 C 0.65243 0.08672 0.17653 0.0
C727 C 0.74462 0.18163 0.17755 0.0
C728 C 0.74925 0.20668 0.16053 0.0
C729 C 0.77691 0.18716 0.1912 0.0
C730 C 0.77338 0.16152 0.20945 0.0
C731 C 0.76 0.12017 0.20621 0.0
C732 C 0.75602 0.0961 0.22353 0.0
C733 C 0.76562 0.11309 0.24416 0.0
C734 C 0.77934 0.1542 0.2475 0.0
C735 C 0.78331 0.1784 0.23023 0.0
H736 H 0.76252 0.0944 0.25755 0.0
H737 H 0.79429 0.34021 0.09627 0.0
H738 H 0.12 0.49569 0.08648 0.0
H739 H 0.11848 0.48274 0.04814 0.0
H740 H 0.99336 0.42246 0.04693 0.0
H741 H 0.99494 0.43366 0.08543 0.0
H742 H 1.01767 0.3831 0.02243 0.0
H743 H 0.04456 0.52106 0.03036 0.0
H744 H 0.0796 0.59039 0.04417 0.0
H745 H 0.18385 0.59729 0.01644 0.0
H746 H 0.14953 0.5278 0.00268 0.0
H747 H 0.02815 0.46508 0.909 0.0
H748 H 0.03152 0.47316 0.94748 0.0
H749 H 0.06495 0.37594 0.95277 0.0
H750 H 0.05898 0.36584 0.91396 0.0
H751 H 0.08741 0.49343 0.97525 0.0
H752 H 0.03366 0.32979 -0.00081 0.0
H753 H 0.99024 0.26252 0.98492 0.0
H754 H 0.92467 0.31084 0.94786 0.0
H755 H 0.96737 0.37828 0.96211 0.0
C756 C 0.09218 0.47981 0.078 0.0
C757 C 0.05756 0.46592 0.08888 0.0
C758 C 0.09132 0.47247 0.05608 0.0
C759 C 0.05575 0.45215 0.04454 0.0
C760 C 1.02117 0.43813 0.05545 0.0
C761 C 0.02208 0.4447 0.07744 0.0
C762 C 0.05447 0.44572 0.02108 0.0
C763 C 0.03298 0.40724 0.01213 0.0
C764 C 0.07391 0.47725 0.00754 0.0
C765 C 0.09458 0.51912 0.01568 0.0
C766 C 0.07503 0.53729 0.02733 0.0
C767 C 0.09474 0.57662 0.03513 0.0
C768 C 0.13396 0.5982 0.03123 0.0
C769 C 0.1535 0.58052 0.01947 0.0
C770 C 0.13392 0.54118 0.01165 0.0
C771 C 0.03528 0.44468 0.91828 0.0
C772 C 0.04241 0.41418 0.90834 0.0
C773 C 0.03783 0.4498 0.94034 0.0
C774 C 0.04817 0.42499 0.95308 0.0
C775 C 0.05629 0.39506 0.94328 0.0
C776 C 0.05321 0.38954 0.92109 0.0
C777 C 0.05037 0.43088 0.97659 0.0
C778 C 0.07225 0.46924 0.98556 0.0
C779 C 0.03005 0.39956 0.99005 0.0
C780 C 1.00401 0.35909 0.98152 0.0
C781 C 1.00991 0.32602 0.98803 0.0
C782 C 0.98543 0.28787 0.97995 0.0
C783 C 0.95481 0.28243 0.96543 0.0
C784 C 0.9485 0.31511 0.95903 0.0
C785 C 0.97286 0.3533 0.96709 0.0
H786 H 0.93592 0.25288 0.95918 0.0
H787 H 0.14918 0.62864 0.03729 0.0
H788 H 0.52634 0.95919 0.43547 0.0
H789 H 0.52017 0.95525 0.39652 0.0
H790 H 0.59766 0.07959 0.39499 0.0
H791 H 0.60444 0.08375 0.43388 0.0
H792 H 0.52744 0.05433 0.36821 0.0
H793 H 0.63326 0.0173 0.38467 0.0
H794 H 0.66259 0.97698 0.40207 0.0
H795 H 0.57676 0.87133 0.37034 0.0
H796 H 0.54656 0.91099 0.35298 0.0
H797 H 0.58485 0.0852 0.26339 0.0
H798 H 0.58102 0.08039 0.30175 0.0
H799 H 0.52658 0.95241 0.2945 0.0
H800 H 0.53266 0.95693 0.25597 0.0
H801 H 0.57804 0.97331 0.32595 0.0
H802 H 0.47432 0.00761 0.3073 0.0
H803 H 0.44141 0.04492 0.2902 0.0
H804 H 0.51674 0.15088 0.32609 0.0
H805 H 0.5505 0.11435 0.34319 0.0
C806 C 0.54198 0.98573 0.42685 0.0
C807 C 0.56595 0.02178 0.43773 0.0
C808 C 0.53848 0.98337 0.40462 0.0
C809 C 0.55855 0.01711 0.39295 0.0
C810 C 0.58195 0.05326 0.40377 0.0
C811 C 0.58591 0.05551 0.42596 0.0
C812 C 0.55561 0.01478 0.36942 0.0
C813 C 0.53876 0.03692 0.35891 0.0
C814 C 0.56906 0.99082 0.35742 0.0
C815 C 0.58739 0.96704 0.36773 0.0
C816 C 0.62043 0.98543 0.38155 0.0
C817 C 0.63725 0.96271 0.39138 0.0
C818 C 0.62148 0.9216 0.38736 0.0
C819 C 0.58891 0.90316 0.37346 0.0
C820 C 0.57194 0.92575 0.36362 0.0
C821 C 0.57246 0.05594 0.26989 0.0
C822 C 0.55927 0.02144 0.25651 0.0
C823 C 0.56972 0.05326 0.29188 0.0
C824 C 0.55287 0.01605 0.30105 0.0
C825 C 0.5395 0.98148 0.28779 0.0
C826 C 0.54267 0.98412 0.26573 0.0
C827 C 0.55047 0.01356 0.32453 0.0
C828 C 0.56626 0.99045 0.33512 0.0
C829 C 0.53542 0.03615 0.33661 0.0
C830 C 0.51514 0.05828 0.32641 0.0
C831 C 0.48406 0.03894 0.31144 0.0
C832 C 0.46522 0.05994 0.30176 0.0
C833 C 0.47703 0.10026 0.30702 0.0
C834 C 0.50765 0.11965 0.32202 0.0
C835 C 0.52662 0.09879 0.33173 0.0
H836 H 0.4624 0.11647 0.29952 0.0
H837 H 0.63454 0.90406 0.39499 0.0
H838 H 0.68014 0.56879 0.76475 0.0
H839 H 0.68126 0.56963 0.72602 0.0
H840 H 0.57208 0.57945 0.72309 0.0
H841 H 0.57087 0.57911 0.76186 0.0
H842 H 0.63288 0.51815 0.69687 0.0
H843 H 0.56885 0.63283 0.68053 0.0
H844 H 0.57055 0.69497 0.69649 0.0
H845 H 0.67918 0.71843 0.72946 0.0
H846 H 0.67834 0.65669 0.71355 0.0
H847 H 0.564 0.50047 0.58865 0.0
H848 H 0.57208 0.50366 0.62756 0.0
H849 H 0.66355 0.62213 0.62558 0.0
H850 H 0.65481 0.61934 0.58684 0.0
H851 H 0.61696 0.62159 0.6544 0.0
H852 H 0.68164 0.53974 0.63678 0.0
H853 H 0.68869 0.48298 0.61945 0.0
H854 H 0.59391 0.40179 0.65379 0.0
H855 H 0.58591 0.45807 0.6711 0.0
C856 C 0.65653 0.57155 0.75593 0.0
C857 C 0.62538 0.57382 0.76646 0.0
C858 C 0.65712 0.57181 0.73376 0.0
C859 C 0.62681 0.57466 0.72165 0.0
C860 C 0.59599 0.57763 0.73211 0.0
C861 C 0.59532 0.57728 0.7543 0.0
C862 C 0.62678 0.57333 0.69807 0.0
C863 C 0.62946 0.54079 0.68757 0.0
C864 C 0.62303 0.60321 0.68594 0.0
C865 C 0.62333 0.63993 0.69598 0.0
C866 C 0.59311 0.65127 0.69117 0.0
C867 C 0.59395 0.68645 0.70019 0.0
C868 C 0.625 0.71066 0.71393 0.0
C869 C 0.65516 0.69964 0.7188 0.0
C870 C 0.65444 0.66448 0.70985 0.0
C871 C 0.58611 0.52693 0.59657 0.0
C872 C 0.60867 0.55972 0.58482 0.0
C873 C 0.59076 0.52874 0.61877 0.0
C874 C 0.61857 0.5631 0.62952 0.0
C875 C 0.64174 0.59543 0.61768 0.0
C876 C 0.63679 0.5938 0.59557 0.0
C877 C 0.62256 0.56616 0.65314 0.0
C878 C 0.62044 0.59894 0.66366 0.0
C879 C 0.62791 0.53706 0.66526 0.0
C880 C 0.63296 0.50314 0.6551 0.0
C881 C 0.66214 0.50978 0.64054 0.0
C882 C 0.66632 0.47769 0.63073 0.0
C883 C 0.6417 0.4388 0.63547 0.0
C884 C 0.61293 0.43193 0.65011 0.0
C885 C 0.60858 0.46392 0.65994 0.0
H886 H 0.64495 0.414 0.62784 0.0
H887 H 0.62563 0.73792 0.72087 0.0
H888 H 0.54 0.97526 0.57645 0.0
H889 H 0.54414 0.98021 0.61524 0.0
H890 H 0.64381 0.09311 0.61392 0.0
H891 H 0.64024 0.08825 0.57502 0.0
H892 H 0.65386 0.04629 0.64379 0.0
H893 H 0.55591 0.08999 0.62373 0.0
H894 H 0.49617 0.08539 0.60487 0.0
H895 H 0.42912 0.979 0.63697 0.0
H896 H 0.48858 0.98263 0.6558 0.0
H897 H 0.6514 0.09548 0.75315 0.0
H898 H 0.64816 0.0987 0.71439 0.0
H899 H 0.54785 0.98579 0.7103 0.0
H900 H 0.55023 0.98293 0.74905 0.0
H901 H 0.53953 0.03714 0.68311 0.0
H902 H 0.63734 0.99123 0.70156 0.0
H903 H 0.6969 0.99469 0.72014 0.0
H904 H 0.76398 0.10449 0.69088 0.0
H905 H 0.70467 0.10196 0.67235 0.0
C906 C 0.56292 1.00114 0.58436 0.0
C907 C 0.58968 0.03147 0.5726 0.0
C908 C 0.56512 1.00397 0.60656 0.0
C909 C 0.5939 0.03732 0.61745 0.0
C910 C 0.62127 0.0672 0.60581 0.0
C911 C 0.61914 0.06437 0.58357 0.0
C912 C 0.59522 0.04098 0.641 0.0
C913 C 0.6291 0.04496 0.65239 0.0
C914 C 0.56263 0.03848 0.6522 0.0
C915 C 0.52676 0.03641 0.64105 0.0
C916 C 0.52847 0.06546 0.62666 0.0
C917 C 0.49465 0.06305 0.61599 0.0
C918 C 0.45888 0.03188 0.61968 0.0
C919 C 0.45685 1.00311 0.63411 0.0
C920 C 0.4906 1.00535 0.6448 0.0
C921 C 0.62824 0.0717 0.74402 0.0
C922 C 0.60122 0.0388 0.75414 0.0
C923 C 0.62664 0.0734 0.72187 0.0
C924 C 0.59813 0.04217 0.70946 0.0
C925 C 0.57021 0.0101 0.71957 0.0
C926 C 0.57178 0.00837 0.74169 0.0
C927 C 0.59805 0.04212 0.6859 0.0
C928 C 0.5644 0.03879 0.6745 0.0
C929 C 0.63082 0.04515 0.6747 0.0
C930 C 0.66651 0.04663 0.68576 0.0
C931 C 0.66474 0.01628 0.69922 0.0
C932 C 0.69846 0.01804 0.70973 0.0
C933 C 0.73418 0.04985 0.70674 0.0
C934 C 0.73627 0.07991 0.69321 0.0
C935 C 0.70263 0.07832 0.68269 0.0
H936 H 0.76026 0.05116 0.71488 0.0
H937 H 0.43273 0.03006 0.6114 0.0
H938 H 0.54938 0.52666 0.89835 0.0
H939 H 0.54374 0.51752 0.93656 0.0
H940 H 0.66861 0.56709 0.94507 0.0
H941 H 0.67432 0.57467 0.90672 0.0
H942 H 0.6401 0.50601 0.96746 0.0
H943 H 0.6117 0.61899 0.9593 0.0
H944 H 0.57831 0.65771 0.94433 0.0
H945 H 0.46957 0.57236 0.96542 0.0
H946 H 0.50224 0.53283 0.98028 0.0
H947 H 0.65325 0.54269 0.0791 0.0
H948 H 0.65545 0.55255 0.04092 0.0
H949 H 0.53248 0.47898 0.03337 0.0
H950 H 0.53011 0.46779 0.07161 0.0
H951 H 0.55835 0.55097 0.01091 0.0
H952 H 0.59111 0.43987 0.02031 0.0
H953 H 0.62803 0.40526 0.03605 0.0
H954 H 0.73364 0.49353 0.01338 0.0
H955 H 0.69746 0.52906 0.99781 0.0
C956 C 0.57567 0.53589 0.90838 0.0
C957 C 0.61232 0.55148 0.89951 0.0
C958 C 0.5724 0.53081 0.93028 0.0
C959 C 0.60576 0.54215 0.94385 0.0
C960 C 0.64241 0.55805 0.93499 0.0
C961 C 0.64566 0.56247 0.91305 0.0
C962 C 0.60251 0.53626 0.96715 0.0
C963 C 0.62264 0.5164 0.97696 0.0
C964 C 0.57909 0.54901 0.97959 0.0
C965 C 0.55936 0.57274 0.97071 0.0
C966 C 0.58062 0.60832 0.96061 0.0
C967 C 0.56183 0.63044 0.95217 0.0
C968 C 0.52183 0.61744 0.95387 0.0
C969 C 0.50055 0.58235 0.96408 0.0
C970 C 0.51919 0.5601 0.97253 0.0
C971 C 0.62667 0.52816 0.06935 0.0
C972 C 0.59157 0.50398 0.07846 0.0
C973 C 0.62798 0.53408 0.04753 0.0
C974 C 0.59422 0.51617 0.03432 0.0
C975 C 0.55887 0.49304 0.04334 0.0
C976 C 0.55756 0.4868 0.0652 0.0
C977 C 0.59617 0.52114 0.01103 0.0
C978 C 0.57575 0.54068 0.00129 0.0
C979 C 0.61985 0.50875 -0.0013 0.0
C980 C 0.64159 0.48731 0.00804 0.0
C981 C 0.62225 0.45209 0.01884 0.0
C982 C 0.64304 0.43228 0.0277 0.0
C983 C 0.68314 0.44721 0.02571 0.0
C984 C 0.70256 0.48201 0.01489 0.0
C985 C 0.68193 0.50198 0.00604 0.0
H986 H 0.69918 0.43176 0.03249 0.0
H987 H 0.50734 0.63461 0.94733 0.0
H988 H 0.04936 0.4363 0.22794 0.0
H989 H 0.04646 0.44469 0.26633 0.0
H990 H 0.07661 0.56961 0.25972 0.0
H991 H 0.08142 0.56168 0.22139 0.0
H992 H 0.11162 0.5624 0.29333 0.0
H993 H 0.98061 0.49897 0.26635 0.0
H994 H 0.92408 0.44864 0.24593 0.0
H995 H 0.9291 0.35722 0.28472 0.0
H996 H 0.98608 0.40686 0.30517 0.0
H997 H 0.98793 0.51553 0.39582 0.0
H998 H 0.99234 0.51774 0.35711 0.0
H999 H 0.10687 0.52026 0.36332 0.0
H1000 H 0.10306 0.51978 0.40203 0.0
H1001 H 0.99608 0.4695 0.32931 0.0
H1002 H 0.16223 0.56611 0.32359 0.0
H1003 H 0.21479 0.62252 0.34315 0.0
H1004 H 0.1313 0.65959 0.36865 0.0
H1005 H 0.07831 0.60376 0.34901 0.0
C1006 C 0.05556 0.46559 0.2347 0.0
C1007 C 0.06543 0.4983 0.22168 0.0
C1008 C 0.05367 0.47032 0.25663 0.0
C1009 C 0.06042 0.50762 0.26591 0.0
C1010 C 0.07117 0.54052 0.25296 0.0
C1011 C 0.07389 0.53596 0.23105 0.0
C1012 C 0.05599 0.51214 0.28907 0.0
C1013 C 0.0863 0.54215 0.30119 0.0
C1014 C 0.02244 0.48654 0.29929 0.0
C1015 C 0.98783 0.45662 0.2872 0.0
C1016 C 0.96981 0.4681 0.27046 0.0
C1017 C 0.93767 0.43971 0.25888 0.0
C1018 C 0.92306 0.39978 0.264 0.0
C1019 C 0.94048 0.38817 0.28076 0.0
C1020 C 0.97268 0.41642 0.29236 0.0
C1021 C 1.01412 0.5169 0.38885 0.0
C1022 C 0.04526 0.51773 0.40183 0.0
C1023 C 1.01662 0.51808 0.36677 0.0
C1024 C 0.05012 0.51964 0.35724 0.0
C1025 C 0.08112 0.52012 0.37025 0.0
C1026 C 0.0789 0.51969 0.39236 0.0
C1027 C 0.05209 0.51925 0.33368 0.0
C1028 C 1.02129 0.48996 0.32147 0.0
C1029 C 0.0845 0.54653 0.32329 0.0
C1030 C 0.11627 0.5805 0.33496 0.0
C1031 C 0.15511 0.5864 0.33329 0.0
C1032 C 0.18497 0.61826 0.34441 0.0
C1033 C 0.17638 0.64455 0.35719 0.0
C1034 C 0.13791 0.63912 0.35881 0.0
C1035 C 0.10794 0.60735 0.3477 0.0
H1036 H 0.19954 0.66916 0.3658 0.0
H1037 H 0.8982 0.37784 0.255 0.0
loop_
_geom_bond_atom_site_label_1
_geom_bond_atom_site_label_2
_geom_bond_distance
_geom_bond_site_symmetry_2
_ccdc_geom_bond_type
Tb0 O3 2.453 1_455 S
Tb0 O4 2.596 1_455 S
Tb0 O5 2.374 . S
Tb0 O13 2.343 . S
Tb0 O15 2.353 . S
Tb0 O17 2.427 . S
Tb0 O18 2.513 . S
C1 O5 1.251 1_655 S
C1 O7 1.263 . S
Tb2 O4 2.343 . S
Tb2 O7 2.353 . S
Tb2 O10 2.427 . S
Tb2 O11 2.513 . S
Tb2 O12 2.453 1_655 S
Tb2 O13 2.596 1_655 S
Tb2 O14 2.374 . S
O3 Tb0 2.453 1_655 S
O3 C19 1.245 . S
O4 Tb0 2.596 1_655 S
O4 Tb2 2.343 . S
O4 C19 1.259 . S
O5 Tb0 2.374 . S
O5 C1 1.251 1_455 S
C6 O10 1.275 . S
C6 O11 1.246 . S
O7 C1 1.263 . S
O7 Tb2 2.353 . S
C8 O12 1.245 . S
C8 O13 1.259 . S
C9 O14 1.250 1_455 S
C9 O15 1.263 . S
O10 Tb2 2.427 . S
O10 C6 1.275 . S
O11 Tb2 2.513 . S
O11 C6 1.246 . S
O12 Tb2 2.453 1_455 S
O12 C8 1.245 . S
O13 Tb0 2.343 . S
O13 Tb2 2.596 1_455 S
O13 C8 1.259 . S
O14 Tb2 2.374 . S
O14 C9 1.250 1_655 S
O15 Tb0 2.353 . S
O15 C9 1.263 . S
C16 O17 1.275 . S
C16 O18 1.246 . S
O17 Tb0 2.427 . S
O17 C16 1.275 . S
O18 Tb0 2.513 . S
O18 C16 1.246 . S
C19 O3 1.245 . S
C19 O4 1.259 . S
Tb20 O23 2.453 1_565 S
Tb20 O24 2.596 1_565 S
Tb20 O25 2.374 1_565 S
Tb20 O33 2.343 . S
Tb20 O35 2.353 1_565 S
Tb20 O37 2.427 . S
Tb20 O38 2.513 . S
C21 O25 1.251 . S
C21 O27 1.263 . S
Tb22 O24 2.343 . S
Tb22 O27 2.353 . S
Tb22 O30 2.427 . S
Tb22 O31 2.513 . S
Tb22 O32 2.453 1_545 S
Tb22 O33 2.596 1_545 S
Tb22 O34 2.374 . S
O23 Tb20 2.453 1_545 S
O23 C39 1.245 . S
O24 Tb20 2.596 1_545 S
O24 Tb22 2.343 . S
O24 C39 1.259 . S
O25 Tb20 2.374 1_545 S
O25 C21 1.251 . S
C26 O30 1.275 . S
C26 O31 1.246 . S
O27 C21 1.263 . S
O27 Tb22 2.353 . S
C28 O32 1.245 . S
C28 O33 1.259 . S
C29 O34 1.250 . S
C29 O35 1.263 . S
O30 Tb22 2.427 . S
O30 C26 1.275 . S
O31 Tb22 2.513 . S
O31 C26 1.246 . S
O32 Tb22 2.453 1_565 S
O32 C28 1.245 . S
O33 Tb20 2.343 . S
O33 Tb22 2.596 1_565 S
O33 C28 1.259 . S
O34 Tb22 2.374 . S
O34 C29 1.250 . S
O35 Tb20 2.353 1_545 S
O35 C29 1.263 . S
C36 O37 1.275 . S
C36 O38 1.246 . S
O37 Tb20 2.427 . S
O37 C36 1.275 . S
O38 Tb20 2.513 . S
O38 C36 1.246 . S
C39 O23 1.245 . S
C39 O24 1.259 . S
Tb40 O43 2.453 . S
Tb40 O44 2.596 . S
Tb40 O45 2.374 . S
Tb40 O53 2.343 . S
Tb40 O55 2.353 . S
Tb40 O57 2.427 . S
Tb40 O58 2.513 . S
C41 O45 1.251 . S
C41 O47 1.263 . S
Tb42 O44 2.343 . S
Tb42 O47 2.353 . S
Tb42 O50 2.427 . S
Tb42 O51 2.513 . S
Tb42 O52 2.453 . S
Tb42 O53 2.596 . S
Tb42 O54 2.374 . S
O43 Tb40 2.453 . S
O43 C59 1.245 . S
O44 Tb40 2.596 . S
O44 Tb42 2.343 . S
O44 C59 1.259 . S
O45 Tb40 2.374 . S
O45 C41 1.251 . S
C46 O50 1.275 . S
C46 O51 1.246 . S
O47 C41 1.263 . S
O47 Tb42 2.353 . S
C48 O52 1.245 . S
C48 O53 1.259 . S
C49 O54 1.250 . S
C49 O55 1.263 . S
O50 Tb42 2.427 . S
O50 C46 1.275 . S
O51 Tb42 2.513 . S
O51 C46 1.246 . S
O52 Tb42 2.453 . S
O52 C48 1.245 . S
O53 Tb40 2.343 . S
O53 Tb42 2.596 . S
O53 C48 1.259 . S
O54 Tb42 2.374 . S
O54 C49 1.250 . S
O55 Tb40 2.353 . S
O55 C49 1.263 . S
C56 O57 1.275 . S
C56 O58 1.246 . S
O57 Tb40 2.427 . S
O57 C56 1.275 . S
O58 Tb40 2.513 . S
O58 C56 1.246 . S
C59 O43 1.245 . S
C59 O44 1.259 . S
H60 C67 0.929 . S
H61 C70 0.930 . S
H62 C72 0.929 . S
H63 C64 0.969 . S
C64 H63 0.969 . S
C64 O65 1.550 . S
C64 H66 0.973 . S
O65 C64 1.550 . S
O65 C71 1.412 . S
H66 C64 0.973 . S
C67 H60 0.929 . S
C67 C68 1.400 . S
C67 C69 1.364 . S
C68 C67 1.400 . S
C68 C72 1.377 . S
C69 C67 1.364 . S
C69 C70 1.374 1_545 S
C70 H61 0.930 . S
C70 C69 1.374 1_565 S
C70 C71 1.383 . S
C71 O65 1.412 . S
C71 C70 1.383 . S
C71 C72 1.394 1_565 S
C72 H62 0.929 . S
C72 C68 1.377 . S
C72 C71 1.394 1_545 S
H73 C80 0.929 . S
H74 C83 0.930 . S
H75 C85 0.929 . S
H76 C77 0.969 . S
C77 H76 0.969 . S
C77 O78 1.550 . S
C77 H79 0.973 . S
O78 C77 1.550 . S
O78 C84 1.412 . S
H79 C77 0.973 . S
C80 H73 0.929 . S
C80 C81 1.400 . S
C80 C82 1.364 . S
C81 C80 1.400 . S
C81 C85 1.377 . S
C82 C80 1.364 . S
C82 C83 1.374 . S
C83 H74 0.930 . S
C83 C82 1.374 . S
C83 C84 1.383 . S
C84 O78 1.412 . S
C84 C83 1.383 . S
C84 C85 1.394 . S
C85 H75 0.929 . S
C85 C81 1.377 . S
C85 C84 1.394 . S
H86 C93 0.929 . S
H87 C96 0.930 . S
H88 C98 0.929 . S
H89 C90 0.969 . S
C90 H89 0.969 . S
C90 O91 1.550 . S
C90 H92 0.973 . S
O91 C90 1.550 . S
O91 C97 1.412 . S
H92 C90 0.973 . S
C93 H86 0.929 . S
C93 C94 1.400 . S
C93 C95 1.364 . S
C94 C93 1.400 . S
C94 C98 1.377 . S
C95 C93 1.364 . S
C95 C96 1.374 . S
C96 H87 0.930 . S
C96 C95 1.374 . S
C96 C97 1.383 . S
C97 O91 1.412 . S
C97 C96 1.383 . S
C97 C98 1.394 . S
C98 H88 0.929 . S
C98 C94 1.377 . S
C98 C97 1.394 . S
H99 C106 0.929 . S
H100 C109 0.930 . S
H101 C111 0.929 . S
H102 C103 0.969 . S
C103 H102 0.969 . S
C103 O104 1.550 . S
C103 H105 0.973 . S
O104 C103 1.550 . S
O104 C110 1.412 . S
H105 C103 0.973 . S
C106 H99 0.929 . S
C106 C107 1.400 . S
C106 C108 1.364 1_655 S
C107 C106 1.400 . S
C107 C111 1.377 1_655 S
C108 C106 1.364 1_455 S
C108 C109 1.374 . S
C109 H100 0.930 . S
C109 C108 1.374 . S
C109 C110 1.383 . S
C110 O104 1.412 . S
C110 C109 1.383 . S
C110 C111 1.394 . S
C111 H101 0.929 . S
C111 C107 1.377 1_455 S
C111 C110 1.394 . S
H112 C119 0.929 . S
H113 C122 0.930 . S
H114 C124 0.929 . S
H115 C116 0.969 . S
C116 H115 0.969 . S
C116 O117 1.550 . S
C116 H118 0.973 . S
O117 C116 1.550 . S
O117 C123 1.412 . S
H118 C116 0.973 . S
C119 H112 0.929 . S
C119 C120 1.400 . S
C119 C121 1.364 1_565 S
C120 C119 1.400 . S
C120 C124 1.377 1_565 S
C121 C119 1.364 1_545 S
C121 C122 1.374 . S
C122 H113 0.930 . S
C122 C121 1.374 . S
C122 C123 1.383 . S
C123 O117 1.412 . S
C123 C122 1.383 . S
C123 C124 1.394 . S
C124 H114 0.929 . S
C124 C120 1.377 1_545 S
C124 C123 1.394 . S
H125 C132 0.929 . S
H126 C135 0.930 . S
H127 C137 0.929 . S
H128 C129 0.969 . S
C129 H128 0.969 . S
C129 O130 1.550 . S
C129 H131 0.973 . S
O130 C129 1.550 . S
O130 C136 1.412 . S
H131 C129 0.973 . S
C132 H125 0.929 . S
C132 C133 1.400 . S
C132 C134 1.364 . S
C133 C132 1.400 . S
C133 C137 1.377 . S
C134 C132 1.364 . S
C134 C135 1.374 . S
C135 H126 0.930 . S
C135 C134 1.374 . S
C135 C136 1.383 . S
C136 O130 1.412 . S
C136 C135 1.383 . S
C136 C137 1.394 . S
C137 H127 0.929 . S
C137 C133 1.377 . S
C137 C136 1.394 . S
H138 C156 0.951 . S
H139 C158 0.951 . S
H140 C160 0.950 . S
H141 C161 0.950 . S
H142 C163 0.950 . S
H143 C166 0.950 . S
H144 C167 0.950 . S
H145 C169 0.950 . S
H146 C170 0.950 . S
H147 C171 0.951 . S
H148 C173 0.951 . S
H149 C175 0.950 . S
H150 C176 0.950 . S
H151 C178 0.950 . S
H152 C181 0.950 . S
H153 C182 0.950 . S
H154 C184 0.950 . S
H155 C185 0.950 . S
C156 H138 0.951 . S
C156 C157 1.366 . S
C156 C158 1.388 . S
C157 C156 1.366 . S
C157 C161 1.385 . S
C158 H139 0.951 . S
C158 C156 1.388 . S
C158 C159 1.366 . S
C159 C158 1.366 . S
C159 C160 1.414 . S
C159 C162 1.499 . S
C160 H140 0.950 . S
C160 C159 1.414 . S
C160 C161 1.374 . S
C161 H141 0.950 . S
C161 C157 1.385 . S
C161 C160 1.374 . S
C162 C159 1.499 . S
C162 C163 1.373 . S
C162 C164 1.389 . S
C163 H142 0.950 . S
C163 C162 1.373 . S
C163 C179 1.377 . S
C164 C162 1.389 . S
C164 C165 1.524 . S
C164 C178 1.377 . S
C165 C164 1.524 . S
C165 C166 1.397 . S
C165 C170 1.363 . S
C166 H143 0.950 . S
C166 C165 1.397 . S
C166 C167 1.334 . S
C167 H144 0.950 . S
C167 C166 1.334 . S
C167 C168 1.287 . S
C168 C167 1.287 . S
C168 C169 1.524 . S
C168 H187 0.913 . S
C169 H145 0.950 . S
C169 C168 1.524 . S
C169 C170 1.415 . S
C170 H146 0.950 . S
C170 C165 1.363 . S
C170 C169 1.415 . S
C171 H147 0.951 . S
C171 C172 1.366 . S
C171 C173 1.388 . S
C172 C171 1.366 . S
C172 C176 1.385 . S
C173 H148 0.951 . S
C173 C171 1.388 . S
C173 C174 1.366 . S
C174 C173 1.366 . S
C174 C175 1.414 . S
C174 C177 1.499 . S
C175 H149 0.950 . S
C175 C174 1.414 . S
C175 C176 1.374 . S
C176 H150 0.950 . S
C176 C172 1.385 . S
C176 C175 1.374 . S
C177 C174 1.499 . S
C177 C178 1.373 . S
C177 C179 1.389 . S
C178 H151 0.950 . S
C178 C164 1.377 . S
C178 C177 1.373 . S
C179 C163 1.377 . S
C179 C177 1.389 . S
C179 C180 1.524 . S
C180 C179 1.524 . S
C180 C181 1.397 . S
C180 C185 1.363 . S
C181 H152 0.950 . S
C181 C180 1.397 . S
C181 C182 1.334 . S
C182 H153 0.950 . S
C182 C181 1.334 . S
C182 C183 1.287 . S
C183 C182 1.287 . S
C183 C184 1.524 . S
C183 H186 0.999 . S
C184 H154 0.950 . S
C184 C183 1.524 . S
C184 C185 1.415 . S
C185 H155 0.950 . S
C185 C180 1.363 . S
C185 C184 1.415 . S
H186 C183 0.999 . S
H187 C168 0.913 . S
H188 C206 0.951 . S
H189 C208 0.951 . S
H190 C210 0.950 . S
H191 C211 0.950 . S
H192 C213 0.950 . S
H193 C216 0.950 . S
H194 C217 0.950 . S
H195 C219 0.950 . S
H196 C220 0.950 . S
H197 C221 0.951 . S
H198 C223 0.951 . S
H199 C225 0.950 . S
H200 C226 0.950 . S
H201 C228 0.950 . S
H202 C231 0.950 . S
H203 C232 0.950 . S
H204 C234 0.950 . S
H205 C235 0.950 . S
C206 H188 0.951 . S
C206 C207 1.366 . S
C206 C208 1.388 . S
C207 C206 1.366 . S
C207 C211 1.385 . S
C208 H189 0.951 . S
C208 C206 1.388 . S
C208 C209 1.366 . S
C209 C208 1.366 . S
C209 C210 1.414 . S
C209 C212 1.499 . S
C210 H190 0.950 . S
C210 C209 1.414 . S
C210 C211 1.374 . S
C211 H191 0.950 . S
C211 C207 1.385 . S
C211 C210 1.374 . S
C212 C209 1.499 . S
C212 C213 1.373 . S
C212 C214 1.389 . S
C213 H192 0.950 . S
C213 C212 1.373 . S
C213 C229 1.377 . S
C214 C212 1.389 . S
C214 C215 1.524 . S
C214 C228 1.377 . S
C215 C214 1.524 . S
C215 C216 1.397 . S
C215 C220 1.363 . S
C216 H193 0.950 . S
C216 C215 1.397 . S
C216 C217 1.334 . S
C217 H194 0.950 . S
C217 C216 1.334 . S
C217 C218 1.287 . S
C218 C217 1.287 . S
C218 C219 1.524 . S
C218 H237 0.913 . S
C219 H195 0.950 . S
C219 C218 1.524 . S
C219 C220 1.415 . S
C220 H196 0.950 . S
C220 C215 1.363 . S
C220 C219 1.415 . S
C221 H197 0.951 . S
C221 C222 1.366 . S
C221 C223 1.388 . S
C222 C221 1.366 . S
C222 C226 1.385 . S
C223 H198 0.951 . S
C223 C221 1.388 . S
C223 C224 1.366 . S
C224 C223 1.366 . S
C224 C225 1.414 . S
C224 C227 1.499 . S
C225 H199 0.950 . S
C225 C224 1.414 . S
C225 C226 1.374 . S
C226 H200 0.950 . S
C226 C222 1.385 . S
C226 C225 1.374 . S
C227 C224 1.499 . S
C227 C228 1.373 . S
C227 C229 1.389 . S
C228 H201 0.950 . S
C228 C214 1.377 . S
C228 C227 1.373 . S
C229 C213 1.377 . S
C229 C227 1.389 . S
C229 C230 1.524 . S
C230 C229 1.524 . S
C230 C231 1.397 . S
C230 C235 1.363 . S
C231 H202 0.950 . S
C231 C230 1.397 . S
C231 C232 1.334 . S
C232 H203 0.950 . S
C232 C231 1.334 . S
C232 C233 1.287 . S
C233 C232 1.287 . S
C233 C234 1.524 . S
C233 H236 0.999 . S
C234 H204 0.950 . S
C234 C233 1.524 . S
C234 C235 1.415 . S
C235 H205 0.950 . S
C235 C230 1.363 . S
C235 C234 1.415 . S
H236 C233 0.999 . S
H237 C218 0.913 . S
H238 C256 0.951 . S
H239 C258 0.951 . S
H240 C260 0.950 . S
H241 C261 0.950 . S
H242 C263 0.950 . S
H243 C266 0.950 . S
H244 C267 0.950 . S
H245 C269 0.950 . S
H246 C270 0.950 . S
H247 C271 0.951 . S
H248 C273 0.951 . S
H249 C275 0.950 . S
H250 C276 0.950 . S
H251 C278 0.950 . S
H252 C281 0.950 . S
H253 C282 0.950 . S
H254 C284 0.950 . S
H255 C285 0.950 . S
C256 H238 0.951 . S
C256 C257 1.366 . S
C256 C258 1.388 . S
C257 C256 1.366 . S
C257 C261 1.385 . S
C258 H239 0.951 . S
C258 C256 1.388 . S
C258 C259 1.366 . S
C259 C258 1.366 . S
C259 C260 1.414 . S
C259 C262 1.499 . S
C260 H240 0.950 . S
C260 C259 1.414 . S
C260 C261 1.374 . S
C261 H241 0.950 . S
C261 C257 1.385 . S
C261 C260 1.374 . S
C262 C259 1.499 . S
C262 C263 1.373 . S
C262 C264 1.389 . S
C263 H242 0.950 . S
C263 C262 1.373 . S
C263 C279 1.377 . S
C264 C262 1.389 . S
C264 C265 1.524 . S
C264 C278 1.377 . S
C265 C264 1.524 . S
C265 C266 1.397 . S
C265 C270 1.363 . S
C266 H243 0.950 . S
C266 C265 1.397 . S
C266 C267 1.334 . S
C267 H244 0.950 . S
C267 C266 1.334 . S
C267 C268 1.287 . S
C268 C267 1.287 . S
C268 C269 1.524 . S
C268 H287 0.913 . S
C269 H245 0.950 . S
C269 C268 1.524 . S
C269 C270 1.415 . S
C270 H246 0.950 . S
C270 C265 1.363 . S
C270 C269 1.415 . S
C271 H247 0.951 . S
C271 C272 1.366 . S
C271 C273 1.388 . S
C272 C271 1.366 . S
C272 C276 1.385 . S
C273 H248 0.951 . S
C273 C271 1.388 . S
C273 C274 1.366 . S
C274 C273 1.366 . S
C274 C275 1.414 . S
C274 C277 1.499 . S
C275 H249 0.950 . S
C275 C274 1.414 . S
C275 C276 1.374 . S
C276 H250 0.950 . S
C276 C272 1.385 . S
C276 C275 1.374 . S
C277 C274 1.499 . S
C277 C278 1.373 . S
C277 C279 1.389 . S
C278 H251 0.950 . S
C278 C264 1.377 . S
C278 C277 1.373 . S
C279 C263 1.377 . S
C279 C277 1.389 . S
C279 C280 1.524 . S
C280 C279 1.524 . S
C280 C281 1.397 . S
C280 C285 1.363 . S
C281 H252 0.950 . S
C281 C280 1.397 . S
C281 C282 1.334 . S
C282 H253 0.950 . S
C282 C281 1.334 . S
C282 C283 1.287 . S
C283 C282 1.287 . S
C283 C284 1.524 . S
C283 H286 0.999 . S
C284 H254 0.950 . S
C284 C283 1.524 . S
C284 C285 1.415 . S
C285 H255 0.950 . S
C285 C280 1.363 . S
C285 C284 1.415 . S
H286 C283 0.999 . S
H287 C268 0.913 . S
H288 C306 0.951 . S
H289 C308 0.951 . S
H290 C310 0.950 . S
H291 C311 0.950 . S
H292 C313 0.950 . S
H293 C316 0.950 . S
H294 C317 0.950 . S
H295 C319 0.950 . S
H296 C320 0.950 . S
H297 C321 0.951 . S
H298 C323 0.951 . S
H299 C325 0.950 . S
H300 C326 0.950 . S
H301 C328 0.950 . S
H302 C331 0.950 . S
H303 C332 0.950 . S
H304 C334 0.950 . S
H305 C335 0.950 . S
C306 H288 0.951 . S
C306 C307 1.366 . S
C306 C308 1.388 . S
C307 C306 1.366 . S
C307 C311 1.385 . S
C308 H289 0.951 . S
C308 C306 1.388 . S
C308 C309 1.366 . S
C309 C308 1.366 . S
C309 C310 1.414 . S
C309 C312 1.499 . S
C310 H290 0.950 . S
C310 C309 1.414 . S
C310 C311 1.374 . S
C311 H291 0.950 . S
C311 C307 1.385 . S
C311 C310 1.374 . S
C312 C309 1.499 . S
C312 C313 1.373 . S
C312 C314 1.389 . S
C313 H292 0.950 . S
C313 C312 1.373 . S
C313 C329 1.377 . S
C314 C312 1.389 . S
C314 C315 1.524 . S
C314 C328 1.377 . S
C315 C314 1.524 . S
C315 C316 1.397 . S
C315 C320 1.363 . S
C316 H293 0.950 . S
C316 C315 1.397 . S
C316 C317 1.334 . S
C317 H294 0.950 . S
C317 C316 1.334 . S
C317 C318 1.287 . S
C318 C317 1.287 . S
C318 C319 1.524 . S
C318 H337 0.913 . S
C319 H295 0.950 . S
C319 C318 1.524 . S
C319 C320 1.415 . S
C320 H296 0.950 . S
C320 C315 1.363 . S
C320 C319 1.415 . S
C321 H297 0.951 . S
C321 C322 1.366 . S
C321 C323 1.388 . S
C322 C321 1.366 . S
C322 C326 1.385 . S
C323 H298 0.951 . S
C323 C321 1.388 . S
C323 C324 1.366 . S
C324 C323 1.366 . S
C324 C325 1.414 . S
C324 C327 1.499 . S
C325 H299 0.950 . S
C325 C324 1.414 . S
C325 C326 1.374 . S
C326 H300 0.950 . S
C326 C322 1.385 . S
C326 C325 1.374 . S
C327 C324 1.499 . S
C327 C328 1.373 . S
C327 C329 1.389 . S
C328 H301 0.950 . S
C328 C314 1.377 . S
C328 C327 1.373 . S
C329 C313 1.377 . S
C329 C327 1.389 . S
C329 C330 1.524 . S
C330 C329 1.524 . S
C330 C331 1.397 . S
C330 C335 1.363 . S
C331 H302 0.950 . S
C331 C330 1.397 . S
C331 C332 1.334 . S
C332 H303 0.950 . S
C332 C331 1.334 . S
C332 C333 1.287 . S
C333 C332 1.287 . S
C333 C334 1.524 . S
C333 H336 0.999 . S
C334 H304 0.950 . S
C334 C333 1.524 . S
C334 C335 1.415 . S
C335 H305 0.950 . S
C335 C330 1.363 . S
C335 C334 1.415 . S
H336 C333 0.999 . S
H337 C318 0.913 . S
H338 C356 0.951 . S
H339 C358 0.951 . S
H340 C360 0.950 . S
H341 C361 0.950 . S
H342 C363 0.950 . S
H343 C366 0.950 . S
H344 C367 0.950 . S
H345 C369 0.950 . S
H346 C370 0.950 . S
H347 C371 0.951 . S
H348 C373 0.951 . S
H349 C375 0.950 . S
H350 C376 0.950 . S
H351 C378 0.950 . S
H352 C381 0.950 . S
H353 C382 0.950 . S
H354 C384 0.950 . S
H355 C385 0.950 . S
C356 H338 0.951 . S
C356 C357 1.366 . S
C356 C358 1.388 . S
C357 C356 1.366 . S
C357 C361 1.385 . S
C358 H339 0.951 . S
C358 C356 1.388 . S
C358 C359 1.366 . S
C359 C358 1.366 . S
C359 C360 1.414 . S
C359 C362 1.499 . S
C360 H340 0.950 . S
C360 C359 1.414 . S
C360 C361 1.374 . S
C361 H341 0.950 . S
C361 C357 1.385 . S
C361 C360 1.374 . S
C362 C359 1.499 . S
C362 C363 1.373 . S
C362 C364 1.389 . S
C363 H342 0.950 . S
C363 C362 1.373 . S
C363 C379 1.377 . S
C364 C362 1.389 . S
C364 C365 1.524 . S
C364 C378 1.377 . S
C365 C364 1.524 . S
C365 C366 1.397 . S
C365 C370 1.363 . S
C366 H343 0.950 . S
C366 C365 1.397 . S
C366 C367 1.334 . S
C367 H344 0.950 . S
C367 C366 1.334 . S
C367 C368 1.287 . S
C368 C367 1.287 . S
C368 C369 1.524 . S
C368 H387 0.913 . S
C369 H345 0.950 . S
C369 C368 1.524 . S
C369 C370 1.415 . S
C370 H346 0.950 . S
C370 C365 1.363 . S
C370 C369 1.415 . S
C371 H347 0.951 . S
C371 C372 1.366 . S
C371 C373 1.388 . S
C372 C371 1.366 . S
C372 C376 1.385 . S
C373 H348 0.951 . S
C373 C371 1.388 . S
C373 C374 1.366 . S
C374 C373 1.366 . S
C374 C375 1.414 . S
C374 C377 1.499 . S
C375 H349 0.950 . S
C375 C374 1.414 . S
C375 C376 1.374 . S
C376 H350 0.950 . S
C376 C372 1.385 . S
C376 C375 1.374 . S
C377 C374 1.499 . S
C377 C378 1.373 . S
C377 C379 1.389 . S
C378 H351 0.950 . S
C378 C364 1.377 . S
C378 C377 1.373 . S
C379 C363 1.377 . S
C379 C377 1.389 . S
C379 C380 1.524 . S
C380 C379 1.524 . S
C380 C381 1.397 . S
C380 C385 1.363 . S
C381 H352 0.950 . S
C381 C380 1.397 . S
C381 C382 1.334 . S
C382 H353 0.950 . S
C382 C381 1.334 . S
C382 C383 1.287 . S
C383 C382 1.287 . S
C383 C384 1.524 . S
C383 H386 0.999 . S
C384 H354 0.950 . S
C384 C383 1.524 . S
C384 C385 1.415 . S
C385 H355 0.950 . S
C385 C380 1.363 . S
C385 C384 1.415 . S
H386 C383 0.999 . S
H387 C368 0.913 . S
H388 C406 0.951 . S
H389 C408 0.951 . S
H390 C410 0.950 . S
H391 C411 0.950 . S
H392 C413 0.950 . S
H393 C416 0.950 . S
H394 C417 0.950 . S
H395 C419 0.950 . S
H396 C420 0.950 . S
H397 C421 0.951 . S
H398 C423 0.951 . S
H399 C425 0.950 . S
H400 C426 0.950 . S
H401 C428 0.950 . S
H402 C431 0.950 . S
H403 C432 0.950 . S
H404 C434 0.950 . S
H405 C435 0.950 . S
C406 H388 0.951 . S
C406 C407 1.366 . S
C406 C408 1.388 . S
C407 C406 1.366 . S
C407 C411 1.385 . S
C408 H389 0.951 . S
C408 C406 1.388 . S
C408 C409 1.366 . S
C409 C408 1.366 . S
C409 C410 1.414 . S
C409 C412 1.499 . S
C410 H390 0.950 . S
C410 C409 1.414 . S
C410 C411 1.374 . S
C411 H391 0.950 . S
C411 C407 1.385 . S
C411 C410 1.374 . S
C412 C409 1.499 . S
C412 C413 1.373 . S
C412 C414 1.389 . S
C413 H392 0.950 . S
C413 C412 1.373 . S
C413 C429 1.377 . S
C414 C412 1.389 . S
C414 C415 1.524 . S
C414 C428 1.377 . S
C415 C414 1.524 . S
C415 C416 1.397 . S
C415 C420 1.363 . S
C416 H393 0.950 . S
C416 C415 1.397 . S
C416 C417 1.334 . S
C417 H394 0.950 . S
C417 C416 1.334 . S
C417 C418 1.287 . S
C418 C417 1.287 . S
C418 C419 1.524 . S
C418 H437 0.913 . S
C419 H395 0.950 . S
C419 C418 1.524 . S
C419 C420 1.415 . S
C420 H396 0.950 . S
C420 C415 1.363 . S
C420 C419 1.415 . S
C421 H397 0.951 . S
C421 C422 1.366 . S
C421 C423 1.388 . S
C422 C421 1.366 . S
C422 C426 1.385 . S
C423 H398 0.951 . S
C423 C421 1.388 . S
C423 C424 1.366 . S
C424 C423 1.366 . S
C424 C425 1.414 . S
C424 C427 1.499 . S
C425 H399 0.950 . S
C425 C424 1.414 . S
C425 C426 1.374 . S
C426 H400 0.950 . S
C426 C422 1.385 . S
C426 C425 1.374 . S
C427 C424 1.499 . S
C427 C428 1.373 . S
C427 C429 1.389 . S
C428 H401 0.950 . S
C428 C414 1.377 . S
C428 C427 1.373 . S
C429 C413 1.377 . S
C429 C427 1.389 . S
C429 C430 1.524 . S
C430 C429 1.524 . S
C430 C431 1.397 . S
C430 C435 1.363 . S
C431 H402 0.950 . S
C431 C430 1.397 . S
C431 C432 1.334 . S
C432 H403 0.950 . S
C432 C431 1.334 . S
C432 C433 1.287 . S
C433 C432 1.287 . S
C433 C434 1.524 . S
C433 H436 0.999 . S
C434 H404 0.950 . S
C434 C433 1.524 . S
C434 C435 1.415 . S
C435 H405 0.950 . S
C435 C430 1.363 . S
C435 C434 1.415 . S
H436 C433 0.999 . S
H437 C418 0.913 . S
H438 C456 0.951 . S
H439 C458 0.951 . S
H440 C460 0.950 . S
H441 C461 0.950 . S
H442 C463 0.950 . S
H443 C466 0.950 . S
H444 C467 0.950 . S
H445 C469 0.950 . S
H446 C470 0.950 . S
H447 C471 0.951 . S
H448 C473 0.951 . S
H449 C475 0.950 . S
H450 C476 0.950 . S
H451 C478 0.950 . S
H452 C481 0.950 . S
H453 C482 0.950 . S
H454 C484 0.950 . S
H455 C485 0.950 . S
C456 H438 0.951 . S
C456 C457 1.366 . S
C456 C458 1.388 . S
C457 C456 1.366 . S
C457 C461 1.385 . S
C458 H439 0.951 . S
C458 C456 1.388 . S
C458 C459 1.366 . S
C459 C458 1.366 . S
C459 C460 1.414 . S
C459 C462 1.499 . S
C460 H440 0.950 . S
C460 C459 1.414 . S
C460 C461 1.374 . S
C461 H441 0.950 . S
C461 C457 1.385 . S
C461 C460 1.374 . S
C462 C459 1.499 . S
C462 C463 1.373 . S
C462 C464 1.389 . S
C463 H442 0.950 . S
C463 C462 1.373 . S
C463 C479 1.377 . S
C464 C462 1.389 . S
C464 C465 1.524 . S
C464 C478 1.377 . S
C465 C464 1.524 . S
C465 C466 1.397 . S
C465 C470 1.363 . S
C466 H443 0.950 . S
C466 C465 1.397 . S
C466 C467 1.334 . S
C467 H444 0.950 . S
C467 C466 1.334 . S
C467 C468 1.287 . S
C468 C467 1.287 . S
C468 C469 1.524 . S
C468 H487 0.913 . S
C469 H445 0.950 . S
C469 C468 1.524 . S
C469 C470 1.415 . S
C470 H446 0.950 . S
C470 C465 1.363 . S
C470 C469 1.415 . S
C471 H447 0.951 . S
C471 C472 1.366 . S
C471 C473 1.388 . S
C472 C471 1.366 . S
C472 C476 1.385 . S
C473 H448 0.951 . S
C473 C471 1.388 . S
C473 C474 1.366 . S
C474 C473 1.366 . S
C474 C475 1.414 . S
C474 C477 1.499 . S
C475 H449 0.950 . S
C475 C474 1.414 . S
C475 C476 1.374 . S
C476 H450 0.950 . S
C476 C472 1.385 . S
C476 C475 1.374 . S
C477 C474 1.499 . S
C477 C478 1.373 . S
C477 C479 1.389 . S
C478 H451 0.950 . S
C478 C464 1.377 . S
C478 C477 1.373 . S
C479 C463 1.377 . S
C479 C477 1.389 . S
C479 C480 1.524 . S
C480 C479 1.524 . S
C480 C481 1.397 . S
C480 C485 1.363 . S
C481 H452 0.950 . S
C481 C480 1.397 . S
C481 C482 1.334 . S
C482 H453 0.950 . S
C482 C481 1.334 . S
C482 C483 1.287 . S
C483 C482 1.287 . S
C483 C484 1.524 . S
C483 H486 0.999 . S
C484 H454 0.950 . S
C484 C483 1.524 . S
C484 C485 1.415 . S
C485 H455 0.950 . S
C485 C480 1.363 . S
C485 C484 1.415 . S
H486 C483 0.999 . S
H487 C468 0.913 . S
H488 C506 0.951 . S
H489 C508 0.951 . S
H490 C510 0.950 . S
H491 C511 0.950 . S
H492 C513 0.950 . S
H493 C516 0.950 . S
H494 C517 0.950 . S
H495 C519 0.950 . S
H496 C520 0.950 . S
H497 C521 0.951 . S
H498 C523 0.951 . S
H499 C525 0.950 . S
H500 C526 0.950 . S
H501 C528 0.950 . S
H502 C531 0.950 . S
H503 C532 0.950 . S
H504 C534 0.950 . S
H505 C535 0.950 . S
C506 H488 0.951 . S
C506 C507 1.366 . S
C506 C508 1.388 . S
C507 C506 1.366 . S
C507 C511 1.385 . S
C508 H489 0.951 . S
C508 C506 1.388 . S
C508 C509 1.366 . S
C509 C508 1.366 . S
C509 C510 1.414 . S
C509 C512 1.499 . S
C510 H490 0.950 . S
C510 C509 1.414 . S
C510 C511 1.374 . S
C511 H491 0.950 . S
C511 C507 1.385 . S
C511 C510 1.374 . S
C512 C509 1.499 . S
C512 C513 1.373 . S
C512 C514 1.389 . S
C513 H492 0.950 . S
C513 C512 1.373 . S
C513 C529 1.377 . S
C514 C512 1.389 . S
C514 C515 1.524 . S
C514 C528 1.377 . S
C515 C514 1.524 . S
C515 C516 1.397 . S
C515 C520 1.363 . S
C516 H493 0.950 . S
C516 C515 1.397 . S
C516 C517 1.334 . S
C517 H494 0.950 . S
C517 C516 1.334 . S
C517 C518 1.287 . S
C518 C517 1.287 . S
C518 C519 1.524 . S
C518 H537 0.913 . S
C519 H495 0.950 . S
C519 C518 1.524 . S
C519 C520 1.415 . S
C520 H496 0.950 . S
C520 C515 1.363 . S
C520 C519 1.415 . S
C521 H497 0.951 . S
C521 C522 1.366 1_655 S
C521 C523 1.388 . S
C522 C521 1.366 1_455 S
C522 C526 1.385 . S
C523 H498 0.951 . S
C523 C521 1.388 . S
C523 C524 1.366 . S
C524 C523 1.366 . S
C524 C525 1.414 . S
C524 C527 1.499 . S
C525 H499 0.950 . S
C525 C524 1.414 . S
C525 C526 1.374 1_655 S
C526 H500 0.950 . S
C526 C522 1.385 . S
C526 C525 1.374 1_455 S
C527 C524 1.499 . S
C527 C528 1.373 . S
C527 C529 1.389 . S
C528 H501 0.950 . S
C528 C514 1.377 . S
C528 C527 1.373 . S
C529 C513 1.377 . S
C529 C527 1.389 . S
C529 C530 1.524 . S
C530 C529 1.524 . S
C530 C531 1.397 . S
C530 C535 1.363 . S
C531 H502 0.950 . S
C531 C530 1.397 . S
C531 C532 1.334 . S
C532 H503 0.950 . S
C532 C531 1.334 . S
C532 C533 1.287 . S
C533 C532 1.287 . S
C533 C534 1.524 . S
C533 H536 0.999 . S
C534 H504 0.950 . S
C534 C533 1.524 . S
C534 C535 1.415 . S
C535 H505 0.950 . S
C535 C530 1.363 . S
C535 C534 1.415 . S
H536 C533 0.999 . S
H537 C518 0.913 . S
H538 C556 0.951 . S
H539 C558 0.951 . S
H540 C560 0.950 . S
H541 C561 0.950 . S
H542 C563 0.950 . S
H543 C566 0.950 . S
H544 C567 0.950 . S
H545 C569 0.950 . S
H546 C570 0.950 . S
H547 C571 0.951 . S
H548 C573 0.951 . S
H549 C575 0.950 . S
H550 C576 0.950 . S
H551 C578 0.950 . S
H552 C581 0.950 . S
H553 C582 0.950 . S
H554 C584 0.950 . S
H555 C585 0.950 . S
C556 H538 0.951 . S
C556 C557 1.366 . S
C556 C558 1.388 . S
C557 C556 1.366 . S
C557 C561 1.385 . S
C558 H539 0.951 . S
C558 C556 1.388 . S
C558 C559 1.366 . S
C559 C558 1.366 . S
C559 C560 1.414 . S
C559 C562 1.499 . S
C560 H540 0.950 . S
C560 C559 1.414 . S
C560 C561 1.374 . S
C561 H541 0.950 . S
C561 C557 1.385 . S
C561 C560 1.374 . S
C562 C559 1.499 . S
C562 C563 1.373 . S
C562 C564 1.389 . S
C563 H542 0.950 . S
C563 C562 1.373 . S
C563 C579 1.377 . S
C564 C562 1.389 . S
C564 C565 1.524 . S
C564 C578 1.377 . S
C565 C564 1.524 . S
C565 C566 1.397 . S
C565 C570 1.363 . S
C566 H543 0.950 . S
C566 C565 1.397 . S
C566 C567 1.334 . S
C567 H544 0.950 . S
C567 C566 1.334 . S
C567 C568 1.287 . S
C568 C567 1.287 . S
C568 C569 1.524 . S
C568 H587 0.913 . S
C569 H545 0.950 . S
C569 C568 1.524 . S
C569 C570 1.415 . S
C570 H546 0.950 . S
C570 C565 1.363 . S
C570 C569 1.415 . S
C571 H547 0.951 . S
C571 C572 1.366 . S
C571 C573 1.388 . S
C572 C571 1.366 . S
C572 C576 1.385 . S
C573 H548 0.951 . S
C573 C571 1.388 . S
C573 C574 1.366 . S
C574 C573 1.366 . S
C574 C575 1.414 . S
C574 C577 1.499 . S
C575 H549 0.950 . S
C575 C574 1.414 . S
C575 C576 1.374 . S
C576 H550 0.950 . S
C576 C572 1.385 . S
C576 C575 1.374 . S
C577 C574 1.499 . S
C577 C578 1.373 . S
C577 C579 1.389 . S
C578 H551 0.950 . S
C578 C564 1.377 . S
C578 C577 1.373 . S
C579 C563 1.377 . S
C579 C577 1.389 . S
C579 C580 1.524 . S
C580 C579 1.524 . S
C580 C581 1.397 . S
C580 C585 1.363 . S
C581 H552 0.950 . S
C581 C580 1.397 . S
C581 C582 1.334 . S
C582 H553 0.950 . S
C582 C581 1.334 . S
C582 C583 1.287 . S
C583 C582 1.287 . S
C583 C584 1.524 . S
C583 H586 0.999 . S
C584 H554 0.950 . S
C584 C583 1.524 . S
C584 C585 1.415 . S
C585 H555 0.950 . S
C585 C580 1.363 . S
C585 C584 1.415 . S
H586 C583 0.999 . S
H587 C568 0.913 . S
H588 C606 0.951 . S
H589 C608 0.951 . S
H590 C610 0.950 . S
H591 C611 0.950 . S
H592 C613 0.950 . S
H593 C616 0.950 . S
H594 C617 0.950 . S
H595 C619 0.950 . S
H596 C620 0.950 . S
H597 C621 0.951 . S
H598 C623 0.951 . S
H599 C625 0.950 . S
H600 C626 0.950 . S
H601 C628 0.950 . S
H602 C631 0.950 . S
H603 C632 0.950 . S
H604 C634 0.950 . S
H605 C635 0.950 . S
C606 H588 0.951 . S
C606 C607 1.366 . S
C606 C608 1.388 . S
C607 C606 1.366 . S
C607 C611 1.385 . S
C608 H589 0.951 . S
C608 C606 1.388 . S
C608 C609 1.366 . S
C609 C608 1.366 . S
C609 C610 1.414 . S
C609 C612 1.499 . S
C610 H590 0.950 . S
C610 C609 1.414 . S
C610 C611 1.374 . S
C611 H591 0.950 . S
C611 C607 1.385 . S
C611 C610 1.374 . S
C612 C609 1.499 . S
C612 C613 1.373 . S
C612 C614 1.389 . S
C613 H592 0.950 . S
C613 C612 1.373 . S
C613 C629 1.377 . S
C614 C612 1.389 . S
C614 C615 1.524 . S
C614 C628 1.377 . S
C615 C614 1.524 . S
C615 C616 1.397 . S
C615 C620 1.363 . S
C616 H593 0.950 . S
C616 C615 1.397 . S
C616 C617 1.334 . S
C617 H594 0.950 . S
C617 C616 1.334 . S
C617 C618 1.287 . S
C618 C617 1.287 . S
C618 C619 1.524 . S
C618 H637 0.913 . S
C619 H595 0.950 . S
C619 C618 1.524 . S
C619 C620 1.415 . S
C620 H596 0.950 . S
C620 C615 1.363 . S
C620 C619 1.415 . S
C621 H597 0.951 . S
C621 C622 1.366 . S
C621 C623 1.388 . S
C622 C621 1.366 . S
C622 C626 1.385 . S
C623 H598 0.951 . S
C623 C621 1.388 . S
C623 C624 1.366 . S
C624 C623 1.366 . S
C624 C625 1.414 . S
C624 C627 1.499 . S
C625 H599 0.950 . S
C625 C624 1.414 . S
C625 C626 1.374 . S
C626 H600 0.950 . S
C626 C622 1.385 . S
C626 C625 1.374 . S
C627 C624 1.499 . S
C627 C628 1.373 . S
C627 C629 1.389 . S
C628 H601 0.950 . S
C628 C614 1.377 . S
C628 C627 1.373 . S
C629 C613 1.377 . S
C629 C627 1.389 . S
C629 C630 1.524 . S
C630 C629 1.524 . S
C630 C631 1.397 . S
C630 C635 1.363 . S
C631 H602 0.950 . S
C631 C630 1.397 . S
C631 C632 1.334 . S
C632 H603 0.950 . S
C632 C631 1.334 . S
C632 C633 1.287 . S
C633 C632 1.287 . S
C633 C634 1.524 . S
C633 H636 0.999 . S
C634 H604 0.950 . S
C634 C633 1.524 . S
C634 C635 1.415 . S
C635 H605 0.950 . S
C635 C630 1.363 . S
C635 C634 1.415 . S
H636 C633 0.999 . S
H637 C618 0.913 . S
H638 C656 0.951 . S
H639 C658 0.951 . S
H640 C660 0.950 . S
H641 C661 0.950 . S
H642 C663 0.950 . S
H643 C666 0.950 . S
H644 C667 0.950 . S
H645 C669 0.950 . S
H646 C670 0.950 . S
H647 C671 0.951 . S
H648 C673 0.951 . S
H649 C675 0.950 . S
H650 C676 0.950 . S
H651 C678 0.950 . S
H652 C681 0.950 . S
H653 C682 0.950 . S
H654 C684 0.950 . S
H655 C685 0.950 . S
C656 H638 0.951 . S
C656 C657 1.366 . S
C656 C658 1.388 . S
C657 C656 1.366 . S
C657 C661 1.385 . S
C658 H639 0.951 . S
C658 C656 1.388 . S
C658 C659 1.366 . S
C659 C658 1.366 . S
C659 C660 1.414 . S
C659 C662 1.499 . S
C660 H640 0.950 . S
C660 C659 1.414 . S
C660 C661 1.374 . S
C661 H641 0.950 . S
C661 C657 1.385 . S
C661 C660 1.374 . S
C662 C659 1.499 . S
C662 C663 1.373 . S
C662 C664 1.389 . S
C663 H642 0.950 . S
C663 C662 1.373 . S
C663 C679 1.377 . S
C664 C662 1.389 . S
C664 C665 1.524 . S
C664 C678 1.377 . S
C665 C664 1.524 . S
C665 C666 1.397 . S
C665 C670 1.363 . S
C666 H643 0.950 . S
C666 C665 1.397 . S
C666 C667 1.334 . S
C667 H644 0.950 . S
C667 C666 1.334 . S
C667 C668 1.287 . S
C668 C667 1.287 . S
C668 C669 1.524 . S
C668 H687 0.913 . S
C669 H645 0.950 . S
C669 C668 1.524 . S
C669 C670 1.415 . S
C670 H646 0.950 . S
C670 C665 1.363 . S
C670 C669 1.415 . S
C671 H647 0.951 . S
C671 C672 1.366 . S
C671 C673 1.388 . S
C672 C671 1.366 . S
C672 C676 1.385 . S
C673 H648 0.951 . S
C673 C671 1.388 . S
C673 C674 1.366 . S
C674 C673 1.366 . S
C674 C675 1.414 . S
C674 C677 1.499 . S
C675 H649 0.950 . S
C675 C674 1.414 . S
C675 C676 1.374 . S
C676 H650 0.950 . S
C676 C672 1.385 . S
C676 C675 1.374 . S
C677 C674 1.499 . S
C677 C678 1.373 . S
C677 C679 1.389 . S
C678 H651 0.950 . S
C678 C664 1.377 . S
C678 C677 1.373 . S
C679 C663 1.377 . S
C679 C677 1.389 . S
C679 C680 1.524 . S
C680 C679 1.524 . S
C680 C681 1.397 . S
C680 C685 1.363 . S
C681 H652 0.950 . S
C681 C680 1.397 . S
C681 C682 1.334 . S
C682 H653 0.950 . S
C682 C681 1.334 . S
C682 C683 1.287 . S
C683 C682 1.287 . S
C683 C684 1.524 . S
C683 H686 0.999 . S
C684 H654 0.950 . S
C684 C683 1.524 . S
C684 C685 1.415 . S
C685 H655 0.950 . S
C685 C680 1.363 . S
C685 C684 1.415 . S
H686 C683 0.999 . S
H687 C668 0.913 . S
H688 C706 0.951 . S
H689 C708 0.951 . S
H690 C710 0.950 . S
H691 C711 0.950 . S
H692 C713 0.950 . S
H693 C716 0.950 . S
H694 C717 0.950 . S
H695 C719 0.950 . S
H696 C720 0.950 . S
H697 C721 0.951 . S
H698 C723 0.951 . S
H699 C725 0.950 . S
H700 C726 0.950 . S
H701 C728 0.950 . S
H702 C731 0.950 . S
H703 C732 0.950 . S
H704 C734 0.950 . S
H705 C735 0.950 . S
C706 H688 0.951 . S
C706 C707 1.366 . S
C706 C708 1.388 . S
C707 C706 1.366 . S
C707 C711 1.385 . S
C708 H689 0.951 . S
C708 C706 1.388 . S
C708 C709 1.366 . S
C709 C708 1.366 . S
C709 C710 1.414 . S
C709 C712 1.499 . S
C710 H690 0.950 . S
C710 C709 1.414 . S
C710 C711 1.374 . S
C711 H691 0.950 . S
C711 C707 1.385 . S
C711 C710 1.374 . S
C712 C709 1.499 . S
C712 C713 1.373 . S
C712 C714 1.389 . S
C713 H692 0.950 . S
C713 C712 1.373 . S
C713 C729 1.377 . S
C714 C712 1.389 . S
C714 C715 1.524 . S
C714 C728 1.377 . S
C715 C714 1.524 . S
C715 C716 1.397 . S
C715 C720 1.363 . S
C716 H693 0.950 . S
C716 C715 1.397 . S
C716 C717 1.334 . S
C717 H694 0.950 . S
C717 C716 1.334 . S
C717 C718 1.287 . S
C718 C717 1.287 . S
C718 C719 1.524 . S
C718 H737 0.913 . S
C719 H695 0.950 . S
C719 C718 1.524 . S
C719 C720 1.415 . S
C720 H696 0.950 . S
C720 C715 1.363 . S
C720 C719 1.415 . S
C721 H697 0.951 . S
C721 C722 1.366 . S
C721 C723 1.388 . S
C722 C721 1.366 . S
C722 C726 1.385 . S
C723 H698 0.951 . S
C723 C721 1.388 . S
C723 C724 1.366 . S
C724 C723 1.366 . S
C724 C725 1.414 . S
C724 C727 1.499 . S
C725 H699 0.950 . S
C725 C724 1.414 . S
C725 C726 1.374 . S
C726 H700 0.950 . S
C726 C722 1.385 . S
C726 C725 1.374 . S
C727 C724 1.499 . S
C727 C728 1.373 . S
C727 C729 1.389 . S
C728 H701 0.950 . S
C728 C714 1.377 . S
C728 C727 1.373 . S
C729 C713 1.377 . S
C729 C727 1.389 . S
C729 C730 1.524 . S
C730 C729 1.524 . S
C730 C731 1.397 . S
C730 C735 1.363 . S
C731 H702 0.950 . S
C731 C730 1.397 . S
C731 C732 1.334 . S
C732 H703 0.950 . S
C732 C731 1.334 . S
C732 C733 1.287 . S
C733 C732 1.287 . S
C733 C734 1.524 . S
C733 H736 0.999 . S
C734 H704 0.950 . S
C734 C733 1.524 . S
C734 C735 1.415 . S
C735 H705 0.950 . S
C735 C730 1.363 . S
C735 C734 1.415 . S
H736 C733 0.999 . S
H737 C718 0.913 . S
H738 C756 0.951 . S
H739 C758 0.951 . S
H740 C760 0.950 . S
H741 C761 0.950 . S
H742 C763 0.950 1_655 S
H743 C766 0.950 . S
H744 C767 0.950 . S
H745 C769 0.950 . S
H746 C770 0.950 . S
H747 C771 0.951 . S
H748 C773 0.951 . S
H749 C775 0.950 . S
H750 C776 0.950 . S
H751 C778 0.943 1_556 S
H752 C781 0.950 1_455 S
H753 C782 0.950 . S
H754 C784 0.950 . S
H755 C785 0.950 . S
C756 H738 0.951 . S
C756 C757 1.366 . S
C756 C758 1.388 . S
C757 C756 1.366 . S
C757 C761 1.385 1_455 S
C758 H739 0.951 . S
C758 C756 1.388 . S
C758 C759 1.366 . S
C759 C758 1.366 . S
C759 C760 1.414 1_455 S
C759 C762 1.499 . S
C760 H740 0.950 . S
C760 C759 1.414 1_655 S
C760 C761 1.374 . S
C761 H741 0.950 . S
C761 C757 1.385 1_655 S
C761 C760 1.374 . S
C762 C759 1.499 . S
C762 C763 1.373 . S
C762 C764 1.389 . S
C763 H742 0.950 1_455 S
C763 C762 1.373 . S
C763 C779 1.377 1_554 S
C764 C762 1.389 . S
C764 C765 1.524 . S
C764 C778 1.398 . S
C765 C764 1.524 . S
C765 C766 1.397 . S
C765 C770 1.363 . S
C766 H743 0.950 . S
C766 C765 1.397 . S
C766 C767 1.334 . S
C767 H744 0.950 . S
C767 C766 1.334 . S
C767 C768 1.287 . S
C768 C767 1.287 . S
C768 C769 1.524 . S
C768 H787 0.913 . S
C769 H745 0.950 . S
C769 C768 1.524 . S
C769 C770 1.415 . S
C770 H746 0.950 . S
C770 C765 1.363 . S
C770 C769 1.415 . S
C771 H747 0.951 . S
C771 C772 1.366 . S
C771 C773 1.388 . S
C772 C771 1.366 . S
C772 C776 1.385 . S
C773 H748 0.951 . S
C773 C771 1.388 . S
C773 C774 1.366 . S
C774 C773 1.366 . S
C774 C775 1.414 . S
C774 C777 1.499 . S
C775 H749 0.950 . S
C775 C774 1.414 . S
C775 C776 1.374 . S
C776 H750 0.950 . S
C776 C772 1.385 . S
C776 C775 1.374 . S
C777 C774 1.499 . S
C777 C778 1.359 1_556 S
C777 C779 1.389 . S
C778 H751 0.943 1_554 S
C778 C764 1.398 . S
C778 C777 1.359 1_554 S
C779 C763 1.377 1_556 S
C779 C777 1.389 . S
C779 C780 1.524 1_455 S
C780 C779 1.524 1_655 S
C780 C781 1.397 . S
C780 C785 1.363 . S
C781 H752 0.950 1_655 S
C781 C780 1.397 . S
C781 C782 1.334 . S
C782 H753 0.950 . S
C782 C781 1.334 . S
C782 C783 1.287 . S
C783 C782 1.287 . S
C783 C784 1.524 . S
C783 H786 0.999 . S
C784 H754 0.950 . S
C784 C783 1.524 . S
C784 C785 1.415 . S
C785 H755 0.950 . S
C785 C780 1.363 . S
C785 C784 1.415 . S
H786 C783 0.999 . S
H787 C768 0.913 . S
H788 C806 0.951 . S
H789 C808 0.951 . S
H790 C810 0.950 . S
H791 C811 0.950 . S
H792 C813 0.950 . S
H793 C816 0.950 . S
H794 C817 0.950 . S
H795 C819 0.950 . S
H796 C820 0.950 . S
H797 C821 0.951 . S
H798 C823 0.951 . S
H799 C825 0.950 . S
H800 C826 0.950 . S
H801 C828 0.950 . S
H802 C831 0.950 . S
H803 C832 0.950 . S
H804 C834 0.950 . S
H805 C835 0.950 . S
C806 H788 0.951 . S
C806 C807 1.366 1_565 S
C806 C808 1.388 . S
C807 C806 1.366 1_545 S
C807 C811 1.385 . S
C808 H789 0.951 . S
C808 C806 1.388 . S
C808 C809 1.366 1_565 S
C809 C808 1.366 1_545 S
C809 C810 1.414 . S
C809 C812 1.499 . S
C810 H790 0.950 . S
C810 C809 1.414 . S
C810 C811 1.374 . S
C811 H791 0.950 . S
C811 C807 1.385 . S
C811 C810 1.374 . S
C812 C809 1.499 . S
C812 C813 1.373 . S
C812 C814 1.389 1_545 S
C813 H792 0.950 . S
C813 C812 1.373 . S
C813 C829 1.377 . S
C814 C812 1.389 1_565 S
C814 C815 1.524 . S
C814 C828 1.377 . S
C815 C814 1.524 . S
C815 C816 1.397 . S
C815 C820 1.363 . S
C816 H793 0.950 . S
C816 C815 1.397 . S
C816 C817 1.334 . S
C817 H794 0.950 . S
C817 C816 1.334 . S
C817 C818 1.287 . S
C818 C817 1.287 . S
C818 C819 1.524 . S
C818 H837 0.913 . S
C819 H795 0.950 . S
C819 C818 1.524 . S
C819 C820 1.415 . S
C820 H796 0.950 . S
C820 C815 1.363 . S
C820 C819 1.415 . S
C821 H797 0.951 . S
C821 C822 1.366 . S
C821 C823 1.388 . S
C822 C821 1.366 . S
C822 C826 1.385 1_545 S
C823 H798 0.951 . S
C823 C821 1.388 . S
C823 C824 1.366 . S
C824 C823 1.366 . S
C824 C825 1.414 1_545 S
C824 C827 1.499 . S
C825 H799 0.950 . S
C825 C824 1.414 1_565 S
C825 C826 1.374 . S
C826 H800 0.950 . S
C826 C822 1.385 1_565 S
C826 C825 1.374 . S
C827 C824 1.499 . S
C827 C828 1.373 1_545 S
C827 C829 1.389 . S
C828 H801 0.950 . S
C828 C814 1.377 . S
C828 C827 1.373 1_565 S
C829 C813 1.377 . S
C829 C827 1.389 . S
C829 C830 1.524 . S
C830 C829 1.524 . S
C830 C831 1.397 . S
C830 C835 1.363 . S
C831 H802 0.950 . S
C831 C830 1.397 . S
C831 C832 1.334 . S
C832 H803 0.950 . S
C832 C831 1.334 . S
C832 C833 1.287 . S
C833 C832 1.287 . S
C833 C834 1.524 . S
C833 H836 0.999 . S
C834 H804 0.950 . S
C834 C833 1.524 . S
C834 C835 1.415 . S
C835 H805 0.950 . S
C835 C830 1.363 . S
C835 C834 1.415 . S
H836 C833 0.999 . S
H837 C818 0.913 . S
H838 C856 0.951 . S
H839 C858 0.951 . S
H840 C860 0.950 . S
H841 C861 0.950 . S
H842 C863 0.950 . S
H843 C866 0.950 . S
H844 C867 0.950 . S
H845 C869 0.950 . S
H846 C870 0.950 . S
H847 C871 0.951 . S
H848 C873 0.951 . S
H849 C875 0.950 . S
H850 C876 0.950 . S
H851 C878 0.950 . S
H852 C881 0.950 . S
H853 C882 0.950 . S
H854 C884 0.950 . S
H855 C885 0.950 . S
C856 H838 0.951 . S
C856 C857 1.366 . S
C856 C858 1.388 . S
C857 C856 1.366 . S
C857 C861 1.385 . S
C858 H839 0.951 . S
C858 C856 1.388 . S
C858 C859 1.366 . S
C859 C858 1.366 . S
C859 C860 1.414 . S
C859 C862 1.499 . S
C860 H840 0.950 . S
C860 C859 1.414 . S
C860 C861 1.374 . S
C861 H841 0.950 . S
C861 C857 1.385 . S
C861 C860 1.374 . S
C862 C859 1.499 . S
C862 C863 1.373 . S
C862 C864 1.389 . S
C863 H842 0.950 . S
C863 C862 1.373 . S
C863 C879 1.377 . S
C864 C862 1.389 . S
C864 C865 1.524 . S
C864 C878 1.377 . S
C865 C864 1.524 . S
C865 C866 1.397 . S
C865 C870 1.363 . S
C866 H843 0.950 . S
C866 C865 1.397 . S
C866 C867 1.334 . S
C867 H844 0.950 . S
C867 C866 1.334 . S
C867 C868 1.287 . S
C868 C867 1.287 . S
C868 C869 1.524 . S
C868 H887 0.913 . S
C869 H845 0.950 . S
C869 C868 1.524 . S
C869 C870 1.415 . S
C870 H846 0.950 . S
C870 C865 1.363 . S
C870 C869 1.415 . S
C871 H847 0.951 . S
C871 C872 1.366 . S
C871 C873 1.388 . S
C872 C871 1.366 . S
C872 C876 1.385 . S
C873 H848 0.951 . S
C873 C871 1.388 . S
C873 C874 1.366 . S
C874 C873 1.366 . S
C874 C875 1.414 . S
C874 C877 1.499 . S
C875 H849 0.950 . S
C875 C874 1.414 . S
C875 C876 1.374 . S
C876 H850 0.950 . S
C876 C872 1.385 . S
C876 C875 1.374 . S
C877 C874 1.499 . S
C877 C878 1.373 . S
C877 C879 1.389 . S
C878 H851 0.950 . S
C878 C864 1.377 . S
C878 C877 1.373 . S
C879 C863 1.377 . S
C879 C877 1.389 . S
C879 C880 1.524 . S
C880 C879 1.524 . S
C880 C881 1.397 . S
C880 C885 1.363 . S
C881 H852 0.950 . S
C881 C880 1.397 . S
C881 C882 1.334 . S
C882 H853 0.950 . S
C882 C881 1.334 . S
C882 C883 1.287 . S
C883 C882 1.287 . S
C883 C884 1.524 . S
C883 H886 0.999 . S
C884 H854 0.950 . S
C884 C883 1.524 . S
C884 C885 1.415 . S
C885 H855 0.950 . S
C885 C880 1.363 . S
C885 C884 1.415 . S
H886 C883 0.999 . S
H887 C868 0.913 . S
H888 C906 0.951 . S
H889 C908 0.951 . S
H890 C910 0.950 . S
H891 C911 0.950 . S
H892 C913 0.950 . S
H893 C916 0.950 . S
H894 C917 0.950 . S
H895 C919 0.950 . S
H896 C920 0.950 . S
H897 C921 0.951 . S
H898 C923 0.951 . S
H899 C925 0.950 . S
H900 C926 0.950 . S
H901 C928 0.950 1_565 S
H902 C931 0.950 . S
H903 C932 0.950 . S
H904 C934 0.950 . S
H905 C935 0.950 . S
C906 H888 0.951 . S
C906 C907 1.366 1_565 S
C906 C908 1.388 . S
C907 C906 1.366 1_545 S
C907 C911 1.385 . S
C908 H889 0.951 . S
C908 C906 1.388 . S
C908 C909 1.366 1_565 S
C909 C908 1.366 1_545 S
C909 C910 1.414 . S
C909 C912 1.499 . S
C910 H890 0.950 . S
C910 C909 1.414 . S
C910 C911 1.374 . S
C911 H891 0.950 . S
C911 C907 1.385 . S
C911 C910 1.374 . S
C912 C909 1.499 . S
C912 C913 1.373 . S
C912 C914 1.389 . S
C913 H892 0.950 . S
C913 C912 1.373 . S
C913 C929 1.377 . S
C914 C912 1.389 . S
C914 C915 1.524 . S
C914 C928 1.377 . S
C915 C914 1.524 . S
C915 C916 1.397 . S
C915 C920 1.363 1_545 S
C916 H893 0.950 . S
C916 C915 1.397 . S
C916 C917 1.334 . S
C917 H894 0.950 . S
C917 C916 1.334 . S
C917 C918 1.287 . S
C918 C917 1.287 . S
C918 C919 1.524 1_545 S
C918 H937 0.913 . S
C919 H895 0.950 . S
C919 C918 1.524 1_565 S
C919 C920 1.415 . S
C920 H896 0.950 . S
C920 C915 1.363 1_565 S
C920 C919 1.415 . S
C921 H897 0.951 . S
C921 C922 1.366 . S
C921 C923 1.388 . S
C922 C921 1.366 . S
C922 C926 1.385 1_545 S
C923 H898 0.951 . S
C923 C921 1.388 . S
C923 C924 1.366 . S
C924 C923 1.366 . S
C924 C925 1.414 1_545 S
C924 C927 1.499 . S
C925 H899 0.950 . S
C925 C924 1.414 1_565 S
C925 C926 1.374 . S
C926 H900 0.950 . S
C926 C922 1.385 1_565 S
C926 C925 1.374 . S
C927 C924 1.499 . S
C927 C928 1.373 . S
C927 C929 1.389 . S
C928 H901 0.950 1_545 S
C928 C914 1.377 . S
C928 C927 1.373 . S
C929 C913 1.377 . S
C929 C927 1.389 . S
C929 C930 1.524 . S
C930 C929 1.524 . S
C930 C931 1.397 1_545 S
C930 C935 1.363 . S
C931 H902 0.950 . S
C931 C930 1.397 1_565 S
C931 C932 1.334 . S
C932 H903 0.950 . S
C932 C931 1.334 . S
C932 C933 1.287 1_565 S
C933 C932 1.287 1_545 S
C933 C934 1.524 . S
C933 H936 0.999 . S
C934 H904 0.950 . S
C934 C933 1.524 . S
C934 C935 1.415 . S
C935 H905 0.950 . S
C935 C930 1.363 . S
C935 C934 1.415 . S
H936 C933 0.999 . S
H937 C918 0.913 . S
H938 C956 0.951 . S
H939 C958 0.951 . S
H940 C960 0.950 . S
H941 C961 0.950 . S
H942 C963 0.950 . S
H943 C966 0.950 . S
H944 C967 0.950 . S
H945 C969 0.950 . S
H946 C970 0.950 . S
H947 C971 0.951 . S
H948 C973 0.951 . S
H949 C975 0.950 . S
H950 C976 0.950 . S
H951 C978 0.950 1_554 S
H952 C981 0.950 . S
H953 C982 0.950 . S
H954 C984 0.950 . S
H955 C985 0.950 . S
C956 H938 0.951 . S
C956 C957 1.366 . S
C956 C958 1.388 . S
C957 C956 1.366 . S
C957 C961 1.385 . S
C958 H939 0.951 . S
C958 C956 1.388 . S
C958 C959 1.366 . S
C959 C958 1.366 . S
C959 C960 1.414 . S
C959 C962 1.499 . S
C960 H940 0.950 . S
C960 C959 1.414 . S
C960 C961 1.374 . S
C961 H941 0.950 . S
C961 C957 1.385 . S
C961 C960 1.374 . S
C962 C959 1.499 . S
C962 C963 1.373 . S
C962 C964 1.389 . S
C963 H942 0.950 . S
C963 C962 1.373 . S
C963 C979 1.408 . S
C964 C962 1.389 . S
C964 C965 1.524 . S
C964 C978 1.377 . S
C965 C964 1.524 . S
C965 C966 1.397 . S
C965 C970 1.363 . S
C966 H943 0.950 . S
C966 C965 1.397 . S
C966 C967 1.334 . S
C967 H944 0.950 . S
C967 C966 1.334 . S
C967 C968 1.287 . S
C968 C967 1.287 . S
C968 C969 1.524 . S
C968 H987 0.913 . S
C969 H945 0.950 . S
C969 C968 1.524 . S
C969 C970 1.415 . S
C970 H946 0.950 . S
C970 C965 1.363 . S
C970 C969 1.415 . S
C971 H947 0.951 . S
C971 C972 1.366 . S
C971 C973 1.388 . S
C972 C971 1.366 . S
C972 C976 1.385 . S
C973 H948 0.951 . S
C973 C971 1.388 . S
C973 C974 1.366 . S
C974 C973 1.366 . S
C974 C975 1.414 . S
C974 C977 1.499 . S
C975 H949 0.950 . S
C975 C974 1.414 . S
C975 C976 1.374 . S
C976 H950 0.950 . S
C976 C972 1.385 . S
C976 C975 1.374 . S
C977 C974 1.499 . S
C977 C978 1.373 1_554 S
C977 C979 1.374 1_554 S
C978 H951 0.950 1_556 S
C978 C964 1.377 . S
C978 C977 1.373 1_556 S
C979 C963 1.408 . S
C979 C977 1.374 1_556 S
C979 C980 1.511 1_556 S
C980 C979 1.511 1_554 S
C980 C981 1.397 . S
C980 C985 1.363 . S
C981 H952 0.950 . S
C981 C980 1.397 . S
C981 C982 1.334 . S
C982 H953 0.950 . S
C982 C981 1.334 . S
C982 C983 1.287 . S
C983 C982 1.287 . S
C983 C984 1.524 . S
C983 H986 0.999 . S
C984 H954 0.950 . S
C984 C983 1.524 . S
C984 C985 1.415 . S
C985 H955 0.950 . S
C985 C980 1.363 . S
C985 C984 1.415 . S
H986 C983 0.999 . S
H987 C968 0.913 . S
H988 C1006 0.951 . S
H989 C1008 0.951 . S
H990 C1010 0.950 . S
H991 C1011 0.950 . S
H992 C1013 0.950 . S
H993 C1016 0.950 . S
H994 C1017 0.950 . S
H995 C1019 0.950 . S
H996 C1020 0.950 . S
H997 C1021 0.951 . S
H998 C1023 0.951 . S
H999 C1025 0.950 . S
H1000 C1026 0.950 . S
H1001 C1028 0.950 . S
H1002 C1031 0.950 . S
H1003 C1032 0.950 . S
H1004 C1034 0.950 1_655 S
H1005 C1035 0.950 . S
C1006 H988 0.951 . S
C1006 C1007 1.366 1_455 S
C1006 C1008 1.388 . S
C1007 C1006 1.366 1_655 S
C1007 C1011 1.385 . S
C1008 H989 0.951 . S
C1008 C1006 1.388 . S
C1008 C1009 1.366 1_455 S
C1009 C1008 1.366 1_655 S
C1009 C1010 1.414 . S
C1009 C1012 1.499 . S
C1010 H990 0.950 . S
C1010 C1009 1.414 . S
C1010 C1011 1.374 . S
C1011 H991 0.950 . S
C1011 C1007 1.385 . S
C1011 C1010 1.374 . S
C1012 C1009 1.499 . S
C1012 C1013 1.373 1_655 S
C1012 C1014 1.389 . S
C1013 H992 0.950 . S
C1013 C1012 1.373 1_455 S
C1013 C1029 1.377 . S
C1014 C1012 1.389 . S
C1014 C1015 1.524 . S
C1014 C1028 1.377 1_655 S
C1015 C1014 1.524 . S
C1015 C1016 1.397 . S
C1015 C1020 1.363 1_655 S
C1016 H993 0.950 . S
C1016 C1015 1.397 . S
C1016 C1017 1.334 . S
C1017 H994 0.950 . S
C1017 C1016 1.334 . S
C1017 C1018 1.287 . S
C1018 C1017 1.287 . S
C1018 C1019 1.524 1_655 S
C1018 H1037 0.913 . S
C1019 H995 0.950 . S
C1019 C1018 1.524 1_455 S
C1019 C1020 1.415 . S
C1020 H996 0.950 . S
C1020 C1015 1.363 1_455 S
C1020 C1019 1.415 . S
C1021 H997 0.951 . S
C1021 C1022 1.366 1_655 S
C1021 C1023 1.388 . S
C1022 C1021 1.366 1_455 S
C1022 C1026 1.385 . S
C1023 H998 0.951 . S
C1023 C1021 1.388 . S
C1023 C1024 1.366 1_655 S
C1024 C1023 1.366 1_455 S
C1024 C1025 1.414 . S
C1024 C1027 1.499 . S
C1025 H999 0.950 . S
C1025 C1024 1.414 . S
C1025 C1026 1.374 . S
C1026 H1000 0.950 . S
C1026 C1022 1.385 . S
C1026 C1025 1.374 . S
C1027 C1024 1.499 . S
C1027 C1028 1.373 . S
C1027 C1029 1.389 . S
C1028 H1001 0.950 . S
C1028 C1014 1.377 1_455 S
C1028 C1027 1.373 . S
C1029 C1013 1.377 . S
C1029 C1027 1.389 . S
C1029 C1030 1.524 . S
C1030 C1029 1.524 . S
C1030 C1031 1.397 . S
C1030 C1035 1.363 1_455 S
C1031 H1002 0.950 . S
C1031 C1030 1.397 . S
C1031 C1032 1.334 . S
C1032 H1003 0.950 . S
C1032 C1031 1.334 . S
C1032 C1033 1.287 . S
C1033 C1032 1.287 . S
C1033 C1034 1.524 . S
C1033 H1036 0.999 . S
C1034 H1004 0.950 1_455 S
C1034 C1033 1.524 . S
C1034 C1035 1.415 1_455 S
C1035 H1005 0.950 . S
C1035 C1030 1.363 1_655 S
C1035 C1034 1.415 1_655 S
H1036 C1033 0.999 . S
H1037 C1018 0.913 . S
C157 C8 2.045 . S
C172 C129 1.968 . S
C207 C26 1.250 . S
C222 C107 1.244 . S
C257 C48 1.436 . S
C272 C120 1.471 . S
C307 C19 1.633 . S
C322 C133 1.685 . S
C372 C103 1.485 . S
C357 C36 1.552 . S
C422 C116 1.599 . S
C407 C59 1.640 . S
C457 C28 1.434 . S
C472 C81 1.468 . S
C507 C46 1.100 . S
C522 C94 1.099 . S
C557 C16 1.530 . S
C572 C64 1.446 . S
C622 C77 1.590 . S
C607 C39 1.638 . S
C672 C90 1.011 . S
C657 C56 1.040 . S
C707 C6 1.268 . S
C722 C68 1.263 . S
C772 C95 1.496 . S
C757 C9 1.484 . S
C807 C21 1.531 . S
C822 C69 1.554 . S
C857 C49 1.565 . S
C872 C82 1.604 . S
C922 C121 1.553 . S
C907 C29 1.522 . S
C972 C134 1.640 . S
C957 C41 1.618 . S
C1007 C1 1.550 . S
C1022 C108 1.582 . S
