# Generated by pormake.
# Topology ptr, (4,4)-cn, num edge types: 1
# Building blocks:
#     Node 0, Type 0, BuildingBlock: QUQFOY_clean_sbu_3, # of connection points: 4
#     Node 1, Type 0, BuildingBlock: QUQFOY_clean_sbu_3, # of connection points: 4
#     Node 2, Type 0, BuildingBlock: QUQFOY_clean_sbu_3, # of connection points: 4
#     Node 3, Type 0, BuildingBlock: QUQFOY_clean_sbu_3, # of connection points: 4
#     Node 4, Type 0, BuildingBlock: QUQFOY_clean_sbu_3, # of connection points: 4
#     Node 5, Type 0, BuildingBlock: QUQFOY_clean_sbu_3, # of connection points: 4
#     Node 6, Type 0, BuildingBlock: QUQFOY_clean_sbu_3, # of connection points: 4
#     Node 7, Type 0, BuildingBlock: QUQFOY_clean_sbu_3, # of connection points: 4
#     Node 8, Type 0, BuildingBlock: QUQFOY_clean_sbu_3, # of connection points: 4
#     Node 9, Type 0, BuildingBlock: QUQFOY_clean_sbu_3, # of connection points: 4
#     Node 10, Type 0, BuildingBlock: QUQFOY_clean_sbu_3, # of connection points: 4
#     Node 11, Type 0, BuildingBlock: QUQFOY_clean_sbu_3, # of connection points: 4
#     Node 12, Type 0, BuildingBlock: QUQFOY_clean_sbu_3, # of connection points: 4
#     Node 13, Type 0, BuildingBlock: QUQFOY_clean_sbu_3, # of connection points: 4
#     Node 14, Type 0, BuildingBlock: QUQFOY_clean_sbu_3, # of connection points: 4
#     Node 15, Type 0, BuildingBlock: QUQFOY_clean_sbu_3, # of connection points: 4
#     Node 16, Type 0, BuildingBlock: QUQFOY_clean_sbu_3, # of connection points: 4
#     Node 17, Type 0, BuildingBlock: QUQFOY_clean_sbu_3, # of connection points: 4
#     Node 18, Type 1, BuildingBlock: AZAVOO_clean_linker_0, # of connection points: 4
#     Node 19, Type 1, BuildingBlock: AZAVOO_clean_linker_0, # of connection points: 4
#     Node 20, Type 1, BuildingBlock: AZAVOO_clean_linker_0, # of connection points: 4
#     Node 21, Type 1, BuildingBlock: AZAVOO_clean_linker_0, # of connection points: 4
#     Node 22, Type 1, BuildingBlock: AZAVOO_clean_linker_0, # of connection points: 4
#     Node 23, Type 1, BuildingBlock: AZAVOO_clean_linker_0, # of connection points: 4
#     Node 24, Type 1, BuildingBlock: AZAVOO_clean_linker_0, # of connection points: 4
#     Node 25, Type 1, BuildingBlock: AZAVOO_clean_linker_0, # of connection points: 4
#     Node 26, Type 1, BuildingBlock: AZAVOO_clean_linker_0, # of connection points: 4
#     Node 27, Type 1, BuildingBlock: AZAVOO_clean_linker_0, # of connection points: 4
#     Node 28, Type 1, BuildingBlock: AZAVOO_clean_linker_0, # of connection points: 4
#     Node 29, Type 1, BuildingBlock: AZAVOO_clean_linker_0, # of connection points: 4
#     Node 30, Type 1, BuildingBlock: AZAVOO_clean_linker_0, # of connection points: 4
#     Node 31, Type 1, BuildingBlock: AZAVOO_clean_linker_0, # of connection points: 4
#     Node 32, Type 1, BuildingBlock: AZAVOO_clean_linker_0, # of connection points: 4
#     Node 33, Type 1, BuildingBlock: AZAVOO_clean_linker_0, # of connection points: 4
#     Node 34, Type 1, BuildingBlock: AZAVOO_clean_linker_0, # of connection points: 4
#     Node 35, Type 1, BuildingBlock: AZAVOO_clean_linker_0, # of connection points: 4
#     Edge 36, Type (0, 1), BuildingBlock: UVAHIK_clean_linker_0, # of connection points: 2
#     Edge 37, Type (0, 1), BuildingBlock: UVAHIK_clean_linker_0, # of connection points: 2
#     Edge 38, Type (0, 1), BuildingBlock: UVAHIK_clean_linker_0, # of connection points: 2
#     Edge 39, Type (0, 1), BuildingBlock: UVAHIK_clean_linker_0, # of connection points: 2
#     Edge 40, Type (0, 1), BuildingBlock: UVAHIK_clean_linker_0, # of connection points: 2
#     Edge 41, Type (0, 1), BuildingBlock: UVAHIK_clean_linker_0, # of connection points: 2
#     Edge 42, Type (0, 1), BuildingBlock: UVAHIK_clean_linker_0, # of connection points: 2
#     Edge 43, Type (0, 1), BuildingBlock: UVAHIK_clean_linker_0, # of connection points: 2
#     Edge 44, Type (0, 1), BuildingBlock: UVAHIK_clean_linker_0, # of connection points: 2
#     Edge 45, Type (0, 1), BuildingBlock: UVAHIK_clean_linker_0, # of connection points: 2
#     Edge 46, Type (0, 1), BuildingBlock: UVAHIK_clean_linker_0, # of connection points: 2
#     Edge 47, Type (0, 1), BuildingBlock: UVAHIK_clean_linker_0, # of connection points: 2
#     Edge 48, Type (0, 1), BuildingBlock: UVAHIK_clean_linker_0, # of connection points: 2
#     Edge 49, Type (0, 1), BuildingBlock: UVAHIK_clean_linker_0, # of connection points: 2
#     Edge 50, Type (0, 1), BuildingBlock: UVAHIK_clean_linker_0, # of connection points: 2
#     Edge 51, Type (0, 1), BuildingBlock: UVAHIK_clean_linker_0, # of connection points: 2
#     Edge 52, Type (0, 1), BuildingBlock: UVAHIK_clean_linker_0, # of connection points: 2
#     Edge 53, Type (0, 1), BuildingBlock: UVAHIK_clean_linker_0, # of connection points: 2
#     Edge 54, Type (0, 1), BuildingBlock: UVAHIK_clean_linker_0, # of connection points: 2
#     Edge 55, Type (0, 1), BuildingBlock: UVAHIK_clean_linker_0, # of connection points: 2
#     Edge 56, Type (0, 1), BuildingBlock: UVAHIK_clean_linker_0, # of connection points: 2
#     Edge 57, Type (0, 1), BuildingBlock: UVAHIK_clean_linker_0, # of connection points: 2
#     Edge 58, Type (0, 1), BuildingBlock: UVAHIK_clean_linker_0, # of connection points: 2
#     Edge 59, Type (0, 1), BuildingBlock: UVAHIK_clean_linker_0, # of connection points: 2
#     Edge 60, Type (0, 1), BuildingBlock: UVAHIK_clean_linker_0, # of connection points: 2
#     Edge 61, Type (0, 1), BuildingBlock: UVAHIK_clean_linker_0, # of connection points: 2
#     Edge 62, Type (0, 1), BuildingBlock: UVAHIK_clean_linker_0, # of connection points: 2
#     Edge 63, Type (0, 1), BuildingBlock: UVAHIK_clean_linker_0, # of connection points: 2
#     Edge 64, Type (0, 1), BuildingBlock: UVAHIK_clean_linker_0, # of connection points: 2
#     Edge 65, Type (0, 1), BuildingBlock: UVAHIK_clean_linker_0, # of connection points: 2
#     Edge 66, Type (0, 1), BuildingBlock: UVAHIK_clean_linker_0, # of connection points: 2
#     Edge 67, Type (0, 1), BuildingBlock: UVAHIK_clean_linker_0, # of connection points: 2
#     Edge 68, Type (0, 1), BuildingBlock: UVAHIK_clean_linker_0, # of connection points: 2
#     Edge 69, Type (0, 1), BuildingBlock: UVAHIK_clean_linker_0, # of connection points: 2
#     Edge 70, Type (0, 1), BuildingBlock: UVAHIK_clean_linker_0, # of connection points: 2
#     Edge 71, Type (0, 1), BuildingBlock: UVAHIK_clean_linker_0, # of connection points: 2
#     Edge 72, Type (0, 1), BuildingBlock: UVAHIK_clean_linker_0, # of connection points: 2
#     Edge 73, Type (0, 1), BuildingBlock: UVAHIK_clean_linker_0, # of connection points: 2
#     Edge 74, Type (0, 1), BuildingBlock: UVAHIK_clean_linker_0, # of connection points: 2
#     Edge 75, Type (0, 1), BuildingBlock: UVAHIK_clean_linker_0, # of connection points: 2
#     Edge 76, Type (0, 1), BuildingBlock: UVAHIK_clean_linker_0, # of connection points: 2
#     Edge 77, Type (0, 1), BuildingBlock: UVAHIK_clean_linker_0, # of connection points: 2
#     Edge 78, Type (0, 1), BuildingBlock: UVAHIK_clean_linker_0, # of connection points: 2
#     Edge 79, Type (0, 1), BuildingBlock: UVAHIK_clean_linker_0, # of connection points: 2
#     Edge 80, Type (0, 1), BuildingBlock: UVAHIK_clean_linker_0, # of connection points: 2
#     Edge 81, Type (0, 1), BuildingBlock: UVAHIK_clean_linker_0, # of connection points: 2
#     Edge 82, Type (0, 1), BuildingBlock: UVAHIK_clean_linker_0, # of connection points: 2
#     Edge 83, Type (0, 1), BuildingBlock: UVAHIK_clean_linker_0, # of connection points: 2
#     Edge 84, Type (0, 1), BuildingBlock: UVAHIK_clean_linker_0, # of connection points: 2
#     Edge 85, Type (0, 1), BuildingBlock: UVAHIK_clean_linker_0, # of connection points: 2
#     Edge 86, Type (0, 1), BuildingBlock: UVAHIK_clean_linker_0, # of connection points: 2
#     Edge 87, Type (0, 1), BuildingBlock: UVAHIK_clean_linker_0, # of connection points: 2
#     Edge 88, Type (0, 1), BuildingBlock: UVAHIK_clean_linker_0, # of connection points: 2
#     Edge 89, Type (0, 1), BuildingBlock: UVAHIK_clean_linker_0, # of connection points: 2
#     Edge 90, Type (0, 1), BuildingBlock: UVAHIK_clean_linker_0, # of connection points: 2
#     Edge 91, Type (0, 1), BuildingBlock: UVAHIK_clean_linker_0, # of connection points: 2
#     Edge 92, Type (0, 1), BuildingBlock: UVAHIK_clean_linker_0, # of connection points: 2
#     Edge 93, Type (0, 1), BuildingBlock: UVAHIK_clean_linker_0, # of connection points: 2
#     Edge 94, Type (0, 1), BuildingBlock: UVAHIK_clean_linker_0, # of connection points: 2
#     Edge 95, Type (0, 1), BuildingBlock: UVAHIK_clean_linker_0, # of connection points: 2
#     Edge 96, Type (0, 1), BuildingBlock: UVAHIK_clean_linker_0, # of connection points: 2
#     Edge 97, Type (0, 1), BuildingBlock: UVAHIK_clean_linker_0, # of connection points: 2
#     Edge 98, Type (0, 1), BuildingBlock: UVAHIK_clean_linker_0, # of connection points: 2
#     Edge 99, Type (0, 1), BuildingBlock: UVAHIK_clean_linker_0, # of connection points: 2
#     Edge 100, Type (0, 1), BuildingBlock: UVAHIK_clean_linker_0, # of connection points: 2
#     Edge 101, Type (0, 1), BuildingBlock: UVAHIK_clean_linker_0, # of connection points: 2
#     Edge 102, Type (0, 1), BuildingBlock: UVAHIK_clean_linker_0, # of connection points: 2
#     Edge 103, Type (0, 1), BuildingBlock: UVAHIK_clean_linker_0, # of connection points: 2
#     Edge 104, Type (0, 1), BuildingBlock: UVAHIK_clean_linker_0, # of connection points: 2
#     Edge 105, Type (0, 1), BuildingBlock: UVAHIK_clean_linker_0, # of connection points: 2
#     Edge 106, Type (0, 1), BuildingBlock: UVAHIK_clean_linker_0, # of connection points: 2
#     Edge 107, Type (0, 1), BuildingBlock: UVAHIK_clean_linker_0, # of connection points: 2
# Relax obj value: 0.051
# Max RMSD: 0.180
# Mean RMSD: 0.121
data_MOF--net-ptr--node1-QUQFOY_clean_sbu_3--node2-AZAVOO_clean_linker_0--edge1-UVAHIK_clean_linker_0
_symmetry_space_group_name_H-M    P1
_symmetry_Int_Tables_number       1
_symmetry_cell_setting            triclinic
loop_
_symmetry_equiv_pos_as_xyz
'x, y, z'
_cell_length_a     102.14313
_cell_length_b     101.05291
_cell_length_c     87.198195
_cell_angle_alpha  92.707713
_cell_angle_beta   91.775757
_cell_angle_gamma 120.74636
loop_
_atom_site_label
_atom_site_type_symbol
_atom_site_fract_x
_atom_site_fract_y
_atom_site_fract_z
_atom_type_partial_charge
C0 C 0.97193 0.32342 0.00105 0.0
O1 O 0.96417 0.32921 0.00579 0.0
Cd2 Cd 0.97523 0.35489 0.01698 0.0
O3 O 0.98642 0.33083 0.00338 0.0
Cd4 Cd 0.0071 0.35529 0.01729 0.0
C5 C 0.00173 0.37464 0.98991 0.0
O6 O 0.99221 0.35743 0.03763 0.0
O7 O 0.01404 0.37777 0.03492 0.0
O8 O 0.01414 0.338 0.02826 0.0
C9 C 0.0021 0.37121 0.04231 0.0
O10 O 0.98938 0.37075 0.99641 0.0
C11 C 0.02843 0.34669 0.02751 0.0
O12 O 0.01079 0.37031 0.99467 0.0
O13 O 0.03302 0.35945 0.02151 0.0
C14 C 0.63371 0.659 0.07482 0.0
O15 O 0.61979 0.65491 0.07241 0.0
Cd16 Cd 0.6025 0.63093 0.05817 0.0
O17 O 0.63877 0.65084 0.06895 0.0
Cd18 Cd 0.63045 0.62742 0.05164 0.0
C19 C 0.60848 0.60586 0.07879 0.0
O20 O 0.6129 0.63013 0.03399 0.0
O21 O 0.61181 0.60818 0.03231 0.0
O22 O 0.65454 0.64502 0.04139 0.0
C23 C 0.60758 0.61694 0.02694 0.0
O24 O 0.60015 0.61134 0.07499 0.0
C25 C 0.65912 0.63555 0.03968 0.0
O26 O 0.62097 0.61003 0.0725 0.0
O27 O 0.6503 0.62193 0.04358 0.0
C28 C 0.34599 0.96495 0.0217 0.0
O29 O 0.35101 0.95683 0.01577 0.0
Cd30 Cd 0.37591 0.96961 0.00552 0.0
O31 O 0.3534 0.97953 0.02106 0.0
Cd32 Cd 0.3758 0.00102 0.01068 0.0
C33 C 0.39767 0.99568 0.03628 0.0
O34 O 0.37656 0.98708 0.98746 0.0
O35 O 0.39622 0.00985 0.99315 0.0
O36 O 0.35715 0.0068 0.00105 0.0
C37 C 0.38939 0.99795 0.98383 0.0
O38 O 0.39391 0.98354 0.02771 0.0
C39 C 0.36391 0.02077 0.00636 0.0
O40 O 0.39219 0.0042 0.0333 0.0
O41 O 0.37667 0.02595 0.01389 0.0
C42 C 0.95949 0.63531 0.02764 0.0
O43 O 0.95185 0.62104 0.02985 0.0
Cd44 Cd 0.96245 0.60833 0.04406 0.0
O45 O 0.97328 0.64361 0.03294 0.0
Cd46 Cd 0.99289 0.64137 0.04767 0.0
C47 C 0.99203 0.61497 0.02161 0.0
O48 O 0.97712 0.62381 0.06674 0.0
O49 O 0.00031 0.62863 0.06573 0.0
O50 O -0.00035 0.66472 0.06308 0.0
C51 C 0.9878 0.62211 0.07224 0.0
O52 O 0.97934 0.60564 0.02702 0.0
C53 C 0.01313 0.67268 0.05886 0.0
O54 O -0.00073 0.62928 0.02613 0.0
O55 O 0.0174 0.66613 0.04908 0.0
C56 C 0.33798 0.37381 0.01214 0.0
O57 O 0.34401 0.38835 0.01232 0.0
Cd58 Cd 0.36929 0.40445 0.00364 0.0
O59 O 0.34503 0.3674 0.0069 0.0
Cd60 Cd 0.36883 0.37351 0.99514 0.0
C61 C 0.39045 0.39479 0.027 0.0
O62 O 0.37121 0.39374 0.97922 0.0
O63 O 0.39085 0.39102 0.98155 0.0
O64 O 0.35485 0.35244 0.97563 0.0
C65 C 0.3845 0.3976 0.97531 0.0
O66 O 0.3872 0.40483 0.02314 0.0
C67 C 0.36021 0.34429 0.98009 0.0
O68 O 0.38461 0.38177 0.01934 0.0
O69 O 0.3699 0.3498 0.99157 0.0
C70 C 0.66174 0.03455 0.02939 0.0
O71 O 0.65834 0.04403 0.03532 0.0
Cd72 Cd 0.63339 0.03362 0.04535 0.0
O73 O 0.65306 0.02014 0.03057 0.0
Cd74 Cd 0.63022 0.00108 0.04283 0.0
C75 C 0.60979 0.00683 0.01586 0.0
O76 O 0.63058 0.01692 0.0654 0.0
O77 O 0.61024 0.99444 0.06037 0.0
O78 O 0.64796 0.99423 0.053 0.0
C79 C 0.6175 0.00665 0.06924 0.0
O80 O 0.61506 0.01989 0.0233 0.0
C81 C 0.64005 0.97992 0.04895 0.0
O82 O 0.61365 0.99732 0.02008 0.0
O83 O 0.62712 0.9751 0.04193 0.0
C84 C 0.63702 0.66742 0.32509 0.0
O85 O 0.63019 0.67489 0.32675 0.0
Cd86 Cd 0.64086 0.69903 0.34183 0.0
O87 O 0.65018 0.67251 0.33173 0.0
Cd88 Cd 0.66882 0.69472 0.34938 0.0
C89 C 0.67402 0.72078 0.32383 0.0
O90 O 0.65017 0.69551 0.3658 0.0
O91 O 0.67318 0.71488 0.36917 0.0
O92 O 0.67258 0.67524 0.36075 0.0
C93 C 0.65967 0.70795 0.3735 0.0
O94 O 0.66129 0.71881 0.32783 0.0
C95 C 0.68701 0.68352 0.36255 0.0
O96 O 0.67912 0.71248 0.32876 0.0
O97 O 0.69314 0.69704 0.35791 0.0
C98 C 0.29722 0.98757 0.4114 0.0
O99 O 0.283 0.98256 0.41007 0.0
Cd100 Cd 0.2654 0.95861 0.39593 0.0
O101 O 0.30261 0.97992 0.40503 0.0
Cd102 Cd 0.29339 0.9556 0.38874 0.0
C103 C 0.27138 0.93369 0.41612 0.0
O104 O 0.27574 0.95859 0.3715 0.0
O105 O 0.27462 0.93669 0.36912 0.0
O106 O 0.31777 0.97113 0.37751 0.0
C107 C 0.27047 0.94561 0.36406 0.0
O108 O 0.26244 0.93843 0.41224 0.0
C109 C 0.3211 0.96064 0.37648 0.0
O110 O 0.28409 0.93873 0.41002 0.0
O111 O 0.31158 0.94769 0.38134 0.0
C112 C 0.02595 0.29863 0.36317 0.0
O113 O 0.03129 0.29007 0.35954 0.0
Cd114 Cd 0.05568 0.30046 0.34841 0.0
O115 O 0.03299 0.31276 0.36023 0.0
Cd116 Cd 0.05556 0.33187 0.34767 0.0
C117 C 0.07925 0.33065 0.37478 0.0
O118 O 0.05455 0.31406 0.32708 0.0
O119 O 0.07388 0.33742 0.32814 0.0
O120 O 0.03817 0.33892 0.33667 0.0
C121 C 0.06658 0.32406 0.32123 0.0
O122 O 0.07516 0.31733 0.36856 0.0
C123 C 0.04625 0.35321 0.34077 0.0
O124 O 0.0734 0.33828 0.36989 0.0
O125 O 0.05888 0.35776 0.34825 0.0
C126 C 0.62903 0.95479 0.35767 0.0
O127 O 0.6221 0.94091 0.36135 0.0
Cd128 Cd 0.634 0.93002 0.37597 0.0
O129 O 0.64288 0.96407 0.36246 0.0
Cd130 Cd 0.66312 0.9643 0.37929 0.0
C131 C 0.66467 0.93891 0.35394 0.0
O132 O 0.64703 0.94718 0.39821 0.0
O133 O 0.67013 0.95182 0.39855 0.0
O134 O 0.66809 0.9887 0.39142 0.0
C135 C 0.65735 0.94548 0.40456 0.0
O136 O 0.65195 0.92895 0.35886 0.0
C137 C 0.68226 0.9962 0.38934 0.0
O138 O 0.67123 0.95308 0.35883 0.0
O139 O 0.68765 0.98886 0.38238 0.0
C140 C 0.00722 0.71447 0.35161 0.0
O141 O 0.01295 0.72892 0.35108 0.0
Cd142 Cd 0.03819 0.74546 0.34326 0.0
O143 O 0.01457 0.7081 0.34712 0.0
Cd144 Cd 0.03894 0.71534 0.3353 0.0
C145 C 0.05896 0.7363 0.36784 0.0
O146 O 0.03987 0.73464 0.31881 0.0
O147 O 0.06057 0.73394 0.32157 0.0
O148 O 0.02408 0.69226 0.31812 0.0
C149 C 0.05331 0.73934 0.31487 0.0
O150 O 0.05534 0.74607 0.36392 0.0
C151 C 0.03251 0.68665 0.32057 0.0
O152 O 0.05402 0.72362 0.3598 0.0
O153 O 0.04409 0.69443 0.32996 0.0
C154 C 0.32091 0.36743 0.3611 0.0
O155 O 0.31541 0.37605 0.36367 0.0
Cd156 Cd 0.29059 0.36525 0.37387 0.0
O157 O 0.31385 0.35356 0.3649 0.0
Cd158 Cd 0.29135 0.33479 0.37792 0.0
C159 C 0.26893 0.33371 0.34797 0.0
O160 O 0.29101 0.35324 0.39699 0.0
O161 O 0.272 0.32973 0.39616 0.0
O162 O 0.3105 0.33097 0.39028 0.0
C163 C 0.27878 0.34329 0.40263 0.0
O164 O 0.27287 0.34734 0.35307 0.0
C165 C 0.30335 0.31639 0.38799 0.0
O166 O 0.27413 0.32621 0.3546 0.0
O167 O 0.29018 0.31002 0.38104 0.0
C168 C 0.30592 0.99671 0.65977 0.0
O169 O 0.29718 0.00222 0.65962 0.0
Cd170 Cd 0.30393 0.0267 0.67227 0.0
O171 O 0.31903 0.00419 0.66692 0.0
Cd172 Cd 0.33487 0.02896 0.68262 0.0
C173 C 0.33605 0.05104 0.65405 0.0
O174 O 0.31469 0.02844 0.6976 0.0
O175 O 0.33644 0.04978 0.69946 0.0
O176 O 0.34232 0.01526 0.69972 0.0
C177 C 0.32305 0.04197 0.70395 0.0
O178 O 0.32231 0.04659 0.65691 0.0
C179 C 0.35659 0.0238 0.69862 0.0
O180 O 0.34329 0.0456 0.66091 0.0
O181 O 0.36091 0.03483 0.68987 0.0
C182 C 0.95644 0.31269 0.73425 0.0
O183 O 0.94228 0.30566 0.73031 0.0
Cd184 Cd 0.92951 0.2815 0.71563 0.0
O185 O 0.96474 0.30748 0.72945 0.0
Cd186 Cd 0.96273 0.28611 0.71201 0.0
C187 C 0.94139 0.26159 0.73799 0.0
O188 O 0.94399 0.28529 0.69359 0.0
O189 O 0.9481 0.26643 0.69069 0.0
O190 O 0.98533 0.3064 0.70141 0.0
C191 C 0.94156 0.27333 0.68568 0.0
O192 O 0.93131 0.26467 0.73354 0.0
C193 C 0.9932 0.29997 0.70223 0.0
O194 O 0.95435 0.26775 0.73222 0.0
O195 O 0.98698 0.28688 0.70789 0.0
C196 C 0.68817 0.63211 0.69393 0.0
O197 O 0.69433 0.62426 0.69057 0.0
Cd198 Cd 0.71836 0.63603 0.67861 0.0
O199 O 0.69435 0.64607 0.69053 0.0
Cd200 Cd 0.71604 0.66603 0.67771 0.0
C201 C 0.74083 0.66681 0.70482 0.0
O202 O 0.71586 0.64881 0.65712 0.0
O203 O 0.73501 0.67225 0.65862 0.0
O204 O 0.69695 0.67045 0.66628 0.0
C205 C 0.72785 0.65903 0.6514 0.0
O206 O 0.73773 0.65387 0.69836 0.0
C207 C 0.7036 0.68475 0.67032 0.0
O208 O 0.73397 0.67359 0.70021 0.0
O209 O 0.71646 0.69069 0.67783 0.0
C210 C 0.29918 0.29692 0.68832 0.0
O211 O 0.29108 0.2828 0.69098 0.0
Cd212 Cd 0.30112 0.2694 0.70428 0.0
O213 O 0.31307 0.30487 0.69351 0.0
Cd214 Cd 0.33155 0.30178 0.70989 0.0
C215 C 0.33175 0.27716 0.68266 0.0
O216 O 0.31397 0.28416 0.72792 0.0
O217 O 0.33629 0.28678 0.72789 0.0
O218 O 0.33811 0.32675 0.72216 0.0
C219 C 0.32353 0.28112 0.73387 0.0
O220 O 0.31857 0.26758 0.68697 0.0
C221 C 0.35246 0.33266 0.72211 0.0
O222 O 0.3391 0.29105 0.68849 0.0
O223 O 0.35719 0.32426 0.71619 0.0
C224 C 0.68628 0.05228 0.67814 0.0
O225 O 0.69462 0.0665 0.67593 0.0
Cd226 Cd 0.7182 0.07655 0.66363 0.0
O227 O 0.68999 0.04262 0.67331 0.0
Cd228 Cd 0.71001 0.04183 0.65877 0.0
C229 C 0.73667 0.06394 0.68721 0.0
O230 O 0.71294 0.06046 0.6405 0.0
O231 O 0.7305 0.05459 0.64117 0.0
O232 O 0.68938 0.0185 0.64524 0.0
C233 C 0.72471 0.06162 0.63481 0.0
O234 O 0.73596 0.07517 0.68207 0.0
C235 C 0.69523 0.01022 0.64738 0.0
O236 O 0.72774 0.05017 0.68151 0.0
O237 O 0.70809 0.01665 0.65493 0.0
C238 C 0.98242 0.69967 0.69132 0.0
O239 O 0.97794 0.70911 0.69416 0.0
Cd240 Cd 0.9533 0.70027 0.70391 0.0
O241 O 0.97421 0.68562 0.69437 0.0
Cd242 Cd 0.95015 0.66802 0.7062 0.0
C243 C 0.92986 0.6709 0.67671 0.0
O244 O 0.95208 0.68679 0.72644 0.0
O245 O 0.93087 0.6649 0.72385 0.0
O246 O 0.96662 0.65946 0.71658 0.0
C247 C 0.93911 0.67781 0.7314 0.0
O248 O 0.9348 0.68456 0.68253 0.0
C249 C 0.95684 0.64513 0.71495 0.0
O250 O 0.93399 0.66227 0.6827 0.0
O251 O 0.94365 0.64123 0.70925 0.0
H252 H 0.16557 0.31261 0.04409 0.0
H253 H 0.23041 0.2617 0.17056 0.0
H254 H 0.15877 0.31897 0.1259 0.0
H255 H 0.14194 0.32607 0.11323 0.0
H256 H 0.10306 0.28137 0.12093 0.0
H257 H 0.12031 0.27406 0.13277 0.0
H258 H 0.18092 0.31479 0.10969 0.0
H259 H 0.17845 0.31805 0.08234 0.0
H260 H 0.13632 0.27384 0.07741 0.0
H261 H 0.13904 0.27064 0.10476 0.0
H262 H 0.20286 0.3112 0.13395 0.0
H263 H 0.22273 0.31621 0.11638 0.0
H264 H 0.19106 0.27485 0.08825 0.0
H265 H 0.17117 0.26965 0.10626 0.0
H266 H 0.19974 0.3061 0.16602 0.0
H267 H 0.22003 0.30218 0.17609 0.0
H268 H 0.19795 0.25709 0.15151 0.0
H269 H 0.17761 0.26108 0.1417 0.0
H270 H 0.17325 0.31057 0.1788 0.0
H271 H 0.18239 0.3128 0.20539 0.0
H272 H 0.17319 0.26597 0.20024 0.0
H273 H 0.16276 0.26343 0.1739 0.0
H274 H 0.15328 0.31519 0.16203 0.0
H275 H 0.13816 0.31774 0.18173 0.0
H276 H 0.11335 0.26815 0.18447 0.0
H277 H 0.12932 0.26597 0.1654 0.0
O278 O 0.16635 0.31105 0.05487 0.0
O279 O 0.1447 0.2883 0.05297 0.0
O280 O 0.23337 0.28678 0.17923 0.0
O281 O 0.22252 0.26355 0.16675 0.0
C282 C 0.15156 0.29127 0.13592 0.0
C283 C 0.16169 0.29041 0.12579 0.0
C284 C 0.1734 0.2881 0.13154 0.0
C285 C 0.17465 0.28606 0.14733 0.0
C286 C 0.16439 0.28669 0.15748 0.0
C287 C 0.15278 0.2892 0.1517 0.0
C288 C 0.14079 0.29594 0.13009 0.0
C289 C 0.1466 0.31073 0.12489 0.0
C290 C 0.1369 0.31482 0.11777 0.0
C291 C 0.12106 0.3043 0.11596 0.0
C292 C 0.1152 0.28968 0.12183 0.0
C293 C 0.125 0.28552 0.12877 0.0
C294 C 0.16024 0.2924 0.10916 0.0
C295 C 0.17124 0.30577 0.10265 0.0
C296 C 0.16976 0.30763 0.08704 0.0
C297 C 0.1572 0.29619 0.07768 0.0
C298 C 0.14615 0.28286 0.08429 0.0
C299 C 0.14767 0.28099 0.09989 0.0
C300 C 0.18562 0.28999 0.12147 0.0
C301 C 0.2003 0.30298 0.12424 0.0
C302 C 0.21162 0.30584 0.11418 0.0
C303 C 0.20843 0.29588 0.101 0.0
C304 C 0.19378 0.28271 0.09832 0.0
C305 C 0.18247 0.27972 0.10858 0.0
C306 C 0.18712 0.2838 0.15327 0.0
C307 C 0.19926 0.29534 0.16291 0.0
C308 C 0.21086 0.29309 0.1686 0.0
C309 C 0.21059 0.27929 0.16463 0.0
C310 C 0.19849 0.26783 0.15482 0.0
C311 C 0.18687 0.27008 0.14918 0.0
C312 C 0.16722 0.28681 0.17437 0.0
C313 C 0.17256 0.30055 0.18358 0.0
C314 C 0.17812 0.30191 0.19873 0.0
C315 C 0.17892 0.2897 0.20491 0.0
C316 C 0.17271 0.2756 0.19594 0.0
C317 C 0.1668 0.27414 0.18084 0.0
C318 C 0.14242 0.29042 0.16239 0.0
C319 C 0.14447 0.30489 0.16682 0.0
C320 C 0.13571 0.30628 0.17803 0.0
C321 C 0.12449 0.29315 0.18481 0.0
C322 C 0.12207 0.27856 0.1798 0.0
C323 C 0.13107 0.27724 0.16879 0.0
C324 C 0.15565 0.29822 0.0611 0.0
C325 C 0.22287 0.27683 0.17067 0.0
H326 H 0.70109 0.8393 0.06355 0.0
H327 H 0.7166 0.95335 0.19045 0.0
H328 H 0.69179 0.82863 0.14387 0.0
H329 H 0.68931 0.80441 0.13401 0.0
H330 H 0.7345 0.81938 0.15354 0.0
H331 H 0.73729 0.8442 0.16286 0.0
H332 H 0.69057 0.8508 0.12703 0.0
H333 H 0.69051 0.84467 0.09956 0.0
H334 H 0.73825 0.85891 0.1053 0.0
H335 H 0.7382 0.86519 0.13274 0.0
H336 H 0.68502 0.87144 0.14972 0.0
H337 H 0.67637 0.88302 0.13102 0.0
H338 H 0.72127 0.90634 0.11337 0.0
H339 H 0.72993 0.8948 0.13243 0.0
H340 H 0.69013 0.87759 0.18437 0.0
H341 H 0.68714 0.89922 0.19308 0.0
H342 H 0.73014 0.93096 0.17459 0.0
H343 H 0.73308 0.90924 0.16611 0.0
H344 H 0.6952 0.85228 0.20058 0.0
H345 H 0.6931 0.85969 0.22693 0.0
H346 H 0.73349 0.90455 0.2235 0.0
H347 H 0.73629 0.89638 0.19767 0.0
H348 H 0.69569 0.82679 0.17907 0.0
H349 H 0.69667 0.81017 0.19804 0.0
H350 H 0.73994 0.84794 0.21729 0.0
H351 H 0.73939 0.86439 0.19767 0.0
O352 O 0.70139 0.84189 0.07443 0.0
O353 O 0.72592 0.8493 0.078 0.0
O354 O 0.69549 0.9278 0.19652 0.0
O355 O 0.7175 0.94459 0.18714 0.0
C356 C 0.71601 0.85304 0.1594 0.0
C357 C 0.71453 0.86228 0.14859 0.0
C358 C 0.71284 0.87475 0.15367 0.0
C359 C 0.71378 0.87874 0.16956 0.0
C360 C 0.71595 0.86996 0.18047 0.0
C361 C 0.71678 0.85689 0.17539 0.0
C362 C 0.71483 0.83832 0.15381 0.0
C363 C 0.7013 0.82686 0.14579 0.0
C364 C 0.69986 0.81303 0.14023 0.0
C365 C 0.71179 0.8102 0.1429 0.0
C366 C 0.72521 0.82143 0.1513 0.0
C367 C 0.7268 0.83552 0.1566 0.0
C368 C 0.71445 0.85863 0.13184 0.0
C369 C 0.70105 0.85276 0.1223 0.0
C370 C 0.70103 0.84918 0.10663 0.0
C371 C 0.71439 0.85133 0.10022 0.0
C372 C 0.72777 0.85715 0.10985 0.0
C373 C 0.72778 0.86075 0.12552 0.0
C374 C 0.7081 0.88236 0.14246 0.0
C375 C 0.69301 0.87913 0.14188 0.0
C376 C 0.68806 0.88562 0.13108 0.0
C377 C 0.6981 0.89548 0.12064 0.0
C378 C 0.7133 0.89882 0.12133 0.0
C379 C 0.71825 0.89225 0.13215 0.0
C380 C 0.71188 0.89187 0.17472 0.0
C381 C 0.69892 0.88923 0.18229 0.0
C382 C 0.69723 0.9016 0.18721 0.0
C383 C 0.70842 0.91683 0.18456 0.0
C384 C 0.72132 0.91939 0.17684 0.0
C385 C 0.72302 0.90702 0.17196 0.0
C386 C 0.71589 0.87378 0.19716 0.0
C387 C 0.70389 0.86351 0.20571 0.0
C388 C 0.70256 0.86792 0.22072 0.0
C389 C 0.71292 0.88289 0.22734 0.0
C390 C 0.72534 0.89289 0.21894 0.0
C391 C 0.7269 0.8883 0.20408 0.0
C392 C 0.71758 0.84676 0.1868 0.0
C393 C 0.70558 0.83141 0.18711 0.0
C394 C 0.7061 0.82195 0.19796 0.0
C395 C 0.71842 0.82781 0.20899 0.0
C396 C 0.73036 0.8432 0.20883 0.0
C397 C 0.73004 0.85256 0.19769 0.0
C398 C 0.71431 0.84747 0.08357 0.0
C399 C 0.70669 0.93002 0.18978 0.0
H400 H 0.13874 0.85073 0.0536 0.0
H401 H 0.26501 0.95636 0.17311 0.0
H402 H 0.12998 0.86205 0.1324 0.0
H403 H 0.10806 0.83778 0.12106 0.0
H404 H 0.12363 0.8121 0.1462 0.0
H405 H 0.14593 0.8363 0.15685 0.0
H406 H 0.15792 0.88534 0.11377 0.0
H407 H 0.14973 0.87455 0.08714 0.0
H408 H 0.15191 0.83449 0.09849 0.0
H409 H 0.16032 0.84553 0.12502 0.0
H410 H 0.18938 0.91275 0.12707 0.0
H411 H 0.20823 0.92259 0.10746 0.0
H412 H 0.21225 0.88209 0.10929 0.0
H413 H 0.19322 0.87229 0.12843 0.0
H414 H 0.18894 0.92035 0.16638 0.0
H415 H 0.21363 0.94387 0.17297 0.0
H416 H 0.23652 0.91894 0.16167 0.0
H417 H 0.21175 0.89549 0.15531 0.0
H418 H 0.16345 0.89688 0.18996 0.0
H419 H 0.1736 0.90617 0.2167 0.0
H420 H 0.20742 0.8932 0.20998 0.0
H421 H 0.19713 0.88382 0.18348 0.0
H422 H 0.13287 0.86857 0.17373 0.0
H423 H 0.11762 0.85424 0.1948 0.0
H424 H 0.14968 0.83935 0.20473 0.0
H425 H 0.16497 0.85408 0.18411 0.0
O426 O 0.14211 0.85484 0.06416 0.0
O427 O 0.14325 0.83441 0.07064 0.0
O428 O 0.24278 0.95951 0.17627 0.0
O429 O 0.2551 0.94724 0.17056 0.0
C430 C 0.15445 0.86537 0.14943 0.0
C431 C 0.16429 0.87266 0.13756 0.0
C432 C 0.17887 0.88579 0.14116 0.0
C433 C 0.1835 0.89202 0.15652 0.0
C434 C 0.17391 0.88449 0.16845 0.0
C435 C 0.15942 0.87111 0.16491 0.0
C436 C 0.13954 0.85097 0.1455 0.0
C437 C 0.12848 0.85119 0.13572 0.0
C438 C 0.11603 0.83738 0.12923 0.0
C439 C 0.11426 0.82318 0.1328 0.0
C440 C 0.12472 0.82294 0.14343 0.0
C441 C 0.13738 0.83674 0.1496 0.0
C442 C 0.15961 0.86617 0.12133 0.0
C443 C 0.15669 0.87427 0.11045 0.0
C444 C 0.15197 0.86806 0.09526 0.0
C445 C 0.15011 0.85363 0.0907 0.0
C446 C 0.15319 0.84561 0.10163 0.0
C447 C 0.15796 0.85187 0.11679 0.0
C448 C 0.18995 0.89181 0.12907 0.0
C449 C 0.1943 0.90602 0.1231 0.0
C450 C 0.20509 0.91162 0.11197 0.0
C451 C 0.21171 0.90309 0.10675 0.0
C452 C 0.20718 0.88881 0.11278 0.0
C453 C 0.19638 0.88322 0.12379 0.0
C454 C 0.19857 0.90628 0.16022 0.0
C455 C 0.19931 0.92002 0.16531 0.0
C456 C 0.21342 0.93342 0.16907 0.0
C457 C 0.22706 0.9333 0.1678 0.0
C458 C 0.22625 0.91946 0.16272 0.0
C459 C 0.21213 0.90606 0.159 0.0
C460 C 0.17968 0.88986 0.18474 0.0
C461 C 0.173 0.89601 0.19432 0.0
C462 C 0.17878 0.90126 0.20956 0.0
C463 C 0.1914 0.90055 0.21535 0.0
C464 C 0.19787 0.89416 0.20575 0.0
C465 C 0.19201 0.88879 0.19063 0.0
C466 C 0.15004 0.86241 0.17751 0.0
C467 C 0.13656 0.86224 0.18055 0.0
C468 C 0.12785 0.85399 0.19251 0.0
C469 C 0.13246 0.8457 0.20154 0.0
C470 C 0.14595 0.84586 0.19828 0.0
C471 C 0.15467 0.85419 0.18644 0.0
C472 C 0.14496 0.847 0.07459 0.0
C473 C 0.24208 0.9475 0.17181 0.0
H474 H 0.28851 0.16105 0.99097 0.0
H475 H 0.29865 0.04983 0.87614 0.0
H476 H 0.27017 0.15316 0.91092 0.0
H477 H 0.27594 0.17902 0.9203 0.0
H478 H 0.31791 0.19934 0.8971 0.0
H479 H 0.31261 0.17359 0.88854 0.0
H480 H 0.27021 0.12694 0.93055 0.0
H481 H 0.27371 0.13783 0.95707 0.0
H482 H 0.31883 0.17477 0.94802 0.0
H483 H 0.31525 0.16364 0.92161 0.0
H484 H 0.27062 0.09728 0.91829 0.0
H485 H 0.27739 0.0853 0.93847 0.0
H486 H 0.3243 0.12288 0.93964 0.0
H487 H 0.3173 0.13485 0.91992 0.0
H488 H 0.26332 0.09005 0.87933 0.0
H489 H 0.26237 0.06563 0.87352 0.0
H490 H 0.31051 0.08788 0.88705 0.0
H491 H 0.31132 0.11225 0.89264 0.0
H492 H 0.26361 0.11255 0.855 0.0
H493 H 0.26422 0.10277 0.82882 0.0
H494 H 0.31158 0.11693 0.83821 0.0
H495 H 0.31089 0.12678 0.86409 0.0
H496 H 0.26504 0.14486 0.8697 0.0
H497 H 0.2663 0.16109 0.8491 0.0
H498 H 0.31261 0.17243 0.84226 0.0
H499 H 0.3109 0.15574 0.86229 0.0
O500 O 0.2874 0.1569 0.98047 0.0
O501 O 0.31045 0.17572 0.97518 0.0
O502 O 0.27398 0.04844 0.87153 0.0
O503 O 0.29869 0.05933 0.87838 0.0
C504 C 0.28895 0.14598 0.89567 0.0
C505 C 0.29013 0.13797 0.90801 0.0
C506 C 0.28981 0.12396 0.90502 0.0
C507 C 0.28785 0.11768 0.88974 0.0
C508 C 0.28694 0.12579 0.87739 0.0
C509 C 0.28749 0.13993 0.88034 0.0
C510 C 0.29089 0.16147 0.89891 0.0
C511 C 0.28047 0.16321 0.90764 0.0
C512 C 0.28376 0.17791 0.913 0.0
C513 C 0.29731 0.19106 0.90932 0.0
C514 C 0.3073 0.18934 0.89988 0.0
C515 C 0.30421 0.17466 0.89489 0.0
C516 C 0.29242 0.14457 0.92415 0.0
C517 C 0.28085 0.13736 0.93435 0.0
C518 C 0.28288 0.14362 0.94947 0.0
C519 C 0.29653 0.1572 0.95465 0.0
C520 C 0.30816 0.16432 0.9444 0.0
C521 C 0.30613 0.15802 0.9293 0.0
C522 C 0.29347 0.11692 0.91773 0.0
C523 C 0.28229 0.10294 0.92308 0.0
C524 C 0.28622 0.09611 0.93453 0.0
C525 C 0.3014 0.10314 0.94071 0.0
C526 C 0.31246 0.11729 0.93541 0.0
C527 C 0.30851 0.12411 0.92407 0.0
C528 C 0.28734 0.10285 0.88654 0.0
C529 C 0.27363 0.0896 0.88106 0.0
C530 C 0.27313 0.07568 0.87775 0.0
C531 C 0.28637 0.07479 0.87986 0.0
C532 C 0.3001 0.08814 0.88534 0.0
C533 C 0.30058 0.10206 0.88861 0.0
C534 C 0.28719 0.12029 0.8614 0.0
C535 C 0.27411 0.1136 0.8513 0.0
C536 C 0.27447 0.10798 0.83643 0.0
C537 C 0.28797 0.10914 0.83145 0.0
C538 C 0.30108 0.11608 0.8416 0.0
C539 C 0.30068 0.12159 0.85642 0.0
C540 C 0.28783 0.14906 0.86737 0.0
C541 C 0.27534 0.15072 0.86356 0.0
C542 C 0.27616 0.1601 0.85188 0.0
C543 C 0.28956 0.16809 0.84395 0.0
C544 C 0.30197 0.16622 0.84781 0.0
C545 C 0.30107 0.15673 0.85932 0.0
C546 C 0.29861 0.16387 0.9707 0.0
C547 C 0.28591 0.06004 0.87632 0.0
H548 H 0.83297 0.14551 0.99207 0.0
H549 H 0.76311 0.01703 0.86558 0.0
H550 H 0.84413 0.15233 0.90753 0.0
H551 H 0.86275 0.178 0.91903 0.0
H552 H 0.89689 0.16481 0.92159 0.0
H553 H 0.87814 0.13919 0.90943 0.0
H554 H 0.81944 0.12705 0.92623 0.0
H555 H 0.82149 0.13545 0.95343 0.0
H556 H 0.86019 0.12952 0.96092 0.0
H557 H 0.85788 0.12096 0.93372 0.0
H558 H 0.79542 0.09738 0.90264 0.0
H559 H 0.7755 0.08507 0.92076 0.0
H560 H 0.80614 0.07847 0.95015 0.0
H561 H 0.82586 0.08995 0.93146 0.0
H562 H 0.79879 0.09398 0.87087 0.0
H563 H 0.77735 0.06903 0.86057 0.0
H564 H 0.79663 0.04586 0.8847 0.0
H565 H 0.81813 0.07092 0.89476 0.0
H566 H 0.82541 0.12416 0.86013 0.0
H567 H 0.81833 0.11797 0.8327 0.0
H568 H 0.82742 0.08068 0.83381 0.0
H569 H 0.83478 0.08718 0.8615 0.0
H570 H 0.8475 0.1497 0.87662 0.0
H571 H 0.86459 0.16783 0.859 0.0
H572 H 0.88676 0.14125 0.85376 0.0
H573 H 0.86913 0.12283 0.87119 0.0
O574 O 0.83235 0.14213 0.98136 0.0
O575 O 0.85228 0.13904 0.98457 0.0
O576 O 0.76213 0.03954 0.85718 0.0
O577 O 0.7715 0.02706 0.86944 0.0
C578 C 0.84799 0.12818 0.90164 0.0
C579 C 0.83715 0.11816 0.91154 0.0
C580 C 0.82464 0.1038 0.90556 0.0
C581 C 0.82319 0.0994 0.88965 0.0
C582 C 0.83391 0.10962 0.8797 0.0
C583 C 0.8464 0.12394 0.88575 0.0
C584 C 0.85982 0.14396 0.90772 0.0
C585 C 0.85568 0.15506 0.91045 0.0
C586 C 0.86631 0.16966 0.91715 0.0
C587 C 0.88127 0.17341 0.92147 0.0
C588 C 0.8855 0.16234 0.91833 0.0
C589 C 0.87483 0.14771 0.91146 0.0
C590 C 0.83844 0.12329 0.92806 0.0
C591 C 0.82829 0.1275 0.93379 0.0
C592 C 0.82952 0.13233 0.94932 0.0
C593 C 0.84099 0.13314 0.95936 0.0
C594 C 0.85121 0.12901 0.95351 0.0
C595 C 0.84994 0.12414 0.93799 0.0
C596 C 0.81208 0.09444 0.91561 0.0
C597 C 0.7977 0.09276 0.91268 0.0
C598 C 0.78638 0.08587 0.92307 0.0
C599 C 0.78939 0.08091 0.93677 0.0
C600 C 0.80363 0.08224 0.93962 0.0
C601 C 0.81484 0.08876 0.92898 0.0
C602 C 0.81011 0.08426 0.88341 0.0
C603 C 0.79844 0.08351 0.8738 0.0
C604 C 0.78617 0.06924 0.86799 0.0
C605 C 0.78529 0.05544 0.87178 0.0
C606 C 0.79696 0.05625 0.88152 0.0
C607 C 0.80925 0.07054 0.88729 0.0
C608 C 0.83087 0.1063 0.86277 0.0
C609 C 0.82628 0.11492 0.8544 0.0
C610 C 0.82221 0.11134 0.83872 0.0
C611 C 0.82244 0.09891 0.83107 0.0
C612 C 0.82713 0.09031 0.83943 0.0
C613 C 0.83139 0.09403 0.85517 0.0
C614 C 0.85718 0.13505 0.87528 0.0
C615 C 0.85614 0.14788 0.87178 0.0
C616 C 0.866 0.15827 0.86175 0.0
C617 C 0.87722 0.15613 0.85507 0.0
C618 C 0.87821 0.14321 0.85861 0.0
C619 C 0.86823 0.13272 0.86862 0.0
C620 C 0.84227 0.13827 0.97586 0.0
C621 C 0.77226 0.04024 0.86567 0.0
H622 H 0.86746 0.71883 0.01379 0.0
H623 H 0.74907 0.69003 0.88363 0.0
H624 H 0.88342 0.72772 0.92842 0.0
H625 H 0.90262 0.72221 0.93881 0.0
H626 H 0.8705 0.67331 0.9293 0.0
H627 H 0.85192 0.67904 0.91848 0.0
H628 H 0.85515 0.72969 0.9511 0.0
H629 H 0.86163 0.72966 0.97835 0.0
H630 H 0.84726 0.68132 0.97162 0.0
H631 H 0.84066 0.68147 0.94446 0.0
H632 H 0.81842 0.72261 0.93669 0.0
H633 H 0.79662 0.71349 0.95285 0.0
H634 H 0.79378 0.66929 0.95351 0.0
H635 H 0.8146 0.67811 0.93651 0.0
H636 H 0.82366 0.73162 0.90405 0.0
H637 H 0.79997 0.73048 0.89564 0.0
H638 H 0.77596 0.68063 0.89475 0.0
H639 H 0.79976 0.68198 0.90307 0.0
H640 H 0.84218 0.73304 0.88181 0.0
H641 H 0.83437 0.732 0.85462 0.0
H642 H 0.81702 0.68289 0.85063 0.0
H643 H 0.82487 0.6841 0.87765 0.0
H644 H 0.87228 0.73248 0.88783 0.0
H645 H 0.88772 0.73187 0.86706 0.0
H646 H 0.86711 0.68262 0.86971 0.0
H647 H 0.85167 0.68333 0.89022 0.0
O648 O 0.86475 0.71856 0.003 0.0
O649 O 0.85726 0.69373 -0.00108 0.0
O650 O 0.77148 0.71647 0.88753 0.0
O651 O 0.7586 0.69082 0.88694 0.0
C652 C 0.85398 0.70662 0.91813 0.0
C653 C 0.84394 0.70596 0.92924 0.0
C654 C 0.83047 0.70578 0.92467 0.0
C655 C 0.82774 0.70764 0.90916 0.0
C656 C 0.83811 0.70893 0.89815 0.0
C657 C 0.8511 0.70815 0.90258 0.0
C658 C 0.86637 0.70377 0.92262 0.0
C659 C 0.88077 0.71588 0.92829 0.0
C660 C 0.89163 0.71267 0.93434 0.0
C661 C 0.88815 0.69729 0.93494 0.0
C662 C 0.8738 0.68529 0.92876 0.0
C663 C 0.86309 0.68852 0.92261 0.0
C664 C 0.8476 0.70564 0.94579 0.0
C665 C 0.85341 0.71911 0.95555 0.0
C666 C 0.85711 0.71906 0.9711 0.0
C667 C 0.85503 0.7055 0.97716 0.0
C668 C 0.84907 0.69198 0.96732 0.0
C669 C 0.84536 0.69205 0.95178 0.0
C670 C 0.81816 0.70106 0.93551 0.0
C671 C 0.81303 0.71097 0.94035 0.0
C672 C 0.80066 0.70575 0.94968 0.0
C673 C 0.79333 0.69059 0.95445 0.0
C674 C 0.79885 0.68091 0.94984 0.0
C675 C 0.81097 0.68602 0.94032 0.0
C676 C 0.81337 0.70689 0.90415 0.0
C677 C 0.81326 0.72048 0.90199 0.0
C678 C 0.79973 0.71979 0.89721 0.0
C679 C 0.78606 0.70545 0.89453 0.0
C680 C 0.78627 0.69185 0.89672 0.0
C681 C 0.79982 0.69257 0.90147 0.0
C682 C 0.83408 0.70865 0.88162 0.0
C683 C 0.83676 0.72211 0.87499 0.0
C684 C 0.83226 0.72148 0.85951 0.0
C685 C 0.82514 0.70737 0.85047 0.0
C686 C 0.8227 0.69397 0.8572 0.0
C687 C 0.8271 0.69461 0.87263 0.0
C688 C 0.86111 0.708 0.89072 0.0
C689 C 0.87126 0.72161 0.884 0.0
C690 C 0.87998 0.72123 0.87212 0.0
C691 C 0.87871 0.70722 0.86687 0.0
C692 C 0.86857 0.69363 0.87373 0.0
C693 C 0.85977 0.69402 0.88547 0.0
C694 C 0.85906 0.70551 0.99366 0.0
C695 C 0.77165 0.70465 0.88946 0.0
H696 H 0.81756 0.63727 0.36994 0.0
H697 H 0.89636 0.60544 0.49954 0.0
H698 H 0.81512 0.64972 0.45198 0.0
H699 H 0.79703 0.6559 0.44071 0.0
H700 H 0.75969 0.61151 0.45167 0.0
H701 H 0.77817 0.60508 0.46223 0.0
H702 H 0.83607 0.64644 0.43553 0.0
H703 H 0.83194 0.64697 0.40786 0.0
H704 H 0.79328 0.60033 0.40644 0.0
H705 H 0.79768 0.59988 0.43412 0.0
H706 H 0.85928 0.64889 0.46106 0.0
H707 H 0.87994 0.65712 0.44379 0.0
H708 H 0.85516 0.61272 0.41804 0.0
H709 H 0.83435 0.60439 0.43569 0.0
H710 H 0.85918 0.64351 0.49302 0.0
H711 H 0.88124 0.64252 0.50316 0.0
H712 H 0.86222 0.59673 0.48081 0.0
H713 H 0.84012 0.5978 0.47091 0.0
H714 H 0.83134 0.64557 0.50596 0.0
H715 H 0.84063 0.64937 0.53274 0.0
H716 H 0.83574 0.60418 0.52948 0.0
H717 H 0.82509 0.59996 0.50299 0.0
H718 H 0.80876 0.64753 0.48575 0.0
H719 H 0.79443 0.65129 0.50562 0.0
H720 H 0.77829 0.605 0.51897 0.0
H721 H 0.79214 0.60112 0.49853 0.0
O722 O 0.81903 0.63679 0.38087 0.0
O723 O 0.79921 0.61283 0.38077 0.0
O724 O 0.89702 0.62969 0.50698 0.0
O725 O 0.88776 0.60614 0.49568 0.0
C726 C 0.80946 0.62322 0.46375 0.0
C727 C 0.81973 0.62263 0.45361 0.0
C728 C 0.8325 0.62218 0.45951 0.0
C729 C 0.83442 0.62111 0.47541 0.0
C730 C 0.82397 0.62127 0.48558 0.0
C731 C 0.81151 0.62244 0.47974 0.0
C732 C 0.79798 0.62687 0.45772 0.0
C733 C 0.80303 0.64127 0.45185 0.0
C734 C 0.79263 0.64486 0.4456 0.0
C735 C 0.77684 0.63425 0.44533 0.0
C736 C 0.77176 0.61988 0.45151 0.0
C737 C 0.78227 0.61622 0.45765 0.0
C738 C 0.8173 0.62304 0.43678 0.0
C739 C 0.82682 0.63629 0.4292 0.0
C740 C 0.82438 0.63659 0.4134 0.0
C741 C 0.81231 0.62367 0.40492 0.0
C742 C 0.80271 0.61046 0.41261 0.0
C743 C 0.80519 0.61017 0.42841 0.0
C744 C 0.84538 0.62604 0.44965 0.0
C745 C 0.8584 0.64082 0.45186 0.0
C746 C 0.8701 0.64556 0.4419 0.0
C747 C 0.86902 0.63562 0.42948 0.0
C748 C 0.85622 0.62057 0.42755 0.0
C749 C 0.84439 0.61583 0.43756 0.0
C750 C 0.84797 0.62064 0.4814 0.0
C751 C 0.85975 0.63324 0.49042 0.0
C752 C 0.87236 0.63266 0.49615 0.0
C753 C 0.87347 0.61952 0.49284 0.0
C754 C 0.86171 0.60701 0.48362 0.0
C755 C 0.84909 0.60759 0.47793 0.0
C756 C 0.82744 0.62245 0.50249 0.0
C757 C 0.83171 0.63624 0.51118 0.0
C758 C 0.83734 0.63851 0.52645 0.0
C759 C 0.8393 0.62724 0.53325 0.0
C760 C 0.83431 0.6131 0.52472 0.0
C761 C 0.82831 0.61069 0.50953 0.0
C762 C 0.80139 0.624 0.4906 0.0
C763 C 0.80177 0.63805 0.49266 0.0
C764 C 0.79376 0.64025 0.50418 0.0
C765 C 0.78533 0.6285 0.51399 0.0
C766 C 0.78453 0.61423 0.51153 0.0
C767 C 0.79248 0.61201 0.49991 0.0
C768 C 0.80973 0.62404 0.38814 0.0
C769 C 0.88681 0.61882 0.49895 0.0
H770 H 0.36299 0.17241 0.39546 0.0
H771 H 0.39009 0.29017 0.52381 0.0
H772 H 0.35598 0.16242 0.47622 0.0
H773 H 0.35166 0.1374 0.46641 0.0
H774 H 0.3969 0.15023 0.484 0.0
H775 H 0.40146 0.17574 0.49333 0.0
H776 H 0.35573 0.18537 0.45968 0.0
H777 H 0.35435 0.17886 0.43209 0.0
H778 H 0.40143 0.19049 0.43584 0.0
H779 H 0.40271 0.19715 0.46342 0.0
H780 H 0.35227 0.2065 0.48252 0.0
H781 H 0.34431 0.21985 0.46536 0.0
H782 H 0.38902 0.24261 0.44727 0.0
H783 H 0.39697 0.22921 0.46474 0.0
H784 H 0.35873 0.21362 0.51684 0.0
H785 H 0.35763 0.23628 0.52601 0.0
H786 H 0.40116 0.26592 0.50726 0.0
H787 H 0.4022 0.24317 0.49833 0.0
H788 H 0.36178 0.18673 0.53215 0.0
H789 H 0.3595 0.19459 0.55823 0.0
H790 H 0.40149 0.23824 0.55544 0.0
H791 H 0.4044 0.22954 0.52988 0.0
H792 H 0.36013 0.1613 0.51194 0.0
H793 H 0.36019 0.14426 0.53084 0.0
H794 H 0.40649 0.17887 0.5464 0.0
H795 H 0.40633 0.19589 0.52732 0.0
O796 O 0.36381 0.17514 0.40638 0.0
O797 O 0.38803 0.18121 0.40894 0.0
O798 O 0.36792 0.26528 0.52983 0.0
O799 O 0.39023 0.28101 0.52032 0.0
C800 C 0.38142 0.18622 0.49094 0.0
C801 C 0.38026 0.19579 0.48032 0.0
C802 C 0.37969 0.20885 0.48569 0.0
C803 C 0.38137 0.21302 0.50162 0.0
C804 C 0.3831 0.20381 0.5123 0.0
C805 C 0.38291 0.19025 0.50695 0.0
C806 C 0.37914 0.17103 0.48523 0.0
C807 C 0.36509 0.15999 0.47773 0.0
C808 C 0.36262 0.1457 0.47218 0.0
C809 C 0.37402 0.14201 0.47434 0.0
C810 C 0.38798 0.15288 0.48218 0.0
C811 C 0.39058 0.16739 0.48748 0.0
C812 C 0.37938 0.19192 0.46351 0.0
C813 C 0.36578 0.18668 0.4545 0.0
C814 C 0.36501 0.18288 0.43875 0.0
C815 C 0.3778 0.18419 0.43174 0.0
C816 C 0.39138 0.18938 0.44086 0.0
C817 C 0.39215 0.1932 0.45661 0.0
C818 C 0.37519 0.21695 0.47488 0.0
C819 C 0.36034 0.21435 0.47483 0.0
C820 C 0.35578 0.22188 0.46493 0.0
C821 C 0.36601 0.2322 0.45489 0.0
C822 C 0.38092 0.23476 0.45493 0.0
C823 C 0.38547 0.22712 0.46483 0.0
C824 C 0.38061 0.22677 0.50705 0.0
C825 C 0.36805 0.22502 0.5148 0.0
C826 C 0.36743 0.23798 0.51999 0.0
C827 C 0.37933 0.25292 0.5174 0.0
C828 C 0.39182 0.25459 0.50948 0.0
C829 C 0.39244 0.24163 0.50435 0.0
C830 C 0.38326 0.20754 0.52906 0.0
C831 C 0.37081 0.19773 0.5374 0.0
C832 C 0.36937 0.20242 0.55224 0.0
C833 C 0.38008 0.21727 0.55889 0.0
C834 C 0.39303 0.22671 0.55082 0.0
C835 C 0.39468 0.2218 0.53613 0.0
C836 C 0.38327 0.17978 0.51815 0.0
C837 C 0.37037 0.16511 0.51926 0.0
C838 C 0.37044 0.15538 0.53005 0.0
C839 C 0.38339 0.16018 0.54005 0.0
C840 C 0.39633 0.17488 0.5389 0.0
C841 C 0.39628 0.18459 0.52801 0.0
C842 C 0.37692 0.18011 0.41502 0.0
C843 C 0.37876 0.26673 0.52291 0.0
H844 H 0.80522 0.18595 0.37529 0.0
H845 H 0.93134 0.28979 0.49477 0.0
H846 H 0.79652 0.18834 0.45704 0.0
H847 H 0.77462 0.16309 0.44772 0.0
H848 H 0.79764 0.14079 0.466 0.0
H849 H 0.8194 0.16593 0.47507 0.0
H850 H 0.82401 0.21597 0.43757 0.0
H851 H 0.81555 0.20698 0.41055 0.0
H852 H 0.82142 0.16807 0.41673 0.0
H853 H 0.83004 0.17729 0.44366 0.0
H854 H 0.85779 0.24448 0.45057 0.0
H855 H 0.87827 0.25624 0.43273 0.0
H856 H 0.88125 0.21501 0.43091 0.0
H857 H 0.8608 0.20342 0.4483 0.0
H858 H 0.85515 0.24897 0.48991 0.0
H859 H 0.87902 0.27332 0.49677 0.0
H860 H 0.90456 0.25201 0.48237 0.0
H861 H 0.88062 0.22771 0.47575 0.0
H862 H 0.83173 0.22281 0.51374 0.0
H863 H 0.84244 0.23058 0.54051 0.0
H864 H 0.8782 0.22155 0.5294 0.0
H865 H 0.86732 0.21354 0.50291 0.0
H866 H 0.80226 0.19485 0.49766 0.0
H867 H 0.78825 0.17847 0.51817 0.0
H868 H 0.8219 0.16473 0.5226 0.0
H869 H 0.83607 0.18167 0.5027 0.0
O870 O 0.80864 0.18932 0.386 0.0
O871 O 0.81177 0.16946 0.3898 0.0
O872 O 0.90808 0.29069 0.49948 0.0
O873 O 0.92174 0.28031 0.49216 0.0
C874 C 0.8235 0.19417 0.47086 0.0
C875 C 0.83254 0.20273 0.459 0.0
C876 C 0.84677 0.21633 0.4627 0.0
C877 C 0.85158 0.2219 0.47823 0.0
C878 C 0.84268 0.21322 0.4901 0.0
C879 C 0.82871 0.1993 0.48641 0.0
C880 C 0.80946 0.17895 0.4669 0.0
C881 C 0.79668 0.17796 0.45923 0.0
C882 C 0.78425 0.16357 0.45385 0.0
C883 C 0.78441 0.14997 0.45616 0.0
C884 C 0.79706 0.15102 0.46427 0.0
C885 C 0.80949 0.16538 0.46951 0.0
C886 C 0.82746 0.19718 0.4426 0.0
C887 C 0.82346 0.20551 0.43305 0.0
C888 C 0.81862 0.20034 0.41764 0.0
C889 C 0.81775 0.18677 0.4115 0.0
C890 C 0.8219 0.17852 0.4211 0.0
C891 C 0.82676 0.18373 0.4365 0.0
C892 C 0.85778 0.22308 0.45062 0.0
C893 C 0.86272 0.23795 0.44603 0.0
C894 C 0.87446 0.24465 0.43595 0.0
C895 C 0.88139 0.23655 0.43035 0.0
C896 C 0.876 0.22147 0.43469 0.0
C897 C 0.86432 0.21483 0.44468 0.0
C898 C 0.86616 0.23665 0.48217 0.0
C899 C 0.86592 0.24961 0.48823 0.0
C900 C 0.87956 0.26349 0.49214 0.0
C901 C 0.89371 0.26463 0.49007 0.0
C902 C 0.89388 0.25156 0.48406 0.0
C903 C 0.88023 0.23768 0.48019 0.0
C904 C 0.84888 0.21783 0.50635 0.0
C905 C 0.84184 0.22247 0.51715 0.0
C906 C 0.84792 0.22685 0.53238 0.0
C907 C 0.86122 0.22679 0.53695 0.0
C908 C 0.86809 0.22194 0.52613 0.0
C909 C 0.86191 0.21739 0.51101 0.0
C910 C 0.82017 0.18946 0.4988 0.0
C911 C 0.80659 0.18834 0.50318 0.0
C912 C 0.79857 0.1789 0.51481 0.0
C913 C 0.80394 0.17027 0.5221 0.0
C914 C 0.81757 0.17143 0.51753 0.0
C915 C 0.82565 0.18101 0.50608 0.0
C916 C 0.81255 0.18128 0.39513 0.0
C917 C 0.90823 0.27935 0.4942 0.0
H918 H 0.99598 0.50743 0.32684 0.0
H919 H 0.00264 0.40382 0.19965 0.0
H920 H 0.97116 0.50168 0.24681 0.0
H921 H 0.97471 0.52647 0.25671 0.0
H922 H 0.01754 0.55031 0.23498 0.0
H923 H 0.01375 0.52551 0.22497 0.0
H924 H 0.97416 0.47654 0.26513 0.0
H925 H 0.97916 0.48609 0.29226 0.0
H926 H 0.02389 0.52316 0.28232 0.0
H927 H 0.01879 0.51338 0.25527 0.0
H928 H 0.97211 0.44767 0.24905 0.0
H929 H 0.97732 0.43332 0.26773 0.0
H930 H 0.0253 0.46835 0.26997 0.0
H931 H 0.01982 0.48279 0.25175 0.0
H932 H 0.96563 0.44168 0.2111 0.0
H933 H 0.96521 0.41799 0.2027 0.0
H934 H 0.01388 0.44098 0.21361 0.0
H935 H 0.01416 0.46463 0.2218 0.0
H936 H 0.963 0.46378 0.19048 0.0
H937 H 0.96093 0.45228 0.16439 0.0
H938 H 0.00925 0.46869 0.16812 0.0
H939 H 0.01119 0.48026 0.19389 0.0
H940 H 0.9647 0.49633 0.21083 0.0
H941 H 0.96224 0.513 0.19298 0.0
H942 H 0.00494 0.52327 0.17435 0.0
H943 H 0.00763 0.5072 0.19277 0.0
O944 O 0.99425 0.50384 0.31607 0.0
O945 O 0.01709 0.52273 0.31034 0.0
O946 O 0.97746 0.40173 0.1975 0.0
O947 O 0.00246 0.41301 0.20296 0.0
C948 C 0.99087 0.49689 0.23053 0.0
C949 C 0.99301 0.48846 0.24182 0.0
C950 C 0.99259 0.47464 0.23742 0.0
C951 C 0.99015 0.46927 0.22177 0.0
C952 C 0.98829 0.47784 0.21046 0.0
C953 C 0.98841 0.49153 0.21484 0.0
C954 C 0.9922 0.51184 0.23519 0.0
C955 C 0.9812 0.51229 0.24405 0.0
C956 C 0.9833 0.52644 0.24977 0.0
C957 C 0.99646 0.54036 0.24672 0.0
C958 C 0.0072 0.53983 0.23739 0.0
C959 C 0.00508 0.52568 0.23169 0.0
C960 C 0.99609 0.4943 0.25826 0.0
C961 C 0.98504 0.4867 0.26886 0.0
C962 C 0.98792 0.49219 0.28433 0.0
C963 C 0.00192 0.5054 0.28945 0.0
C964 C 0.01298 0.51297 0.27876 0.0
C965 C 0.01009 0.50744 0.2633 0.0
C966 C 0.9956 0.46622 0.24912 0.0
C967 C 0.9837 0.45225 0.25372 0.0
C968 C 0.98673 0.44406 0.2643 0.0
C969 C 0.00175 0.44966 0.27034 0.0
C970 C 0.01359 0.46381 0.26578 0.0
C971 C 0.01051 0.47204 0.25531 0.0
C972 C 0.9899 0.45481 0.21712 0.0
C973 C 0.97618 0.44155 0.21168 0.0
C974 C 0.97597 0.42805 0.2069 0.0
C975 C 0.98952 0.42759 0.2075 0.0
C976 C 0.00325 0.44092 0.21302 0.0
C977 C 0.00343 0.45442 0.21776 0.0
C978 C 0.98723 0.47281 0.19401 0.0
C979 C 0.97315 0.46514 0.18546 0.0
C980 C 0.97198 0.45851 0.17065 0.0
C981 C 0.98492 0.45955 0.1642 0.0
C982 C -0.00089 0.46786 0.17262 0.0
C983 C 0.00024 0.47442 0.18738 0.0
C984 C 0.98631 0.50052 0.20305 0.0
C985 C 0.97347 0.50213 0.20282 0.0
C986 C 0.97204 0.51158 0.19255 0.0
C987 C 0.98342 0.51953 0.18225 0.0
C988 C 0.99609 0.51753 0.18228 0.0
C989 C -0.00244 0.50819 0.19265 0.0
C990 C 0.00493 0.51123 0.30589 0.0
C991 C 0.98939 0.41331 0.20235 0.0
H992 H 0.51177 0.49234 0.3295 0.0
H993 H 0.42566 0.35643 0.20514 0.0
H994 H 0.51325 0.49285 0.23315 0.0
H995 H 0.53206 0.51932 0.24218 0.0
H996 H 0.55953 0.50343 0.26423 0.0
H997 H 0.5409 0.4769 0.25425 0.0
H998 H 0.49661 0.47722 0.26331 0.0
H999 H 0.50116 0.48634 0.29056 0.0
H1000 H 0.52233 0.45941 0.2989 0.0
H1001 H 0.51769 0.45041 0.27161 0.0
H1002 H 0.46666 0.44751 0.24651 0.0
H1003 H 0.44665 0.43702 0.2646 0.0
H1004 H 0.46728 0.41338 0.28524 0.0
H1005 H 0.48716 0.42368 0.26656 0.0
H1006 H 0.45919 0.43278 0.21896 0.0
H1007 H 0.4366 0.40796 0.21023 0.0
H1008 H 0.46186 0.38512 0.21904 0.0
H1009 H 0.48441 0.41007 0.22761 0.0
H1010 H 0.47848 0.45502 0.20242 0.0
H1011 H 0.46668 0.44619 0.1764 0.0
H1012 H 0.49045 0.42139 0.16994 0.0
H1013 H 0.5025 0.43057 0.19623 0.0
H1014 H 0.50341 0.4793 0.20451 0.0
H1015 H 0.51935 0.49757 0.18639 0.0
H1016 H 0.55492 0.48754 0.19682 0.0
H1017 H 0.53843 0.46861 0.21458 0.0
O1018 O 0.51015 0.48866 0.31876 0.0
O1019 O 0.52122 0.47488 0.32238 0.0
O1020 O 0.422 0.37872 0.20403 0.0
O1021 O 0.4344 0.36639 0.2086 0.0
C1022 C 0.51364 0.4669 0.23804 0.0
C1023 C 0.50391 0.45756 0.2491 0.0
C1024 C 0.4905 0.44347 0.24437 0.0
C1025 C 0.48728 0.43825 0.22868 0.0
C1026 C 0.49686 0.44762 0.21756 0.0
C1027 C 0.51009 0.46194 0.22223 0.0
C1028 C 0.52582 0.483 0.24284 0.0
C1029 C 0.52351 0.49513 0.23961 0.0
C1030 C 0.53417 0.51023 0.24501 0.0
C1031 C 0.54725 0.51352 0.2541 0.0
C1032 C 0.54967 0.50134 0.25714 0.0
C1033 C 0.53903 0.48618 0.25153 0.0
C1034 C 0.50688 0.46323 0.26555 0.0
C1035 C 0.50227 0.47337 0.27106 0.0
C1036 C 0.50487 0.47852 0.28662 0.0
C1037 C 0.51212 0.4736 0.29691 0.0
C1038 C 0.51673 0.46343 0.29129 0.0
C1039 C 0.51411 0.45827 0.27573 0.0
C1040 C 0.47824 0.43624 0.25518 0.0
C1041 C 0.46676 0.43993 0.25484 0.0
C1042 C 0.45546 0.43407 0.2653 0.0
C1043 C 0.45547 0.42451 0.27649 0.0
C1044 C 0.46693 0.42066 0.27671 0.0
C1045 C 0.47828 0.42653 0.26611 0.0
C1046 C 0.47342 0.42318 0.22383 0.0
C1047 C 0.45981 0.4224 0.21897 0.0
C1048 C 0.44693 0.40821 0.21401 0.0
C1049 C 0.44744 0.39454 0.21391 0.0
C1050 C 0.46109 0.39541 0.21895 0.0
C1051 C 0.47397 0.40962 0.22387 0.0
C1052 C 0.49143 0.44355 0.20112 0.0
C1053 C 0.4814 0.44794 0.1953 0.0
C1054 C 0.47454 0.44274 0.18051 0.0
C1055 C 0.4775 0.43295 0.17124 0.0
C1056 C 0.48801 0.42897 0.17686 0.0
C1057 C 0.49489 0.43419 0.1918 0.0
C1058 C 0.51961 0.47237 0.21059 0.0
C1059 C 0.51447 0.48072 0.2026 0.0
C1060 C 0.52374 0.49139 0.19246 0.0
C1061 C 0.53848 0.49412 0.19025 0.0
C1062 C 0.54358 0.4856 0.19817 0.0
C1063 C 0.53421 0.47483 0.20831 0.0
C1064 C 0.5148 0.47905 0.31345 0.0
C1065 C 0.43382 0.37945 0.20854 0.0
H1066 H 0.5156 0.00722 0.3424 0.0
H1067 H 0.39978 0.98867 0.21789 0.0
H1068 H 0.53174 0.02664 0.26531 0.0
H1069 H 0.55123 0.02189 0.27616 0.0
H1070 H 0.5316 0.97918 0.24756 0.0
H1071 H 0.51183 0.98373 0.23728 0.0
H1072 H 0.5032 0.02451 0.28297 0.0
H1073 H 0.50895 0.02138 0.30955 0.0
H1074 H 0.50276 0.97685 0.29532 0.0
H1075 H 0.49682 0.98003 0.26885 0.0
H1076 H 0.47256 0.02288 0.26504 0.0
H1077 H 0.45251 0.01657 0.28283 0.0
H1078 H 0.44771 0.97182 0.28709 0.0
H1079 H 0.46689 0.97784 0.26841 0.0
H1080 H 0.47566 0.02953 0.22985 0.0
H1081 H 0.45176 0.02831 0.22229 0.0
H1082 H 0.42674 0.9796 0.22964 0.0
H1083 H 0.45073 0.98095 0.237 0.0
H1084 H 0.50207 0.03364 0.21049 0.0
H1085 H 0.49439 0.03524 0.18394 0.0
H1086 H 0.4609 0.98644 0.18119 0.0
H1087 H 0.4686 0.98497 0.20758 0.0
H1088 H 0.53277 0.03177 0.22855 0.0
H1089 H 0.55039 0.03344 0.20928 0.0
H1090 H 0.51496 0.98983 0.18707 0.0
H1091 H 0.49787 0.98787 0.20689 0.0
O1092 O 0.51322 0.00818 0.33183 0.0
O1093 O 0.51 0.98541 0.3239 0.0
O1094 O 0.4228 0.01453 0.21713 0.0
O1095 O 0.4094 0.98948 0.2208 0.0
C1096 C 0.50674 0.00664 0.24648 0.0
C1097 C 0.49637 0.00461 0.25783 0.0
C1098 C 0.48266 0.00421 0.25379 0.0
C1099 C 0.47946 0.00612 0.23844 0.0
C1100 C 0.48985 0.00822 0.22713 0.0
C1101 C 0.50348 0.00841 0.23111 0.0
C1102 C 0.52032 0.00547 0.25061 0.0
C1103 C 0.53187 0.01642 0.26118 0.0
C1104 C 0.54302 0.01372 0.2673 0.0
C1105 C 0.54283 5e-05 0.26286 0.0
C1106 C 0.53188 0.98968 0.25142 0.0
C1107 C 0.52068 0.99234 0.2454 0.0
C1108 C 0.4997 0.00255 0.27398 0.0
C1109 C 0.50305 0.01408 0.28564 0.0
C1110 C 0.50636 0.01226 0.3008 0.0
C1111 C 0.50636 -0.00112 0.30455 0.0
C1112 C 0.5029 0.98731 0.29282 0.0
C1113 C 0.49955 0.98912 0.27768 0.0
C1114 C 0.4712 0.00083 0.26542 0.0
C1115 C 0.46712 0.0117 0.2698 0.0
C1116 C 0.45575 0.00811 0.28011 0.0
C1117 C 0.44841 0.99365 0.28646 0.0
C1118 C 0.45284 0.98295 0.28227 0.0
C1119 C 0.46399 0.98644 0.27174 0.0
C1120 C 0.46491 0.00535 0.23401 0.0
C1121 C 0.465 0.01861 0.22979 0.0
C1122 C 0.45134 0.01788 0.2255 0.0
C1123 C 0.43733 0.00385 0.22538 0.0
C1124 C 0.43731 0.99058 0.22962 0.0
C1125 C 0.45099 0.99133 0.23387 0.0
C1126 C 0.48587 0.00919 0.21089 0.0
C1127 C 0.49316 0.02331 0.20406 0.0
C1128 C 0.48872 0.02422 0.18899 0.0
C1129 C 0.47709 0.01095 0.18052 0.0
C1130 C 0.47003 0.9968 0.18737 0.0
C1131 C 0.47434 0.99595 0.20244 0.0
C1132 C 0.514 0.00977 0.21905 0.0
C1133 C 0.52887 0.02258 0.21952 0.0
C1134 C 0.53888 0.02356 0.20842 0.0
C1135 C 0.53414 0.01177 0.19658 0.0
C1136 C 0.51913 -0.00098 0.19613 0.0
C1137 C 0.50924 0.99797 0.20732 0.0
C1138 C 0.50996 0.99703 0.32065 0.0
C1139 C 0.42278 0.00301 0.22085 0.0
H1140 H 0.51057 0.02014 0.71667 0.0
H1141 H 0.58593 0.97395 0.83767 0.0
H1142 H 0.50042 0.01865 0.79991 0.0
H1143 H 0.48113 0.02281 0.78763 0.0
H1144 H 0.44852 0.97377 0.78621 0.0
H1145 H 0.4679 0.96984 0.79896 0.0
H1146 H 0.52565 0.01937 0.78176 0.0
H1147 H 0.5229 0.02416 0.75493 0.0
H1148 H 0.4855 0.97703 0.74646 0.0
H1149 H 0.4885 0.97237 0.77329 0.0
H1150 H 0.54967 0.01732 0.80302 0.0
H1151 H 0.5701 0.02394 0.78563 0.0
H1152 H 0.5415 0.98078 0.75859 0.0
H1153 H 0.52119 0.97406 0.77638 0.0
H1154 H 0.54653 0.01008 0.83656 0.0
H1155 H 0.56872 0.00898 0.8461 0.0
H1156 H 0.55212 0.96596 0.81873 0.0
H1157 H 0.5299 0.9671 0.80943 0.0
H1158 H 0.51702 0.00813 0.85121 0.0
H1159 H 0.52409 0.00722 0.87789 0.0
H1160 H 0.52086 0.96348 0.86631 0.0
H1161 H 0.51245 0.9639 0.83995 0.0
H1162 H 0.49537 0.01258 0.83088 0.0
H1163 H 0.4783 0.01259 0.84983 0.0
H1164 H 0.46226 0.96465 0.85646 0.0
H1165 H 0.47899 0.9646 0.83693 0.0
O1166 O 0.51152 0.01797 0.7272 0.0
O1167 O 0.49233 0.99366 0.72346 0.0
O1168 O 0.58526 0.99678 0.848 0.0
O1169 O 0.57726 0.97467 0.83409 0.0
C1170 C 0.4979 0.99147 0.80596 0.0
C1171 C 0.50886 0.99268 0.79575 0.0
C1172 C 0.52152 0.99181 0.8012 0.0
C1173 C 0.52299 0.98919 0.81675 0.0
C1174 C 0.51188 0.9877 0.82698 0.0
C1175 C 0.49937 0.98897 0.82157 0.0
C1176 C 0.48553 0.99396 0.8003 0.0
C1177 C 0.48903 0.00885 0.79716 0.0
C1178 C 0.47803 0.01117 0.79001 0.0
C1179 C 0.46333 -0.00141 0.78573 0.0
C1180 C 0.45969 0.98372 0.78945 0.0
C1181 C 0.47072 0.98143 0.7967 0.0
C1182 C 0.50734 0.9955 0.7794 0.0
C1183 C 0.51696 0.01007 0.77405 0.0
C1184 C 0.51532 0.01278 0.75874 0.0
C1185 C 0.50398 0.00097 0.74855 0.0
C1186 C 0.49435 0.98638 0.754 0.0
C1187 C 0.49604 0.98368 0.7693 0.0
C1188 C 0.53402 0.9952 0.79097 0.0
C1189 C 0.5479 0.00922 0.79344 0.0
C1190 C 0.55947 0.01305 0.78341 0.0
C1191 C 0.55735 0.00293 0.77067 0.0
C1192 C 0.54349 0.98874 0.76837 0.0
C1193 C 0.53189 0.98492 0.77845 0.0
C1194 C 0.53656 0.98861 0.8224 0.0
C1195 C 0.54768 0.00039 0.83271 0.0
C1196 C 0.56035 -0.00025 0.8381 0.0
C1197 C 0.56218 0.98736 0.83319 0.0
C1198 C 0.55106 0.97565 0.82275 0.0
C1199 C 0.53837 0.97628 0.8174 0.0
C1200 C 0.51418 0.98607 0.84359 0.0
C1201 C 0.51734 -0.0019 0.85455 0.0
C1202 C 0.52168 0.99768 0.86978 0.0
C1203 C 0.52339 0.98542 0.87431 0.0
C1204 C 0.51957 0.97306 0.86339 0.0
C1205 C 0.51486 0.97332 0.84824 0.0
C1206 C 0.48831 0.98856 0.83244 0.0
C1207 C 0.48794 0.002 0.83619 0.0
C1208 C 0.47833 0.00203 0.84717 0.0
C1209 C 0.469 0.98865 0.85473 0.0
C1210 C 0.46919 0.9751 0.85073 0.0
C1211 C 0.47878 0.97506 0.83965 0.0
C1212 C 0.50221 0.00391 0.73231 0.0
C1213 C 0.57561 0.98661 0.8389 0.0
H1214 H 0.98469 0.46656 0.73879 0.0
H1215 H 0.02401 0.60798 0.85806 0.0
H1216 H 0.99263 0.47551 0.83691 0.0
H1217 H 0.98845 0.45001 0.82955 0.0
H1218 H 0.02855 0.47089 0.80322 0.0
H1219 H 0.03315 0.4965 0.81147 0.0
H1220 H 0.98718 0.48431 0.80409 0.0
H1221 H 0.98203 0.47313 0.77755 0.0
H1222 H 0.02529 0.5113 0.76569 0.0
H1223 H 0.03038 0.52227 0.79235 0.0
H1224 H 0.98521 0.51253 0.80304 0.0
H1225 H 0.97782 0.5251 0.78431 0.0
H1226 H 0.02267 0.56616 0.79145 0.0
H1227 H 0.03023 0.55301 0.80929 0.0
H1228 H 0.98959 0.53328 0.83433 0.0
H1229 H 0.98805 0.55626 0.84079 0.0
H1230 H 0.03687 0.58263 0.85134 0.0
H1231 H 0.03825 0.5596 0.84467 0.0
H1232 H 0.99434 0.5196 0.86403 0.0
H1233 H 0.99599 0.53137 0.88967 0.0
H1234 H 0.04508 0.55279 0.89176 0.0
H1235 H 0.04327 0.54068 0.86597 0.0
H1236 H -0.00239 0.49512 0.86565 0.0
H1237 H -0.00113 0.47905 0.88489 0.0
H1238 H 0.04156 0.487 0.8682 0.0
H1239 H 0.0406 0.50388 0.84949 0.0
O1240 O 0.98699 0.47116 0.74924 0.0
O1241 O 0.00931 0.49106 0.74371 0.0
O1242 O -0.00074 0.58469 0.84969 0.0
O1243 O 0.0243 0.59874 0.85536 0.0
C1244 C 0.01484 0.50317 0.82829 0.0
C1245 C 0.01233 0.51077 0.81632 0.0
C1246 C 0.01227 0.52454 0.81977 0.0
C1247 C 0.01489 0.53079 0.83516 0.0
C1248 C 0.01746 0.52325 0.8471 0.0
C1249 C 0.01747 0.50945 0.84371 0.0
C1250 C 0.01322 0.48786 0.82478 0.0
C1251 C 0.00073 0.4746 0.82987 0.0
C1252 C -0.00175 0.46002 0.82547 0.0
C1253 C 0.00805 0.45837 0.81563 0.0
C1254 C 0.02086 0.47173 0.81092 0.0
C1255 C 0.02345 0.48637 0.81552 0.0
C1256 C 0.00921 0.50403 0.80016 0.0
C1257 C 0.99557 0.49018 0.79577 0.0
C1258 C 0.99264 0.48385 0.78058 0.0
C1259 C 0.00326 0.49131 0.7695 0.0
C1260 C 0.01688 0.50525 0.77395 0.0
C1261 C 0.01981 0.51154 0.78915 0.0
C1262 C 0.00828 0.53183 0.80749 0.0
C1263 C 0.99355 0.5241 0.80025 0.0
C1264 C 0.98928 0.53141 0.7897 0.0
C1265 C -0.00042 0.54673 0.78641 0.0
C1266 C 0.01447 0.5543 0.79347 0.0
C1267 C 0.01881 0.54686 0.8038 0.0
C1268 C 0.01404 0.54481 0.83898 0.0
C1269 C -6e-05 0.54406 0.83796 0.0
C1270 C -0.0009 0.55718 0.8417 0.0
C1271 C 0.01235 0.57129 0.84659 0.0
C1272 C 0.02645 0.57197 0.84762 0.0
C1273 C 0.02728 0.55883 0.84383 0.0
C1274 C 0.01867 0.52919 0.86326 0.0
C1275 C 0.00542 0.52658 0.87015 0.0
C1276 C 0.00639 0.53329 0.88478 0.0
C1277 C 0.02067 0.54293 0.89271 0.0
C1278 C 0.03395 0.54541 0.88586 0.0
C1279 C 0.03294 0.53846 0.87125 0.0
C1280 C 0.01913 0.5009 0.85632 0.0
C1281 C 0.00747 0.49379 0.86645 0.0
C1282 C 0.00808 0.48435 0.87725 0.0
C1283 C 0.02023 0.48155 0.87799 0.0
C1284 C 0.03211 0.489 0.86806 0.0
C1285 C 0.03156 0.49861 0.85733 0.0
C1286 C 9e-05 0.48456 0.75337 0.0
C1287 C 0.01151 0.58526 0.85062 0.0
H1288 H 0.47762 0.5157 0.71874 0.0
H1289 H 0.59303 0.62437 0.85808 0.0
H1290 H 0.46169 0.51665 0.8126 0.0
H1291 H 0.4415 0.49051 0.80323 0.0
H1292 H 0.47596 0.47969 0.79124 0.0
H1293 H 0.49578 0.50528 0.80149 0.0
H1294 H 0.4815 0.53729 0.78307 0.0
H1295 H 0.47635 0.52903 0.75562 0.0
H1296 H 0.51336 0.5199 0.75737 0.0
H1297 H 0.51825 0.528 0.78484 0.0
H1298 H 0.51899 0.56942 0.78371 0.0
H1299 H 0.53964 0.57973 0.76584 0.0
H1300 H 0.56306 0.56207 0.79237 0.0
H1301 H 0.54249 0.55173 0.80986 0.0
H1302 H 0.52526 0.58617 0.81865 0.0
H1303 H 0.54811 0.61066 0.82775 0.0
H1304 H 0.56599 0.58562 0.85066 0.0
H1305 H 0.54318 0.56125 0.84135 0.0
H1306 H 0.50604 0.57048 0.85061 0.0
H1307 H 0.51388 0.57923 0.87781 0.0
H1308 H 0.52617 0.54439 0.88214 0.0
H1309 H 0.51778 0.53547 0.85524 0.0
H1310 H 0.47536 0.53739 0.84625 0.0
H1311 H 0.45979 0.52104 0.86612 0.0
H1312 H 0.47625 0.48991 0.85628 0.0
H1313 H 0.49208 0.50655 0.83686 0.0
O1314 O 0.47987 0.51894 0.7296 0.0
O1315 O 0.49907 0.51452 0.73108 0.0
O1316 O 0.5742 0.62719 0.84232 0.0
O1317 O 0.58388 0.61486 0.85432 0.0
C1318 C 0.49263 0.52871 0.81306 0.0
C1319 C 0.50317 0.53826 0.80261 0.0
C1320 C 0.51645 0.55216 0.80813 0.0
C1321 C 0.51861 0.55718 0.82387 0.0
C1322 C 0.50791 0.54785 0.83428 0.0
C1323 C 0.49503 0.53352 0.8289 0.0
C1324 C 0.48019 0.51291 0.80756 0.0
C1325 C 0.46479 0.50853 0.80806 0.0
C1326 C 0.4533 0.49363 0.80259 0.0
C1327 C 0.45705 0.48293 0.79645 0.0
C1328 C 0.47255 0.48744 0.79612 0.0
C1329 C 0.48395 0.50218 0.80176 0.0
C1330 C 0.50036 0.53343 0.7859 0.0
C1331 C 0.4885 0.53354 0.77748 0.0
C1332 C 0.48559 0.52881 0.76181 0.0
C1333 C 0.49448 0.52386 0.75428 0.0
C1334 C 0.50633 0.52371 0.76279 0.0
C1335 C 0.50921 0.52841 0.77847 0.0
C1336 C 0.52932 0.5599 0.79808 0.0
C1337 C 0.52869 0.56797 0.78569 0.0
C1338 C 0.54044 0.57382 0.77555 0.0
C1339 C 0.55283 0.57151 0.77765 0.0
C1340 C 0.55354 0.56379 0.79032 0.0
C1341 C 0.5419 0.55804 0.80042 0.0
C1342 C 0.53249 0.57197 0.8295 0.0
C1343 C 0.53412 0.58602 0.82565 0.0
C1344 C 0.54718 0.59998 0.83087 0.0
C1345 C 0.55886 0.6001 0.83999 0.0
C1346 C 0.5572 0.58596 0.84372 0.0
C1347 C 0.54415 0.57202 0.83848 0.0
C1348 C 0.51127 0.5523 0.85102 0.0
C1349 C 0.51019 0.56462 0.85757 0.0
C1350 C 0.5148 0.56966 0.87306 0.0
C1351 C 0.52072 0.56256 0.88221 0.0
C1352 C 0.52142 0.54997 0.8756 0.0
C1353 C 0.51668 0.54487 0.86019 0.0
C1354 C 0.48476 0.52309 0.8401 0.0
C1355 C 0.47549 0.52698 0.84836 0.0
C1356 C 0.46658 0.5176 0.85963 0.0
C1357 C 0.46684 0.50422 0.8628 0.0
C1358 C 0.47596 0.50025 0.85426 0.0
C1359 C 0.48488 0.50964 0.84305 0.0
C1360 C 0.49133 0.51882 0.73764 0.0
C1361 C 0.57274 0.61489 0.84558 0.0
H1362 H 0.61697 0.82124 0.66195 0.0
H1363 H 0.63487 0.7151 0.54757 0.0
H1364 H 0.60401 0.81752 0.57971 0.0
H1365 H 0.60877 0.84321 0.58824 0.0
H1366 H 0.65393 0.86391 0.57131 0.0
H1367 H 0.64914 0.83835 0.56301 0.0
H1368 H 0.60294 0.79005 0.60026 0.0
H1369 H 0.60454 0.79967 0.62696 0.0
H1370 H 0.65048 0.8371 0.62155 0.0
H1371 H 0.64879 0.82725 0.59495 0.0
H1372 H 0.60517 0.76042 0.58772 0.0
H1373 H 0.61183 0.7473 0.60672 0.0
H1374 H 0.65802 0.78642 0.61148 0.0
H1375 H 0.65116 0.79942 0.59287 0.0
H1376 H 0.59937 0.75519 0.54906 0.0
H1377 H 0.59872 0.73094 0.54309 0.0
H1378 H 0.64623 0.75288 0.55915 0.0
H1379 H 0.64676 0.77709 0.56489 0.0
H1380 H 0.60097 0.77875 0.52517 0.0
H1381 H 0.6028 0.76962 0.49914 0.0
H1382 H 0.64964 0.78313 0.51092 0.0
H1383 H 0.64778 0.79245 0.53661 0.0
H1384 H 0.60112 0.8092 0.53963 0.0
H1385 H 0.60297 0.82563 0.51903 0.0
H1386 H 0.65046 0.83957 0.51569 0.0
H1387 H 0.64819 0.82259 0.5357 0.0
O1388 O 0.6166 0.81761 0.65138 0.0
O1389 O 0.64015 0.83669 0.64797 0.0
O1390 O 0.61042 0.71382 0.54164 0.0
O1391 O 0.63481 0.72454 0.54983 0.0
C1392 C 0.6242 0.81064 0.56719 0.0
C1393 C 0.62458 0.80214 0.57944 0.0
C1394 C 0.62446 0.78825 0.5763 0.0
C1395 C 0.62338 0.78254 0.56093 0.0
C1396 C 0.62315 0.7911 0.5487 0.0
C1397 C 0.62358 0.80515 0.55182 0.0
C1398 C 0.62617 0.8261 0.57059 0.0
C1399 C 0.61481 0.82765 0.57763 0.0
C1400 C 0.61758 0.84229 0.58256 0.0
C1401 C 0.63171 0.85556 0.58041 0.0
C1402 C 0.64284 0.85394 0.57289 0.0
C1403 C 0.64011 0.83935 0.5681 0.0
C1404 C 0.62568 0.80804 0.59565 0.0
C1405 C 0.61334 0.80032 0.60488 0.0
C1406 C 0.61428 0.80585 0.62011 0.0
C1407 C 0.62762 0.81919 0.62638 0.0
C1408 C 0.64002 0.82683 0.61708 0.0
C1409 C 0.63907 0.82126 0.60187 0.0
C1410 C 0.62768 0.78087 0.589 0.0
C1411 C 0.61663 0.76621 0.59312 0.0
C1412 C 0.62049 0.75872 0.60388 0.0
C1413 C 0.63547 0.7658 0.61062 0.0
C1414 C 0.64632 0.78073 0.60678 0.0
C1415 C 0.64244 0.78818 0.5961 0.0
C1416 C 0.62306 0.76783 0.55754 0.0
C1417 C 0.60961 0.75471 0.5513 0.0
C1418 C 0.60928 0.74089 0.5479 0.0
C1419 C 0.62242 0.73996 0.55069 0.0
C1420 C 0.6359 0.75318 0.55691 0.0
C1421 C 0.63622 0.767 0.56026 0.0
C1422 C 0.62422 0.78617 0.53274 0.0
C1423 C 0.61163 0.77983 0.52201 0.0
C1424 C 0.61268 0.77456 0.50722 0.0
C1425 C 0.62637 0.77568 0.50296 0.0
C1426 C 0.63901 0.78231 0.51373 0.0
C1427 C 0.63794 0.78753 0.52845 0.0
C1428 C 0.62449 0.81469 0.53905 0.0
C1429 C 0.61184 0.81572 0.53429 0.0
C1430 C 0.61298 0.82521 0.52261 0.0
C1431 C 0.62687 0.83397 0.51565 0.0
C1432 C 0.63949 0.83279 0.52051 0.0
C1433 C 0.63827 0.82316 0.53201 0.0
C1434 C 0.62856 0.82507 0.64254 0.0
C1435 C 0.62213 0.7253 0.5471 0.0
H1436 H 0.1773 0.80705 0.67553 0.0
H1437 H 0.0837 0.7001 0.53814 0.0
H1438 H 0.18313 0.82272 0.5962 0.0
H1439 H 0.20502 0.84686 0.60721 0.0
H1440 H 0.23546 0.83264 0.58998 0.0
H1441 H 0.21328 0.80799 0.57939 0.0
H1442 H 0.15849 0.79958 0.61017 0.0
H1443 H 0.16325 0.80405 0.63811 0.0
H1444 H 0.19643 0.78965 0.63564 0.0
H1445 H 0.19141 0.78504 0.60769 0.0
H1446 H 0.13313 0.78039 0.58421 0.0
H1447 H 0.11201 0.76882 0.60098 0.0
H1448 H 0.13163 0.7444 0.62187 0.0
H1449 H 0.15272 0.75586 0.60463 0.0
H1450 H 0.1328 0.7758 0.55111 0.0
H1451 H 0.10838 0.75454 0.53976 0.0
H1452 H 0.11928 0.72179 0.55746 0.0
H1453 H 0.14376 0.74318 0.56858 0.0
H1454 H 0.1635 0.80312 0.53945 0.0
H1455 H 0.15379 0.79822 0.51269 0.0
H1456 H 0.14997 0.75352 0.51135 0.0
H1457 H 0.16091 0.75913 0.53784 0.0
H1458 H 0.18859 0.82615 0.56138 0.0
H1459 H 0.20621 0.84409 0.54388 0.0
H1460 H 0.21491 0.8089 0.52592 0.0
H1461 H 0.19727 0.79097 0.5437 0.0
O1462 O 0.17554 0.80513 0.66447 0.0
O1463 O 0.19253 0.79769 0.66257 0.0
O1464 O 0.08826 0.72604 0.53361 0.0
O1465 O 0.09329 0.70873 0.54251 0.0
C1466 C 0.18297 0.79902 0.58032 0.0
C1467 C 0.17163 0.78908 0.58992 0.0
C1468 C 0.15749 0.77689 0.58336 0.0
C1469 C 0.15506 0.77393 0.56723 0.0
C1470 C 0.16651 0.7836 0.55756 0.0
C1471 C 0.18043 0.79627 0.56411 0.0
C1472 C 0.19657 0.81344 0.58725 0.0
C1473 C 0.19448 0.8246 0.5951 0.0
C1474 C 0.20699 0.8384 0.60133 0.0
C1475 C 0.22189 0.84151 0.59957 0.0
C1476 C 0.22405 0.83045 0.59152 0.0
C1477 C 0.21145 0.81643 0.58551 0.0
C1478 C 0.17446 0.79179 0.60693 0.0
C1479 C 0.16666 0.79724 0.6157 0.0
C1480 C 0.16946 0.79986 0.63165 0.0
C1481 C 0.1802 0.79717 0.63912 0.0
C1482 C 0.18807 0.79181 0.63026 0.0
C1483 C 0.18522 0.78916 0.6143 0.0
C1484 C 0.1444 0.7689 0.59316 0.0
C1485 C 0.13278 0.77239 0.59227 0.0
C1486 C 0.12082 0.76591 0.60198 0.0
C1487 C 0.12025 0.75585 0.61287 0.0
C1488 C 0.13175 0.75208 0.61355 0.0
C1489 C 0.14379 0.75862 0.60377 0.0
C1490 C 0.14011 0.76102 0.56051 0.0
C1491 C 0.12993 0.76403 0.55243 0.0
C1492 C 0.11597 0.75186 0.54601 0.0
C1493 C 0.11189 0.73645 0.54766 0.0
C1494 C 0.12207 0.73351 0.55593 0.0
C1495 C 0.13605 0.7457 0.56231 0.0
C1496 C 0.16297 0.78152 0.54062 0.0
C1497 C 0.16111 0.79252 0.53322 0.0
C1498 C 0.15527 0.78955 0.51797 0.0
C1499 C 0.15075 0.77532 0.50991 0.0
C1500 C 0.15339 0.76464 0.51711 0.0
C1501 C 0.15957 0.76778 0.5323 0.0
C1502 C 0.19178 0.80731 0.55395 0.0
C1503 C 0.19453 0.8224 0.5539 0.0
C1504 C 0.20461 0.83264 0.54389 0.0
C1505 C 0.21202 0.82793 0.53359 0.0
C1506 C 0.20931 0.81282 0.5337 0.0
C1507 C 0.1993 0.8026 0.54385 0.0
C1508 C 0.18317 0.79999 0.65608 0.0
C1509 C 0.0971 0.72348 0.54082 0.0
H1510 H 0.20288 0.37432 0.68354 0.0
H1511 H 0.09052 0.36997 0.56367 0.0
H1512 H 0.21806 0.39068 0.60543 0.0
H1513 H 0.23551 0.38285 0.61556 0.0
H1514 H 0.2102 0.33955 0.58792 0.0
H1515 H 0.19243 0.34714 0.57852 0.0
H1516 H 0.19195 0.39304 0.62431 0.0
H1517 H 0.19764 0.38952 0.65076 0.0
H1518 H 0.18539 0.3427 0.63699 0.0
H1519 H 0.17954 0.34631 0.61064 0.0
H1520 H 0.16226 0.3934 0.61075 0.0
H1521 H 0.14218 0.38701 0.62875 0.0
H1522 H 0.13039 0.33928 0.6246 0.0
H1523 H 0.15057 0.34587 0.60703 0.0
H1524 H 0.16603 0.40129 0.57291 0.0
H1525 H 0.14401 0.40395 0.56655 0.0
H1526 H 0.11377 0.35571 0.5737 0.0
H1527 H 0.13588 0.35318 0.57986 0.0
H1528 H 0.18822 0.39846 0.54879 0.0
H1529 H 0.18042 0.39658 0.52134 0.0
H1530 H 0.14347 0.34993 0.52546 0.0
H1531 H 0.15116 0.35192 0.55268 0.0
H1532 H 0.2174 0.39473 0.56624 0.0
H1533 H 0.23189 0.39239 0.54545 0.0
H1534 H 0.19233 0.34857 0.52915 0.0
H1535 H 0.17836 0.35066 0.55035 0.0
O1536 O 0.20049 0.37543 0.67302 0.0
O1537 O 0.19413 0.35147 0.66533 0.0
O1538 O 0.11547 0.39396 0.5625 0.0
O1539 O 0.09942 0.36924 0.56611 0.0
C1540 C 0.19157 0.37267 0.58769 0.0
C1541 C 0.18219 0.37229 0.59949 0.0
C1542 C 0.16924 0.37343 0.59596 0.0
C1543 C 0.16598 0.3756 0.58075 0.0
C1544 C 0.17519 0.37576 0.56892 0.0
C1545 C 0.18794 0.37419 0.57235 0.0
C1546 C 0.20397 0.36948 0.59126 0.0
C1547 C 0.21651 0.37965 0.60134 0.0
C1548 C 0.22649 0.37517 0.60706 0.0
C1549 C 0.22412 0.36048 0.6027 0.0
C1550 C 0.21217 0.35081 0.59174 0.0
C1551 C 0.20213 0.35522 0.58617 0.0
C1552 C 0.18548 0.36999 0.61555 0.0
C1553 C 0.19048 0.38203 0.62705 0.0
C1554 C 0.19374 0.37999 0.64214 0.0
C1555 C 0.19203 0.36585 0.64598 0.0
C1556 C 0.18688 0.35376 0.63442 0.0
C1557 C 0.18358 0.3558 0.61935 0.0
C1558 C 0.15791 0.37011 0.60769 0.0
C1559 C 0.15543 0.38163 0.61393 0.0
C1560 C 0.1439 0.37792 0.62412 0.0
C1561 C 0.13467 0.36262 0.62817 0.0
C1562 C 0.13744 0.35122 0.62202 0.0
C1563 C 0.14894 0.35494 0.61192 0.0
C1564 C 0.15254 0.37709 0.57699 0.0
C1565 C 0.15464 0.39132 0.5731 0.0
C1566 C 0.14204 0.39281 0.56949 0.0
C1567 C 0.12712 0.38004 0.56967 0.0
C1568 C 0.12509 0.36577 0.5735 0.0
C1569 C 0.13769 0.3643 0.57708 0.0
C1570 C 0.1702 0.37534 0.55267 0.0
C1571 C 0.17836 0.38793 0.54374 0.0
C1572 C 0.17392 0.38685 0.52815 0.0
C1573 C 0.16145 0.37306 0.52134 0.0
C1574 C 0.15322 0.36061 0.53041 0.0
C1575 C 0.15751 0.36177 0.54595 0.0
C1576 C 0.19678 0.37296 0.55969 0.0
C1577 C 0.21194 0.38462 0.55818 0.0
C1578 C 0.22014 0.38331 0.54623 0.0
C1579 C 0.21329 0.37029 0.53559 0.0
C1580 C 0.19808 0.35864 0.53723 0.0
C1581 C 0.18997 0.35991 0.54922 0.0
C1582 C 0.19559 0.36376 0.662 0.0
C1583 C 0.1137 0.38156 0.56587 0.0
C1584 C 0.00926 0.39571 0.05778 0.0
C1585 C -0.00108 0.37987 0.05427 0.0
C1586 C 0.006 0.40408 0.06861 0.0
C1587 C 0.9834 0.39965 0.10191 0.0
H1588 H 0.99216 0.44076 0.09399 0.0
C1589 C 0.97163 0.43565 0.14624 0.0
C1590 C 0.98358 0.45102 0.14935 0.0
C1591 C 0.97157 0.42687 0.13334 0.0
C1592 C 0.98972 0.42933 0.09641 0.0
H1593 H 0.97711 0.36036 0.05944 0.0
H1594 H 0.97149 0.37502 0.07843 0.0
H1595 H 0.99614 0.42545 0.07425 0.0
H1596 H 0.00429 0.4695 0.14085 0.0
H1597 H 0.00436 0.45412 0.11855 0.0
H1598 H 0.97737 0.40363 0.12419 0.0
C1599 C 0.98211 0.38092 0.07283 0.0
C1600 C 0.99201 0.42057 0.08511 0.0
C1601 C 0.98534 0.37255 0.06193 0.0
C1602 C 0.99503 0.45763 0.13886 0.0
C1603 C 0.99498 0.44885 0.12599 0.0
C1604 C 0.98117 0.40843 0.11323 0.0
C1605 C 0.99238 0.39679 0.07622 0.0
C1606 C 0.98907 0.40572 0.08783 0.0
C1607 C 0.98345 0.43325 0.12328 0.0
C1608 C 0.98449 0.42345 0.11069 0.0
H1609 H 0.01982 0.40167 0.05209 0.0
H1610 H 0.01426 0.41624 0.07115 0.0
H1611 H 0.98118 0.38831 0.10441 0.0
H1612 H 0.96271 0.43017 0.15415 0.0
H1613 H 0.96239 0.41495 0.13145 0.0
C1614 C 0.60885 0.58445 0.09208 0.0
C1615 C 0.60341 0.59464 0.09076 0.0
C1616 C 0.60312 0.57328 0.10291 0.0
C1617 C 0.56941 0.55301 0.12613 0.0
H1618 H 0.59435 0.54138 0.14967 0.0
C1619 C 0.54846 0.51994 0.1797 0.0
C1620 C 0.54842 0.50602 0.17987 0.0
C1621 C 0.55649 0.53055 0.16898 0.0
C1622 C 0.58728 0.54448 0.14306 0.0
H1623 H 0.58838 0.60172 0.10031 0.0
H1624 H 0.57885 0.58278 0.11935 0.0
H1625 H 0.60594 0.56049 0.13046 0.0
H1626 H 0.55755 0.49275 0.16944 0.0
H1627 H 0.57192 0.51161 0.15076 0.0
H1628 H 0.5509 0.53741 0.13899 0.0
C1629 C 0.58706 0.5829 0.11171 0.0
C1630 C 0.59387 0.55535 0.13204 0.0
C1631 C 0.59261 0.59385 0.10083 0.0
C1632 C 0.55736 0.50338 0.16962 0.0
C1633 C 0.56556 0.51413 0.15893 0.0
C1634 C 0.56293 0.54236 0.1372 0.0
C1635 C 0.59196 0.57224 0.11268 0.0
C1636 C 0.58504 0.55995 0.12366 0.0
C1637 C 0.56484 0.5276 0.15828 0.0
C1638 C 0.57182 0.53817 0.14593 0.0
H1639 H 0.61719 0.58481 0.08447 0.0
H1640 H 0.60711 0.56522 0.10332 0.0
H1641 H 0.56214 0.55588 0.11957 0.0
H1642 H 0.54206 0.52255 0.18772 0.0
H1643 H 0.55599 0.541 0.16888 0.0
C1644 C 0.41431 0.99016 0.05312 0.0
C1645 C 0.40803 -0.00059 0.05015 0.0
C1646 C 0.42322 0.99284 0.06663 0.0
C1647 C 0.44579 0.02139 0.09891 0.0
H1648 H 0.43615 0.98487 0.12007 0.0
C1649 C 0.4685 0.02319 0.1614 0.0
C1650 C 0.4719 0.01176 0.16473 0.0
C1651 C 0.46202 0.02288 0.14692 0.0
C1652 C 0.43917 0.99518 0.11422 0.0
H1653 H 0.4067 0.01913 0.05889 0.0
H1654 H 0.42227 0.02375 0.08265 0.0
H1655 H 0.42241 0.98223 0.09581 0.0
H1656 H 0.47213 0.99167 0.15529 0.0
H1657 H 0.46108 0.99125 0.12997 0.0
H1658 H 0.46257 0.03434 0.11745 0.0
C1659 C 0.42029 0.01446 0.07441 0.0
C1660 C 0.43127 0.99366 0.10031 0.0
C1661 C 0.41133 0.01176 0.06083 0.0
C1662 C 0.46937 0.00046 0.15311 0.0
C1663 C 0.46299 0.0002 0.13864 0.0
C1664 C 0.45377 0.02292 0.11286 0.0
C1665 C 0.42609 0.00483 0.07756 0.0
C1666 C 0.43453 0.00672 0.09244 0.0
C1667 C 0.45888 0.01117 0.13548 0.0
C1668 C 0.4506 0.0098 0.12062 0.0
H1669 H 0.41215 0.98064 0.0451 0.0
H1670 H 0.42777 0.98541 0.0686 0.0
H1671 H 0.44861 0.03166 0.09305 0.0
H1672 H 0.47025 0.03198 0.1702 0.0
H1673 H 0.45889 0.03143 0.1449 0.0
C1674 C 0.41069 0.00872 0.96615 0.0
C1675 C 0.39633 0.99661 0.96967 0.0
C1676 C 0.41739 0.00743 0.95289 0.0
C1677 C 0.41678 0.97879 0.92474 0.0
H1678 H 0.43903 0.01439 0.90097 0.0
C1679 C 0.44468 0.97664 0.86852 0.0
C1680 C 0.45958 0.98907 0.86715 0.0
C1681 C 0.43595 0.97714 0.88032 0.0
C1682 C 0.43293 0.00438 0.90755 0.0
H1683 H 0.37765 0.97369 0.96201 0.0
H1684 H 0.38933 0.9715 0.93875 0.0
H1685 H 0.42551 0.01606 0.92283 0.0
H1686 H 0.4771 0.01156 0.87733 0.0
H1687 H 0.46186 0.01245 0.89779 0.0
H1688 H 0.42435 0.96717 0.9095 0.0
C1689 C 0.39547 0.98192 0.94634 0.0
C1690 C 0.4252 0.00533 0.92007 0.0
C1691 C 0.38875 0.98321 0.95962 0.0
C1692 C 0.46555 0.00194 0.87786 0.0
C1693 C 0.45682 0.00245 0.88959 0.0
C1694 C 0.4245 0.97783 0.91218 0.0
C1695 C 0.40987 0.99402 0.94285 0.0
C1696 C 0.41723 0.99263 0.92895 0.0
C1697 C 0.44193 0.99008 0.89095 0.0
C1698 C 0.43284 0.99069 0.9036 0.0
H1699 H 0.41684 0.01917 0.97368 0.0
H1700 H 0.42861 0.01686 0.95066 0.0
H1701 H 0.41087 0.96885 0.93145 0.0
H1702 H 0.43971 0.96663 0.86036 0.0
H1703 H 0.42445 0.96748 0.88102 0.0
C1704 C 0.02046 0.39488 0.97344 0.0
C1705 C 0.00533 0.38452 0.97685 0.0
C1706 C 0.02353 0.40548 0.96225 0.0
C1707 C 0.00509 0.42433 0.9432 0.0
H1708 H 0.03677 0.4367 0.91434 0.0
C1709 C 0.00627 0.45691 0.89111 0.0
C1710 C 0.02009 0.47043 0.88869 0.0
C1711 C 0.00579 0.44675 0.90165 0.0
C1712 C 0.02798 0.43342 0.92245 0.0
H1713 H 0.98157 0.37631 0.97045 0.0
H1714 H 0.98685 0.39427 0.95078 0.0
H1715 H 0.03345 0.41792 0.93299 0.0
H1716 H 0.04438 0.48354 0.89515 0.0
H1717 H 0.04353 0.46548 0.91348 0.0
H1718 H -0.00063 0.43949 0.93254 0.0
C1719 C 0.9964 0.39473 0.95707 0.0
C1720 C 0.02609 0.42271 0.93312 0.0
C1721 C 0.99337 0.38435 0.9683 0.0
C1722 C 0.03355 0.47321 0.89668 0.0
C1723 C 0.03308 0.4629 0.90718 0.0
C1724 C 0.00688 0.43486 0.93251 0.0
C1725 C 0.0115 0.40577 0.95424 0.0
C1726 C 0.01441 0.41783 0.94344 0.0
C1727 C 0.01913 0.44973 0.90995 0.0
C1728 C 0.01816 0.43933 0.92186 0.0
H1729 H 0.0299 0.39525 0.97987 0.0
H1730 H 0.0353 0.41382 0.96034 0.0
H1731 H 0.99629 0.42123 0.95128 0.0
H1732 H 0.99575 0.45414 0.88484 0.0
H1733 H 0.99492 0.43652 0.90334 0.0
C1734 C 0.58881 0.59633 0.00756 0.0
C1735 C 0.59687 0.61191 0.01319 0.0
C1736 C 0.57901 0.59159 0.99432 0.0
C1737 C 0.57324 0.60551 0.95859 0.0
H1738 H 0.53288 0.5688 0.95637 0.0
C1739 C 0.53518 0.58471 0.90225 0.0
C1740 C 0.52696 0.56871 0.89831 0.0
C1741 C 0.5422 0.59055 0.91699 0.0
C1742 C 0.54417 0.57899 0.95672 0.0
H1743 H 0.60088 0.63473 0.00947 0.0
H1744 H 0.58393 0.62645 0.98609 0.0
H1745 H 0.54817 0.57784 0.98077 0.0
H1746 H 0.51906 0.5463 0.90716 0.0
H1747 H 0.53187 0.55645 0.93252 0.0
H1748 H 0.56967 0.60637 0.93449 0.0
C1749 C 0.58517 0.61793 0.99201 0.0
C1750 C 0.55289 0.58419 0.97073 0.0
C1751 C 0.59482 0.62264 0.00539 0.0
C1752 C 0.52553 0.5587 0.90966 0.0
C1753 C 0.5327 0.56454 0.92434 0.0
C1754 C 0.56463 0.6002 0.94453 0.0
C1755 C 0.57722 0.60237 0.98632 0.0
C1756 C 0.56755 0.59741 0.97176 0.0
C1757 C 0.54134 0.58056 0.92814 0.0
C1758 C 0.55003 0.58678 0.94336 0.0
H1759 H 0.59013 0.58779 0.01334 0.0
H1760 H 0.57313 0.57955 0.9901 0.0
H1761 H 0.58459 0.61564 0.95902 0.0
H1762 H 0.53667 0.59281 0.8938 0.0
H1763 H 0.5485 0.60294 0.91956 0.0
C1764 C 0.00984 0.61858 0.00066 0.0
C1765 C -0.00202 0.60881 0.00973 0.0
C1766 C 0.01436 0.61233 0.98867 0.0
C1767 C -0.00145 0.57697 0.96303 0.0
H1768 H 0.04039 0.59125 0.95366 0.0
C1769 C 0.01141 0.54255 0.91893 0.0
C1770 C 0.02146 0.55085 0.90773 0.0
C1771 C 0.01042 0.55024 0.93213 0.0
C1772 C 0.02865 0.58724 0.95609 0.0
H1773 H 0.98223 0.58485 0.01392 0.0
H1774 H 0.99017 0.57412 0.99333 0.0
H1775 H 0.03517 0.60401 0.97526 0.0
H1776 H 0.03891 0.57358 0.90189 0.0
H1777 H 0.03709 0.58711 0.92503 0.0
H1778 H 0.99191 0.56032 0.94399 0.0
C1779 C 0.99574 0.58656 0.99516 0.0
C1780 C 0.02568 0.59454 0.96842 0.0
C1781 C 0.99122 0.59275 0.00701 0.0
C1782 C 0.03113 0.56691 0.91041 0.0
C1783 C 0.03008 0.57465 0.92363 0.0
C1784 C 0.0015 0.56972 0.9508 0.0
C1785 C 0.00708 0.59623 0.98561 0.0
C1786 C 0.01057 0.5893 0.97213 0.0
C1787 C 0.01936 0.56641 0.93439 0.0
C1788 C 0.01657 0.57459 0.94731 0.0
H1789 H 0.01531 0.63101 0.00251 0.0
H1790 H 0.02314 0.62007 0.98148 0.0
H1791 H 0.98677 0.57292 0.96534 0.0
H1792 H 0.004 0.53013 0.91725 0.0
H1793 H 0.00232 0.54353 0.9404 0.0
C1794 C 0.38502 0.41615 0.95693 0.0
C1795 C 0.3925 0.40962 0.96446 0.0
C1796 C 0.39263 0.42746 0.94659 0.0
C1797 C 0.43114 0.45623 0.93602 0.0
H1798 H 0.4112 0.45242 0.89611 0.0
C1799 C 0.46452 0.48873 0.8852 0.0
C1800 C 0.45798 0.49459 0.87522 0.0
C1801 C 0.45618 0.47942 0.89673 0.0
C1802 C 0.41684 0.4538 0.90729 0.0
H1803 H 0.4138 0.40985 0.96715 0.0
H1804 H 0.42704 0.42953 0.94912 0.0
H1805 H 0.39716 0.43417 0.91518 0.0
H1806 H 0.43759 0.49541 0.86958 0.0
H1807 H 0.42306 0.47932 0.88996 0.0
H1808 H 0.45085 0.47575 0.92814 0.0
C1809 C 0.41535 0.42602 0.95129 0.0
C1810 C 0.40881 0.44334 0.9182 0.0
C1811 C 0.40773 0.41467 0.96154 0.0
C1812 C 0.44296 0.49113 0.87716 0.0
C1813 C 0.4346 0.4818 0.88872 0.0
C1814 C 0.43915 0.46671 0.92515 0.0
C1815 C 0.40788 0.43251 0.9437 0.0
C1816 C 0.41597 0.44429 0.93257 0.0
C1817 C 0.44111 0.4758 0.8986 0.0
C1818 C 0.43218 0.46546 0.91057 0.0
H1819 H 0.37328 0.4125 0.95897 0.0
H1820 H 0.38663 0.43234 0.94097 0.0
H1821 H 0.43686 0.45741 0.94711 0.0
H1822 H 0.47614 0.49137 0.88414 0.0
H1823 H 0.46148 0.47484 0.90401 0.0
C1824 C 0.59803 0.01466 0.99536 0.0
C1825 C 0.59932 0.00296 0.00205 0.0
C1826 C 0.58829 0.01128 0.98233 0.0
C1827 C 0.56723 0.98177 0.94991 0.0
H1828 H 0.54768 0.00573 0.94474 0.0
C1829 C 0.52569 0.97251 0.89757 0.0
C1830 C 0.53007 0.98605 0.88999 0.0
C1831 C 0.53267 0.97322 0.91191 0.0
C1832 C 0.55305 -0.00106 0.94606 0.0
H1833 H 0.59125 0.97847 0.00033 0.0
H1834 H 0.57383 0.97245 0.97775 0.0
H1835 H 0.56228 0.00913 0.96873 0.0
H1836 H 0.5455 0.01095 0.89171 0.0
H1837 H 0.55704 0.01213 0.91689 0.0
H1838 H 0.55773 0.97149 0.92716 0.0
C1839 C 0.58063 0.98432 0.98242 0.0
C1840 C 0.56151 0.00094 0.95975 0.0
C1841 C 0.59056 0.98775 0.99541 0.0
C1842 C 0.54145 0.0003 0.89728 0.0
C1843 C 0.54819 0.001 0.91169 0.0
C1844 C 0.55855 0.9796 0.93627 0.0
C1845 C 0.57936 0.99606 0.97571 0.0
C1846 C 0.56906 0.99268 0.96173 0.0
C1847 C 0.54396 0.98748 0.91909 0.0
C1848 C 0.55168 0.98843 0.93411 0.0
H1849 H 0.60473 0.02654 6e-05 0.0
H1850 H 0.58797 0.02071 0.9773 0.0
H1851 H 0.57297 0.9753 0.95092 0.0
H1852 H 0.51684 0.96136 0.89247 0.0
H1853 H 0.52917 0.96263 0.91746 0.0
C1854 C 0.61661 0.0232 0.0911 0.0
C1855 C 0.61101 0.00854 0.08352 0.0
C1856 C 0.61 0.02486 0.10434 0.0
C1857 C 0.5879 0.00383 0.13623 0.0
H1858 H 0.57271 0.03202 0.13716 0.0
C1859 C 0.5444 -0.00081 0.1791 0.0
C1860 C 0.54476 0.01262 0.1848 0.0
C1861 C 0.55394 -0.00019 0.16768 0.0
C1862 C 0.57714 0.02431 0.13728 0.0
H1863 H 0.59435 0.98413 0.084 0.0
H1864 H 0.58308 0.98701 0.10723 0.0
H1865 H 0.58718 0.03134 0.11569 0.0
H1866 H 0.55569 0.03735 0.18299 0.0
H1867 H 0.5728 0.03854 0.16355 0.0
H1868 H 0.57807 0.99684 0.1578 0.0
C1869 C 0.5925 0.99721 0.10291 0.0
C1870 C 0.58539 0.02391 0.12493 0.0
C1871 C 0.59889 0.99558 0.08957 0.0
C1872 C 0.55518 0.02678 0.17899 0.0
C1873 C 0.56486 0.02743 0.16767 0.0
C1874 C 0.57986 0.00438 0.14867 0.0
C1875 C 0.5979 0.01186 0.11036 0.0
C1876 C 0.59056 0.01344 0.12415 0.0
C1877 C 0.56429 0.01392 0.16177 0.0
C1878 C 0.57406 0.01438 0.14921 0.0
H1879 H 0.62592 0.03339 0.08667 0.0
H1880 H 0.61439 0.03628 0.10992 0.0
H1881 H 0.59195 0.9958 0.13599 0.0
H1882 H 0.53674 0.98811 0.18345 0.0
H1883 H 0.55296 0.98911 0.1633 0.0
C1884 C 0.97102 0.60154 0.08935 0.0
C1885 C 0.98569 0.61239 0.08513 0.0
C1886 C 0.96921 0.59177 0.101 0.0
C1887 C 0.98929 0.58786 0.13455 0.0
H1888 H 0.96326 0.54372 0.12512 0.0
C1889 C 0.99547 0.54431 0.16919 0.0
C1890 C 0.98235 0.53024 0.17187 0.0
C1891 C 0.99457 0.55446 0.15951 0.0
C1892 C 0.97036 0.55601 0.12808 0.0
H1893 H 0.00994 0.62184 0.09002 0.0
H1894 H 0.00677 0.605 0.11045 0.0
H1895 H 0.96373 0.56153 0.10688 0.0
H1896 H 0.95795 0.51582 0.16643 0.0
H1897 H 0.9563 0.53376 0.14986 0.0
H1898 H 0.996 0.58247 0.1557 0.0
C1899 C 0.99669 0.604 0.10476 0.0
C1900 C 0.97063 0.5662 0.11762 0.0
C1901 C -0.00151 0.61357 0.09301 0.0
C1902 C 0.96826 0.52662 0.16472 0.0
C1903 C 0.96734 0.53683 0.15508 0.0
C1904 C 0.98892 0.57771 0.14508 0.0
C1905 C 0.98205 0.5929 0.10877 0.0
C1906 C 0.98036 0.5822 0.12061 0.0
C1907 C 0.9805 0.55087 0.15235 0.0
C1908 C 0.97973 0.56165 0.14181 0.0
H1909 H 0.96096 0.60036 0.08344 0.0
H1910 H 0.9578 0.58333 0.10393 0.0
H1911 H 0.99674 0.60017 0.13722 0.0
H1912 H 0.00647 0.5476 0.17469 0.0
H1913 H 0.00498 0.56504 0.15748 0.0
C1914 C 0.40327 0.38692 0.04663 0.0
C1915 C 0.40093 0.39832 0.04074 0.0
C1916 C 0.41256 0.39019 0.06008 0.0
C1917 C 0.42675 0.41672 0.09493 0.0
H1918 H 0.45431 0.40141 0.10117 0.0
C1919 C 0.45328 0.42075 0.15471 0.0
C1920 C 0.46907 0.42657 0.15604 0.0
C1921 C 0.44536 0.41623 0.14033 0.0
C1922 C 0.44671 0.40582 0.09954 0.0
H1923 H 0.40707 0.4223 0.04401 0.0
H1924 H 0.42333 0.428 0.06726 0.0
H1925 H 0.44028 0.39622 0.07616 0.0
H1926 H 0.48883 0.43147 0.14346 0.0
H1927 H 0.47492 0.42358 0.11811 0.0
H1928 H 0.43322 0.42648 0.1181 0.0
C1929 C 0.41775 0.41644 0.06169 0.0
C1930 C 0.4386 0.40274 0.08529 0.0
C1931 C 0.40846 0.41317 0.04832 0.0
C1932 C 0.47666 0.42702 0.14274 0.0
C1933 C 0.4687 0.4225 0.12826 0.0
C1934 C 0.43479 0.41974 0.10911 0.0
C1935 C 0.41971 0.40494 0.06789 0.0
C1936 C 0.42853 0.40819 0.08285 0.0
C1937 C 0.45304 0.41744 0.12691 0.0
C1938 C 0.44479 0.41426 0.11163 0.0
H1939 H 0.39766 0.37536 0.04105 0.0
H1940 H 0.41376 0.38105 0.06463 0.0
H1941 H 0.41896 0.42092 0.09352 0.0
H1942 H 0.44707 0.41994 0.16482 0.0
H1943 H 0.43323 0.41201 0.13971 0.0
C1944 C 0.63993 0.70669 0.39068 0.0
C1945 C 0.65489 0.71478 0.38586 0.0
C1946 C 0.63537 0.71325 0.40224 0.0
C1947 C 0.64518 0.75061 0.42183 0.0
H1948 H 0.62315 0.726 0.45511 0.0
C1949 C 0.64081 0.77748 0.47966 0.0
C1950 C 0.62748 0.76946 0.4876 0.0
C1951 C 0.64259 0.77094 0.46602 0.0
C1952 C 0.62904 0.73297 0.44577 0.0
H1953 H 0.67681 0.73608 0.38937 0.0
H1954 H 0.66885 0.74749 0.40956 0.0
H1955 H 0.62933 0.71417 0.43374 0.0
H1956 H 0.60529 0.74849 0.48713 0.0
H1957 H 0.60824 0.73719 0.46307 0.0
H1958 H 0.64501 0.76945 0.43389 0.0
C1959 C 0.66061 0.73615 0.4043 0.0
C1960 C 0.63262 0.72619 0.43354 0.0
C1961 C 0.66519 0.72956 0.39282 0.0
C1962 C 0.61567 0.75501 0.48124 0.0
C1963 C 0.61744 0.74846 0.46755 0.0
C1964 C 0.64153 0.75738 0.43401 0.0
C1965 C 0.64565 0.72806 0.40915 0.0
C1966 C 0.64095 0.735 0.42157 0.0
C1967 C 0.63104 0.75622 0.45994 0.0
C1968 C 0.63364 0.7487 0.44626 0.0
H1969 H 0.63172 0.69529 0.38551 0.0
H1970 H 0.62374 0.70679 0.40567 0.0
H1971 H 0.65138 0.75762 0.41262 0.0
H1972 H 0.65003 0.78873 0.48415 0.0
H1973 H 0.65327 0.7772 0.46055 0.0
C1974 C 0.27634 0.9167 0.43257 0.0
C1975 C 0.26701 0.92255 0.42817 0.0
C1976 C 0.27228 0.90655 0.4443 0.0
C1977 C 0.2555 0.87833 0.46347 0.0
H1978 H 0.23931 0.88741 0.49949 0.0
C1979 C 0.22035 0.83344 0.50671 0.0
C1980 C 0.22186 0.8386 0.52227 0.0
C1981 C 0.22821 0.8439 0.49572 0.0
C1982 C 0.244 0.88479 0.48963 0.0
H1983 H 0.24596 0.92208 0.43251 0.0
H1984 H 0.23893 0.90444 0.45282 0.0
H1985 H 0.24841 0.90536 0.47936 0.0
H1986 H 0.23361 0.85854 0.53869 0.0
H1987 H 0.24739 0.87678 0.51954 0.0
H1988 H 0.25097 0.85766 0.47378 0.0
C1989 C 0.24947 0.90783 0.44736 0.0
C1990 C 0.24904 0.89499 0.478 0.0
C1991 C 0.25347 0.91788 0.43563 0.0
C1992 C 0.232 0.85428 0.52673 0.0
C1993 C 0.23988 0.86472 0.51577 0.0
C1994 C 0.25039 0.86806 0.47512 0.0
C1995 C 0.25888 0.90215 0.45192 0.0
C1996 C 0.25462 0.89177 0.46469 0.0
C1997 C 0.23776 0.85972 0.50009 0.0
C1998 C 0.24442 0.8711 0.48825 0.0
H1999 H 0.28684 0.92005 0.42704 0.0
H2000 H 0.27978 0.90239 0.44762 0.0
H2001 H 0.25971 0.87553 0.45332 0.0
H2002 H 0.21251 0.82145 0.5029 0.0
H2003 H 0.2262 0.83969 0.48372 0.0
C2004 C 0.09431 0.35106 0.39617 0.0
C2005 C 0.09046 0.33697 0.38823 0.0
C2006 C 0.10407 0.35639 0.40952 0.0
C2007 C 0.1164 0.34142 0.44073 0.0
H2008 H 0.14761 0.38424 0.45099 0.0
C2009 C 0.15471 0.35839 0.49577 0.0
C2010 C 0.15694 0.37133 0.50477 0.0
C2011 C 0.14862 0.35553 0.48063 0.0
C2012 C 0.13886 0.37226 0.44832 0.0
H2013 H 0.09444 0.3178 0.38773 0.0
H2014 H 0.11146 0.32714 0.41088 0.0
H2015 H 0.13304 0.37674 0.42608 0.0
H2016 H 0.1553 0.39187 0.50492 0.0
H2017 H 0.14429 0.38671 0.47842 0.0
H2018 H 0.12184 0.33687 0.46293 0.0
C2019 C 0.10674 0.33394 0.40693 0.0
C2020 C 0.13054 0.36797 0.43407 0.0
C2021 C 0.09701 0.32862 0.39363 0.0
C2022 C 0.1537 0.38182 0.49815 0.0
C2023 C 0.14744 0.37887 0.48299 0.0
C2024 C 0.12464 0.34568 0.45492 0.0
C2025 C 0.11014 0.34773 0.41519 0.0
C2026 C 0.11925 0.35248 0.43012 0.0
C2027 C 0.14444 0.36545 0.47421 0.0
C2028 C 0.13601 0.36113 0.45889 0.0
H2029 H 0.0895 0.3578 0.39231 0.0
H2030 H 0.10641 0.36701 0.41569 0.0
H2031 H 0.10754 0.32945 0.43819 0.0
H2032 H 0.15736 0.35027 0.50057 0.0
H2033 H 0.14684 0.34531 0.47406 0.0
C2034 C 0.06727 0.30516 0.30227 0.0
C2035 C 0.0716 0.32044 0.3068 0.0
C2036 C 0.07214 0.30177 0.28863 0.0
C2037 C 0.10075 0.32074 0.25931 0.0
H2038 H 0.07541 0.28143 0.23585 0.0
C2039 C 0.11245 0.3066 0.19807 0.0
C2040 C 0.11599 0.29482 0.1976 0.0
C2041 C 0.1059 0.30917 0.21084 0.0
C2042 C 0.08254 0.29244 0.24233 0.0
H2043 H 0.084 0.34409 0.30052 0.0
H2044 H 0.09183 0.33816 0.27637 0.0
H2045 H 0.06618 0.28735 0.25919 0.0
H2046 H 0.11485 0.27621 0.21017 0.0
H2047 H 0.10271 0.2803 0.23205 0.0
H2048 H 0.11681 0.32593 0.24199 0.0
C2049 C 0.08523 0.32881 0.28356 0.0
C2050 C 0.07736 0.29582 0.25577 0.0
C2051 C 0.08066 0.33223 0.29737 0.0
C2052 C 0.1121 0.28522 0.20993 0.0
C2053 C 0.10523 0.28759 0.22253 0.0
C2054 C 0.10573 0.31749 0.2457 0.0
C2055 C 0.08116 0.31354 0.27904 0.0
C2056 C 0.08645 0.30999 0.26452 0.0
C2057 C 0.1024 0.29978 0.22319 0.0
C2058 C 0.09671 0.3033 0.23719 0.0
H2059 H 0.06035 0.29587 0.30942 0.0
H2060 H 0.06901 0.28993 0.28577 0.0
H2061 H 0.10827 0.3316 0.26585 0.0
H2062 H 0.1149 0.314 0.18868 0.0
H2063 H 0.10368 0.31857 0.21113 0.0
C2064 C 0.68163 0.74606 0.3133 0.0
C2065 C 0.68271 0.73274 0.31313 0.0
C2066 C 0.68893 0.75699 0.30259 0.0
C2067 C 0.69824 0.76015 0.26363 0.0
H2068 H 0.72541 0.80387 0.27457 0.0
C2069 C 0.71715 0.80379 0.21703 0.0
C2070 C 0.71833 0.81797 0.22104 0.0
C2071 C 0.71578 0.7939 0.22837 0.0
C2072 C 0.7177 0.79174 0.27128 0.0
H2073 H 0.6924 0.72046 0.30179 0.0
H2074 H 0.70472 0.73942 0.28252 0.0
H2075 H 0.7174 0.78562 0.29456 0.0
H2076 H 0.71913 0.83312 0.23987 0.0
H2077 H 0.71594 0.81565 0.25964 0.0
H2078 H 0.69745 0.7661 0.24062 0.0
C2079 C 0.69845 0.74145 0.29119 0.0
C2080 C 0.71327 0.7813 0.28274 0.0
C2081 C 0.69145 0.73067 0.3022 0.0
C2082 C 0.71839 0.82228 0.23657 0.0
C2083 C 0.71667 0.81226 0.24789 0.0
C2084 C 0.70237 0.77059 0.25221 0.0
C2085 C 0.69716 0.75464 0.29128 0.0
C2086 C 0.70336 0.76546 0.27902 0.0
C2087 C 0.71515 0.79782 0.24395 0.0
C2088 C 0.71197 0.78659 0.25589 0.0
H2089 H 0.67502 0.74796 0.32165 0.0
H2090 H 0.68769 0.76702 0.30278 0.0
H2091 H 0.69042 0.74798 0.26054 0.0
H2092 H 0.71718 0.80031 0.20509 0.0
H2093 H 0.71503 0.78311 0.22486 0.0
C2094 C 0.25424 0.92657 0.34225 0.0
C2095 C 0.2602 0.94119 0.35002 0.0
C2096 C 0.24513 0.92263 0.32859 0.0
C2097 C 0.23792 0.94028 0.29612 0.0
H2098 H 0.20311 0.89906 0.2864 0.0
C2099 C 0.18858 0.90279 0.24373 0.0
C2100 C 0.19799 0.90654 0.23129 0.0
C2101 C 0.19499 0.90778 0.25881 0.0
C2102 C 0.21269 0.91068 0.289 0.0
H2103 H 0.26097 0.96303 0.34976 0.0
H2104 H 0.24503 0.95613 0.32588 0.0
H2105 H 0.21606 0.90606 0.31206 0.0
H2106 H 0.22141 0.91892 0.22481 0.0
H2107 H 0.23259 0.92753 0.25106 0.0
H2108 H 0.23466 0.94486 0.27303 0.0
C2109 C 0.24752 0.94777 0.3303 0.0
C2110 C 0.22019 0.91463 0.30364 0.0
C2111 C 0.2566 0.95169 0.34401 0.0
C2112 C 0.21389 0.91572 0.23418 0.0
C2113 C 0.22028 0.92078 0.24921 0.0
C2114 C 0.23047 0.93631 0.28147 0.0
C2115 C 0.2418 0.93324 0.32237 0.0
C2116 C 0.23303 0.92941 0.30729 0.0
C2117 C 0.21093 0.91674 0.2617 0.0
C2118 C 0.21792 0.92139 0.27768 0.0
H2119 H 0.25681 0.91822 0.34658 0.0
H2120 H 0.24105 0.91142 0.32266 0.0
H2121 H 0.24784 0.95172 0.29852 0.0
H2122 H 0.17629 0.89567 0.24182 0.0
H2123 H 0.1875 0.90458 0.26821 0.0
C2124 C 0.6629 0.91922 0.33425 0.0
C2125 C 0.67169 0.93376 0.3423 0.0
C2126 C 0.66931 0.9141 0.32333 0.0
C2127 C 0.70189 0.92777 0.29845 0.0
H2128 H 0.68675 0.88386 0.29275 0.0
C2129 C 0.72228 0.89938 0.25252 0.0
C2130 C 0.71011 0.88838 0.24238 0.0
C2131 C 0.71943 0.9052 0.26609 0.0
C2132 C 0.69114 0.89616 0.2943 0.0
H2133 H 0.69421 0.95433 0.34524 0.0
H2134 H 0.70559 0.9452 0.32637 0.0
H2135 H 0.67871 0.89374 0.31424 0.0
H2136 H 0.68536 0.87507 0.23876 0.0
H2137 H 0.68054 0.88462 0.26269 0.0
H2138 H 0.71439 0.93003 0.27842 0.0
C2139 C 0.69361 0.93787 0.32832 0.0
C2140 C 0.68645 0.90183 0.30651 0.0
C2141 C 0.68711 0.94309 0.33917 0.0
C2142 C 0.69506 0.88316 0.24638 0.0
C2143 C 0.69225 0.88871 0.26006 0.0
C2144 C 0.70677 0.92209 0.28635 0.0
C2145 C 0.68477 0.92328 0.32028 0.0
C2146 C 0.69137 0.91764 0.30846 0.0
C2147 C 0.70438 0.89988 0.26995 0.0
C2148 C 0.70109 0.90619 0.28395 0.0
H2149 H 0.65094 0.91179 0.33625 0.0
H2150 H 0.662 0.90299 0.3171 0.0
H2151 H 0.70583 0.93998 0.2995 0.0
H2152 H 0.73401 0.90354 0.25 0.0
H2153 H 0.72896 0.91378 0.27362 0.0
C2154 C 0.05153 0.75466 0.29406 0.0
C2155 C 0.06049 0.75124 0.30376 0.0
C2156 C 0.05834 0.76583 0.28343 0.0
C2157 C 0.09417 0.80025 0.27574 0.0
H2158 H 0.08013 0.78916 0.23269 0.0
C2159 C 0.13045 0.83599 0.22782 0.0
C2160 C 0.12323 0.83671 0.21416 0.0
C2161 C 0.12191 0.82664 0.23923 0.0
C2162 C 0.08402 0.79261 0.24469 0.0
H2163 H 0.08358 0.75694 0.31011 0.0
H2164 H 0.0955 0.77667 0.29173 0.0
H2165 H 0.0667 0.77074 0.2518 0.0
H2166 H 0.10124 0.82849 0.20206 0.0
H2167 H 0.08629 0.81268 0.22228 0.0
H2168 H 0.11137 0.82214 0.2688 0.0
C2169 C 0.08322 0.77065 0.29233 0.0
C2170 C 0.07635 0.78201 0.2556 0.0
C2171 C 0.07639 0.75931 0.30276 0.0
C2172 C 0.10719 0.82829 0.21247 0.0
C2173 C 0.09862 0.81905 0.22398 0.0
C2174 C 0.1017 0.81094 0.26487 0.0
C2175 C 0.07425 0.77396 0.28253 0.0
C2176 C 0.08155 0.78564 0.27117 0.0
C2177 C 0.10588 0.8179 0.2374 0.0
C2178 C 0.09693 0.80714 0.24915 0.0
H2179 H 0.03923 0.74859 0.29457 0.0
H2180 H 0.05121 0.76822 0.276 0.0
H2181 H 0.09825 0.80338 0.28773 0.0
H2182 H 0.14277 0.84254 0.22965 0.0
H2183 H 0.12795 0.82594 0.24928 0.0
C2184 C 0.25047 0.31093 0.33 0.0
C2185 C 0.25882 0.32697 0.33374 0.0
C2186 C 0.24121 0.30484 0.31629 0.0
C2187 C 0.23846 0.31417 0.27741 0.0
H2188 H 0.19455 0.28692 0.27659 0.0
C2189 C 0.2007 0.30657 0.22413 0.0
C2190 C 0.18742 0.29224 0.22002 0.0
C2191 C 0.20905 0.30911 0.23801 0.0
C2192 C 0.20683 0.29427 0.27655 0.0
H2193 H 0.26405 0.34917 0.326 0.0
H2194 H 0.2483 0.33856 0.30199 0.0
H2195 H 0.20987 0.29407 0.30104 0.0
H2196 H 0.17258 0.26929 0.22747 0.0
H2197 H 0.18754 0.27357 0.25156 0.0
H2198 H 0.2357 0.31437 0.25309 0.0
C2199 C 0.24877 0.33072 0.30974 0.0
C2200 C 0.21556 0.29838 0.29056 0.0
C2201 C 0.25773 0.33676 0.32351 0.0
C2202 C 0.18279 0.28045 0.2302 0.0
C2203 C 0.19129 0.28295 0.2441 0.0
C2204 C 0.22982 0.30989 0.26343 0.0
C2205 C 0.24048 0.31474 0.30598 0.0
C2206 C 0.23139 0.30869 0.29112 0.0
C2207 C 0.20459 0.29732 0.24814 0.0
C2208 C 0.21383 0.30027 0.26285 0.0
H2209 H 0.25106 0.3031 0.33768 0.0
H2210 H 0.2349 0.29247 0.31358 0.0
H2211 H 0.2507 0.32199 0.27756 0.0
H2212 H 0.20488 0.31586 0.21651 0.0
H2213 H 0.21902 0.32043 0.24081 0.0
C2214 C 0.26169 0.33527 0.42451 0.0
C2215 C 0.27308 0.34711 0.41653 0.0
C2216 C 0.25652 0.33877 0.43787 0.0
C2217 C 0.25247 0.36886 0.45794 0.0
H2218 H 0.24866 0.34619 0.49383 0.0
C2219 C 0.23188 0.38157 0.51489 0.0
C2220 C 0.22188 0.36873 0.52282 0.0
C2221 C 0.23943 0.37988 0.5025 0.0
C2222 C 0.24948 0.35252 0.48387 0.0
H2223 H 0.28781 0.37191 0.41615 0.0
H2224 H 0.27853 0.37804 0.43942 0.0
H2225 H 0.259 0.34131 0.47087 0.0
H2226 H 0.21241 0.34412 0.52419 0.0
H2227 H 0.22499 0.34107 0.50233 0.0
H2228 H 0.24248 0.37971 0.47069 0.0
C2229 C 0.27371 0.36606 0.43534 0.0
C2230 C 0.25546 0.34975 0.47074 0.0
C2231 C 0.27905 0.36255 0.42208 0.0
C2232 C 0.21982 0.35423 0.51821 0.0
C2233 C 0.22725 0.35252 0.50578 0.0
C2234 C 0.24631 0.37152 0.47103 0.0
C2235 C 0.26247 0.35419 0.44342 0.0
C2236 C 0.25687 0.35777 0.4576 0.0
C2237 C 0.23711 0.3653 0.4977 0.0
C2238 C 0.24457 0.36324 0.48411 0.0
H2239 H 0.25687 0.32326 0.42054 0.0
H2240 H 0.24773 0.3294 0.44377 0.0
H2241 H 0.25334 0.37513 0.44792 0.0
H2242 H 0.23366 0.39289 0.51804 0.0
H2243 H 0.24709 0.39002 0.49669 0.0
C2244 C 0.66335 0.92852 0.41949 0.0
C2245 C 0.65391 0.93461 0.41665 0.0
C2246 C 0.65954 0.91741 0.43013 0.0
C2247 C 0.63941 0.90268 0.46447 0.0
H2248 H 0.63688 0.86434 0.45071 0.0
C2249 C 0.62089 0.85297 0.50452 0.0
C2250 C 0.62838 0.84455 0.50361 0.0
C2251 C 0.62288 0.86341 0.49356 0.0
C2252 C 0.63774 0.87504 0.45485 0.0
H2253 H 0.63338 0.93423 0.42304 0.0
H2254 H 0.62698 0.91505 0.44206 0.0
H2255 H 0.64319 0.8842 0.43274 0.0
H2256 H 0.64349 0.84023 0.49009 0.0
H2257 H 0.64762 0.85896 0.47161 0.0
H2258 H 0.63462 0.89394 0.48673 0.0
C2259 C 0.63719 0.91879 0.43587 0.0
C2260 C 0.64128 0.88636 0.4445 0.0
C2261 C 0.64084 0.9297 0.42499 0.0
C2262 C 0.63774 0.84669 0.49135 0.0
C2263 C 0.63991 0.85729 0.48055 0.0
C2264 C 0.63614 0.89147 0.47492 0.0
C2265 C 0.6464 0.9124 0.43834 0.0
C2266 C 0.64222 0.9003 0.44925 0.0
C2267 C 0.63257 0.86585 0.48154 0.0
C2268 C 0.63535 0.87753 0.47027 0.0
H2269 H 0.67348 0.93206 0.41321 0.0
H2270 H 0.66688 0.91272 0.43196 0.0
H2271 H 0.64017 0.9134 0.4684 0.0
H2272 H 0.61372 0.85177 0.51387 0.0
H2273 H 0.61683 0.8696 0.49458 0.0
C2274 C 0.07076 0.75122 0.39313 0.0
C2275 C 0.06879 0.73969 0.38204 0.0
C2276 C 0.07974 0.75427 0.4067 0.0
C2277 C 0.11145 0.75211 0.42381 0.0
H2278 H 0.0944 0.75389 0.46244 0.0
C2279 C 0.14391 0.76205 0.48312 0.0
C2280 C 0.14216 0.77118 0.49462 0.0
C2281 C 0.1351 0.75754 0.46915 0.0
C2282 C 0.09945 0.75366 0.45176 0.0
H2283 H 0.07495 0.72251 0.37636 0.0
H2284 H 0.09096 0.72811 0.40007 0.0
H2285 H 0.07891 0.74748 0.43844 0.0
H2286 H 0.12963 0.78261 0.50034 0.0
H2287 H 0.11503 0.77553 0.4759 0.0
H2288 H 0.13218 0.75881 0.43705 0.0
C2289 C 0.08541 0.73466 0.39822 0.0
C2290 C 0.09052 0.7499 0.43803 0.0
C2291 C 0.0762 0.73143 0.38472 0.0
C2292 C 0.13156 0.77585 0.4917 0.0
C2293 C 0.12291 0.7715 0.47773 0.0
C2294 C 0.1205 0.7561 0.43757 0.0
C2295 C 0.08714 0.74602 0.40939 0.0
C2296 C 0.09647 0.74923 0.42393 0.0
C2297 C 0.1244 0.76212 0.46634 0.0
C2298 C 0.11466 0.75711 0.45171 0.0
H2299 H 0.06519 0.75777 0.39143 0.0
H2300 H 0.08101 0.76317 0.41508 0.0
H2301 H 0.11631 0.75174 0.41305 0.0
H2302 H 0.15206 0.75835 0.4849 0.0
H2303 H 0.13649 0.75023 0.46069 0.0
C2304 C 0.30249 0.03967 0.72058 0.0
C2305 C 0.31724 0.04861 0.71543 0.0
C2306 C 0.29713 0.04597 0.73158 0.0
C2307 C 0.30407 0.08316 0.74939 0.0
H2308 H 0.28482 0.05943 0.78413 0.0
C2309 C 0.30117 0.1109 0.80725 0.0
C2310 C 0.28844 0.10271 0.81596 0.0
C2311 C 0.3025 0.10421 0.79346 0.0
C2312 C 0.28989 0.06611 0.77437 0.0
H2313 H 0.33786 0.07122 0.71764 0.0
H2314 H 0.32857 0.08216 0.73687 0.0
H2315 H 0.29131 0.04773 0.7629 0.0
H2316 H 0.2668 0.08133 0.81674 0.0
H2317 H 0.269 0.06969 0.79247 0.0
H2318 H 0.30294 0.10166 0.761 0.0
C2319 C 0.32107 0.07033 0.7323 0.0
C2320 C 0.29364 0.05941 0.76221 0.0
C2321 C 0.32644 0.06402 0.72137 0.0
C2322 C 0.27672 0.08794 0.81024 0.0
C2323 C 0.27805 0.08122 0.79644 0.0
C2324 C 0.30029 0.08986 0.76153 0.0
C2325 C 0.30639 0.06137 0.73759 0.0
C2326 C 0.30106 0.06797 0.74974 0.0
C2327 C 0.29111 0.08917 0.78805 0.0
C2328 C 0.29345 0.08152 0.77431 0.0
H2329 H 0.2951 0.02777 0.71618 0.0
H2330 H 0.28573 0.03881 0.73535 0.0
H2331 H 0.30953 0.08996 0.73979 0.0
H2332 H 0.3103 0.12238 0.81127 0.0
H2333 H 0.31277 0.11061 0.78739 0.0
C2334 C 0.93054 0.25338 0.76316 0.0
C2335 C 0.93804 0.25155 0.75079 0.0
C2336 C 0.9261 0.24335 0.7749 0.0
C2337 C 0.92989 0.21199 0.79156 0.0
H2338 H 0.8916 0.20285 0.80824 0.0
C2339 C 0.89133 0.16203 0.83074 0.0
C2340 C 0.88746 0.16721 0.84417 0.0
C2341 C 0.89951 0.17233 0.8197 0.0
C2342 C 0.90233 0.20535 0.80372 0.0
H2343 H 0.94724 0.23813 0.74108 0.0
H2344 H 0.93873 0.21989 0.7613 0.0
H2345 H 0.90159 0.22041 0.78794 0.0
H2346 H 0.89026 0.18753 0.85703 0.0
H2347 H 0.90394 0.20526 0.8375 0.0
H2348 H 0.93 0.19616 0.80716 0.0
C2349 C 0.93663 0.22937 0.76217 0.0
C2350 C 0.90817 0.21553 0.79216 0.0
C2351 C 0.94146 0.23974 0.75055 0.0
C2352 C 0.89265 0.18304 0.84665 0.0
C2353 C 0.9006 0.19324 0.83556 0.0
C2354 C 0.92383 0.2015 0.80299 0.0
C2355 C 0.92859 0.23087 0.77434 0.0
C2356 C 0.9222 0.21929 0.78612 0.0
C2357 C 0.90379 0.18791 0.82186 0.0
C2358 C 0.91014 0.19835 0.80932 0.0
H2359 H 0.92804 0.2626 0.76374 0.0
H2360 H 0.92051 0.24531 0.78433 0.0
H2361 H 0.94073 0.21462 0.78725 0.0
H2362 H 0.88744 0.14992 0.82839 0.0
H2363 H 0.90179 0.16798 0.80915 0.0
C2364 C 0.76135 0.66748 0.72184 0.0
C2365 C 0.75206 0.67357 0.71825 0.0
C2366 C 0.77111 0.67293 0.73513 0.0
C2367 C 0.78911 0.70463 0.76616 0.0
H2368 H 0.78979 0.673 0.78908 0.0
C2369 C 0.81179 0.71377 0.83004 0.0
C2370 C 0.81971 0.70635 0.83423 0.0
C2371 C 0.80521 0.71137 0.81509 0.0
C2372 C 0.78992 0.68202 0.78272 0.0
H2373 H 0.74612 0.69056 0.72556 0.0
H2374 H 0.76295 0.69985 0.74899 0.0
H2375 H 0.77514 0.66583 0.76453 0.0
H2376 H 0.82784 0.69147 0.82579 0.0
H2377 H 0.81636 0.68728 0.79975 0.0
H2378 H 0.80367 0.72075 0.78471 0.0
C2379 C 0.76284 0.691 0.7414 0.0
C2380 C 0.78152 0.67791 0.76862 0.0
C2381 C 0.75314 0.68562 0.728 0.0
C2382 C 0.82153 0.69709 0.82299 0.0
C2383 C 0.81497 0.69469 0.80809 0.0
C2384 C 0.79749 0.70874 0.78037 0.0
C2385 C 0.77173 0.68451 0.74526 0.0
C2386 C 0.78101 0.68915 0.76013 0.0
C2387 C 0.80642 0.7015 0.80407 0.0
C2388 C 0.79798 0.69746 0.78878 0.0
H2389 H 0.76096 0.65833 0.71448 0.0
H2390 H 0.77806 0.66792 0.73755 0.0
H2391 H 0.78908 0.71359 0.75986 0.0
H2392 H 0.81009 0.72087 0.83848 0.0
H2393 H 0.79861 0.71669 0.81238 0.0
C2394 C 0.72462 0.64107 0.62892 0.0
C2395 C 0.73317 0.65564 0.637 0.0
C2396 C 0.72952 0.63789 0.6152 0.0
C2397 C 0.75475 0.65706 0.58391 0.0
H2398 H 0.75172 0.61746 0.57602 0.0
C2399 C 0.78609 0.64571 0.53607 0.0
C2400 C 0.77823 0.63147 0.5273 0.0
C2401 C 0.77978 0.64844 0.54892 0.0
C2402 C 0.75245 0.62849 0.57797 0.0
H2403 H 0.75361 0.67826 0.6371 0.0
H2404 H 0.7623 0.67265 0.61327 0.0
H2405 H 0.74245 0.62266 0.59966 0.0
H2406 H 0.75746 0.60899 0.52507 0.0
H2407 H 0.74646 0.61374 0.54767 0.0
H2408 H 0.76495 0.66295 0.56232 0.0
C2409 C 0.75167 0.66376 0.6174 0.0
C2410 C 0.74715 0.63148 0.59151 0.0
C2411 C 0.74675 0.66694 0.63111 0.0
C2412 C 0.76387 0.62002 0.53168 0.0
C2413 C 0.75757 0.62274 0.5446 0.0
C2414 C 0.76009 0.65409 0.57041 0.0
C2415 C 0.7431 0.6492 0.60927 0.0
C2416 C 0.74834 0.64585 0.59469 0.0
C2417 C 0.76549 0.63697 0.55338 0.0
C2418 C 0.75911 0.63982 0.56735 0.0
H2419 H 0.71407 0.63213 0.63314 0.0
H2420 H 0.72256 0.62663 0.60912 0.0
H2421 H 0.75557 0.66813 0.58587 0.0
H2422 H 0.79732 0.65466 0.53323 0.0
H2423 H 0.78628 0.65942 0.5556 0.0
C2424 C 0.3363 0.07046 0.63718 0.0
C2425 C 0.34361 0.06293 0.64287 0.0
C2426 C 0.3433 0.08187 0.62688 0.0
C2427 C 0.37137 0.09576 0.59775 0.0
H2428 H 0.36851 0.1325 0.60327 0.0
C2429 C 0.38856 0.15618 0.56725 0.0
C2430 C 0.383 0.15006 0.55206 0.0
C2431 C 0.38669 0.14642 0.5789 0.0
C2432 C 0.36964 0.12244 0.60165 0.0
H2433 H 0.36402 0.06143 0.64203 0.0
H2434 H 0.37624 0.08139 0.62377 0.0
H2435 H 0.35967 0.11393 0.62288 0.0
H2436 H 0.37198 0.12904 0.53702 0.0
H2437 H 0.3685 0.112 0.55737 0.0
H2438 H 0.38111 0.10419 0.57634 0.0
C2439 C 0.36506 0.0784 0.62741 0.0
C2440 C 0.36442 0.11172 0.61281 0.0
C2441 C 0.35809 0.06702 0.63788 0.0
C2442 C 0.37619 0.13407 0.54865 0.0
C2443 C 0.37436 0.12433 0.56029 0.0
C2444 C 0.37654 0.10647 0.5865 0.0
C2445 C 0.35776 0.08601 0.62191 0.0
C2446 C 0.36492 0.09811 0.61084 0.0
C2447 C 0.37927 0.13035 0.57561 0.0
C2448 C 0.37547 0.1198 0.58821 0.0
H2449 H 0.32514 0.06763 0.64075 0.0
H2450 H 0.33727 0.08734 0.62265 0.0
H2451 H 0.37186 0.08535 0.5959 0.0
H2452 H 0.39379 0.16844 0.57027 0.0
H2453 H 0.39075 0.15143 0.59057 0.0
C2454 C 0.92847 0.25423 0.66288 0.0
C2455 C 0.93155 0.26779 0.67137 0.0
C2456 C 0.91947 0.24945 0.64903 0.0
C2457 C 0.90793 0.26501 0.61772 0.0
H2458 H 0.87747 0.22215 0.60634 0.0
C2459 C 0.8592 0.22636 0.56557 0.0
C2460 C 0.86814 0.23195 0.55287 0.0
C2461 C 0.866 0.23073 0.58054 0.0
C2462 C 0.88584 0.23418 0.60943 0.0
H2463 H 0.92731 0.28678 0.67219 0.0
H2464 H 0.91168 0.27846 0.64807 0.0
H2465 H 0.89087 0.22943 0.63186 0.0
H2466 H 0.89107 0.24681 0.54582 0.0
H2467 H 0.90293 0.2545 0.57192 0.0
H2468 H 0.90304 0.26977 0.59529 0.0
C2469 C 0.91632 0.27159 0.65203 0.0
C2470 C 0.89361 0.23831 0.62396 0.0
C2471 C 0.92523 0.27631 0.66588 0.0
C2472 C 0.88393 0.24224 0.55541 0.0
C2473 C 0.89069 0.24673 0.57034 0.0
C2474 C 0.90028 0.26087 0.60318 0.0
C2475 C 0.91347 0.2582 0.64338 0.0
C2476 C 0.90479 0.25376 0.62821 0.0
C2477 C 0.88183 0.24094 0.58306 0.0
C2478 C 0.88924 0.2454 0.59884 0.0
H2479 H 0.93317 0.24741 0.66682 0.0
H2480 H 0.91757 0.23915 0.64254 0.0
H2481 H 0.91658 0.27699 0.62061 0.0
H2482 H 0.84701 0.21835 0.5639 0.0
H2483 H 0.8589 0.22619 0.59015 0.0
C2484 C 0.35417 0.28033 0.66849 0.0
C2485 C 0.33848 0.27184 0.67083 0.0
C2486 C 0.36043 0.27476 0.65771 0.0
C2487 C 0.35154 0.23847 0.6353 0.0
H2488 H 0.38248 0.26607 0.60906 0.0
C2489 C 0.36195 0.21892 0.57658 0.0
C2490 C 0.37703 0.22328 0.57346 0.0
C2491 C 0.35891 0.22489 0.58982 0.0
C2492 C 0.374 0.25828 0.61648 0.0
H2493 H 0.317 0.25113 0.66336 0.0
H2494 H 0.32772 0.24174 0.64436 0.0
H2495 H 0.37388 0.27673 0.62949 0.0
H2496 H 0.40074 0.23747 0.5821 0.0
H2497 H 0.39534 0.24842 0.605 0.0
H2498 H 0.35114 0.22002 0.62174 0.0
C2499 C 0.33536 0.25241 0.65115 0.0
C2500 C 0.36908 0.26436 0.62819 0.0
C2501 C 0.32916 0.25787 0.66198 0.0
C2502 C 0.389 0.23393 0.58398 0.0
C2503 C 0.38595 0.24017 0.59713 0.0
C2504 C 0.3563 0.23243 0.62349 0.0
C2505 C 0.35109 0.26066 0.64898 0.0
C2506 C 0.35752 0.25449 0.63752 0.0
C2507 C 0.37086 0.23564 0.60015 0.0
C2508 C 0.36735 0.24225 0.61379 0.0
H2509 H 0.36166 0.29111 0.67517 0.0
H2510 H 0.37261 0.28137 0.65643 0.0
H2511 H 0.34296 0.23054 0.64253 0.0
H2512 H 0.35242 0.21117 0.56861 0.0
H2513 H 0.34719 0.22142 0.59178 0.0
C2514 C 0.74782 0.0779 0.62047 0.0
C2515 C 0.73233 0.07224 0.62271 0.0
C2516 C 0.75524 0.08867 0.60963 0.0
C2517 C 0.74935 0.10264 0.57409 0.0
H2518 H 0.78632 0.14111 0.58756 0.0
C2519 C 0.77928 0.15142 0.53323 0.0
C2520 C 0.79533 0.15989 0.53425 0.0
C2521 C 0.77125 0.14119 0.54432 0.0
C2522 C 0.77615 0.13035 0.58351 0.0
H2523 H 0.71233 0.07301 0.61511 0.0
H2524 H 0.72525 0.09155 0.59581 0.0
H2525 H 0.77315 0.12174 0.60592 0.0
H2526 H 0.81547 0.16456 0.5481 0.0
H2527 H 0.80158 0.14617 0.56683 0.0
H2528 H 0.75255 0.11084 0.55158 0.0
C2529 C 0.73164 0.08777 0.60259 0.0
C2530 C 0.76859 0.11931 0.59407 0.0
C2531 C 0.7243 0.07722 0.61364 0.0
C2532 C 0.80312 0.15803 0.54675 0.0
C2533 C 0.79511 0.14764 0.55769 0.0
C2534 C 0.75706 0.11355 0.56345 0.0
C2535 C 0.74721 0.09371 0.60064 0.0
C2536 C 0.75515 0.10537 0.58943 0.0
C2537 C 0.77906 0.13901 0.55659 0.0
C2538 C 0.77059 0.12756 0.56801 0.0
H2539 H 0.7543 0.07428 0.62733 0.0
H2540 H 0.76724 0.09304 0.60822 0.0
H2541 H 0.73904 0.0919 0.57025 0.0
H2542 H 0.77286 0.15242 0.5237 0.0
H2543 H 0.75889 0.13496 0.54322 0.0
C2544 C 0.91069 0.64942 0.65806 0.0
C2545 C 0.91963 0.66529 0.66253 0.0
C2546 C 0.90132 0.64427 0.64443 0.0
C2547 C 0.89854 0.65626 0.60657 0.0
H2548 H 0.85516 0.62627 0.60543 0.0
C2549 C 0.85991 0.64573 0.55285 0.0
C2550 C 0.84761 0.63075 0.54864 0.0
C2551 C 0.86819 0.64911 0.56694 0.0
C2552 C 0.8673 0.63445 0.60547 0.0
H2553 H 0.92573 0.68818 0.65622 0.0
H2554 H 0.90968 0.67919 0.63229 0.0
H2555 H 0.87062 0.63342 0.62974 0.0
H2556 H 0.83438 0.60758 0.55622 0.0
H2557 H 0.84932 0.61333 0.58055 0.0
H2558 H 0.89553 0.65713 0.5824 0.0
C2559 C 0.90984 0.67076 0.63941 0.0
C2560 C 0.87611 0.63858 0.61941 0.0
C2561 C 0.91896 0.67588 0.65313 0.0
C2562 C 0.84385 0.61922 0.55898 0.0
C2563 C 0.85231 0.62257 0.57305 0.0
C2564 C 0.88983 0.65197 0.59263 0.0
C2565 C 0.90099 0.65493 0.63491 0.0
C2566 C 0.89174 0.64972 0.6201 0.0
C2567 C 0.86467 0.63755 0.57716 0.0
C2568 C 0.87403 0.64125 0.59192 0.0
H2569 H 0.91092 0.64098 0.6651 0.0
H2570 H 0.89461 0.63201 0.64116 0.0
H2571 H 0.91063 0.6647 0.60677 0.0
H2572 H 0.86341 0.65489 0.54514 0.0
H2573 H 0.8774 0.66086 0.56979 0.0
C2574 C 0.94342 0.69606 0.75413 0.0
C2575 C 0.93386 0.68206 0.7454 0.0
C2576 C 0.93851 0.6998 0.76759 0.0
C2577 C 0.91057 0.68162 0.79704 0.0
H2578 H 0.91897 0.72315 0.80708 0.0
C2579 C 0.89448 0.69769 0.85453 0.0
C2580 C 0.88745 0.70652 0.85391 0.0
C2581 C 0.9016 0.69592 0.84185 0.0
C2582 C 0.91649 0.71148 0.8044 0.0
H2583 H 0.91157 0.66112 0.74376 0.0
H2584 H 0.90296 0.66771 0.76704 0.0
H2585 H 0.92803 0.71747 0.78348 0.0
H2586 H 0.88268 0.72075 0.83964 0.0
H2587 H 0.89498 0.71754 0.81738 0.0
H2588 H 0.89864 0.67547 0.81762 0.0
C2589 C 0.91435 0.6757 0.76368 0.0
C2590 C 0.92181 0.70827 0.79096 0.0
C2591 C 0.91925 0.67196 0.75028 0.0
C2592 C 0.88813 0.71399 0.8405 0.0
C2593 C 0.8952 0.71216 0.82776 0.0
C2594 C 0.90525 0.68483 0.81042 0.0
C2595 C 0.92396 0.68959 0.77258 0.0
C2596 C 0.91879 0.69326 0.78707 0.0
C2597 C 0.90178 0.70288 0.8282 0.0
C2598 C 0.90807 0.69977 0.81424 0.0
H2599 H 0.95475 0.70408 0.75067 0.0
H2600 H 0.94624 0.71053 0.77425 0.0
H2601 H 0.90823 0.66999 0.7945 0.0
H2602 H 0.89434 0.69201 0.86481 0.0
H2603 H 0.90684 0.68897 0.84268 0.0
C2604 C 0.30656 0.26579 0.75431 0.0
C2605 C 0.31942 0.27001 0.74583 0.0
C2606 C 0.30267 0.25505 0.76545 0.0
C2607 C 0.31877 0.23571 0.7883 0.0
H2608 H 0.27624 0.2062 0.79403 0.0
C2609 C 0.29949 0.18038 0.81923 0.0
C2610 C 0.29092 0.17878 0.83208 0.0
C2611 C 0.30208 0.19146 0.80888 0.0
C2612 C 0.28815 0.21445 0.79257 0.0
H2613 H 0.33814 0.26615 0.74213 0.0
H2614 H 0.33108 0.24709 0.76095 0.0
H2615 H 0.28275 0.22594 0.77571 0.0
H2616 H 0.27785 0.1873 0.84367 0.0
H2617 H 0.28192 0.20625 0.82512 0.0
H2618 H 0.32408 0.22374 0.80469 0.0
C2619 C 0.32424 0.25238 0.75952 0.0
C2620 C 0.29191 0.22582 0.78217 0.0
C2621 C 0.32826 0.26326 0.74861 0.0
C2622 C 0.28436 0.18806 0.83385 0.0
C2623 C 0.28674 0.19897 0.8233 0.0
C2624 C 0.315 0.2242 0.79844 0.0
C2625 C 0.31145 0.24817 0.76816 0.0
C2626 C 0.3073 0.23652 0.77978 0.0
C2627 C 0.2959 0.20097 0.81094 0.0
C2628 C 0.29968 0.21341 0.80056 0.0
H2629 H 0.29958 0.27086 0.75243 0.0
H2630 H 0.29287 0.25228 0.77201 0.0
H2631 H 0.33073 0.24397 0.78714 0.0
H2632 H 0.30438 0.17319 0.81723 0.0
H2633 H 0.30902 0.19268 0.79929 0.0
C2634 C 0.74633 0.05489 0.70878 0.0
C2635 C 0.74763 0.06699 0.70034 0.0
C2636 C 0.75602 0.05802 0.72188 0.0
C2637 C 0.78021 0.08987 0.75108 0.0
H2638 H 0.79502 0.06308 0.76294 0.0
C2639 C 0.82103 0.10615 0.80426 0.0
C2640 C 0.81695 0.09462 0.81462 0.0
C2641 C 0.81418 0.10247 0.78937 0.0
C2642 C 0.79091 0.07062 0.75978 0.0
H2643 H 0.76066 0.09177 0.69858 0.0
H2644 H 0.77772 0.09717 0.72109 0.0
H2645 H 0.77998 0.05727 0.73853 0.0
H2646 H 0.80304 0.07005 0.81724 0.0
H2647 H 0.79106 0.06359 0.79112 0.0
H2648 H 0.79102 0.10317 0.77227 0.0
C2649 C 0.76895 0.0853 0.71791 0.0
C2650 C 0.78227 0.06728 0.74583 0.0
C2651 C 0.7592 0.08219 0.70493 0.0
C2652 C 0.8065 0.07917 0.80948 0.0
C2653 C 0.79963 0.07548 0.79453 0.0
C2654 C 0.78889 0.09324 0.76492 0.0
C2655 C 0.76729 0.07331 0.72674 0.0
C2656 C 0.7768 0.07688 0.74133 0.0
C2657 C 0.80308 0.08716 0.78449 0.0
C2658 C 0.79433 0.08366 0.76945 0.0
H2659 H 0.73752 0.04304 0.70556 0.0
H2660 H 0.75432 0.04851 0.72847 0.0
H2661 H 0.77589 0.09731 0.74821 0.0
H2662 H 0.82926 0.11812 0.80782 0.0
H2663 H 0.8173 0.11168 0.78179 0.0
C2664 C 0.03393 0.32692 0.0368 0.0
C2665 C 0.03908 0.34242 0.0343 0.0
C2666 C 0.04339 0.32294 0.04469 0.0
C2667 C 0.07352 0.33779 0.07478 0.0
H2668 H 0.08029 0.30515 0.05989 0.0
C2669 C 0.1141 0.32375 0.10819 0.0
C2670 C 0.11093 0.30844 0.10738 0.0
C2671 C 0.10546 0.32794 0.09914 0.0
C2672 C 0.07832 0.31411 0.06438 0.0
H2673 H 0.05824 0.36589 0.03785 0.0
H2674 H 0.07469 0.35893 0.05205 0.0
H2675 H 0.0654 0.31244 0.04375 0.0
H2676 H 0.09575 0.28544 0.09657 0.0
H2677 H 0.08013 0.29251 0.08157 0.0
H2678 H 0.08577 0.33911 0.09565 0.0
C2679 C 0.06337 0.34989 0.04773 0.0
C2680 C 0.0699 0.31836 0.05504 0.0
C2681 C 0.05401 0.35384 0.03953 0.0
C2682 C 0.09849 0.29731 0.09767 0.0
C2683 C 0.08967 0.30145 0.0888 0.0
C2684 C 0.08169 0.33336 0.08425 0.0
C2685 C 0.05807 0.33441 0.05052 0.0
C2686 C 0.06746 0.33026 0.06014 0.0
C2687 C 0.09318 0.31687 0.08921 0.0
C2688 C 0.08425 0.32147 0.07919 0.0
H2689 H 0.02248 0.31788 0.03288 0.0
H2690 H 0.03902 0.31094 0.04676 0.0
H2691 H 0.07158 0.34685 0.07906 0.0
H2692 H 0.12339 0.33262 0.11573 0.0
H2693 H 0.10867 0.33996 0.09972 0.0
C2694 C 0.63867 0.68174 0.09226 0.0
C2695 C 0.64428 0.67356 0.08408 0.0
C2696 C 0.6487 0.6958 0.10045 0.0
C2697 C 0.68744 0.72865 0.10037 0.0
H2698 H 0.67835 0.7402 0.13992 0.0
C2699 C 0.70988 0.785 0.14714 0.0
C2700 C 0.70977 0.79531 0.13699 0.0
C2701 C 0.7051 0.76982 0.1418 0.0
C2702 C 0.68122 0.73708 0.12902 0.0
H2703 H 0.66485 0.67361 0.07834 0.0
H2704 H 0.68235 0.69828 0.09255 0.0
H2705 H 0.66305 0.71354 0.12902 0.0
H2706 H 0.7056 0.79841 0.11332 0.0
H2707 H 0.69748 0.77204 0.10392 0.0
H2708 H 0.70525 0.75233 0.10012 0.0
C2709 C 0.67018 0.69377 0.09259 0.0
C2710 C 0.67236 0.72187 0.12271 0.0
C2711 C 0.66014 0.67963 0.08451 0.0
C2712 C 0.70578 0.7906 0.12131 0.0
C2713 C 0.70122 0.77556 0.11595 0.0
C2714 C 0.69622 0.74389 0.10663 0.0
C2715 C 0.66456 0.70206 0.10055 0.0
C2716 C 0.67514 0.7176 0.10815 0.0
C2717 C 0.70037 0.76487 0.12621 0.0
C2718 C 0.69295 0.74834 0.12083 0.0
H2719 H 0.62653 0.67737 0.0922 0.0
H2720 H 0.64405 0.70203 0.10632 0.0
H2721 H 0.68981 0.72571 0.0891 0.0
H2722 H 0.71283 0.78841 0.1593 0.0
H2723 H 0.70462 0.76183 0.14992 0.0
C2724 C 0.32735 0.96696 0.03798 0.0
C2725 C 0.33136 0.95769 0.02921 0.0
C2726 C 0.31348 0.96041 0.04488 0.0
C2727 C 0.28258 0.92353 0.05747 0.0
H2728 H 0.26123 0.94608 0.05994 0.0
C2729 C 0.22438 0.8992 0.08419 0.0
C2730 C 0.22372 0.90921 0.09551 0.0
C2731 C 0.23649 0.90465 0.07457 0.0
C2732 C 0.2671 0.93969 0.05935 0.0
H2733 H 0.32391 0.93421 0.02081 0.0
H2734 H 0.29943 0.92272 0.03267 0.0
H2735 H 0.2843 0.95613 0.04584 0.0
H2736 H 0.23511 0.9329 0.10527 0.0
H2737 H 0.25607 0.94247 0.08822 0.0
H2738 H 0.26527 0.90706 0.07096 0.0
C2739 C 0.30718 0.93507 0.03439 0.0
C2740 C 0.28034 0.94545 0.05134 0.0
C2741 C 0.32118 0.94165 0.02755 0.0
C2742 C 0.23514 0.92492 0.09656 0.0
C2743 C 0.24717 0.9304 0.08683 0.0
C2744 C 0.26925 0.91769 0.06535 0.0
C2745 C 0.30315 0.9444 0.04309 0.0
C2746 C 0.2884 0.93759 0.05054 0.0
C2747 C 0.2481 0.92026 0.07594 0.0
C2748 C 0.26152 0.92585 0.06656 0.0
H2749 H 0.33498 0.97935 0.03962 0.0
H2750 H 0.31094 0.96791 0.0518 0.0
H2751 H 0.28859 0.91728 0.05725 0.0
H2752 H 0.21561 0.88709 0.08285 0.0
H2753 H 0.23684 0.89665 0.06612 0.0
C2754 C 0.36453 0.046 0.00894 0.0
C2755 C 0.35708 0.03035 0.00362 0.0
C2756 C 0.358 0.05492 0.00572 0.0
C2757 C 0.32134 0.0515 0.99224 0.0
H2758 H 0.34741 0.0915 0.9766 0.0
C2759 C 0.29988 0.07936 0.9502 0.0
C2760 C 0.30599 0.0954 0.95194 0.0
C2761 C 0.30535 0.07228 0.95971 0.0
C2762 C 0.34001 0.08047 0.98121 0.0
H2763 H 0.33683 0.01173 0.99098 0.0
H2764 H 0.32569 0.02721 0.9852 0.0
H2765 H 0.35879 0.07764 0.98759 0.0
H2766 H 0.32205 0.11642 0.96569 0.0
H2767 H 0.33184 0.10404 0.98206 0.0
H2768 H 0.30252 0.05404 0.98515 0.0
C2769 C 0.3364 0.03261 0.99208 0.0
C2770 C 0.34653 0.07254 0.98753 0.0
C2771 C 0.34289 0.02375 0.99528 0.0
C2772 C 0.31731 0.10409 0.96382 0.0
C2773 C 0.32288 0.09702 0.97324 0.0
C2774 C 0.31483 0.05937 0.98582 0.0
C2775 C 0.34388 0.04832 -0.00282 0.0
C2776 C 0.33723 0.05777 0.99271 0.0
C2777 C 0.31713 0.08108 0.97111 0.0
C2778 C 0.32407 0.07375 0.97988 0.0
H2779 H 0.37546 0.05139 0.01544 0.0
H2780 H 0.364 0.06698 0.00989 0.0
H2781 H 0.31387 0.04029 0.99645 0.0
H2782 H 0.29134 0.07233 0.94104 0.0
H2783 H 0.30084 0.06 0.95767 0.0
C2784 C 0.94796 0.2988 0.99239 0.0
C2785 C 0.96394 0.30797 0.99266 0.0
C2786 C 0.94021 0.28443 0.98415 0.0
C2787 C 0.94507 0.25342 0.96619 0.0
H2788 H 0.90616 0.24162 0.94525 0.0
C2789 C 0.90765 0.1969 0.92633 0.0
C2790 C 0.89215 0.18867 0.92957 0.0
C2791 C 0.91756 0.2116 0.93356 0.0
C2792 C 0.917 0.24475 0.95107 0.0
H2793 H 0.98436 0.30911 0.98462 0.0
H2794 H 0.97074 0.28404 0.9699 0.0
H2795 H 0.92143 0.26719 0.95841 0.0
H2796 H 0.87517 0.18911 0.94363 0.0
H2797 H 0.8923 0.21478 0.95584 0.0
H2798 H 0.9405 0.23083 0.95861 0.0
C2799 C 0.96424 0.28792 0.97627 0.0
C2800 C 0.92572 0.25937 0.95868 0.0
C2801 C 0.97203 0.30231 0.98465 0.0
C2802 C 0.88691 0.19528 0.94051 0.0
C2803 C 0.89673 0.20996 0.94757 0.0
C2804 C 0.93636 0.23878 0.95841 0.0
C2805 C 0.94821 0.27889 0.97581 0.0
C2806 C 0.93969 0.26377 0.96665 0.0
C2807 C 0.91208 0.21834 0.94403 0.0
C2808 C 0.92209 0.23422 0.95109 0.0
H2809 H 0.94137 0.3027 -0.00143 0.0
H2810 H 0.92791 0.27763 0.98439 0.0
H2811 H 0.95573 0.25641 0.97228 0.0
H2812 H 0.91203 0.19218 0.91791 0.0
H2813 H 0.92936 0.21787 0.93065 0.0
C2814 C 0.67668 0.62933 0.02584 0.0
C2815 C 0.67385 0.64029 0.033 0.0
C2816 C 0.69013 0.63413 0.0183 0.0
C2817 C 0.7293 0.66622 0.01581 0.0
H2818 H 0.72431 0.65161 0.97291 0.0
C2819 C 0.77871 0.69424 0.97536 0.0
C2820 C 0.77979 0.68465 0.96389 0.0
C2821 C 0.76602 0.68848 0.98427 0.0
C2822 C 0.72601 0.65561 0.98495 0.0
H2823 H 0.6831 0.66475 0.03854 0.0
H2824 H 0.70668 0.67305 0.02569 0.0
H2825 H 0.70214 0.64151 0.98832 0.0
H2826 H 0.76806 0.6615 0.95261 0.0
H2827 H 0.74652 0.65132 0.9686 0.0
H2828 H 0.75316 0.68013 0.01262 0.0
C2829 C 0.69848 0.66081 0.02578 0.0
C2830 C 0.71327 0.64983 0.99374 0.0
C2831 C 0.68495 0.65605 0.03305 0.0
C2832 C 0.76783 0.66919 0.96153 0.0
C2833 C 0.75528 0.66338 0.97056 0.0
C2834 C 0.74209 0.67184 0.00709 0.0
C2835 C 0.70107 0.64992 0.0181 0.0
C2836 C 0.71477 0.65519 0.0092 0.0
C2837 C 0.75415 0.67294 0.98203 0.0
C2838 C 0.7406 0.66672 0.99148 0.0
H2839 H 0.6683 0.61712 0.02561 0.0
H2840 H 0.69193 0.62552 0.0125 0.0
H2841 H 0.73074 0.67046 0.02776 0.0
H2842 H 0.78775 0.70617 0.97762 0.0
H2843 H 0.76547 0.69628 0.99282 0.0
C2844 C 0.94082 0.63345 0.0071 0.0
C2845 C 0.95264 0.6424 0.01841 0.0
C2846 C 0.93511 0.64043 -0.00231 0.0
C2847 C 0.929 0.67242 0.99617 0.0
H2848 H 0.92989 0.66779 0.95188 0.0
C2849 C 0.90728 0.702 0.95656 0.0
C2850 C 0.8988 0.69351 0.94294 0.0
C2851 C 0.91566 0.69719 0.96517 0.0
C2852 C 0.92934 0.66905 0.9642 0.0
H2853 H 0.96747 0.66553 0.02905 0.0
H2854 H 0.95704 0.67759 0.01294 0.0
H2855 H 0.93984 0.65572 0.96846 0.0
H2856 H 0.89344 0.67388 0.92717 0.0
H2857 H 0.90719 0.66499 0.94253 0.0
H2858 H 0.91783 0.68503 0.99212 0.0
C2859 C 0.95242 0.66526 0.01123 0.0
C2860 C 0.93511 0.66218 0.97366 0.0
C2861 C 0.95837 0.65836 0.0204 0.0
C2862 C 0.89953 0.68052 0.93778 0.0
C2863 C 0.90767 0.67555 0.94652 0.0
C2864 C 0.92292 0.67902 0.98672 0.0
C2865 C 0.94088 0.65638 -0.00031 0.0
C2866 C 0.93493 0.66378 0.9897 0.0
C2867 C 0.91559 0.68362 0.96052 0.0
C2868 C 0.92294 0.67738 0.97058 0.0
H2869 H 0.93626 0.62115 0.00526 0.0
H2870 H 0.92613 0.63337 0.9889 0.0
H2871 H 0.92868 0.67372 0.00854 0.0
H2872 H 0.90695 0.71202 0.96098 0.0
H2873 H 0.92193 0.70396 0.97566 0.0
C2874 C 0.34813 0.32513 0.95745 0.0
C2875 C 0.35485 0.32886 0.97253 0.0
C2876 C 0.34216 0.31027 0.95052 0.0
C2877 C 0.32412 0.27049 0.95899 0.0
H2878 H 0.33649 0.26332 0.91937 0.0
C2879 C 0.3035 0.20905 0.93251 0.0
C2880 C 0.30187 0.20645 0.91645 0.0
C2881 C 0.30957 0.22396 0.93937 0.0
C2882 C 0.33265 0.26509 0.93029 0.0
H2883 H 0.36068 0.32008 0.99217 0.0
H2884 H 0.34979 0.29384 0.98012 0.0
H2885 H 0.34834 0.28953 0.93126 0.0
H2886 H 0.30464 0.21706 0.89489 0.0
H2887 H 0.31445 0.24303 0.90679 0.0
H2888 H 0.308 0.24626 0.95788 0.0
C2889 C 0.34935 0.30253 0.97368 0.0
C2890 C 0.33957 0.2801 0.93714 0.0
C2891 C 0.35563 0.31751 0.98051 0.0
C2892 C 0.30586 0.21886 0.90732 0.0
C2893 C 0.31164 0.23374 0.91417 0.0
C2894 C 0.31696 0.2555 0.95201 0.0
C2895 C 0.34252 0.2988 0.95866 0.0
C2896 C 0.33541 0.2829 0.95157 0.0
C2897 C 0.31388 0.23655 0.9303 0.0
C2898 C 0.32117 0.25258 0.93758 0.0
H2899 H 0.3474 0.33368 0.95103 0.0
H2900 H 0.33689 0.30761 0.93894 0.0
H2901 H 0.3206 0.27244 0.97005 0.0
H2902 H 0.3007 0.19964 0.93975 0.0
H2903 H 0.31135 0.22563 0.95178 0.0
C2904 C 0.67695 0.02974 0.01053 0.0
C2905 C 0.67582 0.03997 0.02111 0.0
C2906 C 0.69022 0.03448 0.00282 0.0
C2907 C 0.72582 0.06949 0.99279 0.0
H2908 H 0.7371 0.0392 0.9815 0.0
C2909 C 0.78104 0.08387 0.96261 0.0
C2910 C 0.77794 0.07534 0.94842 0.0
C2911 C 0.76959 0.07968 0.97296 0.0
C2912 C 0.73409 0.04776 0.98464 0.0
H2913 H 0.68777 0.06322 0.03197 0.0
H2914 H 0.71128 0.07141 0.01892 0.0
H2915 H 0.71544 0.03204 -0.00279 0.0
H2916 H 0.76082 0.05563 0.93396 0.0
H2917 H 0.74088 0.0479 0.95234 0.0
H2918 H 0.74483 0.08526 0.9804 0.0
C2919 C 0.70173 0.0598 0.01626 0.0
C2920 C 0.7216 0.04367 0.99352 0.0
C2921 C 0.68829 0.05511 0.0238 0.0
C2922 C 0.76343 0.06228 0.94491 0.0
C2923 C 0.75209 0.05788 0.95539 0.0
C2924 C 0.73851 0.07366 0.98416 0.0
C2925 C 0.70289 0.04951 0.00568 0.0
C2926 C 0.71705 0.05436 -0.00259 0.0
C2927 C 0.755 0.06671 0.96937 0.0
C2928 C 0.74255 0.06274 0.97977 0.0
H2929 H 0.66747 0.01804 0.00806 0.0
H2930 H 0.69042 0.02633 0.99445 0.0
H2931 H 0.72262 0.078 0.99536 0.0
H2932 H 0.79214 0.09409 0.96543 0.0
H2933 H 0.77206 0.08663 0.98368 0.0
C2934 C 0.66085 0.97588 0.05871 0.0
C2935 C 0.64578 0.96954 0.05257 0.0
C2936 C 0.66629 0.96634 0.06292 0.0
C2937 C 0.65319 0.92791 0.07575 0.0
H2938 H 0.69499 0.93888 0.07001 0.0
C2939 C 0.67821 0.8935 0.10154 0.0
C2940 C 0.69268 0.90243 0.10934 0.0
C2941 C 0.67245 0.90031 0.09198 0.0
C2942 C 0.68331 0.9357 0.07175 0.0
H2943 H 0.62468 0.94821 0.04569 0.0
H2944 H 0.63423 0.93142 0.05317 0.0
H2945 H 0.6847 0.95316 0.05775 0.0
H2946 H 0.71265 0.9254 0.11285 0.0
H2947 H 0.70259 0.93734 0.09624 0.0
H2948 H 0.65192 0.91078 0.09013 0.0
C2949 C 0.64178 0.94382 0.05475 0.0
C2950 C 0.67741 0.94385 0.06471 0.0
C2951 C 0.63634 0.95342 0.05043 0.0
C2952 C 0.70152 0.9182 0.10689 0.0
C2953 C 0.69575 0.92502 0.09735 0.0
C2954 C 0.6591 0.91977 0.08281 0.0
C2955 C 0.65679 0.95021 0.06116 0.0
C2956 C 0.66239 0.94027 0.06691 0.0
C2957 C 0.68103 0.91621 0.09001 0.0
C2958 C 0.67433 0.92378 0.08116 0.0
H2959 H 0.66844 0.98826 0.06048 0.0
H2960 H 0.67782 0.97163 0.06803 0.0
H2961 H 0.64165 0.92499 0.07783 0.0
H2962 H 0.67124 0.88126 0.10298 0.0
H2963 H 0.6612 0.89314 0.08628 0.0
C2964 C 0.02014 0.69363 0.07933 0.0
C2965 C 0.02332 0.68869 0.06537 0.0
C2966 C 0.02965 0.70868 0.08572 0.0
C2967 C 0.0684 0.74321 0.08362 0.0
H2968 H 0.05101 0.76285 0.10803 0.0
C2969 C 0.10244 0.80703 0.10824 0.0
C2970 C 0.1025 0.80871 0.12433 0.0
C2971 C 0.09233 0.79288 0.10023 0.0
C2972 C 0.05597 0.75747 0.10123 0.0
H2973 H 0.03882 0.69564 0.047 0.0
H2974 H 0.05513 0.72222 0.0578 0.0
H2975 H 0.03426 0.7374 0.09496 0.0
H2976 H 0.09197 0.79724 0.14467 0.0
H2977 H 0.07383 0.77251 0.13053 0.0
H2978 H 0.0901 0.76366 0.08965 0.0
C2979 C 0.04555 0.71434 0.0641 0.0
C2980 C 0.04643 0.74284 0.09382 0.0
C2981 C 0.03616 0.69914 0.05784 0.0
C2982 C 0.09204 0.79617 0.13226 0.0
C2983 C 0.0817 0.78211 0.1242 0.0
C2984 C 0.0779 0.75799 0.09078 0.0
C2985 C 0.04243 0.71931 0.07816 0.0
C2986 C 0.05253 0.73537 0.08514 0.0
C2987 C 0.08195 0.7803 0.10816 0.0
C2988 C 0.07177 0.76512 0.09982 0.0
H2989 H 0.01041 0.68577 0.08548 0.0
H2990 H 0.02705 0.71186 0.09675 0.0
H2991 H 0.07359 0.73781 0.07727 0.0
H2992 H 0.11056 0.81653 0.10195 0.0
H2993 H 0.09269 0.79171 0.08786 0.0
C2994 C 0.31639 0.34805 0.01826 0.0
C2995 C 0.32295 0.36416 0.01855 0.0
C2996 C 0.30275 0.33894 0.02518 0.0
C2997 C 0.26911 0.33852 0.04013 0.0
H2998 H 0.26834 0.30826 0.06644 0.0
C2999 C 0.23535 0.30502 0.09485 0.0
C3000 C 0.22022 0.29991 0.08975 0.0
C3001 C 0.2469 0.31077 0.08458 0.0
C3002 C 0.26837 0.31663 0.0591 0.0
H3003 H 0.32004 0.38326 0.02592 0.0
H3004 H 0.29623 0.36731 0.03813 0.0
H3005 H 0.29034 0.32296 0.05135 0.0
H3006 H 0.20519 0.29629 0.06988 0.0
H3007 H 0.22544 0.30628 0.05184 0.0
H3008 H 0.24734 0.33255 0.04832 0.0
C3009 C 0.30162 0.36175 0.03243 0.0
C3010 C 0.28091 0.32496 0.05036 0.0
C3011 C 0.3153 0.37089 0.02551 0.0
C3012 C 0.21675 0.30006 0.07407 0.0
C3013 C 0.22834 0.30592 0.0638 0.0
C3014 C 0.25653 0.33014 0.04883 0.0
C3015 C 0.29533 0.3457 0.03253 0.0
C3016 C 0.28151 0.33615 0.04095 0.0
C3017 C 0.24358 0.3116 0.06902 0.0
C3018 C 0.25615 0.31929 0.0586 0.0
H3019 H 0.3219 0.34245 0.0129 0.0
H3020 H 0.29807 0.32659 0.02487 0.0
H3021 H 0.26919 0.34696 0.03286 0.0
H3022 H 0.2383 0.30494 0.10687 0.0
H3023 H 0.25854 0.31517 0.08898 0.0
C3024 C 0.71088 0.68825 0.37671 0.0
C3025 C 0.69607 0.67784 0.37029 0.0
C3026 C 0.71897 0.68293 0.38505 0.0
C3027 C 0.72272 0.64945 0.39025 0.0
H3028 H 0.73943 0.66845 0.4313 0.0
C3029 C 0.75285 0.62705 0.42929 0.0
C3030 C 0.76591 0.6382 0.43828 0.0
C3031 C 0.74334 0.63118 0.42167 0.0
C3032 C 0.73505 0.66313 0.41978 0.0
H3033 H 0.67829 0.65368 0.36715 0.0
H3034 H 0.69265 0.64437 0.38139 0.0
H3035 H 0.72557 0.67743 0.41592 0.0
H3036 H 0.7787 0.66229 0.44689 0.0
H3037 H 0.76271 0.6696 0.43308 0.0
H3038 H 0.73263 0.63555 0.39375 0.0
C3039 C 0.69789 0.65664 0.38009 0.0
C3040 C 0.72706 0.66827 0.41102 0.0
C3041 C 0.68968 0.66197 0.37199 0.0
C3042 C 0.76893 0.65344 0.43983 0.0
C3043 C 0.75957 0.6576 0.43206 0.0
C3044 C 0.73094 0.64448 0.39891 0.0
C3045 C 0.71251 0.66709 0.38688 0.0
C3046 C 0.72088 0.66152 0.39615 0.0
C3047 C 0.74673 0.64657 0.42273 0.0
C3048 C 0.73729 0.65131 0.41378 0.0
H3049 H 0.71607 0.70054 0.37562 0.0
H3050 H 0.73029 0.6912 0.39009 0.0
H3051 H 0.71812 0.64412 0.37877 0.0
H3052 H 0.7502 0.61522 0.42776 0.0
H3053 H 0.7334 0.62229 0.41483 0.0
C3054 C 0.32354 0.00986 0.41898 0.0
C3055 C 0.30764 0.00263 0.41996 0.0
C3056 C 0.3333 0.02452 0.42629 0.0
C3057 C 0.33555 0.05258 0.45653 0.0
H3058 H 0.36465 0.08346 0.43115 0.0
C3059 C 0.36534 0.12128 0.45319 0.0
C3060 C 0.37099 0.12667 0.46848 0.0
C3061 C 0.3606 0.10613 0.44803 0.0
C3062 C 0.35667 0.07493 0.43841 0.0
H3063 H 0.28959 0.0049 0.42985 0.0
H3064 H 0.30662 0.03041 0.44262 0.0
H3065 H 0.3501 0.05642 0.42124 0.0
H3066 H 0.37664 0.12075 0.49025 0.0
H3067 H 0.36814 0.09402 0.48124 0.0
H3068 H 0.34172 0.07119 0.47348 0.0
C3069 C 0.31153 0.02473 0.43623 0.0
C3070 C 0.34842 0.05945 0.43279 0.0
C3071 C 0.30177 0.01016 0.42881 0.0
C3072 C 0.37239 0.11684 0.47839 0.0
C3073 C 0.36744 0.10157 0.47327 0.0
C3074 C 0.34391 0.06805 0.46221 0.0
C3075 C 0.32737 0.03216 0.43488 0.0
C3076 C 0.33749 0.04818 0.44164 0.0
C3077 C 0.36125 0.096 0.4581 0.0
C3078 C 0.35425 0.07943 0.45304 0.0
H3079 H 0.32845 0.00437 0.41227 0.0
H3080 H 0.34547 0.02993 0.42514 0.0
H3081 H 0.32731 0.04411 0.46365 0.0
H3082 H 0.36421 0.12869 0.44534 0.0
H3083 H 0.35574 0.10213 0.43634 0.0
C3084 C 0.00725 0.30205 0.37801 0.0
C3085 C 0.01114 0.29217 0.37025 0.0
C3086 C 0.99297 0.29618 0.38402 0.0
C3087 C 0.95919 0.25963 0.39435 0.0
H3088 H 0.93963 0.28394 0.39316 0.0
C3089 C 0.89693 0.23525 0.40924 0.0
C3090 C 0.8949 0.24398 0.42096 0.0
C3091 C 0.91064 0.24146 0.40201 0.0
C3092 C 0.945 0.27707 0.39358 0.0
H3093 H 0.00316 0.26835 0.36275 0.0
H3094 H 0.97801 0.2581 0.37277 0.0
H3095 H 0.96463 0.2938 0.38279 0.0
H3096 H 0.90545 0.2664 0.43367 0.0
H3097 H 0.92924 0.27739 0.42061 0.0
H3098 H 0.93931 0.24276 0.40482 0.0
C3099 C 0.98612 0.27037 0.37459 0.0
C3100 C 0.95936 0.28273 0.38775 0.0
C3101 C 0.00052 0.27624 0.36878 0.0
C3102 C 0.90655 0.2594 0.42459 0.0
C3103 C 0.92021 0.26569 0.41718 0.0
C3104 C 0.94474 0.25388 0.39995 0.0
C3105 C 0.98212 0.28028 0.38221 0.0
C3106 C 0.9667 0.27413 0.38816 0.0
C3107 C 0.92251 0.25661 0.40616 0.0
C3108 C 0.93756 0.26258 0.39968 0.0
H3109 H 0.01526 0.31438 0.37946 0.0
H3110 H 0.99048 0.30413 0.39014 0.0
H3111 H 0.96456 0.2528 0.39515 0.0
H3112 H 0.88806 0.22345 0.40592 0.0
H3113 H 0.91207 0.23433 0.39336 0.0
C3114 C 0.04984 0.37973 0.34157 0.0
C3115 C 0.04118 0.36398 0.33666 0.0
C3116 C 0.04514 0.38987 0.33713 0.0
C3117 C 0.01155 0.39064 0.32053 0.0
H3118 H 0.04214 0.42978 0.3062 0.0
C3119 C -0.00228 0.42435 0.27821 0.0
C3120 C 0.0052 0.44049 0.28079 0.0
C3121 C 0.00158 0.41577 0.28741 0.0
C3122 C 0.0335 0.419 0.31039 0.0
H3123 H 0.02072 0.34644 0.32342 0.0
H3124 H 0.01274 0.36406 0.31545 0.0
H3125 H 0.05004 0.41338 0.31807 0.0
H3126 H 0.02223 0.46021 0.29549 0.0
H3127 H 0.02922 0.44519 0.31133 0.0
H3128 H 0.99498 0.39603 0.31223 0.0
C3129 C 0.02298 0.36861 0.32297 0.0
C3130 C 0.03802 0.40961 0.31723 0.0
C3131 C 0.02764 0.35851 0.32744 0.0
C3132 C 0.01643 0.44782 0.29301 0.0
C3133 C 0.0204 0.43924 0.30212 0.0
C3134 C 0.00704 0.39997 0.31359 0.0
C3135 C 0.0317 0.38442 0.32768 0.0
C3136 C 0.02707 0.39518 0.32207 0.0
C3137 C 0.01309 0.42315 0.29932 0.0
C3138 C 0.01795 0.41409 0.30819 0.0
H3139 H 0.06029 0.38426 0.34874 0.0
H3140 H 0.05203 0.40196 0.34109 0.0
H3141 H 0.00285 0.37974 0.32444 0.0
H3142 H 0.98922 0.41834 0.26874 0.0
H3143 H 0.99593 0.4034 0.28485 0.0
C3144 C 0.63718 0.64455 0.31274 0.0
C3145 C 0.62936 0.65237 0.31592 0.0
C3146 C 0.62968 0.63001 0.30468 0.0
C3147 C 0.59462 0.60333 0.27993 0.0
H3148 H 0.60184 0.57166 0.29412 0.0
C3149 C 0.55219 0.53883 0.26606 0.0
C3150 C 0.55793 0.52954 0.26074 0.0
C3151 C 0.56205 0.55404 0.27179 0.0
C3152 C 0.59986 0.58045 0.28992 0.0
H3153 H 0.60755 0.65107 0.31302 0.0
H3154 H 0.59443 0.62569 0.29937 0.0
H3155 H 0.61703 0.59806 0.30577 0.0
H3156 H 0.57863 0.52896 0.25763 0.0
H3157 H 0.59592 0.55559 0.2681 0.0
H3158 H 0.57707 0.58556 0.26449 0.0
C3159 C 0.60644 0.63087 0.30276 0.0
C3160 C 0.60858 0.59558 0.29654 0.0
C3161 C 0.61395 0.64543 0.3107 0.0
C3162 C 0.57382 0.53575 0.26172 0.0
C3163 C 0.58372 0.55099 0.26765 0.0
C3164 C 0.58583 0.5882 0.27344 0.0
C3165 C 0.61417 0.62293 0.29971 0.0
C3166 C 0.60587 0.60715 0.2918 0.0
C3167 C 0.57791 0.56032 0.27255 0.0
C3168 C 0.58819 0.57657 0.27854 0.0
H3169 H 0.64909 0.64961 0.31653 0.0
H3170 H 0.63604 0.62432 0.30235 0.0
H3171 H 0.59247 0.612 0.27573 0.0
H3172 H 0.54002 0.53432 0.26589 0.0
H3173 H 0.55725 0.56088 0.27581 0.0
C3174 C 0.347 0.97843 0.36752 0.0
C3175 C 0.33512 0.96331 0.36941 0.0
C3176 C 0.35989 0.98103 0.35998 0.0
C3177 C 0.37155 0.96385 0.33019 0.0
H3178 H 0.41284 0.99341 0.34628 0.0
C3179 C 0.42338 0.97442 0.2967 0.0
C3180 C 0.43596 0.98959 0.29709 0.0
C3181 C 0.41157 0.97062 0.30647 0.0
C3182 C 0.40139 0.98527 0.34151 0.0
H3183 H 0.32751 0.93905 0.36511 0.0
H3184 H 0.34995 0.94362 0.35156 0.0
H3185 H 0.39138 0.98793 0.36182 0.0
H3186 H 0.44595 0.0126 0.30839 0.0
H3187 H 0.425 0.0062 0.32474 0.0
H3188 H 0.38129 0.96162 0.30964 0.0
C3189 C 0.34928 0.95343 0.35605 0.0
C3190 C 0.38913 0.98207 0.35047 0.0
C3191 C 0.3365 0.95083 0.36384 0.0
C3192 C 0.43638 0.00085 0.30756 0.0
C3193 C 0.42444 0.9971 0.31717 0.0
C3194 C 0.38377 0.96722 0.32112 0.0
C3195 C 0.36103 0.96856 0.35396 0.0
C3196 C 0.3741 0.97137 0.34487 0.0
C3197 C 0.41183 0.98194 0.31673 0.0
C3198 C 0.39886 0.97802 0.32662 0.0
H3199 H 0.34627 0.98828 0.37174 0.0
H3200 H 0.36874 0.9928 0.35842 0.0
H3201 H 0.36004 0.95571 0.32552 0.0
H3202 H 0.42248 0.96545 0.28866 0.0
H3203 H 0.40221 0.95877 0.30593 0.0
C3204 C 0.62828 0.97546 0.34343 0.0
C3205 C 0.62092 0.96016 0.34771 0.0
C3206 C 0.62053 0.98043 0.33403 0.0
C3207 C 0.58159 0.9707 0.32159 0.0
H3208 H 0.60103 0.99618 0.2879 0.0
C3209 C 0.54698 0.98077 0.27568 0.0
C3210 C 0.55295 0.99588 0.27122 0.0
C3211 C 0.55594 0.97695 0.28465 0.0
C3212 C 0.59551 0.9892 0.29737 0.0
H3213 H 0.59968 0.93805 0.34531 0.0
H3214 H 0.58627 0.94669 0.32888 0.0
H3215 H 0.61546 0.9886 0.30452 0.0
H3216 H 0.57317 0.01875 0.27232 0.0
H3217 H 0.58885 0.01208 0.28821 0.0
H3218 H 0.56166 0.97122 0.31448 0.0
C3219 C 0.59795 0.95491 0.33296 0.0
C3220 C 0.60377 0.98488 0.30689 0.0
C3221 C 0.60568 0.94994 0.34232 0.0
C3222 C 0.56823 0.00703 0.27566 0.0
C3223 C 0.57723 0.00318 0.28465 0.0
C3224 C 0.57336 0.97501 0.3121 0.0
C3225 C 0.60525 0.97022 0.32876 0.0
C3226 C 0.59683 0.97543 0.319 0.0
C3227 C 0.57108 0.98815 0.28943 0.0
C3228 C 0.58016 0.98415 0.29978 0.0
H3229 H 0.64002 0.98363 0.34738 0.0
H3230 H 0.62642 0.99234 0.33109 0.0
H3231 H 0.57601 0.96371 0.33102 0.0
H3232 H 0.5352 0.97195 0.27267 0.0
H3233 H 0.55094 0.96521 0.28796 0.0
C3234 C 0.03883 0.66606 0.31492 0.0
C3235 C 0.02894 0.67174 0.31284 0.0
C3236 C 0.03536 0.65195 0.30755 0.0
C3237 C 0.01173 0.62398 0.27503 0.0
H3238 H 0.01923 0.59586 0.29714 0.0
C3239 C 0.9963 0.55658 0.26928 0.0
C3240 C -0.00063 0.55533 0.25385 0.0
C3241 C -0.00026 0.57079 0.27629 0.0
C3242 C 0.01694 0.60353 0.29084 0.0
H3243 H 0.00763 0.66706 0.3015 0.0
H3244 H 0.00148 0.64238 0.28888 0.0
H3245 H 0.02549 0.62057 0.30984 0.0
H3246 H 0.00817 0.56798 0.23358 0.0
H3247 H 0.01448 0.59288 0.24591 0.0
H3248 H 0.00282 0.60676 0.25617 0.0
C3249 C 0.01204 0.64892 0.29597 0.0
C3250 C 0.02072 0.61778 0.29806 0.0
C3251 C 0.01552 0.66303 0.30328 0.0
C3252 C 0.00579 0.56859 0.24552 0.0
C3253 C 0.00926 0.58282 0.25255 0.0
C3254 C 0.00792 0.60971 0.26782 0.0
C3255 C 0.02192 0.64322 0.298 0.0
C3256 C 0.01813 0.62816 0.29025 0.0
C3257 C 0.00638 0.58411 0.26804 0.0
C3258 C 0.01045 0.5993 0.27566 0.0
H3259 H 0.04928 0.67254 0.32217 0.0
H3260 H 0.04331 0.64798 0.30921 0.0
H3261 H 0.00974 0.63178 0.26862 0.0
H3262 H 0.99154 0.54663 0.27608 0.0
H3263 H 0.99718 0.57134 0.28818 0.0
C3264 C 0.3412 0.36351 0.35032 0.0
C3265 C 0.33559 0.37338 0.35376 0.0
C3266 C 0.35494 0.36892 0.34326 0.0
C3267 C 0.39078 0.40439 0.33623 0.0
H3268 H 0.39217 0.37935 0.30194 0.0
C3269 C 0.43873 0.42845 0.2942 0.0
C3270 C 0.44348 0.4187 0.28776 0.0
C3271 C 0.42651 0.42277 0.30366 0.0
C3272 C 0.39209 0.38637 0.31167 0.0
H3273 H 0.34016 0.39675 0.3526 0.0
H3274 H 0.36418 0.4062 0.34021 0.0
H3275 H 0.36888 0.36982 0.31553 0.0
H3276 H 0.43952 0.39544 0.28675 0.0
H3277 H 0.41835 0.38555 0.30365 0.0
H3278 H 0.41397 0.42097 0.33236 0.0
C3279 C 0.35795 0.39428 0.34309 0.0
C3280 C 0.37871 0.38093 0.31942 0.0
C3281 C 0.34414 0.38885 0.35011 0.0
C3282 C 0.43615 0.40326 0.29156 0.0
C3283 C 0.42391 0.39756 0.30109 0.0
C3284 C 0.4042 0.4098 0.32853 0.0
C3285 C 0.36345 0.38434 0.33953 0.0
C3286 C 0.37786 0.38994 0.33168 0.0
C3287 C 0.41878 0.40719 0.30703 0.0
C3288 C 0.40496 0.40094 0.31604 0.0
H3289 H 0.33495 0.35153 0.35302 0.0
H3290 H 0.35896 0.36103 0.34082 0.0
H3291 H 0.39054 0.41148 0.3458 0.0
H3292 H 0.44431 0.44048 0.29171 0.0
H3293 H 0.42281 0.43049 0.3079 0.0
C3294 C 0.32539 0.31527 0.39949 0.0
C3295 C 0.31026 0.30746 0.39318 0.0
C3296 C 0.33206 0.30708 0.40466 0.0
C3297 C 0.32836 0.26864 0.40214 0.0
H3298 H 0.35315 0.28404 0.44061 0.0
C3299 C 0.34654 0.23287 0.43727 0.0
C3300 C 0.36113 0.2406 0.44493 0.0
C3301 C 0.3412 0.24105 0.42934 0.0
C3302 C 0.34647 0.27972 0.42973 0.0
H3303 H 0.2903 0.2849 0.38714 0.0
H3304 H 0.30189 0.27052 0.39646 0.0
H3305 H 0.34177 0.29803 0.43021 0.0
H3306 H 0.38181 0.26287 0.44977 0.0
H3307 H 0.37255 0.27717 0.43575 0.0
H3308 H 0.33289 0.25013 0.40188 0.0
C3309 C 0.30866 0.28301 0.39721 0.0
C3310 C 0.33991 0.28772 0.42377 0.0
C3311 C 0.30198 0.29124 0.39196 0.0
C3312 C 0.37054 0.25659 0.44393 0.0
C3313 C 0.36518 0.26479 0.43604 0.0
C3314 C 0.3349 0.26058 0.40814 0.0
C3315 C 0.32375 0.29086 0.40373 0.0
C3316 C 0.33076 0.28228 0.40991 0.0
C3317 C 0.35033 0.25715 0.42894 0.0
C3318 C 0.344 0.26603 0.42203 0.0
H3319 H 0.33215 0.32777 0.40046 0.0
H3320 H 0.34379 0.31349 0.40934 0.0
H3321 H 0.32154 0.26425 0.39134 0.0
H3322 H 0.33911 0.22052 0.43769 0.0
H3323 H 0.32969 0.23484 0.42407 0.0
C3324 C 0.70776 0.02065 0.39327 0.0
C3325 C 0.69198 0.01257 0.39511 0.0
C3326 C 0.71696 0.03595 0.39929 0.0
C3327 C 0.71799 0.06359 0.42912 0.0
H3328 H 0.75117 0.09397 0.4068 0.0
C3329 C 0.76619 0.1331 0.43413 0.0
C3330 C 0.77192 0.13476 0.44941 0.0
C3331 C 0.75546 0.11852 0.42727 0.0
C3332 C 0.74185 0.08567 0.41311 0.0
H3333 H 0.67341 0.01431 0.40442 0.0
H3334 H 0.68942 0.04099 0.41479 0.0
H3335 H 0.7344 0.06798 0.39481 0.0
H3336 H 0.77046 0.12256 0.46967 0.0
H3337 H 0.75187 0.0971 0.45768 0.0
H3338 H 0.72539 0.08128 0.44739 0.0
C3339 C 0.69473 0.03545 0.40889 0.0
C3340 C 0.73236 0.07073 0.40631 0.0
C3341 C 0.68555 0.02018 0.40287 0.0
C3342 C 0.76635 0.12161 0.45783 0.0
C3343 C 0.75559 0.10705 0.451 0.0
C3344 C 0.7275 0.07851 0.43593 0.0
C3345 C 0.71055 0.04348 0.40729 0.0
C3346 C 0.72038 0.0595 0.41428 0.0
C3347 C 0.7502 0.10531 0.43558 0.0
C3348 C 0.7396 0.08969 0.42804 0.0
H3349 H 0.71306 0.01509 0.38736 0.0
H3350 H 0.72914 0.04176 0.39799 0.0
H3351 H 0.70895 0.05517 0.43562 0.0
H3352 H 0.77037 0.143 0.42729 0.0
H3353 H 0.7514 0.11756 0.41542 0.0
C3354 C 0.9862 0.6894 0.36019 0.0
C3355 C 0.99202 0.70505 0.35776 0.0
C3356 C 0.97215 0.68076 0.36667 0.0
C3357 C 0.94604 0.68609 0.39087 0.0
H3358 H 0.91655 0.6435 0.37718 0.0
C3359 C 0.88646 0.65601 0.41292 0.0
C3360 C 0.88117 0.64141 0.41847 0.0
C3361 C 0.89917 0.6626 0.40417 0.0
C3362 C 0.92475 0.65535 0.38117 0.0
H3363 H 0.98738 0.72374 0.35971 0.0
H3364 H 0.96287 0.70866 0.37076 0.0
H3365 H 0.94053 0.65745 0.36442 0.0
H3366 H 0.8844 0.62184 0.41849 0.0
H3367 H 0.90686 0.63347 0.40309 0.0
H3368 H 0.93039 0.6841 0.40755 0.0
C3369 C 0.96929 0.70313 0.36798 0.0
C3370 C 0.93846 0.66332 0.3739 0.0
C3371 C 0.98332 0.71176 0.36157 0.0
C3372 C 0.88828 0.63311 0.41433 0.0
C3373 C 0.9011 0.63976 0.40554 0.0
C3374 C 0.93239 0.67817 0.39806 0.0
C3375 C 0.96364 0.6876 0.37082 0.0
C3376 C 0.94919 0.67884 0.37859 0.0
C3377 C 0.90691 0.65477 0.40078 0.0
C3378 C 0.92152 0.66279 0.39319 0.0
H3379 H 0.99261 0.68387 0.35736 0.0
H3380 H 0.96817 0.66886 0.36882 0.0
H3381 H 0.95421 0.69788 0.39504 0.0
H3382 H 0.88096 0.66251 0.41567 0.0
H3383 H 0.90317 0.67402 0.40033 0.0
C3384 C 0.38329 0.02988 0.70524 0.0
C3385 C 0.36757 0.02107 0.70731 0.0
C3386 C 0.39358 0.0273 0.71362 0.0
C3387 C 0.39781 0.01114 0.74915 0.0
H3388 H 0.43018 0.00946 0.72876 0.0
C3389 C 0.43655 0.99286 0.77974 0.0
C3390 C 0.45212 0.00098 0.77684 0.0
C3391 C 0.42611 0.99512 0.77122 0.0
C3392 C 0.42133 0.01009 0.73469 0.0
H3393 H 0.35032 0.00264 0.71978 0.0
H3394 H 0.36827 -0.00183 0.73437 0.0
H3395 H 0.41241 0.01406 0.714 0.0
H3396 H 0.46883 0.01763 0.76246 0.0
H3397 H 0.45078 0.02193 0.74802 0.0
H3398 H 0.4068 0.00735 0.76988 0.0
C3399 C 0.37265 0.00714 0.72636 0.0
C3400 C 0.41114 0.01271 0.72621 0.0
C3401 C 0.36236 0.00964 0.71792 0.0
C3402 C 0.45697 0.01136 0.76519 0.0
C3403 C 0.44656 0.01366 0.75673 0.0
C3404 C 0.40806 0.00861 0.75766 0.0
C3405 C 0.38837 0.01594 0.72432 0.0
C3406 C 0.39926 0.01325 0.73334 0.0
C3407 C 0.43099 0.00556 0.75961 0.0
C3408 C 0.41995 0.00806 0.75054 0.0
H3409 H 0.38765 0.03878 0.69717 0.0
H3410 H 0.40565 0.03436 0.7119 0.0
H3411 H 0.38889 0.0117 0.75502 0.0
H3412 H 0.43245 0.98485 0.78869 0.0
H3413 H 0.41417 0.98855 0.77364 0.0
C3414 C 0.97909 0.33568 0.74837 0.0
C3415 C 0.96329 0.32706 0.74446 0.0
C3416 C 0.98543 0.34934 0.75789 0.0
C3417 C 0.97502 0.37036 0.78618 0.0
H3418 H 0.01089 0.40702 0.77386 0.0
C3419 C 0.9891 0.43133 0.8054 0.0
C3420 C 0.00434 0.44277 0.80955 0.0
C3421 C 0.98546 0.41678 0.79926 0.0
C3422 C 0.00103 0.39682 0.7776 0.0
H3423 H 0.94177 0.326 0.74762 0.0
H3424 H 0.95281 0.34975 0.76402 0.0
H3425 H 0.00199 0.38213 0.75971 0.0
H3426 H 0.02771 0.44778 0.81061 0.0
H3427 H 0.0213 0.42229 0.79955 0.0
H3428 H 0.97376 0.3851 0.80375 0.0
C3429 C 0.96029 0.34589 0.75991 0.0
C3430 C 0.99594 0.38258 0.76951 0.0
C3431 C 0.95398 0.33232 0.75039 0.0
C3432 C 0.01587 0.43927 0.80739 0.0
C3433 C 0.01222 0.42469 0.80111 0.0
C3434 C 0.98008 0.38457 0.79423 0.0
C3435 C 0.97607 0.35457 0.76377 0.0
C3436 C 0.98264 0.36928 0.77347 0.0
C3437 C 0.99696 0.41331 0.797 0.0
C3438 C 0.99289 0.39801 0.78977 0.0
H3439 H 0.98658 0.33194 0.74401 0.0
H3440 H -0.00238 0.35575 0.76074 0.0
H3441 H 0.96494 0.36025 0.78972 0.0
H3442 H 0.97996 0.43371 0.80652 0.0
H3443 H 0.97363 0.40835 0.79589 0.0
C3444 C 0.66601 0.60955 0.70496 0.0
C3445 C 0.6736 0.62512 0.70157 0.0
C3446 C 0.65218 0.60308 0.71206 0.0
C3447 C 0.61998 0.60898 0.71961 0.0
H3448 H 0.61363 0.58254 0.75282 0.0
C3449 C 0.572 0.59186 0.76178 0.0
C3450 C 0.56496 0.57681 0.76663 0.0
C3451 C 0.58446 0.59719 0.75257 0.0
C3452 C 0.61512 0.58973 0.74342 0.0
H3453 H 0.67258 0.6461 0.70303 0.0
H3454 H 0.64866 0.63487 0.71555 0.0
H3455 H 0.63699 0.59277 0.73929 0.0
H3456 H 0.5647 0.5552 0.76488 0.0
H3457 H 0.58631 0.56443 0.74874 0.0
H3458 H 0.59814 0.60605 0.72391 0.0
C3459 C 0.65325 0.62759 0.71251 0.0
C3460 C 0.62852 0.59558 0.73567 0.0
C3461 C 0.66704 0.63405 0.70543 0.0
C3462 C 0.57013 0.56697 0.76155 0.0
C3463 C 0.58251 0.57226 0.75234 0.0
C3464 C 0.60657 0.60312 0.72738 0.0
C3465 C 0.64565 0.61204 0.71591 0.0
C3466 C 0.63113 0.60534 0.72373 0.0
C3467 C 0.59002 0.58752 0.74802 0.0
C3468 C 0.60402 0.59347 0.73941 0.0
H3469 H 0.67072 0.60234 0.70209 0.0
H3470 H 0.64651 0.59101 0.71441 0.0
H3471 H 0.62157 0.6163 0.71031 0.0
H3472 H 0.56827 0.59969 0.7656 0.0
H3473 H 0.59007 0.60904 0.7495 0.0
C3474 C 0.70276 0.70919 0.67236 0.0
C3475 C 0.69641 0.69379 0.66653 0.0
C3476 C 0.69558 0.71744 0.66888 0.0
C3477 C 0.65833 0.71173 0.65413 0.0
H3478 H 0.6828 0.75395 0.64301 0.0
C3479 C 0.63509 0.74164 0.61688 0.0
C3480 C 0.64024 0.7573 0.62062 0.0
C3481 C 0.64101 0.73411 0.62507 0.0
C3482 C 0.67582 0.74225 0.64634 0.0
H3483 H 0.67767 0.67502 0.65235 0.0
H3484 H 0.66543 0.68942 0.64602 0.0
H3485 H 0.69537 0.74058 0.6523 0.0
H3486 H 0.655 0.77705 0.63652 0.0
H3487 H 0.66556 0.76393 0.65062 0.0
H3488 H 0.63879 0.71325 0.64756 0.0
C3489 C 0.67571 0.69507 0.65358 0.0
C3490 C 0.68302 0.73459 0.65167 0.0
C3491 C 0.68282 0.68685 0.65711 0.0
C3492 C 0.65099 0.76506 0.63316 0.0
C3493 C 0.65702 0.75757 0.64125 0.0
C3494 C 0.65114 0.71935 0.64869 0.0
C3495 C 0.68194 0.71044 0.65947 0.0
C3496 C 0.67436 0.71913 0.65533 0.0
C3497 C 0.65229 0.74211 0.63709 0.0
C3498 C 0.65982 0.73459 0.64448 0.0
H3499 H 0.7132 0.71482 0.67971 0.0
H3500 H 0.70062 0.72923 0.67369 0.0
H3501 H 0.65131 0.69994 0.65718 0.0
H3502 H 0.62701 0.73536 0.60715 0.0
H3503 H 0.63728 0.72223 0.62149 0.0
C3504 C 0.28715 0.97388 0.64233 0.0
C3505 C 0.30063 0.98132 0.65196 0.0
C3506 C 0.28174 0.95907 0.63552 0.0
C3507 C 0.28222 0.92385 0.64149 0.0
H3508 H 0.26371 0.91178 0.59985 0.0
C3509 C 0.24641 0.86604 0.59615 0.0
C3510 C 0.23497 0.85657 0.60572 0.0
C3511 C 0.25742 0.8812 0.60134 0.0
C3512 C 0.26906 0.91499 0.61141 0.0
H3513 H 0.31916 0.9791 0.66173 0.0
H3514 H 0.30959 0.95311 0.64991 0.0
H3515 H 0.27742 0.93899 0.60914 0.0
H3516 H 0.22656 0.85505 0.62845 0.0
H3517 H 0.24578 0.88144 0.63756 0.0
H3518 H 0.27346 0.89979 0.64391 0.0
C3519 C 0.30323 0.95879 0.64768 0.0
C3520 C 0.27676 0.93054 0.61677 0.0
C3521 C 0.30873 0.97369 0.65439 0.0
C3522 C 0.23523 0.86218 0.62083 0.0
C3523 C 0.2463 0.87724 0.62607 0.0
C3524 C 0.27442 0.90827 0.63617 0.0
C3525 C 0.28962 0.95129 0.63827 0.0
C3526 C 0.28312 0.93509 0.63198 0.0
C3527 C 0.25727 0.88705 0.61625 0.0
C3528 C 0.26746 0.90365 0.62118 0.0
H3529 H 0.28065 0.97943 0.64018 0.0
H3530 H 0.27112 0.95351 0.62848 0.0
H3531 H 0.28693 0.92699 0.65329 0.0
H3532 H 0.24639 0.86198 0.58441 0.0
H3533 H 0.26581 0.88849 0.59357 0.0
C3534 C 0.01426 0.321 0.68879 0.0
C3535 C 0.00866 0.30733 0.69638 0.0
C3536 C 0.0285 0.32773 0.68258 0.0
C3537 C 0.06549 0.32982 0.68452 0.0
H3538 H 0.06759 0.34219 0.64281 0.0
C3539 C 0.11791 0.34694 0.6487 0.0
C3540 C 0.12167 0.35826 0.63811 0.0
C3541 C 0.10478 0.34166 0.65686 0.0
C3542 C 0.06732 0.33908 0.65456 0.0
H3543 H 0.0138 0.29018 0.70371 0.0
H3544 H 0.03886 0.30206 0.69286 0.0
H3545 H 0.04348 0.33104 0.65505 0.0
H3546 H 0.1148 0.37328 0.62827 0.0
H3547 H 0.09228 0.36452 0.64295 0.0
H3548 H 0.08937 0.33799 0.68408 0.0
C3549 C 0.03216 0.30753 0.69177 0.0
C3550 C 0.05345 0.33261 0.66155 0.0
C3551 C 0.01779 0.3007 0.69791 0.0
C3552 C 0.11234 0.36463 0.63639 0.0
C3553 C 0.09927 0.35943 0.64465 0.0
C3554 C 0.07942 0.33643 0.67756 0.0
C3555 C 0.03756 0.32102 0.68387 0.0
C3556 C 0.05237 0.32789 0.67658 0.0
C3557 C 0.09514 0.34764 0.65475 0.0
C3558 C 0.0805 0.34112 0.66247 0.0
H3559 H 0.00754 0.32644 0.68745 0.0
H3560 H 0.03245 0.33823 0.67673 0.0
H3561 H 0.06502 0.32643 0.69618 0.0
H3562 H 0.12498 0.34196 0.6505 0.0
H3563 H 0.10195 0.33251 0.66445 0.0
C3564 C 0.30122 0.31969 0.67568 0.0
C3565 C 0.29236 0.30421 0.67927 0.0
C3566 C 0.29465 0.32655 0.66731 0.0
C3567 C 0.25746 0.32263 0.65759 0.0
H3568 H 0.27763 0.34781 0.62393 0.0
C3569 C 0.22553 0.33944 0.61517 0.0
C3570 C 0.23303 0.35463 0.61062 0.0
C3571 C 0.2335 0.334 0.62344 0.0
C3572 C 0.27195 0.34097 0.63343 0.0
H3573 H 0.26968 0.28378 0.67671 0.0
H3574 H 0.25829 0.29573 0.66213 0.0
H3575 H 0.29025 0.33701 0.63873 0.0
H3576 H 0.25489 0.37596 0.61098 0.0
H3577 H 0.26885 0.36649 0.6257 0.0
H3578 H 0.23917 0.32651 0.65236 0.0
C3579 C 0.27027 0.30261 0.66593 0.0
C3580 C 0.27917 0.33478 0.64188 0.0
C3581 C 0.27683 0.29574 0.67422 0.0
C3582 C 0.24878 0.36422 0.61439 0.0
C3583 C 0.25679 0.35876 0.6227 0.0
C3584 C 0.25028 0.32882 0.64919 0.0
C3585 C 0.27907 0.3181 0.66245 0.0
C3586 C 0.27189 0.32537 0.65391 0.0
C3587 C 0.24917 0.34364 0.62747 0.0
C3588 C 0.25733 0.33787 0.63686 0.0
H3589 H 0.31322 0.32654 0.67938 0.0
H3590 H 0.30169 0.33855 0.66489 0.0
H3591 H 0.2517 0.31571 0.667 0.0
H3592 H 0.21337 0.3318 0.6127 0.0
H3593 H 0.22733 0.32222 0.62673 0.0
C3594 C 0.69414 0.98495 0.64324 0.0
C3595 C 0.68742 0.99393 0.64116 0.0
C3596 C 0.68684 0.96966 0.63702 0.0
C3597 C 0.6582 0.94328 0.6066 0.0
H3598 H 0.65865 0.9115 0.62944 0.0
C3599 C 0.63184 0.87296 0.60195 0.0
C3600 C 0.63537 0.871 0.58687 0.0
C3601 C 0.63675 0.88772 0.60865 0.0
C3602 C 0.65827 0.9202 0.62298 0.0
H3603 H 0.66767 0.99387 0.63114 0.0
H3604 H 0.65491 0.96719 0.62043 0.0
H3605 H 0.67008 0.93766 0.64139 0.0
H3606 H 0.64618 0.88287 0.56675 0.0
H3607 H 0.6549 0.90865 0.5785 0.0
H3608 H 0.64632 0.9258 0.58822 0.0
C3609 C 0.6659 0.97201 0.62667 0.0
C3610 C 0.66499 0.93523 0.62975 0.0
C3611 C 0.67319 0.98727 0.63288 0.0
C3612 C 0.64341 0.88405 0.57844 0.0
C3613 C 0.64828 0.89879 0.58513 0.0
C3614 C 0.6515 0.92826 0.59982 0.0
C3615 C 0.67268 0.96305 0.6286 0.0
C3616 C 0.66512 0.94696 0.6216 0.0
C3617 C 0.64524 0.90082 0.6004 0.0
C3618 C 0.65156 0.91657 0.60789 0.0
H3619 H 0.70511 0.98977 0.64954 0.0
H3620 H 0.69244 0.96312 0.63856 0.0
H3621 H 0.65823 0.95209 0.59996 0.0
H3622 H 0.62578 0.86314 0.60878 0.0
H3623 H 0.63407 0.88889 0.62037 0.0
C3624 C 0.00196 0.69437 0.68073 0.0
C3625 C -0.00269 0.70495 0.68461 0.0
C3626 C 0.01599 0.6993 0.67439 0.0
C3627 C 0.05367 0.73392 0.67046 0.0
H3628 H 0.05522 0.71041 0.63483 0.0
C3629 C 0.10303 0.75922 0.6303 0.0
C3630 C 0.10772 0.74956 0.6235 0.0
C3631 C 0.09046 0.75324 0.6393 0.0
C3632 C 0.05507 0.71697 0.64494 0.0
H3633 H 0.00382 0.72905 0.68491 0.0
H3634 H 0.02827 0.73762 0.67377 0.0
H3635 H 0.03136 0.701 0.64742 0.0
H3636 H 0.10324 0.72614 0.62126 0.0
H3637 H 0.08131 0.71565 0.63725 0.0
H3638 H 0.07732 0.74998 0.6679 0.0
C3639 C 0.02111 0.72553 0.67578 0.0
C3640 C 0.04138 0.71159 0.65213 0.0
C3641 C 0.00705 0.72059 0.68207 0.0
C3642 C 0.0999 0.73386 0.62638 0.0
C3643 C 0.08727 0.72784 0.6354 0.0
C3644 C 0.06737 0.73927 0.66331 0.0
C3645 C 0.02571 0.71493 0.67184 0.0
C3646 C 0.04047 0.72014 0.66481 0.0
C3647 C 0.08228 0.73744 0.64178 0.0
C3648 C 0.06817 0.73099 0.65031 0.0
H3649 H 0.99477 0.68224 0.68257 0.0
H3650 H 0.01928 0.69088 0.6716 0.0
H3651 H 0.0534 0.74062 0.68039 0.0
H3652 H 0.10897 0.77143 0.62848 0.0
H3653 H 0.08686 0.76094 0.64389 0.0
C3654 C 0.9761 0.63767 0.7209 0.0
C3655 C 0.96076 0.6337 0.7197 0.0
C3656 C 0.98008 0.62729 0.72615 0.0
C3657 C 0.96399 0.58616 0.73505 0.0
H3658 H 0.00154 0.60385 0.76085 0.0
C3659 C 0.97973 0.55256 0.77672 0.0
C3660 C 0.99461 0.55507 0.77634 0.0
C3661 C 0.97536 0.56113 0.76809 0.0
C3662 C 0.99111 0.59876 0.75353 0.0
H3663 H 0.93752 0.61571 0.72279 0.0
H3664 H 0.94447 0.59777 0.73267 0.0
H3665 H 0.99426 0.62079 0.74939 0.0
H3666 H 0.0163 0.56818 0.76596 0.0
H3667 H 0.00878 0.58353 0.7514 0.0
H3668 H 0.96063 0.56405 0.73998 0.0
C3669 C 0.95344 0.60872 0.72914 0.0
C3670 C 0.98694 0.60846 0.74687 0.0
C3671 C 0.94943 0.61903 0.72357 0.0
C3672 C 0.00487 0.56614 0.76682 0.0
C3673 C 0.00055 0.57487 0.75839 0.0
C3674 C 0.96806 0.57644 0.74196 0.0
C3675 C 0.96886 0.6128 0.73068 0.0
C3676 C 0.97333 0.60232 0.7375 0.0
C3677 C 0.98582 0.57255 0.75909 0.0
C3678 C 0.98167 0.58268 0.75124 0.0
H3679 H 0.98506 0.64884 0.71779 0.0
H3680 H 0.99202 0.63071 0.72673 0.0
H3681 H 0.95356 0.58098 0.72773 0.0
H3682 H 0.97158 0.54437 0.7841 0.0
H3683 H 0.96398 0.55925 0.76894 0.0
C3684 C 0.358 0.35884 0.73167 0.0
C3685 C 0.36307 0.34842 0.72905 0.0
C3686 C 0.36785 0.37358 0.73872 0.0
C3687 C 0.40909 0.40162 0.74949 0.0
H3688 H 0.39276 0.42022 0.7769 0.0
C3689 C 0.44701 0.45453 0.79151 0.0
C3690 C 0.44503 0.46722 0.79004 0.0
C3691 C 0.43654 0.44009 0.78427 0.0
C3692 C 0.39742 0.41516 0.76921 0.0
H3693 H 0.38236 0.34517 0.73182 0.0
H3694 H 0.39938 0.37058 0.74471 0.0
H3695 H 0.37562 0.39487 0.76373 0.0
H3696 H 0.43002 0.47439 0.78023 0.0
H3697 H 0.4114 0.4489 0.7681 0.0
H3698 H 0.43098 0.42174 0.75555 0.0
C3699 C 0.38797 0.36766 0.74089 0.0
C3700 C 0.38762 0.40069 0.76157 0.0
C3701 C 0.37819 0.35302 0.73357 0.0
C3702 C 0.43187 0.46488 0.78176 0.0
C3703 C 0.42124 0.45033 0.77473 0.0
C3704 C 0.41889 0.41594 0.75736 0.0
C3705 C 0.38294 0.37816 0.74359 0.0
C3706 C 0.39332 0.3937 0.7516 0.0
C3707 C 0.42367 0.43791 0.77567 0.0
C3708 C 0.41315 0.42282 0.76729 0.0
H3709 H 0.34641 0.35563 0.72819 0.0
H3710 H 0.36362 0.3814 0.74027 0.0
H3711 H 0.4139 0.39685 0.74167 0.0
H3712 H 0.45676 0.45574 0.79814 0.0
H3713 H 0.43852 0.4306 0.78536 0.0
C3714 C 0.66773 0.05727 0.6916 0.0
C3715 C 0.67226 0.04688 0.68654 0.0
C3716 C 0.65472 0.05223 0.69988 0.0
C3717 C 0.61902 0.01722 0.7089 0.0
H3718 H 0.62141 0.04319 0.74435 0.0
C3719 C 0.57349 0.99671 0.75418 0.0
C3720 C 0.56954 0.00739 0.75978 0.0
C3721 C 0.5855 0.00123 0.74449 0.0
C3722 C 0.62049 0.03589 0.73437 0.0
H3723 H 0.66653 0.023 0.68606 0.0
H3724 H 0.64395 0.01428 0.70067 0.0
H3725 H 0.64335 0.0517 0.72883 0.0
H3726 H 0.57457 0.03095 0.75906 0.0
H3727 H 0.5955 0.03884 0.7422 0.0
H3728 H 0.59616 0.00134 0.7146 0.0
C3729 C 0.65036 0.02628 0.69807 0.0
C3730 C 0.63306 0.04077 0.72547 0.0
C3731 C 0.66336 0.03131 0.68977 0.0
C3732 C 0.57756 0.02255 0.75519 0.0
C3733 C 0.58954 0.02706 0.74554 0.0
C3734 C 0.60644 0.01232 0.71784 0.0
C3735 C 0.64595 0.03671 0.7033 0.0
C3736 C 0.63247 0.03151 0.71262 0.0
C3737 C 0.59377 0.01651 0.74023 0.0
C3738 C 0.60704 0.02162 0.73065 0.0
H3739 H 0.67427 0.06932 0.68923 0.0
H3740 H 0.65149 0.0605 0.70355 0.0
H3741 H 0.61815 0.0099 0.69896 0.0
H3742 H 0.56759 0.98497 0.75763 0.0
H3743 H 0.58859 0.99288 0.74069 0.0
loop_
_geom_bond_atom_site_label_1
_geom_bond_atom_site_label_2
_geom_bond_distance
_geom_bond_site_symmetry_2
_ccdc_geom_bond_type
C0 O1 1.306 . S
C0 O3 1.160 . S
O1 C0 1.306 . S
O1 Cd2 2.228 . S
Cd2 O1 2.228 . S
Cd2 O6 2.273 . S
Cd2 O10 2.277 . S
O3 C0 1.160 . S
O3 Cd4 2.203 1_655 S
Cd4 O3 2.203 1_455 S
Cd4 O6 2.411 1_455 S
Cd4 O7 2.333 . S
Cd4 O8 2.352 . S
Cd4 O12 2.277 . S
Cd4 O13 2.356 . S
C5 O10 1.209 1_456 S
C5 O12 1.226 1_556 S
O6 Cd2 2.273 . S
O6 Cd4 2.411 1_655 S
O6 C9 1.320 1_655 S
O7 Cd4 2.333 . S
O7 C9 1.214 . S
O8 Cd4 2.352 . S
O8 C11 1.258 . S
C9 O6 1.320 1_455 S
C9 O7 1.214 . S
O10 Cd2 2.277 . S
O10 C5 1.209 1_654 S
C11 O8 1.258 . S
C11 O13 1.282 . S
O12 Cd4 2.277 . S
O12 C5 1.226 1_554 S
O13 Cd4 2.356 . S
O13 C11 1.282 . S
C14 O15 1.306 . S
C14 O17 1.160 . S
O15 C14 1.306 . S
O15 Cd16 2.228 . S
Cd16 O15 2.228 . S
Cd16 O20 2.273 . S
Cd16 O24 2.277 . S
O17 C14 1.160 . S
O17 Cd18 2.203 . S
Cd18 O17 2.203 . S
Cd18 O20 2.411 . S
Cd18 O21 2.333 . S
Cd18 O22 2.352 . S
Cd18 O26 2.277 . S
Cd18 O27 2.356 . S
C19 O24 1.209 . S
C19 O26 1.226 . S
O20 Cd16 2.273 . S
O20 Cd18 2.411 . S
O20 C23 1.320 . S
O21 Cd18 2.333 . S
O21 C23 1.214 . S
O22 Cd18 2.352 . S
O22 C25 1.258 . S
C23 O20 1.320 . S
C23 O21 1.214 . S
O24 Cd16 2.277 . S
O24 C19 1.209 . S
C25 O22 1.258 . S
C25 O27 1.282 . S
O26 Cd18 2.277 . S
O26 C19 1.226 . S
O27 Cd18 2.356 . S
O27 C25 1.282 . S
C28 O29 1.306 . S
C28 O31 1.160 . S
O29 C28 1.306 . S
O29 Cd30 2.228 . S
Cd30 O29 2.228 . S
Cd30 O34 2.273 . S
Cd30 O38 2.277 . S
O31 C28 1.160 . S
O31 Cd32 2.203 1_565 S
Cd32 O31 2.203 1_545 S
Cd32 O34 2.411 1_545 S
Cd32 O35 2.333 . S
Cd32 O36 2.352 . S
Cd32 O40 2.277 . S
Cd32 O41 2.356 . S
C33 O38 1.209 1_545 S
C33 O40 1.226 . S
O34 Cd30 2.273 . S
O34 Cd32 2.411 1_565 S
O34 C37 1.320 1_554 S
O35 Cd32 2.333 . S
O35 C37 1.213 1_544 S
O36 Cd32 2.352 . S
O36 C39 1.258 . S
C37 O34 1.320 1_556 S
C37 O35 1.213 1_566 S
O38 Cd30 2.277 . S
O38 C33 1.209 1_565 S
C39 O36 1.258 . S
C39 O41 1.282 . S
O40 Cd32 2.277 . S
O40 C33 1.226 . S
O41 Cd32 2.356 . S
O41 C39 1.282 . S
C42 O43 1.306 . S
C42 O45 1.160 . S
O43 C42 1.306 . S
O43 Cd44 2.228 . S
Cd44 O43 2.228 . S
Cd44 O48 2.273 . S
Cd44 O52 2.277 . S
O45 C42 1.160 . S
O45 Cd46 2.203 1_655 S
Cd46 O45 2.203 1_455 S
Cd46 O48 2.411 1_455 S
Cd46 O49 2.333 . S
Cd46 O50 2.352 . S
Cd46 O54 2.277 . S
Cd46 O55 2.356 . S
C47 O52 1.209 1_455 S
C47 O54 1.226 . S
O48 Cd44 2.273 . S
O48 Cd46 2.411 1_655 S
O48 C51 1.346 . S
O49 Cd46 2.333 . S
O49 C51 1.191 1_455 S
O50 Cd46 2.352 . S
O50 C53 1.258 . S
C51 O48 1.346 . S
C51 O49 1.191 1_655 S
O52 Cd44 2.277 . S
O52 C47 1.209 1_655 S
C53 O50 1.258 . S
C53 O55 1.282 . S
O54 Cd46 2.277 . S
O54 C47 1.226 . S
O55 Cd46 2.356 . S
O55 C53 1.282 . S
C56 O57 1.306 . S
C56 O59 1.160 . S
O57 C56 1.306 . S
O57 Cd58 2.228 . S
Cd58 O57 2.228 . S
Cd58 O62 2.273 1_554 S
Cd58 O66 2.277 . S
O59 C56 1.160 . S
O59 Cd60 2.203 . S
Cd60 O59 2.203 . S
Cd60 O62 2.411 1_554 S
Cd60 O63 2.333 1_554 S
Cd60 O64 2.352 1_554 S
Cd60 O68 2.277 . S
Cd60 O69 2.356 1_554 S
C61 O66 1.209 . S
C61 O68 1.226 . S
O62 Cd58 2.273 1_556 S
O62 Cd60 2.411 1_556 S
O62 C65 1.320 . S
O63 Cd60 2.333 1_556 S
O63 C65 1.214 . S
O64 Cd60 2.352 1_556 S
O64 C67 1.258 . S
C65 O62 1.320 . S
C65 O63 1.214 . S
O66 Cd58 2.277 . S
O66 C61 1.209 . S
C67 O64 1.258 . S
C67 O69 1.282 . S
O68 Cd60 2.277 . S
O68 C61 1.226 . S
O69 Cd60 2.356 1_556 S
O69 C67 1.282 . S
C70 O71 1.306 . S
C70 O73 1.160 . S
O71 C70 1.306 . S
O71 Cd72 2.228 . S
Cd72 O71 2.228 . S
Cd72 O76 2.273 . S
Cd72 O80 2.277 . S
O73 C70 1.160 . S
O73 Cd74 2.203 1_545 S
Cd74 O73 2.203 1_565 S
Cd74 O76 2.411 1_565 S
Cd74 O77 2.333 . S
Cd74 O78 2.352 . S
Cd74 O82 2.277 . S
Cd74 O83 2.356 . S
C75 O80 1.209 1_565 S
C75 O82 1.226 . S
O76 Cd72 2.273 . S
O76 Cd74 2.411 1_545 S
O76 C79 1.320 . S
O77 Cd74 2.333 . S
O77 C79 1.214 1_565 S
O78 Cd74 2.352 . S
O78 C81 1.258 . S
C79 O76 1.320 . S
C79 O77 1.214 1_545 S
O80 Cd72 2.277 . S
O80 C75 1.209 1_545 S
C81 O78 1.258 . S
C81 O83 1.282 . S
O82 Cd74 2.277 . S
O82 C75 1.226 . S
O83 Cd74 2.356 . S
O83 C81 1.282 . S
C84 O85 1.306 . S
C84 O87 1.160 . S
O85 C84 1.306 . S
O85 Cd86 2.228 . S
Cd86 O85 2.228 . S
Cd86 O90 2.273 . S
Cd86 O94 2.277 . S
O87 C84 1.160 . S
O87 Cd88 2.203 . S
Cd88 O87 2.203 . S
Cd88 O90 2.411 . S
Cd88 O91 2.333 . S
Cd88 O92 2.352 . S
Cd88 O96 2.277 . S
Cd88 O97 2.356 . S
C89 O94 1.209 . S
C89 O96 1.226 . S
O90 Cd86 2.273 . S
O90 Cd88 2.411 . S
O90 C93 1.320 . S
O91 Cd88 2.333 . S
O91 C93 1.214 . S
O92 Cd88 2.352 . S
O92 C95 1.258 . S
C93 O90 1.320 . S
C93 O91 1.214 . S
O94 Cd86 2.277 . S
O94 C89 1.209 . S
C95 O92 1.258 . S
C95 O97 1.282 . S
O96 Cd88 2.277 . S
O96 C89 1.226 . S
O97 Cd88 2.356 . S
O97 C95 1.282 . S
C98 O99 1.306 . S
C98 O101 1.160 . S
O99 C98 1.306 . S
O99 Cd100 2.228 . S
Cd100 O99 2.228 . S
Cd100 O104 2.273 . S
Cd100 O108 2.277 . S
O101 C98 1.160 . S
O101 Cd102 2.203 . S
Cd102 O101 2.203 . S
Cd102 O104 2.411 . S
Cd102 O105 2.333 . S
Cd102 O106 2.352 . S
Cd102 O110 2.277 . S
Cd102 O111 2.356 . S
C103 O108 1.209 . S
C103 O110 1.226 . S
O104 Cd100 2.273 . S
O104 Cd102 2.411 . S
O104 C107 1.320 . S
O105 Cd102 2.333 . S
O105 C107 1.214 . S
O106 Cd102 2.352 . S
O106 C109 1.258 . S
C107 O104 1.320 . S
C107 O105 1.214 . S
O108 Cd100 2.277 . S
O108 C103 1.209 . S
C109 O106 1.258 . S
C109 O111 1.282 . S
O110 Cd102 2.277 . S
O110 C103 1.226 . S
O111 Cd102 2.356 . S
O111 C109 1.282 . S
C112 O113 1.306 . S
C112 O115 1.160 . S
O113 C112 1.306 . S
O113 Cd114 2.228 . S
Cd114 O113 2.228 . S
Cd114 O118 2.273 . S
Cd114 O122 2.277 . S
O115 C112 1.160 . S
O115 Cd116 2.203 . S
Cd116 O115 2.203 . S
Cd116 O118 2.411 . S
Cd116 O119 2.333 . S
Cd116 O120 2.352 . S
Cd116 O124 2.277 . S
Cd116 O125 2.356 . S
C117 O122 1.209 . S
C117 O124 1.226 . S
O118 Cd114 2.273 . S
O118 Cd116 2.411 . S
O118 C121 1.320 . S
O119 Cd116 2.333 . S
O119 C121 1.214 . S
O120 Cd116 2.352 . S
O120 C123 1.258 . S
C121 O118 1.320 . S
C121 O119 1.214 . S
O122 Cd114 2.277 . S
O122 C117 1.209 . S
C123 O120 1.258 . S
C123 O125 1.282 . S
O124 Cd116 2.277 . S
O124 C117 1.226 . S
O125 Cd116 2.356 . S
O125 C123 1.282 . S
C126 O127 1.306 . S
C126 O129 1.160 . S
O127 C126 1.306 . S
O127 Cd128 2.228 . S
Cd128 O127 2.228 . S
Cd128 O132 2.273 . S
Cd128 O136 2.277 . S
O129 C126 1.160 . S
O129 Cd130 2.203 . S
Cd130 O129 2.203 . S
Cd130 O132 2.411 . S
Cd130 O133 2.333 . S
Cd130 O134 2.352 . S
Cd130 O138 2.277 . S
Cd130 O139 2.356 . S
C131 O136 1.209 . S
C131 O138 1.226 . S
O132 Cd128 2.273 . S
O132 Cd130 2.411 . S
O132 C135 1.320 . S
O133 Cd130 2.333 . S
O133 C135 1.214 . S
O134 Cd130 2.352 . S
O134 C137 1.258 . S
C135 O132 1.320 . S
C135 O133 1.214 . S
O136 Cd128 2.277 . S
O136 C131 1.209 . S
C137 O134 1.258 . S
C137 O139 1.282 . S
O138 Cd130 2.277 . S
O138 C131 1.226 . S
O139 Cd130 2.356 . S
O139 C137 1.282 . S
C140 O141 1.306 . S
C140 O143 1.160 . S
O141 C140 1.306 . S
O141 Cd142 2.228 . S
Cd142 O141 2.228 . S
Cd142 O146 2.273 . S
Cd142 O150 2.277 . S
O143 C140 1.160 . S
O143 Cd144 2.203 . S
Cd144 O143 2.203 . S
Cd144 O146 2.411 . S
Cd144 O147 2.333 . S
Cd144 O148 2.352 . S
Cd144 O152 2.277 . S
Cd144 O153 2.356 . S
C145 O150 1.209 . S
C145 O152 1.226 . S
O146 Cd142 2.273 . S
O146 Cd144 2.411 . S
O146 C149 1.320 . S
O147 Cd144 2.333 . S
O147 C149 1.214 . S
O148 Cd144 2.352 . S
O148 C151 1.258 . S
C149 O146 1.320 . S
C149 O147 1.214 . S
O150 Cd142 2.277 . S
O150 C145 1.209 . S
C151 O148 1.258 . S
C151 O153 1.282 . S
O152 Cd144 2.277 . S
O152 C145 1.226 . S
O153 Cd144 2.356 . S
O153 C151 1.282 . S
C154 O155 1.306 . S
C154 O157 1.160 . S
O155 C154 1.306 . S
O155 Cd156 2.228 . S
Cd156 O155 2.228 . S
Cd156 O160 2.273 . S
Cd156 O164 2.277 . S
O157 C154 1.160 . S
O157 Cd158 2.203 . S
Cd158 O157 2.203 . S
Cd158 O160 2.411 . S
Cd158 O161 2.333 . S
Cd158 O162 2.352 . S
Cd158 O166 2.277 . S
Cd158 O167 2.356 . S
C159 O164 1.209 . S
C159 O166 1.226 . S
O160 Cd156 2.273 . S
O160 Cd158 2.411 . S
O160 C163 1.320 . S
O161 Cd158 2.333 . S
O161 C163 1.214 . S
O162 Cd158 2.352 . S
O162 C165 1.258 . S
C163 O160 1.320 . S
C163 O161 1.214 . S
O164 Cd156 2.277 . S
O164 C159 1.209 . S
C165 O162 1.258 . S
C165 O167 1.282 . S
O166 Cd158 2.277 . S
O166 C159 1.226 . S
O167 Cd158 2.356 . S
O167 C165 1.282 . S
C168 O169 1.306 . S
C168 O171 1.160 . S
O169 C168 1.306 . S
O169 Cd170 2.228 . S
Cd170 O169 2.228 . S
Cd170 O174 2.273 . S
Cd170 O178 2.277 . S
O171 C168 1.160 . S
O171 Cd172 2.203 . S
Cd172 O171 2.203 . S
Cd172 O174 2.411 . S
Cd172 O175 2.333 . S
Cd172 O176 2.352 . S
Cd172 O180 2.277 . S
Cd172 O181 2.356 . S
C173 O178 1.209 . S
C173 O180 1.226 . S
O174 Cd170 2.273 . S
O174 Cd172 2.411 . S
O174 C177 1.320 . S
O175 Cd172 2.333 . S
O175 C177 1.214 . S
O176 Cd172 2.352 . S
O176 C179 1.258 . S
C177 O174 1.320 . S
C177 O175 1.214 . S
O178 Cd170 2.277 . S
O178 C173 1.209 . S
C179 O176 1.258 . S
C179 O181 1.282 . S
O180 Cd172 2.277 . S
O180 C173 1.226 . S
O181 Cd172 2.356 . S
O181 C179 1.282 . S
C182 O183 1.306 . S
C182 O185 1.160 . S
O183 C182 1.306 . S
O183 Cd184 2.228 . S
Cd184 O183 2.228 . S
Cd184 O188 2.273 . S
Cd184 O192 2.277 . S
O185 C182 1.160 . S
O185 Cd186 2.203 . S
Cd186 O185 2.203 . S
Cd186 O188 2.411 . S
Cd186 O189 2.333 . S
Cd186 O190 2.352 . S
Cd186 O194 2.277 . S
Cd186 O195 2.356 . S
C187 O192 1.209 . S
C187 O194 1.226 . S
O188 Cd184 2.273 . S
O188 Cd186 2.411 . S
O188 C191 1.320 . S
O189 Cd186 2.333 . S
O189 C191 1.214 . S
O190 Cd186 2.352 . S
O190 C193 1.330 . S
C191 O188 1.320 . S
C191 O189 1.214 . S
O192 Cd184 2.277 . S
O192 C187 1.209 . S
C193 O190 1.330 . S
C193 O195 1.274 . S
O194 Cd186 2.277 . S
O194 C187 1.226 . S
O195 Cd186 2.356 . S
O195 C193 1.274 . S
C196 O197 1.306 . S
C196 O199 1.160 . S
O197 C196 1.306 . S
O197 Cd198 2.228 . S
Cd198 O197 2.228 . S
Cd198 O202 2.273 . S
Cd198 O206 2.277 . S
O199 C196 1.160 . S
O199 Cd200 2.203 . S
Cd200 O199 2.203 . S
Cd200 O202 2.411 . S
Cd200 O203 2.333 . S
Cd200 O204 2.352 . S
Cd200 O208 2.277 . S
Cd200 O209 2.356 . S
C201 O206 1.209 . S
C201 O208 1.226 . S
O202 Cd198 2.273 . S
O202 Cd200 2.411 . S
O202 C205 1.320 . S
O203 Cd200 2.333 . S
O203 C205 1.214 . S
O204 Cd200 2.352 . S
O204 C207 1.258 . S
C205 O202 1.320 . S
C205 O203 1.214 . S
O206 Cd198 2.277 . S
O206 C201 1.209 . S
C207 O204 1.258 . S
C207 O209 1.282 . S
O208 Cd200 2.277 . S
O208 C201 1.226 . S
O209 Cd200 2.356 . S
O209 C207 1.282 . S
C210 O211 1.306 . S
C210 O213 1.160 . S
O211 C210 1.306 . S
O211 Cd212 2.228 . S
Cd212 O211 2.228 . S
Cd212 O216 2.273 . S
Cd212 O220 2.277 . S
O213 C210 1.160 . S
O213 Cd214 2.203 . S
Cd214 O213 2.203 . S
Cd214 O216 2.411 . S
Cd214 O217 2.333 . S
Cd214 O218 2.352 . S
Cd214 O222 2.277 . S
Cd214 O223 2.356 . S
C215 O220 1.209 . S
C215 O222 1.226 . S
O216 Cd212 2.273 . S
O216 Cd214 2.411 . S
O216 C219 1.320 . S
O217 Cd214 2.333 . S
O217 C219 1.214 . S
O218 Cd214 2.352 . S
O218 C221 1.258 . S
C219 O216 1.320 . S
C219 O217 1.214 . S
O220 Cd212 2.277 . S
O220 C215 1.209 . S
C221 O218 1.258 . S
C221 O223 1.282 . S
O222 Cd214 2.277 . S
O222 C215 1.226 . S
O223 Cd214 2.356 . S
O223 C221 1.282 . S
C224 O225 1.306 . S
C224 O227 1.160 . S
O225 C224 1.306 . S
O225 Cd226 2.228 . S
Cd226 O225 2.228 . S
Cd226 O230 2.273 . S
Cd226 O234 2.277 . S
O227 C224 1.160 . S
O227 Cd228 2.203 . S
Cd228 O227 2.203 . S
Cd228 O230 2.411 . S
Cd228 O231 2.333 . S
Cd228 O232 2.352 . S
Cd228 O236 2.277 . S
Cd228 O237 2.356 . S
C229 O234 1.209 . S
C229 O236 1.226 . S
O230 Cd226 2.273 . S
O230 Cd228 2.411 . S
O230 C233 1.320 . S
O231 Cd228 2.333 . S
O231 C233 1.214 . S
O232 Cd228 2.352 . S
O232 C235 1.258 . S
C233 O230 1.320 . S
C233 O231 1.214 . S
O234 Cd226 2.277 . S
O234 C229 1.209 . S
C235 O232 1.258 . S
C235 O237 1.282 . S
O236 Cd228 2.277 . S
O236 C229 1.226 . S
O237 Cd228 2.356 . S
O237 C235 1.282 . S
C238 O239 1.306 . S
C238 O241 1.160 . S
O239 C238 1.306 . S
O239 Cd240 2.228 . S
Cd240 O239 2.228 . S
Cd240 O244 2.273 . S
Cd240 O248 2.277 . S
O241 C238 1.160 . S
O241 Cd242 2.203 . S
Cd242 O241 2.203 . S
Cd242 O244 2.411 . S
Cd242 O245 2.333 . S
Cd242 O246 2.352 . S
Cd242 O250 2.277 . S
Cd242 O251 2.356 . S
C243 O248 1.209 . S
C243 O250 1.226 . S
O244 Cd240 2.273 . S
O244 Cd242 2.411 . S
O244 C247 1.320 . S
O245 Cd242 2.333 . S
O245 C247 1.214 . S
O246 Cd242 2.352 . S
O246 C249 1.258 . S
C247 O244 1.320 . S
C247 O245 1.214 . S
O248 Cd240 2.277 . S
O248 C243 1.209 . S
C249 O246 1.258 . S
C249 O251 1.282 . S
O250 Cd242 2.277 . S
O250 C243 1.226 . S
O251 Cd242 2.356 . S
O251 C249 1.282 . S
H252 O278 0.856 . S
H253 O281 0.854 . S
H254 C289 0.930 . S
H255 C290 0.930 . S
H256 C292 0.930 . S
H257 C293 0.930 . S
H258 C295 0.931 . S
H259 C296 0.930 . S
H260 C298 0.930 . S
H261 C299 0.929 . S
H262 C301 0.930 . S
H263 C302 0.931 . S
H264 C304 0.930 . S
H265 C305 0.929 . S
H266 C307 0.931 . S
H267 C308 0.930 . S
H268 C310 0.930 . S
H269 C311 0.932 . S
H270 C313 0.930 . S
H271 C314 0.929 . S
H272 C316 0.931 . S
H273 C317 0.930 . S
H274 C319 0.929 . S
H275 C320 0.931 . S
H276 C322 0.930 . S
H277 C323 0.929 . S
O278 H252 0.856 . S
O278 C324 1.300 . S
O279 C324 1.209 . S
O280 C325 1.199 . S
O281 H253 0.854 . S
O281 C325 1.297 . S
C282 C283 1.404 . S
C282 C287 1.397 . S
C282 C288 1.492 . S
C283 C282 1.404 . S
C283 C284 1.396 . S
C283 C294 1.492 . S
C284 C283 1.396 . S
C284 C285 1.397 . S
C284 C300 1.509 . S
C285 C284 1.397 . S
C285 C286 1.412 . S
C285 C306 1.485 . S
C286 C285 1.412 . S
C286 C287 1.388 . S
C286 C312 1.490 . S
C287 C282 1.397 . S
C287 C286 1.388 . S
C287 C318 1.519 . S
C288 C282 1.492 . S
C288 C289 1.363 . S
C288 C293 1.390 . S
C289 H254 0.930 . S
C289 C288 1.363 . S
C289 C290 1.372 . S
C290 H255 0.930 . S
C290 C289 1.372 . S
C290 C291 1.383 . S
C291 C290 1.383 . S
C291 C292 1.395 . S
C292 H256 0.930 . S
C292 C291 1.395 . S
C292 C293 1.362 . S
C293 H257 0.930 . S
C293 C288 1.390 . S
C293 C292 1.362 . S
C294 C283 1.492 . S
C294 C295 1.377 . S
C294 C299 1.397 . S
C295 H258 0.931 . S
C295 C294 1.377 . S
C295 C296 1.376 . S
C296 H259 0.930 . S
C296 C295 1.376 . S
C296 C297 1.376 . S
C297 C296 1.376 . S
C297 C298 1.378 . S
C297 C324 1.486 . S
C298 H260 0.930 . S
C298 C297 1.378 . S
C298 C299 1.376 . S
C299 H261 0.929 . S
C299 C294 1.397 . S
C299 C298 1.376 . S
C300 C284 1.509 . S
C300 C301 1.391 . S
C300 C305 1.386 . S
C301 H262 0.930 . S
C301 C300 1.391 . S
C301 C302 1.375 . S
C302 H263 0.931 . S
C302 C301 1.375 . S
C302 C303 1.375 . S
C303 C302 1.375 . S
C303 C304 1.361 . S
C304 H264 0.930 . S
C304 C303 1.361 . S
C304 C305 1.399 . S
C305 H265 0.929 . S
C305 C300 1.386 . S
C305 C304 1.399 . S
C306 C285 1.485 . S
C306 C307 1.394 . S
C306 C311 1.360 . S
C307 H266 0.931 . S
C307 C306 1.394 . S
C307 C308 1.372 . S
C308 H267 0.930 . S
C308 C307 1.372 . S
C308 C309 1.397 . S
C309 C308 1.397 . S
C309 C310 1.390 . S
C309 C325 1.476 . S
C310 H268 0.930 . S
C310 C309 1.390 . S
C310 C311 1.366 . S
C311 H269 0.932 . S
C311 C306 1.360 . S
C311 C310 1.366 . S
C312 C286 1.490 . S
C312 C313 1.380 . S
C312 C317 1.386 . S
C313 H270 0.930 . S
C313 C312 1.380 . S
C313 C314 1.381 . S
C314 H271 0.929 . S
C314 C313 1.381 . S
C314 C315 1.371 . S
C315 C314 1.371 . S
C315 C316 1.380 . S
C316 H272 0.931 . S
C316 C315 1.380 . S
C316 C317 1.387 . S
C317 H273 0.930 . S
C317 C312 1.386 . S
C317 C316 1.387 . S
C318 C287 1.519 . S
C318 C319 1.377 . S
C318 C323 1.361 . S
C319 H274 0.929 . S
C319 C318 1.377 . S
C319 C320 1.386 . S
C320 H275 0.931 . S
C320 C319 1.386 . S
C320 C321 1.363 . S
C321 C320 1.363 . S
C321 C322 1.385 . S
C322 H276 0.930 . S
C322 C321 1.385 . S
C322 C323 1.396 . S
C323 H277 0.929 . S
C323 C318 1.361 . S
C323 C322 1.396 . S
C324 O278 1.300 . S
C324 O279 1.209 . S
C324 C297 1.486 . S
C325 O280 1.199 . S
C325 O281 1.297 . S
C325 C309 1.476 . S
H326 O352 0.856 . S
H327 O355 0.854 . S
H328 C363 0.930 . S
H329 C364 0.930 . S
H330 C366 0.930 . S
H331 C367 0.930 . S
H332 C369 0.931 . S
H333 C370 0.930 . S
H334 C372 0.930 . S
H335 C373 0.929 . S
H336 C375 0.930 . S
H337 C376 0.931 . S
H338 C378 0.930 . S
H339 C379 0.929 . S
H340 C381 0.931 . S
H341 C382 0.930 . S
H342 C384 0.930 . S
H343 C385 0.932 . S
H344 C387 0.930 . S
H345 C388 0.929 . S
H346 C390 0.931 . S
H347 C391 0.930 . S
H348 C393 0.929 . S
H349 C394 0.931 . S
H350 C396 0.930 . S
H351 C397 0.929 . S
O352 H326 0.856 . S
O352 C398 1.300 . S
O353 C398 1.209 . S
O354 C399 1.199 . S
O355 H327 0.854 . S
O355 C399 1.297 . S
C356 C357 1.404 . S
C356 C361 1.397 . S
C356 C362 1.492 . S
C357 C356 1.404 . S
C357 C358 1.396 . S
C357 C368 1.492 . S
C358 C357 1.396 . S
C358 C359 1.397 . S
C358 C374 1.509 . S
C359 C358 1.397 . S
C359 C360 1.412 . S
C359 C380 1.485 . S
C360 C359 1.412 . S
C360 C361 1.388 . S
C360 C386 1.490 . S
C361 C356 1.397 . S
C361 C360 1.388 . S
C361 C392 1.519 . S
C362 C356 1.492 . S
C362 C363 1.363 . S
C362 C367 1.390 . S
C363 H328 0.930 . S
C363 C362 1.363 . S
C363 C364 1.372 . S
C364 H329 0.930 . S
C364 C363 1.372 . S
C364 C365 1.383 . S
C365 C364 1.383 . S
C365 C366 1.395 . S
C366 H330 0.930 . S
C366 C365 1.395 . S
C366 C367 1.362 . S
C367 H331 0.930 . S
C367 C362 1.390 . S
C367 C366 1.362 . S
C368 C357 1.492 . S
C368 C369 1.377 . S
C368 C373 1.397 . S
C369 H332 0.931 . S
C369 C368 1.377 . S
C369 C370 1.376 . S
C370 H333 0.930 . S
C370 C369 1.376 . S
C370 C371 1.376 . S
C371 C370 1.376 . S
C371 C372 1.378 . S
C371 C398 1.486 . S
C372 H334 0.930 . S
C372 C371 1.378 . S
C372 C373 1.376 . S
C373 H335 0.929 . S
C373 C368 1.397 . S
C373 C372 1.376 . S
C374 C358 1.509 . S
C374 C375 1.391 . S
C374 C379 1.386 . S
C375 H336 0.930 . S
C375 C374 1.391 . S
C375 C376 1.375 . S
C376 H337 0.931 . S
C376 C375 1.375 . S
C376 C377 1.375 . S
C377 C376 1.375 . S
C377 C378 1.361 . S
C378 H338 0.930 . S
C378 C377 1.361 . S
C378 C379 1.399 . S
C379 H339 0.929 . S
C379 C374 1.386 . S
C379 C378 1.399 . S
C380 C359 1.485 . S
C380 C381 1.394 . S
C380 C385 1.360 . S
C381 H340 0.931 . S
C381 C380 1.394 . S
C381 C382 1.372 . S
C382 H341 0.930 . S
C382 C381 1.372 . S
C382 C383 1.397 . S
C383 C382 1.397 . S
C383 C384 1.390 . S
C383 C399 1.476 . S
C384 H342 0.930 . S
C384 C383 1.390 . S
C384 C385 1.366 . S
C385 H343 0.932 . S
C385 C380 1.360 . S
C385 C384 1.366 . S
C386 C360 1.490 . S
C386 C387 1.380 . S
C386 C391 1.386 . S
C387 H344 0.930 . S
C387 C386 1.380 . S
C387 C388 1.381 . S
C388 H345 0.929 . S
C388 C387 1.381 . S
C388 C389 1.371 . S
C389 C388 1.371 . S
C389 C390 1.380 . S
C390 H346 0.931 . S
C390 C389 1.380 . S
C390 C391 1.387 . S
C391 H347 0.930 . S
C391 C386 1.386 . S
C391 C390 1.387 . S
C392 C361 1.519 . S
C392 C393 1.377 . S
C392 C397 1.361 . S
C393 H348 0.929 . S
C393 C392 1.377 . S
C393 C394 1.386 . S
C394 H349 0.931 . S
C394 C393 1.386 . S
C394 C395 1.363 . S
C395 C394 1.363 . S
C395 C396 1.385 . S
C396 H350 0.930 . S
C396 C395 1.385 . S
C396 C397 1.396 . S
C397 H351 0.929 . S
C397 C392 1.361 . S
C397 C396 1.396 . S
C398 O352 1.300 . S
C398 O353 1.209 . S
C398 C371 1.486 . S
C399 O354 1.199 . S
C399 O355 1.297 . S
C399 C383 1.476 . S
H400 O426 0.856 . S
H401 O429 0.854 . S
H402 C437 0.930 . S
H403 C438 0.930 . S
H404 C440 0.930 . S
H405 C441 0.930 . S
H406 C443 0.931 . S
H407 C444 0.930 . S
H408 C446 0.930 . S
H409 C447 0.929 . S
H410 C449 0.930 . S
H411 C450 0.931 . S
H412 C452 0.930 . S
H413 C453 0.929 . S
H414 C455 0.931 . S
H415 C456 0.930 . S
H416 C458 0.930 . S
H417 C459 0.932 . S
H418 C461 0.930 . S
H419 C462 0.929 . S
H420 C464 0.931 . S
H421 C465 0.930 . S
H422 C467 0.929 . S
H423 C468 0.931 . S
H424 C470 0.930 . S
H425 C471 0.929 . S
O426 H400 0.856 . S
O426 C472 1.300 . S
O427 C472 1.209 . S
O428 C473 1.199 . S
O429 H401 0.854 . S
O429 C473 1.297 . S
C430 C431 1.404 . S
C430 C435 1.397 . S
C430 C436 1.492 . S
C431 C430 1.404 . S
C431 C432 1.396 . S
C431 C442 1.492 . S
C432 C431 1.396 . S
C432 C433 1.397 . S
C432 C448 1.509 . S
C433 C432 1.397 . S
C433 C434 1.412 . S
C433 C454 1.485 . S
C434 C433 1.412 . S
C434 C435 1.388 . S
C434 C460 1.490 . S
C435 C430 1.397 . S
C435 C434 1.388 . S
C435 C466 1.519 . S
C436 C430 1.492 . S
C436 C437 1.363 . S
C436 C441 1.390 . S
C437 H402 0.930 . S
C437 C436 1.363 . S
C437 C438 1.372 . S
C438 H403 0.930 . S
C438 C437 1.372 . S
C438 C439 1.383 . S
C439 C438 1.383 . S
C439 C440 1.395 . S
C440 H404 0.930 . S
C440 C439 1.395 . S
C440 C441 1.362 . S
C441 H405 0.930 . S
C441 C436 1.390 . S
C441 C440 1.362 . S
C442 C431 1.492 . S
C442 C443 1.377 . S
C442 C447 1.397 . S
C443 H406 0.931 . S
C443 C442 1.377 . S
C443 C444 1.376 . S
C444 H407 0.930 . S
C444 C443 1.376 . S
C444 C445 1.376 . S
C445 C444 1.376 . S
C445 C446 1.378 . S
C445 C472 1.486 . S
C446 H408 0.930 . S
C446 C445 1.378 . S
C446 C447 1.376 . S
C447 H409 0.929 . S
C447 C442 1.397 . S
C447 C446 1.376 . S
C448 C432 1.509 . S
C448 C449 1.391 . S
C448 C453 1.386 . S
C449 H410 0.930 . S
C449 C448 1.391 . S
C449 C450 1.375 . S
C450 H411 0.931 . S
C450 C449 1.375 . S
C450 C451 1.375 . S
C451 C450 1.375 . S
C451 C452 1.361 . S
C452 H412 0.930 . S
C452 C451 1.361 . S
C452 C453 1.399 . S
C453 H413 0.929 . S
C453 C448 1.386 . S
C453 C452 1.399 . S
C454 C433 1.485 . S
C454 C455 1.394 . S
C454 C459 1.360 . S
C455 H414 0.931 . S
C455 C454 1.394 . S
C455 C456 1.372 . S
C456 H415 0.930 . S
C456 C455 1.372 . S
C456 C457 1.397 . S
C457 C456 1.397 . S
C457 C458 1.390 . S
C457 C473 1.476 . S
C458 H416 0.930 . S
C458 C457 1.390 . S
C458 C459 1.366 . S
C459 H417 0.932 . S
C459 C454 1.360 . S
C459 C458 1.366 . S
C460 C434 1.490 . S
C460 C461 1.380 . S
C460 C465 1.386 . S
C461 H418 0.930 . S
C461 C460 1.380 . S
C461 C462 1.381 . S
C462 H419 0.929 . S
C462 C461 1.381 . S
C462 C463 1.371 . S
C463 C462 1.371 . S
C463 C464 1.380 . S
C464 H420 0.931 . S
C464 C463 1.380 . S
C464 C465 1.387 . S
C465 H421 0.930 . S
C465 C460 1.386 . S
C465 C464 1.387 . S
C466 C435 1.519 . S
C466 C467 1.377 . S
C466 C471 1.361 . S
C467 H422 0.929 . S
C467 C466 1.377 . S
C467 C468 1.386 . S
C468 H423 0.931 . S
C468 C467 1.386 . S
C468 C469 1.363 . S
C469 C468 1.363 . S
C469 C470 1.385 . S
C470 H424 0.930 . S
C470 C469 1.385 . S
C470 C471 1.396 . S
C471 H425 0.929 . S
C471 C466 1.361 . S
C471 C470 1.396 . S
C472 O426 1.300 . S
C472 O427 1.209 . S
C472 C445 1.486 . S
C473 O428 1.199 . S
C473 O429 1.297 . S
C473 C457 1.476 . S
H474 O500 0.856 . S
H475 O503 0.854 . S
H476 C511 0.930 . S
H477 C512 0.930 . S
H478 C514 0.930 . S
H479 C515 0.930 . S
H480 C517 0.931 . S
H481 C518 0.930 . S
H482 C520 0.930 . S
H483 C521 0.929 . S
H484 C523 0.930 . S
H485 C524 0.931 . S
H486 C526 0.930 . S
H487 C527 0.929 . S
H488 C529 0.931 . S
H489 C530 0.930 . S
H490 C532 0.930 . S
H491 C533 0.932 . S
H492 C535 0.930 . S
H493 C536 0.929 . S
H494 C538 0.931 . S
H495 C539 0.930 . S
H496 C541 0.929 . S
H497 C542 0.931 . S
H498 C544 0.930 . S
H499 C545 0.929 . S
O500 H474 0.856 . S
O500 C546 1.300 . S
O501 C546 1.209 . S
O502 C547 1.199 . S
O503 H475 0.854 . S
O503 C547 1.297 . S
C504 C505 1.404 . S
C504 C509 1.397 . S
C504 C510 1.492 . S
C505 C504 1.404 . S
C505 C506 1.396 . S
C505 C516 1.492 . S
C506 C505 1.396 . S
C506 C507 1.397 . S
C506 C522 1.509 . S
C507 C506 1.397 . S
C507 C508 1.412 . S
C507 C528 1.485 . S
C508 C507 1.412 . S
C508 C509 1.388 . S
C508 C534 1.490 . S
C509 C504 1.397 . S
C509 C508 1.388 . S
C509 C540 1.519 . S
C510 C504 1.492 . S
C510 C511 1.363 . S
C510 C515 1.390 . S
C511 H476 0.930 . S
C511 C510 1.363 . S
C511 C512 1.372 . S
C512 H477 0.930 . S
C512 C511 1.372 . S
C512 C513 1.383 . S
C513 C512 1.383 . S
C513 C514 1.395 . S
C514 H478 0.930 . S
C514 C513 1.395 . S
C514 C515 1.362 . S
C515 H479 0.930 . S
C515 C510 1.390 . S
C515 C514 1.362 . S
C516 C505 1.492 . S
C516 C517 1.377 . S
C516 C521 1.397 . S
C517 H480 0.931 . S
C517 C516 1.377 . S
C517 C518 1.376 . S
C518 H481 0.930 . S
C518 C517 1.376 . S
C518 C519 1.376 . S
C519 C518 1.376 . S
C519 C520 1.378 . S
C519 C546 1.486 . S
C520 H482 0.930 . S
C520 C519 1.378 . S
C520 C521 1.376 . S
C521 H483 0.929 . S
C521 C516 1.397 . S
C521 C520 1.376 . S
C522 C506 1.509 . S
C522 C523 1.391 . S
C522 C527 1.386 . S
C523 H484 0.930 . S
C523 C522 1.391 . S
C523 C524 1.375 . S
C524 H485 0.931 . S
C524 C523 1.375 . S
C524 C525 1.375 . S
C525 C524 1.375 . S
C525 C526 1.361 . S
C526 H486 0.930 . S
C526 C525 1.361 . S
C526 C527 1.399 . S
C527 H487 0.929 . S
C527 C522 1.386 . S
C527 C526 1.399 . S
C528 C507 1.485 . S
C528 C529 1.394 . S
C528 C533 1.360 . S
C529 H488 0.931 . S
C529 C528 1.394 . S
C529 C530 1.372 . S
C530 H489 0.930 . S
C530 C529 1.372 . S
C530 C531 1.397 . S
C531 C530 1.397 . S
C531 C532 1.390 . S
C531 C547 1.476 . S
C532 H490 0.930 . S
C532 C531 1.390 . S
C532 C533 1.366 . S
C533 H491 0.932 . S
C533 C528 1.360 . S
C533 C532 1.366 . S
C534 C508 1.490 . S
C534 C535 1.380 . S
C534 C539 1.386 . S
C535 H492 0.930 . S
C535 C534 1.380 . S
C535 C536 1.381 . S
C536 H493 0.929 . S
C536 C535 1.381 . S
C536 C537 1.371 . S
C537 C536 1.371 . S
C537 C538 1.380 . S
C538 H494 0.931 . S
C538 C537 1.380 . S
C538 C539 1.387 . S
C539 H495 0.930 . S
C539 C534 1.386 . S
C539 C538 1.387 . S
C540 C509 1.519 . S
C540 C541 1.377 . S
C540 C545 1.361 . S
C541 H496 0.929 . S
C541 C540 1.377 . S
C541 C542 1.386 . S
C542 H497 0.931 . S
C542 C541 1.386 . S
C542 C543 1.363 . S
C543 C542 1.363 . S
C543 C544 1.385 . S
C544 H498 0.930 . S
C544 C543 1.385 . S
C544 C545 1.396 . S
C545 H499 0.929 . S
C545 C540 1.361 . S
C545 C544 1.396 . S
C546 O500 1.300 . S
C546 O501 1.209 . S
C546 C519 1.486 . S
C547 O502 1.199 . S
C547 O503 1.297 . S
C547 C531 1.476 . S
H548 O574 0.856 . S
H549 O577 0.854 . S
H550 C585 0.930 . S
H551 C586 0.930 . S
H552 C588 0.930 . S
H553 C589 0.930 . S
H554 C591 0.931 . S
H555 C592 0.930 . S
H556 C594 0.930 . S
H557 C595 0.929 . S
H558 C597 0.930 . S
H559 C598 0.931 . S
H560 C600 0.930 . S
H561 C601 0.929 . S
H562 C603 0.931 . S
H563 C604 0.930 . S
H564 C606 0.930 . S
H565 C607 0.932 . S
H566 C609 0.930 . S
H567 C610 0.929 . S
H568 C612 0.931 . S
H569 C613 0.930 . S
H570 C615 0.929 . S
H571 C616 0.931 . S
H572 C618 0.930 . S
H573 C619 0.929 . S
O574 H548 0.856 . S
O574 C620 1.300 . S
O575 C620 1.209 . S
O576 C621 1.199 . S
O577 H549 0.854 . S
O577 C621 1.297 . S
C578 C579 1.404 . S
C578 C583 1.397 . S
C578 C584 1.492 . S
C579 C578 1.404 . S
C579 C580 1.396 . S
C579 C590 1.492 . S
C580 C579 1.396 . S
C580 C581 1.397 . S
C580 C596 1.509 . S
C581 C580 1.397 . S
C581 C582 1.412 . S
C581 C602 1.485 . S
C582 C581 1.412 . S
C582 C583 1.388 . S
C582 C608 1.490 . S
C583 C578 1.397 . S
C583 C582 1.388 . S
C583 C614 1.519 . S
C584 C578 1.492 . S
C584 C585 1.363 . S
C584 C589 1.390 . S
C585 H550 0.930 . S
C585 C584 1.363 . S
C585 C586 1.372 . S
C586 H551 0.930 . S
C586 C585 1.372 . S
C586 C587 1.383 . S
C587 C586 1.383 . S
C587 C588 1.395 . S
C588 H552 0.930 . S
C588 C587 1.395 . S
C588 C589 1.362 . S
C589 H553 0.930 . S
C589 C584 1.390 . S
C589 C588 1.362 . S
C590 C579 1.492 . S
C590 C591 1.377 . S
C590 C595 1.397 . S
C591 H554 0.931 . S
C591 C590 1.377 . S
C591 C592 1.376 . S
C592 H555 0.930 . S
C592 C591 1.376 . S
C592 C593 1.376 . S
C593 C592 1.376 . S
C593 C594 1.378 . S
C593 C620 1.486 . S
C594 H556 0.930 . S
C594 C593 1.378 . S
C594 C595 1.376 . S
C595 H557 0.929 . S
C595 C590 1.397 . S
C595 C594 1.376 . S
C596 C580 1.509 . S
C596 C597 1.391 . S
C596 C601 1.386 . S
C597 H558 0.930 . S
C597 C596 1.391 . S
C597 C598 1.375 . S
C598 H559 0.931 . S
C598 C597 1.375 . S
C598 C599 1.375 . S
C599 C598 1.375 . S
C599 C600 1.361 . S
C600 H560 0.930 . S
C600 C599 1.361 . S
C600 C601 1.399 . S
C601 H561 0.929 . S
C601 C596 1.386 . S
C601 C600 1.399 . S
C602 C581 1.485 . S
C602 C603 1.394 . S
C602 C607 1.360 . S
C603 H562 0.931 . S
C603 C602 1.394 . S
C603 C604 1.372 . S
C604 H563 0.930 . S
C604 C603 1.372 . S
C604 C605 1.397 . S
C605 C604 1.397 . S
C605 C606 1.390 . S
C605 C621 1.476 . S
C606 H564 0.930 . S
C606 C605 1.390 . S
C606 C607 1.366 . S
C607 H565 0.932 . S
C607 C602 1.360 . S
C607 C606 1.366 . S
C608 C582 1.490 . S
C608 C609 1.380 . S
C608 C613 1.386 . S
C609 H566 0.930 . S
C609 C608 1.380 . S
C609 C610 1.381 . S
C610 H567 0.929 . S
C610 C609 1.381 . S
C610 C611 1.371 . S
C611 C610 1.371 . S
C611 C612 1.380 . S
C612 H568 0.931 . S
C612 C611 1.380 . S
C612 C613 1.387 . S
C613 H569 0.930 . S
C613 C608 1.386 . S
C613 C612 1.387 . S
C614 C583 1.519 . S
C614 C615 1.377 . S
C614 C619 1.361 . S
C615 H570 0.929 . S
C615 C614 1.377 . S
C615 C616 1.386 . S
C616 H571 0.931 . S
C616 C615 1.386 . S
C616 C617 1.363 . S
C617 C616 1.363 . S
C617 C618 1.385 . S
C618 H572 0.930 . S
C618 C617 1.385 . S
C618 C619 1.396 . S
C619 H573 0.929 . S
C619 C614 1.361 . S
C619 C618 1.396 . S
C620 O574 1.300 . S
C620 O575 1.209 . S
C620 C593 1.486 . S
C621 O576 1.199 . S
C621 O577 1.297 . S
C621 C605 1.476 . S
H622 O648 0.856 1_554 S
H623 O651 0.854 . S
H624 C659 0.930 . S
H625 C660 0.930 . S
H626 C662 0.930 . S
H627 C663 0.930 . S
H628 C665 0.931 . S
H629 C666 0.930 . S
H630 C668 0.930 . S
H631 C669 0.929 . S
H632 C671 0.930 . S
H633 C672 0.931 . S
H634 C674 0.930 . S
H635 C675 0.929 . S
H636 C677 0.931 . S
H637 C678 0.930 . S
H638 C680 0.930 . S
H639 C681 0.932 . S
H640 C683 0.930 . S
H641 C684 0.929 . S
H642 C686 0.931 . S
H643 C687 0.930 . S
H644 C689 0.929 . S
H645 C690 0.931 . S
H646 C692 0.930 . S
H647 C693 0.929 . S
O648 H622 0.856 1_556 S
O648 C694 1.300 . S
O649 C694 1.209 . S
O650 C695 1.199 . S
O651 H623 0.854 . S
O651 C695 1.297 . S
C652 C653 1.404 . S
C652 C657 1.397 . S
C652 C658 1.492 . S
C653 C652 1.404 . S
C653 C654 1.396 . S
C653 C664 1.492 . S
C654 C653 1.396 . S
C654 C655 1.397 . S
C654 C670 1.509 . S
C655 C654 1.397 . S
C655 C656 1.412 . S
C655 C676 1.485 . S
C656 C655 1.412 . S
C656 C657 1.388 . S
C656 C682 1.490 . S
C657 C652 1.397 . S
C657 C656 1.388 . S
C657 C688 1.519 . S
C658 C652 1.492 . S
C658 C659 1.363 . S
C658 C663 1.390 . S
C659 H624 0.930 . S
C659 C658 1.363 . S
C659 C660 1.372 . S
C660 H625 0.930 . S
C660 C659 1.372 . S
C660 C661 1.383 . S
C661 C660 1.383 . S
C661 C662 1.395 . S
C662 H626 0.930 . S
C662 C661 1.395 . S
C662 C663 1.362 . S
C663 H627 0.930 . S
C663 C658 1.390 . S
C663 C662 1.362 . S
C664 C653 1.492 . S
C664 C665 1.377 . S
C664 C669 1.397 . S
C665 H628 0.931 . S
C665 C664 1.377 . S
C665 C666 1.376 . S
C666 H629 0.930 . S
C666 C665 1.376 . S
C666 C667 1.376 . S
C667 C666 1.376 . S
C667 C668 1.378 . S
C667 C694 1.486 . S
C668 H630 0.930 . S
C668 C667 1.378 . S
C668 C669 1.376 . S
C669 H631 0.929 . S
C669 C664 1.397 . S
C669 C668 1.376 . S
C670 C654 1.509 . S
C670 C671 1.391 . S
C670 C675 1.386 . S
C671 H632 0.930 . S
C671 C670 1.391 . S
C671 C672 1.375 . S
C672 H633 0.931 . S
C672 C671 1.375 . S
C672 C673 1.375 . S
C673 C672 1.375 . S
C673 C674 1.361 . S
C674 H634 0.930 . S
C674 C673 1.361 . S
C674 C675 1.399 . S
C675 H635 0.929 . S
C675 C670 1.386 . S
C675 C674 1.399 . S
C676 C655 1.485 . S
C676 C677 1.394 . S
C676 C681 1.360 . S
C677 H636 0.931 . S
C677 C676 1.394 . S
C677 C678 1.372 . S
C678 H637 0.930 . S
C678 C677 1.372 . S
C678 C679 1.397 . S
C679 C678 1.397 . S
C679 C680 1.390 . S
C679 C695 1.476 . S
C680 H638 0.930 . S
C680 C679 1.390 . S
C680 C681 1.366 . S
C681 H639 0.932 . S
C681 C676 1.360 . S
C681 C680 1.366 . S
C682 C656 1.490 . S
C682 C683 1.380 . S
C682 C687 1.386 . S
C683 H640 0.930 . S
C683 C682 1.380 . S
C683 C684 1.381 . S
C684 H641 0.929 . S
C684 C683 1.381 . S
C684 C685 1.371 . S
C685 C684 1.371 . S
C685 C686 1.380 . S
C686 H642 0.931 . S
C686 C685 1.380 . S
C686 C687 1.387 . S
C687 H643 0.930 . S
C687 C682 1.386 . S
C687 C686 1.387 . S
C688 C657 1.519 . S
C688 C689 1.377 . S
C688 C693 1.361 . S
C689 H644 0.929 . S
C689 C688 1.377 . S
C689 C690 1.386 . S
C690 H645 0.931 . S
C690 C689 1.386 . S
C690 C691 1.363 . S
C691 C690 1.363 . S
C691 C692 1.385 . S
C692 H646 0.930 . S
C692 C691 1.385 . S
C692 C693 1.396 . S
C693 H647 0.929 . S
C693 C688 1.361 . S
C693 C692 1.396 . S
C694 O648 1.300 . S
C694 O649 1.209 . S
C694 C667 1.486 . S
C695 O650 1.199 . S
C695 O651 1.297 . S
C695 C679 1.476 . S
H696 O722 0.856 . S
H697 O725 0.854 . S
H698 C733 0.930 . S
H699 C734 0.930 . S
H700 C736 0.930 . S
H701 C737 0.930 . S
H702 C739 0.931 . S
H703 C740 0.930 . S
H704 C742 0.930 . S
H705 C743 0.929 . S
H706 C745 0.930 . S
H707 C746 0.931 . S
H708 C748 0.930 . S
H709 C749 0.929 . S
H710 C751 0.931 . S
H711 C752 0.930 . S
H712 C754 0.930 . S
H713 C755 0.932 . S
H714 C757 0.930 . S
H715 C758 0.929 . S
H716 C760 0.931 . S
H717 C761 0.930 . S
H718 C763 0.929 . S
H719 C764 0.931 . S
H720 C766 0.930 . S
H721 C767 0.929 . S
O722 H696 0.856 . S
O722 C768 1.300 . S
O723 C768 1.209 . S
O724 C769 1.199 . S
O725 H697 0.854 . S
O725 C769 1.297 . S
C726 C727 1.404 . S
C726 C731 1.397 . S
C726 C732 1.492 . S
C727 C726 1.404 . S
C727 C728 1.396 . S
C727 C738 1.492 . S
C728 C727 1.396 . S
C728 C729 1.397 . S
C728 C744 1.509 . S
C729 C728 1.397 . S
C729 C730 1.412 . S
C729 C750 1.485 . S
C730 C729 1.412 . S
C730 C731 1.388 . S
C730 C756 1.490 . S
C731 C726 1.397 . S
C731 C730 1.388 . S
C731 C762 1.519 . S
C732 C726 1.492 . S
C732 C733 1.363 . S
C732 C737 1.390 . S
C733 H698 0.930 . S
C733 C732 1.363 . S
C733 C734 1.372 . S
C734 H699 0.930 . S
C734 C733 1.372 . S
C734 C735 1.383 . S
C735 C734 1.383 . S
C735 C736 1.395 . S
C736 H700 0.930 . S
C736 C735 1.395 . S
C736 C737 1.362 . S
C737 H701 0.930 . S
C737 C732 1.390 . S
C737 C736 1.362 . S
C738 C727 1.492 . S
C738 C739 1.377 . S
C738 C743 1.397 . S
C739 H702 0.931 . S
C739 C738 1.377 . S
C739 C740 1.376 . S
C740 H703 0.930 . S
C740 C739 1.376 . S
C740 C741 1.376 . S
C741 C740 1.376 . S
C741 C742 1.378 . S
C741 C768 1.486 . S
C742 H704 0.930 . S
C742 C741 1.378 . S
C742 C743 1.376 . S
C743 H705 0.929 . S
C743 C738 1.397 . S
C743 C742 1.376 . S
C744 C728 1.509 . S
C744 C745 1.391 . S
C744 C749 1.386 . S
C745 H706 0.930 . S
C745 C744 1.391 . S
C745 C746 1.375 . S
C746 H707 0.931 . S
C746 C745 1.375 . S
C746 C747 1.375 . S
C747 C746 1.375 . S
C747 C748 1.361 . S
C748 H708 0.930 . S
C748 C747 1.361 . S
C748 C749 1.399 . S
C749 H709 0.929 . S
C749 C744 1.386 . S
C749 C748 1.399 . S
C750 C729 1.485 . S
C750 C751 1.394 . S
C750 C755 1.360 . S
C751 H710 0.931 . S
C751 C750 1.394 . S
C751 C752 1.372 . S
C752 H711 0.930 . S
C752 C751 1.372 . S
C752 C753 1.397 . S
C753 C752 1.397 . S
C753 C754 1.390 . S
C753 C769 1.476 . S
C754 H712 0.930 . S
C754 C753 1.390 . S
C754 C755 1.366 . S
C755 H713 0.932 . S
C755 C750 1.360 . S
C755 C754 1.366 . S
C756 C730 1.490 . S
C756 C757 1.380 . S
C756 C761 1.386 . S
C757 H714 0.930 . S
C757 C756 1.380 . S
C757 C758 1.381 . S
C758 H715 0.929 . S
C758 C757 1.381 . S
C758 C759 1.371 . S
C759 C758 1.371 . S
C759 C760 1.380 . S
C760 H716 0.931 . S
C760 C759 1.380 . S
C760 C761 1.387 . S
C761 H717 0.930 . S
C761 C756 1.386 . S
C761 C760 1.387 . S
C762 C731 1.519 . S
C762 C763 1.377 . S
C762 C767 1.361 . S
C763 H718 0.929 . S
C763 C762 1.377 . S
C763 C764 1.386 . S
C764 H719 0.931 . S
C764 C763 1.386 . S
C764 C765 1.363 . S
C765 C764 1.363 . S
C765 C766 1.385 . S
C766 H720 0.930 . S
C766 C765 1.385 . S
C766 C767 1.396 . S
C767 H721 0.929 . S
C767 C762 1.361 . S
C767 C766 1.396 . S
C768 O722 1.300 . S
C768 O723 1.209 . S
C768 C741 1.486 . S
C769 O724 1.199 . S
C769 O725 1.297 . S
C769 C753 1.476 . S
H770 O796 0.856 . S
H771 O799 0.854 . S
H772 C807 0.930 . S
H773 C808 0.930 . S
H774 C810 0.930 . S
H775 C811 0.930 . S
H776 C813 0.931 . S
H777 C814 0.930 . S
H778 C816 0.930 . S
H779 C817 0.929 . S
H780 C819 0.930 . S
H781 C820 0.931 . S
H782 C822 0.930 . S
H783 C823 0.929 . S
H784 C825 0.931 . S
H785 C826 0.930 . S
H786 C828 0.930 . S
H787 C829 0.932 . S
H788 C831 0.930 . S
H789 C832 0.929 . S
H790 C834 0.931 . S
H791 C835 0.930 . S
H792 C837 0.929 . S
H793 C838 0.931 . S
H794 C840 0.930 . S
H795 C841 0.929 . S
O796 H770 0.856 . S
O796 C842 1.300 . S
O797 C842 1.209 . S
O798 C843 1.199 . S
O799 H771 0.854 . S
O799 C843 1.297 . S
C800 C801 1.404 . S
C800 C805 1.397 . S
C800 C806 1.492 . S
C801 C800 1.404 . S
C801 C802 1.396 . S
C801 C812 1.492 . S
C802 C801 1.396 . S
C802 C803 1.397 . S
C802 C818 1.509 . S
C803 C802 1.397 . S
C803 C804 1.412 . S
C803 C824 1.485 . S
C804 C803 1.412 . S
C804 C805 1.388 . S
C804 C830 1.490 . S
C805 C800 1.397 . S
C805 C804 1.388 . S
C805 C836 1.519 . S
C806 C800 1.492 . S
C806 C807 1.363 . S
C806 C811 1.390 . S
C807 H772 0.930 . S
C807 C806 1.363 . S
C807 C808 1.372 . S
C808 H773 0.930 . S
C808 C807 1.372 . S
C808 C809 1.383 . S
C809 C808 1.383 . S
C809 C810 1.395 . S
C810 H774 0.930 . S
C810 C809 1.395 . S
C810 C811 1.362 . S
C811 H775 0.930 . S
C811 C806 1.390 . S
C811 C810 1.362 . S
C812 C801 1.492 . S
C812 C813 1.377 . S
C812 C817 1.397 . S
C813 H776 0.931 . S
C813 C812 1.377 . S
C813 C814 1.376 . S
C814 H777 0.930 . S
C814 C813 1.376 . S
C814 C815 1.376 . S
C815 C814 1.376 . S
C815 C816 1.378 . S
C815 C842 1.486 . S
C816 H778 0.930 . S
C816 C815 1.378 . S
C816 C817 1.376 . S
C817 H779 0.929 . S
C817 C812 1.397 . S
C817 C816 1.376 . S
C818 C802 1.509 . S
C818 C819 1.391 . S
C818 C823 1.386 . S
C819 H780 0.930 . S
C819 C818 1.391 . S
C819 C820 1.375 . S
C820 H781 0.931 . S
C820 C819 1.375 . S
C820 C821 1.375 . S
C821 C820 1.375 . S
C821 C822 1.361 . S
C822 H782 0.930 . S
C822 C821 1.361 . S
C822 C823 1.399 . S
C823 H783 0.929 . S
C823 C818 1.386 . S
C823 C822 1.399 . S
C824 C803 1.485 . S
C824 C825 1.394 . S
C824 C829 1.360 . S
C825 H784 0.931 . S
C825 C824 1.394 . S
C825 C826 1.372 . S
C826 H785 0.930 . S
C826 C825 1.372 . S
C826 C827 1.397 . S
C827 C826 1.397 . S
C827 C828 1.390 . S
C827 C843 1.476 . S
C828 H786 0.930 . S
C828 C827 1.390 . S
C828 C829 1.366 . S
C829 H787 0.932 . S
C829 C824 1.360 . S
C829 C828 1.366 . S
C830 C804 1.490 . S
C830 C831 1.380 . S
C830 C835 1.386 . S
C831 H788 0.930 . S
C831 C830 1.380 . S
C831 C832 1.381 . S
C832 H789 0.929 . S
C832 C831 1.381 . S
C832 C833 1.371 . S
C833 C832 1.371 . S
C833 C834 1.380 . S
C834 H790 0.931 . S
C834 C833 1.380 . S
C834 C835 1.387 . S
C835 H791 0.930 . S
C835 C830 1.386 . S
C835 C834 1.387 . S
C836 C805 1.519 . S
C836 C837 1.377 . S
C836 C841 1.361 . S
C837 H792 0.929 . S
C837 C836 1.377 . S
C837 C838 1.386 . S
C838 H793 0.931 . S
C838 C837 1.386 . S
C838 C839 1.363 . S
C839 C838 1.363 . S
C839 C840 1.385 . S
C840 H794 0.930 . S
C840 C839 1.385 . S
C840 C841 1.396 . S
C841 H795 0.929 . S
C841 C836 1.361 . S
C841 C840 1.396 . S
C842 O796 1.300 . S
C842 O797 1.209 . S
C842 C815 1.486 . S
C843 O798 1.199 . S
C843 O799 1.297 . S
C843 C827 1.476 . S
H844 O870 0.856 . S
H845 O873 0.854 . S
H846 C881 0.930 . S
H847 C882 0.930 . S
H848 C884 0.930 . S
H849 C885 0.930 . S
H850 C887 0.931 . S
H851 C888 0.930 . S
H852 C890 0.930 . S
H853 C891 0.929 . S
H854 C893 0.930 . S
H855 C894 0.931 . S
H856 C896 0.930 . S
H857 C897 0.929 . S
H858 C899 0.931 . S
H859 C900 0.930 . S
H860 C902 0.930 . S
H861 C903 0.932 . S
H862 C905 0.930 . S
H863 C906 0.929 . S
H864 C908 0.931 . S
H865 C909 0.930 . S
H866 C911 0.929 . S
H867 C912 0.931 . S
H868 C914 0.930 . S
H869 C915 0.929 . S
O870 H844 0.856 . S
O870 C916 1.300 . S
O871 C916 1.209 . S
O872 C917 1.199 . S
O873 H845 0.854 . S
O873 C917 1.297 . S
C874 C875 1.404 . S
C874 C879 1.397 . S
C874 C880 1.492 . S
C875 C874 1.404 . S
C875 C876 1.396 . S
C875 C886 1.492 . S
C876 C875 1.396 . S
C876 C877 1.397 . S
C876 C892 1.509 . S
C877 C876 1.397 . S
C877 C878 1.412 . S
C877 C898 1.485 . S
C878 C877 1.412 . S
C878 C879 1.388 . S
C878 C904 1.490 . S
C879 C874 1.397 . S
C879 C878 1.388 . S
C879 C910 1.519 . S
C880 C874 1.492 . S
C880 C881 1.363 . S
C880 C885 1.390 . S
C881 H846 0.930 . S
C881 C880 1.363 . S
C881 C882 1.372 . S
C882 H847 0.930 . S
C882 C881 1.372 . S
C882 C883 1.383 . S
C883 C882 1.383 . S
C883 C884 1.395 . S
C884 H848 0.930 . S
C884 C883 1.395 . S
C884 C885 1.362 . S
C885 H849 0.930 . S
C885 C880 1.390 . S
C885 C884 1.362 . S
C886 C875 1.492 . S
C886 C887 1.377 . S
C886 C891 1.397 . S
C887 H850 0.931 . S
C887 C886 1.377 . S
C887 C888 1.376 . S
C888 H851 0.930 . S
C888 C887 1.376 . S
C888 C889 1.376 . S
C889 C888 1.376 . S
C889 C890 1.378 . S
C889 C916 1.486 . S
C890 H852 0.930 . S
C890 C889 1.378 . S
C890 C891 1.376 . S
C891 H853 0.929 . S
C891 C886 1.397 . S
C891 C890 1.376 . S
C892 C876 1.509 . S
C892 C893 1.391 . S
C892 C897 1.386 . S
C893 H854 0.930 . S
C893 C892 1.391 . S
C893 C894 1.375 . S
C894 H855 0.931 . S
C894 C893 1.375 . S
C894 C895 1.375 . S
C895 C894 1.375 . S
C895 C896 1.361 . S
C896 H856 0.930 . S
C896 C895 1.361 . S
C896 C897 1.399 . S
C897 H857 0.929 . S
C897 C892 1.386 . S
C897 C896 1.399 . S
C898 C877 1.485 . S
C898 C899 1.394 . S
C898 C903 1.360 . S
C899 H858 0.931 . S
C899 C898 1.394 . S
C899 C900 1.372 . S
C900 H859 0.930 . S
C900 C899 1.372 . S
C900 C901 1.397 . S
C901 C900 1.397 . S
C901 C902 1.390 . S
C901 C917 1.476 . S
C902 H860 0.930 . S
C902 C901 1.390 . S
C902 C903 1.366 . S
C903 H861 0.932 . S
C903 C898 1.360 . S
C903 C902 1.366 . S
C904 C878 1.490 . S
C904 C905 1.380 . S
C904 C909 1.386 . S
C905 H862 0.930 . S
C905 C904 1.380 . S
C905 C906 1.381 . S
C906 H863 0.929 . S
C906 C905 1.381 . S
C906 C907 1.371 . S
C907 C906 1.371 . S
C907 C908 1.380 . S
C908 H864 0.931 . S
C908 C907 1.380 . S
C908 C909 1.387 . S
C909 H865 0.930 . S
C909 C904 1.386 . S
C909 C908 1.387 . S
C910 C879 1.519 . S
C910 C911 1.377 . S
C910 C915 1.361 . S
C911 H866 0.929 . S
C911 C910 1.377 . S
C911 C912 1.386 . S
C912 H867 0.931 . S
C912 C911 1.386 . S
C912 C913 1.363 . S
C913 C912 1.363 . S
C913 C914 1.385 . S
C914 H868 0.930 . S
C914 C913 1.385 . S
C914 C915 1.396 . S
C915 H869 0.929 . S
C915 C910 1.361 . S
C915 C914 1.396 . S
C916 O870 1.300 . S
C916 O871 1.209 . S
C916 C889 1.486 . S
C917 O872 1.199 . S
C917 O873 1.297 . S
C917 C901 1.476 . S
H918 O944 0.856 . S
H919 O947 0.854 . S
H920 C955 0.930 . S
H921 C956 0.930 . S
H922 C958 0.930 . S
H923 C959 0.930 . S
H924 C961 0.931 . S
H925 C962 0.897 1_655 S
H926 C964 0.930 . S
H927 C965 0.929 . S
H928 C967 0.930 . S
H929 C968 0.912 1_655 S
H930 C970 0.930 . S
H931 C971 0.929 . S
H932 C973 0.931 . S
H933 C974 0.930 . S
H934 C976 0.930 . S
H935 C977 0.932 . S
H936 C979 0.930 . S
H937 C980 0.929 . S
H938 C982 0.931 . S
H939 C983 0.930 . S
H940 C985 0.929 . S
H941 C986 0.931 . S
H942 C988 0.930 . S
H943 C989 0.929 . S
O944 H918 0.856 . S
O944 C990 1.300 . S
O945 C990 1.209 . S
O946 C991 1.199 1_655 S
O947 H919 0.854 . S
O947 C991 1.297 . S
C948 C949 1.404 . S
C948 C953 1.395 . S
C948 C954 1.492 . S
C949 C948 1.404 . S
C949 C950 1.396 . S
C949 C960 1.492 . S
C950 C949 1.396 . S
C950 C951 1.397 . S
C950 C966 1.509 . S
C951 C950 1.397 . S
C951 C952 1.429 . S
C951 C972 1.485 . S
C952 C951 1.429 . S
C952 C953 1.399 . S
C952 C978 1.490 1_455 S
C953 C948 1.395 . S
C953 C952 1.399 . S
C953 C984 1.488 1_455 S
C954 C948 1.492 . S
C954 C955 1.363 1_455 S
C954 C959 1.390 . S
C955 H920 0.930 . S
C955 C954 1.363 1_655 S
C955 C956 1.372 . S
C956 H921 0.930 . S
C956 C955 1.372 . S
C956 C957 1.383 . S
C957 C956 1.383 . S
C957 C958 1.395 1_655 S
C958 H922 0.930 . S
C958 C957 1.395 1_455 S
C958 C959 1.362 . S
C959 H923 0.930 . S
C959 C954 1.390 . S
C959 C958 1.362 . S
C960 C949 1.492 . S
C960 C961 1.377 1_455 S
C960 C965 1.397 . S
C961 H924 0.931 . S
C961 C960 1.377 1_655 S
C961 C962 1.383 1_655 S
C962 H925 0.897 1_455 S
C962 C961 1.383 1_455 S
C962 C963 1.409 . S
C963 C962 1.409 . S
C963 C964 1.378 . S
C963 C990 1.486 . S
C964 H926 0.930 . S
C964 C963 1.378 . S
C964 C965 1.376 . S
C965 H927 0.929 . S
C965 C960 1.397 . S
C965 C964 1.376 . S
C966 C950 1.509 . S
C966 C967 1.391 1_455 S
C966 C971 1.386 . S
C967 H928 0.930 . S
C967 C966 1.391 1_655 S
C967 C968 1.346 1_655 S
C968 H929 0.912 1_455 S
C968 C967 1.346 1_455 S
C968 C969 1.426 . S
C969 C968 1.426 . S
C969 C970 1.361 . S
C970 H930 0.930 . S
C970 C969 1.361 . S
C970 C971 1.399 . S
C971 H931 0.929 . S
C971 C966 1.386 . S
C971 C970 1.399 . S
C972 C951 1.485 . S
C972 C973 1.394 1_455 S
C972 C977 1.360 . S
C973 H932 0.931 . S
C973 C972 1.394 1_655 S
C973 C974 1.372 . S
C974 H933 0.930 . S
C974 C973 1.372 . S
C974 C975 1.397 1_655 S
C975 C974 1.397 1_455 S
C975 C976 1.390 . S
C975 C991 1.476 . S
C976 H934 0.930 . S
C976 C975 1.390 . S
C976 C977 1.366 . S
C977 H935 0.932 . S
C977 C972 1.360 . S
C977 C976 1.366 . S
C978 C952 1.490 1_655 S
C978 C979 1.380 . S
C978 C983 1.386 1_655 S
C979 H936 0.930 . S
C979 C978 1.380 . S
C979 C980 1.381 . S
C980 H937 0.929 . S
C980 C979 1.381 . S
C980 C981 1.371 . S
C981 C980 1.371 . S
C981 C982 1.380 1_655 S
C982 H938 0.931 . S
C982 C981 1.380 1_455 S
C982 C983 1.387 . S
C983 H939 0.930 . S
C983 C978 1.386 1_455 S
C983 C982 1.387 . S
C984 C953 1.488 1_655 S
C984 C985 1.405 . S
C984 C989 1.343 1_655 S
C985 H940 0.929 . S
C985 C984 1.405 . S
C985 C986 1.386 . S
C986 H941 0.931 . S
C986 C985 1.386 . S
C986 C987 1.378 . S
C987 C986 1.378 . S
C987 C988 1.362 1_655 S
C988 H942 0.930 . S
C988 C987 1.362 1_455 S
C988 C989 1.396 . S
C989 H943 0.929 . S
C989 C984 1.343 1_455 S
C989 C988 1.396 . S
C990 O944 1.300 . S
C990 O945 1.209 . S
C990 C963 1.486 . S
C991 O946 1.199 1_455 S
C991 O947 1.297 . S
C991 C975 1.476 . S
H992 O1018 0.856 . S
H993 O1021 0.854 . S
H994 C1029 0.930 . S
H995 C1030 0.930 . S
H996 C1032 0.930 . S
H997 C1033 0.930 . S
H998 C1035 0.931 . S
H999 C1036 0.930 . S
H1000 C1038 0.930 . S
H1001 C1039 0.929 . S
H1002 C1041 0.930 . S
H1003 C1042 0.931 . S
H1004 C1044 0.930 . S
H1005 C1045 0.929 . S
H1006 C1047 0.931 . S
H1007 C1048 0.930 . S
H1008 C1050 0.930 . S
H1009 C1051 0.932 . S
H1010 C1053 0.930 . S
H1011 C1054 0.929 . S
H1012 C1056 0.931 . S
H1013 C1057 0.930 . S
H1014 C1059 0.929 . S
H1015 C1060 0.931 . S
H1016 C1062 0.930 . S
H1017 C1063 0.929 . S
O1018 H992 0.856 . S
O1018 C1064 1.300 . S
O1019 C1064 1.209 . S
O1020 C1065 1.199 . S
O1021 H993 0.854 . S
O1021 C1065 1.297 . S
C1022 C1023 1.404 . S
C1022 C1027 1.397 . S
C1022 C1028 1.492 . S
C1023 C1022 1.404 . S
C1023 C1024 1.396 . S
C1023 C1034 1.492 . S
C1024 C1023 1.396 . S
C1024 C1025 1.397 . S
C1024 C1040 1.509 . S
C1025 C1024 1.397 . S
C1025 C1026 1.412 . S
C1025 C1046 1.485 . S
C1026 C1025 1.412 . S
C1026 C1027 1.388 . S
C1026 C1052 1.490 . S
C1027 C1022 1.397 . S
C1027 C1026 1.388 . S
C1027 C1058 1.519 . S
C1028 C1022 1.492 . S
C1028 C1029 1.363 . S
C1028 C1033 1.390 . S
C1029 H994 0.930 . S
C1029 C1028 1.363 . S
C1029 C1030 1.372 . S
C1030 H995 0.930 . S
C1030 C1029 1.372 . S
C1030 C1031 1.383 . S
C1031 C1030 1.383 . S
C1031 C1032 1.395 . S
C1032 H996 0.930 . S
C1032 C1031 1.395 . S
C1032 C1033 1.362 . S
C1033 H997 0.930 . S
C1033 C1028 1.390 . S
C1033 C1032 1.362 . S
C1034 C1023 1.492 . S
C1034 C1035 1.377 . S
C1034 C1039 1.397 . S
C1035 H998 0.931 . S
C1035 C1034 1.377 . S
C1035 C1036 1.376 . S
C1036 H999 0.930 . S
C1036 C1035 1.376 . S
C1036 C1037 1.376 . S
C1037 C1036 1.376 . S
C1037 C1038 1.378 . S
C1037 C1064 1.486 . S
C1038 H1000 0.930 . S
C1038 C1037 1.378 . S
C1038 C1039 1.376 . S
C1039 H1001 0.929 . S
C1039 C1034 1.397 . S
C1039 C1038 1.376 . S
C1040 C1024 1.509 . S
C1040 C1041 1.391 . S
C1040 C1045 1.386 . S
C1041 H1002 0.930 . S
C1041 C1040 1.391 . S
C1041 C1042 1.375 . S
C1042 H1003 0.931 . S
C1042 C1041 1.375 . S
C1042 C1043 1.375 . S
C1043 C1042 1.375 . S
C1043 C1044 1.361 . S
C1044 H1004 0.930 . S
C1044 C1043 1.361 . S
C1044 C1045 1.399 . S
C1045 H1005 0.929 . S
C1045 C1040 1.386 . S
C1045 C1044 1.399 . S
C1046 C1025 1.485 . S
C1046 C1047 1.394 . S
C1046 C1051 1.360 . S
C1047 H1006 0.931 . S
C1047 C1046 1.394 . S
C1047 C1048 1.372 . S
C1048 H1007 0.930 . S
C1048 C1047 1.372 . S
C1048 C1049 1.397 . S
C1049 C1048 1.397 . S
C1049 C1050 1.390 . S
C1049 C1065 1.476 . S
C1050 H1008 0.930 . S
C1050 C1049 1.390 . S
C1050 C1051 1.366 . S
C1051 H1009 0.932 . S
C1051 C1046 1.360 . S
C1051 C1050 1.366 . S
C1052 C1026 1.490 . S
C1052 C1053 1.380 . S
C1052 C1057 1.386 . S
C1053 H1010 0.930 . S
C1053 C1052 1.380 . S
C1053 C1054 1.381 . S
C1054 H1011 0.929 . S
C1054 C1053 1.381 . S
C1054 C1055 1.371 . S
C1055 C1054 1.371 . S
C1055 C1056 1.380 . S
C1056 H1012 0.931 . S
C1056 C1055 1.380 . S
C1056 C1057 1.387 . S
C1057 H1013 0.930 . S
C1057 C1052 1.386 . S
C1057 C1056 1.387 . S
C1058 C1027 1.519 . S
C1058 C1059 1.377 . S
C1058 C1063 1.361 . S
C1059 H1014 0.929 . S
C1059 C1058 1.377 . S
C1059 C1060 1.386 . S
C1060 H1015 0.931 . S
C1060 C1059 1.386 . S
C1060 C1061 1.363 . S
C1061 C1060 1.363 . S
C1061 C1062 1.385 . S
C1062 H1016 0.930 . S
C1062 C1061 1.385 . S
C1062 C1063 1.396 . S
C1063 H1017 0.929 . S
C1063 C1058 1.361 . S
C1063 C1062 1.396 . S
C1064 O1018 1.300 . S
C1064 O1019 1.209 . S
C1064 C1037 1.486 . S
C1065 O1020 1.199 . S
C1065 O1021 1.297 . S
C1065 C1049 1.476 . S
H1066 O1092 0.856 . S
H1067 O1095 0.854 . S
H1068 C1103 0.930 . S
H1069 C1104 0.930 . S
H1070 C1106 0.930 . S
H1071 C1107 0.930 . S
H1072 C1109 0.931 . S
H1073 C1110 0.973 . S
H1074 C1112 0.930 . S
H1075 C1113 0.929 . S
H1076 C1115 0.930 . S
H1077 C1116 0.931 . S
H1078 C1118 0.930 . S
H1079 C1119 0.929 . S
H1080 C1121 0.931 . S
H1081 C1122 0.930 . S
H1082 C1124 0.930 . S
H1083 C1125 0.932 . S
H1084 C1127 0.930 . S
H1085 C1128 0.929 . S
H1086 C1130 0.931 . S
H1087 C1131 0.930 . S
H1088 C1133 0.929 . S
H1089 C1134 0.931 . S
H1090 C1136 0.930 . S
H1091 C1137 0.929 . S
O1092 H1066 0.856 . S
O1092 C1138 1.300 . S
O1093 C1138 1.209 . S
O1094 C1139 1.199 1_545 S
O1095 H1067 0.854 . S
O1095 C1139 1.297 . S
C1096 C1097 1.404 . S
C1096 C1101 1.412 . S
C1096 C1102 1.492 . S
C1097 C1096 1.404 . S
C1097 C1098 1.396 . S
C1097 C1108 1.492 . S
C1098 C1097 1.396 . S
C1098 C1099 1.397 . S
C1098 C1114 1.509 . S
C1099 C1098 1.397 . S
C1099 C1100 1.411 . S
C1099 C1120 1.485 . S
C1100 C1099 1.411 . S
C1100 C1101 1.367 . S
C1100 C1126 1.488 1_565 S
C1101 C1096 1.412 . S
C1101 C1100 1.367 . S
C1101 C1132 1.536 . S
C1102 C1096 1.492 . S
C1102 C1103 1.363 1_565 S
C1102 C1107 1.390 . S
C1103 H1068 0.930 . S
C1103 C1102 1.363 1_545 S
C1103 C1104 1.372 . S
C1104 H1069 0.930 . S
C1104 C1103 1.372 . S
C1104 C1105 1.383 . S
C1105 C1104 1.383 . S
C1105 C1106 1.395 1_545 S
C1106 H1070 0.930 . S
C1106 C1105 1.395 1_565 S
C1106 C1107 1.362 . S
C1107 H1071 0.930 . S
C1107 C1102 1.390 . S
C1107 C1106 1.362 . S
C1108 C1097 1.492 . S
C1108 C1109 1.377 1_565 S
C1108 C1113 1.397 . S
C1109 H1072 0.931 . S
C1109 C1108 1.377 1_545 S
C1109 C1110 1.398 . S
C1110 H1073 0.973 . S
C1110 C1109 1.398 . S
C1110 C1111 1.313 1_545 S
C1111 C1110 1.313 1_565 S
C1111 C1112 1.378 . S
C1111 C1138 1.486 . S
C1112 H1074 0.930 . S
C1112 C1111 1.378 . S
C1112 C1113 1.376 . S
C1113 H1075 0.929 . S
C1113 C1108 1.397 . S
C1113 C1112 1.376 . S
C1114 C1098 1.509 . S
C1114 C1115 1.391 1_565 S
C1114 C1119 1.386 . S
C1115 H1076 0.930 . S
C1115 C1114 1.391 1_545 S
C1115 C1116 1.375 . S
C1116 H1077 0.931 . S
C1116 C1115 1.375 . S
C1116 C1117 1.375 1_545 S
C1117 C1116 1.375 1_565 S
C1117 C1118 1.361 . S
C1118 H1078 0.930 . S
C1118 C1117 1.361 . S
C1118 C1119 1.399 . S
C1119 H1079 0.929 . S
C1119 C1114 1.386 . S
C1119 C1118 1.399 . S
C1120 C1099 1.485 . S
C1120 C1121 1.394 1_565 S
C1120 C1125 1.360 . S
C1121 H1080 0.931 . S
C1121 C1120 1.394 1_545 S
C1121 C1122 1.372 . S
C1122 H1081 0.930 . S
C1122 C1121 1.372 . S
C1122 C1123 1.397 1_545 S
C1123 C1122 1.397 1_565 S
C1123 C1124 1.390 . S
C1123 C1139 1.476 . S
C1124 H1082 0.930 . S
C1124 C1123 1.390 . S
C1124 C1125 1.366 . S
C1125 H1083 0.932 . S
C1125 C1120 1.360 . S
C1125 C1124 1.366 . S
C1126 C1100 1.488 1_545 S
C1126 C1127 1.380 . S
C1126 C1131 1.386 1_545 S
C1127 H1084 0.930 . S
C1127 C1126 1.380 . S
C1127 C1128 1.381 . S
C1128 H1085 0.929 . S
C1128 C1127 1.381 . S
C1128 C1129 1.371 . S
C1129 C1128 1.371 . S
C1129 C1130 1.380 1_545 S
C1130 H1086 0.931 . S
C1130 C1129 1.380 1_565 S
C1130 C1131 1.387 . S
C1131 H1087 0.930 . S
C1131 C1126 1.386 1_565 S
C1131 C1130 1.387 . S
C1132 C1101 1.536 . S
C1132 C1133 1.379 1_565 S
C1132 C1137 1.356 . S
C1133 H1088 0.929 . S
C1133 C1132 1.379 1_545 S
C1133 C1134 1.386 . S
C1134 H1089 0.931 . S
C1134 C1133 1.386 . S
C1134 C1135 1.300 1_545 S
C1135 C1134 1.300 1_565 S
C1135 C1136 1.419 . S
C1136 H1090 0.930 . S
C1136 C1135 1.419 . S
C1136 C1137 1.396 . S
C1137 H1091 0.929 . S
C1137 C1132 1.356 . S
C1137 C1136 1.396 . S
C1138 O1092 1.300 . S
C1138 O1093 1.209 . S
C1138 C1111 1.486 . S
C1139 O1094 1.199 1_565 S
C1139 O1095 1.297 . S
C1139 C1123 1.476 . S
H1140 O1166 0.856 . S
H1141 O1169 0.854 . S
H1142 C1177 0.930 . S
H1143 C1178 0.930 . S
H1144 C1180 0.930 . S
H1145 C1181 0.930 . S
H1146 C1183 0.931 . S
H1147 C1184 0.930 . S
H1148 C1186 0.930 . S
H1149 C1187 0.929 . S
H1150 C1189 0.930 . S
H1151 C1190 0.931 . S
H1152 C1192 0.930 . S
H1153 C1193 0.929 . S
H1154 C1195 0.931 . S
H1155 C1196 0.930 . S
H1156 C1198 0.930 . S
H1157 C1199 0.932 . S
H1158 C1201 0.930 . S
H1159 C1202 0.929 . S
H1160 C1204 0.931 . S
H1161 C1205 0.930 . S
H1162 C1207 0.929 . S
H1163 C1208 0.931 . S
H1164 C1210 0.930 . S
H1165 C1211 0.929 . S
O1166 H1140 0.856 . S
O1166 C1212 1.300 . S
O1167 C1212 1.209 1_565 S
O1168 C1213 1.199 1_545 S
O1169 H1141 0.854 . S
O1169 C1213 1.297 . S
C1170 C1171 1.404 . S
C1170 C1175 1.398 1_545 S
C1170 C1176 1.492 . S
C1171 C1170 1.404 . S
C1171 C1172 1.417 . S
C1171 C1182 1.492 . S
C1172 C1171 1.417 . S
C1172 C1173 1.381 1_545 S
C1172 C1188 1.500 . S
C1173 C1172 1.381 1_565 S
C1173 C1174 1.413 . S
C1173 C1194 1.508 . S
C1174 C1173 1.413 . S
C1174 C1175 1.364 . S
C1174 C1200 1.489 . S
C1175 C1170 1.398 1_565 S
C1175 C1174 1.364 . S
C1175 C1206 1.519 . S
C1176 C1170 1.492 . S
C1176 C1177 1.363 . S
C1176 C1181 1.390 1_545 S
C1177 H1142 0.930 . S
C1177 C1176 1.363 . S
C1177 C1178 1.372 . S
C1178 H1143 0.930 . S
C1178 C1177 1.372 . S
C1178 C1179 1.383 . S
C1179 C1178 1.383 . S
C1179 C1180 1.395 1_545 S
C1180 H1144 0.930 . S
C1180 C1179 1.395 1_565 S
C1180 C1181 1.362 . S
C1181 H1145 0.930 . S
C1181 C1176 1.390 1_565 S
C1181 C1180 1.362 . S
C1182 C1171 1.492 . S
C1182 C1183 1.377 . S
C1182 C1187 1.397 1_545 S
C1183 H1146 0.931 . S
C1183 C1182 1.377 . S
C1183 C1184 1.376 . S
C1184 H1147 0.930 . S
C1184 C1183 1.376 . S
C1184 C1185 1.376 . S
C1185 C1184 1.376 . S
C1185 C1186 1.378 1_545 S
C1185 C1212 1.486 . S
C1186 H1148 0.930 . S
C1186 C1185 1.378 1_565 S
C1186 C1187 1.376 . S
C1187 H1149 0.929 . S
C1187 C1182 1.397 1_565 S
C1187 C1186 1.376 . S
C1188 C1172 1.500 . S
C1188 C1189 1.396 . S
C1188 C1193 1.377 1_545 S
C1189 H1150 0.930 . S
C1189 C1188 1.396 . S
C1189 C1190 1.375 . S
C1190 H1151 0.931 . S
C1190 C1189 1.375 . S
C1190 C1191 1.359 1_545 S
C1191 C1190 1.359 1_565 S
C1191 C1192 1.371 . S
C1192 H1152 0.930 . S
C1192 C1191 1.371 . S
C1192 C1193 1.399 . S
C1193 H1153 0.929 . S
C1193 C1188 1.377 1_565 S
C1193 C1192 1.399 . S
C1194 C1173 1.508 . S
C1194 C1195 1.394 1_565 S
C1194 C1199 1.360 . S
C1195 H1154 0.931 . S
C1195 C1194 1.394 1_545 S
C1195 C1196 1.372 . S
C1196 H1155 0.930 . S
C1196 C1195 1.372 . S
C1196 C1197 1.397 1_545 S
C1197 C1196 1.397 1_565 S
C1197 C1198 1.390 . S
C1197 C1213 1.476 . S
C1198 H1156 0.930 . S
C1198 C1197 1.390 . S
C1198 C1199 1.366 . S
C1199 H1157 0.932 . S
C1199 C1194 1.360 . S
C1199 C1198 1.366 . S
C1200 C1174 1.489 . S
C1200 C1201 1.343 1_565 S
C1200 C1205 1.432 . S
C1201 H1158 0.930 . S
C1201 C1200 1.343 1_545 S
C1201 C1202 1.381 . S
C1202 H1159 0.929 . S
C1202 C1201 1.381 . S
C1202 C1203 1.395 . S
C1203 C1202 1.395 . S
C1203 C1204 1.360 1_545 S
C1204 H1160 0.931 . S
C1204 C1203 1.360 1_565 S
C1204 C1205 1.387 . S
C1205 H1161 0.930 . S
C1205 C1200 1.432 . S
C1205 C1204 1.387 . S
C1206 C1175 1.519 . S
C1206 C1207 1.377 1_565 S
C1206 C1211 1.361 . S
C1207 H1162 0.929 . S
C1207 C1206 1.377 1_545 S
C1207 C1208 1.386 . S
C1208 H1163 0.931 . S
C1208 C1207 1.386 . S
C1208 C1209 1.363 1_545 S
C1209 C1208 1.363 1_565 S
C1209 C1210 1.385 . S
C1210 H1164 0.930 . S
C1210 C1209 1.385 . S
C1210 C1211 1.396 . S
C1211 H1165 0.929 . S
C1211 C1206 1.361 . S
C1211 C1210 1.396 . S
C1212 O1166 1.300 . S
C1212 O1167 1.209 1_545 S
C1212 C1185 1.486 . S
C1213 O1168 1.199 1_565 S
C1213 O1169 1.297 . S
C1213 C1197 1.476 . S
H1214 O1240 0.856 . S
H1215 O1243 0.854 . S
H1216 C1251 0.930 . S
H1217 C1252 0.930 . S
H1218 C1254 0.930 . S
H1219 C1255 0.930 . S
H1220 C1257 0.931 . S
H1221 C1258 0.930 . S
H1222 C1260 0.930 . S
H1223 C1261 0.929 . S
H1224 C1263 0.930 . S
H1225 C1264 0.931 . S
H1226 C1266 0.930 . S
H1227 C1267 0.929 . S
H1228 C1269 0.931 . S
H1229 C1270 0.930 . S
H1230 C1272 0.930 . S
H1231 C1273 0.932 . S
H1232 C1275 0.930 . S
H1233 C1276 0.929 . S
H1234 C1278 0.931 . S
H1235 C1279 0.930 . S
H1236 C1281 0.929 . S
H1237 C1282 0.931 . S
H1238 C1284 0.930 . S
H1239 C1285 0.929 . S
O1240 H1214 0.856 . S
O1240 C1286 1.300 . S
O1241 C1286 1.209 1_455 S
O1242 C1287 1.199 1_655 S
O1243 H1215 0.854 . S
O1243 C1287 1.297 . S
C1244 C1245 1.404 . S
C1244 C1249 1.398 . S
C1244 C1250 1.492 . S
C1245 C1244 1.404 . S
C1245 C1246 1.396 . S
C1245 C1256 1.492 . S
C1246 C1245 1.396 . S
C1246 C1247 1.397 . S
C1246 C1262 1.509 . S
C1247 C1246 1.397 . S
C1247 C1248 1.400 1_655 S
C1247 C1268 1.518 1_655 S
C1248 C1247 1.400 1_455 S
C1248 C1249 1.397 1_455 S
C1248 C1274 1.499 . S
C1249 C1244 1.398 . S
C1249 C1248 1.397 1_655 S
C1249 C1280 1.523 1_655 S
C1250 C1244 1.492 . S
C1250 C1251 1.363 . S
C1250 C1255 1.390 1_655 S
C1251 H1216 0.930 . S
C1251 C1250 1.363 . S
C1251 C1252 1.372 . S
C1252 H1217 0.930 . S
C1252 C1251 1.372 . S
C1252 C1253 1.383 . S
C1253 C1252 1.383 . S
C1253 C1254 1.395 1_655 S
C1254 H1218 0.930 . S
C1254 C1253 1.395 1_455 S
C1254 C1255 1.362 . S
C1255 H1219 0.930 . S
C1255 C1250 1.390 1_455 S
C1255 C1254 1.362 . S
C1256 C1245 1.492 . S
C1256 C1257 1.377 . S
C1256 C1261 1.397 1_655 S
C1257 H1220 0.931 . S
C1257 C1256 1.377 . S
C1257 C1258 1.376 . S
C1258 H1221 0.930 . S
C1258 C1257 1.376 . S
C1258 C1259 1.376 . S
C1259 C1258 1.376 . S
C1259 C1260 1.378 1_655 S
C1259 C1286 1.486 . S
C1260 H1222 0.930 . S
C1260 C1259 1.378 1_455 S
C1260 C1261 1.376 . S
C1261 H1223 0.929 . S
C1261 C1256 1.397 1_455 S
C1261 C1260 1.376 . S
C1262 C1246 1.509 . S
C1262 C1263 1.391 . S
C1262 C1267 1.386 1_655 S
C1263 H1224 0.930 . S
C1263 C1262 1.391 . S
C1263 C1264 1.375 . S
C1264 H1225 0.931 . S
C1264 C1263 1.375 . S
C1264 C1265 1.375 . S
C1265 C1264 1.375 . S
C1265 C1266 1.361 1_655 S
C1266 H1226 0.930 . S
C1266 C1265 1.361 1_455 S
C1266 C1267 1.399 . S
C1267 H1227 0.929 . S
C1267 C1262 1.386 1_455 S
C1267 C1266 1.399 . S
C1268 C1247 1.518 1_455 S
C1268 C1269 1.343 1_455 S
C1268 C1273 1.384 . S
C1269 H1228 0.931 . S
C1269 C1268 1.343 1_655 S
C1269 C1270 1.372 . S
C1270 H1229 0.930 . S
C1270 C1269 1.372 . S
C1270 C1271 1.397 1_655 S
C1271 C1270 1.397 1_455 S
C1271 C1272 1.390 . S
C1271 C1287 1.476 . S
C1272 H1230 0.930 . S
C1272 C1271 1.390 . S
C1272 C1273 1.366 . S
C1273 H1231 0.932 . S
C1273 C1268 1.384 . S
C1273 C1272 1.366 . S
C1274 C1248 1.499 . S
C1274 C1275 1.337 1_455 S
C1274 C1279 1.419 . S
C1275 H1232 0.930 . S
C1275 C1274 1.337 1_655 S
C1275 C1276 1.381 . S
C1276 H1233 0.929 . S
C1276 C1275 1.381 . S
C1276 C1277 1.346 1_655 S
C1277 C1276 1.346 1_455 S
C1277 C1278 1.420 . S
C1278 H1234 0.931 . S
C1278 C1277 1.420 . S
C1278 C1279 1.387 . S
C1279 H1235 0.930 . S
C1279 C1274 1.419 . S
C1279 C1278 1.387 . S
C1280 C1249 1.523 1_455 S
C1280 C1281 1.377 1_455 S
C1280 C1285 1.361 . S
C1281 H1236 0.929 . S
C1281 C1280 1.377 1_655 S
C1281 C1282 1.386 . S
C1282 H1237 0.931 . S
C1282 C1281 1.386 . S
C1282 C1283 1.363 1_655 S
C1283 C1282 1.363 1_455 S
C1283 C1284 1.385 . S
C1284 H1238 0.930 . S
C1284 C1283 1.385 . S
C1284 C1285 1.396 . S
C1285 H1239 0.929 . S
C1285 C1280 1.361 . S
C1285 C1284 1.396 . S
C1286 O1240 1.300 . S
C1286 O1241 1.209 1_655 S
C1286 C1259 1.486 . S
C1287 O1242 1.199 1_455 S
C1287 O1243 1.297 . S
C1287 C1271 1.476 . S
H1288 O1314 0.856 . S
H1289 O1317 0.854 . S
H1290 C1325 0.930 . S
H1291 C1326 0.930 . S
H1292 C1328 0.930 . S
H1293 C1329 0.930 . S
H1294 C1331 0.931 . S
H1295 C1332 0.930 . S
H1296 C1334 0.930 . S
H1297 C1335 0.929 . S
H1298 C1337 0.930 . S
H1299 C1338 0.931 . S
H1300 C1340 0.930 . S
H1301 C1341 0.929 . S
H1302 C1343 0.931 . S
H1303 C1344 0.930 . S
H1304 C1346 0.930 . S
H1305 C1347 0.932 . S
H1306 C1349 0.930 . S
H1307 C1350 0.929 . S
H1308 C1352 0.931 . S
H1309 C1353 0.930 . S
H1310 C1355 0.929 . S
H1311 C1356 0.931 . S
H1312 C1358 0.930 . S
H1313 C1359 0.929 . S
O1314 H1288 0.856 . S
O1314 C1360 1.300 . S
O1315 C1360 1.209 . S
O1316 C1361 1.199 . S
O1317 H1289 0.854 . S
O1317 C1361 1.297 . S
C1318 C1319 1.404 . S
C1318 C1323 1.397 . S
C1318 C1324 1.492 . S
C1319 C1318 1.404 . S
C1319 C1320 1.396 . S
C1319 C1330 1.492 . S
C1320 C1319 1.396 . S
C1320 C1321 1.397 . S
C1320 C1336 1.509 . S
C1321 C1320 1.397 . S
C1321 C1322 1.412 . S
C1321 C1342 1.485 . S
C1322 C1321 1.412 . S
C1322 C1323 1.388 . S
C1322 C1348 1.490 . S
C1323 C1318 1.397 . S
C1323 C1322 1.388 . S
C1323 C1354 1.519 . S
C1324 C1318 1.492 . S
C1324 C1325 1.363 . S
C1324 C1329 1.390 . S
C1325 H1290 0.930 . S
C1325 C1324 1.363 . S
C1325 C1326 1.372 . S
C1326 H1291 0.930 . S
C1326 C1325 1.372 . S
C1326 C1327 1.383 . S
C1327 C1326 1.383 . S
C1327 C1328 1.395 . S
C1328 H1292 0.930 . S
C1328 C1327 1.395 . S
C1328 C1329 1.362 . S
C1329 H1293 0.930 . S
C1329 C1324 1.390 . S
C1329 C1328 1.362 . S
C1330 C1319 1.492 . S
C1330 C1331 1.377 . S
C1330 C1335 1.397 . S
C1331 H1294 0.931 . S
C1331 C1330 1.377 . S
C1331 C1332 1.376 . S
C1332 H1295 0.930 . S
C1332 C1331 1.376 . S
C1332 C1333 1.376 . S
C1333 C1332 1.376 . S
C1333 C1334 1.378 . S
C1333 C1360 1.486 . S
C1334 H1296 0.930 . S
C1334 C1333 1.378 . S
C1334 C1335 1.376 . S
C1335 H1297 0.929 . S
C1335 C1330 1.397 . S
C1335 C1334 1.376 . S
C1336 C1320 1.509 . S
C1336 C1337 1.391 . S
C1336 C1341 1.386 . S
C1337 H1298 0.930 . S
C1337 C1336 1.391 . S
C1337 C1338 1.375 . S
C1338 H1299 0.931 . S
C1338 C1337 1.375 . S
C1338 C1339 1.375 . S
C1339 C1338 1.375 . S
C1339 C1340 1.361 . S
C1340 H1300 0.930 . S
C1340 C1339 1.361 . S
C1340 C1341 1.399 . S
C1341 H1301 0.929 . S
C1341 C1336 1.386 . S
C1341 C1340 1.399 . S
C1342 C1321 1.485 . S
C1342 C1343 1.394 . S
C1342 C1347 1.360 . S
C1343 H1302 0.931 . S
C1343 C1342 1.394 . S
C1343 C1344 1.372 . S
C1344 H1303 0.930 . S
C1344 C1343 1.372 . S
C1344 C1345 1.397 . S
C1345 C1344 1.397 . S
C1345 C1346 1.390 . S
C1345 C1361 1.476 . S
C1346 H1304 0.930 . S
C1346 C1345 1.390 . S
C1346 C1347 1.366 . S
C1347 H1305 0.932 . S
C1347 C1342 1.360 . S
C1347 C1346 1.366 . S
C1348 C1322 1.490 . S
C1348 C1349 1.380 . S
C1348 C1353 1.386 . S
C1349 H1306 0.930 . S
C1349 C1348 1.380 . S
C1349 C1350 1.381 . S
C1350 H1307 0.929 . S
C1350 C1349 1.381 . S
C1350 C1351 1.371 . S
C1351 C1350 1.371 . S
C1351 C1352 1.380 . S
C1352 H1308 0.931 . S
C1352 C1351 1.380 . S
C1352 C1353 1.387 . S
C1353 H1309 0.930 . S
C1353 C1348 1.386 . S
C1353 C1352 1.387 . S
C1354 C1323 1.519 . S
C1354 C1355 1.377 . S
C1354 C1359 1.361 . S
C1355 H1310 0.929 . S
C1355 C1354 1.377 . S
C1355 C1356 1.386 . S
C1356 H1311 0.931 . S
C1356 C1355 1.386 . S
C1356 C1357 1.363 . S
C1357 C1356 1.363 . S
C1357 C1358 1.385 . S
C1358 H1312 0.930 . S
C1358 C1357 1.385 . S
C1358 C1359 1.396 . S
C1359 H1313 0.929 . S
C1359 C1354 1.361 . S
C1359 C1358 1.396 . S
C1360 O1314 1.300 . S
C1360 O1315 1.209 . S
C1360 C1333 1.486 . S
C1361 O1316 1.199 . S
C1361 O1317 1.297 . S
C1361 C1345 1.476 . S
H1362 O1388 0.856 . S
H1363 O1391 0.854 . S
H1364 C1399 0.930 . S
H1365 C1400 0.930 . S
H1366 C1402 0.930 . S
H1367 C1403 0.930 . S
H1368 C1405 0.931 . S
H1369 C1406 0.930 . S
H1370 C1408 0.930 . S
H1371 C1409 0.929 . S
H1372 C1411 0.930 . S
H1373 C1412 0.931 . S
H1374 C1414 0.930 . S
H1375 C1415 0.929 . S
H1376 C1417 0.931 . S
H1377 C1418 0.930 . S
H1378 C1420 0.930 . S
H1379 C1421 0.932 . S
H1380 C1423 0.930 . S
H1381 C1424 0.929 . S
H1382 C1426 0.931 . S
H1383 C1427 0.930 . S
H1384 C1429 0.929 . S
H1385 C1430 0.931 . S
H1386 C1432 0.930 . S
H1387 C1433 0.929 . S
O1388 H1362 0.856 . S
O1388 C1434 1.300 . S
O1389 C1434 1.209 . S
O1390 C1435 1.199 . S
O1391 H1363 0.854 . S
O1391 C1435 1.297 . S
C1392 C1393 1.404 . S
C1392 C1397 1.397 . S
C1392 C1398 1.492 . S
C1393 C1392 1.404 . S
C1393 C1394 1.396 . S
C1393 C1404 1.492 . S
C1394 C1393 1.396 . S
C1394 C1395 1.397 . S
C1394 C1410 1.509 . S
C1395 C1394 1.397 . S
C1395 C1396 1.412 . S
C1395 C1416 1.485 . S
C1396 C1395 1.412 . S
C1396 C1397 1.388 . S
C1396 C1422 1.490 . S
C1397 C1392 1.397 . S
C1397 C1396 1.388 . S
C1397 C1428 1.519 . S
C1398 C1392 1.492 . S
C1398 C1399 1.363 . S
C1398 C1403 1.390 . S
C1399 H1364 0.930 . S
C1399 C1398 1.363 . S
C1399 C1400 1.372 . S
C1400 H1365 0.930 . S
C1400 C1399 1.372 . S
C1400 C1401 1.383 . S
C1401 C1400 1.383 . S
C1401 C1402 1.395 . S
C1402 H1366 0.930 . S
C1402 C1401 1.395 . S
C1402 C1403 1.362 . S
C1403 H1367 0.930 . S
C1403 C1398 1.390 . S
C1403 C1402 1.362 . S
C1404 C1393 1.492 . S
C1404 C1405 1.377 . S
C1404 C1409 1.397 . S
C1405 H1368 0.931 . S
C1405 C1404 1.377 . S
C1405 C1406 1.376 . S
C1406 H1369 0.930 . S
C1406 C1405 1.376 . S
C1406 C1407 1.376 . S
C1407 C1406 1.376 . S
C1407 C1408 1.378 . S
C1407 C1434 1.486 . S
C1408 H1370 0.930 . S
C1408 C1407 1.378 . S
C1408 C1409 1.376 . S
C1409 H1371 0.929 . S
C1409 C1404 1.397 . S
C1409 C1408 1.376 . S
C1410 C1394 1.509 . S
C1410 C1411 1.391 . S
C1410 C1415 1.386 . S
C1411 H1372 0.930 . S
C1411 C1410 1.391 . S
C1411 C1412 1.375 . S
C1412 H1373 0.931 . S
C1412 C1411 1.375 . S
C1412 C1413 1.375 . S
C1413 C1412 1.375 . S
C1413 C1414 1.361 . S
C1414 H1374 0.930 . S
C1414 C1413 1.361 . S
C1414 C1415 1.399 . S
C1415 H1375 0.929 . S
C1415 C1410 1.386 . S
C1415 C1414 1.399 . S
C1416 C1395 1.485 . S
C1416 C1417 1.394 . S
C1416 C1421 1.360 . S
C1417 H1376 0.931 . S
C1417 C1416 1.394 . S
C1417 C1418 1.372 . S
C1418 H1377 0.930 . S
C1418 C1417 1.372 . S
C1418 C1419 1.397 . S
C1419 C1418 1.397 . S
C1419 C1420 1.390 . S
C1419 C1435 1.476 . S
C1420 H1378 0.930 . S
C1420 C1419 1.390 . S
C1420 C1421 1.366 . S
C1421 H1379 0.932 . S
C1421 C1416 1.360 . S
C1421 C1420 1.366 . S
C1422 C1396 1.490 . S
C1422 C1423 1.380 . S
C1422 C1427 1.386 . S
C1423 H1380 0.930 . S
C1423 C1422 1.380 . S
C1423 C1424 1.381 . S
C1424 H1381 0.929 . S
C1424 C1423 1.381 . S
C1424 C1425 1.371 . S
C1425 C1424 1.371 . S
C1425 C1426 1.380 . S
C1426 H1382 0.931 . S
C1426 C1425 1.380 . S
C1426 C1427 1.387 . S
C1427 H1383 0.930 . S
C1427 C1422 1.386 . S
C1427 C1426 1.387 . S
C1428 C1397 1.519 . S
C1428 C1429 1.377 . S
C1428 C1433 1.361 . S
C1429 H1384 0.929 . S
C1429 C1428 1.377 . S
C1429 C1430 1.386 . S
C1430 H1385 0.931 . S
C1430 C1429 1.386 . S
C1430 C1431 1.363 . S
C1431 C1430 1.363 . S
C1431 C1432 1.385 . S
C1432 H1386 0.930 . S
C1432 C1431 1.385 . S
C1432 C1433 1.396 . S
C1433 H1387 0.929 . S
C1433 C1428 1.361 . S
C1433 C1432 1.396 . S
C1434 O1388 1.300 . S
C1434 O1389 1.209 . S
C1434 C1407 1.486 . S
C1435 O1390 1.199 . S
C1435 O1391 1.297 . S
C1435 C1419 1.476 . S
H1436 O1462 0.856 . S
H1437 O1465 0.854 . S
H1438 C1473 0.930 . S
H1439 C1474 0.930 . S
H1440 C1476 0.930 . S
H1441 C1477 0.930 . S
H1442 C1479 0.931 . S
H1443 C1480 0.930 . S
H1444 C1482 0.930 . S
H1445 C1483 0.929 . S
H1446 C1485 0.930 . S
H1447 C1486 0.931 . S
H1448 C1488 0.930 . S
H1449 C1489 0.929 . S
H1450 C1491 0.931 . S
H1451 C1492 0.930 . S
H1452 C1494 0.930 . S
H1453 C1495 0.932 . S
H1454 C1497 0.930 . S
H1455 C1498 0.929 . S
H1456 C1500 0.931 . S
H1457 C1501 0.930 . S
H1458 C1503 0.929 . S
H1459 C1504 0.931 . S
H1460 C1506 0.930 . S
H1461 C1507 0.929 . S
O1462 H1436 0.856 . S
O1462 C1508 1.300 . S
O1463 C1508 1.209 . S
O1464 C1509 1.199 . S
O1465 H1437 0.854 . S
O1465 C1509 1.297 . S
C1466 C1467 1.404 . S
C1466 C1471 1.397 . S
C1466 C1472 1.492 . S
C1467 C1466 1.404 . S
C1467 C1468 1.396 . S
C1467 C1478 1.492 . S
C1468 C1467 1.396 . S
C1468 C1469 1.397 . S
C1468 C1484 1.509 . S
C1469 C1468 1.397 . S
C1469 C1470 1.412 . S
C1469 C1490 1.485 . S
C1470 C1469 1.412 . S
C1470 C1471 1.388 . S
C1470 C1496 1.490 . S
C1471 C1466 1.397 . S
C1471 C1470 1.388 . S
C1471 C1502 1.519 . S
C1472 C1466 1.492 . S
C1472 C1473 1.363 . S
C1472 C1477 1.390 . S
C1473 H1438 0.930 . S
C1473 C1472 1.363 . S
C1473 C1474 1.372 . S
C1474 H1439 0.930 . S
C1474 C1473 1.372 . S
C1474 C1475 1.383 . S
C1475 C1474 1.383 . S
C1475 C1476 1.395 . S
C1476 H1440 0.930 . S
C1476 C1475 1.395 . S
C1476 C1477 1.362 . S
C1477 H1441 0.930 . S
C1477 C1472 1.390 . S
C1477 C1476 1.362 . S
C1478 C1467 1.492 . S
C1478 C1479 1.377 . S
C1478 C1483 1.397 . S
C1479 H1442 0.931 . S
C1479 C1478 1.377 . S
C1479 C1480 1.376 . S
C1480 H1443 0.930 . S
C1480 C1479 1.376 . S
C1480 C1481 1.376 . S
C1481 C1480 1.376 . S
C1481 C1482 1.378 . S
C1481 C1508 1.486 . S
C1482 H1444 0.930 . S
C1482 C1481 1.378 . S
C1482 C1483 1.376 . S
C1483 H1445 0.929 . S
C1483 C1478 1.397 . S
C1483 C1482 1.376 . S
C1484 C1468 1.509 . S
C1484 C1485 1.391 . S
C1484 C1489 1.386 . S
C1485 H1446 0.930 . S
C1485 C1484 1.391 . S
C1485 C1486 1.375 . S
C1486 H1447 0.931 . S
C1486 C1485 1.375 . S
C1486 C1487 1.375 . S
C1487 C1486 1.375 . S
C1487 C1488 1.361 . S
C1488 H1448 0.930 . S
C1488 C1487 1.361 . S
C1488 C1489 1.399 . S
C1489 H1449 0.929 . S
C1489 C1484 1.386 . S
C1489 C1488 1.399 . S
C1490 C1469 1.485 . S
C1490 C1491 1.394 . S
C1490 C1495 1.360 . S
C1491 H1450 0.931 . S
C1491 C1490 1.394 . S
C1491 C1492 1.372 . S
C1492 H1451 0.930 . S
C1492 C1491 1.372 . S
C1492 C1493 1.397 . S
C1493 C1492 1.397 . S
C1493 C1494 1.390 . S
C1493 C1509 1.476 . S
C1494 H1452 0.930 . S
C1494 C1493 1.390 . S
C1494 C1495 1.366 . S
C1495 H1453 0.932 . S
C1495 C1490 1.360 . S
C1495 C1494 1.366 . S
C1496 C1470 1.490 . S
C1496 C1497 1.380 . S
C1496 C1501 1.386 . S
C1497 H1454 0.930 . S
C1497 C1496 1.380 . S
C1497 C1498 1.381 . S
C1498 H1455 0.929 . S
C1498 C1497 1.381 . S
C1498 C1499 1.371 . S
C1499 C1498 1.371 . S
C1499 C1500 1.380 . S
C1500 H1456 0.931 . S
C1500 C1499 1.380 . S
C1500 C1501 1.387 . S
C1501 H1457 0.930 . S
C1501 C1496 1.386 . S
C1501 C1500 1.387 . S
C1502 C1471 1.519 . S
C1502 C1503 1.377 . S
C1502 C1507 1.361 . S
C1503 H1458 0.929 . S
C1503 C1502 1.377 . S
C1503 C1504 1.386 . S
C1504 H1459 0.931 . S
C1504 C1503 1.386 . S
C1504 C1505 1.363 . S
C1505 C1504 1.363 . S
C1505 C1506 1.385 . S
C1506 H1460 0.930 . S
C1506 C1505 1.385 . S
C1506 C1507 1.396 . S
C1507 H1461 0.929 . S
C1507 C1502 1.361 . S
C1507 C1506 1.396 . S
C1508 O1462 1.300 . S
C1508 O1463 1.209 . S
C1508 C1481 1.486 . S
C1509 O1464 1.199 . S
C1509 O1465 1.297 . S
C1509 C1493 1.476 . S
H1510 O1536 0.856 . S
H1511 O1539 0.854 . S
H1512 C1547 0.930 . S
H1513 C1548 0.930 . S
H1514 C1550 0.930 . S
H1515 C1551 0.930 . S
H1516 C1553 0.931 . S
H1517 C1554 0.930 . S
H1518 C1556 0.930 . S
H1519 C1557 0.929 . S
H1520 C1559 0.930 . S
H1521 C1560 0.931 . S
H1522 C1562 0.930 . S
H1523 C1563 0.929 . S
H1524 C1565 0.931 . S
H1525 C1566 0.930 . S
H1526 C1568 0.930 . S
H1527 C1569 0.932 . S
H1528 C1571 0.930 . S
H1529 C1572 0.929 . S
H1530 C1574 0.931 . S
H1531 C1575 0.930 . S
H1532 C1577 0.929 . S
H1533 C1578 0.931 . S
H1534 C1580 0.930 . S
H1535 C1581 0.929 . S
O1536 H1510 0.856 . S
O1536 C1582 1.300 . S
O1537 C1582 1.209 . S
O1538 C1583 1.199 . S
O1539 H1511 0.854 . S
O1539 C1583 1.297 . S
C1540 C1541 1.404 . S
C1540 C1545 1.397 . S
C1540 C1546 1.492 . S
C1541 C1540 1.404 . S
C1541 C1542 1.396 . S
C1541 C1552 1.492 . S
C1542 C1541 1.396 . S
C1542 C1543 1.397 . S
C1542 C1558 1.509 . S
C1543 C1542 1.397 . S
C1543 C1544 1.412 . S
C1543 C1564 1.485 . S
C1544 C1543 1.412 . S
C1544 C1545 1.388 . S
C1544 C1570 1.490 . S
C1545 C1540 1.397 . S
C1545 C1544 1.388 . S
C1545 C1576 1.519 . S
C1546 C1540 1.492 . S
C1546 C1547 1.363 . S
C1546 C1551 1.390 . S
C1547 H1512 0.930 . S
C1547 C1546 1.363 . S
C1547 C1548 1.372 . S
C1548 H1513 0.930 . S
C1548 C1547 1.372 . S
C1548 C1549 1.383 . S
C1549 C1548 1.383 . S
C1549 C1550 1.395 . S
C1550 H1514 0.930 . S
C1550 C1549 1.395 . S
C1550 C1551 1.362 . S
C1551 H1515 0.930 . S
C1551 C1546 1.390 . S
C1551 C1550 1.362 . S
C1552 C1541 1.492 . S
C1552 C1553 1.377 . S
C1552 C1557 1.397 . S
C1553 H1516 0.931 . S
C1553 C1552 1.377 . S
C1553 C1554 1.376 . S
C1554 H1517 0.930 . S
C1554 C1553 1.376 . S
C1554 C1555 1.376 . S
C1555 C1554 1.376 . S
C1555 C1556 1.378 . S
C1555 C1582 1.486 . S
C1556 H1518 0.930 . S
C1556 C1555 1.378 . S
C1556 C1557 1.376 . S
C1557 H1519 0.929 . S
C1557 C1552 1.397 . S
C1557 C1556 1.376 . S
C1558 C1542 1.509 . S
C1558 C1559 1.391 . S
C1558 C1563 1.386 . S
C1559 H1520 0.930 . S
C1559 C1558 1.391 . S
C1559 C1560 1.375 . S
C1560 H1521 0.931 . S
C1560 C1559 1.375 . S
C1560 C1561 1.375 . S
C1561 C1560 1.375 . S
C1561 C1562 1.361 . S
C1562 H1522 0.930 . S
C1562 C1561 1.361 . S
C1562 C1563 1.399 . S
C1563 H1523 0.929 . S
C1563 C1558 1.386 . S
C1563 C1562 1.399 . S
C1564 C1543 1.485 . S
C1564 C1565 1.394 . S
C1564 C1569 1.360 . S
C1565 H1524 0.931 . S
C1565 C1564 1.394 . S
C1565 C1566 1.372 . S
C1566 H1525 0.930 . S
C1566 C1565 1.372 . S
C1566 C1567 1.397 . S
C1567 C1566 1.397 . S
C1567 C1568 1.390 . S
C1567 C1583 1.476 . S
C1568 H1526 0.930 . S
C1568 C1567 1.390 . S
C1568 C1569 1.366 . S
C1569 H1527 0.932 . S
C1569 C1564 1.360 . S
C1569 C1568 1.366 . S
C1570 C1544 1.490 . S
C1570 C1571 1.380 . S
C1570 C1575 1.386 . S
C1571 H1528 0.930 . S
C1571 C1570 1.380 . S
C1571 C1572 1.381 . S
C1572 H1529 0.929 . S
C1572 C1571 1.381 . S
C1572 C1573 1.371 . S
C1573 C1572 1.371 . S
C1573 C1574 1.380 . S
C1574 H1530 0.931 . S
C1574 C1573 1.380 . S
C1574 C1575 1.387 . S
C1575 H1531 0.930 . S
C1575 C1570 1.386 . S
C1575 C1574 1.387 . S
C1576 C1545 1.519 . S
C1576 C1577 1.377 . S
C1576 C1581 1.361 . S
C1577 H1532 0.929 . S
C1577 C1576 1.377 . S
C1577 C1578 1.386 . S
C1578 H1533 0.931 . S
C1578 C1577 1.386 . S
C1578 C1579 1.363 . S
C1579 C1578 1.363 . S
C1579 C1580 1.385 . S
C1580 H1534 0.930 . S
C1580 C1579 1.385 . S
C1580 C1581 1.396 . S
C1581 H1535 0.929 . S
C1581 C1576 1.361 . S
C1581 C1580 1.396 . S
C1582 O1536 1.300 . S
C1582 O1537 1.209 . S
C1582 C1555 1.486 . S
C1583 O1538 1.199 . S
C1583 O1539 1.297 . S
C1583 C1567 1.476 . S
C1584 C1585 1.369 . S
C1584 C1586 1.310 1_455 S
C1584 H1609 0.953 . S
C1585 C1584 1.369 . S
C1585 C1601 1.347 . S
C1586 C1584 1.310 1_655 S
C1586 C1605 1.429 . S
C1586 H1610 0.950 . S
C1587 C1604 1.574 . S
C1587 C1606 1.368 . S
C1587 H1611 0.949 . S
H1588 C1592 0.949 . S
C1589 C1590 1.349 . S
C1589 C1591 1.327 . S
C1589 H1612 0.950 . S
C1590 C1589 1.349 . S
C1590 C1602 1.349 . S
C1591 C1589 1.327 . S
C1591 C1607 1.429 . S
C1591 H1613 0.950 . S
C1592 H1588 0.949 . S
C1592 C1600 1.574 . S
C1592 C1608 1.368 . S
H1593 C1601 0.995 . S
H1594 C1599 0.947 . S
H1595 C1600 0.949 . S
H1596 C1602 0.950 . S
H1597 C1603 0.950 . S
H1598 C1604 0.949 . S
C1599 H1594 0.947 . S
C1599 C1601 1.260 1_655 S
C1599 C1605 1.472 . S
C1600 C1592 1.574 . S
C1600 H1595 0.949 . S
C1600 C1606 1.368 . S
C1601 C1585 1.347 . S
C1601 H1593 0.995 . S
C1601 C1599 1.260 1_455 S
C1602 C1590 1.349 . S
C1602 H1596 0.950 . S
C1602 C1603 1.327 . S
C1603 H1597 0.950 . S
C1603 C1602 1.327 . S
C1603 C1607 1.429 . S
C1604 C1587 1.574 . S
C1604 H1598 0.949 . S
C1604 C1608 1.368 . S
C1605 C1586 1.429 . S
C1605 C1599 1.472 . S
C1605 C1606 1.523 . S
C1606 C1587 1.368 . S
C1606 C1600 1.368 . S
C1606 C1605 1.523 . S
C1607 C1591 1.429 . S
C1607 C1603 1.429 . S
C1607 C1608 1.523 . S
C1608 C1592 1.368 . S
C1608 C1604 1.368 . S
C1608 C1607 1.523 . S
H1609 C1584 0.953 . S
H1610 C1586 0.950 . S
H1611 C1587 0.949 . S
H1612 C1589 0.950 . S
H1613 C1591 0.950 . S
C1614 C1615 1.349 . S
C1614 C1616 1.327 . S
C1614 H1639 0.950 . S
C1615 C1614 1.349 . S
C1615 C1631 1.349 . S
C1616 C1614 1.327 . S
C1616 C1635 1.429 . S
C1616 H1640 0.950 . S
C1617 C1634 1.574 . S
C1617 C1636 1.368 . S
C1617 H1641 0.949 . S
H1618 C1622 0.949 . S
C1619 C1620 1.349 . S
C1619 C1621 1.327 . S
C1619 H1642 0.950 . S
C1620 C1619 1.349 . S
C1620 C1632 1.349 . S
C1621 C1619 1.327 . S
C1621 C1637 1.429 . S
C1621 H1643 0.950 . S
C1622 H1618 0.949 . S
C1622 C1630 1.574 . S
C1622 C1638 1.368 . S
H1623 C1631 0.950 . S
H1624 C1629 0.950 . S
H1625 C1630 0.949 . S
H1626 C1632 0.950 . S
H1627 C1633 0.950 . S
H1628 C1634 0.949 . S
C1629 H1624 0.950 . S
C1629 C1631 1.327 . S
C1629 C1635 1.429 . S
C1630 C1622 1.574 . S
C1630 H1625 0.949 . S
C1630 C1636 1.368 . S
C1631 C1615 1.349 . S
C1631 H1623 0.950 . S
C1631 C1629 1.327 . S
C1632 C1620 1.349 . S
C1632 H1626 0.950 . S
C1632 C1633 1.327 . S
C1633 H1627 0.950 . S
C1633 C1632 1.327 . S
C1633 C1637 1.429 . S
C1634 C1617 1.574 . S
C1634 H1628 0.949 . S
C1634 C1638 1.368 . S
C1635 C1616 1.429 . S
C1635 C1629 1.429 . S
C1635 C1636 1.523 . S
C1636 C1617 1.368 . S
C1636 C1630 1.368 . S
C1636 C1635 1.523 . S
C1637 C1621 1.429 . S
C1637 C1633 1.429 . S
C1637 C1638 1.523 . S
C1638 C1622 1.368 . S
C1638 C1634 1.368 . S
C1638 C1637 1.523 . S
H1639 C1614 0.950 . S
H1640 C1616 0.950 . S
H1641 C1617 0.949 . S
H1642 C1619 0.950 . S
H1643 C1621 0.950 . S
C1644 C1645 1.349 1_565 S
C1644 C1646 1.327 . S
C1644 H1669 0.950 . S
C1645 C1644 1.349 1_545 S
C1645 C1661 1.349 . S
C1646 C1644 1.327 . S
C1646 C1665 1.429 1_565 S
C1646 H1670 0.950 . S
C1647 C1664 1.574 . S
C1647 C1666 1.368 . S
C1647 H1671 0.949 . S
H1648 C1652 1.013 . S
C1649 C1650 1.349 . S
C1649 C1651 1.327 . S
C1649 H1672 0.950 . S
C1650 C1649 1.349 . S
C1650 C1662 1.349 . S
C1651 C1649 1.327 . S
C1651 C1667 1.429 . S
C1651 H1673 0.950 . S
C1652 H1648 1.013 . S
C1652 C1660 1.552 . S
C1652 C1668 1.322 1_565 S
H1653 C1661 0.950 . S
H1654 C1659 0.950 . S
H1655 C1660 0.949 . S
H1656 C1662 0.950 1_565 S
H1657 C1663 0.911 1_565 S
H1658 C1664 0.949 . S
C1659 H1654 0.950 . S
C1659 C1661 1.327 . S
C1659 C1665 1.429 . S
C1660 C1652 1.552 . S
C1660 H1655 0.949 . S
C1660 C1666 1.368 1_565 S
C1661 C1645 1.349 . S
C1661 H1653 0.950 . S
C1661 C1659 1.327 . S
C1662 C1650 1.349 . S
C1662 H1656 0.950 1_545 S
C1662 C1663 1.309 . S
C1663 H1657 0.911 1_545 S
C1663 C1662 1.309 . S
C1663 C1667 1.487 . S
C1664 C1647 1.574 . S
C1664 H1658 0.949 . S
C1664 C1668 1.368 . S
C1665 C1646 1.429 1_545 S
C1665 C1659 1.429 . S
C1665 C1666 1.523 . S
C1666 C1647 1.368 . S
C1666 C1660 1.368 1_545 S
C1666 C1665 1.523 . S
C1667 C1651 1.429 . S
C1667 C1663 1.487 . S
C1667 C1668 1.523 . S
C1668 C1652 1.322 1_545 S
C1668 C1664 1.368 . S
C1668 C1667 1.523 . S
H1669 C1644 0.950 . S
H1670 C1646 0.950 . S
H1671 C1647 0.949 . S
H1672 C1649 0.950 . S
H1673 C1651 0.950 . S
C1674 C1675 1.349 1_545 S
C1674 C1676 1.327 . S
C1674 H1699 0.950 . S
C1675 C1674 1.349 1_565 S
C1675 C1691 1.349 . S
C1676 C1674 1.327 . S
C1676 C1695 1.429 1_545 S
C1676 H1700 0.950 . S
C1677 C1694 1.574 . S
C1677 C1696 1.368 . S
C1677 H1701 0.949 . S
H1678 C1682 0.949 . S
C1679 C1680 1.349 . S
C1679 C1681 1.327 . S
C1679 H1702 0.950 . S
C1680 C1679 1.349 . S
C1680 C1692 1.349 1_565 S
C1681 C1679 1.327 . S
C1681 C1697 1.429 . S
C1681 H1703 0.950 . S
C1682 H1678 0.949 . S
C1682 C1690 1.574 . S
C1682 C1698 1.368 1_545 S
H1683 C1691 0.950 . S
H1684 C1689 0.950 . S
H1685 C1690 0.949 . S
H1686 C1692 0.950 . S
H1687 C1693 0.950 . S
H1688 C1694 0.949 . S
C1689 H1684 0.950 . S
C1689 C1691 1.327 . S
C1689 C1695 1.429 . S
C1690 C1682 1.574 . S
C1690 H1685 0.949 . S
C1690 C1696 1.368 1_545 S
C1691 C1675 1.349 . S
C1691 H1683 0.950 . S
C1691 C1689 1.327 . S
C1692 C1680 1.349 1_545 S
C1692 H1686 0.950 . S
C1692 C1693 1.327 . S
C1693 H1687 0.950 . S
C1693 C1692 1.327 . S
C1693 C1697 1.429 1_545 S
C1694 C1677 1.574 . S
C1694 H1688 0.949 . S
C1694 C1698 1.368 . S
C1695 C1676 1.429 1_565 S
C1695 C1689 1.429 . S
C1695 C1696 1.523 . S
C1696 C1677 1.368 . S
C1696 C1690 1.368 1_565 S
C1696 C1695 1.523 . S
C1697 C1681 1.429 . S
C1697 C1693 1.429 1_565 S
C1697 C1698 1.523 . S
C1698 C1682 1.368 1_565 S
C1698 C1694 1.368 . S
C1698 C1697 1.523 . S
H1699 C1674 0.950 . S
H1700 C1676 0.950 . S
H1701 C1677 0.949 . S
H1702 C1679 0.950 . S
H1703 C1681 0.950 . S
C1704 C1705 1.349 . S
C1704 C1706 1.327 . S
C1704 H1729 0.950 . S
C1705 C1704 1.349 . S
C1705 C1721 1.312 1_455 S
C1706 C1704 1.327 . S
C1706 C1725 1.429 . S
C1706 H1730 0.950 . S
C1707 C1724 1.574 . S
C1707 C1726 1.368 1_655 S
C1707 H1731 0.949 . S
H1708 C1712 0.949 . S
C1709 C1710 1.346 1_655 S
C1709 C1711 1.339 . S
C1709 H1732 0.956 . S
C1710 C1709 1.346 1_455 S
C1710 C1722 1.349 . S
C1711 C1709 1.339 . S
C1711 C1727 1.401 1_655 S
C1711 H1733 0.965 . S
C1712 H1708 0.949 . S
C1712 C1720 1.574 . S
C1712 C1728 1.368 . S
H1713 C1721 0.969 . S
H1714 C1719 1.003 . S
H1715 C1720 0.949 . S
H1716 C1722 0.950 . S
H1717 C1723 0.950 . S
H1718 C1724 0.949 . S
C1719 H1714 1.003 . S
C1719 C1721 1.320 . S
C1719 C1725 1.409 1_655 S
C1720 C1712 1.574 . S
C1720 H1715 0.949 . S
C1720 C1726 1.368 . S
C1721 C1705 1.312 1_655 S
C1721 H1713 0.969 . S
C1721 C1719 1.320 . S
C1722 C1710 1.349 . S
C1722 H1716 0.950 . S
C1722 C1723 1.327 . S
C1723 H1717 0.950 . S
C1723 C1722 1.327 . S
C1723 C1727 1.429 . S
C1724 C1707 1.574 . S
C1724 H1718 0.949 . S
C1724 C1728 1.368 1_655 S
C1725 C1706 1.429 . S
C1725 C1719 1.409 1_455 S
C1725 C1726 1.523 . S
C1726 C1707 1.368 1_455 S
C1726 C1720 1.368 . S
C1726 C1725 1.523 . S
C1727 C1711 1.401 1_455 S
C1727 C1723 1.429 . S
C1727 C1728 1.523 . S
C1728 C1712 1.368 . S
C1728 C1724 1.368 1_455 S
C1728 C1727 1.523 . S
H1729 C1704 0.950 . S
H1730 C1706 0.950 . S
H1731 C1707 0.949 . S
H1732 C1709 0.956 . S
H1733 C1711 0.965 . S
C1734 C1735 1.349 . S
C1734 C1736 1.327 . S
C1734 H1759 0.950 . S
C1735 C1734 1.349 . S
C1735 C1751 1.349 . S
C1736 C1734 1.327 . S
C1736 C1755 1.429 1_554 S
C1736 H1760 0.950 . S
C1737 C1754 1.574 . S
C1737 C1756 1.368 . S
C1737 H1761 0.949 . S
H1738 C1742 0.949 . S
C1739 C1740 1.349 . S
C1739 C1741 1.327 . S
C1739 H1762 0.950 . S
C1740 C1739 1.349 . S
C1740 C1752 1.349 . S
C1741 C1739 1.327 . S
C1741 C1757 1.429 . S
C1741 H1763 0.950 . S
C1742 H1738 0.949 . S
C1742 C1750 1.574 . S
C1742 C1758 1.368 . S
H1743 C1751 0.950 . S
H1744 C1749 0.950 . S
H1745 C1750 0.949 . S
H1746 C1752 0.950 . S
H1747 C1753 0.950 . S
H1748 C1754 0.949 . S
C1749 H1744 0.950 . S
C1749 C1751 1.327 1_556 S
C1749 C1755 1.429 . S
C1750 C1742 1.574 . S
C1750 H1745 0.949 . S
C1750 C1756 1.368 . S
C1751 C1735 1.349 . S
C1751 H1743 0.950 . S
C1751 C1749 1.327 1_554 S
C1752 C1740 1.349 . S
C1752 H1746 0.950 . S
C1752 C1753 1.327 . S
C1753 H1747 0.950 . S
C1753 C1752 1.327 . S
C1753 C1757 1.429 . S
C1754 C1737 1.574 . S
C1754 H1748 0.949 . S
C1754 C1758 1.368 . S
C1755 C1736 1.429 1_556 S
C1755 C1749 1.429 . S
C1755 C1756 1.523 . S
C1756 C1737 1.368 . S
C1756 C1750 1.368 . S
C1756 C1755 1.523 . S
C1757 C1741 1.429 . S
C1757 C1753 1.429 . S
C1757 C1758 1.523 . S
C1758 C1742 1.368 . S
C1758 C1754 1.368 . S
C1758 C1757 1.523 . S
H1759 C1734 0.950 . S
H1760 C1736 0.950 . S
H1761 C1737 0.949 . S
H1762 C1739 0.950 . S
H1763 C1741 0.950 . S
C1764 C1765 1.349 1_556 S
C1764 C1766 1.327 . S
C1764 H1789 0.950 . S
C1765 C1764 1.349 1_554 S
C1765 C1781 1.349 1_455 S
C1766 C1764 1.327 . S
C1766 C1785 1.429 . S
C1766 H1790 0.950 . S
C1767 C1784 1.574 . S
C1767 C1786 1.368 1_655 S
C1767 H1791 0.949 . S
H1768 C1772 0.949 . S
C1769 C1770 1.335 1_655 S
C1769 C1771 1.327 . S
C1769 H1792 0.950 . S
C1770 C1769 1.335 1_455 S
C1770 C1782 1.349 . S
C1771 C1769 1.327 . S
C1771 C1787 1.429 1_655 S
C1771 H1793 0.950 . S
C1772 H1768 0.949 . S
C1772 C1780 1.574 . S
C1772 C1788 1.368 . S
H1773 C1781 0.950 . S
H1774 C1779 0.950 . S
H1775 C1780 0.949 . S
H1776 C1782 0.950 . S
H1777 C1783 0.950 . S
H1778 C1784 0.949 . S
C1779 H1774 0.950 . S
C1779 C1781 1.327 1_556 S
C1779 C1785 1.429 1_655 S
C1780 C1772 1.574 . S
C1780 H1775 0.949 . S
C1780 C1786 1.368 . S
C1781 C1765 1.349 1_655 S
C1781 H1773 0.950 . S
C1781 C1779 1.327 1_554 S
C1782 C1770 1.349 . S
C1782 H1776 0.950 . S
C1782 C1783 1.327 . S
C1783 H1777 0.950 . S
C1783 C1782 1.327 . S
C1783 C1787 1.429 . S
C1784 C1767 1.574 . S
C1784 H1778 0.949 . S
C1784 C1788 1.368 1_655 S
C1785 C1766 1.429 . S
C1785 C1779 1.429 1_455 S
C1785 C1786 1.523 . S
C1786 C1767 1.368 1_455 S
C1786 C1780 1.368 . S
C1786 C1785 1.523 . S
C1787 C1771 1.429 1_455 S
C1787 C1783 1.429 . S
C1787 C1788 1.523 . S
C1788 C1772 1.368 . S
C1788 C1784 1.368 1_455 S
C1788 C1787 1.523 . S
H1789 C1764 0.950 . S
H1790 C1766 0.950 . S
H1791 C1767 0.949 . S
H1792 C1769 0.950 . S
H1793 C1771 0.950 . S
C1794 C1795 1.349 . S
C1794 C1796 1.327 . S
C1794 H1819 0.950 . S
C1795 C1794 1.349 . S
C1795 C1811 1.349 . S
C1796 C1794 1.327 . S
C1796 C1815 1.429 . S
C1796 H1820 0.950 . S
C1797 C1814 1.574 . S
C1797 C1816 1.368 . S
C1797 H1821 0.949 . S
H1798 C1802 0.949 . S
C1799 C1800 1.349 . S
C1799 C1801 1.327 . S
C1799 H1822 0.950 . S
C1800 C1799 1.349 . S
C1800 C1812 1.349 . S
C1801 C1799 1.327 . S
C1801 C1817 1.429 . S
C1801 H1823 0.950 . S
C1802 H1798 0.949 . S
C1802 C1810 1.574 . S
C1802 C1818 1.368 . S
H1803 C1811 0.950 . S
H1804 C1809 0.950 . S
H1805 C1810 0.949 . S
H1806 C1812 0.950 . S
H1807 C1813 0.950 . S
H1808 C1814 0.949 . S
C1809 H1804 0.950 . S
C1809 C1811 1.327 . S
C1809 C1815 1.429 . S
C1810 C1802 1.574 . S
C1810 H1805 0.949 . S
C1810 C1816 1.368 . S
C1811 C1795 1.349 . S
C1811 H1803 0.950 . S
C1811 C1809 1.327 . S
C1812 C1800 1.349 . S
C1812 H1806 0.950 . S
C1812 C1813 1.327 . S
C1813 H1807 0.950 . S
C1813 C1812 1.327 . S
C1813 C1817 1.429 . S
C1814 C1797 1.574 . S
C1814 H1808 0.949 . S
C1814 C1818 1.368 . S
C1815 C1796 1.429 . S
C1815 C1809 1.429 . S
C1815 C1816 1.523 . S
C1816 C1797 1.368 . S
C1816 C1810 1.368 . S
C1816 C1815 1.523 . S
C1817 C1801 1.429 . S
C1817 C1813 1.429 . S
C1817 C1818 1.523 . S
C1818 C1802 1.368 . S
C1818 C1814 1.368 . S
C1818 C1817 1.523 . S
H1819 C1794 0.950 . S
H1820 C1796 0.950 . S
H1821 C1797 0.949 . S
H1822 C1799 0.950 . S
H1823 C1801 0.950 . S
C1824 C1825 1.349 1_546 S
C1824 C1826 1.327 . S
C1824 H1849 0.950 1_556 S
C1825 C1824 1.349 1_564 S
C1825 C1841 1.349 1_554 S
C1826 C1824 1.327 . S
C1826 C1845 1.429 1_545 S
C1826 H1850 0.950 . S
C1827 C1844 1.574 . S
C1827 C1846 1.368 . S
C1827 H1851 0.949 . S
H1828 C1832 0.949 . S
C1829 C1830 1.293 1_565 S
C1829 C1831 1.327 . S
C1829 H1852 0.950 . S
C1830 C1829 1.293 1_545 S
C1830 C1842 1.380 . S
C1831 C1829 1.327 . S
C1831 C1847 1.456 . S
C1831 H1853 0.950 . S
C1832 H1828 0.949 . S
C1832 C1840 1.574 . S
C1832 C1848 1.368 1_545 S
H1833 C1841 0.950 1_554 S
H1834 C1839 0.950 . S
H1835 C1840 0.949 . S
H1836 C1842 0.950 . S
H1837 C1843 0.950 . S
H1838 C1844 0.949 . S
C1839 H1834 0.950 . S
C1839 C1841 1.327 . S
C1839 C1845 1.429 . S
C1840 C1832 1.574 . S
C1840 H1835 0.949 . S
C1840 C1846 1.368 1_545 S
C1841 C1825 1.349 1_556 S
C1841 H1833 0.950 1_556 S
C1841 C1839 1.327 . S
C1842 C1830 1.380 . S
C1842 H1836 0.950 . S
C1842 C1843 1.327 . S
C1843 H1837 0.950 . S
C1843 C1842 1.327 . S
C1843 C1847 1.375 1_545 S
C1844 C1827 1.574 . S
C1844 H1838 0.949 . S
C1844 C1848 1.368 . S
C1845 C1826 1.429 1_565 S
C1845 C1839 1.429 . S
C1845 C1846 1.523 . S
C1846 C1827 1.368 . S
C1846 C1840 1.368 1_565 S
C1846 C1845 1.523 . S
C1847 C1831 1.456 . S
C1847 C1843 1.375 1_565 S
C1847 C1848 1.549 . S
C1848 C1832 1.368 1_565 S
C1848 C1844 1.368 . S
C1848 C1847 1.549 . S
H1849 C1824 0.950 1_554 S
H1850 C1826 0.950 . S
H1851 C1827 0.949 . S
H1852 C1829 0.950 . S
H1853 C1831 0.950 . S
C1854 C1855 1.349 . S
C1854 C1856 1.327 . S
C1854 H1879 0.950 . S
C1855 C1854 1.349 . S
C1855 C1871 1.349 1_545 S
C1856 C1854 1.327 . S
C1856 C1875 1.429 . S
C1856 H1880 0.950 . S
C1857 C1874 1.574 . S
C1857 C1876 1.368 1_565 S
C1857 H1881 0.949 . S
H1858 C1862 0.949 . S
C1859 C1860 1.409 . S
C1859 C1861 1.327 . S
C1859 H1882 0.950 . S
C1860 C1859 1.409 . S
C1860 C1872 1.304 1_565 S
C1861 C1859 1.327 . S
C1861 C1877 1.429 1_565 S
C1861 H1883 0.950 . S
C1862 H1858 0.949 . S
C1862 C1870 1.574 . S
C1862 C1878 1.368 . S
H1863 C1871 0.950 . S
H1864 C1869 0.950 . S
H1865 C1870 0.949 . S
H1866 C1872 0.950 . S
H1867 C1873 0.950 . S
H1868 C1874 0.949 . S
C1869 H1864 0.950 . S
C1869 C1871 1.327 . S
C1869 C1875 1.429 1_565 S
C1870 C1862 1.574 . S
C1870 H1865 0.949 . S
C1870 C1876 1.368 . S
C1871 C1855 1.349 1_565 S
C1871 H1863 0.950 . S
C1871 C1869 1.327 . S
C1872 C1860 1.304 1_545 S
C1872 H1866 0.950 . S
C1872 C1873 1.327 . S
C1873 H1867 0.950 . S
C1873 C1872 1.327 . S
C1873 C1877 1.429 . S
C1874 C1857 1.574 . S
C1874 H1868 0.949 . S
C1874 C1878 1.368 1_565 S
C1875 C1856 1.429 . S
C1875 C1869 1.429 1_545 S
C1875 C1876 1.523 . S
C1876 C1857 1.368 1_545 S
C1876 C1870 1.368 . S
C1876 C1875 1.523 . S
C1877 C1861 1.429 1_545 S
C1877 C1873 1.429 . S
C1877 C1878 1.523 . S
C1878 C1862 1.368 . S
C1878 C1874 1.368 1_545 S
C1878 C1877 1.523 . S
H1879 C1854 0.950 . S
H1880 C1856 0.950 . S
H1881 C1857 0.949 . S
H1882 C1859 0.950 . S
H1883 C1861 0.950 . S
C1884 C1885 1.349 . S
C1884 C1886 1.327 . S
C1884 H1909 0.950 . S
C1885 C1884 1.349 . S
C1885 C1901 1.349 1_655 S
C1886 C1884 1.327 . S
C1886 C1905 1.429 . S
C1886 H1910 0.950 . S
C1887 C1904 1.574 . S
C1887 C1906 1.368 1_455 S
C1887 H1911 0.949 . S
H1888 C1892 0.949 . S
C1889 C1890 1.348 1_455 S
C1889 C1891 1.327 . S
C1889 H1912 0.950 . S
C1890 C1889 1.348 1_655 S
C1890 C1902 1.354 . S
C1891 C1889 1.327 . S
C1891 C1907 1.397 1_455 S
C1891 H1913 0.950 . S
C1892 H1888 0.949 . S
C1892 C1900 1.574 . S
C1892 C1908 1.368 . S
H1893 C1901 0.950 . S
H1894 C1899 0.950 . S
H1895 C1900 0.949 . S
H1896 C1902 0.950 . S
H1897 C1903 0.950 . S
H1898 C1904 0.949 . S
C1899 H1894 0.950 . S
C1899 C1901 1.327 . S
C1899 C1905 1.429 1_455 S
C1900 C1892 1.574 . S
C1900 H1895 0.949 . S
C1900 C1906 1.368 . S
C1901 C1885 1.349 1_455 S
C1901 H1893 0.950 . S
C1901 C1899 1.327 . S
C1902 C1890 1.354 . S
C1902 H1896 0.950 . S
C1902 C1903 1.327 . S
C1903 H1897 0.950 . S
C1903 C1902 1.327 . S
C1903 C1907 1.436 . S
C1904 C1887 1.574 . S
C1904 H1898 0.949 . S
C1904 C1908 1.368 1_455 S
C1905 C1886 1.429 . S
C1905 C1899 1.429 1_655 S
C1905 C1906 1.523 . S
C1906 C1887 1.368 1_655 S
C1906 C1900 1.368 . S
C1906 C1905 1.523 . S
C1907 C1891 1.397 1_655 S
C1907 C1903 1.436 . S
C1907 C1908 1.549 . S
C1908 C1892 1.368 . S
C1908 C1904 1.368 1_655 S
C1908 C1907 1.549 . S
H1909 C1884 0.950 . S
H1910 C1886 0.950 . S
H1911 C1887 0.949 . S
H1912 C1889 0.950 . S
H1913 C1891 0.950 . S
C1914 C1915 1.349 . S
C1914 C1916 1.327 . S
C1914 H1939 0.950 . S
C1915 C1914 1.349 . S
C1915 C1931 1.349 . S
C1916 C1914 1.327 . S
C1916 C1935 1.429 . S
C1916 H1940 0.950 . S
C1917 C1934 1.574 . S
C1917 C1936 1.368 . S
C1917 H1941 0.949 . S
H1918 C1922 0.949 . S
C1919 C1920 1.349 . S
C1919 C1921 1.327 . S
C1919 H1942 0.950 . S
C1920 C1919 1.349 . S
C1920 C1932 1.349 . S
C1921 C1919 1.327 . S
C1921 C1937 1.429 . S
C1921 H1943 0.950 . S
C1922 H1918 0.949 . S
C1922 C1930 1.574 . S
C1922 C1938 1.368 . S
H1923 C1931 0.950 . S
H1924 C1929 0.950 . S
H1925 C1930 0.949 . S
H1926 C1932 0.950 . S
H1927 C1933 0.950 . S
H1928 C1934 0.949 . S
C1929 H1924 0.950 . S
C1929 C1931 1.327 . S
C1929 C1935 1.429 . S
C1930 C1922 1.574 . S
C1930 H1925 0.949 . S
C1930 C1936 1.368 . S
C1931 C1915 1.349 . S
C1931 H1923 0.950 . S
C1931 C1929 1.327 . S
C1932 C1920 1.349 . S
C1932 H1926 0.950 . S
C1932 C1933 1.327 . S
C1933 H1927 0.950 . S
C1933 C1932 1.327 . S
C1933 C1937 1.429 . S
C1934 C1917 1.574 . S
C1934 H1928 0.949 . S
C1934 C1938 1.368 . S
C1935 C1916 1.429 . S
C1935 C1929 1.429 . S
C1935 C1936 1.523 . S
C1936 C1917 1.368 . S
C1936 C1930 1.368 . S
C1936 C1935 1.523 . S
C1937 C1921 1.429 . S
C1937 C1933 1.429 . S
C1937 C1938 1.523 . S
C1938 C1922 1.368 . S
C1938 C1934 1.368 . S
C1938 C1937 1.523 . S
H1939 C1914 0.950 . S
H1940 C1916 0.950 . S
H1941 C1917 0.949 . S
H1942 C1919 0.950 . S
H1943 C1921 0.950 . S
C1944 C1945 1.349 . S
C1944 C1946 1.327 . S
C1944 H1969 0.950 . S
C1945 C1944 1.349 . S
C1945 C1961 1.349 . S
C1946 C1944 1.327 . S
C1946 C1965 1.429 . S
C1946 H1970 0.950 . S
C1947 C1964 1.574 . S
C1947 C1966 1.368 . S
C1947 H1971 0.949 . S
H1948 C1952 0.949 . S
C1949 C1950 1.349 . S
C1949 C1951 1.327 . S
C1949 H1972 0.950 . S
C1950 C1949 1.349 . S
C1950 C1962 1.349 . S
C1951 C1949 1.327 . S
C1951 C1967 1.429 . S
C1951 H1973 0.950 . S
C1952 H1948 0.949 . S
C1952 C1960 1.574 . S
C1952 C1968 1.368 . S
H1953 C1961 0.950 . S
H1954 C1959 0.950 . S
H1955 C1960 0.949 . S
H1956 C1962 0.950 . S
H1957 C1963 0.950 . S
H1958 C1964 0.949 . S
C1959 H1954 0.950 . S
C1959 C1961 1.327 . S
C1959 C1965 1.429 . S
C1960 C1952 1.574 . S
C1960 H1955 0.949 . S
C1960 C1966 1.368 . S
C1961 C1945 1.349 . S
C1961 H1953 0.950 . S
C1961 C1959 1.327 . S
C1962 C1950 1.349 . S
C1962 H1956 0.950 . S
C1962 C1963 1.327 . S
C1963 H1957 0.950 . S
C1963 C1962 1.327 . S
C1963 C1967 1.429 . S
C1964 C1947 1.574 . S
C1964 H1958 0.949 . S
C1964 C1968 1.368 . S
C1965 C1946 1.429 . S
C1965 C1959 1.429 . S
C1965 C1966 1.523 . S
C1966 C1947 1.368 . S
C1966 C1960 1.368 . S
C1966 C1965 1.523 . S
C1967 C1951 1.429 . S
C1967 C1963 1.429 . S
C1967 C1968 1.523 . S
C1968 C1952 1.368 . S
C1968 C1964 1.368 . S
C1968 C1967 1.523 . S
H1969 C1944 0.950 . S
H1970 C1946 0.950 . S
H1971 C1947 0.949 . S
H1972 C1949 0.950 . S
H1973 C1951 0.950 . S
C1974 C1975 1.349 . S
C1974 C1976 1.327 . S
C1974 H1999 0.950 . S
C1975 C1974 1.349 . S
C1975 C1991 1.349 . S
C1976 C1974 1.327 . S
C1976 C1995 1.429 . S
C1976 H2000 0.950 . S
C1977 C1994 1.574 . S
C1977 C1996 1.368 . S
C1977 H2001 0.949 . S
H1978 C1982 0.949 . S
C1979 C1980 1.349 . S
C1979 C1981 1.327 . S
C1979 H2002 0.950 . S
C1980 C1979 1.349 . S
C1980 C1992 1.349 . S
C1981 C1979 1.327 . S
C1981 C1997 1.429 . S
C1981 H2003 0.950 . S
C1982 H1978 0.949 . S
C1982 C1990 1.574 . S
C1982 C1998 1.368 . S
H1983 C1991 0.950 . S
H1984 C1989 0.950 . S
H1985 C1990 0.949 . S
H1986 C1992 0.950 . S
H1987 C1993 0.950 . S
H1988 C1994 0.949 . S
C1989 H1984 0.950 . S
C1989 C1991 1.327 . S
C1989 C1995 1.429 . S
C1990 C1982 1.574 . S
C1990 H1985 0.949 . S
C1990 C1996 1.368 . S
C1991 C1975 1.349 . S
C1991 H1983 0.950 . S
C1991 C1989 1.327 . S
C1992 C1980 1.349 . S
C1992 H1986 0.950 . S
C1992 C1993 1.327 . S
C1993 H1987 0.950 . S
C1993 C1992 1.327 . S
C1993 C1997 1.429 . S
C1994 C1977 1.574 . S
C1994 H1988 0.949 . S
C1994 C1998 1.368 . S
C1995 C1976 1.429 . S
C1995 C1989 1.429 . S
C1995 C1996 1.523 . S
C1996 C1977 1.368 . S
C1996 C1990 1.368 . S
C1996 C1995 1.523 . S
C1997 C1981 1.429 . S
C1997 C1993 1.429 . S
C1997 C1998 1.523 . S
C1998 C1982 1.368 . S
C1998 C1994 1.368 . S
C1998 C1997 1.523 . S
H1999 C1974 0.950 . S
H2000 C1976 0.950 . S
H2001 C1977 0.949 . S
H2002 C1979 0.950 . S
H2003 C1981 0.950 . S
C2004 C2005 1.349 . S
C2004 C2006 1.327 . S
C2004 H2029 0.950 . S
C2005 C2004 1.349 . S
C2005 C2021 1.349 . S
C2006 C2004 1.327 . S
C2006 C2025 1.429 . S
C2006 H2030 0.950 . S
C2007 C2024 1.574 . S
C2007 C2026 1.368 . S
C2007 H2031 0.949 . S
H2008 C2012 0.949 . S
C2009 C2010 1.349 . S
C2009 C2011 1.327 . S
C2009 H2032 0.950 . S
C2010 C2009 1.349 . S
C2010 C2022 1.349 . S
C2011 C2009 1.327 . S
C2011 C2027 1.429 . S
C2011 H2033 0.950 . S
C2012 H2008 0.949 . S
C2012 C2020 1.574 . S
C2012 C2028 1.368 . S
H2013 C2021 0.950 . S
H2014 C2019 0.950 . S
H2015 C2020 0.949 . S
H2016 C2022 0.950 . S
H2017 C2023 0.950 . S
H2018 C2024 0.949 . S
C2019 H2014 0.950 . S
C2019 C2021 1.327 . S
C2019 C2025 1.429 . S
C2020 C2012 1.574 . S
C2020 H2015 0.949 . S
C2020 C2026 1.368 . S
C2021 C2005 1.349 . S
C2021 H2013 0.950 . S
C2021 C2019 1.327 . S
C2022 C2010 1.349 . S
C2022 H2016 0.950 . S
C2022 C2023 1.327 . S
C2023 H2017 0.950 . S
C2023 C2022 1.327 . S
C2023 C2027 1.429 . S
C2024 C2007 1.574 . S
C2024 H2018 0.949 . S
C2024 C2028 1.368 . S
C2025 C2006 1.429 . S
C2025 C2019 1.429 . S
C2025 C2026 1.523 . S
C2026 C2007 1.368 . S
C2026 C2020 1.368 . S
C2026 C2025 1.523 . S
C2027 C2011 1.429 . S
C2027 C2023 1.429 . S
C2027 C2028 1.523 . S
C2028 C2012 1.368 . S
C2028 C2024 1.368 . S
C2028 C2027 1.523 . S
H2029 C2004 0.950 . S
H2030 C2006 0.950 . S
H2031 C2007 0.949 . S
H2032 C2009 0.950 . S
H2033 C2011 0.950 . S
C2034 C2035 1.349 . S
C2034 C2036 1.327 . S
C2034 H2059 0.950 . S
C2035 C2034 1.349 . S
C2035 C2051 1.349 . S
C2036 C2034 1.327 . S
C2036 C2055 1.429 . S
C2036 H2060 0.950 . S
C2037 C2054 1.574 . S
C2037 C2056 1.368 . S
C2037 H2061 0.949 . S
H2038 C2042 0.949 . S
C2039 C2040 1.349 . S
C2039 C2041 1.327 . S
C2039 H2062 0.950 . S
C2040 C2039 1.349 . S
C2040 C2052 1.349 . S
C2041 C2039 1.327 . S
C2041 C2057 1.429 . S
C2041 H2063 0.950 . S
C2042 H2038 0.949 . S
C2042 C2050 1.574 . S
C2042 C2058 1.368 . S
H2043 C2051 0.950 . S
H2044 C2049 0.950 . S
H2045 C2050 0.949 . S
H2046 C2052 0.950 . S
H2047 C2053 0.950 . S
H2048 C2054 0.949 . S
C2049 H2044 0.950 . S
C2049 C2051 1.327 . S
C2049 C2055 1.429 . S
C2050 C2042 1.574 . S
C2050 H2045 0.949 . S
C2050 C2056 1.368 . S
C2051 C2035 1.349 . S
C2051 H2043 0.950 . S
C2051 C2049 1.327 . S
C2052 C2040 1.349 . S
C2052 H2046 0.950 . S
C2052 C2053 1.327 . S
C2053 H2047 0.950 . S
C2053 C2052 1.327 . S
C2053 C2057 1.429 . S
C2054 C2037 1.574 . S
C2054 H2048 0.949 . S
C2054 C2058 1.368 . S
C2055 C2036 1.429 . S
C2055 C2049 1.429 . S
C2055 C2056 1.523 . S
C2056 C2037 1.368 . S
C2056 C2050 1.368 . S
C2056 C2055 1.523 . S
C2057 C2041 1.429 . S
C2057 C2053 1.429 . S
C2057 C2058 1.523 . S
C2058 C2042 1.368 . S
C2058 C2054 1.368 . S
C2058 C2057 1.523 . S
H2059 C2034 0.950 . S
H2060 C2036 0.950 . S
H2061 C2037 0.949 . S
H2062 C2039 0.950 . S
H2063 C2041 0.950 . S
C2064 C2065 1.349 . S
C2064 C2066 1.327 . S
C2064 H2089 0.950 . S
C2065 C2064 1.349 . S
C2065 C2081 1.349 . S
C2066 C2064 1.327 . S
C2066 C2085 1.429 . S
C2066 H2090 0.950 . S
C2067 C2084 1.574 . S
C2067 C2086 1.368 . S
C2067 H2091 0.949 . S
H2068 C2072 0.949 . S
C2069 C2070 1.349 . S
C2069 C2071 1.327 . S
C2069 H2092 0.950 . S
C2070 C2069 1.349 . S
C2070 C2082 1.349 . S
C2071 C2069 1.327 . S
C2071 C2087 1.429 . S
C2071 H2093 0.950 . S
C2072 H2068 0.949 . S
C2072 C2080 1.574 . S
C2072 C2088 1.368 . S
H2073 C2081 0.950 . S
H2074 C2079 0.950 . S
H2075 C2080 0.949 . S
H2076 C2082 0.950 . S
H2077 C2083 0.950 . S
H2078 C2084 0.949 . S
C2079 H2074 0.950 . S
C2079 C2081 1.327 . S
C2079 C2085 1.429 . S
C2080 C2072 1.574 . S
C2080 H2075 0.949 . S
C2080 C2086 1.368 . S
C2081 C2065 1.349 . S
C2081 H2073 0.950 . S
C2081 C2079 1.327 . S
C2082 C2070 1.349 . S
C2082 H2076 0.950 . S
C2082 C2083 1.327 . S
C2083 H2077 0.950 . S
C2083 C2082 1.327 . S
C2083 C2087 1.429 . S
C2084 C2067 1.574 . S
C2084 H2078 0.949 . S
C2084 C2088 1.368 . S
C2085 C2066 1.429 . S
C2085 C2079 1.429 . S
C2085 C2086 1.523 . S
C2086 C2067 1.368 . S
C2086 C2080 1.368 . S
C2086 C2085 1.523 . S
C2087 C2071 1.429 . S
C2087 C2083 1.429 . S
C2087 C2088 1.523 . S
C2088 C2072 1.368 . S
C2088 C2084 1.368 . S
C2088 C2087 1.523 . S
H2089 C2064 0.950 . S
H2090 C2066 0.950 . S
H2091 C2067 0.949 . S
H2092 C2069 0.950 . S
H2093 C2071 0.950 . S
C2094 C2095 1.349 . S
C2094 C2096 1.327 . S
C2094 H2119 0.950 . S
C2095 C2094 1.349 . S
C2095 C2111 1.349 . S
C2096 C2094 1.327 . S
C2096 C2115 1.429 . S
C2096 H2120 0.950 . S
C2097 C2114 1.574 . S
C2097 C2116 1.368 . S
C2097 H2121 0.949 . S
H2098 C2102 0.949 . S
C2099 C2100 1.349 . S
C2099 C2101 1.327 . S
C2099 H2122 0.950 . S
C2100 C2099 1.349 . S
C2100 C2112 1.349 . S
C2101 C2099 1.327 . S
C2101 C2117 1.429 . S
C2101 H2123 0.950 . S
C2102 H2098 0.949 . S
C2102 C2110 1.574 . S
C2102 C2118 1.368 . S
H2103 C2111 0.950 . S
H2104 C2109 0.950 . S
H2105 C2110 0.949 . S
H2106 C2112 0.950 . S
H2107 C2113 0.950 . S
H2108 C2114 0.949 . S
C2109 H2104 0.950 . S
C2109 C2111 1.327 . S
C2109 C2115 1.429 . S
C2110 C2102 1.574 . S
C2110 H2105 0.949 . S
C2110 C2116 1.368 . S
C2111 C2095 1.349 . S
C2111 H2103 0.950 . S
C2111 C2109 1.327 . S
C2112 C2100 1.349 . S
C2112 H2106 0.950 . S
C2112 C2113 1.327 . S
C2113 H2107 0.950 . S
C2113 C2112 1.327 . S
C2113 C2117 1.429 . S
C2114 C2097 1.574 . S
C2114 H2108 0.949 . S
C2114 C2118 1.368 . S
C2115 C2096 1.429 . S
C2115 C2109 1.429 . S
C2115 C2116 1.523 . S
C2116 C2097 1.368 . S
C2116 C2110 1.368 . S
C2116 C2115 1.523 . S
C2117 C2101 1.429 . S
C2117 C2113 1.429 . S
C2117 C2118 1.523 . S
C2118 C2102 1.368 . S
C2118 C2114 1.368 . S
C2118 C2117 1.523 . S
H2119 C2094 0.950 . S
H2120 C2096 0.950 . S
H2121 C2097 0.949 . S
H2122 C2099 0.950 . S
H2123 C2101 0.950 . S
C2124 C2125 1.349 . S
C2124 C2126 1.327 . S
C2124 H2149 0.950 . S
C2125 C2124 1.349 . S
C2125 C2141 1.349 . S
C2126 C2124 1.327 . S
C2126 C2145 1.429 . S
C2126 H2150 0.950 . S
C2127 C2144 1.574 . S
C2127 C2146 1.368 . S
C2127 H2151 0.949 . S
H2128 C2132 0.949 . S
C2129 C2130 1.349 . S
C2129 C2131 1.327 . S
C2129 H2152 0.950 . S
C2130 C2129 1.349 . S
C2130 C2142 1.349 . S
C2131 C2129 1.327 . S
C2131 C2147 1.429 . S
C2131 H2153 0.950 . S
C2132 H2128 0.949 . S
C2132 C2140 1.574 . S
C2132 C2148 1.368 . S
H2133 C2141 0.950 . S
H2134 C2139 0.950 . S
H2135 C2140 0.949 . S
H2136 C2142 0.950 . S
H2137 C2143 0.950 . S
H2138 C2144 0.949 . S
C2139 H2134 0.950 . S
C2139 C2141 1.327 . S
C2139 C2145 1.429 . S
C2140 C2132 1.574 . S
C2140 H2135 0.949 . S
C2140 C2146 1.368 . S
C2141 C2125 1.349 . S
C2141 H2133 0.950 . S
C2141 C2139 1.327 . S
C2142 C2130 1.349 . S
C2142 H2136 0.950 . S
C2142 C2143 1.327 . S
C2143 H2137 0.950 . S
C2143 C2142 1.327 . S
C2143 C2147 1.429 . S
C2144 C2127 1.574 . S
C2144 H2138 0.949 . S
C2144 C2148 1.368 . S
C2145 C2126 1.429 . S
C2145 C2139 1.429 . S
C2145 C2146 1.523 . S
C2146 C2127 1.368 . S
C2146 C2140 1.368 . S
C2146 C2145 1.523 . S
C2147 C2131 1.429 . S
C2147 C2143 1.429 . S
C2147 C2148 1.523 . S
C2148 C2132 1.368 . S
C2148 C2144 1.368 . S
C2148 C2147 1.523 . S
H2149 C2124 0.950 . S
H2150 C2126 0.950 . S
H2151 C2127 0.949 . S
H2152 C2129 0.950 . S
H2153 C2131 0.950 . S
C2154 C2155 1.349 . S
C2154 C2156 1.327 . S
C2154 H2179 0.950 . S
C2155 C2154 1.349 . S
C2155 C2171 1.349 . S
C2156 C2154 1.327 . S
C2156 C2175 1.429 . S
C2156 H2180 0.950 . S
C2157 C2174 1.574 . S
C2157 C2176 1.368 . S
C2157 H2181 0.949 . S
H2158 C2162 0.949 . S
C2159 C2160 1.349 . S
C2159 C2161 1.327 . S
C2159 H2182 0.950 . S
C2160 C2159 1.349 . S
C2160 C2172 1.349 . S
C2161 C2159 1.327 . S
C2161 C2177 1.429 . S
C2161 H2183 0.950 . S
C2162 H2158 0.949 . S
C2162 C2170 1.574 . S
C2162 C2178 1.368 . S
H2163 C2171 0.950 . S
H2164 C2169 0.950 . S
H2165 C2170 0.949 . S
H2166 C2172 0.950 . S
H2167 C2173 0.950 . S
H2168 C2174 0.949 . S
C2169 H2164 0.950 . S
C2169 C2171 1.327 . S
C2169 C2175 1.429 . S
C2170 C2162 1.574 . S
C2170 H2165 0.949 . S
C2170 C2176 1.368 . S
C2171 C2155 1.349 . S
C2171 H2163 0.950 . S
C2171 C2169 1.327 . S
C2172 C2160 1.349 . S
C2172 H2166 0.950 . S
C2172 C2173 1.327 . S
C2173 H2167 0.950 . S
C2173 C2172 1.327 . S
C2173 C2177 1.429 . S
C2174 C2157 1.574 . S
C2174 H2168 0.949 . S
C2174 C2178 1.368 . S
C2175 C2156 1.429 . S
C2175 C2169 1.429 . S
C2175 C2176 1.523 . S
C2176 C2157 1.368 . S
C2176 C2170 1.368 . S
C2176 C2175 1.523 . S
C2177 C2161 1.429 . S
C2177 C2173 1.429 . S
C2177 C2178 1.523 . S
C2178 C2162 1.368 . S
C2178 C2174 1.368 . S
C2178 C2177 1.523 . S
H2179 C2154 0.950 . S
H2180 C2156 0.950 . S
H2181 C2157 0.949 . S
H2182 C2159 0.950 . S
H2183 C2161 0.950 . S
C2184 C2185 1.349 . S
C2184 C2186 1.327 . S
C2184 H2209 0.950 . S
C2185 C2184 1.349 . S
C2185 C2201 1.349 . S
C2186 C2184 1.327 . S
C2186 C2205 1.429 . S
C2186 H2210 0.950 . S
C2187 C2204 1.574 . S
C2187 C2206 1.368 . S
C2187 H2211 0.949 . S
H2188 C2192 0.949 . S
C2189 C2190 1.349 . S
C2189 C2191 1.327 . S
C2189 H2212 0.950 . S
C2190 C2189 1.349 . S
C2190 C2202 1.349 . S
C2191 C2189 1.327 . S
C2191 C2207 1.429 . S
C2191 H2213 0.950 . S
C2192 H2188 0.949 . S
C2192 C2200 1.574 . S
C2192 C2208 1.368 . S
H2193 C2201 0.950 . S
H2194 C2199 0.950 . S
H2195 C2200 0.949 . S
H2196 C2202 0.950 . S
H2197 C2203 0.950 . S
H2198 C2204 0.949 . S
C2199 H2194 0.950 . S
C2199 C2201 1.327 . S
C2199 C2205 1.429 . S
C2200 C2192 1.574 . S
C2200 H2195 0.949 . S
C2200 C2206 1.368 . S
C2201 C2185 1.349 . S
C2201 H2193 0.950 . S
C2201 C2199 1.327 . S
C2202 C2190 1.349 . S
C2202 H2196 0.950 . S
C2202 C2203 1.327 . S
C2203 H2197 0.950 . S
C2203 C2202 1.327 . S
C2203 C2207 1.429 . S
C2204 C2187 1.574 . S
C2204 H2198 0.949 . S
C2204 C2208 1.368 . S
C2205 C2186 1.429 . S
C2205 C2199 1.429 . S
C2205 C2206 1.523 . S
C2206 C2187 1.368 . S
C2206 C2200 1.368 . S
C2206 C2205 1.523 . S
C2207 C2191 1.429 . S
C2207 C2203 1.429 . S
C2207 C2208 1.523 . S
C2208 C2192 1.368 . S
C2208 C2204 1.368 . S
C2208 C2207 1.523 . S
H2209 C2184 0.950 . S
H2210 C2186 0.950 . S
H2211 C2187 0.949 . S
H2212 C2189 0.950 . S
H2213 C2191 0.950 . S
C2214 C2215 1.349 . S
C2214 C2216 1.327 . S
C2214 H2239 0.950 . S
C2215 C2214 1.349 . S
C2215 C2231 1.349 . S
C2216 C2214 1.327 . S
C2216 C2235 1.429 . S
C2216 H2240 0.950 . S
C2217 C2234 1.574 . S
C2217 C2236 1.368 . S
C2217 H2241 0.949 . S
H2218 C2222 0.949 . S
C2219 C2220 1.349 . S
C2219 C2221 1.327 . S
C2219 H2242 0.950 . S
C2220 C2219 1.349 . S
C2220 C2232 1.349 . S
C2221 C2219 1.327 . S
C2221 C2237 1.429 . S
C2221 H2243 0.950 . S
C2222 H2218 0.949 . S
C2222 C2230 1.574 . S
C2222 C2238 1.368 . S
H2223 C2231 0.950 . S
H2224 C2229 0.950 . S
H2225 C2230 0.949 . S
H2226 C2232 0.950 . S
H2227 C2233 0.950 . S
H2228 C2234 0.949 . S
C2229 H2224 0.950 . S
C2229 C2231 1.327 . S
C2229 C2235 1.429 . S
C2230 C2222 1.574 . S
C2230 H2225 0.949 . S
C2230 C2236 1.368 . S
C2231 C2215 1.349 . S
C2231 H2223 0.950 . S
C2231 C2229 1.327 . S
C2232 C2220 1.349 . S
C2232 H2226 0.950 . S
C2232 C2233 1.327 . S
C2233 H2227 0.950 . S
C2233 C2232 1.327 . S
C2233 C2237 1.429 . S
C2234 C2217 1.574 . S
C2234 H2228 0.949 . S
C2234 C2238 1.368 . S
C2235 C2216 1.429 . S
C2235 C2229 1.429 . S
C2235 C2236 1.523 . S
C2236 C2217 1.368 . S
C2236 C2230 1.368 . S
C2236 C2235 1.523 . S
C2237 C2221 1.429 . S
C2237 C2233 1.429 . S
C2237 C2238 1.523 . S
C2238 C2222 1.368 . S
C2238 C2234 1.368 . S
C2238 C2237 1.523 . S
H2239 C2214 0.950 . S
H2240 C2216 0.950 . S
H2241 C2217 0.949 . S
H2242 C2219 0.950 . S
H2243 C2221 0.950 . S
C2244 C2245 1.349 . S
C2244 C2246 1.327 . S
C2244 H2269 0.950 . S
C2245 C2244 1.349 . S
C2245 C2261 1.349 . S
C2246 C2244 1.327 . S
C2246 C2265 1.429 . S
C2246 H2270 0.950 . S
C2247 C2264 1.574 . S
C2247 C2266 1.368 . S
C2247 H2271 0.949 . S
H2248 C2252 0.949 . S
C2249 C2250 1.349 . S
C2249 C2251 1.327 . S
C2249 H2272 0.950 . S
C2250 C2249 1.349 . S
C2250 C2262 1.349 . S
C2251 C2249 1.327 . S
C2251 C2267 1.429 . S
C2251 H2273 0.950 . S
C2252 H2248 0.949 . S
C2252 C2260 1.574 . S
C2252 C2268 1.368 . S
H2253 C2261 0.950 . S
H2254 C2259 0.950 . S
H2255 C2260 0.949 . S
H2256 C2262 0.950 . S
H2257 C2263 0.950 . S
H2258 C2264 0.949 . S
C2259 H2254 0.950 . S
C2259 C2261 1.327 . S
C2259 C2265 1.429 . S
C2260 C2252 1.574 . S
C2260 H2255 0.949 . S
C2260 C2266 1.368 . S
C2261 C2245 1.349 . S
C2261 H2253 0.950 . S
C2261 C2259 1.327 . S
C2262 C2250 1.349 . S
C2262 H2256 0.950 . S
C2262 C2263 1.327 . S
C2263 H2257 0.950 . S
C2263 C2262 1.327 . S
C2263 C2267 1.429 . S
C2264 C2247 1.574 . S
C2264 H2258 0.949 . S
C2264 C2268 1.368 . S
C2265 C2246 1.429 . S
C2265 C2259 1.429 . S
C2265 C2266 1.523 . S
C2266 C2247 1.368 . S
C2266 C2260 1.368 . S
C2266 C2265 1.523 . S
C2267 C2251 1.429 . S
C2267 C2263 1.429 . S
C2267 C2268 1.523 . S
C2268 C2252 1.368 . S
C2268 C2264 1.368 . S
C2268 C2267 1.523 . S
H2269 C2244 0.950 . S
H2270 C2246 0.950 . S
H2271 C2247 0.949 . S
H2272 C2249 0.950 . S
H2273 C2251 0.950 . S
C2274 C2275 1.349 . S
C2274 C2276 1.327 . S
C2274 H2299 0.950 . S
C2275 C2274 1.349 . S
C2275 C2291 1.349 . S
C2276 C2274 1.327 . S
C2276 C2295 1.429 . S
C2276 H2300 0.950 . S
C2277 C2294 1.574 . S
C2277 C2296 1.368 . S
C2277 H2301 0.949 . S
H2278 C2282 0.949 . S
C2279 C2280 1.349 . S
C2279 C2281 1.327 . S
C2279 H2302 0.950 . S
C2280 C2279 1.349 . S
C2280 C2292 1.349 . S
C2281 C2279 1.327 . S
C2281 C2297 1.429 . S
C2281 H2303 0.950 . S
C2282 H2278 0.949 . S
C2282 C2290 1.574 . S
C2282 C2298 1.368 . S
H2283 C2291 0.950 . S
H2284 C2289 0.950 . S
H2285 C2290 0.949 . S
H2286 C2292 0.950 . S
H2287 C2293 0.950 . S
H2288 C2294 0.949 . S
C2289 H2284 0.950 . S
C2289 C2291 1.327 . S
C2289 C2295 1.429 . S
C2290 C2282 1.574 . S
C2290 H2285 0.949 . S
C2290 C2296 1.368 . S
C2291 C2275 1.349 . S
C2291 H2283 0.950 . S
C2291 C2289 1.327 . S
C2292 C2280 1.349 . S
C2292 H2286 0.950 . S
C2292 C2293 1.327 . S
C2293 H2287 0.950 . S
C2293 C2292 1.327 . S
C2293 C2297 1.429 . S
C2294 C2277 1.574 . S
C2294 H2288 0.949 . S
C2294 C2298 1.368 . S
C2295 C2276 1.429 . S
C2295 C2289 1.429 . S
C2295 C2296 1.523 . S
C2296 C2277 1.368 . S
C2296 C2290 1.368 . S
C2296 C2295 1.523 . S
C2297 C2281 1.429 . S
C2297 C2293 1.429 . S
C2297 C2298 1.523 . S
C2298 C2282 1.368 . S
C2298 C2294 1.368 . S
C2298 C2297 1.523 . S
H2299 C2274 0.950 . S
H2300 C2276 0.950 . S
H2301 C2277 0.949 . S
H2302 C2279 0.950 . S
H2303 C2281 0.950 . S
C2304 C2305 1.349 . S
C2304 C2306 1.327 . S
C2304 H2329 0.950 . S
C2305 C2304 1.349 . S
C2305 C2321 1.349 . S
C2306 C2304 1.327 . S
C2306 C2325 1.429 . S
C2306 H2330 0.950 . S
C2307 C2324 1.574 . S
C2307 C2326 1.368 . S
C2307 H2331 0.949 . S
H2308 C2312 0.949 . S
C2309 C2310 1.349 . S
C2309 C2311 1.327 . S
C2309 H2332 0.950 . S
C2310 C2309 1.349 . S
C2310 C2322 1.349 . S
C2311 C2309 1.327 . S
C2311 C2327 1.429 . S
C2311 H2333 0.950 . S
C2312 H2308 0.949 . S
C2312 C2320 1.574 . S
C2312 C2328 1.368 . S
H2313 C2321 0.950 . S
H2314 C2319 0.950 . S
H2315 C2320 0.949 . S
H2316 C2322 0.950 . S
H2317 C2323 0.950 . S
H2318 C2324 0.949 . S
C2319 H2314 0.950 . S
C2319 C2321 1.327 . S
C2319 C2325 1.429 . S
C2320 C2312 1.574 . S
C2320 H2315 0.949 . S
C2320 C2326 1.368 . S
C2321 C2305 1.349 . S
C2321 H2313 0.950 . S
C2321 C2319 1.327 . S
C2322 C2310 1.349 . S
C2322 H2316 0.950 . S
C2322 C2323 1.327 . S
C2323 H2317 0.950 . S
C2323 C2322 1.327 . S
C2323 C2327 1.429 . S
C2324 C2307 1.574 . S
C2324 H2318 0.949 . S
C2324 C2328 1.368 . S
C2325 C2306 1.429 . S
C2325 C2319 1.429 . S
C2325 C2326 1.523 . S
C2326 C2307 1.368 . S
C2326 C2320 1.368 . S
C2326 C2325 1.523 . S
C2327 C2311 1.429 . S
C2327 C2323 1.429 . S
C2327 C2328 1.523 . S
C2328 C2312 1.368 . S
C2328 C2324 1.368 . S
C2328 C2327 1.523 . S
H2329 C2304 0.950 . S
H2330 C2306 0.950 . S
H2331 C2307 0.949 . S
H2332 C2309 0.950 . S
H2333 C2311 0.950 . S
C2334 C2335 1.349 . S
C2334 C2336 1.327 . S
C2334 H2359 0.950 . S
C2335 C2334 1.349 . S
C2335 C2351 1.349 . S
C2336 C2334 1.327 . S
C2336 C2355 1.429 . S
C2336 H2360 0.950 . S
C2337 C2354 1.574 . S
C2337 C2356 1.368 . S
C2337 H2361 0.949 . S
H2338 C2342 0.949 . S
C2339 C2340 1.349 . S
C2339 C2341 1.327 . S
C2339 H2362 0.950 . S
C2340 C2339 1.349 . S
C2340 C2352 1.349 . S
C2341 C2339 1.327 . S
C2341 C2357 1.429 . S
C2341 H2363 0.950 . S
C2342 H2338 0.949 . S
C2342 C2350 1.574 . S
C2342 C2358 1.368 . S
H2343 C2351 0.950 . S
H2344 C2349 0.950 . S
H2345 C2350 0.949 . S
H2346 C2352 0.950 . S
H2347 C2353 0.950 . S
H2348 C2354 0.949 . S
C2349 H2344 0.950 . S
C2349 C2351 1.327 . S
C2349 C2355 1.429 . S
C2350 C2342 1.574 . S
C2350 H2345 0.949 . S
C2350 C2356 1.368 . S
C2351 C2335 1.349 . S
C2351 H2343 0.950 . S
C2351 C2349 1.327 . S
C2352 C2340 1.349 . S
C2352 H2346 0.950 . S
C2352 C2353 1.327 . S
C2353 H2347 0.950 . S
C2353 C2352 1.327 . S
C2353 C2357 1.429 . S
C2354 C2337 1.574 . S
C2354 H2348 0.949 . S
C2354 C2358 1.368 . S
C2355 C2336 1.429 . S
C2355 C2349 1.429 . S
C2355 C2356 1.523 . S
C2356 C2337 1.368 . S
C2356 C2350 1.368 . S
C2356 C2355 1.523 . S
C2357 C2341 1.429 . S
C2357 C2353 1.429 . S
C2357 C2358 1.523 . S
C2358 C2342 1.368 . S
C2358 C2354 1.368 . S
C2358 C2357 1.523 . S
H2359 C2334 0.950 . S
H2360 C2336 0.950 . S
H2361 C2337 0.949 . S
H2362 C2339 0.950 . S
H2363 C2341 0.950 . S
C2364 C2365 1.349 . S
C2364 C2366 1.327 . S
C2364 H2389 0.950 . S
C2365 C2364 1.349 . S
C2365 C2381 1.349 . S
C2366 C2364 1.327 . S
C2366 C2385 1.429 . S
C2366 H2390 0.950 . S
C2367 C2384 1.574 . S
C2367 C2386 1.368 . S
C2367 H2391 0.949 . S
H2368 C2372 0.949 . S
C2369 C2370 1.349 . S
C2369 C2371 1.327 . S
C2369 H2392 0.950 . S
C2370 C2369 1.349 . S
C2370 C2382 1.349 . S
C2371 C2369 1.327 . S
C2371 C2387 1.429 . S
C2371 H2393 0.950 . S
C2372 H2368 0.949 . S
C2372 C2380 1.574 . S
C2372 C2388 1.368 . S
H2373 C2381 0.950 . S
H2374 C2379 0.950 . S
H2375 C2380 0.949 . S
H2376 C2382 0.950 . S
H2377 C2383 0.950 . S
H2378 C2384 0.949 . S
C2379 H2374 0.950 . S
C2379 C2381 1.327 . S
C2379 C2385 1.429 . S
C2380 C2372 1.574 . S
C2380 H2375 0.949 . S
C2380 C2386 1.368 . S
C2381 C2365 1.349 . S
C2381 H2373 0.950 . S
C2381 C2379 1.327 . S
C2382 C2370 1.349 . S
C2382 H2376 0.950 . S
C2382 C2383 1.327 . S
C2383 H2377 0.950 . S
C2383 C2382 1.327 . S
C2383 C2387 1.429 . S
C2384 C2367 1.574 . S
C2384 H2378 0.949 . S
C2384 C2388 1.368 . S
C2385 C2366 1.429 . S
C2385 C2379 1.429 . S
C2385 C2386 1.523 . S
C2386 C2367 1.368 . S
C2386 C2380 1.368 . S
C2386 C2385 1.523 . S
C2387 C2371 1.429 . S
C2387 C2383 1.429 . S
C2387 C2388 1.523 . S
C2388 C2372 1.368 . S
C2388 C2384 1.368 . S
C2388 C2387 1.523 . S
H2389 C2364 0.950 . S
H2390 C2366 0.950 . S
H2391 C2367 0.949 . S
H2392 C2369 0.950 . S
H2393 C2371 0.950 . S
C2394 C2395 1.349 . S
C2394 C2396 1.327 . S
C2394 H2419 0.950 . S
C2395 C2394 1.349 . S
C2395 C2411 1.349 . S
C2396 C2394 1.327 . S
C2396 C2415 1.429 . S
C2396 H2420 0.950 . S
C2397 C2414 1.574 . S
C2397 C2416 1.368 . S
C2397 H2421 0.949 . S
H2398 C2402 0.949 . S
C2399 C2400 1.349 . S
C2399 C2401 1.327 . S
C2399 H2422 0.950 . S
C2400 C2399 1.349 . S
C2400 C2412 1.349 . S
C2401 C2399 1.327 . S
C2401 C2417 1.429 . S
C2401 H2423 0.950 . S
C2402 H2398 0.949 . S
C2402 C2410 1.574 . S
C2402 C2418 1.368 . S
H2403 C2411 0.950 . S
H2404 C2409 0.950 . S
H2405 C2410 0.949 . S
H2406 C2412 0.950 . S
H2407 C2413 0.950 . S
H2408 C2414 0.949 . S
C2409 H2404 0.950 . S
C2409 C2411 1.327 . S
C2409 C2415 1.429 . S
C2410 C2402 1.574 . S
C2410 H2405 0.949 . S
C2410 C2416 1.368 . S
C2411 C2395 1.349 . S
C2411 H2403 0.950 . S
C2411 C2409 1.327 . S
C2412 C2400 1.349 . S
C2412 H2406 0.950 . S
C2412 C2413 1.327 . S
C2413 H2407 0.950 . S
C2413 C2412 1.327 . S
C2413 C2417 1.429 . S
C2414 C2397 1.574 . S
C2414 H2408 0.949 . S
C2414 C2418 1.368 . S
C2415 C2396 1.429 . S
C2415 C2409 1.429 . S
C2415 C2416 1.523 . S
C2416 C2397 1.368 . S
C2416 C2410 1.368 . S
C2416 C2415 1.523 . S
C2417 C2401 1.429 . S
C2417 C2413 1.429 . S
C2417 C2418 1.523 . S
C2418 C2402 1.368 . S
C2418 C2414 1.368 . S
C2418 C2417 1.523 . S
H2419 C2394 0.950 . S
H2420 C2396 0.950 . S
H2421 C2397 0.949 . S
H2422 C2399 0.950 . S
H2423 C2401 0.950 . S
C2424 C2425 1.349 . S
C2424 C2426 1.327 . S
C2424 H2449 0.950 . S
C2425 C2424 1.349 . S
C2425 C2441 1.349 . S
C2426 C2424 1.327 . S
C2426 C2445 1.429 . S
C2426 H2450 0.950 . S
C2427 C2444 1.574 . S
C2427 C2446 1.368 . S
C2427 H2451 0.949 . S
H2428 C2432 0.949 . S
C2429 C2430 1.349 . S
C2429 C2431 1.327 . S
C2429 H2452 0.950 . S
C2430 C2429 1.349 . S
C2430 C2442 1.349 . S
C2431 C2429 1.327 . S
C2431 C2447 1.429 . S
C2431 H2453 0.950 . S
C2432 H2428 0.949 . S
C2432 C2440 1.574 . S
C2432 C2448 1.368 . S
H2433 C2441 0.950 . S
H2434 C2439 0.950 . S
H2435 C2440 0.949 . S
H2436 C2442 0.950 . S
H2437 C2443 0.950 . S
H2438 C2444 0.949 . S
C2439 H2434 0.950 . S
C2439 C2441 1.327 . S
C2439 C2445 1.429 . S
C2440 C2432 1.574 . S
C2440 H2435 0.949 . S
C2440 C2446 1.368 . S
C2441 C2425 1.349 . S
C2441 H2433 0.950 . S
C2441 C2439 1.327 . S
C2442 C2430 1.349 . S
C2442 H2436 0.950 . S
C2442 C2443 1.327 . S
C2443 H2437 0.950 . S
C2443 C2442 1.327 . S
C2443 C2447 1.429 . S
C2444 C2427 1.574 . S
C2444 H2438 0.949 . S
C2444 C2448 1.368 . S
C2445 C2426 1.429 . S
C2445 C2439 1.429 . S
C2445 C2446 1.523 . S
C2446 C2427 1.368 . S
C2446 C2440 1.368 . S
C2446 C2445 1.523 . S
C2447 C2431 1.429 . S
C2447 C2443 1.429 . S
C2447 C2448 1.523 . S
C2448 C2432 1.368 . S
C2448 C2444 1.368 . S
C2448 C2447 1.523 . S
H2449 C2424 0.950 . S
H2450 C2426 0.950 . S
H2451 C2427 0.949 . S
H2452 C2429 0.950 . S
H2453 C2431 0.950 . S
C2454 C2455 1.349 . S
C2454 C2456 1.327 . S
C2454 H2479 0.950 . S
C2455 C2454 1.349 . S
C2455 C2471 1.349 . S
C2456 C2454 1.327 . S
C2456 C2475 1.429 . S
C2456 H2480 0.950 . S
C2457 C2474 1.574 . S
C2457 C2476 1.368 . S
C2457 H2481 0.949 . S
H2458 C2462 0.949 . S
C2459 C2460 1.349 . S
C2459 C2461 1.327 . S
C2459 H2482 0.950 . S
C2460 C2459 1.349 . S
C2460 C2472 1.349 . S
C2461 C2459 1.327 . S
C2461 C2477 1.429 . S
C2461 H2483 0.950 . S
C2462 H2458 0.949 . S
C2462 C2470 1.574 . S
C2462 C2478 1.368 . S
H2463 C2471 0.950 . S
H2464 C2469 0.950 . S
H2465 C2470 0.949 . S
H2466 C2472 0.950 . S
H2467 C2473 0.950 . S
H2468 C2474 0.949 . S
C2469 H2464 0.950 . S
C2469 C2471 1.327 . S
C2469 C2475 1.429 . S
C2470 C2462 1.574 . S
C2470 H2465 0.949 . S
C2470 C2476 1.368 . S
C2471 C2455 1.349 . S
C2471 H2463 0.950 . S
C2471 C2469 1.327 . S
C2472 C2460 1.349 . S
C2472 H2466 0.950 . S
C2472 C2473 1.327 . S
C2473 H2467 0.950 . S
C2473 C2472 1.327 . S
C2473 C2477 1.429 . S
C2474 C2457 1.574 . S
C2474 H2468 0.949 . S
C2474 C2478 1.368 . S
C2475 C2456 1.429 . S
C2475 C2469 1.429 . S
C2475 C2476 1.523 . S
C2476 C2457 1.368 . S
C2476 C2470 1.368 . S
C2476 C2475 1.523 . S
C2477 C2461 1.429 . S
C2477 C2473 1.429 . S
C2477 C2478 1.523 . S
C2478 C2462 1.368 . S
C2478 C2474 1.368 . S
C2478 C2477 1.523 . S
H2479 C2454 0.950 . S
H2480 C2456 0.950 . S
H2481 C2457 0.949 . S
H2482 C2459 0.950 . S
H2483 C2461 0.950 . S
C2484 C2485 1.349 . S
C2484 C2486 1.327 . S
C2484 H2509 0.950 . S
C2485 C2484 1.349 . S
C2485 C2501 1.349 . S
C2486 C2484 1.327 . S
C2486 C2505 1.429 . S
C2486 H2510 0.950 . S
C2487 C2504 1.574 . S
C2487 C2506 1.368 . S
C2487 H2511 0.949 . S
H2488 C2492 0.949 . S
C2489 C2490 1.349 . S
C2489 C2491 1.327 . S
C2489 H2512 0.950 . S
C2490 C2489 1.349 . S
C2490 C2502 1.349 . S
C2491 C2489 1.327 . S
C2491 C2507 1.429 . S
C2491 H2513 0.950 . S
C2492 H2488 0.949 . S
C2492 C2500 1.574 . S
C2492 C2508 1.368 . S
H2493 C2501 0.950 . S
H2494 C2499 0.950 . S
H2495 C2500 0.949 . S
H2496 C2502 0.950 . S
H2497 C2503 0.950 . S
H2498 C2504 0.949 . S
C2499 H2494 0.950 . S
C2499 C2501 1.327 . S
C2499 C2505 1.429 . S
C2500 C2492 1.574 . S
C2500 H2495 0.949 . S
C2500 C2506 1.368 . S
C2501 C2485 1.349 . S
C2501 H2493 0.950 . S
C2501 C2499 1.327 . S
C2502 C2490 1.349 . S
C2502 H2496 0.950 . S
C2502 C2503 1.327 . S
C2503 H2497 0.950 . S
C2503 C2502 1.327 . S
C2503 C2507 1.429 . S
C2504 C2487 1.574 . S
C2504 H2498 0.949 . S
C2504 C2508 1.368 . S
C2505 C2486 1.429 . S
C2505 C2499 1.429 . S
C2505 C2506 1.523 . S
C2506 C2487 1.368 . S
C2506 C2500 1.368 . S
C2506 C2505 1.523 . S
C2507 C2491 1.429 . S
C2507 C2503 1.429 . S
C2507 C2508 1.523 . S
C2508 C2492 1.368 . S
C2508 C2504 1.368 . S
C2508 C2507 1.523 . S
H2509 C2484 0.950 . S
H2510 C2486 0.950 . S
H2511 C2487 0.949 . S
H2512 C2489 0.950 . S
H2513 C2491 0.950 . S
C2514 C2515 1.349 . S
C2514 C2516 1.327 . S
C2514 H2539 0.950 . S
C2515 C2514 1.349 . S
C2515 C2531 1.349 . S
C2516 C2514 1.327 . S
C2516 C2535 1.429 . S
C2516 H2540 0.950 . S
C2517 C2534 1.574 . S
C2517 C2536 1.368 . S
C2517 H2541 0.949 . S
H2518 C2522 0.949 . S
C2519 C2520 1.349 . S
C2519 C2521 1.327 . S
C2519 H2542 0.950 . S
C2520 C2519 1.349 . S
C2520 C2532 1.349 . S
C2521 C2519 1.327 . S
C2521 C2537 1.429 . S
C2521 H2543 0.950 . S
C2522 H2518 0.949 . S
C2522 C2530 1.574 . S
C2522 C2538 1.368 . S
H2523 C2531 0.950 . S
H2524 C2529 0.950 . S
H2525 C2530 0.949 . S
H2526 C2532 0.950 . S
H2527 C2533 0.950 . S
H2528 C2534 0.949 . S
C2529 H2524 0.950 . S
C2529 C2531 1.327 . S
C2529 C2535 1.429 . S
C2530 C2522 1.574 . S
C2530 H2525 0.949 . S
C2530 C2536 1.368 . S
C2531 C2515 1.349 . S
C2531 H2523 0.950 . S
C2531 C2529 1.327 . S
C2532 C2520 1.349 . S
C2532 H2526 0.950 . S
C2532 C2533 1.327 . S
C2533 H2527 0.950 . S
C2533 C2532 1.327 . S
C2533 C2537 1.429 . S
C2534 C2517 1.574 . S
C2534 H2528 0.949 . S
C2534 C2538 1.368 . S
C2535 C2516 1.429 . S
C2535 C2529 1.429 . S
C2535 C2536 1.523 . S
C2536 C2517 1.368 . S
C2536 C2530 1.368 . S
C2536 C2535 1.523 . S
C2537 C2521 1.429 . S
C2537 C2533 1.429 . S
C2537 C2538 1.523 . S
C2538 C2522 1.368 . S
C2538 C2534 1.368 . S
C2538 C2537 1.523 . S
H2539 C2514 0.950 . S
H2540 C2516 0.950 . S
H2541 C2517 0.949 . S
H2542 C2519 0.950 . S
H2543 C2521 0.950 . S
C2544 C2545 1.349 . S
C2544 C2546 1.327 . S
C2544 H2569 0.950 . S
C2545 C2544 1.349 . S
C2545 C2561 1.349 . S
C2546 C2544 1.327 . S
C2546 C2565 1.429 . S
C2546 H2570 0.950 . S
C2547 C2564 1.574 . S
C2547 C2566 1.368 . S
C2547 H2571 0.949 . S
H2548 C2552 0.949 . S
C2549 C2550 1.349 . S
C2549 C2551 1.327 . S
C2549 H2572 0.950 . S
C2550 C2549 1.349 . S
C2550 C2562 1.349 . S
C2551 C2549 1.327 . S
C2551 C2567 1.429 . S
C2551 H2573 0.950 . S
C2552 H2548 0.949 . S
C2552 C2560 1.574 . S
C2552 C2568 1.368 . S
H2553 C2561 0.950 . S
H2554 C2559 0.950 . S
H2555 C2560 0.949 . S
H2556 C2562 0.950 . S
H2557 C2563 0.950 . S
H2558 C2564 0.949 . S
C2559 H2554 0.950 . S
C2559 C2561 1.327 . S
C2559 C2565 1.429 . S
C2560 C2552 1.574 . S
C2560 H2555 0.949 . S
C2560 C2566 1.368 . S
C2561 C2545 1.349 . S
C2561 H2553 0.950 . S
C2561 C2559 1.327 . S
C2562 C2550 1.349 . S
C2562 H2556 0.950 . S
C2562 C2563 1.327 . S
C2563 H2557 0.950 . S
C2563 C2562 1.327 . S
C2563 C2567 1.429 . S
C2564 C2547 1.574 . S
C2564 H2558 0.949 . S
C2564 C2568 1.368 . S
C2565 C2546 1.429 . S
C2565 C2559 1.429 . S
C2565 C2566 1.523 . S
C2566 C2547 1.368 . S
C2566 C2560 1.368 . S
C2566 C2565 1.523 . S
C2567 C2551 1.429 . S
C2567 C2563 1.429 . S
C2567 C2568 1.523 . S
C2568 C2552 1.368 . S
C2568 C2564 1.368 . S
C2568 C2567 1.523 . S
H2569 C2544 0.950 . S
H2570 C2546 0.950 . S
H2571 C2547 0.949 . S
H2572 C2549 0.950 . S
H2573 C2551 0.950 . S
C2574 C2575 1.349 . S
C2574 C2576 1.327 . S
C2574 H2599 0.950 . S
C2575 C2574 1.349 . S
C2575 C2591 1.349 . S
C2576 C2574 1.327 . S
C2576 C2595 1.429 . S
C2576 H2600 0.950 . S
C2577 C2594 1.574 . S
C2577 C2596 1.368 . S
C2577 H2601 0.949 . S
H2578 C2582 0.949 . S
C2579 C2580 1.349 . S
C2579 C2581 1.327 . S
C2579 H2602 0.950 . S
C2580 C2579 1.349 . S
C2580 C2592 1.349 . S
C2581 C2579 1.327 . S
C2581 C2597 1.429 . S
C2581 H2603 0.950 . S
C2582 H2578 0.949 . S
C2582 C2590 1.574 . S
C2582 C2598 1.368 . S
H2583 C2591 0.950 . S
H2584 C2589 0.950 . S
H2585 C2590 0.949 . S
H2586 C2592 0.950 . S
H2587 C2593 0.950 . S
H2588 C2594 0.949 . S
C2589 H2584 0.950 . S
C2589 C2591 1.327 . S
C2589 C2595 1.429 . S
C2590 C2582 1.574 . S
C2590 H2585 0.949 . S
C2590 C2596 1.368 . S
C2591 C2575 1.349 . S
C2591 H2583 0.950 . S
C2591 C2589 1.327 . S
C2592 C2580 1.349 . S
C2592 H2586 0.950 . S
C2592 C2593 1.327 . S
C2593 H2587 0.950 . S
C2593 C2592 1.327 . S
C2593 C2597 1.429 . S
C2594 C2577 1.574 . S
C2594 H2588 0.949 . S
C2594 C2598 1.368 . S
C2595 C2576 1.429 . S
C2595 C2589 1.429 . S
C2595 C2596 1.523 . S
C2596 C2577 1.368 . S
C2596 C2590 1.368 . S
C2596 C2595 1.523 . S
C2597 C2581 1.429 . S
C2597 C2593 1.429 . S
C2597 C2598 1.523 . S
C2598 C2582 1.368 . S
C2598 C2594 1.368 . S
C2598 C2597 1.523 . S
H2599 C2574 0.950 . S
H2600 C2576 0.950 . S
H2601 C2577 0.949 . S
H2602 C2579 0.950 . S
H2603 C2581 0.950 . S
C2604 C2605 1.349 . S
C2604 C2606 1.327 . S
C2604 H2629 0.950 . S
C2605 C2604 1.349 . S
C2605 C2621 1.349 . S
C2606 C2604 1.327 . S
C2606 C2625 1.429 . S
C2606 H2630 0.950 . S
C2607 C2624 1.574 . S
C2607 C2626 1.368 . S
C2607 H2631 0.949 . S
H2608 C2612 0.949 . S
C2609 C2610 1.349 . S
C2609 C2611 1.327 . S
C2609 H2632 0.950 . S
C2610 C2609 1.349 . S
C2610 C2622 1.349 . S
C2611 C2609 1.327 . S
C2611 C2627 1.429 . S
C2611 H2633 0.950 . S
C2612 H2608 0.949 . S
C2612 C2620 1.574 . S
C2612 C2628 1.368 . S
H2613 C2621 0.950 . S
H2614 C2619 0.950 . S
H2615 C2620 0.949 . S
H2616 C2622 0.950 . S
H2617 C2623 0.950 . S
H2618 C2624 0.949 . S
C2619 H2614 0.950 . S
C2619 C2621 1.327 . S
C2619 C2625 1.429 . S
C2620 C2612 1.574 . S
C2620 H2615 0.949 . S
C2620 C2626 1.368 . S
C2621 C2605 1.349 . S
C2621 H2613 0.950 . S
C2621 C2619 1.327 . S
C2622 C2610 1.349 . S
C2622 H2616 0.950 . S
C2622 C2623 1.327 . S
C2623 H2617 0.950 . S
C2623 C2622 1.327 . S
C2623 C2627 1.429 . S
C2624 C2607 1.574 . S
C2624 H2618 0.949 . S
C2624 C2628 1.368 . S
C2625 C2606 1.429 . S
C2625 C2619 1.429 . S
C2625 C2626 1.523 . S
C2626 C2607 1.368 . S
C2626 C2620 1.368 . S
C2626 C2625 1.523 . S
C2627 C2611 1.429 . S
C2627 C2623 1.429 . S
C2627 C2628 1.523 . S
C2628 C2612 1.368 . S
C2628 C2624 1.368 . S
C2628 C2627 1.523 . S
H2629 C2604 0.950 . S
H2630 C2606 0.950 . S
H2631 C2607 0.949 . S
H2632 C2609 0.950 . S
H2633 C2611 0.950 . S
C2634 C2635 1.349 . S
C2634 C2636 1.327 . S
C2634 H2659 0.950 . S
C2635 C2634 1.349 . S
C2635 C2651 1.349 . S
C2636 C2634 1.327 . S
C2636 C2655 1.429 . S
C2636 H2660 0.950 . S
C2637 C2654 1.574 . S
C2637 C2656 1.368 . S
C2637 H2661 0.949 . S
H2638 C2642 0.949 . S
C2639 C2640 1.349 . S
C2639 C2641 1.327 . S
C2639 H2662 0.950 . S
C2640 C2639 1.349 . S
C2640 C2652 1.349 . S
C2641 C2639 1.327 . S
C2641 C2657 1.429 . S
C2641 H2663 0.950 . S
C2642 H2638 0.949 . S
C2642 C2650 1.574 . S
C2642 C2658 1.368 . S
H2643 C2651 0.950 . S
H2644 C2649 0.950 . S
H2645 C2650 0.949 . S
H2646 C2652 0.950 . S
H2647 C2653 0.950 . S
H2648 C2654 0.949 . S
C2649 H2644 0.950 . S
C2649 C2651 1.327 . S
C2649 C2655 1.429 . S
C2650 C2642 1.574 . S
C2650 H2645 0.949 . S
C2650 C2656 1.368 . S
C2651 C2635 1.349 . S
C2651 H2643 0.950 . S
C2651 C2649 1.327 . S
C2652 C2640 1.349 . S
C2652 H2646 0.950 . S
C2652 C2653 1.327 . S
C2653 H2647 0.950 . S
C2653 C2652 1.327 . S
C2653 C2657 1.429 . S
C2654 C2637 1.574 . S
C2654 H2648 0.949 . S
C2654 C2658 1.368 . S
C2655 C2636 1.429 . S
C2655 C2649 1.429 . S
C2655 C2656 1.523 . S
C2656 C2637 1.368 . S
C2656 C2650 1.368 . S
C2656 C2655 1.523 . S
C2657 C2641 1.429 . S
C2657 C2653 1.429 . S
C2657 C2658 1.523 . S
C2658 C2642 1.368 . S
C2658 C2654 1.368 . S
C2658 C2657 1.523 . S
H2659 C2634 0.950 . S
H2660 C2636 0.950 . S
H2661 C2637 0.949 . S
H2662 C2639 0.950 . S
H2663 C2641 0.950 . S
C2664 C2665 1.349 . S
C2664 C2666 1.327 . S
C2664 H2689 0.950 . S
C2665 C2664 1.349 . S
C2665 C2681 1.349 . S
C2666 C2664 1.327 . S
C2666 C2685 1.429 . S
C2666 H2690 0.950 . S
C2667 C2684 1.574 . S
C2667 C2686 1.368 . S
C2667 H2691 0.949 . S
H2668 C2672 0.949 . S
C2669 C2670 1.349 . S
C2669 C2671 1.327 . S
C2669 H2692 0.950 . S
C2670 C2669 1.349 . S
C2670 C2682 1.349 . S
C2671 C2669 1.327 . S
C2671 C2687 1.429 . S
C2671 H2693 0.950 . S
C2672 H2668 0.949 . S
C2672 C2680 1.574 . S
C2672 C2688 1.368 . S
H2673 C2681 0.950 . S
H2674 C2679 0.950 . S
H2675 C2680 0.949 . S
H2676 C2682 0.950 . S
H2677 C2683 0.950 . S
H2678 C2684 0.949 . S
C2679 H2674 0.950 . S
C2679 C2681 1.327 . S
C2679 C2685 1.429 . S
C2680 C2672 1.574 . S
C2680 H2675 0.949 . S
C2680 C2686 1.368 . S
C2681 C2665 1.349 . S
C2681 H2673 0.950 . S
C2681 C2679 1.327 . S
C2682 C2670 1.349 . S
C2682 H2676 0.950 . S
C2682 C2683 1.327 . S
C2683 H2677 0.950 . S
C2683 C2682 1.327 . S
C2683 C2687 1.429 . S
C2684 C2667 1.574 . S
C2684 H2678 0.949 . S
C2684 C2688 1.368 . S
C2685 C2666 1.429 . S
C2685 C2679 1.429 . S
C2685 C2686 1.523 . S
C2686 C2667 1.368 . S
C2686 C2680 1.368 . S
C2686 C2685 1.523 . S
C2687 C2671 1.429 . S
C2687 C2683 1.429 . S
C2687 C2688 1.523 . S
C2688 C2672 1.368 . S
C2688 C2684 1.368 . S
C2688 C2687 1.523 . S
H2689 C2664 0.950 . S
H2690 C2666 0.950 . S
H2691 C2667 0.949 . S
H2692 C2669 0.950 . S
H2693 C2671 0.950 . S
C2694 C2695 1.349 . S
C2694 C2696 1.327 . S
C2694 H2719 0.950 . S
C2695 C2694 1.349 . S
C2695 C2711 1.349 . S
C2696 C2694 1.327 . S
C2696 C2715 1.429 . S
C2696 H2720 0.950 . S
C2697 C2714 1.574 . S
C2697 C2716 1.368 . S
C2697 H2721 0.949 . S
H2698 C2702 0.949 . S
C2699 C2700 1.349 . S
C2699 C2701 1.327 . S
C2699 H2722 0.950 . S
C2700 C2699 1.349 . S
C2700 C2712 1.349 . S
C2701 C2699 1.327 . S
C2701 C2717 1.429 . S
C2701 H2723 0.950 . S
C2702 H2698 0.949 . S
C2702 C2710 1.574 . S
C2702 C2718 1.368 . S
H2703 C2711 0.950 . S
H2704 C2709 0.950 . S
H2705 C2710 0.949 . S
H2706 C2712 0.950 . S
H2707 C2713 0.950 . S
H2708 C2714 0.949 . S
C2709 H2704 0.950 . S
C2709 C2711 1.327 . S
C2709 C2715 1.429 . S
C2710 C2702 1.574 . S
C2710 H2705 0.949 . S
C2710 C2716 1.368 . S
C2711 C2695 1.349 . S
C2711 H2703 0.950 . S
C2711 C2709 1.327 . S
C2712 C2700 1.349 . S
C2712 H2706 0.950 . S
C2712 C2713 1.327 . S
C2713 H2707 0.950 . S
C2713 C2712 1.327 . S
C2713 C2717 1.429 . S
C2714 C2697 1.574 . S
C2714 H2708 0.949 . S
C2714 C2718 1.368 . S
C2715 C2696 1.429 . S
C2715 C2709 1.429 . S
C2715 C2716 1.523 . S
C2716 C2697 1.368 . S
C2716 C2710 1.368 . S
C2716 C2715 1.523 . S
C2717 C2701 1.429 . S
C2717 C2713 1.429 . S
C2717 C2718 1.523 . S
C2718 C2702 1.368 . S
C2718 C2714 1.368 . S
C2718 C2717 1.523 . S
H2719 C2694 0.950 . S
H2720 C2696 0.950 . S
H2721 C2697 0.949 . S
H2722 C2699 0.950 . S
H2723 C2701 0.950 . S
C2724 C2725 1.349 . S
C2724 C2726 1.327 . S
C2724 H2749 0.950 . S
C2725 C2724 1.349 . S
C2725 C2741 1.349 . S
C2726 C2724 1.327 . S
C2726 C2745 1.429 . S
C2726 H2750 0.950 . S
C2727 C2744 1.574 . S
C2727 C2746 1.368 . S
C2727 H2751 0.949 . S
H2728 C2732 0.949 . S
C2729 C2730 1.349 . S
C2729 C2731 1.327 . S
C2729 H2752 0.950 . S
C2730 C2729 1.349 . S
C2730 C2742 1.349 . S
C2731 C2729 1.327 . S
C2731 C2747 1.429 . S
C2731 H2753 0.950 . S
C2732 H2728 0.949 . S
C2732 C2740 1.574 . S
C2732 C2748 1.368 . S
H2733 C2741 0.950 . S
H2734 C2739 0.950 . S
H2735 C2740 0.949 . S
H2736 C2742 0.950 . S
H2737 C2743 0.950 . S
H2738 C2744 0.949 . S
C2739 H2734 0.950 . S
C2739 C2741 1.327 . S
C2739 C2745 1.429 . S
C2740 C2732 1.574 . S
C2740 H2735 0.949 . S
C2740 C2746 1.368 . S
C2741 C2725 1.349 . S
C2741 H2733 0.950 . S
C2741 C2739 1.327 . S
C2742 C2730 1.349 . S
C2742 H2736 0.950 . S
C2742 C2743 1.327 . S
C2743 H2737 0.950 . S
C2743 C2742 1.327 . S
C2743 C2747 1.429 . S
C2744 C2727 1.574 . S
C2744 H2738 0.949 . S
C2744 C2748 1.368 . S
C2745 C2726 1.429 . S
C2745 C2739 1.429 . S
C2745 C2746 1.523 . S
C2746 C2727 1.368 . S
C2746 C2740 1.368 . S
C2746 C2745 1.523 . S
C2747 C2731 1.429 . S
C2747 C2743 1.429 . S
C2747 C2748 1.523 . S
C2748 C2732 1.368 . S
C2748 C2744 1.368 . S
C2748 C2747 1.523 . S
H2749 C2724 0.950 . S
H2750 C2726 0.950 . S
H2751 C2727 0.949 . S
H2752 C2729 0.950 . S
H2753 C2731 0.950 . S
C2754 C2755 1.356 . S
C2754 C2756 1.327 1_554 S
C2754 H2779 0.950 . S
C2755 C2754 1.356 . S
C2755 C2771 1.322 1_554 S
C2756 C2754 1.327 1_556 S
C2756 C2775 1.429 . S
C2756 H2780 0.957 . S
C2757 C2774 1.574 . S
C2757 C2776 1.368 . S
C2757 H2781 0.949 . S
H2758 C2762 0.949 . S
C2759 C2760 1.349 . S
C2759 C2761 1.327 . S
C2759 H2782 0.950 . S
C2760 C2759 1.349 . S
C2760 C2772 1.349 . S
C2761 C2759 1.327 . S
C2761 C2777 1.429 . S
C2761 H2783 0.950 . S
C2762 H2758 0.949 . S
C2762 C2770 1.574 . S
C2762 C2778 1.368 . S
H2763 C2771 0.950 . S
H2764 C2769 0.950 . S
H2765 C2770 0.949 . S
H2766 C2772 0.950 . S
H2767 C2773 0.950 . S
H2768 C2774 0.949 . S
C2769 H2764 0.950 . S
C2769 C2771 1.327 . S
C2769 C2775 1.429 . S
C2770 C2762 1.574 . S
C2770 H2765 0.949 . S
C2770 C2776 1.368 . S
C2771 C2755 1.322 1_556 S
C2771 H2763 0.950 . S
C2771 C2769 1.327 . S
C2772 C2760 1.349 . S
C2772 H2766 0.950 . S
C2772 C2773 1.327 . S
C2773 H2767 0.950 . S
C2773 C2772 1.327 . S
C2773 C2777 1.429 . S
C2774 C2757 1.574 . S
C2774 H2768 0.949 . S
C2774 C2778 1.368 . S
C2775 C2756 1.429 . S
C2775 C2769 1.429 . S
C2775 C2776 1.523 . S
C2776 C2757 1.368 . S
C2776 C2770 1.368 . S
C2776 C2775 1.523 . S
C2777 C2761 1.429 . S
C2777 C2773 1.429 . S
C2777 C2778 1.523 . S
C2778 C2762 1.368 . S
C2778 C2774 1.368 . S
C2778 C2777 1.523 . S
H2779 C2754 0.950 . S
H2780 C2756 0.957 . S
H2781 C2757 0.949 . S
H2782 C2759 0.950 . S
H2783 C2761 0.950 . S
C2784 C2785 1.349 1_554 S
C2784 C2786 1.327 1_554 S
C2784 H2809 0.950 . S
C2785 C2784 1.349 1_556 S
C2785 C2801 1.349 . S
C2786 C2784 1.327 1_556 S
C2786 C2805 1.429 . S
C2786 H2810 0.952 . S
C2787 C2804 1.574 . S
C2787 C2806 1.368 . S
C2787 H2811 0.949 . S
H2788 C2792 0.949 . S
C2789 C2790 1.349 . S
C2789 C2791 1.327 . S
C2789 H2812 0.950 . S
C2790 C2789 1.349 . S
C2790 C2802 1.349 . S
C2791 C2789 1.327 . S
C2791 C2807 1.429 . S
C2791 H2813 0.950 . S
C2792 H2788 0.949 . S
C2792 C2800 1.574 . S
C2792 C2808 1.368 . S
H2793 C2801 0.950 . S
H2794 C2799 0.950 . S
H2795 C2800 0.949 . S
H2796 C2802 0.950 . S
H2797 C2803 0.950 . S
H2798 C2804 0.949 . S
C2799 H2794 0.950 . S
C2799 C2801 1.327 . S
C2799 C2805 1.429 . S
C2800 C2792 1.574 . S
C2800 H2795 0.949 . S
C2800 C2806 1.368 . S
C2801 C2785 1.349 . S
C2801 H2793 0.950 . S
C2801 C2799 1.327 . S
C2802 C2790 1.349 . S
C2802 H2796 0.950 . S
C2802 C2803 1.327 . S
C2803 H2797 0.950 . S
C2803 C2802 1.327 . S
C2803 C2807 1.429 . S
C2804 C2787 1.574 . S
C2804 H2798 0.949 . S
C2804 C2808 1.368 . S
C2805 C2786 1.429 . S
C2805 C2799 1.429 . S
C2805 C2806 1.523 . S
C2806 C2787 1.368 . S
C2806 C2800 1.368 . S
C2806 C2805 1.523 . S
C2807 C2791 1.429 . S
C2807 C2803 1.429 . S
C2807 C2808 1.523 . S
C2808 C2792 1.368 . S
C2808 C2804 1.368 . S
C2808 C2807 1.523 . S
H2809 C2784 0.950 . S
H2810 C2786 0.952 . S
H2811 C2787 0.949 . S
H2812 C2789 0.950 . S
H2813 C2791 0.950 . S
C2814 C2815 1.349 . S
C2814 C2816 1.327 . S
C2814 H2839 0.950 . S
C2815 C2814 1.349 . S
C2815 C2831 1.349 . S
C2816 C2814 1.327 . S
C2816 C2835 1.429 . S
C2816 H2840 0.950 1_554 S
C2817 C2834 1.574 . S
C2817 C2836 1.368 . S
C2817 H2841 0.949 . S
H2818 C2822 0.949 . S
C2819 C2820 1.349 . S
C2819 C2821 1.327 . S
C2819 H2842 0.950 . S
C2820 C2819 1.349 . S
C2820 C2832 1.349 . S
C2821 C2819 1.327 . S
C2821 C2837 1.429 . S
C2821 H2843 0.950 . S
C2822 H2818 0.949 . S
C2822 C2830 1.574 . S
C2822 C2838 1.368 . S
H2823 C2831 0.950 . S
H2824 C2829 0.950 . S
H2825 C2830 0.949 . S
H2826 C2832 0.950 . S
H2827 C2833 0.950 . S
H2828 C2834 0.949 . S
C2829 H2824 0.950 . S
C2829 C2831 1.327 . S
C2829 C2835 1.429 . S
C2830 C2822 1.574 . S
C2830 H2825 0.949 . S
C2830 C2836 1.368 1_556 S
C2831 C2815 1.349 . S
C2831 H2823 0.950 . S
C2831 C2829 1.327 . S
C2832 C2820 1.349 . S
C2832 H2826 0.950 . S
C2832 C2833 1.327 . S
C2833 H2827 0.950 . S
C2833 C2832 1.327 . S
C2833 C2837 1.429 . S
C2834 C2817 1.574 . S
C2834 H2828 0.949 . S
C2834 C2838 1.368 1_554 S
C2835 C2816 1.429 . S
C2835 C2829 1.429 . S
C2835 C2836 1.523 . S
C2836 C2817 1.368 . S
C2836 C2830 1.368 1_554 S
C2836 C2835 1.523 . S
C2837 C2821 1.429 . S
C2837 C2833 1.429 . S
C2837 C2838 1.523 . S
C2838 C2822 1.368 . S
C2838 C2834 1.368 1_556 S
C2838 C2837 1.523 . S
H2839 C2814 0.950 . S
H2840 C2816 0.950 1_556 S
H2841 C2817 0.949 . S
H2842 C2819 0.950 . S
H2843 C2821 0.950 . S
C2844 C2845 1.349 1_556 S
C2844 C2846 1.327 . S
C2844 H2869 0.950 . S
C2845 C2844 1.349 1_554 S
C2845 C2861 1.349 . S
C2846 C2844 1.327 . S
C2846 C2865 1.429 . S
C2846 H2870 0.950 . S
C2847 C2864 1.574 . S
C2847 C2866 1.368 . S
C2847 H2871 0.949 1_556 S
H2848 C2852 0.949 . S
C2849 C2850 1.349 . S
C2849 C2851 1.327 . S
C2849 H2872 0.950 . S
C2850 C2849 1.349 . S
C2850 C2862 1.349 . S
C2851 C2849 1.327 . S
C2851 C2867 1.429 . S
C2851 H2873 0.950 . S
C2852 H2848 0.949 . S
C2852 C2860 1.574 . S
C2852 C2868 1.368 . S
H2853 C2861 0.950 . S
H2854 C2859 0.950 . S
H2855 C2860 0.949 . S
H2856 C2862 0.950 . S
H2857 C2863 0.950 . S
H2858 C2864 0.949 . S
C2859 H2854 0.950 . S
C2859 C2861 1.327 . S
C2859 C2865 1.429 1_554 S
C2860 C2852 1.574 . S
C2860 H2855 0.949 . S
C2860 C2866 1.368 . S
C2861 C2845 1.349 . S
C2861 H2853 0.950 . S
C2861 C2859 1.327 . S
C2862 C2850 1.349 . S
C2862 H2856 0.950 . S
C2862 C2863 1.327 . S
C2863 H2857 0.950 . S
C2863 C2862 1.327 . S
C2863 C2867 1.429 . S
C2864 C2847 1.574 . S
C2864 H2858 0.949 . S
C2864 C2868 1.368 . S
C2865 C2846 1.429 . S
C2865 C2859 1.429 1_556 S
C2865 C2866 1.523 . S
C2866 C2847 1.368 . S
C2866 C2860 1.368 . S
C2866 C2865 1.523 . S
C2867 C2851 1.429 . S
C2867 C2863 1.429 . S
C2867 C2868 1.523 . S
C2868 C2852 1.368 . S
C2868 C2864 1.368 . S
C2868 C2867 1.523 . S
H2869 C2844 0.950 . S
H2870 C2846 0.950 . S
H2871 C2847 0.949 1_554 S
H2872 C2849 0.950 . S
H2873 C2851 0.950 . S
C2874 C2875 1.349 . S
C2874 C2876 1.327 . S
C2874 H2899 0.950 . S
C2875 C2874 1.349 . S
C2875 C2891 1.349 . S
C2876 C2874 1.327 . S
C2876 C2895 1.429 . S
C2876 H2900 0.950 . S
C2877 C2894 1.574 . S
C2877 C2896 1.368 . S
C2877 H2901 0.949 . S
H2878 C2882 0.949 . S
C2879 C2880 1.349 . S
C2879 C2881 1.327 . S
C2879 H2902 0.950 . S
C2880 C2879 1.349 . S
C2880 C2892 1.349 . S
C2881 C2879 1.327 . S
C2881 C2897 1.429 . S
C2881 H2903 0.950 . S
C2882 H2878 0.949 . S
C2882 C2890 1.574 . S
C2882 C2898 1.368 . S
H2883 C2891 0.950 . S
H2884 C2889 0.950 . S
H2885 C2890 0.949 . S
H2886 C2892 0.950 . S
H2887 C2893 0.950 . S
H2888 C2894 0.949 . S
C2889 H2884 0.950 . S
C2889 C2891 1.327 . S
C2889 C2895 1.429 . S
C2890 C2882 1.574 . S
C2890 H2885 0.949 . S
C2890 C2896 1.368 . S
C2891 C2875 1.349 . S
C2891 H2883 0.950 . S
C2891 C2889 1.327 . S
C2892 C2880 1.349 . S
C2892 H2886 0.950 . S
C2892 C2893 1.327 . S
C2893 H2887 0.950 . S
C2893 C2892 1.327 . S
C2893 C2897 1.429 . S
C2894 C2877 1.574 . S
C2894 H2888 0.949 . S
C2894 C2898 1.368 . S
C2895 C2876 1.429 . S
C2895 C2889 1.429 . S
C2895 C2896 1.523 . S
C2896 C2877 1.368 . S
C2896 C2890 1.368 . S
C2896 C2895 1.523 . S
C2897 C2881 1.429 . S
C2897 C2893 1.429 . S
C2897 C2898 1.523 . S
C2898 C2882 1.368 . S
C2898 C2894 1.368 . S
C2898 C2897 1.523 . S
H2899 C2874 0.950 . S
H2900 C2876 0.950 . S
H2901 C2877 0.949 . S
H2902 C2879 0.950 . S
H2903 C2881 0.950 . S
C2904 C2905 1.349 . S
C2904 C2906 1.327 1_554 S
C2904 H2929 0.950 . S
C2905 C2904 1.349 . S
C2905 C2921 1.349 . S
C2906 C2904 1.327 1_556 S
C2906 C2925 1.429 1_556 S
C2906 H2930 0.950 . S
C2907 C2924 1.552 1_554 S
C2907 C2926 1.355 1_554 S
C2907 H2931 0.982 . S
H2908 C2912 0.949 . S
C2909 C2910 1.349 . S
C2909 C2911 1.327 . S
C2909 H2932 0.950 . S
C2910 C2909 1.349 . S
C2910 C2922 1.349 . S
C2911 C2909 1.327 . S
C2911 C2927 1.429 . S
C2911 H2933 0.950 . S
C2912 H2908 0.949 . S
C2912 C2920 1.574 . S
C2912 C2928 1.368 . S
H2913 C2921 0.950 . S
H2914 C2919 0.950 . S
H2915 C2920 0.949 . S
H2916 C2922 0.950 . S
H2917 C2923 0.950 . S
H2918 C2924 0.949 . S
C2919 H2914 0.950 . S
C2919 C2921 1.327 . S
C2919 C2925 1.429 . S
C2920 C2912 1.574 . S
C2920 H2915 0.949 . S
C2920 C2926 1.368 . S
C2921 C2905 1.349 . S
C2921 H2913 0.950 . S
C2921 C2919 1.327 . S
C2922 C2910 1.349 . S
C2922 H2916 0.950 . S
C2922 C2923 1.327 . S
C2923 H2917 0.950 . S
C2923 C2922 1.327 . S
C2923 C2927 1.429 . S
C2924 C2907 1.552 1_556 S
C2924 H2918 0.949 . S
C2924 C2928 1.368 . S
C2925 C2906 1.429 1_554 S
C2925 C2919 1.429 . S
C2925 C2926 1.523 1_554 S
C2926 C2907 1.355 1_556 S
C2926 C2920 1.368 . S
C2926 C2925 1.523 1_556 S
C2927 C2911 1.429 . S
C2927 C2923 1.429 . S
C2927 C2928 1.523 . S
C2928 C2912 1.368 . S
C2928 C2924 1.368 . S
C2928 C2927 1.523 . S
H2929 C2904 0.950 . S
H2930 C2906 0.950 . S
H2931 C2907 0.982 . S
H2932 C2909 0.950 . S
H2933 C2911 0.950 . S
C2934 C2935 1.349 . S
C2934 C2936 1.327 . S
C2934 H2959 0.950 . S
C2935 C2934 1.349 . S
C2935 C2951 1.349 . S
C2936 C2934 1.327 . S
C2936 C2955 1.429 . S
C2936 H2960 0.950 . S
C2937 C2954 1.574 . S
C2937 C2956 1.368 . S
C2937 H2961 0.949 . S
H2938 C2942 0.949 . S
C2939 C2940 1.349 . S
C2939 C2941 1.327 . S
C2939 H2962 0.950 . S
C2940 C2939 1.349 . S
C2940 C2952 1.349 . S
C2941 C2939 1.327 . S
C2941 C2957 1.429 . S
C2941 H2963 0.950 . S
C2942 H2938 0.949 . S
C2942 C2950 1.574 . S
C2942 C2958 1.368 . S
H2943 C2951 0.950 . S
H2944 C2949 0.950 . S
H2945 C2950 0.949 . S
H2946 C2952 0.950 . S
H2947 C2953 0.950 . S
H2948 C2954 0.949 . S
C2949 H2944 0.950 . S
C2949 C2951 1.327 . S
C2949 C2955 1.429 . S
C2950 C2942 1.574 . S
C2950 H2945 0.949 . S
C2950 C2956 1.368 . S
C2951 C2935 1.349 . S
C2951 H2943 0.950 . S
C2951 C2949 1.327 . S
C2952 C2940 1.349 . S
C2952 H2946 0.950 . S
C2952 C2953 1.327 . S
C2953 H2947 0.950 . S
C2953 C2952 1.327 . S
C2953 C2957 1.429 . S
C2954 C2937 1.574 . S
C2954 H2948 0.949 . S
C2954 C2958 1.368 . S
C2955 C2936 1.429 . S
C2955 C2949 1.429 . S
C2955 C2956 1.523 . S
C2956 C2937 1.368 . S
C2956 C2950 1.368 . S
C2956 C2955 1.523 . S
C2957 C2941 1.429 . S
C2957 C2953 1.429 . S
C2957 C2958 1.523 . S
C2958 C2942 1.368 . S
C2958 C2954 1.368 . S
C2958 C2957 1.523 . S
H2959 C2934 0.950 . S
H2960 C2936 0.950 . S
H2961 C2937 0.949 . S
H2962 C2939 0.950 . S
H2963 C2941 0.950 . S
C2964 C2965 1.349 . S
C2964 C2966 1.327 . S
C2964 H2989 0.950 . S
C2965 C2964 1.349 . S
C2965 C2981 1.349 . S
C2966 C2964 1.327 . S
C2966 C2985 1.429 . S
C2966 H2990 0.950 . S
C2967 C2984 1.574 . S
C2967 C2986 1.368 . S
C2967 H2991 0.949 . S
H2968 C2972 0.949 . S
C2969 C2970 1.349 . S
C2969 C2971 1.327 . S
C2969 H2992 0.950 . S
C2970 C2969 1.349 . S
C2970 C2982 1.349 . S
C2971 C2969 1.327 . S
C2971 C2987 1.429 . S
C2971 H2993 0.950 . S
C2972 H2968 0.949 . S
C2972 C2980 1.574 . S
C2972 C2988 1.368 . S
H2973 C2981 0.950 . S
H2974 C2979 0.950 . S
H2975 C2980 0.949 . S
H2976 C2982 0.950 . S
H2977 C2983 0.950 . S
H2978 C2984 0.949 . S
C2979 H2974 0.950 . S
C2979 C2981 1.327 . S
C2979 C2985 1.429 . S
C2980 C2972 1.574 . S
C2980 H2975 0.949 . S
C2980 C2986 1.368 . S
C2981 C2965 1.349 . S
C2981 H2973 0.950 . S
C2981 C2979 1.327 . S
C2982 C2970 1.349 . S
C2982 H2976 0.950 . S
C2982 C2983 1.327 . S
C2983 H2977 0.950 . S
C2983 C2982 1.327 . S
C2983 C2987 1.429 . S
C2984 C2967 1.574 . S
C2984 H2978 0.949 . S
C2984 C2988 1.368 . S
C2985 C2966 1.429 . S
C2985 C2979 1.429 . S
C2985 C2986 1.523 . S
C2986 C2967 1.368 . S
C2986 C2980 1.368 . S
C2986 C2985 1.523 . S
C2987 C2971 1.429 . S
C2987 C2983 1.429 . S
C2987 C2988 1.523 . S
C2988 C2972 1.368 . S
C2988 C2984 1.368 . S
C2988 C2987 1.523 . S
H2989 C2964 0.950 . S
H2990 C2966 0.950 . S
H2991 C2967 0.949 . S
H2992 C2969 0.950 . S
H2993 C2971 0.950 . S
C2994 C2995 1.349 . S
C2994 C2996 1.327 . S
C2994 H3019 0.950 . S
C2995 C2994 1.349 . S
C2995 C3011 1.349 . S
C2996 C2994 1.327 . S
C2996 C3015 1.429 . S
C2996 H3020 0.950 . S
C2997 C3014 1.574 . S
C2997 C3016 1.368 . S
C2997 H3021 0.949 . S
H2998 C3002 0.949 . S
C2999 C3000 1.349 . S
C2999 C3001 1.327 . S
C2999 H3022 0.950 . S
C3000 C2999 1.349 . S
C3000 C3012 1.349 . S
C3001 C2999 1.327 . S
C3001 C3017 1.429 . S
C3001 H3023 0.950 . S
C3002 H2998 0.949 . S
C3002 C3010 1.574 . S
C3002 C3018 1.368 . S
H3003 C3011 0.950 . S
H3004 C3009 0.950 . S
H3005 C3010 0.949 . S
H3006 C3012 0.950 . S
H3007 C3013 0.950 . S
H3008 C3014 0.949 . S
C3009 H3004 0.950 . S
C3009 C3011 1.327 . S
C3009 C3015 1.429 . S
C3010 C3002 1.574 . S
C3010 H3005 0.949 . S
C3010 C3016 1.368 . S
C3011 C2995 1.349 . S
C3011 H3003 0.950 . S
C3011 C3009 1.327 . S
C3012 C3000 1.349 . S
C3012 H3006 0.950 . S
C3012 C3013 1.327 . S
C3013 H3007 0.950 . S
C3013 C3012 1.327 . S
C3013 C3017 1.429 . S
C3014 C2997 1.574 . S
C3014 H3008 0.949 . S
C3014 C3018 1.368 . S
C3015 C2996 1.429 . S
C3015 C3009 1.429 . S
C3015 C3016 1.523 . S
C3016 C2997 1.368 . S
C3016 C3010 1.368 . S
C3016 C3015 1.523 . S
C3017 C3001 1.429 . S
C3017 C3013 1.429 . S
C3017 C3018 1.523 . S
C3018 C3002 1.368 . S
C3018 C3014 1.368 . S
C3018 C3017 1.523 . S
H3019 C2994 0.950 . S
H3020 C2996 0.950 . S
H3021 C2997 0.949 . S
H3022 C2999 0.950 . S
H3023 C3001 0.950 . S
C3024 C3025 1.349 . S
C3024 C3026 1.327 . S
C3024 H3049 0.950 . S
C3025 C3024 1.349 . S
C3025 C3041 1.349 . S
C3026 C3024 1.327 . S
C3026 C3045 1.429 . S
C3026 H3050 0.950 . S
C3027 C3044 1.574 . S
C3027 C3046 1.368 . S
C3027 H3051 0.949 . S
H3028 C3032 0.949 . S
C3029 C3030 1.349 . S
C3029 C3031 1.327 . S
C3029 H3052 0.950 . S
C3030 C3029 1.349 . S
C3030 C3042 1.349 . S
C3031 C3029 1.327 . S
C3031 C3047 1.429 . S
C3031 H3053 0.950 . S
C3032 H3028 0.949 . S
C3032 C3040 1.574 . S
C3032 C3048 1.368 . S
H3033 C3041 0.950 . S
H3034 C3039 0.950 . S
H3035 C3040 0.949 . S
H3036 C3042 0.950 . S
H3037 C3043 0.950 . S
H3038 C3044 0.949 . S
C3039 H3034 0.950 . S
C3039 C3041 1.327 . S
C3039 C3045 1.429 . S
C3040 C3032 1.574 . S
C3040 H3035 0.949 . S
C3040 C3046 1.368 . S
C3041 C3025 1.349 . S
C3041 H3033 0.950 . S
C3041 C3039 1.327 . S
C3042 C3030 1.349 . S
C3042 H3036 0.950 . S
C3042 C3043 1.327 . S
C3043 H3037 0.950 . S
C3043 C3042 1.327 . S
C3043 C3047 1.429 . S
C3044 C3027 1.574 . S
C3044 H3038 0.949 . S
C3044 C3048 1.368 . S
C3045 C3026 1.429 . S
C3045 C3039 1.429 . S
C3045 C3046 1.523 . S
C3046 C3027 1.368 . S
C3046 C3040 1.368 . S
C3046 C3045 1.523 . S
C3047 C3031 1.429 . S
C3047 C3043 1.429 . S
C3047 C3048 1.523 . S
C3048 C3032 1.368 . S
C3048 C3044 1.368 . S
C3048 C3047 1.523 . S
H3049 C3024 0.950 . S
H3050 C3026 0.950 . S
H3051 C3027 0.949 . S
H3052 C3029 0.950 . S
H3053 C3031 0.950 . S
C3054 C3055 1.349 . S
C3054 C3056 1.327 . S
C3054 H3079 0.985 . S
C3055 C3054 1.349 . S
C3055 C3071 1.349 . S
C3056 C3054 1.327 . S
C3056 C3075 1.429 . S
C3056 H3080 0.950 . S
C3057 C3074 1.574 . S
C3057 C3076 1.368 . S
C3057 H3081 0.949 . S
H3058 C3062 0.949 . S
C3059 C3060 1.349 . S
C3059 C3061 1.327 . S
C3059 H3082 0.950 . S
C3060 C3059 1.349 . S
C3060 C3072 1.349 . S
C3061 C3059 1.327 . S
C3061 C3077 1.429 . S
C3061 H3083 0.950 . S
C3062 H3058 0.949 . S
C3062 C3070 1.574 . S
C3062 C3078 1.368 . S
H3063 C3071 0.950 . S
H3064 C3069 0.950 . S
H3065 C3070 0.949 . S
H3066 C3072 0.950 . S
H3067 C3073 0.950 . S
H3068 C3074 0.949 . S
C3069 H3064 0.950 . S
C3069 C3071 1.327 . S
C3069 C3075 1.429 . S
C3070 C3062 1.574 . S
C3070 H3065 0.949 . S
C3070 C3076 1.368 . S
C3071 C3055 1.349 . S
C3071 H3063 0.950 . S
C3071 C3069 1.327 . S
C3072 C3060 1.349 . S
C3072 H3066 0.950 . S
C3072 C3073 1.327 . S
C3073 H3067 0.950 . S
C3073 C3072 1.327 . S
C3073 C3077 1.429 . S
C3074 C3057 1.574 . S
C3074 H3068 0.949 . S
C3074 C3078 1.368 . S
C3075 C3056 1.429 . S
C3075 C3069 1.429 . S
C3075 C3076 1.523 . S
C3076 C3057 1.368 . S
C3076 C3070 1.368 . S
C3076 C3075 1.523 . S
C3077 C3061 1.429 . S
C3077 C3073 1.429 . S
C3077 C3078 1.523 . S
C3078 C3062 1.368 . S
C3078 C3074 1.368 . S
C3078 C3077 1.523 . S
H3079 C3054 0.985 . S
H3080 C3056 0.950 . S
H3081 C3057 0.949 . S
H3082 C3059 0.950 . S
H3083 C3061 0.950 . S
C3084 C3085 1.349 . S
C3084 C3086 1.327 1_455 S
C3084 H3109 0.950 . S
C3085 C3084 1.349 . S
C3085 C3101 1.346 1_455 S
C3086 C3084 1.327 1_655 S
C3086 C3105 1.429 . S
C3086 H3110 0.950 . S
C3087 C3104 1.574 . S
C3087 C3106 1.368 . S
C3087 H3111 0.949 . S
H3088 C3092 0.949 . S
C3089 C3090 1.349 . S
C3089 C3091 1.327 . S
C3089 H3112 0.950 . S
C3090 C3089 1.349 . S
C3090 C3102 1.349 . S
C3091 C3089 1.327 . S
C3091 C3107 1.429 . S
C3091 H3113 0.950 . S
C3092 H3088 0.949 . S
C3092 C3100 1.574 . S
C3092 C3108 1.368 . S
H3093 C3101 0.929 1_455 S
H3094 C3099 0.950 . S
H3095 C3100 0.949 . S
H3096 C3102 0.950 . S
H3097 C3103 0.950 . S
H3098 C3104 0.949 . S
C3099 H3094 0.950 . S
C3099 C3101 1.351 . S
C3099 C3105 1.429 . S
C3100 C3092 1.574 . S
C3100 H3095 0.949 . S
C3100 C3106 1.368 . S
C3101 C3085 1.346 1_655 S
C3101 H3093 0.929 1_655 S
C3101 C3099 1.351 . S
C3102 C3090 1.349 . S
C3102 H3096 0.950 . S
C3102 C3103 1.327 . S
C3103 H3097 0.950 . S
C3103 C3102 1.327 . S
C3103 C3107 1.429 . S
C3104 C3087 1.574 . S
C3104 H3098 0.949 . S
C3104 C3108 1.368 . S
C3105 C3086 1.429 . S
C3105 C3099 1.429 . S
C3105 C3106 1.523 . S
C3106 C3087 1.368 . S
C3106 C3100 1.368 . S
C3106 C3105 1.523 . S
C3107 C3091 1.429 . S
C3107 C3103 1.429 . S
C3107 C3108 1.523 . S
C3108 C3092 1.368 . S
C3108 C3104 1.368 . S
C3108 C3107 1.523 . S
H3109 C3084 0.950 . S
H3110 C3086 0.950 . S
H3111 C3087 0.949 . S
H3112 C3089 0.950 . S
H3113 C3091 0.950 . S
C3114 C3115 1.349 . S
C3114 C3116 1.327 . S
C3114 H3139 0.950 . S
C3115 C3114 1.349 . S
C3115 C3131 1.349 . S
C3116 C3114 1.327 . S
C3116 C3135 1.429 . S
C3116 H3140 0.950 . S
C3117 C3134 1.574 . S
C3117 C3136 1.368 . S
C3117 H3141 0.949 . S
H3118 C3122 0.949 . S
C3119 C3120 1.349 . S
C3119 C3121 1.327 . S
C3119 H3142 0.950 . S
C3120 C3119 1.349 . S
C3120 C3132 1.349 . S
C3121 C3119 1.327 . S
C3121 C3137 1.429 . S
C3121 H3143 0.950 . S
C3122 H3118 0.949 . S
C3122 C3130 1.574 . S
C3122 C3138 1.368 . S
H3123 C3131 0.950 . S
H3124 C3129 0.950 . S
H3125 C3130 0.949 . S
H3126 C3132 0.950 . S
H3127 C3133 0.950 . S
H3128 C3134 0.949 . S
C3129 H3124 0.950 . S
C3129 C3131 1.327 . S
C3129 C3135 1.429 . S
C3130 C3122 1.574 . S
C3130 H3125 0.949 . S
C3130 C3136 1.368 . S
C3131 C3115 1.349 . S
C3131 H3123 0.950 . S
C3131 C3129 1.327 . S
C3132 C3120 1.349 . S
C3132 H3126 0.950 . S
C3132 C3133 1.327 . S
C3133 H3127 0.950 . S
C3133 C3132 1.327 . S
C3133 C3137 1.429 . S
C3134 C3117 1.574 . S
C3134 H3128 0.949 . S
C3134 C3138 1.368 . S
C3135 C3116 1.429 . S
C3135 C3129 1.429 . S
C3135 C3136 1.523 . S
C3136 C3117 1.368 . S
C3136 C3130 1.368 . S
C3136 C3135 1.523 . S
C3137 C3121 1.429 . S
C3137 C3133 1.429 . S
C3137 C3138 1.523 . S
C3138 C3122 1.368 . S
C3138 C3134 1.368 . S
C3138 C3137 1.523 . S
H3139 C3114 0.950 . S
H3140 C3116 0.950 . S
H3141 C3117 0.949 . S
H3142 C3119 0.950 . S
H3143 C3121 0.950 . S
C3144 C3145 1.349 . S
C3144 C3146 1.327 . S
C3144 H3169 0.950 . S
C3145 C3144 1.349 . S
C3145 C3161 1.349 . S
C3146 C3144 1.327 . S
C3146 C3165 1.429 . S
C3146 H3170 0.950 . S
C3147 C3164 1.574 . S
C3147 C3166 1.368 . S
C3147 H3171 0.949 . S
H3148 C3152 0.949 . S
C3149 C3150 1.349 . S
C3149 C3151 1.327 . S
C3149 H3172 0.950 . S
C3150 C3149 1.349 . S
C3150 C3162 1.349 . S
C3151 C3149 1.327 . S
C3151 C3167 1.429 . S
C3151 H3173 0.950 . S
C3152 H3148 0.949 . S
C3152 C3160 1.574 . S
C3152 C3168 1.368 . S
H3153 C3161 0.950 . S
H3154 C3159 0.950 . S
H3155 C3160 0.949 . S
H3156 C3162 0.950 . S
H3157 C3163 0.950 . S
H3158 C3164 0.949 . S
C3159 H3154 0.950 . S
C3159 C3161 1.327 . S
C3159 C3165 1.429 . S
C3160 C3152 1.574 . S
C3160 H3155 0.949 . S
C3160 C3166 1.368 . S
C3161 C3145 1.349 . S
C3161 H3153 0.950 . S
C3161 C3159 1.327 . S
C3162 C3150 1.349 . S
C3162 H3156 0.950 . S
C3162 C3163 1.327 . S
C3163 H3157 0.950 . S
C3163 C3162 1.327 . S
C3163 C3167 1.429 . S
C3164 C3147 1.574 . S
C3164 H3158 0.949 . S
C3164 C3168 1.368 . S
C3165 C3146 1.429 . S
C3165 C3159 1.429 . S
C3165 C3166 1.523 . S
C3166 C3147 1.368 . S
C3166 C3160 1.368 . S
C3166 C3165 1.523 . S
C3167 C3151 1.429 . S
C3167 C3163 1.429 . S
C3167 C3168 1.523 . S
C3168 C3152 1.368 . S
C3168 C3164 1.368 . S
C3168 C3167 1.523 . S
H3169 C3144 0.950 . S
H3170 C3146 0.950 . S
H3171 C3147 0.949 . S
H3172 C3149 0.950 . S
H3173 C3151 0.950 . S
C3174 C3175 1.349 . S
C3174 C3176 1.327 . S
C3174 H3199 0.950 . S
C3175 C3174 1.349 . S
C3175 C3191 1.349 . S
C3176 C3174 1.327 . S
C3176 C3195 1.429 . S
C3176 H3200 0.950 . S
C3177 C3194 1.574 . S
C3177 C3196 1.368 . S
C3177 H3201 0.949 . S
H3178 C3182 0.949 . S
C3179 C3180 1.349 . S
C3179 C3181 1.327 . S
C3179 H3202 0.950 . S
C3180 C3179 1.349 . S
C3180 C3192 1.349 . S
C3181 C3179 1.327 . S
C3181 C3197 1.429 . S
C3181 H3203 0.950 . S
C3182 H3178 0.949 . S
C3182 C3190 1.574 . S
C3182 C3198 1.368 . S
H3183 C3191 0.950 . S
H3184 C3189 0.950 . S
H3185 C3190 0.949 . S
H3186 C3192 0.950 1_545 S
H3187 C3193 0.950 1_545 S
H3188 C3194 0.949 . S
C3189 H3184 0.950 . S
C3189 C3191 1.327 . S
C3189 C3195 1.429 . S
C3190 C3182 1.574 . S
C3190 H3185 0.949 . S
C3190 C3196 1.368 . S
C3191 C3175 1.349 . S
C3191 H3183 0.950 . S
C3191 C3189 1.327 . S
C3192 C3180 1.349 . S
C3192 H3186 0.950 1_565 S
C3192 C3193 1.327 . S
C3193 H3187 0.950 1_565 S
C3193 C3192 1.327 . S
C3193 C3197 1.429 . S
C3194 C3177 1.574 . S
C3194 H3188 0.949 . S
C3194 C3198 1.368 . S
C3195 C3176 1.429 . S
C3195 C3189 1.429 . S
C3195 C3196 1.523 . S
C3196 C3177 1.368 . S
C3196 C3190 1.368 . S
C3196 C3195 1.523 . S
C3197 C3181 1.429 . S
C3197 C3193 1.429 . S
C3197 C3198 1.523 . S
C3198 C3182 1.368 . S
C3198 C3194 1.368 . S
C3198 C3197 1.523 . S
H3199 C3174 0.950 . S
H3200 C3176 0.950 . S
H3201 C3177 0.949 . S
H3202 C3179 0.950 . S
H3203 C3181 0.950 . S
C3204 C3205 1.349 . S
C3204 C3206 1.327 . S
C3204 H3229 0.950 . S
C3205 C3204 1.349 . S
C3205 C3221 1.349 . S
C3206 C3204 1.327 . S
C3206 C3225 1.429 . S
C3206 H3230 0.950 1_565 S
C3207 C3224 1.574 . S
C3207 C3226 1.368 . S
C3207 H3231 0.949 . S
H3208 C3212 0.949 . S
C3209 C3210 1.341 1_565 S
C3209 C3211 1.327 . S
C3209 H3232 0.950 . S
C3210 C3209 1.341 1_545 S
C3210 C3222 1.351 . S
C3211 C3209 1.327 . S
C3211 C3227 1.429 . S
C3211 H3233 0.950 . S
C3212 H3208 0.949 . S
C3212 C3220 1.552 1_545 S
C3212 C3228 1.368 1_545 S
H3213 C3221 0.950 . S
H3214 C3219 0.950 . S
H3215 C3220 0.943 1_545 S
H3216 C3222 0.950 . S
H3217 C3223 0.950 . S
H3218 C3224 0.949 . S
C3219 H3214 0.950 . S
C3219 C3221 1.327 . S
C3219 C3225 1.429 . S
C3220 C3212 1.552 1_565 S
C3220 H3215 0.943 1_565 S
C3220 C3226 1.398 . S
C3221 C3205 1.349 . S
C3221 H3213 0.950 . S
C3221 C3219 1.327 . S
C3222 C3210 1.351 . S
C3222 H3216 0.950 . S
C3222 C3223 1.327 . S
C3223 H3217 0.950 . S
C3223 C3222 1.327 . S
C3223 C3227 1.429 1_545 S
C3224 C3207 1.574 . S
C3224 H3218 0.949 . S
C3224 C3228 1.368 . S
C3225 C3206 1.429 . S
C3225 C3219 1.429 . S
C3225 C3226 1.523 . S
C3226 C3207 1.368 . S
C3226 C3220 1.398 . S
C3226 C3225 1.523 . S
C3227 C3211 1.429 . S
C3227 C3223 1.429 1_565 S
C3227 C3228 1.523 . S
C3228 C3212 1.368 1_565 S
C3228 C3224 1.368 . S
C3228 C3227 1.523 . S
H3229 C3204 0.950 . S
H3230 C3206 0.950 1_545 S
H3231 C3207 0.949 . S
H3232 C3209 0.950 . S
H3233 C3211 0.950 . S
C3234 C3235 1.349 . S
C3234 C3236 1.327 . S
C3234 H3259 0.950 . S
C3235 C3234 1.349 . S
C3235 C3251 1.349 . S
C3236 C3234 1.327 . S
C3236 C3255 1.429 . S
C3236 H3260 0.950 . S
C3237 C3254 1.574 . S
C3237 C3256 1.368 . S
C3237 H3261 0.949 . S
H3238 C3242 0.949 . S
C3239 C3240 1.349 . S
C3239 C3241 1.327 . S
C3239 H3262 0.950 . S
C3240 C3239 1.349 . S
C3240 C3252 1.349 1_655 S
C3241 C3239 1.327 . S
C3241 C3257 1.429 1_655 S
C3241 H3263 0.950 . S
C3242 H3238 0.949 . S
C3242 C3250 1.574 . S
C3242 C3258 1.368 . S
H3243 C3251 0.950 . S
H3244 C3249 0.950 . S
H3245 C3250 0.949 . S
H3246 C3252 0.950 . S
H3247 C3253 0.950 . S
H3248 C3254 0.949 1_655 S
C3249 H3244 0.950 . S
C3249 C3251 1.327 . S
C3249 C3255 1.429 . S
C3250 C3242 1.574 . S
C3250 H3245 0.949 . S
C3250 C3256 1.368 . S
C3251 C3235 1.349 . S
C3251 H3243 0.950 . S
C3251 C3249 1.327 . S
C3252 C3240 1.349 1_455 S
C3252 H3246 0.950 . S
C3252 C3253 1.327 . S
C3253 H3247 0.950 . S
C3253 C3252 1.327 . S
C3253 C3257 1.429 . S
C3254 C3237 1.574 . S
C3254 H3248 0.949 1_455 S
C3254 C3258 1.368 . S
C3255 C3236 1.429 . S
C3255 C3249 1.429 . S
C3255 C3256 1.523 . S
C3256 C3237 1.368 . S
C3256 C3250 1.368 . S
C3256 C3255 1.523 . S
C3257 C3241 1.429 1_455 S
C3257 C3253 1.429 . S
C3257 C3258 1.523 . S
C3258 C3242 1.368 . S
C3258 C3254 1.368 . S
C3258 C3257 1.523 . S
H3259 C3234 0.950 . S
H3260 C3236 0.950 . S
H3261 C3237 0.949 . S
H3262 C3239 0.950 . S
H3263 C3241 0.950 . S
C3264 C3265 1.349 . S
C3264 C3266 1.327 . S
C3264 H3289 0.950 . S
C3265 C3264 1.349 . S
C3265 C3281 1.349 . S
C3266 C3264 1.327 . S
C3266 C3285 1.429 . S
C3266 H3290 0.950 . S
C3267 C3284 1.574 . S
C3267 C3286 1.368 . S
C3267 H3291 0.949 . S
H3268 C3272 0.949 . S
C3269 C3270 1.349 . S
C3269 C3271 1.327 . S
C3269 H3292 0.950 . S
C3270 C3269 1.349 . S
C3270 C3282 1.349 . S
C3271 C3269 1.327 . S
C3271 C3287 1.429 . S
C3271 H3293 0.950 . S
C3272 H3268 0.949 . S
C3272 C3280 1.574 . S
C3272 C3288 1.368 . S
H3273 C3281 0.950 . S
H3274 C3279 0.950 . S
H3275 C3280 0.949 . S
H3276 C3282 0.950 . S
H3277 C3283 0.950 . S
H3278 C3284 0.949 . S
C3279 H3274 0.950 . S
C3279 C3281 1.327 . S
C3279 C3285 1.429 . S
C3280 C3272 1.574 . S
C3280 H3275 0.949 . S
C3280 C3286 1.368 . S
C3281 C3265 1.349 . S
C3281 H3273 0.950 . S
C3281 C3279 1.327 . S
C3282 C3270 1.349 . S
C3282 H3276 0.950 . S
C3282 C3283 1.327 . S
C3283 H3277 0.950 . S
C3283 C3282 1.327 . S
C3283 C3287 1.429 . S
C3284 C3267 1.574 . S
C3284 H3278 0.949 . S
C3284 C3288 1.368 . S
C3285 C3266 1.429 . S
C3285 C3279 1.429 . S
C3285 C3286 1.523 . S
C3286 C3267 1.368 . S
C3286 C3280 1.368 . S
C3286 C3285 1.523 . S
C3287 C3271 1.429 . S
C3287 C3283 1.429 . S
C3287 C3288 1.523 . S
C3288 C3272 1.368 . S
C3288 C3284 1.368 . S
C3288 C3287 1.523 . S
H3289 C3264 0.950 . S
H3290 C3266 0.950 . S
H3291 C3267 0.949 . S
H3292 C3269 0.950 . S
H3293 C3271 0.950 . S
C3294 C3295 1.349 . S
C3294 C3296 1.327 . S
C3294 H3319 0.950 . S
C3295 C3294 1.349 . S
C3295 C3311 1.349 . S
C3296 C3294 1.327 . S
C3296 C3315 1.429 . S
C3296 H3320 0.950 . S
C3297 C3314 1.574 . S
C3297 C3316 1.368 . S
C3297 H3321 0.949 . S
H3298 C3302 0.949 . S
C3299 C3300 1.349 . S
C3299 C3301 1.327 . S
C3299 H3322 0.950 . S
C3300 C3299 1.349 . S
C3300 C3312 1.349 . S
C3301 C3299 1.327 . S
C3301 C3317 1.429 . S
C3301 H3323 0.950 . S
C3302 H3298 0.949 . S
C3302 C3310 1.574 . S
C3302 C3318 1.368 . S
H3303 C3311 0.950 . S
H3304 C3309 0.950 . S
H3305 C3310 0.949 . S
H3306 C3312 0.950 . S
H3307 C3313 0.950 . S
H3308 C3314 0.949 . S
C3309 H3304 0.950 . S
C3309 C3311 1.327 . S
C3309 C3315 1.429 . S
C3310 C3302 1.574 . S
C3310 H3305 0.949 . S
C3310 C3316 1.368 . S
C3311 C3295 1.349 . S
C3311 H3303 0.950 . S
C3311 C3309 1.327 . S
C3312 C3300 1.349 . S
C3312 H3306 0.950 . S
C3312 C3313 1.327 . S
C3313 H3307 0.950 . S
C3313 C3312 1.327 . S
C3313 C3317 1.429 . S
C3314 C3297 1.574 . S
C3314 H3308 0.949 . S
C3314 C3318 1.368 . S
C3315 C3296 1.429 . S
C3315 C3309 1.429 . S
C3315 C3316 1.523 . S
C3316 C3297 1.368 . S
C3316 C3310 1.368 . S
C3316 C3315 1.523 . S
C3317 C3301 1.429 . S
C3317 C3313 1.429 . S
C3317 C3318 1.523 . S
C3318 C3302 1.368 . S
C3318 C3314 1.368 . S
C3318 C3317 1.523 . S
H3319 C3294 0.950 . S
H3320 C3296 0.950 . S
H3321 C3297 0.949 . S
H3322 C3299 0.950 . S
H3323 C3301 0.950 . S
C3324 C3325 1.349 . S
C3324 C3326 1.327 . S
C3324 H3349 0.950 . S
C3325 C3324 1.349 . S
C3325 C3341 1.349 . S
C3326 C3324 1.327 . S
C3326 C3345 1.429 . S
C3326 H3350 0.950 . S
C3327 C3344 1.574 . S
C3327 C3346 1.368 . S
C3327 H3351 0.949 . S
H3328 C3332 0.949 . S
C3329 C3330 1.349 . S
C3329 C3331 1.327 . S
C3329 H3352 0.950 . S
C3330 C3329 1.349 . S
C3330 C3342 1.349 . S
C3331 C3329 1.327 . S
C3331 C3347 1.429 . S
C3331 H3353 0.950 . S
C3332 H3328 0.949 . S
C3332 C3340 1.574 . S
C3332 C3348 1.368 . S
H3333 C3341 0.950 . S
H3334 C3339 0.950 . S
H3335 C3340 0.949 . S
H3336 C3342 0.950 . S
H3337 C3343 0.950 . S
H3338 C3344 0.949 . S
C3339 H3334 0.950 . S
C3339 C3341 1.327 . S
C3339 C3345 1.429 . S
C3340 C3332 1.574 . S
C3340 H3335 0.949 . S
C3340 C3346 1.368 . S
C3341 C3325 1.349 . S
C3341 H3333 0.950 . S
C3341 C3339 1.327 . S
C3342 C3330 1.349 . S
C3342 H3336 0.950 . S
C3342 C3343 1.327 . S
C3343 H3337 0.950 . S
C3343 C3342 1.327 . S
C3343 C3347 1.429 . S
C3344 C3327 1.574 . S
C3344 H3338 0.949 . S
C3344 C3348 1.368 . S
C3345 C3326 1.429 . S
C3345 C3339 1.429 . S
C3345 C3346 1.523 . S
C3346 C3327 1.368 . S
C3346 C3340 1.368 . S
C3346 C3345 1.523 . S
C3347 C3331 1.429 . S
C3347 C3343 1.429 . S
C3347 C3348 1.523 . S
C3348 C3332 1.368 . S
C3348 C3344 1.368 . S
C3348 C3347 1.523 . S
H3349 C3324 0.950 . S
H3350 C3326 0.950 . S
H3351 C3327 0.949 . S
H3352 C3329 0.950 . S
H3353 C3331 0.950 . S
C3354 C3355 1.349 . S
C3354 C3356 1.327 . S
C3354 H3379 0.950 . S
C3355 C3354 1.349 . S
C3355 C3371 1.349 . S
C3356 C3354 1.327 . S
C3356 C3375 1.429 . S
C3356 H3380 0.950 . S
C3357 C3374 1.574 . S
C3357 C3376 1.368 . S
C3357 H3381 0.949 . S
H3358 C3362 0.949 . S
C3359 C3360 1.349 . S
C3359 C3361 1.327 . S
C3359 H3382 0.950 . S
C3360 C3359 1.349 . S
C3360 C3372 1.349 . S
C3361 C3359 1.327 . S
C3361 C3377 1.429 . S
C3361 H3383 0.950 . S
C3362 H3358 0.949 . S
C3362 C3370 1.574 . S
C3362 C3378 1.368 . S
H3363 C3371 0.950 . S
H3364 C3369 0.950 . S
H3365 C3370 0.949 . S
H3366 C3372 0.950 . S
H3367 C3373 0.950 . S
H3368 C3374 0.949 . S
C3369 H3364 0.950 . S
C3369 C3371 1.327 . S
C3369 C3375 1.429 . S
C3370 C3362 1.574 . S
C3370 H3365 0.949 . S
C3370 C3376 1.368 . S
C3371 C3355 1.349 . S
C3371 H3363 0.950 . S
C3371 C3369 1.327 . S
C3372 C3360 1.349 . S
C3372 H3366 0.950 . S
C3372 C3373 1.327 . S
C3373 H3367 0.950 . S
C3373 C3372 1.327 . S
C3373 C3377 1.429 . S
C3374 C3357 1.574 . S
C3374 H3368 0.949 . S
C3374 C3378 1.368 . S
C3375 C3356 1.429 . S
C3375 C3369 1.429 . S
C3375 C3376 1.523 . S
C3376 C3357 1.368 . S
C3376 C3370 1.368 . S
C3376 C3375 1.523 . S
C3377 C3361 1.429 . S
C3377 C3373 1.429 . S
C3377 C3378 1.523 . S
C3378 C3362 1.368 . S
C3378 C3374 1.368 . S
C3378 C3377 1.523 . S
H3379 C3354 0.950 . S
H3380 C3356 0.950 . S
H3381 C3357 0.949 . S
H3382 C3359 0.950 . S
H3383 C3361 0.950 . S
C3384 C3385 1.349 . S
C3384 C3386 1.327 . S
C3384 H3409 0.950 . S
C3385 C3384 1.349 . S
C3385 C3401 1.349 . S
C3386 C3384 1.327 . S
C3386 C3405 1.429 . S
C3386 H3410 0.950 . S
C3387 C3404 1.574 . S
C3387 C3406 1.368 . S
C3387 H3411 0.949 . S
H3388 C3392 0.949 . S
C3389 C3390 1.349 . S
C3389 C3391 1.327 . S
C3389 H3412 0.950 . S
C3390 C3389 1.349 . S
C3390 C3402 1.349 . S
C3391 C3389 1.327 . S
C3391 C3407 1.429 . S
C3391 H3413 0.950 . S
C3392 H3388 0.949 . S
C3392 C3400 1.574 . S
C3392 C3408 1.368 . S
H3393 C3401 0.950 . S
H3394 C3399 0.950 . S
H3395 C3400 0.949 . S
H3396 C3402 0.950 . S
H3397 C3403 0.950 . S
H3398 C3404 0.949 . S
C3399 H3394 0.950 . S
C3399 C3401 1.327 . S
C3399 C3405 1.429 . S
C3400 C3392 1.574 . S
C3400 H3395 0.949 . S
C3400 C3406 1.368 . S
C3401 C3385 1.349 . S
C3401 H3393 0.950 . S
C3401 C3399 1.327 . S
C3402 C3390 1.349 . S
C3402 H3396 0.950 . S
C3402 C3403 1.327 . S
C3403 H3397 0.950 . S
C3403 C3402 1.327 . S
C3403 C3407 1.429 . S
C3404 C3387 1.574 . S
C3404 H3398 0.949 . S
C3404 C3408 1.368 . S
C3405 C3386 1.429 . S
C3405 C3399 1.429 . S
C3405 C3406 1.523 . S
C3406 C3387 1.368 . S
C3406 C3400 1.368 . S
C3406 C3405 1.523 . S
C3407 C3391 1.429 . S
C3407 C3403 1.429 . S
C3407 C3408 1.523 . S
C3408 C3392 1.368 . S
C3408 C3404 1.368 . S
C3408 C3407 1.523 . S
H3409 C3384 0.950 . S
H3410 C3386 0.950 . S
H3411 C3387 0.949 . S
H3412 C3389 0.950 . S
H3413 C3391 0.950 . S
C3414 C3415 1.349 . S
C3414 C3416 1.327 . S
C3414 H3439 0.950 . S
C3415 C3414 1.349 . S
C3415 C3431 1.349 . S
C3416 C3414 1.327 . S
C3416 C3435 1.429 . S
C3416 H3440 0.950 . S
C3417 C3434 1.574 . S
C3417 C3436 1.368 . S
C3417 H3441 0.949 . S
H3418 C3422 0.930 1_455 S
C3419 C3420 1.349 . S
C3419 C3421 1.327 . S
C3419 H3442 0.950 . S
C3420 C3419 1.349 . S
C3420 C3432 1.349 . S
C3421 C3419 1.327 . S
C3421 C3437 1.429 . S
C3421 H3443 0.950 . S
C3422 H3418 0.930 1_655 S
C3422 C3430 1.574 . S
C3422 C3438 1.368 . S
H3423 C3431 0.950 . S
H3424 C3429 0.950 . S
H3425 C3430 0.949 . S
H3426 C3432 0.950 1_455 S
H3427 C3433 0.950 1_455 S
H3428 C3434 0.949 . S
C3429 H3424 0.950 . S
C3429 C3431 1.327 . S
C3429 C3435 1.429 . S
C3430 C3422 1.574 . S
C3430 H3425 0.949 . S
C3430 C3436 1.368 . S
C3431 C3415 1.349 . S
C3431 H3423 0.950 . S
C3431 C3429 1.327 . S
C3432 C3420 1.349 . S
C3432 H3426 0.950 1_655 S
C3432 C3433 1.327 . S
C3433 H3427 0.950 1_655 S
C3433 C3432 1.327 . S
C3433 C3437 1.429 . S
C3434 C3417 1.574 . S
C3434 H3428 0.949 . S
C3434 C3438 1.368 . S
C3435 C3416 1.429 . S
C3435 C3429 1.429 . S
C3435 C3436 1.523 . S
C3436 C3417 1.368 . S
C3436 C3430 1.368 . S
C3436 C3435 1.523 . S
C3437 C3421 1.429 . S
C3437 C3433 1.429 . S
C3437 C3438 1.523 . S
C3438 C3422 1.368 . S
C3438 C3434 1.368 . S
C3438 C3437 1.523 . S
H3439 C3414 0.950 . S
H3440 C3416 0.950 . S
H3441 C3417 0.949 . S
H3442 C3419 0.950 . S
H3443 C3421 0.950 . S
C3444 C3445 1.349 . S
C3444 C3446 1.327 . S
C3444 H3469 0.950 . S
C3445 C3444 1.349 . S
C3445 C3461 1.349 . S
C3446 C3444 1.327 . S
C3446 C3465 1.429 . S
C3446 H3470 0.950 . S
C3447 C3464 1.574 . S
C3447 C3466 1.368 . S
C3447 H3471 0.949 . S
H3448 C3452 0.949 . S
C3449 C3450 1.349 . S
C3449 C3451 1.327 . S
C3449 H3472 0.950 . S
C3450 C3449 1.349 . S
C3450 C3462 1.349 . S
C3451 C3449 1.327 . S
C3451 C3467 1.429 . S
C3451 H3473 0.950 . S
C3452 H3448 0.949 . S
C3452 C3460 1.574 . S
C3452 C3468 1.368 . S
H3453 C3461 0.950 . S
H3454 C3459 0.950 . S
H3455 C3460 0.949 . S
H3456 C3462 0.950 . S
H3457 C3463 0.950 . S
H3458 C3464 0.949 . S
C3459 H3454 0.950 . S
C3459 C3461 1.327 . S
C3459 C3465 1.429 . S
C3460 C3452 1.574 . S
C3460 H3455 0.949 . S
C3460 C3466 1.368 . S
C3461 C3445 1.349 . S
C3461 H3453 0.950 . S
C3461 C3459 1.327 . S
C3462 C3450 1.349 . S
C3462 H3456 0.950 . S
C3462 C3463 1.327 . S
C3463 H3457 0.950 . S
C3463 C3462 1.327 . S
C3463 C3467 1.429 . S
C3464 C3447 1.574 . S
C3464 H3458 0.949 . S
C3464 C3468 1.368 . S
C3465 C3446 1.429 . S
C3465 C3459 1.429 . S
C3465 C3466 1.523 . S
C3466 C3447 1.368 . S
C3466 C3460 1.368 . S
C3466 C3465 1.523 . S
C3467 C3451 1.429 . S
C3467 C3463 1.429 . S
C3467 C3468 1.523 . S
C3468 C3452 1.368 . S
C3468 C3464 1.368 . S
C3468 C3467 1.523 . S
H3469 C3444 0.950 . S
H3470 C3446 0.950 . S
H3471 C3447 0.949 . S
H3472 C3449 0.950 . S
H3473 C3451 0.950 . S
C3474 C3475 1.349 . S
C3474 C3476 1.327 . S
C3474 H3499 0.950 . S
C3475 C3474 1.349 . S
C3475 C3491 1.349 . S
C3476 C3474 1.327 . S
C3476 C3495 1.429 . S
C3476 H3500 0.950 . S
C3477 C3494 1.574 . S
C3477 C3496 1.368 . S
C3477 H3501 0.949 . S
H3478 C3482 0.949 . S
C3479 C3480 1.349 . S
C3479 C3481 1.327 . S
C3479 H3502 0.950 . S
C3480 C3479 1.349 . S
C3480 C3492 1.349 . S
C3481 C3479 1.327 . S
C3481 C3497 1.429 . S
C3481 H3503 0.950 . S
C3482 H3478 0.949 . S
C3482 C3490 1.574 . S
C3482 C3498 1.368 . S
H3483 C3491 0.950 . S
H3484 C3489 0.950 . S
H3485 C3490 0.949 . S
H3486 C3492 0.950 . S
H3487 C3493 0.950 . S
H3488 C3494 0.949 . S
C3489 H3484 0.950 . S
C3489 C3491 1.327 . S
C3489 C3495 1.429 . S
C3490 C3482 1.574 . S
C3490 H3485 0.949 . S
C3490 C3496 1.368 . S
C3491 C3475 1.349 . S
C3491 H3483 0.950 . S
C3491 C3489 1.327 . S
C3492 C3480 1.349 . S
C3492 H3486 0.950 . S
C3492 C3493 1.327 . S
C3493 H3487 0.950 . S
C3493 C3492 1.327 . S
C3493 C3497 1.429 . S
C3494 C3477 1.574 . S
C3494 H3488 0.949 . S
C3494 C3498 1.368 . S
C3495 C3476 1.429 . S
C3495 C3489 1.429 . S
C3495 C3496 1.523 . S
C3496 C3477 1.368 . S
C3496 C3490 1.368 . S
C3496 C3495 1.523 . S
C3497 C3481 1.429 . S
C3497 C3493 1.429 . S
C3497 C3498 1.523 . S
C3498 C3482 1.368 . S
C3498 C3494 1.368 . S
C3498 C3497 1.523 . S
H3499 C3474 0.950 . S
H3500 C3476 0.950 . S
H3501 C3477 0.949 . S
H3502 C3479 0.950 . S
H3503 C3481 0.950 . S
C3504 C3505 1.349 . S
C3504 C3506 1.327 . S
C3504 H3529 0.950 . S
C3505 C3504 1.349 . S
C3505 C3521 1.349 . S
C3506 C3504 1.327 . S
C3506 C3525 1.429 . S
C3506 H3530 0.950 . S
C3507 C3524 1.574 . S
C3507 C3526 1.368 . S
C3507 H3531 0.949 . S
H3508 C3512 0.949 . S
C3509 C3510 1.349 . S
C3509 C3511 1.327 . S
C3509 H3532 0.950 . S
C3510 C3509 1.349 . S
C3510 C3522 1.349 . S
C3511 C3509 1.327 . S
C3511 C3527 1.429 . S
C3511 H3533 0.950 . S
C3512 H3508 0.949 . S
C3512 C3520 1.574 . S
C3512 C3528 1.368 . S
H3513 C3521 0.950 . S
H3514 C3519 0.950 . S
H3515 C3520 0.949 . S
H3516 C3522 0.950 . S
H3517 C3523 0.950 . S
H3518 C3524 0.949 . S
C3519 H3514 0.950 . S
C3519 C3521 1.327 . S
C3519 C3525 1.429 . S
C3520 C3512 1.574 . S
C3520 H3515 0.949 . S
C3520 C3526 1.368 . S
C3521 C3505 1.349 . S
C3521 H3513 0.950 . S
C3521 C3519 1.327 . S
C3522 C3510 1.349 . S
C3522 H3516 0.950 . S
C3522 C3523 1.327 . S
C3523 H3517 0.950 . S
C3523 C3522 1.327 . S
C3523 C3527 1.429 . S
C3524 C3507 1.574 . S
C3524 H3518 0.949 . S
C3524 C3528 1.368 . S
C3525 C3506 1.429 . S
C3525 C3519 1.429 . S
C3525 C3526 1.523 . S
C3526 C3507 1.368 . S
C3526 C3520 1.368 . S
C3526 C3525 1.523 . S
C3527 C3511 1.429 . S
C3527 C3523 1.429 . S
C3527 C3528 1.523 . S
C3528 C3512 1.368 . S
C3528 C3524 1.368 . S
C3528 C3527 1.523 . S
H3529 C3504 0.950 . S
H3530 C3506 0.950 . S
H3531 C3507 0.949 . S
H3532 C3509 0.950 . S
H3533 C3511 0.950 . S
C3534 C3535 1.349 . S
C3534 C3536 1.327 . S
C3534 H3559 0.950 . S
C3535 C3534 1.349 . S
C3535 C3551 1.349 . S
C3536 C3534 1.327 . S
C3536 C3555 1.429 . S
C3536 H3560 0.950 . S
C3537 C3554 1.574 . S
C3537 C3556 1.368 . S
C3537 H3561 0.949 . S
H3538 C3542 0.949 . S
C3539 C3540 1.349 . S
C3539 C3541 1.327 . S
C3539 H3562 0.950 . S
C3540 C3539 1.349 . S
C3540 C3552 1.349 . S
C3541 C3539 1.327 . S
C3541 C3557 1.429 . S
C3541 H3563 0.950 . S
C3542 H3538 0.949 . S
C3542 C3550 1.574 . S
C3542 C3558 1.368 . S
H3543 C3551 0.950 . S
H3544 C3549 0.950 . S
H3545 C3550 0.949 . S
H3546 C3552 0.950 . S
H3547 C3553 0.950 . S
H3548 C3554 0.949 . S
C3549 H3544 0.950 . S
C3549 C3551 1.327 . S
C3549 C3555 1.429 . S
C3550 C3542 1.574 . S
C3550 H3545 0.949 . S
C3550 C3556 1.368 . S
C3551 C3535 1.349 . S
C3551 H3543 0.950 . S
C3551 C3549 1.327 . S
C3552 C3540 1.349 . S
C3552 H3546 0.950 . S
C3552 C3553 1.327 . S
C3553 H3547 0.950 . S
C3553 C3552 1.327 . S
C3553 C3557 1.429 . S
C3554 C3537 1.574 . S
C3554 H3548 0.949 . S
C3554 C3558 1.368 . S
C3555 C3536 1.429 . S
C3555 C3549 1.429 . S
C3555 C3556 1.523 . S
C3556 C3537 1.368 . S
C3556 C3550 1.368 . S
C3556 C3555 1.523 . S
C3557 C3541 1.429 . S
C3557 C3553 1.429 . S
C3557 C3558 1.523 . S
C3558 C3542 1.368 . S
C3558 C3554 1.368 . S
C3558 C3557 1.523 . S
H3559 C3534 0.950 . S
H3560 C3536 0.950 . S
H3561 C3537 0.949 . S
H3562 C3539 0.950 . S
H3563 C3541 0.950 . S
C3564 C3565 1.349 . S
C3564 C3566 1.327 . S
C3564 H3589 0.950 . S
C3565 C3564 1.349 . S
C3565 C3581 1.349 . S
C3566 C3564 1.327 . S
C3566 C3585 1.429 . S
C3566 H3590 0.950 . S
C3567 C3584 1.574 . S
C3567 C3586 1.368 . S
C3567 H3591 0.949 . S
H3568 C3572 0.949 . S
C3569 C3570 1.349 . S
C3569 C3571 1.327 . S
C3569 H3592 0.950 . S
C3570 C3569 1.349 . S
C3570 C3582 1.349 . S
C3571 C3569 1.327 . S
C3571 C3587 1.429 . S
C3571 H3593 0.950 . S
C3572 H3568 0.949 . S
C3572 C3580 1.574 . S
C3572 C3588 1.368 . S
H3573 C3581 0.950 . S
H3574 C3579 0.950 . S
H3575 C3580 0.949 . S
H3576 C3582 0.950 . S
H3577 C3583 0.950 . S
H3578 C3584 0.949 . S
C3579 H3574 0.950 . S
C3579 C3581 1.327 . S
C3579 C3585 1.429 . S
C3580 C3572 1.574 . S
C3580 H3575 0.949 . S
C3580 C3586 1.368 . S
C3581 C3565 1.349 . S
C3581 H3573 0.950 . S
C3581 C3579 1.327 . S
C3582 C3570 1.349 . S
C3582 H3576 0.950 . S
C3582 C3583 1.327 . S
C3583 H3577 0.950 . S
C3583 C3582 1.327 . S
C3583 C3587 1.429 . S
C3584 C3567 1.574 . S
C3584 H3578 0.949 . S
C3584 C3588 1.368 . S
C3585 C3566 1.429 . S
C3585 C3579 1.429 . S
C3585 C3586 1.523 . S
C3586 C3567 1.368 . S
C3586 C3580 1.368 . S
C3586 C3585 1.523 . S
C3587 C3571 1.429 . S
C3587 C3583 1.429 . S
C3587 C3588 1.523 . S
C3588 C3572 1.368 . S
C3588 C3584 1.368 . S
C3588 C3587 1.523 . S
H3589 C3564 0.950 . S
H3590 C3566 0.950 . S
H3591 C3567 0.949 . S
H3592 C3569 0.950 . S
H3593 C3571 0.950 . S
C3594 C3595 1.349 . S
C3594 C3596 1.327 . S
C3594 H3619 0.950 . S
C3595 C3594 1.349 . S
C3595 C3611 1.349 . S
C3596 C3594 1.327 . S
C3596 C3615 1.429 . S
C3596 H3620 0.950 . S
C3597 C3614 1.574 . S
C3597 C3616 1.368 . S
C3597 H3621 0.949 . S
H3598 C3602 0.949 . S
C3599 C3600 1.349 . S
C3599 C3601 1.327 . S
C3599 H3622 0.950 . S
C3600 C3599 1.349 . S
C3600 C3612 1.349 . S
C3601 C3599 1.327 . S
C3601 C3617 1.429 . S
C3601 H3623 0.950 . S
C3602 H3598 0.949 . S
C3602 C3610 1.574 . S
C3602 C3618 1.368 . S
H3603 C3611 0.950 . S
H3604 C3609 0.950 . S
H3605 C3610 0.949 . S
H3606 C3612 0.950 . S
H3607 C3613 0.950 . S
H3608 C3614 0.949 . S
C3609 H3604 0.950 . S
C3609 C3611 1.327 . S
C3609 C3615 1.429 . S
C3610 C3602 1.574 . S
C3610 H3605 0.949 . S
C3610 C3616 1.368 . S
C3611 C3595 1.349 . S
C3611 H3603 0.950 . S
C3611 C3609 1.327 . S
C3612 C3600 1.349 . S
C3612 H3606 0.950 . S
C3612 C3613 1.327 . S
C3613 H3607 0.950 . S
C3613 C3612 1.327 . S
C3613 C3617 1.429 . S
C3614 C3597 1.574 . S
C3614 H3608 0.949 . S
C3614 C3618 1.368 . S
C3615 C3596 1.429 . S
C3615 C3609 1.429 . S
C3615 C3616 1.523 . S
C3616 C3597 1.368 . S
C3616 C3610 1.368 . S
C3616 C3615 1.523 . S
C3617 C3601 1.429 . S
C3617 C3613 1.429 . S
C3617 C3618 1.523 . S
C3618 C3602 1.368 . S
C3618 C3614 1.368 . S
C3618 C3617 1.523 . S
H3619 C3594 0.950 . S
H3620 C3596 0.950 . S
H3621 C3597 0.949 . S
H3622 C3599 0.950 . S
H3623 C3601 0.950 . S
C3624 C3625 1.349 . S
C3624 C3626 1.327 . S
C3624 H3649 0.950 1_455 S
C3625 C3624 1.349 . S
C3625 C3641 1.349 . S
C3626 C3624 1.327 . S
C3626 C3645 1.429 . S
C3626 H3650 0.950 . S
C3627 C3644 1.574 . S
C3627 C3646 1.368 . S
C3627 H3651 0.949 . S
H3628 C3632 0.949 . S
C3629 C3630 1.349 . S
C3629 C3631 1.327 . S
C3629 H3652 0.950 . S
C3630 C3629 1.349 . S
C3630 C3642 1.349 . S
C3631 C3629 1.327 . S
C3631 C3647 1.429 . S
C3631 H3653 0.950 . S
C3632 H3628 0.949 . S
C3632 C3640 1.574 . S
C3632 C3648 1.368 . S
H3633 C3641 0.950 . S
H3634 C3639 0.950 . S
H3635 C3640 0.949 . S
H3636 C3642 0.950 . S
H3637 C3643 0.950 . S
H3638 C3644 0.949 . S
C3639 H3634 0.950 . S
C3639 C3641 1.327 . S
C3639 C3645 1.429 . S
C3640 C3632 1.574 . S
C3640 H3635 0.949 . S
C3640 C3646 1.368 . S
C3641 C3625 1.349 . S
C3641 H3633 0.950 . S
C3641 C3639 1.327 . S
C3642 C3630 1.349 . S
C3642 H3636 0.950 . S
C3642 C3643 1.327 . S
C3643 H3637 0.950 . S
C3643 C3642 1.327 . S
C3643 C3647 1.429 . S
C3644 C3627 1.574 . S
C3644 H3638 0.949 . S
C3644 C3648 1.368 . S
C3645 C3626 1.429 . S
C3645 C3639 1.429 . S
C3645 C3646 1.523 . S
C3646 C3627 1.368 . S
C3646 C3640 1.368 . S
C3646 C3645 1.523 . S
C3647 C3631 1.429 . S
C3647 C3643 1.429 . S
C3647 C3648 1.523 . S
C3648 C3632 1.368 . S
C3648 C3644 1.368 . S
C3648 C3647 1.523 . S
H3649 C3624 0.950 1_655 S
H3650 C3626 0.950 . S
H3651 C3627 0.949 . S
H3652 C3629 0.950 . S
H3653 C3631 0.950 . S
C3654 C3655 1.349 . S
C3654 C3656 1.327 . S
C3654 H3679 0.950 . S
C3655 C3654 1.349 . S
C3655 C3671 1.349 . S
C3656 C3654 1.327 . S
C3656 C3675 1.429 . S
C3656 H3680 0.950 . S
C3657 C3674 1.574 . S
C3657 C3676 1.368 . S
C3657 H3681 0.949 . S
H3658 C3662 0.949 1_455 S
C3659 C3660 1.349 . S
C3659 C3661 1.327 . S
C3659 H3682 0.950 . S
C3660 C3659 1.349 . S
C3660 C3672 1.349 1_655 S
C3661 C3659 1.327 . S
C3661 C3677 1.429 . S
C3661 H3683 0.950 . S
C3662 H3658 0.949 1_655 S
C3662 C3670 1.574 . S
C3662 C3678 1.368 . S
H3663 C3671 0.950 . S
H3664 C3669 0.950 . S
H3665 C3670 0.949 . S
H3666 C3672 0.950 . S
H3667 C3673 0.950 . S
H3668 C3674 0.949 . S
C3669 H3664 0.950 . S
C3669 C3671 1.327 . S
C3669 C3675 1.429 . S
C3670 C3662 1.574 . S
C3670 H3665 0.949 . S
C3670 C3676 1.368 . S
C3671 C3655 1.349 . S
C3671 H3663 0.950 . S
C3671 C3669 1.327 . S
C3672 C3660 1.349 1_455 S
C3672 H3666 0.950 . S
C3672 C3673 1.327 . S
C3673 H3667 0.950 . S
C3673 C3672 1.327 . S
C3673 C3677 1.429 1_455 S
C3674 C3657 1.574 . S
C3674 H3668 0.949 . S
C3674 C3678 1.368 . S
C3675 C3656 1.429 . S
C3675 C3669 1.429 . S
C3675 C3676 1.523 . S
C3676 C3657 1.368 . S
C3676 C3670 1.368 . S
C3676 C3675 1.523 . S
C3677 C3661 1.429 . S
C3677 C3673 1.429 1_655 S
C3677 C3678 1.523 . S
C3678 C3662 1.368 . S
C3678 C3674 1.368 . S
C3678 C3677 1.523 . S
H3679 C3654 0.950 . S
H3680 C3656 0.950 . S
H3681 C3657 0.949 . S
H3682 C3659 0.950 . S
H3683 C3661 0.950 . S
C3684 C3685 1.349 . S
C3684 C3686 1.327 . S
C3684 H3709 0.950 . S
C3685 C3684 1.349 . S
C3685 C3701 1.349 . S
C3686 C3684 1.327 . S
C3686 C3705 1.429 . S
C3686 H3710 0.950 . S
C3687 C3704 1.574 . S
C3687 C3706 1.368 . S
C3687 H3711 0.949 . S
H3688 C3692 0.949 . S
C3689 C3690 1.349 . S
C3689 C3691 1.327 . S
C3689 H3712 0.950 . S
C3690 C3689 1.349 . S
C3690 C3702 1.349 . S
C3691 C3689 1.327 . S
C3691 C3707 1.429 . S
C3691 H3713 0.950 . S
C3692 H3688 0.949 . S
C3692 C3700 1.574 . S
C3692 C3708 1.368 . S
H3693 C3701 0.950 . S
H3694 C3699 0.950 . S
H3695 C3700 0.949 . S
H3696 C3702 0.950 . S
H3697 C3703 0.950 . S
H3698 C3704 0.949 . S
C3699 H3694 0.950 . S
C3699 C3701 1.327 . S
C3699 C3705 1.429 . S
C3700 C3692 1.574 . S
C3700 H3695 0.949 . S
C3700 C3706 1.368 . S
C3701 C3685 1.349 . S
C3701 H3693 0.950 . S
C3701 C3699 1.327 . S
C3702 C3690 1.349 . S
C3702 H3696 0.950 . S
C3702 C3703 1.327 . S
C3703 H3697 0.950 . S
C3703 C3702 1.327 . S
C3703 C3707 1.429 . S
C3704 C3687 1.574 . S
C3704 H3698 0.949 . S
C3704 C3708 1.368 . S
C3705 C3686 1.429 . S
C3705 C3699 1.429 . S
C3705 C3706 1.523 . S
C3706 C3687 1.368 . S
C3706 C3700 1.368 . S
C3706 C3705 1.523 . S
C3707 C3691 1.429 . S
C3707 C3703 1.429 . S
C3707 C3708 1.523 . S
C3708 C3692 1.368 . S
C3708 C3704 1.368 . S
C3708 C3707 1.523 . S
H3709 C3684 0.950 . S
H3710 C3686 0.950 . S
H3711 C3687 0.949 . S
H3712 C3689 0.950 . S
H3713 C3691 0.950 . S
C3714 C3715 1.349 . S
C3714 C3716 1.327 . S
C3714 H3739 0.950 . S
C3715 C3714 1.349 . S
C3715 C3731 1.349 . S
C3716 C3714 1.327 . S
C3716 C3735 1.429 . S
C3716 H3740 0.950 . S
C3717 C3734 1.572 . S
C3717 C3736 1.368 . S
C3717 H3741 0.949 1_545 S
H3718 C3722 0.949 . S
C3719 C3720 1.349 1_565 S
C3719 C3721 1.327 . S
C3719 H3742 0.950 . S
C3720 C3719 1.349 1_545 S
C3720 C3732 1.349 . S
C3721 C3719 1.327 . S
C3721 C3737 1.429 1_565 S
C3721 H3743 0.950 . S
C3722 H3718 0.949 . S
C3722 C3730 1.574 . S
C3722 C3738 1.368 . S
H3723 C3731 0.950 . S
H3724 C3729 0.950 . S
H3725 C3730 0.949 . S
H3726 C3732 0.950 . S
H3727 C3733 0.950 . S
H3728 C3734 0.944 1_565 S
C3729 H3724 0.950 . S
C3729 C3731 1.327 . S
C3729 C3735 1.429 . S
C3730 C3722 1.574 . S
C3730 H3725 0.949 . S
C3730 C3736 1.368 . S
C3731 C3715 1.349 . S
C3731 H3723 0.950 . S
C3731 C3729 1.327 . S
C3732 C3720 1.349 . S
C3732 H3726 0.950 . S
C3732 C3733 1.327 . S
C3733 H3727 0.950 . S
C3733 C3732 1.327 . S
C3733 C3737 1.429 . S
C3734 C3717 1.572 . S
C3734 H3728 0.944 1_545 S
C3734 C3738 1.375 . S
C3735 C3716 1.429 . S
C3735 C3729 1.429 . S
C3735 C3736 1.523 . S
C3736 C3717 1.368 . S
C3736 C3730 1.368 . S
C3736 C3735 1.523 . S
C3737 C3721 1.429 1_545 S
C3737 C3733 1.429 . S
C3737 C3738 1.523 . S
C3738 C3722 1.368 . S
C3738 C3734 1.375 . S
C3738 C3737 1.523 . S
H3739 C3714 0.950 . S
H3740 C3716 0.950 . S
H3741 C3717 0.949 1_565 S
H3742 C3719 0.950 . S
H3743 C3721 0.950 . S
C1585 C9 1.096 . S
C1590 C981 1.054 . S
C1615 C19 1.585 . S
C1620 C1061 1.545 . S
C1650 C1129 1.327 . S
C1645 C33 1.362 . S
C1675 C37 1.750 . S
C1680 C1209 1.750 . S
C1705 C5 1.478 . S
C1710 C1283 1.474 . S
C1735 C23 1.648 . S
C1740 C1351 1.573 . S
C1765 C47 1.034 . S
C1770 C1277 1.003 . S
C1800 C1357 1.499 . S
C1795 C65 1.495 . S
C1830 C1203 1.259 . S
C1825 C75 1.263 . S
C1855 C79 1.623 . S
C1860 C1135 1.649 . S
C1890 C987 1.494 . S
C1885 C51 1.469 . S
C1915 C61 1.472 . S
C1920 C1055 1.451 . S
C1945 C93 1.458 . S
C1950 C1425 1.357 . S
C1975 C103 1.631 . S
C1980 C1505 1.583 . S
C2010 C1573 1.503 . S
C2005 C117 1.579 . S
C2035 C121 1.965 . S
C2040 C321 1.920 . S
C2065 C89 1.759 . S
C2070 C395 1.707 . S
C2095 C107 1.683 . S
C2100 C463 1.607 . S
C2125 C131 1.099 . S
C2130 C389 1.073 . S
C2155 C149 1.541 . S
C2160 C469 1.543 . S
C2190 C315 1.377 . S
C2185 C159 1.396 . S
C2220 C1579 1.903 . S
C2215 C163 1.901 . S
C2250 C1431 1.610 . S
C2245 C135 1.615 . S
C2280 C1499 1.501 . S
C2275 C145 1.520 . S
C2305 C177 1.319 . S
C2310 C537 1.229 . S
C2335 C187 1.640 . S
C2340 C617 1.592 . S
C2365 C201 1.634 . S
C2370 C685 1.557 . S
C2395 C205 2.094 . S
C2400 C765 2.045 . S
C2430 C839 1.675 . S
C2425 C173 1.727 . S
C2460 C907 1.638 . S
C2455 C191 1.720 . S
C2490 C833 1.218 . S
C2485 C215 1.251 . S
C2520 C913 1.534 . S
C2515 C233 1.535 . S
C2545 C243 1.329 . S
C2550 C759 1.311 . S
C2580 C691 1.758 . S
C2575 C247 1.754 . S
C2605 C219 1.660 . S
C2610 C543 1.657 . S
C2640 C611 1.481 . S
C2635 C229 1.498 . S
C2670 C291 1.966 . S
C2665 C11 2.004 . S
C2695 C14 1.437 . S
C2700 C365 1.421 . S
C2730 C451 1.566 . S
C2725 C28 1.573 . S
C2760 C525 1.226 . S
C2755 C39 1.267 . S
C2790 C587 1.645 . S
C2785 C0 1.663 1_556 S
C2820 C673 1.468 . S
C2815 C25 1.479 . S
C2845 C42 2.250 . S
C2850 C661 2.155 . S
C2875 C67 1.651 . S
C2880 C513 1.573 . S
C2905 C70 1.666 . S
C2910 C599 1.619 . S
C2935 C81 1.392 . S
C2940 C377 1.343 . S
C2970 C439 1.779 . S
C2965 C53 1.865 . S
C2995 C56 1.771 . S
C3000 C303 1.719 . S
C3030 C735 1.908 . S
C3025 C95 1.943 . S
C3055 C98 1.628 1_545 S
C3060 C809 1.615 . S
C3085 C112 1.656 . S
C3090 C895 1.643 . S
C3120 C969 0.958 . S
C3115 C123 0.957 . S
C3145 C84 1.579 . S
C3150 C1031 1.564 . S
C3175 C109 1.326 . S
C3180 C1117 1.330 . S
C3205 C126 1.913 . S
C3210 C1105 1.866 . S
C3235 C151 1.365 . S
C3240 C957 1.336 . S
C3270 C1043 1.576 . S
C3265 C154 1.620 . S
C3295 C165 1.357 . S
C3300 C821 1.301 . S
C3325 C137 1.889 1_545 S
C3330 C883 1.811 . S
C3360 C747 1.854 . S
C3355 C140 1.907 1_655 S
C3390 C1179 1.764 . S
C3385 C179 1.787 . S
C3415 C182 1.269 . S
C3420 C1253 1.270 . S
C3445 C196 1.529 . S
C3450 C1339 1.521 . S
C3480 C1413 1.191 . S
C3475 C207 1.210 . S
C3510 C1475 1.694 . S
C3505 C168 1.707 1_565 S
C3535 C193 1.565 1_455 S
C3540 C1561 1.616 . S
C3565 C210 2.200 . S
C3570 C1549 2.107 . S
C3595 C235 1.825 1_565 S
C3600 C1401 1.745 . S
C3630 C1487 1.692 . S
C3625 C238 1.742 1_455 S
C3660 C1265 0.951 . S
C3655 C249 0.958 . S
C3690 C1327 1.691 . S
C3685 C221 1.767 . S
C3715 C224 1.484 . S
C3720 C1191 1.481 1_545 S
