# Generated by pormake.
# Topology ctn, (3,4)-cn, num edge types: 1
# Building blocks:
#     Node 0, Type 0, BuildingBlock: BETDAH_clean_linker_0, # of connection points: 3
#     Node 1, Type 0, BuildingBlock: BETDAH_clean_linker_0, # of connection points: 3
#     Node 2, Type 0, BuildingBlock: BETDAH_clean_linker_0, # of connection points: 3
#     Node 3, Type 0, BuildingBlock: BETDAH_clean_linker_0, # of connection points: 3
#     Node 4, Type 0, BuildingBlock: BETDAH_clean_linker_0, # of connection points: 3
#     Node 5, Type 0, BuildingBlock: BETDAH_clean_linker_0, # of connection points: 3
#     Node 6, Type 0, BuildingBlock: BETDAH_clean_linker_0, # of connection points: 3
#     Node 7, Type 0, BuildingBlock: BETDAH_clean_linker_0, # of connection points: 3
#     Node 8, Type 0, BuildingBlock: BETDAH_clean_linker_0, # of connection points: 3
#     Node 9, Type 0, BuildingBlock: BETDAH_clean_linker_0, # of connection points: 3
#     Node 10, Type 0, BuildingBlock: BETDAH_clean_linker_0, # of connection points: 3
#     Node 11, Type 0, BuildingBlock: BETDAH_clean_linker_0, # of connection points: 3
#     Node 12, Type 0, BuildingBlock: BETDAH_clean_linker_0, # of connection points: 3
#     Node 13, Type 0, BuildingBlock: BETDAH_clean_linker_0, # of connection points: 3
#     Node 14, Type 0, BuildingBlock: BETDAH_clean_linker_0, # of connection points: 3
#     Node 15, Type 0, BuildingBlock: BETDAH_clean_linker_0, # of connection points: 3
#     Node 16, Type 1, BuildingBlock: QUQFOY_clean_sbu_1, # of connection points: 4
#     Node 17, Type 1, BuildingBlock: QUQFOY_clean_sbu_1, # of connection points: 4
#     Node 18, Type 1, BuildingBlock: QUQFOY_clean_sbu_1, # of connection points: 4
#     Node 19, Type 1, BuildingBlock: QUQFOY_clean_sbu_1, # of connection points: 4
#     Node 20, Type 1, BuildingBlock: QUQFOY_clean_sbu_1, # of connection points: 4
#     Node 21, Type 1, BuildingBlock: QUQFOY_clean_sbu_1, # of connection points: 4
#     Node 22, Type 1, BuildingBlock: QUQFOY_clean_sbu_1, # of connection points: 4
#     Node 23, Type 1, BuildingBlock: QUQFOY_clean_sbu_1, # of connection points: 4
#     Node 24, Type 1, BuildingBlock: QUQFOY_clean_sbu_1, # of connection points: 4
#     Node 25, Type 1, BuildingBlock: QUQFOY_clean_sbu_1, # of connection points: 4
#     Node 26, Type 1, BuildingBlock: QUQFOY_clean_sbu_1, # of connection points: 4
#     Node 27, Type 1, BuildingBlock: QUQFOY_clean_sbu_1, # of connection points: 4
#     Edge 28, Type (0, 1), BuildingBlock: EZIPEK_clean_linker_0, # of connection points: 2
#     Edge 29, Type (0, 1), BuildingBlock: EZIPEK_clean_linker_0, # of connection points: 2
#     Edge 30, Type (0, 1), BuildingBlock: EZIPEK_clean_linker_0, # of connection points: 2
#     Edge 31, Type (0, 1), BuildingBlock: EZIPEK_clean_linker_0, # of connection points: 2
#     Edge 32, Type (0, 1), BuildingBlock: EZIPEK_clean_linker_0, # of connection points: 2
#     Edge 33, Type (0, 1), BuildingBlock: EZIPEK_clean_linker_0, # of connection points: 2
#     Edge 34, Type (0, 1), BuildingBlock: EZIPEK_clean_linker_0, # of connection points: 2
#     Edge 35, Type (0, 1), BuildingBlock: EZIPEK_clean_linker_0, # of connection points: 2
#     Edge 36, Type (0, 1), BuildingBlock: EZIPEK_clean_linker_0, # of connection points: 2
#     Edge 37, Type (0, 1), BuildingBlock: EZIPEK_clean_linker_0, # of connection points: 2
#     Edge 38, Type (0, 1), BuildingBlock: EZIPEK_clean_linker_0, # of connection points: 2
#     Edge 39, Type (0, 1), BuildingBlock: EZIPEK_clean_linker_0, # of connection points: 2
#     Edge 40, Type (0, 1), BuildingBlock: EZIPEK_clean_linker_0, # of connection points: 2
#     Edge 41, Type (0, 1), BuildingBlock: EZIPEK_clean_linker_0, # of connection points: 2
#     Edge 42, Type (0, 1), BuildingBlock: EZIPEK_clean_linker_0, # of connection points: 2
#     Edge 43, Type (0, 1), BuildingBlock: EZIPEK_clean_linker_0, # of connection points: 2
#     Edge 44, Type (0, 1), BuildingBlock: EZIPEK_clean_linker_0, # of connection points: 2
#     Edge 45, Type (0, 1), BuildingBlock: EZIPEK_clean_linker_0, # of connection points: 2
#     Edge 46, Type (0, 1), BuildingBlock: EZIPEK_clean_linker_0, # of connection points: 2
#     Edge 47, Type (0, 1), BuildingBlock: EZIPEK_clean_linker_0, # of connection points: 2
#     Edge 48, Type (0, 1), BuildingBlock: EZIPEK_clean_linker_0, # of connection points: 2
#     Edge 49, Type (0, 1), BuildingBlock: EZIPEK_clean_linker_0, # of connection points: 2
#     Edge 50, Type (0, 1), BuildingBlock: EZIPEK_clean_linker_0, # of connection points: 2
#     Edge 51, Type (0, 1), BuildingBlock: EZIPEK_clean_linker_0, # of connection points: 2
#     Edge 52, Type (0, 1), BuildingBlock: EZIPEK_clean_linker_0, # of connection points: 2
#     Edge 53, Type (0, 1), BuildingBlock: EZIPEK_clean_linker_0, # of connection points: 2
#     Edge 54, Type (0, 1), BuildingBlock: EZIPEK_clean_linker_0, # of connection points: 2
#     Edge 55, Type (0, 1), BuildingBlock: EZIPEK_clean_linker_0, # of connection points: 2
#     Edge 56, Type (0, 1), BuildingBlock: EZIPEK_clean_linker_0, # of connection points: 2
#     Edge 57, Type (0, 1), BuildingBlock: EZIPEK_clean_linker_0, # of connection points: 2
#     Edge 58, Type (0, 1), BuildingBlock: EZIPEK_clean_linker_0, # of connection points: 2
#     Edge 59, Type (0, 1), BuildingBlock: EZIPEK_clean_linker_0, # of connection points: 2
#     Edge 60, Type (0, 1), BuildingBlock: EZIPEK_clean_linker_0, # of connection points: 2
#     Edge 61, Type (0, 1), BuildingBlock: EZIPEK_clean_linker_0, # of connection points: 2
#     Edge 62, Type (0, 1), BuildingBlock: EZIPEK_clean_linker_0, # of connection points: 2
#     Edge 63, Type (0, 1), BuildingBlock: EZIPEK_clean_linker_0, # of connection points: 2
#     Edge 64, Type (0, 1), BuildingBlock: EZIPEK_clean_linker_0, # of connection points: 2
#     Edge 65, Type (0, 1), BuildingBlock: EZIPEK_clean_linker_0, # of connection points: 2
#     Edge 66, Type (0, 1), BuildingBlock: EZIPEK_clean_linker_0, # of connection points: 2
#     Edge 67, Type (0, 1), BuildingBlock: EZIPEK_clean_linker_0, # of connection points: 2
#     Edge 68, Type (0, 1), BuildingBlock: EZIPEK_clean_linker_0, # of connection points: 2
#     Edge 69, Type (0, 1), BuildingBlock: EZIPEK_clean_linker_0, # of connection points: 2
#     Edge 70, Type (0, 1), BuildingBlock: EZIPEK_clean_linker_0, # of connection points: 2
#     Edge 71, Type (0, 1), BuildingBlock: EZIPEK_clean_linker_0, # of connection points: 2
#     Edge 72, Type (0, 1), BuildingBlock: EZIPEK_clean_linker_0, # of connection points: 2
#     Edge 73, Type (0, 1), BuildingBlock: EZIPEK_clean_linker_0, # of connection points: 2
#     Edge 74, Type (0, 1), BuildingBlock: EZIPEK_clean_linker_0, # of connection points: 2
#     Edge 75, Type (0, 1), BuildingBlock: EZIPEK_clean_linker_0, # of connection points: 2
# Relax obj value: 0.076
# Max RMSD: 0.182
# Mean RMSD: 0.116
data_MOF--net-ctn--node1-QUQFOY_clean_sbu_1--node2-BETDAH_clean_linker_0--edge1-EZIPEK_clean_linker_0
_symmetry_space_group_name_H-M    P1
_symmetry_Int_Tables_number       1
_symmetry_cell_setting            triclinic
loop_
_symmetry_equiv_pos_as_xyz
'x, y, z'
_cell_length_a     39.395652
_cell_length_b     39.18555
_cell_length_c     40.200896
_cell_angle_alpha  103.06725
_cell_angle_beta   90.190258
_cell_angle_gamma 100.79513
loop_
_atom_site_label
_atom_site_type_symbol
_atom_site_fract_x
_atom_site_fract_y
_atom_site_fract_z
_atom_type_partial_charge
H0 H 0.06492 0.03665 0.1074 0.0
H1 H 0.11736 0.07536 0.0259 0.0
H2 H 0.02895 0.11745 0.06731 0.0
C3 C 0.06734 0.05411 0.08975 0.0
C4 C 0.04409 0.07737 0.09034 0.0
C5 C 0.09373 0.0533 0.06655 0.0
C6 C 0.09688 0.07593 0.04386 0.0
C7 C 0.07367 0.09895 0.04362 0.0
C8 C 0.04698 0.09965 0.06696 0.0
N9 N 0.07876 0.12094 0.01968 0.0
C10 C 0.05666 0.14228 0.01211 0.0
H11 H 0.348 0.70575 0.30191 0.0
H12 H 0.33286 0.78855 0.25198 0.0
H13 H 0.2504 0.69891 0.25082 0.0
C14 C 0.33207 0.7162 0.28608 0.0
C15 C 0.29821 0.69828 0.27655 0.0
C16 C 0.34448 0.74899 0.27782 0.0
C17 C 0.32347 0.76285 0.25782 0.0
C18 C 0.28939 0.74441 0.24775 0.0
C19 C 0.27695 0.7125 0.2576 0.0
N20 N 0.26586 0.75823 0.23017 0.0
C21 C 0.27508 0.78089 0.20833 0.0
H22 H 0.03437 0.46996 0.11273 0.0
H23 H 0.96422 0.52349 0.17743 0.0
H24 H 0.93738 0.48028 0.07062 0.0
C25 C 0.01031 0.47971 0.11614 0.0
C26 C 0.9862 0.47183 0.08839 0.0
C27 C 0.00254 0.49788 0.14866 0.0
C28 C 0.97089 0.50971 0.1525 0.0
C29 C 0.94858 0.50577 0.12415 0.0
C30 C 0.95577 0.48583 0.09216 0.0
N31 N 0.91896 0.52173 0.12888 0.0
C32 C 0.90348 0.53328 0.10341 0.0
H33 H 0.78934 0.83724 0.18171 0.0
H34 H 0.74203 0.7455 0.21855 0.0
H35 H 0.76232 0.84952 0.28676 0.0
C36 C 0.77776 0.82579 0.20213 0.0
C37 C 0.77722 0.8476 0.23489 0.0
C38 C 0.76496 0.78896 0.19605 0.0
C39 C 0.75141 0.77405 0.22295 0.0
C40 C 0.74929 0.79587 0.25538 0.0
C41 C 0.76222 0.83276 0.26135 0.0
N42 N 0.73618 0.77981 0.2821 0.0
C43 C 0.71033 0.79143 0.30253 0.0
H44 H 0.08259 0.04966 0.41829 0.0
H45 H 0.08386 0.97472 0.48164 0.0
H46 H 0.99172 0.97065 0.42204 0.0
C47 C 0.06938 0.02748 0.42826 0.0
C48 C 0.03498 0.01193 0.41744 0.0
C49 C 0.08737 0.01349 0.45058 0.0
C50 C 0.07002 0.98539 0.46427 0.0
C51 C 0.03514 0.97044 0.45445 0.0
C52 C 0.0183 0.98299 0.43028 0.0
N53 N 0.01638 0.94202 0.46735 0.0
C54 C 0.02325 0.93537 0.49899 0.0
H55 H 0.29449 0.75036 0.86959 0.0
H56 H 0.20595 0.78118 0.83098 0.0
H57 H 0.24579 0.6928 0.77168 0.0
C58 C 0.27475 0.74645 0.84951 0.0
C59 C 0.27338 0.71879 0.82004 0.0
C60 C 0.24952 0.76785 0.85393 0.0
C61 C 0.22472 0.76387 0.8276 0.0
C62 C 0.22393 0.73725 0.79749 0.0
C63 C 0.24735 0.71409 0.79449 0.0
N64 N 0.19987 0.7328 0.76983 0.0
C65 C 0.1801 0.75785 0.7667 0.0
H66 H 0.92672 0.59872 0.5646 0.0
H67 H 0.03497 0.60366 0.54628 0.0
H68 H 0.9653 0.50205 0.52818 0.0
C69 C 0.94799 0.58545 0.55594 0.0
C70 C 0.94213 0.54824 0.54571 0.0
C71 C 0.98146 0.60551 0.55649 0.0
C72 C 0.00896 0.58826 0.54545 0.0
C73 C 0.00304 0.55084 0.53521 0.0
C74 C 0.96975 0.53094 0.53581 0.0
N75 N 0.03045 0.5327 0.52525 0.0
C76 C 0.05187 0.54086 0.49975 0.0
H77 H 0.87327 0.76307 0.82377 0.0
H78 H 0.8029 0.81176 0.77617 0.0
H79 H 0.76603 0.749 0.84818 0.0
C80 C 0.84766 0.76874 0.82096 0.0
C81 C 0.82063 0.7547 0.83961 0.0
C82 C 0.84126 0.78929 0.79794 0.0
C83 C 0.80797 0.79642 0.7943 0.0
C84 C 0.78077 0.78156 0.81225 0.0
C85 C 0.78718 0.76053 0.83448 0.0
N86 N 0.74642 0.7859 0.80717 0.0
C87 C 0.73846 0.81853 0.80561 0.0
H88 H 0.37215 0.2594 0.30946 0.0
H89 H 0.30938 0.31135 0.2566 0.0
H90 H 0.26315 0.24889 0.32565 0.0
C91 C 0.34737 0.26606 0.30469 0.0
C92 C 0.31823 0.2527 0.3212 0.0
C93 C 0.34426 0.28723 0.28133 0.0
C94 C 0.31203 0.29561 0.27508 0.0
C95 C 0.28274 0.28148 0.29092 0.0
C96 C 0.28591 0.25988 0.31362 0.0
N97 N 0.24951 0.28683 0.28272 0.0
C98 C 0.24198 0.32074 0.28766 0.0
H99 H 0.53762 0.9669 0.60599 0.0
H100 H 0.50782 0.06431 0.65854 0.0
H101 H 0.47808 0.02052 0.55193 0.0
C102 C 0.52428 0.9887 0.60583 0.0
C103 C 0.50774 0.99062 0.57557 0.0
C104 C 0.52451 0.01528 0.63565 0.0
C105 C 0.50755 0.04363 0.63544 0.0
C106 C 0.49029 0.04558 0.6056 0.0
C107 C 0.49066 0.01907 0.57544 0.0
N108 N 0.47342 0.07481 0.60686 0.0
C109 C 0.45041 0.07687 0.58143 0.0
H110 H 0.2922 0.33583 0.67264 0.0
H111 H 0.21762 0.24602 0.68759 0.0
H112 H 0.2328 0.3458 0.76277 0.0
C113 C 0.27265 0.32415 0.68789 0.0
C114 C 0.26415 0.34491 0.71876 0.0
C115 C 0.25549 0.2887 0.67614 0.0
C116 C 0.23075 0.27358 0.69634 0.0
C117 C 0.22252 0.29373 0.72763 0.0
C118 C 0.23891 0.3298 0.73866 0.0
N119 N 0.19827 0.27644 0.74745 0.0
C120 C 0.18011 0.2939 0.77333 0.0
H121 H 0.83325 0.20996 0.80741 0.0
H122 H 0.84414 0.27201 0.73097 0.0
H123 H 0.75996 0.18225 0.72187 0.0
C124 C 0.824 0.21521 0.78396 0.0
C125 C 0.79414 0.19356 0.76654 0.0
C126 C 0.84218 0.24338 0.77115 0.0
C127 C 0.8299 0.25041 0.74093 0.0
C128 C 0.80015 0.22803 0.72297 0.0
C129 C 0.78273 0.19958 0.73579 0.0
N130 N 0.78818 0.2315 0.69087 0.0
C131 C 0.78914 0.26354 0.68128 0.0
H132 H 0.55451 0.52824 0.60086 0.0
H133 H 0.60717 0.56591 0.51896 0.0
H134 H 0.52153 0.61173 0.56262 0.0
C135 C 0.55735 0.5459 0.58338 0.0
C136 C 0.53521 0.57036 0.58474 0.0
C137 C 0.58334 0.5443 0.55977 0.0
C138 C 0.58702 0.56713 0.53727 0.0
C139 C 0.5649 0.59133 0.53779 0.0
C140 C 0.53873 0.593 0.56167 0.0
N141 N 0.57046 0.61338 0.51394 0.0
C142 C 0.55027 0.63726 0.50828 0.0
H143 H 0.574 0.54773 0.91693 0.0
H144 H 0.58407 0.47174 0.97691 0.0
H145 H 0.49206 0.45721 0.91334 0.0
C146 C 0.56331 0.52368 0.92535 0.0
C147 C 0.53062 0.50404 0.91248 0.0
C148 C 0.58299 0.51156 0.94779 0.0
C149 C 0.56888 0.48092 0.95942 0.0
C150 C 0.53566 0.46165 0.94739 0.0
C151 C 0.51729 0.47268 0.9232 0.0
N152 N 0.52018 0.43063 0.95833 0.0
C153 C 0.52877 0.42317 0.98912 0.0
H154 H 0.79212 0.2426 0.361 0.0
H155 H 0.73862 0.30871 0.31654 0.0
H156 H 0.77999 0.22441 0.2516 0.0
C157 C 0.78238 0.2494 0.33858 0.0
C158 C 0.78839 0.23043 0.30584 0.0
C159 C 0.76398 0.27732 0.34235 0.0
C160 C 0.75171 0.2863 0.31334 0.0
C161 C 0.75694 0.26685 0.28047 0.0
C162 C 0.77566 0.23928 0.27693 0.0
N163 N 0.74397 0.27443 0.25053 0.0
C164 C 0.7174 0.29323 0.25004 0.0
H165 H 0.44456 0.09185 0.07351 0.0
H166 H 0.55202 0.08992 0.05596 0.0
H167 H 0.4774 0.9916 0.03931 0.0
C168 C 0.46495 0.07703 0.06558 0.0
C169 C 0.45709 0.0398 0.05606 0.0
C170 C 0.49915 0.09521 0.06586 0.0
C171 C 0.52547 0.07598 0.05558 0.0
C172 C 0.51754 0.03853 0.04603 0.0
C173 C 0.48346 0.02052 0.0467 0.0
N174 N 0.54361 0.01864 0.03568 0.0
C175 C 0.56213 0.02308 0.00725 0.0
O176 O 0.26328 0.85729 0.00955 0.0
Cd177 Cd 0.27736 0.88778 0.05812 0.0
Cd178 Cd 0.24312 0.93603 0.03179 0.0
O179 O 0.23733 0.89429 0.98903 0.0
O180 O 0.2989 0.85532 0.07962 0.0
O181 O 0.25347 0.87729 0.1001 0.0
C182 C 0.27612 0.85792 0.10242 0.0
C183 C 0.1967 0.96484 0.04691 0.0
C184 C 0.248 0.86502 0.98516 0.0
C185 C 0.31865 0.95952 0.05325 0.0
O186 O 0.29186 0.96736 0.04155 0.0
O187 O 0.31765 0.93008 0.06172 0.0
O188 O 0.21387 0.96866 0.0204 0.0
O189 O 0.20537 0.94415 0.06496 0.0
O190 O 0.22638 0.55713 0.33433 0.0
Cd191 Cd 0.19069 0.51448 0.34213 0.0
Cd192 Cd 0.14473 0.54235 0.30875 0.0
O193 O 0.19092 0.57202 0.2998 0.0
O194 O 0.21705 0.47917 0.35197 0.0
O195 O 0.18209 0.46903 0.30581 0.0
C196 C 0.20337 0.45816 0.32373 0.0
C197 C 0.1028 0.52643 0.26345 0.0
C198 C 0.22065 0.57597 0.31388 0.0
C199 C 0.13233 0.54047 0.38163 0.0
O200 O 0.12524 0.5532 0.35663 0.0
O201 O 0.15641 0.52276 0.38034 0.0
O202 O 0.11434 0.55911 0.27887 0.0
O203 O 0.11547 0.50238 0.27384 0.0
O204 O 0.78935 0.68825 0.96487 0.0
Cd205 Cd 0.76603 0.66767 0.00383 0.0
Cd206 Cd 0.79818 0.61273 0.97644 0.0
O207 O 0.81674 0.64449 0.94302 0.0
O208 O 0.75005 0.70799 0.03532 0.0
O209 O 0.78763 0.67851 0.0513 0.0
C210 C 0.76926 0.70298 0.0591 0.0
C211 C 0.8335 0.59365 0.01169 0.0
C212 C 0.80863 0.67435 0.94257 0.0
C213 C 0.72086 0.59589 0.9768 0.0
O214 O 0.74817 0.58392 0.96825 0.0
O215 O 0.72241 0.62852 0.99126 0.0
O216 O 0.82906 0.57845 0.97955 0.0
O217 O 0.81928 0.62083 0.02344 0.0
O218 O 0.95532 0.03206 0.28561 0.0
Cd219 Cd 0.92644 0.03226 0.24272 0.0
Cd220 Cd 0.88834 0.06498 0.29056 0.0
O221 O 0.93074 0.06936 0.32275 0.0
O222 O 0.95642 0.02189 0.20317 0.0
O223 O 0.93656 0.07224 0.21784 0.0
C224 C 0.95472 0.05276 0.19788 0.0
C225 C 0.8624 0.11414 0.29304 0.0
C226 C 0.95342 0.04991 0.31594 0.0
C227 C 0.8584 0.98974 0.25234 0.0
O228 O 0.85625 0.01515 0.27774 0.0
O229 O 0.88339 0.99221 0.2326 0.0
O230 O 0.85859 0.09654 0.31667 0.0
O231 O 0.88152 0.10428 0.26798 0.0
O232 O 0.28827 0.18434 0.44819 0.0
Cd233 Cd 0.27055 0.16353 0.48891 0.0
Cd234 Cd 0.30379 0.11042 0.45904 0.0
O235 O 0.31476 0.14097 0.42301 0.0
O236 O 0.25059 0.20131 0.51959 0.0
O237 O 0.29565 0.18131 0.53507 0.0
C238 C 0.27338 0.20183 0.54282 0.0
C239 C 0.34768 0.10102 0.49227 0.0
C240 C 0.30551 0.17057 0.42383 0.0
C241 C 0.22832 0.08874 0.46719 0.0
O242 O 0.25566 0.0777 0.4569 0.0
O243 O 0.22923 0.12156 0.48031 0.0
O244 O 0.34047 0.08206 0.46148 0.0
O245 O 0.33033 0.12571 0.504 0.0
O246 O 0.44938 0.52458 0.78091 0.0
Cd247 Cd 0.42037 0.52531 0.7383 0.0
Cd248 Cd 0.38211 0.55838 0.78713 0.0
O249 O 0.42207 0.55739 0.81982 0.0
O250 O 0.45005 0.51568 0.69845 0.0
O251 O 0.43008 0.5659 0.71419 0.0
C252 C 0.44806 0.54669 0.6937 0.0
C253 C 0.35792 0.60993 0.79695 0.0
C254 C 0.44594 0.53964 0.81191 0.0
C255 C 0.35061 0.48455 0.74548 0.0
O256 O 0.34788 0.51052 0.77006 0.0
O257 O 0.37709 0.48553 0.7276 0.0
O258 O 0.35086 0.58658 0.81511 0.0
O259 O 0.37963 0.60432 0.77329 0.0
O260 O 0.75925 0.35454 0.50211 0.0
Cd261 Cd 0.77045 0.38633 0.5506 0.0
Cd262 Cd 0.73376 0.42981 0.52197 0.0
O263 O 0.73167 0.38864 0.47921 0.0
O264 O 0.79444 0.35564 0.57201 0.0
O265 O 0.74803 0.37491 0.59308 0.0
C266 C 0.77186 0.35679 0.59501 0.0
C267 C 0.68544 0.45529 0.53721 0.0
C268 C 0.74439 0.36069 0.4766 0.0
C269 C 0.8082 0.4589 0.54449 0.0
O270 O 0.78068 0.46432 0.53182 0.0
O271 O 0.80897 0.43033 0.55405 0.0
O272 O 0.70177 0.45971 0.51036 0.0
O273 O 0.69573 0.43536 0.55519 0.0
O274 O 0.71817 0.05352 0.82118 0.0
Cd275 Cd 0.68668 0.01163 0.8354 0.0
Cd276 Cd 0.63443 0.03991 0.81066 0.0
O277 O 0.67611 0.07941 0.80859 0.0
O278 O 0.71784 0.98058 0.84547 0.0
O279 O 0.67682 0.96284 0.80386 0.0
C280 C 0.70135 0.95577 0.82104 0.0
C281 C 0.59953 0.02292 0.76105 0.0
C282 C 0.70804 0.07895 0.81186 0.0
C283 C 0.62893 0.0287 0.88154 0.0
O284 O 0.6138 0.03592 0.85679 0.0
O285 O 0.65863 0.02046 0.87868 0.0
O286 O 0.59797 0.05171 0.78352 0.0
O287 O 0.61967 0.00245 0.76747 0.0
O288 O 0.98721 0.33585 0.96447 0.0
Cd289 Cd 0.9893 0.28886 0.92971 0.0
Cd290 Cd 0.02744 0.33733 0.89783 0.0
O291 O 0.02781 0.37223 0.94481 0.0
O292 O 0.97426 0.25022 0.95486 0.0
O293 O 0.02694 0.26213 0.93593 0.0
C294 C 0.00518 0.24379 0.95229 0.0
C295 C 0.07711 0.33042 0.86835 0.0
C296 C 0.00636 0.36643 0.96739 0.0
C297 C 0.9591 0.29716 0.86451 0.0
O298 O 0.98303 0.32434 0.86666 0.0
O299 O 0.95842 0.27712 0.88544 0.0
O300 O 0.06395 0.35854 0.87033 0.0
O301 O 0.06329 0.30707 0.88495 0.0
O302 O 0.50179 0.84274 0.46495 0.0
Cd303 Cd 0.49761 0.79402 0.43083 0.0
Cd304 Cd 0.53708 0.83628 0.39336 0.0
O305 O 0.53427 0.87671 0.4355 0.0
O306 O 0.47994 0.75756 0.45774 0.0
O307 O 0.53125 0.76214 0.43494 0.0
C308 C 0.50888 0.74677 0.45298 0.0
C309 C 0.58937 0.82408 0.3727 0.0
C310 C 0.51766 0.87321 0.46197 0.0
C311 C 0.46757 0.79836 0.36272 0.0
O312 O 0.49483 0.82026 0.35959 0.0
O313 O 0.46396 0.78449 0.38854 0.0
O314 O 0.57797 0.85126 0.36735 0.0
O315 O 0.57159 0.80436 0.39079 0.0
O316 O 0.97882 0.81585 0.71733 0.0
Cd317 Cd 0.02206 0.80955 0.68951 0.0
Cd318 Cd 0.97977 0.82609 0.6413 0.0
O319 O 0.94668 0.83267 0.68103 0.0
O320 O 0.04751 0.79008 0.72124 0.0
O321 O 0.07026 0.83871 0.7043 0.0
C322 C 0.07379 0.81477 0.72071 0.0
C323 C 0.99965 0.86822 0.61003 0.0
C324 C 0.95114 0.82515 0.70972 0.0
C325 C 0.99684 0.75431 0.62365 0.0
O326 O 0.97765 0.77406 0.61559 0.0
O327 O 0.01703 0.76508 0.65008 0.0
O328 O 0.96799 0.85123 0.60638 0.0
O329 O 0.01972 0.86304 0.63319 0.0
O330 O 0.49149 0.31363 0.21294 0.0
Cd331 Cd 0.53527 0.30733 0.18579 0.0
Cd332 Cd 0.49512 0.31654 0.13421 0.0
O333 O 0.45975 0.32331 0.1717 0.0
O334 O 0.56756 0.29849 0.21941 0.0
O335 O 0.58073 0.34281 0.19354 0.0
C336 C 0.59032 0.32403 0.21307 0.0
C337 C 0.51295 0.35721 0.10101 0.0
C338 C 0.46326 0.31944 0.20202 0.0
C339 C 0.51445 0.246 0.12389 0.0
O340 O 0.49635 0.26425 0.11174 0.0
O341 O 0.53232 0.2592 0.15163 0.0
O342 O 0.48242 0.33753 0.0965 0.0
O343 O 0.53307 0.35523 0.12571 0.0
C344 C 0.26508 0.8293 0.89184 0.0
C345 C 0.24785 0.7933 0.88703 0.0
C346 C 0.2261 0.80603 0.94479 0.0
C347 C 0.24612 0.84106 0.95074 0.0
N348 N 0.28861 0.88491 0.932 0.0
N349 N 0.21412 0.74591 0.90902 0.0
C350 C 0.26647 0.85254 0.92473 0.0
C351 C 0.2289 0.78123 0.91355 0.0
N352 N 0.27984 0.84132 0.86484 0.0
N353 N 0.20363 0.79692 0.96862 0.0
H354 H 0.2143 0.72723 0.886 0.0
H355 H 0.20352 0.73455 0.9286 0.0
H356 H 0.20089 0.81459 0.99168 0.0
H357 H 0.18567 0.77307 0.96452 0.0
H358 H 0.28922 0.86817 0.86563 0.0
H359 H 0.28042 0.82471 0.84066 0.0
H360 H 0.30706 0.89299 0.91544 0.0
H361 H 0.29061 0.90277 0.95576 0.0
C362 C 0.10806 0.5579 0.47443 0.0
C363 C 0.07181 0.54564 0.47044 0.0
C364 C 0.07485 0.53117 0.40829 0.0
C365 C 0.11111 0.54455 0.41203 0.0
N366 N 0.161 0.57796 0.44789 0.0
N367 N 0.01947 0.52918 0.43461 0.0
C368 C 0.12741 0.56012 0.44494 0.0
C369 C 0.0548 0.5352 0.43767 0.0
N370 N 0.12405 0.5666 0.50628 0.0
N371 N 0.05982 0.51251 0.37714 0.0
H372 H 0.00397 0.53163 0.4557 0.0
H373 H 0.00574 0.52511 0.41141 0.0
H374 H 0.07354 0.50773 0.35499 0.0
H375 H 0.03426 0.49882 0.37378 0.0
H376 H 0.1508 0.57172 0.51055 0.0
H377 H 0.1104 0.56666 0.5285 0.0
H378 H 0.17336 0.59275 0.471 0.0
H379 H 0.17565 0.58078 0.42675 0.0
C380 C 0.81418 0.69533 0.85442 0.0
C381 C 0.82621 0.73272 0.86407 0.0
C382 C 0.83736 0.72844 0.92288 0.0
C383 C 0.81935 0.69246 0.91453 0.0
N384 N 0.78787 0.64201 0.87249 0.0
N385 N 0.84894 0.78574 0.90738 0.0
C386 C 0.8076 0.67568 0.88018 0.0
C387 C 0.83825 0.7495 0.8982 0.0
N388 N 0.80879 0.67875 0.82055 0.0
N389 N 0.85384 0.74224 0.95435 0.0
H390 H 0.85091 0.80184 0.88978 0.0
H391 H 0.85401 0.80009 0.93261 0.0
H392 H 0.85395 0.72719 0.9727 0.0
H393 H 0.87001 0.76724 0.96108 0.0
H394 H 0.8032 0.65112 0.81161 0.0
H395 H 0.81328 0.69265 0.80119 0.0
H396 H 0.77515 0.63025 0.84877 0.0
H397 H 0.78175 0.62663 0.89044 0.0
C398 C 0.98413 0.03633 0.40155 0.0
C399 C 0.01605 0.02579 0.39272 0.0
C400 C 0.01066 0.04178 0.33769 0.0
C401 C 0.97582 0.0451 0.34384 0.0
N402 N 0.92709 0.0363 0.38003 0.0
N403 N 0.05658 0.01219 0.3488 0.0
C404 C 0.96185 0.0402 0.37545 0.0
C405 C 0.02867 0.02695 0.35984 0.0
N406 N 0.97507 0.04292 0.43483 0.0
N407 N 0.02688 0.05341 0.31119 0.0
H408 H 0.0694 0.99913 0.36327 0.0
H409 H 0.06458 0.00956 0.32381 0.0
H410 H 0.01514 0.06619 0.29553 0.0
H411 H 0.05316 0.05415 0.30745 0.0
H412 H 0.95329 0.05358 0.44272 0.0
H413 H 0.9913 0.04158 0.45487 0.0
H414 H 0.91596 0.02952 0.40173 0.0
H415 H 0.90883 0.03521 0.36086 0.0
C416 C 0.27503 0.23519 0.63988 0.0
C417 C 0.26294 0.26753 0.64224 0.0
C418 C 0.26735 0.26043 0.58049 0.0
C419 C 0.27313 0.22521 0.57745 0.0
N420 N 0.27571 0.17656 0.60487 0.0
N421 N 0.24089 0.30726 0.61323 0.0
C422 C 0.27542 0.21186 0.6073 0.0
C423 C 0.25732 0.27927 0.61212 0.0
N424 N 0.28674 0.22702 0.66859 0.0
N425 N 0.27236 0.27636 0.5535 0.0
H426 H 0.23145 0.32083 0.63555 0.0
H427 H 0.23337 0.31447 0.59131 0.0
H428 H 0.2816 0.26414 0.53043 0.0
H429 H 0.27132 0.30313 0.55549 0.0
H430 H 0.29878 0.20534 0.66774 0.0
H431 H 0.28777 0.24397 0.69281 0.0
H432 H 0.27389 0.1652 0.62603 0.0
H433 H 0.27395 0.15775 0.58173 0.0
C434 C 0.51726 0.59306 0.64415 0.0
C435 C 0.50845 0.57133 0.6108 0.0
C436 C 0.45458 0.54186 0.63107 0.0
C437 C 0.46619 0.55933 0.66517 0.0
N438 N 0.50836 0.60142 0.70501 0.0
N439 N 0.46896 0.52542 0.57161 0.0
C440 C 0.49716 0.58547 0.67193 0.0
C441 C 0.47685 0.54619 0.6039 0.0
N442 N 0.54507 0.62068 0.64912 0.0
N443 N 0.42203 0.52144 0.62483 0.0
H444 H 0.48391 0.52915 0.55087 0.0
H445 H 0.44862 0.50355 0.56553 0.0
H446 H 0.40516 0.51806 0.6443 0.0
H447 H 0.4106 0.51044 0.60044 0.0
H448 H 0.55122 0.63965 0.67206 0.0
H449 H 0.56048 0.62643 0.62929 0.0
H450 H 0.53265 0.61746 0.712 0.0
H451 H 0.49399 0.59705 0.72591 0.0
C452 C 0.75007 0.29199 0.65334 0.0
C453 C 0.78388 0.29217 0.66557 0.0
C454 C 0.80661 0.34259 0.64045 0.0
C455 C 0.77415 0.3378 0.62274 0.0
N456 N 0.71536 0.30508 0.60981 0.0
N457 N 0.84506 0.31616 0.66969 0.0
C458 C 0.74571 0.31217 0.62891 0.0
C459 C 0.81238 0.31727 0.65911 0.0
N460 N 0.72215 0.27226 0.66486 0.0
N461 N 0.83159 0.37183 0.64002 0.0
H462 H 0.85005 0.29839 0.684 0.0
H463 H 0.86727 0.33112 0.66231 0.0
H464 H 0.82768 0.39157 0.62761 0.0
H465 H 0.85462 0.37845 0.65487 0.0
H466 H 0.69668 0.27377 0.6594 0.0
H467 H 0.72454 0.25703 0.68265 0.0
H468 H 0.69533 0.28379 0.61056 0.0
H469 H 0.7111 0.31839 0.59098 0.0
C470 C 0.58044 0.02526 0.6695 0.0
C471 C 0.54392 0.01418 0.66692 0.0
C472 C 0.54407 0.00553 0.72544 0.0
C473 C 0.58065 0.01566 0.72764 0.0
N474 N 0.63448 0.02933 0.70053 0.0
N475 N 0.49134 0.98764 0.68923 0.0
C476 C 0.5991 0.02342 0.69914 0.0
C477 C 0.52581 0.00245 0.69398 0.0
N478 N 0.59706 0.03922 0.64432 0.0
N479 N 0.52683 0.99957 0.75368 0.0
H480 H 0.47717 0.98527 0.66657 0.0
H481 H 0.47729 0.97526 0.70658 0.0
H482 H 0.53952 0.99956 0.7765 0.0
H483 H 0.50008 0.99637 0.75514 0.0
H484 H 0.623 0.05164 0.64638 0.0
H485 H 0.58434 0.04094 0.62214 0.0
H486 H 0.64932 0.03113 0.6794 0.0
H487 H 0.64921 0.02979 0.72227 0.0
C488 C 0.9057 0.25068 0.78244 0.0
C489 C 0.87483 0.26404 0.7897 0.0
C490 C 0.90295 0.30568 0.84158 0.0
C491 C 0.93176 0.28842 0.83703 0.0
N492 N 0.9621 0.24568 0.80336 0.0
N493 N 0.84322 0.30425 0.82503 0.0
C494 C 0.93378 0.26153 0.80725 0.0
C495 C 0.87342 0.29204 0.81868 0.0
N496 N 0.90785 0.22747 0.75186 0.0
N497 N 0.90388 0.33495 0.86789 0.0
H498 H 0.82177 0.29595 0.80783 0.0
H499 H 0.83877 0.32141 0.84772 0.0
H500 H 0.92478 0.345 0.88561 0.0
H501 H 0.88522 0.35088 0.87087 0.0
H502 H 0.9304 0.21879 0.74347 0.0
H503 H 0.8875 0.21894 0.73341 0.0
H504 H 0.96377 0.2232 0.78436 0.0
H505 H 0.98378 0.2542 0.82026 0.0
C506 C 0.54209 0.9602 0.52974 0.0
C507 C 0.5095 0.96294 0.54393 0.0
C508 C 0.48192 0.91129 0.49962 0.0
C509 C 0.51508 0.90515 0.48907 0.0
N510 N 0.5773 0.92111 0.49763 0.0
N511 N 0.44876 0.93809 0.54539 0.0
C512 C 0.5454 0.92903 0.50488 0.0
C513 C 0.47942 0.93777 0.52962 0.0
N514 N 0.56974 0.98767 0.53963 0.0
N515 N 0.45284 0.89274 0.48033 0.0
H516 H 0.44579 0.95686 0.56759 0.0
H517 H 0.42702 0.91788 0.53811 0.0
H518 H 0.4536 0.87404 0.45744 0.0
H519 H 0.42835 0.89865 0.48508 0.0
H520 H 0.59327 0.98861 0.52778 0.0
H521 H 0.56805 0.01122 0.55732 0.0
H522 H 0.59997 0.93572 0.51115 0.0
H523 H 0.58094 0.89802 0.48035 0.0
C524 C 0.16246 0.30876 0.83343 0.0
C525 C 0.15666 0.30769 0.79836 0.0
C526 C 0.09885 0.32062 0.80917 0.0
C527 C 0.10505 0.32347 0.84464 0.0
N528 N 0.14455 0.3265 0.89159 0.0
N529 N 0.12331 0.32029 0.75387 0.0
C530 C 0.13742 0.31931 0.85713 0.0
C531 C 0.12615 0.31623 0.78661 0.0
N532 N 0.19148 0.2989 0.8439 0.0
N533 N 0.06629 0.31981 0.79664 0.0
H534 H 0.14283 0.31704 0.7366 0.0
H535 H 0.10316 0.33011 0.74487 0.0
H536 H 0.04511 0.32165 0.81197 0.0
H537 H 0.05945 0.3138 0.77063 0.0
H538 H 0.19542 0.2951 0.86832 0.0
H539 H 0.21095 0.29259 0.82742 0.0
H540 H 0.16883 0.32743 0.90245 0.0
H541 H 0.12683 0.33444 0.90955 0.0
C542 C 0.53706 0.69822 0.51738 0.0
C543 C 0.53446 0.6634 0.49647 0.0
C544 C 0.51385 0.68279 0.44742 0.0
C545 C 0.51636 0.7177 0.46827 0.0
N546 N 0.52468 0.75783 0.52406 0.0
N547 N 0.51387 0.62011 0.44439 0.0
C548 C 0.52605 0.7251 0.50365 0.0
C549 C 0.52074 0.65494 0.46233 0.0
N550 N 0.55118 0.7058 0.54997 0.0
N551 N 0.50559 0.67649 0.41321 0.0
H552 H 0.51857 0.5992 0.45474 0.0
H553 H 0.50088 0.61144 0.42051 0.0
H554 H 0.49894 0.69583 0.40172 0.0
H555 H 0.50718 0.65284 0.39578 0.0
H556 H 0.55772 0.73146 0.56541 0.0
H557 H 0.55791 0.68627 0.56118 0.0
H558 H 0.52785 0.76389 0.55058 0.0
H559 H 0.51818 0.77861 0.51466 0.0
C560 C 0.89259 0.83263 0.78512 0.0
C561 C 0.86844 0.79997 0.77474 0.0
C562 C 0.89769 0.78505 0.72116 0.0
C563 C 0.92109 0.81833 0.73088 0.0
N564 N 0.93886 0.87581 0.76926 0.0
N565 N 0.84429 0.74749 0.73122 0.0
C566 C 0.91794 0.84277 0.76209 0.0
C567 C 0.86985 0.77697 0.74219 0.0
N568 N 0.89166 0.85343 0.81725 0.0
N569 N 0.90311 0.76037 0.69261 0.0
H570 H 0.82432 0.73951 0.74642 0.0
H571 H 0.84137 0.73219 0.70622 0.0
H572 H 0.92253 0.76538 0.67581 0.0
H573 H 0.88996 0.73395 0.68666 0.0
H574 H 0.91049 0.87571 0.8279 0.0
H575 H 0.87282 0.84721 0.83425 0.0
H576 H 0.93612 0.89629 0.79001 0.0
H577 H 0.95767 0.88367 0.75284 0.0
C578 C 0.04386 0.89923 0.53503 0.0
C579 C 0.02417 0.92495 0.5314 0.0
C580 C 0.99767 0.9213 0.58589 0.0
C581 C 0.01265 0.8912 0.58634 0.0
N582 N 0.04926 0.85021 0.56093 0.0
N583 N 0.98331 0.96217 0.55315 0.0
C584 C 0.03617 0.88022 0.56121 0.0
C585 C 0.00171 0.9369 0.55707 0.0
N586 N 0.06975 0.89294 0.51328 0.0
N587 N 0.97994 0.93505 0.61329 0.0
H588 H 0.98705 0.97536 0.53322 0.0
H589 H 0.96341 0.96908 0.56866 0.0
H590 H 0.97702 0.92425 0.63482 0.0
H591 H 0.97078 0.95873 0.61612 0.0
H592 H 0.08729 0.87692 0.51638 0.0
H593 H 0.07566 0.9065 0.49384 0.0
H594 H 0.06307 0.83838 0.54098 0.0
H595 H 0.0445 0.83556 0.57964 0.0
C596 C 0.16364 0.79571 0.7305 0.0
C597 C 0.15848 0.7819 0.76007 0.0
C598 C 0.10618 0.80693 0.7705 0.0
C599 C 0.10701 0.81313 0.73708 0.0
N600 N 0.13699 0.81366 0.68464 0.0
N601 N 0.126 0.77502 0.80957 0.0
C602 C 0.13632 0.80858 0.71718 0.0
C603 C 0.1304 0.78826 0.78087 0.0
N604 N 0.19448 0.79604 0.71497 0.0
N605 N 0.08192 0.81877 0.792 0.0
H606 H 0.14379 0.76192 0.81821 0.0
H607 H 0.10392 0.77525 0.82371 0.0
H608 H 0.06435 0.83304 0.78485 0.0
H609 H 0.0814 0.81762 0.81762 0.0
H610 H 0.20109 0.80879 0.69515 0.0
H611 H 0.21478 0.7865 0.72421 0.0
H612 H 0.15542 0.806 0.66748 0.0
H613 H 0.11814 0.82378 0.67388 0.0
C614 C 0.98537 0.65418 0.60889 0.0
C615 C 0.98786 0.64403 0.57301 0.0
C616 C 0.99882 0.70691 0.57001 0.0
C617 C 0.99254 0.71651 0.60533 0.0
N618 N 0.97157 0.69845 0.65642 0.0
N619 N 0.99265 0.65962 0.51831 0.0
C620 C 0.98354 0.68991 0.62426 0.0
C621 C 0.99344 0.67009 0.55316 0.0
N622 N 0.98547 0.62979 0.62842 0.0
N623 N 0.01104 0.73282 0.55294 0.0
H624 H 0.98938 0.63289 0.50528 0.0
H625 H 0.99281 0.67714 0.5023 0.0
H626 H 0.01535 0.76 0.56453 0.0
H627 H 0.01947 0.72737 0.52811 0.0
H628 H 0.98728 0.6367 0.65505 0.0
H629 H 0.98732 0.6033 0.61814 0.0
H630 H 0.96127 0.67936 0.66984 0.0
H631 H 0.96834 0.72412 0.66829 0.0
C632 C 0.78097 0.91231 0.23441 0.0
C633 C 0.79656 0.885 0.24215 0.0
C634 C 0.85035 0.92805 0.26136 0.0
C635 C 0.83615 0.95438 0.25 0.0
N636 N 0.78909 0.97217 0.22428 0.0
N637 N 0.84709 0.8653 0.25917 0.0
C638 C 0.80163 0.94678 0.23632 0.0
C639 C 0.83149 0.89247 0.25475 0.0
N640 N 0.74637 0.90526 0.22571 0.0
N641 N 0.88153 0.93735 0.27939 0.0
H642 H 0.83406 0.83889 0.25548 0.0
H643 H 0.87359 0.86836 0.26407 0.0
H644 H 0.8963 0.96317 0.28478 0.0
H645 H 0.89139 0.92035 0.2917 0.0
H646 H 0.73255 0.92466 0.2228 0.0
H647 H 0.73079 0.88017 0.22378 0.0
H648 H 0.76545 0.96738 0.21078 0.0
H649 H 0.80342 0.99784 0.22609 0.0
C650 C 0.84419 0.20778 0.30079 0.0
C651 C 0.80757 0.20066 0.30173 0.0
C652 C 0.80712 0.13653 0.29197 0.0
C653 C 0.84384 0.14391 0.29424 0.0
N654 N 0.89772 0.18642 0.30478 0.0
N655 N 0.75405 0.15932 0.30242 0.0
C656 C 0.86255 0.1795 0.2995 0.0
C657 C 0.78898 0.1653 0.29848 0.0
N658 N 0.86131 0.2415 0.30065 0.0
N659 N 0.78963 0.10195 0.28229 0.0
H660 H 0.7397 0.17961 0.30635 0.0
H661 H 0.73962 0.13477 0.30436 0.0
H662 H 0.80205 0.08016 0.27686 0.0
H663 H 0.76308 0.09488 0.27663 0.0
H664 H 0.88751 0.24771 0.29618 0.0
H665 H 0.8488 0.26305 0.30263 0.0
H666 H 0.91254 0.21203 0.3126 0.0
H667 H 0.91205 0.1664 0.3038 0.0
C668 C 0.40669 0.0143 0.0865 0.0
C669 C 0.42088 0.02105 0.05572 0.0
C670 C 0.36737 0.98881 0.02338 0.0
C671 C 0.35252 0.98345 0.05439 0.0
N672 N 0.35505 0.99645 0.11595 0.0
N673 N 0.41334 0.02133 0.99625 0.0
C674 C 0.37134 0.99781 0.08616 0.0
C675 C 0.40074 0.01039 0.02457 0.0
N676 N 0.4273 0.02278 0.11578 0.0
N677 N 0.35051 0.97167 0.99264 0.0
H678 H 0.43805 0.03652 0.99592 0.0
H679 H 0.39836 0.01788 0.97391 0.0
H680 H 0.32598 0.95561 0.99043 0.0
H681 H 0.36189 0.97103 0.96922 0.0
H682 H 0.41958 0.01499 0.13813 0.0
H683 H 0.45318 0.03552 0.11711 0.0
H684 H 0.36629 0.00946 0.14004 0.0
H685 H 0.32901 0.98487 0.11649 0.0
C686 C 0.21651 0.36576 0.32759 0.0
C687 C 0.23186 0.35526 0.29603 0.0
C688 C 0.22905 0.41255 0.28238 0.0
C689 C 0.21152 0.42205 0.31293 0.0
N690 N 0.18236 0.40522 0.36113 0.0
N691 N 0.24867 0.36558 0.24106 0.0
C692 C 0.20354 0.39796 0.33461 0.0
C693 C 0.23685 0.37771 0.27265 0.0
N694 N 0.215 0.34533 0.35122 0.0
N695 N 0.2397 0.43733 0.26361 0.0
H696 H 0.25559 0.34061 0.23358 0.0
H697 H 0.24933 0.37907 0.22146 0.0
H698 H 0.23462 0.46314 0.26997 0.0
H699 H 0.25586 0.43335 0.24323 0.0
H700 H 0.20778 0.35364 0.3762 0.0
H701 H 0.22359 0.32114 0.34677 0.0
H702 H 0.17263 0.38701 0.37565 0.0
H703 H 0.17174 0.42823 0.36667 0.0
C704 C 0.13847 0.0492 0.48919 0.0
C705 C 0.12516 0.02709 0.45713 0.0
C706 C 0.1809 0.0422 0.43192 0.0
C707 C 0.19457 0.06374 0.46419 0.0
N708 N 0.18959 0.07926 0.52533 0.0
N709 N 0.1362 0.99404 0.4013 0.0
C710 C 0.17433 0.06448 0.49345 0.0
C711 C 0.14731 0.02073 0.42961 0.0
N712 N 0.11671 0.05703 0.51501 0.0
N713 N 0.19872 0.044 0.40304 0.0
H714 H 0.11187 0.97746 0.3991 0.0
H715 H 0.15232 0.98601 0.38176 0.0
H716 H 0.22299 0.06008 0.40314 0.0
H717 H 0.18805 0.03194 0.3785 0.0
H718 H 0.12437 0.07628 0.53755 0.0
H719 H 0.0903 0.0462 0.51294 0.0
H720 H 0.17683 0.07774 0.54776 0.0
H721 H 0.21604 0.08974 0.52939 0.0
C722 C 0.75298 0.17194 0.80805 0.0
C723 C 0.77472 0.16418 0.78041 0.0
C724 C 0.75397 0.10012 0.77426 0.0
C725 C 0.73341 0.10785 0.80293 0.0
N726 N 0.71883 0.15012 0.85164 0.0
N727 N 0.80196 0.12173 0.74211 0.0
C728 C 0.73461 0.14352 0.82124 0.0
C729 C 0.77716 0.12848 0.76508 0.0
N730 N 0.74885 0.20629 0.82078 0.0
N731 N 0.74995 0.06609 0.75461 0.0
H732 H 0.81931 0.14194 0.73469 0.0
H733 H 0.80737 0.09637 0.73278 0.0
H734 H 0.73302 0.04446 0.76014 0.0
H735 H 0.76127 0.05971 0.73121 0.0
H736 H 0.73037 0.21305 0.83824 0.0
H737 H 0.7621 0.22794 0.81199 0.0
H738 H 0.72165 0.17536 0.8679 0.0
H739 H 0.70549 0.12978 0.86221 0.0
C740 C 0.43538 0.0999 0.53174 0.0
C741 C 0.42489 0.08068 0.55709 0.0
C742 C 0.36393 0.07536 0.54031 0.0
C743 C 0.37436 0.0936 0.51417 0.0
N744 N 0.41932 0.11919 0.48153 0.0
N745 N 0.38048 0.04452 0.58202 0.0
C746 C 0.40994 0.10454 0.50875 0.0
C747 C 0.38951 0.06673 0.56034 0.0
N748 N 0.46957 0.11453 0.53034 0.0
N749 N 0.32956 0.06674 0.54628 0.0
H750 H 0.3986 0.03787 0.59721 0.0
H751 H 0.35551 0.0304 0.58308 0.0
H752 H 0.30993 0.07097 0.5311 0.0
H753 H 0.3204 0.05735 0.56744 0.0
H754 H 0.47869 0.13224 0.51516 0.0
H755 H 0.48894 0.11049 0.54596 0.0
H756 H 0.44461 0.12421 0.47384 0.0
H757 H 0.40142 0.12446 0.46512 0.0
C758 C 0.60025 0.48592 0.5326 0.0
C759 C 0.60686 0.51842 0.55799 0.0
C760 C 0.66315 0.50659 0.57343 0.0
C761 C 0.65677 0.47443 0.54763 0.0
N762 N 0.61739 0.42948 0.5076 0.0
N763 N 0.64077 0.55664 0.60699 0.0
C764 C 0.62463 0.46284 0.52876 0.0
C765 C 0.63707 0.52765 0.57997 0.0
N766 N 0.57108 0.47774 0.51156 0.0
N767 N 0.69486 0.5179 0.59038 0.0
H768 H 0.62279 0.57339 0.6118 0.0
H769 H 0.66027 0.56275 0.62612 0.0
H770 H 0.71422 0.50272 0.587 0.0
H771 H 0.70286 0.54307 0.60641 0.0
H772 H 0.56651 0.45679 0.48996 0.0
H773 H 0.55183 0.49307 0.51483 0.0
H774 H 0.59335 0.41782 0.4953 0.0
H775 H 0.63481 0.41207 0.50447 0.0
C776 C 0.78591 0.32584 0.39393 0.0
C777 C 0.7587 0.29836 0.37688 0.0
C778 C 0.7207 0.31358 0.42405 0.0
C779 C 0.74877 0.33915 0.4422 0.0
N780 N 0.80902 0.36802 0.44645 0.0
N781 N 0.70153 0.26298 0.3762 0.0
C782 C 0.78168 0.34475 0.42773 0.0
C783 C 0.72637 0.29141 0.39204 0.0
N784 N 0.81531 0.33476 0.37723 0.0
N785 N 0.68865 0.31088 0.4373 0.0
H786 H 0.70472 0.24648 0.35258 0.0
H787 H 0.67874 0.25412 0.38732 0.0
H788 H 0.68403 0.32593 0.46119 0.0
H789 H 0.66624 0.29552 0.42391 0.0
H790 H 0.8344 0.35725 0.38654 0.0
H791 H 0.81963 0.32118 0.35262 0.0
H792 H 0.83452 0.36989 0.43922 0.0
H793 H 0.80677 0.38424 0.47045 0.0
C794 C 0.61135 0.04821 0.97623 0.0
C795 C 0.57858 0.02579 0.9756 0.0
C796 C 0.57942 0.00428 0.91365 0.0
C797 C 0.61119 0.02843 0.91382 0.0
N798 N 0.6545 0.07791 0.94394 0.0
N799 N 0.52811 0.9877 0.94391 0.0
C800 C 0.62644 0.05167 0.94478 0.0
C801 C 0.56156 0.00547 0.94435 0.0
N802 N 0.62824 0.06571 0.00684 0.0
N803 N 0.56722 0.97893 0.88463 0.0
H804 H 0.51433 0.98742 0.96601 0.0
H805 H 0.51306 0.97575 0.92149 0.0
H806 H 0.57983 0.97657 0.8617 0.0
H807 H 0.54627 0.95814 0.88404 0.0
H808 H 0.65383 0.07929 0.00912 0.0
H809 H 0.61736 0.06465 0.03031 0.0
H810 H 0.66468 0.09796 0.96519 0.0
H811 H 0.66589 0.0816 0.92131 0.0
C812 C 0.33362 0.24657 0.38004 0.0
C813 C 0.32083 0.2303 0.34602 0.0
C814 C 0.30079 0.17338 0.36204 0.0
C815 C 0.31417 0.18945 0.39599 0.0
N816 N 0.35086 0.23818 0.43516 0.0
N817 N 0.30039 0.17684 0.30254 0.0
C818 C 0.33301 0.22511 0.40429 0.0
C819 C 0.30714 0.19316 0.33635 0.0
N820 N 0.34488 0.28273 0.38959 0.0
N821 N 0.28016 0.14017 0.35473 0.0
H822 H 0.30479 0.19069 0.28314 0.0
H823 H 0.29362 0.14926 0.29354 0.0
H824 H 0.2744 0.12482 0.37276 0.0
H825 H 0.26641 0.12892 0.33144 0.0
H826 H 0.35059 0.29664 0.41489 0.0
H827 H 0.34629 0.29931 0.37247 0.0
H828 H 0.36778 0.26276 0.4415 0.0
H829 H 0.35139 0.22289 0.45325 0.0
C830 C 0.52348 0.52081 0.856 0.0
C831 C 0.51006 0.51618 0.88779 0.0
C832 C 0.45392 0.52515 0.86924 0.0
C833 C 0.46842 0.53398 0.83917 0.0
N834 N 0.52009 0.54977 0.80933 0.0
N835 N 0.46545 0.52488 0.9282 0.0
C836 C 0.5042 0.53481 0.83419 0.0
C837 C 0.47623 0.52194 0.89559 0.0
N838 N 0.55365 0.51025 0.84567 0.0
N839 N 0.41889 0.51722 0.87195 0.0
H840 H 0.48152 0.52401 0.94855 0.0
H841 H 0.44195 0.53214 0.93554 0.0
H842 H 0.40107 0.5158 0.85225 0.0
H843 H 0.40759 0.50761 0.89228 0.0
H844 H 0.56263 0.51011 0.82129 0.0
H845 H 0.56771 0.49803 0.85991 0.0
H846 H 0.54676 0.55363 0.80672 0.0
H847 H 0.50729 0.56207 0.79403 0.0
C848 C 0.73509 0.74916 0.14197 0.0
C849 C 0.76628 0.76588 0.16143 0.0
C850 C 0.79986 0.74302 0.113 0.0
C851 C 0.76868 0.72372 0.09475 0.0
N852 N 0.70725 0.70137 0.09543 0.0
N853 N 0.82825 0.7727 0.16829 0.0
C854 C 0.73643 0.72476 0.11024 0.0
C855 C 0.79869 0.76101 0.14779 0.0
N856 N 0.70427 0.7575 0.15314 0.0
N857 N 0.83035 0.74564 0.09678 0.0
H858 H 0.82837 0.78557 0.19403 0.0
H859 H 0.8521 0.76667 0.16067 0.0
H860 H 0.83223 0.73361 0.0711 0.0
H861 H 0.85318 0.7625 0.10786 0.0
H862 H 0.68129 0.74897 0.13817 0.0
H863 H 0.70215 0.77566 0.17605 0.0
H864 H 0.68381 0.69863 0.1074 0.0
H865 H 0.70729 0.68199 0.07287 0.0
C866 C 0.02424 0.09989 0.14904 0.0
C867 C 0.01678 0.07742 0.11584 0.0
C868 C 0.96314 0.04651 0.1353 0.0
C869 C 0.97348 0.06502 0.16944 0.0
N870 N 0.01399 0.10884 0.20967 0.0
N871 N 0.97951 0.02942 0.07654 0.0
C872 C 0.00374 0.09212 0.17653 0.0
C873 C 0.98603 0.05105 0.10862 0.0
N874 N 0.05116 0.12844 0.15421 0.0
N875 N 0.93116 0.02497 0.12847 0.0
H876 H 0.99486 0.03321 0.05608 0.0
H877 H 0.95997 0.00681 0.07047 0.0
H878 H 0.91381 0.02141 0.14753 0.0
H879 H 0.92057 0.01315 0.10389 0.0
H880 H 0.05615 0.14792 0.17693 0.0
H881 H 0.06691 0.13436 0.13466 0.0
H882 H 0.03784 0.12568 0.21696 0.0
H883 H 0.99942 0.10426 0.23038 0.0
C884 C 0.27881 0.83848 0.19115 0.0
C885 C 0.2788 0.80138 0.18224 0.0
C886 C 0.27389 0.80099 0.12147 0.0
C887 C 0.27612 0.83857 0.13013 0.0
N888 N 0.28731 0.89421 0.17276 0.0
N889 N 0.28329 0.74842 0.13967 0.0
C890 C 0.28032 0.8577 0.16489 0.0
C891 C 0.27862 0.78301 0.1476 0.0
N892 N 0.27673 0.8552 0.22463 0.0
N893 N 0.26547 0.78219 0.08852 0.0
H894 H 0.28662 0.73439 0.15825 0.0
H895 H 0.28702 0.73475 0.11497 0.0
H896 H 0.26066 0.79418 0.06877 0.0
H897 H 0.25992 0.75442 0.08132 0.0
H898 H 0.2725 0.88121 0.23244 0.0
H899 H 0.27715 0.84223 0.24458 0.0
H900 H 0.29423 0.90964 0.19736 0.0
H901 H 0.28912 0.90925 0.15428 0.0
C902 C 0.03606 0.5387 0.20107 0.0
C903 C 0.02746 0.50443 0.17865 0.0
C904 C 0.07177 0.48531 0.20901 0.0
C905 C 0.07585 0.51752 0.23488 0.0
N906 N 0.04942 0.56821 0.26004 0.0
N907 N 0.02994 0.44173 0.17005 0.0
C908 C 0.0543 0.54234 0.2324 0.0
C909 C 0.04302 0.47657 0.18527 0.0
N910 N 0.02817 0.5681 0.19234 0.0
N911 N 0.09579 0.4639 0.20534 0.0
H912 H 0.00709 0.43395 0.15489 0.0
H913 H 0.03939 0.42066 0.17619 0.0
H914 H 0.11953 0.47089 0.21894 0.0
H915 H 0.0941 0.4415 0.18516 0.0
H916 H 0.03628 0.59379 0.20754 0.0
H917 H 0.01752 0.56735 0.16835 0.0
H918 H 0.03229 0.58532 0.25898 0.0
H919 H 0.05804 0.569 0.28479 0.0
C920 C 0.40898 0.76022 0.28223 0.0
C921 C 0.37776 0.76999 0.29474 0.0
C922 C 0.40859 0.80624 0.34772 0.0
C923 C 0.43816 0.79142 0.33766 0.0
N924 N 0.46768 0.75485 0.29561 0.0
N925 N 0.34684 0.80155 0.3395 0.0
C926 C 0.43895 0.76903 0.30468 0.0
C927 C 0.3774 0.79339 0.32728 0.0
N928 N 0.40958 0.74222 0.24895 0.0
N929 N 0.41056 0.83293 0.37665 0.0
H930 H 0.3236 0.79374 0.32489 0.0
H931 H 0.34405 0.8144 0.36472 0.0
H932 H 0.4331 0.84297 0.3922 0.0
H933 H 0.39099 0.84734 0.38358 0.0
H934 H 0.43197 0.73654 0.23713 0.0
H935 H 0.38777 0.73564 0.23225 0.0
H936 H 0.46874 0.73535 0.27347 0.0
H937 H 0.4902 0.76125 0.31129 0.0
C938 C 0.99141 0.40987 0.05856 0.0
C939 C 0.99137 0.44557 0.05675 0.0
C940 C 0.9992 0.42936 0.99512 0.0
C941 C 0.00371 0.39494 0.99808 0.0
N942 N 0.01364 0.35662 0.03507 0.0
N943 N 0.00134 0.49111 0.02443 0.0
C944 C 0.0027 0.38645 0.03057 0.0
C945 C 0.99715 0.45594 0.02534 0.0
N946 N 0.97921 0.39778 0.0864 0.0
N947 N 0.99494 0.43621 0.96368 0.0
H948 H 0.0002 0.51124 0.04614 0.0
H949 H 0.00899 0.50055 0.00285 0.0
H950 H 0.99477 0.4172 0.94086 0.0
H951 H 0.98812 0.4597 0.96033 0.0
H952 H 0.976 0.37106 0.08753 0.0
H953 H 0.96843 0.41349 0.10651 0.0
H954 H 0.01606 0.35102 0.05902 0.0
H955 H 0.02417 0.33984 0.01562 0.0
C956 C 0.68292 0.83142 0.34702 0.0
C957 C 0.6805 0.79907 0.32193 0.0
C958 C 0.61848 0.78302 0.33033 0.0
C959 C 0.62108 0.81463 0.35652 0.0
N960 N 0.65611 0.86608 0.39391 0.0
N961 N 0.64825 0.74094 0.29396 0.0
C962 C 0.65343 0.83812 0.36601 0.0
C963 C 0.64897 0.77388 0.31494 0.0
N964 N 0.71323 0.8559 0.35231 0.0
N965 N 0.58668 0.76269 0.31887 0.0
H966 H 0.66988 0.73348 0.2816 0.0
H967 H 0.62706 0.71997 0.29096 0.0
H968 H 0.56362 0.76843 0.32929 0.0
H969 H 0.58275 0.74178 0.2972 0.0
H970 H 0.7157 0.88175 0.36723 0.0
H971 H 0.73576 0.85094 0.34019 0.0
H972 H 0.67949 0.88221 0.40435 0.0
H973 H 0.63507 0.87151 0.40849 0.0
C974 C 0.02879 0.15669 0.96315 0.0
C975 C 0.03877 0.16584 0.99845 0.0
C976 C 0.02158 0.22391 0.00439 0.0
C977 C 0.01554 0.21642 0.96832 0.0
N978 N 0.01465 0.17678 0.91281 0.0
N979 N 0.04613 0.20781 0.05299 0.0
C980 C 0.01939 0.18303 0.94754 0.0
C981 C 0.03526 0.19926 0.01926 0.0
N982 N 0.02779 0.12256 0.94472 0.0
N983 N 0.01416 0.25457 0.02437 0.0
H984 H 0.05478 0.18972 0.06488 0.0
H985 H 0.04824 0.23317 0.06885 0.0
H986 H 0.00545 0.27388 0.01434 0.0
H987 H 0.01448 0.26002 0.05094 0.0
H988 H 0.01764 0.11296 0.9197 0.0
H989 H 0.03447 0.10271 0.95549 0.0
H990 H 0.02093 0.15482 0.89582 0.0
H991 H 0.00619 0.19472 0.90062 0.0
C992 C 0.39871 0.32896 0.27248 0.0
C993 C 0.37396 0.29703 0.26046 0.0
C994 C 0.40824 0.27997 0.21086 0.0
C995 C 0.43198 0.31289 0.22171 0.0
N996 N 0.44845 0.3706 0.26009 0.0
N997 N 0.35187 0.2447 0.21597 0.0
C998 C 0.42685 0.33797 0.25181 0.0
C999 C 0.37771 0.27337 0.22891 0.0
N1000 N 0.39562 0.35017 0.30395 0.0
N1001 N 0.41575 0.25413 0.18434 0.0
H1002 H 0.32969 0.23792 0.229 0.0
H1003 H 0.3511 0.22909 0.1912 0.0
H1004 H 0.43771 0.25764 0.17015 0.0
H1005 H 0.40177 0.22804 0.17806 0.0
H1006 H 0.41454 0.3718 0.31594 0.0
H1007 H 0.37476 0.34485 0.31915 0.0
H1008 H 0.44441 0.39154 0.27982 0.0
H1009 H 0.46937 0.37766 0.24553 0.0
C1010 C 0.54864 0.38275 0.021 0.0
C1011 C 0.53264 0.41221 0.02086 0.0
C1012 C 0.51049 0.41065 0.07743 0.0
C1013 C 0.52473 0.37985 0.07679 0.0
N1014 N 0.56343 0.34093 0.05245 0.0
N1015 N 0.50655 0.46015 0.05132 0.0
C1016 C 0.5461 0.36752 0.0501 0.0
C1017 C 0.51632 0.4282 0.05001 0.0
N1018 N 0.56488 0.36848 0.99265 0.0
N1019 N 0.49048 0.42227 0.10372 0.0
H1020 H 0.51077 0.47349 0.03152 0.0
H1021 H 0.49699 0.4749 0.07284 0.0
H1022 H 0.48738 0.41113 0.12504 0.0
H1023 H 0.47594 0.44192 0.104 0.0
H1024 H 0.57367 0.34454 0.98913 0.0
H1025 H 0.56852 0.38019 0.97172 0.0
H1026 H 0.58173 0.33268 0.03546 0.0
H1027 H 0.56135 0.32858 0.07296 0.0
C1028 C 0.6872 0.32443 0.2159 0.0
C1029 C 0.68855 0.31007 0.24504 0.0
C1030 C 0.63145 0.32296 0.25952 0.0
C1031 C 0.62662 0.32874 0.2264 0.0
N1032 N 0.6508 0.33382 0.17175 0.0
N1033 N 0.66096 0.2934 0.29407 0.0
C1034 C 0.65495 0.33009 0.20442 0.0
C1035 C 0.66063 0.30916 0.26708 0.0
N1036 N 0.7166 0.33209 0.19888 0.0
N1037 N 0.60784 0.33043 0.28357 0.0
H1038 H 0.68149 0.28212 0.29988 0.0
H1039 H 0.63964 0.28881 0.30885 0.0
H1040 H 0.58673 0.34153 0.27876 0.0
H1041 H 0.61131 0.32938 0.309 0.0
H1042 H 0.71794 0.34585 0.17942 0.0
H1043 H 0.74051 0.32784 0.20657 0.0
H1044 H 0.66931 0.32986 0.15356 0.0
H1045 H 0.62835 0.33871 0.16172 0.0
C1046 C 0.5035 0.14653 0.11589 0.0
C1047 C 0.50713 0.13415 0.08043 0.0
C1048 C 0.51982 0.19581 0.07375 0.0
C1049 C 0.51168 0.20761 0.10831 0.0
N1050 N 0.48806 0.19311 0.16004 0.0
N1051 N 0.5149 0.14601 0.02437 0.0
C1052 C 0.50153 0.18271 0.12886 0.0
C1053 C 0.51437 0.1585 0.05893 0.0
N1054 N 0.50229 0.12372 0.13726 0.0
N1055 N 0.53373 0.2201 0.0555 0.0
H1056 H 0.51157 0.11888 0.01276 0.0
H1057 H 0.51621 0.16232 0.00706 0.0
H1058 H 0.53837 0.2476 0.06567 0.0
H1059 H 0.54338 0.21298 0.03135 0.0
H1060 H 0.50311 0.13222 0.1638 0.0
H1061 H 0.50404 0.09694 0.12867 0.0
H1062 H 0.47697 0.17516 0.17433 0.0
H1063 H 0.4844 0.21906 0.17004 0.0
C1064 C 0.27471 0.40814 0.71259 0.0
C1065 C 0.28264 0.38252 0.72983 0.0
C1066 C 0.33082 0.42662 0.76187 0.0
C1067 C 0.32563 0.45056 0.74142 0.0
N1068 N 0.29418 0.4645 0.69642 0.0
N1069 N 0.31964 0.36569 0.76872 0.0
C1070 C 0.29784 0.44153 0.71663 0.0
C1071 C 0.31083 0.39142 0.75423 0.0
N1072 N 0.24476 0.40055 0.69279 0.0
N1073 N 0.3549 0.43759 0.78864 0.0
H1074 H 0.3053 0.33974 0.76429 0.0
H1075 H 0.34242 0.36923 0.78335 0.0
H1076 H 0.37102 0.46272 0.79434 0.0
H1077 H 0.35717 0.4229 0.80683 0.0
H1078 H 0.23575 0.41905 0.68189 0.0
H1079 H 0.22725 0.37637 0.68959 0.0
H1080 H 0.27688 0.45799 0.67531 0.0
H1081 H 0.31001 0.48966 0.69963 0.0
C1082 C 0.30431 0.67588 0.84119 0.0
C1083 C 0.2987 0.69424 0.81563 0.0
C1084 C 0.33202 0.65721 0.77652 0.0
C1085 C 0.34077 0.64163 0.80337 0.0
N1086 N 0.34554 0.64841 0.86475 0.0
N1087 N 0.31825 0.71039 0.76333 0.0
C1088 C 0.33024 0.65486 0.83687 0.0
C1089 C 0.31625 0.68761 0.78473 0.0
N1090 N 0.2839 0.67658 0.86863 0.0
N1091 N 0.33614 0.64209 0.74305 0.0
H1092 H 0.30847 0.7339 0.76932 0.0
H1093 H 0.33312 0.70792 0.74181 0.0
H1094 H 0.34416 0.61788 0.73481 0.0
H1095 H 0.32723 0.65148 0.72301 0.0
H1096 H 0.28577 0.66105 0.88624 0.0
H1097 H 0.26262 0.68908 0.87161 0.0
H1098 H 0.33992 0.65969 0.88971 0.0
H1099 H 0.36695 0.63608 0.86312 0.0
C1100 C 0.88687 0.51404 0.51464 0.0
C1101 C 0.90687 0.52723 0.5458 0.0
C1102 C 0.85923 0.50117 0.57681 0.0
C1103 C 0.84089 0.48453 0.54515 0.0
N1104 N 0.83916 0.47045 0.48332 0.0
N1105 N 0.91436 0.53084 0.60615 0.0
C1106 C 0.85505 0.48989 0.51385 0.0
C1107 C 0.89364 0.52024 0.57687 0.0
N1108 N 0.89807 0.52502 0.48591 0.0
N1109 N 0.84335 0.49949 0.60675 0.0
H1110 H 0.9396 0.54528 0.60725 0.0
H1111 H 0.90756 0.52313 0.62875 0.0
H1112 H 0.81799 0.48597 0.60752 0.0
H1113 H 0.85404 0.514 0.63064 0.0
H1114 H 0.88282 0.51948 0.46342 0.0
H1115 H 0.92159 0.54229 0.48538 0.0
H1116 H 0.85047 0.47011 0.4599 0.0
H1117 H 0.81589 0.4522 0.48135 0.0
C1118 C 0.73085 0.86908 0.78032 0.0
C1119 C 0.72834 0.85271 0.80849 0.0
C1120 C 0.70285 0.901 0.84205 0.0
C1121 C 0.70865 0.91932 0.81532 0.0
N1122 N 0.73115 0.92319 0.76032 0.0
N1123 N 0.71644 0.85458 0.86765 0.0
C1124 C 0.72324 0.90392 0.78462 0.0
C1125 C 0.7156 0.86908 0.83978 0.0
N1126 N 0.74012 0.85116 0.74948 0.0
N1127 N 0.68392 0.91345 0.86904 0.0
H1128 H 0.72489 0.83073 0.86688 0.0
H1129 H 0.71135 0.86754 0.89219 0.0
H1130 H 0.6735 0.93642 0.8713 0.0
H1131 H 0.67566 0.89928 0.88748 0.0
H1132 H 0.73902 0.85996 0.727 0.0
H1133 H 0.74671 0.82603 0.74585 0.0
H1134 H 0.74522 0.91514 0.73907 0.0
H1135 H 0.72567 0.94862 0.76256 0.0
C1136 C 0.64381 0.52755 0.93089 0.0
C1137 C 0.61941 0.52989 0.95677 0.0
C1138 C 0.66403 0.56963 0.99737 0.0
C1139 C 0.68665 0.57168 0.97012 0.0
N1140 N 0.69585 0.55689 0.90952 0.0
N1141 N 0.60478 0.55608 0.01385 0.0
C1142 C 0.6761 0.55159 0.93648 0.0
C1143 C 0.62911 0.55161 0.98991 0.0
N1144 N 0.6363 0.50193 0.90115 0.0
N1145 N 0.6762 0.58384 0.03046 0.0
H1146 H 0.57899 0.54307 0.00941 0.0
H1147 H 0.60959 0.57477 0.03713 0.0
H1148 H 0.70191 0.59624 0.03704 0.0
H1149 H 0.66176 0.58014 0.05146 0.0
H1150 H 0.65439 0.49677 0.88276 0.0
H1151 H 0.61309 0.48335 0.89647 0.0
H1152 H 0.68745 0.54571 0.88412 0.0
H1153 H 0.71915 0.57518 0.91215 0.0
C1154 C 0.28226 0.63172 0.26701 0.0
C1155 C 0.28382 0.66597 0.28886 0.0
C1156 C 0.25012 0.6396 0.33098 0.0
C1157 C 0.24744 0.60555 0.30852 0.0
N1158 N 0.26625 0.56729 0.25951 0.0
N1159 N 0.27596 0.70265 0.34415 0.0
C1160 C 0.2654 0.60102 0.2779 0.0
C1161 C 0.27008 0.6699 0.32181 0.0
N1162 N 0.29594 0.62882 0.23549 0.0
N1163 N 0.23198 0.64308 0.36013 0.0
H1164 H 0.28911 0.72583 0.33782 0.0
H1165 H 0.26995 0.70667 0.36975 0.0
H1166 H 0.21833 0.62124 0.36838 0.0
H1167 H 0.22902 0.66748 0.37544 0.0
H1168 H 0.29253 0.60518 0.21673 0.0
H1169 H 0.30973 0.6507 0.2274 0.0
H1170 H 0.28102 0.56168 0.23827 0.0
H1171 H 0.25412 0.5445 0.26727 0.0
C1172 C 0.90446 0.56114 0.05353 0.0
C1173 C 0.88592 0.54785 0.0796 0.0
C1174 C 0.83277 0.56238 0.05952 0.0
C1175 C 0.85182 0.57819 0.0351 0.0
N1176 N 0.90619 0.59669 0.01101 0.0
N1177 N 0.83405 0.54002 0.11094 0.0
C1178 C 0.88779 0.57851 0.03253 0.0
C1179 C 0.85053 0.54968 0.08361 0.0
N1180 N 0.93789 0.55689 0.04869 0.0
N1181 N 0.79746 0.55802 0.05869 0.0
H1182 H 0.84583 0.52951 0.12856 0.0
H1183 H 0.80958 0.54482 0.11764 0.0
H1184 H 0.78334 0.56669 0.04132 0.0
H1185 H 0.7818 0.54309 0.07319 0.0
H1186 H 0.95165 0.56214 0.02777 0.0
H1187 H 0.95136 0.54594 0.06467 0.0
H1188 H 0.93304 0.60122 0.0104 0.0
H1189 H 0.89477 0.60971 0.99535 0.0
C1190 C 0.14864 0.03871 0.0866 0.0
C1191 C 0.11797 0.02818 0.06522 0.0
C1192 C 0.13581 0.97198 0.03807 0.0
C1193 C 0.16824 0.98456 0.05635 0.0
N1194 N 0.20679 0.02986 0.09711 0.0
N1195 N 0.08186 0.98556 0.02025 0.0
C1196 C 0.17486 0.01774 0.08073 0.0
C1197 C 0.11127 0.99482 0.04104 0.0
N1198 N 0.15255 0.06872 0.11253 0.0
N1199 N 0.12844 0.93791 0.01832 0.0
H1200 H 0.06257 0.00082 0.0228 0.0
H1201 H 0.07719 0.96379 0.99937 0.0
H1202 H 0.146 0.92067 0.01569 0.0
H1203 H 0.10422 0.92564 0.00676 0.0
H1204 H 0.17252 0.07603 0.13127 0.0
H1205 H 0.13431 0.08521 0.11689 0.0
H1206 H 0.2149 0.05557 0.11207 0.0
H1207 H 0.22616 0.01469 0.09429 0.0
loop_
_geom_bond_atom_site_label_1
_geom_bond_atom_site_label_2
_geom_bond_distance
_geom_bond_site_symmetry_2
_ccdc_geom_bond_type
H0 C3 0.929 . S
H1 C6 0.929 . S
H2 C8 0.930 . S
C3 H0 0.929 . S
C3 C4 1.398 . S
C3 C5 1.396 . S
C4 C3 1.398 . S
C4 C8 1.407 . S
C5 C3 1.396 . S
C5 C6 1.394 . S
C6 H1 0.929 . S
C6 C5 1.394 . S
C6 C7 1.382 . S
C7 C6 1.382 . S
C7 C8 1.392 . S
C7 N9 1.420 . S
C8 H2 0.930 . S
C8 C4 1.407 . S
C8 C7 1.392 . S
N9 C7 1.420 . S
N9 C10 1.244 . S
C10 N9 1.244 . S
H11 C14 0.929 . S
H12 C17 0.929 . S
H13 C19 0.930 . S
C14 H11 0.929 . S
C14 C15 1.398 . S
C14 C16 1.396 . S
C15 C14 1.398 . S
C15 C19 1.407 . S
C16 C14 1.396 . S
C16 C17 1.394 . S
C17 H12 0.929 . S
C17 C16 1.394 . S
C17 C18 1.382 . S
C18 C17 1.382 . S
C18 C19 1.392 . S
C18 N20 1.420 . S
C19 H13 0.930 . S
C19 C15 1.407 . S
C19 C18 1.392 . S
N20 C18 1.420 . S
N20 C21 1.244 . S
C21 N20 1.244 . S
H22 C25 0.929 . S
H23 C28 0.929 . S
H24 C30 0.930 . S
C25 H22 0.929 . S
C25 C26 1.398 . S
C25 C27 1.396 . S
C26 C25 1.398 . S
C26 C30 1.407 . S
C27 C25 1.396 . S
C27 C28 1.394 . S
C28 H23 0.929 . S
C28 C27 1.394 . S
C28 C29 1.382 . S
C29 C28 1.382 . S
C29 C30 1.392 . S
C29 N31 1.420 . S
C30 H24 0.930 . S
C30 C26 1.407 . S
C30 C29 1.392 . S
N31 C29 1.420 . S
N31 C32 1.244 . S
C32 N31 1.244 . S
H33 C36 0.929 . S
H34 C39 0.929 . S
H35 C41 0.930 . S
C36 H33 0.929 . S
C36 C37 1.398 . S
C36 C38 1.396 . S
C37 C36 1.398 . S
C37 C41 1.407 . S
C38 C36 1.396 . S
C38 C39 1.394 . S
C39 H34 0.929 . S
C39 C38 1.394 . S
C39 C40 1.382 . S
C40 C39 1.382 . S
C40 C41 1.392 . S
C40 N42 1.420 . S
C41 H35 0.930 . S
C41 C37 1.407 . S
C41 C40 1.392 . S
N42 C40 1.420 . S
N42 C43 1.244 . S
C43 N42 1.244 . S
H44 C47 0.929 1_545 S
H45 C50 0.929 . S
H46 C52 0.930 . S
C47 H44 0.929 1_565 S
C47 C48 1.398 . S
C47 C49 1.396 . S
C48 C47 1.398 . S
C48 C52 1.407 . S
C49 C47 1.396 . S
C49 C50 1.394 . S
C50 H45 0.929 . S
C50 C49 1.394 . S
C50 C51 1.382 . S
C51 C50 1.382 . S
C51 C52 1.392 . S
C51 N53 1.420 . S
C52 H46 0.930 . S
C52 C48 1.407 . S
C52 C51 1.392 . S
N53 C51 1.420 . S
N53 C54 1.244 . S
C54 N53 1.244 . S
H55 C58 0.929 . S
H56 C61 0.929 . S
H57 C63 0.930 . S
C58 H55 0.929 . S
C58 C59 1.398 . S
C58 C60 1.396 . S
C59 C58 1.398 . S
C59 C63 1.407 . S
C60 C58 1.396 . S
C60 C61 1.394 . S
C61 H56 0.929 . S
C61 C60 1.394 . S
C61 C62 1.382 . S
C62 C61 1.382 . S
C62 C63 1.392 . S
C62 N64 1.420 . S
C63 H57 0.930 . S
C63 C59 1.407 . S
C63 C62 1.392 . S
N64 C62 1.420 . S
N64 C65 1.244 . S
C65 N64 1.244 . S
H66 C69 0.929 . S
H67 C72 0.929 . S
H68 C74 0.930 . S
C69 H66 0.929 . S
C69 C70 1.398 . S
C69 C71 1.396 . S
C70 C69 1.398 . S
C70 C74 1.407 . S
C71 C69 1.396 . S
C71 C72 1.394 . S
C72 H67 0.929 . S
C72 C71 1.394 . S
C72 C73 1.382 . S
C73 C72 1.382 . S
C73 C74 1.392 . S
C73 N75 1.420 . S
C74 H68 0.930 . S
C74 C70 1.407 . S
C74 C73 1.392 . S
N75 C73 1.420 . S
N75 C76 1.244 . S
C76 N75 1.244 . S
H77 C80 0.929 . S
H78 C83 0.929 . S
H79 C85 0.930 . S
C80 H77 0.929 . S
C80 C81 1.398 . S
C80 C82 1.396 . S
C81 C80 1.398 . S
C81 C85 1.407 . S
C82 C80 1.396 . S
C82 C83 1.394 . S
C83 H78 0.929 . S
C83 C82 1.394 . S
C83 C84 1.382 . S
C84 C83 1.382 . S
C84 C85 1.392 . S
C84 N86 1.420 . S
C85 H79 0.930 . S
C85 C81 1.407 . S
C85 C84 1.392 . S
N86 C84 1.420 . S
N86 C87 1.244 . S
C87 N86 1.244 . S
H88 C91 0.929 . S
H89 C94 0.929 . S
H90 C96 0.930 . S
C91 H88 0.929 . S
C91 C92 1.398 . S
C91 C93 1.396 . S
C92 C91 1.398 . S
C92 C96 1.407 . S
C93 C91 1.396 . S
C93 C94 1.394 . S
C94 H89 0.929 . S
C94 C93 1.394 . S
C94 C95 1.382 . S
C95 C94 1.382 . S
C95 C96 1.392 . S
C95 N97 1.420 . S
C96 H90 0.930 . S
C96 C92 1.407 . S
C96 C95 1.392 . S
N97 C95 1.420 . S
N97 C98 1.244 . S
C98 N97 1.244 . S
H99 C102 0.929 . S
H100 C105 0.929 . S
H101 C107 0.930 . S
C102 H99 0.929 . S
C102 C103 1.398 . S
C102 C104 1.396 . S
C103 C102 1.398 . S
C103 C107 1.407 . S
C104 C102 1.396 . S
C104 C105 1.394 . S
C105 H100 0.929 . S
C105 C104 1.394 . S
C105 C106 1.382 . S
C106 C105 1.382 . S
C106 C107 1.392 . S
C106 N108 1.420 . S
C107 H101 0.930 . S
C107 C103 1.407 . S
C107 C106 1.392 . S
N108 C106 1.420 . S
N108 C109 1.244 . S
C109 N108 1.244 . S
H110 C113 0.929 . S
H111 C116 0.929 . S
H112 C118 0.930 . S
C113 H110 0.929 . S
C113 C114 1.398 . S
C113 C115 1.396 . S
C114 C113 1.398 . S
C114 C118 1.407 . S
C115 C113 1.396 . S
C115 C116 1.394 . S
C116 H111 0.929 . S
C116 C115 1.394 . S
C116 C117 1.382 . S
C117 C116 1.382 . S
C117 C118 1.392 . S
C117 N119 1.420 . S
C118 H112 0.930 . S
C118 C114 1.407 . S
C118 C117 1.392 . S
N119 C117 1.420 . S
N119 C120 1.244 . S
C120 N119 1.244 . S
H121 C124 0.929 . S
H122 C127 0.929 . S
H123 C129 0.930 . S
C124 H121 0.929 . S
C124 C125 1.398 . S
C124 C126 1.396 . S
C125 C124 1.398 . S
C125 C129 1.407 . S
C126 C124 1.396 . S
C126 C127 1.394 . S
C127 H122 0.929 . S
C127 C126 1.394 . S
C127 C128 1.382 . S
C128 C127 1.382 . S
C128 C129 1.392 . S
C128 N130 1.420 . S
C129 H123 0.930 . S
C129 C125 1.407 . S
C129 C128 1.392 . S
N130 C128 1.420 . S
N130 C131 1.244 . S
C131 N130 1.244 . S
H132 C135 0.929 . S
H133 C138 0.929 . S
H134 C140 0.930 . S
C135 H132 0.929 . S
C135 C136 1.398 . S
C135 C137 1.396 . S
C136 C135 1.398 . S
C136 C140 1.407 . S
C137 C135 1.396 . S
C137 C138 1.394 . S
C138 H133 0.929 . S
C138 C137 1.394 . S
C138 C139 1.382 . S
C139 C138 1.382 . S
C139 C140 1.392 . S
C139 N141 1.420 . S
C140 H134 0.930 . S
C140 C136 1.407 . S
C140 C139 1.392 . S
N141 C139 1.420 . S
N141 C142 1.244 . S
C142 N141 1.244 . S
H143 C146 0.929 . S
H144 C149 0.929 . S
H145 C151 0.930 . S
C146 H143 0.929 . S
C146 C147 1.398 . S
C146 C148 1.396 . S
C147 C146 1.398 . S
C147 C151 1.407 . S
C148 C146 1.396 . S
C148 C149 1.394 . S
C149 H144 0.929 . S
C149 C148 1.394 . S
C149 C150 1.382 . S
C150 C149 1.382 . S
C150 C151 1.392 . S
C150 N152 1.420 . S
C151 H145 0.930 . S
C151 C147 1.407 . S
C151 C150 1.392 . S
N152 C150 1.420 . S
N152 C153 1.244 . S
C153 N152 1.244 . S
H154 C157 0.929 . S
H155 C160 0.929 . S
H156 C162 0.930 . S
C157 H154 0.929 . S
C157 C158 1.398 . S
C157 C159 1.396 . S
C158 C157 1.398 . S
C158 C162 1.407 . S
C159 C157 1.396 . S
C159 C160 1.394 . S
C160 H155 0.929 . S
C160 C159 1.394 . S
C160 C161 1.382 . S
C161 C160 1.382 . S
C161 C162 1.392 . S
C161 N163 1.420 . S
C162 H156 0.930 . S
C162 C158 1.407 . S
C162 C161 1.392 . S
N163 C161 1.420 . S
N163 C164 1.244 . S
C164 N163 1.244 . S
H165 C168 0.929 1_554 S
H166 C171 0.929 . S
H167 C173 0.930 . S
C168 H165 0.929 1_556 S
C168 C169 1.398 . S
C168 C170 1.396 . S
C169 C168 1.398 . S
C169 C173 1.407 . S
C170 C168 1.396 . S
C170 C171 1.394 . S
C171 H166 0.929 . S
C171 C170 1.394 . S
C171 C172 1.382 . S
C172 C171 1.382 . S
C172 C173 1.392 . S
C172 N174 1.420 . S
C173 H167 0.930 . S
C173 C169 1.407 . S
C173 C172 1.392 . S
N174 C172 1.420 . S
N174 C175 1.244 . S
C175 N174 1.244 . S
O176 Cd177 2.223 . S
O176 C184 1.315 . S
Cd177 O176 2.223 . S
Cd177 O180 2.297 . S
Cd177 O181 2.439 . S
Cd177 O187 2.240 . S
Cd178 O179 2.240 . S
Cd178 O186 2.223 . S
Cd178 O188 2.297 1_565 S
Cd178 O189 2.439 . S
O179 Cd178 2.240 . S
O179 C184 1.279 . S
O180 Cd177 2.297 . S
O180 C182 1.247 . S
O181 Cd177 2.439 . S
O181 C182 1.208 . S
C182 O180 1.247 . S
C182 O181 1.208 . S
C183 O188 1.247 . S
C183 O189 1.208 1_545 S
C184 O176 1.315 . S
C184 O179 1.279 . S
C185 O186 1.315 . S
C185 O187 1.279 . S
O186 Cd178 2.223 . S
O186 C185 1.315 . S
O187 Cd177 2.240 . S
O187 C185 1.279 . S
O188 Cd178 2.297 1_545 S
O188 C183 1.247 . S
O189 Cd178 2.439 . S
O189 C183 1.208 1_565 S
O190 Cd191 2.223 . S
O190 C198 1.315 . S
Cd191 O190 2.223 . S
Cd191 O194 2.297 . S
Cd191 O195 2.439 . S
Cd191 O201 2.240 . S
Cd192 O193 2.240 . S
Cd192 O200 2.223 . S
Cd192 O202 2.297 . S
Cd192 O203 2.439 . S
O193 Cd192 2.240 . S
O193 C198 1.279 . S
O194 Cd191 2.297 . S
O194 C196 1.247 . S
O195 Cd191 2.439 . S
O195 C196 1.208 . S
C196 O194 1.247 . S
C196 O195 1.208 . S
C197 O202 1.247 . S
C197 O203 1.208 . S
C198 O190 1.315 . S
C198 O193 1.279 . S
C199 O200 1.315 . S
C199 O201 1.279 . S
O200 Cd192 2.223 . S
O200 C199 1.315 . S
O201 Cd191 2.240 . S
O201 C199 1.279 . S
O202 Cd192 2.297 . S
O202 C197 1.247 . S
O203 Cd192 2.439 . S
O203 C197 1.208 . S
O204 Cd205 2.223 1_556 S
O204 C212 1.315 . S
Cd205 O204 2.223 1_554 S
Cd205 O208 2.297 . S
Cd205 O209 2.439 . S
Cd205 O215 2.240 1_554 S
Cd206 O207 2.240 . S
Cd206 O214 2.223 . S
Cd206 O216 2.297 . S
Cd206 O217 2.439 1_556 S
O207 Cd206 2.240 . S
O207 C212 1.279 . S
O208 Cd205 2.297 . S
O208 C210 1.247 . S
O209 Cd205 2.439 . S
O209 C210 1.208 . S
C210 O208 1.247 . S
C210 O209 1.208 . S
C211 O216 1.247 1_554 S
C211 O217 1.208 . S
C212 O204 1.315 . S
C212 O207 1.279 . S
C213 O214 1.315 . S
C213 O215 1.279 . S
O214 Cd206 2.223 . S
O214 C213 1.315 . S
O215 Cd205 2.240 1_556 S
O215 C213 1.279 . S
O216 Cd206 2.297 . S
O216 C211 1.247 1_556 S
O217 Cd206 2.439 1_554 S
O217 C211 1.208 . S
O218 Cd219 2.223 . S
O218 C226 1.315 . S
Cd219 O218 2.223 . S
Cd219 O222 2.297 1_655 S
Cd219 O223 2.439 . S
Cd219 O229 2.240 . S
Cd220 O221 2.240 . S
Cd220 O228 2.223 . S
Cd220 O230 2.297 . S
Cd220 O231 2.439 . S
O221 Cd220 2.240 . S
O221 C226 1.279 . S
O222 Cd219 2.297 1_455 S
O222 C224 1.247 . S
O223 Cd219 2.439 . S
O223 C224 1.208 1_655 S
C224 O222 1.247 . S
C224 O223 1.208 1_455 S
C225 O230 1.247 . S
C225 O231 1.208 . S
C226 O218 1.315 . S
C226 O221 1.279 . S
C227 O228 1.315 . S
C227 O229 1.279 . S
O228 Cd220 2.223 . S
O228 C227 1.315 . S
O229 Cd219 2.240 . S
O229 C227 1.279 . S
O230 Cd220 2.297 . S
O230 C225 1.247 . S
O231 Cd220 2.439 . S
O231 C225 1.208 . S
O232 Cd233 2.223 . S
O232 C240 1.315 . S
Cd233 O232 2.223 . S
Cd233 O236 2.297 . S
Cd233 O237 2.439 . S
Cd233 O243 2.240 . S
Cd234 O235 2.240 . S
Cd234 O242 2.223 . S
Cd234 O244 2.297 . S
Cd234 O245 2.439 . S
O235 Cd234 2.240 . S
O235 C240 1.279 . S
O236 Cd233 2.297 . S
O236 C238 1.247 . S
O237 Cd233 2.439 . S
O237 C238 1.208 . S
C238 O236 1.247 . S
C238 O237 1.208 . S
C239 O244 1.247 . S
C239 O245 1.208 . S
C240 O232 1.315 . S
C240 O235 1.279 . S
C241 O242 1.315 . S
C241 O243 1.279 . S
O242 Cd234 2.223 . S
O242 C241 1.315 . S
O243 Cd233 2.240 . S
O243 C241 1.279 . S
O244 Cd234 2.297 . S
O244 C239 1.247 . S
O245 Cd234 2.439 . S
O245 C239 1.208 . S
O246 Cd247 2.223 . S
O246 C254 1.315 . S
Cd247 O246 2.223 . S
Cd247 O250 2.297 . S
Cd247 O251 2.439 . S
Cd247 O257 2.240 . S
Cd248 O249 2.240 . S
Cd248 O256 2.223 . S
Cd248 O258 2.297 . S
Cd248 O259 2.439 . S
O249 Cd248 2.240 . S
O249 C254 1.279 . S
O250 Cd247 2.297 . S
O250 C252 1.247 . S
O251 Cd247 2.439 . S
O251 C252 1.208 . S
C252 O250 1.247 . S
C252 O251 1.208 . S
C253 O258 1.247 . S
C253 O259 1.208 . S
C254 O246 1.315 . S
C254 O249 1.279 . S
C255 O256 1.315 . S
C255 O257 1.279 . S
O256 Cd248 2.223 . S
O256 C255 1.315 . S
O257 Cd247 2.240 . S
O257 C255 1.279 . S
O258 Cd248 2.297 . S
O258 C253 1.247 . S
O259 Cd248 2.439 . S
O259 C253 1.208 . S
O260 Cd261 2.223 . S
O260 C268 1.315 . S
Cd261 O260 2.223 . S
Cd261 O264 2.297 . S
Cd261 O265 2.439 . S
Cd261 O271 2.240 . S
Cd262 O263 2.240 . S
Cd262 O270 2.223 . S
Cd262 O272 2.297 . S
Cd262 O273 2.439 . S
O263 Cd262 2.240 . S
O263 C268 1.279 . S
O264 Cd261 2.297 . S
O264 C266 1.247 . S
O265 Cd261 2.439 . S
O265 C266 1.208 . S
C266 O264 1.247 . S
C266 O265 1.208 . S
C267 O272 1.247 . S
C267 O273 1.208 . S
C268 O260 1.315 . S
C268 O263 1.279 . S
C269 O270 1.315 . S
C269 O271 1.279 . S
O270 Cd262 2.223 . S
O270 C269 1.315 . S
O271 Cd261 2.240 . S
O271 C269 1.279 . S
O272 Cd262 2.297 . S
O272 C267 1.247 . S
O273 Cd262 2.439 . S
O273 C267 1.208 . S
O274 Cd275 2.223 1_545 S
O274 C282 1.315 . S
Cd275 O274 2.223 1_565 S
Cd275 O278 2.297 . S
Cd275 O279 2.439 . S
Cd275 O285 2.240 1_565 S
Cd276 O277 2.240 . S
Cd276 O284 2.223 . S
Cd276 O286 2.297 . S
Cd276 O287 2.439 1_545 S
O277 Cd276 2.240 . S
O277 C282 1.279 . S
O278 Cd275 2.297 . S
O278 C280 1.247 . S
O279 Cd275 2.439 . S
O279 C280 1.208 . S
C280 O278 1.247 . S
C280 O279 1.208 . S
C281 O286 1.247 1_565 S
C281 O287 1.208 . S
C282 O274 1.315 . S
C282 O277 1.279 . S
C283 O284 1.315 . S
C283 O285 1.279 . S
O284 Cd276 2.223 . S
O284 C283 1.315 . S
O285 Cd275 2.240 1_545 S
O285 C283 1.279 . S
O286 Cd276 2.297 . S
O286 C281 1.247 1_545 S
O287 Cd276 2.439 1_565 S
O287 C281 1.208 . S
O288 Cd289 2.223 . S
O288 C296 1.315 . S
Cd289 O288 2.223 . S
Cd289 O292 2.297 1_655 S
Cd289 O293 2.439 1_655 S
Cd289 O299 2.240 . S
Cd290 O291 2.240 . S
Cd290 O298 2.223 1_455 S
Cd290 O300 2.297 . S
Cd290 O301 2.439 . S
O291 Cd290 2.240 . S
O291 C296 1.279 1_455 S
O292 Cd289 2.297 1_455 S
O292 C294 1.247 . S
O293 Cd289 2.439 1_455 S
O293 C294 1.208 . S
C294 O292 1.247 . S
C294 O293 1.208 . S
C295 O300 1.247 . S
C295 O301 1.208 . S
C296 O288 1.315 . S
C296 O291 1.279 1_655 S
C297 O298 1.315 . S
C297 O299 1.279 . S
O298 Cd290 2.223 1_655 S
O298 C297 1.315 . S
O299 Cd289 2.240 . S
O299 C297 1.279 . S
O300 Cd290 2.297 . S
O300 C295 1.247 . S
O301 Cd290 2.439 . S
O301 C295 1.208 . S
O302 Cd303 2.223 . S
O302 C310 1.315 . S
Cd303 O302 2.223 . S
Cd303 O306 2.297 . S
Cd303 O307 2.439 . S
Cd303 O313 2.240 . S
Cd304 O305 2.240 . S
Cd304 O312 2.223 . S
Cd304 O314 2.297 . S
Cd304 O315 2.439 . S
O305 Cd304 2.240 . S
O305 C310 1.279 . S
O306 Cd303 2.297 . S
O306 C308 1.247 . S
O307 Cd303 2.439 . S
O307 C308 1.208 . S
C308 O306 1.247 . S
C308 O307 1.208 . S
C309 O314 1.247 . S
C309 O315 1.208 . S
C310 O302 1.315 . S
C310 O305 1.279 . S
C311 O312 1.315 . S
C311 O313 1.279 . S
O312 Cd304 2.223 . S
O312 C311 1.315 . S
O313 Cd303 2.240 . S
O313 C311 1.279 . S
O314 Cd304 2.297 . S
O314 C309 1.247 . S
O315 Cd304 2.439 . S
O315 C309 1.208 . S
O316 Cd317 2.223 1_655 S
O316 C324 1.315 . S
Cd317 O316 2.223 1_455 S
Cd317 O320 2.297 . S
Cd317 O321 2.439 . S
Cd317 O327 2.240 . S
Cd318 O319 2.240 . S
Cd318 O326 2.223 . S
Cd318 O328 2.297 1_655 S
Cd318 O329 2.439 1_655 S
O319 Cd318 2.240 . S
O319 C324 1.279 . S
O320 Cd317 2.297 . S
O320 C322 1.247 . S
O321 Cd317 2.439 . S
O321 C322 1.208 . S
C322 O320 1.247 . S
C322 O321 1.208 . S
C323 O328 1.247 . S
C323 O329 1.208 . S
C324 O316 1.315 . S
C324 O319 1.279 . S
C325 O326 1.315 . S
C325 O327 1.279 1_655 S
O326 Cd318 2.223 . S
O326 C325 1.315 . S
O327 Cd317 2.240 . S
O327 C325 1.279 1_455 S
O328 Cd318 2.297 1_455 S
O328 C323 1.247 . S
O329 Cd318 2.439 1_455 S
O329 C323 1.208 . S
O330 Cd331 2.223 . S
O330 C338 1.315 . S
Cd331 O330 2.223 . S
Cd331 O334 2.297 . S
Cd331 O335 2.439 . S
Cd331 O341 2.240 . S
Cd332 O333 2.240 . S
Cd332 O340 2.223 . S
Cd332 O342 2.297 . S
Cd332 O343 2.439 . S
O333 Cd332 2.240 . S
O333 C338 1.279 . S
O334 Cd331 2.297 . S
O334 C336 1.247 . S
O335 Cd331 2.439 . S
O335 C336 1.208 . S
C336 O334 1.247 . S
C336 O335 1.208 . S
C337 O342 1.247 . S
C337 O343 1.208 . S
C338 O330 1.315 . S
C338 O333 1.279 . S
C339 O340 1.315 . S
C339 O341 1.279 . S
O340 Cd332 2.223 . S
O340 C339 1.315 . S
O341 Cd331 2.240 . S
O341 C339 1.279 . S
O342 Cd332 2.297 . S
O342 C337 1.247 . S
O343 Cd332 2.439 . S
O343 C337 1.208 . S
C344 C345 1.363 . S
C344 C350 1.379 . S
C344 N352 1.356 . S
C345 C344 1.363 . S
C345 C351 1.363 . S
C346 C347 1.363 . S
C346 C351 1.379 . S
C346 N353 1.356 1_556 S
C347 C346 1.363 . S
C347 C350 1.363 . S
N348 C350 1.356 . S
N348 H360 0.984 . S
N348 H361 0.985 1_556 S
N349 C351 1.356 . S
N349 H354 0.984 . S
N349 H355 0.985 . S
C350 C344 1.379 . S
C350 C347 1.363 . S
C350 N348 1.356 . S
C351 C345 1.363 . S
C351 C346 1.379 . S
C351 N349 1.356 . S
N352 C344 1.356 . S
N352 H358 0.984 . S
N352 H359 0.984 . S
N353 C346 1.356 1_554 S
N353 H356 0.984 . S
N353 H357 0.985 . S
H354 N349 0.984 . S
H355 N349 0.985 . S
H356 N353 0.984 . S
H357 N353 0.985 . S
H358 N352 0.984 . S
H359 N352 0.984 . S
H360 N348 0.984 . S
H361 N348 0.985 1_554 S
C362 C363 1.372 . S
C362 C368 1.379 . S
C362 N370 1.356 . S
C363 C362 1.372 . S
C363 C369 1.363 1_455 S
C364 C365 1.363 . S
C364 C369 1.379 1_455 S
C364 N371 1.356 . S
C365 C364 1.363 . S
C365 C368 1.363 . S
N366 C368 1.356 . S
N366 H378 0.984 . S
N366 H379 0.985 . S
N367 C369 1.356 . S
N367 H372 0.984 . S
N367 H373 0.985 . S
C368 C362 1.379 . S
C368 C365 1.363 . S
C368 N366 1.356 . S
C369 C363 1.363 1_655 S
C369 C364 1.379 1_655 S
C369 N367 1.356 . S
N370 C362 1.356 . S
N370 H376 0.984 . S
N370 H377 0.984 . S
N371 C364 1.356 . S
N371 H374 0.984 . S
N371 H375 0.985 . S
H372 N367 0.984 . S
H373 N367 0.985 . S
H374 N371 0.984 . S
H375 N371 0.985 . S
H376 N370 0.984 . S
H377 N370 0.984 . S
H378 N366 0.984 . S
H379 N366 0.985 . S
C380 C381 1.363 . S
C380 C386 1.379 . S
C380 N388 1.356 . S
C381 C380 1.363 . S
C381 C387 1.363 . S
C382 C383 1.363 . S
C382 C387 1.379 . S
C382 N389 1.356 . S
C383 C382 1.363 . S
C383 C386 1.363 . S
N384 C386 1.356 . S
N384 H396 0.984 . S
N384 H397 0.985 . S
N385 C387 1.356 . S
N385 H390 0.984 . S
N385 H391 0.985 . S
C386 C380 1.379 . S
C386 C383 1.363 . S
C386 N384 1.356 . S
C387 C381 1.363 . S
C387 C382 1.379 . S
C387 N385 1.356 . S
N388 C380 1.356 . S
N388 H394 0.984 . S
N388 H395 0.984 . S
N389 C382 1.356 . S
N389 H392 0.984 . S
N389 H393 0.985 . S
H390 N385 0.984 . S
H391 N385 0.985 . S
H392 N389 0.984 . S
H393 N389 0.985 . S
H394 N388 0.984 . S
H395 N388 0.984 . S
H396 N384 0.984 . S
H397 N384 0.985 . S
C398 C399 1.363 1_545 S
C398 C404 1.379 . S
C398 N406 1.356 1_545 S
C399 C398 1.363 1_565 S
C399 C405 1.363 1_565 S
C400 C401 1.363 . S
C400 C405 1.379 . S
C400 N407 1.356 . S
C401 C400 1.363 . S
C401 C404 1.363 . S
N402 C404 1.356 1_655 S
N402 H414 0.984 . S
N402 H415 0.985 . S
N403 C405 1.356 1_565 S
N403 H408 0.984 . S
N403 H409 0.985 . S
C404 C398 1.379 . S
C404 C401 1.363 . S
C404 N402 1.356 1_455 S
C405 C399 1.363 1_545 S
C405 C400 1.379 . S
C405 N403 1.356 1_545 S
N406 C398 1.356 1_565 S
N406 H412 0.984 . S
N406 H413 0.984 . S
N407 C400 1.356 . S
N407 H410 0.984 . S
N407 H411 0.985 . S
H408 N403 0.984 . S
H409 N403 0.985 . S
H410 N407 0.984 . S
H411 N407 0.985 . S
H412 N406 0.984 . S
H413 N406 0.984 . S
H414 N402 0.984 . S
H415 N402 0.985 . S
C416 C417 1.363 . S
C416 C422 1.379 . S
C416 N424 1.356 . S
C417 C416 1.363 . S
C417 C423 1.363 . S
C418 C419 1.363 . S
C418 C423 1.379 . S
C418 N425 1.356 . S
C419 C418 1.363 . S
C419 C422 1.363 . S
N420 C422 1.356 . S
N420 H432 0.984 . S
N420 H433 0.985 . S
N421 C423 1.356 . S
N421 H426 0.984 . S
N421 H427 0.985 . S
C422 C416 1.379 . S
C422 C419 1.363 . S
C422 N420 1.356 . S
C423 C417 1.363 . S
C423 C418 1.379 . S
C423 N421 1.356 . S
N424 C416 1.356 . S
N424 H430 0.984 . S
N424 H431 0.984 . S
N425 C418 1.356 . S
N425 H428 0.984 . S
N425 H429 0.985 . S
H426 N421 0.984 . S
H427 N421 0.985 . S
H428 N425 0.984 . S
H429 N425 0.985 . S
H430 N424 0.984 . S
H431 N424 0.984 . S
H432 N420 0.984 . S
H433 N420 0.985 . S
C434 C435 1.363 . S
C434 C440 1.379 . S
C434 N442 1.356 . S
C435 C434 1.363 . S
C435 C441 1.363 . S
C436 C437 1.363 . S
C436 C441 1.379 . S
C436 N443 1.356 . S
C437 C436 1.363 . S
C437 C440 1.363 . S
N438 C440 1.356 . S
N438 H450 0.984 . S
N438 H451 0.985 . S
N439 C441 1.356 . S
N439 H444 0.984 . S
N439 H445 0.985 . S
C440 C434 1.379 . S
C440 C437 1.363 . S
C440 N438 1.356 . S
C441 C435 1.363 . S
C441 C436 1.379 . S
C441 N439 1.356 . S
N442 C434 1.356 . S
N442 H448 0.984 . S
N442 H449 0.984 . S
N443 C436 1.356 . S
N443 H446 0.984 . S
N443 H447 0.985 . S
H444 N439 0.984 . S
H445 N439 0.985 . S
H446 N443 0.984 . S
H447 N443 0.985 . S
H448 N442 0.984 . S
H449 N442 0.984 . S
H450 N438 0.984 . S
H451 N438 0.985 . S
C452 C453 1.363 . S
C452 C458 1.379 . S
C452 N460 1.356 . S
C453 C452 1.363 . S
C453 C459 1.363 . S
C454 C455 1.363 . S
C454 C459 1.379 . S
C454 N461 1.356 . S
C455 C454 1.363 . S
C455 C458 1.363 . S
N456 C458 1.356 . S
N456 H468 0.984 . S
N456 H469 0.985 . S
N457 C459 1.356 . S
N457 H462 0.984 . S
N457 H463 0.985 . S
C458 C452 1.379 . S
C458 C455 1.363 . S
C458 N456 1.356 . S
C459 C453 1.363 . S
C459 C454 1.379 . S
C459 N457 1.356 . S
N460 C452 1.356 . S
N460 H466 0.984 . S
N460 H467 0.984 . S
N461 C454 1.356 . S
N461 H464 0.984 . S
N461 H465 0.985 . S
H462 N457 0.984 . S
H463 N457 0.985 . S
H464 N461 0.984 . S
H465 N461 0.985 . S
H466 N460 0.984 . S
H467 N460 0.984 . S
H468 N456 0.984 . S
H469 N456 0.985 . S
C470 C471 1.363 . S
C470 C476 1.379 . S
C470 N478 1.356 . S
C471 C470 1.363 . S
C471 C477 1.363 . S
C472 C473 1.363 . S
C472 C477 1.379 . S
C472 N479 1.356 . S
C473 C472 1.363 . S
C473 C476 1.363 . S
N474 C476 1.356 . S
N474 H486 0.984 1_565 S
N474 H487 0.985 . S
N475 C477 1.356 . S
N475 H480 0.984 . S
N475 H481 0.985 . S
C476 C470 1.379 . S
C476 C473 1.363 . S
C476 N474 1.356 . S
C477 C471 1.363 . S
C477 C472 1.379 . S
C477 N475 1.356 . S
N478 C470 1.356 . S
N478 H484 0.984 1_565 S
N478 H485 0.984 . S
N479 C472 1.356 . S
N479 H482 0.984 . S
N479 H483 0.985 . S
H480 N475 0.984 . S
H481 N475 0.985 . S
H482 N479 0.984 . S
H483 N479 0.985 . S
H484 N478 0.984 1_545 S
H485 N478 0.984 . S
H486 N474 0.984 1_545 S
H487 N474 0.985 . S
C488 C489 1.363 . S
C488 C494 1.379 . S
C488 N496 1.356 . S
C489 C488 1.363 . S
C489 C495 1.363 . S
C490 C491 1.363 . S
C490 C495 1.379 . S
C490 N497 1.356 . S
C491 C490 1.363 . S
C491 C494 1.363 . S
N492 C494 1.356 . S
N492 H504 0.984 . S
N492 H505 0.985 . S
N493 C495 1.356 . S
N493 H498 0.984 . S
N493 H499 0.985 . S
C494 C488 1.379 . S
C494 C491 1.363 . S
C494 N492 1.356 . S
C495 C489 1.363 . S
C495 C490 1.379 . S
C495 N493 1.356 . S
N496 C488 1.356 . S
N496 H502 0.984 . S
N496 H503 0.984 . S
N497 C490 1.356 . S
N497 H500 0.984 . S
N497 H501 0.985 . S
H498 N493 0.984 . S
H499 N493 0.985 . S
H500 N497 0.984 . S
H501 N497 0.985 . S
H502 N496 0.984 . S
H503 N496 0.984 . S
H504 N492 0.984 . S
H505 N492 0.985 . S
C506 C507 1.363 . S
C506 C512 1.379 . S
C506 N514 1.356 . S
C507 C506 1.363 . S
C507 C513 1.363 . S
C508 C509 1.363 . S
C508 C513 1.379 . S
C508 N515 1.356 . S
C509 C508 1.363 . S
C509 C512 1.363 . S
N510 C512 1.356 . S
N510 H522 0.984 . S
N510 H523 0.985 . S
N511 C513 1.356 . S
N511 H516 0.984 . S
N511 H517 0.985 . S
C512 C506 1.379 . S
C512 C509 1.363 . S
C512 N510 1.356 . S
C513 C507 1.363 . S
C513 C508 1.379 . S
C513 N511 1.356 . S
N514 C506 1.356 . S
N514 H520 0.984 . S
N514 H521 0.984 . S
N515 C508 1.356 . S
N515 H518 0.984 . S
N515 H519 0.985 . S
H516 N511 0.984 . S
H517 N511 0.985 . S
H518 N515 0.984 . S
H519 N515 0.985 . S
H520 N514 0.984 . S
H521 N514 0.984 . S
H522 N510 0.984 . S
H523 N510 0.985 . S
C524 C525 1.363 . S
C524 C530 1.379 . S
C524 N532 1.356 . S
C525 C524 1.363 . S
C525 C531 1.363 . S
C526 C527 1.363 . S
C526 C531 1.379 . S
C526 N533 1.356 . S
C527 C526 1.363 . S
C527 C530 1.363 . S
N528 C530 1.356 . S
N528 H540 0.984 . S
N528 H541 0.985 . S
N529 C531 1.356 . S
N529 H534 0.984 . S
N529 H535 0.985 . S
C530 C524 1.379 . S
C530 C527 1.363 . S
C530 N528 1.356 . S
C531 C525 1.363 . S
C531 C526 1.379 . S
C531 N529 1.356 . S
N532 C524 1.356 . S
N532 H538 0.984 . S
N532 H539 0.984 . S
N533 C526 1.356 . S
N533 H536 0.984 . S
N533 H537 0.985 . S
H534 N529 0.984 . S
H535 N529 0.985 . S
H536 N533 0.984 . S
H537 N533 0.985 . S
H538 N532 0.984 . S
H539 N532 0.984 . S
H540 N528 0.984 . S
H541 N528 0.985 . S
C542 C543 1.363 . S
C542 C548 1.379 . S
C542 N550 1.356 . S
C543 C542 1.363 . S
C543 C549 1.363 . S
C544 C545 1.363 . S
C544 C549 1.379 . S
C544 N551 1.356 . S
C545 C544 1.363 . S
C545 C548 1.363 . S
N546 C548 1.356 . S
N546 H558 0.984 . S
N546 H559 0.985 . S
N547 C549 1.356 . S
N547 H552 0.984 . S
N547 H553 0.985 . S
C548 C542 1.379 . S
C548 C545 1.363 . S
C548 N546 1.356 . S
C549 C543 1.363 . S
C549 C544 1.379 . S
C549 N547 1.356 . S
N550 C542 1.356 . S
N550 H556 0.984 . S
N550 H557 0.984 . S
N551 C544 1.356 . S
N551 H554 0.984 . S
N551 H555 0.985 . S
H552 N547 0.984 . S
H553 N547 0.985 . S
H554 N551 0.984 . S
H555 N551 0.985 . S
H556 N550 0.984 . S
H557 N550 0.984 . S
H558 N546 0.984 . S
H559 N546 0.985 . S
C560 C561 1.363 . S
C560 C566 1.379 . S
C560 N568 1.356 . S
C561 C560 1.363 . S
C561 C567 1.363 . S
C562 C563 1.363 . S
C562 C567 1.379 . S
C562 N569 1.356 . S
C563 C562 1.363 . S
C563 C566 1.363 . S
N564 C566 1.356 . S
N564 H576 0.984 . S
N564 H577 0.985 . S
N565 C567 1.356 . S
N565 H570 0.984 . S
N565 H571 0.985 . S
C566 C560 1.379 . S
C566 C563 1.363 . S
C566 N564 1.356 . S
C567 C561 1.363 . S
C567 C562 1.379 . S
C567 N565 1.356 . S
N568 C560 1.356 . S
N568 H574 0.984 . S
N568 H575 0.984 . S
N569 C562 1.356 . S
N569 H572 0.984 . S
N569 H573 0.985 . S
H570 N565 0.984 . S
H571 N565 0.985 . S
H572 N569 0.984 . S
H573 N569 0.985 . S
H574 N568 0.984 . S
H575 N568 0.984 . S
H576 N564 0.984 . S
H577 N564 0.985 . S
C578 C579 1.363 . S
C578 C584 1.379 . S
C578 N586 1.356 . S
C579 C578 1.363 . S
C579 C585 1.363 . S
C580 C581 1.363 . S
C580 C585 1.379 . S
C580 N587 1.356 . S
C581 C580 1.363 . S
C581 C584 1.363 . S
N582 C584 1.356 . S
N582 H594 0.984 . S
N582 H595 0.985 . S
N583 C585 1.356 . S
N583 H588 0.984 . S
N583 H589 0.985 1_455 S
C584 C578 1.379 . S
C584 C581 1.363 . S
C584 N582 1.356 . S
C585 C579 1.363 . S
C585 C580 1.379 . S
C585 N583 1.356 . S
N586 C578 1.356 . S
N586 H592 0.984 . S
N586 H593 0.984 . S
N587 C580 1.356 . S
N587 H590 0.984 . S
N587 H591 0.985 1_455 S
H588 N583 0.984 . S
H589 N583 0.985 1_655 S
H590 N587 0.984 . S
H591 N587 0.985 1_655 S
H592 N586 0.984 . S
H593 N586 0.984 . S
H594 N582 0.984 . S
H595 N582 0.985 . S
C596 C597 1.363 . S
C596 C602 1.379 . S
C596 N604 1.356 . S
C597 C596 1.363 . S
C597 C603 1.363 . S
C598 C599 1.363 . S
C598 C603 1.379 . S
C598 N605 1.356 . S
C599 C598 1.363 . S
C599 C602 1.363 . S
N600 C602 1.356 . S
N600 H612 0.984 . S
N600 H613 0.985 . S
N601 C603 1.356 . S
N601 H606 0.984 . S
N601 H607 0.985 . S
C602 C596 1.379 . S
C602 C599 1.363 . S
C602 N600 1.356 . S
C603 C597 1.363 . S
C603 C598 1.379 . S
C603 N601 1.356 . S
N604 C596 1.356 . S
N604 H610 0.984 . S
N604 H611 0.984 . S
N605 C598 1.356 . S
N605 H608 0.984 . S
N605 H609 0.985 . S
H606 N601 0.984 . S
H607 N601 0.985 . S
H608 N605 0.984 . S
H609 N605 0.985 . S
H610 N604 0.984 . S
H611 N604 0.984 . S
H612 N600 0.984 . S
H613 N600 0.985 . S
C614 C615 1.363 . S
C614 C620 1.379 . S
C614 N622 1.356 . S
C615 C614 1.363 . S
C615 C621 1.363 . S
C616 C617 1.363 . S
C616 C621 1.379 . S
C616 N623 1.356 . S
C617 C616 1.363 . S
C617 C620 1.363 . S
N618 C620 1.356 . S
N618 H630 0.984 . S
N618 H631 0.985 . S
N619 C621 1.356 . S
N619 H624 0.984 . S
N619 H625 0.985 . S
C620 C614 1.379 . S
C620 C617 1.363 . S
C620 N618 1.356 . S
C621 C615 1.363 . S
C621 C616 1.379 . S
C621 N619 1.356 . S
N622 C614 1.356 . S
N622 H628 0.984 . S
N622 H629 0.984 . S
N623 C616 1.356 . S
N623 H626 0.984 . S
N623 H627 0.985 . S
H624 N619 0.984 . S
H625 N619 0.985 . S
H626 N623 0.984 . S
H627 N623 0.985 . S
H628 N622 0.984 . S
H629 N622 0.984 . S
H630 N618 0.984 . S
H631 N618 0.985 . S
C632 C633 1.363 . S
C632 C638 1.379 . S
C632 N640 1.356 . S
C633 C632 1.363 . S
C633 C639 1.363 . S
C634 C635 1.363 . S
C634 C639 1.379 . S
C634 N641 1.356 . S
C635 C634 1.363 . S
C635 C638 1.363 . S
N636 C638 1.356 1_545 S
N636 H648 0.984 . S
N636 H649 0.985 . S
N637 C639 1.356 . S
N637 H642 0.984 . S
N637 H643 0.985 . S
C638 C632 1.379 . S
C638 C635 1.363 . S
C638 N636 1.356 1_565 S
C639 C633 1.363 . S
C639 C634 1.379 . S
C639 N637 1.356 . S
N640 C632 1.356 . S
N640 H646 0.984 . S
N640 H647 0.984 . S
N641 C634 1.356 . S
N641 H644 0.984 . S
N641 H645 0.985 . S
H642 N637 0.984 . S
H643 N637 0.985 . S
H644 N641 0.984 . S
H645 N641 0.985 . S
H646 N640 0.984 . S
H647 N640 0.984 . S
H648 N636 0.984 . S
H649 N636 0.985 . S
C650 C651 1.363 . S
C650 C656 1.379 . S
C650 N658 1.356 . S
C651 C650 1.363 . S
C651 C657 1.363 . S
C652 C653 1.363 . S
C652 C657 1.379 . S
C652 N659 1.356 . S
C653 C652 1.363 . S
C653 C656 1.363 . S
N654 C656 1.356 . S
N654 H666 0.984 . S
N654 H667 0.985 . S
N655 C657 1.356 . S
N655 H660 0.984 . S
N655 H661 0.985 . S
C656 C650 1.379 . S
C656 C653 1.363 . S
C656 N654 1.356 . S
C657 C651 1.363 . S
C657 C652 1.379 . S
C657 N655 1.356 . S
N658 C650 1.356 . S
N658 H664 0.984 . S
N658 H665 0.984 . S
N659 C652 1.356 . S
N659 H662 0.984 . S
N659 H663 0.985 . S
H660 N655 0.984 . S
H661 N655 0.985 . S
H662 N659 0.984 . S
H663 N659 0.985 . S
H664 N658 0.984 . S
H665 N658 0.984 . S
H666 N654 0.984 . S
H667 N654 0.985 . S
C668 C669 1.363 1_554 S
C668 C674 1.379 . S
C668 N676 1.356 . S
C669 C668 1.363 1_556 S
C669 C675 1.363 . S
C670 C671 1.363 1_566 S
C670 C675 1.379 1_565 S
C670 N677 1.356 . S
C671 C670 1.363 1_544 S
C671 C674 1.363 . S
N672 C674 1.356 . S
N672 H684 0.984 . S
N672 H685 0.985 . S
N673 C675 1.356 . S
N673 H678 0.984 . S
N673 H679 0.985 1_545 S
C674 C668 1.379 . S
C674 C671 1.363 . S
C674 N672 1.356 . S
C675 C669 1.363 . S
C675 C670 1.379 1_545 S
C675 N673 1.356 . S
N676 C668 1.356 . S
N676 H682 0.984 . S
N676 H683 0.984 . S
N677 C670 1.356 . S
N677 H680 0.984 1_556 S
N677 H681 0.985 . S
H678 N673 0.984 . S
H679 N673 0.985 1_565 S
H680 N677 0.984 1_554 S
H681 N677 0.985 . S
H682 N676 0.984 . S
H683 N676 0.984 . S
H684 N672 0.984 . S
H685 N672 0.985 . S
C686 C687 1.363 . S
C686 C692 1.379 . S
C686 N694 1.356 . S
C687 C686 1.363 . S
C687 C693 1.363 . S
C688 C689 1.363 . S
C688 C693 1.379 . S
C688 N695 1.356 . S
C689 C688 1.363 . S
C689 C692 1.363 . S
N690 C692 1.356 . S
N690 H702 0.984 . S
N690 H703 0.985 . S
N691 C693 1.356 . S
N691 H696 0.984 . S
N691 H697 0.985 . S
C692 C686 1.379 . S
C692 C689 1.363 . S
C692 N690 1.356 . S
C693 C687 1.363 . S
C693 C688 1.379 . S
C693 N691 1.356 . S
N694 C686 1.356 . S
N694 H700 0.984 . S
N694 H701 0.984 . S
N695 C688 1.356 . S
N695 H698 0.984 . S
N695 H699 0.985 . S
H696 N691 0.984 . S
H697 N691 0.985 . S
H698 N695 0.984 . S
H699 N695 0.985 . S
H700 N694 0.984 . S
H701 N694 0.984 . S
H702 N690 0.984 . S
H703 N690 0.985 . S
C704 C705 1.363 . S
C704 C710 1.379 . S
C704 N712 1.356 . S
C705 C704 1.363 . S
C705 C711 1.363 . S
C706 C707 1.363 . S
C706 C711 1.379 . S
C706 N713 1.356 . S
C707 C706 1.363 . S
C707 C710 1.363 . S
N708 C710 1.356 . S
N708 H720 0.984 . S
N708 H721 0.985 . S
N709 C711 1.356 1_565 S
N709 H714 0.984 . S
N709 H715 0.985 . S
C710 C704 1.379 . S
C710 C707 1.363 . S
C710 N708 1.356 . S
C711 C705 1.363 . S
C711 C706 1.379 . S
C711 N709 1.356 1_545 S
N712 C704 1.356 . S
N712 H718 0.984 . S
N712 H719 0.984 . S
N713 C706 1.356 . S
N713 H716 0.984 . S
N713 H717 0.985 . S
H714 N709 0.984 . S
H715 N709 0.985 . S
H716 N713 0.984 . S
H717 N713 0.985 . S
H718 N712 0.984 . S
H719 N712 0.984 . S
H720 N708 0.984 . S
H721 N708 0.985 . S
C722 C723 1.363 . S
C722 C728 1.379 . S
C722 N730 1.356 . S
C723 C722 1.363 . S
C723 C729 1.363 . S
C724 C725 1.363 . S
C724 C729 1.379 . S
C724 N731 1.356 . S
C725 C724 1.363 . S
C725 C728 1.363 . S
N726 C728 1.356 . S
N726 H738 0.984 . S
N726 H739 0.985 . S
N727 C729 1.356 . S
N727 H732 0.984 . S
N727 H733 0.985 . S
C728 C722 1.379 . S
C728 C725 1.363 . S
C728 N726 1.356 . S
C729 C723 1.363 . S
C729 C724 1.379 . S
C729 N727 1.356 . S
N730 C722 1.356 . S
N730 H736 0.984 . S
N730 H737 0.984 . S
N731 C724 1.356 . S
N731 H734 0.984 . S
N731 H735 0.985 . S
H732 N727 0.984 . S
H733 N727 0.985 . S
H734 N731 0.984 . S
H735 N731 0.985 . S
H736 N730 0.984 . S
H737 N730 0.984 . S
H738 N726 0.984 . S
H739 N726 0.985 . S
C740 C741 1.363 . S
C740 C746 1.379 . S
C740 N748 1.356 1_545 S
C741 C740 1.363 . S
C741 C747 1.363 . S
C742 C743 1.363 . S
C742 C747 1.379 . S
C742 N749 1.356 . S
C743 C742 1.363 . S
C743 C746 1.363 . S
N744 C746 1.356 . S
N744 H756 0.984 . S
N744 H757 0.985 . S
N745 C747 1.356 . S
N745 H750 0.984 1_545 S
N745 H751 0.985 . S
C746 C740 1.379 . S
C746 C743 1.363 . S
C746 N744 1.356 . S
C747 C741 1.363 . S
C747 C742 1.379 . S
C747 N745 1.356 . S
N748 C740 1.356 1_565 S
N748 H754 0.984 . S
N748 H755 0.984 . S
N749 C742 1.356 . S
N749 H752 0.984 . S
N749 H753 0.985 . S
H750 N745 0.984 1_565 S
H751 N745 0.985 . S
H752 N749 0.984 . S
H753 N749 0.985 . S
H754 N748 0.984 . S
H755 N748 0.984 . S
H756 N744 0.984 . S
H757 N744 0.985 . S
C758 C759 1.363 . S
C758 C764 1.379 . S
C758 N766 1.356 . S
C759 C758 1.363 . S
C759 C765 1.363 . S
C760 C761 1.363 . S
C760 C765 1.379 . S
C760 N767 1.356 . S
C761 C760 1.363 . S
C761 C764 1.363 . S
N762 C764 1.356 . S
N762 H774 0.984 . S
N762 H775 0.985 . S
N763 C765 1.356 . S
N763 H768 0.984 . S
N763 H769 0.985 . S
C764 C758 1.379 . S
C764 C761 1.363 . S
C764 N762 1.356 . S
C765 C759 1.363 . S
C765 C760 1.379 . S
C765 N763 1.356 . S
N766 C758 1.356 . S
N766 H772 0.984 . S
N766 H773 0.984 . S
N767 C760 1.356 . S
N767 H770 0.984 . S
N767 H771 0.985 . S
H768 N763 0.984 . S
H769 N763 0.985 . S
H770 N767 0.984 . S
H771 N767 0.985 . S
H772 N766 0.984 . S
H773 N766 0.984 . S
H774 N762 0.984 . S
H775 N762 0.985 . S
C776 C777 1.363 . S
C776 C782 1.379 . S
C776 N784 1.356 . S
C777 C776 1.363 . S
C777 C783 1.363 . S
C778 C779 1.363 . S
C778 C783 1.379 . S
C778 N785 1.356 . S
C779 C778 1.363 . S
C779 C782 1.363 . S
N780 C782 1.356 . S
N780 H792 0.984 . S
N780 H793 0.985 . S
N781 C783 1.356 . S
N781 H786 0.984 . S
N781 H787 0.985 . S
C782 C776 1.379 . S
C782 C779 1.363 . S
C782 N780 1.356 . S
C783 C777 1.363 . S
C783 C778 1.379 . S
C783 N781 1.356 . S
N784 C776 1.356 . S
N784 H790 0.984 . S
N784 H791 0.984 . S
N785 C778 1.356 . S
N785 H788 0.984 . S
N785 H789 0.985 . S
H786 N781 0.984 . S
H787 N781 0.985 . S
H788 N785 0.984 . S
H789 N785 0.985 . S
H790 N784 0.984 . S
H791 N784 0.984 . S
H792 N780 0.984 . S
H793 N780 0.985 . S
C794 C795 1.363 . S
C794 C800 1.379 . S
C794 N802 1.356 . S
C795 C794 1.363 . S
C795 C801 1.363 . S
C796 C797 1.363 . S
C796 C801 1.379 . S
C796 N803 1.356 . S
C797 C796 1.363 . S
C797 C800 1.363 . S
N798 C800 1.356 . S
N798 H810 0.984 . S
N798 H811 0.985 . S
N799 C801 1.356 . S
N799 H804 0.984 . S
N799 H805 0.985 . S
C800 C794 1.379 . S
C800 C797 1.363 . S
C800 N798 1.356 . S
C801 C795 1.363 . S
C801 C796 1.379 . S
C801 N799 1.356 . S
N802 C794 1.356 . S
N802 H808 0.984 . S
N802 H809 0.984 . S
N803 C796 1.356 . S
N803 H806 0.984 . S
N803 H807 0.985 . S
H804 N799 0.984 . S
H805 N799 0.985 . S
H806 N803 0.984 . S
H807 N803 0.985 . S
H808 N802 0.984 . S
H809 N802 0.984 . S
H810 N798 0.984 . S
H811 N798 0.985 . S
C812 C813 1.363 . S
C812 C818 1.379 . S
C812 N820 1.356 . S
C813 C812 1.363 . S
C813 C819 1.363 . S
C814 C815 1.363 . S
C814 C819 1.379 . S
C814 N821 1.356 . S
C815 C814 1.363 . S
C815 C818 1.363 . S
N816 C818 1.356 . S
N816 H828 0.984 . S
N816 H829 0.985 . S
N817 C819 1.356 . S
N817 H822 0.984 . S
N817 H823 0.985 . S
C818 C812 1.379 . S
C818 C815 1.363 . S
C818 N816 1.356 . S
C819 C813 1.363 . S
C819 C814 1.379 . S
C819 N817 1.356 . S
N820 C812 1.356 . S
N820 H826 0.984 . S
N820 H827 0.984 . S
N821 C814 1.356 . S
N821 H824 0.984 . S
N821 H825 0.985 . S
H822 N817 0.984 . S
H823 N817 0.985 . S
H824 N821 0.984 . S
H825 N821 0.985 . S
H826 N820 0.984 . S
H827 N820 0.984 . S
H828 N816 0.984 . S
H829 N816 0.985 . S
C830 C831 1.363 . S
C830 C836 1.379 . S
C830 N838 1.356 . S
C831 C830 1.363 . S
C831 C837 1.363 . S
C832 C833 1.363 . S
C832 C837 1.379 . S
C832 N839 1.356 . S
C833 C832 1.363 . S
C833 C836 1.363 . S
N834 C836 1.356 . S
N834 H846 0.984 . S
N834 H847 0.985 . S
N835 C837 1.356 . S
N835 H840 0.984 . S
N835 H841 0.985 . S
C836 C830 1.379 . S
C836 C833 1.363 . S
C836 N834 1.356 . S
C837 C831 1.363 . S
C837 C832 1.379 . S
C837 N835 1.356 . S
N838 C830 1.356 . S
N838 H844 0.984 . S
N838 H845 0.984 . S
N839 C832 1.356 . S
N839 H842 0.984 . S
N839 H843 0.985 . S
H840 N835 0.984 . S
H841 N835 0.985 . S
H842 N839 0.984 . S
H843 N839 0.985 . S
H844 N838 0.984 . S
H845 N838 0.984 . S
H846 N834 0.984 . S
H847 N834 0.985 . S
C848 C849 1.363 . S
C848 C854 1.379 . S
C848 N856 1.356 . S
C849 C848 1.363 . S
C849 C855 1.363 . S
C850 C851 1.363 . S
C850 C855 1.379 . S
C850 N857 1.356 . S
C851 C850 1.363 . S
C851 C854 1.363 . S
N852 C854 1.356 . S
N852 H864 0.984 . S
N852 H865 0.985 . S
N853 C855 1.356 . S
N853 H858 0.984 . S
N853 H859 0.985 . S
C854 C848 1.379 . S
C854 C851 1.363 . S
C854 N852 1.356 . S
C855 C849 1.363 . S
C855 C850 1.379 . S
C855 N853 1.356 . S
N856 C848 1.356 . S
N856 H862 0.984 . S
N856 H863 0.984 . S
N857 C850 1.356 . S
N857 H860 0.984 . S
N857 H861 0.985 . S
H858 N853 0.984 . S
H859 N853 0.985 . S
H860 N857 0.984 . S
H861 N857 0.985 . S
H862 N856 0.984 . S
H863 N856 0.984 . S
H864 N852 0.984 . S
H865 N852 0.985 . S
C866 C867 1.363 . S
C866 C872 1.379 . S
C866 N874 1.356 . S
C867 C866 1.363 . S
C867 C873 1.363 . S
C868 C869 1.363 . S
C868 C873 1.379 . S
C868 N875 1.356 1_455 S
C869 C868 1.363 . S
C869 C872 1.363 . S
N870 C872 1.356 . S
N870 H882 0.984 . S
N870 H883 0.985 . S
N871 C873 1.356 . S
N871 H876 0.984 . S
N871 H877 0.985 . S
C872 C866 1.379 . S
C872 C869 1.363 . S
C872 N870 1.356 . S
C873 C867 1.363 . S
C873 C868 1.379 . S
C873 N871 1.356 . S
N874 C866 1.356 . S
N874 H880 0.984 . S
N874 H881 0.984 . S
N875 C868 1.356 1_655 S
N875 H878 0.984 . S
N875 H879 0.985 . S
H876 N871 0.984 . S
H877 N871 0.985 . S
H878 N875 0.984 . S
H879 N875 0.985 . S
H880 N874 0.984 . S
H881 N874 0.984 . S
H882 N870 0.984 . S
H883 N870 0.985 . S
C884 C885 1.363 . S
C884 C890 1.379 . S
C884 N892 1.356 . S
C885 C884 1.363 . S
C885 C891 1.363 . S
C886 C887 1.363 . S
C886 C891 1.379 . S
C886 N893 1.356 . S
C887 C886 1.363 . S
C887 C890 1.363 . S
N888 C890 1.356 . S
N888 H900 0.984 . S
N888 H901 0.985 . S
N889 C891 1.356 . S
N889 H894 0.984 . S
N889 H895 0.985 . S
C890 C884 1.379 . S
C890 C887 1.363 . S
C890 N888 1.356 . S
C891 C885 1.363 . S
C891 C886 1.379 . S
C891 N889 1.356 . S
N892 C884 1.356 . S
N892 H898 0.984 . S
N892 H899 0.984 . S
N893 C886 1.356 . S
N893 H896 0.984 . S
N893 H897 0.985 . S
H894 N889 0.984 . S
H895 N889 0.985 . S
H896 N893 0.984 . S
H897 N893 0.985 . S
H898 N892 0.984 . S
H899 N892 0.984 . S
H900 N888 0.984 . S
H901 N888 0.985 . S
C902 C903 1.363 . S
C902 C908 1.379 1_655 S
C902 N910 1.356 . S
C903 C902 1.363 . S
C903 C909 1.363 . S
C904 C905 1.363 . S
C904 C909 1.379 1_455 S
C904 N911 1.356 . S
C905 C904 1.363 . S
C905 C908 1.363 . S
N906 C908 1.356 . S
N906 H918 0.984 . S
N906 H919 0.985 . S
N907 C909 1.356 . S
N907 H912 0.984 . S
N907 H913 0.985 . S
C908 C902 1.379 1_455 S
C908 C905 1.363 . S
C908 N906 1.356 . S
C909 C903 1.363 . S
C909 C904 1.379 1_655 S
C909 N907 1.356 . S
N910 C902 1.356 . S
N910 H916 0.984 . S
N910 H917 0.984 . S
N911 C904 1.356 . S
N911 H914 0.984 . S
N911 H915 0.985 . S
H912 N907 0.984 . S
H913 N907 0.985 . S
H914 N911 0.984 . S
H915 N911 0.985 . S
H916 N910 0.984 . S
H917 N910 0.984 . S
H918 N906 0.984 . S
H919 N906 0.985 . S
C920 C921 1.363 . S
C920 C926 1.379 . S
C920 N928 1.356 . S
C921 C920 1.363 . S
C921 C927 1.363 . S
C922 C923 1.363 . S
C922 C927 1.379 . S
C922 N929 1.356 . S
C923 C922 1.363 . S
C923 C926 1.363 . S
N924 C926 1.356 . S
N924 H936 0.984 . S
N924 H937 0.985 . S
N925 C927 1.356 . S
N925 H930 0.984 . S
N925 H931 0.985 . S
C926 C920 1.379 . S
C926 C923 1.363 . S
C926 N924 1.356 . S
C927 C921 1.363 . S
C927 C922 1.379 . S
C927 N925 1.356 . S
N928 C920 1.356 . S
N928 H934 0.984 . S
N928 H935 0.984 . S
N929 C922 1.356 . S
N929 H932 0.984 . S
N929 H933 0.985 . S
H930 N925 0.984 . S
H931 N925 0.985 . S
H932 N929 0.984 . S
H933 N929 0.985 . S
H934 N928 0.984 . S
H935 N928 0.984 . S
H936 N924 0.984 . S
H937 N924 0.985 . S
C938 C939 1.363 . S
C938 C944 1.379 . S
C938 N946 1.356 . S
C939 C938 1.363 . S
C939 C945 1.363 1_554 S
C940 C941 1.363 . S
C940 C945 1.379 . S
C940 N947 1.356 . S
C941 C940 1.363 . S
C941 C944 1.363 1_556 S
N942 C944 1.356 . S
N942 H954 0.984 1_655 S
N942 H955 0.985 1_654 S
N943 C945 1.356 . S
N943 H948 0.984 1_556 S
N943 H949 0.985 . S
C944 C938 1.379 . S
C944 C941 1.363 1_554 S
C944 N942 1.356 . S
C945 C939 1.363 1_556 S
C945 C940 1.379 . S
C945 N943 1.356 . S
N946 C938 1.356 . S
N946 H952 0.984 . S
N946 H953 0.984 . S
N947 C940 1.356 . S
N947 H950 0.984 . S
N947 H951 0.985 . S
H948 N943 0.984 1_554 S
H949 N943 0.985 . S
H950 N947 0.984 . S
H951 N947 0.985 . S
H952 N946 0.984 . S
H953 N946 0.984 . S
H954 N942 0.984 1_455 S
H955 N942 0.985 1_456 S
C956 C957 1.363 . S
C956 C962 1.379 . S
C956 N964 1.356 . S
C957 C956 1.363 . S
C957 C963 1.363 . S
C958 C959 1.363 . S
C958 C963 1.379 . S
C958 N965 1.356 . S
C959 C958 1.363 . S
C959 C962 1.363 . S
N960 C962 1.356 . S
N960 H972 0.984 . S
N960 H973 0.985 . S
N961 C963 1.356 . S
N961 H966 0.984 . S
N961 H967 0.985 . S
C962 C956 1.379 . S
C962 C959 1.363 . S
C962 N960 1.356 . S
C963 C957 1.363 . S
C963 C958 1.379 . S
C963 N961 1.356 . S
N964 C956 1.356 . S
N964 H970 0.984 . S
N964 H971 0.984 . S
N965 C958 1.356 . S
N965 H968 0.984 . S
N965 H969 0.985 . S
H966 N961 0.984 . S
H967 N961 0.985 . S
H968 N965 0.984 . S
H969 N965 0.985 . S
H970 N964 0.984 . S
H971 N964 0.984 . S
H972 N960 0.984 . S
H973 N960 0.985 . S
C974 C975 1.363 . S
C974 C980 1.379 1_554 S
C974 N982 1.356 . S
C975 C974 1.363 . S
C975 C981 1.363 . S
C976 C977 1.363 1_554 S
C976 C981 1.379 . S
C976 N983 1.356 . S
C977 C976 1.363 1_556 S
C977 C980 1.363 . S
N978 C980 1.356 . S
N978 H990 0.984 . S
N978 H991 0.985 . S
N979 C981 1.356 . S
N979 H984 0.984 . S
N979 H985 0.985 . S
C980 C974 1.379 1_556 S
C980 C977 1.363 . S
C980 N978 1.356 . S
C981 C975 1.363 . S
C981 C976 1.379 . S
C981 N979 1.356 . S
N982 C974 1.356 . S
N982 H988 0.984 . S
N982 H989 0.984 . S
N983 C976 1.356 . S
N983 H986 0.984 1_554 S
N983 H987 0.985 . S
H984 N979 0.984 . S
H985 N979 0.985 . S
H986 N983 0.984 1_556 S
H987 N983 0.985 . S
H988 N982 0.984 . S
H989 N982 0.984 . S
H990 N978 0.984 . S
H991 N978 0.985 . S
C992 C993 1.363 . S
C992 C998 1.379 . S
C992 N1000 1.356 . S
C993 C992 1.363 . S
C993 C999 1.363 . S
C994 C995 1.363 . S
C994 C999 1.379 . S
C994 N1001 1.356 . S
C995 C994 1.363 . S
C995 C998 1.363 . S
N996 C998 1.356 . S
N996 H1008 0.984 . S
N996 H1009 0.985 . S
N997 C999 1.356 . S
N997 H1002 0.984 . S
N997 H1003 0.985 . S
C998 C992 1.379 . S
C998 C995 1.363 . S
C998 N996 1.356 . S
C999 C993 1.363 . S
C999 C994 1.379 . S
C999 N997 1.356 . S
N1000 C992 1.356 . S
N1000 H1006 0.984 . S
N1000 H1007 0.984 . S
N1001 C994 1.356 . S
N1001 H1004 0.984 . S
N1001 H1005 0.985 . S
H1002 N997 0.984 . S
H1003 N997 0.985 . S
H1004 N1001 0.984 . S
H1005 N1001 0.985 . S
H1006 N1000 0.984 . S
H1007 N1000 0.984 . S
H1008 N996 0.984 . S
H1009 N996 0.985 . S
C1010 C1011 1.363 . S
C1010 C1016 1.379 . S
C1010 N1018 1.356 1_554 S
C1011 C1010 1.363 . S
C1011 C1017 1.363 . S
C1012 C1013 1.363 . S
C1012 C1017 1.379 . S
C1012 N1019 1.356 . S
C1013 C1012 1.363 . S
C1013 C1016 1.363 . S
N1014 C1016 1.356 . S
N1014 H1026 0.984 . S
N1014 H1027 0.985 . S
N1015 C1017 1.356 . S
N1015 H1020 0.984 . S
N1015 H1021 0.985 . S
C1016 C1010 1.379 . S
C1016 C1013 1.363 . S
C1016 N1014 1.356 . S
C1017 C1011 1.363 . S
C1017 C1012 1.379 . S
C1017 N1015 1.356 . S
N1018 C1010 1.356 1_556 S
N1018 H1024 0.984 . S
N1018 H1025 0.984 . S
N1019 C1012 1.356 . S
N1019 H1022 0.984 . S
N1019 H1023 0.985 . S
H1020 N1015 0.984 . S
H1021 N1015 0.985 . S
H1022 N1019 0.984 . S
H1023 N1019 0.985 . S
H1024 N1018 0.984 . S
H1025 N1018 0.984 . S
H1026 N1014 0.984 . S
H1027 N1014 0.985 . S
C1028 C1029 1.363 . S
C1028 C1034 1.379 . S
C1028 N1036 1.356 . S
C1029 C1028 1.363 . S
C1029 C1035 1.363 . S
C1030 C1031 1.363 . S
C1030 C1035 1.379 . S
C1030 N1037 1.356 . S
C1031 C1030 1.363 . S
C1031 C1034 1.363 . S
N1032 C1034 1.356 . S
N1032 H1044 0.984 . S
N1032 H1045 0.985 . S
N1033 C1035 1.356 . S
N1033 H1038 0.984 . S
N1033 H1039 0.985 . S
C1034 C1028 1.379 . S
C1034 C1031 1.363 . S
C1034 N1032 1.356 . S
C1035 C1029 1.363 . S
C1035 C1030 1.379 . S
C1035 N1033 1.356 . S
N1036 C1028 1.356 . S
N1036 H1042 0.984 . S
N1036 H1043 0.984 . S
N1037 C1030 1.356 . S
N1037 H1040 0.984 . S
N1037 H1041 0.985 . S
H1038 N1033 0.984 . S
H1039 N1033 0.985 . S
H1040 N1037 0.984 . S
H1041 N1037 0.985 . S
H1042 N1036 0.984 . S
H1043 N1036 0.984 . S
H1044 N1032 0.984 . S
H1045 N1032 0.985 . S
C1046 C1047 1.363 . S
C1046 C1052 1.379 . S
C1046 N1054 1.356 . S
C1047 C1046 1.363 . S
C1047 C1053 1.363 . S
C1048 C1049 1.363 . S
C1048 C1053 1.379 . S
C1048 N1055 1.356 . S
C1049 C1048 1.363 . S
C1049 C1052 1.363 . S
N1050 C1052 1.356 . S
N1050 H1062 0.984 . S
N1050 H1063 0.985 . S
N1051 C1053 1.356 1_556 S
N1051 H1056 0.984 . S
N1051 H1057 0.985 . S
C1052 C1046 1.379 . S
C1052 C1049 1.363 . S
C1052 N1050 1.356 . S
C1053 C1047 1.363 . S
C1053 C1048 1.379 . S
C1053 N1051 1.356 1_554 S
N1054 C1046 1.356 . S
N1054 H1060 0.984 . S
N1054 H1061 0.984 1_554 S
N1055 C1048 1.356 . S
N1055 H1058 0.984 . S
N1055 H1059 0.985 . S
H1056 N1051 0.984 . S
H1057 N1051 0.985 . S
H1058 N1055 0.984 . S
H1059 N1055 0.985 . S
H1060 N1054 0.984 . S
H1061 N1054 0.984 1_556 S
H1062 N1050 0.984 . S
H1063 N1050 0.985 . S
C1064 C1065 1.363 . S
C1064 C1070 1.379 . S
C1064 N1072 1.356 . S
C1065 C1064 1.363 . S
C1065 C1071 1.363 . S
C1066 C1067 1.363 . S
C1066 C1071 1.379 . S
C1066 N1073 1.356 . S
C1067 C1066 1.363 . S
C1067 C1070 1.363 . S
N1068 C1070 1.356 . S
N1068 H1080 0.984 . S
N1068 H1081 0.985 . S
N1069 C1071 1.356 . S
N1069 H1074 0.984 . S
N1069 H1075 0.985 . S
C1070 C1064 1.379 . S
C1070 C1067 1.363 . S
C1070 N1068 1.356 . S
C1071 C1065 1.363 . S
C1071 C1066 1.379 . S
C1071 N1069 1.356 . S
N1072 C1064 1.356 . S
N1072 H1078 0.984 . S
N1072 H1079 0.984 . S
N1073 C1066 1.356 . S
N1073 H1076 0.984 . S
N1073 H1077 0.985 . S
H1074 N1069 0.984 . S
H1075 N1069 0.985 . S
H1076 N1073 0.984 . S
H1077 N1073 0.985 . S
H1078 N1072 0.984 . S
H1079 N1072 0.984 . S
H1080 N1068 0.984 . S
H1081 N1068 0.985 . S
C1082 C1083 1.363 . S
C1082 C1088 1.379 . S
C1082 N1090 1.356 . S
C1083 C1082 1.363 . S
C1083 C1089 1.363 . S
C1084 C1085 1.363 . S
C1084 C1089 1.379 . S
C1084 N1091 1.356 . S
C1085 C1084 1.363 . S
C1085 C1088 1.363 . S
N1086 C1088 1.356 . S
N1086 H1098 0.984 . S
N1086 H1099 0.985 . S
N1087 C1089 1.356 . S
N1087 H1092 0.984 . S
N1087 H1093 0.985 . S
C1088 C1082 1.379 . S
C1088 C1085 1.363 . S
C1088 N1086 1.356 . S
C1089 C1083 1.363 . S
C1089 C1084 1.379 . S
C1089 N1087 1.356 . S
N1090 C1082 1.356 . S
N1090 H1096 0.984 . S
N1090 H1097 0.984 . S
N1091 C1084 1.356 . S
N1091 H1094 0.984 . S
N1091 H1095 0.985 . S
H1092 N1087 0.984 . S
H1093 N1087 0.985 . S
H1094 N1091 0.984 . S
H1095 N1091 0.985 . S
H1096 N1090 0.984 . S
H1097 N1090 0.984 . S
H1098 N1086 0.984 . S
H1099 N1086 0.985 . S
C1100 C1101 1.363 . S
C1100 C1106 1.379 . S
C1100 N1108 1.356 . S
C1101 C1100 1.363 . S
C1101 C1107 1.363 . S
C1102 C1103 1.363 . S
C1102 C1107 1.379 . S
C1102 N1109 1.356 . S
C1103 C1102 1.363 . S
C1103 C1106 1.363 . S
N1104 C1106 1.356 . S
N1104 H1116 0.984 . S
N1104 H1117 0.985 . S
N1105 C1107 1.356 . S
N1105 H1110 0.984 . S
N1105 H1111 0.985 . S
C1106 C1100 1.379 . S
C1106 C1103 1.363 . S
C1106 N1104 1.356 . S
C1107 C1101 1.363 . S
C1107 C1102 1.379 . S
C1107 N1105 1.356 . S
N1108 C1100 1.356 . S
N1108 H1114 0.984 . S
N1108 H1115 0.984 . S
N1109 C1102 1.356 . S
N1109 H1112 0.984 . S
N1109 H1113 0.985 . S
H1110 N1105 0.984 . S
H1111 N1105 0.985 . S
H1112 N1109 0.984 . S
H1113 N1109 0.985 . S
H1114 N1108 0.984 . S
H1115 N1108 0.984 . S
H1116 N1104 0.984 . S
H1117 N1104 0.985 . S
C1118 C1119 1.363 . S
C1118 C1124 1.379 . S
C1118 N1126 1.356 . S
C1119 C1118 1.363 . S
C1119 C1125 1.363 . S
C1120 C1121 1.363 . S
C1120 C1125 1.379 . S
C1120 N1127 1.356 . S
C1121 C1120 1.363 . S
C1121 C1124 1.363 . S
N1122 C1124 1.356 . S
N1122 H1134 0.984 . S
N1122 H1135 0.985 . S
N1123 C1125 1.356 . S
N1123 H1128 0.984 . S
N1123 H1129 0.985 . S
C1124 C1118 1.379 . S
C1124 C1121 1.363 . S
C1124 N1122 1.356 . S
C1125 C1119 1.363 . S
C1125 C1120 1.379 . S
C1125 N1123 1.356 . S
N1126 C1118 1.356 . S
N1126 H1132 0.984 . S
N1126 H1133 0.984 . S
N1127 C1120 1.356 . S
N1127 H1130 0.984 . S
N1127 H1131 0.985 . S
H1128 N1123 0.984 . S
H1129 N1123 0.985 . S
H1130 N1127 0.984 . S
H1131 N1127 0.985 . S
H1132 N1126 0.984 . S
H1133 N1126 0.984 . S
H1134 N1122 0.984 . S
H1135 N1122 0.985 . S
C1136 C1137 1.363 . S
C1136 C1142 1.379 . S
C1136 N1144 1.356 . S
C1137 C1136 1.363 . S
C1137 C1143 1.363 . S
C1138 C1139 1.363 . S
C1138 C1143 1.379 . S
C1138 N1145 1.356 . S
C1139 C1138 1.363 . S
C1139 C1142 1.363 . S
N1140 C1142 1.356 . S
N1140 H1152 0.984 . S
N1140 H1153 0.985 . S
N1141 C1143 1.356 . S
N1141 H1146 0.984 . S
N1141 H1147 0.985 1_556 S
C1142 C1136 1.379 . S
C1142 C1139 1.363 . S
C1142 N1140 1.356 . S
C1143 C1137 1.363 . S
C1143 C1138 1.379 . S
C1143 N1141 1.356 . S
N1144 C1136 1.356 . S
N1144 H1150 0.984 . S
N1144 H1151 0.984 . S
N1145 C1138 1.356 . S
N1145 H1148 0.984 . S
N1145 H1149 0.985 1_556 S
H1146 N1141 0.984 . S
H1147 N1141 0.985 1_554 S
H1148 N1145 0.984 . S
H1149 N1145 0.985 1_554 S
H1150 N1144 0.984 . S
H1151 N1144 0.984 . S
H1152 N1140 0.984 . S
H1153 N1140 0.985 . S
C1154 C1155 1.363 . S
C1154 C1160 1.379 . S
C1154 N1162 1.356 . S
C1155 C1154 1.363 . S
C1155 C1161 1.363 . S
C1156 C1157 1.363 . S
C1156 C1161 1.379 . S
C1156 N1163 1.356 . S
C1157 C1156 1.363 . S
C1157 C1160 1.363 . S
N1158 C1160 1.356 . S
N1158 H1170 0.984 . S
N1158 H1171 0.985 . S
N1159 C1161 1.356 . S
N1159 H1164 0.984 . S
N1159 H1165 0.985 . S
C1160 C1154 1.379 . S
C1160 C1157 1.363 . S
C1160 N1158 1.356 . S
C1161 C1155 1.363 . S
C1161 C1156 1.379 . S
C1161 N1159 1.356 . S
N1162 C1154 1.356 . S
N1162 H1168 0.984 . S
N1162 H1169 0.984 . S
N1163 C1156 1.356 . S
N1163 H1166 0.984 . S
N1163 H1167 0.985 . S
H1164 N1159 0.984 . S
H1165 N1159 0.985 . S
H1166 N1163 0.984 . S
H1167 N1163 0.985 . S
H1168 N1162 0.984 . S
H1169 N1162 0.984 . S
H1170 N1158 0.984 . S
H1171 N1158 0.985 . S
C1172 C1173 1.363 . S
C1172 C1178 1.379 . S
C1172 N1180 1.356 . S
C1173 C1172 1.363 . S
C1173 C1179 1.363 . S
C1174 C1175 1.363 . S
C1174 C1179 1.379 . S
C1174 N1181 1.356 . S
C1175 C1174 1.363 . S
C1175 C1178 1.363 . S
N1176 C1178 1.356 1_556 S
N1176 H1188 0.984 . S
N1176 H1189 0.985 . S
N1177 C1179 1.356 . S
N1177 H1182 0.984 . S
N1177 H1183 0.985 . S
C1178 C1172 1.379 . S
C1178 C1175 1.363 . S
C1178 N1176 1.356 1_554 S
C1179 C1173 1.363 . S
C1179 C1174 1.379 . S
C1179 N1177 1.356 . S
N1180 C1172 1.356 . S
N1180 H1186 0.987 1_554 S
N1180 H1187 0.984 . S
N1181 C1174 1.356 . S
N1181 H1184 0.984 . S
N1181 H1185 0.985 . S
H1182 N1177 0.984 . S
H1183 N1177 0.985 . S
H1184 N1181 0.984 . S
H1185 N1181 0.985 . S
H1186 N1180 0.987 1_556 S
H1187 N1180 0.984 . S
H1188 N1176 0.984 . S
H1189 N1176 0.985 . S
C1190 C1191 1.363 . S
C1190 C1196 1.379 . S
C1190 N1198 1.356 . S
C1191 C1190 1.363 . S
C1191 C1197 1.363 . S
C1192 C1193 1.363 . S
C1192 C1197 1.379 . S
C1192 N1199 1.356 . S
C1193 C1192 1.363 . S
C1193 C1196 1.363 . S
N1194 C1196 1.356 . S
N1194 H1206 0.984 . S
N1194 H1207 0.985 . S
N1195 C1197 1.356 . S
N1195 H1200 0.984 . S
N1195 H1201 0.985 . S
C1196 C1190 1.379 . S
C1196 C1193 1.363 . S
C1196 N1194 1.356 . S
C1197 C1191 1.363 . S
C1197 C1192 1.379 . S
C1197 N1195 1.356 . S
N1198 C1190 1.356 . S
N1198 H1204 0.984 . S
N1198 H1205 0.984 . S
N1199 C1192 1.356 . S
N1199 H1202 0.984 . S
N1199 H1203 0.985 . S
H1200 N1195 0.984 . S
H1201 N1195 0.985 . S
H1202 N1199 0.984 . S
H1203 N1199 0.985 . S
H1204 N1198 0.984 . S
H1205 N1198 0.984 . S
H1206 N1194 0.984 . S
H1207 N1194 0.985 . S
C347 C184 1.682 1_556 S
C345 C60 1.684 . S
C365 C199 1.578 . S
C363 C76 1.592 1_455 S
C381 C81 1.774 . S
C383 C212 1.771 . S
C401 C226 1.534 1_455 S
C399 C48 1.559 . S
C419 C238 1.633 . S
C417 C115 1.744 . S
C437 C252 1.423 . S
C435 C136 1.439 . S
C453 C131 1.556 . S
C455 C266 1.526 . S
C473 C281 1.441 . S
C471 C104 1.453 . S
C489 C126 1.611 . S
C491 C297 1.577 . S
C509 C310 1.436 . S
C507 C103 1.423 . S
C525 C120 1.521 . S
C527 C295 1.453 . S
C545 C308 1.621 . S
C543 C142 1.573 . S
C561 C82 1.801 . S
C563 C324 1.797 . S
C579 C54 1.724 . S
C581 C323 1.697 . S
C597 C65 1.605 . S
C599 C322 1.545 . S
C615 C71 1.380 . S
C617 C325 1.388 . S
C633 C37 1.720 . S
C635 C227 1.723 1_565 S
C651 C158 1.748 . S
C653 C225 1.726 . S
C671 C185 1.430 1_545 S
C669 C169 1.450 . S
C689 C196 1.509 . S
C687 C98 1.541 . S
C705 C49 1.697 1_545 S
C707 C241 1.692 . S
C725 C282 1.811 . S
C723 C125 1.810 . S
C743 C239 1.581 . S
C741 C109 1.561 1_545 S
C761 C267 1.635 . S
C759 C137 1.658 . S
C779 C268 1.682 . S
C777 C159 1.684 . S
C795 C175 1.600 . S
C797 C283 1.578 . S
C813 C92 1.774 . S
C815 C240 1.771 . S
C833 C254 1.534 . S
C831 C147 1.560 . S
C849 C38 1.744 . S
C851 C210 1.633 . S
C869 C224 1.423 . S
C867 C4 1.439 . S
C887 C182 1.526 . S
C885 C21 1.556 . S
C905 C197 1.441 . S
C903 C27 1.453 . S
C921 C16 1.611 . S
C923 C311 1.577 . S
C939 C26 1.423 . S
C941 C296 1.436 . S
C957 C43 1.521 . S
C959 C309 1.453 . S
C975 C10 1.573 . S
C977 C294 1.621 . S
C995 C338 1.797 . S
C993 C93 1.802 . S
C1013 C337 1.697 . S
C1011 C153 1.724 1_554 S
C1031 C336 1.545 . S
C1029 C164 1.605 . S
C1047 C170 1.380 1_554 S
C1049 C339 1.388 . S
C1065 C114 1.720 . S
C1067 C255 1.723 . S
C1085 C253 1.726 . S
C1083 C59 1.748 . S
C1103 C269 1.430 . S
C1101 C70 1.450 . S
C1121 C280 1.509 . S
C1119 C87 1.540 . S
C1137 C148 1.697 . S
C1139 C213 1.692 . S
C1157 C198 1.811 . S
C1155 C15 1.810 . S
C1173 C32 1.561 . S
C1175 C211 1.581 . S
C1193 C183 1.635 . S
C1191 C5 1.658 . S
