# Generated by pormake.
# Topology anh, (6,3)-cn, num edge types: 1
# Building blocks:
#     Node 0, Type 0, BuildingBlock: PAMTOO_clean_sbu_0, # of connection points: 6
#     Node 1, Type 0, BuildingBlock: PAMTOO_clean_sbu_0, # of connection points: 6
#     Node 2, Type 0, BuildingBlock: PAMTOO_clean_sbu_0, # of connection points: 6
#     Node 3, Type 1, BuildingBlock: BELTOD_clean_linker_0, # of connection points: 3
#     Node 4, Type 1, BuildingBlock: BELTOD_clean_linker_0, # of connection points: 3
#     Node 5, Type 1, BuildingBlock: BELTOD_clean_linker_0, # of connection points: 3
#     Node 6, Type 1, BuildingBlock: BELTOD_clean_linker_0, # of connection points: 3
#     Node 7, Type 1, BuildingBlock: BELTOD_clean_linker_0, # of connection points: 3
#     Node 8, Type 1, BuildingBlock: BELTOD_clean_linker_0, # of connection points: 3
#     Edge 9, Type (0, 1), None
#     Edge 10, Type (0, 1), None
#     Edge 11, Type (0, 1), None
#     Edge 12, Type (0, 1), None
#     Edge 13, Type (0, 1), None
#     Edge 14, Type (0, 1), None
#     Edge 15, Type (0, 1), None
#     Edge 16, Type (0, 1), None
#     Edge 17, Type (0, 1), None
#     Edge 18, Type (0, 1), None
#     Edge 19, Type (0, 1), None
#     Edge 20, Type (0, 1), None
#     Edge 21, Type (0, 1), None
#     Edge 22, Type (0, 1), None
#     Edge 23, Type (0, 1), None
#     Edge 24, Type (0, 1), None
#     Edge 25, Type (0, 1), None
#     Edge 26, Type (0, 1), None
# Relax obj value: 0.330
# Max RMSD: 0.254
# Mean RMSD: 0.182
data_MOF--net-anh--node1-PAMTOO_clean_sbu_0--node2-BELTOD_clean_linker_0--edge1-none
_symmetry_space_group_name_H-M    P1
_symmetry_Int_Tables_number       1
_symmetry_cell_setting            triclinic
loop_
_symmetry_equiv_pos_as_xyz
'x, y, z'
_cell_length_a     17.689993
_cell_length_b     17.107545
_cell_length_c     31.847658
_cell_angle_alpha  89.663913
_cell_angle_beta   93.987568
_cell_angle_gamma 92.634894
loop_
_atom_site_label
_atom_site_type_symbol
_atom_site_fract_x
_atom_site_fract_y
_atom_site_fract_z
_atom_type_partial_charge
Dy0 Dy 1.09237 0.70397 0.14074 0.0
Dy1 Dy 1.06549 0.52518 0.10675 0.0
C2 C 1.06896 0.67015 0.04608 0.0
O3 O 0.9689 0.67192 0.15377 0.0
O4 O 0.94909 0.57428 0.10458 0.0
O5 O 1.11049 0.82394 0.12222 0.0
O6 O 1.10329 0.79502 0.1882 0.0
O7 O 1.06065 0.52296 0.17711 0.0
O8 O 0.14075 0.62861 0.19133 0.0
O9 O 0.19331 0.54038 0.11221 0.0
O10 O 0.21007 0.67358 0.12122 0.0
O11 O 1.09549 0.40434 0.1089 0.0
O12 O 0.99672 0.43775 0.07032 0.0
C13 C 0.92221 0.62468 0.13012 0.0
O14 O 1.03555 0.70051 0.07678 0.0
O15 O 1.09651 0.60043 0.05143 0.0
C16 C 0.19917 0.88909 0.17015 0.0
C17 C 0.35132 0.94268 0.18774 0.0
C18 C 0.32117 0.93497 0.14599 0.0
C19 C 0.24587 0.90893 0.13725 0.0
C20 C 0.228 0.90155 0.21191 0.0
C21 C 0.3034 0.92817 0.22063 0.0
C22 C 1.12436 0.84783 0.16093 0.0
C23 C 1.10958 0.56198 0.20287 0.0
C24 C 0.2383 0.60425 0.11537 0.0
C25 C 0.98509 0.32124 0.11044 0.0
C26 C 0.88969 0.21436 0.15294 0.0
C27 C 0.94554 0.26137 0.17553 0.0
C28 C 0.99235 0.31439 0.15459 0.0
C29 C 0.92967 0.27413 0.08773 0.0
C30 C 0.88229 0.22132 0.10876 0.0
C31 C 1.03235 0.38017 0.08851 0.0
H32 H 0.35651 0.94692 0.12004 0.0
H33 H 0.22548 0.90117 0.10461 0.0
H34 H 0.19336 0.88732 0.23789 0.0
H35 H 0.32527 0.93336 0.25317 0.0
H36 H 0.95212 0.25831 0.20956 0.0
H37 H 1.03375 0.35066 0.17315 0.0
H38 H 0.9226 0.27866 0.05375 0.0
H39 H 0.84026 0.18545 0.0904 0.0
Dy40 Dy 0.5847 0.96514 0.5142 0.0
Dy41 Dy 0.7699 0.96834 0.5166 0.0
C42 C 0.68496 0.95663 0.60078 0.0
O43 O 0.61556 0.09425 0.50916 0.0
O44 O 0.74096 0.08913 0.5332 0.0
O45 O 0.47967 0.9448 0.54409 0.0
O46 O 0.47717 0.97296 0.47775 0.0
O47 O 0.72675 1.01632 0.4551 0.0
O48 O 0.6223 0.93511 0.45054 0.0
O49 O 0.73303 0.84292 0.5034 0.0
O50 O 0.61519 0.84185 0.5292 0.0
O51 O 0.87065 0.93718 0.4874 0.0
O52 O 0.88043 1.00649 0.54448 0.0
C53 C 0.68086 0.12912 0.52246 0.0
O54 O 0.62774 0.99062 0.58072 0.0
O55 O 0.73973 0.92863 0.58034 0.0
C56 C 0.39254 0.87159 0.49829 0.0
C57 C 0.32237 0.72784 0.4699 0.0
C58 C 0.37289 0.73057 0.50599 0.0
C59 C 0.40783 0.80146 0.51991 0.0
C60 C 0.33882 0.86975 0.46372 0.0
C61 C 0.30405 0.79858 0.44962 0.0
C62 C 0.43901 0.94406 0.50832 0.0
C63 C 0.6738 0.97795 0.43213 0.0
C64 C 0.67318 0.8047 0.51701 0.0
C65 C 0.96173 0.04346 0.49133 0.0
C66 C 1.04351 0.16739 0.45336 0.0
C67 C 0.99022 0.12 0.42922 0.0
C68 C 0.9495 0.05898 0.448 0.0
C69 C 1.01574 0.0901 0.51537 0.0
C70 C 1.05604 0.15172 0.49662 0.0
C71 C 0.91466 0.98304 0.51211 0.0
H72 H 0.38734 0.67747 0.52278 0.0
H73 H 0.44915 0.80059 0.54663 0.0
H74 H 0.32645 0.92287 0.44639 0.0
H75 H 0.26598 0.79863 0.42149 0.0
H76 H 0.97877 0.13119 0.39593 0.0
H77 H 0.90752 0.02497 0.42857 0.0
H78 H 1.02589 0.07963 0.54883 0.0
H79 H 1.09735 0.18683 0.5159 0.0
Dy80 Dy 0.72787 0.44557 0.8512 0.0
Dy81 Dy 0.54827 0.42934 0.82778 0.0
C82 C 0.65798 0.44472 0.75578 0.0
O83 O 0.68818 0.56658 0.8593 0.0
O84 O 0.58223 0.55515 0.81439 0.0
O85 O 0.82675 0.48382 0.89034 0.0
O86 O 0.83921 0.42706 0.83062 0.0
O87 O 0.57114 0.47429 0.89361 0.0
O88 O 0.67942 0.41336 0.91215 0.0
O89 O 0.57679 0.30243 0.83499 0.0
O90 O 0.70712 0.31789 0.84077 0.0
O91 O 0.43678 0.39332 0.84685 0.0
O92 O 0.44824 0.46171 0.78986 0.0
C93 C 0.63421 0.59883 0.83582 0.0
O94 O 0.70466 0.48085 0.78388 0.0
O95 O 0.59829 0.40413 0.76737 0.0
C96 C 0.91562 0.53864 0.84702 0.0
C97 C 0.99448 0.67922 0.82904 0.0
C98 C 0.91656 0.67021 0.81792 0.0
C99 C 0.87745 0.60002 0.82662 0.0
C100 C 0.99378 0.54594 0.85639 0.0
C101 C 1.03311 0.61574 0.84735 0.0
C102 C 0.87211 0.46997 0.86091 0.0
C103 C 0.61919 0.4479 0.92286 0.0
C104 C 0.64466 0.27312 0.83731 0.0
C105 C 0.37707 0.51417 0.84113 0.0
C106 C 0.37315 0.66712 0.87443 0.0
C107 C 0.39738 0.60464 0.9 0.0
C108 C 0.39823 0.52928 0.88383 0.0
C109 C 0.34867 0.57521 0.81598 0.0
C110 C 0.34608 0.6506 0.8325 0.0
C111 C 0.40622 0.44491 0.82114 0.0
H112 H 0.88557 0.71831 0.80414 0.0
H113 H 0.81684 0.59478 0.81896 0.0
H114 H 1.02374 0.49909 0.87221 0.0
H115 H 1.09295 0.62166 0.85723 0.0
H116 H 0.41774 0.61367 0.93243 0.0
H117 H 0.42057 0.48398 0.90441 0.0
H118 H 0.33255 0.56565 0.7829 0.0
H119 H 0.32317 0.69576 0.81207 0.0
P120 P 0.68742 0.97446 0.24113 0.0
H121 H 0.60267 0.88955 0.1722 0.0
H122 H 0.46715 0.87523 0.15147 0.0
H123 H 0.42169 0.0454 0.24514 0.0
H124 H 0.5577 0.05969 0.26563 0.0
H125 H 0.8478 0.02183 0.25403 0.0
H126 H 0.92972 0.1157 0.218 0.0
H127 H 0.73611 0.18631 0.13904 0.0
H128 H 0.65466 0.09252 0.17517 0.0
H129 H 0.61109 0.87325 0.29937 0.0
H130 H 0.75814 0.08161 0.30735 0.0
O131 O 0.72254 0.88943 0.22866 0.0
H132 H 0.60242 0.87493 0.37562 0.0
H133 H 0.75187 0.08214 0.38384 0.0
C134 C 0.58984 0.97441 0.22098 0.0
C135 C 0.56371 0.92464 0.18783 0.0
C136 C 0.48627 0.91683 0.1759 0.0
C137 C 0.43382 0.95875 0.197 0.0
C138 C 0.46076 1.01165 0.22877 0.0
C139 C 0.53836 0.01997 0.24037 0.0
C140 C 0.74485 0.0511 0.21798 0.0
C141 C 0.82278 0.05853 0.22948 0.0
C142 C 0.86957 0.1121 0.20875 0.0
C143 C 0.83949 0.15851 0.17556 0.0
C144 C 0.76122 0.15095 0.16417 0.0
C145 C 0.71438 0.09779 0.18518 0.0
C146 C 0.68596 0.97671 0.2977 0.0
C147 C 0.64201 0.91909 0.31762 0.0
C148 C 0.63669 0.92033 0.36118 0.0
C149 C 0.67639 0.97862 0.38576 0.0
C150 C 0.72074 0.03626 0.36573 0.0
C151 C 0.72485 0.03577 0.32196 0.0
P152 P 0.7299 0.47273 0.57137 0.0
H153 H 0.83165 0.35173 0.55216 0.0
H154 H 0.81265 0.21561 0.5345 0.0
H155 H 0.57019 0.2407 0.52044 0.0
H156 H 0.5904 0.38124 0.53737 0.0
H157 H 0.78463 0.56639 0.50209 0.0
H158 H 0.76695 0.70299 0.48261 0.0
H159 H 0.5824 0.70962 0.5643 0.0
H160 H 0.60168 0.5733 0.58437 0.0
H161 H 0.79487 0.54848 0.64784 0.0
H162 H 0.6049 0.38893 0.61366 0.0
O163 O 0.82401 0.48877 0.57513 0.0
H164 H 0.76821 0.53621 0.72154 0.0
H165 H 0.57783 0.37614 0.68753 0.0
C166 C 0.71254 0.37755 0.54654 0.0
C167 C 0.77417 0.32947 0.54439 0.0
C168 C 0.76304 0.25039 0.53461 0.0
C169 C 0.6896 0.21599 0.52709 0.0
C170 C 0.62753 0.26495 0.5265 0.0
C171 C 0.63902 0.34536 0.53605 0.0
C172 C 0.69503 0.55946 0.54502 0.0
C173 C 0.73877 0.59638 0.51486 0.0
C174 C 0.72913 0.67501 0.50403 0.0
C175 C 0.67449 0.7181 0.52262 0.0
C176 C 0.62563 0.6786 0.54966 0.0
C177 C 0.63618 0.60014 0.56098 0.0
C178 C 0.7034 0.46794 0.62513 0.0
C179 C 0.74741 0.51059 0.65613 0.0
C180 C 0.73207 0.50346 0.69841 0.0
C181 C 0.67163 0.45403 0.7106 0.0
C182 C 0.62544 0.41392 0.67928 0.0
C183 C 0.64104 0.42107 0.63686 0.0
P184 P 0.18899 0.8965 0.91512 0.0
H185 H 0.30979 0.92185 0.85471 0.0
H186 H 0.38289 0.81213 0.83447 0.0
H187 H 0.35745 0.70919 0.95756 0.0
H188 H 0.29356 0.82195 0.97786 0.0
H189 H 1.03077 0.91719 0.89078 0.0
H190 H 0.94528 0.81659 0.858 0.0
H191 H 1.13322 0.71735 0.80122 0.0
H192 H 0.21767 0.81429 0.83445 0.0
H193 H 1.10358 0.91899 0.98997 0.0
H194 H 0.17702 0.72545 0.91942 0.0
O195 O 0.18021 0.98963 0.92841 0.0
H196 H 1.05299 0.82776 0.04094 0.0
H197 H 1.1306 0.63322 0.97201 0.0
C198 C 0.28753 0.87292 0.91546 0.0
C199 C 0.32452 0.87785 0.87809 0.0
C200 C 0.36443 0.81362 0.86614 0.0
C201 C 0.36788 0.74697 0.89243 0.0
C202 C 0.35174 0.756 0.93481 0.0
C203 C 0.31451 0.82138 0.94671 0.0
C204 C 1.1319 0.8717 0.86748 0.0
C205 C 1.05323 0.87702 0.86913 0.0
C206 C 1.0041 0.81898 0.85041 0.0
C207 C 1.03383 0.75707 0.82897 0.0
C208 C 1.10962 0.76306 0.81901 0.0
C209 C 0.1586 0.81968 0.8385 0.0
C210 C 0.1461 0.82937 0.95172 0.0
C211 C 1.10903 0.85686 0.98555 0.0
C212 C 1.08004 0.80412 0.01465 0.0
C213 C 1.08917 0.72284 0.01104 0.0
C214 C 1.12334 0.6952 0.97596 0.0
C215 C 0.15022 0.74803 0.94611 0.0
P216 P 0.22708 0.43068 0.37226 0.0
H217 H 0.363 0.47575 0.42585 0.0
H218 H 0.40229 0.5959 0.46346 0.0
H219 H 0.1807 0.68637 0.43336 0.0
H220 H 0.14234 0.56576 0.39481 0.0
H221 H 0.18401 0.27155 0.34665 0.0
H222 H 1.11209 0.16486 0.37929 0.0
H223 H 1.07051 0.31741 0.48199 0.0
H224 H 0.14243 0.42402 0.44913 0.0
H225 H 0.27232 0.56412 0.32294 0.0
H226 H 1.09584 0.38119 0.31288 0.0
O227 O 0.30762 0.39005 0.36177 0.0
H228 H 0.22612 0.61748 0.25588 0.0
H229 H 1.04974 0.43368 0.24441 0.0
C230 C 0.25016 0.51236 0.40709 0.0
C231 C 0.32242 0.52083 0.42786 0.0
C232 C 0.34467 0.58965 0.44962 0.0
C233 C 0.29482 0.65127 0.45121 0.0
C234 C 0.22086 0.64066 0.43219 0.0
C235 C 0.19868 0.5716 0.41043 0.0
C236 C 0.16823 0.35573 0.3953 0.0
C237 C 0.15872 0.28224 0.37598 0.0
C238 C 1.11763 0.22137 0.39464 0.0
C239 C 1.08591 0.23273 0.43327 0.0
C240 C 1.09507 0.30674 0.45245 0.0
C241 C 0.1357 0.36791 0.43351 0.0
C242 C 0.18713 0.46934 0.3233 0.0
C243 C 0.22301 0.53575 0.30641 0.0
C244 C 0.1964 0.56619 0.26786 0.0
C245 C 1.13388 0.53002 0.24473 0.0
C246 C 1.0979 0.46295 0.26151 0.0
C247 C 1.1243 0.43289 0.30068 0.0
P248 P 0.70764 0.93684 0.79296 0.0
H249 H 0.79955 0.06376 0.83347 0.0
H250 H 0.77557 0.19681 0.85 0.0
H251 H 0.53646 0.15309 0.81647 0.0
H252 H 0.56116 1.01559 0.8013 0.0
H253 H 0.7398 0.8461 0.8691 0.0
H254 H 0.71552 0.70792 0.88495 0.0
H255 H 0.56063 0.68655 0.77422 0.0
H256 H 0.58648 0.82502 0.75808 0.0
H257 H 0.79985 0.87832 0.72874 0.0
H258 H 0.59223 1.00042 0.73133 0.0
O259 O 0.80047 0.92957 0.80515 0.0
H260 H 0.79231 0.88705 0.6523 0.0
H261 H 0.58432 1.00961 0.65477 0.0
C262 C 0.68252 0.02903 0.81531 0.0
C263 C 0.74141 0.08122 0.83043 0.0
C264 C 0.72751 0.15852 0.8397 0.0
C265 C 0.65416 0.18704 0.83362 0.0
C266 C 0.59384 0.13357 0.82111 0.0
C267 C 0.60793 0.05492 0.81229 0.0
C268 C 0.66561 0.84614 0.8122 0.0
C269 C 0.69878 0.81247 0.84887 0.0
C270 C 0.68537 0.73296 0.85771 0.0
C271 C 0.6374 0.6855 0.83037 0.0
C272 C 0.59846 0.72114 0.79578 0.0
C273 C 0.61283 0.8007 0.78662 0.0
C274 C 0.69786 0.94077 0.73612 0.0
C275 C 0.75276 0.90755 0.71296 0.0
C276 C 0.74838 0.91246 0.66908 0.0
C277 C 0.68834 0.95011 0.64732 0.0
C278 C 0.63193 0.98107 0.67054 0.0
C279 C 0.63648 0.97612 0.71454 0.0
P280 P 0.58393 0.54322 0.10532 0.0
H281 H 0.68746 0.55707 0.18308 0.0
H282 H 0.82536 0.58415 0.19229 0.0
H283 H 0.82485 0.66854 0.06475 0.0
H284 H 0.68731 0.64449 0.05597 0.0
H285 H 0.44403 0.45103 0.09302 0.0
H286 H 0.31022 0.47225 0.09619 0.0
H287 H 0.36235 0.71458 0.12789 0.0
H288 H 0.49964 0.69206 0.12457 0.0
H289 H 0.67058 0.42156 0.06814 0.0
H290 H 0.51785 0.59831 0.02411 0.0
O291 O 0.59015 0.46236 0.13473 0.0
H292 H 0.68619 0.38346 -0.00496 0.0
H293 H 0.53404 0.56134 0.95162 0.0
C294 C 0.67489 0.59854 0.11873 0.0
C295 C 0.71585 0.58538 0.15766 0.0
C296 C 0.7955 0.60049 0.16293 0.0
C297 C 0.8369 0.62881 0.12933 0.0
C298 C 0.7952 0.6474 0.09152 0.0
C299 C 0.71565 0.63381 0.08654 0.0
C300 C 0.48367 0.56923 0.10894 0.0
C301 C 0.42758 0.50912 0.10083 0.0
C302 C 0.34986 0.52155 0.10259 0.0
C303 C 0.32342 0.59528 0.11244 0.0
C304 C 0.37947 0.65674 0.12014 0.0
C305 C 0.45857 0.64393 0.11839 0.0
C306 C 0.59108 0.51117 0.05168 0.0
C307 C 0.63937 0.45124 0.0428 0.0
C308 C 0.64867 0.42979 0.00104 0.0
C309 C 0.60983 0.46812 0.96748 0.0
C310 C 0.56254 0.5288 0.97669 0.0
C311 C 0.55345 0.55028 0.01824 0.0
loop_
_geom_bond_atom_site_label_1
_geom_bond_atom_site_label_2
_geom_bond_distance
_geom_bond_site_symmetry_2
_ccdc_geom_bond_type
Dy0 O3 2.307 1_455 S
Dy0 O5 2.395 . S
Dy0 O6 2.379 . S
Dy0 O8 2.339 . S
Dy0 O10 2.298 . S
Dy0 O14 2.275 . S
Dy0 C22 2.738 . S
Dy1 O4 2.298 . S
Dy1 O7 2.275 . S
Dy1 O9 2.307 1_655 S
Dy1 O11 2.395 . S
Dy1 O12 2.379 . S
Dy1 O15 2.339 . S
Dy1 C31 2.738 . S
C2 O14 1.254 . S
C2 O15 1.257 1_455 S
O3 Dy0 2.307 1_655 S
O3 C13 1.266 . S
O4 Dy1 2.298 . S
O4 C13 1.236 . S
O5 Dy0 2.395 . S
O5 C22 1.255 . S
O6 Dy0 2.379 . S
O6 C22 1.249 . S
O7 Dy1 2.275 . S
O7 C23 1.254 1_655 S
O8 Dy0 2.339 . S
O8 C23 1.257 . S
O9 Dy1 2.307 1_455 S
O9 C24 1.266 . S
O10 Dy0 2.298 . S
O10 C24 1.236 . S
O11 Dy1 2.395 . S
O11 C31 1.255 . S
O12 Dy1 2.379 . S
O12 C31 1.249 . S
C13 O3 1.266 . S
C13 O4 1.236 . S
O14 Dy0 2.275 . S
O14 C2 1.254 . S
O15 Dy1 2.339 . S
O15 C2 1.257 1_655 S
C16 C19 1.344 . S
C16 C20 1.328 . S
C16 C22 1.516 . S
C17 C18 1.304 . S
C17 C21 1.323 . S
C18 C17 1.304 . S
C18 C19 1.371 . S
C18 H32 0.930 . S
C19 C16 1.344 . S
C19 C18 1.371 . S
C19 H33 0.931 . S
C20 C16 1.328 . S
C20 C21 1.433 . S
C20 H34 0.931 . S
C21 C17 1.323 . S
C21 C20 1.433 . S
C21 H35 0.933 . S
C22 Dy0 2.738 . S
C22 O5 1.255 . S
C22 O6 1.249 . S
C22 C16 1.516 . S
C23 O7 1.254 1_455 S
C23 O8 1.257 . S
C24 O9 1.266 . S
C24 O10 1.236 . S
C25 C28 1.344 . S
C25 C29 1.328 . S
C25 C31 1.516 . S
C26 C27 1.304 . S
C26 C30 1.323 . S
C27 C26 1.304 . S
C27 C28 1.371 . S
C27 H36 0.930 . S
C28 C25 1.344 . S
C28 C27 1.371 . S
C28 H37 0.931 . S
C29 C25 1.328 . S
C29 C30 1.433 . S
C29 H38 0.931 . S
C30 C26 1.323 . S
C30 C29 1.433 . S
C30 H39 0.933 . S
C31 Dy1 2.738 . S
C31 O11 1.255 . S
C31 O12 1.249 . S
C31 C25 1.516 . S
H32 C18 0.930 . S
H33 C19 0.931 . S
H34 C20 0.931 . S
H35 C21 0.933 . S
H36 C27 0.930 . S
H37 C28 0.931 . S
H38 C29 0.931 . S
H39 C30 0.933 . S
Dy40 O43 2.307 1_565 S
Dy40 O45 2.395 . S
Dy40 O46 2.379 . S
Dy40 O48 2.339 . S
Dy40 O50 2.298 . S
Dy40 O54 2.275 1_565 S
Dy40 C62 2.738 . S
Dy41 O44 2.298 . S
Dy41 O47 2.275 . S
Dy41 O49 2.307 1_545 S
Dy41 O51 2.395 . S
Dy41 O52 2.379 . S
Dy41 O55 2.339 . S
Dy41 C71 2.738 . S
C42 O54 1.254 . S
C42 O55 1.257 . S
O43 Dy40 2.307 1_545 S
O43 C53 1.266 . S
O44 Dy41 2.298 . S
O44 C53 1.236 . S
O45 Dy40 2.395 . S
O45 C62 1.255 . S
O46 Dy40 2.379 . S
O46 C62 1.249 . S
O47 Dy41 2.275 . S
O47 C63 1.254 . S
O48 Dy40 2.339 . S
O48 C63 1.257 1_565 S
O49 Dy41 2.307 1_565 S
O49 C64 1.266 . S
O50 Dy40 2.298 . S
O50 C64 1.236 . S
O51 Dy41 2.395 . S
O51 C71 1.255 . S
O52 Dy41 2.379 . S
O52 C71 1.249 . S
C53 O43 1.266 . S
C53 O44 1.236 . S
O54 Dy40 2.275 1_545 S
O54 C42 1.254 . S
O55 Dy41 2.339 . S
O55 C42 1.257 . S
C56 C59 1.344 . S
C56 C60 1.328 . S
C56 C62 1.516 . S
C57 C58 1.304 . S
C57 C61 1.323 . S
C58 C57 1.304 . S
C58 C59 1.371 . S
C58 H72 0.930 . S
C59 C56 1.344 . S
C59 C58 1.371 . S
C59 H73 0.931 . S
C60 C56 1.328 . S
C60 C61 1.433 . S
C60 H74 0.931 . S
C61 C57 1.323 . S
C61 C60 1.433 . S
C61 H75 0.933 . S
C62 Dy40 2.738 . S
C62 O45 1.255 . S
C62 O46 1.249 . S
C62 C56 1.516 . S
C63 O47 1.254 . S
C63 O48 1.257 1_545 S
C64 O49 1.266 . S
C64 O50 1.236 . S
C65 C68 1.344 . S
C65 C69 1.328 . S
C65 C71 1.516 . S
C66 C67 1.304 . S
C66 C70 1.323 . S
C67 C66 1.304 . S
C67 C68 1.371 . S
C67 H76 0.930 . S
C68 C65 1.344 . S
C68 C67 1.371 . S
C68 H77 0.931 . S
C69 C65 1.328 . S
C69 C70 1.433 . S
C69 H78 0.931 . S
C70 C66 1.323 . S
C70 C69 1.433 . S
C70 H79 0.933 . S
C71 Dy41 2.738 . S
C71 O51 1.255 . S
C71 O52 1.249 . S
C71 C65 1.516 . S
H72 C58 0.930 . S
H73 C59 0.931 . S
H74 C60 0.931 . S
H75 C61 0.933 . S
H76 C67 0.930 . S
H77 C68 0.931 . S
H78 C69 0.931 . S
H79 C70 0.933 . S
Dy80 O83 2.307 . S
Dy80 O85 2.395 . S
Dy80 O86 2.379 . S
Dy80 O88 2.339 . S
Dy80 O90 2.298 . S
Dy80 O94 2.275 . S
Dy80 C102 2.738 . S
Dy81 O84 2.298 . S
Dy81 O87 2.275 . S
Dy81 O89 2.307 . S
Dy81 O91 2.395 . S
Dy81 O92 2.379 . S
Dy81 O95 2.339 . S
Dy81 C111 2.738 . S
C82 O94 1.254 . S
C82 O95 1.257 . S
O83 Dy80 2.307 . S
O83 C93 1.266 . S
O84 Dy81 2.298 . S
O84 C93 1.236 . S
O85 Dy80 2.395 . S
O85 C102 1.255 . S
O86 Dy80 2.379 . S
O86 C102 1.249 . S
O87 Dy81 2.275 . S
O87 C103 1.254 . S
O88 Dy80 2.339 . S
O88 C103 1.257 . S
O89 Dy81 2.307 . S
O89 C104 1.266 . S
O90 Dy80 2.298 . S
O90 C104 1.236 . S
O91 Dy81 2.395 . S
O91 C111 1.255 . S
O92 Dy81 2.379 . S
O92 C111 1.249 . S
C93 O83 1.266 . S
C93 O84 1.236 . S
O94 Dy80 2.275 . S
O94 C82 1.254 . S
O95 Dy81 2.339 . S
O95 C82 1.257 . S
C96 C99 1.344 . S
C96 C100 1.328 . S
C96 C102 1.516 . S
C97 C98 1.304 . S
C97 C101 1.323 . S
C98 C97 1.304 . S
C98 C99 1.371 . S
C98 H112 0.930 . S
C99 C96 1.344 . S
C99 C98 1.371 . S
C99 H113 0.931 . S
C100 C96 1.328 . S
C100 C101 1.433 . S
C100 H114 0.931 . S
C101 C97 1.323 . S
C101 C100 1.433 . S
C101 H115 0.933 . S
C102 Dy80 2.738 . S
C102 O85 1.255 . S
C102 O86 1.249 . S
C102 C96 1.516 . S
C103 O87 1.254 . S
C103 O88 1.257 . S
C104 O89 1.266 . S
C104 O90 1.236 . S
C105 C108 1.344 . S
C105 C109 1.328 . S
C105 C111 1.516 . S
C106 C107 1.304 . S
C106 C110 1.323 . S
C107 C106 1.304 . S
C107 C108 1.371 . S
C107 H116 0.930 . S
C108 C105 1.344 . S
C108 C107 1.371 . S
C108 H117 0.931 . S
C109 C105 1.328 . S
C109 C110 1.433 . S
C109 H118 0.931 . S
C110 C106 1.323 . S
C110 C109 1.433 . S
C110 H119 0.933 . S
C111 Dy81 2.738 . S
C111 O91 1.255 . S
C111 O92 1.249 . S
C111 C105 1.516 . S
H112 C98 0.930 . S
H113 C99 0.931 . S
H114 C100 0.931 . S
H115 C101 0.933 . S
H116 C107 0.930 . S
H117 C108 0.931 . S
H118 C109 0.931 . S
H119 C110 0.933 . S
P120 O131 1.490 . S
P120 C134 1.812 . S
P120 C140 1.803 1_565 S
P120 C146 1.819 . S
H121 C135 0.941 . S
H122 C136 0.939 . S
H123 C138 0.940 . S
H124 C139 0.940 1_545 S
H125 C141 0.939 . S
H126 C142 0.942 . S
H127 C144 0.940 . S
H128 C145 0.939 . S
H129 C147 0.941 . S
H130 C151 0.939 . S
O131 P120 1.490 . S
H132 C148 0.939 . S
H133 C150 0.940 . S
C134 P120 1.812 . S
C134 C135 1.389 . S
C134 C139 1.391 . S
C135 H121 0.941 . S
C135 C134 1.389 . S
C135 C136 1.397 . S
C136 H122 0.939 . S
C136 C135 1.397 . S
C136 C137 1.378 . S
C137 C136 1.378 . S
C137 C138 1.378 . S
C138 H123 0.940 . S
C138 C137 1.378 . S
C138 C139 1.396 . S
C139 H124 0.940 1_565 S
C139 C134 1.391 . S
C139 C138 1.396 . S
C140 P120 1.803 1_545 S
C140 C141 1.378 . S
C140 C145 1.400 . S
C141 H125 0.939 . S
C141 C140 1.378 . S
C141 C142 1.361 . S
C142 H126 0.942 . S
C142 C141 1.361 . S
C142 C143 1.369 . S
C143 C142 1.369 . S
C143 C144 1.404 . S
C144 H127 0.940 . S
C144 C143 1.404 . S
C144 C145 1.389 . S
C145 H128 0.939 . S
C145 C140 1.400 . S
C145 C144 1.389 . S
C146 P120 1.819 . S
C146 C147 1.391 . S
C146 C151 1.391 1_565 S
C147 H129 0.941 . S
C147 C146 1.391 . S
C147 C148 1.396 . S
C148 H132 0.939 . S
C148 C147 1.396 . S
C148 C149 1.397 1_565 S
C149 C148 1.397 1_545 S
C149 C150 1.385 . S
C150 H133 0.940 . S
C150 C149 1.385 . S
C150 C151 1.388 . S
C151 H130 0.939 . S
C151 C146 1.391 1_545 S
C151 C150 1.388 . S
P152 O163 1.490 . S
P152 C166 1.812 . S
P152 C172 1.803 . S
P152 C178 1.819 . S
H153 C167 0.941 . S
H154 C168 0.939 . S
H155 C170 0.940 . S
H156 C171 0.940 . S
H157 C173 0.939 . S
H158 C174 0.942 . S
H159 C176 0.940 . S
H160 C177 0.939 . S
H161 C179 0.941 . S
H162 C183 0.939 . S
O163 P152 1.490 . S
H164 C180 0.939 . S
H165 C182 0.940 . S
C166 P152 1.812 . S
C166 C167 1.389 . S
C166 C171 1.391 . S
C167 H153 0.941 . S
C167 C166 1.389 . S
C167 C168 1.397 . S
C168 H154 0.939 . S
C168 C167 1.397 . S
C168 C169 1.378 . S
C169 C168 1.378 . S
C169 C170 1.378 . S
C170 H155 0.940 . S
C170 C169 1.378 . S
C170 C171 1.396 . S
C171 H156 0.940 . S
C171 C166 1.391 . S
C171 C170 1.396 . S
C172 P152 1.803 . S
C172 C173 1.378 . S
C172 C177 1.400 . S
C173 H157 0.939 . S
C173 C172 1.378 . S
C173 C174 1.361 . S
C174 H158 0.942 . S
C174 C173 1.361 . S
C174 C175 1.369 . S
C175 C174 1.369 . S
C175 C176 1.404 . S
C176 H159 0.940 . S
C176 C175 1.404 . S
C176 C177 1.389 . S
C177 H160 0.939 . S
C177 C172 1.400 . S
C177 C176 1.389 . S
C178 P152 1.819 . S
C178 C179 1.391 . S
C178 C183 1.391 . S
C179 H161 0.941 . S
C179 C178 1.391 . S
C179 C180 1.396 . S
C180 H164 0.939 . S
C180 C179 1.396 . S
C180 C181 1.397 . S
C181 C180 1.397 . S
C181 C182 1.385 . S
C182 H165 0.940 . S
C182 C181 1.385 . S
C182 C183 1.388 . S
C183 H162 0.939 . S
C183 C178 1.391 . S
C183 C182 1.388 . S
P184 O195 1.490 . S
P184 C198 1.812 . S
P184 C204 1.803 1_455 S
P184 C210 1.819 . S
H185 C199 0.941 . S
H186 C200 0.939 . S
H187 C202 0.940 . S
H188 C203 0.940 . S
H189 C205 0.939 . S
H190 C206 0.942 . S
H191 C208 0.940 . S
H192 C209 0.939 . S
H193 C211 0.941 . S
H194 C215 0.939 . S
O195 P184 1.490 . S
H196 C212 0.939 . S
H197 C214 0.940 . S
C198 P184 1.812 . S
C198 C199 1.389 . S
C198 C203 1.391 . S
C199 H185 0.941 . S
C199 C198 1.389 . S
C199 C200 1.397 . S
C200 H186 0.939 . S
C200 C199 1.397 . S
C200 C201 1.378 . S
C201 C200 1.378 . S
C201 C202 1.378 . S
C202 H187 0.940 . S
C202 C201 1.378 . S
C202 C203 1.396 . S
C203 H188 0.940 . S
C203 C198 1.391 . S
C203 C202 1.396 . S
C204 P184 1.803 1_655 S
C204 C205 1.378 . S
C204 C209 1.400 . S
C205 H189 0.939 . S
C205 C204 1.378 . S
C205 C206 1.361 . S
C206 H190 0.942 . S
C206 C205 1.361 . S
C206 C207 1.369 . S
C207 C206 1.369 . S
C207 C208 1.404 . S
C208 H191 0.940 . S
C208 C207 1.404 . S
C208 C209 1.389 . S
C209 H192 0.939 . S
C209 C204 1.400 . S
C209 C208 1.389 . S
C210 P184 1.819 . S
C210 C211 1.391 1_556 S
C210 C215 1.391 1_455 S
C211 H193 0.941 . S
C211 C210 1.391 1_554 S
C211 C212 1.396 . S
C212 H196 0.939 . S
C212 C211 1.396 . S
C212 C213 1.397 . S
C213 C212 1.397 . S
C213 C214 1.385 1_455 S
C214 H197 0.940 . S
C214 C213 1.385 1_655 S
C214 C215 1.388 1_554 S
C215 H194 0.939 . S
C215 C210 1.391 1_655 S
C215 C214 1.388 1_556 S
P216 O227 1.490 . S
P216 C230 1.812 . S
P216 C236 1.803 1_455 S
P216 C242 1.819 . S
H217 C231 0.941 . S
H218 C232 0.939 . S
H219 C234 0.940 . S
H220 C235 0.940 . S
H221 C237 0.939 . S
H222 C238 0.942 . S
H223 C240 0.940 . S
H224 C241 0.939 . S
H225 C243 0.941 . S
H226 C247 0.939 . S
O227 P216 1.490 . S
H228 C244 0.939 . S
H229 C246 0.940 . S
C230 P216 1.812 . S
C230 C231 1.389 . S
C230 C235 1.391 . S
C231 H217 0.941 . S
C231 C230 1.389 . S
C231 C232 1.397 . S
C232 H218 0.939 . S
C232 C231 1.397 . S
C232 C233 1.378 . S
C233 C232 1.378 . S
C233 C234 1.378 . S
C234 H219 0.940 . S
C234 C233 1.378 . S
C234 C235 1.396 . S
C235 H220 0.940 . S
C235 C230 1.391 . S
C235 C234 1.396 . S
C236 P216 1.803 1_655 S
C236 C237 1.378 . S
C236 C241 1.400 . S
C237 H221 0.939 . S
C237 C236 1.378 . S
C237 C238 1.361 . S
C238 H222 0.942 . S
C238 C237 1.361 . S
C238 C239 1.369 . S
C239 C238 1.369 . S
C239 C240 1.404 . S
C240 H223 0.940 . S
C240 C239 1.404 . S
C240 C241 1.389 . S
C241 H224 0.939 . S
C241 C236 1.400 . S
C241 C240 1.389 . S
C242 P216 1.819 . S
C242 C243 1.391 . S
C242 C247 1.391 1_455 S
C243 H225 0.941 . S
C243 C242 1.391 . S
C243 C244 1.396 . S
C244 H228 0.939 . S
C244 C243 1.396 . S
C244 C245 1.397 1_455 S
C245 C244 1.397 1_655 S
C245 C246 1.385 . S
C246 H229 0.940 . S
C246 C245 1.385 . S
C246 C247 1.388 . S
C247 H226 0.939 . S
C247 C242 1.391 1_655 S
C247 C246 1.388 . S
P248 O259 1.490 . S
P248 C262 1.812 . S
P248 C268 1.803 1_545 S
P248 C274 1.819 . S
H249 C263 0.941 . S
H250 C264 0.939 . S
H251 C266 0.940 . S
H252 C267 0.940 . S
H253 C269 0.939 . S
H254 C270 0.942 . S
H255 C272 0.940 . S
H256 C273 0.939 . S
H257 C275 0.941 . S
H258 C279 0.939 . S
O259 P248 1.490 . S
H260 C276 0.939 . S
H261 C278 0.940 . S
C262 P248 1.812 . S
C262 C263 1.389 . S
C262 C267 1.391 . S
C263 H249 0.941 . S
C263 C262 1.389 . S
C263 C264 1.397 . S
C264 H250 0.939 . S
C264 C263 1.397 . S
C264 C265 1.378 . S
C265 C264 1.378 . S
C265 C266 1.378 . S
C266 H251 0.940 . S
C266 C265 1.378 . S
C266 C267 1.396 . S
C267 H252 0.940 . S
C267 C262 1.391 . S
C267 C266 1.396 . S
C268 P248 1.803 1_565 S
C268 C269 1.378 . S
C268 C273 1.400 . S
C269 H253 0.939 . S
C269 C268 1.378 . S
C269 C270 1.361 . S
C270 H254 0.942 . S
C270 C269 1.361 . S
C270 C271 1.369 . S
C271 C270 1.369 . S
C271 C272 1.404 . S
C272 H255 0.940 . S
C272 C271 1.404 . S
C272 C273 1.389 . S
C273 H256 0.939 . S
C273 C268 1.400 . S
C273 C272 1.389 . S
C274 P248 1.819 . S
C274 C275 1.391 . S
C274 C279 1.391 1_545 S
C275 H257 0.941 . S
C275 C274 1.391 . S
C275 C276 1.396 . S
C276 H260 0.939 . S
C276 C275 1.396 . S
C276 C277 1.397 . S
C277 C276 1.397 . S
C277 C278 1.385 1_545 S
C278 H261 0.940 . S
C278 C277 1.385 1_565 S
C278 C279 1.388 . S
C279 H258 0.939 . S
C279 C274 1.391 1_565 S
C279 C278 1.388 . S
P280 O291 1.490 . S
P280 C294 1.812 . S
P280 C300 1.803 . S
P280 C306 1.819 . S
H281 C295 0.941 . S
H282 C296 0.939 . S
H283 C298 0.940 . S
H284 C299 0.940 . S
H285 C301 0.939 . S
H286 C302 0.942 . S
H287 C304 0.940 . S
H288 C305 0.939 . S
H289 C307 0.941 . S
H290 C311 0.939 . S
O291 P280 1.490 . S
H292 C308 0.939 . S
H293 C310 0.940 . S
C294 P280 1.812 . S
C294 C295 1.389 . S
C294 C299 1.391 . S
C295 H281 0.941 . S
C295 C294 1.389 . S
C295 C296 1.397 . S
C296 H282 0.939 . S
C296 C295 1.397 . S
C296 C297 1.378 . S
C297 C296 1.378 . S
C297 C298 1.378 . S
C298 H283 0.940 . S
C298 C297 1.378 . S
C298 C299 1.396 . S
C299 H284 0.940 . S
C299 C294 1.391 . S
C299 C298 1.396 . S
C300 P280 1.803 . S
C300 C301 1.378 . S
C300 C305 1.400 . S
C301 H285 0.939 . S
C301 C300 1.378 . S
C301 C302 1.361 . S
C302 H286 0.942 . S
C302 C301 1.361 . S
C302 C303 1.369 . S
C303 C302 1.369 . S
C303 C304 1.404 . S
C304 H287 0.940 . S
C304 C303 1.404 . S
C304 C305 1.389 . S
C305 H288 0.939 . S
C305 C300 1.400 . S
C305 C304 1.389 . S
C306 P280 1.819 . S
C306 C307 1.391 . S
C306 C311 1.391 . S
C307 H289 0.941 . S
C307 C306 1.391 . S
C307 C308 1.396 1_554 S
C308 H292 0.939 . S
C308 C307 1.396 1_556 S
C308 C309 1.397 . S
C309 C308 1.397 . S
C309 C310 1.385 . S
C310 H293 0.940 . S
C310 C309 1.385 . S
C310 C311 1.388 1_556 S
C311 H290 0.939 . S
C311 C306 1.391 . S
C311 C310 1.388 1_554 S
C24 C303 4.682 . S
C66 C239 2.129 . S
C93 C271 2.707 . S
C13 C297 4.963 . S
C233 C57 1.966 . S
C265 C104 2.826 . S
C64 C175 2.730 . S
C97 C207 3.548 . S
C17 C137 2.592 . S
C169 C53 2.702 . S
C201 C106 2.375 . S
C26 C143 2.433 . S
C213 C2 1.540 . S
C63 C149 1.325 . S
C82 C181 1.410 . S
C277 C42 1.111 . S
C309 C103 2.039 . S
C23 C245 1.393 1_455 S
