# Generated by pormake.
# Topology zzz, (3,6)-cn, num edge types: 1
# Building blocks:
#     Node 0, Type 0, BuildingBlock: CUQRIR_clean_linker_1, # of connection points: 3
#     Node 1, Type 0, BuildingBlock: CUQRIR_clean_linker_1, # of connection points: 3
#     Node 2, Type 0, BuildingBlock: CUQRIR_clean_linker_1, # of connection points: 3
#     Node 3, Type 0, BuildingBlock: CUQRIR_clean_linker_1, # of connection points: 3
#     Node 4, Type 0, BuildingBlock: CUQRIR_clean_linker_1, # of connection points: 3
#     Node 5, Type 0, BuildingBlock: CUQRIR_clean_linker_1, # of connection points: 3
#     Node 6, Type 0, BuildingBlock: CUQRIR_clean_linker_1, # of connection points: 3
#     Node 7, Type 0, BuildingBlock: CUQRIR_clean_linker_1, # of connection points: 3
#     Node 8, Type 1, BuildingBlock: KUMBOL_clean_sbu_0, # of connection points: 6
#     Node 9, Type 1, BuildingBlock: KUMBOL_clean_sbu_0, # of connection points: 6
#     Node 10, Type 1, BuildingBlock: KUMBOL_clean_sbu_0, # of connection points: 6
#     Node 11, Type 1, BuildingBlock: KUMBOL_clean_sbu_0, # of connection points: 6
#     Edge 12, Type (0, 1), BuildingBlock: KIFKEQ_clean_linker_1, # of connection points: 2
#     Edge 13, Type (0, 1), BuildingBlock: KIFKEQ_clean_linker_1, # of connection points: 2
#     Edge 14, Type (0, 1), BuildingBlock: KIFKEQ_clean_linker_1, # of connection points: 2
#     Edge 15, Type (0, 1), BuildingBlock: KIFKEQ_clean_linker_1, # of connection points: 2
#     Edge 16, Type (0, 1), BuildingBlock: KIFKEQ_clean_linker_1, # of connection points: 2
#     Edge 17, Type (0, 1), BuildingBlock: KIFKEQ_clean_linker_1, # of connection points: 2
#     Edge 18, Type (0, 1), BuildingBlock: KIFKEQ_clean_linker_1, # of connection points: 2
#     Edge 19, Type (0, 1), BuildingBlock: KIFKEQ_clean_linker_1, # of connection points: 2
#     Edge 20, Type (0, 1), BuildingBlock: KIFKEQ_clean_linker_1, # of connection points: 2
#     Edge 21, Type (0, 1), BuildingBlock: KIFKEQ_clean_linker_1, # of connection points: 2
#     Edge 22, Type (0, 1), BuildingBlock: KIFKEQ_clean_linker_1, # of connection points: 2
#     Edge 23, Type (0, 1), BuildingBlock: KIFKEQ_clean_linker_1, # of connection points: 2
#     Edge 24, Type (0, 1), BuildingBlock: KIFKEQ_clean_linker_1, # of connection points: 2
#     Edge 25, Type (0, 1), BuildingBlock: KIFKEQ_clean_linker_1, # of connection points: 2
#     Edge 26, Type (0, 1), BuildingBlock: KIFKEQ_clean_linker_1, # of connection points: 2
#     Edge 27, Type (0, 1), BuildingBlock: KIFKEQ_clean_linker_1, # of connection points: 2
#     Edge 28, Type (0, 1), BuildingBlock: KIFKEQ_clean_linker_1, # of connection points: 2
#     Edge 29, Type (0, 1), BuildingBlock: KIFKEQ_clean_linker_1, # of connection points: 2
#     Edge 30, Type (0, 1), BuildingBlock: KIFKEQ_clean_linker_1, # of connection points: 2
#     Edge 31, Type (0, 1), BuildingBlock: KIFKEQ_clean_linker_1, # of connection points: 2
#     Edge 32, Type (0, 1), BuildingBlock: KIFKEQ_clean_linker_1, # of connection points: 2
#     Edge 33, Type (0, 1), BuildingBlock: KIFKEQ_clean_linker_1, # of connection points: 2
#     Edge 34, Type (0, 1), BuildingBlock: KIFKEQ_clean_linker_1, # of connection points: 2
#     Edge 35, Type (0, 1), BuildingBlock: KIFKEQ_clean_linker_1, # of connection points: 2
# Relax obj value: 0.203
# Max RMSD: 0.168
# Mean RMSD: 0.119
data_MOF--net-zzz--node1-KUMBOL_clean_sbu_0--node2-CUQRIR_clean_linker_1--edge1-KIFKEQ_clean_linker_1
_symmetry_space_group_name_H-M    P1
_symmetry_Int_Tables_number       1
_symmetry_cell_setting            triclinic
loop_
_symmetry_equiv_pos_as_xyz
'x, y, z'
_cell_length_a     47.924094
_cell_length_b     48.051559
_cell_length_c     13.54075
_cell_angle_alpha  91.398891
_cell_angle_beta   89.855492
_cell_angle_gamma 90.0131
loop_
_atom_site_label
_atom_site_type_symbol
_atom_site_fract_x
_atom_site_fract_y
_atom_site_fract_z
_atom_type_partial_charge
C0 C 0.75179 0.53634 0.26798 0.0
N1 N 0.77761 0.54769 0.28369 0.0
N2 N 0.73717 0.55079 0.19903 0.0
C3 C 0.74103 0.51113 0.31859 0.0
C4 C 0.7554 0.57097 0.17285 0.0
N5 N 0.77955 0.5692 0.22415 0.0
C6 C 0.74986 0.59182 0.09405 0.0
H7 H 0.7465 0.49236 0.27328 0.0
H8 H 0.71797 0.51207 0.32594 0.0
H9 H 0.75076 0.50924 0.39241 0.0
H10 H 0.73587 0.6083 0.12456 0.0
H11 H 0.73913 0.5816 0.03032 0.0
H12 H 0.76926 0.60191 0.06827 0.0
C13 C 1.00506 0.75936 0.296 0.0
N14 N 0.99533 0.78623 0.29724 0.0
N15 N 0.99137 0.74289 0.22717 0.0
C16 C 0.02862 0.74956 0.3586 0.0
C17 C 0.97303 0.76099 0.18767 0.0
N18 N 0.97601 0.78718 0.22683 0.0
C19 C 0.95365 0.75356 0.10344 0.0
H20 H 0.04864 0.75495 0.32241 0.0
H21 H 0.0277 0.72665 0.36686 0.0
H22 H 0.02802 0.7602 0.43225 0.0
H23 H 0.93874 0.73738 0.12697 0.0
H24 H 0.96583 0.74483 0.04011 0.0
H25 H 0.94134 0.77173 0.07951 0.0
C26 C 0.78174 1.014 0.25989 0.0
N27 N 0.76017 0.9975 0.28921 0.0
N28 N 0.80336 0.99847 0.22223 0.0
C29 C 0.78117 0.04517 0.26393 0.0
C30 C 0.79384 0.97203 0.22916 0.0
N31 N 0.76758 0.97131 0.26742 0.0
C32 C 0.80954 0.94688 0.19062 0.0
H33 H 0.76971 0.05263 0.1986 0.0
H34 H 0.80266 0.05378 0.26265 0.0
H35 H 0.76999 0.05275 0.33124 0.0
H36 H 0.83091 0.94685 0.22187 0.0
H37 H 0.81159 0.94795 0.10913 0.0
H38 H 0.79894 0.92723 0.21015 0.0
C39 C 0.53641 0.78877 0.2628 0.0
N40 N 0.54662 0.76276 0.27903 0.0
N41 N 0.55014 0.80094 0.18648 0.0
C42 C 0.51186 0.80147 0.31567 0.0
C43 C 0.56883 0.78122 0.15706 0.0
N44 N 0.56687 0.75839 0.2132 0.0
C45 C 0.58863 0.78396 0.0716 0.0
H46 H 0.49408 0.80263 0.26358 0.0
H47 H 0.51699 0.82305 0.34036 0.0
H48 H 0.50563 0.78908 0.38021 0.0
H49 H 0.59518 0.80596 0.06379 0.0
H50 H 0.57791 0.77712 1.00264 0.0
H51 H 0.60731 0.77066 0.08134 0.0
C52 C 0.28867 0.51509 0.13444 0.0
N53 N 0.26289 0.5034 0.1214 0.0
N54 N 0.30367 0.50143 0.20429 0.0
C55 C 0.29891 0.54005 0.08109 0.0
C56 C 0.28582 0.48131 0.23351 0.0
N57 N 0.26141 0.48243 0.18343 0.0
C58 C 0.29205 0.46125 0.3141 0.0
H59 H 0.32201 0.53981 0.07532 0.0
H60 H 0.29256 0.55908 0.12339 0.0
H61 H 0.28948 0.5408 1.00641 0.0
H62 H 0.2982 0.47304 0.38212 0.0
H63 H 0.31 0.44796 0.29158 0.0
H64 H 0.274 0.44765 0.33027 0.0
C65 C 0.02689 0.28526 0.12821 0.0
N66 N 0.04315 0.2642 0.0889 0.0
N67 N 0.0428 0.30649 0.16831 0.0
C68 C 0.99572 0.28401 0.13362 0.0
C69 C 0.06916 0.29744 0.15009 0.0
N70 N 0.06955 0.27186 0.10488 0.0
C71 C 0.09494 0.31397 0.17599 0.0
H72 H 0.98672 0.30437 0.1573 0.0
H73 H 0.98957 0.268 0.18723 0.0
H74 H 0.98721 0.2775 0.06048 0.0
H75 H 0.09968 0.31195 0.25559 0.0
H76 H 0.0914 0.33637 0.16216 0.0
H77 H 0.11315 0.30645 0.13214 0.0
C78 C 0.26922 0.04482 0.09043 0.0
N79 N 0.29191 0.06045 0.06591 0.0
N80 N 0.24854 0.06094 0.13165 0.0
C81 C 0.2677 1.01381 0.07755 0.0
C82 C 0.25978 0.08685 0.1316 0.0
N83 N 0.28614 0.08661 0.09408 0.0
C84 C 0.24567 0.11223 0.1762 0.0
H85 H 0.24567 1.00668 0.07517 0.0
H86 H 0.2782 1.00412 0.14103 0.0
H87 H 0.27875 1.00698 1.00903 0.0
H88 H 0.24188 0.10905 0.25604 0.0
H89 H 0.22512 0.11526 0.14069 0.0
H90 H 0.25822 0.13136 0.16638 0.0
C91 C 0.50523 0.25773 0.09214 0.0
N92 N 0.4929 0.28274 0.07588 0.0
N93 N 0.48837 0.24111 0.14669 0.0
C94 C 0.53439 0.25033 0.06119 0.0
C95 C 0.46548 0.25712 0.16331 0.0
N96 N 0.4682 0.28238 0.12146 0.0
C97 C 0.44116 0.2485 0.22603 0.0
H98 H 0.53718 0.2274 0.05711 0.0
H99 H 0.54916 0.25918 0.11657 0.0
H100 H 0.53932 0.25942 0.98864 0.0
H101 H 0.44769 0.24846 0.30461 0.0
H102 H 0.43466 0.227 0.20516 0.0
H103 H 0.42312 0.2627 0.21777 0.0
Gd104 Gd 1.00322 0.03771 0.57234 0.0
Gd105 Gd 0.04729 0.01691 0.76767 0.0
C106 C 0.03473 0.03115 0.09903 0.0
C107 C 0.06006 0.07416 0.1286 0.0
C108 C 0.05628 0.05467 0.96179 0.0
C109 C 0.04116 0.03235 0.9975 0.0
C110 C 0.06655 0.07538 0.02782 0.0
C111 C 0.04358 0.05253 0.1637 0.0
C112 C 0.02064 1.0079 0.13375 0.0
C113 C 1.01498 0.98559 0.06941 0.0
N114 N 0.03409 1.01109 0.9343 0.0
C115 C 0.02245 0.98724 0.96997 0.0
H116 H 0.01736 0.96998 0.92108 0.0
C117 C 0.08109 0.07437 0.82926 0.0
N118 N 0.06297 0.05494 0.86423 0.0
C119 C 0.09166 0.09533 0.89199 0.0
C120 C 0.08418 0.09597 0.9915 0.0
H121 H 0.08727 0.07413 0.75272 0.0
H122 H 0.03877 0.05181 0.2417 0.0
H123 H 0.04084 0.99472 0.42077 0.0
H124 H 1.01471 1.0068 0.21055 0.0
H125 H 1.0047 0.96716 0.09614 0.0
H126 H 0.06851 0.08927 0.1805 0.0
H127 H 0.93954 0.06263 0.62014 0.0
H128 H 0.98572 0.93749 0.27553 0.0
H129 H 0.03335 0.95535 0.30614 0.0
H130 H 0.89524 0.96773 0.38326 0.0
H131 H 0.10566 0.1109 0.86354 0.0
H132 H 0.09279 0.11195 0.04008 0.0
H133 H 0.93427 0.94202 0.30566 0.0
H134 H 0.89023 0.0504 0.58879 0.0
N135 N 0.99776 0.99967 0.4583 0.0
C136 C 0.98885 0.95493 0.32648 0.0
C137 C 1.01571 0.96502 0.34336 0.0
C138 C 0.96625 0.96792 0.37388 0.0
C139 C 0.97147 0.99054 0.43989 0.0
C140 C 0.01979 0.98771 0.40856 0.0
N141 N 0.95568 0.02714 0.54233 0.0
C142 C 0.94967 1.00477 0.48355 0.0
C143 C 0.90672 0.03724 0.55918 0.0
C144 C 0.90024 1.01347 0.50254 0.0
C145 C 0.93466 0.04407 0.5769 0.0
C146 C 0.92182 0.99715 0.46246 0.0
H147 H 0.87859 1.00834 0.48804 0.0
O148 O 0.98406 0.0753 0.51804 0.0
O149 O 0.03139 0.05476 0.6944 0.0
O150 O 1.00288 0.02022 0.83249 0.0
O151 O 0.97413 0.02223 0.69402 0.0
O152 O 0.99193 0.07141 0.68648 0.0
O153 O 0.01795 0.05654 0.43714 0.0
O154 O 0.07502 0.98221 0.73094 0.0
O155 O 0.02769 1.00143 0.62595 0.0
O156 O 0.0476 0.03627 0.51098 0.0
O157 O 0.07551 0.03512 0.6496 0.0
O158 O 0.02384 0.97615 0.74553 0.0
O159 O 0.08739 1.01253 0.84064 0.0
C160 C 1.01509 0.07306 0.73379 0.0
C161 C 0.91646 0.97406 0.39977 0.0
C162 C 0.93866 0.95944 0.35556 0.0
C163 C 1.00306 0.07883 0.45133 0.0
C164 C 0.01855 0.10539 0.45674 0.0
C165 C 1.01218 0.12584 0.52964 0.0
C166 C 0.04114 0.10973 0.39272 0.0
C167 C 0.05762 0.13374 0.40278 0.0
C168 C 0.02858 0.14971 0.53986 0.0
C169 C 0.05137 0.15355 0.47754 0.0
C170 C 0.97777 0.01981 0.79072 0.0
C171 C 0.01797 0.97789 0.65298 0.0
C172 C 0.09254 0.98829 0.80128 0.0
C173 C 0.0976 0.96659 0.87319 0.0
C174 C 0.1222 0.96604 0.92879 0.0
C175 C 0.07548 0.94929 0.89796 0.0
C176 C 0.07648 0.93275 0.98121 0.0
C177 C 0.12413 0.94847 1.00948 0.0
C178 C 0.10126 0.93215 0.03666 0.0
C179 C 0.07247 0.03729 0.55305 0.0
H180 H 0.99486 0.12326 0.58011 0.0
H181 H 0.046 0.09441 0.33556 0.0
H182 H 0.02363 0.16526 0.59639 0.0
H183 H 0.06346 0.17253 0.48523 0.0
H184 H 0.13944 0.9797 0.91169 0.0
H185 H 0.0566 0.95016 0.85521 0.0
H186 H 0.14309 0.9481 0.05273 0.0
H187 H 0.10297 0.91917 0.1006 0.0
Gd188 Gd 0.51348 1.00009 0.57997 0.0
Gd189 Gd 0.53683 0.04741 0.7737 0.0
C190 C 0.47703 0.0946 0.98157 0.0
C191 C 0.48451 0.14261 0.93611 0.0
C192 C 0.51114 0.10524 0.85647 0.0
C193 C 0.49701 0.08589 0.91078 0.0
C194 C 0.50562 0.13391 0.87018 0.0
C195 C 0.47019 0.12295 0.99171 0.0
C196 C 0.46533 0.07471 0.04261 0.0
C197 C 0.47426 0.04714 0.03477 0.0
N198 N 0.50422 0.05872 0.89935 0.0
C199 C 0.49412 0.03954 0.96325 0.0
H200 H 0.50061 0.01811 0.95803 0.0
C201 C 0.54844 0.11464 0.74805 0.0
N202 N 0.53149 0.09605 0.79429 0.0
C203 C 0.54381 0.14329 0.75925 0.0
C204 C 0.52202 0.15298 0.81945 0.0
H205 H 0.56513 0.10743 0.70035 0.0
H206 H 0.45443 0.12993 0.04423 0.0
H207 H 0.54893 0.0296 0.3946 0.0
H208 H 0.45017 0.08064 0.09804 0.0
H209 H 0.46578 0.03171 0.08346 0.0
H210 H 0.47965 0.16451 0.94651 0.0
H211 H 0.48699 0.94007 0.66035 0.0
H212 H 0.59791 0.96693 0.24803 0.0
H213 H 0.58273 0.01598 0.26548 0.0
H214 H 0.5704 0.88319 0.40473 0.0
H215 H 0.55693 0.15786 0.72088 0.0
H216 H 0.51847 0.17518 0.82804 0.0
H217 H 0.59403 0.91765 0.30205 0.0
H218 H 0.49573 0.88966 0.64109 0.0
N219 N 0.54572 0.98894 0.45311 0.0
C220 C 0.58336 0.97292 0.30559 0.0
C221 C 0.57466 1.00055 0.31496 0.0
C222 C 0.57221 0.95304 0.36799 0.0
C223 C 0.55289 0.96176 0.44109 0.0
C224 C 0.55541 1.00816 0.38859 0.0
N225 N 0.5195 0.9515 0.56179 0.0
C226 C 0.53935 0.94239 0.49738 0.0
C227 C 0.50822 0.90425 0.60038 0.0
C228 C 0.52943 0.89464 0.53748 0.0
C229 C 0.50327 0.93287 0.61083 0.0
C230 C 0.54502 0.91373 0.48379 0.0
H231 H 0.53316 0.87247 0.52916 0.0
O232 O 0.47303 0.98418 0.53444 0.0
O233 O 0.49916 0.02872 0.70347 0.0
O234 O 0.53145 1.00274 0.82937 0.0
O235 O 0.53674 0.97408 0.69036 0.0
O236 O 0.48001 0.99058 0.69353 0.0
O237 O 0.4945 1.01418 0.44467 0.0
O238 O 0.57731 0.06263 0.82178 0.0
O239 O 0.55117 0.01928 0.64866 0.0
O240 O 0.51763 0.04471 0.52372 0.0
O241 O 0.51427 0.07394 0.66253 0.0
O242 O 0.56991 0.05757 0.65984 0.0
O243 O 0.55563 0.03188 0.90737 0.0
C244 C 0.48007 1.014 0.74158 0.0
C245 C 0.56545 0.90506 0.41517 0.0
C246 C 0.57896 0.92468 0.35704 0.0
C247 C 0.47064 1.00274 0.46631 0.0
C248 C 0.44683 0.02211 0.47636 0.0
C249 C 0.42762 0.01973 0.55459 0.0
C250 C 0.44481 0.04489 0.41366 0.0
C251 C 0.42436 0.06542 0.43014 0.0
C252 C 0.40749 0.0402 0.57176 0.0
C253 C 0.40596 0.06304 0.51059 0.0
C254 C 0.53651 0.97791 0.78753 0.0
C255 C 0.56985 0.03446 0.61009 0.0
C256 C 0.57948 0.04367 0.88851 0.0
C257 C 0.60355 0.02462 0.87915 0.0
C258 C 0.62211 0.02634 0.79878 0.0
C259 C 0.60676 1.003 0.94628 0.0
C260 C 0.62794 0.98305 0.93245 0.0
C261 C 0.6429 1.0064 0.78417 0.0
C262 C 0.64574 0.98479 0.85002 0.0
C263 C 0.51313 0.06966 0.56546 0.0
H264 H 0.42841 1.00238 0.604 0.0
H265 H 0.45921 0.04674 0.35225 0.0
H266 H 0.3929 0.03828 0.63239 0.0
H267 H 0.38952 0.07816 0.52362 0.0
H268 H 0.62044 0.04284 0.74614 0.0
H269 H 0.59279 1.00168 1.00914 0.0
H270 H 0.65704 1.00787 0.72204 0.0
H271 H 0.6627 0.97014 0.83877 0.0
Gd272 Gd 0.49721 0.5378 0.78997 0.0
Gd273 Gd 0.54551 0.515 0.60382 0.0
C274 C 0.63308 0.50388 0.73586 0.0
C275 C 0.6539 0.54931 0.7149 0.0
C276 C 0.60637 0.54015 0.65811 0.0
C277 C 0.60812 0.51322 0.69172 0.0
C278 C 0.62962 0.55823 0.66745 0.0
C279 C 0.65562 0.5222 0.749 0.0
C280 C 0.63483 0.47628 0.76507 0.0
C281 C 0.61264 0.45835 0.7459 0.0
N282 N 0.58578 0.496 0.67992 0.0
C283 C 0.58858 0.46837 0.70091 0.0
H284 H 0.57303 0.45329 0.68019 0.0
C285 C 0.58271 0.57284 0.56267 0.0
N286 N 0.58254 0.54834 0.61284 0.0
C287 C 0.60484 0.59161 0.57176 0.0
C288 C 0.62817 0.58456 0.62649 0.0
H289 H 0.56658 0.57796 0.51117 0.0
H290 H 0.67467 0.51545 0.78417 0.0
H291 H 0.48422 0.60745 0.8064 0.0
H292 H 0.65353 0.46842 0.79954 0.0
H293 H 0.61425 0.43657 0.7638 0.0
H294 H 0.67168 0.56307 0.72378 0.0
H295 H 0.46382 0.47466 0.78655 0.0
H296 H 0.40533 0.62331 0.67371 0.0
H297 H 0.44881 0.6405 0.7516 0.0
H298 H 0.36657 0.53246 0.62503 0.0
H299 H 0.60421 0.61117 0.53383 0.0
H300 H 0.6455 0.59899 0.63235 0.0
H301 H 0.37486 0.58291 0.62673 0.0
H302 H 0.41964 0.45476 0.73345 0.0
N303 N 0.46281 0.57141 0.74985 0.0
C304 C 0.42117 0.60861 0.69552 0.0
C305 C 0.44567 0.61838 0.73923 0.0
C306 C 0.41675 0.57994 0.6856 0.0
C307 C 0.4381 0.5616 0.71492 0.0
C308 C 0.46594 0.59944 0.76862 0.0
N309 N 0.45416 0.51623 0.74505 0.0
C310 C 0.43344 0.53324 0.71414 0.0
C311 C 0.42332 0.47685 0.72646 0.0
C312 C 0.40257 0.49384 0.68901 0.0
C313 C 0.44886 0.48843 0.75539 0.0
C314 C 0.40728 0.52244 0.68379 0.0
H315 H 0.38283 0.48477 0.66625 0.0
O316 O 0.4901 0.51712 0.92942 0.0
O317 O 0.54193 0.52437 0.76643 0.0
O318 O 0.53084 0.47489 0.67451 0.0
O319 O 0.50813 0.49213 0.81501 0.0
O320 O 0.5352 0.56131 0.84499 0.0
O321 O 0.48183 0.56095 0.91845 0.0
O322 O 0.55622 0.52601 0.45394 0.0
O323 O 0.50062 0.52719 0.62748 0.0
O324 O 0.51466 0.57663 0.71903 0.0
O325 O 0.52626 0.55753 0.56648 0.0
O326 O 0.50812 0.49109 0.5457 0.0
O327 O 0.56254 0.48396 0.50113 0.0
C328 C 0.55408 0.54386 0.81517 0.0
C329 C 0.38653 0.54047 0.65014 0.0
C330 C 0.39129 0.56917 0.65075 0.0
C331 C 0.48336 0.53997 0.97691 0.0
C332 C 0.49707 0.54508 0.07295 0.0
C333 C 0.48799 0.5309 0.15621 0.0
C334 C 0.51876 0.56452 0.08253 0.0
C335 C 0.53242 0.56938 0.17351 0.0
C336 C 0.50065 0.53601 0.2476 0.0
C337 C 0.5228 0.55486 0.25623 0.0
C338 C 0.51868 0.47114 0.76125 0.0
C339 C 0.48883 0.50784 0.57684 0.0
C340 C 0.56318 0.50082 0.42733 0.0
C341 C 0.55158 0.49056 0.33294 0.0
C342 C 0.56187 0.5009 0.24402 0.0
C343 C 0.52996 0.47091 0.33057 0.0
C344 C 0.51837 0.46174 0.24049 0.0
C345 C 0.55015 0.49219 0.1541 0.0
C346 C 0.52846 0.47275 0.15219 0.0
C347 C 0.52031 0.5795 0.62445 0.0
H348 H 0.47109 0.51596 0.15059 0.0
H349 H 0.52408 0.57664 0.0192 0.0
H350 H 0.49353 0.52503 0.31184 0.0
H351 H 0.53236 0.55771 0.32777 0.0
H352 H 0.57856 0.51613 0.2443 0.0
H353 H 0.52233 0.46236 0.39865 0.0
H354 H 0.55785 0.50054 0.08584 0.0
H355 H 0.52018 0.46577 0.08182 0.0
Gd356 Gd 1.00866 0.5009 0.80012 0.0
Gd357 Gd 0.03024 0.54639 0.61375 0.0
C358 C 0.05356 0.63094 0.75748 0.0
C359 C 1.01082 0.65736 0.74101 0.0
C360 C 1.01374 0.60969 0.67515 0.0
C361 C 0.04087 0.60776 0.70914 0.0
C362 C 0.99874 0.6349 0.68858 0.0
C363 C 0.03816 0.65537 0.77549 0.0
C364 C 0.08157 0.62918 0.78456 0.0
C365 C 0.09675 0.60551 0.75772 0.0
N366 N 0.05523 0.58371 0.69196 0.0
C367 C 0.08347 0.58337 0.70839 0.0
H368 H 0.09648 0.56661 0.6813 0.0
C369 C 0.97783 0.59106 0.57519 0.0
N370 N 1.00251 0.5876 0.62473 0.0
C371 C 0.96207 0.61533 0.58789 0.0
C372 C 0.97227 0.63713 0.64677 0.0
H373 H 0.97019 0.57583 0.52229 0.0
H374 H 0.04744 0.67309 0.81402 0.0
H375 H 0.94401 0.4787 0.72073 0.0
H376 H 0.09197 0.64644 0.82205 0.0
H377 H 0.11889 0.60454 0.77288 0.0
H378 H 0.9994 0.6766 0.75329 0.0
H379 H 0.06717 0.47348 0.90908 0.0
H380 H 0.95233 0.39782 0.59092 0.0
H381 H 0.92393 0.43956 0.62901 0.0
H382 H 0.04399 0.3702 0.68336 0.0
H383 H 0.94232 0.61744 0.55016 0.0
H384 H 0.96014 0.65606 0.65564 0.0
H385 H 0.99705 0.37217 0.61195 0.0
H386 H 0.09622 0.43219 0.89259 0.0
N387 N 0.98567 0.46241 0.72121 0.0
C388 C 0.96177 0.41562 0.62846 0.0
C389 C 0.94577 0.43919 0.64904 0.0
C390 C 0.9893 0.41469 0.66169 0.0
C391 C 1.00073 0.43855 0.70984 0.0
C392 C 0.95779 0.46204 0.69848 0.0
N393 N 0.0372 0.46021 0.80003 0.0
C394 C 0.02728 0.4375 0.74959 0.0
C395 C 0.07723 0.4336 0.84985 0.0
C396 C 0.06854 0.41115 0.79093 0.0
C397 C 0.06088 0.45762 0.85606 0.0
C398 C 0.04289 0.4125 0.74267 0.0
H399 H 0.08109 0.39239 0.78721 0.0
O400 O 1.00839 0.48065 0.94183 0.0
O401 O 1.00871 0.54675 0.76261 0.0
O402 O 0.06921 0.52746 0.68663 0.0
O403 O 0.05311 0.51369 0.83866 0.0
O404 O 0.0234 0.53592 0.9009 0.0
O405 O 0.97129 0.50121 0.89124 0.0
O406 O 0.02865 0.56636 0.47144 0.0
O407 O 0.02994 0.50053 0.651 0.0
O408 O 0.9696 0.51875 0.72397 0.0
O409 O 0.98588 0.534 0.5737 0.0
O410 O 1.01586 0.51137 0.51215 0.0
O411 O 0.06708 0.54795 0.52067 0.0
C412 C 0.01777 0.55666 0.84561 0.0
C413 C 0.03209 0.38932 0.69063 0.0
C414 C 1.00536 0.39043 0.65012 0.0
C415 C 0.98371 0.48979 0.96555 0.0
C416 C 0.9813 0.50396 0.06353 0.0
C417 C 0.99425 0.49244 0.14586 0.0
C418 C 0.96624 0.52891 0.07575 0.0
C419 C 0.96464 0.54296 0.16847 0.0
C420 C 0.99314 0.50621 0.23766 0.0
C421 C 0.97905 0.53154 0.2486 0.0
C422 C 0.07381 0.52071 0.7798 0.0
C423 C 0.02102 0.4906 0.56782 0.0
C424 C 0.05374 0.55857 0.44679 0.0
C425 C 0.05671 0.54435 0.34911 0.0
C426 C 0.04371 0.55543 0.26616 0.0
C427 C 0.07251 0.51982 0.3378 0.0
C428 C 0.07479 0.50572 0.24538 0.0
C429 C 0.0454 0.54155 0.17464 0.0
C430 C 0.06016 0.51658 0.16465 0.0
C431 C 0.96518 0.52623 0.63137 0.0
H432 H 1.00569 0.47304 0.1388 0.0
H433 H 0.95493 0.53667 0.01318 0.0
H434 H 1.00379 0.49753 0.30022 0.0
H435 H 0.97945 0.54193 0.32031 0.0
H436 H 0.03177 0.57454 0.27254 0.0
H437 H 0.08388 0.51249 0.40086 0.0
H438 H 0.03471 0.54988 0.11154 0.0
H439 H 0.06019 0.50609 0.09311 0.0
H440 H 0.24272 0.02898 0.29355 0.0
H441 H 0.19576 0.07653 0.08675 0.0
H442 H 0.20041 0.02235 0.39288 0.0
H443 H 0.15361 0.07103 0.18658 0.0
H444 H 0.07585 0.0403 0.34986 0.0
H445 H 0.11711 0.04348 0.24503 0.0
H446 H 0.16936 0.04457 0.50445 0.0
H447 H 0.12796 0.04092 0.60871 0.0
C448 C 0.2232 0.03763 0.26845 0.0
C449 C 0.2227 0.05313 0.18163 0.0
C450 C 0.19887 0.03428 0.32638 0.0
C451 C 0.17309 0.04636 0.29966 0.0
C452 C 0.1726 0.06108 0.21054 0.0
C453 C 0.19691 0.06438 0.15288 0.0
C454 C 0.09608 0.0414 0.38483 0.0
C455 C 0.09815 0.04045 0.48862 0.0
C456 C 0.12002 0.04329 0.32425 0.0
C457 C 0.14718 0.04421 0.36485 0.0
C458 C 0.14918 0.0434 0.46893 0.0
C459 C 0.1252 0.04157 0.52945 0.0
H460 H 0.46673 0.18997 0.1076 0.0
H461 H 0.52288 0.23444 0.3018 0.0
H462 H 0.47223 0.1479 0.20598 0.0
H463 H 0.5284 0.19264 0.40111 0.0
H464 H 0.50234 0.12434 0.61972 0.0
H465 H 0.4984 0.16468 0.51475 0.0
H466 H 0.50699 0.11129 0.25582 0.0
H467 H 0.51214 0.07093 0.36122 0.0
C468 C 0.48077 0.19048 0.1701 0.0
C469 C 0.49481 0.21532 0.1959 0.0
C470 C 0.48389 0.16643 0.22671 0.0
C471 C 0.50074 0.16669 0.31197 0.0
C472 C 0.51508 0.19157 0.33666 0.0
C473 C 0.51224 0.21546 0.2792 0.0
C474 C 0.50395 0.1211 0.54065 0.0
C475 C 0.50843 0.09419 0.50002 0.0
C476 C 0.50156 0.14437 0.48006 0.0
C477 C 0.50282 0.14153 0.37631 0.0
C478 C 0.50606 0.11446 0.33523 0.0
C479 C 0.50904 0.09122 0.39605 0.0
H480 H 0.34881 0.4685 0.17762 0.0
H481 H 0.32184 0.54428 0.32338 0.0
H482 H 0.39381 0.47176 0.2618 0.0
H483 H 0.36676 0.54754 0.41099 0.0
H484 H 0.46011 0.55416 0.50927 0.0
H485 H 0.41678 0.55482 0.41216 0.0
H486 H 0.41381 0.46504 0.41644 0.0
H487 H 0.45688 0.46466 0.51138 0.0
C488 C 0.35274 0.48614 0.22691 0.0
C489 C 0.33178 0.50626 0.24266 0.0
C490 C 0.37851 0.4879 0.2767 0.0
C491 C 0.38431 0.50974 0.34547 0.0
C492 C 0.36356 0.53048 0.35857 0.0
C493 C 0.33771 0.52872 0.30808 0.0
C494 C 0.44993 0.53463 0.49039 0.0
C495 C 0.46161 0.50937 0.52137 0.0
C496 C 0.42501 0.53494 0.43416 0.0
C497 C 0.41123 0.50997 0.40541 0.0
C498 C 0.42352 0.48481 0.43503 0.0
C499 C 0.44827 0.48454 0.49084 0.0
H500 H 1.01348 0.35316 0.11881 0.0
H501 H 0.057 0.31636 0.36012 0.0
H502 H 1.00814 0.39663 0.21695 0.0
H503 H 0.05192 0.35952 0.45861 0.0
H504 H 0.06429 0.45129 0.57339 0.0
H505 H 0.06797 0.40693 0.4793 0.0
H506 H 0.98682 0.42117 0.35292 0.0
H507 H 0.98346 0.46516 0.44637 0.0
C508 C 0.02137 0.35409 0.19365 0.0
C509 C 0.03542 0.33086 0.23121 0.0
C510 C 0.01849 0.37922 0.25047 0.0
C511 C 0.02979 0.3823 0.34699 0.0
C512 C 0.0433 0.3587 0.38477 0.0
C513 C 0.04599 0.33363 0.32832 0.0
C514 C 0.04698 0.44461 0.52732 0.0
C515 C 0.02307 0.46158 0.52118 0.0
C516 C 0.04909 0.41908 0.47231 0.0
C517 C 0.02762 0.40972 0.40742 0.0
C518 C 1.00401 0.42714 0.40058 0.0
C519 C 1.00192 0.45247 0.45554 0.0
H520 H 0.85723 0.99217 0.27799 0.0
H521 H 0.80636 0.0216 0.04162 0.0
H522 H 0.89925 0.99847 0.17763 0.0
H523 H 0.84801 0.02727 0.93862 0.0
H524 H 0.93025 0.05195 0.78976 0.0
H525 H 0.88912 0.04969 0.89591 0.0
H526 H 0.92577 0.98058 0.04704 0.0
H527 H 0.96662 0.98307 0.94006 0.0
C528 C 0.85514 1.00043 0.20472 0.0
C529 C 0.82842 1.0068 0.16866 0.0
C530 C 0.87927 1.00369 0.14595 0.0
C531 C 0.87763 1.01319 0.04798 0.0
C532 C 0.85074 0.02028 0.01332 0.0
C533 C 0.82663 0.01713 0.07257 0.0
C534 C 0.92944 0.03608 0.84493 0.0
C535 C 0.95219 0.01786 0.85602 0.0
C536 C 0.90565 0.03475 0.90666 0.0
C537 C 0.90351 1.01499 0.98206 0.0
C538 C 0.92637 0.99664 0.99245 0.0
C539 C 0.95016 0.99809 0.93079 0.0
H540 H 0.53193 0.8072 1.00002 0.0
H541 H 0.55718 0.85363 0.25991 0.0
H542 H 0.52883 0.85018 0.90796 0.0
H543 H 0.5548 0.89711 0.16802 0.0
H544 H 0.52644 0.97342 0.98809 0.0
H545 H 0.52814 0.93175 0.08797 0.0
H546 H 0.55656 0.88385 0.83315 0.0
H547 H 0.55455 0.9253 0.73389 0.0
C548 C 0.53655 0.82679 0.03768 0.0
C549 C 0.54457 0.82701 0.13748 0.0
C550 C 0.53516 0.85155 0.9846 0.0
C551 C 0.54198 0.87755 0.02914 0.0
C552 C 0.54917 0.87779 0.13045 0.0
C553 C 0.55047 0.85287 0.18368 0.0
C554 C 0.53313 0.95403 0.95327 0.0
C555 C 0.53977 0.95289 0.85166 0.0
C556 C 0.5342 0.92996 1.01101 0.0
C557 C 0.54199 0.90387 0.96924 0.0
C558 C 0.54959 0.90309 0.86836 0.0
C559 C 0.54854 0.92709 0.81091 0.0
H560 H 0.71676 0.50513 0.09849 0.0
H561 H 0.69426 0.58728 0.20363 0.0
H562 H 0.67238 0.50168 1.00718 0.0
H563 H 0.65013 0.5841 0.11391 0.0
H564 H 0.59139 0.58551 0.84861 0.0
H565 H 0.63401 0.58545 0.94696 0.0
H566 H 0.6207 0.49887 1.01063 0.0
H567 H 0.57788 0.49911 0.91033 0.0
C568 C 0.70205 0.5222 0.10394 0.0
C569 C 0.70917 0.5465 0.15858 0.0
C570 C 0.67656 0.52032 0.05121 0.0
C571 C 0.65745 0.54277 0.05112 0.0
C572 C 0.66429 0.56655 0.10943 0.0
C573 C 0.68959 0.56835 0.16192 0.0
C574 C 0.59766 0.56637 0.88298 0.0
C575 C 0.58134 0.54225 0.86991 0.0
C576 C 0.62208 0.56636 0.94058 0.0
C577 C 0.63117 0.54219 0.98826 0.0
C578 C 0.61479 0.51789 0.97498 0.0
C579 C 0.59016 0.51798 0.91724 0.0
H580 H 0.03972 0.72291 0.14373 0.0
H581 H 0.95571 0.69874 0.21353 0.0
H582 H 0.04623 0.67895 0.04923 0.0
H583 H 0.96173 0.65521 0.11754 0.0
H584 H 0.97191 0.59278 0.84917 0.0
H585 H 0.96629 0.6364 0.94676 0.0
H586 H 0.05017 0.628 0.0566 0.0
H587 H 0.05541 0.58453 0.96041 0.0
C588 C 0.0228 0.70798 0.14089 0.0
C589 C 0.9972 0.71465 0.18737 0.0
C590 C 0.0264 0.68269 0.08559 0.0
C591 C 1.00441 0.66316 0.07332 0.0
C592 C 0.9791 0.6696 0.12244 0.0
C593 C 0.97567 0.69464 0.17861 0.0
C594 C 0.98932 0.60054 0.89261 0.0
C595 C 1.01452 0.5854 0.89338 0.0
C596 C 0.98602 0.62551 0.95008 0.0
C597 C 1.00782 0.63638 1.01038 0.0
C598 C 0.03293 0.62102 1.01078 0.0
C599 C 0.03598 0.59592 0.95505 0.0
H600 H 0.09799 0.26249 0.27103 0.0
H601 H 0.0921 0.23622 0.96525 0.0
H602 H 0.11967 0.21953 0.31073 0.0
H603 H 0.11174 0.19094 1.00686 0.0
H604 H 0.04991 0.13647 0.20604 0.0
H605 H 0.07778 0.16331 0.09418 0.0
H606 H 0.14076 0.17444 0.31927 0.0
H607 H 0.11266 0.14676 0.43151 0.0
C608 C 0.10263 0.248 0.21085 0.0
C609 C 0.09191 0.25209 0.11603 0.0
C610 C 0.11521 0.22296 0.23363 0.0
C611 C 0.11588 0.20097 0.16316 0.0
C612 C 0.11048 0.20712 0.06379 0.0
C613 C 0.09866 0.23278 0.04027 0.0
C614 C 0.07038 0.14339 0.2299 0.0
C615 C 0.07883 0.14038 0.32794 0.0
C616 C 0.08655 0.1588 0.16552 0.0
C617 C 0.11069 0.17255 0.19999 0.0
C618 C 0.12173 0.16491 0.29176 0.0
C619 C 0.10555 0.14934 0.3564 0.0
H620 H 0.32471 0.11151 0.97616 0.0
H621 H 0.29633 0.10615 0.27732 0.0
H622 H 0.37082 0.12632 0.03571 0.0
H623 H 0.34035 0.12366 0.3359 0.0
H624 H 0.41416 0.1212 0.46138 0.0
H625 H 0.38644 0.14949 0.3506 0.0
H626 H 0.39509 0.08602 0.12144 0.0
H627 H 0.42184 0.0578 0.23165 0.0
C628 C 0.32794 0.11466 0.05459 0.0
C629 C 0.30756 0.10631 0.12238 0.0
C630 C 0.35405 0.12378 0.08851 0.0
C631 C 0.35947 0.12548 0.19056 0.0
C632 C 0.33709 0.12253 0.25676 0.0
C633 C 0.31162 0.11236 0.22315 0.0
C634 C 0.41116 0.11399 0.38572 0.0
C635 C 0.41911 0.08689 0.35606 0.0
C636 C 0.39565 0.13035 0.3219 0.0
C637 C 0.38767 0.11945 0.22885 0.0
C638 C 0.40048 0.0949 0.19318 0.0
C639 C 0.41577 0.0785 0.25694 0.0
H640 H 0.45569 0.30091 0.30582 0.0
H641 H 0.44672 0.32078 0.99904 0.0
H642 H 0.45081 0.34962 0.3522 0.0
H643 H 0.44579 0.37018 0.04393 0.0
H644 H 0.46926 0.45685 0.1357 0.0
H645 H 0.43919 0.41548 0.12209 0.0
H646 H 0.49295 0.37359 0.32738 0.0
H647 H 0.52197 0.41418 0.34114 0.0
C648 C 0.45135 0.31555 0.24838 0.0
C649 C 0.45288 0.30729 0.14843 0.0
C650 C 0.44904 0.34365 0.2748 0.0
C651 C 0.44994 0.36387 0.20152 0.0
C652 C 0.44578 0.35526 0.10256 0.0
C653 C 0.44664 0.32691 0.0765 0.0
C654 C 0.47408 0.43884 0.17912 0.0
C655 C 0.49797 0.43862 0.23919 0.0
C656 C 0.45684 0.41528 0.17181 0.0
C657 C 0.46336 0.39119 0.22426 0.0
C658 C 0.48654 0.39183 0.28793 0.0
C659 C 0.50351 0.41517 0.29532 0.0
H660 H 0.23385 0.44543 0.0672 0.0
H661 H 0.23136 0.48875 0.34879 0.0
H662 H 0.18431 0.43351 0.08367 0.0
H663 H 0.18221 0.47704 0.3669 0.0
H664 H 0.09469 0.46795 0.38204 0.0
H665 H 0.14075 0.44672 0.37459 0.0
H666 H 0.14738 0.46745 0.06697 0.0
H667 H 0.10215 0.48862 0.07423 0.0
C668 C 0.22281 0.45141 0.13426 0.0
C669 C 0.23593 0.46822 0.20631 0.0
C670 C 0.19458 0.44464 0.14387 0.0
C671 C 0.17918 0.45462 0.22596 0.0
C672 C 0.19339 0.46872 0.30315 0.0
C673 C 0.22151 0.47556 0.29303 0.0
C674 C 0.10582 0.46789 0.31242 0.0
C675 C 0.09569 0.48272 0.23128 0.0
C676 C 0.13211 0.45528 0.30801 0.0
C677 C 0.1483 0.45663 0.22164 0.0
C678 C 0.1358 0.46649 0.13561 0.0
C679 C 0.10967 0.47917 0.14029 0.0
H680 H 0.95321 0.83664 0.28976 0.0
H681 H 0.99049 0.79394 0.03858 0.0
H682 H 0.9666 0.88143 0.21996 0.0
H683 H 1.00163 0.83736 0.96632 0.0
H684 H 0.05662 0.92393 0.1683 0.0
H685 H 1.01627 0.89619 0.21412 0.0
H686 H 0.9962 0.88286 0.90583 0.0
H687 H 0.03765 0.9079 0.85971 0.0
C688 C 0.96295 0.83687 0.21763 0.0
C689 C 0.97166 0.81191 0.17103 0.0
C690 C 0.97047 0.8624 0.17756 0.0
C691 C 0.98573 0.86291 0.08876 0.0
C692 C 0.98985 0.83794 0.0347 0.0
C693 C 0.98325 0.81275 0.07603 0.0
C694 C 0.04374 0.91484 0.11038 0.0
C695 C 0.05098 0.91747 1.01046 0.0
C696 C 0.02014 0.89964 0.13664 0.0
C697 C 1.00333 0.88696 0.0634 0.0
C698 C 1.00899 0.89207 0.96387 0.0
C699 C 0.03289 0.90647 0.93761 0.0
H700 H 0.73075 0.94591 0.39108 0.0
H701 H 0.75833 0.94833 0.08834 0.0
H702 H 0.6849 0.92926 0.33516 0.0
H703 H 0.71472 0.92887 0.03374 0.0
H704 H 0.63091 0.99337 0.13012 0.0
H705 H 0.65883 0.96742 0.24414 0.0
H706 H 0.66951 0.90178 0.02406 0.0
H707 H 0.64036 0.9275 0.91006 0.0
C708 C 0.72743 0.94174 0.31322 0.0
C709 C 0.74736 0.94995 0.24353 0.0
C710 C 0.70149 0.93157 0.28147 0.0
C711 C 0.6959 0.92851 0.17984 0.0
C712 C 0.7181 0.93112 0.11262 0.0
C713 C 0.74336 0.94236 0.14394 0.0
C714 C 0.63776 0.97267 0.10773 0.0
C715 C 0.63443 0.9629 1.01003 0.0
C716 C 0.65375 0.95761 0.17365 0.0
C717 C 0.66744 0.93317 0.14125 0.0
C718 C 0.65966 0.92088 0.05011 0.0
C719 C 0.64334 0.9358 0.9844 0.0
H720 H 0.60185 0.72944 0.32762 0.0
H721 H 0.55727 0.72667 0.05223 0.0
H722 H 0.60875 0.67887 0.31631 0.0
H723 H 0.5642 0.67659 0.03887 0.0
H724 H 0.56776 0.58892 0.02899 0.0
H725 H 0.59121 0.63356 0.03005 0.0
H726 H 0.57251 0.64436 0.34065 0.0
H727 H 0.54995 0.59959 0.33976 0.0
C728 C 0.5945 0.71799 0.26293 0.0
C729 C 0.57872 0.73149 0.1914 0.0
C730 C 0.59838 0.68918 0.25636 0.0
C731 C 0.58672 0.67362 0.17742 0.0
C732 C 0.57375 0.68785 0.10025 0.0
C733 C 0.56972 0.71655 0.1075 0.0
C734 C 0.56881 0.60054 0.09784 0.0
C735 C 0.55447 0.5915 0.18217 0.0
C736 C 0.58258 0.62611 0.09857 0.0
C737 C 0.58252 0.64314 0.18418 0.0
C738 C 0.57246 0.63207 0.27251 0.0
C739 C 0.55888 0.60636 0.27157 0.0
H740 H 0.80686 0.60549 0.34403 0.0
H741 H 0.8104 0.56313 0.0608 0.0
H742 H 0.85654 0.61725 0.33075 0.0
H743 H 0.85959 0.57475 0.04568 0.0
H744 H 0.94634 0.5818 0.03348 0.0
H745 H 0.90118 0.60477 0.04129 0.0
H746 H 0.89321 0.58296 0.34752 0.0
H747 H 0.93779 0.56041 0.34015 0.0
C748 C 0.81816 0.59972 0.27732 0.0
C749 C 0.80528 0.58325 0.20375 0.0
C750 C 0.84646 0.60641 0.2695 0.0
C751 C 0.86214 0.5967 0.18769 0.0
C752 C 0.84821 0.58291 0.10921 0.0
C753 C 0.82005 0.57611 0.11762 0.0
C754 C 0.93521 0.58216 0.10302 0.0
C755 C 0.94465 0.56668 0.18352 0.0
C756 C 0.90942 0.59572 0.10766 0.0
C757 C 0.89297 0.59442 0.19343 0.0
C758 C 0.90499 0.58389 0.27929 0.0
C759 C 0.9307 0.5704 0.27449 0.0
H760 H 0.02838 0.21538 0.17646 0.0
H761 H 0.04106 0.25133 0.89263 0.0
H762 H 0.02214 0.16922 0.09659 0.0
H763 H 0.03571 0.20535 0.81204 0.0
H764 H 0.05223 0.11592 0.6943 0.0
H765 H 0.05703 0.16135 0.77946 0.0
H766 H 0.99646 0.13644 0.99617 0.0
H767 H 0.99167 0.09123 0.90966 0.0
C768 C 0.02921 0.21357 0.09667 0.0
C769 C 0.03474 0.2375 0.04137 0.0
C770 C 0.02588 0.18685 0.05018 0.0
C771 C 0.02885 0.18264 0.94651 0.0
C772 C 0.03377 0.20691 0.89163 0.0
C773 C 0.03641 0.23364 0.93786 0.0
C774 C 0.0402 0.11996 0.76089 0.0
C775 C 0.02201 0.09923 0.79549 0.0
C776 C 0.0427 0.14639 0.80986 0.0
C777 C 0.02703 0.15349 0.89593 0.0
C778 C 1.00923 0.13238 0.9314 0.0
C779 C 1.00649 0.10613 0.88153 0.0
H780 H 0.3088 0.06684 0.87709 0.0
H781 H 0.33588 0.03505 0.15484 0.0
H782 H 0.35543 0.05822 0.80623 0.0
H783 H 0.38246 0.02542 0.08361 0.0
H784 H 0.44934 0.98283 0.86602 0.0
H785 H 0.40493 0.99372 0.94776 0.0
H786 H 0.40684 0.07587 0.82709 0.0
H787 H 0.45202 0.06508 0.74703 0.0
C788 C 0.32464 0.05746 0.92243 0.0
C789 C 0.3184 0.05134 0.02133 0.0
C790 C 0.35155 0.05285 0.88226 0.0
C791 C 0.37312 0.04125 0.93882 0.0
C792 C 0.36656 0.03428 0.03717 0.0
C793 C 0.33976 0.03955 0.07807 0.0
C794 C 0.44061 1.00346 0.85826 0.0
C795 C 0.45469 0.02313 0.80064 0.0
C796 C 0.41501 1.00972 0.90542 0.0
C797 C 0.40187 0.03567 0.89437 0.0
C798 C 0.41607 0.05558 0.83735 0.0
C799 C 0.44218 0.04951 0.79198 0.0
H800 H 0.49559 0.29172 0.87959 0.0
H801 H 0.51417 0.32954 0.16273 0.0
H802 H 0.50372 0.3364 0.79991 0.0
H803 H 0.52244 0.37429 0.08449 0.0
H804 H 0.49587 0.4554 0.93774 0.0
H805 H 0.49458 0.40961 1.01046 0.0
H806 H 0.53466 0.37416 0.75168 0.0
H807 H 0.53616 0.42027 0.67835 0.0
C808 C 0.50243 0.30941 0.92426 0.0
C809 C 0.50457 0.30694 0.0273 0.0
C810 C 0.50691 0.3352 0.8788 0.0
C811 C 0.51345 0.35944 0.9352 0.0
C812 C 0.51705 0.35644 0.03801 0.0
C813 C 0.51279 0.33063 0.08311 0.0
C814 C 0.50496 0.43807 0.89657 0.0
C815 C 0.517 0.44219 0.80292 0.0
C816 C 0.50417 0.41159 0.93876 0.0
C817 C 0.51492 0.38787 0.88867 0.0
C818 C 0.52623 0.39173 0.7935 0.0
C819 C 0.52729 0.4184 0.75146 0.0
H820 H 0.22173 0.53991 0.17048 0.0
H821 H 0.24946 0.48431 0.93761 0.0
H822 H 0.17775 0.54716 0.0836 0.0
H823 H 0.20505 0.49 0.85157 0.0
H824 H 0.12513 0.51253 0.68571 0.0
H825 H 0.17178 0.51214 0.75965 0.0
H826 H 0.13519 0.53021 0.046 0.0
H827 H 0.08926 0.53127 0.97119 0.0
C828 C 0.21862 0.52975 0.09912 0.0
C829 C 0.23954 0.51217 0.0599 0.0
C830 C 0.19296 0.53334 0.04956 0.0
C831 C 0.18688 0.519 0.95935 0.0
C832 C 0.20841 0.50195 0.9192 0.0
C833 C 0.23418 0.49868 0.96844 0.0
C834 C 0.12713 0.5165 0.76444 0.0
C835 C 0.10305 0.52136 0.82237 0.0
C836 C 0.15407 0.51606 0.80767 0.0
C837 C 0.15808 0.52077 0.91054 0.0
C838 C 0.13384 0.52659 0.96704 0.0
C839 C 0.10705 0.52681 0.92402 0.0
H840 H 0.03582 0.82498 0.25973 0.0
H841 H 0.97169 0.80512 0.46834 0.0
H842 H 0.04197 0.87087 0.34095 0.0
H843 H 0.97741 0.85078 0.55016 0.0
H844 H 0.97185 0.94424 0.62613 0.0
H845 H 0.96842 0.8982 0.54559 0.0
H846 H 0.05569 0.90218 0.46803 0.0
H847 H 0.05862 0.94857 0.54731 0.0
C848 C 0.02365 0.83002 0.3252 0.0
C849 C 1.00376 0.81065 0.3586 0.0
C850 C 0.02686 0.85675 0.37171 0.0
C851 C 1.0099 0.86568 0.45262 0.0
C852 C 0.99065 0.84573 0.48746 0.0
C853 C 0.98769 0.81897 0.44164 0.0
C854 C 0.99022 0.93553 0.59039 0.0
C855 C 1.01526 0.95098 0.59111 0.0
C856 C 0.98843 0.90862 0.5448 0.0
C857 C 1.01179 0.8954 0.4992 0.0
C858 C 0.03691 0.91104 0.50018 0.0
C859 C 0.03866 0.938 0.54591 0.0
H860 H 0.71491 0.01946 0.1963 0.0
H861 H 0.74351 0.99246 0.47887 0.0
H862 H 0.66767 0.02674 0.26546 0.0
H863 H 0.69623 0.99845 0.54738 0.0
H864 H 0.60022 0.98466 0.60353 0.0
H865 H 0.64598 0.97637 0.52373 0.0
H866 H 0.64291 0.05809 0.40005 0.0
H867 H 0.59802 0.06658 0.48185 0.0
C868 C 0.71121 1.01552 0.27361 0.0
C869 C 0.73318 1.00569 0.33226 0.0
C870 C 0.68403 0.01941 0.3133 0.0
C871 C 0.67771 1.01282 0.41221 0.0
C872 C 0.69991 1.00336 0.47081 0.0
C873 C 0.72717 1.00028 0.43193 0.0
C874 C 0.60906 1.00061 0.55775 0.0
C875 C 0.59508 0.02623 0.54865 0.0
C876 C 0.6355 0.996 0.51259 0.0
C877 C 0.64852 0.01661 0.4552 0.0
C878 C 0.6338 0.04163 0.44288 0.0
C879 C 0.6079 0.04649 0.48994 0.0
H880 H 0.56567 0.74942 0.45931 0.0
H881 H 0.50575 0.72539 0.23812 0.0
H882 H 0.55711 0.70631 0.54609 0.0
H883 H 0.49544 0.68284 0.32675 0.0
H884 H 0.53176 0.63023 0.71512 0.0
H885 H 0.53341 0.67612 0.64184 0.0
H886 H 0.50919 0.63924 0.36049 0.0
H887 H 0.50637 0.59389 0.43606 0.0
C888 C 0.5497 0.73534 0.43171 0.0
C889 C 0.53597 0.74117 0.343 0.0
C890 C 0.54473 0.71032 0.48133 0.0
C891 C 0.52554 0.69023 0.44459 0.0
C892 C 0.51083 0.69697 0.35776 0.0
C893 C 0.51619 0.72182 0.3075 0.0
C894 C 0.52654 0.63203 0.63775 0.0
C895 C 0.51954 0.60809 0.58113 0.0
C896 C 0.5278 0.6585 0.5948 0.0
C897 C 0.52202 0.6621 0.4934 0.0
C898 C 0.51375 0.63809 0.43844 0.0
C899 C 0.51248 0.61169 0.48157 0.0
H900 H 0.81821 0.51055 0.23452 0.0
H901 H 0.7908 0.56587 0.46873 0.0
H902 H 0.86176 0.50215 0.32279 0.0
H903 H 0.83479 0.55899 0.55627 0.0
H904 H 0.95018 0.51645 0.43918 0.0
H905 H 0.90452 0.51847 0.36266 0.0
H906 H 0.86724 0.53562 0.64855 0.0
H907 H 0.91366 0.53428 0.72425 0.0
C908 C 0.82128 0.5204 0.30644 0.0
C909 C 0.80058 0.53825 0.34561 0.0
C910 C 0.84669 0.51614 0.35683 0.0
C911 C 0.85274 0.53003 0.44792 0.0
C912 C 0.83143 0.54735 0.48798 0.0
C913 C 0.8059 0.55131 0.43785 0.0
C914 C 0.93229 0.52087 0.4859 0.0
C915 C 0.93604 0.5258 0.58797 0.0
C916 C 0.90566 0.52166 0.44187 0.0
C917 C 0.88133 0.52755 0.49777 0.0
C918 C 0.88505 0.53168 0.60103 0.0
C919 C 0.91185 0.53067 0.64527 0.0
loop_
_geom_bond_atom_site_label_1
_geom_bond_atom_site_label_2
_geom_bond_distance
_geom_bond_site_symmetry_2
_ccdc_geom_bond_type
C0 N1 1.317 . S
C0 N2 1.348 . S
C0 C3 1.485 . S
N1 C0 1.317 . S
N1 N5 1.370 . S
N2 C0 1.348 . S
N2 C4 1.346 . S
C3 C0 1.485 . S
C3 H7 0.960 . S
C3 H8 0.961 . S
C3 H9 0.960 . S
C4 N2 1.346 . S
C4 N5 1.307 . S
C4 C6 1.486 . S
N5 N1 1.370 . S
N5 C4 1.307 . S
C6 C4 1.486 . S
C6 H10 0.960 . S
C6 H11 0.960 . S
C6 H12 0.959 . S
H7 C3 0.960 . S
H8 C3 0.961 . S
H9 C3 0.960 . S
H10 C6 0.960 . S
H11 C6 0.960 . S
H12 C6 0.959 . S
C13 N14 1.317 . S
C13 N15 1.348 . S
C13 C16 1.485 . S
N14 C13 1.317 . S
N14 N18 1.370 . S
N15 C13 1.348 . S
N15 C17 1.346 . S
C16 C13 1.485 . S
C16 H20 0.960 . S
C16 H21 0.961 . S
C16 H22 0.960 . S
C17 N15 1.346 . S
C17 N18 1.307 . S
C17 C19 1.486 . S
N18 N14 1.370 . S
N18 C17 1.307 . S
C19 C17 1.486 . S
C19 H23 0.960 . S
C19 H24 0.960 . S
C19 H25 0.959 . S
H20 C16 0.960 . S
H21 C16 0.961 . S
H22 C16 0.960 . S
H23 C19 0.960 . S
H24 C19 0.960 . S
H25 C19 0.959 . S
C26 N27 1.317 . S
C26 N28 1.348 . S
C26 C29 1.485 . S
N27 C26 1.317 . S
N27 N31 1.370 . S
N28 C26 1.348 . S
N28 C30 1.346 . S
C29 C26 1.485 . S
C29 H33 0.960 . S
C29 H34 0.961 . S
C29 H35 0.960 . S
C30 N28 1.346 . S
C30 N31 1.307 . S
C30 C32 1.486 . S
N31 N27 1.370 . S
N31 C30 1.307 . S
C32 C30 1.486 . S
C32 H36 0.960 . S
C32 H37 0.960 . S
C32 H38 0.959 . S
H33 C29 0.960 . S
H34 C29 0.961 . S
H35 C29 0.960 . S
H36 C32 0.960 . S
H37 C32 0.960 . S
H38 C32 0.959 . S
C39 N40 1.317 . S
C39 N41 1.348 . S
C39 C42 1.485 . S
N40 C39 1.317 . S
N40 N44 1.370 . S
N41 C39 1.348 . S
N41 C43 1.346 . S
C42 C39 1.485 . S
C42 H46 0.960 . S
C42 H47 0.961 . S
C42 H48 0.960 . S
C43 N41 1.346 . S
C43 N44 1.307 . S
C43 C45 1.486 . S
N44 N40 1.370 . S
N44 C43 1.307 . S
C45 C43 1.486 . S
C45 H49 0.960 . S
C45 H50 0.960 . S
C45 H51 0.959 . S
H46 C42 0.960 . S
H47 C42 0.961 . S
H48 C42 0.960 . S
H49 C45 0.960 . S
H50 C45 0.960 . S
H51 C45 0.959 . S
C52 N53 1.317 . S
C52 N54 1.348 1_556 S
C52 C55 1.485 . S
N53 C52 1.317 . S
N53 N57 1.370 1_556 S
N54 C52 1.348 1_554 S
N54 C56 1.346 . S
C55 C52 1.485 . S
C55 H59 0.960 . S
C55 H60 0.961 . S
C55 H61 0.960 . S
C56 N54 1.346 . S
C56 N57 1.307 . S
C56 C58 1.486 . S
N57 N53 1.370 1_554 S
N57 C56 1.307 . S
C58 C56 1.486 . S
C58 H62 0.960 . S
C58 H63 0.960 . S
C58 H64 0.959 . S
H59 C55 0.960 . S
H60 C55 0.961 . S
H61 C55 0.960 . S
H62 C58 0.960 . S
H63 C58 0.960 . S
H64 C58 0.959 . S
C65 N66 1.317 . S
C65 N67 1.348 1_556 S
C65 C68 1.485 . S
N66 C65 1.317 . S
N66 N70 1.370 1_556 S
N67 C65 1.348 1_554 S
N67 C69 1.346 . S
C68 C65 1.485 . S
C68 H72 0.960 . S
C68 H73 0.961 . S
C68 H74 0.960 . S
C69 N67 1.346 . S
C69 N70 1.307 . S
C69 C71 1.486 . S
N70 N66 1.370 1_554 S
N70 C69 1.307 . S
C71 C69 1.486 . S
C71 H75 0.960 . S
C71 H76 0.960 . S
C71 H77 0.959 . S
H72 C68 0.960 . S
H73 C68 0.961 . S
H74 C68 0.960 . S
H75 C71 0.960 . S
H76 C71 0.960 . S
H77 C71 0.959 . S
C78 N79 1.317 . S
C78 N80 1.348 1_556 S
C78 C81 1.485 . S
N79 C78 1.317 . S
N79 N83 1.370 1_556 S
N80 C78 1.348 1_554 S
N80 C82 1.346 . S
C81 C78 1.485 . S
C81 H85 0.960 . S
C81 H86 0.961 . S
C81 H87 0.960 . S
C82 N80 1.346 . S
C82 N83 1.307 . S
C82 C84 1.486 . S
N83 N79 1.370 1_554 S
N83 C82 1.307 . S
C84 C82 1.486 . S
C84 H88 0.960 . S
C84 H89 0.960 . S
C84 H90 0.959 . S
H85 C81 0.960 . S
H86 C81 0.961 . S
H87 C81 0.960 . S
H88 C84 0.960 . S
H89 C84 0.960 . S
H90 C84 0.959 . S
C91 N92 1.317 . S
C91 N93 1.348 1_556 S
C91 C94 1.485 . S
N92 C91 1.317 . S
N92 N96 1.370 1_556 S
N93 C91 1.348 1_554 S
N93 C95 1.346 . S
C94 C91 1.485 . S
C94 H98 0.960 . S
C94 H99 0.961 . S
C94 H100 0.960 . S
C95 N93 1.346 . S
C95 N96 1.307 . S
C95 C97 1.486 . S
N96 N92 1.370 1_554 S
N96 C95 1.307 . S
C97 C95 1.486 . S
C97 H101 0.960 . S
C97 H102 0.960 . S
C97 H103 0.959 . S
H98 C94 0.960 . S
H99 C94 0.961 . S
H100 C94 0.960 . S
H101 C97 0.960 . S
H102 C97 0.960 . S
H103 C97 0.959 . S
Gd104 N135 2.661 1_545 S
Gd104 N141 2.601 . S
Gd104 O148 2.545 . S
Gd104 O149 2.606 1_655 S
Gd104 O151 2.429 . S
Gd104 O152 2.545 1_655 S
Gd104 O153 2.412 . S
Gd104 O155 2.362 1_545 S
Gd104 O156 2.324 1_655 S
Gd104 C163 2.828 . S
Gd105 N114 2.661 1_565 S
Gd105 N118 2.601 1_565 S
Gd105 O149 2.362 1_565 S
Gd105 O150 2.324 1_455 S
Gd105 O154 2.545 . S
Gd105 O155 2.606 1_455 S
Gd105 O157 2.429 . S
Gd105 O158 2.545 . S
Gd105 O159 2.412 . S
Gd105 C172 2.828 . S
C106 C109 1.417 1_554 S
C106 C111 1.431 . S
C106 C112 1.412 . S
C107 C110 1.437 1_554 S
C107 C111 1.317 . S
C107 H126 0.929 . S
C108 C109 1.426 . S
C108 C110 1.413 . S
C108 N118 1.359 . S
C109 C106 1.417 1_556 S
C109 C108 1.426 . S
C109 N114 1.350 . S
C110 C107 1.437 1_556 S
C110 C108 1.413 . S
C110 C120 1.391 . S
C111 C106 1.431 . S
C111 C107 1.317 . S
C111 H122 0.930 . S
C112 C106 1.412 . S
C112 C113 1.355 . S
C112 H124 0.930 . S
C113 C112 1.355 . S
C113 C115 1.402 1_554 S
C113 H125 0.930 1_455 S
N114 Gd105 2.661 1_545 S
N114 C109 1.350 . S
N114 C115 1.307 . S
C115 C113 1.402 1_556 S
C115 N114 1.307 . S
C115 H116 0.930 1_455 S
H116 C115 0.930 1_655 S
C117 N118 1.334 1_565 S
C117 C119 1.394 . S
C117 H121 0.930 . S
N118 Gd105 2.601 1_545 S
N118 C108 1.359 . S
N118 C117 1.334 1_545 S
C119 C117 1.394 . S
C119 C120 1.359 1_565 S
C119 H131 0.930 . S
C120 C110 1.391 . S
C120 C119 1.359 1_545 S
C120 H132 0.929 . S
H121 C117 0.930 . S
H122 C111 0.930 . S
H123 C140 0.930 . S
H124 C112 0.930 . S
H125 C113 0.930 1_655 S
H126 C107 0.929 . S
H127 C145 0.930 . S
H128 C136 0.930 . S
H129 C137 0.930 . S
H130 C161 0.929 . S
H131 C119 0.930 . S
H132 C120 0.929 . S
H133 C162 0.930 . S
H134 C143 0.930 . S
N135 Gd104 2.661 1_565 S
N135 C139 1.350 . S
N135 C140 1.307 1_655 S
C136 H128 0.930 . S
C136 C137 1.355 1_655 S
C136 C138 1.412 . S
C137 H129 0.930 . S
C137 C136 1.355 1_455 S
C137 C140 1.402 . S
C138 C136 1.412 . S
C138 C139 1.417 . S
C138 C162 1.431 . S
C139 N135 1.350 . S
C139 C138 1.417 . S
C139 C142 1.426 1_565 S
C140 H123 0.930 . S
C140 N135 1.307 1_455 S
C140 C137 1.402 . S
N141 Gd104 2.601 . S
N141 C142 1.359 . S
N141 C145 1.334 . S
C142 C139 1.426 1_545 S
C142 N141 1.359 . S
C142 C146 1.413 1_545 S
C143 H134 0.930 . S
C143 C144 1.359 . S
C143 C145 1.394 . S
C144 C143 1.359 . S
C144 C146 1.391 1_545 S
C144 H147 0.929 . S
C145 H127 0.930 . S
C145 N141 1.334 . S
C145 C143 1.394 . S
C146 C142 1.413 1_565 S
C146 C144 1.391 1_565 S
C146 C161 1.437 . S
H147 C144 0.929 . S
O148 Gd104 2.545 . S
O148 C163 1.258 . S
O149 Gd104 2.606 1_455 S
O149 Gd105 2.362 1_545 S
O149 C160 1.284 . S
O150 Gd105 2.324 1_655 S
O150 C170 1.254 1_565 S
O151 Gd104 2.429 . S
O151 C170 1.268 . S
O152 Gd104 2.545 1_455 S
O152 C160 1.250 . S
O153 Gd104 2.412 . S
O153 C163 1.252 . S
O154 Gd105 2.545 . S
O154 C172 1.258 . S
O155 Gd104 2.362 1_565 S
O155 Gd105 2.606 1_655 S
O155 C171 1.284 . S
O156 Gd104 2.324 1_455 S
O156 C179 1.254 . S
O157 Gd105 2.429 . S
O157 C179 1.268 1_565 S
O158 Gd105 2.545 . S
O158 C171 1.250 1_455 S
O159 Gd105 2.412 . S
O159 C172 1.252 . S
C160 O149 1.284 . S
C160 O152 1.250 . S
C161 H130 0.929 . S
C161 C146 1.437 . S
C161 C162 1.317 . S
C162 H133 0.930 . S
C162 C138 1.431 . S
C162 C161 1.317 . S
C163 Gd104 2.828 . S
C163 O148 1.258 . S
C163 O153 1.252 . S
C163 C164 1.497 . S
C164 C163 1.497 . S
C164 C165 1.395 . S
C164 C166 1.380 . S
C165 C164 1.395 . S
C165 C168 1.398 . S
C165 H180 0.930 . S
C166 C164 1.380 . S
C166 C167 1.391 . S
C166 H181 0.930 1_655 S
C167 C166 1.391 . S
C167 C169 1.387 . S
C168 C165 1.398 . S
C168 C169 1.380 . S
C168 H182 0.930 . S
C169 C167 1.387 . S
C169 C168 1.380 . S
C169 H183 0.930 . S
C170 O150 1.254 1_545 S
C170 O151 1.268 . S
C171 O155 1.284 . S
C171 O158 1.250 1_655 S
C172 Gd105 2.828 . S
C172 O154 1.258 . S
C172 O159 1.252 . S
C172 C173 1.497 . S
C173 C172 1.497 . S
C173 C174 1.395 . S
C173 C175 1.380 . S
C174 C173 1.395 . S
C174 C177 1.398 1_556 S
C174 H184 0.930 . S
C175 C173 1.380 . S
C175 C176 1.391 1_556 S
C175 H185 0.930 . S
C176 C175 1.391 1_554 S
C176 C178 1.387 . S
C177 C174 1.398 1_554 S
C177 C178 1.380 . S
C177 H186 0.930 . S
C178 C176 1.387 . S
C178 C177 1.380 . S
C178 H187 0.930 . S
C179 O156 1.254 . S
C179 O157 1.268 1_545 S
H180 C165 0.930 . S
H181 C166 0.930 1_455 S
H182 C168 0.930 . S
H183 C169 0.930 . S
H184 C174 0.930 . S
H185 C175 0.930 . S
H186 C177 0.930 . S
H187 C178 0.930 . S
Gd188 N219 2.661 . S
Gd188 N225 2.601 . S
Gd188 O232 2.545 . S
Gd188 O233 2.606 1_565 S
Gd188 O235 2.429 . S
Gd188 O236 2.545 1_565 S
Gd188 O237 2.412 . S
Gd188 O239 2.362 . S
Gd188 O240 2.324 1_565 S
Gd188 C247 2.828 . S
Gd189 N198 2.661 . S
Gd189 N202 2.601 . S
Gd189 O233 2.362 . S
Gd189 O234 2.324 1_545 S
Gd189 O238 2.545 . S
Gd189 O239 2.606 1_545 S
Gd189 O241 2.429 . S
Gd189 O242 2.545 . S
Gd189 O243 2.412 . S
Gd189 C256 2.828 . S
C190 C193 1.417 1_554 S
C190 C195 1.431 . S
C190 C196 1.412 . S
C191 C194 1.437 1_554 S
C191 C195 1.317 . S
C191 H210 0.929 . S
C192 C193 1.426 . S
C192 C194 1.413 . S
C192 N202 1.359 . S
C193 C190 1.417 1_556 S
C193 C192 1.426 . S
C193 N198 1.350 . S
C194 C191 1.437 1_556 S
C194 C192 1.413 . S
C194 C204 1.391 . S
C195 C190 1.431 . S
C195 C191 1.317 . S
C195 H206 0.930 . S
C196 C190 1.412 . S
C196 C197 1.355 . S
C196 H208 0.930 . S
C197 C196 1.355 . S
C197 C199 1.402 1_554 S
C197 H209 0.930 1_545 S
N198 Gd189 2.661 . S
N198 C193 1.350 . S
N198 C199 1.307 . S
C199 C197 1.402 1_556 S
C199 N198 1.307 . S
C199 H200 0.930 1_545 S
H200 C199 0.930 1_565 S
C201 N202 1.334 . S
C201 C203 1.394 . S
C201 H205 0.930 . S
N202 Gd189 2.601 . S
N202 C192 1.359 . S
N202 C201 1.334 . S
C203 C201 1.394 . S
C203 C204 1.359 . S
C203 H215 0.930 . S
C204 C194 1.391 . S
C204 C203 1.359 . S
C204 H216 0.929 . S
H205 C201 0.930 . S
H206 C195 0.930 . S
H207 C224 0.930 . S
H208 C196 0.930 . S
H209 C197 0.930 1_565 S
H210 C191 0.929 . S
H211 C229 0.930 . S
H212 C220 0.930 . S
H213 C221 0.930 . S
H214 C245 0.929 . S
H215 C203 0.930 . S
H216 C204 0.929 . S
H217 C246 0.930 . S
H218 C227 0.930 . S
N219 Gd188 2.661 . S
N219 C223 1.350 . S
N219 C224 1.307 1_565 S
C220 H212 0.930 . S
C220 C221 1.355 1_565 S
C220 C222 1.412 . S
C221 H213 0.930 . S
C221 C220 1.355 1_545 S
C221 C224 1.402 . S
C222 C220 1.412 . S
C222 C223 1.417 . S
C222 C246 1.431 . S
C223 N219 1.350 . S
C223 C222 1.417 . S
C223 C226 1.426 . S
C224 H207 0.930 . S
C224 N219 1.307 1_545 S
C224 C221 1.402 . S
N225 Gd188 2.601 . S
N225 C226 1.359 . S
N225 C229 1.334 . S
C226 C223 1.426 . S
C226 N225 1.359 . S
C226 C230 1.413 . S
C227 H218 0.930 . S
C227 C228 1.359 . S
C227 C229 1.394 . S
C228 C227 1.359 . S
C228 C230 1.391 . S
C228 H231 0.929 . S
C229 H211 0.930 . S
C229 N225 1.334 . S
C229 C227 1.394 . S
C230 C226 1.413 . S
C230 C228 1.391 . S
C230 C245 1.437 . S
H231 C228 0.929 . S
O232 Gd188 2.545 . S
O232 C247 1.258 . S
O233 Gd188 2.606 1_545 S
O233 Gd189 2.362 . S
O233 C244 1.284 . S
O234 Gd189 2.324 1_565 S
O234 C254 1.254 . S
O235 Gd188 2.429 . S
O235 C254 1.268 . S
O236 Gd188 2.545 1_545 S
O236 C244 1.250 . S
O237 Gd188 2.412 . S
O237 C247 1.252 . S
O238 Gd189 2.545 . S
O238 C256 1.258 . S
O239 Gd188 2.362 . S
O239 Gd189 2.606 1_565 S
O239 C255 1.286 . S
O240 Gd188 2.324 1_545 S
O240 C263 1.254 . S
O241 Gd189 2.429 . S
O241 C263 1.268 . S
O242 Gd189 2.545 . S
O242 C255 1.235 1_545 S
O243 Gd189 2.412 . S
O243 C256 1.252 . S
C244 O233 1.284 . S
C244 O236 1.250 . S
C245 H214 0.929 . S
C245 C230 1.437 . S
C245 C246 1.317 . S
C246 H217 0.930 . S
C246 C222 1.431 . S
C246 C245 1.317 . S
C247 Gd188 2.828 . S
C247 O232 1.258 . S
C247 O237 1.252 . S
C247 C248 1.497 . S
C248 C247 1.497 . S
C248 C249 1.395 . S
C248 C250 1.380 . S
C249 C248 1.395 . S
C249 C252 1.398 . S
C249 H264 0.930 . S
C250 C248 1.380 . S
C250 C251 1.391 . S
C250 H265 0.930 1_565 S
C251 C250 1.391 . S
C251 C253 1.387 . S
C252 C249 1.398 . S
C252 C253 1.380 . S
C252 H266 0.930 . S
C253 C251 1.387 . S
C253 C252 1.380 . S
C253 H267 0.930 . S
C254 O234 1.254 . S
C254 O235 1.268 . S
C255 O239 1.286 . S
C255 O242 1.235 1_565 S
C256 Gd189 2.828 . S
C256 O238 1.258 . S
C256 O243 1.252 . S
C256 C257 1.497 . S
C257 C256 1.497 . S
C257 C258 1.395 . S
C257 C259 1.380 . S
C258 C257 1.395 . S
C258 C261 1.398 1_556 S
C258 H268 0.930 . S
C259 C257 1.380 . S
C259 C260 1.391 1_556 S
C259 H269 0.930 . S
C260 C259 1.391 1_554 S
C260 C262 1.387 . S
C261 C258 1.398 1_554 S
C261 C262 1.380 . S
C261 H270 0.930 . S
C262 C260 1.387 . S
C262 C261 1.380 . S
C262 H271 0.930 . S
C263 O240 1.254 . S
C263 O241 1.268 . S
H264 C249 0.930 . S
H265 C250 0.930 1_545 S
H266 C252 0.930 . S
H267 C253 0.930 . S
H268 C258 0.930 . S
H269 C259 0.930 . S
H270 C261 0.930 . S
H271 C262 0.930 . S
Gd272 N303 2.661 . S
Gd272 N309 2.601 . S
Gd272 O316 2.545 . S
Gd272 O317 2.606 . S
Gd272 O319 2.429 . S
Gd272 O320 2.545 . S
Gd272 O321 2.412 . S
Gd272 O323 2.362 . S
Gd272 O324 2.324 . S
Gd272 C331 2.828 . S
Gd273 N282 2.661 . S
Gd273 N286 2.601 . S
Gd273 O317 2.362 . S
Gd273 O318 2.324 . S
Gd273 O322 2.545 . S
Gd273 O323 2.606 . S
Gd273 O325 2.429 . S
Gd273 O326 2.545 . S
Gd273 O327 2.412 . S
Gd273 C340 2.828 . S
C274 C277 1.417 . S
C274 C279 1.431 . S
C274 C280 1.412 . S
C275 C278 1.437 . S
C275 C279 1.317 . S
C275 H294 0.929 . S
C276 C277 1.426 . S
C276 C278 1.413 . S
C276 N286 1.359 . S
C277 C274 1.417 . S
C277 C276 1.426 . S
C277 N282 1.350 . S
C278 C275 1.437 . S
C278 C276 1.413 . S
C278 C288 1.391 . S
C279 C274 1.431 . S
C279 C275 1.317 . S
C279 H290 0.930 . S
C280 C274 1.412 . S
C280 C281 1.355 . S
C280 H292 0.930 . S
C281 C280 1.355 . S
C281 C283 1.402 . S
C281 H293 0.930 . S
N282 Gd273 2.661 . S
N282 C277 1.350 . S
N282 C283 1.307 . S
C283 C281 1.402 . S
C283 N282 1.307 . S
C283 H284 0.930 . S
H284 C283 0.930 . S
C285 N286 1.334 . S
C285 C287 1.394 . S
C285 H289 0.930 . S
N286 Gd273 2.601 . S
N286 C276 1.359 . S
N286 C285 1.334 . S
C287 C285 1.394 . S
C287 C288 1.359 . S
C287 H299 0.930 . S
C288 C278 1.391 . S
C288 C287 1.359 . S
C288 H300 0.929 . S
H289 C285 0.930 . S
H290 C279 0.930 . S
H291 C308 0.930 . S
H292 C280 0.930 . S
H293 C281 0.930 . S
H294 C275 0.929 . S
H295 C313 0.930 . S
H296 C304 0.930 . S
H297 C305 0.930 . S
H298 C329 0.929 . S
H299 C287 0.930 . S
H300 C288 0.929 . S
H301 C330 0.930 . S
H302 C311 0.930 1_554 S
N303 Gd272 2.661 . S
N303 C307 1.350 . S
N303 C308 1.307 . S
C304 H296 0.930 . S
C304 C305 1.355 . S
C304 C306 1.412 . S
C305 H297 0.930 . S
C305 C304 1.355 . S
C305 C308 1.402 . S
C306 C304 1.412 . S
C306 C307 1.417 . S
C306 C330 1.431 . S
C307 N303 1.350 . S
C307 C306 1.417 . S
C307 C310 1.426 . S
C308 H291 0.930 . S
C308 N303 1.307 . S
C308 C305 1.402 . S
N309 Gd272 2.601 . S
N309 C310 1.359 . S
N309 C313 1.334 . S
C310 C307 1.426 . S
C310 N309 1.359 . S
C310 C314 1.413 . S
C311 H302 0.930 1_556 S
C311 C312 1.359 . S
C311 C313 1.394 . S
C312 C311 1.359 . S
C312 C314 1.391 . S
C312 H315 0.929 . S
C313 H295 0.930 . S
C313 N309 1.334 . S
C313 C311 1.394 . S
C314 C310 1.413 . S
C314 C312 1.391 . S
C314 C329 1.437 . S
H315 C312 0.929 . S
O316 Gd272 2.545 . S
O316 C331 1.258 . S
O317 Gd272 2.606 . S
O317 Gd273 2.362 . S
O317 C328 1.284 . S
O318 Gd273 2.324 . S
O318 C338 1.254 . S
O319 Gd272 2.429 . S
O319 C338 1.268 . S
O320 Gd272 2.545 . S
O320 C328 1.250 . S
O321 Gd272 2.412 . S
O321 C331 1.252 . S
O322 Gd273 2.545 . S
O322 C340 1.258 . S
O323 Gd272 2.362 . S
O323 Gd273 2.606 . S
O323 C339 1.284 . S
O324 Gd272 2.324 . S
O324 C347 1.254 . S
O325 Gd273 2.429 . S
O325 C347 1.268 . S
O326 Gd273 2.545 . S
O326 C339 1.250 . S
O327 Gd273 2.412 . S
O327 C340 1.252 . S
C328 O317 1.284 . S
C328 O320 1.250 . S
C329 H298 0.929 . S
C329 C314 1.437 . S
C329 C330 1.317 . S
C330 H301 0.930 . S
C330 C306 1.431 . S
C330 C329 1.317 . S
C331 Gd272 2.828 . S
C331 O316 1.258 . S
C331 O321 1.252 . S
C331 C332 1.497 1_556 S
C332 C331 1.497 1_554 S
C332 C333 1.395 . S
C332 C334 1.380 . S
C333 C332 1.395 . S
C333 C336 1.398 . S
C333 H348 0.930 . S
C334 C332 1.380 . S
C334 C335 1.391 . S
C334 H349 0.930 1_554 S
C335 C334 1.391 . S
C335 C337 1.387 . S
C336 C333 1.398 . S
C336 C337 1.380 . S
C336 H350 0.930 . S
C337 C335 1.387 . S
C337 C336 1.380 . S
C337 H351 0.930 . S
C338 O318 1.254 . S
C338 O319 1.268 . S
C339 O323 1.284 . S
C339 O326 1.250 . S
C340 Gd273 2.828 . S
C340 O322 1.258 . S
C340 O327 1.252 . S
C340 C341 1.497 . S
C341 C340 1.497 . S
C341 C342 1.395 . S
C341 C343 1.380 . S
C342 C341 1.395 . S
C342 C345 1.398 . S
C342 H352 0.930 . S
C343 C341 1.380 . S
C343 C344 1.391 . S
C343 H353 0.930 . S
C344 C343 1.391 . S
C344 C346 1.387 . S
C345 C342 1.398 . S
C345 C346 1.380 . S
C345 H354 0.930 . S
C346 C344 1.387 . S
C346 C345 1.380 . S
C346 H355 0.930 . S
C347 O324 1.254 . S
C347 O325 1.268 . S
H348 C333 0.930 . S
H349 C334 0.930 1_556 S
H350 C336 0.930 . S
H351 C337 0.930 . S
H352 C342 0.930 . S
H353 C343 0.930 . S
H354 C345 0.930 . S
H355 C346 0.930 . S
Gd356 N387 2.661 . S
Gd356 N393 2.601 . S
Gd356 O400 2.545 . S
Gd356 O401 2.606 1_655 S
Gd356 O403 2.429 1_655 S
Gd356 O404 2.545 . S
Gd356 O405 2.412 . S
Gd356 O407 2.362 1_655 S
Gd356 O408 2.324 . S
Gd356 C415 2.828 . S
Gd357 N366 2.661 . S
Gd357 N370 2.601 . S
Gd357 O401 2.362 . S
Gd357 O402 2.324 . S
Gd357 O406 2.545 . S
Gd357 O407 2.606 . S
Gd357 O409 2.429 1_455 S
Gd357 O410 2.545 . S
Gd357 O411 2.412 . S
Gd357 C424 2.828 . S
C358 C361 1.417 . S
C358 C363 1.431 . S
C358 C364 1.412 . S
C359 C362 1.437 . S
C359 C363 1.317 . S
C359 H378 0.929 . S
C360 C361 1.426 . S
C360 C362 1.413 . S
C360 N370 1.359 . S
C361 C358 1.417 . S
C361 C360 1.426 . S
C361 N366 1.350 . S
C362 C359 1.437 . S
C362 C360 1.413 . S
C362 C372 1.391 . S
C363 C358 1.431 . S
C363 C359 1.317 . S
C363 H374 0.930 . S
C364 C358 1.412 . S
C364 C365 1.355 . S
C364 H376 0.930 . S
C365 C364 1.355 . S
C365 C367 1.402 . S
C365 H377 0.930 . S
N366 Gd357 2.661 . S
N366 C361 1.350 . S
N366 C367 1.307 . S
C367 C365 1.402 . S
C367 N366 1.307 . S
C367 H368 0.930 . S
H368 C367 0.930 . S
C369 N370 1.334 1_655 S
C369 C371 1.394 . S
C369 H373 0.930 . S
N370 Gd357 2.601 . S
N370 C360 1.359 . S
N370 C369 1.334 1_455 S
C371 C369 1.394 . S
C371 C372 1.359 1_655 S
C371 H383 0.930 . S
C372 C362 1.391 . S
C372 C371 1.359 1_455 S
C372 H384 0.929 . S
H373 C369 0.930 . S
H374 C363 0.930 . S
H375 C392 0.930 . S
H376 C364 0.930 . S
H377 C365 0.930 . S
H378 C359 0.929 . S
H379 C397 0.930 . S
H380 C388 0.930 . S
H381 C389 0.930 . S
H382 C413 0.929 . S
H383 C371 0.930 . S
H384 C372 0.929 . S
H385 C414 0.930 . S
H386 C395 0.930 1_554 S
N387 Gd356 2.661 . S
N387 C391 1.350 . S
N387 C392 1.307 . S
C388 H380 0.930 . S
C388 C389 1.355 . S
C388 C390 1.412 . S
C389 H381 0.930 . S
C389 C388 1.355 . S
C389 C392 1.402 . S
C390 C388 1.412 . S
C390 C391 1.417 . S
C390 C414 1.431 . S
C391 N387 1.350 . S
C391 C390 1.417 . S
C391 C394 1.426 . S
C392 H375 0.930 . S
C392 N387 1.307 . S
C392 C389 1.402 . S
N393 Gd356 2.601 . S
N393 C394 1.359 . S
N393 C397 1.334 1_655 S
C394 C391 1.426 . S
C394 N393 1.359 . S
C394 C398 1.413 . S
C395 H386 0.930 1_556 S
C395 C396 1.359 . S
C395 C397 1.394 . S
C396 C395 1.359 . S
C396 C398 1.391 1_455 S
C396 H399 0.929 . S
C397 H379 0.930 . S
C397 N393 1.334 1_455 S
C397 C395 1.394 . S
C398 C394 1.413 . S
C398 C396 1.391 1_655 S
C398 C413 1.437 . S
H399 C396 0.929 . S
O400 Gd356 2.545 . S
O400 C415 1.258 . S
O401 Gd356 2.606 1_455 S
O401 Gd357 2.362 . S
O401 C412 1.284 1_455 S
O402 Gd357 2.324 . S
O402 C422 1.254 . S
O403 Gd356 2.429 1_455 S
O403 C422 1.268 . S
O404 Gd356 2.545 . S
O404 C412 1.250 . S
O405 Gd356 2.412 . S
O405 C415 1.252 . S
O406 Gd357 2.545 . S
O406 C424 1.258 . S
O407 Gd356 2.362 1_455 S
O407 Gd357 2.606 . S
O407 C423 1.284 . S
O408 Gd356 2.324 . S
O408 C431 1.254 . S
O409 Gd357 2.429 1_655 S
O409 C431 1.268 . S
O410 Gd357 2.545 . S
O410 C423 1.250 . S
O411 Gd357 2.412 . S
O411 C424 1.252 . S
C412 O401 1.284 1_655 S
C412 O404 1.250 . S
C413 H382 0.929 . S
C413 C398 1.437 . S
C413 C414 1.317 . S
C414 H385 0.930 . S
C414 C390 1.431 . S
C414 C413 1.317 . S
C415 Gd356 2.828 . S
C415 O400 1.258 . S
C415 O405 1.252 . S
C415 C416 1.497 1_556 S
C416 C415 1.497 1_554 S
C416 C417 1.395 . S
C416 C418 1.380 . S
C417 C416 1.395 . S
C417 C420 1.398 . S
C417 H432 0.930 . S
C418 C416 1.380 . S
C418 C419 1.391 . S
C418 H433 0.930 1_554 S
C419 C418 1.391 . S
C419 C421 1.387 . S
C420 C417 1.398 . S
C420 C421 1.380 . S
C420 H434 0.930 . S
C421 C419 1.387 . S
C421 C420 1.380 . S
C421 H435 0.930 . S
C422 O402 1.254 . S
C422 O403 1.268 . S
C423 O407 1.284 . S
C423 O410 1.250 . S
C424 Gd357 2.828 . S
C424 O406 1.258 . S
C424 O411 1.252 . S
C424 C425 1.497 . S
C425 C424 1.497 . S
C425 C426 1.395 . S
C425 C427 1.380 . S
C426 C425 1.395 . S
C426 C429 1.398 . S
C426 H436 0.930 . S
C427 C425 1.380 . S
C427 C428 1.391 . S
C427 H437 0.930 . S
C428 C427 1.391 . S
C428 C430 1.387 . S
C429 C426 1.398 . S
C429 C430 1.380 . S
C429 H438 0.930 . S
C430 C428 1.387 . S
C430 C429 1.380 . S
C430 H439 0.930 . S
C431 O408 1.254 . S
C431 O409 1.268 . S
H432 C417 0.930 . S
H433 C418 0.930 1_556 S
H434 C420 0.930 . S
H435 C421 0.930 . S
H436 C426 0.930 . S
H437 C427 0.930 . S
H438 C429 0.930 . S
H439 C430 0.930 . S
H440 C448 0.950 . S
H441 C453 0.950 . S
H442 C450 0.950 . S
H443 C452 0.950 . S
H444 C454 0.950 . S
H445 C456 0.950 . S
H446 C458 0.950 . S
H447 C459 0.950 . S
C448 H440 0.950 . S
C448 C449 1.386 . S
C448 C450 1.391 . S
C449 C448 1.386 . S
C449 C453 1.393 . S
C450 H442 0.950 . S
C450 C448 1.391 . S
C450 C451 1.400 . S
C451 C450 1.400 . S
C451 C452 1.398 . S
C451 C457 1.491 . S
C452 H443 0.950 . S
C452 C451 1.398 . S
C452 C453 1.391 . S
C453 H441 0.950 . S
C453 C449 1.393 . S
C453 C452 1.391 . S
C454 H444 0.950 . S
C454 C455 1.386 . S
C454 C456 1.391 . S
C455 C454 1.386 . S
C455 C459 1.393 . S
C456 H445 0.950 . S
C456 C454 1.391 . S
C456 C457 1.400 . S
C457 C451 1.491 . S
C457 C456 1.400 . S
C457 C458 1.398 . S
C458 H446 0.950 . S
C458 C457 1.398 . S
C458 C459 1.391 . S
C459 H447 0.950 . S
C459 C455 1.393 . S
C459 C458 1.391 . S
H460 C468 0.950 . S
H461 C473 0.950 . S
H462 C470 0.950 . S
H463 C472 0.950 . S
H464 C474 0.950 . S
H465 C476 0.950 . S
H466 C478 0.950 . S
H467 C479 0.950 . S
C468 H460 0.950 . S
C468 C469 1.386 . S
C468 C470 1.391 . S
C469 C468 1.386 . S
C469 C473 1.393 . S
C470 H462 0.950 . S
C470 C468 1.391 . S
C470 C471 1.400 . S
C471 C470 1.400 . S
C471 C472 1.398 . S
C471 C477 1.491 . S
C472 H463 0.950 . S
C472 C471 1.398 . S
C472 C473 1.391 . S
C473 H461 0.950 . S
C473 C469 1.393 . S
C473 C472 1.391 . S
C474 H464 0.950 . S
C474 C475 1.386 . S
C474 C476 1.391 . S
C475 C474 1.386 . S
C475 C479 1.393 . S
C476 H465 0.950 . S
C476 C474 1.391 . S
C476 C477 1.400 . S
C477 C471 1.491 . S
C477 C476 1.400 . S
C477 C478 1.398 . S
C478 H466 0.950 . S
C478 C477 1.398 . S
C478 C479 1.391 . S
C479 H467 0.950 . S
C479 C475 1.393 . S
C479 C478 1.391 . S
H480 C488 0.950 . S
H481 C493 0.950 . S
H482 C490 0.950 . S
H483 C492 0.950 . S
H484 C494 0.950 . S
H485 C496 0.950 . S
H486 C498 0.950 . S
H487 C499 0.950 . S
C488 H480 0.950 . S
C488 C489 1.386 . S
C488 C490 1.391 . S
C489 C488 1.386 . S
C489 C493 1.393 . S
C490 H482 0.950 . S
C490 C488 1.391 . S
C490 C491 1.400 . S
C491 C490 1.400 . S
C491 C492 1.398 . S
C491 C497 1.491 . S
C492 H483 0.950 . S
C492 C491 1.398 . S
C492 C493 1.391 . S
C493 H481 0.950 . S
C493 C489 1.393 . S
C493 C492 1.391 . S
C494 H484 0.950 . S
C494 C495 1.386 . S
C494 C496 1.391 . S
C495 C494 1.386 . S
C495 C499 1.393 . S
C496 H485 0.950 . S
C496 C494 1.391 . S
C496 C497 1.400 . S
C497 C491 1.491 . S
C497 C496 1.400 . S
C497 C498 1.398 . S
C498 H486 0.950 . S
C498 C497 1.398 . S
C498 C499 1.391 . S
C499 H487 0.950 . S
C499 C495 1.393 . S
C499 C498 1.391 . S
H500 C508 0.950 . S
H501 C513 0.950 . S
H502 C510 0.950 . S
H503 C512 0.950 . S
H504 C514 0.950 . S
H505 C516 0.950 . S
H506 C518 0.950 . S
H507 C519 0.950 . S
C508 H500 0.950 . S
C508 C509 1.386 . S
C508 C510 1.391 . S
C509 C508 1.386 . S
C509 C513 1.393 . S
C510 H502 0.950 . S
C510 C508 1.391 . S
C510 C511 1.400 . S
C511 C510 1.400 . S
C511 C512 1.398 . S
C511 C517 1.491 . S
C512 H503 0.950 . S
C512 C511 1.398 . S
C512 C513 1.391 . S
C513 H501 0.950 . S
C513 C509 1.393 . S
C513 C512 1.391 . S
C514 H504 0.950 . S
C514 C515 1.386 . S
C514 C516 1.391 . S
C515 C514 1.386 . S
C515 C519 1.393 . S
C516 H505 0.950 . S
C516 C514 1.391 . S
C516 C517 1.400 . S
C517 C511 1.491 . S
C517 C516 1.400 . S
C517 C518 1.398 . S
C518 H506 0.950 . S
C518 C517 1.398 . S
C518 C519 1.391 . S
C519 H507 0.950 . S
C519 C515 1.393 . S
C519 C518 1.391 . S
H520 C528 0.950 . S
H521 C533 0.950 . S
H522 C530 0.950 . S
H523 C532 0.950 . S
H524 C534 0.942 1_545 S
H525 C536 0.950 . S
H526 C538 0.950 . S
H527 C539 0.950 . S
C528 H520 0.950 . S
C528 C529 1.386 . S
C528 C530 1.391 . S
C529 C528 1.386 . S
C529 C533 1.393 . S
C530 H522 0.950 . S
C530 C528 1.391 . S
C530 C531 1.400 . S
C531 C530 1.400 . S
C531 C532 1.398 . S
C531 C537 1.491 . S
C532 H523 0.950 . S
C532 C531 1.398 . S
C532 C533 1.391 . S
C533 H521 0.950 . S
C533 C529 1.393 . S
C533 C532 1.391 . S
C534 H524 0.942 1_565 S
C534 C535 1.390 . S
C534 C536 1.395 . S
C535 C534 1.390 . S
C535 C539 1.393 . S
C536 H525 0.950 . S
C536 C534 1.395 . S
C536 C537 1.400 1_556 S
C537 C531 1.491 . S
C537 C536 1.400 1_554 S
C537 C538 1.398 . S
C538 H526 0.950 . S
C538 C537 1.398 . S
C538 C539 1.391 1_554 S
C539 H527 0.950 . S
C539 C535 1.393 . S
C539 C538 1.391 1_556 S
H540 C548 0.950 . S
H541 C553 0.950 . S
H542 C550 0.950 . S
H543 C552 0.950 . S
H544 C554 0.950 . S
H545 C556 0.950 . S
H546 C558 0.950 . S
H547 C559 0.950 . S
C548 H540 0.950 . S
C548 C549 1.386 . S
C548 C550 1.391 . S
C549 C548 1.386 . S
C549 C553 1.393 . S
C550 H542 0.950 . S
C550 C548 1.391 . S
C550 C551 1.400 . S
C551 C550 1.400 . S
C551 C552 1.398 . S
C551 C557 1.491 . S
C552 H543 0.950 . S
C552 C551 1.398 . S
C552 C553 1.391 . S
C553 H541 0.950 . S
C553 C549 1.393 . S
C553 C552 1.391 . S
C554 H544 0.950 . S
C554 C555 1.386 . S
C554 C556 1.391 1_556 S
C555 C554 1.386 . S
C555 C559 1.393 . S
C556 H545 0.950 . S
C556 C554 1.391 1_554 S
C556 C557 1.400 . S
C557 C551 1.491 . S
C557 C556 1.400 . S
C557 C558 1.398 1_554 S
C558 H546 0.950 . S
C558 C557 1.398 1_556 S
C558 C559 1.391 . S
C559 H547 0.950 . S
C559 C555 1.393 . S
C559 C558 1.391 . S
H560 C568 0.950 . S
H561 C573 0.950 . S
H562 C570 0.950 . S
H563 C572 0.950 . S
H564 C574 0.950 . S
H565 C576 0.950 . S
H566 C578 0.950 . S
H567 C579 0.950 . S
C568 H560 0.950 . S
C568 C569 1.386 . S
C568 C570 1.391 . S
C569 C568 1.386 . S
C569 C573 1.393 . S
C570 H562 0.950 . S
C570 C568 1.391 . S
C570 C571 1.400 . S
C571 C570 1.400 . S
C571 C572 1.398 . S
C571 C577 1.491 . S
C572 H563 0.950 . S
C572 C571 1.398 . S
C572 C573 1.391 . S
C573 H561 0.950 . S
C573 C569 1.393 . S
C573 C572 1.391 . S
C574 H564 0.950 . S
C574 C575 1.386 . S
C574 C576 1.391 1_556 S
C575 C574 1.386 . S
C575 C579 1.393 . S
C576 H565 0.950 . S
C576 C574 1.391 1_554 S
C576 C577 1.400 . S
C577 C571 1.491 . S
C577 C576 1.400 . S
C577 C578 1.398 1_554 S
C578 H566 0.950 . S
C578 C577 1.398 1_556 S
C578 C579 1.391 . S
C579 H567 0.950 . S
C579 C575 1.393 . S
C579 C578 1.391 . S
H580 C588 0.950 1_455 S
H581 C593 0.950 . S
H582 C590 0.950 1_455 S
H583 C592 0.950 . S
H584 C594 0.950 . S
H585 C596 0.950 . S
H586 C598 0.950 . S
H587 C599 0.950 . S
C588 H580 0.950 1_655 S
C588 C589 1.386 . S
C588 C590 1.391 . S
C589 C588 1.386 . S
C589 C593 1.393 . S
C590 H582 0.950 1_655 S
C590 C588 1.391 . S
C590 C591 1.400 . S
C591 C590 1.400 . S
C591 C592 1.398 . S
C591 C597 1.491 . S
C592 H583 0.950 . S
C592 C591 1.398 . S
C592 C593 1.391 . S
C593 H581 0.950 . S
C593 C589 1.393 . S
C593 C592 1.391 . S
C594 H584 0.950 . S
C594 C595 1.386 . S
C594 C596 1.391 . S
C595 C594 1.386 . S
C595 C599 1.393 1_655 S
C596 H585 0.950 . S
C596 C594 1.391 . S
C596 C597 1.400 1_556 S
C597 C591 1.491 . S
C597 C596 1.400 1_554 S
C597 C598 1.398 1_654 S
C598 H586 0.950 . S
C598 C597 1.398 1_456 S
C598 C599 1.391 . S
C599 H587 0.950 . S
C599 C595 1.393 1_455 S
C599 C598 1.391 . S
H600 C608 0.950 . S
H601 C613 0.950 1_556 S
H602 C610 0.950 . S
H603 C612 0.950 . S
H604 C614 0.950 . S
H605 C616 0.950 . S
H606 C618 0.950 . S
H607 C619 0.950 1_655 S
C608 H600 0.950 . S
C608 C609 1.386 . S
C608 C610 1.391 . S
C609 C608 1.386 . S
C609 C613 1.393 . S
C610 H602 0.950 . S
C610 C608 1.391 . S
C610 C611 1.400 . S
C611 C610 1.400 . S
C611 C612 1.398 . S
C611 C617 1.491 . S
C612 H603 0.950 . S
C612 C611 1.398 . S
C612 C613 1.391 . S
C613 H601 0.950 1_554 S
C613 C609 1.393 . S
C613 C612 1.391 . S
C614 H604 0.950 . S
C614 C615 1.386 . S
C614 C616 1.391 . S
C615 C614 1.386 . S
C615 C619 1.393 . S
C616 H605 0.950 . S
C616 C614 1.391 . S
C616 C617 1.400 . S
C617 C611 1.491 . S
C617 C616 1.400 . S
C617 C618 1.398 . S
C618 H606 0.950 . S
C618 C617 1.398 . S
C618 C619 1.391 . S
C619 H607 0.950 1_455 S
C619 C615 1.393 . S
C619 C618 1.391 . S
H620 C628 0.950 1_556 S
H621 C633 0.950 . S
H622 C630 0.950 . S
H623 C632 0.950 . S
H624 C634 0.948 . S
H625 C636 0.950 . S
H626 C638 0.950 . S
H627 C639 0.950 . S
C628 H620 0.950 1_554 S
C628 C629 1.386 . S
C628 C630 1.391 . S
C629 C628 1.386 . S
C629 C633 1.393 . S
C630 H622 0.950 . S
C630 C628 1.391 . S
C630 C631 1.400 . S
C631 C630 1.400 . S
C631 C632 1.398 . S
C631 C637 1.491 . S
C632 H623 0.950 . S
C632 C631 1.398 . S
C632 C633 1.391 . S
C633 H621 0.950 . S
C633 C629 1.393 . S
C633 C632 1.391 . S
C634 H624 0.948 . S
C634 C635 1.386 1_565 S
C634 C636 1.393 1_565 S
C635 C634 1.386 1_545 S
C635 C639 1.393 . S
C636 H625 0.950 . S
C636 C634 1.393 1_545 S
C636 C637 1.400 . S
C637 C631 1.491 . S
C637 C636 1.400 . S
C637 C638 1.398 . S
C638 H626 0.950 . S
C638 C637 1.398 . S
C638 C639 1.391 . S
C639 H627 0.950 . S
C639 C635 1.393 . S
C639 C638 1.391 . S
H640 C648 0.950 1_556 S
H641 C653 0.950 . S
H642 C650 0.950 . S
H643 C652 0.950 . S
H644 C654 0.950 . S
H645 C656 0.950 . S
H646 C658 0.950 . S
H647 C659 0.950 . S
C648 H640 0.950 1_554 S
C648 C649 1.386 . S
C648 C650 1.391 . S
C649 C648 1.386 . S
C649 C653 1.393 . S
C650 H642 0.950 . S
C650 C648 1.391 . S
C650 C651 1.400 . S
C651 C650 1.400 . S
C651 C652 1.398 . S
C651 C657 1.491 . S
C652 H643 0.950 . S
C652 C651 1.398 . S
C652 C653 1.391 . S
C653 H641 0.950 . S
C653 C649 1.393 . S
C653 C652 1.391 . S
C654 H644 0.950 . S
C654 C655 1.386 . S
C654 C656 1.391 . S
C655 C654 1.386 . S
C655 C659 1.393 . S
C656 H645 0.950 . S
C656 C654 1.391 . S
C656 C657 1.400 . S
C657 C651 1.491 . S
C657 C656 1.400 . S
C657 C658 1.398 . S
C658 H646 0.950 . S
C658 C657 1.398 . S
C658 C659 1.391 . S
C659 H647 0.950 . S
C659 C655 1.393 . S
C659 C658 1.391 . S
H660 C668 0.950 . S
H661 C673 0.950 . S
H662 C670 0.950 . S
H663 C672 0.950 . S
H664 C674 0.950 . S
H665 C676 0.950 . S
H666 C678 0.950 . S
H667 C679 0.950 . S
C668 H660 0.950 . S
C668 C669 1.386 . S
C668 C670 1.391 . S
C669 C668 1.386 . S
C669 C673 1.393 . S
C670 H662 0.950 . S
C670 C668 1.391 . S
C670 C671 1.400 . S
C671 C670 1.400 . S
C671 C672 1.398 . S
C671 C677 1.491 . S
C672 H663 0.950 . S
C672 C671 1.398 . S
C672 C673 1.391 . S
C673 H661 0.950 . S
C673 C669 1.393 . S
C673 C672 1.391 . S
C674 H664 0.950 . S
C674 C675 1.386 . S
C674 C676 1.391 . S
C675 C674 1.386 . S
C675 C679 1.393 . S
C676 H665 0.950 . S
C676 C674 1.391 . S
C676 C677 1.400 . S
C677 C671 1.491 . S
C677 C676 1.400 . S
C677 C678 1.398 . S
C678 H666 0.950 . S
C678 C677 1.398 . S
C678 C679 1.391 . S
C679 H667 0.950 . S
C679 C675 1.393 . S
C679 C678 1.391 . S
H680 C688 0.950 . S
H681 C693 0.950 . S
H682 C690 0.950 . S
H683 C692 0.950 1_455 S
H684 C694 0.950 . S
H685 C696 0.950 . S
H686 C698 0.950 . S
H687 C699 0.950 1_556 S
C688 H680 0.950 . S
C688 C689 1.386 . S
C688 C690 1.391 . S
C689 C688 1.386 . S
C689 C693 1.393 . S
C690 H682 0.950 . S
C690 C688 1.391 . S
C690 C691 1.400 . S
C691 C690 1.400 . S
C691 C692 1.398 . S
C691 C697 1.491 . S
C692 H683 0.950 1_655 S
C692 C691 1.398 . S
C692 C693 1.391 . S
C693 H681 0.950 . S
C693 C689 1.393 . S
C693 C692 1.391 . S
C694 H684 0.950 . S
C694 C695 1.386 . S
C694 C696 1.391 . S
C695 C694 1.386 . S
C695 C699 1.393 1_455 S
C696 H685 0.950 . S
C696 C694 1.391 . S
C696 C697 1.400 1_455 S
C697 C691 1.491 . S
C697 C696 1.400 1_655 S
C697 C698 1.398 . S
C698 H686 0.950 . S
C698 C697 1.398 . S
C698 C699 1.391 . S
C699 H687 0.950 1_554 S
C699 C695 1.393 1_655 S
C699 C698 1.391 . S
H700 C708 0.950 . S
H701 C713 0.950 . S
H702 C710 0.950 . S
H703 C712 0.950 1_545 S
H704 C714 0.950 . S
H705 C716 0.950 . S
H706 C718 0.950 . S
H707 C719 0.950 1_556 S
C708 H700 0.950 . S
C708 C709 1.386 . S
C708 C710 1.391 . S
C709 C708 1.386 . S
C709 C713 1.393 . S
C710 H702 0.950 . S
C710 C708 1.391 . S
C710 C711 1.400 . S
C711 C710 1.400 . S
C711 C712 1.398 . S
C711 C717 1.491 . S
C712 H703 0.950 1_565 S
C712 C711 1.398 . S
C712 C713 1.391 . S
C713 H701 0.950 . S
C713 C709 1.393 . S
C713 C712 1.391 . S
C714 H704 0.950 . S
C714 C715 1.386 . S
C714 C716 1.391 . S
C715 C714 1.386 . S
C715 C719 1.393 1_545 S
C716 H705 0.950 . S
C716 C714 1.391 . S
C716 C717 1.400 1_545 S
C717 C711 1.491 . S
C717 C716 1.400 1_565 S
C717 C718 1.398 . S
C718 H706 0.950 . S
C718 C717 1.398 . S
C718 C719 1.391 . S
C719 H707 0.950 1_554 S
C719 C715 1.393 1_565 S
C719 C718 1.391 . S
H720 C728 0.950 . S
H721 C733 0.950 . S
H722 C730 0.950 . S
H723 C732 0.950 . S
H724 C734 0.950 . S
H725 C736 0.950 . S
H726 C738 0.950 . S
H727 C739 0.950 1_556 S
C728 H720 0.950 . S
C728 C729 1.386 . S
C728 C730 1.391 . S
C729 C728 1.386 . S
C729 C733 1.393 . S
C730 H722 0.950 . S
C730 C728 1.391 . S
C730 C731 1.400 . S
C731 C730 1.400 . S
C731 C732 1.398 . S
C731 C737 1.491 . S
C732 H723 0.950 . S
C732 C731 1.398 . S
C732 C733 1.391 . S
C733 H721 0.950 . S
C733 C729 1.393 . S
C733 C732 1.391 . S
C734 H724 0.950 . S
C734 C735 1.386 . S
C734 C736 1.391 . S
C735 C734 1.386 . S
C735 C739 1.393 . S
C736 H725 0.950 . S
C736 C734 1.391 . S
C736 C737 1.400 . S
C737 C731 1.491 . S
C737 C736 1.400 . S
C737 C738 1.398 . S
C738 H726 0.950 . S
C738 C737 1.398 . S
C738 C739 1.391 . S
C739 H727 0.950 1_554 S
C739 C735 1.393 . S
C739 C738 1.391 . S
H740 C748 0.950 . S
H741 C753 0.950 . S
H742 C750 0.950 . S
H743 C752 0.950 . S
H744 C754 0.950 . S
H745 C756 0.950 . S
H746 C758 0.950 . S
H747 C759 0.950 . S
C748 H740 0.950 . S
C748 C749 1.386 . S
C748 C750 1.391 . S
C749 C748 1.386 . S
C749 C753 1.393 . S
C750 H742 0.950 . S
C750 C748 1.391 . S
C750 C751 1.400 . S
C751 C750 1.400 . S
C751 C752 1.398 . S
C751 C757 1.491 . S
C752 H743 0.950 . S
C752 C751 1.398 . S
C752 C753 1.391 . S
C753 H741 0.950 . S
C753 C749 1.393 . S
C753 C752 1.391 . S
C754 H744 0.950 . S
C754 C755 1.386 . S
C754 C756 1.391 . S
C755 C754 1.386 . S
C755 C759 1.393 . S
C756 H745 0.950 . S
C756 C754 1.391 . S
C756 C757 1.400 . S
C757 C751 1.491 . S
C757 C756 1.400 . S
C757 C758 1.398 . S
C758 H746 0.950 . S
C758 C757 1.398 . S
C758 C759 1.391 . S
C759 H747 0.950 . S
C759 C755 1.393 . S
C759 C758 1.391 . S
H760 C768 0.950 . S
H761 C773 0.950 . S
H762 C770 0.950 . S
H763 C772 0.950 . S
H764 C774 0.950 . S
H765 C776 0.950 . S
H766 C778 0.950 1_655 S
H767 C779 0.950 1_655 S
C768 H760 0.950 . S
C768 C769 1.386 . S
C768 C770 1.391 . S
C769 C768 1.386 . S
C769 C773 1.393 . S
C770 H762 0.950 . S
C770 C768 1.391 . S
C770 C771 1.400 . S
C771 C770 1.400 . S
C771 C772 1.398 . S
C771 C777 1.491 . S
C772 H763 0.950 . S
C772 C771 1.398 . S
C772 C773 1.391 . S
C773 H761 0.950 . S
C773 C769 1.393 . S
C773 C772 1.391 . S
C774 H764 0.950 . S
C774 C775 1.386 . S
C774 C776 1.391 . S
C775 C774 1.386 . S
C775 C779 1.393 . S
C776 H765 0.950 . S
C776 C774 1.391 . S
C776 C777 1.400 . S
C777 C771 1.491 . S
C777 C776 1.400 . S
C777 C778 1.398 . S
C778 H766 0.950 1_455 S
C778 C777 1.398 . S
C778 C779 1.391 . S
C779 H767 0.950 1_455 S
C779 C775 1.393 . S
C779 C778 1.391 . S
H780 C788 0.950 1_554 S
H781 C793 0.950 . S
H782 C790 0.950 . S
H783 C792 0.950 . S
H784 C794 0.950 . S
H785 C796 0.950 . S
H786 C798 0.950 . S
H787 C799 0.950 . S
C788 H780 0.950 1_556 S
C788 C789 1.386 . S
C788 C790 1.391 . S
C789 C788 1.386 . S
C789 C793 1.393 . S
C790 H782 0.950 . S
C790 C788 1.391 . S
C790 C791 1.400 . S
C791 C790 1.400 . S
C791 C792 1.398 . S
C791 C797 1.491 . S
C792 H783 0.950 . S
C792 C791 1.398 . S
C792 C793 1.391 . S
C793 H781 0.950 . S
C793 C789 1.393 . S
C793 C792 1.391 . S
C794 H784 0.950 . S
C794 C795 1.386 . S
C794 C796 1.391 . S
C795 C794 1.386 . S
C795 C799 1.393 . S
C796 H785 0.950 . S
C796 C794 1.391 . S
C796 C797 1.400 . S
C797 C791 1.491 . S
C797 C796 1.400 . S
C797 C798 1.398 . S
C798 H786 0.950 . S
C798 C797 1.398 . S
C798 C799 1.391 . S
C799 H787 0.950 . S
C799 C795 1.393 . S
C799 C798 1.391 . S
H800 C808 0.950 . S
H801 C813 0.950 1_554 S
H802 C810 0.950 . S
H803 C812 0.950 . S
H804 C814 0.950 . S
H805 C816 0.950 . S
H806 C818 0.950 . S
H807 C819 0.950 . S
C808 H800 0.950 . S
C808 C809 1.386 . S
C808 C810 1.391 . S
C809 C808 1.386 . S
C809 C813 1.393 . S
C810 H802 0.950 . S
C810 C808 1.391 . S
C810 C811 1.400 . S
C811 C810 1.400 . S
C811 C812 1.398 . S
C811 C817 1.491 . S
C812 H803 0.950 . S
C812 C811 1.398 . S
C812 C813 1.391 . S
C813 H801 0.950 1_556 S
C813 C809 1.393 . S
C813 C812 1.391 . S
C814 H804 0.950 . S
C814 C815 1.386 . S
C814 C816 1.391 . S
C815 C814 1.386 . S
C815 C819 1.393 . S
C816 H805 0.950 . S
C816 C814 1.391 . S
C816 C817 1.400 . S
C817 C811 1.491 . S
C817 C816 1.400 . S
C817 C818 1.398 . S
C818 H806 0.950 . S
C818 C817 1.398 . S
C818 C819 1.391 . S
C819 H807 0.950 . S
C819 C815 1.393 . S
C819 C818 1.391 . S
H820 C828 0.950 . S
H821 C833 0.950 . S
H822 C830 0.950 . S
H823 C832 0.950 . S
H824 C834 0.950 . S
H825 C836 0.950 . S
H826 C838 0.950 . S
H827 C839 0.950 . S
C828 H820 0.950 . S
C828 C829 1.386 . S
C828 C830 1.391 . S
C829 C828 1.386 . S
C829 C833 1.393 . S
C830 H822 0.950 . S
C830 C828 1.391 . S
C830 C831 1.400 . S
C831 C830 1.400 . S
C831 C832 1.398 . S
C831 C837 1.491 . S
C832 H823 0.950 . S
C832 C831 1.398 . S
C832 C833 1.391 . S
C833 H821 0.950 . S
C833 C829 1.393 . S
C833 C832 1.391 . S
C834 H824 0.950 . S
C834 C835 1.386 . S
C834 C836 1.391 . S
C835 C834 1.386 . S
C835 C839 1.393 . S
C836 H825 0.950 . S
C836 C834 1.391 . S
C836 C837 1.400 . S
C837 C831 1.491 . S
C837 C836 1.400 . S
C837 C838 1.398 . S
C838 H826 0.950 . S
C838 C837 1.398 . S
C838 C839 1.391 . S
C839 H827 0.950 . S
C839 C835 1.393 . S
C839 C838 1.391 . S
H840 C848 0.950 . S
H841 C853 0.950 . S
H842 C850 0.950 . S
H843 C852 0.950 . S
H844 C854 0.950 . S
H845 C856 0.950 . S
H846 C858 0.950 . S
H847 C859 0.950 . S
C848 H840 0.950 . S
C848 C849 1.386 . S
C848 C850 1.391 . S
C849 C848 1.386 . S
C849 C853 1.393 . S
C850 H842 0.950 . S
C850 C848 1.391 . S
C850 C851 1.400 . S
C851 C850 1.400 . S
C851 C852 1.398 . S
C851 C857 1.491 . S
C852 H843 0.950 . S
C852 C851 1.398 . S
C852 C853 1.391 . S
C853 H841 0.950 . S
C853 C849 1.393 . S
C853 C852 1.391 . S
C854 H844 0.950 . S
C854 C855 1.386 . S
C854 C856 1.391 . S
C855 C854 1.386 . S
C855 C859 1.393 . S
C856 H845 0.950 . S
C856 C854 1.391 . S
C856 C857 1.400 . S
C857 C851 1.491 . S
C857 C856 1.400 . S
C857 C858 1.398 . S
C858 H846 0.950 . S
C858 C857 1.398 . S
C858 C859 1.391 . S
C859 H847 0.950 . S
C859 C855 1.393 . S
C859 C858 1.391 . S
H860 C868 0.950 1_545 S
H861 C873 0.950 . S
H862 C870 0.950 1_545 S
H863 C872 0.950 . S
H864 C874 0.950 . S
H865 C876 0.950 . S
H866 C878 0.950 . S
H867 C879 0.950 . S
C868 H860 0.950 1_565 S
C868 C869 1.386 . S
C868 C870 1.391 . S
C869 C868 1.386 . S
C869 C873 1.393 . S
C870 H862 0.950 1_565 S
C870 C868 1.391 . S
C870 C871 1.400 . S
C871 C870 1.400 . S
C871 C872 1.398 . S
C871 C877 1.491 . S
C872 H863 0.950 . S
C872 C871 1.398 . S
C872 C873 1.391 . S
C873 H861 0.950 . S
C873 C869 1.393 . S
C873 C872 1.391 . S
C874 H864 0.950 . S
C874 C875 1.386 . S
C874 C876 1.391 . S
C875 C874 1.386 . S
C875 C879 1.393 1_565 S
C876 H865 0.950 . S
C876 C874 1.391 . S
C876 C877 1.400 . S
C877 C871 1.491 . S
C877 C876 1.400 . S
C877 C878 1.398 1_565 S
C878 H866 0.950 . S
C878 C877 1.398 1_545 S
C878 C879 1.391 . S
C879 H867 0.950 . S
C879 C875 1.393 1_545 S
C879 C878 1.391 . S
H880 C888 0.950 . S
H881 C893 0.950 . S
H882 C890 0.950 . S
H883 C892 0.950 . S
H884 C894 0.950 . S
H885 C896 0.950 . S
H886 C898 0.950 . S
H887 C899 0.950 . S
C888 H880 0.950 . S
C888 C889 1.386 . S
C888 C890 1.391 . S
C889 C888 1.386 . S
C889 C893 1.393 . S
C890 H882 0.950 . S
C890 C888 1.391 . S
C890 C891 1.400 . S
C891 C890 1.400 . S
C891 C892 1.398 . S
C891 C897 1.491 . S
C892 H883 0.950 . S
C892 C891 1.398 . S
C892 C893 1.391 . S
C893 H881 0.950 . S
C893 C889 1.393 . S
C893 C892 1.391 . S
C894 H884 0.950 . S
C894 C895 1.386 . S
C894 C896 1.391 . S
C895 C894 1.386 . S
C895 C899 1.393 . S
C896 H885 0.950 . S
C896 C894 1.391 . S
C896 C897 1.400 . S
C897 C891 1.491 . S
C897 C896 1.400 . S
C897 C898 1.398 . S
C898 H886 0.950 . S
C898 C897 1.398 . S
C898 C899 1.391 . S
C899 H887 0.950 . S
C899 C895 1.393 . S
C899 C898 1.391 . S
H900 C908 0.950 . S
H901 C913 0.950 . S
H902 C910 0.950 . S
H903 C912 0.950 . S
H904 C914 0.950 . S
H905 C916 0.950 . S
H906 C918 0.950 . S
H907 C919 0.950 . S
C908 H900 0.950 . S
C908 C909 1.386 . S
C908 C910 1.391 . S
C909 C908 1.386 . S
C909 C913 1.393 . S
C910 H902 0.950 . S
C910 C908 1.391 . S
C910 C911 1.400 . S
C911 C910 1.400 . S
C911 C912 1.398 . S
C911 C917 1.491 . S
C912 H903 0.950 . S
C912 C911 1.398 . S
C912 C913 1.391 . S
C913 H901 0.950 . S
C913 C909 1.393 . S
C913 C912 1.391 . S
C914 H904 0.950 . S
C914 C915 1.386 . S
C914 C916 1.391 . S
C915 C914 1.386 . S
C915 C919 1.393 . S
C916 H905 0.950 . S
C916 C914 1.391 . S
C916 C917 1.400 . S
C917 C911 1.491 . S
C917 C916 1.400 . S
C917 C918 1.398 . S
C918 H906 0.950 . S
C918 C917 1.398 . S
C918 C919 1.391 . S
C919 H907 0.950 . S
C919 C915 1.393 . S
C919 C918 1.391 . S
C449 N80 1.891 . S
C455 C179 1.923 . S
C475 C263 1.947 . S
C469 N93 1.925 . S
C495 C339 1.938 . S
C489 N54 2.012 . S
C515 C423 1.913 . S
C509 N67 1.990 . S
C535 C170 1.913 1_565 S
C529 N28 1.906 . S
C549 N41 1.933 . S
C555 C254 1.948 . S
C569 N2 2.023 . S
C575 C328 1.937 . S
C589 N15 2.012 . S
C595 C412 1.927 . S
C615 C167 0.623 1_455 S
C609 N70 0.558 . S
C635 C251 0.541 1_545 S
C629 N83 0.572 . S
C655 C344 0.566 . S
C649 N96 0.542 . S
C669 N57 0.563 . S
C675 C428 0.537 . S
C689 N18 0.591 . S
C695 C176 0.582 . S
C715 C260 0.557 . S
C709 N31 0.567 . S
C735 C335 0.572 . S
C729 N44 0.532 . S
C749 N5 0.554 . S
C755 C419 0.597 . S
C769 N66 2.093 . S
C775 C160 2.034 . S
C789 N79 2.055 . S
C795 C244 2.013 . S
C815 C338 2.017 . S
C809 N92 1.961 . S
C835 C422 2.045 . S
C829 N53 1.997 . S
C849 N14 2.092 . S
C855 C171 2.032 . S
C875 C255 2.008 . S
C869 N27 2.062 . S
C895 C347 2.012 . S
C889 N40 1.984 . S
C909 N1 1.994 . S
C915 C431 2.046 . S
