# Generated by pormake.
# Topology zzz, (3,6)-cn, num edge types: 1
# Building blocks:
#     Node 0, Type 0, BuildingBlock: KAKCAD_clean_linker_0, # of connection points: 3
#     Node 1, Type 0, BuildingBlock: KAKCAD_clean_linker_0, # of connection points: 3
#     Node 2, Type 0, BuildingBlock: KAKCAD_clean_linker_0, # of connection points: 3
#     Node 3, Type 0, BuildingBlock: KAKCAD_clean_linker_0, # of connection points: 3
#     Node 4, Type 0, BuildingBlock: KAKCAD_clean_linker_0, # of connection points: 3
#     Node 5, Type 0, BuildingBlock: KAKCAD_clean_linker_0, # of connection points: 3
#     Node 6, Type 0, BuildingBlock: KAKCAD_clean_linker_0, # of connection points: 3
#     Node 7, Type 0, BuildingBlock: KAKCAD_clean_linker_0, # of connection points: 3
#     Node 8, Type 1, BuildingBlock: GEDQOX_clean_sbu_0, # of connection points: 6
#     Node 9, Type 1, BuildingBlock: GEDQOX_clean_sbu_0, # of connection points: 6
#     Node 10, Type 1, BuildingBlock: GEDQOX_clean_sbu_0, # of connection points: 6
#     Node 11, Type 1, BuildingBlock: GEDQOX_clean_sbu_0, # of connection points: 6
#     Edge 12, Type (0, 1), BuildingBlock: ZUJKAS_clean_linker_0, # of connection points: 2
#     Edge 13, Type (0, 1), BuildingBlock: ZUJKAS_clean_linker_0, # of connection points: 2
#     Edge 14, Type (0, 1), BuildingBlock: ZUJKAS_clean_linker_0, # of connection points: 2
#     Edge 15, Type (0, 1), BuildingBlock: ZUJKAS_clean_linker_0, # of connection points: 2
#     Edge 16, Type (0, 1), BuildingBlock: ZUJKAS_clean_linker_0, # of connection points: 2
#     Edge 17, Type (0, 1), BuildingBlock: ZUJKAS_clean_linker_0, # of connection points: 2
#     Edge 18, Type (0, 1), BuildingBlock: ZUJKAS_clean_linker_0, # of connection points: 2
#     Edge 19, Type (0, 1), BuildingBlock: ZUJKAS_clean_linker_0, # of connection points: 2
#     Edge 20, Type (0, 1), BuildingBlock: ZUJKAS_clean_linker_0, # of connection points: 2
#     Edge 21, Type (0, 1), BuildingBlock: ZUJKAS_clean_linker_0, # of connection points: 2
#     Edge 22, Type (0, 1), BuildingBlock: ZUJKAS_clean_linker_0, # of connection points: 2
#     Edge 23, Type (0, 1), BuildingBlock: ZUJKAS_clean_linker_0, # of connection points: 2
#     Edge 24, Type (0, 1), BuildingBlock: ZUJKAS_clean_linker_0, # of connection points: 2
#     Edge 25, Type (0, 1), BuildingBlock: ZUJKAS_clean_linker_0, # of connection points: 2
#     Edge 26, Type (0, 1), BuildingBlock: ZUJKAS_clean_linker_0, # of connection points: 2
#     Edge 27, Type (0, 1), BuildingBlock: ZUJKAS_clean_linker_0, # of connection points: 2
#     Edge 28, Type (0, 1), BuildingBlock: ZUJKAS_clean_linker_0, # of connection points: 2
#     Edge 29, Type (0, 1), BuildingBlock: ZUJKAS_clean_linker_0, # of connection points: 2
#     Edge 30, Type (0, 1), BuildingBlock: ZUJKAS_clean_linker_0, # of connection points: 2
#     Edge 31, Type (0, 1), BuildingBlock: ZUJKAS_clean_linker_0, # of connection points: 2
#     Edge 32, Type (0, 1), BuildingBlock: ZUJKAS_clean_linker_0, # of connection points: 2
#     Edge 33, Type (0, 1), BuildingBlock: ZUJKAS_clean_linker_0, # of connection points: 2
#     Edge 34, Type (0, 1), BuildingBlock: ZUJKAS_clean_linker_0, # of connection points: 2
#     Edge 35, Type (0, 1), BuildingBlock: ZUJKAS_clean_linker_0, # of connection points: 2
# Relax obj value: 0.301
# Max RMSD: 0.252
# Mean RMSD: 0.203
data_MOF--net-zzz--node1-GEDQOX_clean_sbu_0--node2-KAKCAD_clean_linker_0--edge1-ZUJKAS_clean_linker_0
_symmetry_space_group_name_H-M    P1
_symmetry_Int_Tables_number       1
_symmetry_cell_setting            triclinic
loop_
_symmetry_equiv_pos_as_xyz
'x, y, z'
_cell_length_a     77.809798
_cell_length_b     72.399935
_cell_length_c     26.334183
_cell_angle_alpha  84.051245
_cell_angle_beta   91.805723
_cell_angle_gamma 100.79255
loop_
_atom_site_label
_atom_site_type_symbol
_atom_site_fract_x
_atom_site_fract_y
_atom_site_fract_z
_atom_type_partial_charge
C0 C 0.80154 0.41557 0.96292 0.0
C1 C 0.81236 0.40278 0.9817 0.0
C2 C 0.78737 0.41793 0.99126 0.0
C3 C 0.78378 0.40766 0.03914 0.0
C4 C 0.79384 0.39398 0.05642 0.0
C5 C 0.80793 0.3915 0.02788 0.0
C6 C 0.77114 0.41296 0.07341 0.0
C7 C 0.75485 0.41654 0.05491 0.0
C8 C 0.74386 0.42394 0.08567 0.0
C9 C 0.74936 0.42762 0.13571 0.0
C10 C 0.76561 0.42403 0.15481 0.0
C11 C 0.77629 0.41653 0.1235 0.0
C12 C 0.77246 0.42977 0.20528 0.0
C13 C 0.77133 0.44769 0.21949 0.0
C14 C 0.7818 0.4182 0.2371 0.0
C15 C 0.79066 0.4248 0.28052 0.0
C16 C 0.79037 0.44314 0.29316 0.0
C17 C 0.72711 0.42877 0.0646 0.0
C18 C 0.72618 0.43728 0.01431 0.0
C19 C 0.71201 0.42523 0.09469 0.0
C20 C 0.6964 0.43016 0.07503 0.0
C21 C 0.69552 0.4387 0.02479 0.0
C22 C 0.71057 0.44214 0.99462 0.0
C23 C 0.7802 0.4543 0.26295 0.0
H24 H 0.80464 0.42469 0.92792 0.0
H25 H 0.77996 0.42871 0.97721 0.0
H26 H 0.7912 0.38571 0.09296 0.0
H27 H 0.81576 0.38125 0.04297 0.0
H28 H 0.75083 0.41368 0.01628 0.0
H29 H 0.78922 0.41464 0.137 0.0
H30 H 0.74123 0.43378 0.15933 0.0
H31 H 0.76434 0.457 0.19563 0.0
H32 H 0.78276 0.40425 0.22741 0.0
H33 H 0.79844 0.41586 0.30268 0.0
H34 H 0.73764 0.44055 0.99039 0.0
H35 H 0.71222 0.41848 0.13332 0.0
H36 H 0.77951 0.46839 0.27207 0.0
H37 H 0.7104 0.44897 0.95607 0.0
H38 H 0.68496 0.42711 0.09901 0.0
C39 C 0.90707 0.77168 0.03601 0.0
C40 C 0.91372 0.79015 0.04796 0.0
C41 C 0.90708 0.75629 0.07301 0.0
C42 C 0.91409 0.75914 0.1222 0.0
C43 C 0.92041 0.77776 0.13386 0.0
C44 C 0.92006 0.79301 0.09749 0.0
C45 C 0.91637 0.74303 0.16029 0.0
C46 C 0.9214 0.72682 0.14507 0.0
C47 C 0.92679 0.71322 0.18123 0.0
C48 C 0.92783 0.71648 0.23329 0.0
C49 C 0.92236 0.73241 0.24894 0.0
C50 C 0.91593 0.74501 0.21257 0.0
C51 C 0.92581 0.73839 0.3009 0.0
C52 C 0.91209 0.74261 0.32831 0.0
C53 C 0.94314 0.74516 0.31573 0.0
C54 C 0.94668 0.75771 0.35339 0.0
C55 C 0.93292 0.76361 0.37703 0.0
C56 C 0.93227 0.69641 0.16315 0.0
C57 C 0.92282 0.6872 0.12366 0.0
C58 C 0.94745 0.69014 0.18257 0.0
C59 C 0.95333 0.67543 0.16175 0.0
C60 C 0.94416 0.66665 0.12106 0.0
C61 C 0.92871 0.67259 0.10277 0.0
C62 C 0.91561 0.75499 0.36627 0.0
H63 H 0.90217 0.76915 0.99791 0.0
H64 H 0.90196 0.74219 0.06275 0.0
H65 H 0.9265 0.78066 0.17042 0.0
H66 H 0.92572 0.80704 0.10741 0.0
H67 H 0.92218 0.72529 0.10477 0.0
H68 H 0.91182 0.7573 0.22507 0.0
H69 H 0.93286 0.70677 0.26145 0.0
H70 H 0.89862 0.73765 0.31724 0.0
H71 H 0.95393 0.74237 0.29454 0.0
H72 H 0.96017 0.76406 0.36048 0.0
H73 H 0.91096 0.69151 0.10821 0.0
H74 H 0.95511 0.69699 0.21271 0.0
H75 H 0.90471 0.75881 0.38467 0.0
H76 H 0.92138 0.66635 0.0712 0.0
H77 H 0.96513 0.67103 0.17733 0.0
C78 C 0.7197 0.05087 0.91974 0.0
C79 C 0.70965 0.06349 0.93531 0.0
C80 C 0.73039 0.04232 0.9547 0.0
C81 C 0.73143 0.04633 0.00594 0.0
C82 C 0.72235 0.05995 0.02059 0.0
C83 C 0.71154 0.06837 0.98576 0.0
C84 C 0.74097 0.03545 0.04457 0.0
C85 C 0.75673 0.03031 0.03247 0.0
C86 C 0.76527 0.01911 0.06786 0.0
C87 C 0.75801 0.01322 0.11647 0.0
C88 C 0.74227 0.01839 0.12936 0.0
C89 C 0.73386 0.0294 0.0931 0.0
C90 C 0.73401 0.012 0.17977 0.0
C91 C 0.73142 0.9929 0.19935 0.0
C92 C 0.72719 0.02481 0.20634 0.0
C93 C 0.71729 0.01856 0.25016 0.0
C94 C 0.71394 0.99931 0.26852 0.0
C95 C 0.78191 0.01403 0.05332 0.0
C96 C 0.78338 0.00772 0.00522 0.0
C97 C 0.79679 0.01705 0.08511 0.0
C98 C 0.81304 0.01484 0.06783 0.0
C99 C 0.81466 0.00942 0.01864 0.0
C100 C 0.79956 1.00541 0.98809 0.0
C101 C 0.7214 0.98659 0.24321 0.0
H102 H 0.71877 0.04702 0.88095 0.0
H103 H 0.73716 0.03187 0.94204 0.0
H104 H 0.72317 0.06368 0.05949 0.0
H105 H 0.70392 0.07791 0.99928 0.0
H106 H 0.76254 0.03529 0.99553 0.0
H107 H 0.72135 0.03269 0.10222 0.0
H108 H 0.76454 1.00461 0.14402 0.0
H109 H 0.73646 0.9827 0.1795 0.0
H110 H 0.7291 0.03965 0.19232 0.0
H111 H 0.71162 0.02873 0.2683 0.0
H112 H 0.77206 1.0051 0.98014 0.0
H113 H 0.79602 0.02196 0.1223 0.0
H114 H 0.7192 0.9717 0.25672 0.0
H115 H 0.80036 1.00134 0.94992 0.0
H116 H 0.82442 0.01779 0.0925 0.0
C117 C 0.55915 0.72801 0.46181 0.0
C118 C 0.57032 0.72608 0.50431 0.0
C119 C 0.56312 0.74325 0.42437 0.0
C120 C 0.57826 0.757 0.42873 0.0
C121 C 0.58894 0.75579 0.4724 0.0
C122 C 0.58502 0.74044 0.5099 0.0
C123 C 0.5845 0.77008 0.38345 0.0
C124 C 0.58383 0.78947 0.37992 0.0
C125 C 0.58921 0.8011 0.33481 0.0
C126 C 0.59526 0.79318 0.29389 0.0
C127 C 0.59524 0.77376 0.29618 0.0
C128 C 0.5901 0.76239 0.34152 0.0
C129 C 0.59822 0.76492 0.24947 0.0
C130 C 0.59115 0.77107 0.20228 0.0
C131 C 0.60633 0.74904 0.25251 0.0
C132 C 0.60607 0.73865 0.21053 0.0
C133 C 0.5978 0.74403 0.16457 0.0
C134 C 0.58647 0.82089 0.32575 0.0
C135 C 0.56947 0.82479 0.32616 0.0
C136 C 0.60005 0.83503 0.30518 0.0
C137 C 0.59643 0.85203 0.28118 0.0
C138 C 0.57914 0.85522 0.27697 0.0
C139 C 0.56582 0.84181 0.30192 0.0
C140 C 0.59106 0.76082 0.16026 0.0
H141 H 0.54786 0.71716 0.45578 0.0
H142 H 0.55488 0.74376 0.39051 0.0
H143 H 0.60083 0.76611 0.47606 0.0
H144 H 0.5938 0.73949 0.5424 0.0
H145 H 0.57877 0.79532 0.41132 0.0
H146 H 0.58962 0.74726 0.34368 0.0
H147 H 0.59905 0.80206 0.25885 0.0
H148 H 0.58466 0.78314 0.1984 0.0
H149 H 0.61219 0.74413 0.288 0.0
H150 H 0.61135 0.72575 0.21523 0.0
H151 H 0.55873 0.81402 0.34117 0.0
H152 H 0.61328 0.83236 0.30445 0.0
H153 H 0.58488 0.76552 0.12508 0.0
H154 H 0.55235 0.84378 0.29933 0.0
H155 H 0.60706 0.86225 0.26342 0.0
C156 C 0.21936 0.62221 0.5716 0.0
C157 C 0.21219 0.60918 0.61237 0.0
C158 C 0.23333 0.6189 0.54386 0.0
C159 C 0.24069 0.60276 0.55712 0.0
C160 C 0.23456 0.59057 0.60024 0.0
C161 C 0.22038 0.59365 0.62734 0.0
C162 C 0.25281 0.59705 0.52219 0.0
C163 C 0.26852 0.59181 0.54037 0.0
C164 C 0.27877 0.58387 0.50857 0.0
C165 C 0.27289 0.58096 0.45836 0.0
C166 C 0.25712 0.58605 0.4399 0.0
C167 C 0.24737 0.59444 0.47179 0.0
C168 C 0.2496 0.58076 0.38979 0.0
C169 C 0.24163 0.59346 0.35744 0.0
C170 C 0.24851 0.56222 0.37689 0.0
C171 C 0.23871 0.55617 0.33428 0.0
C172 C 0.22988 0.56857 0.30346 0.0
C173 C 0.29507 0.57771 0.52879 0.0
C174 C 0.3067 0.58894 0.56013 0.0
C175 C 0.29894 0.56035 0.51782 0.0
C176 C 0.31402 0.55431 0.53791 0.0
C177 C 0.3256 0.56549 0.56948 0.0
C178 C 0.3218 0.58291 0.58019 0.0
C179 C 0.23195 0.58746 0.31463 0.0
H180 H 0.21376 0.6346 0.5597 0.0
H181 H 0.23794 0.62855 0.51082 0.0
H182 H 0.2399 0.57791 0.61081 0.0
H183 H 0.2152 0.58309 0.65786 0.0
H184 H 0.27242 0.59334 0.57982 0.0
H185 H 0.23481 0.59766 0.45863 0.0
H186 H 0.28052 0.57462 0.43365 0.0
H187 H 0.24244 0.60789 0.3662 0.0
H188 H 0.25434 0.55206 0.40144 0.0
H189 H 0.23729 0.54149 0.32724 0.0
H190 H 0.30417 0.60246 0.56899 0.0
H191 H 0.29015 0.55124 0.49435 0.0
H192 H 0.22567 0.5975 0.29108 0.0
H193 H 0.33037 0.59179 0.60472 0.0
H194 H 0.31666 0.54093 0.52837 0.0
C195 C 0.10297 0.24111 0.56831 0.0
C196 C 0.11283 0.22771 0.55689 0.0
C197 C 0.1024 0.25714 0.53441 0.0
C198 C 0.11171 0.26007 0.48853 0.0
C199 C 0.12313 0.2478 0.48007 0.0
C200 C 0.12366 0.23173 0.51393 0.0
C201 C 0.10695 0.27347 0.44628 0.0
C202 C 0.10346 0.29112 0.45557 0.0
C203 C 0.09555 0.30211 0.41782 0.0
C204 C 0.09108 0.29519 0.37005 0.0
C205 C 0.09516 0.27783 0.35988 0.0
C206 C 0.10318 0.26723 0.39785 0.0
C207 C 0.08977 0.26917 0.31212 0.0
C208 C 0.07228 0.26053 0.30506 0.0
C209 C 0.10261 0.26547 0.28041 0.0
C210 C 0.09824 0.25236 0.24454 0.0
C211 C 0.08097 0.24239 0.24034 0.0
C212 C 0.09098 0.32006 0.4308 0.0
C213 C 0.07391 0.32361 0.42288 0.0
C214 C 0.10325 0.33281 0.45635 0.0
C215 C 0.09835 0.34827 0.47578 0.0
C216 C 0.08103 0.35131 0.47045 0.0
C217 C 0.06897 0.33906 0.44262 0.0
C218 C 0.0679 0.24724 0.26951 0.0
H219 H 0.0944 0.23838 0.60093 0.0
H220 H 0.0934 0.26623 0.54198 0.0
H221 H 0.13072 0.24991 0.44547 0.0
H222 H 0.13164 0.2218 0.5047 0.0
H223 H 0.10618 0.29591 0.49316 0.0
H224 H 0.10528 0.25335 0.39061 0.0
H225 H 0.08452 0.30322 0.3411 0.0
H226 H 0.06223 0.26289 0.32992 0.0
H227 H 0.11622 0.27183 0.28569 0.0
H228 H 0.10858 0.24935 0.2219 0.0
H229 H 0.06415 0.31391 0.40377 0.0
H230 H 0.11656 0.33054 0.46245 0.0
H231 H 0.0545 0.2398 0.26766 0.0
H232 H 0.05549 0.34088 0.43806 0.0
H233 H 0.1081 0.35766 0.49585 0.0
C234 C 0.30162 0.95904 0.59321 0.0
C235 C 0.31789 0.96872 0.60947 0.0
C236 C 0.29066 0.96855 0.56141 0.0
C237 C 0.29593 0.98782 0.54477 0.0
C238 C 0.31215 0.99749 0.56131 0.0
C239 C 0.32298 0.98806 0.5934 0.0
C240 C 0.28473 0.99791 0.50974 0.0
C241 C 0.26692 0.99633 0.51955 0.0
C242 C 0.25637 0.00643 0.48745 0.0
C243 C 0.2638 0.018 0.44439 0.0
C244 C 0.28167 0.01957 0.43396 0.0
C245 C 0.29199 0.00952 0.46694 0.0
C246 C 0.28987 0.03115 0.38822 0.0
C247 C 0.28282 0.0284 0.33925 0.0
C248 C 0.30603 0.04333 0.39297 0.0
C249 C 0.3155 0.05164 0.34972 0.0
C250 C 0.30906 0.0479 0.30063 0.0
C251 C 0.23786 1.00532 0.50121 0.0
C252 C 0.2274 0.98772 0.51632 0.0
C253 C 0.23112 0.02183 0.50461 0.0
C254 C 0.21458 0.02078 0.52538 0.0
C255 C 0.20445 1.00318 0.54289 0.0
C256 C 0.21087 0.98665 0.53675 0.0
C257 C 0.29237 0.03663 0.2958 0.0
H258 H 0.29739 0.94414 0.60511 0.0
H259 H 0.27823 0.96078 0.54897 0.0
H260 H 0.31645 0.01238 0.54943 0.0
H261 H 0.33556 0.99584 0.60472 0.0
H262 H 0.2614 0.98776 0.55345 0.0
H263 H 0.3057 0.01042 0.45862 0.0
H264 H 0.25576 0.0258 0.41933 0.0
H265 H 0.2704 0.01901 0.33456 0.0
H266 H 0.3117 0.04578 0.43034 0.0
H267 H 0.32836 0.06009 0.35498 0.0
H268 H 0.2322 0.97475 0.51349 0.0
H269 H 0.23898 0.03559 0.49366 0.0
H270 H 0.28697 0.03365 0.25848 0.0
H271 H 0.20324 0.97285 0.54859 0.0
H272 H 0.21007 0.03379 0.52979 0.0
C273 C 0.43303 0.26864 0.10273 0.0
C274 C 0.45056 0.27684 0.09228 0.0
C275 C 0.42891 0.25389 0.14162 0.0
C276 C 0.44223 0.24697 0.17076 0.0
C277 C 0.45974 0.25404 0.15735 0.0
C278 C 0.46386 0.26885 0.1186 0.0
C279 C 0.43815 0.23551 0.22055 0.0
C280 C 0.44639 0.22012 0.2368 0.0
C281 C 0.44467 0.21186 0.28751 0.0
C282 C 0.43514 0.2193 0.3221 0.0
C283 C 0.42686 0.23464 0.30676 0.0
C284 C 0.42788 0.24208 0.25526 0.0
C285 C 0.41959 0.24454 0.34584 0.0
C286 C 0.41272 0.23469 0.39201 0.0
C287 C 0.42159 0.26439 0.34009 0.0
C288 C 0.41799 0.27411 0.38026 0.0
C289 C 0.41273 0.26432 0.42757 0.0
C290 C 0.45386 0.19645 0.30726 0.0
C291 C 0.44705 0.17771 0.29819 0.0
C292 C 0.46749 0.20007 0.34305 0.0
C293 C 0.4736 0.18518 0.37141 0.0
C294 C 0.46606 0.16632 0.36501 0.0
C295 C 0.45312 0.16274 0.3268 0.0
C296 C 0.40963 0.24451 0.43284 0.0
H297 H 0.42246 0.27445 0.08333 0.0
H298 H 0.41529 0.24867 0.15103 0.0
H299 H 0.47029 0.24912 0.17932 0.0
H300 H 0.4775 0.27465 0.11085 0.0
H301 H 0.45454 0.21505 0.21076 0.0
H302 H 0.42164 0.25397 0.24273 0.0
H303 H 0.43501 0.21357 0.36179 0.0
H304 H 0.4105 0.21941 0.39759 0.0
H305 H 0.42715 0.27269 0.306 0.0
H306 H 0.42076 0.28942 0.37559 0.0
H307 H 0.43631 0.17464 0.27133 0.0
H308 H 0.47282 0.21444 0.35085 0.0
H309 H 0.40556 0.2367 0.46913 0.0
H310 H 0.44697 0.1484 0.32106 0.0
H311 H 0.48383 0.18845 0.3997 0.0
Nd312 Nd 0.00506 1.0027 0.73596 0.0
Nd313 Nd 0.01686 0.01058 0.8411 0.0
C314 C 0.99118 0.9968 0.64483 0.0
C315 C 0.98397 0.9791 0.62223 0.0
C316 C 0.97489 0.9634 0.65254 0.0
C317 C 0.97002 0.94594 0.63288 0.0
C318 C 0.97416 0.94376 0.58248 0.0
C319 C 0.98285 0.95965 0.55181 0.0
C320 C 0.98772 0.97714 0.57155 0.0
C321 C 0.03706 0.99325 0.7622 0.0
C322 C 0.9973 0.96782 0.82174 0.0
C323 C 0.0301 0.01625 0.93311 0.0
C324 C 0.03618 0.03373 0.95797 0.0
C325 C 0.04497 0.05016 0.92992 0.0
C326 C 0.04906 0.0672 0.9521 0.0
C327 C 0.04433 0.06825 1.00274 0.0
C328 C 0.03582 0.05165 0.03102 0.0
C329 C 0.03178 0.03458 0.00879 0.0
C330 C 0.98476 0.01982 0.81464 0.0
C331 C 0.02506 0.0454 0.75483 0.0
O332 O 0.98239 1.00104 0.6822 0.0
O333 O 0.00802 0.99959 0.65391 0.0
O334 O 0.02465 0.98256 0.73917 0.0
O335 O 0.03217 0.00814 0.77184 0.0
O336 O 0.99181 0.97517 0.77792 0.0
O337 O 0.00888 0.97796 0.85052 0.0
O338 O 0.03944 0.01333 0.89524 0.0
O339 O 0.0133 0.01239 0.92362 0.0
O340 O 0.99715 0.03063 0.83739 0.0
O341 O 0.98977 1.00497 0.80536 0.0
O342 O 0.03008 0.03826 0.79953 0.0
O343 O 0.01372 0.0352 0.72557 0.0
H344 H 0.972 0.96447 0.69195 0.0
H345 H 0.96356 0.93398 0.65782 0.0
H346 H 0.98604 0.95853 0.51264 0.0
H347 H 0.99483 0.98902 0.54764 0.0
H348 H 0.04841 0.04994 0.89049 0.0
H349 H 0.05586 0.07958 0.92939 0.0
H350 H 0.03178 0.05195 0.06985 0.0
H351 H 0.02479 0.02213 0.0309 0.0
Nd352 Nd 0.51874 0.98532 0.77743 0.0
Nd353 Nd 0.50318 0.01149 0.83703 0.0
C354 C 0.53367 0.96009 0.73905 0.0
C355 C 0.54785 0.96104 0.70231 0.0
C356 C 0.56158 0.95126 0.71508 0.0
C357 C 0.57555 0.95278 0.68171 0.0
C358 C 0.57602 0.96409 0.63475 0.0
C359 C 0.56208 0.97365 0.62184 0.0
C360 C 0.54821 0.97224 0.65532 0.0
C361 C 0.51039 0.01604 0.71816 0.0
C362 C 0.54289 0.02481 0.80365 0.0
C363 C 0.48399 0.03098 0.8824 0.0
C364 C 0.47368 0.04151 0.91079 0.0
C365 C 0.46084 0.0505 0.88583 0.0
C366 C 0.44861 0.05695 0.9142 0.0
C367 C 0.44915 0.05463 0.96798 0.0
C368 C 0.46292 0.04692 0.99248 0.0
C369 C 0.47494 0.04027 0.96421 0.0
C370 C 0.52288 0.98893 0.89467 0.0
C371 C 0.47758 0.97316 0.80287 0.0
O372 O 0.53842 0.96659 0.783 0.0
O373 O 0.51911 0.96492 0.72071 0.0
O374 O 0.52405 0.0088 0.71137 0.0
O375 O 0.50114 0.00658 0.75379 0.0
O376 O 0.54258 0.00663 0.80073 0.0
O377 O 0.52842 0.03128 0.81015 0.0
O378 O 0.49124 0.03739 0.83816 0.0
O379 O 0.48729 0.01468 0.90211 0.0
O380 O 0.52361 0.00668 0.89964 0.0
O381 O 0.51199 0.98359 0.86026 0.0
O382 O 0.47883 0.9898 0.82015 0.0
O383 O 0.49133 0.96737 0.78677 0.0
H384 H 0.56164 0.94266 0.75127 0.0
H385 H 0.58615 0.94541 0.69324 0.0
H386 H 0.56182 0.98223 0.5857 0.0
H387 H 0.53785 0.98004 0.64449 0.0
H388 H 0.45957 0.05145 0.84459 0.0
H389 H 0.43817 0.06274 0.89401 0.0
H390 H 0.46406 0.04539 0.03373 0.0
H391 H 0.48482 0.03348 0.98427 0.0
Nd392 Nd 0.50312 0.50757 0.83687 0.0
Nd393 Nd 0.51763 0.4938 0.74839 0.0
C394 C 0.49099 0.52882 0.89721 0.0
C395 C 0.50007 0.54713 0.912 0.0
C396 C 0.49107 0.55952 0.9329 0.0
C397 C 0.50006 0.57724 0.9446 0.0
C398 C 0.51812 0.58276 0.93513 0.0
C399 C 0.52698 0.57022 0.91406 0.0
C400 C 0.51804 0.5526 0.90261 0.0
C401 C 0.53423 0.49563 0.85791 0.0
C402 C 0.52843 0.53779 0.7543 0.0
C403 C 0.52961 0.47207 0.68945 0.0
C404 C 0.52008 0.45379 0.67534 0.0
C405 C 0.52889 0.43918 0.66717 0.0
C406 C 0.51937 0.42124 0.65921 0.0
C407 C 0.50094 0.41771 0.65968 0.0
C408 C 0.49227 0.43252 0.66756 0.0
C409 C 0.50172 0.45029 0.6756 0.0
C410 C 0.48643 0.50564 0.72743 0.0
C411 C 0.49218 0.46359 0.83067 0.0
O412 O 0.48674 0.52872 0.84879 0.0
O413 O 0.4982 0.51444 0.91448 0.0
O414 O 0.5213 0.49247 0.88931 0.0
O415 O 0.53092 0.50553 0.81786 0.0
O416 O 0.51559 0.53484 0.78751 0.0
O417 O 0.53408 0.52349 0.73754 0.0
O418 O 0.53378 0.47229 0.7379 0.0
O419 O 0.52301 0.48679 0.67123 0.0
O420 O 0.4993 0.50869 0.69577 0.0
O421 O 0.48983 0.49577 0.76748 0.0
O422 O 0.50485 0.46649 0.79696 0.0
O423 O 0.48671 0.47788 0.84802 0.0
H424 H 0.47715 0.55556 0.93984 0.0
H425 H 0.49288 0.58669 0.96049 0.0
H426 H 0.54091 0.57388 0.9071 0.0
H427 H 0.5252 0.54322 0.88625 0.0
H428 H 0.54305 0.44153 0.66793 0.0
H429 H 0.52643 0.41008 0.65361 0.0
H430 H 0.47811 0.43044 0.66721 0.0
H431 H 0.49463 0.46127 0.6829 0.0
Nd432 Nd 0.00257 0.52075 0.74989 0.0
Nd433 Nd 0.02265 0.49712 0.83444 0.0
C434 C 0.97919 0.53749 0.69788 0.0
C435 C 0.96277 0.53027 0.67155 0.0
C436 C 0.95159 0.54254 0.65283 0.0
C437 C 0.93592 0.53558 0.6279 0.0
C438 C 0.93118 0.5162 0.62152 0.0
C439 C 0.94245 0.50397 0.64076 0.0
C440 C 0.9581 0.51095 0.66546 0.0
C441 C 0.02085 0.49584 0.7148 0.0
C442 C 0.98167 0.48043 0.81106 0.0
C443 C 0.04533 0.47719 0.87653 0.0
C444 C 0.06108 0.48282 0.90761 0.0
C445 C 0.07279 0.47048 0.91995 0.0
C446 C 0.08806 0.47632 0.94818 0.0
C447 C 0.09182 0.49462 0.96437 0.0
C448 C 0.07991 0.50686 0.95187 0.0
C449 C 0.06475 0.50104 0.92362 0.0
C450 C 0.01119 0.52598 0.87692 0.0
C451 C 0.04214 0.53845 0.77821 0.0
O452 O 0.97906 0.53402 0.74766 0.0
O453 O 0.99345 0.5345 0.67764 0.0
O454 O 0.01936 0.51189 0.68965 0.0
O455 O 0.012 0.493 0.75508 0.0
O456 O 0.9813 0.49546 0.778 0.0
O457 O 0.99598 0.47731 0.83642 0.0
O458 O 0.04628 0.48459 0.82884 0.0
O459 O 0.03042 0.4777 0.89786 0.0
O460 O 0.0194 0.51402 0.90295 0.0
O461 O 0.00948 0.5219 0.83166 0.0
O462 O 0.04364 0.52135 0.79898 0.0
O463 O 0.02694 0.54285 0.76283 0.0
H464 H 0.95497 0.55749 0.65748 0.0
H465 H 0.92745 0.54533 0.61402 0.0
H466 H 0.93933 0.48903 0.63589 0.0
H467 H 0.96664 0.50129 0.67954 0.0
H468 H 0.07022 0.45643 0.90744 0.0
H469 H 0.09703 0.46661 0.95663 0.0
H470 H 0.0822 0.52091 0.96436 0.0
H471 H 0.05588 0.51081 0.91411 0.0
H472 H 0.19234 0.97982 0.62757 0.0
H473 H 0.16459 0.97732 0.67084 0.0
H474 H 0.15123 0.02201 0.56445 0.0
H475 H 0.17871 0.02411 0.51955 0.0
H476 H 0.15125 1.00375 0.7184 0.0
H477 H 0.10882 0.97971 0.55567 0.0
H478 H 0.13209 0.98015 0.55727 0.0
H479 H 0.12375 1.00156 0.54044 0.0
C480 C 0.1834 0.98894 0.61281 0.0
C481 C 0.18765 1.00199 0.56958 0.0
C482 C 0.16762 0.98761 0.63796 0.0
C483 C 0.15575 0.99928 0.62044 0.0
C484 C 0.16008 0.01263 0.57804 0.0
H485 H 0.06568 0.0209 0.77311 0.0
H486 H 0.09536 0.0214 0.74441 0.0
C487 C 0.17586 0.01394 0.55272 0.0
C488 C 0.13879 0.99735 0.64648 0.0
H489 H 0.09463 0.98744 0.62681 0.0
C490 C 0.13885 1.00012 0.6985 0.0
C491 C 0.12266 0.9923 0.62063 0.0
C492 C 0.12175 0.98807 0.56556 0.0
C493 C 0.12316 0.99832 0.72515 0.0
C494 C 0.10703 0.99393 0.69878 0.0
C495 C 0.10701 0.99087 0.64697 0.0
C496 C 0.08992 0.99272 0.72342 0.0
C497 C 0.12402 1.00087 0.78136 0.0
C498 C 0.07703 0.97638 0.72176 0.0
C499 C 0.06002 0.97614 0.73758 0.0
C500 C 0.0556 0.99226 0.75528 0.0
C501 C 0.06875 0.00824 0.75984 0.0
C502 C 0.08574 0.00851 0.74363 0.0
H503 H 0.13672 0.9985 0.79874 0.0
H504 H 0.1227 0.01556 0.78646 0.0
H505 H 0.11327 0.99106 0.80229 0.0
H506 H 0.07998 0.96403 0.70633 0.0
H507 H 0.05015 0.96363 0.73379 0.0
H508 H 0.47113 0.16562 0.46823 0.0
H509 H 0.47839 0.14001 0.52775 0.0
H510 H 0.47823 0.10556 0.4036 0.0
H511 H 0.47101 0.13128 0.34334 0.0
H512 H 0.46005 0.08633 0.48975 0.0
H513 H 0.52594 0.12365 0.54392 0.0
H514 H 0.50881 0.13662 0.55146 0.0
H515 H 0.51402 0.13174 0.48874 0.0
C516 C 0.47291 0.15273 0.4533 0.0
C517 C 0.47074 0.15063 0.40079 0.0
C518 C 0.47702 0.13807 0.4875 0.0
C519 C 0.47915 0.121 0.47005 0.0
C520 C 0.47673 0.11868 0.41784 0.0
H521 H 0.52817 0.03493 0.63585 0.0
H522 H 0.51984 0.05997 0.57621 0.0
C523 C 0.47258 0.13337 0.38348 0.0
C524 C 0.4837 0.10554 0.50657 0.0
H525 H 0.51467 0.09499 0.59396 0.0
C526 C 0.47201 0.08817 0.51244 0.0
C527 C 0.49938 0.10793 0.53583 0.0
C528 C 0.51285 0.12592 0.52945 0.0
C529 C 0.4755 0.0732 0.54726 0.0
C530 C 0.49097 0.07578 0.57752 0.0
C531 C 0.50272 0.09309 0.57119 0.0
C532 C 0.49569 0.06045 0.61419 0.0
C533 C 0.4628 0.05463 0.55053 0.0
C534 C 0.48498 0.0525 0.65588 0.0
C535 C 0.48971 0.03807 0.69009 0.0
C536 C 0.50527 0.03147 0.68324 0.0
C537 C 0.51606 0.03966 0.642 0.0
C538 C 0.51133 0.054 0.60789 0.0
H539 H 0.45397 0.05349 0.51655 0.0
H540 H 0.46984 0.04255 0.55413 0.0
H541 H 0.45458 0.05346 0.58481 0.0
H542 H 0.47304 0.05754 0.66216 0.0
H543 H 0.48122 0.03209 0.7218 0.0
H544 H 0.32879 0.52978 0.60926 0.0
H545 H 0.35526 0.51888 0.64249 0.0
H546 H 0.38496 0.57534 0.61207 0.0
H547 H 0.35859 0.58635 0.57836 0.0
H548 H 0.38598 0.52034 0.59033 0.0
H549 H 0.39859 0.56043 0.7603 0.0
H550 H 0.37783 0.55736 0.72657 0.0
H551 H 0.39595 0.57487 0.70193 0.0
C552 C 0.34096 0.53989 0.60951 0.0
C553 C 0.34157 0.55895 0.59112 0.0
C554 C 0.35604 0.53365 0.62881 0.0
C555 C 0.37201 0.54635 0.63044 0.0
C556 C 0.37268 0.56539 0.61227 0.0
H557 H 0.4769 0.52441 0.63959 0.0
H558 H 0.44862 0.53351 0.61843 0.0
C559 C 0.3576 0.57165 0.59296 0.0
C560 C 0.38813 0.53948 0.64857 0.0
H561 H 0.42166 0.54576 0.7357 0.0
C562 C 0.39371 0.52579 0.62235 0.0
C563 C 0.39808 0.54644 0.69074 0.0
C564 C 0.39225 0.56045 0.72189 0.0
C565 C 0.40926 0.51929 0.63619 0.0
C566 C 0.4196 0.52687 0.6769 0.0
C567 C 0.41377 0.54011 0.7042 0.0
C568 C 0.43677 0.5216 0.69058 0.0
C569 C 0.4145 0.50435 0.60715 0.0
C570 C 0.4396 0.5123 0.73872 0.0
C571 C 0.45579 0.50708 0.751 0.0
C572 C 0.46938 0.51124 0.71537 0.0
C573 C 0.4666 0.52089 0.66762 0.0
C574 C 0.45044 0.52604 0.65537 0.0
H575 H 0.40317 0.49655 0.58662 0.0
H576 H 0.42444 0.51119 0.57842 0.0
H577 H 0.42033 0.49405 0.63318 0.0
H578 H 0.42922 0.50887 0.76655 0.0
H579 H 0.45765 0.49977 0.78818 0.0
H580 H 0.09066 0.36208 0.56544 0.0
H581 H 0.08117 0.38661 0.6087 0.0
H582 H 0.04896 0.39936 0.47837 0.0
H583 H 0.05858 0.37496 0.43428 0.0
H584 H 0.08442 0.42557 0.57804 0.0
H585 H 0.01492 0.39012 0.59936 0.0
H586 H 0.0319 0.37786 0.58343 0.0
H587 H 0.02293 0.39292 0.53524 0.0
C588 C 0.08172 0.37023 0.54558 0.0
C589 C 0.07542 0.36654 0.49622 0.0
C590 C 0.07623 0.38417 0.57058 0.0
C591 C 0.06421 0.39464 0.54703 0.0
C592 C 0.058 0.39119 0.49762 0.0
H593 H 0.03865 0.49934 0.62596 0.0
H594 H 0.05003 0.47474 0.58769 0.0
C595 C 0.06351 0.37724 0.47248 0.0
C596 C 0.05833 0.40929 0.57416 0.0
H597 H 0.02221 0.42154 0.62206 0.0
C598 C 0.07083 0.42468 0.58778 0.0
C599 C 0.04064 0.40793 0.58754 0.0
C600 C 0.02681 0.39125 0.57612 0.0
C601 C 0.06604 0.43899 0.61343 0.0
C602 C 0.04825 0.43796 0.62527 0.0
C603 C 0.03582 0.42236 0.61264 0.0
C604 C 0.0422 0.45309 0.64987 0.0
C605 C 0.08007 0.45499 0.62815 0.0
C606 C 0.03389 0.44905 0.69738 0.0
C607 C 0.02735 0.46309 0.7193 0.0
C608 C 0.02885 0.48134 0.69377 0.0
C609 C 0.03736 0.48541 0.64655 0.0
C610 C 0.04393 0.4714 0.62475 0.0
H611 H 0.09327 0.45122 0.62858 0.0
H612 H 0.0801 0.46749 0.59992 0.0
H613 H 0.07756 0.45905 0.66638 0.0
H614 H 0.03236 0.43499 0.7173 0.0
H615 H 0.02083 0.45956 0.75572 0.0
H616 H 0.84458 0.03556 0.02685 0.0
H617 H 0.87269 0.03693 0.98646 0.0
H618 H 0.85239 0.98478 0.92159 0.0
H619 H 0.82416 0.98331 0.96194 0.0
H620 H 0.89542 0.01164 0.99672 0.0
H621 H 0.87112 0.02024 0.79656 0.0
H622 H 0.85839 0.02305 0.85043 0.0
H623 H 0.85983 0.99982 0.83466 0.0
C624 C 0.84615 0.02424 0.00457 0.0
C625 C 0.83212 0.00934 0.99752 0.0
C626 C 0.86218 0.02512 0.9812 0.0
C627 C 0.86451 0.01117 0.9502 0.0
C628 C 0.85072 0.99596 0.94427 0.0
H629 H 0.95617 0.9931 0.79551 0.0
H630 H 0.92625 0.99142 0.82467 0.0
C631 C 0.83464 0.9951 0.96753 0.0
C632 C 0.88149 0.0125 0.92483 0.0
H633 H 0.90075 0.01681 0.80822 0.0
C634 C 0.89658 0.01282 0.95552 0.0
C635 C 0.88295 0.01398 0.87103 0.0
C636 C 0.86725 0.01443 0.83612 0.0
C637 C 0.91311 0.01447 0.93393 0.0
C638 C 0.9146 0.01616 0.88019 0.0
C639 C 0.89952 0.0156 0.8494 0.0
C640 C 0.93183 0.01846 0.85573 0.0
C641 C 0.92884 0.01416 0.96885 0.0
C642 C 0.94459 0.0346 0.86146 0.0
C643 C 0.96164 0.03561 0.84487 0.0
C644 C 0.96617 0.02048 0.82222 0.0
C645 C 0.95305 1.00493 0.81309 0.0
C646 C 0.93598 1.00393 0.82975 0.0
H647 H 0.92502 0.0085 0.00855 0.0
H648 H 0.93768 1.00546 0.95475 0.0
H649 H 0.93629 0.02878 0.9698 0.0
H650 H 0.94152 0.04609 0.88066 0.0
H651 H 0.97145 0.04783 0.85202 0.0
H652 H 0.5921 0.86749 0.18195 0.0
H653 H 0.58352 0.89175 0.12054 0.0
H654 H 0.54727 0.90301 0.2288 0.0
H655 H 0.55578 0.8785 0.29082 0.0
H656 H 0.53232 0.8991 0.13536 0.0
H657 H 0.59571 0.94855 0.11414 0.0
H658 H 0.59751 0.92496 0.10316 0.0
H659 H 0.59165 0.92977 0.16541 0.0
C660 C 0.58261 0.87542 0.19333 0.0
C661 C 0.57479 0.87119 0.24166 0.0
C662 C 0.5777 0.88931 0.15803 0.0
C663 C 0.56499 0.89948 0.17029 0.0
C664 C 0.5572 0.89542 0.2186 0.0
H665 H 0.54126 0.99785 0.98121 0.0
H666 H 0.55123 0.97624 0.04844 0.0
C667 C 0.56205 0.88141 0.25397 0.0
C668 C 0.55916 0.91352 0.13146 0.0
H669 H 0.57408 0.95255 0.04929 0.0
C670 C 0.54142 0.91088 0.11686 0.0
C671 C 0.57099 0.92903 0.10765 0.0
C672 C 0.58999 0.93338 0.12375 0.0
C673 C 0.53528 0.92303 0.0783 0.0
C674 C 0.54727 0.93798 0.05274 0.0
C675 C 0.56493 0.94091 0.06826 0.0
C676 C 0.54169 0.95105 0.01074 0.0
C677 C 0.51594 0.91988 0.06593 0.0
C678 C 0.53339 0.94416 0.96647 0.0
C679 C 0.52757 0.95651 0.92807 0.0
C680 C 0.53013 0.97597 0.93305 0.0
C681 C 0.53903 0.98291 0.97642 0.0
C682 C 0.54474 0.97057 0.01488 0.0
H683 H 0.50811 0.91157 0.09796 0.0
H684 H 0.51137 0.93351 0.05716 0.0
H685 H 0.51335 0.91184 0.032 0.0
H686 H 0.53132 0.92923 0.96173 0.0
H687 H 0.52089 0.9508 0.89482 0.0
H688 H 0.67309 0.45597 0.07264 0.0
H689 H 0.64603 0.46531 0.03833 0.0
H690 H 0.65387 0.44394 0.89563 0.0
H691 H 0.68078 0.4342 0.92997 0.0
H692 H 0.64215 0.49046 0.94794 0.0
H693 H 0.60331 0.41806 0.93839 0.0
H694 H 0.62307 0.42268 0.97648 0.0
H695 H 0.62436 0.42286 0.90849 0.0
C696 C 0.66895 0.45306 0.03416 0.0
C697 C 0.67903 0.44426 0.00411 0.0
C698 C 0.65357 0.45853 0.01451 0.0
C699 C 0.64791 0.45517 0.96465 0.0
C700 C 0.65794 0.44647 0.93441 0.0
H701 H 0.56402 0.50372 0.80084 0.0
H702 H 0.59218 0.49402 0.82292 0.0
C703 C 0.67337 0.44105 0.95396 0.0
C704 C 0.63155 0.46095 0.94434 0.0
H705 H 0.58978 0.44357 0.90659 0.0
C706 C 0.63071 0.48025 0.9386 0.0
C707 C 0.61667 0.44753 0.93256 0.0
C708 C 0.61674 0.4266 0.93956 0.0
C709 C 0.61529 0.4865 0.92167 0.0
C710 C 0.60041 0.47309 0.90987 0.0
C711 C 0.60129 0.4538 0.91528 0.0
C712 C 0.58345 0.47869 0.89528 0.0
C713 C 0.61484 0.50734 0.91804 0.0
C714 C 0.5692 0.47298 0.9282 0.0
C715 C 0.55321 0.47848 0.91576 0.0
C716 C 0.55115 0.48971 0.87 0.0
C717 C 0.56532 0.49516 0.83652 0.0
C718 C 0.58138 0.48969 0.84913 0.0
H719 H 0.62637 0.51543 0.93704 0.0
H720 H 0.61475 0.513 0.87725 0.0
H721 H 0.60276 0.50977 0.93561 0.0
H722 H 0.57054 0.46444 0.96391 0.0
H723 H 0.54248 0.47399 0.94213 0.0
H724 H 0.92536 0.63458 0.08466 0.0
H725 H 0.93633 0.61129 0.04013 0.0
H726 H 0.98917 0.64128 0.05841 0.0
H727 H 0.97824 0.6652 0.1007 0.0
H728 H 0.98294 0.63094 0.96225 0.0
H729 H 0.96033 0.56956 0.10355 0.0
H730 H 0.94305 0.58137 0.07894 0.0
H731 H 0.96045 0.59357 0.11649 0.0
C732 C 0.93931 0.63633 0.079 0.0
C733 C 0.9509 0.6518 0.09652 0.0
C734 C 0.94559 0.62284 0.05401 0.0
C735 C 0.9636 0.62435 0.04662 0.0
C736 C 0.97521 0.63976 0.06396 0.0
H737 H 0.01593 0.53569 0.97353 0.0
H738 H 0.00453 0.56018 0.01172 0.0
C739 C 0.96895 0.65332 0.08867 0.0
C740 C 0.97034 0.61004 0.02018 0.0
H741 H 0.97125 0.56291 0.02569 0.0
C742 C 0.98042 0.61606 0.97614 0.0
C743 C 0.96719 0.59066 0.03861 0.0
C744 C 0.95731 0.5834 0.08725 0.0
C745 C 0.9874 0.60323 0.95 0.0
C746 C 0.98389 0.58378 0.96776 0.0
C747 C 0.97381 0.57779 0.0118 0.0
C748 C 0.99123 0.56945 0.94304 0.0
C749 C 0.99888 0.61072 0.90452 0.0
C750 C 0.98759 0.56648 0.89155 0.0
C751 C 0.99428 0.55255 0.86942 0.0
C752 C 0.00447 0.54119 0.89868 0.0
C753 C 0.00808 0.5442 0.95007 0.0
C754 C 0.00154 0.55818 0.97198 0.0
H755 H 0.004 0.62613 0.90416 0.0
H756 H 0.01013 0.60329 0.90413 0.0
H757 H 0.99109 0.60838 0.86896 0.0
H758 H 0.97937 0.57473 0.86868 0.0
H759 H 0.99132 0.55052 0.82976 0.0
H760 H 0.10728 0.19447 0.51424 0.0
H761 H 0.09471 0.16334 0.55486 0.0
H762 H 0.09687 0.18586 0.70076 0.0
H763 H 0.10934 0.21734 0.66001 0.0
H764 H 0.10334 0.13847 0.63249 0.0
H765 H 0.04481 0.16671 0.68094 0.0
H766 H 0.06175 0.18017 0.63982 0.0
H767 H 0.06502 0.17808 0.70792 0.0
C768 C 0.10561 0.19275 0.55524 0.0
C769 C 0.10917 0.20841 0.5839 0.0
C770 C 0.0983 0.17493 0.57835 0.0
C771 C 0.09444 0.17242 0.63051 0.0
C772 C 0.09932 0.18765 0.66013 0.0
H773 H 0.0412 0.07277 0.81252 0.0
H774 H 0.05797 0.1038 0.78273 0.0
C775 C 0.10652 0.20557 0.63692 0.0
C776 C 0.08407 0.15424 0.65239 0.0
H777 H 0.04456 0.13439 0.7056 0.0
C778 C 0.09052 0.13758 0.64866 0.0
C779 C 0.06724 0.15313 0.67289 0.0
C780 C 0.05918 0.17043 0.6753 0.0
C781 C 0.08059 0.11983 0.66496 0.0
C782 C 0.06383 0.1188 0.68527 0.0
C783 C 0.05745 0.13538 0.68978 0.0
C784 C 0.05282 0.10052 0.70273 0.0
C785 C 0.088 0.10225 0.66054 0.0
C786 C 0.04403 0.08873 0.66738 0.0
C787 C 0.03427 0.07102 0.68424 0.0
C788 C 0.03337 0.06488 0.73663 0.0
C789 C 0.04177 0.07705 0.77187 0.0
C790 C 0.05135 0.09476 0.75502 0.0
H791 H 0.10197 0.10558 0.64931 0.0
H792 H 0.08679 0.0932 0.69744 0.0
H793 H 0.08039 0.09398 0.6314 0.0
H794 H 0.04498 0.09312 0.62681 0.0
H795 H 0.028 0.06191 0.65628 0.0
H796 H 0.33632 0.98035 0.69363 0.0
H797 H 0.36032 0.96719 0.73611 0.0
H798 H 0.35095 0.92142 0.64022 0.0
H799 H 0.32704 0.9348 0.59661 0.0
H800 H 0.36484 0.93049 0.78652 0.0
H801 H 0.40062 0.95117 0.60283 0.0
H802 H 0.38074 0.95942 0.6142 0.0
H803 H 0.37988 0.93529 0.60248 0.0
C804 C 0.33921 0.96733 0.68208 0.0
C805 C 0.33005 0.95878 0.64124 0.0
C806 C 0.35281 0.95974 0.70666 0.0
C807 C 0.35752 0.94349 0.6908 0.0
C808 C 0.34757 0.93408 0.65263 0.0
H809 H 0.46791 0.94154 0.75165 0.0
H810 H 0.43802 0.92627 0.73115 0.0
C811 C 0.33389 0.94168 0.62798 0.0
C812 C 0.37423 0.93829 0.70978 0.0
H813 H 0.41703 0.94524 0.67593 0.0
C814 C 0.37622 0.9332 0.7622 0.0
C815 C 0.389 0.94162 0.67784 0.0
C816 C 0.38761 0.94725 0.62122 0.0
C817 C 0.39283 0.93277 0.78415 0.0
C818 C 0.40777 0.93802 0.75295 0.0
C819 C 0.40558 0.9413 0.69988 0.0
C820 C 0.42556 0.9438 0.77454 0.0
C821 C 0.39424 0.92755 0.84085 0.0
C822 C 0.4285 0.95842 0.80662 0.0
C823 C 0.44547 0.96714 0.81827 0.0
C824 C 0.45993 0.96159 0.79763 0.0
C825 C 0.45705 0.94617 0.76806 0.0
C826 C 0.43998 0.9374 0.7564 0.0
H827 H 0.38283 0.9167 0.85443 0.0
H828 H 0.40643 0.92207 0.85121 0.0
H829 H 0.3942 0.94023 0.86116 0.0
H830 H 0.41767 0.964 0.81997 0.0
H831 H 0.44719 0.97889 0.84143 0.0
H832 H 0.43323 0.26079 0.51129 0.0
H833 H 0.44266 0.28482 0.56954 0.0
H834 H 0.40438 0.31658 0.50286 0.0
H835 H 0.39559 0.29288 0.44249 0.0
H836 H 0.43472 0.33687 0.49349 0.0
H837 H 0.43067 0.30585 0.69362 0.0
H838 H 0.44165 0.29212 0.65721 0.0
H839 H 0.4191 0.29361 0.64276 0.0
C840 C 0.4263 0.27247 0.51067 0.0
C841 C 0.41374 0.27508 0.4725 0.0
C842 C 0.43165 0.28621 0.54423 0.0
C843 C 0.42421 0.30255 0.54089 0.0
C844 C 0.41033 0.30412 0.50616 0.0
H845 H 0.471 0.39883 0.70746 0.0
H846 H 0.45148 0.37059 0.68226 0.0
C847 C 0.40525 0.29057 0.47185 0.0
C848 C 0.43326 0.31937 0.56533 0.0
H849 H 0.45386 0.33347 0.67507 0.0
C850 C 0.43854 0.33617 0.53352 0.0
C851 C 0.43825 0.31864 0.61757 0.0
C852 C 0.43192 0.30161 0.65474 0.0
C853 C 0.44928 0.35189 0.55175 0.0
C854 C 0.45547 0.3506 0.6028 0.0
C855 C 0.44948 0.33423 0.63553 0.0
C856 C 0.4682 0.3662 0.62228 0.0
C857 C 0.45395 0.3697 0.51589 0.0
C858 C 0.4844 0.37259 0.59831 0.0
C859 C 0.49543 0.3889 0.61191 0.0
C860 C 0.49055 0.39896 0.65024 0.0
C861 C 0.47491 0.39168 0.67679 0.0
C862 C 0.46381 0.37546 0.66282 0.0
H863 H 0.44414 0.37031 0.48444 0.0
H864 H 0.45489 0.38251 0.5364 0.0
H865 H 0.4668 0.36998 0.49842 0.0
H866 H 0.48821 0.36534 0.56773 0.0
H867 H 0.50736 0.39409 0.59074 0.0
H868 H 0.20105 0.59851 0.71138 0.0
H869 H 0.17109 0.59368 0.74173 0.0
H870 H 0.1548 0.61895 0.59707 0.0
H871 H 0.18424 0.62234 0.56476 0.0
H872 H 0.14601 0.61397 0.75453 0.0
H873 H 0.12579 0.56689 0.60101 0.0
H874 H 0.14841 0.57623 0.61443 0.0
H875 H 0.13509 0.59069 0.57758 0.0
C876 C 0.19113 0.60302 0.68582 0.0
C877 C 0.19511 0.61032 0.635 0.0
C878 C 0.17401 0.60045 0.70353 0.0
C879 C 0.16059 0.6054 0.67108 0.0
C880 C 0.16485 0.61448 0.62224 0.0
H881 H 0.04744 0.56966 0.70838 0.0
H882 H 0.07556 0.58991 0.68478 0.0
C883 C 0.18185 0.61669 0.6041 0.0
C884 C 0.14206 0.59938 0.68662 0.0
H885 H 0.10373 0.57123 0.65485 0.0
C886 C 0.13672 0.60475 0.73253 0.0
C887 C 0.12997 0.58718 0.6581 0.0
C888 C 0.13511 0.57974 0.61034 0.0
C889 C 0.1197 0.59806 0.75093 0.0
C890 C 0.10778 0.58578 0.72257 0.0
C891 C 0.11291 0.58087 0.67605 0.0
C892 C 0.09053 0.57613 0.74258 0.0
C893 C 0.11461 0.60387 0.80085 0.0
C894 C 0.08969 0.56189 0.78324 0.0
C895 C 0.07376 0.55017 0.7963 0.0
C896 C 0.05837 0.55256 0.76904 0.0
C897 C 0.05907 0.56753 0.73017 0.0
C898 C 0.07509 0.57911 0.71667 0.0
H899 H 0.12369 0.6166 0.81205 0.0
H900 H 0.10108 0.60678 0.79849 0.0
H901 H 0.11498 0.59214 0.83131 0.0
H902 H 0.10151 0.55918 0.80312 0.0
H903 H 0.07362 0.53883 0.82666 0.0
H904 H 0.92866 0.79251 0.95472 0.0
H905 H 0.9406 0.82173 0.90196 0.0
H906 H 0.91749 0.85386 1.00122 0.0
H907 H 0.90522 0.82471 0.05334 0.0
H908 H 0.91825 0.86862 0.89663 0.0
H909 H 0.98261 0.85411 0.97151 0.0
H910 H 0.96982 0.83611 0.93677 0.0
H911 H 0.9621 0.84102 0.99661 0.0
C912 C 0.92554 0.80572 0.96401 0.0
C913 C 0.91625 0.80645 0.00845 0.0
C914 C 0.93251 0.8224 0.93421 0.0
C915 C 0.93029 0.83992 0.94864 0.0
C916 C 0.91947 0.84046 0.98981 0.0
H917 H 0.99667 0.94985 0.91885 0.0
H918 H 0.98049 0.91819 0.94743 0.0
C919 C 0.9125 0.82383 0.01953 0.0
C920 C 0.94091 0.85771 0.92558 0.0
H921 H 0.98283 0.88245 0.91896 0.0
C922 C 0.93238 0.87162 0.90096 0.0
C923 C 0.95931 0.86165 0.93254 0.0
C924 C 0.96906 0.84754 0.96114 0.0
C925 C 0.94179 0.88948 0.8831 0.0
C926 C 0.9602 0.89332 0.88952 0.0
C927 C 0.96872 0.87937 0.91394 0.0
C928 C 0.97082 0.91188 0.87197 0.0
C929 C 0.93188 0.90426 0.85902 0.0
C930 C 0.97119 0.91844 0.82004 0.0
C931 C 0.98034 0.93641 0.80376 0.0
C932 C 0.98944 0.94811 0.83909 0.0
C933 C 0.98978 0.94116 0.89083 0.0
C934 C 0.98051 0.92315 0.90716 0.0
H935 H 0.91775 0.90066 0.86835 0.0
H936 H 0.93735 0.91834 0.87176 0.0
H937 H 0.93306 0.90527 0.81689 0.0
H938 H 0.96419 0.90976 0.79215 0.0
H939 H 0.98007 0.94122 0.76347 0.0
H940 H 0.69924 0.09808 0.92364 0.0
H941 H 0.67231 0.1052 0.88161 0.0
H942 H 0.6614 0.0496 0.82958 0.0
H943 H 0.68786 0.04228 0.87164 0.0
H944 H 0.65184 0.07925 0.75768 0.0
H945 H 0.62662 0.0783 0.95437 0.0
H946 H 0.6461 0.09486 0.93501 0.0
H947 H 0.64659 0.07005 0.94402 0.0
C948 C 0.69123 0.08749 0.90255 0.0
C949 C 0.69561 0.06952 0.9016 0.0
C950 C 0.67591 0.09162 0.87843 0.0
C951 C 0.66479 0.07782 0.85314 0.0
C952 C 0.66986 0.06048 0.84875 0.0
H953 H 0.57372 0.01724 0.77384 0.0
H954 H 0.60244 0.03718 0.77573 0.0
C955 C 0.68507 0.05633 0.87278 0.0
C956 C 0.6468 0.0799 0.83737 0.0
H957 H 0.60615 0.07306 0.88868 0.0
C958 C 0.64185 0.07851 0.78602 0.0
C959 C 0.63381 0.07917 0.87433 0.0
C960 C 0.63841 0.08061 0.9301 0.0
C961 C 0.62415 0.0746 0.77145 0.0
C962 C 0.6112 0.07165 0.80942 0.0
C963 C 0.61612 0.07517 0.85971 0.0
C964 C 0.59328 0.0612 0.80059 0.0
C965 C 0.61953 0.07255 0.71604 0.0
C966 C 0.57848 0.06795 0.81459 0.0
C967 C 0.5619 0.05639 0.8141 0.0
C968 C 0.55996 0.03783 0.80039 0.0
C969 C 0.57474 0.0314 0.78495 0.0
C970 C 0.59119 0.04293 0.78521 0.0
H971 H 0.62912 0.08232 0.69084 0.0
H972 H 0.62003 0.05793 0.70783 0.0
H973 H 0.60621 0.07539 0.70647 0.0
H974 H 0.57986 0.08191 0.82733 0.0
H975 H 0.55074 0.06174 0.82613 0.0
H976 H 0.61933 0.72228 0.12856 0.0
H977 H 0.61092 0.69706 0.07219 0.0
H978 H 0.55921 0.71055 0.05526 0.0
H979 H 0.56738 0.73546 0.11108 0.0
H980 H 0.58596 0.6668 0.09577 0.0
H981 H 0.5684 0.70203 0.91088 0.0
H982 H 0.58129 0.7148 0.95873 0.0
H983 H 0.55774 0.70984 0.96184 0.0
C984 C 0.60628 0.72007 0.11195 0.0
C985 C 0.59405 0.73092 0.1242 0.0
C986 C 0.60153 0.70575 0.07959 0.0
C987 C 0.58453 0.70214 0.05883 0.0
C988 C 0.57257 0.71345 0.06944 0.0
H989 H 0.51529 0.59989 0.02137 0.0
H990 H 0.53322 0.62905 0.04652 0.0
C991 C 0.57728 0.72772 0.10157 0.0
C992 C 0.57829 0.685 0.03244 0.0
H993 H 0.55326 0.66949 0.93116 0.0
C994 C 0.57916 0.66739 0.05919 0.0
C995 C 0.56962 0.68574 0.98444 0.0
C996 C 0.56938 0.70415 0.95213 0.0
C997 C 0.57052 0.65056 0.04096 0.0
C998 C 0.56046 0.65143 0.99542 0.0
C999 C 0.56065 0.66891 0.96672 0.0
C1000 C 0.54901 0.63444 0.97848 0.0
C1001 C 0.57195 0.63203 0.07126 0.0
C1002 C 0.55143 0.62836 0.93084 0.0
C1003 C 0.54102 0.61185 0.91603 0.0
C1004 C 0.52798 0.60121 0.94858 0.0
C1005 C 0.52516 0.6078 0.99539 0.0
C1006 C 0.53555 0.62431 0.01009 0.0
H1007 H 0.58409 0.63329 0.09502 0.0
H1008 H 0.56065 0.62774 0.09732 0.0
H1009 H 0.57184 0.6207 0.04581 0.0
H1010 H 0.5616 0.63616 0.90563 0.0
H1011 H 0.54329 0.60731 0.87929 0.0
H1012 H 0.81926 0.40665 0.87889 0.0
H1013 H 0.8481 0.41347 0.83927 0.0
H1014 H 0.87252 0.40647 0.98745 0.0
H1015 H 0.84397 0.40019 0.02747 0.0
H1016 H 0.87261 0.44519 0.86775 0.0
H1017 H 0.90054 0.37973 0.89596 0.0
H1018 H 0.87729 0.37956 0.89744 0.0
H1019 H 0.8909 0.38554 0.95194 0.0
C1020 C 0.83075 0.40627 0.903 0.0
C1021 C 0.82926 0.40302 0.95646 0.0
C1022 C 0.84719 0.41001 0.88024 0.0
C1023 C 0.8624 0.4103 0.91042 0.0
C1024 C 0.86092 0.40591 0.96338 0.0
H1025 H 0.97192 0.45667 0.89706 0.0
H1026 H 0.94281 0.43784 0.91586 0.0
C1027 C 0.84452 0.4023 0.98621 0.0
C1028 C 0.87978 0.41807 0.88805 0.0
H1029 H 0.92075 0.40867 0.87578 0.0
C1030 C 0.88308 0.43715 0.86861 0.0
C1031 C 0.89341 0.40756 0.89005 0.0
C1032 C 0.89038 0.38691 0.90958 0.0
C1033 C 0.89985 0.44628 0.85304 0.0
C1034 C 0.9136 0.43586 0.85548 0.0
C1035 C 0.91019 0.41661 0.87378 0.0
C1036 C 0.93174 0.44505 0.8416 0.0
C1037 C 0.90281 0.46725 0.83667 0.0
C1038 C 0.93534 0.4547 0.79302 0.0
C1039 C 0.95181 0.46571 0.78259 0.0
C1040 C 0.96511 0.46687 0.82014 0.0
C1041 C 0.96189 0.45606 0.86747 0.0
C1042 C 0.94529 0.4453 0.87821 0.0
H1043 H 0.89222 0.47391 0.84991 0.0
H1044 H 0.91549 0.47456 0.85168 0.0
H1045 H 0.90301 0.46958 0.79436 0.0
H1046 H 0.92523 0.45426 0.7637 0.0
H1047 H 0.954 0.47361 0.74541 0.0
H1048 H 0.05159 0.2307 0.18211 0.0
H1049 H 0.04455 0.2018 0.13863 0.0
H1050 H 0.09424 0.18742 0.18691 0.0
H1051 H 0.10125 0.21588 0.23114 0.0
H1052 H 0.08555 0.18302 0.08235 0.0
H1053 H 0.03192 0.14767 0.21334 0.0
H1054 H 0.03018 0.17093 0.18479 0.0
H1055 H 0.04773 0.16798 0.229 0.0
C1056 C 0.06101 0.22138 0.18357 0.0
C1057 C 0.07702 0.22572 0.21012 0.0
C1058 C 0.05696 0.20487 0.15871 0.0
C1059 C 0.0688 0.19237 0.16002 0.0
C1060 C 0.08492 0.19688 0.18535 0.0
H1061 H 0.055 0.07504 0.10071 0.0
H1062 H 0.06053 0.10533 0.13748 0.0
C1063 C 0.08896 0.21329 0.2103 0.0
C1064 C 0.06446 0.17445 0.13564 0.0
H1065 H 0.03722 0.13137 0.14394 0.0
C1066 C 0.07493 0.17175 0.0956 0.0
C1067 C 0.05076 0.15968 0.15355 0.0
C1068 C 0.03955 0.16154 0.19779 0.0
C1069 C 0.07203 0.15471 0.07282 0.0
C1070 C 0.05818 0.14003 0.09027 0.0
C1071 C 0.04775 0.14269 0.13045 0.0
C1072 C 0.05455 0.12167 0.06791 0.0
C1073 C 0.08405 0.15235 0.03106 0.0
C1074 C 0.04913 0.12078 0.01677 0.0
C1075 C 0.04584 0.10349 0.99571 0.0
C1076 C 0.04787 0.08667 0.02538 0.0
C1077 C 0.05314 0.08763 0.07683 0.0
C1078 C 0.05638 0.10494 0.09789 0.0
H1079 H 0.09625 0.16317 0.02992 0.0
H1080 H 0.0876 0.13811 0.03623 0.0
H1081 H 0.07724 0.15382 0.99361 0.0
H1082 H 0.04731 0.13347 0.99322 0.0
H1083 H 0.04143 0.10327 0.95632 0.0
H1084 H 0.33093 0.08204 0.27783 0.0
H1085 H 0.35343 0.0898 0.21208 0.0
H1086 H 0.33631 0.03511 0.15755 0.0
H1087 H 0.31389 0.02728 0.22289 0.0
H1088 H 0.37998 0.07097 0.20802 0.0
H1089 H 0.34364 0.06859 0.02444 0.0
H1090 H 0.33332 0.07029 0.08384 0.0
H1091 H 0.3365 0.04771 0.06686 0.0
C1092 C 0.33177 0.07181 0.25121 0.0
C1093 C 0.32062 0.05403 0.25568 0.0
C1094 C 0.34459 0.07629 0.21356 0.0
C1095 C 0.34645 0.06314 0.17946 0.0
C1096 C 0.33485 0.0457 0.18248 0.0
H1097 H 0.43422 0.03382 0.05307 0.0
H1098 H 0.41016 0.03941 0.10257 0.0
C1099 C 0.32202 0.04123 0.21999 0.0
C1100 C 0.36176 0.06654 0.14515 0.0
H1101 H 0.37357 0.06362 0.02279 0.0
C1102 C 0.37857 0.06974 0.16733 0.0
C1103 C 0.35998 0.06517 0.09194 0.0
C1104 C 0.34238 0.06295 0.0653 0.0
C1105 C 0.39354 0.07043 0.13839 0.0
C1106 C 0.39165 0.06758 0.08605 0.0
C1107 C 0.37497 0.06558 0.06309 0.0
C1108 C 0.40662 0.06487 0.056 0.0
C1109 C 0.41125 0.07371 0.1644 0.0
C1110 C 0.41246 0.07717 0.01271 0.0
C1111 C 0.42644 0.07412 0.98431 0.0
C1112 C 0.4347 0.0586 0.99858 0.0
C1113 C 0.42858 0.04623 0.04171 0.0
C1114 C 0.41474 0.04934 0.07003 0.0
H1115 H 0.41102 0.08113 0.19918 0.0
H1116 H 0.41511 0.05988 0.1762 0.0
H1117 H 0.42137 0.08214 0.13824 0.0
H1118 H 0.40626 0.08917 1.00109 0.0
H1119 H 0.43082 0.08394 0.95143 0.0
H1120 H 0.47494 0.308 0.10932 0.0
H1121 H 0.48038 0.33863 0.05862 0.0
H1122 H 0.44137 0.31746 0.94846 0.0
H1123 H 0.4357 0.28669 0.99954 0.0
H1124 H 0.4915 0.34942 0.96272 0.0
H1125 H 0.42478 0.36454 0.9817 0.0
H1126 H 0.43233 0.34523 0.01908 0.0
H1127 H 0.42526 0.34302 0.95395 0.0
C1128 C 0.46768 0.30973 0.07392 0.0
C1129 C 0.45488 0.29486 0.05849 0.0
C1130 C 0.47072 0.32732 0.04511 0.0
C1131 C 0.46106 0.3305 1.00018 0.0
C1132 C 0.44867 0.31552 0.98368 0.0
H1133 H 0.49419 0.43131 0.78797 0.0
H1134 H 0.48531 0.39872 0.82529 0.0
C1135 C 0.44551 0.29791 0.01274 0.0
C1136 C 0.4641 0.34955 0.97106 0.0
H1137 H 0.44428 0.38671 0.92837 0.0
C1138 C 0.48116 0.35754 0.95507 0.0
C1139 C 0.45065 0.36028 0.96174 0.0
C1140 C 0.43226 0.35295 0.98039 0.0
C1141 C 0.48518 0.37593 0.93032 0.0
C1142 C 0.47166 0.38651 0.91995 0.0
C1143 C 0.45459 0.37853 0.93582 0.0
C1144 C 0.4752 0.40616 0.89454 0.0
C1145 C 0.50401 0.38406 0.91715 0.0
C1146 C 0.47154 0.42118 0.9196 0.0
C1147 C 0.47631 0.43988 0.89785 0.0
C1148 C 0.48493 0.44387 0.85077 0.0
C1149 C 0.48779 0.42874 0.82464 0.0
C1150 C 0.48283 0.41008 0.84608 0.0
H1151 H 0.51319 0.37629 0.93972 0.0
H1152 H 0.50605 0.38295 0.87615 0.0
H1153 H 0.5074 0.3992 0.92403 0.0
H1154 H 0.46554 0.41848 0.95686 0.0
H1155 H 0.47392 0.45121 0.9189 0.0
H1156 H 0.19795 0.57791 0.27889 0.0
H1157 H 0.17645 0.5645 0.21708 0.0
H1158 H 0.21131 0.52883 0.17595 0.0
H1159 H 0.23334 0.5428 0.23632 0.0
H1160 H 0.19455 0.54435 0.09201 0.0
H1161 H 0.14692 0.51179 0.24244 0.0
H1162 H 0.15378 0.53678 0.24445 0.0
H1163 H 0.16946 0.52141 0.25671 0.0
C1164 C 0.20126 0.5675 0.25605 0.0
C1165 C 0.21741 0.5614 0.26281 0.0
C1166 C 0.18882 0.55964 0.22122 0.0
C1167 C 0.19212 0.54536 0.19281 0.0
C1168 C 0.20843 0.5397 0.19794 0.0
H1169 H 0.10698 0.47424 0.04107 0.0
H1170 H 0.13267 0.48528 0.09326 0.0
C1171 C 0.22096 0.54762 0.23268 0.0
C1172 C 0.17839 0.53618 0.15844 0.0
H1173 H 0.13617 0.51242 0.15663 0.0
C1174 C 0.18182 0.53724 0.10611 0.0
C1175 C 0.16192 0.52658 0.17707 0.0
C1176 C 0.15783 0.52387 0.23331 0.0
C1177 C 0.16898 0.52951 0.07163 0.0
C1178 C 0.15218 0.52082 0.08994 0.0
C1179 C 0.14898 0.51923 0.14251 0.0
C1180 C 0.13754 0.51372 0.05534 0.0
C1181 C 0.17359 0.53061 0.01604 0.0
C1182 C 0.13175 0.526 0.01656 0.0
C1183 C 0.11721 0.51966 0.98626 0.0
C1184 C 0.10796 0.50097 0.99457 0.0
C1185 C 0.11391 0.48864 0.03313 0.0
C1186 C 0.12853 0.49497 0.06325 0.0
H1187 H 0.18791 0.53199 0.01108 0.0
H1188 H 0.16681 0.51792 0.99825 0.0
H1189 H 0.16952 0.54326 0.99531 0.0
H1190 H 0.13824 0.54063 0.01042 0.0
H1191 H 0.11314 0.52949 0.95653 0.0
H1192 H 0.91434 0.79222 0.37385 0.0
H1193 H 0.92175 0.8217 0.41331 0.0
H1194 H 0.9675 0.80381 0.48343 0.0
H1195 H 0.95987 0.77378 0.44527 0.0
H1196 H 0.94862 0.8221 0.54854 0.0
H1197 H 0.9625 0.86353 0.36029 0.0
H1198 H 0.94122 0.84872 0.36416 0.0
H1199 H 0.96042 0.83815 0.36914 0.0
C1200 C 0.92576 0.79424 0.39867 0.0
C1201 C 0.93649 0.78052 0.40635 0.0
C1202 C 0.9301 0.81128 0.42063 0.0
C1203 C 0.94535 0.8151 0.45044 0.0
C1204 C 0.95575 0.80119 0.46013 0.0
H1205 H 0.9946 0.92776 0.52339 0.0
H1206 H 0.98814 0.89636 0.49309 0.0
C1207 C 0.9514 0.78407 0.43814 0.0
C1208 C 0.95063 0.83387 0.47003 0.0
H1209 H 0.9612 0.88106 0.43112 0.0
C1210 C 0.95146 0.835 0.52295 0.0
C1211 C 0.95459 0.85066 0.43654 0.0
C1212 C 0.95482 0.85027 0.37937 0.0
C1213 C 0.95568 0.85253 0.54327 0.0
C1214 C 0.95891 0.86936 0.5097 0.0
C1215 C 0.95853 0.86817 0.45682 0.0
C1216 C 0.96276 0.88838 0.52852 0.0
C1217 C 0.95683 0.85285 0.60047 0.0
C1218 C 0.95051 0.89448 0.55777 0.0
C1219 C 0.95412 0.91248 0.57491 0.0
C1220 C 0.97002 0.92482 0.56283 0.0
C1221 C 0.98214 0.91874 0.53287 0.0
C1222 C 0.97853 0.90073 0.51581 0.0
H1223 H 0.95872 0.83901 0.62006 0.0
H1224 H 0.96777 0.86397 0.61153 0.0
H1225 H 0.94447 0.856 0.61432 0.0
H1226 H 0.93807 0.88537 0.56695 0.0
H1227 H 0.94437 0.9168 0.59719 0.0
H1228 H 0.68807 0.96782 0.27718 0.0
H1229 H 0.66565 0.9589 0.34289 0.0
H1230 H 0.68902 0.00693 0.4216 0.0
H1231 H 0.71179 0.01567 0.35691 0.0
H1232 H 0.67769 0.97332 0.4873 0.0
H1233 H 0.62613 0.98954 0.34767 0.0
H1234 H 0.63862 0.97274 0.33002 0.0
H1235 H 0.64917 0.99681 0.33463 0.0
C1236 C 0.68868 0.97626 0.30905 0.0
C1237 C 0.70165 0.99256 0.31155 0.0
C1238 C 0.67574 0.97125 0.34627 0.0
C1239 C 0.6755 0.98246 0.38654 0.0
C1240 C 0.6889 0.99817 0.39059 0.0
H1241 H 0.59188 0.99603 0.57689 0.0
H1242 H 0.61606 0.99934 0.51772 0.0
C1243 C 0.70184 1.0032 0.35343 0.0
C1244 C 0.66083 0.97845 0.42306 0.0
H1245 H 0.61698 0.97778 0.43129 0.0
C1246 C 0.66439 0.97418 0.47511 0.0
C1247 C 0.64354 0.97983 0.40702 0.0
C1248 C 0.63907 0.98513 0.35189 0.0
C1249 C 0.65109 0.97122 0.51157 0.0
C1250 C 0.63381 0.97247 0.49541 0.0
C1251 C 0.63025 0.97671 0.44341 0.0
C1252 C 0.61933 0.97025 0.53206 0.0
C1253 C 0.65566 0.96729 0.56724 0.0
C1254 C 0.61308 0.95273 0.55948 0.0
C1255 C 0.59908 0.9507 0.59297 0.0
C1256 C 0.59107 0.96617 0.59962 0.0
C1257 C 0.59749 0.98372 0.57214 0.0
C1258 C 0.6114 0.98569 0.53853 0.0
H1259 H 0.67002 0.97013 0.5743 0.0
H1260 H 0.6495 0.97605 0.59088 0.0
H1261 H 0.65054 0.95223 0.58001 0.0
H1262 H 0.61887 0.94056 0.55441 0.0
H1263 H 0.59433 0.93692 0.61288 0.0
H1264 H 0.5392 0.70584 0.54241 0.0
H1265 H 0.53412 0.67466 0.59097 0.0
H1266 H 0.58955 0.67469 0.59402 0.0
H1267 H 0.59475 0.70577 0.54505 0.0
H1268 H 0.54281 0.64233 0.55736 0.0
H1269 H 0.57543 0.65744 0.74305 0.0
H1270 H 0.56959 0.67574 0.69751 0.0
H1271 H 0.58873 0.66602 0.68794 0.0
C1272 C 0.55034 0.6993 0.55378 0.0
C1273 C 0.56739 0.70835 0.53971 0.0
C1274 C 0.54742 0.6815 0.58167 0.0
C1275 C 0.56146 0.67239 0.59646 0.0
C1276 C 0.57854 0.68159 0.5839 0.0
H1277 H 0.55053 0.55013 0.6734 0.0
H1278 H 0.56002 0.5828 0.63602 0.0
C1279 C 0.58149 0.69941 0.55595 0.0
C1280 C 0.55806 0.65271 0.62155 0.0
H1281 H 0.56587 0.62513 0.73009 0.0
C1282 C 0.54786 0.63857 0.59513 0.0
C1283 C 0.56458 0.64785 0.67093 0.0
C1284 C 0.57507 0.66256 0.70184 0.0
C1285 C 0.54403 0.6197 0.6166 0.0
C1286 C 0.55078 0.61476 0.66561 0.0
C1287 C 0.5609 0.62891 0.69225 0.0
C1288 C 0.54659 0.59515 0.69081 0.0
C1289 C 0.5324 0.60529 0.58716 0.0
C1290 C 0.53645 0.59132 0.73506 0.0
C1291 C 0.53103 0.57273 0.75646 0.0
C1292 C 0.53576 0.55753 0.7343 0.0
C1293 C 0.5466 0.56147 0.69131 0.0
C1294 C 0.55196 0.58012 0.66974 0.0
H1295 H 0.52532 0.61205 0.55529 0.0
H1296 H 0.54054 0.59639 0.57073 0.0
H1297 H 0.52266 0.59589 0.61266 0.0
H1298 H 0.53224 0.6027 0.75211 0.0
H1299 H 0.5228 0.57026 0.7898 0.0
H1300 H 0.79691 0.42561 0.38753 0.0
H1301 H 0.81826 0.43787 0.4519 0.0
H1302 H 0.83141 0.4906 0.35699 0.0
H1303 H 0.81028 0.47849 0.29254 0.0
H1304 H 0.85378 0.44927 0.43638 0.0
H1305 H 0.82566 0.50835 0.49615 0.0
H1306 H 0.81307 0.48994 0.46175 0.0
H1307 H 0.82766 0.50926 0.4282 0.0
C1308 C 0.80424 0.43988 0.3806 0.0
C1309 C 0.80183 0.45109 0.33493 0.0
C1310 C 0.81638 0.44688 0.41749 0.0
C1311 C 0.82624 0.46524 0.40957 0.0
C1312 C 0.82362 0.47658 0.36453 0.0
H1313 H 0.91751 0.53214 0.53431 0.0
H1314 H 0.89124 0.51917 0.48684 0.0
C1315 C 0.8115 0.46962 0.32768 0.0
C1316 C 0.84031 0.47204 0.44616 0.0
H1317 H 0.85578 0.50839 0.51809 0.0
C1318 C 0.85411 0.46205 0.45486 0.0
C1319 C 0.84073 0.48876 0.47002 0.0
C1320 C 0.8259 0.49961 0.464 0.0
C1321 C 0.86865 0.46869 0.48522 0.0
C1322 C 0.86926 0.48564 0.50813 0.0
C1323 C 0.85529 0.49543 0.50035 0.0
C1324 C 0.8846 0.49379 0.5387 0.0
C1325 C 0.88356 0.45793 0.4909 0.0
C1326 C 0.88936 0.48397 0.58415 0.0
C1327 C 0.90433 0.49136 0.61146 0.0
C1328 C 0.91477 0.50877 0.59396 0.0
C1329 C 0.90968 0.51879 0.54911 0.0
C1330 C 0.89471 0.51137 0.52182 0.0
H1331 H 0.88278 0.44764 0.46202 0.0
H1332 H 0.89636 0.46774 0.48727 0.0
H1333 H 0.8831 0.44997 0.52933 0.0
H1334 H 0.88152 0.47055 0.59836 0.0
H1335 H 0.90771 0.48346 0.64636 0.0
loop_
_geom_bond_atom_site_label_1
_geom_bond_atom_site_label_2
_geom_bond_distance
_geom_bond_site_symmetry_2
_ccdc_geom_bond_type
C0 C1 1.386 . S
C0 C2 1.397 . S
C0 H24 0.931 . S
C1 C0 1.386 . S
C1 C5 1.397 . S
C2 C0 1.397 . S
C2 C3 1.384 . S
C2 H25 0.930 . S
C3 C2 1.384 . S
C3 C4 1.377 . S
C3 C6 1.481 1_556 S
C4 C3 1.377 . S
C4 C5 1.389 . S
C4 H26 0.929 1_556 S
C5 C1 1.397 . S
C5 C4 1.389 . S
C5 H27 0.931 . S
C6 C3 1.481 1_554 S
C6 C7 1.387 1_554 S
C6 C11 1.390 . S
C7 C6 1.387 1_556 S
C7 C8 1.401 1_556 S
C7 H28 0.930 . S
C8 C7 1.401 1_554 S
C8 C9 1.376 . S
C8 C17 1.511 . S
C9 C8 1.376 . S
C9 C10 1.392 . S
C9 H30 0.931 . S
C10 C9 1.392 . S
C10 C11 1.361 . S
C10 C12 1.500 . S
C11 C6 1.390 . S
C11 C10 1.361 . S
C11 H29 0.931 . S
C12 C10 1.500 . S
C12 C13 1.371 . S
C12 C14 1.365 . S
C13 C12 1.371 . S
C13 C23 1.386 . S
C13 H31 0.931 . S
C14 C12 1.365 . S
C14 C15 1.409 . S
C14 H32 0.929 . S
C15 C14 1.409 . S
C15 C16 1.380 . S
C15 H33 0.930 . S
C16 C15 1.380 . S
C16 C23 1.357 . S
C17 C8 1.511 . S
C17 C18 1.341 1_554 S
C17 C19 1.371 . S
C18 C17 1.341 1_556 S
C18 C22 1.394 . S
C18 H34 0.930 . S
C19 C17 1.371 . S
C19 C20 1.392 . S
C19 H35 0.931 . S
C20 C19 1.392 . S
C20 C21 1.331 1_554 S
C20 H38 0.932 . S
C21 C20 1.331 1_556 S
C21 C22 1.336 . S
C22 C18 1.394 . S
C22 C21 1.336 . S
C22 H37 0.929 . S
C23 C13 1.386 . S
C23 C16 1.357 . S
C23 H36 0.928 . S
H24 C0 0.931 . S
H25 C2 0.930 . S
H26 C4 0.929 1_554 S
H27 C5 0.931 . S
H28 C7 0.930 . S
H29 C11 0.931 . S
H30 C9 0.931 . S
H31 C13 0.931 . S
H32 C14 0.929 . S
H33 C15 0.930 . S
H34 C18 0.930 . S
H35 C19 0.931 . S
H36 C23 0.928 . S
H37 C22 0.929 . S
H38 C20 0.932 . S
C39 C40 1.386 . S
C39 C41 1.397 . S
C39 H63 0.931 . S
C40 C39 1.386 . S
C40 C44 1.397 . S
C41 C39 1.397 . S
C41 C42 1.384 . S
C41 H64 0.930 . S
C42 C41 1.384 . S
C42 C43 1.377 . S
C42 C45 1.481 1_556 S
C43 C42 1.377 . S
C43 C44 1.389 . S
C43 H65 0.929 . S
C44 C40 1.397 . S
C44 C43 1.389 . S
C44 H66 0.931 . S
C45 C42 1.481 1_554 S
C45 C46 1.387 . S
C45 C50 1.390 . S
C46 C45 1.387 . S
C46 C47 1.401 . S
C46 H67 0.930 1_554 S
C47 C46 1.401 . S
C47 C48 1.376 . S
C47 C56 1.511 . S
C48 C47 1.376 . S
C48 C49 1.392 . S
C48 H69 0.931 . S
C49 C48 1.392 . S
C49 C50 1.361 . S
C49 C51 1.500 . S
C50 C45 1.390 . S
C50 C49 1.361 . S
C50 H68 0.931 . S
C51 C49 1.500 . S
C51 C52 1.371 . S
C51 C53 1.365 . S
C52 C51 1.371 . S
C52 C62 1.386 . S
C52 H70 0.931 . S
C53 C51 1.365 . S
C53 C54 1.409 . S
C53 H71 0.929 . S
C54 C53 1.409 . S
C54 C55 1.380 . S
C54 H72 0.930 . S
C55 C54 1.380 . S
C55 C62 1.357 . S
C56 C47 1.511 . S
C56 C57 1.341 1_554 S
C56 C58 1.371 . S
C57 C56 1.341 1_556 S
C57 C61 1.394 . S
C57 H73 0.930 . S
C58 C56 1.371 . S
C58 C59 1.392 . S
C58 H74 0.931 . S
C59 C58 1.392 . S
C59 C60 1.331 . S
C59 H77 0.932 . S
C60 C59 1.331 . S
C60 C61 1.336 1_554 S
C61 C57 1.394 . S
C61 C60 1.336 1_556 S
C61 H76 0.929 . S
C62 C52 1.386 . S
C62 C55 1.357 . S
C62 H75 0.928 . S
H63 C39 0.931 . S
H64 C41 0.930 . S
H65 C43 0.929 . S
H66 C44 0.931 . S
H67 C46 0.930 1_556 S
H68 C50 0.931 . S
H69 C48 0.931 . S
H70 C52 0.931 . S
H71 C53 0.929 . S
H72 C54 0.930 . S
H73 C57 0.930 . S
H74 C58 0.931 . S
H75 C62 0.928 . S
H76 C61 0.929 . S
H77 C59 0.932 . S
C78 C79 1.397 . S
C78 C80 1.397 . S
C78 H102 0.931 . S
C79 C78 1.397 . S
C79 C83 1.387 1_565 S
C80 C78 1.397 . S
C80 C81 1.389 . S
C80 H103 0.930 . S
C81 C80 1.389 . S
C81 C82 1.371 1_565 S
C81 C84 1.479 . S
C82 C81 1.371 1_545 S
C82 C83 1.389 . S
C82 H104 0.929 . S
C83 C79 1.387 1_545 S
C83 C82 1.389 . S
C83 H105 0.931 . S
C84 C81 1.479 . S
C84 C85 1.396 . S
C84 C89 1.387 1_556 S
C85 C84 1.396 . S
C85 C86 1.401 . S
C85 H106 0.930 . S
C86 C85 1.401 . S
C86 C87 1.378 1_556 S
C86 C95 1.520 . S
C87 C86 1.378 1_554 S
C87 C88 1.382 . S
C87 H108 0.937 . S
C88 C87 1.382 . S
C88 C89 1.362 . S
C88 C90 1.495 1_565 S
C89 C84 1.387 1_554 S
C89 C88 1.362 . S
C89 H107 0.929 . S
C90 C88 1.495 1_545 S
C90 C91 1.363 1_545 S
C90 C92 1.377 . S
C91 C90 1.363 1_565 S
C91 C101 1.386 . S
C91 H109 0.931 . S
C92 C90 1.377 . S
C92 C93 1.409 . S
C92 H110 0.929 . S
C93 C92 1.409 . S
C93 C94 1.378 . S
C93 H111 0.930 . S
C94 C93 1.378 . S
C94 C101 1.361 1_545 S
C95 C86 1.520 . S
C95 C96 1.341 . S
C95 C97 1.371 1_566 S
C96 C95 1.341 . S
C96 C100 1.394 . S
C96 H112 0.930 . S
C97 C95 1.371 1_544 S
C97 C98 1.392 1_554 S
C97 H113 0.931 . S
C98 C97 1.392 1_556 S
C98 C99 1.318 1_545 S
C98 H116 0.932 1_556 S
C99 C98 1.318 1_565 S
C99 C100 1.344 . S
C100 C96 1.394 . S
C100 C99 1.344 . S
C100 H115 0.929 . S
C101 C91 1.386 . S
C101 C94 1.361 1_565 S
C101 H114 0.928 . S
H102 C78 0.931 . S
H103 C80 0.930 . S
H104 C82 0.929 . S
H105 C83 0.931 . S
H106 C85 0.930 . S
H107 C89 0.929 . S
H108 C87 0.937 . S
H109 C91 0.931 . S
H110 C92 0.929 . S
H111 C93 0.930 . S
H112 C96 0.930 . S
H113 C97 0.931 . S
H114 C101 0.928 . S
H115 C100 0.929 . S
H116 C98 0.932 1_554 S
C117 C118 1.386 . S
C117 C119 1.397 . S
C117 H141 0.931 . S
C118 C117 1.386 . S
C118 C122 1.397 . S
C119 C117 1.397 . S
C119 C120 1.384 . S
C119 H142 0.930 . S
C120 C119 1.384 . S
C120 C121 1.377 . S
C120 C123 1.481 . S
C121 C120 1.377 . S
C121 C122 1.389 . S
C121 H143 0.929 . S
C122 C118 1.397 . S
C122 C121 1.389 . S
C122 H144 0.931 . S
C123 C120 1.481 . S
C123 C124 1.387 . S
C123 C128 1.390 . S
C124 C123 1.387 . S
C124 C125 1.401 . S
C124 H145 0.930 . S
C125 C124 1.401 . S
C125 C126 1.376 . S
C125 C134 1.511 . S
C126 C125 1.376 . S
C126 C127 1.392 . S
C126 H147 0.931 . S
C127 C126 1.392 . S
C127 C128 1.361 . S
C127 C129 1.500 . S
C128 C123 1.390 . S
C128 C127 1.361 . S
C128 H146 0.931 . S
C129 C127 1.500 . S
C129 C130 1.371 . S
C129 C131 1.365 . S
C130 C129 1.371 . S
C130 C140 1.386 . S
C130 H148 0.931 . S
C131 C129 1.365 . S
C131 C132 1.409 . S
C131 H149 0.929 . S
C132 C131 1.409 . S
C132 C133 1.380 . S
C132 H150 0.930 . S
C133 C132 1.380 . S
C133 C140 1.357 . S
C134 C125 1.511 . S
C134 C135 1.341 . S
C134 C136 1.371 . S
C135 C134 1.341 . S
C135 C139 1.394 . S
C135 H151 0.930 . S
C136 C134 1.371 . S
C136 C137 1.392 . S
C136 H152 0.931 . S
C137 C136 1.392 . S
C137 C138 1.331 . S
C137 H155 0.932 . S
C138 C137 1.331 . S
C138 C139 1.336 . S
C139 C135 1.394 . S
C139 C138 1.336 . S
C139 H154 0.929 . S
C140 C130 1.386 . S
C140 C133 1.357 . S
C140 H153 0.928 . S
H141 C117 0.931 . S
H142 C119 0.930 . S
H143 C121 0.929 . S
H144 C122 0.931 . S
H145 C124 0.930 . S
H146 C128 0.931 . S
H147 C126 0.931 . S
H148 C130 0.931 . S
H149 C131 0.929 . S
H150 C132 0.930 . S
H151 C135 0.930 . S
H152 C136 0.931 . S
H153 C140 0.928 . S
H154 C139 0.929 . S
H155 C137 0.932 . S
C156 C157 1.386 . S
C156 C158 1.397 . S
C156 H180 0.931 . S
C157 C156 1.386 . S
C157 C161 1.397 . S
C158 C156 1.397 . S
C158 C159 1.384 . S
C158 H181 0.930 . S
C159 C158 1.384 . S
C159 C160 1.377 . S
C159 C162 1.481 . S
C160 C159 1.377 . S
C160 C161 1.389 . S
C160 H182 0.929 . S
C161 C157 1.397 . S
C161 C160 1.389 . S
C161 H183 0.931 . S
C162 C159 1.481 . S
C162 C163 1.387 . S
C162 C167 1.390 . S
C163 C162 1.387 . S
C163 C164 1.401 . S
C163 H184 0.930 . S
C164 C163 1.401 . S
C164 C165 1.376 . S
C164 C173 1.511 . S
C165 C164 1.376 . S
C165 C166 1.392 . S
C165 H186 0.931 . S
C166 C165 1.392 . S
C166 C167 1.361 . S
C166 C168 1.500 . S
C167 C162 1.390 . S
C167 C166 1.361 . S
C167 H185 0.931 . S
C168 C166 1.500 . S
C168 C169 1.371 . S
C168 C170 1.365 . S
C169 C168 1.371 . S
C169 C179 1.386 . S
C169 H187 0.931 . S
C170 C168 1.365 . S
C170 C171 1.409 . S
C170 H188 0.929 . S
C171 C170 1.409 . S
C171 C172 1.380 . S
C171 H189 0.930 . S
C172 C171 1.380 . S
C172 C179 1.357 . S
C173 C164 1.511 . S
C173 C174 1.341 . S
C173 C175 1.371 . S
C174 C173 1.341 . S
C174 C178 1.394 . S
C174 H190 0.930 . S
C175 C173 1.371 . S
C175 C176 1.392 . S
C175 H191 0.931 . S
C176 C175 1.392 . S
C176 C177 1.331 . S
C176 H194 0.932 . S
C177 C176 1.331 . S
C177 C178 1.336 . S
C178 C174 1.394 . S
C178 C177 1.336 . S
C178 H193 0.929 . S
C179 C169 1.386 . S
C179 C172 1.357 . S
C179 H192 0.928 . S
H180 C156 0.931 . S
H181 C158 0.930 . S
H182 C160 0.929 . S
H183 C161 0.931 . S
H184 C163 0.930 . S
H185 C167 0.931 . S
H186 C165 0.931 . S
H187 C169 0.931 . S
H188 C170 0.929 . S
H189 C171 0.930 . S
H190 C174 0.930 . S
H191 C175 0.931 . S
H192 C179 0.928 . S
H193 C178 0.929 . S
H194 C176 0.932 . S
C195 C196 1.386 . S
C195 C197 1.397 . S
C195 H219 0.931 . S
C196 C195 1.386 . S
C196 C200 1.397 . S
C197 C195 1.397 . S
C197 C198 1.384 . S
C197 H220 0.930 . S
C198 C197 1.384 . S
C198 C199 1.377 . S
C198 C201 1.481 . S
C199 C198 1.377 . S
C199 C200 1.389 . S
C199 H221 0.929 . S
C200 C196 1.397 . S
C200 C199 1.389 . S
C200 H222 0.931 . S
C201 C198 1.481 . S
C201 C202 1.387 . S
C201 C206 1.390 . S
C202 C201 1.387 . S
C202 C203 1.401 . S
C202 H223 0.930 . S
C203 C202 1.401 . S
C203 C204 1.376 . S
C203 C212 1.511 . S
C204 C203 1.376 . S
C204 C205 1.392 . S
C204 H225 0.931 . S
C205 C204 1.392 . S
C205 C206 1.361 . S
C205 C207 1.500 . S
C206 C201 1.390 . S
C206 C205 1.361 . S
C206 H224 0.931 . S
C207 C205 1.500 . S
C207 C208 1.371 . S
C207 C209 1.365 . S
C208 C207 1.371 . S
C208 C218 1.386 . S
C208 H226 0.931 . S
C209 C207 1.365 . S
C209 C210 1.409 . S
C209 H227 0.929 . S
C210 C209 1.409 . S
C210 C211 1.380 . S
C210 H228 0.930 . S
C211 C210 1.380 . S
C211 C218 1.357 . S
C212 C203 1.511 . S
C212 C213 1.341 . S
C212 C214 1.371 . S
C213 C212 1.341 . S
C213 C217 1.394 . S
C213 H229 0.930 . S
C214 C212 1.371 . S
C214 C215 1.392 . S
C214 H230 0.931 . S
C215 C214 1.392 . S
C215 C216 1.331 . S
C215 H233 0.932 . S
C216 C215 1.331 . S
C216 C217 1.336 . S
C217 C213 1.394 . S
C217 C216 1.336 . S
C217 H232 0.929 . S
C218 C208 1.386 . S
C218 C211 1.357 . S
C218 H231 0.928 . S
H219 C195 0.931 . S
H220 C197 0.930 . S
H221 C199 0.929 . S
H222 C200 0.931 . S
H223 C202 0.930 . S
H224 C206 0.931 . S
H225 C204 0.931 . S
H226 C208 0.931 . S
H227 C209 0.929 . S
H228 C210 0.930 . S
H229 C213 0.930 . S
H230 C214 0.931 . S
H231 C218 0.928 . S
H232 C217 0.929 . S
H233 C215 0.932 . S
C234 C235 1.386 . S
C234 C236 1.397 . S
C234 H258 0.931 . S
C235 C234 1.386 . S
C235 C239 1.397 1_565 S
C236 C234 1.397 . S
C236 C237 1.381 . S
C236 H259 0.930 . S
C237 C236 1.381 . S
C237 C238 1.380 1_565 S
C237 C240 1.482 . S
C238 C237 1.380 1_545 S
C238 C239 1.389 . S
C238 H260 0.929 . S
C239 C235 1.397 1_545 S
C239 C238 1.389 . S
C239 H261 0.931 . S
C240 C237 1.482 . S
C240 C241 1.395 . S
C240 C245 1.393 . S
C241 C240 1.395 . S
C241 C242 1.398 . S
C241 H262 0.926 . S
C242 C241 1.398 . S
C242 C243 1.374 . S
C242 C251 1.508 . S
C243 C242 1.374 . S
C243 C244 1.398 1_565 S
C243 H264 0.932 . S
C244 C243 1.398 1_545 S
C244 C245 1.361 1_545 S
C244 C246 1.505 . S
C245 C240 1.393 . S
C245 C244 1.361 1_565 S
C245 H263 0.930 1_565 S
C246 C244 1.505 . S
C246 C247 1.358 1_545 S
C246 C248 1.374 . S
C247 C246 1.358 1_565 S
C247 C257 1.386 . S
C247 H265 0.931 . S
C248 C246 1.374 . S
C248 C249 1.409 . S
C248 H266 0.929 . S
C249 C248 1.409 . S
C249 C250 1.384 . S
C249 H267 0.930 . S
C250 C249 1.384 . S
C250 C257 1.355 1_545 S
C251 C242 1.508 . S
C251 C252 1.341 . S
C251 C253 1.371 1_565 S
C252 C251 1.341 . S
C252 C256 1.394 . S
C252 H268 0.930 . S
C253 C251 1.371 1_545 S
C253 C254 1.392 . S
C253 H269 0.931 . S
C254 C253 1.392 . S
C254 C255 1.329 1_545 S
C254 H272 0.932 . S
C255 C254 1.329 1_565 S
C255 C256 1.342 . S
C256 C252 1.394 . S
C256 C255 1.342 . S
C256 H271 0.929 . S
C257 C247 1.386 . S
C257 C250 1.355 1_565 S
C257 H270 0.928 . S
H258 C234 0.931 . S
H259 C236 0.930 . S
H260 C238 0.929 . S
H261 C239 0.931 . S
H262 C241 0.926 . S
H263 C245 0.930 1_545 S
H264 C243 0.932 . S
H265 C247 0.931 . S
H266 C248 0.929 . S
H267 C249 0.930 . S
H268 C252 0.930 . S
H269 C253 0.931 . S
H270 C257 0.928 . S
H271 C256 0.929 . S
H272 C254 0.932 . S
C273 C274 1.386 . S
C273 C275 1.397 . S
C273 H297 0.931 . S
C274 C273 1.386 . S
C274 C278 1.397 . S
C275 C273 1.397 . S
C275 C276 1.384 . S
C275 H298 0.930 . S
C276 C275 1.384 . S
C276 C277 1.377 . S
C276 C279 1.481 . S
C277 C276 1.377 . S
C277 C278 1.389 . S
C277 H299 0.929 . S
C278 C274 1.397 . S
C278 C277 1.389 . S
C278 H300 0.931 . S
C279 C276 1.481 . S
C279 C280 1.387 . S
C279 C284 1.390 . S
C280 C279 1.387 . S
C280 C281 1.401 . S
C280 H301 0.930 . S
C281 C280 1.401 . S
C281 C282 1.376 . S
C281 C290 1.511 . S
C282 C281 1.376 . S
C282 C283 1.392 . S
C282 H303 0.931 . S
C283 C282 1.392 . S
C283 C284 1.361 . S
C283 C285 1.500 . S
C284 C279 1.390 . S
C284 C283 1.361 . S
C284 H302 0.931 . S
C285 C283 1.500 . S
C285 C286 1.371 . S
C285 C287 1.365 . S
C286 C285 1.371 . S
C286 C296 1.386 . S
C286 H304 0.931 . S
C287 C285 1.365 . S
C287 C288 1.409 . S
C287 H305 0.929 . S
C288 C287 1.409 . S
C288 C289 1.380 . S
C288 H306 0.930 . S
C289 C288 1.380 . S
C289 C296 1.357 . S
C290 C281 1.511 . S
C290 C291 1.341 . S
C290 C292 1.371 . S
C291 C290 1.341 . S
C291 C295 1.394 . S
C291 H307 0.930 . S
C292 C290 1.371 . S
C292 C293 1.392 . S
C292 H308 0.931 . S
C293 C292 1.392 . S
C293 C294 1.331 . S
C293 H311 0.932 . S
C294 C293 1.331 . S
C294 C295 1.336 . S
C295 C291 1.394 . S
C295 C294 1.336 . S
C295 H310 0.929 . S
C296 C286 1.386 . S
C296 C289 1.357 . S
C296 H309 0.928 . S
H297 C273 0.931 . S
H298 C275 0.930 . S
H299 C277 0.929 . S
H300 C278 0.931 . S
H301 C280 0.930 . S
H302 C284 0.931 . S
H303 C282 0.931 . S
H304 C286 0.931 . S
H305 C287 0.929 . S
H306 C288 0.930 . S
H307 C291 0.930 . S
H308 C292 0.931 . S
H309 C296 0.928 . S
H310 C295 0.929 . S
H311 C293 0.932 . S
Nd312 C314 2.836 1_455 S
Nd312 O332 2.500 1_455 S
Nd312 O333 2.492 . S
Nd312 O334 2.487 . S
Nd312 O335 2.678 1_565 S
Nd312 O336 2.410 . S
Nd312 O341 2.427 1_455 S
Nd312 O343 2.424 1_565 S
Nd313 C323 2.836 . S
Nd313 O335 2.432 . S
Nd313 O337 2.424 1_545 S
Nd313 O338 2.500 . S
Nd313 O339 2.492 . S
Nd313 O340 2.487 1_455 S
Nd313 O341 2.679 1_445 S
Nd313 O342 2.410 . S
C314 Nd312 2.836 1_655 S
C314 C315 1.498 . S
C314 O332 1.258 . S
C314 O333 1.239 1_655 S
C315 C314 1.498 . S
C315 C316 1.366 . S
C315 C320 1.407 . S
C316 C315 1.366 . S
C316 C317 1.392 . S
C316 H344 0.930 . S
C317 C316 1.392 . S
C317 C318 1.398 . S
C317 H345 0.929 . S
C318 C317 1.398 . S
C318 C319 1.352 . S
C319 C318 1.352 . S
C319 C320 1.384 . S
C319 H346 0.930 . S
C320 C315 1.407 . S
C320 C319 1.384 . S
C320 H347 0.929 1_655 S
C321 O334 1.241 . S
C321 O335 1.248 1_565 S
C322 O336 1.251 . S
C322 O337 1.268 . S
C323 Nd313 2.836 . S
C323 C324 1.498 . S
C323 O338 1.258 . S
C323 O339 1.239 . S
C324 C323 1.498 . S
C324 C325 1.366 . S
C324 C329 1.407 . S
C325 C324 1.366 . S
C325 C326 1.392 . S
C325 H348 0.930 . S
C326 C325 1.392 . S
C326 C327 1.398 . S
C326 H349 0.929 . S
C327 C326 1.398 . S
C327 C328 1.352 1_556 S
C328 C327 1.352 1_554 S
C328 C329 1.384 1_554 S
C328 H350 0.930 . S
C329 C324 1.407 . S
C329 C328 1.384 1_556 S
C329 H351 0.929 . S
C330 O340 1.241 . S
C330 O341 1.254 1_545 S
C331 O342 1.251 . S
C331 O343 1.268 . S
O332 Nd312 2.500 1_655 S
O332 C314 1.258 . S
O333 Nd312 2.492 . S
O333 C314 1.239 1_455 S
O334 Nd312 2.487 . S
O334 C321 1.241 . S
O335 Nd312 2.678 1_545 S
O335 Nd313 2.432 . S
O335 C321 1.248 1_545 S
O336 Nd312 2.410 . S
O336 C322 1.251 . S
O337 Nd313 2.424 1_565 S
O337 C322 1.268 . S
O338 Nd313 2.500 . S
O338 C323 1.258 . S
O339 Nd313 2.492 . S
O339 C323 1.239 . S
O340 Nd313 2.487 1_655 S
O340 C330 1.241 . S
O341 Nd312 2.427 1_655 S
O341 Nd313 2.679 1_665 S
O341 C330 1.254 1_565 S
O342 Nd313 2.410 . S
O342 C331 1.251 . S
O343 Nd312 2.424 1_545 S
O343 C331 1.268 . S
H344 C316 0.930 . S
H345 C317 0.929 . S
H346 C319 0.930 . S
H347 C320 0.929 1_455 S
H348 C325 0.930 . S
H349 C326 0.929 . S
H350 C328 0.930 . S
H351 C329 0.929 . S
Nd352 C354 2.836 . S
Nd352 O372 2.500 . S
Nd352 O373 2.492 1_565 S
Nd352 O374 2.487 1_565 S
Nd352 O375 2.682 1_565 S
Nd352 O376 2.410 1_565 S
Nd352 O381 2.414 . S
Nd352 O383 2.424 . S
Nd353 C363 2.836 . S
Nd353 O375 2.414 . S
Nd353 O377 2.424 . S
Nd353 O378 2.500 . S
Nd353 O379 2.492 1_545 S
Nd353 O380 2.487 1_545 S
Nd353 O381 2.682 1_545 S
Nd353 O382 2.410 1_545 S
C354 Nd352 2.836 . S
C354 C355 1.498 . S
C354 O372 1.258 . S
C354 O373 1.222 1_565 S
C355 C354 1.498 . S
C355 C356 1.366 . S
C355 C360 1.407 . S
C356 C355 1.366 . S
C356 C357 1.392 . S
C356 H384 0.930 . S
C357 C356 1.392 . S
C357 C358 1.398 . S
C357 H385 0.929 . S
C358 C357 1.398 . S
C358 C359 1.352 . S
C359 C358 1.352 . S
C359 C360 1.384 . S
C359 H386 0.926 1_565 S
C360 C355 1.407 . S
C360 C359 1.384 . S
C360 H387 0.929 1_565 S
C361 O374 1.241 . S
C361 O375 1.273 . S
C362 O376 1.251 . S
C362 O377 1.268 . S
C363 Nd353 2.836 . S
C363 C364 1.498 . S
C363 O378 1.258 . S
C363 O379 1.233 1_545 S
C364 C363 1.498 . S
C364 C365 1.366 . S
C364 C369 1.407 . S
C365 C364 1.366 . S
C365 C366 1.392 . S
C365 H388 0.930 . S
C366 C365 1.392 . S
C366 C367 1.398 . S
C366 H389 0.929 . S
C367 C366 1.398 . S
C367 C368 1.352 1_556 S
C368 C367 1.352 1_554 S
C368 C369 1.384 1_554 S
C368 H390 0.932 1_545 S
C369 C364 1.407 . S
C369 C368 1.384 1_556 S
C369 H391 0.929 1_546 S
C370 O380 1.241 . S
C370 O381 1.273 . S
C371 O382 1.251 . S
C371 O383 1.268 . S
O372 Nd352 2.500 . S
O372 C354 1.258 . S
O373 Nd352 2.492 1_545 S
O373 C354 1.222 1_545 S
O374 Nd352 2.487 1_545 S
O374 C361 1.241 . S
O375 Nd352 2.682 1_545 S
O375 Nd353 2.414 . S
O375 C361 1.273 . S
O376 Nd352 2.410 1_545 S
O376 C362 1.251 . S
O377 Nd353 2.424 . S
O377 C362 1.268 . S
O378 Nd353 2.500 . S
O378 C363 1.258 . S
O379 Nd353 2.492 1_565 S
O379 C363 1.233 1_565 S
O380 Nd353 2.487 1_565 S
O380 C370 1.241 . S
O381 Nd352 2.414 . S
O381 Nd353 2.682 1_565 S
O381 C370 1.273 . S
O382 Nd353 2.410 1_565 S
O382 C371 1.251 . S
O383 Nd352 2.424 . S
O383 C371 1.268 . S
H384 C356 0.930 . S
H385 C357 0.929 . S
H386 C359 0.926 1_545 S
H387 C360 0.929 1_545 S
H388 C365 0.930 . S
H389 C366 0.929 . S
H390 C368 0.932 1_565 S
H391 C369 0.929 1_564 S
Nd392 C394 2.836 . S
Nd392 O412 2.500 . S
Nd392 O413 2.492 . S
Nd392 O414 2.487 . S
Nd392 O415 2.682 . S
Nd392 O416 2.410 . S
Nd392 O421 2.414 . S
Nd392 O423 2.424 . S
Nd393 C403 2.836 . S
Nd393 O415 2.414 . S
Nd393 O417 2.424 . S
Nd393 O418 2.500 . S
Nd393 O419 2.492 . S
Nd393 O420 2.487 . S
Nd393 O421 2.682 . S
Nd393 O422 2.410 . S
C394 Nd392 2.836 . S
C394 C395 1.498 . S
C394 O412 1.258 . S
C394 O413 1.239 . S
C395 C394 1.498 . S
C395 C396 1.366 . S
C395 C400 1.407 . S
C396 C395 1.366 . S
C396 C397 1.392 . S
C396 H424 0.930 . S
C397 C396 1.392 . S
C397 C398 1.398 . S
C397 H425 0.929 . S
C398 C397 1.398 . S
C398 C399 1.352 . S
C399 C398 1.352 . S
C399 C400 1.384 . S
C399 H426 0.930 . S
C400 C395 1.407 . S
C400 C399 1.384 . S
C400 H427 0.929 . S
C401 O414 1.241 . S
C401 O415 1.273 . S
C402 O416 1.251 . S
C402 O417 1.268 . S
C403 Nd393 2.836 . S
C403 C404 1.498 . S
C403 O418 1.258 . S
C403 O419 1.239 . S
C404 C403 1.498 . S
C404 C405 1.366 . S
C404 C409 1.407 . S
C405 C404 1.366 . S
C405 C406 1.392 . S
C405 H428 0.930 . S
C406 C405 1.392 . S
C406 C407 1.398 . S
C406 H429 0.929 . S
C407 C406 1.398 . S
C407 C408 1.352 . S
C408 C407 1.352 . S
C408 C409 1.384 . S
C408 H430 0.930 . S
C409 C404 1.407 . S
C409 C408 1.384 . S
C409 H431 0.929 . S
C410 O420 1.241 . S
C410 O421 1.273 . S
C411 O422 1.251 . S
C411 O423 1.268 . S
O412 Nd392 2.500 . S
O412 C394 1.258 . S
O413 Nd392 2.492 . S
O413 C394 1.239 . S
O414 Nd392 2.487 . S
O414 C401 1.241 . S
O415 Nd392 2.682 . S
O415 Nd393 2.414 . S
O415 C401 1.273 . S
O416 Nd392 2.410 . S
O416 C402 1.251 . S
O417 Nd393 2.424 . S
O417 C402 1.268 . S
O418 Nd393 2.500 . S
O418 C403 1.258 . S
O419 Nd393 2.492 . S
O419 C403 1.239 . S
O420 Nd393 2.487 . S
O420 C410 1.241 . S
O421 Nd392 2.414 . S
O421 Nd393 2.682 . S
O421 C410 1.273 . S
O422 Nd393 2.410 . S
O422 C411 1.251 . S
O423 Nd392 2.424 . S
O423 C411 1.268 . S
H424 C396 0.930 . S
H425 C397 0.929 . S
H426 C399 0.930 . S
H427 C400 0.929 . S
H428 C405 0.930 . S
H429 C406 0.929 . S
H430 C408 0.930 . S
H431 C409 0.929 . S
Nd432 C434 2.836 1_455 S
Nd432 O452 2.500 1_455 S
Nd432 O453 2.492 1_455 S
Nd432 O454 2.487 . S
Nd432 O455 2.682 . S
Nd432 O456 2.410 1_455 S
Nd432 O461 2.414 . S
Nd432 O463 2.424 . S
Nd433 C443 2.836 . S
Nd433 O455 2.414 . S
Nd433 O457 2.424 1_455 S
Nd433 O458 2.500 . S
Nd433 O459 2.492 . S
Nd433 O460 2.487 . S
Nd433 O461 2.682 . S
Nd433 O462 2.410 . S
C434 Nd432 2.836 1_655 S
C434 C435 1.498 . S
C434 O452 1.258 . S
C434 O453 1.239 . S
C435 C434 1.498 . S
C435 C436 1.366 . S
C435 C440 1.407 . S
C436 C435 1.366 . S
C436 C437 1.392 . S
C436 H464 0.930 . S
C437 C436 1.392 . S
C437 C438 1.398 . S
C437 H465 0.929 . S
C438 C437 1.398 . S
C438 C439 1.352 . S
C439 C438 1.352 . S
C439 C440 1.384 . S
C439 H466 0.930 . S
C440 C435 1.407 . S
C440 C439 1.384 . S
C440 H467 0.929 . S
C441 O454 1.241 . S
C441 O455 1.273 . S
C442 O456 1.251 . S
C442 O457 1.268 . S
C443 Nd433 2.836 . S
C443 C444 1.498 . S
C443 O458 1.258 . S
C443 O459 1.239 . S
C444 C443 1.498 . S
C444 C445 1.366 . S
C444 C449 1.407 . S
C445 C444 1.366 . S
C445 C446 1.392 . S
C445 H468 0.930 . S
C446 C445 1.392 . S
C446 C447 1.398 . S
C446 H469 0.929 . S
C447 C446 1.398 . S
C447 C448 1.352 1_556 S
C448 C447 1.352 1_554 S
C448 C449 1.384 1_554 S
C448 H470 0.930 . S
C449 C444 1.407 . S
C449 C448 1.384 1_556 S
C449 H471 0.929 . S
C450 O460 1.241 . S
C450 O461 1.273 . S
C451 O462 1.251 . S
C451 O463 1.268 . S
O452 Nd432 2.500 1_655 S
O452 C434 1.258 . S
O453 Nd432 2.492 1_655 S
O453 C434 1.239 . S
O454 Nd432 2.487 . S
O454 C441 1.241 . S
O455 Nd432 2.682 . S
O455 Nd433 2.414 . S
O455 C441 1.273 . S
O456 Nd432 2.410 1_655 S
O456 C442 1.251 . S
O457 Nd433 2.424 1_655 S
O457 C442 1.268 . S
O458 Nd433 2.500 . S
O458 C443 1.258 . S
O459 Nd433 2.492 . S
O459 C443 1.239 . S
O460 Nd433 2.487 . S
O460 C450 1.241 . S
O461 Nd432 2.414 . S
O461 Nd433 2.682 . S
O461 C450 1.273 . S
O462 Nd433 2.410 . S
O462 C451 1.251 . S
O463 Nd432 2.424 . S
O463 C451 1.268 . S
H464 C436 0.930 . S
H465 C437 0.929 . S
H466 C439 0.930 . S
H467 C440 0.929 . S
H468 C445 0.930 . S
H469 C446 0.929 . S
H470 C448 0.930 . S
H471 C449 0.929 . S
H472 C480 0.929 . S
H473 C482 0.930 . S
H474 C484 0.940 . S
H475 C487 0.929 . S
H476 C490 0.930 . S
H477 C492 0.960 . S
H478 C492 0.960 . S
H479 C492 0.960 . S
C480 H472 0.929 . S
C480 C481 1.377 . S
C480 C482 1.384 . S
C481 C480 1.377 . S
C481 C487 1.389 1_565 S
C482 H473 0.930 . S
C482 C480 1.384 . S
C482 C483 1.372 . S
C483 C482 1.372 . S
C483 C484 1.404 1_565 S
C483 C488 1.504 . S
C484 H474 0.940 . S
C484 C483 1.404 1_545 S
C484 C487 1.376 . S
H485 C501 0.930 . S
H486 C502 0.931 . S
C487 H475 0.929 . S
C487 C481 1.389 1_545 S
C487 C484 1.376 . S
C488 C483 1.504 . S
C488 C490 1.346 1_565 S
C488 C491 1.439 . S
H489 C495 0.930 . S
C490 H476 0.930 . S
C490 C488 1.346 1_545 S
C490 C493 1.403 . S
C491 C488 1.439 . S
C491 C492 1.524 . S
C491 C495 1.400 . S
C492 H477 0.960 . S
C492 H478 0.960 . S
C492 H479 0.960 . S
C492 C491 1.524 . S
C493 C490 1.403 . S
C493 C494 1.420 . S
C493 C497 1.495 . S
C494 C493 1.420 . S
C494 C495 1.347 1_545 S
C494 C496 1.478 . S
C495 H489 0.930 . S
C495 C491 1.400 . S
C495 C494 1.347 1_565 S
C496 C494 1.478 . S
C496 C498 1.379 1_545 S
C496 C502 1.393 . S
C497 C493 1.495 . S
C497 H503 0.959 . S
C497 H504 0.961 . S
C497 H505 0.960 . S
C498 C496 1.379 1_565 S
C498 C499 1.394 . S
C498 H506 0.930 . S
C499 C498 1.394 . S
C499 C500 1.383 . S
C499 H507 0.929 . S
C500 C499 1.383 . S
C500 C501 1.377 1_565 S
C501 H485 0.930 . S
C501 C500 1.377 1_545 S
C501 C502 1.379 . S
C502 H486 0.931 . S
C502 C496 1.393 . S
C502 C501 1.379 . S
H503 C497 0.959 . S
H504 C497 0.961 . S
H505 C497 0.960 . S
H506 C498 0.930 . S
H507 C499 0.929 . S
H508 C516 0.929 . S
H509 C518 0.930 . S
H510 C520 0.930 . S
H511 C523 0.929 . S
H512 C526 0.930 . S
H513 C528 0.960 . S
H514 C528 0.960 . S
H515 C528 0.960 . S
C516 H508 0.929 . S
C516 C517 1.377 . S
C516 C518 1.384 . S
C517 C516 1.377 . S
C517 C523 1.390 . S
C518 H509 0.930 . S
C518 C516 1.384 . S
C518 C519 1.372 . S
C519 C518 1.372 . S
C519 C520 1.400 . S
C519 C524 1.490 . S
C520 H510 0.930 . S
C520 C519 1.400 . S
C520 C523 1.386 . S
H521 C537 0.930 . S
H522 C538 0.931 . S
C523 H511 0.929 . S
C523 C517 1.390 . S
C523 C520 1.386 . S
C524 C519 1.490 . S
C524 C526 1.395 . S
C524 C527 1.403 . S
H525 C531 0.930 . S
C526 H512 0.930 . S
C526 C524 1.395 . S
C526 C529 1.403 . S
C527 C524 1.403 . S
C527 C528 1.524 . S
C527 C531 1.400 . S
C528 H513 0.960 . S
C528 H514 0.960 . S
C528 H515 0.960 . S
C528 C527 1.524 . S
C529 C526 1.403 . S
C529 C530 1.392 . S
C529 C533 1.495 . S
C530 C529 1.392 . S
C530 C531 1.385 . S
C530 C532 1.478 . S
C531 H525 0.930 . S
C531 C527 1.400 . S
C531 C530 1.385 . S
C532 C530 1.478 . S
C532 C534 1.381 . S
C532 C538 1.383 . S
C533 C529 1.495 . S
C533 H539 0.959 . S
C533 H540 0.961 . S
C533 H541 0.960 . S
C534 C532 1.381 . S
C534 C535 1.394 . S
C534 H542 0.930 . S
C535 C534 1.394 . S
C535 C536 1.383 . S
C535 H543 0.929 . S
C536 C535 1.383 . S
C536 C537 1.377 . S
C537 H521 0.930 . S
C537 C536 1.377 . S
C537 C538 1.379 . S
C538 H522 0.931 . S
C538 C532 1.383 . S
C538 C537 1.379 . S
H539 C533 0.959 . S
H540 C533 0.961 . S
H541 C533 0.960 . S
H542 C534 0.930 . S
H543 C535 0.929 . S
H544 C552 0.929 . S
H545 C554 0.930 . S
H546 C556 0.930 . S
H547 C559 0.929 . S
H548 C562 0.930 . S
H549 C564 0.960 . S
H550 C564 0.960 . S
H551 C564 0.960 . S
C552 H544 0.929 . S
C552 C553 1.377 . S
C552 C554 1.384 . S
C553 C552 1.377 . S
C553 C559 1.390 . S
C554 H545 0.930 . S
C554 C552 1.384 . S
C554 C555 1.372 . S
C555 C554 1.372 . S
C555 C556 1.400 . S
C555 C560 1.490 . S
C556 H546 0.930 . S
C556 C555 1.400 . S
C556 C559 1.386 . S
H557 C573 0.930 . S
H558 C574 0.931 . S
C559 H547 0.929 . S
C559 C553 1.390 . S
C559 C556 1.386 . S
C560 C555 1.490 . S
C560 C562 1.395 . S
C560 C563 1.403 . S
H561 C567 0.930 . S
C562 H548 0.930 . S
C562 C560 1.395 . S
C562 C565 1.403 . S
C563 C560 1.403 . S
C563 C564 1.524 . S
C563 C567 1.400 . S
C564 H549 0.960 . S
C564 H550 0.960 . S
C564 H551 0.960 . S
C564 C563 1.524 . S
C565 C562 1.403 . S
C565 C566 1.392 . S
C565 C569 1.495 . S
C566 C565 1.392 . S
C566 C567 1.385 . S
C566 C568 1.478 . S
C567 H561 0.930 . S
C567 C563 1.400 . S
C567 C566 1.385 . S
C568 C566 1.478 . S
C568 C570 1.381 . S
C568 C574 1.383 . S
C569 C565 1.495 . S
C569 H575 0.959 . S
C569 H576 0.961 . S
C569 H577 0.960 . S
C570 C568 1.381 . S
C570 C571 1.394 . S
C570 H578 0.930 . S
C571 C570 1.394 . S
C571 C572 1.383 . S
C571 H579 0.929 . S
C572 C571 1.383 . S
C572 C573 1.377 . S
C573 H557 0.930 . S
C573 C572 1.377 . S
C573 C574 1.379 . S
C574 H558 0.931 . S
C574 C568 1.383 . S
C574 C573 1.379 . S
H575 C569 0.959 . S
H576 C569 0.961 . S
H577 C569 0.960 . S
H578 C570 0.930 . S
H579 C571 0.929 . S
H580 C588 0.929 . S
H581 C590 0.930 . S
H582 C592 0.930 . S
H583 C595 0.929 . S
H584 C598 0.930 . S
H585 C600 0.960 . S
H586 C600 0.960 . S
H587 C600 0.960 . S
C588 H580 0.929 . S
C588 C589 1.377 . S
C588 C590 1.384 . S
C589 C588 1.377 . S
C589 C595 1.390 . S
C590 H581 0.930 . S
C590 C588 1.384 . S
C590 C591 1.372 . S
C591 C590 1.372 . S
C591 C592 1.400 . S
C591 C596 1.490 . S
C592 H582 0.930 . S
C592 C591 1.400 . S
C592 C595 1.386 . S
H593 C609 0.930 . S
H594 C610 0.931 . S
C595 H583 0.929 . S
C595 C589 1.390 . S
C595 C592 1.386 . S
C596 C591 1.490 . S
C596 C598 1.395 . S
C596 C599 1.403 . S
H597 C603 0.930 . S
C598 H584 0.930 . S
C598 C596 1.395 . S
C598 C601 1.403 . S
C599 C596 1.403 . S
C599 C600 1.524 . S
C599 C603 1.400 . S
C600 H585 0.960 . S
C600 H586 0.960 . S
C600 H587 0.960 . S
C600 C599 1.524 . S
C601 C598 1.403 . S
C601 C602 1.392 . S
C601 C605 1.495 . S
C602 C601 1.392 . S
C602 C603 1.385 . S
C602 C604 1.478 . S
C603 H597 0.930 . S
C603 C599 1.400 . S
C603 C602 1.385 . S
C604 C602 1.478 . S
C604 C606 1.381 . S
C604 C610 1.383 . S
C605 C601 1.495 . S
C605 H611 0.959 . S
C605 H612 0.961 . S
C605 H613 0.960 . S
C606 C604 1.381 . S
C606 C607 1.394 . S
C606 H614 0.930 . S
C607 C606 1.394 . S
C607 C608 1.383 . S
C607 H615 0.929 . S
C608 C607 1.383 . S
C608 C609 1.377 . S
C609 H593 0.930 . S
C609 C608 1.377 . S
C609 C610 1.379 . S
C610 H594 0.931 . S
C610 C604 1.383 . S
C610 C609 1.379 . S
H611 C605 0.959 . S
H612 C605 0.961 . S
H613 C605 0.960 . S
H614 C606 0.930 . S
H615 C607 0.929 . S
H616 C624 0.929 . S
H617 C626 0.930 . S
H618 C628 0.930 . S
H619 C631 0.929 . S
H620 C634 0.930 . S
H621 C636 0.960 . S
H622 C636 0.960 1_545 S
H623 C636 0.960 . S
C624 H616 0.929 . S
C624 C625 1.390 . S
C624 C626 1.384 . S
C625 C624 1.390 . S
C625 C631 1.374 1_545 S
C626 H617 0.930 . S
C626 C624 1.384 . S
C626 C627 1.372 . S
C627 C626 1.372 . S
C627 C628 1.400 1_545 S
C627 C632 1.490 . S
C628 H618 0.930 . S
C628 C627 1.400 1_565 S
C628 C631 1.386 . S
H629 C645 0.930 . S
H630 C646 0.931 . S
C631 H619 0.929 . S
C631 C625 1.374 1_565 S
C631 C628 1.386 . S
C632 C627 1.490 . S
C632 C634 1.395 . S
C632 C635 1.403 1_545 S
H633 C639 0.930 . S
C634 H620 0.930 . S
C634 C632 1.395 . S
C634 C637 1.403 . S
C635 C632 1.403 1_565 S
C635 C636 1.524 . S
C635 C639 1.400 . S
C636 H621 0.960 . S
C636 H622 0.960 1_565 S
C636 H623 0.960 . S
C636 C635 1.524 . S
C637 C634 1.403 . S
C637 C638 1.392 . S
C637 C641 1.495 . S
C638 C637 1.392 . S
C638 C639 1.385 1_545 S
C638 C640 1.478 . S
C639 H633 0.930 . S
C639 C635 1.400 . S
C639 C638 1.385 1_565 S
C640 C638 1.478 . S
C640 C642 1.381 . S
C640 C646 1.383 1_545 S
C641 C637 1.495 . S
C641 H647 0.959 . S
C641 H648 0.961 . S
C641 H649 0.960 . S
C642 C640 1.381 . S
C642 C643 1.394 . S
C642 H650 0.930 . S
C643 C642 1.394 . S
C643 C644 1.383 . S
C643 H651 0.929 . S
C644 C643 1.383 . S
C644 C645 1.377 1_545 S
C645 H629 0.930 . S
C645 C644 1.377 1_565 S
C645 C646 1.379 . S
C646 H630 0.931 . S
C646 C640 1.383 1_565 S
C646 C645 1.379 . S
H647 C641 0.959 . S
H648 C641 0.961 . S
H649 C641 0.960 . S
H650 C642 0.930 . S
H651 C643 0.929 . S
H652 C660 0.929 . S
H653 C662 0.930 . S
H654 C664 0.930 . S
H655 C667 0.929 . S
H656 C670 0.930 . S
H657 C672 0.960 . S
H658 C672 0.960 . S
H659 C672 0.960 . S
C660 H652 0.929 . S
C660 C661 1.377 . S
C660 C662 1.384 . S
C661 C660 1.377 . S
C661 C667 1.390 . S
C662 H653 0.930 . S
C662 C660 1.384 . S
C662 C663 1.372 . S
C663 C662 1.372 . S
C663 C664 1.400 . S
C663 C668 1.490 . S
C664 H654 0.930 . S
C664 C663 1.400 . S
C664 C667 1.386 . S
H665 C681 0.930 . S
H666 C682 0.931 1_554 S
C667 H655 0.929 . S
C667 C661 1.390 . S
C667 C664 1.386 . S
C668 C663 1.490 . S
C668 C670 1.395 . S
C668 C671 1.403 . S
H669 C675 0.930 . S
C670 H656 0.930 . S
C670 C668 1.395 . S
C670 C673 1.403 . S
C671 C668 1.403 . S
C671 C672 1.524 . S
C671 C675 1.400 . S
C672 H657 0.960 . S
C672 H658 0.960 . S
C672 H659 0.960 . S
C672 C671 1.524 . S
C673 C670 1.403 . S
C673 C674 1.392 . S
C673 C677 1.495 1_554 S
C674 C673 1.392 . S
C674 C675 1.385 . S
C674 C676 1.478 1_554 S
C675 H669 0.930 . S
C675 C671 1.400 . S
C675 C674 1.385 . S
C676 C674 1.478 1_556 S
C676 C678 1.381 . S
C676 C682 1.383 . S
C677 C673 1.495 1_556 S
C677 H683 0.959 . S
C677 H684 0.961 . S
C677 H685 0.960 . S
C678 C676 1.381 . S
C678 C679 1.394 . S
C678 H686 0.930 . S
C679 C678 1.394 . S
C679 C680 1.383 . S
C679 H687 0.929 . S
C680 C679 1.383 . S
C680 C681 1.377 . S
C681 H665 0.930 . S
C681 C680 1.377 . S
C681 C682 1.379 . S
C682 H666 0.931 1_556 S
C682 C676 1.383 . S
C682 C681 1.379 . S
H683 C677 0.959 . S
H684 C677 0.961 . S
H685 C677 0.960 . S
H686 C678 0.930 . S
H687 C679 0.929 . S
H688 C696 0.934 . S
H689 C698 0.930 . S
H690 C700 0.930 . S
H691 C703 0.929 . S
H692 C706 0.930 . S
H693 C708 0.960 . S
H694 C708 0.960 . S
H695 C708 0.960 . S
C696 H688 0.934 . S
C696 C697 1.375 1_554 S
C696 C698 1.382 1_554 S
C697 C696 1.375 1_556 S
C697 C703 1.390 . S
C698 H689 0.930 . S
C698 C696 1.382 1_556 S
C698 C699 1.372 . S
C699 C698 1.372 . S
C699 C700 1.400 . S
C699 C704 1.490 . S
C700 H690 0.930 . S
C700 C699 1.400 . S
C700 C703 1.386 . S
H701 C717 0.930 . S
H702 C718 0.931 . S
C703 H691 0.929 . S
C703 C697 1.390 . S
C703 C700 1.386 . S
C704 C699 1.490 . S
C704 C706 1.395 . S
C704 C707 1.403 . S
H705 C711 0.930 . S
C706 H692 0.930 . S
C706 C704 1.395 . S
C706 C709 1.403 . S
C707 C704 1.403 . S
C707 C708 1.524 . S
C707 C711 1.400 . S
C708 H693 0.960 . S
C708 H694 0.960 . S
C708 H695 0.960 . S
C708 C707 1.524 . S
C709 C706 1.403 . S
C709 C710 1.392 . S
C709 C713 1.495 . S
C710 C709 1.392 . S
C710 C711 1.385 . S
C710 C712 1.478 . S
C711 H705 0.930 . S
C711 C707 1.400 . S
C711 C710 1.385 . S
C712 C710 1.478 . S
C712 C714 1.381 . S
C712 C718 1.383 . S
C713 C709 1.495 . S
C713 H719 0.959 . S
C713 H720 0.961 . S
C713 H721 0.960 . S
C714 C712 1.381 . S
C714 C715 1.394 . S
C714 H722 0.930 . S
C715 C714 1.394 . S
C715 C716 1.383 . S
C715 H723 0.929 . S
C716 C715 1.383 . S
C716 C717 1.377 . S
C717 H701 0.930 . S
C717 C716 1.377 . S
C717 C718 1.379 . S
C718 H702 0.931 . S
C718 C712 1.383 . S
C718 C717 1.379 . S
H719 C713 0.959 . S
H720 C713 0.961 . S
H721 C713 0.960 . S
H722 C714 0.930 . S
H723 C715 0.929 . S
H724 C732 0.929 . S
H725 C734 0.930 . S
H726 C736 0.930 . S
H727 C739 0.929 1_554 S
H728 C742 0.930 . S
H729 C744 0.960 . S
H730 C744 0.960 . S
H731 C744 0.960 . S
C732 H724 0.929 . S
C732 C733 1.377 . S
C732 C734 1.384 . S
C733 C732 1.377 . S
C733 C739 1.390 . S
C734 H725 0.930 . S
C734 C732 1.384 . S
C734 C735 1.372 . S
C735 C734 1.372 . S
C735 C736 1.400 . S
C735 C740 1.490 . S
C736 H726 0.930 . S
C736 C735 1.400 . S
C736 C739 1.386 . S
H737 C753 0.930 1_455 S
H738 C754 0.931 . S
C739 H727 0.929 1_556 S
C739 C733 1.390 . S
C739 C736 1.386 . S
C740 C735 1.490 . S
C740 C742 1.395 . S
C740 C743 1.403 . S
H741 C747 0.930 . S
C742 H728 0.930 . S
C742 C740 1.395 . S
C742 C745 1.403 . S
C743 C740 1.403 . S
C743 C744 1.524 1_556 S
C743 C747 1.400 . S
C744 H729 0.960 . S
C744 H730 0.960 . S
C744 H731 0.960 . S
C744 C743 1.524 1_554 S
C745 C742 1.403 . S
C745 C746 1.392 . S
C745 C749 1.495 . S
C746 C745 1.392 . S
C746 C747 1.385 . S
C746 C748 1.478 . S
C747 H741 0.930 . S
C747 C743 1.400 . S
C747 C746 1.385 . S
C748 C746 1.478 . S
C748 C750 1.381 . S
C748 C754 1.383 . S
C749 C745 1.495 . S
C749 H755 0.959 . S
C749 H756 0.961 . S
C749 H757 0.960 . S
C750 C748 1.381 . S
C750 C751 1.394 . S
C750 H758 0.930 . S
C751 C750 1.394 . S
C751 C752 1.383 . S
C751 H759 0.929 . S
C752 C751 1.383 . S
C752 C753 1.377 . S
C753 H737 0.930 1_655 S
C753 C752 1.377 . S
C753 C754 1.379 . S
C754 H738 0.931 . S
C754 C748 1.383 . S
C754 C753 1.379 . S
H755 C749 0.959 . S
H756 C749 0.961 . S
H757 C749 0.960 . S
H758 C750 0.930 . S
H759 C751 0.929 . S
H760 C768 0.929 . S
H761 C770 0.930 . S
H762 C772 0.930 . S
H763 C775 0.929 . S
H764 C778 0.930 . S
H765 C780 0.960 . S
H766 C780 0.960 . S
H767 C780 0.960 . S
C768 H760 0.929 . S
C768 C769 1.377 . S
C768 C770 1.384 . S
C769 C768 1.377 . S
C769 C775 1.390 . S
C770 H761 0.930 . S
C770 C768 1.384 . S
C770 C771 1.372 . S
C771 C770 1.372 . S
C771 C772 1.400 . S
C771 C776 1.490 . S
C772 H762 0.930 . S
C772 C771 1.400 . S
C772 C775 1.386 . S
H773 C789 0.930 . S
H774 C790 0.931 . S
C775 H763 0.929 . S
C775 C769 1.390 . S
C775 C772 1.386 . S
C776 C771 1.490 . S
C776 C778 1.395 . S
C776 C779 1.403 . S
H777 C783 0.930 . S
C778 H764 0.930 . S
C778 C776 1.395 . S
C778 C781 1.403 . S
C779 C776 1.403 . S
C779 C780 1.524 . S
C779 C783 1.400 . S
C780 H765 0.960 . S
C780 H766 0.960 . S
C780 H767 0.960 . S
C780 C779 1.524 . S
C781 C778 1.403 . S
C781 C782 1.392 . S
C781 C785 1.495 . S
C782 C781 1.392 . S
C782 C783 1.385 . S
C782 C784 1.478 . S
C783 H777 0.930 . S
C783 C779 1.400 . S
C783 C782 1.385 . S
C784 C782 1.478 . S
C784 C786 1.381 . S
C784 C790 1.383 . S
C785 C781 1.495 . S
C785 H791 0.959 . S
C785 H792 0.961 . S
C785 H793 0.960 . S
C786 C784 1.381 . S
C786 C787 1.394 . S
C786 H794 0.930 . S
C787 C786 1.394 . S
C787 C788 1.383 . S
C787 H795 0.929 . S
C788 C787 1.383 . S
C788 C789 1.377 . S
C789 H773 0.930 . S
C789 C788 1.377 . S
C789 C790 1.379 . S
C790 H774 0.931 . S
C790 C784 1.383 . S
C790 C789 1.379 . S
H791 C785 0.959 . S
H792 C785 0.961 . S
H793 C785 0.960 . S
H794 C786 0.930 . S
H795 C787 0.929 . S
H796 C804 0.916 . S
H797 C806 0.930 . S
H798 C808 0.930 . S
H799 C811 0.929 1_545 S
H800 C814 0.930 . S
H801 C816 0.960 . S
H802 C816 0.960 . S
H803 C816 0.960 . S
C804 H796 0.916 . S
C804 C805 1.377 . S
C804 C806 1.385 1_545 S
C805 C804 1.377 . S
C805 C811 1.380 1_545 S
C806 H797 0.930 . S
C806 C804 1.385 1_565 S
C806 C807 1.372 . S
C807 C806 1.372 . S
C807 C808 1.400 . S
C807 C812 1.490 . S
C808 H798 0.930 . S
C808 C807 1.400 . S
C808 C811 1.386 . S
H809 C825 0.930 . S
H810 C826 0.931 . S
C811 H799 0.929 1_565 S
C811 C805 1.380 1_565 S
C811 C808 1.386 . S
C812 C807 1.490 . S
C812 C814 1.395 . S
C812 C815 1.403 1_565 S
H813 C819 0.930 . S
C814 H800 0.930 . S
C814 C812 1.395 . S
C814 C817 1.403 . S
C815 C812 1.403 1_545 S
C815 C816 1.524 . S
C815 C819 1.400 . S
C816 H801 0.960 . S
C816 H802 0.960 . S
C816 H803 0.960 . S
C816 C815 1.524 . S
C817 C814 1.403 . S
C817 C818 1.392 . S
C817 C821 1.495 . S
C818 C817 1.392 . S
C818 C819 1.385 1_565 S
C818 C820 1.478 . S
C819 H813 0.930 . S
C819 C815 1.400 . S
C819 C818 1.385 1_545 S
C820 C818 1.478 . S
C820 C822 1.381 . S
C820 C826 1.383 . S
C821 C817 1.495 . S
C821 H827 0.959 . S
C821 H828 0.961 . S
C821 H829 0.960 . S
C822 C820 1.381 . S
C822 C823 1.394 . S
C822 H830 0.930 . S
C823 C822 1.394 . S
C823 C824 1.383 . S
C823 H831 0.929 . S
C824 C823 1.383 . S
C824 C825 1.377 . S
C825 H809 0.930 . S
C825 C824 1.377 . S
C825 C826 1.379 . S
C826 H810 0.931 . S
C826 C820 1.383 . S
C826 C825 1.379 . S
H827 C821 0.959 . S
H828 C821 0.961 . S
H829 C821 0.960 . S
H830 C822 0.930 . S
H831 C823 0.929 . S
H832 C840 0.929 . S
H833 C842 0.930 . S
H834 C844 0.930 . S
H835 C847 0.929 . S
H836 C850 0.930 . S
H837 C852 0.960 . S
H838 C852 0.960 . S
H839 C852 0.960 . S
C840 H832 0.929 . S
C840 C841 1.377 . S
C840 C842 1.384 . S
C841 C840 1.377 . S
C841 C847 1.390 . S
C842 H833 0.930 . S
C842 C840 1.384 . S
C842 C843 1.372 . S
C843 C842 1.372 . S
C843 C844 1.400 . S
C843 C848 1.490 . S
C844 H834 0.930 . S
C844 C843 1.400 . S
C844 C847 1.386 . S
H845 C861 0.930 . S
H846 C862 0.931 . S
C847 H835 0.929 . S
C847 C841 1.390 . S
C847 C844 1.386 . S
C848 C843 1.490 . S
C848 C850 1.395 . S
C848 C851 1.403 . S
H849 C855 0.930 . S
C850 H836 0.930 . S
C850 C848 1.395 . S
C850 C853 1.403 . S
C851 C848 1.403 . S
C851 C852 1.524 . S
C851 C855 1.400 . S
C852 H837 0.960 . S
C852 H838 0.960 . S
C852 H839 0.960 . S
C852 C851 1.524 . S
C853 C850 1.403 . S
C853 C854 1.392 . S
C853 C857 1.495 . S
C854 C853 1.392 . S
C854 C855 1.385 . S
C854 C856 1.478 . S
C855 H849 0.930 . S
C855 C851 1.400 . S
C855 C854 1.385 . S
C856 C854 1.478 . S
C856 C858 1.381 . S
C856 C862 1.383 . S
C857 C853 1.495 . S
C857 H863 0.959 . S
C857 H864 0.961 . S
C857 H865 0.960 . S
C858 C856 1.381 . S
C858 C859 1.394 . S
C858 H866 0.930 . S
C859 C858 1.394 . S
C859 C860 1.383 . S
C859 H867 0.929 . S
C860 C859 1.383 . S
C860 C861 1.377 . S
C861 H845 0.930 . S
C861 C860 1.377 . S
C861 C862 1.379 . S
C862 H846 0.931 . S
C862 C856 1.383 . S
C862 C861 1.379 . S
H863 C857 0.959 . S
H864 C857 0.961 . S
H865 C857 0.960 . S
H866 C858 0.930 . S
H867 C859 0.929 . S
H868 C876 0.929 . S
H869 C878 0.930 . S
H870 C880 0.930 . S
H871 C883 0.929 . S
H872 C886 0.930 . S
H873 C888 0.960 . S
H874 C888 0.960 . S
H875 C888 0.960 . S
C876 H868 0.929 . S
C876 C877 1.377 . S
C876 C878 1.384 . S
C877 C876 1.377 . S
C877 C883 1.390 . S
C878 H869 0.930 . S
C878 C876 1.384 . S
C878 C879 1.372 . S
C879 C878 1.372 . S
C879 C880 1.400 . S
C879 C884 1.490 . S
C880 H870 0.930 . S
C880 C879 1.400 . S
C880 C883 1.386 . S
H881 C897 0.930 . S
H882 C898 0.931 . S
C883 H871 0.929 . S
C883 C877 1.390 . S
C883 C880 1.386 . S
C884 C879 1.490 . S
C884 C886 1.395 . S
C884 C887 1.403 . S
H885 C891 0.930 . S
C886 H872 0.930 . S
C886 C884 1.395 . S
C886 C889 1.403 . S
C887 C884 1.403 . S
C887 C888 1.524 . S
C887 C891 1.400 . S
C888 H873 0.960 . S
C888 H874 0.960 . S
C888 H875 0.960 . S
C888 C887 1.524 . S
C889 C886 1.403 . S
C889 C890 1.392 . S
C889 C893 1.495 . S
C890 C889 1.392 . S
C890 C891 1.385 . S
C890 C892 1.478 . S
C891 H885 0.930 . S
C891 C887 1.400 . S
C891 C890 1.385 . S
C892 C890 1.478 . S
C892 C894 1.381 . S
C892 C898 1.383 . S
C893 C889 1.495 . S
C893 H899 0.959 . S
C893 H900 0.961 . S
C893 H901 0.960 . S
C894 C892 1.381 . S
C894 C895 1.394 . S
C894 H902 0.930 . S
C895 C894 1.394 . S
C895 C896 1.383 . S
C895 H903 0.929 . S
C896 C895 1.383 . S
C896 C897 1.377 . S
C897 H881 0.930 . S
C897 C896 1.377 . S
C897 C898 1.379 . S
C898 H882 0.931 . S
C898 C892 1.383 . S
C898 C897 1.379 . S
H899 C893 0.959 . S
H900 C893 0.961 . S
H901 C893 0.960 . S
H902 C894 0.930 . S
H903 C895 0.929 . S
H904 C912 0.929 . S
H905 C914 0.930 . S
H906 C916 0.930 . S
H907 C919 0.929 . S
H908 C922 0.930 . S
H909 C924 0.960 . S
H910 C924 0.960 . S
H911 C924 0.960 . S
C912 H904 0.929 . S
C912 C913 1.377 . S
C912 C914 1.384 . S
C913 C912 1.377 . S
C913 C919 1.390 . S
C914 H905 0.930 . S
C914 C912 1.384 . S
C914 C915 1.372 . S
C915 C914 1.372 . S
C915 C916 1.400 . S
C915 C920 1.490 . S
C916 H906 0.930 . S
C916 C915 1.400 . S
C916 C919 1.386 . S
H917 C933 0.930 . S
H918 C934 0.931 . S
C919 H907 0.929 . S
C919 C913 1.390 . S
C919 C916 1.386 . S
C920 C915 1.490 . S
C920 C922 1.395 . S
C920 C923 1.403 . S
H921 C927 0.930 . S
C922 H908 0.930 . S
C922 C920 1.395 . S
C922 C925 1.403 . S
C923 C920 1.403 . S
C923 C924 1.524 . S
C923 C927 1.400 . S
C924 H909 0.960 . S
C924 H910 0.960 . S
C924 H911 0.960 . S
C924 C923 1.524 . S
C925 C922 1.403 . S
C925 C926 1.392 . S
C925 C929 1.495 . S
C926 C925 1.392 . S
C926 C927 1.385 . S
C926 C928 1.478 . S
C927 H921 0.930 . S
C927 C923 1.400 . S
C927 C926 1.385 . S
C928 C926 1.478 . S
C928 C930 1.381 . S
C928 C934 1.383 . S
C929 C925 1.495 . S
C929 H935 0.959 . S
C929 H936 0.961 . S
C929 H937 0.960 . S
C930 C928 1.381 . S
C930 C931 1.394 . S
C930 H938 0.930 . S
C931 C930 1.394 . S
C931 C932 1.383 . S
C931 H939 0.929 1_655 S
C932 C931 1.383 . S
C932 C933 1.377 . S
C933 H917 0.930 . S
C933 C932 1.377 . S
C933 C934 1.379 . S
C934 H918 0.931 . S
C934 C928 1.383 . S
C934 C933 1.379 . S
H935 C929 0.959 . S
H936 C929 0.961 . S
H937 C929 0.960 . S
H938 C930 0.930 . S
H939 C931 0.929 1_455 S
H940 C948 0.929 . S
H941 C950 0.930 . S
H942 C952 0.930 . S
H943 C955 0.929 . S
H944 C958 0.930 . S
H945 C960 0.960 . S
H946 C960 0.960 . S
H947 C960 0.960 . S
C948 H940 0.929 . S
C948 C949 1.369 1_545 S
C948 C950 1.384 . S
C949 C948 1.369 1_565 S
C949 C955 1.396 . S
C950 H941 0.930 . S
C950 C948 1.384 . S
C950 C951 1.372 . S
C951 C950 1.372 . S
C951 C952 1.400 1_545 S
C951 C956 1.490 . S
C952 H942 0.930 . S
C952 C951 1.400 1_565 S
C952 C955 1.386 . S
H953 C969 0.930 . S
H954 C970 0.931 . S
C955 H943 0.929 . S
C955 C949 1.396 . S
C955 C952 1.386 . S
C956 C951 1.490 . S
C956 C958 1.395 . S
C956 C959 1.403 1_545 S
H957 C963 0.930 . S
C958 H944 0.930 . S
C958 C956 1.395 . S
C958 C961 1.403 . S
C959 C956 1.403 1_565 S
C959 C960 1.524 . S
C959 C963 1.400 . S
C960 H945 0.960 . S
C960 H946 0.960 . S
C960 H947 0.960 . S
C960 C959 1.524 . S
C961 C958 1.403 . S
C961 C962 1.392 . S
C961 C965 1.495 . S
C962 C961 1.392 . S
C962 C963 1.385 1_545 S
C962 C964 1.478 . S
C963 H957 0.930 . S
C963 C959 1.400 . S
C963 C962 1.385 1_565 S
C964 C962 1.478 . S
C964 C966 1.381 . S
C964 C970 1.383 1_545 S
C965 C961 1.495 . S
C965 H971 0.959 . S
C965 H972 0.961 . S
C965 H973 0.960 . S
C966 C964 1.381 . S
C966 C967 1.394 . S
C966 H974 0.930 . S
C967 C966 1.394 . S
C967 C968 1.383 . S
C967 H975 0.929 . S
C968 C967 1.383 . S
C968 C969 1.377 1_545 S
C969 H953 0.930 . S
C969 C968 1.377 1_565 S
C969 C970 1.379 . S
C970 H954 0.931 . S
C970 C964 1.383 1_565 S
C970 C969 1.379 . S
H971 C965 0.959 . S
H972 C965 0.961 . S
H973 C965 0.960 . S
H974 C966 0.930 . S
H975 C967 0.929 . S
H976 C984 0.929 . S
H977 C986 0.930 . S
H978 C988 0.930 . S
H979 C991 0.929 . S
H980 C994 0.930 . S
H981 C996 0.960 . S
H982 C996 0.960 . S
H983 C996 0.960 1_554 S
C984 H976 0.929 . S
C984 C985 1.377 . S
C984 C986 1.384 . S
C985 C984 1.377 . S
C985 C991 1.390 . S
C986 H977 0.930 . S
C986 C984 1.384 . S
C986 C987 1.372 . S
C987 C986 1.372 . S
C987 C988 1.400 . S
C987 C992 1.490 . S
C988 H978 0.930 . S
C988 C987 1.400 . S
C988 C991 1.386 . S
H989 C1005 0.930 . S
H990 C1006 0.931 1_554 S
C991 H979 0.929 . S
C991 C985 1.390 . S
C991 C988 1.386 . S
C992 C987 1.490 . S
C992 C994 1.395 . S
C992 C995 1.403 . S
H993 C999 0.930 1_556 S
C994 H980 0.930 . S
C994 C992 1.395 . S
C994 C997 1.403 . S
C995 C992 1.403 . S
C995 C996 1.524 1_554 S
C995 C999 1.400 . S
C996 H981 0.960 . S
C996 H982 0.960 . S
C996 H983 0.960 1_556 S
C996 C995 1.524 1_556 S
C997 C994 1.403 . S
C997 C998 1.392 . S
C997 C1001 1.495 . S
C998 C997 1.392 . S
C998 C999 1.385 . S
C998 C1000 1.478 1_554 S
C999 H993 0.930 1_554 S
C999 C995 1.400 . S
C999 C998 1.385 . S
C1000 C998 1.478 1_556 S
C1000 C1002 1.381 . S
C1000 C1006 1.383 . S
C1001 C997 1.495 . S
C1001 H1007 0.959 . S
C1001 H1008 0.961 . S
C1001 H1009 0.960 . S
C1002 C1000 1.381 . S
C1002 C1003 1.394 . S
C1002 H1010 0.930 . S
C1003 C1002 1.394 . S
C1003 C1004 1.383 . S
C1003 H1011 0.929 . S
C1004 C1003 1.383 . S
C1004 C1005 1.377 . S
C1005 H989 0.930 . S
C1005 C1004 1.377 . S
C1005 C1006 1.379 . S
C1006 H990 0.931 1_556 S
C1006 C1000 1.383 . S
C1006 C1005 1.379 . S
H1007 C1001 0.959 . S
H1008 C1001 0.961 . S
H1009 C1001 0.960 . S
H1010 C1002 0.930 . S
H1011 C1003 0.929 . S
H1012 C1020 0.929 . S
H1013 C1022 0.930 . S
H1014 C1024 0.930 . S
H1015 C1027 0.929 . S
H1016 C1030 0.930 . S
H1017 C1032 0.960 . S
H1018 C1032 0.960 . S
H1019 C1032 0.960 . S
C1020 H1012 0.929 . S
C1020 C1021 1.377 . S
C1020 C1022 1.384 . S
C1021 C1020 1.377 . S
C1021 C1027 1.390 . S
C1022 H1013 0.930 . S
C1022 C1020 1.384 . S
C1022 C1023 1.372 . S
C1023 C1022 1.372 . S
C1023 C1024 1.400 . S
C1023 C1028 1.490 . S
C1024 H1014 0.930 . S
C1024 C1023 1.400 . S
C1024 C1027 1.386 . S
H1025 C1041 0.930 . S
H1026 C1042 0.931 . S
C1027 H1015 0.929 . S
C1027 C1021 1.390 . S
C1027 C1024 1.386 . S
C1028 C1023 1.490 . S
C1028 C1030 1.395 . S
C1028 C1031 1.403 . S
H1029 C1035 0.930 . S
C1030 H1016 0.930 . S
C1030 C1028 1.395 . S
C1030 C1033 1.403 . S
C1031 C1028 1.403 . S
C1031 C1032 1.524 . S
C1031 C1035 1.400 . S
C1032 H1017 0.960 . S
C1032 H1018 0.960 . S
C1032 H1019 0.960 . S
C1032 C1031 1.524 . S
C1033 C1030 1.403 . S
C1033 C1034 1.392 . S
C1033 C1037 1.495 . S
C1034 C1033 1.392 . S
C1034 C1035 1.385 . S
C1034 C1036 1.478 . S
C1035 H1029 0.930 . S
C1035 C1031 1.400 . S
C1035 C1034 1.385 . S
C1036 C1034 1.478 . S
C1036 C1038 1.381 . S
C1036 C1042 1.383 . S
C1037 C1033 1.495 . S
C1037 H1043 0.959 . S
C1037 H1044 0.961 . S
C1037 H1045 0.960 . S
C1038 C1036 1.381 . S
C1038 C1039 1.394 . S
C1038 H1046 0.930 . S
C1039 C1038 1.394 . S
C1039 C1040 1.383 . S
C1039 H1047 0.929 . S
C1040 C1039 1.383 . S
C1040 C1041 1.377 . S
C1041 H1025 0.930 . S
C1041 C1040 1.377 . S
C1041 C1042 1.379 . S
C1042 H1026 0.931 . S
C1042 C1036 1.383 . S
C1042 C1041 1.379 . S
H1043 C1037 0.959 . S
H1044 C1037 0.961 . S
H1045 C1037 0.960 . S
H1046 C1038 0.930 . S
H1047 C1039 0.929 . S
H1048 C1056 0.929 . S
H1049 C1058 0.930 . S
H1050 C1060 0.930 . S
H1051 C1063 0.929 . S
H1052 C1066 0.930 . S
H1053 C1068 0.960 . S
H1054 C1068 0.960 . S
H1055 C1068 0.960 . S
C1056 H1048 0.929 . S
C1056 C1057 1.377 . S
C1056 C1058 1.384 . S
C1057 C1056 1.377 . S
C1057 C1063 1.390 . S
C1058 H1049 0.930 . S
C1058 C1056 1.384 . S
C1058 C1059 1.372 . S
C1059 C1058 1.372 . S
C1059 C1060 1.400 . S
C1059 C1064 1.490 . S
C1060 H1050 0.930 . S
C1060 C1059 1.400 . S
C1060 C1063 1.386 . S
H1061 C1077 0.930 . S
H1062 C1078 0.931 . S
C1063 H1051 0.929 . S
C1063 C1057 1.390 . S
C1063 C1060 1.386 . S
C1064 C1059 1.490 . S
C1064 C1066 1.395 . S
C1064 C1067 1.403 . S
H1065 C1071 0.930 . S
C1066 H1052 0.930 . S
C1066 C1064 1.395 . S
C1066 C1069 1.403 . S
C1067 C1064 1.403 . S
C1067 C1068 1.524 . S
C1067 C1071 1.400 . S
C1068 H1053 0.960 . S
C1068 H1054 0.960 . S
C1068 H1055 0.960 . S
C1068 C1067 1.524 . S
C1069 C1066 1.403 . S
C1069 C1070 1.392 . S
C1069 C1073 1.495 . S
C1070 C1069 1.392 . S
C1070 C1071 1.385 . S
C1070 C1072 1.478 . S
C1071 H1065 0.930 . S
C1071 C1067 1.400 . S
C1071 C1070 1.385 . S
C1072 C1070 1.478 . S
C1072 C1074 1.381 . S
C1072 C1078 1.383 . S
C1073 C1069 1.495 . S
C1073 H1079 0.959 . S
C1073 H1080 0.961 . S
C1073 H1081 0.960 . S
C1074 C1072 1.381 . S
C1074 C1075 1.394 . S
C1074 H1082 0.930 . S
C1075 C1074 1.394 . S
C1075 C1076 1.383 . S
C1075 H1083 0.929 1_554 S
C1076 C1075 1.383 . S
C1076 C1077 1.377 . S
C1077 H1061 0.930 . S
C1077 C1076 1.377 . S
C1077 C1078 1.379 . S
C1078 H1062 0.931 . S
C1078 C1072 1.383 . S
C1078 C1077 1.379 . S
H1079 C1073 0.959 . S
H1080 C1073 0.961 . S
H1081 C1073 0.960 . S
H1082 C1074 0.930 . S
H1083 C1075 0.929 1_556 S
H1084 C1092 0.929 . S
H1085 C1094 0.930 . S
H1086 C1096 0.930 . S
H1087 C1099 0.929 . S
H1088 C1102 0.930 . S
H1089 C1104 0.960 . S
H1090 C1104 0.960 . S
H1091 C1104 0.960 . S
C1092 H1084 0.929 . S
C1092 C1093 1.377 . S
C1092 C1094 1.384 . S
C1093 C1092 1.377 . S
C1093 C1099 1.390 1_545 S
C1094 H1085 0.930 . S
C1094 C1092 1.384 . S
C1094 C1095 1.372 . S
C1095 C1094 1.372 . S
C1095 C1096 1.400 1_545 S
C1095 C1100 1.490 . S
C1096 H1086 0.930 . S
C1096 C1095 1.400 1_565 S
C1096 C1099 1.386 . S
H1097 C1113 0.930 1_565 S
H1098 C1114 0.931 1_565 S
C1099 H1087 0.929 . S
C1099 C1093 1.390 1_565 S
C1099 C1096 1.386 . S
C1100 C1095 1.490 . S
C1100 C1102 1.395 . S
C1100 C1103 1.403 1_545 S
H1101 C1107 0.972 . S
C1102 H1088 0.930 . S
C1102 C1100 1.395 . S
C1102 C1105 1.403 . S
C1103 C1100 1.403 1_565 S
C1103 C1104 1.524 . S
C1103 C1107 1.399 . S
C1104 H1089 0.960 . S
C1104 H1090 0.960 . S
C1104 H1091 0.960 . S
C1104 C1103 1.524 . S
C1105 C1102 1.403 . S
C1105 C1106 1.392 . S
C1105 C1109 1.495 . S
C1106 C1105 1.392 . S
C1106 C1107 1.349 1_545 S
C1106 C1108 1.478 . S
C1107 H1101 0.972 . S
C1107 C1103 1.399 . S
C1107 C1106 1.349 1_565 S
C1108 C1106 1.478 . S
C1108 C1110 1.381 . S
C1108 C1114 1.383 . S
C1109 C1105 1.495 . S
C1109 H1115 0.959 . S
C1109 H1116 0.961 . S
C1109 H1117 0.960 . S
C1110 C1108 1.381 . S
C1110 C1111 1.394 . S
C1110 H1118 0.930 . S
C1111 C1110 1.394 . S
C1111 C1112 1.383 . S
C1111 H1119 0.929 . S
C1112 C1111 1.383 . S
C1112 C1113 1.377 . S
C1113 H1097 0.930 1_545 S
C1113 C1112 1.377 . S
C1113 C1114 1.379 . S
C1114 H1098 0.931 1_545 S
C1114 C1108 1.383 . S
C1114 C1113 1.379 . S
H1115 C1109 0.959 . S
H1116 C1109 0.961 . S
H1117 C1109 0.960 . S
H1118 C1110 0.930 . S
H1119 C1111 0.929 . S
H1120 C1128 0.929 . S
H1121 C1130 0.930 . S
H1122 C1132 0.930 . S
H1123 C1135 0.929 . S
H1124 C1138 0.930 . S
H1125 C1140 0.960 . S
H1126 C1140 0.960 1_554 S
H1127 C1140 0.960 . S
C1128 H1120 0.929 . S
C1128 C1129 1.377 . S
C1128 C1130 1.384 . S
C1129 C1128 1.377 . S
C1129 C1135 1.390 1_554 S
C1130 H1121 0.930 . S
C1130 C1128 1.384 . S
C1130 C1131 1.372 1_554 S
C1131 C1130 1.372 1_556 S
C1131 C1132 1.400 . S
C1131 C1136 1.490 . S
C1132 H1122 0.930 . S
C1132 C1131 1.400 . S
C1132 C1135 1.386 . S
H1133 C1149 0.930 . S
H1134 C1150 0.931 . S
C1135 H1123 0.929 . S
C1135 C1129 1.390 1_556 S
C1135 C1132 1.386 . S
C1136 C1131 1.490 . S
C1136 C1138 1.395 . S
C1136 C1139 1.403 . S
H1137 C1143 0.930 . S
C1138 H1124 0.930 . S
C1138 C1136 1.395 . S
C1138 C1141 1.403 . S
C1139 C1136 1.403 . S
C1139 C1140 1.524 . S
C1139 C1143 1.400 . S
C1140 H1125 0.960 . S
C1140 H1126 0.960 1_556 S
C1140 H1127 0.960 . S
C1140 C1139 1.524 . S
C1141 C1138 1.403 . S
C1141 C1142 1.392 . S
C1141 C1145 1.495 . S
C1142 C1141 1.392 . S
C1142 C1143 1.385 . S
C1142 C1144 1.478 . S
C1143 H1137 0.930 . S
C1143 C1139 1.400 . S
C1143 C1142 1.385 . S
C1144 C1142 1.478 . S
C1144 C1146 1.381 . S
C1144 C1150 1.383 . S
C1145 C1141 1.495 . S
C1145 H1151 0.959 . S
C1145 H1152 0.961 . S
C1145 H1153 0.960 . S
C1146 C1144 1.381 . S
C1146 C1147 1.394 . S
C1146 H1154 0.930 . S
C1147 C1146 1.394 . S
C1147 C1148 1.383 . S
C1147 H1155 0.929 . S
C1148 C1147 1.383 . S
C1148 C1149 1.377 . S
C1149 H1133 0.930 . S
C1149 C1148 1.377 . S
C1149 C1150 1.379 . S
C1150 H1134 0.931 . S
C1150 C1144 1.383 . S
C1150 C1149 1.379 . S
H1151 C1145 0.959 . S
H1152 C1145 0.961 . S
H1153 C1145 0.960 . S
H1154 C1146 0.930 . S
H1155 C1147 0.929 . S
H1156 C1164 0.929 . S
H1157 C1166 0.930 . S
H1158 C1168 0.930 . S
H1159 C1171 0.929 . S
H1160 C1174 0.930 . S
H1161 C1176 0.960 . S
H1162 C1176 0.960 . S
H1163 C1176 0.960 . S
C1164 H1156 0.929 . S
C1164 C1165 1.377 . S
C1164 C1166 1.384 . S
C1165 C1164 1.377 . S
C1165 C1171 1.390 . S
C1166 H1157 0.930 . S
C1166 C1164 1.384 . S
C1166 C1167 1.372 . S
C1167 C1166 1.372 . S
C1167 C1168 1.400 . S
C1167 C1172 1.490 . S
C1168 H1158 0.930 . S
C1168 C1167 1.400 . S
C1168 C1171 1.386 . S
H1169 C1185 0.930 . S
H1170 C1186 0.931 . S
C1171 H1159 0.929 . S
C1171 C1165 1.390 . S
C1171 C1168 1.386 . S
C1172 C1167 1.490 . S
C1172 C1174 1.395 . S
C1172 C1175 1.403 . S
H1173 C1179 0.930 . S
C1174 H1160 0.930 . S
C1174 C1172 1.395 . S
C1174 C1177 1.403 . S
C1175 C1172 1.403 . S
C1175 C1176 1.524 . S
C1175 C1179 1.400 . S
C1176 H1161 0.960 . S
C1176 H1162 0.960 . S
C1176 H1163 0.960 . S
C1176 C1175 1.524 . S
C1177 C1174 1.403 . S
C1177 C1178 1.392 . S
C1177 C1181 1.495 . S
C1178 C1177 1.392 . S
C1178 C1179 1.385 . S
C1178 C1180 1.478 . S
C1179 H1173 0.930 . S
C1179 C1175 1.400 . S
C1179 C1178 1.385 . S
C1180 C1178 1.478 . S
C1180 C1182 1.381 . S
C1180 C1186 1.383 . S
C1181 C1177 1.495 . S
C1181 H1187 0.959 . S
C1181 H1188 0.961 . S
C1181 H1189 0.960 . S
C1182 C1180 1.381 . S
C1182 C1183 1.394 . S
C1182 H1190 0.930 . S
C1183 C1182 1.394 . S
C1183 C1184 1.383 . S
C1183 H1191 0.929 . S
C1184 C1183 1.383 . S
C1184 C1185 1.377 . S
C1185 H1169 0.930 . S
C1185 C1184 1.377 . S
C1185 C1186 1.379 . S
C1186 H1170 0.931 . S
C1186 C1180 1.383 . S
C1186 C1185 1.379 . S
H1187 C1181 0.959 . S
H1188 C1181 0.961 . S
H1189 C1181 0.960 . S
H1190 C1182 0.930 . S
H1191 C1183 0.929 . S
H1192 C1200 0.929 . S
H1193 C1202 0.930 . S
H1194 C1204 0.930 . S
H1195 C1207 0.929 . S
H1196 C1210 0.930 . S
H1197 C1212 0.960 . S
H1198 C1212 0.960 . S
H1199 C1212 0.960 . S
C1200 H1192 0.929 . S
C1200 C1201 1.377 . S
C1200 C1202 1.384 . S
C1201 C1200 1.377 . S
C1201 C1207 1.390 . S
C1202 H1193 0.930 . S
C1202 C1200 1.384 . S
C1202 C1203 1.372 . S
C1203 C1202 1.372 . S
C1203 C1204 1.400 . S
C1203 C1208 1.490 . S
C1204 H1194 0.930 . S
C1204 C1203 1.400 . S
C1204 C1207 1.386 . S
H1205 C1221 0.930 . S
H1206 C1222 0.931 . S
C1207 H1195 0.929 . S
C1207 C1201 1.390 . S
C1207 C1204 1.386 . S
C1208 C1203 1.490 . S
C1208 C1210 1.395 . S
C1208 C1211 1.403 . S
H1209 C1215 0.930 . S
C1210 H1196 0.930 . S
C1210 C1208 1.395 . S
C1210 C1213 1.403 . S
C1211 C1208 1.403 . S
C1211 C1212 1.524 . S
C1211 C1215 1.400 . S
C1212 H1197 0.960 . S
C1212 H1198 0.960 . S
C1212 H1199 0.960 . S
C1212 C1211 1.524 . S
C1213 C1210 1.403 . S
C1213 C1214 1.392 . S
C1213 C1217 1.495 . S
C1214 C1213 1.392 . S
C1214 C1215 1.385 . S
C1214 C1216 1.478 . S
C1215 H1209 0.930 . S
C1215 C1211 1.400 . S
C1215 C1214 1.385 . S
C1216 C1214 1.478 . S
C1216 C1218 1.381 . S
C1216 C1222 1.383 . S
C1217 C1213 1.495 . S
C1217 H1223 0.959 . S
C1217 H1224 0.961 . S
C1217 H1225 0.960 . S
C1218 C1216 1.381 . S
C1218 C1219 1.394 . S
C1218 H1226 0.930 . S
C1219 C1218 1.394 . S
C1219 C1220 1.383 . S
C1219 H1227 0.929 . S
C1220 C1219 1.383 . S
C1220 C1221 1.377 . S
C1221 H1205 0.930 . S
C1221 C1220 1.377 . S
C1221 C1222 1.379 . S
C1222 H1206 0.931 . S
C1222 C1216 1.383 . S
C1222 C1221 1.379 . S
H1223 C1217 0.959 . S
H1224 C1217 0.961 . S
H1225 C1217 0.960 . S
H1226 C1218 0.930 . S
H1227 C1219 0.929 . S
H1228 C1236 0.929 . S
H1229 C1238 0.930 . S
H1230 C1240 0.930 . S
H1231 C1243 0.929 . S
H1232 C1246 0.930 1_545 S
H1233 C1248 0.960 . S
H1234 C1248 0.960 . S
H1235 C1248 0.960 . S
C1236 H1228 0.929 . S
C1236 C1237 1.377 . S
C1236 C1238 1.384 . S
C1237 C1236 1.377 . S
C1237 C1243 1.390 1_565 S
C1238 H1229 0.930 . S
C1238 C1236 1.384 . S
C1238 C1239 1.372 . S
C1239 C1238 1.372 . S
C1239 C1240 1.400 1_565 S
C1239 C1244 1.490 . S
C1240 H1230 0.930 . S
C1240 C1239 1.400 1_545 S
C1240 C1243 1.386 . S
H1241 C1257 0.930 1_545 S
H1242 C1258 0.931 1_545 S
C1243 H1231 0.929 . S
C1243 C1237 1.390 1_545 S
C1243 C1240 1.386 . S
C1244 C1239 1.490 . S
C1244 C1246 1.395 . S
C1244 C1247 1.403 . S
H1245 C1251 0.930 . S
C1246 H1232 0.930 1_565 S
C1246 C1244 1.395 . S
C1246 C1249 1.403 . S
C1247 C1244 1.403 . S
C1247 C1248 1.524 . S
C1247 C1251 1.400 . S
C1248 H1233 0.960 . S
C1248 H1234 0.960 . S
C1248 H1235 0.960 . S
C1248 C1247 1.524 . S
C1249 C1246 1.403 . S
C1249 C1250 1.392 . S
C1249 C1253 1.495 1_565 S
C1250 C1249 1.392 . S
C1250 C1251 1.385 . S
C1250 C1252 1.478 . S
C1251 H1245 0.930 . S
C1251 C1247 1.400 . S
C1251 C1250 1.385 . S
C1252 C1250 1.478 . S
C1252 C1254 1.381 . S
C1252 C1258 1.383 . S
C1253 C1249 1.495 1_545 S
C1253 H1259 0.959 . S
C1253 H1260 0.961 . S
C1253 H1261 0.960 1_545 S
C1254 C1252 1.381 . S
C1254 C1255 1.394 . S
C1254 H1262 0.930 . S
C1255 C1254 1.394 . S
C1255 C1256 1.383 . S
C1255 H1263 0.929 . S
C1256 C1255 1.383 . S
C1256 C1257 1.377 . S
C1257 H1241 0.930 1_565 S
C1257 C1256 1.377 . S
C1257 C1258 1.379 . S
C1258 H1242 0.931 1_565 S
C1258 C1252 1.383 . S
C1258 C1257 1.379 . S
H1259 C1253 0.959 . S
H1260 C1253 0.961 . S
H1261 C1253 0.960 1_565 S
H1262 C1254 0.930 . S
H1263 C1255 0.929 . S
H1264 C1272 0.929 . S
H1265 C1274 0.930 . S
H1266 C1276 0.930 . S
H1267 C1279 0.929 . S
H1268 C1282 0.930 . S
H1269 C1284 0.960 . S
H1270 C1284 0.960 . S
H1271 C1284 0.960 . S
C1272 H1264 0.929 . S
C1272 C1273 1.377 . S
C1272 C1274 1.384 . S
C1273 C1272 1.377 . S
C1273 C1279 1.390 . S
C1274 H1265 0.930 . S
C1274 C1272 1.384 . S
C1274 C1275 1.372 . S
C1275 C1274 1.372 . S
C1275 C1276 1.400 . S
C1275 C1280 1.490 . S
C1276 H1266 0.930 . S
C1276 C1275 1.400 . S
C1276 C1279 1.386 . S
H1277 C1293 0.930 . S
H1278 C1294 0.931 . S
C1279 H1267 0.929 . S
C1279 C1273 1.390 . S
C1279 C1276 1.386 . S
C1280 C1275 1.490 . S
C1280 C1282 1.395 . S
C1280 C1283 1.403 . S
H1281 C1287 0.930 . S
C1282 H1268 0.930 . S
C1282 C1280 1.395 . S
C1282 C1285 1.403 . S
C1283 C1280 1.403 . S
C1283 C1284 1.524 . S
C1283 C1287 1.400 . S
C1284 H1269 0.960 . S
C1284 H1270 0.960 . S
C1284 H1271 0.960 . S
C1284 C1283 1.524 . S
C1285 C1282 1.403 . S
C1285 C1286 1.392 . S
C1285 C1289 1.495 . S
C1286 C1285 1.392 . S
C1286 C1287 1.385 . S
C1286 C1288 1.478 . S
C1287 H1281 0.930 . S
C1287 C1283 1.400 . S
C1287 C1286 1.385 . S
C1288 C1286 1.478 . S
C1288 C1290 1.381 . S
C1288 C1294 1.383 . S
C1289 C1285 1.495 . S
C1289 H1295 0.959 . S
C1289 H1296 0.961 . S
C1289 H1297 0.960 . S
C1290 C1288 1.381 . S
C1290 C1291 1.394 . S
C1290 H1298 0.930 . S
C1291 C1290 1.394 . S
C1291 C1292 1.383 . S
C1291 H1299 0.929 . S
C1292 C1291 1.383 . S
C1292 C1293 1.377 . S
C1293 H1277 0.930 . S
C1293 C1292 1.377 . S
C1293 C1294 1.379 . S
C1294 H1278 0.931 . S
C1294 C1288 1.383 . S
C1294 C1293 1.379 . S
H1295 C1289 0.959 . S
H1296 C1289 0.961 . S
H1297 C1289 0.960 . S
H1298 C1290 0.930 . S
H1299 C1291 0.929 . S
H1300 C1308 0.929 . S
H1301 C1310 0.930 . S
H1302 C1312 0.930 . S
H1303 C1315 0.929 . S
H1304 C1318 0.930 . S
H1305 C1320 0.960 . S
H1306 C1320 0.960 . S
H1307 C1320 0.960 . S
C1308 H1300 0.929 . S
C1308 C1309 1.377 . S
C1308 C1310 1.384 . S
C1309 C1308 1.377 . S
C1309 C1315 1.390 . S
C1310 H1301 0.930 . S
C1310 C1308 1.384 . S
C1310 C1311 1.372 . S
C1311 C1310 1.372 . S
C1311 C1312 1.400 . S
C1311 C1316 1.490 . S
C1312 H1302 0.930 . S
C1312 C1311 1.400 . S
C1312 C1315 1.386 . S
H1313 C1329 0.930 . S
H1314 C1330 0.931 . S
C1315 H1303 0.929 . S
C1315 C1309 1.390 . S
C1315 C1312 1.386 . S
C1316 C1311 1.490 . S
C1316 C1318 1.395 . S
C1316 C1319 1.403 . S
H1317 C1323 0.930 . S
C1318 H1304 0.930 . S
C1318 C1316 1.395 . S
C1318 C1321 1.403 . S
C1319 C1316 1.403 . S
C1319 C1320 1.524 . S
C1319 C1323 1.400 . S
C1320 H1305 0.960 . S
C1320 H1306 0.960 . S
C1320 H1307 0.960 . S
C1320 C1319 1.524 . S
C1321 C1318 1.403 . S
C1321 C1322 1.392 . S
C1321 C1325 1.495 . S
C1322 C1321 1.392 . S
C1322 C1323 1.385 . S
C1322 C1324 1.478 . S
C1323 H1317 0.930 . S
C1323 C1319 1.400 . S
C1323 C1322 1.385 . S
C1324 C1322 1.478 . S
C1324 C1326 1.381 . S
C1324 C1330 1.383 . S
C1325 C1321 1.495 . S
C1325 H1331 0.959 . S
C1325 H1332 0.961 . S
C1325 H1333 0.960 . S
C1326 C1324 1.381 . S
C1326 C1327 1.394 . S
C1326 H1334 0.930 . S
C1327 C1326 1.394 . S
C1327 C1328 1.383 . S
C1327 H1335 0.929 . S
C1328 C1327 1.383 . S
C1328 C1329 1.377 . S
C1329 H1313 0.930 . S
C1329 C1328 1.377 . S
C1329 C1330 1.379 . S
C1330 H1314 0.931 . S
C1330 C1324 1.383 . S
C1330 C1329 1.379 . S
H1331 C1325 0.959 . S
H1332 C1325 0.961 . S
H1333 C1325 0.960 . S
H1334 C1326 0.930 . S
H1335 C1327 0.929 . S
C481 C255 0.809 . S
C500 C321 0.833 . S
C536 C361 1.747 . S
C517 C294 1.780 . S
C572 C410 1.607 . S
C553 C177 1.651 . S
C608 C441 2.105 . S
C589 C216 2.132 . S
C644 C330 0.746 . S
C625 C99 0.819 1_545 S
C661 C138 1.774 . S
C680 C370 1.784 . S
C697 C21 1.640 . S
C716 C401 1.637 . S
C733 C60 2.158 1_556 S
C752 C450 2.143 1_655 S
C788 C331 1.066 . S
C769 C196 0.961 . S
C824 C371 0.445 . S
C805 C235 0.570 1_545 S
C860 C407 0.359 . S
C841 C289 0.438 . S
C877 C157 1.130 . S
C896 C451 1.207 . S
C913 C40 0.976 . S
C932 C322 1.093 1_655 S
C968 C362 0.432 . S
C949 C79 0.542 . S
C1004 C398 0.351 . S
C985 C133 0.458 . S
C1021 C1 1.132 . S
C1040 C442 1.226 . S
C1057 C211 2.116 . S
C1076 C327 2.217 1_554 S
C1093 C250 1.676 . S
C1112 C367 1.716 1_554 S
C1148 C411 2.762 . S
C1129 C274 2.515 . S
C1184 C447 1.768 1_554 S
C1165 C172 1.696 . S
C1201 C55 2.107 . S
C1220 C318 2.226 . S
C1256 C358 1.711 . S
C1237 C94 1.672 1_565 S
C1292 C402 2.762 . S
C1273 C118 2.516 . S
C1309 C16 1.711 . S
C1328 C438 1.765 . S
