# Generated by pormake.
# Topology zzz, (3,6)-cn, num edge types: 1
# Building blocks:
#     Node 0, Type 0, BuildingBlock: BELTOD_clean_linker_0, # of connection points: 3
#     Node 1, Type 0, BuildingBlock: BELTOD_clean_linker_0, # of connection points: 3
#     Node 2, Type 0, BuildingBlock: BELTOD_clean_linker_0, # of connection points: 3
#     Node 3, Type 0, BuildingBlock: BELTOD_clean_linker_0, # of connection points: 3
#     Node 4, Type 0, BuildingBlock: BELTOD_clean_linker_0, # of connection points: 3
#     Node 5, Type 0, BuildingBlock: BELTOD_clean_linker_0, # of connection points: 3
#     Node 6, Type 0, BuildingBlock: BELTOD_clean_linker_0, # of connection points: 3
#     Node 7, Type 0, BuildingBlock: BELTOD_clean_linker_0, # of connection points: 3
#     Node 8, Type 1, BuildingBlock: VOLQOD_clean_sbu_1, # of connection points: 6
#     Node 9, Type 1, BuildingBlock: VOLQOD_clean_sbu_1, # of connection points: 6
#     Node 10, Type 1, BuildingBlock: VOLQOD_clean_sbu_1, # of connection points: 6
#     Node 11, Type 1, BuildingBlock: VOLQOD_clean_sbu_1, # of connection points: 6
#     Edge 12, Type (0, 1), None
#     Edge 13, Type (0, 1), None
#     Edge 14, Type (0, 1), None
#     Edge 15, Type (0, 1), None
#     Edge 16, Type (0, 1), None
#     Edge 17, Type (0, 1), None
#     Edge 18, Type (0, 1), None
#     Edge 19, Type (0, 1), None
#     Edge 20, Type (0, 1), None
#     Edge 21, Type (0, 1), None
#     Edge 22, Type (0, 1), None
#     Edge 23, Type (0, 1), None
#     Edge 24, Type (0, 1), None
#     Edge 25, Type (0, 1), None
#     Edge 26, Type (0, 1), None
#     Edge 27, Type (0, 1), None
#     Edge 28, Type (0, 1), None
#     Edge 29, Type (0, 1), None
#     Edge 30, Type (0, 1), None
#     Edge 31, Type (0, 1), None
#     Edge 32, Type (0, 1), None
#     Edge 33, Type (0, 1), None
#     Edge 34, Type (0, 1), None
#     Edge 35, Type (0, 1), None
# Relax obj value: 0.324
# Max RMSD: 0.252
# Mean RMSD: 0.197
data_MOF--net-zzz--node1-VOLQOD_clean_sbu_1--node2-BELTOD_clean_linker_0--edge1-none
_symmetry_space_group_name_H-M    P1
_symmetry_Int_Tables_number       1
_symmetry_cell_setting            triclinic
loop_
_symmetry_equiv_pos_as_xyz
'x, y, z'
_cell_length_a     28.714682
_cell_length_b     28.113724
_cell_length_c     11.141199
_cell_angle_alpha  90.483987
_cell_angle_beta   90.200842
_cell_angle_gamma 92.471031
loop_
_atom_site_label
_atom_site_type_symbol
_atom_site_fract_x
_atom_site_fract_y
_atom_site_fract_z
_atom_type_partial_charge
P0 P 0.78228 0.40039 0.18477 0.0
H1 H 0.77533 0.4068 0.44648 0.0
H2 H 0.82702 0.44805 0.59091 0.0
H3 H 0.88826 0.53264 0.30676 0.0
H4 H 0.83685 0.49076 0.16129 0.0
H5 H 0.71138 0.34637 0.05074 0.0
H6 H 0.65484 0.36772 0.89942 0.0
H7 H 0.6976 0.51618 0.94443 0.0
H8 H 0.75501 0.49418 0.09496 0.0
H9 H 0.87978 0.38809 0.24768 0.0
H10 H 0.79498 0.37785 0.92679 0.0
O11 O 0.76332 0.35165 0.25734 0.0
H12 H 0.94983 0.39315 0.12414 0.0
H13 H 0.86474 0.38141 0.80416 0.0
C14 C 0.80253 0.4452 0.29267 0.0
C15 C 0.79805 0.43585 0.41549 0.0
C16 C 0.82743 0.45976 0.49845 0.0
C17 C 0.86143 0.49366 0.45994 0.0
C18 C 0.86167 0.50745 0.33917 0.0
C19 C 0.83235 0.48328 0.25583 0.0
C20 C 0.73671 0.41871 0.0861 0.0
C21 C 0.70827 0.38359 0.02909 0.0
C22 C 0.67645 0.39583 0.94096 0.0
C23 C 0.67199 0.44368 0.90878 0.0
C24 C 0.70038 0.47898 0.96669 0.0
C25 C 0.7329 0.4665 0.05376 0.0
C26 C 0.83208 0.38532 0.0965 0.0
C27 C 0.87615 0.38526 0.15105 0.0
C28 C 0.91622 0.38757 0.08056 0.0
C29 C 0.9125 0.38856 0.95488 0.0
C30 C 0.86856 0.38079 0.90094 0.0
C31 C 0.82846 0.3795 0.9715 0.0
P32 P 0.04088 0.77133 0.21329 0.0
H33 H 0.01592 0.76952 0.46819 0.0
H34 H 0.98565 0.8333 0.59055 0.0
H35 H 0.94288 0.90485 0.26955 0.0
H36 H 0.97087 0.83939 0.14774 0.0
H37 H 0.05009 0.66987 0.2478 0.0
H38 H 0.03192 0.60126 0.12138 0.0
H39 H 0.9621 0.69026 0.86854 0.0
H40 H 0.97893 0.75941 0.00097 0.0
H41 H 0.0748 0.86904 0.25901 0.0
H42 H 0.0669 0.77278 0.95502 0.0
O43 O 0.08252 0.75434 0.30659 0.0
H44 H 0.08329 0.93671 0.12277 0.0
H45 H 0.07381 0.84042 0.81956 0.0
C46 C 0.99729 0.80079 0.29895 0.0
C47 C 0.99757 0.79744 0.4243 0.0
C48 C 0.98006 0.83404 0.49436 0.0
C49 C 0.96318 0.87475 0.43919 0.0
C50 C 0.9562 0.87415 0.31428 0.0
C51 C 0.97228 0.83669 0.24461 0.0
C52 C 0.01737 0.72002 0.13169 0.0
C53 C 0.0301 0.67474 0.16657 0.0
C54 C 0.01957 0.63532 0.09342 0.0
C55 C 0.99655 0.64035 0.98252 0.0
C56 C 0.98054 0.68529 0.95214 0.0
C57 C 0.99014 0.72475 0.02773 0.0
C58 C 0.06707 0.81618 0.11683 0.0
C59 C 0.07641 0.86226 0.16328 0.0
C60 C 0.08162 0.90091 0.08574 0.0
C61 C 0.07857 0.8934 0.96153 0.0
C62 C 0.07604 0.84677 0.91555 0.0
C63 C 0.07115 0.80817 0.99308 0.0
P64 P 0.74584 0.07036 0.17942 0.0
H65 H 0.74858 0.04668 0.43541 0.0
H66 H 0.69391 0.99821 0.55545 0.0
H67 H 0.63095 0.93974 0.23092 0.0
H68 H 0.68697 0.98666 0.11147 0.0
H69 H 0.82462 0.13076 0.10656 0.0
H70 H 0.89123 0.11723 0.97862 0.0
H71 H 0.85063 0.96744 0.95601 0.0
H72 H 0.78343 0.98167 0.08478 0.0
H73 H 0.64954 0.09901 0.19631 0.0
H74 H 0.74742 0.06948 0.91466 0.0
O75 O 0.75437 0.11769 0.26946 0.0
H76 H 0.58523 0.09002 0.05098 0.0
H77 H 0.68373 0.06035 0.7718 0.0
C78 C 0.7207 0.02149 0.26474 0.0
C79 C 0.72455 0.02172 0.39016 0.0
C80 C 0.69343 0.99364 0.45877 0.0
C81 C 0.65769 0.9658 0.40226 0.0
C82 C 0.65802 0.96104 0.27667 0.0
C83 C 0.68985 0.9882 0.20839 0.0
C84 C 0.79978 0.05708 0.10757 0.0
C85 C 0.83062 0.09481 0.07651 0.0
C86 C 0.86843 0.08703 0.00182 0.0
C87 C 0.87609 0.04125 0.95583 0.0
C88 C 0.8457 0.00312 0.98965 0.0
C89 C 0.80757 0.01109 0.06429 0.0
C90 C 0.70322 0.08406 0.06716 0.0
C91 C 0.65748 0.093 0.10256 0.0
C92 C 0.62079 0.08816 0.01959 0.0
C93 C 0.62987 0.07455 0.90089 0.0
C94 C 0.67613 0.07124 0.863 0.0
C95 C 0.71261 0.07608 0.94542 0.0
P96 P 0.505 0.72559 0.24197 0.0
H97 H 0.53764 0.7325 0.49128 0.0
H98 H 0.57174 0.66929 0.60517 0.0
H99 H 0.61257 0.60176 0.27485 0.0
H100 H 0.58107 0.66688 0.16152 0.0
H101 H 0.44849 0.80559 0.19276 0.0
H102 H 0.45313 0.86627 0.03963 0.0
H103 H 0.58976 0.82143 0.93831 0.0
H104 H 0.58461 0.75976 0.09392 0.0
H105 H 0.47582 0.62611 0.28501 0.0
H106 H 0.48903 0.71975 0.98028 0.0
O107 O 0.4636 0.73563 0.34275 0.0
H108 H 0.47251 0.55694 0.14807 0.0
H109 H 0.48641 0.65144 0.84614 0.0
C110 C 0.55474 0.70291 0.31805 0.0
C111 C 0.55683 0.706 0.44348 0.0
C112 C 0.57661 0.66968 0.50876 0.0
C113 C 0.59305 0.62962 0.44833 0.0
C114 C 0.59944 0.63187 0.32353 0.0
C115 C 0.58115 0.66913 0.25863 0.0
C116 C 0.51646 0.77864 0.15606 0.0
C117 C 0.4801 0.80954 0.14037 0.0
C118 C 0.48255 0.84384 0.05111 0.0
C119 C 0.52144 0.84796 0.97488 0.0
C120 C 0.55928 0.81888 0.99522 0.0
C121 C 0.5566 0.78405 0.08485 0.0
C122 C 0.48386 0.67814 0.14337 0.0
C123 C 0.47611 0.63197 0.18902 0.0
C124 C 0.47423 0.5925 0.11116 0.0
C125 C 0.47977 0.59929 0.98747 0.0
C126 C 0.48235 0.64561 0.94168 0.0
C127 C 0.48409 0.68478 0.01889 0.0
P128 P 0.22276 0.50128 0.31079 0.0
H129 H 0.18659 0.41156 0.20769 0.0
H130 H 0.13633 0.40389 0.03191 0.0
H131 H 0.19445 0.53736 0.89945 0.0
H132 H 0.24223 0.54676 0.08075 0.0
H133 H 0.25583 0.52761 0.54657 0.0
H134 H 0.33323 0.5304 0.63631 0.0
H135 H 0.39384 0.51303 0.28494 0.0
H136 H 0.3156 0.50968 0.19532 0.0
H137 H 0.12657 0.50413 0.22895 0.0
H138 H 0.22278 0.5958 0.43189 0.0
O139 O 0.20594 0.45659 0.40018 0.0
H140 H 0.0616 0.54492 0.31287 0.0
H141 H 0.1572 0.6358 0.51917 0.0
C142 C 0.2171 0.48044 0.1588 0.0
C143 C 0.1904 0.43813 0.13849 0.0
C144 C 0.1615 0.43369 0.038 0.0
C145 C 0.1611 0.47051 0.95433 0.0
C146 C 0.19432 0.50854 0.96346 0.0
C147 C 0.22206 0.51373 0.06642 0.0
C148 C 0.28001 0.5189 0.36424 0.0
C149 C 0.28582 0.52615 0.48809 0.0
C150 C 0.33009 0.5273 0.53958 0.0
C151 C 0.3695 0.52132 0.46792 0.0
C152 C 0.36401 0.51782 0.34239 0.0
C153 C 0.31935 0.51607 0.29088 0.0
C154 C 0.17962 0.5455 0.32805 0.0
C155 C 0.13406 0.5346 0.28687 0.0
C156 C 0.09659 0.55862 0.33363 0.0
C157 C 0.10436 0.59232 0.42578 0.0
C158 C 0.15034 0.60935 0.44929 0.0
C159 C 0.18794 0.58559 0.40162 0.0
P160 P 0.11877 0.24654 0.24573 0.0
H161 H 0.17892 0.17386 0.1563 0.0
H162 H 0.16024 0.11582 -0.00167 0.0
H163 H 0.06011 0.2102 0.85183 0.0
H164 H 0.0789 0.26801 0.01075 0.0
H165 H 0.17453 0.32193 0.3659 0.0
H166 H 0.14847 0.39223 0.47053 0.0
H167 H 0.0165 0.37863 0.28546 0.0
H168 H 0.04197 0.307 0.18299 0.0
H169 H 0.06303 0.25814 0.46125 0.0
H170 H 0.05774 0.1669 0.14715 0.0
O171 O 0.16249 0.23106 0.33445 0.0
H172 H 0.00297 0.20738 0.55407 0.0
H173 H -0.00173 0.11675 0.23826 0.0
C174 C 0.12954 0.22486 0.09684 0.0
C175 C 0.15492 0.18339 0.08633 0.0
C176 C 0.14383 0.1498 -0.00353 0.0
C177 C 0.10724 0.15763 0.91641 0.0
C178 C 0.08752 0.20266 0.91507 0.0
C179 C 0.09883 0.23628 0.00472 0.0
C180 C 0.11016 0.30902 0.2668 0.0
C181 C 0.1409 0.33527 0.34263 0.0
C182 C 0.12619 0.37586 0.40193 0.0
C183 C 0.08083 0.39103 0.38487 0.0
C184 C 0.05181 0.36766 0.29929 0.0
C185 C 0.06659 0.32707 0.23963 0.0
C186 C 0.06636 0.21584 0.2987 0.0
C187 C 0.04811 0.22813 0.41055 0.0
C188 C 0.01309 0.19931 0.46282 0.0
C189 C 0.99701 0.15678 0.4054 0.0
C190 C 0.01048 0.14862 0.28623 0.0
C191 C 0.04545 0.17736 0.23425 0.0
P192 P 0.3087 0.06266 0.26282 0.0
H193 H 0.35942 0.12918 0.10663 0.0
H194 H 0.40631 0.11033 0.93266 0.0
H195 H 0.33129 0.97411 0.89855 0.0
H196 H 0.28478 0.99346 0.07373 0.0
H197 H 0.22379 0.11558 0.26909 0.0
H198 H 0.14719 0.0975 0.35894 0.0
H199 H 0.18748 0.95453 0.43224 0.0
H200 H 0.2625 0.97142 0.33409 0.0
H201 H 0.39026 0.01225 0.17056 0.0
H202 H 0.31603 0.02435 0.50523 0.0
O203 O 0.32061 0.11699 0.31926 0.0
H204 H 0.43518 0.94951 0.2527 0.0
H205 H 0.36229 0.96186 0.5897 0.0
C206 C 0.31942 0.0623 0.10433 0.0
C207 C 0.35162 0.09622 0.05847 0.0
C208 C 0.37878 0.08511 0.95934 0.0
C209 C 0.37395 0.03978 0.90521 0.0
C210 C 0.33669 0.00885 0.94028 0.0
C211 C 0.30941 0.0202 0.03928 0.0
C212 C 0.24933 0.04543 0.29886 0.0
C213 C 0.21555 0.07991 0.30073 0.0
C214 C 0.17196 0.06959 0.35204 0.0
C215 C 0.16223 0.02491 0.40373 0.0
C216 C 0.19469 0.98933 0.39374 0.0
C217 C 0.23761 0.99919 0.33863 0.0
C218 C 0.34802 0.02193 0.32999 0.0
C219 C 0.38301 0.00138 0.26144 0.0
C220 C 0.40919 0.9654 0.30881 0.0
C221 C 0.40219 0.9503 0.42724 0.0
C222 C 0.36853 0.97239 0.49776 0.0
C223 C 0.34215 0.00835 0.44985 0.0
P224 P 0.4157 0.24295 0.17175 0.0
H225 H 0.35629 0.28516 0.99301 0.0
H226 H 0.38267 0.34789 0.85716 0.0
H227 H 0.52217 0.29655 0.87344 0.0
H228 H 0.49598 0.23535 0.01343 0.0
H229 H 0.39516 0.20544 0.40252 0.0
H230 H 0.42213 0.13809 0.51347 0.0
H231 H 0.49381 0.08911 0.19844 0.0
H232 H 0.46689 0.15829 0.08644 0.0
H233 H 0.41377 0.34546 0.1684 0.0
H234 H 0.50316 0.2407 0.31477 0.0
O235 O 0.36076 0.25361 0.20832 0.0
H236 H 0.46507 0.40863 0.24754 0.0
H237 H 0.5534 0.30421 0.40285 0.0
C238 C 0.42433 0.25597 0.01581 0.0
C239 C 0.39209 0.28564 0.96268 0.0
C240 C 0.40739 0.32239 0.88688 0.0
C241 C 0.45487 0.32857 0.85942 0.0
C242 C 0.48545 0.29348 0.8954 0.0
C243 C 0.47022 0.25733 0.97312 0.0
C244 C 0.42892 0.1868 0.23641 0.0
C245 C 0.41602 0.17991 0.35615 0.0
C246 C 0.43186 0.14162 0.41996 0.0
C247 C 0.46078 0.10898 0.36516 0.0
C248 C 0.47177 0.11411 0.24276 0.0
C249 C 0.45644 0.15347 0.17886 0.0
C250 C 0.45335 0.28838 0.23986 0.0
C251 C 0.44436 0.33603 0.21848 0.0
C252 C 0.47442 0.37221 0.26235 0.0
C253 C 0.51344 0.36159 0.33271 0.0
C254 C 0.52372 0.31363 0.3491 0.0
C255 C 0.49426 0.27726 0.30126 0.0
O256 O 0.1281 0.01476 0.59387 0.0
Zn257 Zn 0.08544 0.01923 0.73614 0.0
O258 O 0.02008 0.02134 0.68129 0.0
Zn259 Zn 0.99472 0.08068 0.7319 0.0
Zn260 Zn 0.01631 0.01787 0.50662 0.0
Zn261 Zn 0.98188 0.96907 0.74711 0.0
O262 O 0.93845 0.07079 0.83502 0.0
O263 O 0.92712 0.99222 0.84443 0.0
O264 O 0.1064 0.08023 0.8246 0.0
O265 O 0.04171 0.1205 0.82202 0.0
O266 O 0.98333 0.1219 0.59284 0.0
O267 O 0.98697 0.07425 0.43466 0.0
O268 O 0.98574 0.95606 0.45014 0.0
O269 O 0.0944 0.96284 0.84524 0.0
O270 O 0.96231 0.92095 0.61857 0.0
O271 O 0.02163 0.93216 0.85547 0.0
C272 C 0.12143 0.01815 0.4813 0.0
C273 C 0.91565 0.03417 0.87327 0.0
C274 C 0.98248 0.11551 0.47996 0.0
C275 C 0.0845 0.11759 0.84872 0.0
C276 C 0.96694 0.92062 0.50487 0.0
C277 C 0.06451 0.93199 0.88418 0.0
O278 O 0.08092 0.02136 0.43653 0.0
O279 O 0.48815 0.08132 0.55028 0.0
Zn280 Zn 0.50214 0.04378 0.69677 0.0
O281 O 0.50968 0.97754 0.65 0.0
Zn282 Zn 0.45726 0.93834 0.71446 0.0
Zn283 Zn 0.51113 0.9718 0.47549 0.0
Zn284 Zn 0.56808 0.95417 0.71171 0.0
O285 O 0.48091 0.89502 0.83883 0.0
O286 O 0.55829 0.89811 0.82634 0.0
O287 O 0.44542 0.05065 0.79967 0.0
O288 O 0.41053 0.97878 0.7962 0.0
O289 O 0.42291 0.90058 0.584 0.0
O290 O 0.4729 0.91243 0.44127 0.0
O291 O 0.57635 0.96566 0.41843 0.0
O292 O 0.55835 0.0716 0.78976 0.0
O293 O 0.61603 0.94559 0.58045 0.0
O294 O 0.59863 0.00609 0.80774 0.0
C295 C 0.48024 0.0716 0.43993 0.0
C296 C 0.52051 0.88165 0.87355 0.0
C297 C 0.43086 0.91248 0.47613 0.0
C298 C 0.41111 0.02258 0.82617 0.0
C299 C 0.61424 0.95472 0.46864 0.0
C300 C 0.59336 0.04997 0.82892 0.0
O301 O 0.48581 0.03017 0.39649 0.0
O302 O 0.41494 0.49541 0.63077 0.0
Zn303 Zn 0.46533 0.47767 0.74576 0.0
O304 O 0.52589 0.48141 0.66386 0.0
Zn305 Zn 0.5543 0.4198 0.66844 0.0
Zn306 Zn 0.51731 0.49867 0.49785 0.0
Zn307 Zn 0.56784 0.52911 0.73662 0.0
O308 O 0.61474 0.42334 0.7605 0.0
O309 O 0.62087 0.49874 0.82309 0.0
O310 O 0.44976 0.41034 0.8046 0.0
O311 O 0.514 0.37324 0.75829 0.0
O312 O 0.55548 0.38774 0.50609 0.0
O313 O 0.52057 0.44122 0.39653 0.0
O314 O 0.56083 0.55187 0.44534 0.0
O315 O 0.46318 0.52646 0.88165 0.0
O316 O 0.59027 0.57923 0.61821 0.0
O317 O 0.5319 0.56484 0.85642 0.0
C318 C 0.41474 0.51268 0.5254 0.0
C319 C 0.63509 0.45638 0.82299 0.0
C320 C 0.53503 0.39955 0.40986 0.0
C321 C 0.47335 0.37287 0.8027 0.0
C322 C 0.58514 0.58279 0.50507 0.0
C323 C 0.49248 0.56035 0.90758 0.0
O324 O 0.45213 0.51868 0.46563 0.0
O325 O 0.92116 0.54122 0.56347 0.0
Zn326 Zn 0.98513 0.55768 0.643 0.0
O327 O 0.01361 0.49937 0.70226 0.0
Zn328 Zn 0.01764 0.49525 0.87162 0.0
Zn329 Zn 0.98171 0.44352 0.64114 0.0
Zn330 Zn 0.07725 0.50499 0.64945 0.0
O331 O 0.08027 0.47575 0.92935 0.0
O332 O 0.12495 0.48797 0.77026 0.0
O333 O 0.98319 0.60486 0.78668 0.0
O334 O 0.0065 0.55948 0.93712 0.0
O335 O 0.97035 0.44859 0.9321 0.0
O336 O 0.95477 0.40176 0.77399 0.0
O337 O 0.02279 0.41161 0.52211 0.0
O338 O 0.02825 0.58365 0.50911 0.0
O339 O 0.08547 0.46117 0.50594 0.0
O340 O 0.08913 0.57441 0.62228 0.0
C341 C 0.90443 0.50009 0.53175 0.0
C342 C 0.1199 0.47584 0.87877 0.0
C343 C 0.95018 0.41183 0.8851 0.0
C344 C 0.99359 0.59926 0.89771 0.0
C345 C 0.06131 0.42415 0.47219 0.0
C346 C 0.07186 0.59053 0.52734 0.0
O347 O 0.92564 0.46239 0.55353 0.0
loop_
_geom_bond_atom_site_label_1
_geom_bond_atom_site_label_2
_geom_bond_distance
_geom_bond_site_symmetry_2
_ccdc_geom_bond_type
P0 O11 1.490 . S
P0 C14 1.812 . S
P0 C20 1.803 . S
P0 C26 1.819 1_554 S
H1 C15 0.941 . S
H2 C16 0.939 . S
H3 C18 0.940 . S
H4 C19 0.940 . S
H5 C21 0.939 . S
H6 C22 0.942 . S
H7 C24 0.940 . S
H8 C25 0.939 . S
H9 C27 0.941 . S
H10 C31 0.939 . S
O11 P0 1.490 . S
H12 C28 0.939 . S
H13 C30 0.940 . S
C14 P0 1.812 . S
C14 C15 1.389 . S
C14 C19 1.391 . S
C15 H1 0.941 . S
C15 C14 1.389 . S
C15 C16 1.397 . S
C16 H2 0.939 . S
C16 C15 1.397 . S
C16 C17 1.378 . S
C17 C16 1.378 . S
C17 C18 1.378 . S
C18 H3 0.940 . S
C18 C17 1.378 . S
C18 C19 1.396 . S
C19 H4 0.940 . S
C19 C14 1.391 . S
C19 C18 1.396 . S
C20 P0 1.803 . S
C20 C21 1.378 1_554 S
C20 C25 1.400 . S
C21 H5 0.939 . S
C21 C20 1.378 1_556 S
C21 C22 1.361 . S
C22 H6 0.942 . S
C22 C21 1.361 . S
C22 C23 1.369 . S
C23 C22 1.369 . S
C23 C24 1.404 1_556 S
C24 H7 0.940 . S
C24 C23 1.404 1_554 S
C24 C25 1.389 . S
C25 H8 0.939 . S
C25 C20 1.400 . S
C25 C24 1.389 . S
C26 P0 1.819 1_556 S
C26 C27 1.391 . S
C26 C31 1.391 . S
C27 H9 0.941 . S
C27 C26 1.391 . S
C27 C28 1.396 . S
C28 H12 0.939 . S
C28 C27 1.396 . S
C28 C29 1.397 . S
C29 C28 1.397 . S
C29 C30 1.385 . S
C30 H13 0.940 . S
C30 C29 1.385 . S
C30 C31 1.388 . S
C31 H10 0.939 . S
C31 C26 1.391 . S
C31 C30 1.388 . S
P32 O43 1.490 . S
P32 C46 1.812 . S
P32 C52 1.803 . S
P32 C58 1.819 . S
H33 C47 0.941 . S
H34 C48 0.939 . S
H35 C50 0.940 . S
H36 C51 0.940 . S
H37 C53 0.939 1_556 S
H38 C54 0.942 . S
H39 C56 0.940 . S
H40 C57 0.939 . S
H41 C59 0.941 . S
H42 C63 0.939 1_655 S
O43 P32 1.490 . S
H44 C60 0.939 . S
H45 C62 0.940 . S
C46 P32 1.812 . S
C46 C47 1.389 . S
C46 C51 1.391 1_455 S
C47 H33 0.941 . S
C47 C46 1.389 . S
C47 C48 1.397 . S
C48 H34 0.939 . S
C48 C47 1.397 . S
C48 C49 1.378 . S
C49 C48 1.378 . S
C49 C50 1.378 1_455 S
C50 H35 0.940 . S
C50 C49 1.378 1_655 S
C50 C51 1.396 . S
C51 H36 0.940 . S
C51 C46 1.391 1_655 S
C51 C50 1.396 . S
C52 P32 1.803 . S
C52 C53 1.378 . S
C52 C57 1.400 1_455 S
C53 H37 0.939 1_554 S
C53 C52 1.378 . S
C53 C54 1.361 1_554 S
C54 H38 0.942 . S
C54 C53 1.361 1_556 S
C54 C55 1.369 1_456 S
C55 C54 1.369 1_654 S
C55 C56 1.404 . S
C56 H39 0.940 . S
C56 C55 1.404 . S
C56 C57 1.389 . S
C57 H40 0.939 . S
C57 C52 1.400 1_655 S
C57 C56 1.389 . S
C58 P32 1.819 . S
C58 C59 1.391 . S
C58 C63 1.391 1_554 S
C59 H41 0.941 . S
C59 C58 1.391 . S
C59 C60 1.396 1_554 S
C60 H44 0.939 . S
C60 C59 1.396 1_556 S
C60 C61 1.397 . S
C61 C60 1.397 . S
C61 C62 1.385 1_455 S
C62 H45 0.940 . S
C62 C61 1.385 1_655 S
C62 C63 1.388 1_655 S
C63 H42 0.939 1_455 S
C63 C58 1.391 1_556 S
C63 C62 1.388 1_455 S
P64 O75 1.490 . S
P64 C78 1.812 . S
P64 C84 1.803 . S
P64 C90 1.819 1_554 S
H65 C79 0.941 . S
H66 C80 0.939 . S
H67 C82 0.940 . S
H68 C83 0.947 . S
H69 C85 0.939 . S
H70 C86 0.942 . S
H71 C88 0.940 . S
H72 C89 0.939 . S
H73 C91 0.941 1_554 S
H74 C95 0.939 1_565 S
O75 P64 1.490 . S
H76 C92 0.939 . S
H77 C94 0.940 . S
C78 P64 1.812 . S
C78 C79 1.389 . S
C78 C83 1.379 1_545 S
C79 H65 0.941 . S
C79 C78 1.389 . S
C79 C80 1.397 . S
C80 H66 0.939 . S
C80 C79 1.397 . S
C80 C81 1.378 . S
C81 C80 1.378 . S
C81 C82 1.378 1_545 S
C82 H67 0.940 . S
C82 C81 1.378 1_565 S
C82 C83 1.401 . S
C83 H68 0.947 . S
C83 C78 1.379 1_565 S
C83 C82 1.401 . S
C84 P64 1.803 . S
C84 C85 1.378 1_554 S
C84 C89 1.400 1_545 S
C85 H69 0.939 . S
C85 C84 1.378 1_556 S
C85 C86 1.361 . S
C86 H70 0.942 . S
C86 C85 1.361 . S
C86 C87 1.369 . S
C87 C86 1.369 . S
C87 C88 1.404 1_546 S
C88 H71 0.940 . S
C88 C87 1.404 1_564 S
C88 C89 1.389 . S
C89 H72 0.939 . S
C89 C84 1.400 1_565 S
C89 C88 1.389 . S
C90 P64 1.819 1_556 S
C90 C91 1.391 . S
C90 C95 1.391 . S
C91 H73 0.941 1_556 S
C91 C90 1.391 . S
C91 C92 1.396 . S
C92 H76 0.939 . S
C92 C91 1.396 . S
C92 C93 1.397 . S
C93 C92 1.397 . S
C93 C94 1.385 1_545 S
C94 H77 0.940 . S
C94 C93 1.385 1_565 S
C94 C95 1.388 1_565 S
C95 H74 0.939 1_545 S
C95 C90 1.391 . S
C95 C94 1.388 1_545 S
P96 O107 1.490 . S
P96 C110 1.812 . S
P96 C116 1.803 . S
P96 C122 1.819 1_554 S
H97 C111 0.941 . S
H98 C112 0.939 . S
H99 C114 0.940 . S
H100 C115 0.940 . S
H101 C117 0.939 . S
H102 C118 0.942 . S
H103 C120 0.940 . S
H104 C121 0.939 . S
H105 C123 0.941 1_554 S
H106 C127 0.939 . S
O107 P96 1.490 . S
H108 C124 0.939 . S
H109 C126 0.940 . S
C110 P96 1.812 . S
C110 C111 1.389 . S
C110 C115 1.391 . S
C111 H97 0.941 . S
C111 C110 1.389 . S
C111 C112 1.397 . S
C112 H98 0.939 . S
C112 C111 1.397 . S
C112 C113 1.378 . S
C113 C112 1.378 . S
C113 C114 1.378 . S
C114 H99 0.940 . S
C114 C113 1.378 . S
C114 C115 1.396 . S
C115 H100 0.940 . S
C115 C110 1.391 . S
C115 C114 1.396 . S
C116 P96 1.803 . S
C116 C117 1.378 1_554 S
C116 C121 1.400 . S
C117 H101 0.939 . S
C117 C116 1.378 1_556 S
C117 C118 1.361 . S
C118 H102 0.942 . S
C118 C117 1.361 . S
C118 C119 1.369 . S
C119 C118 1.369 . S
C119 C120 1.404 1_556 S
C120 H103 0.940 . S
C120 C119 1.404 1_554 S
C120 C121 1.389 . S
C121 H104 0.939 . S
C121 C116 1.400 . S
C121 C120 1.389 . S
C122 P96 1.819 1_556 S
C122 C123 1.391 . S
C122 C127 1.391 . S
C123 H105 0.941 1_556 S
C123 C122 1.391 . S
C123 C124 1.396 . S
C124 H108 0.939 . S
C124 C123 1.396 . S
C124 C125 1.397 . S
C125 C124 1.397 . S
C125 C126 1.385 . S
C126 H109 0.940 . S
C126 C125 1.385 . S
C126 C127 1.388 . S
C127 H106 0.939 . S
C127 C122 1.391 . S
C127 C126 1.388 . S
P128 O139 1.490 . S
P128 C142 1.812 . S
P128 C148 1.803 . S
P128 C154 1.819 . S
H129 C143 0.941 . S
H130 C144 0.939 . S
H131 C146 0.940 . S
H132 C147 0.940 . S
H133 C149 0.939 . S
H134 C150 0.942 . S
H135 C152 0.940 . S
H136 C153 0.939 . S
H137 C155 0.941 . S
H138 C159 0.939 . S
O139 P128 1.490 . S
H140 C156 0.939 . S
H141 C158 0.940 . S
C142 P128 1.812 . S
C142 C143 1.389 . S
C142 C147 1.391 . S
C143 H129 0.941 . S
C143 C142 1.389 . S
C143 C144 1.397 1_554 S
C144 H130 0.939 . S
C144 C143 1.397 1_556 S
C144 C145 1.378 . S
C145 C144 1.378 . S
C145 C146 1.378 1_556 S
C146 H131 0.940 . S
C146 C145 1.378 1_554 S
C146 C147 1.396 . S
C147 H132 0.940 . S
C147 C142 1.391 . S
C147 C146 1.396 . S
C148 P128 1.803 . S
C148 C149 1.378 . S
C148 C153 1.400 . S
C149 H133 0.939 . S
C149 C148 1.378 . S
C149 C150 1.361 . S
C150 H134 0.942 . S
C150 C149 1.361 . S
C150 C151 1.369 . S
C151 C150 1.369 . S
C151 C152 1.404 . S
C152 H135 0.940 . S
C152 C151 1.404 . S
C152 C153 1.389 . S
C153 H136 0.939 . S
C153 C148 1.400 . S
C153 C152 1.389 . S
C154 P128 1.819 . S
C154 C155 1.391 . S
C154 C159 1.391 . S
C155 H137 0.941 . S
C155 C154 1.391 . S
C155 C156 1.396 . S
C156 H140 0.939 . S
C156 C155 1.396 . S
C156 C157 1.397 . S
C157 C156 1.397 . S
C157 C158 1.385 . S
C158 H141 0.940 . S
C158 C157 1.385 . S
C158 C159 1.388 . S
C159 H138 0.939 . S
C159 C154 1.391 . S
C159 C158 1.388 . S
P160 O171 1.490 . S
P160 C174 1.812 . S
P160 C180 1.803 . S
P160 C186 1.819 . S
H161 C175 0.941 . S
H162 C176 0.939 . S
H163 C178 0.940 . S
H164 C179 0.940 . S
H165 C181 0.939 . S
H166 C182 0.942 . S
H167 C184 0.940 . S
H168 C185 0.939 . S
H169 C187 0.941 . S
H170 C191 0.939 . S
O171 P160 1.490 . S
H172 C188 0.939 . S
H173 C190 0.940 . S
C174 P160 1.812 . S
C174 C175 1.389 . S
C174 C179 1.391 . S
C175 H161 0.941 . S
C175 C174 1.389 . S
C175 C176 1.397 1_554 S
C176 H162 0.939 . S
C176 C175 1.397 1_556 S
C176 C177 1.378 . S
C177 C176 1.378 . S
C177 C178 1.378 1_556 S
C178 H163 0.940 . S
C178 C177 1.378 1_554 S
C178 C179 1.396 . S
C179 H164 0.940 . S
C179 C174 1.391 . S
C179 C178 1.396 . S
C180 P160 1.803 . S
C180 C181 1.378 . S
C180 C185 1.400 . S
C181 H165 0.939 . S
C181 C180 1.378 . S
C181 C182 1.361 . S
C182 H166 0.942 . S
C182 C181 1.361 . S
C182 C183 1.369 . S
C183 C182 1.369 . S
C183 C184 1.404 . S
C184 H167 0.940 . S
C184 C183 1.404 . S
C184 C185 1.389 . S
C185 H168 0.939 . S
C185 C180 1.400 . S
C185 C184 1.389 . S
C186 P160 1.819 . S
C186 C187 1.391 . S
C186 C191 1.391 . S
C187 H169 0.941 . S
C187 C186 1.391 . S
C187 C188 1.396 . S
C188 H172 0.939 . S
C188 C187 1.396 . S
C188 C189 1.397 . S
C189 C188 1.397 . S
C189 C190 1.385 . S
C190 H173 0.940 . S
C190 C189 1.385 . S
C190 C191 1.388 . S
C191 H170 0.939 . S
C191 C186 1.391 . S
C191 C190 1.388 . S
P192 O203 1.490 . S
P192 C206 1.812 . S
P192 C212 1.803 . S
P192 C218 1.819 . S
H193 C207 0.941 . S
H194 C208 0.939 . S
H195 C210 0.940 . S
H196 C211 0.944 . S
H197 C213 0.939 . S
H198 C214 0.942 . S
H199 C216 0.940 . S
H200 C217 0.939 . S
H201 C219 0.941 . S
H202 C223 0.939 1_565 S
O203 P192 1.490 . S
H204 C220 0.939 . S
H205 C222 0.940 . S
C206 P192 1.812 . S
C206 C207 1.389 . S
C206 C211 1.384 1_545 S
C207 H193 0.941 . S
C207 C206 1.389 . S
C207 C208 1.397 1_554 S
C208 H194 0.939 . S
C208 C207 1.397 1_556 S
C208 C209 1.378 . S
C209 C208 1.378 . S
C209 C210 1.378 1_546 S
C210 H195 0.940 . S
C210 C209 1.378 1_564 S
C210 C211 1.399 . S
C211 H196 0.944 . S
C211 C206 1.384 1_565 S
C211 C210 1.399 . S
C212 P192 1.803 . S
C212 C213 1.378 . S
C212 C217 1.400 1_545 S
C213 H197 0.939 . S
C213 C212 1.378 . S
C213 C214 1.361 . S
C214 H198 0.942 . S
C214 C213 1.361 . S
C214 C215 1.369 . S
C215 C214 1.369 . S
C215 C216 1.404 1_545 S
C216 H199 0.940 . S
C216 C215 1.404 1_565 S
C216 C217 1.389 . S
C217 H200 0.939 . S
C217 C212 1.400 1_565 S
C217 C216 1.389 . S
C218 P192 1.819 . S
C218 C219 1.391 . S
C218 C223 1.391 . S
C219 H201 0.941 . S
C219 C218 1.391 . S
C219 C220 1.396 . S
C220 H204 0.939 . S
C220 C219 1.396 . S
C220 C221 1.397 . S
C221 C220 1.397 . S
C221 C222 1.385 1_545 S
C222 H205 0.940 . S
C222 C221 1.385 1_565 S
C222 C223 1.388 1_565 S
C223 H202 0.939 1_545 S
C223 C218 1.391 . S
C223 C222 1.388 1_545 S
P224 O235 1.490 . S
P224 C238 1.812 . S
P224 C244 1.803 . S
P224 C250 1.819 . S
H225 C239 0.941 . S
H226 C240 0.939 . S
H227 C242 0.940 . S
H228 C243 0.940 . S
H229 C245 0.939 . S
H230 C246 0.942 . S
H231 C248 0.940 . S
H232 C249 0.939 . S
H233 C251 0.941 . S
H234 C255 0.939 . S
O235 P224 1.490 . S
H236 C252 0.939 . S
H237 C254 0.940 . S
C238 P224 1.812 . S
C238 C239 1.389 . S
C238 C243 1.391 . S
C239 H225 0.941 . S
C239 C238 1.389 . S
C239 C240 1.397 1_554 S
C240 H226 0.939 . S
C240 C239 1.397 1_556 S
C240 C241 1.378 . S
C241 C240 1.378 . S
C241 C242 1.378 1_556 S
C242 H227 0.940 . S
C242 C241 1.378 1_554 S
C242 C243 1.396 . S
C243 H228 0.940 . S
C243 C238 1.391 . S
C243 C242 1.396 . S
C244 P224 1.803 . S
C244 C245 1.378 . S
C244 C249 1.400 . S
C245 H229 0.939 . S
C245 C244 1.378 . S
C245 C246 1.361 . S
C246 H230 0.942 . S
C246 C245 1.361 . S
C246 C247 1.369 . S
C247 C246 1.369 . S
C247 C248 1.404 . S
C248 H231 0.940 . S
C248 C247 1.404 . S
C248 C249 1.389 . S
C249 H232 0.939 . S
C249 C244 1.400 . S
C249 C248 1.389 . S
C250 P224 1.819 . S
C250 C251 1.391 . S
C250 C255 1.391 . S
C251 H233 0.941 . S
C251 C250 1.391 . S
C251 C252 1.396 . S
C252 H236 0.939 . S
C252 C251 1.396 . S
C252 C253 1.397 . S
C253 C252 1.397 . S
C253 C254 1.385 . S
C254 H237 0.940 . S
C254 C253 1.385 . S
C254 C255 1.388 . S
C255 H234 0.939 . S
C255 C250 1.391 . S
C255 C254 1.388 . S
O256 Zn257 1.953 . S
O256 C272 1.231 . S
Zn257 O256 1.953 . S
Zn257 O258 1.949 . S
Zn257 O264 1.919 1_565 S
Zn257 O269 1.924 . S
O258 Zn257 1.949 . S
O258 Zn259 1.923 1_465 S
O258 Zn260 1.950 . S
O258 Zn261 1.945 1_455 S
Zn259 O258 1.923 1_645 S
Zn259 O262 1.933 . S
Zn259 O265 1.941 1_655 S
Zn259 O266 1.965 1_655 S
Zn260 O258 1.950 . S
Zn260 O267 1.938 1_565 S
Zn260 O268 1.906 . S
Zn260 O278 1.953 . S
Zn261 O258 1.945 1_655 S
Zn261 O263 1.932 . S
Zn261 O270 1.977 . S
Zn261 O271 1.910 1_655 S
O262 Zn259 1.933 . S
O262 C273 1.226 . S
O263 Zn261 1.932 . S
O263 C273 1.307 1_565 S
O264 Zn257 1.919 1_545 S
O264 C275 1.253 . S
O265 Zn259 1.941 1_455 S
O265 C275 1.283 . S
O266 Zn259 1.965 1_455 S
O266 C274 1.303 . S
O267 Zn260 1.938 1_545 S
O267 C274 1.247 . S
O268 Zn260 1.906 . S
O268 C276 1.304 1_455 S
O269 Zn257 1.924 . S
O269 C277 1.311 . S
O270 Zn261 1.977 . S
O270 C276 1.272 . S
O271 Zn261 1.910 1_455 S
O271 C277 1.231 . S
C272 O256 1.231 . S
C272 O278 1.298 . S
C273 O262 1.226 . S
C273 O263 1.307 1_545 S
C274 O266 1.303 . S
C274 O267 1.247 . S
C275 O264 1.253 . S
C275 O265 1.283 . S
C276 O268 1.304 1_655 S
C276 O270 1.272 . S
C277 O269 1.311 . S
C277 O271 1.231 . S
O278 Zn260 1.953 . S
O278 C272 1.298 . S
O279 Zn280 1.953 . S
O279 C295 1.225 . S
Zn280 O279 1.953 . S
Zn280 O281 1.949 . S
Zn280 O287 1.919 . S
Zn280 O292 1.924 . S
O281 Zn280 1.949 . S
O281 Zn282 1.923 1_545 S
O281 Zn283 1.950 . S
O281 Zn284 1.945 1_545 S
Zn282 O281 1.923 1_565 S
Zn282 O285 1.933 . S
Zn282 O288 1.941 . S
Zn282 O289 1.965 . S
Zn283 O281 1.950 . S
Zn283 O290 1.938 . S
Zn283 O291 1.906 1_545 S
Zn283 O301 1.953 . S
Zn284 O281 1.945 1_565 S
Zn284 O286 1.932 . S
Zn284 O293 1.977 . S
Zn284 O294 1.910 1_565 S
O285 Zn282 1.933 . S
O285 C296 1.226 . S
O286 Zn284 1.932 . S
O286 C296 1.307 . S
O287 Zn280 1.919 . S
O287 C298 1.253 . S
O288 Zn282 1.941 . S
O288 C298 1.283 1_565 S
O289 Zn282 1.965 . S
O289 C297 1.303 . S
O290 Zn283 1.938 . S
O290 C297 1.247 1_545 S
O291 Zn283 1.906 1_565 S
O291 C299 1.304 . S
O292 Zn280 1.924 . S
O292 C300 1.311 . S
O293 Zn284 1.977 . S
O293 C299 1.272 . S
O294 Zn284 1.910 1_545 S
O294 C300 1.231 . S
C295 O279 1.225 . S
C295 O301 1.298 . S
C296 O285 1.226 . S
C296 O286 1.307 . S
C297 O289 1.303 . S
C297 O290 1.247 1_565 S
C298 O287 1.253 . S
C298 O288 1.283 1_545 S
C299 O291 1.304 . S
C299 O293 1.272 . S
C300 O292 1.311 . S
C300 O294 1.231 . S
O301 Zn283 1.953 . S
O301 C295 1.298 . S
O302 Zn303 1.953 . S
O302 C318 1.225 . S
Zn303 O302 1.953 . S
Zn303 O304 1.949 . S
Zn303 O310 1.919 . S
Zn303 O315 1.924 . S
O304 Zn303 1.949 . S
O304 Zn305 1.923 . S
O304 Zn306 1.950 . S
O304 Zn307 1.945 . S
Zn305 O304 1.923 . S
Zn305 O308 1.933 . S
Zn305 O311 1.941 . S
Zn305 O312 1.965 . S
Zn306 O304 1.950 . S
Zn306 O313 1.938 . S
Zn306 O314 1.906 . S
Zn306 O324 1.953 . S
Zn307 O304 1.945 . S
Zn307 O309 1.932 . S
Zn307 O316 1.977 . S
Zn307 O317 1.910 . S
O308 Zn305 1.933 . S
O308 C319 1.226 . S
O309 Zn307 1.932 . S
O309 C319 1.307 . S
O310 Zn303 1.919 . S
O310 C321 1.253 . S
O311 Zn305 1.941 . S
O311 C321 1.283 . S
O312 Zn305 1.965 . S
O312 C320 1.303 . S
O313 Zn306 1.938 . S
O313 C320 1.247 . S
O314 Zn306 1.906 . S
O314 C322 1.304 . S
O315 Zn303 1.924 . S
O315 C323 1.311 . S
O316 Zn307 1.977 . S
O316 C322 1.272 . S
O317 Zn307 1.910 . S
O317 C323 1.231 . S
C318 O302 1.225 . S
C318 O324 1.298 . S
C319 O308 1.226 . S
C319 O309 1.307 . S
C320 O312 1.303 . S
C320 O313 1.247 . S
C321 O310 1.253 . S
C321 O311 1.283 . S
C322 O314 1.304 . S
C322 O316 1.272 . S
C323 O315 1.311 . S
C323 O317 1.231 . S
O324 Zn306 1.953 . S
O324 C318 1.298 . S
O325 Zn326 1.953 1_655 S
O325 C341 1.225 . S
Zn326 O325 1.953 1_455 S
Zn326 O327 1.949 . S
Zn326 O333 1.919 . S
Zn326 O338 1.924 . S
O327 Zn326 1.949 . S
O327 Zn328 1.921 1_455 S
O327 Zn329 1.950 1_455 S
O327 Zn330 1.945 . S
Zn328 O327 1.921 1_655 S
Zn328 O331 1.925 1_655 S
Zn328 O334 1.944 . S
Zn328 O335 1.975 . S
Zn329 O327 1.950 1_655 S
Zn329 O336 1.938 . S
Zn329 O337 1.906 . S
Zn329 O347 1.953 . S
Zn330 O327 1.945 . S
Zn330 O332 1.932 . S
Zn330 O339 1.977 . S
Zn330 O340 1.910 . S
O331 Zn328 1.925 1_455 S
O331 C342 1.226 . S
O332 Zn330 1.932 . S
O332 C342 1.307 . S
O333 Zn326 1.919 . S
O333 C344 1.254 . S
O334 Zn328 1.944 . S
O334 C344 1.280 1_655 S
O335 Zn328 1.975 . S
O335 C343 1.303 . S
O336 Zn329 1.938 . S
O336 C343 1.247 . S
O337 Zn329 1.906 . S
O337 C345 1.304 1_655 S
O338 Zn326 1.924 . S
O338 C346 1.311 . S
O339 Zn330 1.977 . S
O339 C345 1.272 . S
O340 Zn330 1.910 . S
O340 C346 1.231 . S
C341 O325 1.225 . S
C341 O347 1.298 . S
C342 O331 1.226 . S
C342 O332 1.307 . S
C343 O335 1.303 . S
C343 O336 1.247 . S
C344 O333 1.254 . S
C344 O334 1.280 1_455 S
C345 O337 1.304 1_455 S
C345 O339 1.272 . S
C346 O338 1.311 . S
C346 O340 1.231 . S
O347 Zn329 1.953 . S
O347 C341 1.298 . S
C215 C272 2.674 1_545 S
C295 C247 3.029 . S
C318 C151 2.503 . S
C345 C183 2.518 . S
C273 C87 2.141 . S
C119 C296 2.331 . S
C23 C319 2.208 . S
C55 C344 2.409 1_654 S
C274 C189 2.165 . S
C297 C221 1.282 1_565 S
C320 C253 1.654 . S
C157 C346 1.437 . S
C61 C277 1.415 . S
C300 C93 1.403 . S
C323 C125 1.735 . S
C29 C343 0.711 . S
C177 C275 2.608 . S
C209 C298 2.483 . S
C321 C241 2.657 . S
C342 C145 2.448 . S
C49 C276 2.860 1_455 S
C299 C81 2.605 1_565 S
C322 C113 2.532 . S
C17 C341 2.862 . S
