# Generated by pormake.
# Topology pto, (3,4)-cn, num edge types: 1
# Building blocks:
#     Node 0, Type 0, BuildingBlock: CUQRIR_clean_linker_1, # of connection points: 3
#     Node 1, Type 0, BuildingBlock: CUQRIR_clean_linker_1, # of connection points: 3
#     Node 2, Type 0, BuildingBlock: CUQRIR_clean_linker_1, # of connection points: 3
#     Node 3, Type 0, BuildingBlock: CUQRIR_clean_linker_1, # of connection points: 3
#     Node 4, Type 0, BuildingBlock: CUQRIR_clean_linker_1, # of connection points: 3
#     Node 5, Type 0, BuildingBlock: CUQRIR_clean_linker_1, # of connection points: 3
#     Node 6, Type 0, BuildingBlock: CUQRIR_clean_linker_1, # of connection points: 3
#     Node 7, Type 0, BuildingBlock: CUQRIR_clean_linker_1, # of connection points: 3
#     Node 8, Type 1, BuildingBlock: KOZSID_clean_sbu_0, # of connection points: 4
#     Node 9, Type 1, BuildingBlock: KOZSID_clean_sbu_0, # of connection points: 4
#     Node 10, Type 1, BuildingBlock: KOZSID_clean_sbu_0, # of connection points: 4
#     Node 11, Type 1, BuildingBlock: KOZSID_clean_sbu_0, # of connection points: 4
#     Node 12, Type 1, BuildingBlock: KOZSID_clean_sbu_0, # of connection points: 4
#     Node 13, Type 1, BuildingBlock: KOZSID_clean_sbu_0, # of connection points: 4
#     Edge 14, Type (0, 1), BuildingBlock: ZUJKAS_clean_linker_0, # of connection points: 2
#     Edge 15, Type (0, 1), BuildingBlock: ZUJKAS_clean_linker_0, # of connection points: 2
#     Edge 16, Type (0, 1), BuildingBlock: ZUJKAS_clean_linker_0, # of connection points: 2
#     Edge 17, Type (0, 1), BuildingBlock: ZUJKAS_clean_linker_0, # of connection points: 2
#     Edge 18, Type (0, 1), BuildingBlock: ZUJKAS_clean_linker_0, # of connection points: 2
#     Edge 19, Type (0, 1), BuildingBlock: ZUJKAS_clean_linker_0, # of connection points: 2
#     Edge 20, Type (0, 1), BuildingBlock: ZUJKAS_clean_linker_0, # of connection points: 2
#     Edge 21, Type (0, 1), BuildingBlock: ZUJKAS_clean_linker_0, # of connection points: 2
#     Edge 22, Type (0, 1), BuildingBlock: ZUJKAS_clean_linker_0, # of connection points: 2
#     Edge 23, Type (0, 1), BuildingBlock: ZUJKAS_clean_linker_0, # of connection points: 2
#     Edge 24, Type (0, 1), BuildingBlock: ZUJKAS_clean_linker_0, # of connection points: 2
#     Edge 25, Type (0, 1), BuildingBlock: ZUJKAS_clean_linker_0, # of connection points: 2
#     Edge 26, Type (0, 1), BuildingBlock: ZUJKAS_clean_linker_0, # of connection points: 2
#     Edge 27, Type (0, 1), BuildingBlock: ZUJKAS_clean_linker_0, # of connection points: 2
#     Edge 28, Type (0, 1), BuildingBlock: ZUJKAS_clean_linker_0, # of connection points: 2
#     Edge 29, Type (0, 1), BuildingBlock: ZUJKAS_clean_linker_0, # of connection points: 2
#     Edge 30, Type (0, 1), BuildingBlock: ZUJKAS_clean_linker_0, # of connection points: 2
#     Edge 31, Type (0, 1), BuildingBlock: ZUJKAS_clean_linker_0, # of connection points: 2
#     Edge 32, Type (0, 1), BuildingBlock: ZUJKAS_clean_linker_0, # of connection points: 2
#     Edge 33, Type (0, 1), BuildingBlock: ZUJKAS_clean_linker_0, # of connection points: 2
#     Edge 34, Type (0, 1), BuildingBlock: ZUJKAS_clean_linker_0, # of connection points: 2
#     Edge 35, Type (0, 1), BuildingBlock: ZUJKAS_clean_linker_0, # of connection points: 2
#     Edge 36, Type (0, 1), BuildingBlock: ZUJKAS_clean_linker_0, # of connection points: 2
#     Edge 37, Type (0, 1), BuildingBlock: ZUJKAS_clean_linker_0, # of connection points: 2
# Relax obj value: 0.020
# Max RMSD: 0.177
# Mean RMSD: 0.079
data_MOF--net-pto--node1-KOZSID_clean_sbu_0--node2-CUQRIR_clean_linker_1--edge1-ZUJKAS_clean_linker_0
_symmetry_space_group_name_H-M    P1
_symmetry_Int_Tables_number       1
_symmetry_cell_setting            triclinic
loop_
_symmetry_equiv_pos_as_xyz
'x, y, z'
_cell_length_a     46.981439
_cell_length_b     60.966358
_cell_length_c     53.635186
_cell_angle_alpha  78.367541
_cell_angle_beta   93.136683
_cell_angle_gamma 98.32402
loop_
_atom_site_label
_atom_site_type_symbol
_atom_site_fract_x
_atom_site_fract_y
_atom_site_fract_z
_atom_type_partial_charge
C0 C 0.30697 0.27327 0.29693 0.0
N1 N 0.32024 0.25868 0.28725 0.0
N2 N 0.3011 0.29079 0.27835 0.0
C3 C 0.29883 0.27009 0.3243 0.0
C4 C 0.31107 0.28618 0.25701 0.0
N5 N 0.32263 0.26665 0.26243 0.0
C6 C 0.31053 0.30117 0.23107 0.0
H7 H 0.29737 0.25215 0.33413 0.0
H8 H 0.27799 0.2763 0.32557 0.0
H9 H 0.31556 0.28012 0.33437 0.0
H10 H 0.31048 0.31905 0.23257 0.0
H11 H 0.29071 0.2956 0.22052 0.0
H12 H 0.32934 0.29991 0.22005 0.0
C13 C 0.28936 0.74542 0.71991 0.0
N14 N 0.30993 0.75708 0.73271 0.0
N15 N 0.28448 0.72347 0.73173 0.0
C16 C 0.27582 0.75493 0.69468 0.0
C17 C 0.30302 0.72208 0.75204 0.0
N18 N 0.31871 0.74248 0.75252 0.0
C19 C 0.30401 0.7013 0.77253 0.0
H20 H 0.25632 0.7621 0.69808 0.0
H21 H 0.26933 0.74154 0.68342 0.0
H22 H 0.29091 0.76857 0.68346 0.0
H23 H 0.32031 0.69147 0.76769 0.0
H24 H 0.28287 0.6904 0.77404 0.0
H25 H 0.31017 0.70591 0.79126 0.0
C26 C 0.88995 0.78676 0.3312 0.0
N27 N 0.88085 0.7746 0.31304 0.0
N28 N 0.87565 0.80489 0.3287 0.0
C29 C 0.91327 0.78142 0.35092 0.0
C30 C 0.85769 0.80338 0.30829 0.0
N31 N 0.86104 0.78506 0.29867 0.0
C32 C 0.83637 0.81946 0.2983 0.0
H33 H 0.9093 0.78715 0.36863 0.0
H34 H 0.93415 0.79055 0.34337 0.0
H35 H 0.91502 0.76312 0.35549 0.0
H36 H 0.84416 0.83656 0.30214 0.0
H37 H 0.81573 0.8131 0.30809 0.0
H38 H 0.83214 0.82074 0.27758 0.0
C39 C 0.74911 0.22601 0.73371 0.0
N40 N 0.7714 0.23596 0.71867 0.0
N41 N 0.74232 0.24021 0.74823 0.0
C42 C 0.73382 0.20254 0.7339 0.0
C43 C 0.76151 0.25915 0.7415 0.0
N44 N 0.77931 0.25647 0.72359 0.0
C45 C 0.76227 0.28031 0.75214 0.0
H46 H 0.71126 0.20088 0.73993 0.0
H47 H 0.74526 0.19028 0.74747 0.0
H48 H 0.73394 0.19822 0.71479 0.0
H49 H 0.75672 0.27599 0.77255 0.0
H50 H 0.74609 0.29049 0.7416 0.0
H51 H 0.78342 0.29102 0.75019 0.0
C52 C 0.8058 0.74173 0.76061 0.0
N53 N 0.82078 0.74992 0.73903 0.0
N54 N 0.79771 0.75882 0.77005 0.0
C55 C 0.80109 0.71725 0.77363 0.0
C56 C 0.80845 0.7777 0.75355 0.0
N57 N 0.82282 0.77232 0.73489 0.0
C58 C 0.80285 0.80121 0.75451 0.0
H59 H 0.78138 0.70875 0.76537 0.0
H60 H 0.79823 0.71549 0.79437 0.0
H61 H 0.81948 0.70859 0.77068 0.0
H62 H 0.82111 0.80955 0.76476 0.0
H63 H 0.78281 0.80081 0.76471 0.0
H64 H 0.80106 0.81147 0.73504 0.0
C65 C 0.81189 0.25419 0.27139 0.0
N66 N 0.83531 0.26279 0.2839 0.0
N67 N 0.80379 0.27002 0.25184 0.0
C68 C 0.79821 0.22986 0.27721 0.0
C69 C 0.82331 0.28853 0.2528 0.0
N70 N 0.84275 0.28408 0.27219 0.0
C71 C 0.82174 0.31141 0.23621 0.0
H72 H 0.78858 0.22437 0.25974 0.0
H73 H 0.78091 0.22809 0.29104 0.0
H74 H 0.81412 0.21855 0.28581 0.0
H75 H 0.79931 0.31324 0.22942 0.0
H76 H 0.83524 0.31335 0.21936 0.0
H77 H 0.82987 0.32509 0.24671 0.0
C78 C 0.253 0.27389 0.70606 0.0
N79 N 0.26741 0.25614 0.70652 0.0
N80 N 0.23504 0.27663 0.6854 0.0
C81 C 0.25483 0.28749 0.72675 0.0
C82 C 0.2388 0.25974 0.67344 0.0
N83 N 0.25843 0.24716 0.68638 0.0
C84 C 0.22492 0.25663 0.64823 0.0
H85 H 0.23447 0.29447 0.72775 0.0
H86 H 0.2725 0.30178 0.72257 0.0
H87 H 0.25957 0.27701 0.74556 0.0
H88 H 0.21873 0.27277 0.63721 0.0
H89 H 0.2052 0.24413 0.65166 0.0
H90 H 0.23963 0.25013 0.63683 0.0
C91 C 0.35407 0.77332 0.32977 0.0
N92 N 0.35739 0.76218 0.3109 0.0
N93 N 0.37334 0.79234 0.32776 0.0
C94 C 0.33048 0.76669 0.34884 0.0
C95 C 0.38841 0.79247 0.30692 0.0
N96 N 0.37857 0.77421 0.29647 0.0
C97 C 0.4142 0.80946 0.29815 0.0
H98 H 0.31106 0.75759 0.34084 0.0
H99 H 0.32452 0.78175 0.35489 0.0
H100 H 0.3382 0.75529 0.36589 0.0
H101 H 0.42477 0.81668 0.31428 0.0
H102 H 0.4071 0.82348 0.28368 0.0
H103 H 0.43006 0.80163 0.28948 0.0
C104 C 0.13437 0.55964 0.31681 0.0
C105 C 0.14672 0.56325 0.34002 0.0
C106 C 0.13116 0.54843 0.35849 0.0
C107 C 0.11028 0.53667 0.34561 0.0
N108 N 0.1115 0.54307 0.31997 0.0
Co109 Co 0.08539 0.53015 0.29404 0.0
N110 N 0.06263 0.50835 0.32129 0.0
C111 C 0.0657 0.50719 0.34673 0.0
C112 C 0.0469 0.49053 0.36067 0.0
C113 C 0.03114 0.48017 0.34312 0.0
C114 C 0.04148 0.49105 0.31941 0.0
N115 N 0.05981 0.51668 0.26814 0.0
C116 C 0.03981 0.49795 0.27129 0.0
C117 C 0.02902 0.4932 0.24802 0.0
C118 C 0.0426 0.50946 0.22959 0.0
C119 C 0.06106 0.52303 0.2425 0.0
N120 N 0.10779 0.55231 0.26676 0.0
C121 C 0.10272 0.55504 0.24132 0.0
C122 C 0.12128 0.57187 0.22735 0.0
C123 C 0.1392 0.58055 0.24489 0.0
C124 C 0.13046 0.56847 0.26866 0.0
N125 N 0.11176 0.50765 0.2936 0.0
C126 C 0.14626 0.4737 0.2927 0.0
C127 C 0.13785 0.4874 0.27017 0.0
C128 C 0.12085 0.50418 0.27104 0.0
C129 C 0.13773 0.47769 0.31576 0.0
C130 C 0.12062 0.49462 0.31577 0.0
N131 N 0.05886 0.55281 0.29445 0.0
C132 C 0.02903 0.58013 0.272 0.0
C133 C 0.02405 0.58694 0.29454 0.0
C134 C 0.03623 0.57596 0.31713 0.0
C135 C 0.0533 0.55909 0.31666 0.0
C136 C 0.04626 0.5632 0.27239 0.0
H137 H 0.06202 0.55165 0.33452 0.0
H138 H 0.04921 0.559 0.25451 0.0
H139 H 0.11507 0.51399 0.25321 0.0
H140 H 0.11444 0.49666 0.33391 0.0
C141 C 0.08842 0.5203 0.35702 0.0
C142 C 0.14449 0.57296 0.29239 0.0
C143 C 0.03147 0.48363 0.29582 0.0
C144 C 0.08108 0.54096 0.2311 0.0
H145 H 0.16486 0.57555 0.34329 0.0
H146 H 0.1344 0.54669 0.3789 0.0
H147 H 0.04555 0.4859 0.38118 0.0
H148 H 0.01447 0.46582 0.34734 0.0
H149 H 0.01356 0.47912 0.24455 0.0
H150 H 0.04007 0.51075 0.20918 0.0
H151 H 0.12185 0.57708 0.20684 0.0
H152 H 0.15679 0.5942 0.24067 0.0
H153 H 0.14439 0.48523 0.25185 0.0
H154 H 0.14359 0.46743 0.33372 0.0
H155 H 0.01965 0.58779 0.25403 0.0
H156 H 0.03325 0.5807 0.33512 0.0
C157 C 0.05365 0.53631 0.69895 0.0
C158 C 0.06507 0.53819 0.723 0.0
C159 C 0.04791 0.5232 0.74012 0.0
C160 C 0.02706 0.51311 0.72564 0.0
N161 N 0.0299 0.52064 0.70026 0.0
Co162 Co 0.00393 0.51088 0.67238 0.0
N163 N 0.97907 0.48841 0.69763 0.0
C164 C 0.98198 0.48476 0.72333 0.0
C165 C 0.96326 0.46705 0.73555 0.0
C166 C 0.94781 0.45852 0.71658 0.0
C167 C 0.95785 0.47174 0.6937 0.0
N168 N 0.97797 0.50105 0.64458 0.0
C169 C 0.95656 0.48343 0.64576 0.0
C170 C 0.94438 0.48197 0.62189 0.0
C171 C 0.95921 0.49888 0.6049 0.0
C172 C 0.97941 0.50972 0.61932 0.0
N173 N 0.02892 0.53314 0.64709 0.0
C174 C 0.02528 0.53741 0.62144 0.0
C175 C 0.04582 0.55367 0.60913 0.0
C176 C 0.06361 0.56027 0.62802 0.0
C177 C 0.05277 0.54764 0.65085 0.0
N178 N 0.02806 0.48719 0.67036 0.0
C179 C 0.0611 0.45265 0.66765 0.0
C180 C 0.05206 0.46665 0.64555 0.0
C181 C 0.03569 0.48367 0.64733 0.0
C182 C 0.05336 0.45636 0.6911 0.0
C183 C 0.03707 0.47358 0.69201 0.0
N184 N 0.9798 0.53484 0.67442 0.0
C185 C 0.95766 0.56775 0.65428 0.0
C186 C 0.95031 0.5714 0.67785 0.0
C187 C 0.95715 0.55598 0.69959 0.0
C188 C 0.97162 0.53799 0.69746 0.0
C189 C 0.9721 0.54949 0.65301 0.0
H190 H 0.97636 0.52716 0.71483 0.0
H191 H 0.97707 0.54782 0.63446 0.0
H192 H 0.02937 0.49375 0.62982 0.0
H193 H 0.03181 0.47546 0.71046 0.0
C194 C 0.00456 0.49655 0.73533 0.0
C195 C 0.06564 0.55031 0.67558 0.0
C196 C 0.94815 0.46693 0.66875 0.0
C197 C 0.00193 0.52628 0.60954 0.0
H198 H 0.08371 0.54941 0.72773 0.0
H199 H 0.05023 0.52013 0.76067 0.0
H200 H 0.96204 0.46036 0.75582 0.0
H201 H 0.93182 0.44367 0.71949 0.0
H202 H 0.92718 0.46949 0.6172 0.0
H203 H 0.95647 0.50223 0.58437 0.0
H204 H 0.04749 0.5601 0.58885 0.0
H205 H 0.08231 0.57307 0.62534 0.0
H206 H 0.05778 0.46467 0.62692 0.0
H207 H 0.05941 0.44579 0.70879 0.0
H208 H 0.95231 0.57892 0.63679 0.0
H209 H 0.9521 0.55806 0.71837 0.0
C210 C 0.38463 0.98887 0.57218 0.0
C211 C 0.4115 0.98575 0.58339 0.0
C212 C 0.43104 0.00172 0.56971 0.0
C213 C 0.41517 0.01349 0.55085 0.0
N214 N 0.38657 0.00624 0.55179 0.0
Co215 Co 0.35615 0.01719 0.52641 0.0
N216 N 0.38529 0.03965 0.50531 0.0
C217 C 0.41382 0.04377 0.51059 0.0
C218 C 0.42815 0.06111 0.4936 0.0
C219 C 0.40753 0.06873 0.4765 0.0
C220 C 0.3817 0.05538 0.48395 0.0
N221 N 0.32583 0.02753 0.50064 0.0
C222 C 0.32807 0.04361 0.47906 0.0
C223 C 0.30179 0.04476 0.46602 0.0
C224 C 0.28211 0.02924 0.48016 0.0
C225 C 0.29745 0.01937 0.5008 0.0
N226 N 0.32688 0.99526 0.54787 0.0
C227 C 0.298 0.99257 0.54389 0.0
C228 C 0.2834 0.97666 0.56225 0.0
C229 C 0.30419 0.96851 0.57883 0.0
C230 C 0.33041 0.9798 0.56943 0.0
N231 N 0.35035 0.04073 0.54582 0.0
C232 C 0.34178 0.07497 0.57196 0.0
C233 C 0.31867 0.06292 0.56087 0.0
C234 C 0.32337 0.04604 0.54809 0.0
C235 C 0.36929 0.06936 0.57007 0.0
C236 C 0.37307 0.05237 0.55696 0.0
N237 N 0.36183 0.99369 0.50702 0.0
C238 C 0.34218 0.96227 0.48724 0.0
C239 C 0.36947 0.95985 0.47995 0.0
C240 C 0.39292 0.97479 0.48637 0.0
C241 C 0.38865 0.99144 0.49982 0.0
C242 C 0.33889 0.97908 0.50063 0.0
H243 H 0.40737 0.00222 0.50428 0.0
H244 H 0.31752 0.9799 0.5056 0.0
H245 H 0.30476 0.03763 0.54012 0.0
H246 H 0.39459 0.0491 0.55593 0.0
C247 C 0.42656 0.03105 0.53164 0.0
C248 C 0.35807 0.97441 0.58095 0.0
C249 C 0.35424 0.05873 0.47061 0.0
C250 C 0.28551 0.00365 0.52152 0.0
H251 H 0.41669 0.973 0.59947 0.0
H252 H 0.45415 0.00414 0.57279 0.0
H253 H 0.45083 0.06762 0.4938 0.0
H254 H 0.41117 0.08276 0.46057 0.0
H255 H 0.2972 0.05595 0.44833 0.0
H256 H 0.25923 0.0259 0.47616 0.0
H257 H 0.26045 0.97115 0.56305 0.0
H258 H 0.30052 0.95533 0.59562 0.0
H259 H 0.29686 0.06635 0.56219 0.0
H260 H 0.38793 0.07833 0.57823 0.0
H261 H 0.32322 0.95142 0.48236 0.0
H262 H 0.41455 0.9735 0.48138 0.0
C263 C 0.54442 0.77167 0.0677 0.0
C264 C 0.53755 0.79233 0.07086 0.0
C265 C 0.55401 0.80863 0.05447 0.0
C266 C 0.5697 0.79708 0.04207 0.0
N267 N 0.56411 0.77433 0.04937 0.0
Co268 Co 0.58132 0.75116 0.0354 0.0
N269 N 0.60632 0.77525 0.01197 0.0
C270 C 0.60827 0.79788 0.01015 0.0
C271 C 0.6273 0.81016 0.99241 0.0
C272 C 0.63804 0.79447 0.9821 0.0
C273 C 0.62476 0.77345 0.99413 0.0
N274 N 0.59822 0.728 0.02114 0.0
C275 C 0.61712 0.73068 0.00217 0.0
C276 C 0.62223 0.71003 0.99746 0.0
C277 C 0.60601 0.69371 0.01402 0.0
C278 C 0.59187 0.70526 0.02773 0.0
N279 N 0.55658 0.72708 0.0591 0.0
C280 C 0.55564 0.70444 0.06166 0.0
C281 C 0.53804 0.69209 0.08047 0.0
C282 C 0.52714 0.70772 0.09071 0.0
C283 C 0.53853 0.72885 0.07731 0.0
N284 N 0.55044 0.75148 0.00851 0.0
C285 C 0.50941 0.75207 0.96801 0.0
C286 C 0.51543 0.73167 0.98313 0.0
C287 C 0.53573 0.73177 0.00319 0.0
C288 C 0.52377 0.77215 0.97394 0.0
C289 C 0.54397 0.77147 0.99406 0.0
N290 N 0.61233 0.75089 0.06219 0.0
C291 C 0.6429 0.73055 0.09371 0.0
C292 C 0.65633 0.75068 0.10024 0.0
C293 C 0.64729 0.7709 0.0874 0.0
C294 C 0.62549 0.77062 0.06865 0.0
C295 C 0.62117 0.73104 0.0748 0.0
H296 H 0.61958 0.7866 0.05976 0.0
H297 H 0.61188 0.71513 0.07074 0.0
H298 H 0.53936 0.71568 0.01396 0.0
H299 H 0.5544 0.78737 0.99724 0.0
C300 C 0.59061 0.80713 0.02421 0.0
C301 C 0.53218 0.75007 0.08304 0.0
C302 C 0.62997 0.75234 0.98753 0.0
C303 C 0.57218 0.69525 0.04662 0.0
H304 H 0.52242 0.79537 0.08387 0.0
H305 H 0.5547 0.82676 0.05209 0.0
H306 H 0.6323 0.82836 0.98721 0.0
H307 H 0.6536 0.79809 0.96715 0.0
H308 H 0.63595 0.70702 0.98329 0.0
H309 H 0.60439 0.67559 0.01562 0.0
H310 H 0.53406 0.67389 0.08637 0.0
H311 H 0.51279 0.70387 0.10657 0.0
H312 H 0.50449 0.71566 0.97955 0.0
H313 H 0.52006 0.78839 0.96268 0.0
H314 H 0.64932 0.71444 0.10292 0.0
H315 H 0.65664 0.78694 0.09203 0.0
C316 C 0.89678 0.99612 0.56595 0.0
C317 C 0.92036 0.9909 0.58158 0.0
C318 C 0.94128 0.00929 0.57634 0.0
C319 C 0.92928 0.02465 0.55792 0.0
N320 N 0.90218 0.01703 0.55137 0.0
Co321 Co 0.87701 0.03316 0.5253 0.0
N322 N 0.91042 0.05361 0.50885 0.0
C323 C 0.93694 0.05711 0.51947 0.0
C324 C 0.95563 0.07253 0.50382 0.0
C325 C 0.93978 0.07943 0.48218 0.0
C326 C 0.91212 0.06787 0.4859 0.0
N327 N 0.85156 0.04924 0.49936 0.0
C328 C 0.85813 0.06384 0.4772 0.0
C329 C 0.83354 0.07179 0.46529 0.0
C330 C 0.81103 0.06211 0.4808 0.0
C331 C 0.82297 0.04881 0.50124 0.0
N332 N 0.84383 0.01269 0.54199 0.0
C333 C 0.81615 0.01628 0.53967 0.0
C334 C 0.79802 0.99862 0.55301 0.0
C335 C 0.81545 0.98301 0.56439 0.0
C336 C 0.84335 0.99214 0.55741 0.0
N337 N 0.87337 0.05462 0.54726 0.0
C338 C 0.86309 0.08528 0.57714 0.0
C339 C 0.86264 0.06226 0.58783 0.0
C340 C 0.86785 0.04721 0.57257 0.0
C341 C 0.86999 0.09268 0.55148 0.0
C342 C 0.87505 0.07718 0.53697 0.0
N343 N 0.88043 0.01177 0.50335 0.0
C344 C 0.85788 0.9861 0.4772 0.0
C345 C 0.88447 0.97941 0.47377 0.0
C346 C 0.90908 0.98954 0.48527 0.0
C347 C 0.90661 0.00568 0.49992 0.0
C348 C 0.85634 0.00227 0.49196 0.0
H349 H 0.92584 0.01308 0.50868 0.0
H350 H 0.83553 0.00683 0.49447 0.0
H351 H 0.8667 0.0295 0.58109 0.0
H352 H 0.8797 0.08352 0.51721 0.0
C353 C 0.9443 0.04375 0.54274 0.0
C354 C 0.86913 0.9815 0.5662 0.0
C355 C 0.88748 0.073 0.46871 0.0
C356 C 0.80771 0.03375 0.52082 0.0
H357 H 0.92227 0.9754 0.59517 0.0
H358 H 0.9631 0.01075 0.58404 0.0
H359 H 0.97819 0.07787 0.5075 0.0
H360 H 0.94747 0.09199 0.46581 0.0
H361 H 0.8321 0.08388 0.44763 0.0
H362 H 0.78859 0.06429 0.47738 0.0
H363 H 0.77476 0.99669 0.55325 0.0
H364 H 0.80834 0.96673 0.57617 0.0
H365 H 0.85736 0.05578 0.6076 0.0
H366 H 0.87121 0.11038 0.54253 0.0
H367 H 0.83821 0.97855 0.46902 0.0
H368 H 0.93015 0.98513 0.48289 0.0
C369 C 0.4701 0.24418 0.03468 0.0
C370 C 0.46353 0.2649 0.03789 0.0
C371 C 0.47766 0.28092 0.01953 0.0
C372 C 0.49203 0.26911 0.0063 0.0
N373 N 0.48751 0.24646 0.01472 0.0
Co374 Co 0.50627 0.22317 0.00246 0.0
N375 N 0.52847 0.24684 0.97645 0.0
C376 C 0.52593 0.26914 0.97081 0.0
C377 C 0.54163 0.28093 0.95043 0.0
C378 C 0.5548 0.26523 0.94234 0.0
C379 C 0.54668 0.24466 0.95857 0.0
N380 N 0.52632 0.20002 0.99136 0.0
C381 C 0.54662 0.2025 0.97362 0.0
C382 C 0.55635 0.18209 0.97328 0.0
C383 C 0.54105 0.16608 0.99088 0.0
C384 C 0.52325 0.17759 0.00119 0.0
N385 N 0.4829 0.19941 0.02747 0.0
C386 C 0.48209 0.17677 0.03054 0.0
C387 C 0.4639 0.16472 0.04912 0.0
C388 C 0.45256 0.18062 0.05863 0.0
C389 C 0.46463 0.20152 0.04527 0.0
N390 N 0.47535 0.21981 0.97608 0.0
C391 C 0.43815 0.21737 0.93334 0.0
C392 C 0.44973 0.1983 0.94643 0.0
C393 C 0.46799 0.19984 0.96772 0.0
C394 C 0.4439 0.23716 0.94312 0.0
C395 C 0.46226 0.23799 0.96431 0.0
N396 N 0.53728 0.22663 0.02852 0.0
C397 C 0.56503 0.21086 0.06539 0.0
C398 C 0.58085 0.23203 0.06584 0.0
C399 C 0.57452 0.25041 0.0473 0.0
C400 C 0.55278 0.24739 0.02905 0.0
C401 C 0.54361 0.20852 0.0466 0.0
H402 H 0.54877 0.26215 0.01564 0.0
H403 H 0.53241 0.19191 0.04708 0.0
H404 H 0.47643 0.18479 0.97667 0.0
H405 H 0.46594 0.25375 0.97034 0.0
C406 C 0.50937 0.27865 0.98552 0.0
C407 C 0.45959 0.22286 0.05128 0.0
C408 C 0.55635 0.2235 0.95596 0.0
C409 C 0.5018 0.16761 0.01852 0.0
H410 H 0.45007 0.26809 0.05216 0.0
H411 H 0.47763 0.29903 0.01632 0.0
H412 H 0.54316 0.29881 0.94232 0.0
H413 H 0.56858 0.26862 0.92612 0.0
H414 H 0.57244 0.17898 0.96122 0.0
H415 H 0.54231 0.14812 0.99522 0.0
H416 H 0.4604 0.14659 0.05582 0.0
H417 H 0.43786 0.17724 0.07423 0.0
H418 H 0.44561 0.18247 0.93979 0.0
H419 H 0.43458 0.25218 0.93424 0.0
H420 H 0.5694 0.19609 0.07927 0.0
H421 H 0.58597 0.2672 0.0471 0.0
H422 H 0.31486 0.32023 0.30986 0.0
H423 H 0.28862 0.35128 0.31422 0.0
H424 H 0.22806 0.33433 0.25533 0.0
H425 H 0.25377 0.30289 0.25167 0.0
H426 H 0.27748 0.38862 0.27804 0.0
H427 H 0.17559 0.3361 0.31265 0.0
H428 H 0.20857 0.32433 0.31194 0.0
H429 H 0.18693 0.3306 0.28335 0.0
C430 C 0.29576 0.32309 0.29812 0.0
C431 C 0.28613 0.30925 0.28055 0.0
C432 C 0.2809 0.34082 0.30049 0.0
C433 C 0.25613 0.34487 0.28539 0.0
C434 C 0.24677 0.33122 0.26754 0.0
H435 H 0.13864 0.44379 0.26045 0.0
H436 H 0.16644 0.41307 0.25931 0.0
C437 C 0.26157 0.31347 0.26524 0.0
C438 C 0.2404 0.36368 0.28787 0.0
H439 H 0.17437 0.37574 0.30001 0.0
C440 C 0.25501 0.38582 0.28305 0.0
C441 C 0.21109 0.35993 0.29447 0.0
C442 C 0.19467 0.33644 0.30115 0.0
C443 C 0.24084 0.4044 0.28393 0.0
C444 C 0.21143 0.40066 0.29007 0.0
C445 C 0.19692 0.37852 0.2952 0.0
C446 C 0.1951 0.41954 0.29075 0.0
C447 C 0.2572 0.42793 0.27758 0.0
C448 C 0.20191 0.43323 0.30895 0.0
C449 C 0.18611 0.45086 0.30961 0.0
C450 C 0.16324 0.45508 0.29206 0.0
C451 C 0.15642 0.44122 0.27395 0.0
C452 C 0.17214 0.42357 0.27338 0.0
H453 H 0.27776 0.4282 0.26815 0.0
H454 H 0.244 0.43955 0.26494 0.0
H455 H 0.26229 0.43449 0.2954 0.0
H456 H 0.21931 0.43017 0.32275 0.0
H457 H 0.19197 0.46131 0.3237 0.0
H458 H 0.29365 0.68241 0.72498 0.0
H459 H 0.25738 0.65251 0.7135 0.0
H460 H 0.19172 0.69567 0.71103 0.0
H461 H 0.22784 0.72516 0.72331 0.0
H462 H 0.17591 0.65249 0.73784 0.0
H463 H 0.21854 0.65025 0.64396 0.0
H464 H 0.24422 0.64652 0.66999 0.0
H465 H 0.23021 0.67298 0.66073 0.0
C466 C 0.27143 0.68534 0.72203 0.0
C467 C 0.26338 0.70597 0.72486 0.0
C468 C 0.25083 0.66844 0.71522 0.0
C469 C 0.22195 0.67204 0.71096 0.0
C470 C 0.21392 0.69262 0.71401 0.0
H471 H 0.06149 0.59462 0.67271 0.0
H472 H 0.1001 0.62459 0.68015 0.0
C473 C 0.23448 0.70945 0.72089 0.0
C474 C 0.19981 0.65412 0.70423 0.0
H475 H 0.18007 0.62176 0.65939 0.0
C476 C 0.17675 0.64584 0.72064 0.0
C477 C 0.20104 0.64545 0.6818 0.0
C478 C 0.22467 0.65437 0.66296 0.0
C479 C 0.155 0.62895 0.71535 0.0
C480 C 0.15617 0.62035 0.6929 0.0
C481 C 0.1793 0.62847 0.67656 0.0
C482 C 0.13346 0.60287 0.68621 0.0
C483 C 0.13114 0.62018 0.73402 0.0
C484 C 0.13973 0.58103 0.68634 0.0
C485 C 0.11778 0.56402 0.68202 0.0
C486 C 0.08943 0.56876 0.67734 0.0
C487 C 0.08332 0.59077 0.67626 0.0
C488 C 0.10524 0.60776 0.68062 0.0
H489 H 0.13674 0.62486 0.75284 0.0
H490 H 0.11142 0.62753 0.7264 0.0
H491 H 0.12611 0.6015 0.73679 0.0
H492 H 0.16141 0.577 0.69056 0.0
H493 H 0.12272 0.54705 0.683 0.0
H494 H 0.91058 0.77159 0.27284 0.0
H495 H 0.93199 0.73859 0.26661 0.0
H496 H 0.89677 0.70046 0.33755 0.0
H497 H 0.87516 0.73342 0.34341 0.0
H498 H 0.97242 0.71749 0.30045 0.0
H499 H 0.87496 0.65694 0.28804 0.0
H500 H 0.8741 0.68695 0.28447 0.0
H501 H 0.87493 0.66939 0.31567 0.0
C502 C 0.90724 0.756 0.28681 0.0
C503 C 0.89164 0.75485 0.30867 0.0
C504 C 0.91941 0.73725 0.28333 0.0
C505 C 0.91578 0.71703 0.30153 0.0
C506 C 0.89947 0.71576 0.32308 0.0
H507 H 0.98491 0.59 0.32943 0.0
H508 H 0.95877 0.62177 0.33023 0.0
C509 C 0.88737 0.73453 0.32655 0.0
C510 C 0.93068 0.69781 0.2989 0.0
H511 H 0.91949 0.642 0.29485 0.0
C512 C 0.96087 0.70103 0.29898 0.0
C513 C 0.91553 0.67634 0.29717 0.0
C514 C 0.88308 0.67216 0.2961 0.0
C515 C 0.97637 0.68321 0.29801 0.0
C516 C 0.96124 0.66169 0.29638 0.0
C517 C 0.93103 0.65851 0.29611 0.0
C518 C 0.97646 0.64222 0.29533 0.0
C519 C 0.00883 0.68741 0.29953 0.0
C520 C 0.99471 0.64303 0.27521 0.0
C521 C 0.00988 0.62501 0.27481 0.0
C522 C 0.00695 0.60571 0.29445 0.0
C523 C 0.98805 0.60474 0.31424 0.0
C524 C 0.97292 0.62281 0.31463 0.0
H525 H 0.01678 0.70286 0.30721 0.0
H526 H 0.01765 0.67282 0.31172 0.0
H527 H 0.01737 0.68977 0.28014 0.0
H528 H 0.99737 0.65769 0.25989 0.0
H529 H 0.0244 0.62643 0.25939 0.0
H530 H 0.78138 0.27595 0.67395 0.0
H531 H 0.81542 0.30858 0.65441 0.0
H532 H 0.86 0.30784 0.72713 0.0
H533 H 0.82739 0.27428 0.74576 0.0
H534 H 0.81959 0.34765 0.66341 0.0
H535 H 0.92753 0.32319 0.68443 0.0
H536 H 0.89572 0.30247 0.68841 0.0
H537 H 0.90887 0.31715 0.71373 0.0
C538 C 0.79923 0.28234 0.68531 0.0
C539 C 0.80185 0.27295 0.71128 0.0
C540 C 0.8185 0.30106 0.67428 0.0
C541 C 0.84055 0.31075 0.68917 0.0
C542 C 0.84387 0.30048 0.71491 0.0
H543 H 0.89371 0.45035 0.6848 0.0
H544 H 0.86814 0.41239 0.68531 0.0
C545 C 0.82504 0.28148 0.7257 0.0
C546 C 0.85753 0.33307 0.67898 0.0
H547 H 0.92418 0.36336 0.68217 0.0
C548 C 0.84261 0.35091 0.66701 0.0
C549 C 0.8877 0.33751 0.6829 0.0
C550 C 0.90582 0.31893 0.69279 0.0
C551 C 0.85659 0.37316 0.6605 0.0
C552 C 0.88607 0.37797 0.66725 0.0
C553 C 0.90142 0.35992 0.67754 0.0
C554 C 0.90091 0.40152 0.66544 0.0
C555 C 0.83943 0.39119 0.64654 0.0
C556 C 0.92829 0.40802 0.6548 0.0
C557 C 0.94337 0.42945 0.65546 0.0
C558 C 0.93127 0.44477 0.66662 0.0
C559 C 0.90352 0.43867 0.67633 0.0
C560 C 0.88874 0.41709 0.67624 0.0
H561 H 0.82249 0.38405 0.63399 0.0
H562 H 0.82842 0.39794 0.66056 0.0
H563 H 0.8533 0.40534 0.63472 0.0
H564 H 0.93822 0.39638 0.64639 0.0
H565 H 0.96473 0.43393 0.64772 0.0
H566 H 0.28302 0.22077 0.29867 0.0
H567 H 0.29216 0.18544 0.32724 0.0
H568 H 0.38165 0.21286 0.33402 0.0
H569 H 0.37187 0.24854 0.30639 0.0
H570 H 0.32603 0.15369 0.32743 0.0
H571 H 0.35897 0.19815 0.40722 0.0
H572 H 0.3434 0.21188 0.37778 0.0
H573 H 0.38087 0.20826 0.3798 0.0
C574 C 0.30464 0.21894 0.30608 0.0
C575 C 0.32681 0.23705 0.30054 0.0
C576 C 0.3099 0.19888 0.32233 0.0
C577 C 0.33748 0.19666 0.33321 0.0
C578 C 0.36006 0.21438 0.32637 0.0
H579 H 0.37798 0.0672 0.42365 0.0
H580 H 0.37555 0.10049 0.38951 0.0
C581 C 0.35464 0.23458 0.31038 0.0
C582 C 0.34202 0.17629 0.35266 0.0
H583 H 0.36284 0.15919 0.41471 0.0
C584 C 0.33415 0.15487 0.34651 0.0
C585 C 0.35213 0.17785 0.3777 0.0
C586 C 0.35906 0.20024 0.38616 0.0
C587 C 0.3359 0.13496 0.36472 0.0
C588 C 0.34667 0.13654 0.38957 0.0
C589 C 0.35479 0.15798 0.39562 0.0
C590 C 0.34847 0.1163 0.41003 0.0
C591 C 0.32517 0.11252 0.35736 0.0
C592 C 0.33487 0.11442 0.43321 0.0
C593 C 0.33688 0.09576 0.45285 0.0
C594 C 0.35239 0.07858 0.44961 0.0
C595 C 0.36592 0.08033 0.42647 0.0
C596 C 0.36427 0.09919 0.40692 0.0
H597 H 0.31029 0.11445 0.34048 0.0
H598 H 0.34376 0.10502 0.35243 0.0
H599 H 0.31384 0.10054 0.37329 0.0
H600 H 0.32262 0.12741 0.4361 0.0
H601 H 0.32632 0.09471 0.4706 0.0
H602 H 0.31893 0.77362 0.78187 0.0
H603 H 0.35293 0.7796 0.81725 0.0
H604 H 0.39942 0.72789 0.80192 0.0
H605 H 0.36592 0.72244 0.76633 0.0
H606 H 0.36206 0.74728 0.86001 0.0
H607 H 0.46412 0.77826 0.80942 0.0
H608 H 0.42941 0.77789 0.79318 0.0
H609 H 0.44611 0.75253 0.80129 0.0
C610 C 0.33685 0.76399 0.78583 0.0
C611 C 0.34003 0.74762 0.77156 0.0
C612 C 0.35611 0.76728 0.80603 0.0
C613 C 0.37892 0.75438 0.81204 0.0
C614 C 0.38238 0.73837 0.79733 0.0
H615 H 0.50411 0.72489 0.93272 0.0
H616 H 0.47155 0.72641 0.89537 0.0
C617 C 0.36318 0.73511 0.7772 0.0
C618 C 0.39783 0.75628 0.83479 0.0
H619 H 0.46827 0.76449 0.85441 0.0
C620 C 0.38526 0.75135 0.85879 0.0
C621 C 0.42809 0.76153 0.83314 0.0
C622 C 0.44273 0.76807 0.80785 0.0
C623 C 0.40222 0.7507 0.88125 0.0
C624 C 0.4325 0.75537 0.87961 0.0
C625 C 0.44504 0.76077 0.8556 0.0
C626 C 0.45161 0.75426 0.90261 0.0
C627 C 0.38769 0.74423 0.9066 0.0
C628 C 0.45119 0.76946 0.91901 0.0
C629 C 0.46966 0.76857 0.94043 0.0
C630 C 0.48896 0.75248 0.94581 0.0
C631 C 0.48922 0.73725 0.92934 0.0
C632 C 0.47081 0.7382 0.90789 0.0
H633 H 0.36494 0.73653 0.90475 0.0
H634 H 0.39934 0.73212 0.9202 0.0
H635 H 0.38791 0.75958 0.91478 0.0
H636 H 0.43678 0.78216 0.91509 0.0
H637 H 0.46879 0.78045 0.95281 0.0
H638 H 0.83381 0.81552 0.35453 0.0
H639 H 0.83799 0.84546 0.37958 0.0
H640 H 0.92848 0.86164 0.36365 0.0
H641 H 0.92394 0.83212 0.33793 0.0
H642 H 0.87171 0.85122 0.42222 0.0
H643 H 0.89939 0.92274 0.34141 0.0
H644 H 0.88552 0.89459 0.33686 0.0
H645 H 0.92273 0.90132 0.34574 0.0
C646 C 0.85447 0.82562 0.35633 0.0
C647 C 0.87851 0.82177 0.34427 0.0
C648 C 0.85691 0.84259 0.37068 0.0
C649 C 0.88346 0.856 0.37316 0.0
C650 C 0.90769 0.85178 0.36159 0.0
H651 H 0.91758 0.94492 0.48393 0.0
H652 H 0.91917 0.9152 0.45963 0.0
C653 C 0.90519 0.83484 0.34716 0.0
C654 C 0.8856 0.87438 0.38785 0.0
H655 H 0.90105 0.9316 0.38249 0.0
C656 C 0.87818 0.8688 0.41358 0.0
C657 C 0.89372 0.89732 0.37642 0.0
C658 C 0.90055 0.90446 0.34854 0.0
C659 C 0.87865 0.88554 0.42821 0.0
C660 C 0.88729 0.90844 0.41691 0.0
C661 C 0.8947 0.91401 0.39117 0.0
C662 C 0.8875 0.92697 0.43112 0.0
C663 C 0.86908 0.87861 0.45542 0.0
C664 C 0.86995 0.94391 0.42267 0.0
C665 C 0.86931 0.96109 0.43628 0.0
C666 C 0.88628 0.96174 0.45864 0.0
C667 C 0.90438 0.94503 0.46672 0.0
C668 C 0.90505 0.92786 0.45303 0.0
H669 H 0.85654 0.86142 0.45917 0.0
H670 H 0.8883 0.87843 0.46839 0.0
H671 H 0.8557 0.89074 0.46011 0.0
H672 H 0.85641 0.94365 0.40569 0.0
H673 H 0.85552 0.9739 0.42926 0.0
H674 H 0.73523 0.20447 0.78727 0.0
H675 H 0.70037 0.19755 0.82122 0.0
H676 H 0.66882 0.26046 0.78831 0.0
H677 H 0.70163 0.26605 0.75309 0.0
H678 H 0.6968 0.21849 0.85655 0.0
H679 H 0.59433 0.22261 0.80178 0.0
H680 H 0.62749 0.22157 0.78696 0.0
H681 H 0.61831 0.24814 0.79175 0.0
C682 C 0.72019 0.2164 0.78696 0.0
C683 C 0.72101 0.23575 0.76759 0.0
C684 C 0.70049 0.2126 0.80647 0.0
C685 C 0.68153 0.22829 0.80724 0.0
C686 C 0.68247 0.2477 0.78786 0.0
H687 H 0.61062 0.24564 0.94658 0.0
H688 H 0.64054 0.24596 0.91052 0.0
C689 C 0.70163 0.25115 0.76798 0.0
C690 C 0.66224 0.22514 0.82915 0.0
H691 H 0.59384 0.22871 0.84478 0.0
C692 C 0.67418 0.2204 0.85393 0.0
C693 C 0.63253 0.22714 0.82593 0.0
C694 C 0.6174 0.22987 0.80015 0.0
C695 C 0.65754 0.21824 0.87545 0.0
C696 C 0.62844 0.2221 0.87216 0.0
C697 C 0.61627 0.22616 0.84742 0.0
C698 C 0.61024 0.22214 0.894 0.0
C699 C 0.67137 0.2114 0.90141 0.0
C700 C 0.58264 0.20955 0.89617 0.0
C701 C 0.5651 0.21016 0.91616 0.0
C702 C 0.57501 0.22307 0.93458 0.0
C703 C 0.6026 0.23555 0.93256 0.0
C704 C 0.61983 0.23546 0.91218 0.0
H705 H 0.68901 0.20127 0.90051 0.0
H706 H 0.68097 0.2268 0.90849 0.0
H707 H 0.65551 0.20132 0.91531 0.0
H708 H 0.57463 0.19923 0.88237 0.0
H709 H 0.5438 0.2005 0.91732 0.0
H710 H 0.36543 0.77599 0.7262 0.0
H711 H 0.38265 0.81584 0.70855 0.0
H712 H 0.29514 0.83064 0.70377 0.0
H713 H 0.27853 0.79142 0.72303 0.0
H714 H 0.37271 0.83698 0.66371 0.0
H715 H 0.33248 0.88497 0.72743 0.0
H716 H 0.33278 0.85484 0.73639 0.0
H717 H 0.30291 0.8661 0.71806 0.0
C718 C 0.35017 0.78805 0.72219 0.0
C719 C 0.32069 0.78079 0.72577 0.0
C720 C 0.35992 0.81073 0.71195 0.0
C721 C 0.34028 0.82644 0.70504 0.0
C722 C 0.31092 0.81918 0.70955 0.0
H723 H 0.34191 0.93141 0.57424 0.0
H724 H 0.34144 0.89641 0.60601 0.0
C725 C 0.30132 0.79668 0.72018 0.0
C726 C 0.34961 0.84957 0.6903 0.0
H727 H 0.33695 0.90428 0.68278 0.0
C728 C 0.36542 0.85177 0.66824 0.0
C729 C 0.34084 0.86911 0.69634 0.0
C730 C 0.32662 0.86862 0.72103 0.0
C731 C 0.37095 0.87256 0.65125 0.0
C732 C 0.3593 0.89149 0.65585 0.0
C733 C 0.34528 0.88969 0.6788 0.0
C734 C 0.35998 0.91284 0.63657 0.0
C735 C 0.38911 0.87386 0.6285 0.0
C736 C 0.36921 0.93388 0.64336 0.0
C737 C 0.36857 0.95393 0.62537 0.0
C738 C 0.35909 0.95324 0.60023 0.0
C739 C 0.34968 0.93228 0.59347 0.0
C740 C 0.34976 0.91229 0.61154 0.0
H741 H 0.40497 0.86166 0.63287 0.0
H742 H 0.37503 0.86929 0.61252 0.0
H743 H 0.40093 0.89108 0.62224 0.0
H744 H 0.37683 0.9348 0.6626 0.0
H745 H 0.37545 0.96999 0.63105 0.0
H746 H 0.82209 0.74782 0.30255 0.0
H747 H 0.78963 0.73646 0.26836 0.0
H748 H 0.83023 0.79356 0.21489 0.0
H749 H 0.86279 0.80452 0.24907 0.0
H750 H 0.75118 0.76349 0.2415 0.0
H751 H 0.82481 0.74253 0.17523 0.0
H752 H 0.83512 0.7442 0.20781 0.0
H753 H 0.83597 0.76953 0.18376 0.0
C754 C 0.82427 0.75753 0.28332 0.0
C755 C 0.84452 0.77703 0.27819 0.0
C756 C 0.80582 0.75114 0.26389 0.0
C757 C 0.80767 0.76406 0.23903 0.0
C758 C 0.82875 0.7831 0.23379 0.0
H759 H 0.70608 0.7803 0.10035 0.0
H760 H 0.74248 0.78155 0.13459 0.0
C761 C 0.84715 0.78946 0.25323 0.0
C762 C 0.78585 0.75903 0.21917 0.0
H763 H 0.77778 0.74917 0.15855 0.0
C764 C 0.75691 0.76002 0.2235 0.0
C765 C 0.79344 0.75465 0.19567 0.0
C766 C 0.82399 0.75244 0.19038 0.0
C767 C 0.73547 0.7576 0.2046 0.0
C768 C 0.74313 0.75368 0.18089 0.0
C769 C 0.77198 0.75221 0.17674 0.0
C770 C 0.72163 0.75204 0.15981 0.0
C771 C 0.705 0.7602 0.2098 0.0
C772 C 0.69809 0.73479 0.16246 0.0
C773 C 0.67708 0.73414 0.14301 0.0
C774 C 0.67932 0.75068 0.12047 0.0
C775 C 0.70341 0.76755 0.11763 0.0
C776 C 0.72437 0.76818 0.13709 0.0
H777 H 0.70396 0.76819 0.22654 0.0
H778 H 0.69514 0.77055 0.19302 0.0
H779 H 0.69191 0.74327 0.21378 0.0
H780 H 0.6958 0.72197 0.1797 0.0
H781 H 0.65876 0.72099 0.1459 0.0
H782 H 0.81531 0.21231 0.7326 0.0
H783 H 0.83475 0.18832 0.7078 0.0
H784 H 0.77845 0.21087 0.6444 0.0
H785 H 0.75873 0.23439 0.66966 0.0
H786 H 0.77384 0.16495 0.65774 0.0
H787 H 0.88905 0.201 0.64872 0.0
H788 H 0.87698 0.19445 0.68089 0.0
H789 H 0.86234 0.2161 0.65805 0.0
C790 C 0.80785 0.21249 0.71311 0.0
C791 C 0.78603 0.22525 0.70268 0.0
C792 C 0.81891 0.1989 0.69895 0.0
C793 C 0.80835 0.19803 0.67409 0.0
C794 C 0.78707 0.21142 0.66345 0.0
H795 H 0.82924 0.11855 0.56172 0.0
H796 H 0.81675 0.14563 0.58578 0.0
C797 C 0.77597 0.22491 0.67769 0.0
C798 C 0.81732 0.18156 0.66018 0.0
H799 H 0.87554 0.1651 0.63715 0.0
C800 C 0.79606 0.1651 0.65309 0.0
C801 C 0.84636 0.18162 0.65436 0.0
C802 C 0.86998 0.19936 0.66068 0.0
C803 C 0.80303 0.14861 0.64051 0.0
C804 C 0.832 0.14873 0.63457 0.0
C805 C 0.85336 0.16504 0.64182 0.0
C806 C 0.84029 0.13251 0.62002 0.0
C807 C 0.77937 0.13098 0.63395 0.0
C808 C 0.85812 0.11641 0.63118 0.0
C809 C 0.86546 0.10091 0.6174 0.0
C810 C 0.85535 0.10148 0.59213 0.0
C811 C 0.83768 0.1178 0.58103 0.0
C812 C 0.83029 0.13318 0.59481 0.0
H813 H 0.75988 0.12976 0.64526 0.0
H814 H 0.7732 0.13561 0.6135 0.0
H815 H 0.78675 0.1141 0.63727 0.0
H816 H 0.86613 0.11572 0.65061 0.0
H817 H 0.87932 0.08869 0.62639 0.0
H818 H 0.37813 0.26141 0.25982 0.0
H819 H 0.40002 0.24908 0.2253 0.0
H820 H 0.31608 0.2369 0.18985 0.0
H821 H 0.29442 0.24946 0.22434 0.0
H822 H 0.39131 0.20933 0.20443 0.0
H823 H 0.36135 0.28403 0.13555 0.0
H824 H 0.35925 0.28137 0.16954 0.0
H825 H 0.33163 0.26643 0.15232 0.0
C826 C 0.36445 0.2555 0.24496 0.0
C827 C 0.33474 0.25618 0.24456 0.0
C828 C 0.37688 0.24861 0.22523 0.0
C829 C 0.35971 0.24244 0.20482 0.0
C830 C 0.32976 0.24198 0.20519 0.0
H831 H 0.40185 0.21676 0.05805 0.0
H832 H 0.3768 0.21929 0.09626 0.0
C833 C 0.3174 0.24896 0.22486 0.0
C834 C 0.3733 0.23791 0.18242 0.0
H835 H 0.38295 0.25769 0.11878 0.0
C836 C 0.38949 0.21986 0.18569 0.0
C837 C 0.37098 0.25178 0.15802 0.0
C838 C 0.3551 0.27212 0.15358 0.0
C839 C 0.40317 0.21515 0.16509 0.0
C840 C 0.40085 0.22905 0.14074 0.0
C841 C 0.38452 0.24699 0.13746 0.0
C842 C 0.4159 0.22582 0.11845 0.0
C843 C 0.41972 0.19521 0.16946 0.0
C844 C 0.4461 0.22873 0.11829 0.0
C845 C 0.46029 0.22734 0.09655 0.0
C846 C 0.44445 0.22304 0.07472 0.0
C847 C 0.41431 0.21993 0.07486 0.0
C848 C 0.40011 0.22139 0.09658 0.0
H849 H 0.41332 0.183 0.18725 0.0
H850 H 0.41639 0.18625 0.15323 0.0
H851 H 0.44303 0.20131 0.17119 0.0
H852 H 0.45868 0.23266 0.13475 0.0
H853 H 0.4836 0.22997 0.09658 0.0
H854 H 0.79509 0.71584 0.71731 0.0
H855 H 0.81919 0.68857 0.70117 0.0
H856 H 0.90155 0.72716 0.71304 0.0
H857 H 0.87726 0.75423 0.7296 0.0
H858 H 0.85976 0.69129 0.6621 0.0
H859 H 0.90446 0.66445 0.75995 0.0
H860 H 0.87613 0.68203 0.75331 0.0
H861 H 0.9127 0.69398 0.74619 0.0
C862 C 0.81829 0.71864 0.71594 0.0
C863 C 0.83446 0.73687 0.72483 0.0
C864 C 0.83203 0.70315 0.70672 0.0
C865 C 0.86217 0.70563 0.70633 0.0
C866 C 0.87827 0.72477 0.71352 0.0
H867 H 0.96176 0.61489 0.65092 0.0
H868 H 0.94049 0.64802 0.65602 0.0
C869 C 0.86447 0.7403 0.72272 0.0
C870 C 0.87655 0.68713 0.70066 0.0
H871 H 0.91639 0.64567 0.72853 0.0
C872 C 0.87235 0.68141 0.67652 0.0
C873 C 0.89252 0.67402 0.71968 0.0
C874 C 0.89661 0.67872 0.74632 0.0
C875 C 0.88372 0.66288 0.6709 0.0
C876 C 0.89985 0.6499 0.6899 0.0
C877 C 0.90413 0.65571 0.71397 0.0
C878 C 0.91171 0.6297 0.68562 0.0
C879 C 0.87765 0.65693 0.64499 0.0
C880 C 0.90277 0.60842 0.7007 0.0
C881 C 0.91484 0.58945 0.69782 0.0
C882 C 0.93629 0.59137 0.6799 0.0
C883 C 0.94497 0.61271 0.66461 0.0
C884 C 0.93285 0.63169 0.6675 0.0
H885 H 0.85981 0.66537 0.63463 0.0
H886 H 0.89721 0.66245 0.63343 0.0
H887 H 0.87205 0.63837 0.64664 0.0
H888 H 0.88647 0.60651 0.7148 0.0
H889 H 0.90736 0.57326 0.70968 0.0
H890 H 0.88317 0.30939 0.24107 0.0
H891 H 0.91859 0.34022 0.25068 0.0
H892 H 0.89268 0.32405 0.32899 0.0
H893 H 0.85568 0.29412 0.31872 0.0
H894 H 0.89501 0.36692 0.31273 0.0
H895 H 0.99554 0.34369 0.28403 0.0
H896 H 0.96996 0.34468 0.25798 0.0
H897 H 0.96257 0.32422 0.28706 0.0
C898 C 0.88526 0.31237 0.26035 0.0
C899 C 0.86664 0.29957 0.27911 0.0
C900 C 0.9058 0.32977 0.26596 0.0
C901 C 0.90878 0.33433 0.2907 0.0
C902 C 0.89096 0.32083 0.30979 0.0
H903 H 0.04666 0.44214 0.31575 0.0
H904 H 0.0171 0.40514 0.31832 0.0
C905 C 0.87003 0.30361 0.30403 0.0
C906 C 0.92848 0.35448 0.29582 0.0
H907 H 0.99563 0.38358 0.28371 0.0
C908 C 0.91717 0.37035 0.30678 0.0
C909 C 0.95762 0.35891 0.2886 0.0
C910 C 0.97216 0.3418 0.27905 0.0
C911 C 0.93369 0.39088 0.30956 0.0
C912 C 0.96198 0.39618 0.30019 0.0
C913 C 0.97376 0.37984 0.29042 0.0
C914 C 0.97949 0.41868 0.29973 0.0
C915 C 0.92056 0.40655 0.32269 0.0
C916 C 0.96835 0.43866 0.28838 0.0
C917 C 0.98501 0.45975 0.28744 0.0
C918 C 0.01347 0.46124 0.29701 0.0
C919 C 0.02476 0.44133 0.30816 0.0
C920 C 0.00791 0.42025 0.30956 0.0
H921 H 0.90428 0.39697 0.33653 0.0
H922 H 0.93714 0.41654 0.33296 0.0
H923 H 0.90941 0.41837 0.30829 0.0
H924 H 0.94686 0.43798 0.27995 0.0
H925 H 0.97581 0.47492 0.27894 0.0
H926 H 0.17759 0.26993 0.67746 0.0
H927 H 0.14519 0.29909 0.66907 0.0
H928 H 0.21832 0.35074 0.66969 0.0
H929 H 0.25051 0.32161 0.67771 0.0
H930 H 0.14003 0.32885 0.70164 0.0
H931 H 0.17229 0.37605 0.60558 0.0
H932 H 0.18081 0.34791 0.61831 0.0
H933 H 0.20204 0.37204 0.62773 0.0
C934 C 0.18659 0.28758 0.67525 0.0
C935 C 0.21636 0.2937 0.67814 0.0
C936 C 0.16819 0.30416 0.67058 0.0
C937 C 0.17939 0.32709 0.66846 0.0
C938 C 0.20926 0.3332 0.67077 0.0
H939 H 0.10614 0.43942 0.69894 0.0
H940 H 0.133 0.40816 0.69806 0.0
C941 C 0.22758 0.31663 0.67552 0.0
C942 C 0.15986 0.3445 0.66599 0.0
H943 H 0.14494 0.39449 0.62949 0.0
C944 C 0.14086 0.34307 0.68573 0.0
C945 C 0.16083 0.36293 0.64511 0.0
C946 C 0.17989 0.36478 0.62284 0.0
C947 C 0.12357 0.36002 0.68562 0.0
C948 C 0.12556 0.37899 0.66537 0.0
C949 C 0.14371 0.38002 0.64512 0.0
C950 C 0.10957 0.39821 0.66538 0.0
C951 C 0.10343 0.35761 0.70727 0.0
C952 C 0.08791 0.40327 0.64693 0.0
C953 C 0.07232 0.42106 0.64748 0.0
C954 C 0.07828 0.43422 0.66639 0.0
C955 C 0.10053 0.42937 0.68445 0.0
C956 C 0.11599 0.41155 0.68394 0.0
H957 H 0.0993 0.33986 0.71787 0.0
H958 H 0.11322 0.3683 0.72081 0.0
H959 H 0.08255 0.36333 0.70017 0.0
H960 H 0.08272 0.39318 0.6324 0.0
H961 H 0.05517 0.42416 0.63343 0.0
H962 H 0.34919 0.72226 0.34343 0.0
H963 H 0.31551 0.68875 0.33785 0.0
H964 H 0.29201 0.72317 0.26276 0.0
H965 H 0.32588 0.75667 0.26846 0.0
H966 H 0.2569 0.68823 0.33014 0.0
H967 H 0.30423 0.66087 0.25077 0.0
H968 H 0.32432 0.68011 0.269 0.0
H969 H 0.29907 0.69013 0.24445 0.0
C970 C 0.33703 0.72243 0.32566 0.0
C971 C 0.33992 0.74186 0.30637 0.0
C972 C 0.31788 0.70338 0.32246 0.0
C973 C 0.3014 0.70338 0.29982 0.0
C974 C 0.30489 0.72262 0.28019 0.0
H975 H 0.13938 0.61768 0.28378 0.0
H976 H 0.17784 0.6495 0.28465 0.0
C977 C 0.32411 0.74172 0.28343 0.0
C978 C 0.27904 0.68394 0.29769 0.0
H979 H 0.25715 0.64305 0.26289 0.0
C980 C 0.25701 0.67831 0.31547 0.0
C981 C 0.27935 0.67092 0.27868 0.0
C982 C 0.30313 0.67562 0.25975 0.0
C983 C 0.2351 0.6602 0.3146 0.0
C984 C 0.23495 0.64756 0.29518 0.0
C985 C 0.25718 0.65294 0.2776 0.0
C986 C 0.21197 0.62855 0.29312 0.0
C987 C 0.21249 0.65452 0.3347 0.0
C988 C 0.21855 0.60634 0.29694 0.0
C989 C 0.19664 0.58825 0.29639 0.0
C990 C 0.16795 0.59217 0.29184 0.0
C991 C 0.16143 0.61439 0.28739 0.0
C992 C 0.1833 0.63246 0.28798 0.0
H993 H 0.2194 0.66227 0.35149 0.0
H994 H 0.19244 0.66106 0.32652 0.0
H995 H 0.20745 0.63594 0.3412 0.0
H996 H 0.24054 0.60299 0.30089 0.0
H997 H 0.20199 0.57118 0.29982 0.0
H998 H 0.80739 0.77345 0.68562 0.0
H999 H 0.82032 0.80523 0.65005 0.0
H1000 H 0.87746 0.83892 0.70058 0.0
H1001 H 0.86481 0.80704 0.73574 0.0
H1002 H 0.80776 0.84711 0.651 0.0
H1003 H 0.92441 0.85271 0.63679 0.0
H1004 H 0.90345 0.82742 0.65371 0.0
H1005 H 0.91657 0.85036 0.66965 0.0
C1006 C 0.82354 0.78729 0.6887 0.0
C1007 C 0.83522 0.78797 0.71319 0.0
C1008 C 0.83078 0.80547 0.66852 0.0
C1009 C 0.85003 0.82443 0.67257 0.0
C1010 C 0.86305 0.82435 0.69678 0.0
H1011 H 0.84934 0.96497 0.61397 0.0
H1012 H 0.8448 0.92569 0.63736 0.0
C1013 C 0.85576 0.80623 0.71689 0.0
C1014 C 0.85337 0.84553 0.65287 0.0
H1015 H 0.9035 0.88729 0.62258 0.0
C1016 C 0.82867 0.85568 0.64443 0.0
C1017 C 0.88059 0.85669 0.64412 0.0
C1018 C 0.90772 0.84611 0.65134 0.0
C1019 C 0.83057 0.87715 0.62859 0.0
C1020 C 0.85795 0.88896 0.62127 0.0
C1021 C 0.88255 0.87835 0.62852 0.0
C1022 C 0.86141 0.91273 0.60717 0.0
C1023 C 0.80326 0.88717 0.62014 0.0
C1024 C 0.87304 0.91856 0.58276 0.0
C1025 C 0.87558 0.94098 0.56942 0.0
C1026 C 0.8666 0.9578 0.58036 0.0
C1027 C 0.85581 0.9521 0.60504 0.0
C1028 C 0.8532 0.92973 0.61833 0.0
H1029 H 0.78426 0.87387 0.62117 0.0
H1030 H 0.79961 0.89871 0.63286 0.0
H1031 H 0.80479 0.89706 0.60035 0.0
H1032 H 0.87975 0.90573 0.57393 0.0
H1033 H 0.88431 0.9452 0.55049 0.0
H1034 H 0.74811 0.25398 0.26146 0.0
H1035 H 0.70961 0.24664 0.23013 0.0
H1036 H 0.76906 0.27343 0.16935 0.0
H1037 H 0.80774 0.27978 0.20078 0.0
H1038 H 0.68599 0.2748 0.19118 0.0
H1039 H 0.73735 0.21248 0.15316 0.0
H1040 H 0.7501 0.22206 0.182 0.0
H1041 H 0.75983 0.23913 0.15141 0.0
C1042 C 0.75284 0.25812 0.24139 0.0
C1043 C 0.78078 0.26724 0.23342 0.0
C1044 C 0.73091 0.25405 0.22354 0.0
C1045 C 0.73661 0.25905 0.19742 0.0
C1046 C 0.76434 0.26891 0.18942 0.0
H1047 H 0.63458 0.25599 0.05904 0.0
H1048 H 0.67178 0.26213 0.09169 0.0
C1049 C 0.78629 0.27282 0.20729 0.0
C1050 C 0.71352 0.25408 0.17857 0.0
H1051 H 0.69637 0.22557 0.1299 0.0
C1052 C 0.68817 0.26391 0.17791 0.0
C1053 C 0.71634 0.23974 0.16136 0.0
C1054 C 0.74224 0.22756 0.16213 0.0
C1055 C 0.66588 0.26024 0.16007 0.0
C1056 C 0.66902 0.24631 0.14257 0.0
C1057 C 0.69418 0.23632 0.14333 0.0
C1058 C 0.64656 0.24225 0.12301 0.0
C1059 C 0.63934 0.2716 0.15963 0.0
C1060 C 0.62028 0.22878 0.12988 0.0
C1061 C 0.59904 0.22517 0.11127 0.0
C1062 C 0.60372 0.23509 0.08553 0.0
C1063 C 0.63024 0.24836 0.07875 0.0
C1064 C 0.65152 0.2518 0.09732 0.0
H1065 H 0.64209 0.28453 0.17182 0.0
H1066 H 0.63389 0.2798 0.13986 0.0
H1067 H 0.62088 0.25869 0.16663 0.0
H1068 H 0.61622 0.22113 0.14963 0.0
H1069 H 0.57876 0.215 0.11708 0.0
H1070 H 0.22795 0.20908 0.67565 0.0
H1071 H 0.24663 0.17917 0.65951 0.0
H1072 H 0.33293 0.21401 0.66411 0.0
H1073 H 0.31401 0.24418 0.67967 0.0
H1074 H 0.31936 0.20178 0.6175 0.0
H1075 H 0.29131 0.12867 0.69608 0.0
H1076 H 0.26136 0.14341 0.6844 0.0
H1077 H 0.29165 0.15755 0.69961 0.0
C1078 C 0.25089 0.21017 0.67332 0.0
C1079 C 0.26962 0.22879 0.6788 0.0
C1080 C 0.26158 0.19304 0.66436 0.0
C1081 C 0.29123 0.19421 0.66093 0.0
C1082 C 0.31002 0.21269 0.6668 0.0
H1083 H 0.36607 0.084 0.61717 0.0
H1084 H 0.3568 0.1137 0.63926 0.0
C1085 C 0.29928 0.22981 0.67577 0.0
C1086 C 0.30231 0.17695 0.64956 0.0
H1087 H 0.30345 0.12014 0.65661 0.0
C1088 C 0.31616 0.18396 0.62619 0.0
C1089 C 0.29846 0.15374 0.66106 0.0
C1090 C 0.28514 0.14537 0.6868 0.0
C1091 C 0.32525 0.16827 0.61351 0.0
C1092 C 0.31999 0.14496 0.62435 0.0
C1093 C 0.3072 0.13802 0.64821 0.0
C1094 C 0.32644 0.12747 0.61067 0.0
C1095 C 0.3403 0.1768 0.58857 0.0
C1096 C 0.31234 0.12533 0.58737 0.0
C1097 C 0.31762 0.10849 0.57472 0.0
C1098 C 0.33703 0.09332 0.58517 0.0
C1099 C 0.35125 0.09557 0.60849 0.0
C1100 C 0.34586 0.11242 0.6212 0.0
H1101 H 0.34989 0.19481 0.58657 0.0
H1102 H 0.35755 0.16659 0.58675 0.0
H1103 H 0.32445 0.17549 0.57264 0.0
H1104 H 0.29694 0.13654 0.5791 0.0
H1105 H 0.30652 0.10737 0.55669 0.0
H1106 H 0.38753 0.80165 0.25069 0.0
H1107 H 0.41031 0.79362 0.2143 0.0
H1108 H 0.41454 0.7253 0.25475 0.0
H1109 H 0.39397 0.73411 0.29206 0.0
H1110 H 0.46278 0.74081 0.23412 0.0
H1111 H 0.38021 0.76165 0.15961 0.0
H1112 H 0.39131 0.78556 0.17419 0.0
H1113 H 0.3737 0.75963 0.19286 0.0
C1114 C 0.39345 0.78497 0.25177 0.0
C1115 C 0.38924 0.76855 0.27418 0.0
C1116 C 0.40598 0.78022 0.23079 0.0
C1117 C 0.41365 0.75867 0.23143 0.0
C1118 C 0.40869 0.74202 0.25365 0.0
H1119 H 0.47551 0.73278 0.08992 0.0
H1120 H 0.44629 0.73189 0.12674 0.0
C1121 C 0.39671 0.74696 0.27488 0.0
C1122 C 0.42879 0.75417 0.20968 0.0
H1123 H 0.42822 0.76265 0.14476 0.0
C1124 C 0.45494 0.74526 0.21461 0.0
C1125 C 0.41843 0.75945 0.18417 0.0
C1126 C 0.3892 0.76684 0.17746 0.0
C1127 C 0.47152 0.74238 0.19479 0.0
C1128 C 0.46239 0.74957 0.16919 0.0
C1129 C 0.43564 0.75756 0.1643 0.0
C1130 C 0.4804 0.74936 0.14725 0.0
C1131 C 0.49842 0.73137 0.20167 0.0
C1132 C 0.50921 0.75966 0.14626 0.0
C1133 C 0.52606 0.75956 0.12561 0.0
C1134 C 0.51419 0.7498 0.10516 0.0
C1135 C 0.48518 0.74013 0.10568 0.0
C1136 C 0.4685 0.73974 0.12663 0.0
H1137 H 0.49657 0.71969 0.22049 0.0
H1138 H 0.50297 0.72171 0.18722 0.0
H1139 H 0.51698 0.74461 0.20307 0.0
H1140 H 0.51867 0.76798 0.16136 0.0
H1141 H 0.54832 0.76732 0.12546 0.0
H1142 H 0.88591 0.24741 0.28257 0.0
H1143 H 0.90339 0.21679 0.31439 0.0
H1144 H 0.83434 0.21856 0.36343 0.0
H1145 H 0.8168 0.24875 0.33142 0.0
H1146 H 0.91797 0.20851 0.36925 0.0
H1147 H 0.81904 0.15533 0.34329 0.0
H1148 H 0.83171 0.18272 0.32451 0.0
H1149 H 0.81245 0.18056 0.35315 0.0
C1150 C 0.87532 0.24175 0.30062 0.0
C1151 C 0.85023 0.25028 0.30486 0.0
C1152 C 0.88511 0.22425 0.31866 0.0
C1153 C 0.86981 0.21517 0.34102 0.0
C1154 C 0.84621 0.22514 0.34615 0.0
H1155 H 0.89628 0.11633 0.4753 0.0
H1156 H 0.89609 0.15077 0.44266 0.0
C1157 C 0.83638 0.24247 0.32809 0.0
C1158 C 0.87621 0.19379 0.35756 0.0
H1159 H 0.84618 0.13929 0.37926 0.0
C1160 C 0.90242 0.19331 0.37136 0.0
C1161 C 0.85616 0.17384 0.35977 0.0
C1162 C 0.82837 0.17297 0.34423 0.0
C1163 C 0.90857 0.17357 0.3882 0.0
C1164 C 0.88776 0.15399 0.39149 0.0
C1165 C 0.86207 0.15431 0.37688 0.0
C1166 C 0.89125 0.13337 0.41092 0.0
C1167 C 0.93729 0.17388 0.40223 0.0
C1168 C 0.8882 0.11205 0.40403 0.0
C1169 C 0.88807 0.09235 0.42273 0.0
C1170 C 0.89099 0.09373 0.44853 0.0
C1171 C 0.89455 0.11501 0.45541 0.0
C1172 C 0.89461 0.13465 0.43678 0.0
H1173 H 0.95381 0.18685 0.39175 0.0
H1174 H 0.93508 0.17816 0.42112 0.0
H1175 H 0.94501 0.15714 0.40524 0.0
H1176 H 0.88523 0.11064 0.38422 0.0
H1177 H 0.88489 0.07604 0.41714 0.0
H1178 H 0.26232 0.21453 0.73624 0.0
H1179 H 0.29176 0.20245 0.7747 0.0
H1180 H 0.34605 0.26681 0.7595 0.0
H1181 H 0.31659 0.27877 0.7213 0.0
H1182 H 0.35473 0.20156 0.7847 0.0
H1183 H 0.30886 0.2625 0.82981 0.0
H1184 H 0.29309 0.25339 0.8015 0.0
H1185 H 0.32421 0.27458 0.79932 0.0
C1186 C 0.28098 0.22576 0.74094 0.0
C1187 C 0.28723 0.24759 0.72623 0.0
C1188 C 0.29767 0.21893 0.76282 0.0
C1189 C 0.32072 0.23392 0.7701 0.0
C1190 C 0.32808 0.25515 0.75436 0.0
H1191 H 0.44128 0.25024 0.89046 0.0
H1192 H 0.41177 0.25128 0.85151 0.0
C1193 C 0.31139 0.26195 0.73263 0.0
C1194 C 0.33569 0.22839 0.79509 0.0
H1195 H 0.34907 0.24668 0.8512 0.0
C1196 C 0.3533 0.21119 0.79941 0.0
C1197 C 0.33345 0.24086 0.81429 0.0
C1198 C 0.31368 0.25873 0.81118 0.0
C1199 C 0.36993 0.20694 0.82206 0.0
C1200 C 0.36858 0.22012 0.84074 0.0
C1201 C 0.35014 0.23671 0.83674 0.0
C1202 C 0.38751 0.21824 0.86383 0.0
C1203 C 0.38969 0.18909 0.8255 0.0
C1204 C 0.38368 0.19922 0.88364 0.0
C1205 C 0.4004 0.19864 0.90617 0.0
C1206 C 0.42105 0.21715 0.90921 0.0
C1207 C 0.42516 0.2359 0.88899 0.0
C1208 C 0.40849 0.23647 0.86662 0.0
H1209 H 0.39097 0.18236 0.80789 0.0
H1210 H 0.41168 0.19609 0.83121 0.0
H1211 H 0.3817 0.17486 0.84097 0.0
H1212 H 0.36729 0.18511 0.88194 0.0
H1213 H 0.3966 0.18402 0.92143 0.0
H1214 H 0.38162 0.78599 0.37869 0.0
H1215 H 0.3835 0.81467 0.40535 0.0
H1216 H 0.37275 0.86549 0.33812 0.0
H1217 H 0.37057 0.83675 0.3116 0.0
H1218 H 0.42184 0.85776 0.40215 0.0
H1219 H 0.30604 0.86756 0.38589 0.0
H1220 H 0.32072 0.84346 0.37965 0.0
H1221 H 0.32628 0.87006 0.35771 0.0
C1222 C 0.37972 0.80332 0.36976 0.0
C1223 C 0.37587 0.80929 0.34324 0.0
C1224 C 0.3809 0.81965 0.38488 0.0
C1225 C 0.378 0.84213 0.37369 0.0
C1226 C 0.37475 0.84819 0.34712 0.0
H1227 H 0.40501 0.96288 0.44005 0.0
H1228 H 0.40883 0.93395 0.41513 0.0
C1229 C 0.37369 0.83188 0.33201 0.0
C1230 C 0.37764 0.85914 0.38983 0.0
H1231 H 0.33418 0.8927 0.40871 0.0
C1232 C 0.40272 0.86543 0.40362 0.0
C1233 C 0.35254 0.86888 0.39188 0.0
C1234 C 0.32474 0.86208 0.37819 0.0
C1235 C 0.40344 0.8815 0.41919 0.0
C1236 C 0.37848 0.89157 0.42083 0.0
C1237 C 0.35333 0.88505 0.40727 0.0
C1238 C 0.37771 0.90865 0.43684 0.0
C1239 C 0.43069 0.88734 0.43408 0.0
C1240 C 0.3589 0.90404 0.45723 0.0
C1241 C 0.35674 0.92047 0.47154 0.0
C1242 C 0.37317 0.94197 0.46561 0.0
C1243 C 0.39234 0.94642 0.44536 0.0
C1244 C 0.39453 0.92992 0.43107 0.0
H1245 H 0.44573 0.87469 0.43509 0.0
H1246 H 0.44176 0.90405 0.42467 0.0
H1247 H 0.42575 0.8885 0.45375 0.0
H1248 H 0.34574 0.88771 0.46198 0.0
H1249 H 0.34212 0.91631 0.48725 0.0
H1250 H 0.74585 0.73431 0.78098 0.0
H1251 H 0.71705 0.73284 0.81835 0.0
H1252 H 0.78397 0.77864 0.84657 0.0
H1253 H 0.81268 0.78001 0.80921 0.0
H1254 H 0.73046 0.71978 0.87055 0.0
H1255 H 0.71163 0.80952 0.84576 0.0
H1256 H 0.72483 0.7953 0.8232 0.0
H1257 H 0.74885 0.80553 0.84686 0.0
C1258 C 0.75434 0.74389 0.79532 0.0
C1259 C 0.78128 0.75736 0.79233 0.0
C1260 C 0.73794 0.74312 0.81654 0.0
C1261 C 0.74819 0.75592 0.83501 0.0
C1262 C 0.77541 0.76901 0.83228 0.0
H1263 H 0.68445 0.742 0.98756 0.0
H1264 H 0.71322 0.74254 0.95045 0.0
C1265 C 0.79178 0.76976 0.81106 0.0
C1266 C 0.73045 0.75552 0.85716 0.0
H1267 H 0.69706 0.78913 0.88662 0.0
C1268 C 0.7231 0.73491 0.87407 0.0
C1269 C 0.72056 0.77525 0.86148 0.0
C1270 C 0.7266 0.79763 0.84326 0.0
C1271 C 0.7065 0.73358 0.89546 0.0
C1272 C 0.69738 0.75344 0.90021 0.0
C1273 C 0.70433 0.77397 0.88306 0.0
C1274 C 0.68026 0.75324 0.92269 0.0
C1275 C 0.69848 0.71085 0.91257 0.0
C1276 C 0.65254 0.75963 0.91935 0.0
C1277 C 0.63626 0.75942 0.94047 0.0
C1278 C 0.64753 0.75292 0.96518 0.0
C1279 C 0.67538 0.74689 0.96858 0.0
C1280 C 0.69167 0.74708 0.94746 0.0
H1281 H 0.70083 0.69672 0.90294 0.0
H1282 H 0.7129 0.70947 0.92975 0.0
H1283 H 0.67597 0.70889 0.91888 0.0
H1284 H 0.64342 0.76457 0.9004 0.0
H1285 H 0.6148 0.76418 0.93756 0.0
loop_
_geom_bond_atom_site_label_1
_geom_bond_atom_site_label_2
_geom_bond_distance
_geom_bond_site_symmetry_2
_ccdc_geom_bond_type
C0 N1 1.317 . S
C0 N2 1.348 . S
C0 C3 1.485 . S
N1 C0 1.317 . S
N1 N5 1.370 . S
N2 C0 1.348 . S
N2 C4 1.346 . S
C3 C0 1.485 . S
C3 H7 0.960 . S
C3 H8 0.961 . S
C3 H9 0.960 . S
C4 N2 1.346 . S
C4 N5 1.307 . S
C4 C6 1.486 . S
N5 N1 1.370 . S
N5 C4 1.307 . S
C6 C4 1.486 . S
C6 H10 0.960 . S
C6 H11 0.960 . S
C6 H12 0.959 . S
H7 C3 0.960 . S
H8 C3 0.961 . S
H9 C3 0.960 . S
H10 C6 0.960 . S
H11 C6 0.960 . S
H12 C6 0.959 . S
C13 N14 1.317 . S
C13 N15 1.348 . S
C13 C16 1.485 . S
N14 C13 1.317 . S
N14 N18 1.370 . S
N15 C13 1.348 . S
N15 C17 1.346 . S
C16 C13 1.485 . S
C16 H20 0.960 . S
C16 H21 0.961 . S
C16 H22 0.960 . S
C17 N15 1.346 . S
C17 N18 1.307 . S
C17 C19 1.486 . S
N18 N14 1.370 . S
N18 C17 1.307 . S
C19 C17 1.486 . S
C19 H23 0.960 . S
C19 H24 0.960 . S
C19 H25 0.959 . S
H20 C16 0.960 . S
H21 C16 0.961 . S
H22 C16 0.960 . S
H23 C19 0.960 . S
H24 C19 0.960 . S
H25 C19 0.959 . S
C26 N27 1.317 . S
C26 N28 1.348 . S
C26 C29 1.485 . S
N27 C26 1.317 . S
N27 N31 1.370 . S
N28 C26 1.348 . S
N28 C30 1.346 . S
C29 C26 1.485 . S
C29 H33 0.960 . S
C29 H34 0.961 . S
C29 H35 0.960 . S
C30 N28 1.346 . S
C30 N31 1.307 . S
C30 C32 1.486 . S
N31 N27 1.370 . S
N31 C30 1.307 . S
C32 C30 1.486 . S
C32 H36 0.960 . S
C32 H37 0.960 . S
C32 H38 0.959 . S
H33 C29 0.960 . S
H34 C29 0.961 . S
H35 C29 0.960 . S
H36 C32 0.960 . S
H37 C32 0.960 . S
H38 C32 0.959 . S
C39 N40 1.317 . S
C39 N41 1.348 . S
C39 C42 1.485 . S
N40 C39 1.317 . S
N40 N44 1.370 . S
N41 C39 1.348 . S
N41 C43 1.346 . S
C42 C39 1.485 . S
C42 H46 0.960 . S
C42 H47 0.961 . S
C42 H48 0.960 . S
C43 N41 1.346 . S
C43 N44 1.307 . S
C43 C45 1.486 . S
N44 N40 1.370 . S
N44 C43 1.307 . S
C45 C43 1.486 . S
C45 H49 0.960 . S
C45 H50 0.960 . S
C45 H51 0.959 . S
H46 C42 0.960 . S
H47 C42 0.961 . S
H48 C42 0.960 . S
H49 C45 0.960 . S
H50 C45 0.960 . S
H51 C45 0.959 . S
C52 N53 1.317 . S
C52 N54 1.348 . S
C52 C55 1.485 . S
N53 C52 1.317 . S
N53 N57 1.370 . S
N54 C52 1.348 . S
N54 C56 1.346 . S
C55 C52 1.485 . S
C55 H59 0.960 . S
C55 H60 0.961 . S
C55 H61 0.960 . S
C56 N54 1.346 . S
C56 N57 1.307 . S
C56 C58 1.486 . S
N57 N53 1.370 . S
N57 C56 1.307 . S
C58 C56 1.486 . S
C58 H62 0.960 . S
C58 H63 0.960 . S
C58 H64 0.959 . S
H59 C55 0.960 . S
H60 C55 0.961 . S
H61 C55 0.960 . S
H62 C58 0.960 . S
H63 C58 0.960 . S
H64 C58 0.959 . S
C65 N66 1.317 . S
C65 N67 1.348 . S
C65 C68 1.485 . S
N66 C65 1.317 . S
N66 N70 1.370 . S
N67 C65 1.348 . S
N67 C69 1.346 . S
C68 C65 1.485 . S
C68 H72 0.960 . S
C68 H73 0.961 . S
C68 H74 0.960 . S
C69 N67 1.346 . S
C69 N70 1.307 . S
C69 C71 1.486 . S
N70 N66 1.370 . S
N70 C69 1.307 . S
C71 C69 1.486 . S
C71 H75 0.960 . S
C71 H76 0.960 . S
C71 H77 0.959 . S
H72 C68 0.960 . S
H73 C68 0.961 . S
H74 C68 0.960 . S
H75 C71 0.960 . S
H76 C71 0.960 . S
H77 C71 0.959 . S
C78 N79 1.317 . S
C78 N80 1.348 . S
C78 C81 1.485 . S
N79 C78 1.317 . S
N79 N83 1.370 . S
N80 C78 1.348 . S
N80 C82 1.346 . S
C81 C78 1.485 . S
C81 H85 0.960 . S
C81 H86 0.961 . S
C81 H87 0.960 . S
C82 N80 1.346 . S
C82 N83 1.307 . S
C82 C84 1.486 . S
N83 N79 1.370 . S
N83 C82 1.307 . S
C84 C82 1.486 . S
C84 H88 0.960 . S
C84 H89 0.960 . S
C84 H90 0.959 . S
H85 C81 0.960 . S
H86 C81 0.961 . S
H87 C81 0.960 . S
H88 C84 0.960 . S
H89 C84 0.960 . S
H90 C84 0.959 . S
C91 N92 1.317 . S
C91 N93 1.348 . S
C91 C94 1.485 . S
N92 C91 1.317 . S
N92 N96 1.370 . S
N93 C91 1.348 . S
N93 C95 1.346 . S
C94 C91 1.485 . S
C94 H98 0.960 . S
C94 H99 0.961 . S
C94 H100 0.960 . S
C95 N93 1.346 . S
C95 N96 1.307 . S
C95 C97 1.486 . S
N96 N92 1.370 . S
N96 C95 1.307 . S
C97 C95 1.486 . S
C97 H101 0.960 . S
C97 H102 0.960 . S
C97 H103 0.959 . S
H98 C94 0.960 . S
H99 C94 0.961 . S
H100 C94 0.960 . S
H101 C97 0.960 . S
H102 C97 0.960 . S
H103 C97 0.959 . S
C104 C105 1.443 . S
C104 N108 1.376 . S
C104 C142 1.389 . S
C105 C104 1.443 . S
C105 C106 1.340 . S
C105 H145 0.951 . S
C106 C105 1.340 . S
C106 C107 1.439 . S
C106 H146 0.950 . S
C107 C106 1.439 . S
C107 N108 1.374 . S
C107 C141 1.395 . S
N108 C104 1.376 . S
N108 C107 1.374 . S
N108 Co109 2.008 . S
Co109 N108 2.008 . S
Co109 N110 1.995 . S
Co109 N115 2.008 . S
Co109 N120 1.995 . S
Co109 N125 2.282 . S
Co109 N131 2.282 . S
N110 Co109 1.995 . S
N110 C111 1.376 . S
N110 C114 1.383 . S
C111 N110 1.376 . S
C111 C112 1.446 . S
C111 C141 1.391 . S
C112 C111 1.446 . S
C112 C113 1.339 . S
C112 H147 0.949 . S
C113 C112 1.339 . S
C113 C114 1.439 . S
C113 H148 0.950 . S
C114 N110 1.383 . S
C114 C113 1.439 . S
C114 C143 1.392 . S
N115 Co109 2.008 . S
N115 C116 1.376 . S
N115 C119 1.374 . S
C116 N115 1.376 . S
C116 C117 1.443 . S
C116 C143 1.389 . S
C117 C116 1.443 . S
C117 C118 1.340 . S
C117 H149 0.951 . S
C118 C117 1.340 . S
C118 C119 1.439 . S
C118 H150 0.950 . S
C119 N115 1.374 . S
C119 C118 1.439 . S
C119 C144 1.395 . S
N120 Co109 1.995 . S
N120 C121 1.376 . S
N120 C124 1.383 . S
C121 N120 1.376 . S
C121 C122 1.446 . S
C121 C144 1.391 . S
C122 C121 1.446 . S
C122 C123 1.339 . S
C122 H151 0.949 . S
C123 C122 1.339 . S
C123 C124 1.439 . S
C123 H152 0.950 . S
C124 N120 1.383 . S
C124 C123 1.439 . S
C124 C142 1.392 . S
N125 Co109 2.282 . S
N125 C128 1.332 . S
N125 C130 1.332 . S
C126 C127 1.386 . S
C126 C129 1.388 . S
C127 C126 1.386 . S
C127 C128 1.382 . S
C127 H153 0.950 . S
C128 N125 1.332 . S
C128 C127 1.382 . S
C128 H139 0.952 . S
C129 C126 1.388 . S
C129 C130 1.382 . S
C129 H154 0.950 . S
C130 N125 1.332 . S
C130 C129 1.382 . S
C130 H140 0.948 . S
N131 Co109 2.282 . S
N131 C135 1.332 . S
N131 C136 1.332 . S
C132 C133 1.388 . S
C132 C136 1.382 . S
C132 H155 0.950 . S
C133 C132 1.388 . S
C133 C134 1.386 . S
C134 C133 1.386 . S
C134 C135 1.382 . S
C134 H156 0.950 . S
C135 N131 1.332 . S
C135 C134 1.382 . S
C135 H137 0.952 . S
C136 N131 1.332 . S
C136 C132 1.382 . S
C136 H138 0.948 . S
H137 C135 0.952 . S
H138 C136 0.948 . S
H139 C128 0.952 . S
H140 C130 0.948 . S
C141 C107 1.395 . S
C141 C111 1.391 . S
C142 C104 1.389 . S
C142 C124 1.392 . S
C143 C114 1.392 . S
C143 C116 1.389 . S
C144 C119 1.395 . S
C144 C121 1.391 . S
H145 C105 0.951 . S
H146 C106 0.950 . S
H147 C112 0.949 . S
H148 C113 0.950 . S
H149 C117 0.951 . S
H150 C118 0.950 . S
H151 C122 0.949 . S
H152 C123 0.950 . S
H153 C127 0.950 . S
H154 C129 0.950 . S
H155 C132 0.950 . S
H156 C134 0.950 . S
C157 C158 1.443 . S
C157 N161 1.376 . S
C157 C195 1.389 . S
C158 C157 1.443 . S
C158 C159 1.340 . S
C158 H198 0.951 . S
C159 C158 1.340 . S
C159 C160 1.439 . S
C159 H199 0.950 . S
C160 C159 1.439 . S
C160 N161 1.374 . S
C160 C194 1.395 1_455 S
N161 C157 1.376 . S
N161 C160 1.374 . S
N161 Co162 2.008 . S
Co162 N161 2.008 . S
Co162 N163 1.995 1_455 S
Co162 N168 2.008 1_455 S
Co162 N173 1.995 . S
Co162 N178 2.282 . S
Co162 N184 2.282 1_455 S
N163 Co162 1.995 1_655 S
N163 C164 1.376 . S
N163 C167 1.383 . S
C164 N163 1.376 . S
C164 C165 1.446 . S
C164 C194 1.391 . S
C165 C164 1.446 . S
C165 C166 1.339 . S
C165 H200 0.949 . S
C166 C165 1.339 . S
C166 C167 1.439 . S
C166 H201 0.950 . S
C167 N163 1.383 . S
C167 C166 1.439 . S
C167 C196 1.392 . S
N168 Co162 2.008 1_655 S
N168 C169 1.376 . S
N168 C172 1.374 . S
C169 N168 1.376 . S
C169 C170 1.443 . S
C169 C196 1.389 . S
C170 C169 1.443 . S
C170 C171 1.340 . S
C170 H202 0.951 . S
C171 C170 1.340 . S
C171 C172 1.439 . S
C171 H203 0.950 . S
C172 N168 1.374 . S
C172 C171 1.439 . S
C172 C197 1.395 1_655 S
N173 Co162 1.995 . S
N173 C174 1.376 . S
N173 C177 1.383 . S
C174 N173 1.376 . S
C174 C175 1.446 . S
C174 C197 1.391 . S
C175 C174 1.446 . S
C175 C176 1.339 . S
C175 H204 0.949 . S
C176 C175 1.339 . S
C176 C177 1.439 . S
C176 H205 0.950 . S
C177 N173 1.383 . S
C177 C176 1.439 . S
C177 C195 1.392 . S
N178 Co162 2.282 . S
N178 C181 1.332 . S
N178 C183 1.332 . S
C179 C180 1.386 . S
C179 C182 1.388 . S
C180 C179 1.386 . S
C180 C181 1.382 . S
C180 H206 0.950 . S
C181 N178 1.332 . S
C181 C180 1.382 . S
C181 H192 0.952 . S
C182 C179 1.388 . S
C182 C183 1.382 . S
C182 H207 0.950 . S
C183 N178 1.332 . S
C183 C182 1.382 . S
C183 H193 0.948 . S
N184 Co162 2.282 1_655 S
N184 C188 1.332 . S
N184 C189 1.332 . S
C185 C186 1.388 . S
C185 C189 1.382 . S
C185 H208 0.950 . S
C186 C185 1.388 . S
C186 C187 1.386 . S
C187 C186 1.386 . S
C187 C188 1.382 . S
C187 H209 0.950 . S
C188 N184 1.332 . S
C188 C187 1.382 . S
C188 H190 0.952 . S
C189 N184 1.332 . S
C189 C185 1.382 . S
C189 H191 0.948 . S
H190 C188 0.952 . S
H191 C189 0.948 . S
H192 C181 0.952 . S
H193 C183 0.948 . S
C194 C160 1.395 1_655 S
C194 C164 1.391 . S
C195 C157 1.389 . S
C195 C177 1.392 . S
C196 C167 1.392 . S
C196 C169 1.389 . S
C197 C172 1.395 1_455 S
C197 C174 1.391 . S
H198 C158 0.951 . S
H199 C159 0.950 . S
H200 C165 0.949 . S
H201 C166 0.950 . S
H202 C170 0.951 . S
H203 C171 0.950 . S
H204 C175 0.949 . S
H205 C176 0.950 . S
H206 C180 0.950 . S
H207 C182 0.950 . S
H208 C185 0.950 . S
H209 C187 0.950 . S
C210 C211 1.443 . S
C210 N214 1.376 1_565 S
C210 C248 1.389 . S
C211 C210 1.443 . S
C211 C212 1.366 . S
C211 H251 0.951 . S
C212 C211 1.366 . S
C212 C213 1.408 1_565 S
C212 H252 0.949 . S
C213 C212 1.408 1_545 S
C213 N214 1.374 . S
C213 C247 1.395 . S
N214 C210 1.376 1_545 S
N214 C213 1.374 . S
N214 Co215 2.008 . S
Co215 N214 2.008 . S
Co215 N216 1.995 . S
Co215 N221 2.008 . S
Co215 N226 1.995 . S
Co215 N231 2.282 . S
Co215 N237 2.282 . S
N216 Co215 1.995 . S
N216 C217 1.376 . S
N216 C220 1.383 . S
C217 N216 1.376 . S
C217 C218 1.446 . S
C217 C247 1.391 . S
C218 C217 1.446 . S
C218 C219 1.339 . S
C218 H253 0.949 . S
C219 C218 1.339 . S
C219 C220 1.439 . S
C219 H254 0.950 . S
C220 N216 1.383 . S
C220 C219 1.439 . S
C220 C249 1.392 . S
N221 Co215 2.008 . S
N221 C222 1.376 . S
N221 C225 1.374 . S
C222 N221 1.376 . S
C222 C223 1.443 . S
C222 C249 1.389 . S
C223 C222 1.443 . S
C223 C224 1.340 . S
C223 H255 0.951 . S
C224 C223 1.340 . S
C224 C225 1.439 . S
C224 H256 0.950 . S
C225 N221 1.374 . S
C225 C224 1.439 . S
C225 C250 1.395 . S
N226 Co215 1.995 . S
N226 C227 1.376 . S
N226 C230 1.383 1_545 S
C227 N226 1.376 . S
C227 C228 1.446 1_545 S
C227 C250 1.391 . S
C228 C227 1.446 1_565 S
C228 C229 1.339 . S
C228 H257 0.949 . S
C229 C228 1.339 . S
C229 C230 1.439 . S
C229 H258 0.950 . S
C230 N226 1.383 1_565 S
C230 C229 1.439 . S
C230 C248 1.392 . S
N231 Co215 2.282 . S
N231 C234 1.332 . S
N231 C236 1.332 . S
C232 C233 1.386 . S
C232 C235 1.388 . S
C233 C232 1.386 . S
C233 C234 1.382 . S
C233 H259 0.950 . S
C234 N231 1.332 . S
C234 C233 1.382 . S
C234 H245 0.952 . S
C235 C232 1.388 . S
C235 C236 1.382 . S
C235 H260 0.950 . S
C236 N231 1.332 . S
C236 C235 1.382 . S
C236 H246 0.948 . S
N237 Co215 2.282 . S
N237 C241 1.338 . S
N237 C242 1.332 1_545 S
C238 C239 1.388 . S
C238 C242 1.382 . S
C238 H261 0.950 . S
C239 C238 1.388 . S
C239 C240 1.386 . S
C240 C239 1.386 . S
C240 C241 1.362 1_565 S
C240 H262 0.950 . S
C241 N237 1.338 . S
C241 C240 1.362 1_545 S
C241 H243 0.966 . S
C242 N237 1.332 1_565 S
C242 C238 1.382 . S
C242 H244 0.948 . S
H243 C241 0.966 . S
H244 C242 0.948 . S
H245 C234 0.952 . S
H246 C236 0.948 . S
C247 C213 1.395 . S
C247 C217 1.391 . S
C248 C210 1.389 . S
C248 C230 1.392 . S
C249 C220 1.392 . S
C249 C222 1.389 . S
C250 C225 1.395 . S
C250 C227 1.391 . S
H251 C211 0.951 . S
H252 C212 0.949 . S
H253 C218 0.949 . S
H254 C219 0.950 . S
H255 C223 0.951 . S
H256 C224 0.950 . S
H257 C228 0.949 . S
H258 C229 0.950 . S
H259 C233 0.950 . S
H260 C235 0.950 . S
H261 C238 0.950 . S
H262 C240 0.950 . S
C263 C264 1.443 . S
C263 N267 1.376 . S
C263 C301 1.389 . S
C264 C263 1.443 . S
C264 C265 1.340 . S
C264 H304 0.951 . S
C265 C264 1.340 . S
C265 C266 1.439 . S
C265 H305 0.950 . S
C266 C265 1.439 . S
C266 N267 1.374 . S
C266 C300 1.395 . S
N267 C263 1.376 . S
N267 C266 1.374 . S
N267 Co268 2.008 . S
Co268 N267 2.008 . S
Co268 N269 1.995 . S
Co268 N274 2.008 . S
Co268 N279 1.995 . S
Co268 N284 2.282 . S
Co268 N290 2.282 . S
N269 Co268 1.995 . S
N269 C270 1.376 . S
N269 C273 1.383 1_554 S
C270 N269 1.376 . S
C270 C271 1.446 1_554 S
C270 C300 1.391 . S
C271 C270 1.446 1_556 S
C271 C272 1.339 . S
C271 H306 0.949 . S
C272 C271 1.339 . S
C272 C273 1.439 . S
C272 H307 0.950 . S
C273 N269 1.383 1_556 S
C273 C272 1.439 . S
C273 C302 1.392 . S
N274 Co268 2.008 . S
N274 C275 1.376 . S
N274 C278 1.374 . S
C275 N274 1.376 . S
C275 C276 1.443 1_554 S
C275 C302 1.389 1_554 S
C276 C275 1.443 1_556 S
C276 C277 1.340 1_556 S
C276 H308 0.951 . S
C277 C276 1.340 1_554 S
C277 C278 1.439 . S
C277 H309 0.950 . S
C278 N274 1.374 . S
C278 C277 1.439 . S
C278 C303 1.395 . S
N279 Co268 1.995 . S
N279 C280 1.376 . S
N279 C283 1.383 . S
C280 N279 1.376 . S
C280 C281 1.446 . S
C280 C303 1.391 . S
C281 C280 1.446 . S
C281 C282 1.339 . S
C281 H310 0.949 . S
C282 C281 1.339 . S
C282 C283 1.439 . S
C282 H311 0.950 . S
C283 N279 1.383 . S
C283 C282 1.439 . S
C283 C301 1.392 . S
N284 Co268 2.282 . S
N284 C287 1.332 . S
N284 C289 1.332 1_554 S
C285 C286 1.386 . S
C285 C288 1.388 . S
C286 C285 1.386 . S
C286 C287 1.382 1_556 S
C286 H312 0.950 . S
C287 N284 1.332 . S
C287 C286 1.382 1_554 S
C287 H298 0.952 . S
C288 C285 1.388 . S
C288 C289 1.382 . S
C288 H313 0.950 . S
C289 N284 1.332 1_556 S
C289 C288 1.382 . S
C289 H299 0.948 . S
N290 Co268 2.282 . S
N290 C294 1.332 . S
N290 C295 1.332 . S
C291 C292 1.388 . S
C291 C295 1.382 . S
C291 H314 0.950 . S
C292 C291 1.388 . S
C292 C293 1.386 . S
C293 C292 1.386 . S
C293 C294 1.382 . S
C293 H315 0.950 . S
C294 N290 1.332 . S
C294 C293 1.382 . S
C294 H296 0.952 . S
C295 N290 1.332 . S
C295 C291 1.382 . S
C295 H297 0.948 . S
H296 C294 0.952 . S
H297 C295 0.948 . S
H298 C287 0.952 . S
H299 C289 0.948 . S
C300 C266 1.395 . S
C300 C270 1.391 . S
C301 C263 1.389 . S
C301 C283 1.392 . S
C302 C273 1.392 . S
C302 C275 1.389 1_556 S
C303 C278 1.395 . S
C303 C280 1.391 . S
H304 C264 0.951 . S
H305 C265 0.950 . S
H306 C271 0.949 . S
H307 C272 0.950 . S
H308 C276 0.951 . S
H309 C277 0.950 . S
H310 C281 0.949 . S
H311 C282 0.950 . S
H312 C286 0.950 . S
H313 C288 0.950 . S
H314 C291 0.950 . S
H315 C293 0.950 . S
C316 C317 1.443 . S
C316 N320 1.376 . S
C316 C354 1.389 1_545 S
C317 C316 1.443 . S
C317 C318 1.340 1_655 S
C317 H357 0.951 1_545 S
C318 C317 1.340 1_455 S
C318 C319 1.439 1_455 S
C318 H358 0.950 . S
C319 C318 1.439 1_655 S
C319 N320 1.374 . S
C319 C353 1.395 1_655 S
N320 C316 1.376 . S
N320 C319 1.374 . S
N320 Co321 2.008 . S
Co321 N320 2.008 . S
Co321 N322 1.995 . S
Co321 N327 2.008 . S
Co321 N332 1.995 . S
Co321 N337 2.282 . S
Co321 N343 2.282 . S
N322 Co321 1.995 . S
N322 C323 1.376 . S
N322 C326 1.383 . S
C323 N322 1.376 . S
C323 C324 1.446 1_655 S
C323 C353 1.391 1_655 S
C324 C323 1.446 1_455 S
C324 C325 1.339 1_455 S
C324 H359 0.949 . S
C325 C324 1.339 1_655 S
C325 C326 1.439 . S
C325 H360 0.950 . S
C326 N322 1.383 . S
C326 C325 1.439 . S
C326 C355 1.392 . S
N327 Co321 2.008 . S
N327 C328 1.376 . S
N327 C331 1.374 . S
C328 N327 1.376 . S
C328 C329 1.443 . S
C328 C355 1.389 . S
C329 C328 1.443 . S
C329 C330 1.340 . S
C329 H361 0.951 . S
C330 C329 1.340 . S
C330 C331 1.439 . S
C330 H362 0.950 . S
C331 N327 1.374 . S
C331 C330 1.439 . S
C331 C356 1.395 . S
N332 Co321 1.995 . S
N332 C333 1.376 . S
N332 C336 1.383 . S
C333 N332 1.376 . S
C333 C334 1.457 . S
C333 C356 1.391 . S
C334 C333 1.457 . S
C334 C335 1.332 1_545 S
C334 H363 0.947 1_545 S
C335 C334 1.332 1_565 S
C335 C336 1.439 1_565 S
C335 H364 0.950 . S
C336 N332 1.383 . S
C336 C335 1.439 1_545 S
C336 C354 1.392 1_545 S
N337 Co321 2.282 . S
N337 C340 1.332 . S
N337 C342 1.332 . S
C338 C339 1.386 . S
C338 C341 1.388 . S
C339 C338 1.386 . S
C339 C340 1.382 . S
C339 H365 0.950 . S
C340 N337 1.332 . S
C340 C339 1.382 . S
C340 H351 0.952 . S
C341 C338 1.388 . S
C341 C342 1.382 . S
C341 H366 0.950 . S
C342 N337 1.332 . S
C342 C341 1.382 . S
C342 H352 0.948 . S
N343 Co321 2.282 . S
N343 C347 1.332 . S
N343 C348 1.332 . S
C344 C345 1.388 . S
C344 C348 1.382 1_565 S
C344 H367 0.950 . S
C345 C344 1.388 . S
C345 C346 1.386 1_565 S
C346 C345 1.386 1_545 S
C346 C347 1.382 . S
C346 H368 0.950 . S
C347 N343 1.332 . S
C347 C346 1.382 . S
C347 H349 0.952 . S
C348 N343 1.332 . S
C348 C344 1.382 1_545 S
C348 H350 0.948 . S
H349 C347 0.952 . S
H350 C348 0.948 . S
H351 C340 0.952 . S
H352 C342 0.948 . S
C353 C319 1.395 1_455 S
C353 C323 1.391 1_455 S
C354 C316 1.389 1_565 S
C354 C336 1.392 1_565 S
C355 C326 1.392 . S
C355 C328 1.389 . S
C356 C331 1.395 . S
C356 C333 1.391 . S
H357 C317 0.951 1_565 S
H358 C318 0.950 . S
H359 C324 0.949 . S
H360 C325 0.950 . S
H361 C329 0.951 . S
H362 C330 0.950 . S
H363 C334 0.947 1_565 S
H364 C335 0.950 . S
H365 C339 0.950 . S
H366 C341 0.950 . S
H367 C344 0.950 . S
H368 C346 0.950 . S
C369 C370 1.443 . S
C369 N373 1.376 . S
C369 C407 1.389 . S
C370 C369 1.443 . S
C370 C371 1.340 . S
C370 H410 0.951 . S
C371 C370 1.340 . S
C371 C372 1.439 . S
C371 H411 0.950 . S
C372 C371 1.439 . S
C372 N373 1.374 . S
C372 C406 1.395 1_554 S
N373 C369 1.376 . S
N373 C372 1.374 . S
N373 Co374 2.008 . S
Co374 N373 2.008 . S
Co374 N375 1.995 1_554 S
Co374 N380 2.008 1_554 S
Co374 N385 1.995 . S
Co374 N390 2.282 1_554 S
Co374 N396 2.282 . S
N375 Co374 1.995 1_556 S
N375 C376 1.376 . S
N375 C379 1.383 . S
C376 N375 1.376 . S
C376 C377 1.446 . S
C376 C406 1.391 . S
C377 C376 1.446 . S
C377 C378 1.339 . S
C377 H412 0.949 . S
C378 C377 1.339 . S
C378 C379 1.439 . S
C378 H413 0.950 . S
C379 N375 1.383 . S
C379 C378 1.439 . S
C379 C408 1.392 . S
N380 Co374 2.008 1_556 S
N380 C381 1.376 . S
N380 C384 1.374 1_556 S
C381 N380 1.376 . S
C381 C382 1.443 . S
C381 C408 1.389 . S
C382 C381 1.443 . S
C382 C383 1.340 . S
C382 H414 0.951 . S
C383 C382 1.340 . S
C383 C384 1.442 1_556 S
C383 H415 0.950 . S
C384 N380 1.374 1_554 S
C384 C383 1.442 1_554 S
C384 C409 1.392 . S
N385 Co374 1.995 . S
N385 C386 1.376 . S
N385 C389 1.383 . S
C386 N385 1.376 . S
C386 C387 1.446 . S
C386 C409 1.391 . S
C387 C386 1.446 . S
C387 C388 1.339 . S
C387 H416 0.949 . S
C388 C387 1.339 . S
C388 C389 1.439 . S
C388 H417 0.950 . S
C389 N385 1.383 . S
C389 C388 1.439 . S
C389 C407 1.392 . S
N390 Co374 2.282 1_556 S
N390 C393 1.332 . S
N390 C395 1.332 . S
C391 C392 1.386 . S
C391 C394 1.388 . S
C392 C391 1.386 . S
C392 C393 1.382 . S
C392 H418 0.950 . S
C393 N390 1.332 . S
C393 C392 1.382 . S
C393 H404 0.952 . S
C394 C391 1.388 . S
C394 C395 1.382 . S
C394 H419 0.950 . S
C395 N390 1.332 . S
C395 C394 1.382 . S
C395 H405 0.948 . S
N396 Co374 2.282 . S
N396 C400 1.332 . S
N396 C401 1.332 . S
C397 C398 1.388 . S
C397 C401 1.382 . S
C397 H420 0.950 . S
C398 C397 1.388 . S
C398 C399 1.386 . S
C399 C398 1.386 . S
C399 C400 1.382 . S
C399 H421 0.950 . S
C400 N396 1.332 . S
C400 C399 1.382 . S
C400 H402 0.952 . S
C401 N396 1.332 . S
C401 C397 1.382 . S
C401 H403 0.948 . S
H402 C400 0.952 . S
H403 C401 0.948 . S
H404 C393 0.952 . S
H405 C395 0.948 . S
C406 C372 1.395 1_556 S
C406 C376 1.391 . S
C407 C369 1.389 . S
C407 C389 1.392 . S
C408 C379 1.392 . S
C408 C381 1.389 . S
C409 C384 1.392 . S
C409 C386 1.391 . S
H410 C370 0.951 . S
H411 C371 0.950 . S
H412 C377 0.949 . S
H413 C378 0.950 . S
H414 C382 0.951 . S
H415 C383 0.950 . S
H416 C387 0.949 . S
H417 C388 0.950 . S
H418 C392 0.950 . S
H419 C394 0.950 . S
H420 C397 0.950 . S
H421 C399 0.950 . S
H422 C430 0.929 . S
H423 C432 0.930 . S
H424 C434 0.930 . S
H425 C437 0.929 . S
H426 C440 0.930 . S
H427 C442 0.960 . S
H428 C442 0.960 . S
H429 C442 0.960 . S
C430 H422 0.929 . S
C430 C431 1.377 . S
C430 C432 1.384 . S
C431 C430 1.377 . S
C431 C437 1.390 . S
C432 H423 0.930 . S
C432 C430 1.384 . S
C432 C433 1.372 . S
C433 C432 1.372 . S
C433 C434 1.400 . S
C433 C438 1.490 . S
C434 H424 0.930 . S
C434 C433 1.400 . S
C434 C437 1.386 . S
H435 C451 0.930 . S
H436 C452 0.931 . S
C437 H425 0.929 . S
C437 C431 1.390 . S
C437 C434 1.386 . S
C438 C433 1.490 . S
C438 C440 1.395 . S
C438 C441 1.403 . S
H439 C445 0.930 . S
C440 H426 0.930 . S
C440 C438 1.395 . S
C440 C443 1.403 . S
C441 C438 1.403 . S
C441 C442 1.524 . S
C441 C445 1.400 . S
C442 H427 0.960 . S
C442 H428 0.960 . S
C442 H429 0.960 . S
C442 C441 1.524 . S
C443 C440 1.403 . S
C443 C444 1.392 . S
C443 C447 1.495 . S
C444 C443 1.392 . S
C444 C445 1.385 . S
C444 C446 1.478 . S
C445 H439 0.930 . S
C445 C441 1.400 . S
C445 C444 1.385 . S
C446 C444 1.478 . S
C446 C448 1.381 . S
C446 C452 1.383 . S
C447 C443 1.495 . S
C447 H453 0.959 . S
C447 H454 0.961 . S
C447 H455 0.960 . S
C448 C446 1.381 . S
C448 C449 1.394 . S
C448 H456 0.930 . S
C449 C448 1.394 . S
C449 C450 1.383 . S
C449 H457 0.929 . S
C450 C449 1.383 . S
C450 C451 1.377 . S
C451 H435 0.930 . S
C451 C450 1.377 . S
C451 C452 1.379 . S
C452 H436 0.931 . S
C452 C446 1.383 . S
C452 C451 1.379 . S
H453 C447 0.959 . S
H454 C447 0.961 . S
H455 C447 0.960 . S
H456 C448 0.930 . S
H457 C449 0.929 . S
H458 C466 0.929 . S
H459 C468 0.930 . S
H460 C470 0.930 . S
H461 C473 0.929 . S
H462 C476 0.930 . S
H463 C478 0.960 . S
H464 C478 0.960 . S
H465 C478 0.960 . S
C466 H458 0.929 . S
C466 C467 1.377 . S
C466 C468 1.384 . S
C467 C466 1.377 . S
C467 C473 1.390 . S
C468 H459 0.930 . S
C468 C466 1.384 . S
C468 C469 1.372 . S
C469 C468 1.372 . S
C469 C470 1.400 . S
C469 C474 1.490 . S
C470 H460 0.930 . S
C470 C469 1.400 . S
C470 C473 1.386 . S
H471 C487 0.930 . S
H472 C488 0.931 . S
C473 H461 0.929 . S
C473 C467 1.390 . S
C473 C470 1.386 . S
C474 C469 1.490 . S
C474 C476 1.395 . S
C474 C477 1.403 . S
H475 C481 0.930 . S
C476 H462 0.930 . S
C476 C474 1.395 . S
C476 C479 1.403 . S
C477 C474 1.403 . S
C477 C478 1.524 . S
C477 C481 1.400 . S
C478 H463 0.960 . S
C478 H464 0.960 . S
C478 H465 0.960 . S
C478 C477 1.524 . S
C479 C476 1.403 . S
C479 C480 1.392 . S
C479 C483 1.495 . S
C480 C479 1.392 . S
C480 C481 1.385 . S
C480 C482 1.478 . S
C481 H475 0.930 . S
C481 C477 1.400 . S
C481 C480 1.385 . S
C482 C480 1.478 . S
C482 C484 1.381 . S
C482 C488 1.383 . S
C483 C479 1.495 . S
C483 H489 0.959 . S
C483 H490 0.961 . S
C483 H491 0.960 . S
C484 C482 1.381 . S
C484 C485 1.394 . S
C484 H492 0.930 . S
C485 C484 1.394 . S
C485 C486 1.383 . S
C485 H493 0.929 . S
C486 C485 1.383 . S
C486 C487 1.377 . S
C487 H471 0.930 . S
C487 C486 1.377 . S
C487 C488 1.379 . S
C488 H472 0.931 . S
C488 C482 1.383 . S
C488 C487 1.379 . S
H489 C483 0.959 . S
H490 C483 0.961 . S
H491 C483 0.960 . S
H492 C484 0.930 . S
H493 C485 0.929 . S
H494 C502 0.929 . S
H495 C504 0.930 . S
H496 C506 0.930 . S
H497 C509 0.929 . S
H498 C512 0.930 . S
H499 C514 0.960 . S
H500 C514 0.960 . S
H501 C514 0.960 . S
C502 H494 0.929 . S
C502 C503 1.377 . S
C502 C504 1.384 . S
C503 C502 1.377 . S
C503 C509 1.390 . S
C504 H495 0.930 . S
C504 C502 1.384 . S
C504 C505 1.372 . S
C505 C504 1.372 . S
C505 C506 1.400 . S
C505 C510 1.490 . S
C506 H496 0.930 . S
C506 C505 1.400 . S
C506 C509 1.386 . S
H507 C523 0.930 . S
H508 C524 0.931 . S
C509 H497 0.929 . S
C509 C503 1.390 . S
C509 C506 1.386 . S
C510 C505 1.490 . S
C510 C512 1.395 . S
C510 C513 1.403 . S
H511 C517 0.930 . S
C512 H498 0.930 . S
C512 C510 1.395 . S
C512 C515 1.403 . S
C513 C510 1.403 . S
C513 C514 1.524 . S
C513 C517 1.400 . S
C514 H499 0.960 . S
C514 H500 0.960 . S
C514 H501 0.960 . S
C514 C513 1.524 . S
C515 C512 1.403 . S
C515 C516 1.392 . S
C515 C519 1.495 1_655 S
C516 C515 1.392 . S
C516 C517 1.385 . S
C516 C518 1.478 . S
C517 H511 0.930 . S
C517 C513 1.400 . S
C517 C516 1.385 . S
C518 C516 1.478 . S
C518 C520 1.381 1_655 S
C518 C524 1.383 . S
C519 C515 1.495 1_455 S
C519 H525 0.959 . S
C519 H526 0.961 . S
C519 H527 0.960 . S
C520 C518 1.381 1_455 S
C520 C521 1.394 . S
C520 H528 0.930 . S
C521 C520 1.394 . S
C521 C522 1.383 . S
C521 H529 0.929 . S
C522 C521 1.383 . S
C522 C523 1.377 . S
C523 H507 0.930 . S
C523 C522 1.377 . S
C523 C524 1.379 1_455 S
C524 H508 0.931 . S
C524 C518 1.383 . S
C524 C523 1.379 1_655 S
H525 C519 0.959 . S
H526 C519 0.961 . S
H527 C519 0.960 . S
H528 C520 0.930 . S
H529 C521 0.929 . S
H530 C538 0.929 . S
H531 C540 0.930 . S
H532 C542 0.930 . S
H533 C545 0.929 . S
H534 C548 0.930 . S
H535 C550 0.960 . S
H536 C550 0.960 . S
H537 C550 0.960 . S
C538 H530 0.929 . S
C538 C539 1.377 . S
C538 C540 1.384 . S
C539 C538 1.377 . S
C539 C545 1.390 . S
C540 H531 0.930 . S
C540 C538 1.384 . S
C540 C541 1.372 . S
C541 C540 1.372 . S
C541 C542 1.400 . S
C541 C546 1.490 . S
C542 H532 0.930 . S
C542 C541 1.400 . S
C542 C545 1.386 . S
H543 C559 0.930 . S
H544 C560 0.931 . S
C545 H533 0.929 . S
C545 C539 1.390 . S
C545 C542 1.386 . S
C546 C541 1.490 . S
C546 C548 1.395 . S
C546 C549 1.403 . S
H547 C553 0.930 . S
C548 H534 0.930 . S
C548 C546 1.395 . S
C548 C551 1.403 . S
C549 C546 1.403 . S
C549 C550 1.524 . S
C549 C553 1.400 . S
C550 H535 0.960 . S
C550 H536 0.960 . S
C550 H537 0.960 . S
C550 C549 1.524 . S
C551 C548 1.403 . S
C551 C552 1.392 . S
C551 C555 1.495 . S
C552 C551 1.392 . S
C552 C553 1.385 . S
C552 C554 1.478 . S
C553 H547 0.930 . S
C553 C549 1.400 . S
C553 C552 1.385 . S
C554 C552 1.478 . S
C554 C556 1.381 . S
C554 C560 1.383 . S
C555 C551 1.495 . S
C555 H561 0.959 . S
C555 H562 0.961 . S
C555 H563 0.960 . S
C556 C554 1.381 . S
C556 C557 1.394 . S
C556 H564 0.930 . S
C557 C556 1.394 . S
C557 C558 1.383 . S
C557 H565 0.929 . S
C558 C557 1.383 . S
C558 C559 1.377 . S
C559 H543 0.930 . S
C559 C558 1.377 . S
C559 C560 1.379 . S
C560 H544 0.931 . S
C560 C554 1.383 . S
C560 C559 1.379 . S
H561 C555 0.959 . S
H562 C555 0.961 . S
H563 C555 0.960 . S
H564 C556 0.930 . S
H565 C557 0.929 . S
H566 C574 0.929 . S
H567 C576 0.930 . S
H568 C578 0.930 . S
H569 C581 0.929 . S
H570 C584 0.930 . S
H571 C586 0.960 . S
H572 C586 0.960 . S
H573 C586 0.960 . S
C574 H566 0.929 . S
C574 C575 1.377 . S
C574 C576 1.384 . S
C575 C574 1.377 . S
C575 C581 1.390 . S
C576 H567 0.930 . S
C576 C574 1.384 . S
C576 C577 1.372 . S
C577 C576 1.372 . S
C577 C578 1.400 . S
C577 C582 1.490 . S
C578 H568 0.930 . S
C578 C577 1.400 . S
C578 C581 1.386 . S
H579 C595 0.930 . S
H580 C596 0.931 . S
C581 H569 0.929 . S
C581 C575 1.390 . S
C581 C578 1.386 . S
C582 C577 1.490 . S
C582 C584 1.395 . S
C582 C585 1.403 . S
H583 C589 0.930 . S
C584 H570 0.930 . S
C584 C582 1.395 . S
C584 C587 1.403 . S
C585 C582 1.403 . S
C585 C586 1.524 . S
C585 C589 1.400 . S
C586 H571 0.960 . S
C586 H572 0.960 . S
C586 H573 0.960 . S
C586 C585 1.524 . S
C587 C584 1.403 . S
C587 C588 1.392 . S
C587 C591 1.495 . S
C588 C587 1.392 . S
C588 C589 1.385 . S
C588 C590 1.478 . S
C589 H583 0.930 . S
C589 C585 1.400 . S
C589 C588 1.385 . S
C590 C588 1.478 . S
C590 C592 1.381 . S
C590 C596 1.383 . S
C591 C587 1.495 . S
C591 H597 0.959 . S
C591 H598 0.961 . S
C591 H599 0.960 . S
C592 C590 1.381 . S
C592 C593 1.394 . S
C592 H600 0.930 . S
C593 C592 1.394 . S
C593 C594 1.383 . S
C593 H601 0.929 . S
C594 C593 1.383 . S
C594 C595 1.377 . S
C595 H579 0.930 . S
C595 C594 1.377 . S
C595 C596 1.379 . S
C596 H580 0.931 . S
C596 C590 1.383 . S
C596 C595 1.379 . S
H597 C591 0.959 . S
H598 C591 0.961 . S
H599 C591 0.960 . S
H600 C592 0.930 . S
H601 C593 0.929 . S
H602 C610 0.929 . S
H603 C612 0.930 . S
H604 C614 0.930 . S
H605 C617 0.929 . S
H606 C620 0.930 . S
H607 C622 0.960 . S
H608 C622 0.960 . S
H609 C622 0.960 . S
C610 H602 0.929 . S
C610 C611 1.377 . S
C610 C612 1.384 . S
C611 C610 1.377 . S
C611 C617 1.390 . S
C612 H603 0.930 . S
C612 C610 1.384 . S
C612 C613 1.372 . S
C613 C612 1.372 . S
C613 C614 1.400 . S
C613 C618 1.490 . S
C614 H604 0.930 . S
C614 C613 1.400 . S
C614 C617 1.386 . S
H615 C631 0.930 . S
H616 C632 0.931 . S
C617 H605 0.929 . S
C617 C611 1.390 . S
C617 C614 1.386 . S
C618 C613 1.490 . S
C618 C620 1.395 . S
C618 C621 1.403 . S
H619 C625 0.930 . S
C620 H606 0.930 . S
C620 C618 1.395 . S
C620 C623 1.403 . S
C621 C618 1.403 . S
C621 C622 1.524 . S
C621 C625 1.400 . S
C622 H607 0.960 . S
C622 H608 0.960 . S
C622 H609 0.960 . S
C622 C621 1.524 . S
C623 C620 1.403 . S
C623 C624 1.392 . S
C623 C627 1.495 . S
C624 C623 1.392 . S
C624 C625 1.385 . S
C624 C626 1.478 . S
C625 H619 0.930 . S
C625 C621 1.400 . S
C625 C624 1.385 . S
C626 C624 1.478 . S
C626 C628 1.381 . S
C626 C632 1.383 . S
C627 C623 1.495 . S
C627 H633 0.959 . S
C627 H634 0.961 . S
C627 H635 0.960 . S
C628 C626 1.381 . S
C628 C629 1.394 . S
C628 H636 0.930 . S
C629 C628 1.394 . S
C629 C630 1.383 . S
C629 H637 0.929 . S
C630 C629 1.383 . S
C630 C631 1.377 . S
C631 H615 0.930 . S
C631 C630 1.377 . S
C631 C632 1.379 . S
C632 H616 0.931 . S
C632 C626 1.383 . S
C632 C631 1.379 . S
H633 C627 0.959 . S
H634 C627 0.961 . S
H635 C627 0.960 . S
H636 C628 0.930 . S
H637 C629 0.929 . S
H638 C646 0.929 . S
H639 C648 0.930 . S
H640 C650 0.930 . S
H641 C653 0.929 . S
H642 C656 0.930 . S
H643 C658 0.960 . S
H644 C658 0.960 . S
H645 C658 0.960 . S
C646 H638 0.929 . S
C646 C647 1.377 . S
C646 C648 1.384 . S
C647 C646 1.377 . S
C647 C653 1.390 . S
C648 H639 0.930 . S
C648 C646 1.384 . S
C648 C649 1.372 . S
C649 C648 1.372 . S
C649 C650 1.400 . S
C649 C654 1.490 . S
C650 H640 0.930 . S
C650 C649 1.400 . S
C650 C653 1.386 . S
H651 C667 0.930 . S
H652 C668 0.931 . S
C653 H641 0.929 . S
C653 C647 1.390 . S
C653 C650 1.386 . S
C654 C649 1.490 . S
C654 C656 1.395 . S
C654 C657 1.403 . S
H655 C661 0.930 . S
C656 H642 0.930 . S
C656 C654 1.395 . S
C656 C659 1.403 . S
C657 C654 1.403 . S
C657 C658 1.524 . S
C657 C661 1.400 . S
C658 H643 0.960 . S
C658 H644 0.960 . S
C658 H645 0.960 . S
C658 C657 1.524 . S
C659 C656 1.403 . S
C659 C660 1.392 . S
C659 C663 1.495 . S
C660 C659 1.392 . S
C660 C661 1.385 . S
C660 C662 1.478 . S
C661 H655 0.930 . S
C661 C657 1.400 . S
C661 C660 1.385 . S
C662 C660 1.478 . S
C662 C664 1.381 . S
C662 C668 1.383 . S
C663 C659 1.495 . S
C663 H669 0.959 . S
C663 H670 0.961 . S
C663 H671 0.960 . S
C664 C662 1.381 . S
C664 C665 1.394 . S
C664 H672 0.930 . S
C665 C664 1.394 . S
C665 C666 1.383 . S
C665 H673 0.929 . S
C666 C665 1.383 . S
C666 C667 1.377 . S
C667 H651 0.930 . S
C667 C666 1.377 . S
C667 C668 1.379 . S
C668 H652 0.931 . S
C668 C662 1.383 . S
C668 C667 1.379 . S
H669 C663 0.959 . S
H670 C663 0.961 . S
H671 C663 0.960 . S
H672 C664 0.930 . S
H673 C665 0.929 . S
H674 C682 0.929 . S
H675 C684 0.930 . S
H676 C686 0.930 . S
H677 C689 0.929 . S
H678 C692 0.930 . S
H679 C694 0.960 . S
H680 C694 0.960 . S
H681 C694 0.960 . S
C682 H674 0.929 . S
C682 C683 1.377 . S
C682 C684 1.384 . S
C683 C682 1.377 . S
C683 C689 1.390 . S
C684 H675 0.930 . S
C684 C682 1.384 . S
C684 C685 1.372 . S
C685 C684 1.372 . S
C685 C686 1.400 . S
C685 C690 1.490 . S
C686 H676 0.930 . S
C686 C685 1.400 . S
C686 C689 1.386 . S
H687 C703 0.930 . S
H688 C704 0.931 . S
C689 H677 0.929 . S
C689 C683 1.390 . S
C689 C686 1.386 . S
C690 C685 1.490 . S
C690 C692 1.395 . S
C690 C693 1.403 . S
H691 C697 0.930 . S
C692 H678 0.930 . S
C692 C690 1.395 . S
C692 C695 1.403 . S
C693 C690 1.403 . S
C693 C694 1.524 . S
C693 C697 1.400 . S
C694 H679 0.960 . S
C694 H680 0.960 . S
C694 H681 0.960 . S
C694 C693 1.524 . S
C695 C692 1.403 . S
C695 C696 1.392 . S
C695 C699 1.495 . S
C696 C695 1.392 . S
C696 C697 1.385 . S
C696 C698 1.478 . S
C697 H691 0.930 . S
C697 C693 1.400 . S
C697 C696 1.385 . S
C698 C696 1.478 . S
C698 C700 1.381 . S
C698 C704 1.383 . S
C699 C695 1.495 . S
C699 H705 0.959 . S
C699 H706 0.961 . S
C699 H707 0.960 . S
C700 C698 1.381 . S
C700 C701 1.394 . S
C700 H708 0.930 . S
C701 C700 1.394 . S
C701 C702 1.383 . S
C701 H709 0.929 . S
C702 C701 1.383 . S
C702 C703 1.377 . S
C703 H687 0.930 . S
C703 C702 1.377 . S
C703 C704 1.379 . S
C704 H688 0.931 . S
C704 C698 1.383 . S
C704 C703 1.379 . S
H705 C699 0.959 . S
H706 C699 0.961 . S
H707 C699 0.960 . S
H708 C700 0.930 . S
H709 C701 0.929 . S
H710 C718 0.929 . S
H711 C720 0.930 . S
H712 C722 0.930 . S
H713 C725 0.929 . S
H714 C728 0.930 . S
H715 C730 0.960 . S
H716 C730 0.960 . S
H717 C730 0.960 . S
C718 H710 0.929 . S
C718 C719 1.377 . S
C718 C720 1.384 . S
C719 C718 1.377 . S
C719 C725 1.390 . S
C720 H711 0.930 . S
C720 C718 1.384 . S
C720 C721 1.372 . S
C721 C720 1.372 . S
C721 C722 1.400 . S
C721 C726 1.490 . S
C722 H712 0.930 . S
C722 C721 1.400 . S
C722 C725 1.386 . S
H723 C739 0.930 . S
H724 C740 0.931 . S
C725 H713 0.929 . S
C725 C719 1.390 . S
C725 C722 1.386 . S
C726 C721 1.490 . S
C726 C728 1.395 . S
C726 C729 1.403 . S
H727 C733 0.930 . S
C728 H714 0.930 . S
C728 C726 1.395 . S
C728 C731 1.403 . S
C729 C726 1.403 . S
C729 C730 1.524 . S
C729 C733 1.400 . S
C730 H715 0.960 . S
C730 H716 0.960 . S
C730 H717 0.960 . S
C730 C729 1.524 . S
C731 C728 1.403 . S
C731 C732 1.392 . S
C731 C735 1.495 . S
C732 C731 1.392 . S
C732 C733 1.385 . S
C732 C734 1.478 . S
C733 H727 0.930 . S
C733 C729 1.400 . S
C733 C732 1.385 . S
C734 C732 1.478 . S
C734 C736 1.381 . S
C734 C740 1.383 . S
C735 C731 1.495 . S
C735 H741 0.959 . S
C735 H742 0.961 . S
C735 H743 0.960 . S
C736 C734 1.381 . S
C736 C737 1.394 . S
C736 H744 0.930 . S
C737 C736 1.394 . S
C737 C738 1.383 . S
C737 H745 0.929 . S
C738 C737 1.383 . S
C738 C739 1.377 . S
C739 H723 0.930 . S
C739 C738 1.377 . S
C739 C740 1.379 . S
C740 H724 0.931 . S
C740 C734 1.383 . S
C740 C739 1.379 . S
H741 C735 0.959 . S
H742 C735 0.961 . S
H743 C735 0.960 . S
H744 C736 0.930 . S
H745 C737 0.929 . S
H746 C754 0.929 . S
H747 C756 0.930 . S
H748 C758 0.930 . S
H749 C761 0.929 . S
H750 C764 0.930 . S
H751 C766 0.960 . S
H752 C766 0.960 . S
H753 C766 0.960 . S
C754 H746 0.929 . S
C754 C755 1.377 . S
C754 C756 1.384 . S
C755 C754 1.377 . S
C755 C761 1.390 . S
C756 H747 0.930 . S
C756 C754 1.384 . S
C756 C757 1.372 . S
C757 C756 1.372 . S
C757 C758 1.400 . S
C757 C762 1.490 . S
C758 H748 0.930 . S
C758 C757 1.400 . S
C758 C761 1.386 . S
H759 C775 0.930 . S
H760 C776 0.931 . S
C761 H749 0.929 . S
C761 C755 1.390 . S
C761 C758 1.386 . S
C762 C757 1.490 . S
C762 C764 1.395 . S
C762 C765 1.403 . S
H763 C769 0.930 . S
C764 H750 0.930 . S
C764 C762 1.395 . S
C764 C767 1.403 . S
C765 C762 1.403 . S
C765 C766 1.524 . S
C765 C769 1.400 . S
C766 H751 0.960 . S
C766 H752 0.960 . S
C766 H753 0.960 . S
C766 C765 1.524 . S
C767 C764 1.403 . S
C767 C768 1.392 . S
C767 C771 1.495 . S
C768 C767 1.392 . S
C768 C769 1.385 . S
C768 C770 1.478 . S
C769 H763 0.930 . S
C769 C765 1.400 . S
C769 C768 1.385 . S
C770 C768 1.478 . S
C770 C772 1.381 . S
C770 C776 1.383 . S
C771 C767 1.495 . S
C771 H777 0.959 . S
C771 H778 0.961 . S
C771 H779 0.960 . S
C772 C770 1.381 . S
C772 C773 1.394 . S
C772 H780 0.930 . S
C773 C772 1.394 . S
C773 C774 1.383 . S
C773 H781 0.929 . S
C774 C773 1.383 . S
C774 C775 1.377 . S
C775 H759 0.930 . S
C775 C774 1.377 . S
C775 C776 1.379 . S
C776 H760 0.931 . S
C776 C770 1.383 . S
C776 C775 1.379 . S
H777 C771 0.959 . S
H778 C771 0.961 . S
H779 C771 0.960 . S
H780 C772 0.930 . S
H781 C773 0.929 . S
H782 C790 0.929 . S
H783 C792 0.930 . S
H784 C794 0.930 . S
H785 C797 0.929 . S
H786 C800 0.930 . S
H787 C802 0.960 . S
H788 C802 0.960 . S
H789 C802 0.960 . S
C790 H782 0.929 . S
C790 C791 1.377 . S
C790 C792 1.384 . S
C791 C790 1.377 . S
C791 C797 1.390 . S
C792 H783 0.930 . S
C792 C790 1.384 . S
C792 C793 1.372 . S
C793 C792 1.372 . S
C793 C794 1.400 . S
C793 C798 1.490 . S
C794 H784 0.930 . S
C794 C793 1.400 . S
C794 C797 1.386 . S
H795 C811 0.930 . S
H796 C812 0.931 . S
C797 H785 0.929 . S
C797 C791 1.390 . S
C797 C794 1.386 . S
C798 C793 1.490 . S
C798 C800 1.395 . S
C798 C801 1.403 . S
H799 C805 0.930 . S
C800 H786 0.930 . S
C800 C798 1.395 . S
C800 C803 1.403 . S
C801 C798 1.403 . S
C801 C802 1.524 . S
C801 C805 1.400 . S
C802 H787 0.960 . S
C802 H788 0.960 . S
C802 H789 0.960 . S
C802 C801 1.524 . S
C803 C800 1.403 . S
C803 C804 1.392 . S
C803 C807 1.495 . S
C804 C803 1.392 . S
C804 C805 1.385 . S
C804 C806 1.478 . S
C805 H799 0.930 . S
C805 C801 1.400 . S
C805 C804 1.385 . S
C806 C804 1.478 . S
C806 C808 1.381 . S
C806 C812 1.383 . S
C807 C803 1.495 . S
C807 H813 0.959 . S
C807 H814 0.961 . S
C807 H815 0.960 . S
C808 C806 1.381 . S
C808 C809 1.394 . S
C808 H816 0.930 . S
C809 C808 1.394 . S
C809 C810 1.383 . S
C809 H817 0.929 . S
C810 C809 1.383 . S
C810 C811 1.377 . S
C811 H795 0.930 . S
C811 C810 1.377 . S
C811 C812 1.379 . S
C812 H796 0.931 . S
C812 C806 1.383 . S
C812 C811 1.379 . S
H813 C807 0.959 . S
H814 C807 0.961 . S
H815 C807 0.960 . S
H816 C808 0.930 . S
H817 C809 0.929 . S
H818 C826 0.929 . S
H819 C828 0.930 . S
H820 C830 0.930 . S
H821 C833 0.929 . S
H822 C836 0.930 . S
H823 C838 0.960 . S
H824 C838 0.960 . S
H825 C838 0.960 . S
C826 H818 0.929 . S
C826 C827 1.377 . S
C826 C828 1.384 . S
C827 C826 1.377 . S
C827 C833 1.390 . S
C828 H819 0.930 . S
C828 C826 1.384 . S
C828 C829 1.372 . S
C829 C828 1.372 . S
C829 C830 1.400 . S
C829 C834 1.490 . S
C830 H820 0.930 . S
C830 C829 1.400 . S
C830 C833 1.386 . S
H831 C847 0.930 . S
H832 C848 0.931 . S
C833 H821 0.929 . S
C833 C827 1.390 . S
C833 C830 1.386 . S
C834 C829 1.490 . S
C834 C836 1.395 . S
C834 C837 1.403 . S
H835 C841 0.930 . S
C836 H822 0.930 . S
C836 C834 1.395 . S
C836 C839 1.403 . S
C837 C834 1.403 . S
C837 C838 1.524 . S
C837 C841 1.400 . S
C838 H823 0.960 . S
C838 H824 0.960 . S
C838 H825 0.960 . S
C838 C837 1.524 . S
C839 C836 1.403 . S
C839 C840 1.392 . S
C839 C843 1.495 . S
C840 C839 1.392 . S
C840 C841 1.385 . S
C840 C842 1.478 . S
C841 H835 0.930 . S
C841 C837 1.400 . S
C841 C840 1.385 . S
C842 C840 1.478 . S
C842 C844 1.381 . S
C842 C848 1.383 . S
C843 C839 1.495 . S
C843 H849 0.959 . S
C843 H850 0.961 . S
C843 H851 0.960 . S
C844 C842 1.381 . S
C844 C845 1.394 . S
C844 H852 0.930 . S
C845 C844 1.394 . S
C845 C846 1.383 . S
C845 H853 0.929 . S
C846 C845 1.383 . S
C846 C847 1.377 . S
C847 H831 0.930 . S
C847 C846 1.377 . S
C847 C848 1.379 . S
C848 H832 0.931 . S
C848 C842 1.383 . S
C848 C847 1.379 . S
H849 C843 0.959 . S
H850 C843 0.961 . S
H851 C843 0.960 . S
H852 C844 0.930 . S
H853 C845 0.929 . S
H854 C862 0.929 . S
H855 C864 0.930 . S
H856 C866 0.930 . S
H857 C869 0.929 . S
H858 C872 0.930 . S
H859 C874 0.960 . S
H860 C874 0.960 . S
H861 C874 0.960 . S
C862 H854 0.929 . S
C862 C863 1.377 . S
C862 C864 1.384 . S
C863 C862 1.377 . S
C863 C869 1.390 . S
C864 H855 0.930 . S
C864 C862 1.384 . S
C864 C865 1.372 . S
C865 C864 1.372 . S
C865 C866 1.400 . S
C865 C870 1.490 . S
C866 H856 0.930 . S
C866 C865 1.400 . S
C866 C869 1.386 . S
H867 C883 0.930 . S
H868 C884 0.931 . S
C869 H857 0.929 . S
C869 C863 1.390 . S
C869 C866 1.386 . S
C870 C865 1.490 . S
C870 C872 1.395 . S
C870 C873 1.403 . S
H871 C877 0.930 . S
C872 H858 0.930 . S
C872 C870 1.395 . S
C872 C875 1.403 . S
C873 C870 1.403 . S
C873 C874 1.524 . S
C873 C877 1.400 . S
C874 H859 0.960 . S
C874 H860 0.960 . S
C874 H861 0.960 . S
C874 C873 1.524 . S
C875 C872 1.403 . S
C875 C876 1.392 . S
C875 C879 1.495 . S
C876 C875 1.392 . S
C876 C877 1.385 . S
C876 C878 1.478 . S
C877 H871 0.930 . S
C877 C873 1.400 . S
C877 C876 1.385 . S
C878 C876 1.478 . S
C878 C880 1.381 . S
C878 C884 1.383 . S
C879 C875 1.495 . S
C879 H885 0.959 . S
C879 H886 0.961 . S
C879 H887 0.960 . S
C880 C878 1.381 . S
C880 C881 1.394 . S
C880 H888 0.930 . S
C881 C880 1.394 . S
C881 C882 1.383 . S
C881 H889 0.929 . S
C882 C881 1.383 . S
C882 C883 1.377 . S
C883 H867 0.930 . S
C883 C882 1.377 . S
C883 C884 1.379 . S
C884 H868 0.931 . S
C884 C878 1.383 . S
C884 C883 1.379 . S
H885 C879 0.959 . S
H886 C879 0.961 . S
H887 C879 0.960 . S
H888 C880 0.930 . S
H889 C881 0.929 . S
H890 C898 0.929 . S
H891 C900 0.930 . S
H892 C902 0.930 . S
H893 C905 0.929 . S
H894 C908 0.930 . S
H895 C910 0.960 . S
H896 C910 0.960 . S
H897 C910 0.960 . S
C898 H890 0.929 . S
C898 C899 1.377 . S
C898 C900 1.384 . S
C899 C898 1.377 . S
C899 C905 1.390 . S
C900 H891 0.930 . S
C900 C898 1.384 . S
C900 C901 1.372 . S
C901 C900 1.372 . S
C901 C902 1.400 . S
C901 C906 1.490 . S
C902 H892 0.930 . S
C902 C901 1.400 . S
C902 C905 1.386 . S
H903 C919 0.930 . S
H904 C920 0.931 . S
C905 H893 0.929 . S
C905 C899 1.390 . S
C905 C902 1.386 . S
C906 C901 1.490 . S
C906 C908 1.395 . S
C906 C909 1.403 . S
H907 C913 0.930 . S
C908 H894 0.930 . S
C908 C906 1.395 . S
C908 C911 1.403 . S
C909 C906 1.403 . S
C909 C910 1.524 . S
C909 C913 1.400 . S
C910 H895 0.960 . S
C910 H896 0.960 . S
C910 H897 0.960 . S
C910 C909 1.524 . S
C911 C908 1.403 . S
C911 C912 1.392 . S
C911 C915 1.495 . S
C912 C911 1.392 . S
C912 C913 1.385 . S
C912 C914 1.478 . S
C913 H907 0.930 . S
C913 C909 1.400 . S
C913 C912 1.385 . S
C914 C912 1.478 . S
C914 C916 1.381 . S
C914 C920 1.383 . S
C915 C911 1.495 . S
C915 H921 0.959 . S
C915 H922 0.961 . S
C915 H923 0.960 . S
C916 C914 1.381 . S
C916 C917 1.394 . S
C916 H924 0.930 . S
C917 C916 1.394 . S
C917 C918 1.383 1_655 S
C917 H925 0.929 . S
C918 C917 1.383 1_455 S
C918 C919 1.377 . S
C919 H903 0.930 . S
C919 C918 1.377 . S
C919 C920 1.378 1_455 S
C920 H904 0.931 . S
C920 C914 1.383 . S
C920 C919 1.378 1_655 S
H921 C915 0.959 . S
H922 C915 0.961 . S
H923 C915 0.960 . S
H924 C916 0.930 . S
H925 C917 0.929 . S
H926 C934 0.929 . S
H927 C936 0.930 . S
H928 C938 0.930 . S
H929 C941 0.929 . S
H930 C944 0.930 . S
H931 C946 0.960 . S
H932 C946 0.960 . S
H933 C946 0.960 . S
C934 H926 0.929 . S
C934 C935 1.377 . S
C934 C936 1.384 . S
C935 C934 1.377 . S
C935 C941 1.390 . S
C936 H927 0.930 . S
C936 C934 1.384 . S
C936 C937 1.372 . S
C937 C936 1.372 . S
C937 C938 1.400 . S
C937 C942 1.490 . S
C938 H928 0.930 . S
C938 C937 1.400 . S
C938 C941 1.386 . S
H939 C955 0.930 . S
H940 C956 0.931 . S
C941 H929 0.929 . S
C941 C935 1.390 . S
C941 C938 1.386 . S
C942 C937 1.490 . S
C942 C944 1.395 . S
C942 C945 1.403 . S
H943 C949 0.930 . S
C944 H930 0.930 . S
C944 C942 1.395 . S
C944 C947 1.403 . S
C945 C942 1.403 . S
C945 C946 1.524 . S
C945 C949 1.400 . S
C946 H931 0.960 . S
C946 H932 0.960 . S
C946 H933 0.960 . S
C946 C945 1.524 . S
C947 C944 1.403 . S
C947 C948 1.392 . S
C947 C951 1.495 . S
C948 C947 1.392 . S
C948 C949 1.385 . S
C948 C950 1.478 . S
C949 H943 0.930 . S
C949 C945 1.400 . S
C949 C948 1.385 . S
C950 C948 1.478 . S
C950 C952 1.381 . S
C950 C956 1.383 . S
C951 C947 1.495 . S
C951 H957 0.959 . S
C951 H958 0.961 . S
C951 H959 0.960 . S
C952 C950 1.381 . S
C952 C953 1.394 . S
C952 H960 0.930 . S
C953 C952 1.394 . S
C953 C954 1.383 . S
C953 H961 0.929 . S
C954 C953 1.383 . S
C954 C955 1.377 . S
C955 H939 0.930 . S
C955 C954 1.377 . S
C955 C956 1.379 . S
C956 H940 0.931 . S
C956 C950 1.383 . S
C956 C955 1.379 . S
H957 C951 0.959 . S
H958 C951 0.961 . S
H959 C951 0.960 . S
H960 C952 0.930 . S
H961 C953 0.929 . S
H962 C970 0.929 . S
H963 C972 0.930 . S
H964 C974 0.930 . S
H965 C977 0.929 . S
H966 C980 0.930 . S
H967 C982 0.960 . S
H968 C982 0.960 . S
H969 C982 0.960 . S
C970 H962 0.929 . S
C970 C971 1.377 . S
C970 C972 1.384 . S
C971 C970 1.377 . S
C971 C977 1.390 . S
C972 H963 0.930 . S
C972 C970 1.384 . S
C972 C973 1.372 . S
C973 C972 1.372 . S
C973 C974 1.400 . S
C973 C978 1.490 . S
C974 H964 0.930 . S
C974 C973 1.400 . S
C974 C977 1.386 . S
H975 C991 0.930 . S
H976 C992 0.931 . S
C977 H965 0.929 . S
C977 C971 1.390 . S
C977 C974 1.386 . S
C978 C973 1.490 . S
C978 C980 1.395 . S
C978 C981 1.403 . S
H979 C985 0.930 . S
C980 H966 0.930 . S
C980 C978 1.395 . S
C980 C983 1.403 . S
C981 C978 1.403 . S
C981 C982 1.524 . S
C981 C985 1.400 . S
C982 H967 0.960 . S
C982 H968 0.960 . S
C982 H969 0.960 . S
C982 C981 1.524 . S
C983 C980 1.403 . S
C983 C984 1.392 . S
C983 C987 1.495 . S
C984 C983 1.392 . S
C984 C985 1.385 . S
C984 C986 1.478 . S
C985 H979 0.930 . S
C985 C981 1.400 . S
C985 C984 1.385 . S
C986 C984 1.478 . S
C986 C988 1.381 . S
C986 C992 1.383 . S
C987 C983 1.495 . S
C987 H993 0.959 . S
C987 H994 0.961 . S
C987 H995 0.960 . S
C988 C986 1.381 . S
C988 C989 1.394 . S
C988 H996 0.930 . S
C989 C988 1.394 . S
C989 C990 1.383 . S
C989 H997 0.929 . S
C990 C989 1.383 . S
C990 C991 1.377 . S
C991 H975 0.930 . S
C991 C990 1.377 . S
C991 C992 1.379 . S
C992 H976 0.931 . S
C992 C986 1.383 . S
C992 C991 1.379 . S
H993 C987 0.959 . S
H994 C987 0.961 . S
H995 C987 0.960 . S
H996 C988 0.930 . S
H997 C989 0.929 . S
H998 C1006 0.929 . S
H999 C1008 0.930 . S
H1000 C1010 0.930 . S
H1001 C1013 0.929 . S
H1002 C1016 0.930 . S
H1003 C1018 0.960 . S
H1004 C1018 0.960 . S
H1005 C1018 0.960 . S
C1006 H998 0.929 . S
C1006 C1007 1.377 . S
C1006 C1008 1.384 . S
C1007 C1006 1.377 . S
C1007 C1013 1.390 . S
C1008 H999 0.930 . S
C1008 C1006 1.384 . S
C1008 C1009 1.372 . S
C1009 C1008 1.372 . S
C1009 C1010 1.400 . S
C1009 C1014 1.490 . S
C1010 H1000 0.930 . S
C1010 C1009 1.400 . S
C1010 C1013 1.386 . S
H1011 C1027 0.930 . S
H1012 C1028 0.931 . S
C1013 H1001 0.929 . S
C1013 C1007 1.390 . S
C1013 C1010 1.386 . S
C1014 C1009 1.490 . S
C1014 C1016 1.395 . S
C1014 C1017 1.403 . S
H1015 C1021 0.930 . S
C1016 H1002 0.930 . S
C1016 C1014 1.395 . S
C1016 C1019 1.403 . S
C1017 C1014 1.403 . S
C1017 C1018 1.524 . S
C1017 C1021 1.400 . S
C1018 H1003 0.960 . S
C1018 H1004 0.960 . S
C1018 H1005 0.960 . S
C1018 C1017 1.524 . S
C1019 C1016 1.403 . S
C1019 C1020 1.392 . S
C1019 C1023 1.495 . S
C1020 C1019 1.392 . S
C1020 C1021 1.385 . S
C1020 C1022 1.478 . S
C1021 H1015 0.930 . S
C1021 C1017 1.400 . S
C1021 C1020 1.385 . S
C1022 C1020 1.478 . S
C1022 C1024 1.381 . S
C1022 C1028 1.383 . S
C1023 C1019 1.495 . S
C1023 H1029 0.959 . S
C1023 H1030 0.961 . S
C1023 H1031 0.960 . S
C1024 C1022 1.381 . S
C1024 C1025 1.394 . S
C1024 H1032 0.930 . S
C1025 C1024 1.394 . S
C1025 C1026 1.383 . S
C1025 H1033 0.929 . S
C1026 C1025 1.383 . S
C1026 C1027 1.377 . S
C1027 H1011 0.930 . S
C1027 C1026 1.377 . S
C1027 C1028 1.379 . S
C1028 H1012 0.931 . S
C1028 C1022 1.383 . S
C1028 C1027 1.379 . S
H1029 C1023 0.959 . S
H1030 C1023 0.961 . S
H1031 C1023 0.960 . S
H1032 C1024 0.930 . S
H1033 C1025 0.929 . S
H1034 C1042 0.929 . S
H1035 C1044 0.930 . S
H1036 C1046 0.930 . S
H1037 C1049 0.929 . S
H1038 C1052 0.930 . S
H1039 C1054 0.960 . S
H1040 C1054 0.960 . S
H1041 C1054 0.960 . S
C1042 H1034 0.929 . S
C1042 C1043 1.377 . S
C1042 C1044 1.384 . S
C1043 C1042 1.377 . S
C1043 C1049 1.390 . S
C1044 H1035 0.930 . S
C1044 C1042 1.384 . S
C1044 C1045 1.372 . S
C1045 C1044 1.372 . S
C1045 C1046 1.400 . S
C1045 C1050 1.490 . S
C1046 H1036 0.930 . S
C1046 C1045 1.400 . S
C1046 C1049 1.386 . S
H1047 C1063 0.930 . S
H1048 C1064 0.931 . S
C1049 H1037 0.929 . S
C1049 C1043 1.390 . S
C1049 C1046 1.386 . S
C1050 C1045 1.490 . S
C1050 C1052 1.395 . S
C1050 C1053 1.403 . S
H1051 C1057 0.930 . S
C1052 H1038 0.930 . S
C1052 C1050 1.395 . S
C1052 C1055 1.403 . S
C1053 C1050 1.403 . S
C1053 C1054 1.524 . S
C1053 C1057 1.400 . S
C1054 H1039 0.960 . S
C1054 H1040 0.960 . S
C1054 H1041 0.960 . S
C1054 C1053 1.524 . S
C1055 C1052 1.403 . S
C1055 C1056 1.392 . S
C1055 C1059 1.495 . S
C1056 C1055 1.392 . S
C1056 C1057 1.385 . S
C1056 C1058 1.478 . S
C1057 H1051 0.930 . S
C1057 C1053 1.400 . S
C1057 C1056 1.385 . S
C1058 C1056 1.478 . S
C1058 C1060 1.381 . S
C1058 C1064 1.383 . S
C1059 C1055 1.495 . S
C1059 H1065 0.959 . S
C1059 H1066 0.961 . S
C1059 H1067 0.960 . S
C1060 C1058 1.381 . S
C1060 C1061 1.394 . S
C1060 H1068 0.930 . S
C1061 C1060 1.394 . S
C1061 C1062 1.383 . S
C1061 H1069 0.929 . S
C1062 C1061 1.383 . S
C1062 C1063 1.377 . S
C1063 H1047 0.930 . S
C1063 C1062 1.377 . S
C1063 C1064 1.379 . S
C1064 H1048 0.931 . S
C1064 C1058 1.383 . S
C1064 C1063 1.379 . S
H1065 C1059 0.959 . S
H1066 C1059 0.961 . S
H1067 C1059 0.960 . S
H1068 C1060 0.930 . S
H1069 C1061 0.929 . S
H1070 C1078 0.929 . S
H1071 C1080 0.930 . S
H1072 C1082 0.930 . S
H1073 C1085 0.929 . S
H1074 C1088 0.930 . S
H1075 C1090 0.960 . S
H1076 C1090 0.960 . S
H1077 C1090 0.960 . S
C1078 H1070 0.929 . S
C1078 C1079 1.377 . S
C1078 C1080 1.384 . S
C1079 C1078 1.377 . S
C1079 C1085 1.390 . S
C1080 H1071 0.930 . S
C1080 C1078 1.384 . S
C1080 C1081 1.372 . S
C1081 C1080 1.372 . S
C1081 C1082 1.400 . S
C1081 C1086 1.490 . S
C1082 H1072 0.930 . S
C1082 C1081 1.400 . S
C1082 C1085 1.386 . S
H1083 C1099 0.930 . S
H1084 C1100 0.931 . S
C1085 H1073 0.929 . S
C1085 C1079 1.390 . S
C1085 C1082 1.386 . S
C1086 C1081 1.490 . S
C1086 C1088 1.395 . S
C1086 C1089 1.403 . S
H1087 C1093 0.930 . S
C1088 H1074 0.930 . S
C1088 C1086 1.395 . S
C1088 C1091 1.403 . S
C1089 C1086 1.403 . S
C1089 C1090 1.524 . S
C1089 C1093 1.400 . S
C1090 H1075 0.960 . S
C1090 H1076 0.960 . S
C1090 H1077 0.960 . S
C1090 C1089 1.524 . S
C1091 C1088 1.403 . S
C1091 C1092 1.392 . S
C1091 C1095 1.495 . S
C1092 C1091 1.392 . S
C1092 C1093 1.385 . S
C1092 C1094 1.478 . S
C1093 H1087 0.930 . S
C1093 C1089 1.400 . S
C1093 C1092 1.385 . S
C1094 C1092 1.478 . S
C1094 C1096 1.381 . S
C1094 C1100 1.383 . S
C1095 C1091 1.495 . S
C1095 H1101 0.959 . S
C1095 H1102 0.961 . S
C1095 H1103 0.960 . S
C1096 C1094 1.381 . S
C1096 C1097 1.394 . S
C1096 H1104 0.930 . S
C1097 C1096 1.394 . S
C1097 C1098 1.383 . S
C1097 H1105 0.929 . S
C1098 C1097 1.383 . S
C1098 C1099 1.377 . S
C1099 H1083 0.930 . S
C1099 C1098 1.377 . S
C1099 C1100 1.379 . S
C1100 H1084 0.931 . S
C1100 C1094 1.383 . S
C1100 C1099 1.379 . S
H1101 C1095 0.959 . S
H1102 C1095 0.961 . S
H1103 C1095 0.960 . S
H1104 C1096 0.930 . S
H1105 C1097 0.929 . S
H1106 C1114 0.929 . S
H1107 C1116 0.930 . S
H1108 C1118 0.930 . S
H1109 C1121 0.929 . S
H1110 C1124 0.930 . S
H1111 C1126 0.960 . S
H1112 C1126 0.960 . S
H1113 C1126 0.960 . S
C1114 H1106 0.929 . S
C1114 C1115 1.377 . S
C1114 C1116 1.384 . S
C1115 C1114 1.377 . S
C1115 C1121 1.390 . S
C1116 H1107 0.930 . S
C1116 C1114 1.384 . S
C1116 C1117 1.372 . S
C1117 C1116 1.372 . S
C1117 C1118 1.400 . S
C1117 C1122 1.490 . S
C1118 H1108 0.930 . S
C1118 C1117 1.400 . S
C1118 C1121 1.386 . S
H1119 C1135 0.930 . S
H1120 C1136 0.931 . S
C1121 H1109 0.929 . S
C1121 C1115 1.390 . S
C1121 C1118 1.386 . S
C1122 C1117 1.490 . S
C1122 C1124 1.395 . S
C1122 C1125 1.403 . S
H1123 C1129 0.930 . S
C1124 H1110 0.930 . S
C1124 C1122 1.395 . S
C1124 C1127 1.403 . S
C1125 C1122 1.403 . S
C1125 C1126 1.524 . S
C1125 C1129 1.400 . S
C1126 H1111 0.960 . S
C1126 H1112 0.960 . S
C1126 H1113 0.960 . S
C1126 C1125 1.524 . S
C1127 C1124 1.403 . S
C1127 C1128 1.392 . S
C1127 C1131 1.495 . S
C1128 C1127 1.392 . S
C1128 C1129 1.385 . S
C1128 C1130 1.478 . S
C1129 H1123 0.930 . S
C1129 C1125 1.400 . S
C1129 C1128 1.385 . S
C1130 C1128 1.478 . S
C1130 C1132 1.381 . S
C1130 C1136 1.383 . S
C1131 C1127 1.495 . S
C1131 H1137 0.959 . S
C1131 H1138 0.961 . S
C1131 H1139 0.960 . S
C1132 C1130 1.381 . S
C1132 C1133 1.394 . S
C1132 H1140 0.930 . S
C1133 C1132 1.394 . S
C1133 C1134 1.383 . S
C1133 H1141 0.929 . S
C1134 C1133 1.383 . S
C1134 C1135 1.377 . S
C1135 H1119 0.930 . S
C1135 C1134 1.377 . S
C1135 C1136 1.379 . S
C1136 H1120 0.931 . S
C1136 C1130 1.383 . S
C1136 C1135 1.379 . S
H1137 C1131 0.959 . S
H1138 C1131 0.961 . S
H1139 C1131 0.960 . S
H1140 C1132 0.930 . S
H1141 C1133 0.929 . S
H1142 C1150 0.929 . S
H1143 C1152 0.930 . S
H1144 C1154 0.930 . S
H1145 C1157 0.929 . S
H1146 C1160 0.930 . S
H1147 C1162 0.960 . S
H1148 C1162 0.960 . S
H1149 C1162 0.960 . S
C1150 H1142 0.929 . S
C1150 C1151 1.377 . S
C1150 C1152 1.384 . S
C1151 C1150 1.377 . S
C1151 C1157 1.390 . S
C1152 H1143 0.930 . S
C1152 C1150 1.384 . S
C1152 C1153 1.372 . S
C1153 C1152 1.372 . S
C1153 C1154 1.400 . S
C1153 C1158 1.490 . S
C1154 H1144 0.930 . S
C1154 C1153 1.400 . S
C1154 C1157 1.386 . S
H1155 C1171 0.930 . S
H1156 C1172 0.931 . S
C1157 H1145 0.929 . S
C1157 C1151 1.390 . S
C1157 C1154 1.386 . S
C1158 C1153 1.490 . S
C1158 C1160 1.395 . S
C1158 C1161 1.403 . S
H1159 C1165 0.930 . S
C1160 H1146 0.930 . S
C1160 C1158 1.395 . S
C1160 C1163 1.403 . S
C1161 C1158 1.403 . S
C1161 C1162 1.524 . S
C1161 C1165 1.400 . S
C1162 H1147 0.960 . S
C1162 H1148 0.960 . S
C1162 H1149 0.960 . S
C1162 C1161 1.524 . S
C1163 C1160 1.403 . S
C1163 C1164 1.392 . S
C1163 C1167 1.495 . S
C1164 C1163 1.392 . S
C1164 C1165 1.385 . S
C1164 C1166 1.478 . S
C1165 H1159 0.930 . S
C1165 C1161 1.400 . S
C1165 C1164 1.385 . S
C1166 C1164 1.478 . S
C1166 C1168 1.381 . S
C1166 C1172 1.383 . S
C1167 C1163 1.495 . S
C1167 H1173 0.959 . S
C1167 H1174 0.961 . S
C1167 H1175 0.960 . S
C1168 C1166 1.381 . S
C1168 C1169 1.394 . S
C1168 H1176 0.930 . S
C1169 C1168 1.394 . S
C1169 C1170 1.383 . S
C1169 H1177 0.929 . S
C1170 C1169 1.383 . S
C1170 C1171 1.377 . S
C1171 H1155 0.930 . S
C1171 C1170 1.377 . S
C1171 C1172 1.379 . S
C1172 H1156 0.931 . S
C1172 C1166 1.383 . S
C1172 C1171 1.379 . S
H1173 C1167 0.959 . S
H1174 C1167 0.961 . S
H1175 C1167 0.960 . S
H1176 C1168 0.930 . S
H1177 C1169 0.929 . S
H1178 C1186 0.929 . S
H1179 C1188 0.930 . S
H1180 C1190 0.930 . S
H1181 C1193 0.929 . S
H1182 C1196 0.930 . S
H1183 C1198 0.960 . S
H1184 C1198 0.960 . S
H1185 C1198 0.960 . S
C1186 H1178 0.929 . S
C1186 C1187 1.377 . S
C1186 C1188 1.384 . S
C1187 C1186 1.377 . S
C1187 C1193 1.390 . S
C1188 H1179 0.930 . S
C1188 C1186 1.384 . S
C1188 C1189 1.372 . S
C1189 C1188 1.372 . S
C1189 C1190 1.400 . S
C1189 C1194 1.490 . S
C1190 H1180 0.930 . S
C1190 C1189 1.400 . S
C1190 C1193 1.386 . S
H1191 C1207 0.930 . S
H1192 C1208 0.931 . S
C1193 H1181 0.929 . S
C1193 C1187 1.390 . S
C1193 C1190 1.386 . S
C1194 C1189 1.490 . S
C1194 C1196 1.395 . S
C1194 C1197 1.403 . S
H1195 C1201 0.930 . S
C1196 H1182 0.930 . S
C1196 C1194 1.395 . S
C1196 C1199 1.403 . S
C1197 C1194 1.403 . S
C1197 C1198 1.524 . S
C1197 C1201 1.400 . S
C1198 H1183 0.960 . S
C1198 H1184 0.960 . S
C1198 H1185 0.960 . S
C1198 C1197 1.524 . S
C1199 C1196 1.403 . S
C1199 C1200 1.392 . S
C1199 C1203 1.495 . S
C1200 C1199 1.392 . S
C1200 C1201 1.385 . S
C1200 C1202 1.478 . S
C1201 H1195 0.930 . S
C1201 C1197 1.400 . S
C1201 C1200 1.385 . S
C1202 C1200 1.478 . S
C1202 C1204 1.381 . S
C1202 C1208 1.383 . S
C1203 C1199 1.495 . S
C1203 H1209 0.959 . S
C1203 H1210 0.961 . S
C1203 H1211 0.960 . S
C1204 C1202 1.381 . S
C1204 C1205 1.394 . S
C1204 H1212 0.930 . S
C1205 C1204 1.394 . S
C1205 C1206 1.383 . S
C1205 H1213 0.929 . S
C1206 C1205 1.383 . S
C1206 C1207 1.377 . S
C1207 H1191 0.930 . S
C1207 C1206 1.377 . S
C1207 C1208 1.379 . S
C1208 H1192 0.931 . S
C1208 C1202 1.383 . S
C1208 C1207 1.379 . S
H1209 C1203 0.959 . S
H1210 C1203 0.961 . S
H1211 C1203 0.960 . S
H1212 C1204 0.930 . S
H1213 C1205 0.929 . S
H1214 C1222 0.929 . S
H1215 C1224 0.930 . S
H1216 C1226 0.930 . S
H1217 C1229 0.929 . S
H1218 C1232 0.930 . S
H1219 C1234 0.960 . S
H1220 C1234 0.960 . S
H1221 C1234 0.960 . S
C1222 H1214 0.929 . S
C1222 C1223 1.377 . S
C1222 C1224 1.384 . S
C1223 C1222 1.377 . S
C1223 C1229 1.390 . S
C1224 H1215 0.930 . S
C1224 C1222 1.384 . S
C1224 C1225 1.372 . S
C1225 C1224 1.372 . S
C1225 C1226 1.400 . S
C1225 C1230 1.490 . S
C1226 H1216 0.930 . S
C1226 C1225 1.400 . S
C1226 C1229 1.386 . S
H1227 C1243 0.930 . S
H1228 C1244 0.931 . S
C1229 H1217 0.929 . S
C1229 C1223 1.390 . S
C1229 C1226 1.386 . S
C1230 C1225 1.490 . S
C1230 C1232 1.395 . S
C1230 C1233 1.403 . S
H1231 C1237 0.930 . S
C1232 H1218 0.930 . S
C1232 C1230 1.395 . S
C1232 C1235 1.403 . S
C1233 C1230 1.403 . S
C1233 C1234 1.524 . S
C1233 C1237 1.400 . S
C1234 H1219 0.960 . S
C1234 H1220 0.960 . S
C1234 H1221 0.960 . S
C1234 C1233 1.524 . S
C1235 C1232 1.403 . S
C1235 C1236 1.392 . S
C1235 C1239 1.495 . S
C1236 C1235 1.392 . S
C1236 C1237 1.385 . S
C1236 C1238 1.478 . S
C1237 H1231 0.930 . S
C1237 C1233 1.400 . S
C1237 C1236 1.385 . S
C1238 C1236 1.478 . S
C1238 C1240 1.381 . S
C1238 C1244 1.383 . S
C1239 C1235 1.495 . S
C1239 H1245 0.959 . S
C1239 H1246 0.961 . S
C1239 H1247 0.960 . S
C1240 C1238 1.381 . S
C1240 C1241 1.394 . S
C1240 H1248 0.930 . S
C1241 C1240 1.394 . S
C1241 C1242 1.383 . S
C1241 H1249 0.929 . S
C1242 C1241 1.383 . S
C1242 C1243 1.377 . S
C1243 H1227 0.930 . S
C1243 C1242 1.377 . S
C1243 C1244 1.379 . S
C1244 H1228 0.931 . S
C1244 C1238 1.383 . S
C1244 C1243 1.379 . S
H1245 C1239 0.959 . S
H1246 C1239 0.961 . S
H1247 C1239 0.960 . S
H1248 C1240 0.930 . S
H1249 C1241 0.929 . S
H1250 C1258 0.929 . S
H1251 C1260 0.930 . S
H1252 C1262 0.930 . S
H1253 C1265 0.929 . S
H1254 C1268 0.930 . S
H1255 C1270 0.960 . S
H1256 C1270 0.960 . S
H1257 C1270 0.960 . S
C1258 H1250 0.929 . S
C1258 C1259 1.377 . S
C1258 C1260 1.384 . S
C1259 C1258 1.377 . S
C1259 C1265 1.390 . S
C1260 H1251 0.930 . S
C1260 C1258 1.384 . S
C1260 C1261 1.372 . S
C1261 C1260 1.372 . S
C1261 C1262 1.400 . S
C1261 C1266 1.490 . S
C1262 H1252 0.930 . S
C1262 C1261 1.400 . S
C1262 C1265 1.386 . S
H1263 C1279 0.930 . S
H1264 C1280 0.931 . S
C1265 H1253 0.929 . S
C1265 C1259 1.390 . S
C1265 C1262 1.386 . S
C1266 C1261 1.490 . S
C1266 C1268 1.395 . S
C1266 C1269 1.403 . S
H1267 C1273 0.930 . S
C1268 H1254 0.930 . S
C1268 C1266 1.395 . S
C1268 C1271 1.403 . S
C1269 C1266 1.403 . S
C1269 C1270 1.524 . S
C1269 C1273 1.400 . S
C1270 H1255 0.960 . S
C1270 H1256 0.960 . S
C1270 H1257 0.960 . S
C1270 C1269 1.524 . S
C1271 C1268 1.403 . S
C1271 C1272 1.392 . S
C1271 C1275 1.495 . S
C1272 C1271 1.392 . S
C1272 C1273 1.385 . S
C1272 C1274 1.478 . S
C1273 H1267 0.930 . S
C1273 C1269 1.400 . S
C1273 C1272 1.385 . S
C1274 C1272 1.478 . S
C1274 C1276 1.381 . S
C1274 C1280 1.383 . S
C1275 C1271 1.495 . S
C1275 H1281 0.959 . S
C1275 H1282 0.961 . S
C1275 H1283 0.960 . S
C1276 C1274 1.381 . S
C1276 C1277 1.394 . S
C1276 H1284 0.930 . S
C1277 C1276 1.394 . S
C1277 C1278 1.383 . S
C1277 H1285 0.929 . S
C1278 C1277 1.383 . S
C1278 C1279 1.377 . S
C1279 H1263 0.930 . S
C1279 C1278 1.377 . S
C1279 C1280 1.379 . S
C1280 H1264 0.931 . S
C1280 C1274 1.383 . S
C1280 C1279 1.379 . S
H1281 C1275 0.959 . S
H1282 C1275 0.961 . S
H1283 C1275 0.960 . S
H1284 C1276 0.930 . S
H1285 C1277 0.929 . S
C450 C126 1.343 . S
C431 N2 1.351 . S
C486 C195 1.560 . S
C467 N15 1.598 . S
C522 C133 1.533 . S
C503 N27 1.528 . S
C558 C196 1.836 . S
C539 N44 1.846 . S
C594 C249 1.680 . S
C575 N1 1.716 . S
C630 C285 1.783 . S
C611 N18 1.774 . S
C647 N28 1.739 . S
C666 C345 1.691 . S
C702 C408 1.697 . S
C683 N41 1.701 . S
C738 C248 1.674 . S
C719 N14 1.671 . S
C755 N31 1.702 . S
C774 C292 1.702 . S
C810 C338 1.945 . S
C791 N40 1.965 . S
C846 C407 1.768 . S
C827 N5 1.775 . S
C863 N53 1.993 . S
C882 C186 1.977 . S
C918 C143 1.646 . S
C899 N70 1.637 . S
C935 N80 1.701 . S
C954 C179 1.670 . S
C971 N92 1.622 . S
C990 C142 1.617 . S
C1026 C354 1.933 . S
C1007 N57 1.966 . S
C1062 C398 1.522 . S
C1043 N67 1.536 . S
C1098 C232 1.750 . S
C1079 N83 1.771 . S
C1115 N96 1.651 . S
C1134 C301 1.649 . S
C1170 C355 1.727 . S
C1151 N66 1.758 . S
C1206 C391 1.628 . S
C1187 N79 1.625 . S
C1242 C239 1.692 . S
C1223 N93 1.709 . S
C1259 N54 1.473 . S
C1278 C302 1.469 . S
