# Generated by pormake.
# Topology zzz, (3,6)-cn, num edge types: 1
# Building blocks:
#     Node 0, Type 0, BuildingBlock: BETDAH_clean_linker_0, # of connection points: 3
#     Node 1, Type 0, BuildingBlock: BETDAH_clean_linker_0, # of connection points: 3
#     Node 2, Type 0, BuildingBlock: BETDAH_clean_linker_0, # of connection points: 3
#     Node 3, Type 0, BuildingBlock: BETDAH_clean_linker_0, # of connection points: 3
#     Node 4, Type 0, BuildingBlock: BETDAH_clean_linker_0, # of connection points: 3
#     Node 5, Type 0, BuildingBlock: BETDAH_clean_linker_0, # of connection points: 3
#     Node 6, Type 0, BuildingBlock: BETDAH_clean_linker_0, # of connection points: 3
#     Node 7, Type 0, BuildingBlock: BETDAH_clean_linker_0, # of connection points: 3
#     Node 8, Type 1, BuildingBlock: HISSIN_clean_sbu_0, # of connection points: 6
#     Node 9, Type 1, BuildingBlock: HISSIN_clean_sbu_0, # of connection points: 6
#     Node 10, Type 1, BuildingBlock: HISSIN_clean_sbu_0, # of connection points: 6
#     Node 11, Type 1, BuildingBlock: HISSIN_clean_sbu_0, # of connection points: 6
#     Edge 12, Type (0, 1), BuildingBlock: TEMPAE_clean_linker_10, # of connection points: 2
#     Edge 13, Type (0, 1), BuildingBlock: TEMPAE_clean_linker_10, # of connection points: 2
#     Edge 14, Type (0, 1), BuildingBlock: TEMPAE_clean_linker_10, # of connection points: 2
#     Edge 15, Type (0, 1), BuildingBlock: TEMPAE_clean_linker_10, # of connection points: 2
#     Edge 16, Type (0, 1), BuildingBlock: TEMPAE_clean_linker_10, # of connection points: 2
#     Edge 17, Type (0, 1), BuildingBlock: TEMPAE_clean_linker_10, # of connection points: 2
#     Edge 18, Type (0, 1), BuildingBlock: TEMPAE_clean_linker_10, # of connection points: 2
#     Edge 19, Type (0, 1), BuildingBlock: TEMPAE_clean_linker_10, # of connection points: 2
#     Edge 20, Type (0, 1), BuildingBlock: TEMPAE_clean_linker_10, # of connection points: 2
#     Edge 21, Type (0, 1), BuildingBlock: TEMPAE_clean_linker_10, # of connection points: 2
#     Edge 22, Type (0, 1), BuildingBlock: TEMPAE_clean_linker_10, # of connection points: 2
#     Edge 23, Type (0, 1), BuildingBlock: TEMPAE_clean_linker_10, # of connection points: 2
#     Edge 24, Type (0, 1), BuildingBlock: TEMPAE_clean_linker_10, # of connection points: 2
#     Edge 25, Type (0, 1), BuildingBlock: TEMPAE_clean_linker_10, # of connection points: 2
#     Edge 26, Type (0, 1), BuildingBlock: TEMPAE_clean_linker_10, # of connection points: 2
#     Edge 27, Type (0, 1), BuildingBlock: TEMPAE_clean_linker_10, # of connection points: 2
#     Edge 28, Type (0, 1), BuildingBlock: TEMPAE_clean_linker_10, # of connection points: 2
#     Edge 29, Type (0, 1), BuildingBlock: TEMPAE_clean_linker_10, # of connection points: 2
#     Edge 30, Type (0, 1), BuildingBlock: TEMPAE_clean_linker_10, # of connection points: 2
#     Edge 31, Type (0, 1), BuildingBlock: TEMPAE_clean_linker_10, # of connection points: 2
#     Edge 32, Type (0, 1), BuildingBlock: TEMPAE_clean_linker_10, # of connection points: 2
#     Edge 33, Type (0, 1), BuildingBlock: TEMPAE_clean_linker_10, # of connection points: 2
#     Edge 34, Type (0, 1), BuildingBlock: TEMPAE_clean_linker_10, # of connection points: 2
#     Edge 35, Type (0, 1), BuildingBlock: TEMPAE_clean_linker_10, # of connection points: 2
# Relax obj value: 0.266
# Max RMSD: 0.185
# Mean RMSD: 0.096
data_MOF--net-zzz--node1-HISSIN_clean_sbu_0--node2-BETDAH_clean_linker_0--edge1-TEMPAE_clean_linker_10
_symmetry_space_group_name_H-M    P1
_symmetry_Int_Tables_number       1
_symmetry_cell_setting            triclinic
loop_
_symmetry_equiv_pos_as_xyz
'x, y, z'
_cell_length_a     50.83045
_cell_length_b     50.957661
_cell_length_c     16.612404
_cell_angle_alpha  89.742318
_cell_angle_beta   92.094855
_cell_angle_gamma 90.582457
loop_
_atom_site_label
_atom_site_type_symbol
_atom_site_fract_x
_atom_site_fract_y
_atom_site_fract_z
_atom_type_partial_charge
H0 H 0.80595 0.492 0.33896 0.0
H1 H 0.73197 0.51366 0.22816 0.0
H2 H 0.76041 0.55246 0.44575 0.0
C3 C 0.78794 0.5032 0.34105 0.0
C4 C 0.78543 0.52189 0.4018 0.0
C5 C 0.76882 0.50017 0.27885 0.0
C6 C 0.74635 0.51581 0.27748 0.0
C7 C 0.74291 0.53456 0.33817 0.0
C8 C 0.76271 0.53772 0.39983 0.0
N9 N 0.72016 0.55079 0.33725 0.0
C10 C 0.69987 0.54957 0.27804 0.0
H11 H 0.04809 0.82725 0.24791 0.0
H12 H 0.03405 0.75084 0.14782 0.0
H13 H 1.00944 0.76814 0.38796 0.0
C14 C 0.04046 0.80745 0.25449 0.0
C15 C 0.0289 0.80016 0.32672 0.0
C16 C 0.04225 0.78996 0.18997 0.0
C17 C 0.03261 0.76427 0.19776 0.0
C18 C 0.02061 0.75617 0.2689 0.0
C19 C 0.01861 0.77431 0.33309 0.0
N20 N 1.0104 0.73008 0.27717 0.0
C21 C 1.01121 0.71057 0.21794 0.0
H22 H 0.7127 0.04035 0.21095 0.0
H23 H 0.78967 0.02891 0.1216 0.0
H24 H 0.77237 1.00395 0.36308 0.0
C25 C 0.7326 0.03335 0.221 0.0
C26 C 0.73984 0.02216 0.29591 0.0
C27 C 0.75034 0.0359 0.15845 0.0
C28 C 0.77615 0.02701 0.1702 0.0
C29 C 0.78443 0.01535 0.24345 0.0
C30 C 0.76606 0.01276 0.30627 0.0
N31 N 0.81098 1.00632 0.25494 0.0
C32 C 0.83079 1.00842 0.19777 0.0
H33 H 0.48476 0.7251 0.2921 0.0
H34 H 0.50304 0.79887 0.18228 0.0
H35 H 0.55355 0.76846 0.37504 0.0
C36 C 0.49716 0.74253 0.29044 0.0
C37 C 0.51989 0.74395 0.34072 0.0
C38 C 0.49121 0.76207 0.23325 0.0
C39 C 0.50746 0.78429 0.22833 0.0
C40 C 0.52973 0.78716 0.2805 0.0
C41 C 0.53587 0.76685 0.33688 0.0
N42 N 0.54674 0.80958 0.27475 0.0
C43 C 0.54356 0.8297 0.21727 0.0
H44 H 0.22258 0.52406 0.15365 0.0
H45 H 0.30285 0.51607 0.23486 0.0
H46 H 0.27974 0.4972 0.98844 0.0
C47 C 0.24262 0.5189 0.14047 0.0
C48 C 0.24851 0.51102 0.06251 0.0
C49 C 0.26208 0.52079 0.20194 0.0
C50 C 0.28802 0.51429 0.18665 0.0
C51 C 0.29458 0.50524 0.11001 0.0
C52 C 0.27469 0.50365 0.04791 0.0
N53 N 0.32093 0.49791 0.09423 0.0
C54 C 0.34163 0.49855 0.15224 0.0
H55 H 1.00043 0.2145 0.15449 0.0
H56 H 0.01551 0.28988 0.2613 0.0
H57 H 0.0419 0.27364 0.02246 0.0
C58 C 1.00862 0.23417 0.15029 0.0
C59 C 0.02121 0.24166 0.08 0.0
C60 C 1.00681 0.2512 0.21601 0.0
C61 C 0.01694 0.27679 0.21049 0.0
C62 C 0.02953 0.28522 0.14074 0.0
C63 C 0.032 0.26737 0.07599 0.0
N64 N 0.03998 0.3113 0.1347 0.0
C65 C 0.03809 0.33074 0.19384 0.0
H66 H 0.33141 0.98466 0.15183 0.0
H67 H 0.25854 1.00017 0.26369 0.0
H68 H 0.27336 0.03263 0.02876 0.0
C69 C 0.31227 0.99386 0.14933 0.0
C70 C 0.30485 1.00881 0.08122 0.0
C71 C 0.29592 0.99091 0.21526 0.0
C72 C 0.271 1.0024 0.21258 0.0
C73 C 0.26244 0.0174 0.14568 0.0
C74 C 0.27969 0.02091 0.08029 0.0
N75 N 0.23686 0.02917 0.1435 0.0
C76 C 0.21816 0.0269 0.20407 0.0
H77 H 0.566 0.31118 0.08993 0.0
H78 H 0.54686 0.23814 0.20244 0.0
H79 H 0.50156 0.26442 0.99254 0.0
C80 C 0.55451 0.29313 0.08897 0.0
C81 C 0.53389 0.29007 0.03123 0.0
C82 C 0.55928 0.27453 0.15004 0.0
C83 C 0.54335 0.25205 0.15382 0.0
C84 C 0.52258 0.24801 0.0968 0.0
C85 C 0.51778 0.26725 0.03584 0.0
N86 N 0.50598 0.22523 0.10087 0.0
C87 C 0.50835 0.2055 0.15997 0.0
Eu88 Eu 1.00613 0.03102 0.63849 0.0
Eu89 Eu 0.0466 1.0094 0.77916 0.0
C90 C 0.03169 0.07118 0.77172 0.0
C91 C 0.95611 0.07475 0.53867 0.0
C92 C 0.94683 0.08618 0.46676 0.0
C93 C 0.94404 0.11384 0.61151 0.0
C94 C 0.93727 0.11172 0.4665 0.0
C95 C 0.9538 0.08828 0.61154 0.0
C96 C 0.93683 0.12635 0.53843 0.0
C97 C 0.97184 0.05088 0.53575 0.0
O98 O 1.00617 1.00277 0.83158 0.0
O99 O 0.98266 0.03158 0.75241 0.0
C100 C 0.98465 0.01639 0.81646 0.0
O101 O 1.00455 0.98691 0.61964 0.0
O102 O 0.05569 0.98556 0.88533 0.0
O103 O 0.08624 1.00969 0.83495 0.0
O104 O 0.03957 0.9736 0.7009 0.0
C105 C 0.021 0.96868 0.6457 0.0
O106 O 0.04309 0.02291 0.56985 0.0
O107 O 0.07282 0.02175 0.67658 0.0
O108 O 0.03795 0.05095 0.81772 0.0
O109 O 0.99714 0.05507 0.53267 0.0
O110 O 0.96607 0.03236 0.58681 0.0
O111 O 0.02388 0.06788 0.69599 0.0
C112 C 0.09753 0.96762 0.88411 0.0
C113 C 0.10536 0.95592 0.9571 0.0
C114 C 0.1116 0.929 0.81255 0.0
C115 C 0.11506 0.93044 0.95833 0.0
C116 C 0.10167 0.95451 0.81152 0.0
C117 C 0.11714 0.91612 0.88628 0.0
C118 C 0.08079 0.99085 0.88512 0.0
C119 C 0.06759 0.02261 0.59833 0.0
H120 H 0.94868 0.07607 0.41002 0.0
H121 H 0.94372 0.12432 0.66803 0.0
H122 H 0.93244 0.12062 0.40861 0.0
H123 H 0.96103 0.0797 0.66781 0.0
H124 H 0.10205 0.96569 0.01363 0.0
H125 H 0.11328 0.91882 0.75593 0.0
H126 H 0.11858 0.92131 0.01663 0.0
H127 H 0.09559 0.96329 0.75438 0.0
Eu128 Eu 0.53344 0.03848 0.75319 0.0
Eu129 Eu 0.51032 0.99595 0.62384 0.0
C130 C 0.52864 0.97744 0.80441 0.0
C131 C 0.57614 0.09187 0.84337 0.0
C132 C 0.58878 0.10082 0.91411 0.0
C133 C 0.61368 0.10611 0.76719 0.0
C134 C 0.61423 0.11114 0.91222 0.0
C135 C 0.5882 0.09554 0.76936 0.0
C136 C 0.62759 0.11272 0.83921 0.0
C137 C 0.55298 0.07472 0.84915 0.0
O138 O 0.47374 0.01226 0.68195 0.0
O139 O 0.49289 0.02833 0.79875 0.0
C140 C 0.47176 0.0207 0.75652 0.0
O141 O 0.51634 0.06235 0.64839 0.0
O142 O 0.51039 0.95572 0.57973 0.0
O143 O 0.4841 0.98428 0.52354 0.0
O144 O 0.517 0.03219 0.54737 0.0
C145 C 0.51578 0.05667 0.57125 0.0
O146 O 0.56808 0.03265 0.67229 0.0
O147 O 0.55439 0.99595 0.60197 0.0
O148 O 0.51186 0.9744 0.74322 0.0
O149 O 0.53361 0.07883 0.79731 0.0
O150 O 0.55837 0.0499 0.85677 0.0
O151 O 0.54263 0.99917 0.81244 0.0
C152 C 0.46782 0.94164 0.53869 0.0
C153 C 0.45589 0.93045 0.46991 0.0
C154 C 0.43126 0.92658 0.61765 0.0
C155 C 0.43118 0.91853 0.47398 0.0
C156 C 0.45598 0.93868 0.61332 0.0
C157 C 0.41787 0.91769 0.54714 0.0
C158 C 0.49027 0.95953 0.53019 0.0
C159 C 0.57266 0.01361 0.62141 0.0
H160 H 0.57981 0.09794 0.97173 0.0
H161 H 0.62305 0.10741 0.70981 0.0
H162 H 0.62412 0.11549 0.96947 0.0
H163 H 0.57865 0.08865 0.71392 0.0
H164 H 0.46477 0.93263 0.4119 0.0
H165 H 0.42186 0.92594 0.6751 0.0
H166 H 0.42162 0.91232 0.41787 0.0
H167 H 0.46505 0.94723 0.66726 0.0
Eu168 Eu 0.50048 0.52807 0.76301 0.0
Eu169 Eu 0.54773 0.51195 0.64814 0.0
C170 C 0.56021 0.53212 0.83017 0.0
C171 C 0.45092 0.56719 0.87722 0.0
C172 C 0.45293 0.59001 0.82997 0.0
C173 C 0.43373 0.593 0.98523 0.0
C174 C 0.44573 0.61424 0.86071 0.0
C175 C 0.44069 0.56873 0.95418 0.0
C176 C 0.43678 0.61602 0.93942 0.0
C177 C 0.46097 0.54208 0.84901 0.0
O178 O 0.52912 0.47309 0.68558 0.0
O179 O 0.51246 0.48721 0.8037 0.0
C180 C 0.52021 0.46804 0.75761 0.0
O181 O 0.48156 0.50501 0.65988 0.0
O182 O 0.58632 0.49433 0.63703 0.0
O183 O 0.56637 0.51087 0.53191 0.0
O184 O 0.51141 0.51511 0.56562 0.0
C185 C 0.48747 0.50804 0.58416 0.0
O186 O 0.50702 0.56369 0.68297 0.0
O187 O 0.54962 0.55645 0.64969 0.0
O188 O 0.56591 0.51554 0.77342 0.0
O189 O 0.45919 0.53818 0.77157 0.0
O190 O 0.48367 0.5349 0.88034 0.0
O191 O 0.53723 0.54379 0.82904 0.0
C192 C 0.59075 0.47237 0.51577 0.0
C193 C 0.56943 0.45639 0.49071 0.0
C194 C 0.62101 0.43946 0.47042 0.0
C195 C 0.57384 0.43223 0.45522 0.0
C196 C 0.61656 0.46385 0.50551 0.0
C197 C 0.59963 0.42352 0.44487 0.0
C198 C 0.58602 0.49672 0.55904 0.0
C199 C 0.52921 0.57206 0.65279 0.0
H200 H 0.46095 0.58929 0.7705 0.0
H201 H 0.42692 0.59395 0.04618 0.0
H202 H 0.44867 0.63176 0.82479 0.0
H203 H 0.43901 0.55131 0.99135 0.0
H204 H 0.54936 0.46239 0.49984 0.0
H205 H 0.64104 0.43311 0.46291 0.0
H206 H 0.55703 0.42009 0.43722 0.0
H207 H 0.6332 0.47586 0.52574 0.0
Eu208 Eu 0.0293 0.54016 0.64626 0.0
Eu209 Eu 1.01024 0.49749 0.77788 0.0
C210 C 0.07219 0.51018 0.76442 0.0
C211 C 0.0757 0.57979 0.53059 0.0
C212 C 0.09399 0.56054 0.55355 0.0
C213 C 0.11121 0.60729 0.48319 0.0
C214 C 0.12064 0.56458 0.54189 0.0
C215 C 0.08436 0.60332 0.49596 0.0
C216 C 0.12955 0.58793 0.50648 0.0
C217 C 0.04813 0.57564 0.55003 0.0
O218 O 0.01793 0.53499 0.84856 0.0
O219 O 1.01056 0.56351 0.7445 0.0
C220 C 1.01339 0.55892 0.82216 0.0
O221 O 0.98678 0.53126 0.61035 0.0
O222 O 1.00684 0.48249 0.90045 0.0
O223 O 0.98928 0.46082 0.80043 0.0
O224 O 0.97325 0.51875 0.73472 0.0
C225 C 0.96781 0.52637 0.66022 0.0
O226 O 0.04037 0.50115 0.59181 0.0
O227 O 1.01143 0.47555 0.65982 0.0
O228 O 0.05442 0.49227 0.78177 0.0
O229 O 0.03745 0.55366 0.52454 0.0
O230 O 0.04334 0.58004 0.62515 0.0
O231 O 0.06589 0.53148 0.72345 0.0
C232 C 0.96574 0.4618 0.91796 0.0
C233 C 0.95235 0.48482 0.9363 0.0
C234 C 0.92847 0.43584 0.9612 0.0
C235 C 0.92733 0.48336 0.96759 0.0
C236 C 0.9537 0.4373 0.9305 0.0
C237 C 0.91515 0.45889 0.98011 0.0
C238 C 0.99097 0.46337 0.87829 0.0
C239 C 0.02734 0.47892 0.60004 0.0
H240 H 0.0876 0.54225 0.5804 0.0
H241 H 0.11764 0.6253 0.45479 0.0
H242 H 0.1342 0.54899 0.55797 0.0
H243 H 0.07044 0.6185 0.47892 0.0
H244 H 0.96104 0.50394 0.92518 0.0
H245 H 0.91945 0.41678 0.97067 0.0
H246 H 0.91728 0.50141 0.98074 0.0
H247 H 0.96364 0.41938 0.91534 0.0
C248 C 0.18601 1.00195 0.28676 0.0
C249 C 0.19733 0.02591 0.26347 0.0
C250 C 0.16523 1.00094 0.34143 0.0
C251 C 0.1553 0.02447 0.37405 0.0
C252 C 0.16694 0.04871 0.35082 0.0
C253 C 0.18767 0.04912 0.29605 0.0
C254 C 0.15371 0.97462 0.36382 0.0
C255 C 0.15732 0.07433 0.38341 0.0
C256 C 0.0853 0.02484 0.45692 0.0
C257 C 0.09003 0.02316 0.54084 0.0
C258 C 0.10615 0.0252 0.40251 0.0
C259 C 0.13273 0.02381 0.43171 0.0
C260 C 0.13764 0.02203 0.5163 0.0
C261 C 0.11642 0.02174 0.56937 0.0
C262 C 0.09968 0.02714 0.31332 0.0
C263 C 0.16543 0.02043 0.55099 0.0
H264 H 0.19329 0.98392 0.26169 0.0
H265 H 0.19624 0.06773 0.27817 0.0
H266 H 0.15526 0.9718 0.43008 0.0
H267 H 0.13248 0.97386 0.34589 0.0
H268 H 0.16374 0.9581 0.33458 0.0
H269 H 0.16852 0.09148 0.36062 0.0
H270 H 0.13619 0.07684 0.36633 0.0
H271 H 0.15905 0.07419 0.45018 0.0
H272 H 0.06517 0.02591 0.43338 0.0
H273 H 0.12061 0.02034 0.63367 0.0
H274 H 0.10776 1.01 0.28191 0.0
H275 H 0.10905 0.04499 0.28818 0.0
H276 H 0.07814 0.02794 0.29974 0.0
H277 H 0.17538 1.00313 0.52616 0.0
H278 H 0.16611 0.01889 0.61776 0.0
H279 H 0.17682 0.03809 0.53332 0.0
C280 C 0.53369 0.17563 0.25236 0.0
C281 C 0.50949 0.18433 0.21972 0.0
C282 C 0.53494 0.15491 0.30918 0.0
C283 C 0.51141 0.14251 0.33414 0.0
C284 C 0.48692 0.15141 0.30107 0.0
C285 C 0.48628 0.17216 0.24438 0.0
C286 C 0.56148 0.14622 0.34244 0.0
C287 C 0.46134 0.13898 0.32555 0.0
C288 C 0.51485 0.0734 0.42723 0.0
C289 C 0.51411 0.07853 0.51024 0.0
C290 C 0.51403 0.0939 0.36961 0.0
C291 C 0.51237 0.12039 0.39493 0.0
C292 C 0.51151 0.12568 0.47855 0.0
C293 C 0.51242 0.10482 0.53484 0.0
C294 C 0.51505 0.0872 0.28139 0.0
C295 C 0.50968 0.15347 0.50875 0.0
H296 H 0.55168 0.18501 0.23326 0.0
H297 H 0.46754 0.17884 0.21908 0.0
H298 H 0.56241 0.14825 0.40895 0.0
H299 H 0.56438 0.12518 0.3288 0.0
H300 H 0.57791 0.15778 0.31718 0.0
H301 H 0.44395 0.14812 0.29464 0.0
H302 H 0.46124 0.11773 0.31137 0.0
H303 H 0.45935 0.14079 0.39158 0.0
H304 H 0.51625 0.05329 0.40703 0.0
H305 H 0.51189 0.10923 0.59852 0.0
H306 H 0.53234 0.09697 0.25487 0.0
H307 H 0.49723 0.09463 0.24856 0.0
H308 H 0.51636 0.06573 0.2712 0.0
H309 H 0.5268 0.16519 0.48894 0.0
H310 H 0.50912 0.15441 0.57546 0.0
H311 H 0.49169 0.16284 0.48256 0.0
C312 C 0.37754 0.47684 0.2315 0.0
C313 C 0.3629 0.49935 0.21328 0.0
C314 C 0.39808 0.47731 0.29091 0.0
C315 C 0.40412 0.5009 0.33309 0.0
C316 C 0.38927 0.52371 0.31439 0.0
C317 C 0.36882 0.52264 0.25476 0.0
C318 C 0.41327 0.45253 0.30873 0.0
C319 C 0.39495 0.54927 0.3575 0.0
C320 C 0.44064 0.49782 0.53843 0.0
C321 C 0.46651 0.50475 0.51928 0.0
C322 C 0.42031 0.49621 0.47856 0.0
C323 C 0.42579 0.50169 0.39709 0.0
C324 C 0.45193 0.50833 0.37714 0.0
C325 C 0.4719 0.50975 0.43822 0.0
C326 C 0.39282 0.48899 0.50277 0.0
C327 C 0.45874 0.51435 0.29127 0.0
H328 H 0.37288 0.45881 0.19934 0.0
H329 H 0.35741 0.54004 0.24063 0.0
H330 H 0.4345 0.45595 0.29875 0.0
H331 H 0.41145 0.44694 0.37293 0.0
H332 H 0.40626 0.43585 0.27056 0.0
H333 H 0.38176 0.56525 0.33575 0.0
H334 H 0.39258 0.54661 0.42317 0.0
H335 H 0.41565 0.55545 0.34887 0.0
H336 H 0.43611 0.49394 0.60064 0.0
H337 H 0.49173 0.51518 0.4224 0.0
H338 H 0.38559 0.47155 0.46855 0.0
H339 H 0.37921 0.50533 0.48765 0.0
H340 H 0.39185 0.48465 0.56819 0.0
H341 H 0.4531 0.49754 0.25186 0.0
H342 H 0.48005 0.51859 0.28518 0.0
H343 H 0.44741 0.53157 0.26891 0.0
C344 C 0.01827 0.37197 0.24166 0.0
C345 C 0.03672 0.3519 0.25264 0.0
C346 C 0.01708 0.39289 0.2969 0.0
C347 C 0.0348 0.39385 0.36497 0.0
C348 C 0.0535 0.37349 0.37595 0.0
C349 C 0.05422 0.35281 0.31972 0.0
C350 C 0.99677 0.41395 0.28248 0.0
C351 C 0.07274 0.37353 0.4473 0.0
C352 C 0.04619 0.45965 0.47397 0.0
C353 C 0.02984 0.45716 0.54007 0.0
C354 C 0.0481 0.43929 0.41692 0.0
C355 C 0.03331 0.41571 0.4256 0.0
C356 C 0.01688 0.41307 0.49235 0.0
C357 C 0.01536 0.43367 0.54838 0.0
C358 C 0.06591 0.44305 0.347 0.0
C359 C 1.0007 0.38845 0.50451 0.0
H360 H 1.00477 0.37134 0.18963 0.0
H361 H 0.06856 0.33733 0.32815 0.0
H362 H 0.98349 0.41464 0.33394 0.0
H363 H 1.00659 0.43343 0.27851 0.0
H364 H 0.98467 0.41063 0.22632 0.0
H365 H 0.0863 0.35658 0.44678 0.0
H366 H 0.08462 0.39193 0.44776 0.0
H367 H 0.0619 0.37294 0.50405 0.0
H368 H 0.05749 0.47759 0.46649 0.0
H369 H 1.00262 0.43132 0.59885 0.0
H370 H 0.05424 0.44162 0.28941 0.0
H371 H 0.08077 0.42725 0.34706 0.0
H372 H 0.07632 0.46232 0.34892 0.0
H373 H 0.98703 0.38529 0.45179 0.0
H374 H 0.98901 0.38929 0.55963 0.0
H375 H 0.01377 0.37116 0.50906 0.0
C376 C 0.87298 0.0284 0.15326 0.0
C377 C 0.85257 1.0099 0.1418 0.0
C378 C 0.8945 0.02957 0.10147 0.0
C379 C 0.89588 0.01176 0.03614 0.0
C380 C 0.87514 0.99306 0.02447 0.0
C381 C 0.85385 0.99236 0.07723 0.0
C382 C 0.91587 0.04988 0.11689 0.0
C383 C 0.87548 0.97367 0.95618 0.0
C384 C 0.93906 0.02975 0.8576 0.0
C385 C 0.96203 0.01504 0.87307 0.0
C386 C 0.91762 0.02885 0.90964 0.0
C387 C 0.91877 0.01285 0.97983 0.0
C388 C 0.94189 0.99795 0.99592 0.0
C389 C 0.96308 0.99921 0.94277 0.0
C390 C 0.89363 0.04514 0.88931 0.0
C391 C 0.94426 0.98061 0.06961 0.0
H392 H 0.87218 0.04196 0.20321 0.0
H393 H 0.8382 0.97794 0.06813 0.0
H394 H 0.93512 0.0401 0.12706 0.0
H395 H 0.91759 0.06277 0.06329 0.0
H396 H 0.91206 0.06229 0.16994 0.0
H397 H 0.85802 0.96036 0.95495 0.0
H398 H 0.87601 0.98428 0.8978 0.0
H399 H 0.89352 0.96162 0.96167 0.0
H400 H 0.93775 0.04211 0.80438 0.0
H401 H 0.98054 0.98772 0.95603 0.0
H402 H 0.89012 0.05896 0.93911 0.0
H403 H 0.87598 0.03224 0.88268 0.0
H404 H 0.89565 0.0566 0.83277 0.0
H405 H 0.94225 0.99254 0.1247 0.0
H406 H 0.96337 0.97022 0.07402 0.0
H407 H 0.92809 0.9658 0.06838 0.0
C408 C 0.52352 0.8714 0.16821 0.0
C409 C 0.54128 0.85093 0.15809 0.0
C410 C 0.52149 0.89227 0.11213 0.0
C411 C 0.53762 0.89274 0.04408 0.0
C412 C 0.5556 0.87196 0.03395 0.0
C413 C 0.5572 0.85136 0.091 0.0
C414 C 0.50201 0.91382 0.12564 0.0
C415 C 0.57314 0.87147 0.96264 0.0
C416 C 0.51563 0.93297 0.85849 0.0
C417 C 0.53119 0.95589 0.8661 0.0
C418 C 0.51748 0.91247 0.9157 0.0
C419 C 0.53538 0.91464 0.98288 0.0
C420 C 0.55115 0.9377 0.99106 0.0
C421 C 0.54887 0.95797 0.93287 0.0
C422 C 0.50022 0.88839 0.90409 0.0
C423 C 0.57051 0.94097 0.06145 0.0
H424 H 0.51123 0.87111 0.2202 0.0
H425 H 0.57099 0.83555 0.08319 0.0
H426 H 0.5124 0.93306 0.12926 0.0
H427 H 0.48761 0.91486 0.07393 0.0
H428 H 0.49109 0.91079 0.1817 0.0
H429 H 0.58623 0.85413 0.96365 0.0
H430 H 0.56096 0.8712 0.90586 0.0
H431 H 0.58552 0.88952 0.96173 0.0
H432 H 0.50183 0.93096 0.80754 0.0
H433 H 0.56101 0.97547 0.93982 0.0
H434 H 0.48775 0.88561 0.95694 0.0
H435 H 0.51262 0.8707 0.89975 0.0
H436 H 0.48722 0.88969 0.84901 0.0
H437 H 0.56003 0.9397 0.1188 0.0
H438 H 0.58131 0.96001 0.05956 0.0
H439 H 0.58501 0.92484 0.06195 0.0
C440 C 0.65948 0.52871 0.21855 0.0
C441 C 0.67879 0.54845 0.21641 0.0
C442 C 0.63925 0.52708 0.15836 0.0
C443 C 0.63834 0.54565 0.09436 0.0
C444 C 0.65773 0.56587 0.09297 0.0
C445 C 0.67773 0.567 0.15401 0.0
C446 C 0.61913 0.50517 0.16241 0.0
C447 C 0.65766 0.58601 0.0261 0.0
C448 C 0.60489 0.52455 0.8953 0.0
C449 C 0.58014 0.5366 0.89743 0.0
C450 C 0.62386 0.52748 0.95846 0.0
C451 C 0.61821 0.54288 0.0263 0.0
C452 C 0.59339 0.55534 0.0288 0.0
C453 C 0.57468 0.55208 0.96445 0.0
C454 C 0.64998 0.51386 0.95271 0.0
C455 C 0.58653 0.57195 0.09985 0.0
H456 H 0.66034 0.51437 0.26701 0.0
H457 H 0.6927 0.58229 0.15253 0.0
H458 H 0.59896 0.51332 0.15998 0.0
H459 H 0.62074 0.49213 0.10954 0.0
H460 H 0.6217 0.49316 0.21809 0.0
H461 H 0.67324 0.60124 0.0358 0.0
H462 H 0.66077 0.5762 0.96777 0.0
H463 H 0.63826 0.59579 0.02102 0.0
H464 H 0.60953 0.51257 0.84408 0.0
H465 H 0.5557 0.56146 0.96709 0.0
H466 H 0.65285 0.49999 1.00388 0.0
H467 H 0.66631 0.52847 0.95685 0.0
H468 H 0.65148 0.50281 0.89561 0.0
H469 H 0.58725 0.55987 0.15561 0.0
H470 H 0.56663 0.58065 0.0924 0.0
H471 H 0.60122 0.58804 0.10837 0.0
C472 C 0.9879 0.67576 0.13841 0.0
C473 C 1.01127 0.68931 0.15926 0.0
C474 C 0.98767 0.65466 0.08359 0.0
C475 C 1.01142 0.6468 0.04872 0.0
C476 C 0.03507 0.66065 0.06963 0.0
C477 C 0.0347 0.68172 0.12458 0.0
C478 C 0.96199 0.64066 0.06329 0.0
C479 C 0.06084 0.6531 0.03428 0.0
C480 C 0.01588 0.5771 0.96383 0.0
C481 C 1.01206 0.58125 0.8805 0.0
C482 C 0.01566 0.59813 0.01895 0.0
C483 C 1.01151 0.62413 0.99066 0.0
C484 C 1.00744 0.62842 0.90672 0.0
C485 C 1.00778 0.60705 0.85295 0.0
C486 C 0.02008 0.5925 0.10767 0.0
C487 C 1.00288 0.65568 0.8735 0.0
H488 H 0.96977 0.6816 0.16537 0.0
H489 H 0.0528 0.69217 0.1408 0.0
H490 H 0.95765 0.64157 0.9974 0.0
H491 H 0.96353 0.61963 0.08012 0.0
H492 H 0.94521 0.64925 0.09475 0.0
H493 H 0.07744 0.66588 0.05598 0.0
H494 H 0.06549 0.63245 0.05024 0.0
H495 H 0.05923 0.65435 0.9676 0.0
H496 H 0.01926 0.55737 0.98623 0.0
H497 H 1.00484 0.61067 0.78894 0.0
H498 H 1.00305 0.59941 0.14141 0.0
H499 H 0.03772 0.60341 0.13109 0.0
H500 H 0.02286 0.57126 0.12031 0.0
H501 H 0.98537 0.66434 0.90075 0.0
H502 H 0.99982 0.6558 0.80694 0.0
H503 H 0.01999 0.66853 0.88966 0.0
C504 C 1.00032 0.21591 0.31718 0.0
C505 C 0.99473 0.24141 0.29056 0.0
C506 C 0.98614 0.20412 0.37812 0.0
C507 C 0.96652 0.21864 0.41655 0.0
C508 C 0.96259 0.24534 0.39562 0.0
C509 C 0.97652 0.25635 0.33179 0.0
C510 C 0.99138 0.17556 0.39784 0.0
C511 C 0.94316 0.26221 0.43755 0.0
C512 C 0.91933 0.16668 0.46981 0.0
C513 C 0.93435 0.15542 0.5333 0.0
C514 C 0.92674 0.19095 0.43727 0.0
C515 C 0.94892 0.20434 0.47157 0.0
C516 C 0.95917 0.1964 0.54789 0.0
C517 C 0.95223 0.17154 0.57742 0.0
C518 C 0.91386 0.1998 0.35872 0.0
C519 C 0.98064 0.21195 0.59136 0.0
H520 H 0.01519 0.20469 0.28775 0.0
H521 H 0.97235 0.27626 0.31234 0.0
H522 H 0.99877 0.17359 0.46116 0.0
H523 H 0.97295 0.16381 0.39083 0.0
H524 H 1.0062 0.16687 0.35854 0.0
H525 H 0.95171 0.28209 0.44847 0.0
H526 H 0.92534 0.26473 0.39778 0.0
H527 H 0.93722 0.25376 0.49589 0.0
H528 H 0.90417 0.15504 0.43877 0.0
H529 H 0.96333 0.16377 0.62894 0.0
H530 H 0.92723 0.19597 0.30879 0.0
H531 H 0.91013 0.22118 0.36 0.0
H532 H 0.89492 0.18933 0.34565 0.0
H533 H 0.9797 0.23309 0.57506 0.0
H534 H 1.00012 0.20438 0.57501 0.0
H535 H 0.97908 0.20982 0.65759 0.0
C536 C 0.28972 0.95863 0.32893 0.0
C537 C 0.30577 0.97644 0.2879 0.0
C538 C 0.30002 0.94355 0.39365 0.0
C539 C 0.32711 0.94587 0.41588 0.0
C540 C 0.34304 0.96464 0.37637 0.0
C541 C 0.33199 0.97997 0.31441 0.0
C542 C 0.28186 0.9248 0.43562 0.0
C543 C 0.37212 0.96812 0.39713 0.0
C544 C 0.37301 0.93173 0.58447 0.0
C545 C 0.38876 0.9138 0.54435 0.0
C546 C 0.34826 0.93866 0.5514 0.0
C547 C 0.34007 0.92811 0.47602 0.0
C548 C 0.35264 0.90551 0.4476 0.0
C549 C 0.37687 0.8982 0.48352 0.0
C550 C 0.33354 0.96076 0.58869 0.0
C551 C 0.34326 0.89223 0.37078 0.0
H552 H 0.26931 0.95592 0.30924 0.0
H553 H 0.3442 0.99445 0.28515 0.0
H554 H 0.27843 0.9072 0.39743 0.0
H555 H 0.28987 0.91844 0.49552 0.0
H556 H 0.26241 0.93403 0.44337 0.0
H557 H 0.38178 0.98247 0.35696 0.0
H558 H 0.37497 0.97516 0.45992 0.0
H559 H 0.38238 0.94912 0.39226 0.0
H560 H 0.3812 0.94319 0.6343 0.0
H561 H 0.38818 0.88296 0.45593 0.0
H562 H 0.31214 0.95939 0.57302 0.0
H563 H 0.3411 0.9798 0.56588 0.0
H564 H 0.33651 0.9606 0.65527 0.0
H565 H 0.32155 0.88984 0.36911 0.0
H566 H 0.35234 0.87265 0.36415 0.0
H567 H 0.34859 0.9046 0.31852 0.0
C568 C 0.56791 0.28571 0.29309 0.0
C569 C 0.57789 0.28176 0.21675 0.0
C570 C 0.5797 0.30424 0.34532 0.0
C571 C 0.60181 0.31877 0.31972 0.0
C572 C 0.61495 0.31068 0.25065 0.0
C573 C 0.60265 0.29222 0.19919 0.0
C574 C 0.56564 0.31154 0.42033 0.0
C575 C 0.63943 0.32463 0.22384 0.0
C576 C 0.58934 0.39124 0.33704 0.0
C577 C 0.60368 0.3977 0.40765 0.0
C578 C 0.58967 0.36584 0.3061 0.0
C579 C 0.60487 0.34634 0.34689 0.0
C580 C 0.62068 0.35312 0.41573 0.0
C581 C 0.61998 0.37891 0.44528 0.0
C582 C 0.57272 0.35973 0.23157 0.0
C583 C 0.6379 0.33317 0.4588 0.0
H584 H 0.54896 0.27726 0.30732 0.0
H585 H 0.61069 0.28858 0.14073 0.0
H586 H 0.57984 0.31702 0.46983 0.0
H587 H 0.55296 0.32876 0.40704 0.0
H588 H 0.55291 0.29519 0.44113 0.0
H589 H 0.65088 0.31201 0.18381 0.0
H590 H 0.63374 0.3426 0.18968 0.0
H591 H 0.65217 0.33066 0.27628 0.0
H592 H 0.57719 0.406 0.30719 0.0
H593 H 0.63125 0.38406 0.49969 0.0
H594 H 0.5577 0.34461 0.24568 0.0
H595 H 0.585 0.35177 0.18372 0.0
H596 H 0.56238 0.3773 0.20707 0.0
H597 H 0.62709 0.3144 0.46742 0.0
H598 H 0.64541 0.34033 0.51847 0.0
H599 H 0.65501 0.32891 0.4216 0.0
C600 C 0.23364 0.51859 0.319 0.0
C601 C 0.25454 0.5308 0.28072 0.0
C602 C 0.21953 0.53207 0.37605 0.0
C603 C 0.2268 0.5583 0.3953 0.0
C604 C 0.25032 0.56916 0.36578 0.0
C605 C 0.26392 0.55528 0.30773 0.0
C606 C 0.1949 0.51939 0.4074 0.0
C607 C 0.25958 0.5964 0.38869 0.0
C608 C 0.16322 0.59405 0.40396 0.0
C609 C 0.15739 0.58983 0.48458 0.0
C610 C 0.18764 0.5868 0.37533 0.0
C611 C 0.2066 0.57539 0.42927 0.0
C612 C 0.20221 0.57494 0.51281 0.0
C613 C 0.17741 0.58195 0.53958 0.0
C614 C 0.1916 0.588 0.28566 0.0
C615 C 0.22236 0.56429 0.57295 0.0
H616 H 0.22678 0.49945 0.29847 0.0
H617 H 0.28032 0.56456 0.27844 0.0
H618 H 0.19439 0.52142 0.47371 0.0
H619 H 0.17729 0.52934 0.38072 0.0
H620 H 0.19344 0.49819 0.39229 0.0
H621 H 0.28125 0.59842 0.38372 0.0
H622 H 0.25014 0.61089 0.34712 0.0
H623 H 0.25425 0.60132 0.45099 0.0
H624 H 0.14778 0.60028 0.36152 0.0
H625 H 0.17303 0.57925 0.60251 0.0
H626 H 0.19069 0.56785 0.26051 0.0
H627 H 0.21121 0.59642 0.27307 0.0
H628 H 0.17634 0.59998 0.25357 0.0
H629 H 0.2188 0.54296 0.58161 0.0
H630 H 0.22068 0.57389 0.63243 0.0
H631 H 0.24271 0.5671 0.55217 0.0
C632 C 0.07374 0.78473 0.07755 0.0
C633 C 0.05439 0.79929 0.11505 0.0
C634 C 0.08864 0.79601 0.01629 0.0
C635 C 0.08451 0.8226 0.99439 0.0
C636 C 0.06352 0.83655 0.02796 0.0
C637 C 0.0484 0.82444 0.08619 0.0
C638 C 0.10942 0.77962 0.97874 0.0
C639 C 0.05799 0.86497 1.00709 0.0
C640 C 0.13272 0.8754 0.95719 0.0
C641 C 0.11946 0.887 0.89073 0.0
C642 C 0.12449 0.85093 0.98633 0.0
C643 C 0.10347 0.83757 0.94544 0.0
C644 C 0.09539 0.84593 0.86734 0.0
C645 C 0.10293 0.87105 0.84133 0.0
C646 C 0.13517 0.84168 0.06737 0.0
C647 C 0.07554 0.83034 0.81724 0.0
H648 H 0.07818 0.76505 0.09862 0.0
H649 H 0.03271 0.83532 0.11285 0.0
H650 H 0.11682 0.78847 0.92267 0.0
H651 H 0.12618 0.77702 0.02264 0.0
H652 H 0.10137 0.75974 0.96479 0.0
H653 H 0.0419 0.87318 0.04249 0.0
H654 H 0.0759 0.8772 0.01863 0.0
H655 H 0.05222 0.86684 0.94235 0.0
H656 H 0.14698 0.88687 0.99254 0.0
H657 H 0.09329 0.87906 0.78757 0.0
H658 H 0.13976 0.82049 0.06527 0.0
H659 H 0.12007 0.84444 0.11318 0.0
H660 H 0.15327 0.85265 0.08705 0.0
H661 H 0.07868 0.83337 0.75203 0.0
H662 H 0.0554 0.83702 0.82975 0.0
H663 H 0.07678 0.80906 0.83143 0.0
C664 C 0.75704 0.06754 0.04378 0.0
C665 C 0.74145 0.04858 0.08164 0.0
C666 C 0.74666 0.0827 0.97942 0.0
C667 C 0.71989 0.07936 0.95472 0.0
C668 C 0.70478 0.05881 0.98897 0.0
C669 C 0.71604 0.04333 0.05031 0.0
C670 C 0.76428 0.10286 0.94135 0.0
C671 C 0.67608 0.0541 0.96521 0.0
C672 C 0.66943 0.12882 0.90684 0.0
C673 C 0.65686 0.11542 0.84231 0.0
C674 C 0.69373 0.12015 0.93874 0.0
C675 C 0.706 0.09875 0.90185 0.0
C676 C 0.69711 0.09088 0.8241 0.0
C677 C 0.67206 0.09872 0.79571 0.0
C678 C 0.70377 0.13076 0.01883 0.0
C679 C 0.71193 0.07087 0.77758 0.0
H680 H 0.77693 0.07146 0.06666 0.0
H681 H 0.70435 0.02788 0.07695 0.0
H682 H 0.75574 0.11093 0.88414 0.0
H683 H 0.76817 0.11919 0.98425 0.0
H684 H 0.78361 0.09399 0.92923 0.0
H685 H 0.66695 0.03837 1.00168 0.0
H686 H 0.66467 0.07231 0.97283 0.0
H687 H 0.67412 0.0483 0.90104 0.0
H688 H 0.65867 0.14337 0.93943 0.0
H689 H 0.66343 0.0891 0.74295 0.0
H690 H 0.72517 0.13499 0.01717 0.0
H691 H 0.70071 0.11584 0.06661 0.0
H692 H 0.69352 0.149 0.03546 0.0
H693 H 0.73336 0.07192 0.79289 0.0
H694 H 0.70871 0.07396 0.71174 0.0
H695 H 0.70471 0.05088 0.79252 0.0
C696 C 0.4803 0.75102 0.09177 0.0
C697 C 0.4714 0.75577 0.16903 0.0
C698 C 0.46689 0.73313 0.04093 0.0
C699 C 0.44406 0.72027 0.06845 0.0
C700 C 0.43225 0.72931 0.13876 0.0
C701 C 0.44636 0.74676 0.18946 0.0
C702 C 0.47961 0.7248 0.96462 0.0
C703 C 0.4068 0.71753 0.16653 0.0
C704 C 0.42099 0.66254 0.9392 0.0
C705 C 0.43475 0.642 0.97755 0.0
C706 C 0.42219 0.68808 0.97081 0.0
C707 C 0.43831 0.69315 0.04043 0.0
C708 C 0.45142 0.67214 0.08082 0.0
C709 C 0.4492 0.64683 0.04927 0.0
C710 C 0.40708 0.70952 0.92735 0.0
C711 C 0.46907 0.67649 0.15509 0.0
H712 H 0.49954 0.75829 0.07562 0.0
H713 H 0.43925 0.75092 0.24878 0.0
H714 H 0.48937 0.70561 0.97484 0.0
H715 H 0.46461 0.72228 0.91508 0.0
H716 H 0.49465 0.73927 0.94542 0.0
H717 H 0.39681 0.73103 0.20764 0.0
H718 H 0.3933 0.71286 0.11439 0.0
H719 H 0.41097 0.699 0.19974 0.0
H720 H 0.4097 0.65873 0.88377 0.0
H721 H 0.46008 0.63099 0.07832 0.0
H722 H 0.41877 0.71706 0.87696 0.0
H723 H 0.40279 0.72616 0.96755 0.0
H724 H 0.3882 0.70173 0.90087 0.0
H725 H 0.48509 0.6906 0.14151 0.0
H726 H 0.47817 0.65805 0.17793 0.0
H727 H 0.45763 0.68497 0.20405 0.0
C728 C 0.7856 0.45859 0.22385 0.0
C729 C 0.77534 0.48369 0.20965 0.0
C730 C 0.8033 0.4478 0.17079 0.0
C731 C 0.8107 0.46267 0.10306 0.0
C732 C 0.79638 0.48542 0.08081 0.0
C733 C 0.77874 0.4958 0.13491 0.0
C734 C 0.81721 0.42278 0.19448 0.0
C735 C 0.80287 0.50116 1.00694 0.0
C736 C 0.88385 0.47241 0.08265 0.0
C737 C 0.88872 0.45778 0.01393 0.0
C738 C 0.85862 0.4735 0.11292 0.0
C739 C 0.83762 0.45961 0.07312 0.0
C740 C 0.84257 0.44402 1.00512 0.0
C741 C 0.8682 0.4433 0.97617 0.0
C742 C 0.85444 0.49004 0.18674 0.0
C743 C 0.82085 0.42896 0.96092 0.0
H744 H 0.78242 0.44897 0.28111 0.0
H745 H 0.77048 0.51504 0.1233 0.0
H746 H 0.82182 0.41114 0.14061 0.0
H747 H 0.83606 0.42772 0.22704 0.0
H748 H 0.80516 0.41054 0.23496 0.0
H749 H 0.7866 0.51459 0.98868 0.0
H750 H 0.82083 0.5132 0.02012 0.0
H751 H 0.80692 0.48807 0.95581 0.0
H752 H 0.89986 0.48326 0.1124 0.0
H753 H 0.87201 0.43208 0.9226 0.0
H754 H 0.846 0.47781 0.23502 0.0
H755 H 0.84027 0.50591 0.17189 0.0
H756 H 0.87301 0.49918 0.21093 0.0
H757 H 0.80597 0.42139 1.00261 0.0
H758 H 0.82878 0.41223 0.92701 0.0
H759 H 0.81072 0.44222 0.91698 0.0
C760 C 0.04732 0.21515 0.98179 0.0
C761 C 0.0231 0.22155 0.01433 0.0
C762 C 0.04993 0.1925 0.93364 0.0
C763 C 0.02789 0.17563 0.91802 0.0
C764 C 1.00311 0.18297 0.94666 0.0
C765 C 1.00101 0.20579 0.99346 0.0
C766 C 0.07662 0.18588 0.90305 0.0
C767 C 0.979 0.16583 0.9323 0.0
C768 C 0.02674 0.12061 0.76009 0.0
C769 C 0.0324 0.09825 0.80744 0.0
C770 C 0.02609 0.14595 0.79437 0.0
C771 C 0.03093 0.14925 0.87845 0.0
C772 C 0.03699 0.1268 0.92623 0.0
C773 C 0.03778 0.10179 0.89034 0.0
C774 C 0.01971 0.16917 0.74072 0.0
C775 C 0.04188 0.12906 0.01615 0.0
H776 H 0.06455 0.22701 0.99759 0.0
H777 H 0.9821 0.21067 0.01724 0.0
H778 H 0.08457 0.16861 0.93638 0.0
H779 H 0.075 0.18056 0.83835 0.0
H780 H 0.09086 0.20244 0.91077 0.0
H781 H 0.96084 0.17515 0.95337 0.0
H782 H 0.97617 0.16129 0.86732 0.0
H783 H 0.9817 0.1469 0.96469 0.0
H784 H 0.02252 0.11831 0.69607 0.0
H785 H 0.04209 0.08484 0.928 0.0
H786 H 0.01794 0.16369 0.67606 0.0
H787 H 0.03518 0.18455 0.74852 0.0
H788 H 1.00087 0.17791 0.75816 0.0
H789 H 0.05802 0.14337 0.02958 0.0
H790 H 0.04715 0.10998 0.04467 0.0
H791 H 0.02397 0.13652 0.04431 0.0
C792 C 0.33913 0.98935 0.9926 0.0
C793 C 0.32452 0.0114 0.01485 0.0
C794 C 0.36147 0.99156 0.94478 0.0
C795 C 0.36959 0.01644 0.91559 0.0
C796 C 0.35388 0.03858 0.93281 0.0
C797 C 0.33175 0.03586 0.98235 0.0
C798 C 0.37729 0.96728 0.92936 0.0
C799 C 0.36113 0.06543 0.9017 0.0
C800 C 0.44361 0.0253 0.87876 0.0
C801 C 0.44528 0.02084 0.79551 0.0
C802 C 0.41929 0.02439 0.91764 0.0
C803 C 0.39547 0.01927 0.8728 0.0
C804 C 0.3969 0.01524 0.78839 0.0
C805 C 0.42161 0.01588 0.75113 0.0
C806 C 0.41922 0.02821 1.00769 0.0
C807 C 0.37226 1.01004 0.73729 0.0
H808 H 0.33367 0.97021 0.01573 0.0
H809 H 0.32092 0.05311 0.9988 0.0
H810 H 0.38011 0.96493 0.86393 0.0
H811 H 0.39712 0.9693 0.95904 0.0
H812 H 0.36776 0.94918 0.95249 0.0
H813 H 0.3454 0.07996 0.91107 0.0
H814 H 0.37947 0.07243 0.93328 0.0
H815 H 0.36505 0.06455 0.83649 0.0
H816 H 0.46153 0.02899 0.91444 0.0
H817 H 0.42236 0.01242 0.68694 0.0
H818 H 0.41142 1.01026 0.03687 0.0
H819 H 0.40605 0.0446 0.02243 0.0
H820 H 0.43919 0.0325 0.03406 0.0
H821 H 0.36245 0.9918 0.7578 0.0
H822 H 0.37641 1.008 0.67242 0.0
H823 H 0.35817 0.02629 0.7443 0.0
C824 C 0.55091 0.32542 0.93932 0.0
C825 C 0.52923 0.3121 0.97149 0.0
C826 C 0.54812 0.34956 0.89844 0.0
C827 C 0.52284 0.36066 0.88628 0.0
C828 C 0.50058 0.34633 0.91269 0.0
C829 C 0.50402 0.3224 0.95546 0.0
C830 C 0.57256 0.36398 0.87284 0.0
C831 C 0.47316 0.35689 0.89911 0.0
C832 C 0.52025 0.43572 0.87283 0.0
C833 C 0.51967 0.44043 0.78936 0.0
C834 C 0.5209 0.41001 0.90472 0.0
C835 C 0.52022 0.3881 0.85223 0.0
C836 C 0.51885 0.3927 0.76778 0.0
C837 C 0.519 0.4187 0.73745 0.0
C838 C 0.52314 0.40635 0.99497 0.0
C839 C 0.51743 0.37011 0.70933 0.0
H840 H 0.57047 0.31751 0.94955 0.0
H841 H 0.48709 0.3125 0.97984 0.0
H842 H 0.57075 0.36937 0.80816 0.0
H843 H 0.57491 0.38249 0.90744 0.0
H844 H 0.59065 0.35218 0.8829 0.0
H845 H 0.45782 0.34194 0.91214 0.0
H846 H 0.47045 0.37401 0.93886 0.0
H847 H 0.47019 0.36377 0.83598 0.0
H848 H 0.52098 0.45225 0.91371 0.0
H849 H 0.51837 0.42202 0.67291 0.0
H850 H 0.54157 0.3958 0.01158 0.0
H851 H 0.50651 0.39414 0.0157 0.0
H852 H 0.52323 0.42531 0.02774 0.0
H853 H 0.53605 0.35895 0.71335 0.0
H854 H 0.51405 0.3768 0.64609 0.0
H855 H 0.50132 0.35636 0.72509 0.0
C856 C 0.22153 0.48962 0.94833 0.0
C857 C 0.22663 0.51114 0.99925 0.0
C858 C 0.19805 0.48806 0.89993 0.0
C859 C 0.17904 0.50824 0.90357 0.0
C860 C 0.18488 0.53061 0.95137 0.0
C861 C 0.20863 0.53195 0.99718 0.0
C862 C 0.19317 0.46442 0.84701 0.0
C863 C 0.16543 0.55267 0.95759 0.0
C864 C 0.1209 0.51867 0.75459 0.0
C865 C 0.09995 0.50714 0.79539 0.0
C866 C 0.14702 0.51759 0.78607 0.0
C867 C 0.15234 0.50558 0.86204 0.0
C868 C 0.13132 0.49338 0.90257 0.0
C869 C 0.10554 0.49395 0.86823 0.0
C870 C 0.16864 0.53026 0.73904 0.0
C871 C 0.13579 0.48092 0.98449 0.0
H872 H 0.23525 0.47348 0.94902 0.0
H873 H 0.21264 0.54902 0.03455 0.0
H874 H 0.17704 0.45226 0.87124 0.0
H875 H 0.18681 0.4707 0.78531 0.0
H876 H 0.21097 0.45207 0.84328 0.0
H877 H 0.17298 0.56876 0.99726 0.0
H878 H 0.16068 0.56096 0.89704 0.0
H879 H 0.14679 0.545 0.98188 0.0
H880 H 0.11688 0.52873 0.69798 0.0
H881 H 0.08951 0.48512 0.90047 0.0
H882 H 0.1873 0.51924 0.7462 0.0
H883 H 0.17235 0.55048 0.76153 0.0
H884 H 0.16312 0.53159 0.67386 0.0
H885 H 0.15167 0.4662 0.98267 0.0
H886 H 0.11775 0.47117 1.00643 0.0
H887 H 0.14227 0.49617 0.02862 0.0
C888 C 0.0491 0.83786 0.40582 0.0
C889 C 0.02768 0.82049 0.39221 0.0
C890 C 0.04702 0.86051 0.45322 0.0
C891 C 0.0232 0.86577 0.49143 0.0
C892 C 1.00218 0.84723 0.48367 0.0
C893 C 1.00455 0.82498 0.43362 0.0
C894 C 0.06996 0.87959 0.45851 0.0
C895 C 0.97679 0.8514 0.52582 0.0
C896 C 0.0292 0.91986 0.65127 0.0
C897 C 0.01944 0.94188 0.60901 0.0
C898 C 0.02915 0.89474 0.61564 0.0
C899 C 0.02001 0.89151 0.53448 0.0
C900 C 1.00985 0.91365 0.49195 0.0
C901 C 1.00933 0.93836 0.52996 0.0
C902 C 0.03954 0.8718 0.66451 0.0
C903 C 1.0006 0.91154 0.4048 0.0
H904 H 0.06738 0.83433 0.37625 0.0
H905 H 0.98787 0.8118 0.42411 0.0
H906 H 0.06395 0.89874 0.43197 0.0
H907 H 0.07601 0.88314 0.52234 0.0
H908 H 0.08728 0.87247 0.42641 0.0
H909 H 0.9638 0.83374 0.52291 0.0
H910 H 0.98092 0.85652 0.58996 0.0
H911 H 0.96605 0.86807 0.49739 0.0
H912 H 0.03695 0.92226 0.71249 0.0
H913 H 1.00195 0.9552 0.49642 0.0
H914 H 0.02652 0.85434 0.65593 0.0
H915 H 0.0413 0.8764 0.72981 0.0
H916 H 0.0593 0.86652 0.64403 0.0
H917 H 0.99259 0.93032 0.38069 0.0
H918 H 0.98515 0.89612 0.39784 0.0
H919 H 0.01727 0.90567 0.3677 0.0
C920 C 0.70098 0.04151 0.36592 0.0
C921 C 0.71913 0.02088 0.35984 0.0
C922 C 0.6784 0.03934 0.41258 0.0
C923 C 0.67388 0.01637 0.45863 0.0
C924 C 0.69309 0.9962 0.45801 0.0
C925 C 0.71522 0.99853 0.40822 0.0
C926 C 0.65874 0.06138 0.40971 0.0
C927 C 0.68995 0.97185 0.50873 0.0
C928 C 0.62157 0.0244 0.61927 0.0
C929 C 0.59904 0.01265 0.58257 0.0
C930 C 0.64623 0.02445 0.58207 0.0
C931 C 0.64859 0.01338 0.50427 0.0
C932 C 0.62589 1.00137 0.4672 0.0
C933 C 0.6017 1.00079 0.50704 0.0
C934 C 0.66962 0.03694 0.62588 0.0
C935 C 0.62684 0.99001 0.38364 0.0
H936 H 0.70397 0.05937 0.33166 0.0
H937 H 0.72889 0.98243 0.40507 0.0
H938 H 0.63918 0.05382 0.38818 0.0
H939 H 0.65641 0.06938 0.47096 0.0
H940 H 0.66468 0.07768 0.3694 0.0
H941 H 0.67286 0.96014 0.48524 0.0
H942 H 0.70773 0.95935 0.50898 0.0
H943 H 0.68591 0.97729 0.57169 0.0
H944 H 0.61999 0.03357 0.67763 0.0
H945 H 0.58454 0.99182 0.47742 0.0
H946 H 0.6877 0.02534 0.61798 0.0
H947 H 0.66634 0.03889 0.69132 0.0
H948 H 0.6731 0.05684 0.60095 0.0
H949 H 0.63182 1.00576 0.34021 0.0
H950 H 0.60783 0.9808 0.36358 0.0
H951 H 0.6425 0.97507 0.38156 0.0
C952 C 0.52434 0.69508 0.35649 0.0
C953 C 0.52693 0.7202 0.39102 0.0
C954 C 0.52658 0.67206 0.40318 0.0
C955 C 0.53207 0.67378 0.48722 0.0
C956 C 0.53617 0.69901 0.52206 0.0
C957 C 0.53352 0.7219 0.47368 0.0
C958 C 0.52199 0.64585 0.36264 0.0
C959 C 0.54245 0.70186 0.61101 0.0
C960 C 0.50805 0.61481 0.60953 0.0
C961 C 0.53067 0.5992 0.61726 0.0
C962 C 0.5085 0.63944 0.57024 0.0
C963 C 0.5322 0.64912 0.53803 0.0
C964 C 0.55535 0.63395 0.54838 0.0
C965 C 0.55429 0.60924 0.58729 0.0
C966 C 0.48324 0.65463 0.56038 0.0
C967 C 0.58113 0.64344 0.51604 0.0
H968 H 0.51977 0.69341 0.29243 0.0
H969 H 0.53553 0.7411 0.50115 0.0
H970 H 0.53907 0.63287 0.37482 0.0
H971 H 0.50448 0.63601 0.38764 0.0
H972 H 0.51875 0.64777 0.29637 0.0
H973 H 0.54762 0.72241 0.62768 0.0
H974 H 0.52518 0.69555 0.64546 0.0
H975 H 0.55907 0.68897 0.62967 0.0
H976 H 0.48965 0.60747 0.63225 0.0
H977 H 0.57198 0.59759 0.59299 0.0
H978 H 0.47727 0.65585 0.49555 0.0
H979 H 0.48623 0.67501 0.58236 0.0
H980 H 0.46689 0.64541 0.59336 0.0
H981 H 0.57983 0.64355 0.44924 0.0
H982 H 0.59786 0.63084 0.53605 0.0
H983 H 0.58535 0.66388 0.53573 0.0
C984 C 0.81956 0.54993 0.47687 0.0
C985 C 0.808 0.52522 0.46179 0.0
C986 C 0.84433 0.55227 0.51798 0.0
C987 C 0.85803 0.52939 0.54373 0.0
C988 C 0.84557 0.50459 0.53329 0.0
C989 C 0.82072 0.50287 0.49357 0.0
C990 C 0.8565 0.57916 0.52967 0.0
C991 C 0.85927 0.47958 0.5589 0.0
C992 C 0.93325 0.52903 0.54818 0.0
C993 C 0.93975 0.52881 0.63108 0.0
C994 C 0.90686 0.52976 0.51928 0.0
C995 C 0.88622 0.53087 0.57435 0.0
C996 C 0.89267 0.53151 0.65814 0.0
C997 C 0.91926 0.53017 0.68546 0.0
C998 C 0.90105 0.52846 0.42956 0.0
C999 C 0.87144 0.53319 0.71903 0.0
H1000 H 0.81004 0.56731 0.45243 0.0
H1001 H 0.8118 0.4837 0.48328 0.0
H1002 H 0.86489 0.58129 0.59194 0.0
H1003 H 0.87288 0.5818 0.48795 0.0
H1004 H 0.84199 0.59501 0.51781 0.0
H1005 H 0.84622 0.46205 0.55189 0.0
H1006 H 0.87675 0.47675 0.52188 0.0
H1007 H 0.86638 0.48083 0.62267 0.0
H1008 H 0.94882 0.52785 0.50552 0.0
H1009 H 0.92399 0.53017 0.74962 0.0
H1010 H 0.91926 0.52824 0.39456 0.0
H1011 H 0.88906 0.54551 0.40958 0.0
H1012 H 0.88936 0.51048 0.41496 0.0
H1013 H 0.85811 0.54974 0.70383 0.0
H1014 H 0.87969 0.53592 0.78132 0.0
H1015 H 0.85932 0.51497 0.71744 0.0
loop_
_geom_bond_atom_site_label_1
_geom_bond_atom_site_label_2
_geom_bond_distance
_geom_bond_site_symmetry_2
_ccdc_geom_bond_type
H0 C3 0.929 . S
H1 C6 0.929 . S
H2 C8 0.930 . S
C3 H0 0.929 . S
C3 C4 1.398 . S
C3 C5 1.396 . S
C4 C3 1.398 . S
C4 C8 1.407 . S
C5 C3 1.396 . S
C5 C6 1.394 . S
C6 H1 0.929 . S
C6 C5 1.394 . S
C6 C7 1.382 . S
C7 C6 1.382 . S
C7 C8 1.392 . S
C7 N9 1.420 . S
C8 H2 0.930 . S
C8 C4 1.407 . S
C8 C7 1.392 . S
N9 C7 1.420 . S
N9 C10 1.244 . S
C10 N9 1.244 . S
H11 C14 0.929 . S
H12 C17 0.929 . S
H13 C19 0.930 . S
C14 H11 0.929 . S
C14 C15 1.398 . S
C14 C16 1.396 . S
C15 C14 1.398 . S
C15 C19 1.407 . S
C16 C14 1.396 . S
C16 C17 1.394 . S
C17 H12 0.929 . S
C17 C16 1.394 . S
C17 C18 1.382 . S
C18 C17 1.382 . S
C18 C19 1.392 . S
C18 N20 1.420 . S
C19 H13 0.930 . S
C19 C15 1.407 . S
C19 C18 1.392 . S
N20 C18 1.420 . S
N20 C21 1.244 . S
C21 N20 1.244 . S
H22 C25 0.929 . S
H23 C28 0.929 . S
H24 C30 0.930 . S
C25 H22 0.929 . S
C25 C26 1.398 . S
C25 C27 1.396 . S
C26 C25 1.398 . S
C26 C30 1.407 . S
C27 C25 1.396 . S
C27 C28 1.394 . S
C28 H23 0.929 . S
C28 C27 1.394 . S
C28 C29 1.382 . S
C29 C28 1.382 . S
C29 C30 1.392 . S
C29 N31 1.420 . S
C30 H24 0.930 . S
C30 C26 1.407 . S
C30 C29 1.392 . S
N31 C29 1.420 . S
N31 C32 1.244 . S
C32 N31 1.244 . S
H33 C36 0.929 . S
H34 C39 0.929 . S
H35 C41 0.930 . S
C36 H33 0.929 . S
C36 C37 1.398 . S
C36 C38 1.396 . S
C37 C36 1.398 . S
C37 C41 1.407 . S
C38 C36 1.396 . S
C38 C39 1.394 . S
C39 H34 0.929 . S
C39 C38 1.394 . S
C39 C40 1.382 . S
C40 C39 1.382 . S
C40 C41 1.392 . S
C40 N42 1.420 . S
C41 H35 0.930 . S
C41 C37 1.407 . S
C41 C40 1.392 . S
N42 C40 1.420 . S
N42 C43 1.244 . S
C43 N42 1.244 . S
H44 C47 0.929 . S
H45 C50 0.929 . S
H46 C52 0.930 1_556 S
C47 H44 0.929 . S
C47 C48 1.398 1_554 S
C47 C49 1.396 . S
C48 C47 1.398 1_556 S
C48 C52 1.407 1_556 S
C49 C47 1.396 . S
C49 C50 1.394 . S
C50 H45 0.929 . S
C50 C49 1.394 . S
C50 C51 1.382 . S
C51 C50 1.382 . S
C51 C52 1.392 . S
C51 N53 1.420 . S
C52 H46 0.930 1_554 S
C52 C48 1.407 1_554 S
C52 C51 1.392 . S
N53 C51 1.420 . S
N53 C54 1.244 . S
C54 N53 1.244 . S
H55 C58 0.929 . S
H56 C61 0.929 . S
H57 C63 0.930 . S
C58 H55 0.929 . S
C58 C59 1.398 1_554 S
C58 C60 1.396 . S
C59 C58 1.398 1_556 S
C59 C63 1.407 . S
C60 C58 1.396 . S
C60 C61 1.394 . S
C61 H56 0.929 . S
C61 C60 1.394 . S
C61 C62 1.382 . S
C62 C61 1.382 . S
C62 C63 1.392 1_554 S
C62 N64 1.420 . S
C63 H57 0.930 . S
C63 C59 1.407 . S
C63 C62 1.392 1_556 S
N64 C62 1.420 . S
N64 C65 1.244 . S
C65 N64 1.244 . S
H66 C69 0.929 . S
H67 C72 0.929 . S
H68 C74 0.930 . S
C69 H66 0.929 . S
C69 C70 1.397 . S
C69 C71 1.397 1_556 S
C70 C69 1.397 . S
C70 C74 1.407 . S
C71 C69 1.397 1_554 S
C71 C72 1.394 . S
C72 H67 0.929 . S
C72 C71 1.394 . S
C72 C73 1.382 . S
C73 C72 1.382 . S
C73 C74 1.392 1_554 S
C73 N75 1.420 . S
C74 H68 0.930 . S
C74 C70 1.407 . S
C74 C73 1.392 1_556 S
N75 C73 1.420 . S
N75 C76 1.244 . S
C76 N75 1.244 . S
H77 C80 0.929 . S
H78 C83 0.929 . S
H79 C85 0.930 . S
C80 H77 0.929 . S
C80 C81 1.398 1_554 S
C80 C82 1.396 . S
C81 C80 1.398 1_556 S
C81 C85 1.407 . S
C82 C80 1.396 . S
C82 C83 1.394 . S
C83 H78 0.929 . S
C83 C82 1.394 . S
C83 C84 1.382 . S
C84 C83 1.382 . S
C84 C85 1.392 1_554 S
C84 N86 1.420 . S
C85 H79 0.930 . S
C85 C81 1.407 . S
C85 C84 1.392 1_556 S
N86 C84 1.420 . S
N86 C87 1.244 . S
C87 N86 1.244 . S
Eu88 C97 2.828 . S
Eu88 O99 2.392 . S
Eu88 O101 2.418 1_545 S
Eu88 O106 2.373 1_655 S
Eu88 O109 2.488 . S
Eu88 O110 2.471 . S
Eu88 O111 2.349 1_655 S
Eu89 O98 2.373 1_455 S
Eu89 O102 2.488 . S
Eu89 O103 2.471 . S
Eu89 O104 2.349 . S
Eu89 O107 2.392 1_565 S
Eu89 O108 2.418 1_565 S
Eu89 C118 2.828 . S
C90 O108 1.244 . S
C90 O111 1.265 . S
C91 C92 1.379 1_655 S
C91 C95 1.373 . S
C91 C97 1.505 . S
C92 C91 1.379 1_455 S
C92 C94 1.369 . S
C92 H120 0.930 . S
C93 C95 1.383 . S
C93 C96 1.382 1_655 S
C93 H121 0.930 . S
C94 C92 1.369 . S
C94 C96 1.392 . S
C94 H122 0.930 . S
C95 C91 1.373 . S
C95 C93 1.383 . S
C95 H123 0.931 . S
C96 C93 1.382 1_455 S
C96 C94 1.392 . S
C97 Eu88 2.828 . S
C97 C91 1.505 . S
C97 O109 1.249 . S
C97 O110 1.244 . S
O98 Eu89 2.373 1_655 S
O98 C100 1.250 1_565 S
O99 Eu88 2.392 . S
O99 C100 1.258 . S
C100 O98 1.250 1_545 S
C100 O99 1.258 . S
O101 Eu88 2.418 1_565 S
O101 C105 1.244 . S
O102 Eu89 2.488 . S
O102 C118 1.249 . S
O103 Eu89 2.471 . S
O103 C118 1.244 . S
O104 Eu89 2.349 . S
O104 C105 1.265 1_455 S
C105 O101 1.244 . S
C105 O104 1.265 1_655 S
O106 Eu88 2.373 1_455 S
O106 C119 1.258 . S
O107 Eu89 2.392 1_545 S
O107 C119 1.242 . S
O108 Eu89 2.418 1_545 S
O108 C90 1.244 . S
O109 Eu88 2.488 . S
O109 C97 1.249 . S
O110 Eu88 2.471 . S
O110 C97 1.244 . S
O111 Eu88 2.349 1_455 S
O111 C90 1.265 . S
C112 C113 1.379 . S
C112 C116 1.373 1_556 S
C112 C118 1.505 . S
C113 C112 1.379 . S
C113 C115 1.374 1_556 S
C113 H124 0.930 1_455 S
C114 C116 1.383 . S
C114 C117 1.382 . S
C114 H125 0.930 . S
C115 C113 1.374 1_554 S
C115 C117 1.401 . S
C115 H126 0.917 1_455 S
C116 C112 1.373 1_554 S
C116 C114 1.383 . S
C116 H127 0.931 . S
C117 C114 1.382 . S
C117 C115 1.401 . S
C118 Eu89 2.828 . S
C118 O102 1.249 . S
C118 O103 1.244 . S
C118 C112 1.505 . S
C119 O106 1.258 . S
C119 O107 1.242 . S
H120 C92 0.930 . S
H121 C93 0.930 . S
H122 C94 0.930 . S
H123 C95 0.931 . S
H124 C113 0.930 1_655 S
H125 C114 0.930 . S
H126 C115 0.917 1_655 S
H127 C116 0.931 . S
Eu128 C137 2.828 . S
Eu128 O139 2.392 . S
Eu128 O141 2.418 . S
Eu128 O146 2.373 . S
Eu128 O149 2.488 . S
Eu128 O150 2.471 . S
Eu128 O151 2.349 1_545 S
Eu129 O138 2.373 1_565 S
Eu129 O142 2.488 . S
Eu129 O143 2.471 1_565 S
Eu129 O144 2.349 1_565 S
Eu129 O147 2.392 . S
Eu129 O148 2.418 . S
Eu129 C158 2.828 . S
C130 O148 1.244 . S
C130 O151 1.265 . S
C131 C132 1.379 . S
C131 C135 1.373 . S
C131 C137 1.505 . S
C132 C131 1.379 . S
C132 C134 1.369 . S
C132 H160 0.930 1_545 S
C133 C135 1.383 . S
C133 C136 1.382 . S
C133 H161 0.930 . S
C134 C132 1.369 . S
C134 C136 1.392 . S
C134 H162 0.930 1_545 S
C135 C131 1.373 . S
C135 C133 1.383 . S
C135 H163 0.931 . S
C136 C133 1.382 . S
C136 C134 1.392 . S
C137 Eu128 2.828 . S
C137 C131 1.505 . S
C137 O149 1.249 . S
C137 O150 1.244 . S
O138 Eu129 2.373 1_545 S
O138 C140 1.258 . S
O139 Eu128 2.392 . S
O139 C140 1.242 . S
C140 O138 1.258 . S
C140 O139 1.242 . S
O141 Eu128 2.418 . S
O141 C145 1.244 . S
O142 Eu129 2.488 . S
O142 C158 1.249 . S
O143 Eu129 2.471 1_545 S
O143 C158 1.244 1_545 S
O144 Eu129 2.349 1_545 S
O144 C145 1.265 . S
C145 O141 1.244 . S
C145 O144 1.265 . S
O146 Eu128 2.373 . S
O146 C159 1.258 1_545 S
O147 Eu129 2.392 . S
O147 C159 1.242 . S
O148 Eu129 2.418 . S
O148 C130 1.244 . S
O149 Eu128 2.488 . S
O149 C137 1.249 . S
O150 Eu128 2.471 . S
O150 C137 1.244 . S
O151 Eu128 2.349 1_565 S
O151 C130 1.265 . S
C152 C153 1.379 1_565 S
C152 C156 1.373 . S
C152 C158 1.505 . S
C153 C152 1.379 1_545 S
C153 C155 1.369 . S
C153 H164 0.930 . S
C154 C156 1.383 . S
C154 C157 1.382 . S
C154 H165 0.930 . S
C155 C153 1.369 . S
C155 C157 1.392 1_545 S
C155 H166 0.930 . S
C156 C152 1.373 . S
C156 C154 1.383 . S
C156 H167 0.931 . S
C157 C154 1.382 . S
C157 C155 1.392 1_565 S
C158 Eu129 2.828 . S
C158 O142 1.249 . S
C158 O143 1.244 1_565 S
C158 C152 1.505 . S
C159 O146 1.258 1_565 S
C159 O147 1.242 . S
H160 C132 0.930 1_565 S
H161 C133 0.930 . S
H162 C134 0.930 1_565 S
H163 C135 0.931 . S
H164 C153 0.930 . S
H165 C154 0.930 . S
H166 C155 0.930 . S
H167 C156 0.931 . S
Eu168 C177 2.828 . S
Eu168 O179 2.392 . S
Eu168 O181 2.418 . S
Eu168 O186 2.373 . S
Eu168 O189 2.488 . S
Eu168 O190 2.471 . S
Eu168 O191 2.349 . S
Eu169 O178 2.373 . S
Eu169 O182 2.488 . S
Eu169 O183 2.471 . S
Eu169 O184 2.349 . S
Eu169 O187 2.392 . S
Eu169 O188 2.418 . S
Eu169 C198 2.828 . S
C170 O188 1.244 . S
C170 O191 1.265 . S
C171 C172 1.379 . S
C171 C175 1.373 . S
C171 C177 1.505 . S
C172 C171 1.379 . S
C172 C174 1.369 . S
C172 H200 0.930 . S
C173 C175 1.383 . S
C173 C176 1.382 . S
C173 H201 0.930 . S
C174 C172 1.369 . S
C174 C176 1.392 . S
C174 H202 0.930 . S
C175 C171 1.373 . S
C175 C173 1.383 . S
C175 H203 0.931 . S
C176 C173 1.382 . S
C176 C174 1.392 . S
C177 Eu168 2.828 . S
C177 C171 1.505 . S
C177 O189 1.249 . S
C177 O190 1.244 . S
O178 Eu169 2.373 . S
O178 C180 1.258 . S
O179 Eu168 2.392 . S
O179 C180 1.242 . S
C180 O178 1.258 . S
C180 O179 1.242 . S
O181 Eu168 2.418 . S
O181 C185 1.244 . S
O182 Eu169 2.488 . S
O182 C198 1.249 . S
O183 Eu169 2.471 . S
O183 C198 1.244 . S
O184 Eu169 2.349 . S
O184 C185 1.265 . S
C185 O181 1.244 . S
C185 O184 1.265 . S
O186 Eu168 2.373 . S
O186 C199 1.258 . S
O187 Eu169 2.392 . S
O187 C199 1.242 . S
O188 Eu169 2.418 . S
O188 C170 1.244 . S
O189 Eu168 2.488 . S
O189 C177 1.249 . S
O190 Eu168 2.471 . S
O190 C177 1.244 . S
O191 Eu168 2.349 . S
O191 C170 1.265 . S
C192 C193 1.379 . S
C192 C196 1.373 . S
C192 C198 1.505 . S
C193 C192 1.379 . S
C193 C195 1.369 . S
C193 H204 0.930 . S
C194 C196 1.383 . S
C194 C197 1.382 . S
C194 H205 0.930 . S
C195 C193 1.369 . S
C195 C197 1.392 . S
C195 H206 0.930 . S
C196 C192 1.373 . S
C196 C194 1.383 . S
C196 H207 0.931 . S
C197 C194 1.382 . S
C197 C195 1.392 . S
C198 Eu169 2.828 . S
C198 O182 1.249 . S
C198 O183 1.244 . S
C198 C192 1.505 . S
C199 O186 1.258 . S
C199 O187 1.242 . S
H200 C172 0.930 . S
H201 C173 0.930 . S
H202 C174 0.930 . S
H203 C175 0.931 . S
H204 C193 0.930 . S
H205 C194 0.930 . S
H206 C195 0.930 . S
H207 C196 0.931 . S
Eu208 C217 2.828 . S
Eu208 O219 2.392 . S
Eu208 O221 2.418 1_455 S
Eu208 O226 2.373 . S
Eu208 O229 2.488 . S
Eu208 O230 2.471 . S
Eu208 O231 2.349 . S
Eu209 O218 2.373 . S
Eu209 O222 2.488 . S
Eu209 O223 2.471 . S
Eu209 O224 2.349 . S
Eu209 O227 2.392 1_655 S
Eu209 O228 2.418 1_655 S
Eu209 C238 2.828 . S
C210 O228 1.244 . S
C210 O231 1.265 . S
C211 C212 1.379 . S
C211 C215 1.373 . S
C211 C217 1.505 . S
C212 C211 1.379 . S
C212 C214 1.369 . S
C212 H240 0.930 . S
C213 C215 1.383 . S
C213 C216 1.382 . S
C213 H241 0.930 . S
C214 C212 1.369 . S
C214 C216 1.392 . S
C214 H242 0.930 . S
C215 C211 1.373 . S
C215 C213 1.383 . S
C215 H243 0.931 . S
C216 C213 1.382 . S
C216 C214 1.392 . S
C217 Eu208 2.828 . S
C217 C211 1.505 . S
C217 O229 1.249 . S
C217 O230 1.244 . S
O218 Eu209 2.373 . S
O218 C220 1.253 1_655 S
O219 Eu208 2.392 . S
O219 C220 1.253 . S
C220 O218 1.253 1_455 S
C220 O219 1.253 . S
O221 Eu208 2.418 1_655 S
O221 C225 1.244 . S
O222 Eu209 2.488 . S
O222 C238 1.249 . S
O223 Eu209 2.471 . S
O223 C238 1.244 . S
O224 Eu209 2.349 . S
O224 C225 1.265 . S
C225 O221 1.244 . S
C225 O224 1.265 . S
O226 Eu208 2.373 . S
O226 C239 1.258 . S
O227 Eu209 2.392 1_455 S
O227 C239 1.242 . S
O228 Eu209 2.418 1_455 S
O228 C210 1.244 . S
O229 Eu208 2.488 . S
O229 C217 1.249 . S
O230 Eu208 2.471 . S
O230 C217 1.244 . S
O231 Eu208 2.349 . S
O231 C210 1.265 . S
C232 C233 1.379 . S
C232 C236 1.373 1_556 S
C232 C238 1.505 . S
C233 C232 1.379 . S
C233 C235 1.369 . S
C233 H244 0.930 . S
C234 C236 1.383 . S
C234 C237 1.382 . S
C234 H245 0.930 . S
C235 C233 1.369 . S
C235 C237 1.392 1_556 S
C235 H246 0.930 . S
C236 C232 1.373 1_554 S
C236 C234 1.383 . S
C236 H247 0.931 . S
C237 C234 1.382 . S
C237 C235 1.392 1_554 S
C238 Eu209 2.828 . S
C238 O222 1.249 . S
C238 O223 1.244 . S
C238 C232 1.505 . S
C239 O226 1.258 . S
C239 O227 1.242 . S
H240 C212 0.930 . S
H241 C213 0.930 . S
H242 C214 0.930 . S
H243 C215 0.931 . S
H244 C233 0.930 . S
H245 C234 0.930 . S
H246 C235 0.930 . S
H247 C236 0.931 . S
C248 C249 1.391 . S
C248 C250 1.394 . S
C248 H264 0.931 . S
C249 C248 1.391 . S
C249 C253 1.376 . S
C250 C248 1.394 . S
C250 C251 1.369 . S
C250 C254 1.514 1_545 S
C251 C250 1.369 . S
C251 C252 1.410 . S
C251 C259 1.503 . S
C252 C251 1.410 . S
C252 C253 1.392 . S
C252 C255 1.511 . S
C253 C249 1.376 . S
C253 C252 1.392 . S
C253 H265 0.929 . S
C254 C250 1.514 1_565 S
C254 H266 0.975 . S
C254 H267 0.943 1_565 S
C254 H268 0.982 . S
C255 C252 1.511 . S
C255 H269 0.961 . S
C255 H270 0.961 . S
C255 H271 0.961 . S
C256 C257 1.370 . S
C256 C258 1.363 . S
C256 H272 0.931 . S
C257 C256 1.370 . S
C257 C261 1.408 . S
C258 C256 1.363 . S
C258 C259 1.370 . S
C258 C262 1.524 . S
C259 C251 1.503 . S
C259 C258 1.370 . S
C259 C260 1.403 . S
C260 C259 1.403 . S
C260 C261 1.404 . S
C260 C263 1.539 1_545 S
C261 C257 1.408 . S
C261 C260 1.404 . S
C261 H273 0.930 1_545 S
C262 C258 1.524 . S
C262 H274 0.956 . S
C262 H275 0.961 . S
C262 H276 0.961 . S
C263 C260 1.539 1_565 S
C263 H277 0.958 . S
C263 H278 0.961 . S
C263 H279 0.960 . S
H264 C248 0.931 . S
H265 C253 0.929 . S
H266 C254 0.975 . S
H267 C254 0.943 1_545 S
H268 C254 0.982 . S
H269 C255 0.961 . S
H270 C255 0.961 . S
H271 C255 0.961 . S
H272 C256 0.931 . S
H273 C261 0.930 1_565 S
H274 C262 0.956 . S
H275 C262 0.961 . S
H276 C262 0.961 . S
H277 C263 0.958 . S
H278 C263 0.961 . S
H279 C263 0.960 . S
C280 C281 1.391 . S
C280 C282 1.394 . S
C280 H296 0.931 . S
C281 C280 1.391 . S
C281 C285 1.376 . S
C282 C280 1.394 . S
C282 C283 1.369 . S
C282 C286 1.531 . S
C283 C282 1.369 . S
C283 C284 1.410 . S
C283 C291 1.503 . S
C284 C283 1.410 . S
C284 C285 1.392 . S
C284 C287 1.511 . S
C285 C281 1.376 . S
C285 C284 1.392 . S
C285 H297 0.929 . S
C286 C282 1.531 . S
C286 H298 0.960 . S
C286 H299 0.962 . S
C286 H300 0.960 . S
C287 C284 1.511 . S
C287 H301 0.961 . S
C287 H302 0.961 . S
C287 H303 0.961 . S
C288 C289 1.370 . S
C288 C290 1.363 . S
C288 H304 0.931 . S
C289 C288 1.370 . S
C289 C293 1.408 . S
C290 C288 1.363 . S
C290 C291 1.370 . S
C290 C294 1.524 . S
C291 C283 1.503 . S
C291 C290 1.370 . S
C291 C292 1.403 . S
C292 C291 1.403 . S
C292 C293 1.404 . S
C292 C295 1.539 . S
C293 C289 1.408 . S
C293 C292 1.404 . S
C293 H305 0.930 . S
C294 C290 1.524 . S
C294 H306 0.956 . S
C294 H307 0.961 . S
C294 H308 0.961 . S
C295 C292 1.539 . S
C295 H309 0.958 . S
C295 H310 0.961 . S
C295 H311 0.960 . S
H296 C280 0.931 . S
H297 C285 0.929 . S
H298 C286 0.960 . S
H299 C286 0.962 . S
H300 C286 0.960 . S
H301 C287 0.961 . S
H302 C287 0.961 . S
H303 C287 0.961 . S
H304 C288 0.931 . S
H305 C293 0.930 . S
H306 C294 0.956 . S
H307 C294 0.961 . S
H308 C294 0.961 . S
H309 C295 0.958 . S
H310 C295 0.961 . S
H311 C295 0.960 . S
C312 C313 1.391 . S
C312 C314 1.394 . S
C312 H328 0.931 . S
C313 C312 1.391 . S
C313 C317 1.376 . S
C314 C312 1.394 . S
C314 C315 1.369 . S
C314 C318 1.531 . S
C315 C314 1.369 . S
C315 C316 1.410 . S
C315 C323 1.503 . S
C316 C315 1.410 . S
C316 C317 1.392 . S
C316 C319 1.511 . S
C317 C313 1.376 . S
C317 C316 1.392 . S
C317 H329 0.929 . S
C318 C314 1.531 . S
C318 H330 0.960 . S
C318 H331 0.962 . S
C318 H332 0.960 . S
C319 C316 1.511 . S
C319 H333 0.961 . S
C319 H334 0.961 . S
C319 H335 0.961 . S
C320 C321 1.370 . S
C320 C322 1.363 . S
C320 H336 0.931 . S
C321 C320 1.370 . S
C321 C325 1.408 . S
C322 C320 1.363 . S
C322 C323 1.370 . S
C322 C326 1.524 . S
C323 C315 1.503 . S
C323 C322 1.370 . S
C323 C324 1.403 . S
C324 C323 1.403 . S
C324 C325 1.404 . S
C324 C327 1.539 . S
C325 C321 1.408 . S
C325 C324 1.404 . S
C325 H337 0.930 . S
C326 C322 1.524 . S
C326 H338 0.956 . S
C326 H339 0.961 . S
C326 H340 0.961 . S
C327 C324 1.539 . S
C327 H341 0.958 . S
C327 H342 0.961 . S
C327 H343 0.960 . S
H328 C312 0.931 . S
H329 C317 0.929 . S
H330 C318 0.960 . S
H331 C318 0.962 . S
H332 C318 0.960 . S
H333 C319 0.961 . S
H334 C319 0.961 . S
H335 C319 0.961 . S
H336 C320 0.931 . S
H337 C325 0.930 . S
H338 C326 0.956 . S
H339 C326 0.961 . S
H340 C326 0.961 . S
H341 C327 0.958 . S
H342 C327 0.961 . S
H343 C327 0.960 . S
C344 C345 1.391 . S
C344 C346 1.394 . S
C344 H360 0.931 . S
C345 C344 1.391 . S
C345 C349 1.376 . S
C346 C344 1.394 . S
C346 C347 1.369 . S
C346 C350 1.531 . S
C347 C346 1.369 . S
C347 C348 1.410 . S
C347 C355 1.503 . S
C348 C347 1.410 . S
C348 C349 1.392 . S
C348 C351 1.511 . S
C349 C345 1.376 . S
C349 C348 1.392 . S
C349 H361 0.929 . S
C350 C346 1.531 . S
C350 H362 0.960 1_455 S
C350 H363 0.962 . S
C350 H364 0.960 1_455 S
C351 C348 1.511 . S
C351 H365 0.961 . S
C351 H366 0.961 . S
C351 H367 0.961 . S
C352 C353 1.370 . S
C352 C354 1.363 . S
C352 H368 0.931 . S
C353 C352 1.370 . S
C353 C357 1.408 . S
C354 C352 1.363 . S
C354 C355 1.370 . S
C354 C358 1.524 . S
C355 C347 1.503 . S
C355 C354 1.370 . S
C355 C356 1.403 . S
C356 C355 1.403 . S
C356 C357 1.404 . S
C356 C359 1.539 1_455 S
C357 C353 1.408 . S
C357 C356 1.404 . S
C357 H369 0.930 1_455 S
C358 C354 1.524 . S
C358 H370 0.956 . S
C358 H371 0.961 . S
C358 H372 0.961 . S
C359 C356 1.539 1_655 S
C359 H373 0.958 . S
C359 H374 0.961 . S
C359 H375 0.960 1_655 S
H360 C344 0.931 . S
H361 C349 0.929 . S
H362 C350 0.960 1_655 S
H363 C350 0.962 . S
H364 C350 0.960 1_655 S
H365 C351 0.961 . S
H366 C351 0.961 . S
H367 C351 0.961 . S
H368 C352 0.931 . S
H369 C357 0.930 1_655 S
H370 C358 0.956 . S
H371 C358 0.961 . S
H372 C358 0.961 . S
H373 C359 0.958 . S
H374 C359 0.961 . S
H375 C359 0.960 1_455 S
C376 C377 1.391 . S
C376 C378 1.394 . S
C376 H392 0.931 . S
C377 C376 1.391 . S
C377 C381 1.376 . S
C378 C376 1.394 . S
C378 C379 1.369 . S
C378 C382 1.531 . S
C379 C378 1.369 . S
C379 C380 1.410 . S
C379 C387 1.503 . S
C380 C379 1.410 . S
C380 C381 1.392 . S
C380 C383 1.511 . S
C381 C377 1.376 . S
C381 C380 1.392 . S
C381 H393 0.929 . S
C382 C378 1.531 . S
C382 H394 0.960 . S
C382 H395 0.962 . S
C382 H396 0.960 . S
C383 C380 1.511 . S
C383 H397 0.961 . S
C383 H398 0.961 1_554 S
C383 H399 0.961 1_554 S
C384 C385 1.370 1_545 S
C384 C386 1.363 1_556 S
C384 H400 0.931 . S
C385 C384 1.370 1_565 S
C385 C389 1.408 . S
C386 C384 1.363 1_554 S
C386 C387 1.370 1_545 S
C386 C390 1.524 . S
C387 C379 1.503 . S
C387 C386 1.370 1_565 S
C387 C388 1.403 1_554 S
C388 C387 1.403 1_556 S
C388 C389 1.404 . S
C388 C391 1.539 1_556 S
C389 C385 1.408 . S
C389 C388 1.404 . S
C389 H401 0.930 . S
C390 C386 1.524 . S
C390 H402 0.956 . S
C390 H403 0.961 . S
C390 H404 0.961 . S
C391 C388 1.539 1_554 S
C391 H405 0.958 . S
C391 H406 0.961 1_554 S
C391 H407 0.960 . S
H392 C376 0.931 . S
H393 C381 0.929 . S
H394 C382 0.960 . S
H395 C382 0.962 . S
H396 C382 0.960 . S
H397 C383 0.961 . S
H398 C383 0.961 1_556 S
H399 C383 0.961 1_556 S
H400 C384 0.931 . S
H401 C389 0.930 . S
H402 C390 0.956 . S
H403 C390 0.961 . S
H404 C390 0.961 . S
H405 C391 0.958 . S
H406 C391 0.961 1_556 S
H407 C391 0.960 . S
C408 C409 1.391 . S
C408 C410 1.394 . S
C408 H424 0.931 . S
C409 C408 1.391 . S
C409 C413 1.376 . S
C410 C408 1.394 . S
C410 C411 1.369 . S
C410 C414 1.531 . S
C411 C410 1.369 . S
C411 C412 1.410 . S
C411 C419 1.503 1_554 S
C412 C411 1.410 . S
C412 C413 1.392 . S
C412 C415 1.511 . S
C413 C409 1.376 . S
C413 C412 1.392 . S
C413 H425 0.929 . S
C414 C410 1.531 . S
C414 H426 0.960 . S
C414 H427 0.962 . S
C414 H428 0.960 . S
C415 C412 1.511 . S
C415 H429 0.961 . S
C415 H430 0.961 1_554 S
C415 H431 0.961 . S
C416 C417 1.370 . S
C416 C418 1.363 . S
C416 H432 0.931 . S
C417 C416 1.370 . S
C417 C421 1.408 . S
C418 C416 1.363 . S
C418 C419 1.370 . S
C418 C422 1.524 . S
C419 C411 1.503 1_556 S
C419 C418 1.370 . S
C419 C420 1.403 . S
C420 C419 1.403 . S
C420 C421 1.408 . S
C420 C423 1.535 1_556 S
C421 C417 1.408 . S
C421 C420 1.408 . S
C421 H433 0.930 . S
C422 C418 1.524 . S
C422 H434 0.956 . S
C422 H435 0.961 . S
C422 H436 0.961 . S
C423 C420 1.535 1_554 S
C423 H437 0.958 . S
C423 H438 0.961 . S
C423 H439 0.960 . S
H424 C408 0.931 . S
H425 C413 0.929 . S
H426 C414 0.960 . S
H427 C414 0.962 . S
H428 C414 0.960 . S
H429 C415 0.961 . S
H430 C415 0.961 1_556 S
H431 C415 0.961 . S
H432 C416 0.931 . S
H433 C421 0.930 . S
H434 C422 0.956 . S
H435 C422 0.961 . S
H436 C422 0.961 . S
H437 C423 0.958 . S
H438 C423 0.961 . S
H439 C423 0.960 . S
C440 C441 1.391 . S
C440 C442 1.394 . S
C440 H456 0.931 . S
C441 C440 1.391 . S
C441 C445 1.376 . S
C442 C440 1.394 . S
C442 C443 1.369 . S
C442 C446 1.531 . S
C443 C442 1.369 . S
C443 C444 1.410 . S
C443 C451 1.503 1_554 S
C444 C443 1.410 . S
C444 C445 1.392 . S
C444 C447 1.511 . S
C445 C441 1.376 . S
C445 C444 1.392 . S
C445 H457 0.929 . S
C446 C442 1.531 . S
C446 H458 0.960 1_554 S
C446 H459 0.962 1_554 S
C446 H460 0.960 . S
C447 C444 1.511 . S
C447 H461 0.961 . S
C447 H462 0.961 . S
C447 H463 0.961 . S
C448 C449 1.370 . S
C448 C450 1.363 . S
C448 H464 0.931 . S
C449 C448 1.370 . S
C449 C453 1.408 . S
C450 C448 1.363 . S
C450 C451 1.370 . S
C450 C454 1.524 . S
C451 C443 1.503 1_556 S
C451 C450 1.370 . S
C451 C452 1.403 . S
C452 C451 1.403 . S
C452 C453 1.404 . S
C452 C455 1.539 1_556 S
C453 C449 1.408 . S
C453 C452 1.404 . S
C453 H465 0.930 . S
C454 C450 1.524 . S
C454 H466 0.956 . S
C454 H467 0.961 . S
C454 H468 0.961 . S
C455 C452 1.539 1_554 S
C455 H469 0.958 . S
C455 H470 0.961 . S
C455 H471 0.960 . S
H456 C440 0.931 . S
H457 C445 0.929 . S
H458 C446 0.960 1_556 S
H459 C446 0.962 1_556 S
H460 C446 0.960 . S
H461 C447 0.961 . S
H462 C447 0.961 . S
H463 C447 0.961 . S
H464 C448 0.931 . S
H465 C453 0.930 . S
H466 C454 0.956 . S
H467 C454 0.961 . S
H468 C454 0.961 . S
H469 C455 0.958 . S
H470 C455 0.961 . S
H471 C455 0.960 . S
C472 C473 1.391 . S
C472 C474 1.394 . S
C472 H488 0.931 . S
C473 C472 1.391 . S
C473 C477 1.376 . S
C474 C472 1.394 . S
C474 C475 1.369 . S
C474 C478 1.531 . S
C475 C474 1.369 . S
C475 C476 1.410 1_655 S
C475 C483 1.503 . S
C476 C475 1.410 1_455 S
C476 C477 1.392 1_455 S
C476 C479 1.511 . S
C477 C473 1.376 . S
C477 C476 1.392 1_655 S
C477 H489 0.929 1_655 S
C478 C474 1.531 . S
C478 H490 0.960 1_554 S
C478 H491 0.962 . S
C478 H492 0.960 . S
C479 C476 1.511 . S
C479 H493 0.961 . S
C479 H494 0.961 . S
C479 H495 0.961 . S
C480 C481 1.370 . S
C480 C482 1.363 1_556 S
C480 H496 0.931 . S
C481 C480 1.370 . S
C481 C485 1.408 . S
C482 C480 1.363 1_554 S
C482 C483 1.370 . S
C482 C486 1.524 . S
C483 C475 1.503 . S
C483 C482 1.370 . S
C483 C484 1.403 1_554 S
C484 C483 1.403 1_556 S
C484 C485 1.404 . S
C484 C487 1.539 1_655 S
C485 C481 1.408 . S
C485 C484 1.404 . S
C485 H497 0.930 1_655 S
C486 C482 1.524 . S
C486 H498 0.956 . S
C486 H499 0.961 . S
C486 H500 0.961 . S
C487 C484 1.539 1_455 S
C487 H501 0.958 1_455 S
C487 H502 0.961 . S
C487 H503 0.960 . S
H488 C472 0.931 . S
H489 C477 0.929 1_455 S
H490 C478 0.960 1_556 S
H491 C478 0.962 . S
H492 C478 0.960 . S
H493 C479 0.961 . S
H494 C479 0.961 . S
H495 C479 0.961 . S
H496 C480 0.931 . S
H497 C485 0.930 1_455 S
H498 C486 0.956 . S
H499 C486 0.961 . S
H500 C486 0.961 . S
H501 C487 0.958 1_655 S
H502 C487 0.961 . S
H503 C487 0.960 . S
C504 C505 1.391 . S
C504 C506 1.394 . S
C504 H520 0.931 . S
C505 C504 1.391 . S
C505 C509 1.376 . S
C506 C504 1.394 . S
C506 C507 1.369 . S
C506 C510 1.531 . S
C507 C506 1.369 . S
C507 C508 1.410 . S
C507 C515 1.503 . S
C508 C507 1.410 . S
C508 C509 1.392 . S
C508 C511 1.511 1_455 S
C509 C505 1.376 . S
C509 C508 1.392 . S
C509 H521 0.929 . S
C510 C506 1.531 . S
C510 H522 0.960 . S
C510 H523 0.962 . S
C510 H524 0.960 . S
C511 C508 1.511 1_655 S
C511 H525 0.961 . S
C511 H526 0.961 . S
C511 H527 0.961 . S
C512 C513 1.370 . S
C512 C514 1.363 . S
C512 H528 0.931 . S
C513 C512 1.370 . S
C513 C517 1.408 . S
C514 C512 1.363 . S
C514 C515 1.370 . S
C514 C518 1.524 . S
C515 C507 1.503 . S
C515 C514 1.370 . S
C515 C516 1.403 . S
C516 C515 1.403 . S
C516 C517 1.404 . S
C516 C519 1.539 . S
C517 C513 1.408 . S
C517 C516 1.404 . S
C517 H529 0.930 1_455 S
C518 C514 1.524 . S
C518 H530 0.956 . S
C518 H531 0.961 . S
C518 H532 0.961 . S
C519 C516 1.539 . S
C519 H533 0.958 . S
C519 H534 0.961 1_455 S
C519 H535 0.960 . S
H520 C504 0.931 . S
H521 C509 0.929 . S
H522 C510 0.960 . S
H523 C510 0.962 . S
H524 C510 0.960 . S
H525 C511 0.961 . S
H526 C511 0.961 . S
H527 C511 0.961 . S
H528 C512 0.931 . S
H529 C517 0.930 1_655 S
H530 C518 0.956 . S
H531 C518 0.961 . S
H532 C518 0.961 . S
H533 C519 0.958 . S
H534 C519 0.961 1_655 S
H535 C519 0.960 . S
C536 C537 1.391 . S
C536 C538 1.394 . S
C536 H552 0.931 . S
C537 C536 1.391 . S
C537 C541 1.376 . S
C538 C536 1.394 . S
C538 C539 1.369 . S
C538 C542 1.531 1_545 S
C539 C538 1.369 . S
C539 C540 1.410 . S
C539 C547 1.503 . S
C540 C539 1.410 . S
C540 C541 1.392 . S
C540 C543 1.511 . S
C541 C537 1.376 . S
C541 C540 1.392 . S
C541 H553 0.929 . S
C542 C538 1.531 1_565 S
C542 H554 0.960 . S
C542 H555 0.962 . S
C542 H556 0.960 . S
C543 C540 1.511 . S
C543 H557 0.961 . S
C543 H558 0.961 . S
C543 H559 0.961 . S
C544 C545 1.370 . S
C544 C546 1.363 1_565 S
C544 H560 0.931 . S
C545 C544 1.370 . S
C545 C549 1.408 1_565 S
C546 C544 1.363 1_545 S
C546 C547 1.370 . S
C546 C550 1.524 . S
C547 C539 1.503 . S
C547 C546 1.370 . S
C547 C548 1.403 . S
C548 C547 1.403 . S
C548 C549 1.404 . S
C548 C551 1.539 . S
C549 C545 1.408 1_545 S
C549 C548 1.404 . S
C549 H561 0.930 . S
C550 C546 1.524 . S
C550 H562 0.956 1_545 S
C550 H563 0.961 . S
C550 H564 0.961 1_545 S
C551 C548 1.539 . S
C551 H565 0.958 . S
C551 H566 0.961 . S
C551 H567 0.960 . S
H552 C536 0.931 . S
H553 C541 0.929 . S
H554 C542 0.960 . S
H555 C542 0.962 . S
H556 C542 0.960 . S
H557 C543 0.961 . S
H558 C543 0.961 . S
H559 C543 0.961 . S
H560 C544 0.931 . S
H561 C549 0.930 . S
H562 C550 0.956 1_565 S
H563 C550 0.961 . S
H564 C550 0.961 1_565 S
H565 C551 0.958 . S
H566 C551 0.961 . S
H567 C551 0.960 . S
C568 C569 1.391 . S
C568 C570 1.394 . S
C568 H584 0.931 . S
C569 C568 1.391 . S
C569 C573 1.376 . S
C570 C568 1.394 . S
C570 C571 1.369 . S
C570 C574 1.531 . S
C571 C570 1.369 . S
C571 C572 1.410 . S
C571 C579 1.503 . S
C572 C571 1.410 . S
C572 C573 1.392 . S
C572 C575 1.511 . S
C573 C569 1.376 . S
C573 C572 1.392 . S
C573 H585 0.929 . S
C574 C570 1.531 . S
C574 H586 0.960 . S
C574 H587 0.962 . S
C574 H588 0.960 . S
C575 C572 1.511 . S
C575 H589 0.961 . S
C575 H590 0.961 . S
C575 H591 0.961 . S
C576 C577 1.370 . S
C576 C578 1.363 . S
C576 H592 0.931 . S
C577 C576 1.370 . S
C577 C581 1.408 . S
C578 C576 1.363 . S
C578 C579 1.370 . S
C578 C582 1.524 . S
C579 C571 1.503 . S
C579 C578 1.370 . S
C579 C580 1.403 . S
C580 C579 1.403 . S
C580 C581 1.404 . S
C580 C583 1.539 . S
C581 C577 1.408 . S
C581 C580 1.404 . S
C581 H593 0.930 . S
C582 C578 1.524 . S
C582 H594 0.956 . S
C582 H595 0.961 . S
C582 H596 0.961 . S
C583 C580 1.539 . S
C583 H597 0.958 . S
C583 H598 0.961 . S
C583 H599 0.960 . S
H584 C568 0.931 . S
H585 C573 0.929 . S
H586 C574 0.960 . S
H587 C574 0.962 . S
H588 C574 0.960 . S
H589 C575 0.961 . S
H590 C575 0.961 . S
H591 C575 0.961 . S
H592 C576 0.931 . S
H593 C581 0.930 . S
H594 C582 0.956 . S
H595 C582 0.961 . S
H596 C582 0.961 . S
H597 C583 0.958 . S
H598 C583 0.961 . S
H599 C583 0.960 . S
C600 C601 1.391 . S
C600 C602 1.394 . S
C600 H616 0.931 . S
C601 C600 1.391 . S
C601 C605 1.376 . S
C602 C600 1.394 . S
C602 C603 1.369 . S
C602 C606 1.531 . S
C603 C602 1.369 . S
C603 C604 1.410 . S
C603 C611 1.503 . S
C604 C603 1.410 . S
C604 C605 1.392 . S
C604 C607 1.511 . S
C605 C601 1.376 . S
C605 C604 1.392 . S
C605 H617 0.929 . S
C606 C602 1.531 . S
C606 H618 0.960 . S
C606 H619 0.962 . S
C606 H620 0.960 . S
C607 C604 1.511 . S
C607 H621 0.961 . S
C607 H622 0.961 . S
C607 H623 0.961 . S
C608 C609 1.370 . S
C608 C610 1.363 . S
C608 H624 0.931 . S
C609 C608 1.370 . S
C609 C613 1.408 . S
C610 C608 1.363 . S
C610 C611 1.370 . S
C610 C614 1.524 . S
C611 C603 1.503 . S
C611 C610 1.370 . S
C611 C612 1.403 . S
C612 C611 1.403 . S
C612 C613 1.404 . S
C612 C615 1.539 . S
C613 C609 1.408 . S
C613 C612 1.404 . S
C613 H625 0.930 . S
C614 C610 1.524 . S
C614 H626 0.956 . S
C614 H627 0.961 . S
C614 H628 0.961 . S
C615 C612 1.539 . S
C615 H629 0.958 . S
C615 H630 0.961 . S
C615 H631 0.960 . S
H616 C600 0.931 . S
H617 C605 0.929 . S
H618 C606 0.960 . S
H619 C606 0.962 . S
H620 C606 0.960 . S
H621 C607 0.961 . S
H622 C607 0.961 . S
H623 C607 0.961 . S
H624 C608 0.931 . S
H625 C613 0.930 . S
H626 C614 0.956 . S
H627 C614 0.961 . S
H628 C614 0.961 . S
H629 C615 0.958 . S
H630 C615 0.961 . S
H631 C615 0.960 . S
C632 C633 1.391 . S
C632 C634 1.394 1_655 S
C632 H648 0.931 1_655 S
C633 C632 1.391 . S
C633 C637 1.376 . S
C634 C632 1.394 1_455 S
C634 C635 1.369 1_455 S
C634 C638 1.531 . S
C635 C634 1.369 1_655 S
C635 C636 1.410 . S
C635 C643 1.503 . S
C636 C635 1.410 . S
C636 C637 1.392 . S
C636 C639 1.511 . S
C637 C633 1.376 . S
C637 C636 1.392 . S
C637 H649 0.929 . S
C638 C634 1.531 . S
C638 H650 0.960 . S
C638 H651 0.962 . S
C638 H652 0.960 . S
C639 C636 1.511 . S
C639 H653 0.961 . S
C639 H654 0.961 . S
C639 H655 0.961 . S
C640 C641 1.370 . S
C640 C642 1.363 1_455 S
C640 H656 0.931 . S
C641 C640 1.370 . S
C641 C645 1.408 . S
C642 C640 1.363 1_655 S
C642 C643 1.370 . S
C642 C646 1.524 . S
C643 C635 1.503 . S
C643 C642 1.370 . S
C643 C644 1.403 1_655 S
C644 C643 1.403 1_455 S
C644 C645 1.404 . S
C644 C647 1.539 . S
C645 C641 1.408 . S
C645 C644 1.404 . S
C645 H657 0.930 . S
C646 C642 1.524 . S
C646 H658 0.956 . S
C646 H659 0.961 . S
C646 H660 0.961 . S
C647 C644 1.539 . S
C647 H661 0.958 . S
C647 H662 0.961 1_554 S
C647 H663 0.960 1_455 S
H648 C632 0.931 1_455 S
H649 C637 0.929 . S
H650 C638 0.960 . S
H651 C638 0.962 . S
H652 C638 0.960 . S
H653 C639 0.961 . S
H654 C639 0.961 . S
H655 C639 0.961 . S
H656 C640 0.931 . S
H657 C645 0.930 . S
H658 C646 0.956 . S
H659 C646 0.961 . S
H660 C646 0.961 . S
H661 C647 0.958 . S
H662 C647 0.961 1_556 S
H663 C647 0.960 1_655 S
C664 C665 1.391 . S
C664 C666 1.394 . S
C664 H680 0.931 . S
C665 C664 1.391 . S
C665 C669 1.376 . S
C666 C664 1.394 . S
C666 C667 1.369 . S
C666 C670 1.524 1_565 S
C667 C666 1.369 . S
C667 C668 1.410 . S
C667 C675 1.503 1_565 S
C668 C667 1.410 . S
C668 C669 1.392 . S
C668 C671 1.511 . S
C669 C665 1.376 . S
C669 C668 1.392 . S
C669 H681 0.929 . S
C670 C666 1.524 1_545 S
C670 H682 0.956 1_545 S
C670 H683 0.981 . S
C670 H684 0.951 1_545 S
C671 C668 1.511 . S
C671 H685 0.961 . S
C671 H686 0.961 . S
C671 H687 0.961 . S
C672 C673 1.370 . S
C672 C674 1.363 . S
C672 H688 0.931 . S
C673 C672 1.370 . S
C673 C677 1.410 1_545 S
C674 C672 1.363 . S
C674 C675 1.370 . S
C674 C678 1.524 . S
C675 C667 1.503 1_545 S
C675 C674 1.370 . S
C675 C676 1.403 1_545 S
C676 C675 1.403 1_565 S
C676 C677 1.409 . S
C676 C679 1.539 . S
C677 C673 1.410 1_565 S
C677 C676 1.409 . S
C677 H689 0.923 1_554 S
C678 C674 1.524 . S
C678 H690 0.956 . S
C678 H691 0.961 . S
C678 H692 0.961 . S
C679 C676 1.539 . S
C679 H693 0.958 . S
C679 H694 0.961 . S
C679 H695 0.960 . S
H680 C664 0.931 . S
H681 C669 0.929 . S
H682 C670 0.956 1_565 S
H683 C670 0.981 . S
H684 C670 0.951 1_565 S
H685 C671 0.961 . S
H686 C671 0.961 . S
H687 C671 0.961 . S
H688 C672 0.931 . S
H689 C677 0.923 1_556 S
H690 C678 0.956 . S
H691 C678 0.961 . S
H692 C678 0.961 . S
H693 C679 0.958 . S
H694 C679 0.961 . S
H695 C679 0.960 . S
C696 C697 1.391 . S
C696 C698 1.394 . S
C696 H712 0.931 . S
C697 C696 1.391 . S
C697 C701 1.376 . S
C698 C696 1.394 . S
C698 C699 1.369 . S
C698 C702 1.531 . S
C699 C698 1.369 . S
C699 C700 1.410 . S
C699 C707 1.503 . S
C700 C699 1.410 . S
C700 C701 1.392 . S
C700 C703 1.511 . S
C701 C697 1.376 . S
C701 C700 1.392 . S
C701 H713 0.929 . S
C702 C698 1.531 . S
C702 H714 0.960 . S
C702 H715 0.962 . S
C702 H716 0.960 . S
C703 C700 1.511 . S
C703 H717 0.961 . S
C703 H718 0.961 . S
C703 H719 0.961 . S
C704 C705 1.370 . S
C704 C706 1.363 1_556 S
C704 H720 0.931 . S
C705 C704 1.370 . S
C705 C709 1.408 1_556 S
C706 C704 1.363 1_554 S
C706 C707 1.370 . S
C706 C710 1.524 . S
C707 C699 1.503 . S
C707 C706 1.370 . S
C707 C708 1.403 . S
C708 C707 1.403 . S
C708 C709 1.404 . S
C708 C711 1.539 . S
C709 C705 1.408 1_554 S
C709 C708 1.404 . S
C709 H721 0.930 . S
C710 C706 1.524 . S
C710 H722 0.956 . S
C710 H723 0.961 . S
C710 H724 0.961 1_554 S
C711 C708 1.539 . S
C711 H725 0.958 . S
C711 H726 0.961 . S
C711 H727 0.960 . S
H712 C696 0.931 . S
H713 C701 0.929 . S
H714 C702 0.960 . S
H715 C702 0.962 . S
H716 C702 0.960 . S
H717 C703 0.961 . S
H718 C703 0.961 . S
H719 C703 0.961 . S
H720 C704 0.931 . S
H721 C709 0.930 . S
H722 C710 0.956 . S
H723 C710 0.961 . S
H724 C710 0.961 1_556 S
H725 C711 0.958 . S
H726 C711 0.961 . S
H727 C711 0.960 . S
C728 C729 1.391 . S
C728 C730 1.394 . S
C728 H744 0.931 . S
C729 C728 1.391 . S
C729 C733 1.376 . S
C730 C728 1.394 . S
C730 C731 1.369 . S
C730 C734 1.531 . S
C731 C730 1.369 . S
C731 C732 1.410 . S
C731 C739 1.503 . S
C732 C731 1.410 . S
C732 C733 1.392 . S
C732 C735 1.511 . S
C733 C729 1.376 . S
C733 C732 1.392 . S
C733 H745 0.929 . S
C734 C730 1.531 . S
C734 H746 0.960 . S
C734 H747 0.962 . S
C734 H748 0.960 . S
C735 C732 1.511 . S
C735 H749 0.961 . S
C735 H750 0.961 . S
C735 H751 0.961 . S
C736 C737 1.370 . S
C736 C738 1.363 . S
C736 H752 0.931 . S
C737 C736 1.370 . S
C737 C741 1.408 . S
C738 C736 1.363 . S
C738 C739 1.370 . S
C738 C742 1.524 . S
C739 C731 1.503 . S
C739 C738 1.370 . S
C739 C740 1.403 . S
C740 C739 1.403 . S
C740 C741 1.404 . S
C740 C743 1.539 . S
C741 C737 1.408 . S
C741 C740 1.404 . S
C741 H753 0.930 . S
C742 C738 1.524 . S
C742 H754 0.956 . S
C742 H755 0.961 . S
C742 H756 0.961 . S
C743 C740 1.539 . S
C743 H757 0.958 . S
C743 H758 0.961 . S
C743 H759 0.960 . S
H744 C728 0.931 . S
H745 C733 0.929 . S
H746 C734 0.960 . S
H747 C734 0.962 . S
H748 C734 0.960 . S
H749 C735 0.961 . S
H750 C735 0.961 . S
H751 C735 0.961 . S
H752 C736 0.931 . S
H753 C741 0.930 . S
H754 C742 0.956 . S
H755 C742 0.961 . S
H756 C742 0.961 . S
H757 C743 0.958 . S
H758 C743 0.961 . S
H759 C743 0.960 . S
C760 C761 1.391 . S
C760 C762 1.394 . S
C760 H776 0.931 . S
C761 C760 1.391 . S
C761 C765 1.376 . S
C762 C760 1.394 . S
C762 C763 1.369 . S
C762 C766 1.531 . S
C763 C762 1.369 . S
C763 C764 1.410 . S
C763 C771 1.503 . S
C764 C763 1.410 . S
C764 C765 1.392 . S
C764 C767 1.511 1_455 S
C765 C761 1.376 . S
C765 C764 1.392 . S
C765 H777 0.929 . S
C766 C762 1.531 . S
C766 H778 0.960 . S
C766 H779 0.962 . S
C766 H780 0.960 . S
C767 C764 1.511 1_655 S
C767 H781 0.961 . S
C767 H782 0.961 . S
C767 H783 0.961 . S
C768 C769 1.370 . S
C768 C770 1.363 . S
C768 H784 0.931 . S
C769 C768 1.370 . S
C769 C773 1.408 . S
C770 C768 1.363 . S
C770 C771 1.370 . S
C770 C774 1.524 . S
C771 C763 1.503 . S
C771 C770 1.370 . S
C771 C772 1.403 . S
C772 C771 1.403 . S
C772 C773 1.404 . S
C772 C775 1.539 1_556 S
C773 C769 1.408 . S
C773 C772 1.404 . S
C773 H785 0.930 . S
C774 C770 1.524 . S
C774 H786 0.956 . S
C774 H787 0.961 . S
C774 H788 0.961 . S
C775 C772 1.539 1_554 S
C775 H789 0.958 . S
C775 H790 0.961 . S
C775 H791 0.960 . S
H776 C760 0.931 . S
H777 C765 0.929 . S
H778 C766 0.960 . S
H779 C766 0.962 . S
H780 C766 0.960 . S
H781 C767 0.961 . S
H782 C767 0.961 . S
H783 C767 0.961 . S
H784 C768 0.931 . S
H785 C773 0.930 . S
H786 C774 0.956 . S
H787 C774 0.961 . S
H788 C774 0.961 . S
H789 C775 0.958 . S
H790 C775 0.961 . S
H791 C775 0.960 . S
C792 C793 1.391 . S
C792 C794 1.394 . S
C792 H808 0.931 . S
C793 C792 1.391 . S
C793 C797 1.376 . S
C794 C792 1.394 . S
C794 C795 1.369 . S
C794 C798 1.531 . S
C795 C794 1.369 . S
C795 C796 1.410 . S
C795 C803 1.503 . S
C796 C795 1.410 . S
C796 C797 1.392 . S
C796 C799 1.511 . S
C797 C793 1.376 . S
C797 C796 1.392 . S
C797 H809 0.929 . S
C798 C794 1.531 . S
C798 H810 0.960 . S
C798 H811 0.962 1_545 S
C798 H812 0.960 . S
C799 C796 1.511 . S
C799 H813 0.961 . S
C799 H814 0.961 . S
C799 H815 0.961 . S
C800 C801 1.370 . S
C800 C802 1.363 . S
C800 H816 0.931 . S
C801 C800 1.370 . S
C801 C805 1.408 . S
C802 C800 1.363 . S
C802 C803 1.370 . S
C802 C806 1.524 . S
C803 C795 1.503 . S
C803 C802 1.370 . S
C803 C804 1.403 . S
C804 C803 1.403 . S
C804 C805 1.404 . S
C804 C807 1.539 . S
C805 C801 1.408 . S
C805 C804 1.404 . S
C805 H817 0.930 . S
C806 C802 1.524 . S
C806 H818 0.956 1_545 S
C806 H819 0.961 . S
C806 H820 0.961 1_545 S
C807 C804 1.539 . S
C807 H821 0.958 . S
C807 H822 0.961 . S
C807 H823 0.960 . S
H808 C792 0.931 . S
H809 C797 0.929 . S
H810 C798 0.960 . S
H811 C798 0.962 1_565 S
H812 C798 0.960 . S
H813 C799 0.961 . S
H814 C799 0.961 . S
H815 C799 0.961 . S
H816 C800 0.931 . S
H817 C805 0.930 . S
H818 C806 0.956 1_565 S
H819 C806 0.961 . S
H820 C806 0.961 1_565 S
H821 C807 0.958 . S
H822 C807 0.961 . S
H823 C807 0.960 . S
C824 C825 1.391 . S
C824 C826 1.394 . S
C824 H840 0.931 . S
C825 C824 1.391 . S
C825 C829 1.376 . S
C826 C824 1.394 . S
C826 C827 1.369 . S
C826 C830 1.531 . S
C827 C826 1.369 . S
C827 C828 1.410 . S
C827 C835 1.503 . S
C828 C827 1.410 . S
C828 C829 1.392 . S
C828 C831 1.511 . S
C829 C825 1.376 . S
C829 C828 1.392 . S
C829 H841 0.929 . S
C830 C826 1.531 . S
C830 H842 0.960 . S
C830 H843 0.962 . S
C830 H844 0.960 . S
C831 C828 1.511 . S
C831 H845 0.961 . S
C831 H846 0.961 . S
C831 H847 0.961 . S
C832 C833 1.370 . S
C832 C834 1.363 . S
C832 H848 0.931 . S
C833 C832 1.370 . S
C833 C837 1.408 . S
C834 C832 1.363 . S
C834 C835 1.370 . S
C834 C838 1.524 . S
C835 C827 1.503 . S
C835 C834 1.370 . S
C835 C836 1.403 . S
C836 C835 1.403 . S
C836 C837 1.404 . S
C836 C839 1.539 . S
C837 C833 1.408 . S
C837 C836 1.404 . S
C837 H849 0.930 . S
C838 C834 1.524 . S
C838 H850 0.956 . S
C838 H851 0.961 . S
C838 H852 0.961 1_556 S
C839 C836 1.539 . S
C839 H853 0.958 . S
C839 H854 0.961 . S
C839 H855 0.960 . S
H840 C824 0.931 . S
H841 C829 0.929 . S
H842 C830 0.960 . S
H843 C830 0.962 . S
H844 C830 0.960 . S
H845 C831 0.961 . S
H846 C831 0.961 . S
H847 C831 0.961 . S
H848 C832 0.931 . S
H849 C837 0.930 . S
H850 C838 0.956 . S
H851 C838 0.961 . S
H852 C838 0.961 1_554 S
H853 C839 0.958 . S
H854 C839 0.961 . S
H855 C839 0.960 . S
C856 C857 1.391 . S
C856 C858 1.394 . S
C856 H872 0.931 . S
C857 C856 1.391 . S
C857 C861 1.376 . S
C858 C856 1.394 . S
C858 C859 1.369 . S
C858 C862 1.531 . S
C859 C858 1.369 . S
C859 C860 1.410 . S
C859 C867 1.503 . S
C860 C859 1.410 . S
C860 C861 1.392 . S
C860 C863 1.511 1_556 S
C861 C857 1.376 . S
C861 C860 1.392 . S
C861 H873 0.929 1_556 S
C862 C858 1.531 . S
C862 H874 0.960 . S
C862 H875 0.962 . S
C862 H876 0.960 . S
C863 C860 1.511 1_554 S
C863 H877 0.961 . S
C863 H878 0.961 . S
C863 H879 0.961 . S
C864 C865 1.370 . S
C864 C866 1.363 . S
C864 H880 0.931 . S
C865 C864 1.370 . S
C865 C869 1.408 . S
C866 C864 1.363 . S
C866 C867 1.370 . S
C866 C870 1.524 . S
C867 C859 1.503 . S
C867 C866 1.370 . S
C867 C868 1.403 . S
C868 C867 1.403 . S
C868 C869 1.404 . S
C868 C871 1.539 . S
C869 C865 1.408 . S
C869 C868 1.404 . S
C869 H881 0.930 . S
C870 C866 1.524 . S
C870 H882 0.956 . S
C870 H883 0.961 . S
C870 H884 0.961 . S
C871 C868 1.539 . S
C871 H885 0.958 . S
C871 H886 0.961 . S
C871 H887 0.960 . S
H872 C856 0.931 . S
H873 C861 0.929 1_554 S
H874 C862 0.960 . S
H875 C862 0.962 . S
H876 C862 0.960 . S
H877 C863 0.961 . S
H878 C863 0.961 . S
H879 C863 0.961 . S
H880 C864 0.931 . S
H881 C869 0.930 . S
H882 C870 0.956 . S
H883 C870 0.961 . S
H884 C870 0.961 . S
H885 C871 0.958 . S
H886 C871 0.961 . S
H887 C871 0.960 . S
C888 C889 1.391 . S
C888 C890 1.394 . S
C888 H904 0.931 1_655 S
C889 C888 1.391 . S
C889 C893 1.376 . S
C890 C888 1.394 . S
C890 C891 1.369 . S
C890 C894 1.531 1_655 S
C891 C890 1.369 . S
C891 C892 1.410 . S
C891 C899 1.503 . S
C892 C891 1.410 . S
C892 C893 1.392 . S
C892 C895 1.511 . S
C893 C889 1.376 . S
C893 C892 1.392 . S
C893 H905 0.929 . S
C894 C890 1.531 1_455 S
C894 H906 0.960 . S
C894 H907 0.962 . S
C894 H908 0.960 . S
C895 C892 1.511 . S
C895 H909 0.961 . S
C895 H910 0.961 . S
C895 H911 0.961 . S
C896 C897 1.370 . S
C896 C898 1.363 . S
C896 H912 0.931 1_655 S
C897 C896 1.370 . S
C897 C901 1.408 . S
C898 C896 1.363 . S
C898 C899 1.370 . S
C898 C902 1.524 1_655 S
C899 C891 1.503 . S
C899 C898 1.370 . S
C899 C900 1.403 . S
C900 C899 1.403 . S
C900 C901 1.404 . S
C900 C903 1.539 . S
C901 C897 1.408 . S
C901 C900 1.404 . S
C901 H913 0.930 . S
C902 C898 1.524 1_455 S
C902 H914 0.956 . S
C902 H915 0.961 1_455 S
C902 H916 0.961 . S
C903 C900 1.539 . S
C903 H917 0.958 . S
C903 H918 0.961 . S
C903 H919 0.960 . S
H904 C888 0.931 1_455 S
H905 C893 0.929 . S
H906 C894 0.960 . S
H907 C894 0.962 . S
H908 C894 0.960 . S
H909 C895 0.961 . S
H910 C895 0.961 . S
H911 C895 0.961 . S
H912 C896 0.931 1_455 S
H913 C901 0.930 . S
H914 C902 0.956 . S
H915 C902 0.961 1_655 S
H916 C902 0.961 . S
H917 C903 0.958 . S
H918 C903 0.961 . S
H919 C903 0.960 . S
C920 C921 1.391 . S
C920 C922 1.394 . S
C920 H936 0.931 1_565 S
C921 C920 1.391 . S
C921 C925 1.376 . S
C922 C920 1.394 . S
C922 C923 1.369 . S
C922 C926 1.531 1_565 S
C923 C922 1.369 . S
C923 C924 1.410 . S
C923 C931 1.503 . S
C924 C923 1.410 . S
C924 C925 1.392 . S
C924 C927 1.511 . S
C925 C921 1.376 . S
C925 C924 1.392 . S
C925 H937 0.929 . S
C926 C922 1.531 1_545 S
C926 H938 0.960 . S
C926 H939 0.962 . S
C926 H940 0.960 . S
C927 C924 1.511 . S
C927 H941 0.961 . S
C927 H942 0.961 . S
C927 H943 0.961 . S
C928 C929 1.370 . S
C928 C930 1.363 . S
C928 H944 0.931 1_565 S
C929 C928 1.370 . S
C929 C933 1.408 . S
C930 C928 1.363 . S
C930 C931 1.370 . S
C930 C934 1.524 1_565 S
C931 C923 1.503 . S
C931 C930 1.370 . S
C931 C932 1.403 . S
C932 C931 1.403 . S
C932 C933 1.404 . S
C932 C935 1.539 . S
C933 C929 1.408 . S
C933 C932 1.404 . S
C933 H945 0.930 . S
C934 C930 1.524 1_545 S
C934 H946 0.956 . S
C934 H947 0.961 1_545 S
C934 H948 0.961 . S
C935 C932 1.539 . S
C935 H949 0.958 . S
C935 H950 0.961 . S
C935 H951 0.960 . S
H936 C920 0.931 1_545 S
H937 C925 0.929 . S
H938 C926 0.960 . S
H939 C926 0.962 . S
H940 C926 0.960 . S
H941 C927 0.961 . S
H942 C927 0.961 . S
H943 C927 0.961 . S
H944 C928 0.931 1_545 S
H945 C933 0.930 . S
H946 C934 0.956 . S
H947 C934 0.961 1_565 S
H948 C934 0.961 . S
H949 C935 0.958 . S
H950 C935 0.961 . S
H951 C935 0.960 . S
C952 C953 1.391 . S
C952 C954 1.394 . S
C952 H968 0.931 . S
C953 C952 1.391 . S
C953 C957 1.376 . S
C954 C952 1.394 . S
C954 C955 1.369 . S
C954 C958 1.531 . S
C955 C954 1.369 . S
C955 C956 1.410 . S
C955 C963 1.503 . S
C956 C955 1.410 . S
C956 C957 1.392 . S
C956 C959 1.511 . S
C957 C953 1.376 . S
C957 C956 1.392 . S
C957 H969 0.929 . S
C958 C954 1.531 . S
C958 H970 0.960 . S
C958 H971 0.962 . S
C958 H972 0.960 . S
C959 C956 1.511 . S
C959 H973 0.961 . S
C959 H974 0.961 . S
C959 H975 0.961 . S
C960 C961 1.370 . S
C960 C962 1.363 . S
C960 H976 0.931 . S
C961 C960 1.370 . S
C961 C965 1.408 . S
C962 C960 1.363 . S
C962 C963 1.370 . S
C962 C966 1.524 . S
C963 C955 1.503 . S
C963 C962 1.370 . S
C963 C964 1.403 . S
C964 C963 1.403 . S
C964 C965 1.404 . S
C964 C967 1.539 . S
C965 C961 1.408 . S
C965 C964 1.404 . S
C965 H977 0.930 . S
C966 C962 1.524 . S
C966 H978 0.956 . S
C966 H979 0.961 . S
C966 H980 0.961 . S
C967 C964 1.539 . S
C967 H981 0.958 . S
C967 H982 0.961 . S
C967 H983 0.960 . S
H968 C952 0.931 . S
H969 C957 0.929 . S
H970 C958 0.960 . S
H971 C958 0.962 . S
H972 C958 0.960 . S
H973 C959 0.961 . S
H974 C959 0.961 . S
H975 C959 0.961 . S
H976 C960 0.931 . S
H977 C965 0.930 . S
H978 C966 0.956 . S
H979 C966 0.961 . S
H980 C966 0.961 . S
H981 C967 0.958 . S
H982 C967 0.961 . S
H983 C967 0.960 . S
C984 C985 1.391 . S
C984 C986 1.394 . S
C984 H1000 0.931 . S
C985 C984 1.391 . S
C985 C989 1.376 . S
C986 C984 1.394 . S
C986 C987 1.369 . S
C986 C990 1.531 . S
C987 C986 1.369 . S
C987 C988 1.410 . S
C987 C995 1.503 . S
C988 C987 1.410 . S
C988 C989 1.392 . S
C988 C991 1.511 . S
C989 C985 1.376 . S
C989 C988 1.392 . S
C989 H1001 0.929 . S
C990 C986 1.531 . S
C990 H1002 0.960 . S
C990 H1003 0.962 . S
C990 H1004 0.960 . S
C991 C988 1.511 . S
C991 H1005 0.961 . S
C991 H1006 0.961 . S
C991 H1007 0.961 . S
C992 C993 1.370 . S
C992 C994 1.363 . S
C992 H1008 0.931 . S
C993 C992 1.370 . S
C993 C997 1.408 . S
C994 C992 1.363 . S
C994 C995 1.370 . S
C994 C998 1.524 . S
C995 C987 1.503 . S
C995 C994 1.370 . S
C995 C996 1.403 . S
C996 C995 1.403 . S
C996 C997 1.404 . S
C996 C999 1.539 . S
C997 C993 1.408 . S
C997 C996 1.404 . S
C997 H1009 0.930 . S
C998 C994 1.524 . S
C998 H1010 0.956 . S
C998 H1011 0.961 . S
C998 H1012 0.961 . S
C999 C996 1.539 . S
C999 H1013 0.958 . S
C999 H1014 0.961 . S
C999 H1015 0.960 . S
H1000 C984 0.931 . S
H1001 C989 0.929 . S
H1002 C990 0.960 . S
H1003 C990 0.962 . S
H1004 C990 0.960 . S
H1005 C991 0.961 . S
H1006 C991 0.961 . S
H1007 C991 0.961 . S
H1008 C992 0.931 . S
H1009 C997 0.930 . S
H1010 C998 0.956 . S
H1011 C998 0.961 . S
H1012 C998 0.961 . S
H1013 C999 0.958 . S
H1014 C999 0.961 . S
H1015 C999 0.960 . S
C249 C76 2.126 . S
C257 C119 2.329 . S
C289 C145 1.883 . S
C281 C87 1.694 . S
C321 C185 1.949 . S
C313 C54 1.843 . S
C353 C239 2.373 . S
C345 C65 2.188 . S
C385 C100 2.323 1_565 S
C377 C32 2.152 . S
C409 C43 1.746 . S
C417 C130 1.881 . S
C441 C10 1.839 . S
C449 C170 1.948 . S
C473 C21 2.189 . S
C481 C220 2.368 1_655 S
C513 C96 0.490 . S
C505 C60 0.605 . S
C545 C157 0.647 . S
C537 C71 0.657 . S
C577 C197 0.575 . S
C569 C82 0.581 . S
C601 C49 0.563 . S
C609 C216 0.386 . S
C633 C16 0.618 . S
C641 C117 0.481 . S
C673 C136 0.654 1_554 S
C665 C27 0.723 . S
C705 C176 0.554 . S
C697 C38 0.504 . S
C729 C5 0.440 . S
C737 C237 0.419 . S
C761 C59 1.848 . S
C769 C90 2.113 . S
C793 C70 2.393 . S
C801 C140 2.600 . S
C833 C180 2.384 . S
C825 C81 2.203 . S
C865 C210 1.876 . S
C857 C48 1.666 . S
C889 C15 1.846 . S
C897 C105 2.112 . S
C929 C159 2.599 . S
C921 C26 2.344 . S
C961 C199 2.385 . S
C953 C37 2.182 . S
C985 C4 1.704 . S
C993 C225 1.876 . S
