# Generated by pormake.
# Topology nom, (4,4)-cn, num edge types: 1
# Building blocks:
#     Node 0, Type 0, BuildingBlock: KUFVIS_clean_linker_0, # of connection points: 4
#     Node 1, Type 0, BuildingBlock: KUFVIS_clean_linker_0, # of connection points: 4
#     Node 2, Type 0, BuildingBlock: KUFVIS_clean_linker_0, # of connection points: 4
#     Node 3, Type 0, BuildingBlock: KUFVIS_clean_linker_0, # of connection points: 4
#     Node 4, Type 0, BuildingBlock: KUFVIS_clean_linker_0, # of connection points: 4
#     Node 5, Type 0, BuildingBlock: KUFVIS_clean_linker_0, # of connection points: 4
#     Node 6, Type 1, BuildingBlock: QUQFOY_clean_sbu_1, # of connection points: 4
#     Node 7, Type 1, BuildingBlock: QUQFOY_clean_sbu_1, # of connection points: 4
#     Node 8, Type 1, BuildingBlock: QUQFOY_clean_sbu_1, # of connection points: 4
#     Node 9, Type 1, BuildingBlock: QUQFOY_clean_sbu_1, # of connection points: 4
#     Node 10, Type 1, BuildingBlock: QUQFOY_clean_sbu_1, # of connection points: 4
#     Node 11, Type 1, BuildingBlock: QUQFOY_clean_sbu_1, # of connection points: 4
#     Edge 12, Type (0, 1), BuildingBlock: MIFKUJ_clean_linker_0, # of connection points: 2
#     Edge 13, Type (0, 1), BuildingBlock: MIFKUJ_clean_linker_0, # of connection points: 2
#     Edge 14, Type (0, 1), BuildingBlock: MIFKUJ_clean_linker_0, # of connection points: 2
#     Edge 15, Type (0, 1), BuildingBlock: MIFKUJ_clean_linker_0, # of connection points: 2
#     Edge 16, Type (0, 1), BuildingBlock: MIFKUJ_clean_linker_0, # of connection points: 2
#     Edge 17, Type (0, 1), BuildingBlock: MIFKUJ_clean_linker_0, # of connection points: 2
#     Edge 18, Type (0, 1), BuildingBlock: MIFKUJ_clean_linker_0, # of connection points: 2
#     Edge 19, Type (0, 1), BuildingBlock: MIFKUJ_clean_linker_0, # of connection points: 2
#     Edge 20, Type (0, 1), BuildingBlock: MIFKUJ_clean_linker_0, # of connection points: 2
#     Edge 21, Type (0, 1), BuildingBlock: MIFKUJ_clean_linker_0, # of connection points: 2
#     Edge 22, Type (0, 1), BuildingBlock: MIFKUJ_clean_linker_0, # of connection points: 2
#     Edge 23, Type (0, 1), BuildingBlock: MIFKUJ_clean_linker_0, # of connection points: 2
#     Edge 24, Type (0, 1), BuildingBlock: MIFKUJ_clean_linker_0, # of connection points: 2
#     Edge 25, Type (0, 1), BuildingBlock: MIFKUJ_clean_linker_0, # of connection points: 2
#     Edge 26, Type (0, 1), BuildingBlock: MIFKUJ_clean_linker_0, # of connection points: 2
#     Edge 27, Type (0, 1), BuildingBlock: MIFKUJ_clean_linker_0, # of connection points: 2
#     Edge 28, Type (0, 1), BuildingBlock: MIFKUJ_clean_linker_0, # of connection points: 2
#     Edge 29, Type (0, 1), BuildingBlock: MIFKUJ_clean_linker_0, # of connection points: 2
#     Edge 30, Type (0, 1), BuildingBlock: MIFKUJ_clean_linker_0, # of connection points: 2
#     Edge 31, Type (0, 1), BuildingBlock: MIFKUJ_clean_linker_0, # of connection points: 2
#     Edge 32, Type (0, 1), BuildingBlock: MIFKUJ_clean_linker_0, # of connection points: 2
#     Edge 33, Type (0, 1), BuildingBlock: MIFKUJ_clean_linker_0, # of connection points: 2
#     Edge 34, Type (0, 1), BuildingBlock: MIFKUJ_clean_linker_0, # of connection points: 2
#     Edge 35, Type (0, 1), BuildingBlock: MIFKUJ_clean_linker_0, # of connection points: 2
# Relax obj value: 0.005
# Max RMSD: 0.092
# Mean RMSD: 0.068
data_MOF--net-nom--node1-QUQFOY_clean_sbu_1--node2-KUFVIS_clean_linker_0--edge1-MIFKUJ_clean_linker_0
_symmetry_space_group_name_H-M    P1
_symmetry_Int_Tables_number       1
_symmetry_cell_setting            triclinic
loop_
_symmetry_equiv_pos_as_xyz
'x, y, z'
_cell_length_a     61.863045
_cell_length_b     61.921947
_cell_length_c     56.34332
_cell_angle_alpha  90.006629
_cell_angle_beta   90.030594
_cell_angle_gamma 119.97127
loop_
_atom_site_label
_atom_site_type_symbol
_atom_site_fract_x
_atom_site_fract_y
_atom_site_fract_z
_atom_type_partial_charge
H0 H 0.10261 0.5749 0.32854 0.0
H1 H 0.04102 0.56077 0.28355 0.0
H2 H 0.02859 0.53611 0.35688 0.0
H3 H 0.99483 0.54108 0.35185 0.0
H4 H 0.93114 0.49905 0.30735 0.0
H5 H 1.00411 0.5235 0.27936 0.0
C6 C 0.08263 0.56668 0.32594 0.0
C7 C 0.06655 0.55556 0.34508 0.0
C8 C 0.07353 0.56849 0.30382 0.0
C9 C 0.04777 0.55872 0.30066 0.0
C10 C 0.03096 0.54644 0.31961 0.0
C11 C 0.04079 0.54532 0.34196 0.0
C12 C 1.00331 0.53423 0.31601 0.0
C13 C 0.9873 0.53253 0.33481 0.0
C14 C 0.96133 0.51973 0.33163 0.0
C15 C 0.95123 0.50886 0.30975 0.0
C16 C 0.96655 0.51035 0.29093 0.0
C17 C 0.99253 0.5231 0.29396 0.0
H18 H 0.52897 0.10152 0.50037 0.0
H19 H 0.49703 0.04038 0.45166 0.0
H20 H 0.50026 0.02761 0.52713 0.0
H21 H 0.46478 0.99182 0.519 0.0
H22 H 0.45249 0.93051 0.47487 0.0
H23 H 0.49862 1.00494 0.44915 0.0
C24 C 0.51954 0.08153 0.4972 0.0
C25 C 0.51417 0.06539 0.51624 0.0
C26 C 0.51416 0.07269 0.47406 0.0
C27 C 0.50188 0.04691 0.46975 0.0
C28 C 0.49618 0.02994 0.48887 0.0
C29 C 0.50312 0.0397 0.51216 0.0
C30 C 0.48366 1.00232 0.48472 0.0
C31 C 0.46846 0.98529 0.50251 0.0
C32 C 0.45758 0.95951 0.49898 0.0
C33 C 0.46133 0.9505 0.47764 0.0
C34 C 0.47579 0.96679 0.45963 0.0
C35 C 0.48698 0.99263 0.46312 0.0
H36 H 0.52444 0.43773 0.63603 0.0
H37 H 0.48373 0.45804 0.68378 0.0
H38 H 0.50255 0.48988 0.61303 0.0
H39 H 0.46601 0.48921 0.61663 0.0
H40 H 0.44035 0.5244 0.66542 0.0
H41 H 0.48484 0.49428 0.69146 0.0
C42 C 0.51505 0.44824 0.63964 0.0
C43 C 0.51408 0.46357 0.62207 0.0
C44 C 0.50464 0.44668 0.66196 0.0
C45 C 0.49241 0.46018 0.66661 0.0
C46 C 0.49097 0.47574 0.64895 0.0
C47 C 0.5025 0.47763 0.62676 0.0
C48 C 0.47725 0.48963 0.65346 0.0
C49 C 0.46546 0.49504 0.63462 0.0
C50 C 0.45255 0.5079 0.63899 0.0
C51 C 0.45048 0.51456 0.66213 0.0
C52 C 0.46166 0.50925 0.68102 0.0
C53 C 0.47555 0.4974 0.67668 0.0
H54 H 0.10456 0.53823 0.8078 0.0
H55 H 0.04454 0.4891 0.85313 0.0
H56 H 0.02951 0.50582 0.78226 0.0
H57 H 0.99489 0.46861 0.78606 0.0
H58 H 0.93409 0.44053 0.83521 0.0
H59 H 1.00823 0.48776 0.86088 0.0
C60 C 0.08465 0.52649 0.81078 0.0
C61 C 0.06789 0.52297 0.79257 0.0
C62 C 0.07624 0.51447 0.83255 0.0
C63 C 0.0506 0.49874 0.83632 0.0
C64 C 0.03309 0.49549 0.81842 0.0
C65 C 0.04219 0.50765 0.79638 0.0
C66 C 1.00557 0.47992 0.82291 0.0
C67 C 0.98848 0.46755 0.80411 0.0
C68 C 0.96272 0.45378 0.80858 0.0
C69 C 0.95401 0.45129 0.83179 0.0
C70 C 0.97041 0.46313 0.85056 0.0
C71 C 0.99602 0.47785 0.84615 0.0
H72 H 0.51205 0.93075 0.0029 0.0
H73 H 0.54595 0.99145 0.95408 0.0
H74 H 0.53343 1.00409 0.02745 0.0
H75 H 0.56585 0.04187 0.02148 0.0
H76 H 0.58243 0.10038 0.9718 0.0
H77 H 0.54377 0.02507 0.94745 0.0
C78 C 0.52063 0.95061 -0.00057 0.0
C79 C 0.52296 0.96671 0.01779 0.0
C80 C 0.52823 0.95945 0.97649 0.0
C81 C 0.53937 0.98506 0.97189 0.0
C82 C 0.5418 1.00195 0.99017 0.0
C83 C 0.5329 0.9922 0.01313 0.0
C84 C 0.55307 0.02938 0.98522 0.0
C85 C 0.56448 0.04737 0.00357 0.0
C86 C 0.57424 0.07287 -0.00115 0.0
C87 C 0.57409 0.08062 0.97565 0.0
C88 C 0.56377 0.06346 0.95722 0.0
C89 C 0.55261 0.03793 0.96199 0.0
H90 H 0.51102 0.59573 0.14703 0.0
H91 H 0.54587 0.56553 0.19096 0.0
H92 H 0.53815 0.55111 0.11514 0.0
H93 H 0.57355 0.55011 0.12019 0.0
H94 H 0.58834 0.50048 0.16033 0.0
H95 H 0.54329 0.52782 0.1912 0.0
C96 C 0.5206 0.58512 0.14864 0.0
C97 C 0.52479 0.57468 0.12844 0.0
C98 C 0.52772 0.58147 0.17107 0.0
C99 C 0.53985 0.56755 0.17347 0.0
C100 C 0.54415 0.5565 0.15329 0.0
C101 C 0.53598 0.55991 0.13084 0.0
C102 C 0.55671 0.54118 0.15547 0.0
C103 C 0.5708 0.53962 0.13636 0.0
C104 C 0.58166 0.52452 0.13811 0.0
C105 C 0.57922 0.51152 0.15901 0.0
C106 C 0.56562 0.51275 0.17823 0.0
C107 C 0.55435 0.52756 0.17644 0.0
O108 O 0.61889 0.38029 0.43273 0.0
Cd109 Cd 0.62418 0.36538 0.40205 0.0
Cd110 Cd 0.67061 0.41139 0.40391 0.0
O111 O 0.65512 0.41532 0.43491 0.0
O112 O 0.59518 0.33057 0.40149 0.0
O113 O 0.63426 0.33894 0.4031 0.0
C114 C 0.61076 0.32255 0.40258 0.0
C115 C 0.71376 0.42595 0.40332 0.0
C116 C 0.63342 0.40078 0.44308 0.0
C117 C 0.63533 0.40226 0.36265 0.0
O118 O 0.65591 0.41655 0.37299 0.0
O119 O 0.62046 0.38075 0.37095 0.0
O120 O 0.70505 0.44096 0.40389 0.0
O121 O 0.6979 0.40233 0.4035 0.0
O122 O 0.25178 0.61528 0.5959 0.0
Cd123 Cd 0.27418 0.62247 0.56645 0.0
Cd124 Cd 0.27371 0.66819 0.5704 0.0
O125 O 0.25473 0.652 0.60139 0.0
O126 O 0.27975 0.59334 0.56592 0.0
O127 O 0.31056 0.63211 0.56949 0.0
C128 C 0.30327 0.60861 0.56847 0.0
C129 C 0.30183 0.71134 0.57001 0.0
C130 C 0.24637 0.62948 0.60764 0.0
C131 C 0.24913 0.63466 0.5275 0.0
O132 O 0.2536 0.65384 0.53951 0.0
O133 O 0.25718 0.6204 0.53437 0.0
O134 O 0.27808 0.7024 0.57088 0.0
O135 O 0.30991 0.69572 0.56991 0.0
O136 O 0.65325 0.25235 0.7688 0.0
Cd137 Cd 0.66944 0.27188 0.73816 0.0
Cd138 Cd 0.62249 0.27194 0.73714 0.0
O139 O 0.61729 0.25191 0.76803 0.0
O140 O 0.70404 0.27718 0.73949 0.0
O141 O 0.69624 0.30827 0.73954 0.0
C142 C 0.71236 0.30082 0.74026 0.0
C143 C 0.6057 0.29865 0.73544 0.0
C144 C 0.63196 0.2457 0.77773 0.0
C145 C 0.6347 0.2468 0.69694 0.0
O146 O 0.62012 0.25346 0.70597 0.0
O147 O 0.65537 0.25255 0.70682 0.0
O148 O 0.59176 0.27479 0.73504 0.0
O149 O 0.62949 0.30765 0.73728 0.0
O150 O 0.41835 0.65237 0.93421 0.0
Cd151 Cd 0.41457 0.66714 0.90282 0.0
Cd152 Cd 0.368 0.62054 0.90318 0.0
O153 O 0.38389 0.61551 0.93338 0.0
O154 O 0.44434 0.70141 0.90313 0.0
O155 O 0.40576 0.69456 0.90316 0.0
C156 C 0.42944 0.71026 0.90364 0.0
C157 C 0.32489 0.60576 0.90335 0.0
C158 C 0.40445 0.63093 0.94312 0.0
C159 C 0.40369 0.63105 0.86231 0.0
O160 O 0.38238 0.61706 0.87146 0.0
O161 O 0.41913 0.65161 0.87204 0.0
O162 O 0.3337 0.59084 0.90262 0.0
O163 O 0.34063 0.62938 0.90444 0.0
O164 O 0.77876 0.379 0.03778 0.0
Cd165 Cd 0.75853 0.36544 0.06874 0.0
Cd166 Cd 0.75941 0.41199 0.06458 0.0
O167 O 0.77745 0.41379 0.03331 0.0
O168 O 0.75274 0.33069 0.07062 0.0
O169 O 0.72205 0.33892 0.06722 0.0
C170 C 0.72918 0.3226 0.06866 0.0
C171 C 0.73138 0.42718 0.06496 0.0
C172 C 0.78438 0.39873 0.02616 0.0
C173 C 0.78555 0.40408 0.10655 0.0
O174 O 0.78048 0.41853 0.09483 0.0
O175 O 0.77733 0.38168 0.09991 0.0
O176 O 0.75511 0.44187 0.06347 0.0
O177 O 0.72327 0.40351 0.06582 0.0
O178 O 0.41712 0.77746 0.20705 0.0
Cd179 Cd 0.41213 0.75808 0.23835 0.0
Cd180 Cd 0.366 0.75859 0.23591 0.0
O181 O 0.38093 0.77632 0.20419 0.0
O182 O 0.44166 0.75304 0.23884 0.0
O183 O 0.40293 0.72172 0.23795 0.0
C184 C 0.42655 0.72935 0.23814 0.0
C185 C 0.32291 0.73004 0.23756 0.0
C186 C 0.40258 0.78304 0.19613 0.0
C187 C 0.40174 0.78574 0.27658 0.0
O188 O 0.38158 0.78013 0.26573 0.0
O189 O 0.4159 0.77771 0.26928 0.0
O190 O 0.33153 0.75368 0.2359 0.0
O191 O 0.33883 0.72233 0.23796 0.0
H192 H 0.10168 0.5532 0.28038 0.0
H193 H 0.14202 0.58059 0.26163 0.0
H194 H 0.12902 0.64256 0.26853 0.0
H195 H 0.08861 0.61507 0.28735 0.0
H196 H 0.16399 0.61474 0.22488 0.0
H197 H 0.18135 0.68966 0.29563 0.0
H198 H 0.16581 0.69235 0.33525 0.0
H199 H 0.14463 0.6161 0.34909 0.0
H200 H 0.16045 0.61311 0.30978 0.0
H201 H 0.28636 0.74204 0.24271 0.0
H202 H 0.24161 0.71387 0.24755 0.0
H203 H 0.25269 0.65061 0.24198 0.0
H204 H 0.29773 0.67879 0.23719 0.0
H205 H 0.21811 0.67935 0.28327 0.0
H206 H 0.19934 0.60291 0.21469 0.0
H207 H 0.21583 0.59824 0.17635 0.0
H208 H 0.24147 0.675 0.15991 0.0
H209 H 0.22484 0.68004 0.19798 0.0
C210 C 0.10694 0.5724 0.27678 0.0
C211 C 0.09207 0.58207 0.28506 0.0
C212 C 0.13003 0.58806 0.26619 0.0
C213 C 0.1387 0.61368 0.26408 0.0
C214 C 0.12274 0.62286 0.27019 0.0
C215 C 0.09956 0.60714 0.28069 0.0
C216 C 0.16549 0.63108 0.25901 0.0
C217 C 0.17587 0.62882 0.23765 0.0
C218 C 0.18101 0.64936 0.27576 0.0
C219 C 0.17178 0.65109 0.29961 0.0
C220 C 0.17345 0.6735 0.30716 0.0
C221 C 0.16461 0.67508 0.32957 0.0
C222 C 0.15416 0.65438 0.34464 0.0
C223 C 0.15264 0.63209 0.33738 0.0
C224 C 0.16153 0.63045 0.31502 0.0
C225 C 0.27933 0.72213 0.24236 0.0
C226 C 0.29565 0.71266 0.23958 0.0
C227 C 0.25372 0.70606 0.24519 0.0
C228 C 0.24378 0.68015 0.245 0.0
C229 C 0.25994 0.67056 0.24193 0.0
C230 C 0.28567 0.68667 0.23929 0.0
C231 C 0.21663 0.66333 0.24896 0.0
C232 C 0.20621 0.66553 0.27031 0.0
C233 C 0.20125 0.64475 0.23238 0.0
C234 C 0.21106 0.64189 0.2093 0.0
C235 C 0.20842 0.61876 0.20285 0.0
C236 C 0.2178 0.61605 0.18117 0.0
C237 C 0.22976 0.63633 0.16574 0.0
C238 C 0.23229 0.65934 0.17192 0.0
C239 C 0.22293 0.66214 0.19357 0.0
H240 H 0.23703 0.6342 0.14897 0.0
H241 H 0.14732 0.65563 0.36196 0.0
H242 H 0.56155 0.10111 0.45941 0.0
H243 H 0.57909 0.14327 0.44329 0.0
H244 H 0.50474 0.13125 0.43316 0.0
H245 H 0.48721 0.08915 0.44983 0.0
H246 H 0.5356 0.15761 0.39687 0.0
H247 H 0.53177 0.15549 0.48326 0.0
H248 H 0.53694 0.15822 0.53314 0.0
H249 H 0.64021 0.22544 0.51003 0.0
H250 H 0.62087 0.21297 0.46484 0.0
H251 H 0.56268 0.28426 0.39904 0.0
H252 H 0.54716 0.2398 0.40475 0.0
H253 H 0.62247 0.25477 0.41528 0.0
H254 H 0.63819 0.29942 0.40974 0.0
H255 H 0.59141 0.22675 0.45026 0.0
H256 H 0.58955 0.22502 0.36521 0.0
H257 H 0.57834 0.23312 0.32553 0.0
H258 H 0.50053 0.18846 0.3425 0.0
H259 H 0.51127 0.18036 0.38242 0.0
C260 C 0.54898 0.1071 0.45265 0.0
C261 C 0.52304 0.09182 0.45537 0.0
C262 C 0.559 0.13135 0.444 0.0
C263 C 0.54322 0.14057 0.43766 0.0
C264 C 0.51723 0.12451 0.43819 0.0
C265 C 0.50719 0.10033 0.44723 0.0
C266 C 0.55381 0.16707 0.43099 0.0
C267 C 0.54779 0.17272 0.40863 0.0
C268 C 0.57013 0.18677 0.44616 0.0
C269 C 0.57603 0.18334 0.471 0.0
C270 C 0.55031 0.16641 0.4906 0.0
C271 C 0.55361 0.16891 0.52226 0.0
C272 C 0.60185 0.20069 0.53403 0.0
C273 C 0.62048 0.21239 0.50808 0.0
C274 C 0.60784 0.20381 0.4792 0.0
C275 C 0.57601 0.2781 0.4023 0.0
C276 C 0.6017 0.29543 0.40405 0.0
C277 C 0.56709 0.25262 0.4054 0.0
C278 C 0.58364 0.24388 0.41024 0.0
C279 C 0.60935 0.26108 0.41147 0.0
C280 C 0.61832 0.28659 0.40829 0.0
C281 C 0.57399 0.21717 0.41609 0.0
C282 C 0.57992 0.21148 0.43836 0.0
C283 C 0.55775 0.1975 0.40093 0.0
C284 C 0.55124 0.20226 0.37689 0.0
C285 C 0.57005 0.21708 0.36056 0.0
C286 C 0.56377 0.22164 0.338 0.0
C287 C 0.53874 0.21136 0.33151 0.0
C288 C 0.51992 0.19643 0.34755 0.0
C289 C 0.52609 0.19182 0.37014 0.0
H290 H 0.53392 0.21491 0.31405 0.0
H291 H 0.61113 0.20714 0.5512 0.0
H292 H 0.40527 0.48209 0.62193 0.0
H293 H 0.38309 0.50027 0.60155 0.0
H294 H 0.45202 0.57025 0.59554 0.0
H295 H 0.47409 0.552 0.61598 0.0
H296 H 0.4166 0.57484 0.61905 0.0
H297 H 0.42134 0.53837 0.54591 0.0
H298 H 0.41686 0.50455 0.5196 0.0
H299 H 0.3379 0.46418 0.53242 0.0
H300 H 0.34194 0.49759 0.55908 0.0
H301 H 0.35444 0.63548 0.57154 0.0
H302 H 0.38304 0.61923 0.57668 0.0
H303 H 0.32055 0.5441 0.57652 0.0
H304 H 0.29207 0.56012 0.57077 0.0
H305 H 0.35645 0.54486 0.55218 0.0
H306 H 0.35035 0.575 0.62862 0.0
H307 H 0.35255 0.60501 0.65865 0.0
H308 H 0.43053 0.6526 0.64402 0.0
H309 H 0.42872 0.62299 0.61367 0.0
C310 C 0.41581 0.50094 0.61515 0.0
C311 C 0.4414 0.51555 0.61999 0.0
C312 C 0.40315 0.51139 0.60364 0.0
C313 C 0.41591 0.53665 0.59697 0.0
C314 C 0.44183 0.55073 0.60042 0.0
C315 C 0.45448 0.54024 0.61183 0.0
C316 C 0.40175 0.54915 0.58978 0.0
C317 C 0.40378 0.5686 0.60415 0.0
C318 C 0.3845 0.5405 0.57078 0.0
C319 C 0.38198 0.52043 0.55464 0.0
C320 C 0.40304 0.5222 0.54327 0.0
C321 C 0.40058 0.50311 0.52826 0.0
C322 C 0.37712 0.48221 0.52437 0.0
C323 C 0.35606 0.48038 0.53545 0.0
C324 C 0.35842 0.4994 0.55048 0.0
C325 C 0.34683 0.61551 0.57248 0.0
C326 C 0.32096 0.59912 0.57082 0.0
C327 C 0.36319 0.60622 0.57552 0.0
C328 C 0.35397 0.5804 0.57727 0.0
C329 C 0.32818 0.56407 0.57517 0.0
C330 C 0.31188 0.5733 0.57197 0.0
C331 C 0.37096 0.57027 0.58177 0.0
C332 C 0.36944 0.55127 0.56695 0.0
C333 C 0.38827 0.57886 0.60078 0.0
C334 C 0.3893 0.59698 0.61861 0.0
C335 C 0.3679 0.59201 0.6316 0.0
C336 C 0.36909 0.60891 0.64873 0.0
C337 C 0.39164 0.63075 0.65316 0.0
C338 C 0.41306 0.63571 0.64051 0.0
C339 C 0.41196 0.61888 0.62334 0.0
H340 H 0.39254 0.64379 0.66646 0.0
H341 H 0.37525 0.46745 0.51275 0.0
H342 H 0.94492 0.40856 0.78722 0.0
H343 H 0.90404 0.38502 0.7677 0.0
H344 H 0.89545 0.44992 0.77075 0.0
H345 H 0.93631 0.47342 0.78992 0.0
H346 H 0.85886 0.40795 0.7956 0.0
H347 H 0.89717 0.42851 0.71861 0.0
H348 H 0.92664 0.43145 0.68763 0.0
H349 H 0.89466 0.35191 0.68869 0.0
H350 H 0.86521 0.34853 0.71994 0.0
H351 H 0.73597 0.3512 0.74865 0.0
H352 H 0.78077 0.37963 0.75446 0.0
H353 H 0.79481 0.31885 0.74303 0.0
H354 H 0.75023 0.29042 0.73716 0.0
H355 H 0.8292 0.36014 0.72052 0.0
H356 H 0.79438 0.3383 0.79812 0.0
H357 H 0.76698 0.33296 0.83204 0.0
H358 H 0.79379 0.41167 0.83279 0.0
H359 H 0.82113 0.41745 0.79864 0.0
C360 C 0.93483 0.41807 0.78252 0.0
C361 C 0.94381 0.44284 0.78963 0.0
C362 C 0.91143 0.40461 0.77158 0.0
C363 C 0.89668 0.41573 0.76789 0.0
C364 C 0.90655 0.44103 0.77338 0.0
C365 C 0.92997 0.45451 0.78408 0.0
C366 C 0.86984 0.40021 0.76185 0.0
C367 C 0.85232 0.39792 0.77895 0.0
C368 C 0.86146 0.38632 0.74059 0.0
C369 C 0.87913 0.3883 0.72179 0.0
C370 C 0.89657 0.41167 0.71241 0.0
C371 C 0.91324 0.41341 0.69476 0.0
C372 C 0.91257 0.39189 0.68624 0.0
C373 C 0.89518 0.36857 0.69532 0.0
C374 C 0.87847 0.36673 0.71299 0.0
C375 C 0.74862 0.34394 0.74722 0.0
C376 C 0.73951 0.31853 0.74255 0.0
C377 C 0.77421 0.36018 0.75063 0.0
C378 C 0.79114 0.35133 0.74937 0.0
C379 C 0.78213 0.32612 0.74407 0.0
C380 C 0.7566 0.30987 0.74081 0.0
C381 C 0.81816 0.36813 0.75418 0.0
C382 C 0.83569 0.37048 0.737 0.0
C383 C 0.82667 0.38176 0.77562 0.0
C384 C 0.80954 0.37825 0.79557 0.0
C385 C 0.79418 0.35443 0.80528 0.0
C386 C 0.77872 0.35133 0.82462 0.0
C387 C 0.77858 0.37195 0.83451 0.0
C388 C 0.79387 0.3957 0.82507 0.0
C389 C 0.80934 0.3989 0.80572 0.0
H390 H 0.76668 0.36953 0.84954 0.0
H391 H 0.92549 0.39327 0.67257 0.0
H392 H 0.48494 0.9349 0.95257 0.0
H393 H 0.46881 0.89427 0.93327 0.0
H394 H 0.54073 0.89973 0.94091 0.0
H395 H 0.55677 0.94032 0.96067 0.0
H396 H 0.51192 0.87456 0.89677 0.0
H397 H 0.50618 0.87299 0.98212 0.0
H398 H 0.49548 0.88382 0.02082 0.0
H399 H 0.41839 0.84842 0.00032 0.0
H400 H 0.42871 0.83774 0.96132 0.0
H401 H 0.47826 0.74701 0.90315 0.0
H402 H 0.49527 0.7916 0.90921 0.0
H403 H 0.42073 0.78011 0.91499 0.0
H404 H 0.40346 0.73519 0.90918 0.0
H405 H 0.45031 0.8092 0.95045 0.0
H406 H 0.45638 0.80758 0.86573 0.0
H407 H 0.46807 0.79696 0.82747 0.0
H408 H 0.54544 0.83806 0.84715 0.0
H409 H 0.53418 0.84865 0.88569 0.0
C410 C 0.49759 0.92794 0.94906 0.0
C411 C 0.52215 0.94076 0.95768 0.0
C412 C 0.48833 0.90468 0.93826 0.0
C413 C 0.50354 0.89396 0.93589 0.0
C414 C 0.52878 0.90779 0.94249 0.0
C415 C 0.53798 0.931 0.95358 0.0
C416 C 0.49218 0.86719 0.92987 0.0
C417 C 0.49861 0.8602 0.90853 0.0
C418 C 0.47457 0.84858 0.94516 0.0
C419 C 0.46827 0.85485 0.96866 0.0
C420 C 0.48698 0.86774 0.98576 0.0
C421 C 0.48098 0.8738 0.00777 0.0
C422 C 0.45629 0.86689 0.01299 0.0
C423 C 0.43753 0.85382 -0.00377 0.0
C424 C 0.44344 0.84774 0.97417 0.0
C425 C 0.46541 0.75393 0.90549 0.0
C426 C 0.43947 0.73751 0.90567 0.0
C427 C 0.47521 0.7795 0.90885 0.0
C428 C 0.4593 0.78929 0.91232 0.0
C429 C 0.43336 0.77299 0.91227 0.0
C430 C 0.42351 0.74734 0.90887 0.0
C431 C 0.46987 0.81633 0.91716 0.0
C432 C 0.46341 0.82344 0.93847 0.0
C433 C 0.48757 0.83499 0.90189 0.0
C434 C 0.49441 0.82874 0.87869 0.0
C435 C 0.47587 0.8142 0.86198 0.0
C436 C 0.48242 0.80821 0.84023 0.0
C437 C 0.50748 0.81678 0.83491 0.0
C438 C 0.52604 0.83142 0.85131 0.0
C439 C 0.51958 0.83744 0.87309 0.0
H440 H 0.51251 0.81213 0.81806 0.0
H441 H 0.45168 0.87161 0.03003 0.0
H442 H 0.5627 0.4882 0.10495 0.0
H443 H 0.58646 0.47264 0.08319 0.0
H444 H 0.65519 0.53566 0.1075 0.0
H445 H 0.63137 0.55116 0.12931 0.0
H446 H 0.65839 0.51822 0.06094 0.0
H447 H 0.62918 0.48718 0.14033 0.0
H448 H 0.59726 0.4666 0.17138 0.0
H449 H 0.56064 0.40008 0.12921 0.0
H450 H 0.59225 0.42036 0.09775 0.0
H451 H 0.74403 0.47557 0.07214 0.0
H452 H 0.71642 0.49272 0.07655 0.0
H453 H 0.65254 0.41971 0.06493 0.0
H454 H 0.68025 0.40218 0.06142 0.0
H455 H 0.64338 0.44015 0.10016 0.0
H456 H 0.67404 0.46861 0.0223 0.0
H457 H 0.70548 0.48846 0.9907 0.0
H458 H 0.73794 0.5583 0.02786 0.0
H459 H 0.7069 0.53881 0.05986 0.0
C460 C 0.58288 0.49936 0.10457 0.0
C461 C 0.5953 0.52103 0.11843 0.0
C462 C 0.59642 0.49035 0.09236 0.0
C463 C 0.62256 0.50283 0.09402 0.0
C464 C 0.63504 0.52581 0.10593 0.0
C465 C 0.62147 0.53476 0.11824 0.0
C466 C 0.63653 0.49018 0.08679 0.0
C467 C 0.65521 0.50119 0.0695 0.0
C468 C 0.63191 0.46762 0.09761 0.0
C469 C 0.61294 0.4554 0.11657 0.0
C470 C 0.61422 0.46824 0.13759 0.0
C471 C 0.59618 0.45663 0.15526 0.0
C472 C 0.57687 0.43211 0.15224 0.0
C473 C 0.57559 0.41911 0.13152 0.0
C474 C 0.59357 0.43064 0.11376 0.0
C475 C 0.72412 0.46314 0.07032 0.0
C476 C 0.71434 0.43749 0.06637 0.0
C477 C 0.70831 0.47304 0.07267 0.0
C478 C 0.68234 0.45766 0.07061 0.0
C479 C 0.67251 0.43202 0.06648 0.0
C480 C 0.68835 0.42201 0.06444 0.0
C481 C 0.66554 0.46819 0.07426 0.0
C482 C 0.64635 0.45688 0.09111 0.0
C483 C 0.66957 0.49032 0.06283 0.0
C484 C 0.68822 0.50218 0.04357 0.0
C485 C 0.68798 0.48817 0.02382 0.0
C486 C 0.70572 0.49936 0.00582 0.0
C487 C 0.72372 0.52461 0.00729 0.0
C488 C 0.72399 0.53874 0.02674 0.0
C489 C 0.7063 0.52763 0.0448 0.0
H490 H 0.73744 0.53324 0.99334 0.0
H491 H 0.56295 0.42317 0.16598 0.0
H492 H 0.47347 0.94085 0.53394 0.0
H493 H 0.44785 0.90123 0.55474 0.0
H494 H 0.38153 0.89564 0.5236 0.0
H495 H 0.4072 0.93525 0.50281 0.0
H496 H 0.37427 0.87518 0.57073 0.0
H497 H 0.41014 0.87294 0.49482 0.0
H498 H 0.44572 0.88589 0.46759 0.0
H499 H 0.47827 0.85595 0.5152 0.0
H500 H 0.44329 0.84355 0.54312 0.0
H501 H 0.28967 0.7468 0.55931 0.0
H502 H 0.3175 0.79142 0.55447 0.0
H503 H 0.38052 0.78268 0.57256 0.0
H504 H 0.35265 0.73755 0.57639 0.0
H505 H 0.39238 0.8119 0.53685 0.0
H506 H 0.35537 0.81043 0.61143 0.0
H507 H 0.32137 0.79912 0.64023 0.0
H508 H 0.29206 0.83591 0.59736 0.0
H509 H 0.3257 0.84717 0.56813 0.0
C510 C 0.45334 0.93169 0.5325 0.0
C511 C 0.44216 0.9411 0.51714 0.0
C512 C 0.43875 0.90902 0.5442 0.0
C513 C 0.41284 0.89539 0.54048 0.0
C514 C 0.40147 0.90592 0.52679 0.0
C515 C 0.41608 0.92855 0.51502 0.0
C516 C 0.39819 0.86882 0.54765 0.0
C517 C 0.3781 0.86127 0.56333 0.0
C518 C 0.40362 0.85082 0.53833 0.0
C519 C 0.42424 0.85758 0.52119 0.0
C520 C 0.42497 0.86928 0.49956 0.0
C521 C 0.44501 0.87651 0.48399 0.0
C522 C 0.46422 0.87173 0.48963 0.0
C523 C 0.4634 0.85967 0.51086 0.0
C524 C 0.44349 0.85258 0.52659 0.0
C525 C 0.30943 0.75435 0.56246 0.0
C526 C 0.31894 0.73862 0.56833 0.0
C527 C 0.32536 0.77999 0.55985 0.0
C528 C 0.35115 0.79066 0.56364 0.0
C529 C 0.3607 0.77498 0.56965 0.0
C530 C 0.34476 0.74919 0.57188 0.0
C531 C 0.36813 0.81793 0.55999 0.0
C532 C 0.38865 0.82569 0.54474 0.0
C533 C 0.36319 0.83611 0.5699 0.0
C534 C 0.34299 0.8295 0.5875 0.0
C535 C 0.34159 0.81598 0.60806 0.0
C536 C 0.32239 0.8096 0.62448 0.0
C537 C 0.30454 0.81676 0.6206 0.0
C538 C 0.30589 0.83037 0.60033 0.0
C539 C 0.32505 0.83679 0.58385 0.0
H540 H 0.28969 0.81179 0.63333 0.0
H541 H 0.47972 0.87736 0.47755 0.0
H542 H 0.53744 0.46306 0.69856 0.0
H543 H 0.55281 0.43859 0.71948 0.0
H544 H 0.49625 0.37175 0.68531 0.0
H545 H 0.48109 0.39626 0.66427 0.0
H546 H 0.50777 0.36382 0.73266 0.0
H547 H 0.54843 0.40224 0.65856 0.0
H548 H 0.57078 0.43801 0.63153 0.0
H549 H 0.63038 0.4737 0.6821 0.0
H550 H 0.60811 0.43829 0.70964 0.0
H551 H 0.5585 0.28496 0.72134 0.0
H552 H 0.54002 0.3113 0.71596 0.0
H553 H 0.60857 0.3753 0.73935 0.0
H554 H 0.6276 0.34899 0.74384 0.0
H555 H 0.59215 0.38752 0.70254 0.0
H556 H 0.55327 0.34567 0.77487 0.0
H557 H 0.53015 0.30961 0.80143 0.0
H558 H 0.467 0.28003 0.75453 0.0
H559 H 0.48984 0.31573 0.72753 0.0
C560 C 0.52762 0.44299 0.69643 0.0
C561 C 0.50796 0.4314 0.6801 0.0
C562 C 0.53652 0.42907 0.70819 0.0
C563 C 0.52583 0.40341 0.70371 0.0
C564 C 0.50469 0.39149 0.68907 0.0
C565 C 0.49597 0.40544 0.67715 0.0
C566 C 0.53869 0.38975 0.7113 0.0
C567 C 0.5262 0.36891 0.72612 0.0
C568 C 0.56288 0.39668 0.70297 0.0
C569 C 0.57648 0.41776 0.68627 0.0
C570 C 0.56621 0.4178 0.66399 0.0
C571 C 0.57887 0.438 0.64857 0.0
C572 C 0.60196 0.45814 0.65512 0.0
C573 C 0.61247 0.45809 0.67707 0.0
C574 C 0.59984 0.43797 0.6926 0.0
C575 C 0.56964 0.30461 0.72552 0.0
C576 C 0.59451 0.31487 0.73313 0.0
C577 C 0.55895 0.31967 0.72259 0.0
C578 C 0.57264 0.34527 0.72776 0.0
C579 C 0.59753 0.35559 0.73539 0.0
C580 C 0.6084 0.34055 0.73798 0.0
C581 C 0.56127 0.36132 0.724 0.0
C582 C 0.57396 0.38259 0.70964 0.0
C583 C 0.53724 0.35472 0.73277 0.0
C584 C 0.52334 0.33333 0.7491 0.0
C585 C 0.5345 0.33141 0.77016 0.0
C586 C 0.52143 0.31104 0.7853 0.0
C587 C 0.49713 0.29252 0.77966 0.0
C588 C 0.48582 0.29438 0.75889 0.0
C589 C 0.49881 0.3147 0.74367 0.0
H590 H 0.48706 0.27676 0.79139 0.0
H591 H 0.61174 0.47376 0.64316 0.0
H592 H 0.09864 0.4871 0.84068 0.0
H593 H 0.13837 0.50146 0.86144 0.0
H594 H 0.13734 0.56748 0.88424 0.0
H595 H 0.09777 0.55316 0.86319 0.0
H596 H 0.17872 0.5788 0.85996 0.0
H597 H 0.13441 0.5242 0.92467 0.0
H598 H 0.10472 0.48424 0.94346 0.0
H599 H 0.1466 0.45114 0.91707 0.0
H600 H 0.17636 0.49081 0.89784 0.0
H601 H 0.29923 0.63073 0.91085 0.0
H602 H 0.25423 0.61423 0.90684 0.0
H603 H 0.24417 0.54221 0.88802 0.0
H604 H 0.28879 0.55828 0.89288 0.0
H605 H 0.20726 0.53538 0.91466 0.0
H606 H 0.24697 0.58534 0.84567 0.0
H607 H 0.27621 0.62333 0.82373 0.0
H608 H 0.24241 0.6627 0.85462 0.0
H609 H 0.21315 0.625 0.87697 0.0
C610 C 0.10642 0.50409 0.85105 0.0
C611 C 0.09511 0.51888 0.85078 0.0
C612 C 0.12914 0.51237 0.86283 0.0
C613 C 0.14085 0.53556 0.87446 0.0
C614 C 0.12863 0.54952 0.87545 0.0
C615 C 0.10596 0.54125 0.86365 0.0
C616 C 0.16719 0.54679 0.88253 0.0
C617 C 0.18486 0.56957 0.87239 0.0
C618 C 0.17535 0.53432 0.89801 0.0
C619 C 0.15753 0.51046 0.90967 0.0
C620 C 0.13719 0.50836 0.92272 0.0
C621 C 0.12036 0.48576 0.93348 0.0
C622 C 0.12375 0.46516 0.93143 0.0
C623 C 0.144 0.46712 0.91865 0.0
C624 C 0.16088 0.48967 0.90784 0.0
C625 C 0.28737 0.61134 0.90603 0.0
C626 C 0.29761 0.59587 0.90204 0.0
C627 C 0.26166 0.60193 0.90365 0.0
C628 C 0.24577 0.57703 0.89674 0.0
C629 C 0.25594 0.56145 0.89339 0.0
C630 C 0.28154 0.57073 0.89608 0.0
C631 C 0.21877 0.56734 0.89201 0.0
C632 C 0.20102 0.54481 0.9026 0.0
C633 C 0.21049 0.57977 0.87656 0.0
C634 C 0.2281 0.60246 0.86321 0.0
C635 C 0.24592 0.60217 0.84793 0.0
C636 C 0.26246 0.62363 0.83539 0.0
C637 C 0.26122 0.64544 0.83784 0.0
C638 C 0.24338 0.64581 0.85278 0.0
C639 C 0.22681 0.6244 0.86538 0.0
H640 H 0.27404 0.66203 0.82812 0.0
H641 H 0.11069 0.44768 0.93977 0.0
H642 H 0.61682 0.08765 0.02471 0.0
H643 H 0.64122 0.12835 0.04444 0.0
H644 H 0.58145 0.14377 0.03208 0.0
H645 H 0.55712 0.10325 0.01271 0.0
H646 H 0.62782 0.1773 0.01017 0.0
H647 H 0.59486 0.13982 0.0862 0.0
H648 H 0.58587 0.1099 0.11875 0.0
H649 H 0.66427 0.13751 0.12808 0.0
H650 H 0.67373 0.16736 0.09532 0.0
H651 H 0.67979 0.29932 0.05605 0.0
H652 H 0.65154 0.25456 0.05021 0.0
H653 H 0.70987 0.23983 0.07165 0.0
H654 H 0.73819 0.28446 0.07749 0.0
H655 H 0.66475 0.20534 0.09021 0.0
H656 H 0.69882 0.24083 0.01509 0.0
H657 H 0.7102 0.26918 0.98083 0.0
H658 H 0.63279 0.24373 0.96751 0.0
H659 H 0.62094 0.21556 0.00206 0.0
C660 C 0.60851 0.09927 0.02728 0.0
C661 C 0.58512 0.09239 0.01734 0.0
C662 C 0.62249 0.12255 0.03837 0.0
C663 C 0.61319 0.13912 0.03951 0.0
C664 C 0.58897 0.13128 0.03134 0.0
C665 C 0.57502 0.10809 0.02045 0.0
C666 C 0.62976 0.16572 0.04576 0.0
C667 C 0.63554 0.18349 0.0278 0.0
C668 C 0.64064 0.1736 0.06845 0.0
C669 C 0.63499 0.15564 0.08812 0.0
C670 C 0.61018 0.13934 0.09502 0.0
C671 C 0.605 0.12243 0.11355 0.0
C672 C 0.62448 0.12175 0.12543 0.0
C673 C 0.64919 0.13803 0.11884 0.0
C674 C 0.65448 0.15496 0.1003 0.0
C675 C 0.68652 0.28653 0.05977 0.0
C676 C 0.71128 0.29547 0.06709 0.0
C677 C 0.67039 0.26097 0.05635 0.0
C678 C 0.67868 0.24387 0.06028 0.0
C679 C 0.70308 0.25266 0.06851 0.0
C680 C 0.71926 0.27821 0.07173 0.0
C681 C 0.66232 0.21698 0.05473 0.0
C682 C 0.65682 0.19918 0.07266 0.0
C683 C 0.65196 0.20893 0.03183 0.0
C684 C 0.65901 0.22635 0.01142 0.0
C685 C 0.68423 0.24153 0.00509 0.0
C686 C 0.69076 0.25752 0.98557 0.0
C687 C 0.67223 0.25834 0.97207 0.0
C688 C 0.64713 0.24314 0.97806 0.0
C689 C 0.64049 0.22718 -0.00237 0.0
H690 H 0.67734 0.27069 0.95694 0.0
H691 H 0.62043 0.10866 0.13978 0.0
H692 H 0.55445 0.62782 0.18996 0.0
H693 H 0.5364 0.64983 0.21085 0.0
H694 H 0.46607 0.58119 0.21584 0.0
H695 H 0.48422 0.55923 0.19509 0.0
H696 H 0.46346 0.61776 0.19052 0.0
H697 H 0.4954 0.61062 0.2657 0.0
H698 H 0.52762 0.61419 0.29376 0.0
H699 H 0.56915 0.69336 0.28275 0.0
H700 H 0.53736 0.69023 0.25435 0.0
H701 H 0.40006 0.6782 0.23538 0.0
H702 H 0.41675 0.64985 0.23148 0.0
H703 H 0.49173 0.71256 0.23363 0.0
H704 H 0.47526 0.74084 0.23795 0.0
H705 H 0.48977 0.67592 0.25885 0.0
H706 H 0.46409 0.68404 0.18079 0.0
H707 H 0.43597 0.68269 0.14905 0.0
H708 H 0.38698 0.60463 0.16186 0.0
H709 H 0.41466 0.60561 0.19392 0.0
C710 C 0.5356 0.61724 0.19679 0.0
C711 C 0.52082 0.5918 0.1914 0.0
C712 C 0.52521 0.62983 0.20854 0.0
C713 C 0.49984 0.61716 0.21484 0.0
C714 C 0.48569 0.5913 0.21122 0.0
C715 C 0.49613 0.5787 0.19965 0.0
C716 C 0.48722 0.63142 0.22127 0.0
C717 C 0.46876 0.63002 0.20582 0.0
C718 C 0.49493 0.64819 0.24062 0.0
C719 C 0.51406 0.65015 0.25775 0.0
C720 C 0.5115 0.62877 0.26911 0.0
C721 C 0.52967 0.63072 0.28511 0.0
C722 C 0.55044 0.65398 0.29 0.0
C723 C 0.55306 0.67535 0.27894 0.0
C724 C 0.53494 0.6735 0.26291 0.0
C725 C 0.4201 0.68592 0.23518 0.0
C726 C 0.4363 0.7118 0.23687 0.0
C727 C 0.42963 0.6697 0.23285 0.0
C728 C 0.45554 0.67906 0.232 0.0
C729 C 0.4717 0.70484 0.23427 0.0
C730 C 0.46221 0.72102 0.23665 0.0
C731 C 0.46592 0.66221 0.22808 0.0
C732 C 0.4841 0.66329 0.24383 0.0
C733 C 0.45837 0.64546 0.20867 0.0
C734 C 0.44125 0.64499 0.18998 0.0
C735 C 0.44715 0.66667 0.17704 0.0
C736 C 0.43133 0.66595 0.15895 0.0
C737 C 0.40965 0.64362 0.15351 0.0
C738 C 0.40373 0.62195 0.16616 0.0
C739 C 0.41946 0.62257 0.18431 0.0
H740 H 0.39748 0.64308 0.13943 0.0
H741 H 0.56449 0.65545 0.3024 0.0
H742 H 0.94264 0.48293 0.36437 0.0
H743 H 0.90308 0.46791 0.38562 0.0
H744 H 0.89912 0.53186 0.36123 0.0
H745 H 0.93861 0.54677 0.33988 0.0
H746 H 0.87792 0.5143 0.40791 0.0
H747 H 0.87578 0.48406 0.32792 0.0
H748 H 0.88829 0.46398 0.29734 0.0
H749 H 0.85735 0.39697 0.3388 0.0
H750 H 0.84528 0.4169 0.37002 0.0
H751 H 0.75011 0.47408 0.39596 0.0
H752 H 0.79477 0.49048 0.39149 0.0
H753 H 0.78428 0.41697 0.40312 0.0
H754 H 0.73917 0.40019 0.40683 0.0
H755 H 0.81412 0.43735 0.36757 0.0
H756 H 0.81202 0.46522 0.44583 0.0
H757 H 0.80075 0.48517 0.47761 0.0
H758 H 0.83946 0.55534 0.4412 0.0
H759 H 0.85068 0.53574 0.40902 0.0
C760 C 0.93392 0.49437 0.3646 0.0
C761 C 0.94371 0.51614 0.35086 0.0
C762 C 0.91125 0.48569 0.37654 0.0
C763 C 0.89806 0.49863 0.37475 0.0
C764 C 0.90906 0.52166 0.36292 0.0
C765 C 0.93166 0.53025 0.35085 0.0
C766 C 0.87139 0.48644 0.38171 0.0
C767 C 0.8639 0.49752 0.39911 0.0
C768 C 0.85322 0.46425 0.3705 0.0
C769 C 0.85989 0.45207 0.35144 0.0
C770 C 0.8718 0.46511 0.33061 0.0
C771 C 0.87879 0.45376 0.31314 0.0
C772 C 0.87362 0.42924 0.31611 0.0
C773 C 0.86138 0.41599 0.33654 0.0
C774 C 0.8545 0.42731 0.35415 0.0
C775 C 0.75727 0.46137 0.39776 0.0
C776 C 0.74105 0.4358 0.40181 0.0
C777 C 0.78292 0.47085 0.39537 0.0
C778 C 0.79309 0.45511 0.39741 0.0
C779 C 0.77694 0.42955 0.40159 0.0
C780 C 0.75116 0.41997 0.40374 0.0
C781 C 0.82036 0.46521 0.39383 0.0
C782 C 0.82803 0.45385 0.37683 0.0
C783 C 0.83866 0.48704 0.40556 0.0
C784 C 0.83204 0.49895 0.42492 0.0
C785 C 0.81799 0.48487 0.44452 0.0
C786 C 0.81163 0.49612 0.46262 0.0
C787 C 0.81935 0.5215 0.4614 0.0
C788 C 0.83349 0.53568 0.44211 0.0
C789 C 0.83989 0.52452 0.42395 0.0
H790 H 0.8144 0.53017 0.47543 0.0
H791 H 0.87907 0.42051 0.30255 0.0
H792 H 0.092 0.53239 0.35822 0.0
H793 H 0.12036 0.54338 0.39218 0.0
H794 H 0.09668 0.59418 0.41708 0.0
H795 H 0.06801 0.58288 0.38321 0.0
H796 H 0.1483 0.61615 0.40871 0.0
H797 H 0.08366 0.54571 0.45001 0.0
H798 H 0.05144 0.5016 0.45513 0.0
H799 H 0.10694 0.4798 0.44735 0.0
H800 H 0.13946 0.52378 0.44184 0.0
H801 H 0.22228 0.65623 0.51271 0.0
H802 H 0.18964 0.6409 0.48269 0.0
H803 H 0.2041 0.58136 0.46554 0.0
H804 H 0.2364 0.59618 0.49621 0.0
H805 H 0.15616 0.56328 0.47033 0.0
H806 H 0.2205 0.63203 0.4278 0.0
H807 H 0.25341 0.67549 0.4206 0.0
H808 H 0.1998 0.69983 0.42799 0.0
H809 H 0.16662 0.65655 0.43559 0.0
C810 C 0.09215 0.5451 0.37153 0.0
C811 C 0.07771 0.55659 0.36843 0.0
C812 C 0.10839 0.55145 0.39081 0.0
C813 C 0.11061 0.56961 0.40708 0.0
C814 C 0.09514 0.58007 0.40472 0.0
C815 C 0.07863 0.57345 0.38558 0.0
C816 C 0.13108 0.57972 0.4247 0.0
C817 C 0.14983 0.60476 0.42252 0.0
C818 C 0.13348 0.5645 0.44195 0.0
C819 C 0.11397 0.53804 0.4453 0.0
C820 C 0.08897 0.5315 0.44918 0.0
C821 C 0.07065 0.50652 0.4522 0.0
C822 C 0.07713 0.48791 0.45151 0.0
C823 C 0.10195 0.49424 0.44786 0.0
C824 C 0.12033 0.51919 0.44482 0.0
C825 C 0.21885 0.6401 0.50233 0.0
C826 C 0.23198 0.62743 0.50691 0.0
C827 C 0.20016 0.63137 0.48508 0.0
C828 C 0.19448 0.61005 0.47171 0.0
C829 C 0.2081 0.59781 0.47569 0.0
C830 C 0.22667 0.60639 0.49313 0.0
C831 C 0.17348 0.59986 0.45449 0.0
C832 C 0.15466 0.57477 0.45664 0.0
C833 C 0.17115 0.61497 0.43695 0.0
C834 C 0.19111 0.64106 0.43253 0.0
C835 C 0.21576 0.64668 0.42812 0.0
C836 C 0.23446 0.67128 0.42391 0.0
C837 C 0.22872 0.69042 0.4239 0.0
C838 C 0.20424 0.68499 0.42804 0.0
C839 C 0.18547 0.66042 0.43228 0.0
H840 H 0.24322 0.70945 0.42063 0.0
H841 H 0.06292 0.46858 0.45385 0.0
H842 H 0.49869 0.09328 0.53956 0.0
H843 H 0.52255 0.12455 0.56983 0.0
H844 H 0.57379 0.09654 0.57466 0.0
H845 H 0.54993 0.06526 0.54412 0.0
H846 H 0.56379 0.10908 0.61763 0.0
H847 H 0.58648 0.14214 0.53781 0.0
H848 H 0.59307 0.16259 0.49415 0.0
H849 H 0.56493 0.225 0.53871 0.0
H850 H 0.56128 0.19612 0.57553 0.0
H851 H 0.65373 0.21831 0.67962 0.0
H852 H 0.63563 0.18631 0.64865 0.0
H853 H 0.57788 0.20478 0.63671 0.0
H854 H 0.59577 0.23672 0.66747 0.0
H855 H 0.59665 0.19748 0.59549 0.0
H856 H 0.56676 0.15608 0.67105 0.0
H857 H 0.57198 0.14408 0.71147 0.0
H858 H 0.61146 0.1091 0.68343 0.0
H859 H 0.60677 0.12122 0.64284 0.0
C860 C 0.5145 0.09323 0.54779 0.0
C861 C 0.52248 0.07688 0.53976 0.0
C862 C 0.52838 0.11137 0.56467 0.0
C863 C 0.55035 0.11333 0.5738 0.0
C864 C 0.55704 0.0955 0.56748 0.0
C865 C 0.54322 0.07739 0.55042 0.0
C866 C 0.56637 0.13413 0.58977 0.0
C867 C 0.57115 0.12843 0.61262 0.0
C868 C 0.57558 0.15934 0.58327 0.0
C869 C 0.57292 0.16755 0.55909 0.0
C870 C 0.58222 0.15694 0.5354 0.0
C871 C 0.58704 0.17088 0.50796 0.0
C872 C 0.57843 0.20684 0.50843 0.0
C873 C 0.56925 0.2103 0.53583 0.0
C874 C 0.56679 0.19166 0.55884 0.0
C875 C 0.63742 0.21584 0.67012 0.0
C876 C 0.62611 0.22999 0.67609 0.0
C877 C 0.62701 0.19742 0.65257 0.0
C878 C 0.60522 0.19296 0.64065 0.0
C879 C 0.59464 0.20787 0.64577 0.0
C880 C 0.6049 0.22611 0.66338 0.0
C881 C 0.59276 0.17231 0.62332 0.0
C882 C 0.58889 0.17803 0.60023 0.0
C883 C 0.58393 0.14717 0.62959 0.0
C884 C 0.58668 0.13982 0.65396 0.0
C885 C 0.57674 0.14602 0.67353 0.0
C886 C 0.57957 0.13916 0.69646 0.0
C887 C 0.59211 0.12591 0.70002 0.0
C888 C 0.60179 0.11942 0.68064 0.0
C889 C 0.59905 0.12627 0.65768 0.0
H890 H 0.59427 0.12061 0.71779 0.0
H891 H 0.58168 0.19774 0.50483 0.0
H892 H 0.41841 0.49345 0.70464 0.0
H893 H 0.41145 0.51471 0.73781 0.0
H894 H 0.49078 0.56482 0.74357 0.0
H895 H 0.49781 0.54342 0.71019 0.0
H896 H 0.46235 0.54997 0.78878 0.0
H897 H 0.4616 0.58257 0.71066 0.0
H898 H 0.44754 0.57838 0.66908 0.0
H899 H 0.37204 0.54978 0.69245 0.0
H900 H 0.38552 0.55316 0.73415 0.0
H901 H 0.45116 0.64541 0.84781 0.0
H902 H 0.46365 0.62512 0.81784 0.0
H903 H 0.38634 0.57503 0.80072 0.0
H904 H 0.37367 0.59498 0.83079 0.0
H905 H 0.41655 0.59205 0.76081 0.0
H906 H 0.41245 0.55406 0.83512 0.0
H907 H 0.42083 0.55096 0.87738 0.0
H908 H 0.49903 0.58356 0.86248 0.0
H909 H 0.49115 0.5872 0.82009 0.0
C910 C 0.43439 0.50841 0.71359 0.0
C911 C 0.45861 0.51693 0.70497 0.0
C912 C 0.4304 0.52061 0.73239 0.0
C913 C 0.45058 0.54159 0.74273 0.0
C914 C 0.47501 0.54869 0.73568 0.0
C915 C 0.47902 0.53642 0.71678 0.0
C916 C 0.44576 0.55763 0.75874 0.0
C917 C 0.45283 0.55964 0.78262 0.0
C918 C 0.43257 0.56948 0.7507 0.0
C919 C 0.42456 0.56793 0.72557 0.0
C920 C 0.44197 0.57519 0.70695 0.0
C921 C 0.4341 0.57297 0.68334 0.0
C922 C 0.40891 0.56379 0.67814 0.0
C923 C 0.39154 0.55686 0.69652 0.0
C924 C 0.39929 0.55891 0.72014 0.0
C925 C 0.43683 0.6304 0.83735 0.0
C926 C 0.41141 0.62172 0.84171 0.0
C927 C 0.444 0.61872 0.82037 0.0
C928 C 0.42589 0.59842 0.80731 0.0
C929 C 0.40058 0.59064 0.81068 0.0
C930 C 0.39339 0.60205 0.82787 0.0
C931 C 0.43318 0.58448 0.79091 0.0
C932 C 0.42651 0.58281 0.76692 0.0
C933 C 0.44622 0.57248 0.79894 0.0
C934 C 0.45126 0.57122 0.82449 0.0
C935 C 0.43149 0.56092 0.8409 0.0
C936 C 0.43613 0.55898 0.86485 0.0
C937 C 0.46044 0.56707 0.87259 0.0
C938 C 0.48021 0.57731 0.85643 0.0
C939 C 0.47567 0.57933 0.83244 0.0
H940 H 0.46389 0.56521 0.89108 0.0
H941 H 0.40282 0.56206 0.6599 0.0
H942 H 0.96506 0.4976 0.8757 0.0
H943 H 0.93547 0.48852 0.90835 0.0
H944 H 0.92048 0.41258 0.91032 0.0
H945 H 0.94968 0.4216 0.8775 0.0
H946 H 0.87894 0.41498 0.9027 0.0
H947 H 0.94805 0.45211 0.95713 0.0
H948 H 0.98848 0.48517 0.97251 0.0
H949 H 0.95912 0.53481 0.97845 0.0
H950 H 0.9186 0.50215 0.96278 0.0
H951 H 0.79901 0.36935 0.003 0.0
H952 H 0.83185 0.38238 0.9732 0.0
H953 H 0.84192 0.45651 0.97348 0.0
H954 H 0.80906 0.44367 0.00332 0.0
H955 H 0.8859 0.45691 0.9796 0.0
H956 H 0.81742 0.42097 0.92575 0.0
H957 H 0.77734 0.38955 0.90827 0.0
H958 H 0.80549 0.33916 0.89967 0.0
H959 H 0.84565 0.37016 0.91738 0.0
C960 C 0.95622 0.47933 0.88389 0.0
C961 C 0.95966 0.46031 0.87441 0.0
C962 C 0.93926 0.4741 0.90242 0.0
C963 C 0.92568 0.44982 0.91166 0.0
C964 C 0.93069 0.43139 0.90338 0.0
C965 C 0.94751 0.43658 0.88485 0.0
C966 C 0.90403 0.44271 0.9275 0.0
C967 C 0.88053 0.42384 0.91974 0.0
C968 C 0.90598 0.45508 0.94916 0.0
C969 C 0.93036 0.47475 0.95855 0.0
C970 C 0.95028 0.47015 0.9615 0.0
C971 C 0.9732 0.4888 0.97032 0.0
C972 C 0.97639 0.5121 0.97639 0.0
C973 C 0.95664 0.51677 0.97371 0.0
C974 C 0.93368 0.49818 0.96488 0.0
C975 C 0.8079 0.38832 -0.00355 0.0
C976 C 0.80147 0.40549 0.00562 0.0
C977 C 0.82663 0.39572 0.97937 0.0
C978 C 0.83932 0.42041 0.97117 0.0
C979 C 0.83238 0.43738 0.97965 0.0
C980 C 0.81349 0.42995 -0.00341 0.0
C981 C 0.86092 0.42882 0.95499 0.0
C982 C 0.88435 0.44801 0.9626 0.0
C983 C 0.85891 0.41686 0.93307 0.0
C984 C 0.83448 0.39781 0.92315 0.0
C985 C 0.81497 0.40307 0.92042 0.0
C986 C 0.79226 0.38537 0.91039 0.0
C987 C 0.78885 0.36235 0.90292 0.0
C988 C 0.80814 0.35698 0.9055 0.0
C989 C 0.83089 0.37462 0.91552 0.0
H990 H 0.77129 0.34871 0.89508 0.0
H991 H 0.99415 0.52651 0.98322 0.0
H992 H 0.48203 0.96129 0.04116 0.0
H993 H 0.4602 0.93163 0.0735 0.0
H994 H 0.52075 0.91611 0.07828 0.0
H995 H 0.5423 0.94544 0.04595 0.0
H996 H 0.47648 0.87458 0.07013 0.0
H997 H 0.50878 0.94485 0.12327 0.0
H998 H 0.5162 0.98562 0.13762 0.0
H999 H 0.43721 0.95667 0.14311 0.0
H1000 H 0.4293 0.91579 0.12847 0.0
H1001 H 0.44613 0.79814 0.17195 0.0
H1002 H 0.46451 0.83036 0.14151 0.0
H1003 H 0.39949 0.83894 0.14307 0.0
H1004 H 0.38092 0.80673 0.17367 0.0
H1005 H 0.44246 0.88358 0.14682 0.0
H1006 H 0.40994 0.81296 0.09572 0.0
H1007 H 0.40196 0.77223 0.08069 0.0
H1008 H 0.48053 0.80179 0.07029 0.0
H1009 H 0.48904 0.84261 0.08561 0.0
C1010 C 0.49105 0.95231 0.04989 0.0
C1011 C 0.51386 0.9557 0.04139 0.0
C1012 C 0.47855 0.93527 0.0682 0.0
C1013 C 0.48882 0.92157 0.07816 0.0
C1014 C 0.51248 0.92642 0.07077 0.0
C1015 C 0.52488 0.94332 0.05252 0.0
C1016 C 0.47392 0.90025 0.0942 0.0
C1017 C 0.46932 0.87659 0.08706 0.0
C1018 C 0.46372 0.90276 0.11577 0.0
C1019 C 0.46845 0.92734 0.12451 0.0
C1020 C 0.49299 0.94724 0.12731 0.0
C1021 C 0.49728 0.97036 0.13555 0.0
C1022 C 0.47719 0.97376 0.1412 0.0
C1023 C 0.45276 0.95402 0.13868 0.0
C1024 C 0.44836 0.93087 0.13043 0.0
C1025 C 0.43552 0.80656 0.16558 0.0
C1026 C 0.41206 0.79987 0.17531 0.0
C1027 C 0.44605 0.82497 0.14813 0.0
C1028 C 0.43335 0.83703 0.14001 0.0
C1029 C 0.40961 0.82989 0.14913 0.0
C1030 C 0.39897 0.81135 0.16651 0.0
C1031 C 0.44557 0.85801 0.123 0.0
C1032 C 0.44954 0.88155 0.12985 0.0
C1033 C 0.45515 0.85542 0.10107 0.0
C1034 C 0.45014 0.8308 0.09207 0.0
C1035 C 0.42554 0.81072 0.09047 0.0
C1036 C 0.42092 0.78762 0.08184 0.0
C1037 C 0.44073 0.78441 0.0746 0.0
C1038 C 0.46521 0.8043 0.07594 0.0
C1039 C 0.46994 0.82743 0.08458 0.0
H1040 H 0.43711 0.76652 0.06791 0.0
H1041 H 0.48055 0.99166 0.14759 0.0
H1042 H 0.57522 0.53021 0.2239 0.0
H1043 H 0.5839 0.51053 0.25766 0.0
H1044 H 0.56381 0.44536 0.21501 0.0
H1045 H 0.55421 0.4644 0.18169 0.0
H1046 H 0.55676 0.46133 0.28227 0.0
H1047 H 0.61887 0.43922 0.22084 0.0
H1048 H 0.64521 0.45572 0.18514 0.0
H1049 H 0.6534 0.5278 0.19783 0.0
H1050 H 0.62785 0.51199 0.23401 0.0
H1051 H 0.58989 0.38025 0.34032 0.0
H1052 H 0.57555 0.39877 0.31029 0.0
H1053 H 0.64827 0.4649 0.30953 0.0
H1054 H 0.66286 0.44652 0.33934 0.0
H1055 H 0.63033 0.45171 0.26564 0.0
H1056 H 0.60135 0.46445 0.33999 0.0
H1057 H 0.57964 0.45217 0.37853 0.0
H1058 H 0.51013 0.4054 0.34298 0.0
H1059 H 0.5315 0.41712 0.30422 0.0
C1060 C 0.57172 0.51131 0.22209 0.0
C1061 C 0.56445 0.49896 0.20012 0.0
C1062 C 0.57681 0.50017 0.24129 0.0
C1063 C 0.57494 0.47675 0.23856 0.0
C1064 C 0.56564 0.46357 0.21731 0.0
C1065 C 0.5602 0.47449 0.19833 0.0
C1066 C 0.58505 0.46705 0.2568 0.0
C1067 C 0.57279 0.45914 0.27868 0.0
C1068 C 0.60629 0.46474 0.25216 0.0
C1069 C 0.62107 0.47427 0.22998 0.0
C1070 C 0.62631 0.4586 0.21604 0.0
C1071 C 0.64126 0.46788 0.19581 0.0
C1072 C 0.65101 0.49281 0.18927 0.0
C1073 C 0.6458 0.50849 0.20291 0.0
C1074 C 0.63106 0.49936 0.22328 0.0
C1075 C 0.60295 0.39859 0.33354 0.0
C1076 C 0.62751 0.41194 0.34233 0.0
C1077 C 0.59465 0.40923 0.31653 0.0
C1078 C 0.61073 0.43337 0.30801 0.0
C1079 C 0.63552 0.44629 0.31597 0.0
C1080 C 0.64383 0.43573 0.33301 0.0
C1081 C 0.6017 0.44533 0.29096 0.0
C1082 C 0.61419 0.45371 0.26924 0.0
C1083 C 0.581 0.44849 0.29595 0.0
C1084 C 0.56807 0.44148 0.31922 0.0
C1085 C 0.58147 0.45139 0.3404 0.0
C1086 C 0.56922 0.44456 0.36228 0.0
C1087 C 0.54354 0.42797 0.36321 0.0
C1088 C 0.53003 0.41822 0.34224 0.0
C1089 C 0.5422 0.42497 0.32031 0.0
H1090 H 0.53409 0.4227 0.38017 0.0
H1091 H 0.66257 0.49995 0.17359 0.0
H1092 H 0.45829 0.97078 0.41663 0.0
H1093 H 0.45 0.94297 0.38255 0.0
H1094 H 0.48756 0.90933 0.41818 0.0
H1095 H 0.49547 0.93678 0.45236 0.0
H1096 H 0.49419 0.91482 0.36567 0.0
H1097 H 0.43108 0.88283 0.42758 0.0
H1098 H 0.40193 0.88661 0.45485 0.0
H1099 H 0.36312 0.89474 0.39539 0.0
H1100 H 0.3925 0.89165 0.36786 0.0
H1101 H 0.43902 0.79698 0.30905 0.0
H1102 H 0.45492 0.83007 0.33896 0.0
H1103 H 0.40013 0.84991 0.31737 0.0
H1104 H 0.3835 0.81629 0.28836 0.0
H1105 H 0.40361 0.85313 0.36218 0.0
H1106 H 0.46398 0.88321 0.29949 0.0
H1107 H 0.49392 0.88224 0.27125 0.0
H1108 H 0.53786 0.88 0.32921 0.0
H1109 H 0.50798 0.88063 0.35781 0.0
C1110 C 0.46564 0.95815 0.41669 0.0
C1111 C 0.47759 0.9559 0.43693 0.0
C1112 C 0.46079 0.94221 0.39735 0.0
C1113 C 0.46805 0.92404 0.39799 0.0
C1114 C 0.48196 0.92333 0.41732 0.0
C1115 C 0.48649 0.939 0.43678 0.0
C1116 C 0.45804 0.90354 0.38042 0.0
C1117 C 0.47444 0.90119 0.36491 0.0
C1118 C 0.43221 0.8861 0.37928 0.0
C1119 C 0.41415 0.88732 0.39574 0.0
C1120 C 0.41647 0.88566 0.42039 0.0
C1121 C 0.3999 0.88765 0.43587 0.0
C1122 C 0.38071 0.89096 0.42686 0.0
C1123 C 0.37802 0.89222 0.40235 0.0
C1124 C 0.39464 0.89038 0.3868 0.0
C1125 C 0.4302 0.80822 0.31089 0.0
C1126 C 0.41002 0.80401 0.29628 0.0
C1127 C 0.43946 0.82731 0.32784 0.0
C1128 C 0.42913 0.84293 0.33009 0.0
C1129 C 0.40851 0.83822 0.31599 0.0
C1130 C 0.39898 0.81891 0.29938 0.0
C1131 C 0.4397 0.86426 0.347 0.0
C1132 C 0.42338 0.86675 0.36261 0.0
C1133 C 0.46557 0.88201 0.34792 0.0
C1134 C 0.48361 0.88171 0.33078 0.0
C1135 C 0.47993 0.88233 0.30621 0.0
C1136 C 0.49691 0.88187 0.29014 0.0
C1137 C 0.51774 0.88099 0.29843 0.0
C1138 C 0.52169 0.88065 0.32281 0.0
C1139 C 0.50475 0.88107 0.33896 0.0
H1140 H 0.53086 0.88064 0.28596 0.0
H1141 H 0.36789 0.89249 0.43887 0.0
H1142 H 0.55873 0.49961 0.60491 0.0
H1143 H 0.58155 0.49537 0.57115 0.0
H1144 H 0.51799 0.42336 0.55509 0.0
H1145 H 0.49535 0.42777 0.58855 0.0
H1146 H 0.5944 0.46012 0.56863 0.0
H1147 H 0.51654 0.40909 0.49753 0.0
H1148 H 0.48031 0.41077 0.4815 0.0
H1149 H 0.51289 0.48718 0.50334 0.0
H1150 H 0.54949 0.48611 0.51918 0.0
H1151 H 0.58722 0.37564 0.46343 0.0
H1152 H 0.56933 0.39144 0.49248 0.0
H1153 H 0.63933 0.46052 0.49687 0.0
H1154 H 0.65753 0.44483 0.46781 0.0
H1155 H 0.56344 0.43194 0.48685 0.0
H1156 H 0.64321 0.4843 0.55401 0.0
H1157 H 0.67922 0.48255 0.57064 0.0
H1158 H 0.64245 0.40382 0.55712 0.0
H1159 H 0.60612 0.40505 0.54072 0.0
C1160 C 0.54944 0.48339 0.59351 0.0
C1161 C 0.52527 0.46417 0.59888 0.0
C1162 C 0.56249 0.48085 0.57444 0.0
C1163 C 0.55143 0.45912 0.5605 0.0
C1164 C 0.52676 0.4405 0.56527 0.0
C1165 C 0.51381 0.443 0.58432 0.0
C1166 C 0.56629 0.45436 0.54279 0.0
C1167 C 0.58797 0.45455 0.55055 0.0
C1168 C 0.55759 0.44656 0.51939 0.0
C1169 C 0.5357 0.44744 0.50972 0.0
C1170 C 0.51605 0.4263 0.49881 0.0
C1171 C 0.49543 0.42713 0.48977 0.0
C1172 C 0.49427 0.44904 0.49145 0.0
C1173 C 0.51376 0.47019 0.50212 0.0
C1174 C 0.53444 0.46947 0.51118 0.0
C1175 C 0.59899 0.39406 0.4708 0.0
C1176 C 0.62382 0.40899 0.46319 0.0
C1177 C 0.58866 0.40311 0.48731 0.0
C1178 C 0.60295 0.42718 0.49673 0.0
C1179 C 0.62801 0.44183 0.4899 0.0
C1180 C 0.63838 0.4328 0.4733 0.0
C1181 C 0.59114 0.43715 0.5129 0.0
C1182 C 0.57007 0.43793 0.50481 0.0
C1183 C 0.60041 0.44588 0.53597 0.0
C1184 C 0.62211 0.44486 0.54583 0.0
C1185 C 0.64282 0.46662 0.55461 0.0
C1186 C 0.66327 0.46571 0.564 0.0
C1187 C 0.66317 0.44311 0.56483 0.0
C1188 C 0.64257 0.42134 0.55635 0.0
C1189 C 0.62206 0.42214 0.54696 0.0
H1190 H 0.67902 0.44245 0.57211 0.0
H1191 H 0.47828 0.44965 0.48445 0.0
H1192 H 0.09659 0.57226 0.78277 0.0
H1193 H 0.12293 0.59041 0.74769 0.0
H1194 H 0.09037 0.51743 0.71579 0.0
H1195 H 0.06376 0.49927 0.75086 0.0
H1196 H 0.14232 0.54153 0.72143 0.0
H1197 H 0.08127 0.5598 0.68971 0.0
H1198 H 0.0527 0.57673 0.69058 0.0
H1199 H 0.1146 0.6503 0.70254 0.0
H1200 H 0.14353 0.63376 0.70207 0.0
H1201 H 0.21473 0.58037 0.61712 0.0
H1202 H 0.18146 0.56258 0.64644 0.0
H1203 H 0.20312 0.63635 0.67208 0.0
H1204 H 0.23593 0.65443 0.6419 0.0
H1205 H 0.15501 0.61099 0.66863 0.0
H1206 H 0.21568 0.59434 0.70343 0.0
H1207 H 0.24554 0.57897 0.70509 0.0
H1208 H 0.18633 0.50455 0.69075 0.0
H1209 H 0.15615 0.51952 0.68871 0.0
C1210 C 0.09442 0.5603 0.76783 0.0
C1211 C 0.07816 0.53446 0.76932 0.0
C1212 C 0.10947 0.57064 0.74787 0.0
C1213 C 0.10862 0.55523 0.7292 0.0
C1214 C 0.09122 0.5296 0.73002 0.0
C1215 C 0.07592 0.51929 0.7499 0.0
C1216 C 0.12809 0.56541 0.71058 0.0
C1217 C 0.14483 0.55638 0.70951 0.0
C1218 C 0.1319 0.58548 0.69585 0.0
C1219 C 0.11455 0.59549 0.69604 0.0
C1220 C 0.08878 0.57956 0.69272 0.0
C1221 C 0.07252 0.58909 0.6931 0.0
C1222 C 0.08182 0.61457 0.69666 0.0
C1223 C 0.10742 0.63057 0.69979 0.0
C1224 C 0.12376 0.62113 0.69944 0.0
C1225 C 0.21268 0.59286 0.62918 0.0
C1226 C 0.2281 0.61884 0.62726 0.0
C1227 C 0.19361 0.58262 0.646 0.0
C1228 C 0.18993 0.59807 0.66174 0.0
C1229 C 0.20557 0.62404 0.66013 0.0
C1230 C 0.22442 0.63434 0.64299 0.0
C1231 C 0.16933 0.58709 0.67938 0.0
C1232 C 0.15245 0.59603 0.68039 0.0
C1233 C 0.16561 0.56719 0.69442 0.0
C1234 C 0.1837 0.5581 0.69569 0.0
C1235 C 0.20906 0.57472 0.70046 0.0
C1236 C 0.22603 0.56608 0.7015 0.0
C1237 C 0.21785 0.54081 0.69797 0.0
C1238 C 0.19265 0.52412 0.69346 0.0
C1239 C 0.1756 0.53267 0.69238 0.0
H1240 H 0.23102 0.53415 0.69878 0.0
H1241 H 0.0692 0.62191 0.69695 0.0
H1242 H 0.5285 0.06703 0.93131 0.0
H1243 H 0.53701 0.09553 0.89769 0.0
H1244 H 0.61368 0.11259 0.89696 0.0
H1245 H 0.60514 0.08412 0.93031 0.0
H1246 H 0.60717 0.15372 0.90498 0.0
H1247 H 0.5793 0.08458 0.85099 0.0
H1248 H 0.54964 0.04319 0.83471 0.0
H1249 H 0.49635 0.06704 0.82186 0.0
H1250 H 0.52558 0.10851 0.83839 0.0
H1251 H 0.65974 0.23299 0.80599 0.0
H1252 H 0.64463 0.20036 0.83609 0.0
H1253 H 0.56952 0.18608 0.8257 0.0
H1254 H 0.58448 0.21873 0.79539 0.0
H1255 H 0.57182 0.14339 0.82403 0.0
H1256 H 0.59949 0.2127 0.87586 0.0
H1257 H 0.62772 0.25386 0.89342 0.0
H1258 H 0.67968 0.22981 0.91206 0.0
H1259 H 0.65198 0.18862 0.8942 0.0
C1260 C 0.5468 0.07602 0.92315 0.0
C1261 C 0.56615 0.07332 0.93303 0.0
C1262 C 0.55171 0.09238 0.90413 0.0
C1263 C 0.57602 0.10625 0.89502 0.0
C1264 C 0.59483 0.10206 0.90379 0.0
C1265 C 0.58991 0.08567 0.92263 0.0
C1266 C 0.58277 0.12748 0.87882 0.0
C1267 C 0.59974 0.15148 0.88713 0.0
C1268 C 0.57215 0.12451 0.85603 0.0
C1269 C 0.55451 0.09956 0.8462 0.0
C1270 C 0.56115 0.08093 0.84494 0.0
C1271 C 0.54444 0.05747 0.8356 0.0
C1272 C 0.52109 0.05246 0.82733 0.0
C1273 C 0.51442 0.07093 0.82832 0.0
C1274 C 0.53106 0.09442 0.83766 0.0
C1275 C 0.64006 0.22319 0.81032 0.0
C1276 C 0.62331 0.22844 0.79823 0.0
C1277 C 0.63145 0.20457 0.82759 0.0
C1278 C 0.60596 0.19082 0.83314 0.0
C1279 C 0.58927 0.19647 0.82163 0.0
C1280 C 0.59789 0.21524 0.80443 0.0
C1281 C 0.59673 0.16966 0.84998 0.0
C1282 C 0.57922 0.1457 0.84189 0.0
C1283 C 0.6067 0.17265 0.87312 0.0
C1284 C 0.62374 0.19762 0.88342 0.0
C1285 C 0.61707 0.21627 0.88342 0.0
C1286 C 0.63296 0.23959 0.89349 0.0
C1287 C 0.65551 0.24447 0.90377 0.0
C1288 C 0.66222 0.22602 0.90403 0.0
C1289 C 0.64643 0.20268 0.89393 0.0
H1290 H 0.66777 0.26253 0.91157 0.0
H1291 H 0.50819 0.03429 0.82009 0.0
H1292 H 0.53372 0.61891 0.1102 0.0
H1293 H 0.51226 0.62531 0.07692 0.0
H1294 H 0.47511 0.54672 0.06096 0.0
H1295 H 0.49628 0.54005 0.09477 0.0
H1296 H 0.49296 0.58294 0.01963 0.0
H1297 H 0.4437 0.56125 0.09115 0.0
H1298 H 0.43725 0.56498 0.13378 0.0
H1299 H 0.45607 0.64112 0.1237 0.0
H1300 H 0.46324 0.63806 0.08104 0.0
H1301 H 0.39414 0.58391 0.95427 0.0
H1302 H 0.41428 0.57192 0.98493 0.0
H1303 H 0.45579 0.6482 0.00879 0.0
H1304 H 0.4363 0.6605 0.97773 0.0
H1305 H 0.43325 0.60959 0.0461 0.0
H1306 H 0.4869 0.63472 0.97853 0.0
H1307 H 0.49878 0.63574 0.93664 0.0
H1308 H 0.47546 0.55782 0.9396 0.0
H1309 H 0.46305 0.55625 0.98152 0.0
C1310 C 0.52132 0.60305 0.09934 0.0
C1311 C 0.51633 0.57893 0.10523 0.0
C1312 C 0.50913 0.60674 0.08036 0.0
C1313 C 0.49185 0.58642 0.06685 0.0
C1314 C 0.48836 0.56258 0.07134 0.0
C1315 C 0.5005 0.55882 0.09053 0.0
C1316 C 0.47592 0.59003 0.04967 0.0
C1317 C 0.47947 0.58819 0.02536 0.0
C1318 C 0.45897 0.59768 0.05732 0.0
C1319 C 0.45426 0.59948 0.08291 0.0
C1320 C 0.44671 0.57887 0.09804 0.0
C1321 C 0.4429 0.58086 0.12221 0.0
C1322 C 0.44632 0.60329 0.13144 0.0
C1323 C 0.45348 0.62378 0.11651 0.0
C1324 C 0.45742 0.62192 0.09233 0.0
C1325 C 0.40724 0.59804 0.96632 0.0
C1326 C 0.4137 0.62314 0.96366 0.0
C1327 C 0.4188 0.59119 0.98369 0.0
C1328 C 0.43656 0.60923 -0.00107 0.0
C1329 C 0.4421 0.63406 -0.00288 0.0
C1330 C 0.431 0.64104 0.97941 0.0
C1331 C 0.45024 0.60244 0.01605 0.0
C1332 C 0.44634 0.60382 0.04036 0.0
C1333 C 0.46712 0.59474 0.00842 0.0
C1334 C 0.47369 0.59528 0.98304 0.0
C1335 C 0.48392 0.6177 0.97015 0.0
C1336 C 0.49085 0.61841 0.94644 0.0
C1337 C 0.48785 0.59686 0.93547 0.0
C1338 C 0.47775 0.57449 0.94814 0.0
C1339 C 0.47075 0.57368 0.97187 0.0
H1340 H 0.49354 0.59758 0.9172 0.0
H1341 H 0.44336 0.60477 0.15014 0.0
H1342 H 0.96968 0.53283 0.24862 0.0
H1343 H 0.94146 0.51409 0.21458 0.0
H1344 H 0.90732 0.44239 0.24916 0.0
H1345 H 0.93519 0.46114 0.28325 0.0
H1346 H 0.9135 0.44159 0.19734 0.0
H1347 H 0.87973 0.47225 0.25804 0.0
H1348 H 0.88271 0.50485 0.28532 0.0
H1349 H 0.8938 0.55289 0.22603 0.0
H1350 H 0.89139 0.52069 0.19852 0.0
H1351 H 0.79613 0.37857 0.14013 0.0
H1352 H 0.82893 0.3962 0.17034 0.0
H1353 H 0.84929 0.47042 0.1472 0.0
H1354 H 0.81598 0.45303 0.11782 0.0
H1355 H 0.85205 0.47075 0.19229 0.0
H1356 H 0.88253 0.43972 0.13059 0.0
H1357 H 0.88166 0.4085 0.10284 0.0
H1358 H 0.87884 0.3629 0.16151 0.0
H1359 H 0.87935 0.39371 0.18962 0.0
C1360 C 0.95674 0.51293 0.24848 0.0
C1361 C 0.95459 0.49832 0.26833 0.0
C1362 C 0.94058 0.50229 0.22918 0.0
C1363 C 0.92228 0.47691 0.22949 0.0
C1364 C 0.92142 0.46195 0.24855 0.0
C1365 C 0.93732 0.47263 0.26794 0.0
C1366 C 0.90212 0.4666 0.21156 0.0
C1367 C 0.89993 0.44778 0.19624 0.0
C1368 C 0.88477 0.47506 0.20996 0.0
C1369 C 0.8857 0.49424 0.22634 0.0
C1370 C 0.88304 0.48987 0.25092 0.0
C1371 C 0.88459 0.50824 0.26639 0.0
C1372 C 0.88851 0.53096 0.25742 0.0
C1373 C 0.89081 0.5353 0.23295 0.0
C1374 C 0.88936 0.517 0.21742 0.0
C1375 C 0.80741 0.39865 0.1417 0.0
C1376 C 0.80348 0.41437 0.12651 0.0
C1377 C 0.82632 0.40871 0.15882 0.0
C1378 C 0.84203 0.43466 0.16069 0.0
C1379 C 0.83753 0.45036 0.14607 0.0
C1380 C 0.81841 0.44034 0.12927 0.0
C1381 C 0.86325 0.4456 0.17771 0.0
C1382 C 0.86564 0.46455 0.19305 0.0
C1383 C 0.88095 0.43743 0.17905 0.0
C1384 C 0.88073 0.41891 0.1622 0.0
C1385 C 0.88155 0.42295 0.13757 0.0
C1386 C 0.88114 0.40534 0.12178 0.0
C1387 C 0.88013 0.3837 0.13041 0.0
C1388 C 0.87959 0.37966 0.15485 0.0
C1389 C 0.87995 0.3972 0.17072 0.0
H1390 H 0.87982 0.37009 0.11815 0.0
H1391 H 0.8897 0.54517 0.26941 0.0
loop_
_geom_bond_atom_site_label_1
_geom_bond_atom_site_label_2
_geom_bond_distance
_geom_bond_site_symmetry_2
_ccdc_geom_bond_type
H0 C6 0.930 . S
H1 C9 0.931 . S
H2 C11 0.931 . S
H3 C13 0.930 . S
H4 C15 0.930 . S
H5 C17 0.931 . S
C6 H0 0.930 . S
C6 C7 1.380 . S
C6 C8 1.394 . S
C7 C6 1.380 . S
C7 C11 1.382 . S
C8 C6 1.394 . S
C8 C9 1.400 . S
C9 H1 0.931 . S
C9 C8 1.400 . S
C9 C10 1.375 . S
C10 C9 1.375 . S
C10 C11 1.415 . S
C10 C12 1.501 1_455 S
C11 H2 0.931 . S
C11 C7 1.382 . S
C11 C10 1.415 . S
C12 C10 1.501 1_655 S
C12 C13 1.384 . S
C12 C17 1.408 . S
C13 H3 0.930 . S
C13 C12 1.384 . S
C13 C14 1.389 . S
C14 C13 1.389 . S
C14 C15 1.405 . S
C15 H4 0.930 . S
C15 C14 1.405 . S
C15 C16 1.364 . S
C16 C15 1.364 . S
C16 C17 1.400 . S
C17 H5 0.931 . S
C17 C12 1.408 . S
C17 C16 1.400 . S
H18 C24 0.930 . S
H19 C27 0.931 . S
H20 C29 0.931 . S
H21 C31 0.930 . S
H22 C33 0.930 . S
H23 C35 0.931 1_545 S
C24 H18 0.930 . S
C24 C25 1.380 . S
C24 C26 1.394 . S
C25 C24 1.380 . S
C25 C29 1.382 . S
C26 C24 1.394 . S
C26 C27 1.400 . S
C27 H19 0.931 . S
C27 C26 1.400 . S
C27 C28 1.375 . S
C28 C27 1.375 . S
C28 C29 1.415 . S
C28 C30 1.501 1_545 S
C29 H20 0.931 . S
C29 C25 1.382 . S
C29 C28 1.415 . S
C30 C28 1.501 1_565 S
C30 C31 1.384 . S
C30 C35 1.408 . S
C31 H21 0.930 . S
C31 C30 1.384 . S
C31 C32 1.389 . S
C32 C31 1.389 . S
C32 C33 1.405 . S
C33 H22 0.930 . S
C33 C32 1.405 . S
C33 C34 1.364 . S
C34 C33 1.364 . S
C34 C35 1.400 . S
C35 H23 0.931 1_565 S
C35 C30 1.408 . S
C35 C34 1.400 . S
H36 C42 0.930 . S
H37 C45 0.931 . S
H38 C47 0.931 . S
H39 C49 0.930 . S
H40 C51 0.930 . S
H41 C53 0.931 . S
C42 H36 0.930 . S
C42 C43 1.380 . S
C42 C44 1.394 . S
C43 C42 1.380 . S
C43 C47 1.382 . S
C44 C42 1.394 . S
C44 C45 1.400 . S
C45 H37 0.931 . S
C45 C44 1.400 . S
C45 C46 1.375 . S
C46 C45 1.375 . S
C46 C47 1.415 . S
C46 C48 1.501 . S
C47 H38 0.931 . S
C47 C43 1.382 . S
C47 C46 1.415 . S
C48 C46 1.501 . S
C48 C49 1.384 . S
C48 C53 1.408 . S
C49 H39 0.930 . S
C49 C48 1.384 . S
C49 C50 1.389 . S
C50 C49 1.389 . S
C50 C51 1.405 . S
C51 H40 0.930 . S
C51 C50 1.405 . S
C51 C52 1.364 . S
C52 C51 1.364 . S
C52 C53 1.400 . S
C53 H41 0.931 . S
C53 C48 1.408 . S
C53 C52 1.400 . S
H54 C60 0.930 . S
H55 C63 0.931 . S
H56 C65 0.931 . S
H57 C67 0.930 . S
H58 C69 0.930 . S
H59 C71 0.931 . S
C60 H54 0.930 . S
C60 C61 1.380 . S
C60 C62 1.394 . S
C61 C60 1.380 . S
C61 C65 1.382 . S
C62 C60 1.394 . S
C62 C63 1.400 . S
C63 H55 0.931 . S
C63 C62 1.400 . S
C63 C64 1.375 . S
C64 C63 1.375 . S
C64 C65 1.415 . S
C64 C66 1.501 1_455 S
C65 H56 0.931 . S
C65 C61 1.382 . S
C65 C64 1.415 . S
C66 C64 1.501 1_655 S
C66 C67 1.384 . S
C66 C71 1.408 . S
C67 H57 0.930 . S
C67 C66 1.384 . S
C67 C68 1.389 . S
C68 C67 1.389 . S
C68 C69 1.405 . S
C69 H58 0.930 . S
C69 C68 1.405 . S
C69 C70 1.364 . S
C70 C69 1.364 . S
C70 C71 1.400 . S
C71 H59 0.931 . S
C71 C66 1.408 . S
C71 C70 1.400 . S
H72 C78 0.930 . S
H73 C81 0.931 . S
H74 C83 0.931 1_545 S
H75 C85 0.930 . S
H76 C87 0.930 . S
H77 C89 0.931 . S
C78 H72 0.930 . S
C78 C79 1.380 . S
C78 C80 1.394 1_554 S
C79 C78 1.380 . S
C79 C83 1.382 . S
C80 C78 1.394 1_556 S
C80 C81 1.400 . S
C81 H73 0.931 . S
C81 C80 1.400 . S
C81 C82 1.375 . S
C82 C81 1.375 . S
C82 C83 1.415 1_556 S
C82 C84 1.501 1_565 S
C83 H74 0.931 1_565 S
C83 C79 1.382 . S
C83 C82 1.415 1_554 S
C84 C82 1.501 1_545 S
C84 C85 1.384 1_556 S
C84 C89 1.408 . S
C85 H75 0.930 . S
C85 C84 1.384 1_554 S
C85 C86 1.389 1_554 S
C86 C85 1.389 1_556 S
C86 C87 1.405 . S
C87 H76 0.930 . S
C87 C86 1.405 . S
C87 C88 1.364 . S
C88 C87 1.364 . S
C88 C89 1.400 . S
C89 H77 0.931 . S
C89 C84 1.408 . S
C89 C88 1.400 . S
H90 C96 0.930 . S
H91 C99 0.931 . S
H92 C101 0.931 . S
H93 C103 0.930 . S
H94 C105 0.930 . S
H95 C107 0.931 . S
C96 H90 0.930 . S
C96 C97 1.380 . S
C96 C98 1.394 . S
C97 C96 1.380 . S
C97 C101 1.382 . S
C98 C96 1.394 . S
C98 C99 1.400 . S
C99 H91 0.931 . S
C99 C98 1.400 . S
C99 C100 1.375 . S
C100 C99 1.375 . S
C100 C101 1.415 . S
C100 C102 1.501 . S
C101 H92 0.931 . S
C101 C97 1.382 . S
C101 C100 1.415 . S
C102 C100 1.501 . S
C102 C103 1.384 . S
C102 C107 1.408 . S
C103 H93 0.930 . S
C103 C102 1.384 . S
C103 C104 1.389 . S
C104 C103 1.389 . S
C104 C105 1.405 . S
C105 H94 0.930 . S
C105 C104 1.405 . S
C105 C106 1.364 . S
C106 C105 1.364 . S
C106 C107 1.400 . S
C107 H95 0.931 . S
C107 C102 1.408 . S
C107 C106 1.400 . S
O108 Cd109 2.223 . S
O108 C116 1.315 . S
Cd109 O108 2.223 . S
Cd109 O112 2.297 . S
Cd109 O113 2.439 . S
Cd109 O119 2.240 . S
Cd110 O111 2.240 . S
Cd110 O118 2.223 . S
Cd110 O120 2.297 . S
Cd110 O121 2.439 . S
O111 Cd110 2.240 . S
O111 C116 1.279 . S
O112 Cd109 2.297 . S
O112 C114 1.247 . S
O113 Cd109 2.439 . S
O113 C114 1.208 . S
C114 O112 1.247 . S
C114 O113 1.208 . S
C115 O120 1.247 . S
C115 O121 1.208 . S
C116 O108 1.315 . S
C116 O111 1.279 . S
C117 O118 1.315 . S
C117 O119 1.279 . S
O118 Cd110 2.223 . S
O118 C117 1.315 . S
O119 Cd109 2.240 . S
O119 C117 1.279 . S
O120 Cd110 2.297 . S
O120 C115 1.247 . S
O121 Cd110 2.439 . S
O121 C115 1.208 . S
O122 Cd123 2.223 . S
O122 C130 1.315 . S
Cd123 O122 2.223 . S
Cd123 O126 2.297 . S
Cd123 O127 2.439 . S
Cd123 O133 2.240 . S
Cd124 O125 2.240 . S
Cd124 O132 2.223 . S
Cd124 O134 2.297 . S
Cd124 O135 2.439 . S
O125 Cd124 2.240 . S
O125 C130 1.279 . S
O126 Cd123 2.297 . S
O126 C128 1.247 . S
O127 Cd123 2.439 . S
O127 C128 1.208 . S
C128 O126 1.247 . S
C128 O127 1.208 . S
C129 O134 1.247 . S
C129 O135 1.208 . S
C130 O122 1.315 . S
C130 O125 1.279 . S
C131 O132 1.315 . S
C131 O133 1.279 . S
O132 Cd124 2.223 . S
O132 C131 1.315 . S
O133 Cd123 2.240 . S
O133 C131 1.279 . S
O134 Cd124 2.297 . S
O134 C129 1.247 . S
O135 Cd124 2.439 . S
O135 C129 1.208 . S
O136 Cd137 2.223 . S
O136 C144 1.315 . S
Cd137 O136 2.223 . S
Cd137 O140 2.297 . S
Cd137 O141 2.439 . S
Cd137 O147 2.240 . S
Cd138 O139 2.240 . S
Cd138 O146 2.223 . S
Cd138 O148 2.297 . S
Cd138 O149 2.439 . S
O139 Cd138 2.240 . S
O139 C144 1.279 . S
O140 Cd137 2.297 . S
O140 C142 1.247 . S
O141 Cd137 2.439 . S
O141 C142 1.208 . S
C142 O140 1.247 . S
C142 O141 1.208 . S
C143 O148 1.247 . S
C143 O149 1.208 . S
C144 O136 1.315 . S
C144 O139 1.279 . S
C145 O146 1.315 . S
C145 O147 1.279 . S
O146 Cd138 2.223 . S
O146 C145 1.315 . S
O147 Cd137 2.240 . S
O147 C145 1.279 . S
O148 Cd138 2.297 . S
O148 C143 1.247 . S
O149 Cd138 2.439 . S
O149 C143 1.208 . S
O150 Cd151 2.223 . S
O150 C158 1.315 . S
Cd151 O150 2.223 . S
Cd151 O154 2.297 . S
Cd151 O155 2.439 . S
Cd151 O161 2.240 . S
Cd152 O153 2.240 . S
Cd152 O160 2.223 . S
Cd152 O162 2.297 . S
Cd152 O163 2.439 . S
O153 Cd152 2.240 . S
O153 C158 1.279 . S
O154 Cd151 2.297 . S
O154 C156 1.247 . S
O155 Cd151 2.439 . S
O155 C156 1.208 . S
C156 O154 1.247 . S
C156 O155 1.208 . S
C157 O162 1.247 . S
C157 O163 1.208 . S
C158 O150 1.315 . S
C158 O153 1.279 . S
C159 O160 1.315 . S
C159 O161 1.279 . S
O160 Cd152 2.223 . S
O160 C159 1.315 . S
O161 Cd151 2.240 . S
O161 C159 1.279 . S
O162 Cd152 2.297 . S
O162 C157 1.247 . S
O163 Cd152 2.439 . S
O163 C157 1.208 . S
O164 Cd165 2.223 . S
O164 C172 1.315 . S
Cd165 O164 2.223 . S
Cd165 O168 2.297 . S
Cd165 O169 2.439 . S
Cd165 O175 2.240 . S
Cd166 O167 2.240 . S
Cd166 O174 2.223 . S
Cd166 O176 2.297 . S
Cd166 O177 2.439 . S
O167 Cd166 2.240 . S
O167 C172 1.279 . S
O168 Cd165 2.297 . S
O168 C170 1.247 . S
O169 Cd165 2.439 . S
O169 C170 1.208 . S
C170 O168 1.247 . S
C170 O169 1.208 . S
C171 O176 1.247 . S
C171 O177 1.208 . S
C172 O164 1.315 . S
C172 O167 1.279 . S
C173 O174 1.315 . S
C173 O175 1.279 . S
O174 Cd166 2.223 . S
O174 C173 1.315 . S
O175 Cd165 2.240 . S
O175 C173 1.279 . S
O176 Cd166 2.297 . S
O176 C171 1.247 . S
O177 Cd166 2.439 . S
O177 C171 1.208 . S
O178 Cd179 2.223 . S
O178 C186 1.315 . S
Cd179 O178 2.223 . S
Cd179 O182 2.297 . S
Cd179 O183 2.439 . S
Cd179 O189 2.240 . S
Cd180 O181 2.240 . S
Cd180 O188 2.223 . S
Cd180 O190 2.297 . S
Cd180 O191 2.439 . S
O181 Cd180 2.240 . S
O181 C186 1.279 . S
O182 Cd179 2.297 . S
O182 C184 1.247 . S
O183 Cd179 2.439 . S
O183 C184 1.208 . S
C184 O182 1.247 . S
C184 O183 1.208 . S
C185 O190 1.247 . S
C185 O191 1.208 . S
C186 O178 1.315 . S
C186 O181 1.279 . S
C187 O188 1.315 . S
C187 O189 1.279 . S
O188 Cd180 2.223 . S
O188 C187 1.315 . S
O189 Cd179 2.240 . S
O189 C187 1.279 . S
O190 Cd180 2.297 . S
O190 C185 1.247 . S
O191 Cd180 2.439 . S
O191 C185 1.208 . S
H192 C210 0.951 . S
H193 C212 0.951 . S
H194 C214 0.950 . S
H195 C215 0.950 . S
H196 C217 0.950 . S
H197 C220 0.950 . S
H198 C221 0.950 . S
H199 C223 0.950 . S
H200 C224 0.950 . S
H201 C225 0.951 . S
H202 C227 0.951 . S
H203 C229 0.950 . S
H204 C230 0.950 . S
H205 C232 0.950 . S
H206 C235 0.950 . S
H207 C236 0.950 . S
H208 C238 0.950 . S
H209 C239 0.950 . S
C210 H192 0.951 . S
C210 C211 1.366 . S
C210 C212 1.388 . S
C211 C210 1.366 . S
C211 C215 1.385 . S
C212 H193 0.951 . S
C212 C210 1.388 . S
C212 C213 1.366 . S
C213 C212 1.366 . S
C213 C214 1.414 . S
C213 C216 1.499 . S
C214 H194 0.950 . S
C214 C213 1.414 . S
C214 C215 1.374 . S
C215 H195 0.950 . S
C215 C211 1.385 . S
C215 C214 1.374 . S
C216 C213 1.499 . S
C216 C217 1.373 . S
C216 C218 1.389 . S
C217 H196 0.950 . S
C217 C216 1.373 . S
C217 C233 1.377 . S
C218 C216 1.389 . S
C218 C219 1.524 . S
C218 C232 1.377 . S
C219 C218 1.524 . S
C219 C220 1.397 . S
C219 C224 1.363 . S
C220 H197 0.950 . S
C220 C219 1.397 . S
C220 C221 1.334 . S
C221 H198 0.950 . S
C221 C220 1.334 . S
C221 C222 1.287 . S
C222 C221 1.287 . S
C222 C223 1.524 . S
C222 H241 0.913 . S
C223 H199 0.950 . S
C223 C222 1.524 . S
C223 C224 1.415 . S
C224 H200 0.950 . S
C224 C219 1.363 . S
C224 C223 1.415 . S
C225 H201 0.951 . S
C225 C226 1.366 . S
C225 C227 1.388 . S
C226 C225 1.366 . S
C226 C230 1.385 . S
C227 H202 0.951 . S
C227 C225 1.388 . S
C227 C228 1.366 . S
C228 C227 1.366 . S
C228 C229 1.414 . S
C228 C231 1.499 . S
C229 H203 0.950 . S
C229 C228 1.414 . S
C229 C230 1.374 . S
C230 H204 0.950 . S
C230 C226 1.385 . S
C230 C229 1.374 . S
C231 C228 1.499 . S
C231 C232 1.373 . S
C231 C233 1.389 . S
C232 H205 0.950 . S
C232 C218 1.377 . S
C232 C231 1.373 . S
C233 C217 1.377 . S
C233 C231 1.389 . S
C233 C234 1.524 . S
C234 C233 1.524 . S
C234 C235 1.397 . S
C234 C239 1.363 . S
C235 H206 0.950 . S
C235 C234 1.397 . S
C235 C236 1.334 . S
C236 H207 0.950 . S
C236 C235 1.334 . S
C236 C237 1.287 . S
C237 C236 1.287 . S
C237 C238 1.524 . S
C237 H240 0.999 . S
C238 H208 0.950 . S
C238 C237 1.524 . S
C238 C239 1.415 . S
C239 H209 0.950 . S
C239 C234 1.363 . S
C239 C238 1.415 . S
H240 C237 0.999 . S
H241 C222 0.913 . S
H242 C260 0.951 . S
H243 C262 0.951 . S
H244 C264 0.950 . S
H245 C265 0.950 . S
H246 C267 0.950 . S
H247 C270 0.950 . S
H248 C271 0.950 . S
H249 C273 0.950 . S
H250 C274 0.950 . S
H251 C275 0.951 . S
H252 C277 0.951 . S
H253 C279 0.950 . S
H254 C280 0.950 . S
H255 C282 0.950 . S
H256 C285 0.950 . S
H257 C286 0.950 . S
H258 C288 0.950 . S
H259 C289 0.950 . S
C260 H242 0.951 . S
C260 C261 1.366 . S
C260 C262 1.388 . S
C261 C260 1.366 . S
C261 C265 1.385 . S
C262 H243 0.951 . S
C262 C260 1.388 . S
C262 C263 1.366 . S
C263 C262 1.366 . S
C263 C264 1.414 . S
C263 C266 1.499 . S
C264 H244 0.950 . S
C264 C263 1.414 . S
C264 C265 1.374 . S
C265 H245 0.950 . S
C265 C261 1.385 . S
C265 C264 1.374 . S
C266 C263 1.499 . S
C266 C267 1.373 . S
C266 C268 1.389 . S
C267 H246 0.950 . S
C267 C266 1.373 . S
C267 C283 1.377 . S
C268 C266 1.389 . S
C268 C269 1.524 . S
C268 C282 1.377 . S
C269 C268 1.524 . S
C269 C270 1.397 . S
C269 C274 1.363 . S
C270 H247 0.950 . S
C270 C269 1.397 . S
C270 C271 1.334 . S
C271 H248 0.950 . S
C271 C270 1.334 . S
C271 C272 1.287 . S
C272 C271 1.287 . S
C272 C273 1.524 . S
C272 H291 0.913 . S
C273 H249 0.950 . S
C273 C272 1.524 . S
C273 C274 1.415 . S
C274 H250 0.950 . S
C274 C269 1.363 . S
C274 C273 1.415 . S
C275 H251 0.951 . S
C275 C276 1.366 . S
C275 C277 1.388 . S
C276 C275 1.366 . S
C276 C280 1.385 . S
C277 H252 0.951 . S
C277 C275 1.388 . S
C277 C278 1.366 . S
C278 C277 1.366 . S
C278 C279 1.414 . S
C278 C281 1.499 . S
C279 H253 0.950 . S
C279 C278 1.414 . S
C279 C280 1.374 . S
C280 H254 0.950 . S
C280 C276 1.385 . S
C280 C279 1.374 . S
C281 C278 1.499 . S
C281 C282 1.373 . S
C281 C283 1.389 . S
C282 H255 0.950 . S
C282 C268 1.377 . S
C282 C281 1.373 . S
C283 C267 1.377 . S
C283 C281 1.389 . S
C283 C284 1.524 . S
C284 C283 1.524 . S
C284 C285 1.397 . S
C284 C289 1.363 . S
C285 H256 0.950 . S
C285 C284 1.397 . S
C285 C286 1.334 . S
C286 H257 0.950 . S
C286 C285 1.334 . S
C286 C287 1.287 . S
C287 C286 1.287 . S
C287 C288 1.524 . S
C287 H290 0.999 . S
C288 H258 0.950 . S
C288 C287 1.524 . S
C288 C289 1.415 . S
C289 H259 0.950 . S
C289 C284 1.363 . S
C289 C288 1.415 . S
H290 C287 0.999 . S
H291 C272 0.913 . S
H292 C310 0.951 . S
H293 C312 0.951 . S
H294 C314 0.950 . S
H295 C315 0.950 . S
H296 C317 0.950 . S
H297 C320 0.950 . S
H298 C321 0.950 . S
H299 C323 0.950 . S
H300 C324 0.950 . S
H301 C325 0.951 . S
H302 C327 0.951 . S
H303 C329 0.950 . S
H304 C330 0.950 . S
H305 C332 0.950 . S
H306 C335 0.950 . S
H307 C336 0.950 . S
H308 C338 0.950 . S
H309 C339 0.950 . S
C310 H292 0.951 . S
C310 C311 1.366 . S
C310 C312 1.388 . S
C311 C310 1.366 . S
C311 C315 1.385 . S
C312 H293 0.951 . S
C312 C310 1.388 . S
C312 C313 1.366 . S
C313 C312 1.366 . S
C313 C314 1.414 . S
C313 C316 1.499 . S
C314 H294 0.950 . S
C314 C313 1.414 . S
C314 C315 1.374 . S
C315 H295 0.950 . S
C315 C311 1.385 . S
C315 C314 1.374 . S
C316 C313 1.499 . S
C316 C317 1.373 . S
C316 C318 1.389 . S
C317 H296 0.950 . S
C317 C316 1.373 . S
C317 C333 1.377 . S
C318 C316 1.389 . S
C318 C319 1.524 . S
C318 C332 1.377 . S
C319 C318 1.524 . S
C319 C320 1.397 . S
C319 C324 1.363 . S
C320 H297 0.950 . S
C320 C319 1.397 . S
C320 C321 1.334 . S
C321 H298 0.950 . S
C321 C320 1.334 . S
C321 C322 1.287 . S
C322 C321 1.287 . S
C322 C323 1.524 . S
C322 H341 0.913 . S
C323 H299 0.950 . S
C323 C322 1.524 . S
C323 C324 1.415 . S
C324 H300 0.950 . S
C324 C319 1.363 . S
C324 C323 1.415 . S
C325 H301 0.951 . S
C325 C326 1.366 . S
C325 C327 1.388 . S
C326 C325 1.366 . S
C326 C330 1.385 . S
C327 H302 0.951 . S
C327 C325 1.388 . S
C327 C328 1.366 . S
C328 C327 1.366 . S
C328 C329 1.414 . S
C328 C331 1.499 . S
C329 H303 0.950 . S
C329 C328 1.414 . S
C329 C330 1.374 . S
C330 H304 0.950 . S
C330 C326 1.385 . S
C330 C329 1.374 . S
C331 C328 1.499 . S
C331 C332 1.373 . S
C331 C333 1.389 . S
C332 H305 0.950 . S
C332 C318 1.377 . S
C332 C331 1.373 . S
C333 C317 1.377 . S
C333 C331 1.389 . S
C333 C334 1.524 . S
C334 C333 1.524 . S
C334 C335 1.397 . S
C334 C339 1.363 . S
C335 H306 0.950 . S
C335 C334 1.397 . S
C335 C336 1.334 . S
C336 H307 0.950 . S
C336 C335 1.334 . S
C336 C337 1.287 . S
C337 C336 1.287 . S
C337 C338 1.524 . S
C337 H340 0.999 . S
C338 H308 0.950 . S
C338 C337 1.524 . S
C338 C339 1.415 . S
C339 H309 0.950 . S
C339 C334 1.363 . S
C339 C338 1.415 . S
H340 C337 0.999 . S
H341 C322 0.913 . S
H342 C360 0.951 . S
H343 C362 0.951 . S
H344 C364 0.950 . S
H345 C365 0.950 . S
H346 C367 0.950 . S
H347 C370 0.950 . S
H348 C371 0.950 . S
H349 C373 0.950 . S
H350 C374 0.950 . S
H351 C375 0.951 . S
H352 C377 0.951 . S
H353 C379 0.950 . S
H354 C380 0.950 . S
H355 C382 0.950 . S
H356 C385 0.950 . S
H357 C386 0.950 . S
H358 C388 0.950 . S
H359 C389 0.950 . S
C360 H342 0.951 . S
C360 C361 1.366 . S
C360 C362 1.388 . S
C361 C360 1.366 . S
C361 C365 1.385 . S
C362 H343 0.951 . S
C362 C360 1.388 . S
C362 C363 1.366 . S
C363 C362 1.366 . S
C363 C364 1.414 . S
C363 C366 1.499 . S
C364 H344 0.950 . S
C364 C363 1.414 . S
C364 C365 1.374 . S
C365 H345 0.950 . S
C365 C361 1.385 . S
C365 C364 1.374 . S
C366 C363 1.499 . S
C366 C367 1.373 . S
C366 C368 1.389 . S
C367 H346 0.950 . S
C367 C366 1.373 . S
C367 C383 1.377 . S
C368 C366 1.389 . S
C368 C369 1.524 . S
C368 C382 1.377 . S
C369 C368 1.524 . S
C369 C370 1.397 . S
C369 C374 1.363 . S
C370 H347 0.950 . S
C370 C369 1.397 . S
C370 C371 1.334 . S
C371 H348 0.950 . S
C371 C370 1.334 . S
C371 C372 1.287 . S
C372 C371 1.287 . S
C372 C373 1.524 . S
C372 H391 0.913 . S
C373 H349 0.950 . S
C373 C372 1.524 . S
C373 C374 1.415 . S
C374 H350 0.950 . S
C374 C369 1.363 . S
C374 C373 1.415 . S
C375 H351 0.951 . S
C375 C376 1.366 . S
C375 C377 1.388 . S
C376 C375 1.366 . S
C376 C380 1.385 . S
C377 H352 0.951 . S
C377 C375 1.388 . S
C377 C378 1.366 . S
C378 C377 1.366 . S
C378 C379 1.414 . S
C378 C381 1.499 . S
C379 H353 0.950 . S
C379 C378 1.414 . S
C379 C380 1.374 . S
C380 H354 0.950 . S
C380 C376 1.385 . S
C380 C379 1.374 . S
C381 C378 1.499 . S
C381 C382 1.373 . S
C381 C383 1.389 . S
C382 H355 0.950 . S
C382 C368 1.377 . S
C382 C381 1.373 . S
C383 C367 1.377 . S
C383 C381 1.389 . S
C383 C384 1.524 . S
C384 C383 1.524 . S
C384 C385 1.397 . S
C384 C389 1.363 . S
C385 H356 0.950 . S
C385 C384 1.397 . S
C385 C386 1.334 . S
C386 H357 0.950 . S
C386 C385 1.334 . S
C386 C387 1.287 . S
C387 C386 1.287 . S
C387 C388 1.524 . S
C387 H390 0.999 . S
C388 H358 0.950 . S
C388 C387 1.524 . S
C388 C389 1.415 . S
C389 H359 0.950 . S
C389 C384 1.363 . S
C389 C388 1.415 . S
H390 C387 0.999 . S
H391 C372 0.913 . S
H392 C410 0.951 . S
H393 C412 0.951 . S
H394 C414 0.950 . S
H395 C415 0.950 . S
H396 C417 0.950 . S
H397 C420 0.950 . S
H398 C421 0.950 . S
H399 C423 0.950 . S
H400 C424 0.950 . S
H401 C425 0.951 . S
H402 C427 0.951 . S
H403 C429 0.950 . S
H404 C430 0.950 . S
H405 C432 0.950 . S
H406 C435 0.950 . S
H407 C436 0.950 . S
H408 C438 0.950 . S
H409 C439 0.950 . S
C410 H392 0.951 . S
C410 C411 1.366 . S
C410 C412 1.388 . S
C411 C410 1.366 . S
C411 C415 1.385 . S
C412 H393 0.951 . S
C412 C410 1.388 . S
C412 C413 1.366 . S
C413 C412 1.366 . S
C413 C414 1.414 . S
C413 C416 1.499 . S
C414 H394 0.950 . S
C414 C413 1.414 . S
C414 C415 1.374 . S
C415 H395 0.950 . S
C415 C411 1.385 . S
C415 C414 1.374 . S
C416 C413 1.499 . S
C416 C417 1.373 . S
C416 C418 1.389 . S
C417 H396 0.950 . S
C417 C416 1.373 . S
C417 C433 1.377 . S
C418 C416 1.389 . S
C418 C419 1.524 . S
C418 C432 1.377 . S
C419 C418 1.524 . S
C419 C420 1.397 1_556 S
C419 C424 1.363 . S
C420 H397 0.950 . S
C420 C419 1.397 1_554 S
C420 C421 1.334 . S
C421 H398 0.950 . S
C421 C420 1.334 . S
C421 C422 1.287 . S
C422 C421 1.287 . S
C422 C423 1.524 . S
C422 H441 0.913 . S
C423 H399 0.950 . S
C423 C422 1.524 . S
C423 C424 1.415 1_554 S
C424 H400 0.950 . S
C424 C419 1.363 . S
C424 C423 1.415 1_556 S
C425 H401 0.951 . S
C425 C426 1.366 . S
C425 C427 1.388 . S
C426 C425 1.366 . S
C426 C430 1.385 . S
C427 H402 0.951 . S
C427 C425 1.388 . S
C427 C428 1.366 . S
C428 C427 1.366 . S
C428 C429 1.414 . S
C428 C431 1.499 . S
C429 H403 0.950 . S
C429 C428 1.414 . S
C429 C430 1.374 . S
C430 H404 0.950 . S
C430 C426 1.385 . S
C430 C429 1.374 . S
C431 C428 1.499 . S
C431 C432 1.373 . S
C431 C433 1.389 . S
C432 H405 0.950 . S
C432 C418 1.377 . S
C432 C431 1.373 . S
C433 C417 1.377 . S
C433 C431 1.389 . S
C433 C434 1.524 . S
C434 C433 1.524 . S
C434 C435 1.397 . S
C434 C439 1.363 . S
C435 H406 0.950 . S
C435 C434 1.397 . S
C435 C436 1.334 . S
C436 H407 0.950 . S
C436 C435 1.334 . S
C436 C437 1.287 . S
C437 C436 1.287 . S
C437 C438 1.524 . S
C437 H440 0.999 . S
C438 H408 0.950 . S
C438 C437 1.524 . S
C438 C439 1.415 . S
C439 H409 0.950 . S
C439 C434 1.363 . S
C439 C438 1.415 . S
H440 C437 0.999 . S
H441 C422 0.913 . S
H442 C460 0.951 . S
H443 C462 0.951 . S
H444 C464 0.950 . S
H445 C465 0.950 . S
H446 C467 0.950 . S
H447 C470 0.950 . S
H448 C471 0.950 . S
H449 C473 0.950 . S
H450 C474 0.950 . S
H451 C475 0.951 . S
H452 C477 0.951 . S
H453 C479 0.950 . S
H454 C480 0.950 . S
H455 C482 0.950 . S
H456 C485 0.950 . S
H457 C486 0.950 . S
H458 C488 0.950 . S
H459 C489 0.950 . S
C460 H442 0.951 . S
C460 C461 1.366 . S
C460 C462 1.388 . S
C461 C460 1.366 . S
C461 C465 1.385 . S
C462 H443 0.951 . S
C462 C460 1.388 . S
C462 C463 1.366 . S
C463 C462 1.366 . S
C463 C464 1.414 . S
C463 C466 1.499 . S
C464 H444 0.950 . S
C464 C463 1.414 . S
C464 C465 1.374 . S
C465 H445 0.950 . S
C465 C461 1.385 . S
C465 C464 1.374 . S
C466 C463 1.499 . S
C466 C467 1.373 . S
C466 C468 1.389 . S
C467 H446 0.950 . S
C467 C466 1.373 . S
C467 C483 1.377 . S
C468 C466 1.389 . S
C468 C469 1.524 . S
C468 C482 1.377 . S
C469 C468 1.524 . S
C469 C470 1.397 . S
C469 C474 1.363 . S
C470 H447 0.950 . S
C470 C469 1.397 . S
C470 C471 1.334 . S
C471 H448 0.950 . S
C471 C470 1.334 . S
C471 C472 1.287 . S
C472 C471 1.287 . S
C472 C473 1.524 . S
C472 H491 0.913 . S
C473 H449 0.950 . S
C473 C472 1.524 . S
C473 C474 1.415 . S
C474 H450 0.950 . S
C474 C469 1.363 . S
C474 C473 1.415 . S
C475 H451 0.951 . S
C475 C476 1.366 . S
C475 C477 1.388 . S
C476 C475 1.366 . S
C476 C480 1.385 . S
C477 H452 0.951 . S
C477 C475 1.388 . S
C477 C478 1.366 . S
C478 C477 1.366 . S
C478 C479 1.414 . S
C478 C481 1.499 . S
C479 H453 0.950 . S
C479 C478 1.414 . S
C479 C480 1.374 . S
C480 H454 0.950 . S
C480 C476 1.385 . S
C480 C479 1.374 . S
C481 C478 1.499 . S
C481 C482 1.373 . S
C481 C483 1.389 . S
C482 H455 0.950 . S
C482 C468 1.377 . S
C482 C481 1.373 . S
C483 C467 1.377 . S
C483 C481 1.389 . S
C483 C484 1.524 . S
C484 C483 1.524 . S
C484 C485 1.397 . S
C484 C489 1.363 . S
C485 H456 0.950 . S
C485 C484 1.397 . S
C485 C486 1.334 . S
C486 H457 0.950 . S
C486 C485 1.334 . S
C486 C487 1.287 . S
C487 C486 1.287 . S
C487 C488 1.524 . S
C487 H490 0.999 . S
C488 H458 0.950 . S
C488 C487 1.524 . S
C488 C489 1.415 . S
C489 H459 0.950 . S
C489 C484 1.363 . S
C489 C488 1.415 . S
H490 C487 0.999 . S
H491 C472 0.913 . S
H492 C510 0.951 . S
H493 C512 0.951 . S
H494 C514 0.950 . S
H495 C515 0.950 . S
H496 C517 0.950 . S
H497 C520 0.950 . S
H498 C521 0.950 . S
H499 C523 0.950 . S
H500 C524 0.950 . S
H501 C525 0.951 . S
H502 C527 0.951 . S
H503 C529 0.950 . S
H504 C530 0.950 . S
H505 C532 0.950 . S
H506 C535 0.950 . S
H507 C536 0.950 . S
H508 C538 0.950 . S
H509 C539 0.950 . S
C510 H492 0.951 . S
C510 C511 1.366 . S
C510 C512 1.388 . S
C511 C510 1.366 . S
C511 C515 1.385 . S
C512 H493 0.951 . S
C512 C510 1.388 . S
C512 C513 1.366 . S
C513 C512 1.366 . S
C513 C514 1.414 . S
C513 C516 1.499 . S
C514 H494 0.950 . S
C514 C513 1.414 . S
C514 C515 1.374 . S
C515 H495 0.950 . S
C515 C511 1.385 . S
C515 C514 1.374 . S
C516 C513 1.499 . S
C516 C517 1.373 . S
C516 C518 1.389 . S
C517 H496 0.950 . S
C517 C516 1.373 . S
C517 C533 1.377 . S
C518 C516 1.389 . S
C518 C519 1.524 . S
C518 C532 1.377 . S
C519 C518 1.524 . S
C519 C520 1.397 . S
C519 C524 1.363 . S
C520 H497 0.950 . S
C520 C519 1.397 . S
C520 C521 1.334 . S
C521 H498 0.950 . S
C521 C520 1.334 . S
C521 C522 1.287 . S
C522 C521 1.287 . S
C522 C523 1.524 . S
C522 H541 0.913 . S
C523 H499 0.950 . S
C523 C522 1.524 . S
C523 C524 1.415 . S
C524 H500 0.950 . S
C524 C519 1.363 . S
C524 C523 1.415 . S
C525 H501 0.951 . S
C525 C526 1.366 . S
C525 C527 1.388 . S
C526 C525 1.366 . S
C526 C530 1.385 . S
C527 H502 0.951 . S
C527 C525 1.388 . S
C527 C528 1.366 . S
C528 C527 1.366 . S
C528 C529 1.414 . S
C528 C531 1.499 . S
C529 H503 0.950 . S
C529 C528 1.414 . S
C529 C530 1.374 . S
C530 H504 0.950 . S
C530 C526 1.385 . S
C530 C529 1.374 . S
C531 C528 1.499 . S
C531 C532 1.373 . S
C531 C533 1.389 . S
C532 H505 0.950 . S
C532 C518 1.377 . S
C532 C531 1.373 . S
C533 C517 1.377 . S
C533 C531 1.389 . S
C533 C534 1.524 . S
C534 C533 1.524 . S
C534 C535 1.397 . S
C534 C539 1.363 . S
C535 H506 0.950 . S
C535 C534 1.397 . S
C535 C536 1.334 . S
C536 H507 0.950 . S
C536 C535 1.334 . S
C536 C537 1.287 . S
C537 C536 1.287 . S
C537 C538 1.524 . S
C537 H540 0.999 . S
C538 H508 0.950 . S
C538 C537 1.524 . S
C538 C539 1.415 . S
C539 H509 0.950 . S
C539 C534 1.363 . S
C539 C538 1.415 . S
H540 C537 0.999 . S
H541 C522 0.913 . S
H542 C560 0.951 . S
H543 C562 0.951 . S
H544 C564 0.950 . S
H545 C565 0.950 . S
H546 C567 0.950 . S
H547 C570 0.950 . S
H548 C571 0.950 . S
H549 C573 0.950 . S
H550 C574 0.950 . S
H551 C575 0.951 . S
H552 C577 0.951 . S
H553 C579 0.950 . S
H554 C580 0.950 . S
H555 C582 0.950 . S
H556 C585 0.950 . S
H557 C586 0.950 . S
H558 C588 0.950 . S
H559 C589 0.950 . S
C560 H542 0.951 . S
C560 C561 1.366 . S
C560 C562 1.388 . S
C561 C560 1.366 . S
C561 C565 1.385 . S
C562 H543 0.951 . S
C562 C560 1.388 . S
C562 C563 1.366 . S
C563 C562 1.366 . S
C563 C564 1.414 . S
C563 C566 1.499 . S
C564 H544 0.950 . S
C564 C563 1.414 . S
C564 C565 1.374 . S
C565 H545 0.950 . S
C565 C561 1.385 . S
C565 C564 1.374 . S
C566 C563 1.499 . S
C566 C567 1.373 . S
C566 C568 1.389 . S
C567 H546 0.950 . S
C567 C566 1.373 . S
C567 C583 1.377 . S
C568 C566 1.389 . S
C568 C569 1.524 . S
C568 C582 1.377 . S
C569 C568 1.524 . S
C569 C570 1.397 . S
C569 C574 1.363 . S
C570 H547 0.950 . S
C570 C569 1.397 . S
C570 C571 1.334 . S
C571 H548 0.950 . S
C571 C570 1.334 . S
C571 C572 1.287 . S
C572 C571 1.287 . S
C572 C573 1.524 . S
C572 H591 0.913 . S
C573 H549 0.950 . S
C573 C572 1.524 . S
C573 C574 1.415 . S
C574 H550 0.950 . S
C574 C569 1.363 . S
C574 C573 1.415 . S
C575 H551 0.951 . S
C575 C576 1.366 . S
C575 C577 1.388 . S
C576 C575 1.366 . S
C576 C580 1.385 . S
C577 H552 0.951 . S
C577 C575 1.388 . S
C577 C578 1.366 . S
C578 C577 1.366 . S
C578 C579 1.414 . S
C578 C581 1.499 . S
C579 H553 0.950 . S
C579 C578 1.414 . S
C579 C580 1.374 . S
C580 H554 0.950 . S
C580 C576 1.385 . S
C580 C579 1.374 . S
C581 C578 1.499 . S
C581 C582 1.373 . S
C581 C583 1.389 . S
C582 H555 0.950 . S
C582 C568 1.377 . S
C582 C581 1.373 . S
C583 C567 1.377 . S
C583 C581 1.389 . S
C583 C584 1.524 . S
C584 C583 1.524 . S
C584 C585 1.397 . S
C584 C589 1.363 . S
C585 H556 0.950 . S
C585 C584 1.397 . S
C585 C586 1.334 . S
C586 H557 0.950 . S
C586 C585 1.334 . S
C586 C587 1.287 . S
C587 C586 1.287 . S
C587 C588 1.524 . S
C587 H590 0.999 . S
C588 H558 0.950 . S
C588 C587 1.524 . S
C588 C589 1.415 . S
C589 H559 0.950 . S
C589 C584 1.363 . S
C589 C588 1.415 . S
H590 C587 0.999 . S
H591 C572 0.913 . S
H592 C610 0.951 . S
H593 C612 0.951 . S
H594 C614 0.950 . S
H595 C615 0.950 . S
H596 C617 0.950 . S
H597 C620 0.950 . S
H598 C621 0.950 . S
H599 C623 0.950 . S
H600 C624 0.950 . S
H601 C625 0.951 . S
H602 C627 0.951 . S
H603 C629 0.950 . S
H604 C630 0.950 . S
H605 C632 0.950 . S
H606 C635 0.950 . S
H607 C636 0.950 . S
H608 C638 0.950 . S
H609 C639 0.950 . S
C610 H592 0.951 . S
C610 C611 1.366 . S
C610 C612 1.388 . S
C611 C610 1.366 . S
C611 C615 1.385 . S
C612 H593 0.951 . S
C612 C610 1.388 . S
C612 C613 1.366 . S
C613 C612 1.366 . S
C613 C614 1.414 . S
C613 C616 1.499 . S
C614 H594 0.950 . S
C614 C613 1.414 . S
C614 C615 1.374 . S
C615 H595 0.950 . S
C615 C611 1.385 . S
C615 C614 1.374 . S
C616 C613 1.499 . S
C616 C617 1.373 . S
C616 C618 1.389 . S
C617 H596 0.950 . S
C617 C616 1.373 . S
C617 C633 1.377 . S
C618 C616 1.389 . S
C618 C619 1.524 . S
C618 C632 1.377 . S
C619 C618 1.524 . S
C619 C620 1.397 . S
C619 C624 1.363 . S
C620 H597 0.950 . S
C620 C619 1.397 . S
C620 C621 1.334 . S
C621 H598 0.950 . S
C621 C620 1.334 . S
C621 C622 1.287 . S
C622 C621 1.287 . S
C622 C623 1.524 . S
C622 H641 0.913 . S
C623 H599 0.950 . S
C623 C622 1.524 . S
C623 C624 1.415 . S
C624 H600 0.950 . S
C624 C619 1.363 . S
C624 C623 1.415 . S
C625 H601 0.951 . S
C625 C626 1.366 . S
C625 C627 1.388 . S
C626 C625 1.366 . S
C626 C630 1.385 . S
C627 H602 0.951 . S
C627 C625 1.388 . S
C627 C628 1.366 . S
C628 C627 1.366 . S
C628 C629 1.414 . S
C628 C631 1.499 . S
C629 H603 0.950 . S
C629 C628 1.414 . S
C629 C630 1.374 . S
C630 H604 0.950 . S
C630 C626 1.385 . S
C630 C629 1.374 . S
C631 C628 1.499 . S
C631 C632 1.373 . S
C631 C633 1.389 . S
C632 H605 0.950 . S
C632 C618 1.377 . S
C632 C631 1.373 . S
C633 C617 1.377 . S
C633 C631 1.389 . S
C633 C634 1.524 . S
C634 C633 1.524 . S
C634 C635 1.397 . S
C634 C639 1.363 . S
C635 H606 0.950 . S
C635 C634 1.397 . S
C635 C636 1.334 . S
C636 H607 0.950 . S
C636 C635 1.334 . S
C636 C637 1.287 . S
C637 C636 1.287 . S
C637 C638 1.524 . S
C637 H640 0.999 . S
C638 H608 0.950 . S
C638 C637 1.524 . S
C638 C639 1.415 . S
C639 H609 0.950 . S
C639 C634 1.363 . S
C639 C638 1.415 . S
H640 C637 0.999 . S
H641 C622 0.913 . S
H642 C660 0.951 . S
H643 C662 0.951 . S
H644 C664 0.950 . S
H645 C665 0.950 . S
H646 C667 0.950 1_556 S
H647 C670 0.950 . S
H648 C671 0.950 . S
H649 C673 0.950 . S
H650 C674 0.950 . S
H651 C675 0.951 . S
H652 C677 0.951 . S
H653 C679 0.950 . S
H654 C680 0.950 . S
H655 C682 0.950 . S
H656 C685 0.950 . S
H657 C686 0.950 1_554 S
H658 C688 0.950 . S
H659 C689 0.950 . S
C660 H642 0.951 . S
C660 C661 1.366 . S
C660 C662 1.388 . S
C661 C660 1.366 . S
C661 C665 1.385 1_554 S
C662 H643 0.951 . S
C662 C660 1.388 . S
C662 C663 1.366 . S
C663 C662 1.366 . S
C663 C664 1.414 1_554 S
C663 C666 1.499 . S
C664 H644 0.950 . S
C664 C663 1.414 1_556 S
C664 C665 1.374 . S
C665 H645 0.950 . S
C665 C661 1.385 1_556 S
C665 C664 1.374 . S
C666 C663 1.499 . S
C666 C667 1.373 . S
C666 C668 1.389 . S
C667 H646 0.950 1_554 S
C667 C666 1.373 . S
C667 C683 1.377 . S
C668 C666 1.389 . S
C668 C669 1.524 . S
C668 C682 1.377 . S
C669 C668 1.524 . S
C669 C670 1.397 . S
C669 C674 1.363 . S
C670 H647 0.950 . S
C670 C669 1.397 . S
C670 C671 1.334 . S
C671 H648 0.950 . S
C671 C670 1.334 . S
C671 C672 1.287 . S
C672 C671 1.287 . S
C672 C673 1.524 . S
C672 H691 0.913 . S
C673 H649 0.950 . S
C673 C672 1.524 . S
C673 C674 1.415 . S
C674 H650 0.950 . S
C674 C669 1.363 . S
C674 C673 1.415 . S
C675 H651 0.951 . S
C675 C676 1.366 . S
C675 C677 1.388 . S
C676 C675 1.366 . S
C676 C680 1.385 . S
C677 H652 0.951 . S
C677 C675 1.388 . S
C677 C678 1.366 . S
C678 C677 1.366 . S
C678 C679 1.414 . S
C678 C681 1.499 . S
C679 H653 0.950 . S
C679 C678 1.414 . S
C679 C680 1.374 . S
C680 H654 0.950 . S
C680 C676 1.385 . S
C680 C679 1.374 . S
C681 C678 1.499 . S
C681 C682 1.373 . S
C681 C683 1.389 . S
C682 H655 0.950 . S
C682 C668 1.377 . S
C682 C681 1.373 . S
C683 C667 1.377 . S
C683 C681 1.389 . S
C683 C684 1.524 1_554 S
C684 C683 1.524 1_556 S
C684 C685 1.397 1_556 S
C684 C689 1.363 . S
C685 H656 0.950 . S
C685 C684 1.397 1_554 S
C685 C686 1.334 1_554 S
C686 H657 0.950 1_556 S
C686 C685 1.334 1_556 S
C686 C687 1.287 . S
C687 C686 1.287 . S
C687 C688 1.524 . S
C687 H690 0.999 . S
C688 H658 0.950 . S
C688 C687 1.524 . S
C688 C689 1.415 . S
C689 H659 0.950 . S
C689 C684 1.363 . S
C689 C688 1.415 . S
H690 C687 0.999 . S
H691 C672 0.913 . S
H692 C710 0.951 . S
H693 C712 0.951 . S
H694 C714 0.950 . S
H695 C715 0.950 . S
H696 C717 0.950 . S
H697 C720 0.950 . S
H698 C721 0.950 . S
H699 C723 0.950 . S
H700 C724 0.950 . S
H701 C725 0.951 . S
H702 C727 0.951 . S
H703 C729 0.950 . S
H704 C730 0.950 . S
H705 C732 0.950 . S
H706 C735 0.950 . S
H707 C736 0.950 . S
H708 C738 0.950 . S
H709 C739 0.950 . S
C710 H692 0.951 . S
C710 C711 1.366 . S
C710 C712 1.388 . S
C711 C710 1.366 . S
C711 C715 1.385 . S
C712 H693 0.951 . S
C712 C710 1.388 . S
C712 C713 1.366 . S
C713 C712 1.366 . S
C713 C714 1.414 . S
C713 C716 1.499 . S
C714 H694 0.950 . S
C714 C713 1.414 . S
C714 C715 1.374 . S
C715 H695 0.950 . S
C715 C711 1.385 . S
C715 C714 1.374 . S
C716 C713 1.499 . S
C716 C717 1.373 . S
C716 C718 1.389 . S
C717 H696 0.950 . S
C717 C716 1.373 . S
C717 C733 1.377 . S
C718 C716 1.389 . S
C718 C719 1.524 . S
C718 C732 1.377 . S
C719 C718 1.524 . S
C719 C720 1.397 . S
C719 C724 1.363 . S
C720 H697 0.950 . S
C720 C719 1.397 . S
C720 C721 1.334 . S
C721 H698 0.950 . S
C721 C720 1.334 . S
C721 C722 1.287 . S
C722 C721 1.287 . S
C722 C723 1.524 . S
C722 H741 0.913 . S
C723 H699 0.950 . S
C723 C722 1.524 . S
C723 C724 1.415 . S
C724 H700 0.950 . S
C724 C719 1.363 . S
C724 C723 1.415 . S
C725 H701 0.951 . S
C725 C726 1.366 . S
C725 C727 1.388 . S
C726 C725 1.366 . S
C726 C730 1.385 . S
C727 H702 0.951 . S
C727 C725 1.388 . S
C727 C728 1.366 . S
C728 C727 1.366 . S
C728 C729 1.414 . S
C728 C731 1.499 . S
C729 H703 0.950 . S
C729 C728 1.414 . S
C729 C730 1.374 . S
C730 H704 0.950 . S
C730 C726 1.385 . S
C730 C729 1.374 . S
C731 C728 1.499 . S
C731 C732 1.373 . S
C731 C733 1.389 . S
C732 H705 0.950 . S
C732 C718 1.377 . S
C732 C731 1.373 . S
C733 C717 1.377 . S
C733 C731 1.389 . S
C733 C734 1.524 . S
C734 C733 1.524 . S
C734 C735 1.397 . S
C734 C739 1.363 . S
C735 H706 0.950 . S
C735 C734 1.397 . S
C735 C736 1.334 . S
C736 H707 0.950 . S
C736 C735 1.334 . S
C736 C737 1.287 . S
C737 C736 1.287 . S
C737 C738 1.524 . S
C737 H740 0.999 . S
C738 H708 0.950 . S
C738 C737 1.524 . S
C738 C739 1.415 . S
C739 H709 0.950 . S
C739 C734 1.363 . S
C739 C738 1.415 . S
H740 C737 0.999 . S
H741 C722 0.913 . S
H742 C760 0.951 . S
H743 C762 0.951 . S
H744 C764 0.950 . S
H745 C765 0.950 . S
H746 C767 0.950 . S
H747 C770 0.950 . S
H748 C771 0.950 . S
H749 C773 0.950 . S
H750 C774 0.950 . S
H751 C775 0.951 . S
H752 C777 0.951 . S
H753 C779 0.950 . S
H754 C780 0.950 . S
H755 C782 0.950 . S
H756 C785 0.950 . S
H757 C786 0.950 . S
H758 C788 0.950 . S
H759 C789 0.950 . S
C760 H742 0.951 . S
C760 C761 1.366 . S
C760 C762 1.388 . S
C761 C760 1.366 . S
C761 C765 1.385 . S
C762 H743 0.951 . S
C762 C760 1.388 . S
C762 C763 1.366 . S
C763 C762 1.366 . S
C763 C764 1.414 . S
C763 C766 1.499 . S
C764 H744 0.950 . S
C764 C763 1.414 . S
C764 C765 1.374 . S
C765 H745 0.950 . S
C765 C761 1.385 . S
C765 C764 1.374 . S
C766 C763 1.499 . S
C766 C767 1.373 . S
C766 C768 1.389 . S
C767 H746 0.950 . S
C767 C766 1.373 . S
C767 C783 1.377 . S
C768 C766 1.389 . S
C768 C769 1.524 . S
C768 C782 1.377 . S
C769 C768 1.524 . S
C769 C770 1.397 . S
C769 C774 1.363 . S
C770 H747 0.950 . S
C770 C769 1.397 . S
C770 C771 1.334 . S
C771 H748 0.950 . S
C771 C770 1.334 . S
C771 C772 1.287 . S
C772 C771 1.287 . S
C772 C773 1.524 . S
C772 H791 0.913 . S
C773 H749 0.950 . S
C773 C772 1.524 . S
C773 C774 1.415 . S
C774 H750 0.950 . S
C774 C769 1.363 . S
C774 C773 1.415 . S
C775 H751 0.951 . S
C775 C776 1.366 . S
C775 C777 1.388 . S
C776 C775 1.366 . S
C776 C780 1.385 . S
C777 H752 0.951 . S
C777 C775 1.388 . S
C777 C778 1.366 . S
C778 C777 1.366 . S
C778 C779 1.414 . S
C778 C781 1.499 . S
C779 H753 0.950 . S
C779 C778 1.414 . S
C779 C780 1.374 . S
C780 H754 0.950 . S
C780 C776 1.385 . S
C780 C779 1.374 . S
C781 C778 1.499 . S
C781 C782 1.373 . S
C781 C783 1.389 . S
C782 H755 0.950 . S
C782 C768 1.377 . S
C782 C781 1.373 . S
C783 C767 1.377 . S
C783 C781 1.389 . S
C783 C784 1.524 . S
C784 C783 1.524 . S
C784 C785 1.397 . S
C784 C789 1.363 . S
C785 H756 0.950 . S
C785 C784 1.397 . S
C785 C786 1.334 . S
C786 H757 0.950 . S
C786 C785 1.334 . S
C786 C787 1.287 . S
C787 C786 1.287 . S
C787 C788 1.524 . S
C787 H790 0.999 . S
C788 H758 0.950 . S
C788 C787 1.524 . S
C788 C789 1.415 . S
C789 H759 0.950 . S
C789 C784 1.363 . S
C789 C788 1.415 . S
H790 C787 0.999 . S
H791 C772 0.913 . S
H792 C810 0.951 . S
H793 C812 0.951 . S
H794 C814 0.950 . S
H795 C815 0.950 . S
H796 C817 0.950 . S
H797 C820 0.950 . S
H798 C821 0.950 . S
H799 C823 0.950 . S
H800 C824 0.950 . S
H801 C825 0.951 . S
H802 C827 0.951 . S
H803 C829 0.950 . S
H804 C830 0.950 . S
H805 C832 0.950 . S
H806 C835 0.950 . S
H807 C836 0.950 . S
H808 C838 0.950 . S
H809 C839 0.950 . S
C810 H792 0.951 . S
C810 C811 1.366 . S
C810 C812 1.388 . S
C811 C810 1.366 . S
C811 C815 1.385 . S
C812 H793 0.951 . S
C812 C810 1.388 . S
C812 C813 1.366 . S
C813 C812 1.366 . S
C813 C814 1.414 . S
C813 C816 1.499 . S
C814 H794 0.950 . S
C814 C813 1.414 . S
C814 C815 1.374 . S
C815 H795 0.950 . S
C815 C811 1.385 . S
C815 C814 1.374 . S
C816 C813 1.499 . S
C816 C817 1.373 . S
C816 C818 1.389 . S
C817 H796 0.950 . S
C817 C816 1.373 . S
C817 C833 1.377 . S
C818 C816 1.389 . S
C818 C819 1.524 . S
C818 C832 1.377 . S
C819 C818 1.524 . S
C819 C820 1.397 . S
C819 C824 1.363 . S
C820 H797 0.950 . S
C820 C819 1.397 . S
C820 C821 1.334 . S
C821 H798 0.950 . S
C821 C820 1.334 . S
C821 C822 1.287 . S
C822 C821 1.287 . S
C822 C823 1.524 . S
C822 H841 0.913 . S
C823 H799 0.950 . S
C823 C822 1.524 . S
C823 C824 1.415 . S
C824 H800 0.950 . S
C824 C819 1.363 . S
C824 C823 1.415 . S
C825 H801 0.951 . S
C825 C826 1.366 . S
C825 C827 1.388 . S
C826 C825 1.366 . S
C826 C830 1.385 . S
C827 H802 0.951 . S
C827 C825 1.388 . S
C827 C828 1.366 . S
C828 C827 1.366 . S
C828 C829 1.414 . S
C828 C831 1.499 . S
C829 H803 0.950 . S
C829 C828 1.414 . S
C829 C830 1.374 . S
C830 H804 0.950 . S
C830 C826 1.385 . S
C830 C829 1.374 . S
C831 C828 1.499 . S
C831 C832 1.373 . S
C831 C833 1.389 . S
C832 H805 0.950 . S
C832 C818 1.377 . S
C832 C831 1.373 . S
C833 C817 1.377 . S
C833 C831 1.389 . S
C833 C834 1.524 . S
C834 C833 1.524 . S
C834 C835 1.397 . S
C834 C839 1.363 . S
C835 H806 0.950 . S
C835 C834 1.397 . S
C835 C836 1.334 . S
C836 H807 0.950 . S
C836 C835 1.334 . S
C836 C837 1.287 . S
C837 C836 1.287 . S
C837 C838 1.524 . S
C837 H840 0.999 . S
C838 H808 0.950 . S
C838 C837 1.524 . S
C838 C839 1.415 . S
C839 H809 0.950 . S
C839 C834 1.363 . S
C839 C838 1.415 . S
H840 C837 0.999 . S
H841 C822 0.913 . S
H842 C860 0.951 . S
H843 C862 0.951 . S
H844 C864 0.950 . S
H845 C865 0.950 . S
H846 C867 0.950 . S
H847 C870 0.950 . S
H848 C871 0.950 . S
H849 C873 0.950 . S
H850 C874 0.950 . S
H851 C875 0.951 . S
H852 C877 0.951 . S
H853 C879 0.950 . S
H854 C880 0.950 . S
H855 C882 0.950 . S
H856 C885 0.950 . S
H857 C886 0.950 . S
H858 C888 0.950 . S
H859 C889 0.950 . S
C860 H842 0.951 . S
C860 C861 1.366 . S
C860 C862 1.388 . S
C861 C860 1.366 . S
C861 C865 1.385 . S
C862 H843 0.951 . S
C862 C860 1.388 . S
C862 C863 1.366 . S
C863 C862 1.366 . S
C863 C864 1.414 . S
C863 C866 1.499 . S
C864 H844 0.950 . S
C864 C863 1.414 . S
C864 C865 1.374 . S
C865 H845 0.950 . S
C865 C861 1.385 . S
C865 C864 1.374 . S
C866 C863 1.499 . S
C866 C867 1.373 . S
C866 C868 1.389 . S
C867 H846 0.950 . S
C867 C866 1.373 . S
C867 C883 1.377 . S
C868 C866 1.389 . S
C868 C869 1.524 . S
C868 C882 1.377 . S
C869 C868 1.524 . S
C869 C870 1.397 . S
C869 C874 1.363 . S
C870 H847 0.950 . S
C870 C869 1.397 . S
C870 C871 1.334 . S
C871 H848 0.950 . S
C871 C870 1.334 . S
C871 C872 1.287 . S
C872 C871 1.287 . S
C872 C873 1.524 . S
C872 H891 0.913 . S
C873 H849 0.950 . S
C873 C872 1.524 . S
C873 C874 1.415 . S
C874 H850 0.950 . S
C874 C869 1.363 . S
C874 C873 1.415 . S
C875 H851 0.951 . S
C875 C876 1.366 . S
C875 C877 1.388 . S
C876 C875 1.366 . S
C876 C880 1.385 . S
C877 H852 0.951 . S
C877 C875 1.388 . S
C877 C878 1.366 . S
C878 C877 1.366 . S
C878 C879 1.414 . S
C878 C881 1.499 . S
C879 H853 0.950 . S
C879 C878 1.414 . S
C879 C880 1.374 . S
C880 H854 0.950 . S
C880 C876 1.385 . S
C880 C879 1.374 . S
C881 C878 1.499 . S
C881 C882 1.373 . S
C881 C883 1.389 . S
C882 H855 0.950 . S
C882 C868 1.377 . S
C882 C881 1.373 . S
C883 C867 1.377 . S
C883 C881 1.389 . S
C883 C884 1.524 . S
C884 C883 1.524 . S
C884 C885 1.397 . S
C884 C889 1.363 . S
C885 H856 0.950 . S
C885 C884 1.397 . S
C885 C886 1.334 . S
C886 H857 0.950 . S
C886 C885 1.334 . S
C886 C887 1.287 . S
C887 C886 1.287 . S
C887 C888 1.524 . S
C887 H890 0.999 . S
C888 H858 0.950 . S
C888 C887 1.524 . S
C888 C889 1.415 . S
C889 H859 0.950 . S
C889 C884 1.363 . S
C889 C888 1.415 . S
H890 C887 0.999 . S
H891 C872 0.913 . S
H892 C910 0.951 . S
H893 C912 0.951 . S
H894 C914 0.950 . S
H895 C915 0.950 . S
H896 C917 0.950 . S
H897 C920 0.950 . S
H898 C921 0.950 . S
H899 C923 0.950 . S
H900 C924 0.950 . S
H901 C925 0.951 . S
H902 C927 0.951 . S
H903 C929 0.950 . S
H904 C930 0.950 . S
H905 C932 0.950 . S
H906 C935 0.950 . S
H907 C936 0.950 . S
H908 C938 0.950 . S
H909 C939 0.950 . S
C910 H892 0.951 . S
C910 C911 1.366 . S
C910 C912 1.388 . S
C911 C910 1.366 . S
C911 C915 1.385 . S
C912 H893 0.951 . S
C912 C910 1.388 . S
C912 C913 1.366 . S
C913 C912 1.366 . S
C913 C914 1.414 . S
C913 C916 1.499 . S
C914 H894 0.950 . S
C914 C913 1.414 . S
C914 C915 1.374 . S
C915 H895 0.950 . S
C915 C911 1.385 . S
C915 C914 1.374 . S
C916 C913 1.499 . S
C916 C917 1.373 . S
C916 C918 1.389 . S
C917 H896 0.950 . S
C917 C916 1.373 . S
C917 C933 1.377 . S
C918 C916 1.389 . S
C918 C919 1.524 . S
C918 C932 1.377 . S
C919 C918 1.524 . S
C919 C920 1.397 . S
C919 C924 1.363 . S
C920 H897 0.950 . S
C920 C919 1.397 . S
C920 C921 1.334 . S
C921 H898 0.950 . S
C921 C920 1.334 . S
C921 C922 1.287 . S
C922 C921 1.287 . S
C922 C923 1.524 . S
C922 H941 0.913 . S
C923 H899 0.950 . S
C923 C922 1.524 . S
C923 C924 1.415 . S
C924 H900 0.950 . S
C924 C919 1.363 . S
C924 C923 1.415 . S
C925 H901 0.951 . S
C925 C926 1.366 . S
C925 C927 1.388 . S
C926 C925 1.366 . S
C926 C930 1.385 . S
C927 H902 0.951 . S
C927 C925 1.388 . S
C927 C928 1.366 . S
C928 C927 1.366 . S
C928 C929 1.414 . S
C928 C931 1.499 . S
C929 H903 0.950 . S
C929 C928 1.414 . S
C929 C930 1.374 . S
C930 H904 0.950 . S
C930 C926 1.385 . S
C930 C929 1.374 . S
C931 C928 1.499 . S
C931 C932 1.373 . S
C931 C933 1.389 . S
C932 H905 0.950 . S
C932 C918 1.377 . S
C932 C931 1.373 . S
C933 C917 1.377 . S
C933 C931 1.389 . S
C933 C934 1.524 . S
C934 C933 1.524 . S
C934 C935 1.397 . S
C934 C939 1.363 . S
C935 H906 0.950 . S
C935 C934 1.397 . S
C935 C936 1.334 . S
C936 H907 0.950 . S
C936 C935 1.334 . S
C936 C937 1.287 . S
C937 C936 1.287 . S
C937 C938 1.524 . S
C937 H940 0.999 . S
C938 H908 0.950 . S
C938 C937 1.524 . S
C938 C939 1.415 . S
C939 H909 0.950 . S
C939 C934 1.363 . S
C939 C938 1.415 . S
H940 C937 0.999 . S
H941 C922 0.913 . S
H942 C960 0.951 . S
H943 C962 0.951 . S
H944 C964 0.950 . S
H945 C965 0.950 . S
H946 C967 0.950 . S
H947 C970 0.950 . S
H948 C971 0.950 . S
H949 C973 0.950 . S
H950 C974 0.950 . S
H951 C975 0.951 . S
H952 C977 0.951 . S
H953 C979 0.963 . S
H954 C980 0.950 . S
H955 C982 0.950 . S
H956 C985 0.950 . S
H957 C986 0.950 . S
H958 C988 0.950 . S
H959 C989 0.950 . S
C960 H942 0.951 . S
C960 C961 1.366 . S
C960 C962 1.388 . S
C961 C960 1.366 . S
C961 C965 1.385 . S
C962 H943 0.951 . S
C962 C960 1.388 . S
C962 C963 1.366 . S
C963 C962 1.366 . S
C963 C964 1.414 . S
C963 C966 1.499 . S
C964 H944 0.950 . S
C964 C963 1.414 . S
C964 C965 1.374 . S
C965 H945 0.950 . S
C965 C961 1.385 . S
C965 C964 1.374 . S
C966 C963 1.499 . S
C966 C967 1.373 . S
C966 C968 1.389 . S
C967 H946 0.950 . S
C967 C966 1.373 . S
C967 C983 1.377 . S
C968 C966 1.389 . S
C968 C969 1.524 . S
C968 C982 1.377 . S
C969 C968 1.524 . S
C969 C970 1.397 . S
C969 C974 1.363 . S
C970 H947 0.950 . S
C970 C969 1.397 . S
C970 C971 1.334 . S
C971 H948 0.950 . S
C971 C970 1.334 . S
C971 C972 1.287 . S
C972 C971 1.287 . S
C972 C973 1.524 . S
C972 H991 0.913 . S
C973 H949 0.950 . S
C973 C972 1.524 . S
C973 C974 1.415 . S
C974 H950 0.950 . S
C974 C969 1.363 . S
C974 C973 1.415 . S
C975 H951 0.951 . S
C975 C976 1.366 . S
C975 C977 1.388 1_554 S
C976 C975 1.366 . S
C976 C980 1.385 . S
C977 H952 0.951 . S
C977 C975 1.388 1_556 S
C977 C978 1.366 . S
C978 C977 1.366 . S
C978 C979 1.428 . S
C978 C981 1.499 . S
C979 H953 0.963 . S
C979 C978 1.428 . S
C979 C980 1.348 1_556 S
C980 H954 0.950 . S
C980 C976 1.385 . S
C980 C979 1.348 1_554 S
C981 C978 1.499 . S
C981 C982 1.373 . S
C981 C983 1.389 . S
C982 H955 0.950 . S
C982 C968 1.377 . S
C982 C981 1.373 . S
C983 C967 1.377 . S
C983 C981 1.389 . S
C983 C984 1.524 . S
C984 C983 1.524 . S
C984 C985 1.397 . S
C984 C989 1.363 . S
C985 H956 0.950 . S
C985 C984 1.397 . S
C985 C986 1.334 . S
C986 H957 0.950 . S
C986 C985 1.334 . S
C986 C987 1.287 . S
C987 C986 1.287 . S
C987 C988 1.524 . S
C987 H990 0.999 . S
C988 H958 0.950 . S
C988 C987 1.524 . S
C988 C989 1.415 . S
C989 H959 0.950 . S
C989 C984 1.363 . S
C989 C988 1.415 . S
H990 C987 0.999 . S
H991 C972 0.913 . S
H992 C1010 0.951 . S
H993 C1012 0.951 . S
H994 C1014 0.950 . S
H995 C1015 0.950 . S
H996 C1017 0.950 . S
H997 C1020 0.950 . S
H998 C1021 0.950 . S
H999 C1023 0.950 . S
H1000 C1024 0.950 . S
H1001 C1025 0.951 . S
H1002 C1027 0.951 . S
H1003 C1029 0.950 . S
H1004 C1030 0.950 . S
H1005 C1032 0.950 . S
H1006 C1035 0.950 . S
H1007 C1036 0.950 . S
H1008 C1038 0.950 . S
H1009 C1039 0.950 . S
C1010 H992 0.951 . S
C1010 C1011 1.366 . S
C1010 C1012 1.388 . S
C1011 C1010 1.366 . S
C1011 C1015 1.385 . S
C1012 H993 0.951 . S
C1012 C1010 1.388 . S
C1012 C1013 1.366 . S
C1013 C1012 1.366 . S
C1013 C1014 1.414 . S
C1013 C1016 1.499 . S
C1014 H994 0.950 . S
C1014 C1013 1.414 . S
C1014 C1015 1.374 . S
C1015 H995 0.950 . S
C1015 C1011 1.385 . S
C1015 C1014 1.374 . S
C1016 C1013 1.499 . S
C1016 C1017 1.373 . S
C1016 C1018 1.389 . S
C1017 H996 0.950 . S
C1017 C1016 1.373 . S
C1017 C1033 1.377 . S
C1018 C1016 1.389 . S
C1018 C1019 1.524 . S
C1018 C1032 1.377 . S
C1019 C1018 1.524 . S
C1019 C1020 1.397 . S
C1019 C1024 1.363 . S
C1020 H997 0.950 . S
C1020 C1019 1.397 . S
C1020 C1021 1.334 . S
C1021 H998 0.950 . S
C1021 C1020 1.334 . S
C1021 C1022 1.287 . S
C1022 C1021 1.287 . S
C1022 C1023 1.524 . S
C1022 H1041 0.913 . S
C1023 H999 0.950 . S
C1023 C1022 1.524 . S
C1023 C1024 1.415 . S
C1024 H1000 0.950 . S
C1024 C1019 1.363 . S
C1024 C1023 1.415 . S
C1025 H1001 0.951 . S
C1025 C1026 1.366 . S
C1025 C1027 1.388 . S
C1026 C1025 1.366 . S
C1026 C1030 1.385 . S
C1027 H1002 0.951 . S
C1027 C1025 1.388 . S
C1027 C1028 1.366 . S
C1028 C1027 1.366 . S
C1028 C1029 1.414 . S
C1028 C1031 1.499 . S
C1029 H1003 0.950 . S
C1029 C1028 1.414 . S
C1029 C1030 1.374 . S
C1030 H1004 0.950 . S
C1030 C1026 1.385 . S
C1030 C1029 1.374 . S
C1031 C1028 1.499 . S
C1031 C1032 1.373 . S
C1031 C1033 1.389 . S
C1032 H1005 0.950 . S
C1032 C1018 1.377 . S
C1032 C1031 1.373 . S
C1033 C1017 1.377 . S
C1033 C1031 1.389 . S
C1033 C1034 1.524 . S
C1034 C1033 1.524 . S
C1034 C1035 1.397 . S
C1034 C1039 1.363 . S
C1035 H1006 0.950 . S
C1035 C1034 1.397 . S
C1035 C1036 1.334 . S
C1036 H1007 0.950 . S
C1036 C1035 1.334 . S
C1036 C1037 1.287 . S
C1037 C1036 1.287 . S
C1037 C1038 1.524 . S
C1037 H1040 0.999 . S
C1038 H1008 0.950 . S
C1038 C1037 1.524 . S
C1038 C1039 1.415 . S
C1039 H1009 0.950 . S
C1039 C1034 1.363 . S
C1039 C1038 1.415 . S
H1040 C1037 0.999 . S
H1041 C1022 0.913 . S
H1042 C1060 0.951 . S
H1043 C1062 0.951 . S
H1044 C1064 0.950 . S
H1045 C1065 0.950 . S
H1046 C1067 0.950 . S
H1047 C1070 0.950 . S
H1048 C1071 0.950 . S
H1049 C1073 0.950 . S
H1050 C1074 0.950 . S
H1051 C1075 0.951 . S
H1052 C1077 0.951 . S
H1053 C1079 0.950 . S
H1054 C1080 0.950 . S
H1055 C1082 0.950 . S
H1056 C1085 0.950 . S
H1057 C1086 0.950 . S
H1058 C1088 0.950 . S
H1059 C1089 0.950 . S
C1060 H1042 0.951 . S
C1060 C1061 1.366 . S
C1060 C1062 1.388 . S
C1061 C1060 1.366 . S
C1061 C1065 1.385 . S
C1062 H1043 0.951 . S
C1062 C1060 1.388 . S
C1062 C1063 1.366 . S
C1063 C1062 1.366 . S
C1063 C1064 1.414 . S
C1063 C1066 1.499 . S
C1064 H1044 0.950 . S
C1064 C1063 1.414 . S
C1064 C1065 1.374 . S
C1065 H1045 0.950 . S
C1065 C1061 1.385 . S
C1065 C1064 1.374 . S
C1066 C1063 1.499 . S
C1066 C1067 1.373 . S
C1066 C1068 1.389 . S
C1067 H1046 0.950 . S
C1067 C1066 1.373 . S
C1067 C1083 1.377 . S
C1068 C1066 1.389 . S
C1068 C1069 1.524 . S
C1068 C1082 1.377 . S
C1069 C1068 1.524 . S
C1069 C1070 1.397 . S
C1069 C1074 1.363 . S
C1070 H1047 0.950 . S
C1070 C1069 1.397 . S
C1070 C1071 1.334 . S
C1071 H1048 0.950 . S
C1071 C1070 1.334 . S
C1071 C1072 1.287 . S
C1072 C1071 1.287 . S
C1072 C1073 1.524 . S
C1072 H1091 0.913 . S
C1073 H1049 0.950 . S
C1073 C1072 1.524 . S
C1073 C1074 1.415 . S
C1074 H1050 0.950 . S
C1074 C1069 1.363 . S
C1074 C1073 1.415 . S
C1075 H1051 0.951 . S
C1075 C1076 1.366 . S
C1075 C1077 1.388 . S
C1076 C1075 1.366 . S
C1076 C1080 1.385 . S
C1077 H1052 0.951 . S
C1077 C1075 1.388 . S
C1077 C1078 1.366 . S
C1078 C1077 1.366 . S
C1078 C1079 1.414 . S
C1078 C1081 1.499 . S
C1079 H1053 0.950 . S
C1079 C1078 1.414 . S
C1079 C1080 1.374 . S
C1080 H1054 0.950 . S
C1080 C1076 1.385 . S
C1080 C1079 1.374 . S
C1081 C1078 1.499 . S
C1081 C1082 1.373 . S
C1081 C1083 1.389 . S
C1082 H1055 0.950 . S
C1082 C1068 1.377 . S
C1082 C1081 1.373 . S
C1083 C1067 1.377 . S
C1083 C1081 1.389 . S
C1083 C1084 1.524 . S
C1084 C1083 1.524 . S
C1084 C1085 1.397 . S
C1084 C1089 1.363 . S
C1085 H1056 0.950 . S
C1085 C1084 1.397 . S
C1085 C1086 1.334 . S
C1086 H1057 0.950 . S
C1086 C1085 1.334 . S
C1086 C1087 1.287 . S
C1087 C1086 1.287 . S
C1087 C1088 1.524 . S
C1087 H1090 0.999 . S
C1088 H1058 0.950 . S
C1088 C1087 1.524 . S
C1088 C1089 1.415 . S
C1089 H1059 0.950 . S
C1089 C1084 1.363 . S
C1089 C1088 1.415 . S
H1090 C1087 0.999 . S
H1091 C1072 0.913 . S
H1092 C1110 0.951 . S
H1093 C1112 0.951 . S
H1094 C1114 0.950 . S
H1095 C1115 0.950 . S
H1096 C1117 0.950 . S
H1097 C1120 0.950 . S
H1098 C1121 0.950 . S
H1099 C1123 0.950 . S
H1100 C1124 0.950 . S
H1101 C1125 0.951 . S
H1102 C1127 0.951 . S
H1103 C1129 0.950 . S
H1104 C1130 0.950 . S
H1105 C1132 0.950 . S
H1106 C1135 0.950 . S
H1107 C1136 0.950 . S
H1108 C1138 0.950 . S
H1109 C1139 0.950 . S
C1110 H1092 0.951 . S
C1110 C1111 1.366 . S
C1110 C1112 1.388 . S
C1111 C1110 1.366 . S
C1111 C1115 1.385 . S
C1112 H1093 0.951 . S
C1112 C1110 1.388 . S
C1112 C1113 1.366 . S
C1113 C1112 1.366 . S
C1113 C1114 1.414 . S
C1113 C1116 1.499 . S
C1114 H1094 0.950 . S
C1114 C1113 1.414 . S
C1114 C1115 1.374 . S
C1115 H1095 0.950 . S
C1115 C1111 1.385 . S
C1115 C1114 1.374 . S
C1116 C1113 1.499 . S
C1116 C1117 1.373 . S
C1116 C1118 1.389 . S
C1117 H1096 0.950 . S
C1117 C1116 1.373 . S
C1117 C1133 1.377 . S
C1118 C1116 1.389 . S
C1118 C1119 1.524 . S
C1118 C1132 1.377 . S
C1119 C1118 1.524 . S
C1119 C1120 1.397 . S
C1119 C1124 1.363 . S
C1120 H1097 0.950 . S
C1120 C1119 1.397 . S
C1120 C1121 1.334 . S
C1121 H1098 0.950 . S
C1121 C1120 1.334 . S
C1121 C1122 1.287 . S
C1122 C1121 1.287 . S
C1122 C1123 1.524 . S
C1122 H1141 0.913 . S
C1123 H1099 0.950 . S
C1123 C1122 1.524 . S
C1123 C1124 1.415 . S
C1124 H1100 0.950 . S
C1124 C1119 1.363 . S
C1124 C1123 1.415 . S
C1125 H1101 0.951 . S
C1125 C1126 1.366 . S
C1125 C1127 1.388 . S
C1126 C1125 1.366 . S
C1126 C1130 1.385 . S
C1127 H1102 0.951 . S
C1127 C1125 1.388 . S
C1127 C1128 1.366 . S
C1128 C1127 1.366 . S
C1128 C1129 1.414 . S
C1128 C1131 1.499 . S
C1129 H1103 0.950 . S
C1129 C1128 1.414 . S
C1129 C1130 1.374 . S
C1130 H1104 0.950 . S
C1130 C1126 1.385 . S
C1130 C1129 1.374 . S
C1131 C1128 1.499 . S
C1131 C1132 1.373 . S
C1131 C1133 1.389 . S
C1132 H1105 0.950 . S
C1132 C1118 1.377 . S
C1132 C1131 1.373 . S
C1133 C1117 1.377 . S
C1133 C1131 1.389 . S
C1133 C1134 1.524 . S
C1134 C1133 1.524 . S
C1134 C1135 1.397 . S
C1134 C1139 1.363 . S
C1135 H1106 0.950 . S
C1135 C1134 1.397 . S
C1135 C1136 1.334 . S
C1136 H1107 0.950 . S
C1136 C1135 1.334 . S
C1136 C1137 1.287 . S
C1137 C1136 1.287 . S
C1137 C1138 1.524 . S
C1137 H1140 0.999 . S
C1138 H1108 0.950 . S
C1138 C1137 1.524 . S
C1138 C1139 1.415 . S
C1139 H1109 0.950 . S
C1139 C1134 1.363 . S
C1139 C1138 1.415 . S
H1140 C1137 0.999 . S
H1141 C1122 0.913 . S
H1142 C1160 0.951 . S
H1143 C1162 0.951 . S
H1144 C1164 0.950 . S
H1145 C1165 0.950 . S
H1146 C1167 0.950 . S
H1147 C1170 0.950 . S
H1148 C1171 0.950 . S
H1149 C1173 0.950 . S
H1150 C1174 0.950 . S
H1151 C1175 0.951 . S
H1152 C1177 0.951 . S
H1153 C1179 0.950 . S
H1154 C1180 0.950 . S
H1155 C1182 0.950 . S
H1156 C1185 0.950 . S
H1157 C1186 0.950 . S
H1158 C1188 0.950 . S
H1159 C1189 0.950 . S
C1160 H1142 0.951 . S
C1160 C1161 1.366 . S
C1160 C1162 1.388 . S
C1161 C1160 1.366 . S
C1161 C1165 1.385 . S
C1162 H1143 0.951 . S
C1162 C1160 1.388 . S
C1162 C1163 1.366 . S
C1163 C1162 1.366 . S
C1163 C1164 1.414 . S
C1163 C1166 1.499 . S
C1164 H1144 0.950 . S
C1164 C1163 1.414 . S
C1164 C1165 1.374 . S
C1165 H1145 0.950 . S
C1165 C1161 1.385 . S
C1165 C1164 1.374 . S
C1166 C1163 1.499 . S
C1166 C1167 1.373 . S
C1166 C1168 1.389 . S
C1167 H1146 0.950 . S
C1167 C1166 1.373 . S
C1167 C1183 1.377 . S
C1168 C1166 1.389 . S
C1168 C1169 1.524 . S
C1168 C1182 1.377 . S
C1169 C1168 1.524 . S
C1169 C1170 1.397 . S
C1169 C1174 1.363 . S
C1170 H1147 0.950 . S
C1170 C1169 1.397 . S
C1170 C1171 1.334 . S
C1171 H1148 0.950 . S
C1171 C1170 1.334 . S
C1171 C1172 1.287 . S
C1172 C1171 1.287 . S
C1172 C1173 1.524 . S
C1172 H1191 0.913 . S
C1173 H1149 0.950 . S
C1173 C1172 1.524 . S
C1173 C1174 1.415 . S
C1174 H1150 0.950 . S
C1174 C1169 1.363 . S
C1174 C1173 1.415 . S
C1175 H1151 0.951 . S
C1175 C1176 1.366 . S
C1175 C1177 1.388 . S
C1176 C1175 1.366 . S
C1176 C1180 1.385 . S
C1177 H1152 0.951 . S
C1177 C1175 1.388 . S
C1177 C1178 1.366 . S
C1178 C1177 1.366 . S
C1178 C1179 1.414 . S
C1178 C1181 1.499 . S
C1179 H1153 0.950 . S
C1179 C1178 1.414 . S
C1179 C1180 1.374 . S
C1180 H1154 0.950 . S
C1180 C1176 1.385 . S
C1180 C1179 1.374 . S
C1181 C1178 1.499 . S
C1181 C1182 1.373 . S
C1181 C1183 1.389 . S
C1182 H1155 0.950 . S
C1182 C1168 1.377 . S
C1182 C1181 1.373 . S
C1183 C1167 1.377 . S
C1183 C1181 1.389 . S
C1183 C1184 1.524 . S
C1184 C1183 1.524 . S
C1184 C1185 1.397 . S
C1184 C1189 1.363 . S
C1185 H1156 0.950 . S
C1185 C1184 1.397 . S
C1185 C1186 1.334 . S
C1186 H1157 0.950 . S
C1186 C1185 1.334 . S
C1186 C1187 1.287 . S
C1187 C1186 1.287 . S
C1187 C1188 1.524 . S
C1187 H1190 0.999 . S
C1188 H1158 0.950 . S
C1188 C1187 1.524 . S
C1188 C1189 1.415 . S
C1189 H1159 0.950 . S
C1189 C1184 1.363 . S
C1189 C1188 1.415 . S
H1190 C1187 0.999 . S
H1191 C1172 0.913 . S
H1192 C1210 0.951 . S
H1193 C1212 0.951 . S
H1194 C1214 0.950 . S
H1195 C1215 0.950 . S
H1196 C1217 0.950 . S
H1197 C1220 0.950 . S
H1198 C1221 0.950 . S
H1199 C1223 0.950 . S
H1200 C1224 0.950 . S
H1201 C1225 0.951 . S
H1202 C1227 0.951 . S
H1203 C1229 0.950 . S
H1204 C1230 0.950 . S
H1205 C1232 0.950 . S
H1206 C1235 0.950 . S
H1207 C1236 0.950 . S
H1208 C1238 0.950 . S
H1209 C1239 0.950 . S
C1210 H1192 0.951 . S
C1210 C1211 1.366 . S
C1210 C1212 1.388 . S
C1211 C1210 1.366 . S
C1211 C1215 1.385 . S
C1212 H1193 0.951 . S
C1212 C1210 1.388 . S
C1212 C1213 1.366 . S
C1213 C1212 1.366 . S
C1213 C1214 1.414 . S
C1213 C1216 1.499 . S
C1214 H1194 0.950 . S
C1214 C1213 1.414 . S
C1214 C1215 1.374 . S
C1215 H1195 0.950 . S
C1215 C1211 1.385 . S
C1215 C1214 1.374 . S
C1216 C1213 1.499 . S
C1216 C1217 1.373 . S
C1216 C1218 1.389 . S
C1217 H1196 0.950 . S
C1217 C1216 1.373 . S
C1217 C1233 1.377 . S
C1218 C1216 1.389 . S
C1218 C1219 1.524 . S
C1218 C1232 1.377 . S
C1219 C1218 1.524 . S
C1219 C1220 1.397 . S
C1219 C1224 1.363 . S
C1220 H1197 0.950 . S
C1220 C1219 1.397 . S
C1220 C1221 1.334 . S
C1221 H1198 0.950 . S
C1221 C1220 1.334 . S
C1221 C1222 1.287 . S
C1222 C1221 1.287 . S
C1222 C1223 1.524 . S
C1222 H1241 0.913 . S
C1223 H1199 0.950 . S
C1223 C1222 1.524 . S
C1223 C1224 1.415 . S
C1224 H1200 0.950 . S
C1224 C1219 1.363 . S
C1224 C1223 1.415 . S
C1225 H1201 0.951 . S
C1225 C1226 1.366 . S
C1225 C1227 1.388 . S
C1226 C1225 1.366 . S
C1226 C1230 1.385 . S
C1227 H1202 0.951 . S
C1227 C1225 1.388 . S
C1227 C1228 1.366 . S
C1228 C1227 1.366 . S
C1228 C1229 1.414 . S
C1228 C1231 1.499 . S
C1229 H1203 0.950 . S
C1229 C1228 1.414 . S
C1229 C1230 1.374 . S
C1230 H1204 0.950 . S
C1230 C1226 1.385 . S
C1230 C1229 1.374 . S
C1231 C1228 1.499 . S
C1231 C1232 1.373 . S
C1231 C1233 1.389 . S
C1232 H1205 0.950 . S
C1232 C1218 1.377 . S
C1232 C1231 1.373 . S
C1233 C1217 1.377 . S
C1233 C1231 1.389 . S
C1233 C1234 1.524 . S
C1234 C1233 1.524 . S
C1234 C1235 1.397 . S
C1234 C1239 1.363 . S
C1235 H1206 0.950 . S
C1235 C1234 1.397 . S
C1235 C1236 1.334 . S
C1236 H1207 0.950 . S
C1236 C1235 1.334 . S
C1236 C1237 1.287 . S
C1237 C1236 1.287 . S
C1237 C1238 1.524 . S
C1237 H1240 0.999 . S
C1238 H1208 0.950 . S
C1238 C1237 1.524 . S
C1238 C1239 1.415 . S
C1239 H1209 0.950 . S
C1239 C1234 1.363 . S
C1239 C1238 1.415 . S
H1240 C1237 0.999 . S
H1241 C1222 0.913 . S
H1242 C1260 0.951 . S
H1243 C1262 0.951 . S
H1244 C1264 0.950 . S
H1245 C1265 0.950 . S
H1246 C1267 0.950 . S
H1247 C1270 0.950 . S
H1248 C1271 0.950 . S
H1249 C1273 0.950 . S
H1250 C1274 0.950 . S
H1251 C1275 0.951 . S
H1252 C1277 0.951 . S
H1253 C1279 0.950 . S
H1254 C1280 0.950 . S
H1255 C1282 0.950 . S
H1256 C1285 0.950 . S
H1257 C1286 0.950 . S
H1258 C1288 0.950 . S
H1259 C1289 0.950 . S
C1260 H1242 0.951 . S
C1260 C1261 1.366 . S
C1260 C1262 1.388 . S
C1261 C1260 1.366 . S
C1261 C1265 1.385 . S
C1262 H1243 0.951 . S
C1262 C1260 1.388 . S
C1262 C1263 1.366 . S
C1263 C1262 1.366 . S
C1263 C1264 1.414 . S
C1263 C1266 1.499 . S
C1264 H1244 0.950 . S
C1264 C1263 1.414 . S
C1264 C1265 1.374 . S
C1265 H1245 0.950 . S
C1265 C1261 1.385 . S
C1265 C1264 1.374 . S
C1266 C1263 1.499 . S
C1266 C1267 1.373 . S
C1266 C1268 1.389 . S
C1267 H1246 0.950 . S
C1267 C1266 1.373 . S
C1267 C1283 1.377 . S
C1268 C1266 1.389 . S
C1268 C1269 1.524 . S
C1268 C1282 1.377 . S
C1269 C1268 1.524 . S
C1269 C1270 1.397 . S
C1269 C1274 1.363 . S
C1270 H1247 0.950 . S
C1270 C1269 1.397 . S
C1270 C1271 1.334 . S
C1271 H1248 0.950 . S
C1271 C1270 1.334 . S
C1271 C1272 1.287 . S
C1272 C1271 1.287 . S
C1272 C1273 1.524 . S
C1272 H1291 0.913 . S
C1273 H1249 0.950 . S
C1273 C1272 1.524 . S
C1273 C1274 1.415 . S
C1274 H1250 0.950 . S
C1274 C1269 1.363 . S
C1274 C1273 1.415 . S
C1275 H1251 0.951 . S
C1275 C1276 1.366 . S
C1275 C1277 1.388 . S
C1276 C1275 1.366 . S
C1276 C1280 1.385 . S
C1277 H1252 0.951 . S
C1277 C1275 1.388 . S
C1277 C1278 1.366 . S
C1278 C1277 1.366 . S
C1278 C1279 1.414 . S
C1278 C1281 1.499 . S
C1279 H1253 0.950 . S
C1279 C1278 1.414 . S
C1279 C1280 1.374 . S
C1280 H1254 0.950 . S
C1280 C1276 1.385 . S
C1280 C1279 1.374 . S
C1281 C1278 1.499 . S
C1281 C1282 1.373 . S
C1281 C1283 1.389 . S
C1282 H1255 0.950 . S
C1282 C1268 1.377 . S
C1282 C1281 1.373 . S
C1283 C1267 1.377 . S
C1283 C1281 1.389 . S
C1283 C1284 1.524 . S
C1284 C1283 1.524 . S
C1284 C1285 1.397 . S
C1284 C1289 1.363 . S
C1285 H1256 0.950 . S
C1285 C1284 1.397 . S
C1285 C1286 1.334 . S
C1286 H1257 0.950 . S
C1286 C1285 1.334 . S
C1286 C1287 1.287 . S
C1287 C1286 1.287 . S
C1287 C1288 1.524 . S
C1287 H1290 0.999 . S
C1288 H1258 0.950 . S
C1288 C1287 1.524 . S
C1288 C1289 1.415 . S
C1289 H1259 0.950 . S
C1289 C1284 1.363 . S
C1289 C1288 1.415 . S
H1290 C1287 0.999 . S
H1291 C1272 0.913 . S
H1292 C1310 0.951 . S
H1293 C1312 0.951 . S
H1294 C1314 0.950 . S
H1295 C1315 0.950 . S
H1296 C1317 0.950 . S
H1297 C1320 0.950 . S
H1298 C1321 0.950 . S
H1299 C1323 0.950 . S
H1300 C1324 0.950 . S
H1301 C1325 0.951 . S
H1302 C1327 0.951 . S
H1303 C1329 0.950 . S
H1304 C1330 0.950 . S
H1305 C1332 0.950 . S
H1306 C1335 0.950 . S
H1307 C1336 0.950 . S
H1308 C1338 0.950 . S
H1309 C1339 0.950 . S
C1310 H1292 0.951 . S
C1310 C1311 1.366 . S
C1310 C1312 1.388 . S
C1311 C1310 1.366 . S
C1311 C1315 1.385 . S
C1312 H1293 0.951 . S
C1312 C1310 1.388 . S
C1312 C1313 1.366 . S
C1313 C1312 1.366 . S
C1313 C1314 1.414 . S
C1313 C1316 1.499 . S
C1314 H1294 0.950 . S
C1314 C1313 1.414 . S
C1314 C1315 1.374 . S
C1315 H1295 0.950 . S
C1315 C1311 1.385 . S
C1315 C1314 1.374 . S
C1316 C1313 1.499 . S
C1316 C1317 1.373 . S
C1316 C1318 1.389 . S
C1317 H1296 0.950 . S
C1317 C1316 1.373 . S
C1317 C1333 1.377 . S
C1318 C1316 1.389 . S
C1318 C1319 1.524 . S
C1318 C1332 1.377 . S
C1319 C1318 1.524 . S
C1319 C1320 1.397 . S
C1319 C1324 1.363 . S
C1320 H1297 0.950 . S
C1320 C1319 1.397 . S
C1320 C1321 1.334 . S
C1321 H1298 0.950 . S
C1321 C1320 1.334 . S
C1321 C1322 1.287 . S
C1322 C1321 1.287 . S
C1322 C1323 1.524 . S
C1322 H1341 0.913 . S
C1323 H1299 0.950 . S
C1323 C1322 1.524 . S
C1323 C1324 1.415 . S
C1324 H1300 0.950 . S
C1324 C1319 1.363 . S
C1324 C1323 1.415 . S
C1325 H1301 0.951 . S
C1325 C1326 1.366 . S
C1325 C1327 1.388 . S
C1326 C1325 1.366 . S
C1326 C1330 1.385 . S
C1327 H1302 0.951 . S
C1327 C1325 1.388 . S
C1327 C1328 1.366 . S
C1328 C1327 1.366 . S
C1328 C1329 1.414 . S
C1328 C1331 1.499 1_556 S
C1329 H1303 0.950 . S
C1329 C1328 1.414 . S
C1329 C1330 1.374 . S
C1330 H1304 0.950 . S
C1330 C1326 1.385 . S
C1330 C1329 1.374 . S
C1331 C1328 1.499 1_554 S
C1331 C1332 1.373 . S
C1331 C1333 1.389 . S
C1332 H1305 0.950 . S
C1332 C1318 1.377 . S
C1332 C1331 1.373 . S
C1333 C1317 1.377 . S
C1333 C1331 1.389 . S
C1333 C1334 1.524 1_554 S
C1334 C1333 1.524 1_556 S
C1334 C1335 1.397 . S
C1334 C1339 1.363 . S
C1335 H1306 0.950 . S
C1335 C1334 1.397 . S
C1335 C1336 1.334 . S
C1336 H1307 0.950 . S
C1336 C1335 1.334 . S
C1336 C1337 1.287 . S
C1337 C1336 1.287 . S
C1337 C1338 1.524 . S
C1337 H1340 0.999 . S
C1338 H1308 0.950 . S
C1338 C1337 1.524 . S
C1338 C1339 1.415 . S
C1339 H1309 0.950 . S
C1339 C1334 1.363 . S
C1339 C1338 1.415 . S
H1340 C1337 0.999 . S
H1341 C1322 0.913 . S
H1342 C1360 0.951 . S
H1343 C1362 0.951 . S
H1344 C1364 0.950 . S
H1345 C1365 0.950 . S
H1346 C1367 0.950 . S
H1347 C1370 0.950 . S
H1348 C1371 0.950 . S
H1349 C1373 0.950 . S
H1350 C1374 0.950 . S
H1351 C1375 0.951 . S
H1352 C1377 0.951 . S
H1353 C1379 0.950 . S
H1354 C1380 0.950 . S
H1355 C1382 0.950 . S
H1356 C1385 0.950 . S
H1357 C1386 0.950 . S
H1358 C1388 0.950 . S
H1359 C1389 0.950 . S
C1360 H1342 0.951 . S
C1360 C1361 1.366 . S
C1360 C1362 1.388 . S
C1361 C1360 1.366 . S
C1361 C1365 1.385 . S
C1362 H1343 0.951 . S
C1362 C1360 1.388 . S
C1362 C1363 1.366 . S
C1363 C1362 1.366 . S
C1363 C1364 1.414 . S
C1363 C1366 1.499 . S
C1364 H1344 0.950 . S
C1364 C1363 1.414 . S
C1364 C1365 1.374 . S
C1365 H1345 0.950 . S
C1365 C1361 1.385 . S
C1365 C1364 1.374 . S
C1366 C1363 1.499 . S
C1366 C1367 1.373 . S
C1366 C1368 1.389 . S
C1367 H1346 0.950 . S
C1367 C1366 1.373 . S
C1367 C1383 1.377 . S
C1368 C1366 1.389 . S
C1368 C1369 1.524 . S
C1368 C1382 1.377 . S
C1369 C1368 1.524 . S
C1369 C1370 1.397 . S
C1369 C1374 1.363 . S
C1370 H1347 0.950 . S
C1370 C1369 1.397 . S
C1370 C1371 1.334 . S
C1371 H1348 0.950 . S
C1371 C1370 1.334 . S
C1371 C1372 1.287 . S
C1372 C1371 1.287 . S
C1372 C1373 1.524 . S
C1372 H1391 0.913 . S
C1373 H1349 0.950 . S
C1373 C1372 1.524 . S
C1373 C1374 1.415 . S
C1374 H1350 0.950 . S
C1374 C1369 1.363 . S
C1374 C1373 1.415 . S
C1375 H1351 0.951 . S
C1375 C1376 1.366 . S
C1375 C1377 1.388 . S
C1376 C1375 1.366 . S
C1376 C1380 1.385 . S
C1377 H1352 0.951 . S
C1377 C1375 1.388 . S
C1377 C1378 1.366 . S
C1378 C1377 1.366 . S
C1378 C1379 1.414 . S
C1378 C1381 1.499 . S
C1379 H1353 0.950 . S
C1379 C1378 1.414 . S
C1379 C1380 1.374 . S
C1380 H1354 0.950 . S
C1380 C1376 1.385 . S
C1380 C1379 1.374 . S
C1381 C1378 1.499 . S
C1381 C1382 1.373 . S
C1381 C1383 1.389 . S
C1382 H1355 0.950 . S
C1382 C1368 1.377 . S
C1382 C1381 1.373 . S
C1383 C1367 1.377 . S
C1383 C1381 1.389 . S
C1383 C1384 1.524 . S
C1384 C1383 1.524 . S
C1384 C1385 1.397 . S
C1384 C1389 1.363 . S
C1385 H1356 0.950 . S
C1385 C1384 1.397 . S
C1385 C1386 1.334 . S
C1386 H1357 0.950 . S
C1386 C1385 1.334 . S
C1386 C1387 1.287 . S
C1387 C1386 1.287 . S
C1387 C1388 1.524 . S
C1387 H1390 0.999 . S
C1388 H1358 0.950 . S
C1388 C1387 1.524 . S
C1388 C1389 1.415 . S
C1389 H1359 0.950 . S
C1389 C1384 1.363 . S
C1389 C1388 1.415 . S
H1390 C1387 0.999 . S
H1391 C1372 0.913 . S
C226 C185 1.490 . S
C211 C8 1.472 . S
C261 C26 1.475 . S
C276 C114 1.493 . S
C311 C50 1.480 . S
C326 C128 1.502 . S
C361 C68 1.473 . S
C376 C142 1.495 . S
C426 C156 1.492 . S
C411 C80 1.473 . S
C461 C104 1.475 . S
C476 C171 1.496 . S
C511 C32 1.481 . S
C526 C129 1.502 . S
C561 C44 1.474 . S
C576 C143 1.493 . S
C611 C62 1.472 . S
C626 C157 1.490 . S
C676 C170 1.496 . S
C661 C86 1.474 1_554 S
C726 C184 1.491 . S
C711 C98 1.472 . S
C776 C115 1.495 . S
C761 C14 1.474 . S
C811 C7 1.496 . S
C826 C131 1.536 . S
C861 C25 1.496 . S
C876 C145 1.534 . S
C926 C159 1.531 . S
C911 C52 1.497 . S
C961 C70 1.501 . S
C976 C172 1.536 . S
C1026 C186 1.532 . S
C1011 C79 1.493 . S
C1076 C117 1.532 . S
C1061 C106 1.498 . S
C1126 C187 1.531 . S
C1111 C34 1.497 . S
C1161 C43 1.494 . S
C1176 C116 1.533 . S
C1226 C130 1.537 . S
C1211 C61 1.498 . S
C1261 C88 1.496 . S
C1276 C144 1.531 . S
C1311 C97 1.494 . S
C1326 C158 1.532 . S
C1361 C16 1.501 . S
C1376 C173 1.536 . S
