# Generated by pormake.
# Topology ssc, (4,4)-cn, num edge types: 1
# Building blocks:
#     Node 0, Type 0, BuildingBlock: QUQFOY_clean_sbu_3, # of connection points: 4
#     Node 1, Type 0, BuildingBlock: QUQFOY_clean_sbu_3, # of connection points: 4
#     Node 2, Type 0, BuildingBlock: QUQFOY_clean_sbu_3, # of connection points: 4
#     Node 3, Type 0, BuildingBlock: QUQFOY_clean_sbu_3, # of connection points: 4
#     Node 4, Type 0, BuildingBlock: QUQFOY_clean_sbu_3, # of connection points: 4
#     Node 5, Type 0, BuildingBlock: QUQFOY_clean_sbu_3, # of connection points: 4
#     Node 6, Type 0, BuildingBlock: QUQFOY_clean_sbu_3, # of connection points: 4
#     Node 7, Type 0, BuildingBlock: QUQFOY_clean_sbu_3, # of connection points: 4
#     Node 8, Type 0, BuildingBlock: QUQFOY_clean_sbu_3, # of connection points: 4
#     Node 9, Type 0, BuildingBlock: QUQFOY_clean_sbu_3, # of connection points: 4
#     Node 10, Type 0, BuildingBlock: QUQFOY_clean_sbu_3, # of connection points: 4
#     Node 11, Type 0, BuildingBlock: QUQFOY_clean_sbu_3, # of connection points: 4
#     Node 12, Type 1, BuildingBlock: KUFVIS_clean_linker_0, # of connection points: 4
#     Node 13, Type 1, BuildingBlock: KUFVIS_clean_linker_0, # of connection points: 4
#     Node 14, Type 1, BuildingBlock: KUFVIS_clean_linker_0, # of connection points: 4
#     Node 15, Type 1, BuildingBlock: KUFVIS_clean_linker_0, # of connection points: 4
#     Node 16, Type 1, BuildingBlock: KUFVIS_clean_linker_0, # of connection points: 4
#     Node 17, Type 1, BuildingBlock: KUFVIS_clean_linker_0, # of connection points: 4
#     Node 18, Type 1, BuildingBlock: KUFVIS_clean_linker_0, # of connection points: 4
#     Node 19, Type 1, BuildingBlock: KUFVIS_clean_linker_0, # of connection points: 4
#     Node 20, Type 1, BuildingBlock: KUFVIS_clean_linker_0, # of connection points: 4
#     Node 21, Type 1, BuildingBlock: KUFVIS_clean_linker_0, # of connection points: 4
#     Node 22, Type 1, BuildingBlock: KUFVIS_clean_linker_0, # of connection points: 4
#     Node 23, Type 1, BuildingBlock: KUFVIS_clean_linker_0, # of connection points: 4
#     Edge 24, Type (0, 1), BuildingBlock: XUDNAN_clean_linker_2, # of connection points: 2
#     Edge 25, Type (0, 1), BuildingBlock: XUDNAN_clean_linker_2, # of connection points: 2
#     Edge 26, Type (0, 1), BuildingBlock: XUDNAN_clean_linker_2, # of connection points: 2
#     Edge 27, Type (0, 1), BuildingBlock: XUDNAN_clean_linker_2, # of connection points: 2
#     Edge 28, Type (0, 1), BuildingBlock: XUDNAN_clean_linker_2, # of connection points: 2
#     Edge 29, Type (0, 1), BuildingBlock: XUDNAN_clean_linker_2, # of connection points: 2
#     Edge 30, Type (0, 1), BuildingBlock: XUDNAN_clean_linker_2, # of connection points: 2
#     Edge 31, Type (0, 1), BuildingBlock: XUDNAN_clean_linker_2, # of connection points: 2
#     Edge 32, Type (0, 1), BuildingBlock: XUDNAN_clean_linker_2, # of connection points: 2
#     Edge 33, Type (0, 1), BuildingBlock: XUDNAN_clean_linker_2, # of connection points: 2
#     Edge 34, Type (0, 1), BuildingBlock: XUDNAN_clean_linker_2, # of connection points: 2
#     Edge 35, Type (0, 1), BuildingBlock: XUDNAN_clean_linker_2, # of connection points: 2
#     Edge 36, Type (0, 1), BuildingBlock: XUDNAN_clean_linker_2, # of connection points: 2
#     Edge 37, Type (0, 1), BuildingBlock: XUDNAN_clean_linker_2, # of connection points: 2
#     Edge 38, Type (0, 1), BuildingBlock: XUDNAN_clean_linker_2, # of connection points: 2
#     Edge 39, Type (0, 1), BuildingBlock: XUDNAN_clean_linker_2, # of connection points: 2
#     Edge 40, Type (0, 1), BuildingBlock: XUDNAN_clean_linker_2, # of connection points: 2
#     Edge 41, Type (0, 1), BuildingBlock: XUDNAN_clean_linker_2, # of connection points: 2
#     Edge 42, Type (0, 1), BuildingBlock: XUDNAN_clean_linker_2, # of connection points: 2
#     Edge 43, Type (0, 1), BuildingBlock: XUDNAN_clean_linker_2, # of connection points: 2
#     Edge 44, Type (0, 1), BuildingBlock: XUDNAN_clean_linker_2, # of connection points: 2
#     Edge 45, Type (0, 1), BuildingBlock: XUDNAN_clean_linker_2, # of connection points: 2
#     Edge 46, Type (0, 1), BuildingBlock: XUDNAN_clean_linker_2, # of connection points: 2
#     Edge 47, Type (0, 1), BuildingBlock: XUDNAN_clean_linker_2, # of connection points: 2
#     Edge 48, Type (0, 1), BuildingBlock: XUDNAN_clean_linker_2, # of connection points: 2
#     Edge 49, Type (0, 1), BuildingBlock: XUDNAN_clean_linker_2, # of connection points: 2
#     Edge 50, Type (0, 1), BuildingBlock: XUDNAN_clean_linker_2, # of connection points: 2
#     Edge 51, Type (0, 1), BuildingBlock: XUDNAN_clean_linker_2, # of connection points: 2
#     Edge 52, Type (0, 1), BuildingBlock: XUDNAN_clean_linker_2, # of connection points: 2
#     Edge 53, Type (0, 1), BuildingBlock: XUDNAN_clean_linker_2, # of connection points: 2
#     Edge 54, Type (0, 1), BuildingBlock: XUDNAN_clean_linker_2, # of connection points: 2
#     Edge 55, Type (0, 1), BuildingBlock: XUDNAN_clean_linker_2, # of connection points: 2
#     Edge 56, Type (0, 1), BuildingBlock: XUDNAN_clean_linker_2, # of connection points: 2
#     Edge 57, Type (0, 1), BuildingBlock: XUDNAN_clean_linker_2, # of connection points: 2
#     Edge 58, Type (0, 1), BuildingBlock: XUDNAN_clean_linker_2, # of connection points: 2
#     Edge 59, Type (0, 1), BuildingBlock: XUDNAN_clean_linker_2, # of connection points: 2
#     Edge 60, Type (0, 1), BuildingBlock: XUDNAN_clean_linker_2, # of connection points: 2
#     Edge 61, Type (0, 1), BuildingBlock: XUDNAN_clean_linker_2, # of connection points: 2
#     Edge 62, Type (0, 1), BuildingBlock: XUDNAN_clean_linker_2, # of connection points: 2
#     Edge 63, Type (0, 1), BuildingBlock: XUDNAN_clean_linker_2, # of connection points: 2
#     Edge 64, Type (0, 1), BuildingBlock: XUDNAN_clean_linker_2, # of connection points: 2
#     Edge 65, Type (0, 1), BuildingBlock: XUDNAN_clean_linker_2, # of connection points: 2
#     Edge 66, Type (0, 1), BuildingBlock: XUDNAN_clean_linker_2, # of connection points: 2
#     Edge 67, Type (0, 1), BuildingBlock: XUDNAN_clean_linker_2, # of connection points: 2
#     Edge 68, Type (0, 1), BuildingBlock: XUDNAN_clean_linker_2, # of connection points: 2
#     Edge 69, Type (0, 1), BuildingBlock: XUDNAN_clean_linker_2, # of connection points: 2
#     Edge 70, Type (0, 1), BuildingBlock: XUDNAN_clean_linker_2, # of connection points: 2
#     Edge 71, Type (0, 1), BuildingBlock: XUDNAN_clean_linker_2, # of connection points: 2
# Relax obj value: 0.126
# Max RMSD: 0.302
# Mean RMSD: 0.275
data_MOF--net-ssc--node1-QUQFOY_clean_sbu_3--node2-KUFVIS_clean_linker_0--edge1-XUDNAN_clean_linker_2
_symmetry_space_group_name_H-M    P1
_symmetry_Int_Tables_number       1
_symmetry_cell_setting            triclinic
loop_
_symmetry_equiv_pos_as_xyz
'x, y, z'
_cell_length_a     31.540514
_cell_length_b     31.466339
_cell_length_c     31.276482
_cell_angle_alpha  92.643056
_cell_angle_beta   90.053658
_cell_angle_gamma 90.719339
loop_
_atom_site_label
_atom_site_type_symbol
_atom_site_fract_x
_atom_site_fract_y
_atom_site_fract_z
_atom_type_partial_charge
C0 C 0.09547 0.15739 0.20927 0.0
O1 O 0.08888 0.12081 0.2236 0.0
Cd2 Cd 0.02178 0.08674 0.21498 0.0
O3 O 0.06644 0.17574 0.18866 0.0
Cd4 Cd -0.00682 0.15977 0.15982 0.0
C5 C 0.9547 0.16245 0.2599 0.0
O6 O 0.01158 0.08727 0.13883 0.0
O7 O 0.94543 0.10175 0.13242 0.0
O8 O 0.95824 0.21352 0.11566 0.0
C9 C 0.97592 0.07735 0.12251 0.0
O10 O 0.97574 0.12853 0.2631 0.0
C11 C 0.98818 0.21403 0.08854 0.0
O12 O 0.95416 0.18172 0.22508 0.0
O13 O 0.01986 0.19108 0.09585 0.0
C14 C 0.07066 0.65104 0.3099 0.0
O15 O 0.06658 0.69104 0.31476 0.0
Cd16 Cd 0.01649 0.72374 0.3617 0.0
O17 O 0.04817 0.62576 0.33166 0.0
Cd18 Cd -0.00848 0.63275 0.38834 0.0
C19 C 0.92646 0.67795 0.31557 0.0
O20 O 0.02779 0.69165 0.42878 0.0
O21 O 0.96481 0.67502 0.44987 0.0
O22 O 0.02629 0.57322 0.42272 0.0
C23 C -0.00041 0.69443 0.45752 0.0
O24 O 0.95131 0.70979 0.32171 0.0
C25 C -0.00774 0.55721 0.43695 0.0
O26 O 0.93232 0.644 0.33554 0.0
O27 O 0.95794 0.57326 0.42436 0.0
C28 C 0.53226 0.76907 0.70771 0.0
O29 O 0.52001 0.7305 0.70528 0.0
Cd30 Cd 0.48987 0.70109 0.64102 0.0
O31 O 0.52167 0.79475 0.67928 0.0
Cd32 Cd 0.47355 0.78939 0.6158 0.0
C33 C 0.39021 0.73139 0.65333 0.0
O34 O 0.5258 0.73832 0.58717 0.0
O35 O 0.47158 0.74954 0.54746 0.0
O36 O 0.50633 0.85964 0.60615 0.0
C37 C 0.50903 0.73595 0.55056 0.0
O38 O 0.41387 0.69996 0.64432 0.0
C39 C 0.4833 0.87001 0.57509 0.0
O40 O 0.40462 0.76937 0.65141 0.0
O41 O 0.4524 0.84514 0.56563 0.0
C42 C 0.58016 0.25184 0.83309 0.0
O43 O 0.57924 0.28855 0.818 0.0
Cd44 Cd 0.52687 0.33832 0.83666 0.0
O45 O 0.55084 0.23933 0.85795 0.0
Cd46 Cd 0.48351 0.26944 0.88973 0.0
C47 C 0.43811 0.28555 0.79611 0.0
O48 O 0.52605 0.33071 0.91234 0.0
O49 O 0.45914 0.33723 0.92368 0.0
O50 O 0.49725 0.21365 0.93919 0.0
C51 C 0.49656 0.35059 0.93126 0.0
O52 O 0.46641 0.31441 0.79354 0.0
C53 C 0.46171 0.21606 0.95799 0.0
O54 O 0.43636 0.26221 0.82807 0.0
O55 O 0.43512 0.24157 0.94346 0.0
C56 C 0.06049 0.94169 0.1969 0.0
O57 O 0.07013 0.97939 0.20971 0.0
Cd58 Cd 0.12566 2e-05 0.25673 0.0
O59 O 0.08234 0.90993 0.20761 0.0
Cd60 Cd 0.14694 0.90074 0.25323 0.0
C61 C 0.08963 0.93622 0.33684 0.0
O62 O 0.18639 0.96287 0.23182 0.0
O63 O 0.20118 0.94168 0.29429 0.0
O64 O 0.1804 0.84608 0.20655 0.0
C65 C 0.21029 0.96581 0.26425 0.0
O66 O 0.09624 0.97302 0.32266 0.0
C67 C 0.19026 0.82245 0.23682 0.0
O68 O 0.10238 0.90276 0.31671 0.0
O69 O 0.17711 0.83374 0.2739 0.0
C70 C 0.14599 0.93813 0.54877 0.0
O71 O 0.16241 0.93533 0.51171 0.0
Cd72 Cd 0.22792 0.90039 0.49657 0.0
O73 O 0.16319 0.92021 0.58003 0.0
Cd74 Cd 0.2244 0.87393 0.59408 0.0
C75 C 0.28914 0.95664 0.57255 0.0
O76 O 0.2222 0.83282 0.52639 0.0
O77 O 0.27989 0.82781 0.56275 0.0
O78 O 0.17272 0.82946 0.62626 0.0
C79 C 0.25744 0.81475 0.53098 0.0
O80 O 0.28069 0.94581 0.53369 0.0
C81 C 0.1936 0.82132 0.65945 0.0
O82 O 0.27078 0.93835 0.60326 0.0
O83 O 0.22895 0.84078 0.66509 0.0
C84 C 0.44354 -0.00193 0.70146 0.0
O85 O 0.43288 0.96336 0.71782 0.0
Cd86 Cd 0.37093 0.9547 0.76104 0.0
O87 O 0.42192 0.03161 0.70869 0.0
Cd88 Cd 0.36018 0.0499 0.75543 0.0
C89 C 0.40899 0.01536 0.84419 0.0
O90 O 0.31281 0.99058 0.72944 0.0
O91 O 0.29248 0.02822 0.78489 0.0
O92 O 0.34588 0.1043 0.70433 0.0
C93 C 0.28321 0.00119 0.75499 0.0
O94 O 0.39359 0.97915 0.83244 0.0
C95 C 0.32943 0.13061 0.7313 0.0
O96 O 0.40546 0.04704 0.82052 0.0
O97 O 0.33098 0.12131 0.77033 0.0
C98 C 0.22633 0.10933 0.13751 0.0
O99 O 0.23555 0.10808 0.17686 0.0
Cd100 Cd 0.29921 0.14147 0.20345 0.0
O101 O 0.24837 0.13169 0.11261 0.0
Cd102 Cd 0.3099 0.18142 0.11722 0.0
C103 C 0.3686 0.09462 0.13218 0.0
O104 O 0.29895 0.215 0.1879 0.0
O105 O 0.36377 0.21355 0.1655 0.0
O106 O 0.27782 0.24212 0.0839 0.0
C107 C 0.33671 0.22856 0.19191 0.0
O108 O 0.357 0.09899 0.17106 0.0
C109 C 0.30209 0.24241 0.05164 0.0
O110 O 0.35453 0.11916 0.10431 0.0
O111 O 0.32951 0.21323 0.04827 0.0
C112 C 0.73212 0.45841 0.88556 0.0
O113 O 0.75287 0.45683 0.85079 0.0
Cd114 Cd 0.81321 0.41349 0.83471 0.0
O115 O 0.74241 0.43515 0.91625 0.0
Cd116 Cd 0.80101 0.38352 0.92928 0.0
C117 C 0.87324 0.46252 0.91275 0.0
O118 O 0.8027 0.34379 0.85982 0.0
O119 O 0.85832 0.33929 0.89942 0.0
O120 O 0.7541 0.33621 0.96893 0.0
C121 C 0.83805 0.32636 0.86618 0.0
O122 O 0.86965 0.4525 0.87301 0.0
C123 C 0.77757 0.33417 0.00181 0.0
O124 O 0.84964 0.44521 0.94034 0.0
O125 O 0.81143 0.35654 0.00208 0.0
C126 C 0.93899 0.36516 0.16052 0.0
O127 O 0.94029 0.32901 0.17678 0.0
Cd128 Cd 0.89746 0.31525 0.23832 0.0
O129 O 0.9153 0.3941 0.17707 0.0
Cd130 Cd 0.86527 0.40267 0.23891 0.0
C131 C 0.93913 0.38589 0.31265 0.0
O132 O 0.82494 0.33601 0.22456 0.0
O133 O 0.81729 0.36612 0.28727 0.0
O134 O 0.82904 0.45551 0.19711 0.0
C135 C 0.80417 0.33881 0.25916 0.0
O136 O 0.93363 0.34658 0.30238 0.0
C137 C 0.82083 0.48048 0.229 0.0
O138 O 0.92053 0.41384 0.29179 0.0
O139 O 0.83355 0.46953 0.26527 0.0
C140 C 0.65749 0.59634 0.44577 0.0
O141 O 0.66971 0.60335 0.48414 0.0
Cd142 Cd 0.73723 0.63298 0.50081 0.0
O143 O 0.67915 0.61018 0.41468 0.0
Cd144 Cd 0.7443 0.65644 0.40567 0.0
C145 C 0.7976 0.56961 0.43055 0.0
O146 O 0.73668 0.70172 0.4718 0.0
O147 O 0.79698 0.70465 0.43931 0.0
O148 O 0.70194 0.69672 0.35548 0.0
C149 C 0.77214 0.72032 0.46745 0.0
O150 O 0.78298 0.5791 0.46762 0.0
C151 C 0.73323 0.70638 0.33214 0.0
O152 O 0.78986 0.59274 0.39917 0.0
O153 O 0.76837 0.68957 0.34076 0.0
C154 C 0.57149 0.60337 0.66464 0.0
O155 O 0.56288 0.64073 0.67876 0.0
Cd156 Cd 0.5918 0.67172 0.74472 0.0
O157 O 0.5974 0.58075 0.68468 0.0
Cd158 Cd 0.64126 0.58768 0.74989 0.0
C159 C 0.56095 0.59906 0.81754 0.0
O160 O 0.66664 0.66241 0.74772 0.0
O161 O 0.66656 0.63278 0.80853 0.0
O162 O 0.70731 0.55424 0.7268 0.0
C163 C 0.67767 0.66395 0.78677 0.0
O164 O 0.5595 0.63723 0.80581 0.0
C165 C 0.7023 0.52121 0.74822 0.0
O166 O 0.5848 0.57199 0.79869 0.0
O167 O 0.66845 0.51851 0.76976 0.0
H168 H 0.88859 0.3908 0.59653 0.0
H169 H 0.95959 0.30476 0.67028 0.0
H170 H 0.98459 0.31347 0.53515 0.0
H171 H 0.96335 0.22362 0.58276 0.0
H172 H 0.08446 0.17905 0.62309 0.0
H173 H 0.05885 0.31308 0.63137 0.0
C174 C 0.91317 0.36708 0.59814 0.0
C175 C 0.93506 0.35408 0.56084 0.0
C176 C 0.9216 0.34938 0.63743 0.0
C177 C 0.95337 0.31902 0.64002 0.0
C178 C 0.97677 0.30665 0.60336 0.0
C179 C 0.96754 0.3241 0.56368 0.0
C180 C 0.00779 0.27231 0.60627 0.0
C181 C -0.0051 0.23026 0.5954 0.0
C182 C 0.02251 0.19675 0.60183 0.0
C183 C 0.063 0.20522 0.61864 0.0
C184 C 0.07657 0.24687 0.62905 0.0
C185 C 0.04883 0.2807 0.62294 0.0
H186 H 0.88893 0.73293 0.94368 0.0
H187 H 0.01825 0.77455 0.95706 0.0
H188 H 0.92257 0.86274 0.9212 0.0
H189 H 0.00417 0.84746 0.8639 0.0
H190 H 0.08757 0.94573 0.91597 0.0
H191 H 0.01492 0.86945 0.00049 0.0
C192 C 0.91196 0.7588 0.94514 0.0
C193 C 0.89981 0.79946 0.93338 0.0
C194 C 0.95417 0.74942 0.95449 0.0
C195 C 0.9852 0.78152 0.95143 0.0
C196 C 0.97355 0.82234 0.93941 0.0
C197 C 0.931 0.8313 0.9309 0.0
C198 C 0.00592 0.85531 0.93296 0.0
C199 C 0.01783 0.86519 0.8912 0.0
C200 C 0.04745 0.89786 0.88482 0.0
C201 C 0.06465 0.92044 0.92064 0.0
C202 C 0.0538 0.9102 0.96244 0.0
C203 C 0.02396 0.87764 0.96843 0.0
H204 H 0.4297 0.81406 0.15049 0.0
H205 H 0.49148 0.69321 0.1425 0.0
H206 H 0.55014 0.80267 0.08707 0.0
H207 H 0.53493 0.706 0.03598 0.0
H208 H 0.64232 0.6314 0.06647 0.0
H209 H 0.59352 0.72243 0.16045 0.0
C210 C 0.45697 0.79505 0.14117 0.0
C211 C 0.49027 0.81374 0.11911 0.0
C212 C 0.45689 0.75172 0.14904 0.0
C213 C 0.49161 0.72689 0.13654 0.0
C214 C 0.5257 0.74525 0.11458 0.0
C215 C 0.52474 0.78872 0.1053 0.0
C216 C 0.56085 0.71782 0.09973 0.0
C217 C 0.55973 0.69831 0.05826 0.0
C218 C 0.58957 0.6673 0.04654 0.0
C219 C 0.62068 0.65666 0.07582 0.0
C220 C 0.62364 0.67693 0.11666 0.0
C221 C 0.59298 0.70734 0.12865 0.0
H222 H 0.34617 0.16229 0.44151 0.0
H223 H 0.45436 0.23938 0.47652 0.0
H224 H 0.40187 0.24371 0.34952 0.0
H225 H 0.5008 0.2179 0.37242 0.0
H226 H 0.56372 0.33807 0.36154 0.0
H227 H 0.43973 0.33281 0.41926 0.0
C228 C 0.36808 0.18753 0.43348 0.0
C229 C 0.36912 0.2021 0.39183 0.0
C230 C 0.39813 0.20089 0.46413 0.0
C231 C 0.42962 0.23054 0.45361 0.0
C232 C 0.4304 0.24664 0.41223 0.0
C233 C 0.39999 0.23255 0.3817 0.0
C234 C 0.46665 0.27261 0.39828 0.0
C235 C 0.50092 0.25222 0.37754 0.0
C236 C 0.53562 0.27622 0.36416 0.0
C237 C 0.53574 0.32039 0.37081 0.0
C238 C 0.50138 0.34168 0.38999 0.0
C239 C 0.46668 0.31731 0.40412 0.0
H240 H 0.6268 0.9438 0.33263 0.0
H241 H 0.66321 0.0171 0.22537 0.0
H242 H 0.5868 0.07318 0.32719 0.0
H243 H 0.54972 0.07564 0.24766 0.0
H244 H 0.59058 0.18224 0.17816 0.0
H245 H 0.68339 0.10241 0.23484 0.0
C246 C 0.62648 0.97343 0.31619 0.0
C247 C 0.60501 0.00824 0.33471 0.0
C248 C 0.64794 0.97645 0.27705 0.0
C249 C 0.64791 0.01508 0.25625 0.0
C250 C 0.62531 0.05004 0.27387 0.0
C251 C 0.60445 0.04652 0.3135 0.0
C252 C 0.61746 0.08762 0.24819 0.0
C253 C 0.57518 0.09662 0.23802 0.0
C254 C 0.56586 0.13025 0.21227 0.0
C255 C 0.59867 0.1562 0.1981 0.0
C256 C 0.64133 0.14544 0.20368 0.0
C257 C 0.65076 0.11138 0.22992 0.0
H258 H 0.19317 0.3666 0.35014 0.0
H259 H 0.24249 0.41908 0.4684 0.0
H260 H 0.32241 0.34182 0.38535 0.0
H261 H 0.29041 0.32454 0.48885 0.0
H262 H 0.38524 0.3867 0.5675 0.0
H263 H 0.35082 0.43938 0.44764 0.0
C264 C 0.22045 0.37245 0.3708 0.0
C265 C 0.25923 0.3527 0.36122 0.0
C266 C 0.21436 0.39638 0.40894 0.0
C267 C 0.24776 0.40215 0.4379 0.0
C268 C 0.28686 0.38272 0.42921 0.0
C269 C 0.29269 0.35809 0.39092 0.0
C270 C 0.31798 0.38177 0.46403 0.0
C271 C 0.3139 0.34978 0.4937 0.0
C272 C 0.3393 0.35121 0.53023 0.0
C273 C 0.36805 0.38486 0.53743 0.0
C274 C 0.37365 0.41654 0.50775 0.0
C275 C 0.34804 0.4149 0.47075 0.0
H276 H 0.95722 0.07293 0.83722 0.0
H277 H 0.94121 0.03421 0.7045 0.0
H278 H 0.97483 0.94262 0.79717 0.0
H279 H 0.01586 0.92247 0.72608 0.0
H280 H 0.93735 0.85193 0.63499 0.0
H281 H 0.89118 0.96793 0.69393 0.0
C282 C 0.9595 0.04892 0.81136 0.0
C283 C 0.96901 0.0073 0.82152 0.0
C284 C 0.95016 0.05956 0.76935 0.0
C285 C 0.94924 0.02691 0.73703 0.0
C286 C 0.95842 0.9846 0.74685 0.0
C287 C 0.9686 0.97513 0.78916 0.0
C288 C 0.95402 0.94941 0.71404 0.0
C289 C 0.98633 0.91889 0.70843 0.0
C290 C 0.98016 0.88382 0.67974 0.0
C291 C 0.94188 0.87897 0.65749 0.0
C292 C 0.90995 0.90896 0.66238 0.0
C293 C 0.91612 0.94467 0.69014 0.0
H294 H 0.31239 0.58013 0.85048 0.0
H295 H 0.26619 0.52816 0.96588 0.0
H296 H 0.17973 0.58912 0.88139 0.0
H297 H 0.21787 0.58985 0.00672 0.0
H298 H 0.11174 0.51898 0.05198 0.0
H299 H 0.14803 0.50404 0.91964 0.0
C300 C 0.28584 0.57233 0.8709 0.0
C301 C 0.2453 0.58653 0.86095 0.0
C302 C 0.29339 0.55141 0.90853 0.0
C303 C 0.25988 0.5433 0.93609 0.0
C304 C 0.21855 0.55594 0.9262 0.0
C305 C 0.2111 0.57755 0.88829 0.0
C306 C 0.18515 0.54979 0.95856 0.0
C307 C 0.19124 0.56842 0.00011 0.0
C308 C 0.16483 0.55704 0.03368 0.0
C309 C 0.13152 0.52835 0.0255 0.0
C310 C 0.12491 0.50932 0.98468 0.0
C311 C 0.15178 0.52005 0.95088 0.0
H312 H 0.61995 0.9002 0.94145 0.0
H313 H 0.6473 0.92772 0.07453 0.0
H314 H 0.7057 0.82074 0.00664 0.0
H315 H 0.69479 0.79972 0.08986 0.0
H316 H 0.79454 0.85546 0.16892 0.0
H317 H 0.73724 0.92858 0.07339 0.0
C318 C 0.6369 0.89326 0.97053 0.0
C319 C 0.66332 0.85817 0.97009 0.0
C320 C 0.63053 0.91844 0.00772 0.0
C321 C 0.65148 0.90797 0.04556 0.0
C322 C 0.67904 0.87264 0.04544 0.0
C323 C 0.68421 0.84736 0.0075 0.0
C324 C 0.70813 0.867 0.082 0.0
C325 C 0.71347 0.82719 0.10095 0.0
C326 C 0.74531 0.8228 0.13223 0.0
C327 C 0.7695 0.85873 0.14546 0.0
C328 C 0.76887 0.89547 0.12229 0.0
C329 C 0.73694 0.90039 0.09211 0.0
H330 H 0.46761 0.71925 0.33657 0.0
H331 H 0.39823 0.60984 0.28868 0.0
H332 H 0.52935 0.62648 0.25414 0.0
H333 H 0.49546 0.59135 0.18856 0.0
H334 H 0.469 0.45767 0.19457 0.0
H335 H 0.431 0.54222 0.29833 0.0
C336 C 0.46644 0.69075 0.3161 0.0
C337 C 0.50347 0.67602 0.29546 0.0
C338 C 0.42887 0.66656 0.31512 0.0
C339 C 0.42692 0.62918 0.28922 0.0
C340 C 0.46297 0.61498 0.26658 0.0
C341 C 0.50082 0.63894 0.26912 0.0
C342 C 0.46351 0.57197 0.24601 0.0
C343 C 0.48291 0.56491 0.20588 0.0
C344 C 0.48511 0.52364 0.18774 0.0
C345 C 0.46832 0.48955 0.20944 0.0
C346 C 0.44844 0.49636 0.24889 0.0
C347 C 0.44615 0.5374 0.26742 0.0
H348 H 0.91708 0.08496 0.48848 0.0
H349 H 0.85978 0.00847 0.58302 0.0
H350 H 0.81658 0.13619 0.56736 0.0
H351 H 0.83389 0.10991 0.65977 0.0
H352 H 0.71863 0.05038 0.70043 0.0
H353 H 0.7637 0.02596 0.57234 0.0
C354 C 0.89514 0.08208 0.51495 0.0
C355 C 0.86807 0.1158 0.52612 0.0
C356 C 0.89198 0.04321 0.53472 0.0
C357 C 0.86292 0.03857 0.56791 0.0
C358 C 0.83626 0.07232 0.58033 0.0
C359 C 0.83849 0.11085 0.55912 0.0
C360 C 0.8042 0.06586 0.6136 0.0
C361 C 0.8082 0.08723 0.65383 0.0
C362 C 0.77787 0.08061 0.68563 0.0
C363 C 0.74369 0.05276 0.67684 0.0
C364 C 0.73743 0.03411 0.63583 0.0
C365 C 0.7684 0.03989 0.60437 0.0
H366 H 0.13744 0.36773 0.90756 0.0
H367 H 0.17892 0.45449 0.81419 0.0
H368 H 0.04579 0.42094 0.82423 0.0
H369 H 0.06807 0.42019 0.74143 0.0
H370 H 0.06502 0.54401 0.69145 0.0
H371 H 0.13427 0.52467 0.80782 0.0
C372 C 0.12983 0.38778 0.88134 0.0
C373 C 0.08774 0.39087 0.86782 0.0
C374 C 0.16277 0.40959 0.86184 0.0
C375 C 0.15342 0.43734 0.82929 0.0
C376 C 0.11102 0.44162 0.81536 0.0
C377 C 0.07832 0.41817 0.83487 0.0
C378 C 0.10065 0.46978 0.77992 0.0
C379 C 0.07706 0.45357 0.74417 0.0
C380 C 0.06598 0.48047 0.71156 0.0
C381 C 0.07665 0.52356 0.71569 0.0
C382 C 0.10279 0.54008 0.749 0.0
C383 C 0.11449 0.51278 0.78147 0.0
H384 H 0.04233 0.20917 0.02141 0.0
H385 H 0.93209 0.27728 0.06894 0.0
H386 H 0.93745 0.32515 0.00818 0.0
H387 H 0.0995 0.29566 -0.00474 0.0
H388 H 0.12375 0.2724 0.94777 0.0
H389 H 0.10738 0.23911 0.98997 0.0
H390 H 0.06086 0.19324 0.93824 0.0
H391 H 0.07753 0.22514 0.89468 0.0
H392 H 0.02206 0.21807 0.90584 0.0
H393 H 0.96524 0.37408 0.95018 0.0
H394 H 0.00922 0.41462 0.89989 0.0
H395 H 0.09458 0.30803 0.88611 0.0
C396 C 0.01866 0.23355 0.01868 0.0
C397 C 0.98715 0.23988 0.05016 0.0
C398 C 0.95663 0.27196 0.04516 0.0
C399 C 0.95934 0.29916 0.01065 0.0
C400 C -0.00793 0.29302 0.98099 0.0
C401 C 0.02058 0.26027 0.98439 0.0
C402 C 0.05502 0.26193 0.95108 0.0
C403 C 0.09897 0.26767 0.9723 0.0
C404 C 0.05379 0.22222 0.92064 0.0
C405 C 0.04215 0.30127 0.92869 0.0
C406 C 0.00605 0.31928 0.94638 0.0
C407 C -0.00737 0.35949 0.93508 0.0
C408 C 0.01759 0.38224 0.90626 0.0
C409 C 0.0552 0.36439 0.88895 0.0
C410 C 0.06591 0.32249 0.89869 0.0
H411 H 0.93245 0.71929 0.24199 0.0
H412 H 0.84465 0.64357 0.31391 0.0
H413 H 0.78708 0.66013 0.26277 0.0
H414 H 0.86974 0.80165 0.22234 0.0
H415 H 0.88789 0.80935 0.1686 0.0
H416 H 0.92205 0.78506 0.20601 0.0
H417 H 0.92973 0.71921 0.15328 0.0
H418 H 0.89518 0.7435 0.11575 0.0
H419 H 0.88288 0.69117 0.13375 0.0
H420 H 0.73624 0.7039 0.21603 0.0
H421 H 0.70208 0.75799 0.17266 0.0
H422 H 0.82536 0.79494 0.1255 0.0
C423 C 0.90122 0.70561 0.24675 0.0
C424 C 0.89277 0.68096 0.28246 0.0
C425 C 0.85176 0.6629 0.287 0.0
C426 C 0.8189 0.67228 0.25821 0.0
C427 C 0.82782 0.6991 0.22481 0.0
C428 C 0.86859 0.71399 0.21815 0.0
C429 C 0.8705 0.74316 0.18112 0.0
C430 C 0.88857 0.78737 0.1954 0.0
C431 C 0.89609 0.72304 0.14377 0.0
C432 C 0.82399 0.74515 0.16988 0.0
C433 C 0.79948 0.71971 0.19518 0.0
C434 C 0.75518 0.72249 0.1949 0.0
C435 C 0.73589 0.75341 0.17016 0.0
C436 C 0.76106 0.78101 0.14607 0.0
C437 C 0.80523 0.77419 0.14361 0.0
H438 H 0.51638 0.7886 0.48657 0.0
H439 H 0.56056 0.66883 0.53037 0.0
H440 H 0.59745 0.6555 0.46158 0.0
H441 H 0.48383 0.76066 0.39545 0.0
H442 H 0.50126 0.80572 0.36607 0.0
H443 H 0.49455 0.81075 0.4228 0.0
H444 H 0.5768 0.83494 0.43266 0.0
H445 H 0.57562 0.83391 0.37518 0.0
H446 H 0.6154 0.80457 0.4026 0.0
H447 H 0.60631 0.64343 0.38538 0.0
H448 H 0.57148 0.62813 0.31728 0.0
H449 H 0.52861 0.7578 0.31582 0.0
C450 C 0.535 0.76012 0.48158 0.0
C451 C 0.53523 0.72928 0.51253 0.0
C452 C 0.56003 0.69264 0.50644 0.0
C453 C 0.58166 0.68521 0.46776 0.0
C454 C 0.57926 0.71529 0.43634 0.0
C455 C 0.55699 0.75252 0.44337 0.0
C456 C 0.55159 0.77569 0.40267 0.0
C457 C 0.50512 0.78894 0.39627 0.0
C458 C 0.58168 0.81449 0.4032 0.0
C459 C 0.56575 0.74141 0.37026 0.0
C460 C 0.58538 0.70847 0.39053 0.0
C461 C 0.59199 0.66921 0.36923 0.0
C462 C 0.57204 0.66079 0.3298 0.0
C463 C 0.54509 0.69146 0.31286 0.0
C464 C 0.54809 0.73378 0.32945 0.0
H465 H 0.63186 0.25717 0.76429 0.0
H466 H 0.61052 0.18474 0.87717 0.0
H467 H 0.67401 0.14183 0.85929 0.0
H468 H 0.65913 0.16906 0.69751 0.0
H469 H 0.69639 0.19917 0.66693 0.0
H470 H 0.6525 0.22546 0.69271 0.0
H471 H 0.70607 0.27769 0.72918 0.0
H472 H 0.75153 0.24953 0.70805 0.0
H473 H 0.74502 0.25819 0.76508 0.0
H474 H 0.73432 0.10205 0.82429 0.0
H475 H 0.77728 0.06238 0.7702 0.0
H476 H 0.7614 0.16337 0.68268 0.0
C477 C 0.64085 0.2327 0.78568 0.0
C478 C 0.61665 0.22453 0.82235 0.0
C479 C 0.62877 0.19152 0.8489 0.0
C480 C 0.66503 0.1674 0.83928 0.0
C481 C 0.68861 0.1768 0.80305 0.0
C482 C 0.67641 0.20821 0.77633 0.0
C483 C 0.70349 0.20884 0.7366 0.0
C484 C 0.67627 0.20007 0.69608 0.0
C485 C 0.72804 0.2511 0.73453 0.0
C486 C 0.73275 0.17234 0.7446 0.0
C487 C 0.72409 0.15451 0.78339 0.0
C488 C 0.74224 0.11634 0.79447 0.0
C489 C 0.76707 0.09423 0.76385 0.0
C490 C 0.77322 0.11048 0.72287 0.0
C491 C 0.75855 0.15132 0.71447 0.0
H492 H 0.0609 0.51693 0.47002 0.0
H493 H 0.9256 0.53326 0.48656 0.0
H494 H 0.92836 0.4953 0.55337 0.0
H495 H 0.07037 0.41207 0.52663 0.0
H496 H 0.11929 0.429 0.55227 0.0
H497 H 0.10691 0.44631 0.49975 0.0
H498 H 0.11525 0.52508 0.52504 0.0
H499 H 0.12942 0.50871 0.57726 0.0
H500 H 0.08608 0.54476 0.57126 0.0
H501 H 0.94759 0.47249 0.62483 0.0
H502 H 0.98179 0.46879 0.69604 0.0
H503 H 0.10473 0.46686 0.63547 0.0
C504 C 0.03159 0.51068 0.48667 0.0
C505 C -0.00721 0.52688 0.47205 0.0
C506 C 0.95544 0.5199 0.496 0.0
C507 C 0.95675 0.49847 0.53431 0.0
C508 C -0.0043 0.4841 0.54859 0.0
C509 C 0.03252 0.4897 0.52536 0.0
C510 C 0.07117 0.47839 0.5513 0.0
C511 C 0.0932 0.43908 0.53125 0.0
C512 C 0.10225 0.5165 0.55653 0.0
C513 C 0.05057 0.46818 0.59348 0.0
C514 C 0.00692 0.47041 0.59085 0.0
C515 C 0.98148 0.46861 0.6272 0.0
C516 C 0.00104 0.4661 0.66742 0.0
C517 C 0.04564 0.46544 0.67088 0.0
C518 C 0.07048 0.4649 0.63328 0.0
H519 H 0.52976 0.74672 0.7904 0.0
H520 H 0.60119 0.82171 0.70195 0.0
H521 H 0.65354 0.84068 0.75906 0.0
H522 H 0.54194 0.82277 0.87723 0.0
H523 H 0.54273 0.78297 0.91686 0.0
H524 H 0.51488 0.77247 0.8673 0.0
H525 H 0.55864 0.70479 0.85482 0.0
H526 H 0.58804 0.7159 0.9033 0.0
H527 H 0.61581 0.70776 0.85327 0.0
H528 H 0.69381 0.85635 0.82721 0.0
H529 H 0.71289 0.8756 0.90236 0.0
H530 H 0.61484 0.79074 0.94594 0.0
C531 C 0.55668 0.76684 0.78307 0.0
C532 C 0.56174 0.78281 0.74208 0.0
C533 C 0.59675 0.80963 0.73353 0.0
C534 C 0.62687 0.81998 0.76551 0.0
C535 C 0.62111 0.80344 0.80574 0.0
C536 C 0.58639 0.77817 0.81475 0.0
C537 C 0.58418 0.76924 0.86168 0.0
C538 C 0.54356 0.788 0.88194 0.0
C539 C 0.587 0.7215 0.86861 0.0
C540 C 0.62336 0.79292 0.87785 0.0
C541 C 0.64448 0.81227 0.84504 0.0
C542 C 0.67822 0.84057 0.85301 0.0
C543 C 0.68928 0.85088 0.89565 0.0
C544 C 0.66613 0.83341 0.92944 0.0
C545 C 0.63421 0.8027 0.92043 0.0
H546 H 0.44135 0.40745 0.96827 0.0
H547 H 0.57269 0.36805 0.96957 0.0
H548 H 0.58709 0.41855 0.03051 0.0
H549 H 0.46163 0.52133 -0.0013 0.0
H550 H 0.41474 0.52452 0.03154 0.0
H551 H 0.41585 0.48841 0.98511 0.0
H552 H 0.39631 0.42534 0.03203 0.0
H553 H 0.39462 0.46118 0.07835 0.0
H554 H 0.42854 0.41551 0.0781 0.0
H555 H 0.58538 0.46673 0.09575 0.0
H556 H 0.56565 0.50548 0.16338 0.0
H557 H 0.43718 0.51661 0.11716 0.0
C558 C 0.4734 0.41038 0.98063 0.0
C559 C 0.50599 0.38435 0.964 0.0
C560 C 0.54737 0.38828 0.98148 0.0
C561 C 0.55594 0.41696 0.016 0.0
C562 C 0.52314 0.44239 0.03162 0.0
C563 C 0.48273 0.43949 0.01444 0.0
C564 C 0.45219 0.46741 0.03959 0.0
C565 C 0.4351 0.50252 0.01208 0.0
C566 C 0.41581 0.44077 0.05812 0.0
C567 C 0.48147 0.48561 0.07425 0.0
C568 C 0.52245 0.47122 0.06884 0.0
C569 C 0.55382 0.47941 0.09971 0.0
C570 C 0.54259 0.50167 0.13776 0.0
C571 C 0.50045 0.515 0.14422 0.0
C572 C 0.47002 0.50827 0.11165 0.0
H573 H 0.98927 0.18281 0.33687 0.0
H574 H 0.86988 0.17789 0.2688 0.0
H575 H 0.83155 0.18952 0.33742 0.0
H576 H 0.96487 0.12429 0.41509 0.0
H577 H -0.00753 0.15366 0.45773 0.0
H578 H 0.00951 0.1584 0.40371 0.0
H579 H 0.00108 0.24014 0.41263 0.0
H580 H 0.98326 0.23499 0.46697 0.0
H581 H 0.95099 0.26213 0.42953 0.0
H582 H 0.8074 0.17803 0.41174 0.0
H583 H 0.80092 0.14446 0.48114 0.0
H584 H 0.93501 0.16435 0.50366 0.0
C585 C 0.95515 0.18625 0.33653 0.0
C586 C 0.93233 0.17971 0.29804 0.0
C587 C 0.88777 0.18345 0.29816 0.0
C588 C 0.86586 0.1902 0.33699 0.0
C589 C 0.8892 0.19445 0.37505 0.0
C590 C 0.9331 0.19381 0.37487 0.0
C591 C 0.95075 0.19259 0.4198 0.0
C592 C 0.98109 0.15496 0.42424 0.0
C593 C 0.9728 0.23499 0.43302 0.0
C594 C 0.91019 0.18692 0.44484 0.0
C595 C 0.8748 0.18978 0.41884 0.0
C596 C 0.83462 0.17735 0.43278 0.0
C597 C 0.83106 0.15856 0.47255 0.0
C598 C 0.86754 0.15216 0.49763 0.0
C599 C 0.90668 0.16986 0.48522 0.0
H600 H 0.00676 0.95188 0.33552 0.0
H601 H 0.10811 0.91557 0.41903 0.0
H602 H 0.05969 0.92284 0.48135 0.0
H603 H 0.97105 0.03188 0.39713 0.0
H604 H 0.91544 0.02457 0.3853 0.0
H605 H 0.95415 0.00569 0.34739 0.0
H606 H 0.92133 0.92973 0.34814 0.0
H607 H 0.88221 0.94846 0.38632 0.0
H608 H 0.91522 0.90417 0.39823 0.0
H609 H 0.00556 0.95041 0.53483 0.0
H610 H 0.9539 -0.00266 0.5728 0.0
H611 H 0.88624 0.01102 0.45409 0.0
C612 C 0.01805 0.94386 0.36685 0.0
C613 C 0.06052 0.93269 0.37292 0.0
C614 C 0.07519 0.92347 0.41407 0.0
C615 C 0.04786 0.92741 0.44948 0.0
C616 C 0.00607 0.93983 0.44275 0.0
C617 C -0.00881 0.94737 0.40215 0.0
C618 C 0.9475 0.96638 0.40345 0.0
C619 C 0.94708 0.00966 0.38211 0.0
C620 C 0.91463 0.93531 0.38282 0.0
C621 C 0.94116 0.97136 0.45122 0.0
C622 C 0.97463 0.95491 0.47359 0.0
C623 C 0.97866 0.96217 0.51782 0.0
C624 C 0.94925 0.98878 0.53917 0.0
C625 C 0.91607 0.007 0.51621 0.0
C626 C 0.91095 -0.00355 0.47229 0.0
H627 H 0.15944 0.74851 0.62759 0.0
H628 H 0.20013 0.81097 0.74724 0.0
H629 H 0.17787 0.74684 0.78587 0.0
H630 H 0.07058 0.68915 0.66692 0.0
H631 H 0.08133 0.6432 0.63228 0.0
H632 H 0.09595 0.6955 0.61595 0.0
H633 H 0.17415 0.67222 0.60534 0.0
H634 H 0.15897 0.61966 0.62028 0.0
H635 H 0.201 0.64797 0.64867 0.0
H636 H 0.14868 0.67312 0.81031 0.0
H637 H 0.12395 0.59841 0.81624 0.0
H638 H 0.11885 0.58473 0.67737 0.0
C639 C 0.16325 0.74904 0.66206 0.0
C640 C 0.18048 0.78493 0.68465 0.0
C641 C 0.18626 0.78393 0.72948 0.0
C642 C 0.17376 0.74768 0.75157 0.0
C643 C 0.15713 0.71249 0.72798 0.0
C644 C 0.15275 0.71297 0.68401 0.0
C645 C 0.13751 0.67073 0.66487 0.0
C646 C 0.09373 0.67491 0.6438 0.0
C647 C 0.16985 0.65154 0.6329 0.0
C648 C 0.1347 0.64579 0.70476 0.0
C649 C 0.1445 0.67034 0.7412 0.0
C650 C 0.14129 0.65367 0.78177 0.0
C651 C 0.12764 0.61096 0.78481 0.0
C652 C 0.1186 0.58512 0.74739 0.0
C653 C 0.12357 0.60317 0.70706 0.0
H654 H 0.49235 0.03863 0.85007 0.0
H655 H 0.38657 0.99259 0.92363 0.0
H656 H 0.43503 0.97959 0.98352 0.0
H657 H 0.55821 0.96032 0.87477 0.0
H658 H 0.60678 0.99113 0.87745 0.0
H659 H 0.56347 0.00812 0.84544 0.0
H660 H 0.56464 0.08135 0.88696 0.0
H661 H 0.60786 0.06438 0.91963 0.0
H662 H 0.55983 0.08374 0.94443 0.0
H663 H 0.49396 0.96267 0.03052 0.0
H664 H 0.55878 0.92795 0.05538 0.0
H665 H 0.62853 0.98213 0.95131 0.0
C666 C 0.47921 0.02825 0.87988 0.0
C667 C 0.43558 0.01811 0.88306 0.0
C668 C 0.41966 0.00184 0.92128 0.0
C669 C 0.44688 -0.00538 0.95555 0.0
C670 C 0.48997 0.00365 0.95116 0.0
C671 C 0.50622 0.02009 0.91425 0.0
C672 C 0.5544 0.01942 0.91466 0.0
C673 C 0.57169 0.99317 0.8758 0.0
C674 C 0.57277 0.06494 0.91654 0.0
C675 C 0.5624 -0.00218 0.95633 0.0
C676 C 0.5249 0.99047 0.97749 0.0
C677 C 0.52359 0.96777 0.01465 0.0
C678 C 0.56076 0.94895 0.02894 0.0
C679 C 0.59869 0.95257 0.00542 0.0
C680 C 0.60001 0.97962 0.97033 0.0
H681 H 0.30256 0.30614 0.19372 0.0
H682 H 0.39854 0.23142 0.25267 0.0
H683 H 0.42507 0.29569 0.29326 0.0
H684 H 0.37395 0.37919 0.16865 0.0
H685 H 0.33981 0.4247 0.17174 0.0
H686 H 0.31754 0.37266 0.16085 0.0
H687 H 0.26752 0.38309 0.22617 0.0
H688 H 0.28981 0.43548 0.23616 0.0
H689 H 0.28979 0.39848 0.2782 0.0
H690 H 0.45158 0.36763 0.31293 0.0
H691 H 0.47979 0.44046 0.3035 0.0
H692 H 0.37014 0.46962 0.22862 0.0
C693 C 0.32752 0.30323 0.21716 0.0
C694 C 0.34763 0.26409 0.22176 0.0
C695 C 0.38211 0.2612 0.25013 0.0
C696 C 0.3971 0.29747 0.27338 0.0
C697 C 0.37775 0.33635 0.26695 0.0
C698 C 0.34379 0.33951 0.2391 0.0
C699 C 0.33664 0.38522 0.22798 0.0
C700 C 0.34238 0.39073 0.17949 0.0
C701 C 0.29329 0.40138 0.24311 0.0
C702 C 0.37178 0.40711 0.25355 0.0
C703 C 0.39469 0.37868 0.27658 0.0
C704 C 0.43285 0.39053 0.29668 0.0
C705 C 0.44861 0.43184 0.2916 0.0
C706 C 0.42611 0.46043 0.26701 0.0
C707 C 0.38656 0.44859 0.24935 0.0
H708 H 0.98501 0.96667 0.22774 0.0
H709 H 0.04398 0.90043 0.11932 0.0
H710 H 0.97391 0.89445 0.08276 0.0
H711 H 0.89436 0.89749 0.22607 0.0
H712 H 0.85888 0.93853 0.24531 0.0
H713 H 0.91412 0.9416 0.25951 0.0
H714 H 0.91866 0.0167 0.22872 0.0
H715 H 0.8636 0.0132 0.21334 0.0
H716 H 0.90357 0.02365 0.17396 0.0
H717 H 0.89846 0.89817 0.05788 0.0
H718 H 0.82073 0.88998 0.05453 0.0
H719 H 0.81039 0.94539 0.18341 0.0
C720 C 0.98311 0.95143 0.19599 0.0
C721 C 0.01955 0.93501 0.17547 0.0
C722 C 0.01616 0.91369 0.13492 0.0
C723 C 0.97678 0.91065 0.11392 0.0
C724 C 0.94146 0.9283 0.13458 0.0
C725 C 0.94406 0.9469 0.17536 0.0
C726 C 0.90072 0.95749 0.19329 0.0
C727 C 0.89149 0.93226 0.23338 0.0
C728 C 0.89641 0.00562 0.20286 0.0
C729 C 0.8731 0.94236 0.15595 0.0
C730 C 0.89738 0.92689 0.12194 0.0
C731 C 0.87912 0.91012 0.08425 0.0
C732 C 0.83493 0.90629 0.08237 0.0
C733 C 0.8098 0.91785 0.11847 0.0
C734 C 0.82895 0.93765 0.15504 0.0
H735 H 0.33652 0.77992 0.52579 0.0
H736 H 0.21479 0.78085 0.46109 0.0
H737 H 0.24322 0.73416 0.40264 0.0
H738 H 0.40021 0.78833 0.43551 0.0
H739 H 0.44028 0.75398 0.45567 0.0
H740 H 0.40679 0.7832 0.49232 0.0
H741 H 0.38776 0.70993 0.52489 0.0
H742 H 0.41981 0.6824 0.48504 0.0
H743 H 0.36467 0.66807 0.49076 0.0
H744 H 0.28648 0.69235 0.34841 0.0
H745 H 0.34278 0.66496 0.29987 0.0
H746 H 0.43634 0.69299 0.39942 0.0
C747 C 0.31561 0.76959 0.49976 0.0
C748 C 0.27348 0.78395 0.49797 0.0
C749 C 0.24721 0.77016 0.46312 0.0
C750 C 0.26297 0.74342 0.4299 0.0
C751 C 0.30496 0.73051 0.43217 0.0
C752 C 0.3309 0.74308 0.46626 0.0
C753 C 0.37584 0.72808 0.4592 0.0
C754 C 0.40757 0.76569 0.46067 0.0
C755 C 0.38769 0.69515 0.49191 0.0
C756 C 0.37167 0.70757 0.4146 0.0
C757 C 0.33031 0.70796 0.40014 0.0
C758 C 0.31903 0.69185 0.35935 0.0
C759 C 0.35116 0.67639 0.33199 0.0
C760 C 0.39407 0.67813 0.34531 0.0
C761 C 0.40399 0.6925 0.38775 0.0
H762 H 0.51632 0.95592 0.71683 0.0
H763 H 0.46176 0.04764 0.63423 0.0
H764 H 0.53117 0.05559 0.59808 0.0
H765 H 0.61001 0.01444 0.73482 0.0
H766 H 0.64341 0.9687 0.73853 0.0
H767 H 0.58819 0.96487 0.75212 0.0
H768 H 0.57836 0.90136 0.6963 0.0
H769 H 0.63412 0.90521 0.68424 0.0
H770 H 0.59561 0.90729 0.64196 0.0
H771 H 0.60727 0.05777 0.57523 0.0
H772 H 0.68539 0.06319 0.57501 0.0
H773 H 0.69126 0.97355 0.67584 0.0
C774 C 0.51876 0.97673 0.69028 0.0
C775 C 0.48363 0.00045 0.67741 0.0
C776 C 0.48829 0.02877 0.6439 0.0
C777 C 0.52749 0.0334 0.62327 0.0
C778 C 0.56177 0.01 0.63717 0.0
C779 C 0.55788 0.98259 0.67028 0.0
C780 C 0.60058 0.96562 0.68308 0.0
C781 C 0.61116 0.97925 0.72988 0.0
C782 C 0.60222 0.917 0.67593 0.0
C783 C 0.62917 0.98783 0.65201 0.0
C784 C 0.60606 0.01254 0.6252 0.0
C785 C 0.62571 0.03828 0.59578 0.0
C786 C 0.67012 0.04069 0.59541 0.0
C787 C 0.69423 0.01827 0.62495 0.0
C788 C 0.6735 0.99012 0.65222 0.0
H789 H 0.28575 0.23374 0.96572 0.0
H790 H 0.30844 0.32727 0.06921 0.0
H791 H 0.29381 0.38509 0.02057 0.0
H792 H 0.32078 0.30103 0.87264 0.0
H793 H 0.27737 0.28049 0.83994 0.0
H794 H 0.30156 0.24742 0.87849 0.0
H795 H 0.22826 0.23468 0.91286 0.0
H796 H 0.20355 0.26779 0.87515 0.0
H797 H 0.19765 0.27976 0.93169 0.0
H798 H 0.26381 0.43132 0.96606 0.0
H799 H 0.21233 0.45947 0.91542 0.0
H800 H 0.20608 0.33712 0.8471 0.0
C801 C 0.28936 0.26654 0.97737 0.0
C802 C 0.29911 0.27634 0.02075 0.0
C803 C 0.30159 0.31936 0.0358 0.0
C804 C 0.29367 0.35236 0.00829 0.0
C805 C 0.28286 0.34186 0.96579 0.0
C806 C 0.28048 0.29987 0.95042 0.0
C807 C 0.2601 0.29657 0.90641 0.0
C808 C 0.29186 0.28043 0.87235 0.0
C809 C 0.22003 0.26803 0.90654 0.0
C810 C 0.2493 0.34282 0.90048 0.0
C811 C 0.26407 0.36871 0.93438 0.0
C812 C 0.25309 0.4116 0.93881 0.0
C813 C 0.22414 0.42764 0.90963 0.0
C814 C 0.20613 0.40075 0.8769 0.0
C815 C 0.22086 0.35866 0.87086 0.0
H816 H 0.43005 0.05323 0.17642 0.0
H817 H 0.35775 0.04759 0.0582 0.0
H818 H 0.38735 0.97717 0.03937 0.0
H819 H 0.52608 -0.00093 0.13257 0.0
H820 H 0.53456 0.97068 0.18052 0.0
H821 H 0.5103 0.02226 0.18382 0.0
H822 H 0.44568 0.99089 0.22297 0.0
H823 H 0.46974 0.9393 0.22013 0.0
H824 H 0.41728 0.9459 0.19867 0.0
H825 H 0.42296 0.90701 0.03346 0.0
H826 H 0.45605 0.83775 0.04537 0.0
H827 H 0.50523 0.8873 0.16725 0.0
C828 C 0.42168 0.03769 0.1459 0.0
C829 C 0.39227 0.0562 0.11832 0.0
C830 C 0.38112 0.03455 0.07919 0.0
C831 C 0.39794 -0.00543 0.0681 0.0
C832 C 0.42699 0.9772 0.09573 0.0
C833 C 0.43906 -0.00193 0.13375 0.0
C834 C 0.46846 0.97075 0.15907 0.0
C835 C 0.51246 0.99197 0.16427 0.0
C836 C 0.44911 0.96114 0.20278 0.0
C837 C 0.4703 0.93102 0.12968 0.0
C838 C 0.44635 0.93566 0.09322 0.0
C839 C 0.44191 0.90298 0.06181 0.0
C840 C 0.46141 0.86406 0.06841 0.0
C841 C 0.48419 0.85783 0.10648 0.0
C842 C 0.48933 0.89195 0.13715 0.0
H843 H 0.85898 0.52469 0.97435 0.0
H844 H 0.94998 0.48242 0.8783 0.0
H845 H -0.0076 0.54817 0.8926 0.0
H846 H 0.85474 0.62659 0.94777 0.0
H847 H 0.85033 0.65018 0.00122 0.0
H848 H 0.83295 0.59631 0.99031 0.0
H849 H 0.88295 0.57104 0.04961 0.0
H850 H 0.90063 0.62517 0.06065 0.0
H851 H 0.93867 0.58422 0.0479 0.0
H852 H 0.01594 0.62353 0.906 0.0
H853 H 0.01606 0.70189 0.91469 0.0
H854 H 0.91316 0.69468 0.00578 0.0
C855 C 0.88863 0.52872 0.95748 0.0
C856 C 0.90171 0.49834 0.92577 0.0
C857 C 0.93982 0.50519 0.90312 0.0
C858 C 0.96422 0.54229 0.91125 0.0
C859 C 0.9501 0.57217 0.94219 0.0
C860 C 0.91329 0.56562 0.96521 0.0
C861 C 0.90222 0.60462 0.99286 0.0
C862 C 0.85745 0.62035 0.98237 0.0
C863 C 0.90638 0.59573 0.04059 0.0
C864 C 0.93649 0.63531 0.97915 0.0
C865 C 0.96457 0.61571 0.95084 0.0
C866 C -0.00499 0.63901 0.9291 0.0
C867 C -0.00488 0.6836 0.93444 0.0
C868 C 0.96474 0.70428 0.96104 0.0
C869 C 0.93707 0.67955 0.98567 0.0
H870 H 0.81286 0.5265 0.15773 0.0
H871 H 0.77189 0.52142 0.28971 0.0
H872 H 0.72303 0.581 0.27914 0.0
H873 H 0.80917 0.64208 0.15205 0.0
H874 H 0.78833 0.64165 0.09838 0.0
H875 H 0.82267 0.5998 0.11428 0.0
H876 H 0.76858 0.54117 0.09403 0.0
H877 H 0.7341 0.58082 0.07424 0.0
H878 H 0.71493 0.54513 0.11351 0.0
H879 H 0.6685 0.63027 0.24916 0.0
H880 H 0.6188 0.66901 0.20449 0.0
H881 H 0.7043 0.65154 0.09645 0.0
C882 C 0.79423 0.53855 0.18462 0.0
C883 C 0.79579 0.5193 0.22438 0.0
C884 C 0.7711 0.53586 0.25894 0.0
C885 C 0.7433 0.56965 0.25325 0.0
C886 C 0.74157 0.5872 0.21317 0.0
C887 C 0.76721 0.57285 0.17977 0.0
C888 C 0.75798 0.59548 0.13928 0.0
C889 C 0.79678 0.62134 0.12517 0.0
C890 C 0.743 0.56376 0.10318 0.0
C891 C 0.72224 0.62389 0.15475 0.0
C892 C 0.71265 0.61829 0.19722 0.0
C893 C 0.67637 0.63584 0.21619 0.0
C894 C 0.6484 0.65818 0.19059 0.0
C895 C 0.65711 0.663 0.14659 0.0
C896 C 0.69599 0.64784 0.12965 0.0
H897 H 0.63496 0.5503 0.3724 0.0
H898 H 0.59359 0.58179 0.50213 0.0
H899 H 0.53555 0.52929 0.49369 0.0
H900 H 0.52326 0.51945 0.32683 0.0
H901 H 0.54722 0.47795 0.29368 0.0
H902 H 0.57609 0.52666 0.30631 0.0
H903 H 0.63745 0.48095 0.33504 0.0
H904 H 0.60719 0.433 0.32432 0.0
H905 H 0.62663 0.44566 0.37766 0.0
H906 H 0.49406 0.46464 0.47819 0.0
H907 H 0.47315 0.39042 0.45938 0.0
H908 H 0.5387 0.39985 0.33806 0.0
C909 C 0.61259 0.54727 0.39835 0.0
C910 C 0.61871 0.5702 0.4378 0.0
C911 C 0.58956 0.56457 0.47156 0.0
C912 C 0.55615 0.53509 0.46697 0.0
C913 C 0.55202 0.5115 0.42841 0.0
C914 C 0.57919 0.51748 0.39443 0.0
C915 C 0.57207 0.48347 0.35914 0.0
C916 C 0.55352 0.50303 0.31914 0.0
C917 C 0.61327 0.45937 0.34848 0.0
C918 C 0.53963 0.45537 0.38041 0.0
C919 C 0.52735 0.473 0.41953 0.0
C920 C 0.50203 0.45064 0.44738 0.0
C921 C 0.49031 0.40846 0.4362 0.0
C922 C 0.50444 0.38883 0.39731 0.0
C923 C 0.52772 0.41356 0.36837 0.0
H924 H 0.22045 0.78784 0.16124 0.0
H925 H 0.23391 0.78315 0.29883 0.0
H926 H 0.30057 0.7444 0.28903 0.0
H927 H 0.27636 0.67974 0.13484 0.0
H928 H 0.30038 0.70117 0.08806 0.0
H929 H 0.24802 0.71749 0.10436 0.0
H930 H 0.27185 0.79645 0.10687 0.0
H931 H 0.32376 0.78096 0.08983 0.0
H932 H 0.31741 0.81295 0.13868 0.0
H933 H 0.37362 0.72872 0.26617 0.0
H934 H 0.44363 0.73041 0.23126 0.0
H935 H 0.38265 0.73932 0.10839 0.0
C936 C 0.23634 0.77662 0.18919 0.0
C937 C 0.222 0.7885 0.2307 0.0
C938 C 0.24396 0.77401 0.26664 0.0
C939 C 0.28188 0.75166 0.26141 0.0
C940 C 0.29665 0.74255 0.22006 0.0
C941 C 0.27384 0.75346 0.18442 0.0
C942 C 0.2993 0.7457 0.14385 0.0
C943 C 0.27986 0.70882 0.11616 0.0
C944 C 0.30333 0.78643 0.1184 0.0
C945 C 0.34141 0.73317 0.16261 0.0
C946 C 0.33901 0.7304 0.20658 0.0
C947 C 0.3755 0.72761 0.23168 0.0
C948 C 0.41526 0.72877 0.21167 0.0
C949 C 0.41806 0.73346 0.16715 0.0
C950 C 0.38081 0.73363 0.14224 0.0
H951 H 0.11577 -0.00204 0.49695 0.0
H952 H 0.09407 0.9418 0.61911 0.0
H953 H 0.03932 -0.00478 0.63626 0.0
H954 H 0.11928 0.09733 0.53526 0.0
H955 H 0.09443 0.12147 0.49063 0.0
H956 H 0.12091 0.07179 0.48245 0.0
H957 H 0.05066 0.0341 0.45172 0.0
H958 H 0.02918 0.08674 0.45594 0.0
H959 H 0.00193 0.04382 0.48046 0.0
H960 H 0.00032 0.06217 0.64712 0.0
H961 H 0.98886 0.13958 0.65474 0.0
H962 H 0.03654 0.15438 0.52678 0.0
C963 C 0.09834 -0.00408 0.52661 0.0
C964 C 0.10874 0.96544 0.55645 0.0
C965 C 0.0862 0.96457 0.59552 0.0
C966 C 0.0549 -0.00529 0.60542 0.0
C967 C 0.04658 0.02554 0.57593 0.0
C968 C 0.06765 0.02623 0.5372 0.0
C969 C 0.05918 0.06675 0.51461 0.0
C970 C 0.10091 0.09072 0.50528 0.0
C971 C 0.03371 0.05722 0.47329 0.0
C972 C 0.03271 0.09032 0.54819 0.0
C973 C 0.02408 0.06517 0.58246 0.0
C974 C 0.00573 0.08182 0.6201 0.0
C975 C -0.00097 0.12574 0.62413 0.0
C976 C 0.011 0.15222 0.59084 0.0
C977 C 0.02561 0.13412 0.55169 0.0
H978 H 0.77268 0.31571 0.33567 0.0
H979 H 0.74877 0.30509 0.19918 0.0
H980 H 0.67994 0.26955 0.21251 0.0
H981 H 0.71695 0.2133 0.364 0.0
H982 H 0.69683 0.23804 0.41287 0.0
H983 H 0.74753 0.25446 0.39222 0.0
H984 H 0.72237 0.33275 0.39244 0.0
H985 H 0.67227 0.31661 0.41372 0.0
H986 H 0.67405 0.34476 0.36484 0.0
H987 H 0.61011 0.24589 0.24076 0.0
H988 H 0.5429 0.24642 0.28147 0.0
H989 H 0.61282 0.26983 0.39929 0.0
C990 C 0.7536 0.30444 0.30855 0.0
C991 C 0.76615 0.31241 0.26642 0.0
C992 C 0.74002 0.29838 0.23169 0.0
C993 C 0.70102 0.27796 0.23897 0.0
C994 C 0.68941 0.27049 0.28101 0.0
C995 C 0.71506 0.28337 0.31525 0.0
C996 C 0.69285 0.27779 0.35747 0.0
C997 C 0.71485 0.24387 0.38314 0.0
C998 C 0.69021 0.3205 0.38358 0.0
C999 C 0.64972 0.2623 0.34169 0.0
C1000 C 0.64868 0.25693 0.2975 0.0
C1001 C 0.61076 0.24866 0.27537 0.0
C1002 C 0.57273 0.2486 0.2987 0.0
C1003 C 0.57317 0.2571 0.34344 0.0
C1004 C 0.61217 0.26156 0.36528 0.0
H1005 H 0.70376 0.67245 0.86907 0.0
H1006 H 0.70463 0.73741 0.74994 0.0
H1007 H 0.75035 0.79407 0.78363 0.0
H1008 H 0.71004 0.76561 0.94763 0.0
H1009 H 0.74585 0.7375 0.98033 0.0
H1010 H 0.70582 0.70874 0.9491 0.0
H1011 H 0.7649 0.66212 0.91448 0.0
H1012 H 0.80423 0.69172 0.94513 0.0
H1013 H 0.80836 0.68742 0.88766 0.0
H1014 H 0.80846 0.83209 0.82404 0.0
H1015 H 0.874 0.84543 0.86524 0.0
H1016 H 0.82693 0.76416 0.96346 0.0
C1017 C 0.71187 0.69946 0.85054 0.0
C1018 C 0.70036 0.70076 0.80711 0.0
C1019 C 0.71312 0.73588 0.78338 0.0
C1020 C 0.73881 0.76828 0.80237 0.0
C1021 C 0.75043 0.76543 0.84525 0.0
C1022 C 0.73692 0.73196 0.86913 0.0
C1023 C 0.75942 0.73163 0.91175 0.0
C1024 C 0.7284 0.73614 0.9494 0.0
C1025 C 0.78577 0.69085 0.91485 0.0
C1026 C 0.78762 0.77052 0.90847 0.0
C1027 C 0.78243 0.78938 0.8697 0.0
C1028 C 0.8119 0.8188 0.85514 0.0
C1029 C 0.84907 0.82652 0.87907 0.0
C1030 C 0.85594 0.8053 0.91741 0.0
C1031 C 0.82278 0.78053 0.93407 0.0
H1032 H 0.45537 0.88717 0.49358 0.0
H1033 H 0.54298 0.93077 0.59334 0.0
H1034 H 0.57587 0.98027 0.54412 0.0
H1035 H 0.52371 0.88229 0.41298 0.0
H1036 H 0.49203 0.90241 0.37076 0.0
H1037 H 0.46649 0.8784 0.41508 0.0
H1038 H 0.42354 0.94654 0.43433 0.0
H1039 H 0.44632 0.96775 0.38673 0.0
H1040 H 0.45162 -0.00303 0.43713 0.0
H1041 H 0.60605 0.01793 0.48348 0.0
H1042 H 0.63405 0.03656 0.41269 0.0
H1043 H 0.5299 0.96742 0.35041 0.0
C1044 C 0.48009 0.90868 0.50568 0.0
C1045 C 0.49602 0.9057 0.5479 0.0
C1046 C 0.52964 0.93312 0.56175 0.0
C1047 C 0.54843 0.96157 0.53406 0.0
C1048 C 0.53302 0.963 0.4925 0.0
C1049 C 0.49927 0.93763 0.47824 0.0
C1050 C 0.49259 0.94184 0.43038 0.0
C1051 C 0.49381 0.89858 0.40585 0.0
C1052 C 0.45095 0.96457 0.42166 0.0
C1053 C 0.53029 0.96987 0.41965 0.0
C1054 C 0.55197 0.98337 0.4563 0.0
C1055 C 0.58889 0.00818 0.45461 0.0
C1056 C 0.60457 0.01869 0.41439 0.0
C1057 C 0.58377 0.00382 0.37648 0.0
C1058 C 0.54584 0.97969 0.37916 0.0
H1059 H 0.4626 0.26714 0.7157 0.0
H1060 H 0.35126 0.28804 0.7941 0.0
H1061 H 0.30688 0.28992 0.72856 0.0
H1062 H 0.44172 0.33764 0.64275 0.0
H1063 H 0.46221 0.30743 0.59714 0.0
H1064 H 0.48182 0.29816 0.6496 0.0
H1065 H 0.46191 0.21849 0.63857 0.0
H1066 H 0.44086 0.2273 0.58617 0.0
H1067 H 0.40815 0.20289 0.62579 0.0
H1068 H 0.2803 0.30919 0.65608 0.0
H1069 H 0.27311 0.3384 0.58435 0.0
H1070 H 0.40048 0.29871 0.55309 0.0
C1071 C 0.42857 0.27043 0.71887 0.0
C1072 C 0.40998 0.27733 0.75935 0.0
C1073 C 0.36567 0.28223 0.76301 0.0
C1074 C 0.34042 0.28339 0.72602 0.0
C1075 C 0.36015 0.27852 0.68611 0.0
C1076 C 0.40315 0.27099 0.6825 0.0
C1077 C 0.41796 0.27162 0.63666 0.0
C1078 C 0.45292 0.30574 0.63128 0.0
C1079 C 0.43307 0.22744 0.62082 0.0
C1080 C 0.37717 0.28332 0.61507 0.0
C1081 C 0.34399 0.28694 0.64393 0.0
C1082 C 0.30545 0.30492 0.63282 0.0
C1083 C 0.30139 0.32105 0.59193 0.0
C1084 C 0.33596 0.31961 0.56327 0.0
C1085 C 0.37322 0.2985 0.57415 0.0
H1086 H 0.02377 0.09208 0.05405 0.0
H1087 H 0.92307 0.0105 0.098 0.0
H1088 H 0.92061 0.97258 0.02641 0.0
H1089 H 0.97239 0.10746 0.9573 0.0
H1090 H 0.02046 0.11341 0.92699 0.0
H1091 H 0.02018 0.12721 0.98336 0.0
H1092 H 0.08205 0.07413 -0.0042 0.0
H1093 H 0.08261 0.06338 0.93863 0.0
H1094 H 0.07678 0.02036 0.97391 0.0
H1095 H 0.92684 0.94714 0.9481 0.0
H1096 H 0.92949 0.94692 0.86883 0.0
H1097 H 0.022 0.04994 0.87684 0.0
C1098 C 0.00218 0.06526 0.04891 0.0
C1099 C 0.9748 0.05264 0.08163 0.0
C1100 C 0.94519 0.01927 0.07345 0.0
C1101 C 0.94369 -0.00226 0.03304 0.0
C1102 C 0.9713 0.01098 0.00121 0.0
C1103 C -0.00069 0.04472 0.00862 0.0
C1104 C 0.01983 0.05838 0.9678 0.0
C1105 C 0.00745 0.10428 0.95832 0.0
C1106 C 0.06819 0.05381 0.9692 0.0
C1107 C -0.00014 0.02642 0.93622 0.0
C1108 C 0.97256 -0.00126 0.95595 0.0
C1109 C 0.9483 0.9685 0.93238 0.0
C1110 C 0.95024 0.96831 0.88746 0.0
C1111 C 0.97585 -0.00146 0.86703 0.0
C1112 C 0.00226 0.02646 0.89184 0.0
H1113 H 0.09299 0.68921 0.23689 0.0
H1114 H 0.11061 0.57395 0.30526 0.0
H1115 H 0.15276 0.54386 0.24467 0.0
H1116 H 0.07092 0.63906 0.14101 0.0
H1117 H 0.09622 0.67764 0.10829 0.0
H1118 H 0.07675 0.69369 0.16038 0.0
H1119 H 0.15158 0.72284 0.18179 0.0
H1120 H 0.17106 0.70677 0.12941 0.0
H1121 H 0.19664 0.6883 0.17654 0.0
H1122 H 0.18364 0.52266 0.17398 0.0
H1123 H 0.19218 0.50795 0.0963 0.0
H1124 H 0.1512 0.63533 0.07202 0.0
C1125 C 0.10696 0.6582 0.23971 0.0
C1126 C 0.09922 0.63411 0.27599 0.0
C1127 C 0.11655 0.59302 0.27787 0.0
C1128 C 0.14082 0.57589 0.24378 0.0
C1129 C 0.14718 0.6002 0.20803 0.0
C1130 C 0.1304 0.64038 0.20565 0.0
C1131 C 0.1356 0.65714 0.16127 0.0
C1132 C 0.09231 0.66744 0.1416 0.0
C1133 C 0.16551 0.69607 0.16232 0.0
C1134 C 0.15588 0.6192 0.13828 0.0
C1135 C 0.16371 0.58732 0.16627 0.0
C1136 C 0.17852 0.54766 0.15198 0.0
C1137 C 0.18347 0.53963 0.10789 0.0
C1138 C 0.17309 0.57088 0.07863 0.0
C1139 C 0.16068 0.61161 0.09402 0.0
H1140 H 0.49831 0.14389 0.98339 0.0
H1141 H 0.41195 0.24339 0.02477 0.0
H1142 H 0.4151 0.21904 0.09859 0.0
H1143 H 0.46323 0.06164 0.06015 0.0
H1144 H 0.51715 0.0451 0.06732 0.0
H1145 H 0.50013 0.06522 0.01692 0.0
H1146 H 0.5604 0.12111 0.02029 0.0
H1147 H 0.57775 0.10171 0.0702 0.0
H1148 H 0.56466 0.15703 0.06672 0.0
H1149 H 0.44599 0.19892 0.16885 0.0
H1150 H 0.49551 0.17984 0.22612 0.0
H1151 H 0.55261 0.08609 0.13983 0.0
C1152 C 0.47853 0.15922 0.00768 0.0
C1153 C 0.45459 0.1951 -0.00149 0.0
C1154 C 0.42985 0.21519 0.0311 0.0
C1155 C 0.43149 0.20158 0.07318 0.0
C1156 C 0.45709 0.16715 0.08176 0.0
C1157 C 0.47947 0.14574 0.04957 0.0
C1158 C 0.50925 0.11389 0.06739 0.0
C1159 C 0.49669 0.06861 0.05214 0.0
C1160 C 0.55569 0.12409 0.05547 0.0
C1161 C 0.50137 0.12144 0.11471 0.0
C1162 C 0.47151 0.15269 0.12271 0.0
C1163 C 0.46728 0.17258 0.16341 0.0
C1164 C 0.49535 0.16153 0.19592 0.0
C1165 C 0.52627 0.13022 0.18752 0.0
C1166 C 0.52739 0.10829 0.14737 0.0
H1167 H 0.11607 0.24054 0.19696 0.0
H1168 H 0.1674 0.12389 0.24303 0.0
H1169 H 0.23196 0.16276 0.26695 0.0
H1170 H 0.22523 0.29436 0.17323 0.0
H1171 H 0.20468 0.34511 0.19185 0.0
H1172 H 0.17036 0.30657 0.16439 0.0
H1173 H 0.11812 0.31043 0.22848 0.0
H1174 H 0.15192 0.3489 0.25566 0.0
H1175 H 0.13758 0.30065 0.28134 0.0
H1176 H 0.27786 0.21508 0.30537 0.0
H1177 H 0.29823 0.27445 0.35553 0.0
H1178 H 0.22066 0.3588 0.28362 0.0
C1179 C 0.14156 0.22294 0.21077 0.0
C1180 C 0.13663 0.17926 0.21806 0.0
C1181 C 0.1703 0.15743 0.23705 0.0
C1182 C 0.2073 0.1792 0.25059 0.0
C1183 C 0.21016 0.22283 0.24533 0.0
C1184 C 0.17835 0.24442 0.22526 0.0
C1185 C 0.18518 0.29204 0.23045 0.0
C1186 C 0.19711 0.31061 0.18743 0.0
C1187 C 0.14592 0.31423 0.25019 0.0
C1188 C 0.22263 0.29378 0.26085 0.0
C1189 C 0.23789 0.25367 0.26751 0.0
C1190 C 0.2672 0.24677 0.29983 0.0
C1191 C 0.27878 0.28092 0.3281 0.0
C1192 C 0.26066 0.32146 0.3239 0.0
C1193 C 0.23495 0.3282 0.28783 0.0
H1194 H 0.03921 0.77042 0.47633 0.0
H1195 H 0.9806 0.66218 0.53439 0.0
H1196 H -0.00488 0.69506 0.6063 0.0
H1197 H 0.11792 0.79862 0.56457 0.0
H1198 H 0.10982 0.85495 0.56137 0.0
H1199 H 0.10584 0.82052 0.51381 0.0
H1200 H 0.02973 0.84461 0.49783 0.0
H1201 H 0.03496 0.88201 0.54246 0.0
H1202 H -0.00923 0.84507 0.54004 0.0
H1203 H 0.00391 0.74343 0.66973 0.0
H1204 H 0.98819 0.80738 0.71482 0.0
H1205 H 0.03799 0.8866 0.61729 0.0
C1206 C 0.03054 0.75335 0.50438 0.0
C1207 C 0.00918 0.71383 0.50019 0.0
C1208 C -0.00299 0.69263 0.53721 0.0
C1209 C 0.00575 0.71077 0.57811 0.0
C1210 C 0.0264 0.75028 0.58144 0.0
C1211 C 0.03791 0.77165 0.54544 0.0
C1212 C 0.05158 0.81693 0.55716 0.0
C1213 C 0.09914 0.8231 0.54871 0.0
C1214 C 0.0251 0.84897 0.53295 0.0
C1215 C 0.04231 0.81898 0.60483 0.0
C1216 C 0.03033 0.77939 0.61865 0.0
C1217 C 0.01417 0.77434 0.65965 0.0
C1218 C 0.00586 0.81087 0.68547 0.0
C1219 C 0.0126 0.85169 0.66955 0.0
C1220 C 0.03448 0.85564 0.63062 0.0
H1221 H 0.36271 0.75619 0.73277 0.0
H1222 H 0.32868 0.6793 0.61958 0.0
H1223 H 0.27318 0.64308 0.66015 0.0
H1224 H 0.36034 0.67342 0.7963 0.0
H1225 H 0.34208 0.70153 0.84417 0.0
H1226 H 0.37001 0.72983 0.80421 0.0
H1227 H 0.30783 0.78149 0.79982 0.0
H1228 H 0.27827 0.75303 0.839 0.0
H1229 H 0.25545 0.76153 0.78736 0.0
H1230 H 0.23318 0.6046 0.71521 0.0
H1231 H 0.21606 0.56585 0.7803 0.0
H1232 H 0.27406 0.66737 0.85861 0.0
C1233 C 0.34129 0.73404 0.71592 0.0
C1234 C 0.34865 0.72179 0.67262 0.0
C1235 C 0.32233 0.69026 0.65228 0.0
C1236 C 0.29053 0.6696 0.67515 0.0
C1237 C 0.28505 0.68096 0.71843 0.0
C1238 C 0.30971 0.71267 0.73864 0.0
C1239 C 0.30422 0.71262 0.78683 0.0
C1240 C 0.34665 0.7038 0.80914 0.0
C1241 C 0.28528 0.75464 0.80429 0.0
C1242 C 0.27324 0.67568 0.79063 0.0
C1243 C 0.26231 0.65791 0.75081 0.0
C1244 C 0.24021 0.61911 0.7465 0.0
C1245 C 0.23026 0.59736 0.78359 0.0
C1246 C 0.24204 0.61463 0.82441 0.0
C1247 C 0.2626 0.65481 0.82784 0.0
H1248 H 0.51347 0.52714 0.81604 0.0
H1249 H 0.54261 0.64139 0.89316 0.0
H1250 H 0.48446 0.62468 0.94248 0.0
H1251 H 0.41279 0.54032 0.81026 0.0
H1252 H 0.39492 0.48585 0.81331 0.0
H1253 H 0.44736 0.49699 0.79489 0.0
H1254 H 0.47787 0.45053 0.85334 0.0
H1255 H 0.42536 0.4399 0.87346 0.0
H1256 H 0.46571 0.46262 0.90875 0.0
H1257 H 0.41421 0.60787 0.97024 0.0
H1258 H 0.33668 0.597 0.96958 0.0
H1259 H 0.34908 0.49591 0.87231 0.0
C1260 C 0.50856 0.54741 0.84448 0.0
C1261 C 0.53216 0.58537 0.85115 0.0
C1262 C 0.52452 0.61222 0.88764 0.0
C1263 C 0.49193 0.60261 0.91608 0.0
C1264 C 0.46714 0.56621 0.90724 0.0
C1265 C 0.47529 0.53878 0.87236 0.0
C1266 C 0.43918 0.50725 0.86445 0.0
C1267 C 0.4226 0.50774 0.81803 0.0
C1268 C 0.45282 0.46239 0.87566 0.0
C1269 C 0.40725 0.52478 0.89651 0.0
C1270 C 0.4249 0.55711 0.92262 0.0
C1271 C 0.4003 0.58193 0.95087 0.0
C1272 C 0.35633 0.57543 0.95052 0.0
C1273 C 0.33761 0.54523 0.9213 0.0
C1274 C 0.36332 0.51817 0.89572 0.0
H1275 H 0.70815 0.28163 0.00715 0.0
H1276 H 0.82217 0.32183 0.07616 0.0
H1277 H 0.80399 0.27279 0.13342 0.0
H1278 H 0.64162 0.27454 0.09786 0.0
H1279 H 0.61254 0.22872 0.07637 0.0
H1280 H 0.63605 0.26558 0.04076 0.0
H1281 H 0.6767 0.20364 0.00242 0.0
H1282 H 0.65347 0.16671 0.03827 0.0
H1283 H 0.71031 0.17061 0.03324 0.0
H1284 H 0.77092 0.21852 0.18466 0.0
H1285 H 0.72281 0.17316 0.22665 0.0
H1286 H 0.63402 0.16712 0.12047 0.0
C1287 C 0.72947 0.28013 0.03419 0.0
C1288 C 0.76661 0.30568 0.03705 0.0
C1289 C 0.79349 0.30264 0.07318 0.0
C1290 C 0.78353 0.27465 0.10578 0.0
C1291 C 0.74673 0.24963 0.10171 0.0
C1292 C 0.72012 0.25239 0.06675 0.0
C1293 C 0.6816 0.22368 0.07031 0.0
C1294 C 0.64055 0.24969 0.0714 0.0
C1295 C 0.68049 0.18911 0.0339 0.0
C1296 C 0.69017 0.20479 0.11301 0.0
C1297 C 0.72797 0.21952 0.13073 0.0
C1298 C 0.74118 0.207 0.17096 0.0
C1299 C 0.71384 0.18092 0.19454 0.0
C1300 C 0.67399 0.16743 0.17755 0.0
C1301 C 0.66345 0.17806 0.13534 0.0
H1302 H 0.98446 0.33532 0.36437 0.0
H1303 H 0.96682 0.46698 0.33384 0.0
H1304 H 0.03028 0.48764 0.37588 0.0
H1305 H 0.04323 0.35697 0.47625 0.0
H1306 H 0.0726 0.31017 0.46142 0.0
H1307 H 0.01797 0.31439 0.44509 0.0
H1308 H 0.04844 0.2961 0.36708 0.0
H1309 H 0.102 0.29914 0.38603 0.0
H1310 H 0.08533 0.33327 0.34464 0.0
H1311 H 0.10424 0.49108 0.40158 0.0
H1312 H 0.18064 0.476 0.40955 0.0
H1313 H 0.15046 0.34355 0.42679 0.0
C1314 C -0.0071 0.36874 0.36815 0.0
C1315 C 0.97083 0.39941 0.34565 0.0
C1316 C 0.98321 0.44279 0.35076 0.0
C1317 C 0.01913 0.45496 0.37491 0.0
C1318 C 0.04185 0.42356 0.39459 0.0
C1319 C 0.0287 0.38132 0.39224 0.0
C1320 C 0.0625 0.35265 0.40895 0.0
C1321 C 0.04818 0.33233 0.45034 0.0
C1322 C 0.07531 0.31836 0.37462 0.0
C1323 C 0.09776 0.38484 0.4179 0.0
C1324 C 0.08503 0.42578 0.41049 0.0
C1325 C 0.1142 0.45955 0.40929 0.0
C1326 C 0.15748 0.4509 0.41409 0.0
C1327 C 0.17078 0.40891 0.41981 0.0
C1328 C 0.14048 0.37614 0.42403 0.0
H1329 H 0.76575 0.73668 0.55363 0.0
H1330 H 0.80437 0.79244 0.43558 0.0
H1331 H 0.82637 0.85842 0.47597 0.0
H1332 H 0.73475 0.83836 0.6154 0.0
H1333 H 0.75818 0.82063 0.66395 0.0
H1334 H 0.73507 0.78245 0.62564 0.0
H1335 H 0.80598 0.74138 0.62137 0.0
H1336 H 0.82854 0.77888 0.66017 0.0
H1337 H 0.85418 0.76974 0.60913 0.0
H1338 H 0.85396 0.91274 0.52817 0.0
H1339 H 0.89653 0.94455 0.58782 0.0
H1340 H 0.84457 0.85365 0.67297 0.0
C1341 C 0.77762 0.76345 0.53643 0.0
C1342 C 0.78287 0.76013 0.49167 0.0
C1343 C 0.79996 0.7948 0.46996 0.0
C1344 C 0.812 0.8325 0.49258 0.0
C1345 C 0.80712 0.83479 0.53694 0.0
C1346 C 0.79093 0.80091 0.55877 0.0
C1347 C 0.79668 0.80823 0.60668 0.0
C1348 C 0.7536 0.81269 0.62924 0.0
C1349 C 0.82293 0.77247 0.62539 0.0
C1350 C 0.82076 0.85029 0.60819 0.0
C1351 C 0.82475 0.86595 0.56772 0.0
C1352 C 0.84992 0.90156 0.56015 0.0
C1353 C 0.8736 0.91998 0.59419 0.0
C1354 C 0.87234 0.90267 0.6349 0.0
C1355 C 0.84427 0.86861 0.64247 0.0
H1356 H 0.56283 0.5189 0.64331 0.0
H1357 H 0.5243 0.6431 0.60445 0.0
H1358 H 0.47226 0.60895 0.55403 0.0
H1359 H 0.55086 0.46344 0.53706 0.0
H1360 H 0.53145 0.41544 0.55995 0.0
H1361 H 0.56873 0.44952 0.58923 0.0
H1362 H 0.51746 0.45503 0.65359 0.0
H1363 H 0.47974 0.42106 0.62508 0.0
H1364 H 0.46407 0.47293 0.6457 0.0
H1365 H 0.4178 0.55999 0.51483 0.0
H1366 H 0.36944 0.50181 0.48891 0.0
H1367 H 0.44934 0.41081 0.55006 0.0
C1368 C 0.54434 0.53903 0.62342 0.0
C1369 C 0.54692 0.58374 0.62842 0.0
C1370 C 0.5219 0.60881 0.60192 0.0
C1371 C 0.49251 0.58966 0.57301 0.0
C1372 C 0.48908 0.54539 0.57071 0.0
C1373 C 0.51507 0.52046 0.5946 0.0
C1374 C 0.50399 0.47381 0.58825 0.0
C1375 C 0.54093 0.44911 0.56735 0.0
C1376 C 0.49051 0.45463 0.63067 0.0
C1377 C 0.46691 0.47636 0.55805 0.0
C1378 C 0.45871 0.51768 0.54791 0.0
C1379 C 0.42436 0.52742 0.52208 0.0
C1380 C 0.39725 0.49406 0.50713 0.0
C1381 C 0.40496 0.45151 0.51779 0.0
C1382 C 0.44129 0.44291 0.54235 0.0
H1383 H 0.91312 0.28452 0.87232 0.0
H1384 H 0.802 0.2937 0.79225 0.0
H1385 H 0.82581 0.23141 0.74739 0.0
H1386 H 0.98834 0.24823 0.7863 0.0
H1387 H 0.01432 0.21311 0.82164 0.0
H1388 H -0.00871 0.26181 0.84287 0.0
H1389 H 0.94584 0.21891 0.89582 0.0
H1390 H 0.96852 0.17004 0.87492 0.0
H1391 H 0.91192 0.17637 0.87501 0.0
H1392 H 0.85465 0.15964 0.72207 0.0
H1393 H 0.88627 0.08794 0.71762 0.0
H1394 H 0.98462 0.13225 0.80647 0.0
C1395 C 0.89434 0.27419 0.84466 0.0
C1396 C 0.85525 0.2933 0.83602 0.0
C1397 C 0.83155 0.2787 0.7997 0.0
C1398 C 0.84511 0.24374 0.77388 0.0
C1399 C 0.88317 0.22453 0.78419 0.0
C1400 C 0.9078 0.23987 0.8183 0.0
C1401 C 0.94505 0.2114 0.82557 0.0
C1402 C 0.98726 0.23505 0.81867 0.0
C1403 C 0.94272 0.19315 0.87046 0.0
C1404 C 0.93718 0.17706 0.79094 0.0
C1405 C 0.90119 0.18482 0.76747 0.0
C1406 C 0.88359 0.15371 0.73923 0.0
C1407 C 0.902 0.11311 0.7366 0.0
C1408 C 0.93789 0.10426 0.76182 0.0
C1409 C 0.95707 0.13777 0.7869 0.0
H1410 H 0.9362 0.43489 0.11179 0.0
H1411 H 0.00336 0.31679 0.12503 0.0
H1412 H 0.04994 0.3345 0.0646 0.0
H1413 H 0.94442 0.44134 0.9948 0.0
H1414 H 0.95549 0.49766 -0.00119 0.0
H1415 H 0.92182 0.47386 0.03791 0.0
H1416 H 0.96996 0.50456 0.09894 0.0
H1417 H 0.00137 0.53061 0.05993 0.0
H1418 H 0.02631 0.49573 0.09624 0.0
H1419 H 0.09551 0.37062 0.00972 0.0
H1420 H 0.13973 0.42448 0.97509 0.0
H1421 H 0.04073 0.5169 -0.00494 0.0
C1422 C 0.96006 0.4122 0.10146 0.0
C1423 C 0.96565 0.37418 0.12282 0.0
C1424 C -0.00194 0.34595 0.10886 0.0
C1425 C 0.0246 0.35567 0.0744 0.0
C1426 C 0.01807 0.39351 0.05392 0.0
C1427 C 0.98674 0.4214 0.06737 0.0
C1428 C 0.98976 0.46255 0.04467 0.0
C1429 C 0.95031 0.46906 0.01745 0.0
C1430 C -0.00267 0.50055 0.07685 0.0
C1431 C 0.02808 0.45418 0.01671 0.0
C1432 C 0.04382 0.41391 0.02192 0.0
C1433 C 0.08275 0.40164 0.00438 0.0
C1434 C 0.10746 0.43224 0.98402 0.0
C1435 C 0.09309 0.47447 0.98169 0.0
C1436 C 0.05159 0.48436 -0.00491 0.0
H1437 H 0.66211 0.73671 0.29495 0.0
H1438 H 0.79799 0.75627 0.30391 0.0
H1439 H 0.79161 0.82392 0.26792 0.0
H1440 H 0.64292 0.79947 0.19107 0.0
H1441 H 0.59439 0.81822 0.21481 0.0
H1442 H 0.61314 0.76591 0.2258 0.0
H1443 H 0.60976 0.78764 0.30793 0.0
H1444 H 0.59075 0.83859 0.29438 0.0
H1445 H 0.63756 0.83492 0.32726 0.0
H1446 H 0.76899 0.89702 0.25162 0.0
H1447 H 0.73231 0.96609 0.25872 0.0
H1448 H 0.6113 0.90012 0.25794 0.0
C1449 C 0.69062 0.75442 0.28751 0.0
C1450 C 0.73049 0.74101 0.30174 0.0
C1451 C 0.76712 0.76548 0.29263 0.0
C1452 C 0.76379 0.80407 0.27209 0.0
C1453 C 0.72365 0.81767 0.26039 0.0
C1454 C 0.68772 0.79307 0.26708 0.0
C1455 C 0.64786 0.81792 0.25944 0.0
C1456 C 0.62318 0.79923 0.22044 0.0
C1457 C 0.61982 0.81996 0.29963 0.0
C1458 C 0.66664 0.86112 0.25088 0.0
C1459 C 0.7105 0.86024 0.25019 0.0
C1460 C 0.7347 0.89784 0.25074 0.0
C1461 C 0.71369 0.93701 0.25472 0.0
C1462 C 0.66908 0.93806 0.25859 0.0
C1463 C 0.64542 0.89986 0.25409 0.0
H1464 H 0.77264 0.49339 0.45684 0.0
H1465 H 0.87596 0.55637 0.39359 0.0
H1466 H 0.92137 0.49361 0.4037 0.0
H1467 H 0.8232 0.45788 0.53643 0.0
H1468 H 0.79743 0.40668 0.53977 0.0
H1469 H 0.77038 0.44893 0.5154 0.0
H1470 H 0.76004 0.40188 0.44576 0.0
H1471 H 0.78701 0.35898 0.47021 0.0
H1472 H 0.80533 0.37776 0.4198 0.0
H1473 H 0.96041 0.43799 0.44436 0.0
H1474 H 0.98507 0.39255 0.50148 0.0
H1475 H 0.85518 0.35972 0.5304 0.0
C1476 C 0.80435 0.49306 0.44356 0.0
C1477 C 0.82115 0.52949 0.42486 0.0
C1478 C 0.86263 0.52851 0.40789 0.0
C1479 C 0.88851 0.49296 0.41348 0.0
C1480 C 0.87201 0.45863 0.43532 0.0
C1481 C 0.83012 0.45781 0.44849 0.0
C1482 C 0.82085 0.42016 0.47549 0.0
C1483 C 0.80192 0.43431 0.51932 0.0
C1484 C 0.79159 0.38778 0.45136 0.0
C1485 C 0.865 0.40275 0.47991 0.0
C1486 C 0.89416 0.42449 0.45575 0.0
C1487 C 0.93774 0.41926 0.46152 0.0
C1488 C 0.95166 0.39307 0.49391 0.0
C1489 C 0.92209 0.37198 0.5197 0.0
C1490 C 0.87845 0.37511 0.51068 0.0
H1491 H 0.36201 0.97543 0.53157 0.0
H1492 H 0.2747 0.02515 0.62748 0.0
H1493 H 0.30676 0.0969 0.62189 0.0
H1494 H 0.44389 0.0034 0.52151 0.0
H1495 H 0.45693 0.04862 0.55663 0.0
H1496 H 0.46722 0.05061 0.50022 0.0
H1497 H 0.38055 0.00974 0.46674 0.0
H1498 H 0.40467 0.05723 0.44739 0.0
H1499 H 0.3513 0.05843 0.46757 0.0
H1500 H 0.32984 0.16325 0.58596 0.0
H1501 H 0.35407 0.21764 0.53724 0.0
H1502 H 0.43448 0.1256 0.47252 0.0
C1503 C 0.35134 0.00101 0.55316 0.0
C1504 C 0.31636 -0.00521 0.58034 0.0
C1505 C 0.30211 0.02912 0.60713 0.0
C1506 C 0.32007 0.07003 0.60397 0.0
C1507 C 0.35311 0.07566 0.57491 0.0
C1508 C 0.36944 0.04169 0.55092 0.0
C1509 C 0.40025 0.05656 0.51754 0.0
C1510 C 0.44472 0.03872 0.52437 0.0
C1511 C 0.38325 0.04477 0.47217 0.0
C1512 C 0.39932 0.10419 0.52651 0.0
C1513 C 0.37082 0.11482 0.5588 0.0
C1514 C 0.35541 0.15613 0.56407 0.0
C1515 C 0.36946 0.18708 0.5362 0.0
C1516 C 0.39884 0.17672 0.50344 0.0
C1517 C 0.41506 0.13517 0.49977 0.0
H1518 H 0.25944 0.16483 0.77042 0.0
H1519 H 0.33836 0.17261 0.6581 0.0
H1520 H 0.28424 0.21652 0.6243 0.0
H1521 H 0.16752 0.14876 0.71676 0.0
H1522 H 0.13392 0.17846 0.75357 0.0
H1523 H 0.18214 0.15605 0.77238 0.0
H1524 H 0.20729 0.23053 0.80168 0.0
H1525 H 0.15884 0.2533 0.783 0.0
H1526 H 0.20939 0.27428 0.76652 0.0
H1527 H 0.21982 0.25343 0.60008 0.0
H1528 H 0.14513 0.26777 0.58205 0.0
H1529 H 0.10671 0.23402 0.70893 0.0
C1530 C 0.26642 0.17794 0.73976 0.0
C1531 C 0.30328 0.16589 0.71681 0.0
C1532 C 0.31027 0.18169 0.67589 0.0
C1533 C 0.28001 0.20709 0.65684 0.0
C1534 C 0.24351 0.21784 0.6798 0.0
C1535 C 0.23648 0.20354 0.72038 0.0
C1536 C 0.19154 0.21287 0.73503 0.0
C1537 C 0.16739 0.17159 0.74498 0.0
C1538 C 0.19177 0.24466 0.77385 0.0
C1539 C 0.17389 0.23287 0.69562 0.0
C1540 C 0.20488 0.23693 0.66476 0.0
C1541 C 0.19549 0.25123 0.62427 0.0
C1542 C 0.15307 0.25965 0.61435 0.0
C1543 C 0.1206 0.25312 0.64453 0.0
C1544 C 0.13132 0.2408 0.686 0.0
H1545 H 0.23297 0.05976 0.06523 0.0
H1546 H 0.14814 0.09113 0.1703 0.0
H1547 H 0.09448 0.04004 0.13945 0.0
H1548 H 0.15905 0.04476 0.98239 0.0
H1549 H 0.18381 -0.00123 0.95726 0.0
H1550 H 0.21536 0.03778 0.98724 0.0
H1551 H 0.24415 0.98059 0.03562 0.0
H1552 H 0.21384 0.94047 0.00563 0.0
H1553 H 0.20768 0.9466 0.06287 0.0
H1554 H 0.04869 0.98951 0.09243 0.0
H1555 H 0.01662 0.94044 0.03686 0.0
H1556 H 0.13684 0.93506 0.96995 0.0
C1557 C 0.20286 0.05617 0.08142 0.0
C1558 C 0.19372 0.08015 0.1193 0.0
C1559 C 0.15488 0.07363 0.14067 0.0
C1560 C 0.12454 0.04456 0.12351 0.0
C1561 C 0.13457 0.02128 0.08593 0.0
C1562 C 0.17317 0.02623 0.0657 0.0
C1563 C 0.17726 -0.0038 0.02694 0.0
C1564 C 0.18423 0.02083 0.98605 0.0
C1565 C 0.21284 0.96406 0.03316 0.0
C1566 C 0.13421 0.97475 0.02737 0.0
C1567 C 0.10989 0.9896 0.06148 0.0
C1568 C 0.06774 0.97685 0.06618 0.0
C1569 C 0.04985 0.94881 0.03469 0.0
C1570 C 0.07411 0.93403 -0.00087 0.0
C1571 C 0.11727 0.94605 -0.00345 0.0
H1572 H 0.78664 0.53047 0.73466 0.0
H1573 H 0.68982 0.4361 0.75978 0.0
H1574 H 0.74285 0.379 0.74985 0.0
H1575 H 0.83452 0.47839 0.65245 0.0
H1576 H 0.8877 0.49542 0.66657 0.0
H1577 H 0.84376 0.52713 0.68393 0.0
H1578 H 0.87051 0.52285 0.76253 0.0
H1579 H 0.91382 0.48975 0.74446 0.0
H1580 H 0.87782 0.47153 0.7846 0.0
H1581 H 0.8024 0.33253 0.72161 0.0
H1582 H 0.86156 0.30251 0.6782 0.0
H1583 H 0.9195 0.42726 0.67575 0.0
C1584 C 0.77692 0.49783 0.73906 0.0
C1585 C 0.73433 0.48748 0.7476 0.0
C1586 C 0.72249 0.44455 0.75322 0.0
C1587 C 0.75243 0.41201 0.74789 0.0
C1588 C 0.79417 0.42318 0.73815 0.0
C1589 C 0.80647 0.46527 0.7346 0.0
C1590 C 0.85173 0.46905 0.71947 0.0
C1591 C 0.85452 0.49389 0.67815 0.0
C1592 C 0.88014 0.48951 0.75489 0.0
C1593 C 0.86195 0.42257 0.71153 0.0
C1594 C 0.82895 0.39634 0.72361 0.0
C1595 C 0.82907 0.35258 0.71355 0.0
C1596 C 0.86279 0.33571 0.68902 0.0
C1597 C 0.89536 0.36277 0.67457 0.0
C1598 C 0.89573 0.40607 0.68771 0.0
H1599 H 0.66137 0.45843 0.93724 0.0
H1600 H 0.73353 0.53633 0.85199 0.0
H1601 H 0.69054 0.59803 0.87393 0.0
H1602 H 0.55514 0.51734 0.92133 0.0
H1603 H 0.54125 0.51063 0.97636 0.0
H1604 H 0.57159 0.47048 0.94705 0.0
H1605 H 0.63079 0.47717 0.00616 0.0
H1606 H 0.60047 0.5171 0.03477 0.0
H1607 H 0.65404 0.52877 0.01901 0.0
H1608 H 0.6485 0.65367 0.91276 0.0
H1609 H 0.61893 0.69783 0.97253 0.0
H1610 H 0.5687 0.58487 0.0286 0.0
C1611 C 0.66662 0.48805 0.92166 0.0
C1612 C 0.70043 0.49238 0.89256 0.0
C1613 C 0.70718 0.5319 0.8736 0.0
C1614 C 0.68243 0.56719 0.88533 0.0
C1615 C 0.64948 0.56222 0.91431 0.0
C1616 C 0.6411 0.52341 0.93181 0.0
C1617 C 0.60779 0.52789 0.96649 0.0
C1618 C 0.56648 0.50517 0.95206 0.0
C1619 C 0.62426 0.51175 0.0091 0.0
C1620 C 0.60197 0.57564 0.96879 0.0
C1621 C 0.62509 0.5948 0.93731 0.0
C1622 C 0.62939 0.63898 0.93671 0.0
C1623 C 0.61191 0.664 0.97043 0.0
C1624 C 0.59036 0.64472 0.00413 0.0
C1625 C 0.58348 0.60027 0.00206 0.0
H1626 H 0.20945 0.03682 0.78115 0.0
H1627 H 0.2614 0.92099 0.72381 0.0
H1628 H 0.19208 0.88473 0.73248 0.0
H1629 H 0.1591 -0.00285 0.86023 0.0
H1630 H 0.11234 0.02953 0.86002 0.0
H1631 H 0.16053 0.04881 0.83748 0.0
H1632 H 0.12107 0.05933 0.76584 0.0
H1633 H 0.0727 0.039 0.78849 0.0
H1634 H 0.09329 0.01504 0.73949 0.0
H1635 H 0.12722 0.85637 0.76652 0.0
H1636 H 0.07537 0.84042 0.82275 0.0
H1637 H 0.06156 0.97505 0.85226 0.0
C1638 C 0.20561 0.00422 0.76899 0.0
C1639 C 0.24055 0.98149 0.75221 0.0
C1640 C 0.23484 0.93894 0.73665 0.0
C1641 C 0.19552 0.91819 0.74114 0.0
C1642 C 0.16199 0.94084 0.75981 0.0
C1643 C 0.16639 0.98343 0.77246 0.0
C1644 C 0.12808 -0.0009 0.79733 0.0
C1645 C 0.14081 0.01976 0.84134 0.0
C1646 C 0.10227 0.02994 0.77121 0.0
C1647 C 0.10413 0.95755 0.80149 0.0
C1648 C 0.1231 0.9245 0.7782 0.0
C1649 C 0.11117 0.88214 0.78362 0.0
C1650 C 0.08147 0.87328 0.81559 0.0
C1651 C 0.06446 0.90667 0.84183 0.0
C1652 C 0.07357 0.94913 0.83221 0.0
H1653 H 0.20482 0.02073 0.33324 0.0
H1654 H 0.27174 -0.00199 0.21358 0.0
H1655 H 0.31472 0.06346 0.22839 0.0
H1656 H 0.19884 0.13588 0.3294 0.0
H1657 H 0.20795 0.14509 0.38588 0.0
H1658 H 0.18182 0.09684 0.3661 0.0
H1659 H 0.23704 0.05107 0.40302 0.0
H1660 H 0.26276 0.09879 0.42431 0.0
H1661 H 0.29271 0.05999 0.39328 0.0
H1662 H 0.35601 0.12604 0.26124 0.0
H1663 H 0.39141 0.17972 0.30887 0.0
H1664 H 0.28854 0.1696 0.4002 0.0
C1665 C 0.22842 0.02989 0.31002 0.0
C1666 C 0.23579 0.00447 0.27262 0.0
C1667 C 0.26617 0.01727 0.24255 0.0
C1668 C 0.29027 0.05454 0.25051 0.0
C1669 C 0.28218 0.07928 0.28766 0.0
C1670 C 0.2516 0.06766 0.31671 0.0
C1671 C 0.25038 0.0984 0.3552 0.0
C1672 C 0.20722 0.12037 0.35932 0.0
C1673 C 0.26139 0.07571 0.39635 0.0
C1674 C 0.28525 0.12911 0.34344 0.0
C1675 C 0.30373 0.11726 0.30473 0.0
C1676 C 0.34089 0.13667 0.2908 0.0
C1677 C 0.36061 0.16766 0.31797 0.0
C1678 C 0.34279 0.17932 0.35837 0.0
C1679 C 0.30327 0.16139 0.36973 0.0
loop_
_geom_bond_atom_site_label_1
_geom_bond_atom_site_label_2
_geom_bond_distance
_geom_bond_site_symmetry_2
_ccdc_geom_bond_type
C0 O1 1.306 . S
C0 O3 1.160 . S
O1 C0 1.306 . S
O1 Cd2 2.228 . S
Cd2 O1 2.228 . S
Cd2 O6 2.273 . S
Cd2 O10 2.277 1_455 S
O3 C0 1.160 . S
O3 Cd4 2.203 1_455 S
Cd4 O3 2.203 1_655 S
Cd4 O6 2.411 1_655 S
Cd4 O7 2.333 . S
Cd4 O8 2.352 1_655 S
Cd4 O12 2.277 . S
Cd4 O13 2.356 . S
C5 O10 1.209 . S
C5 O12 1.226 . S
O6 Cd2 2.273 . S
O6 Cd4 2.411 1_455 S
O6 C9 1.320 . S
O7 Cd4 2.333 . S
O7 C9 1.214 1_655 S
O8 Cd4 2.352 1_455 S
O8 C11 1.258 1_455 S
C9 O6 1.320 . S
C9 O7 1.214 1_455 S
O10 Cd2 2.277 1_655 S
O10 C5 1.209 . S
C11 O8 1.258 1_655 S
C11 O13 1.282 . S
O12 Cd4 2.277 . S
O12 C5 1.226 . S
O13 Cd4 2.356 . S
O13 C11 1.282 . S
C14 O15 1.306 . S
C14 O17 1.160 . S
O15 C14 1.306 . S
O15 Cd16 2.228 . S
Cd16 O15 2.228 . S
Cd16 O20 2.273 . S
Cd16 O24 2.277 1_455 S
O17 C14 1.160 . S
O17 Cd18 2.203 1_455 S
Cd18 O17 2.203 1_655 S
Cd18 O20 2.411 1_655 S
Cd18 O21 2.333 . S
Cd18 O22 2.352 1_655 S
Cd18 O26 2.277 . S
Cd18 O27 2.356 . S
C19 O24 1.209 . S
C19 O26 1.226 . S
O20 Cd16 2.273 . S
O20 Cd18 2.411 1_455 S
O20 C23 1.320 . S
O21 Cd18 2.333 . S
O21 C23 1.214 1_655 S
O22 Cd18 2.352 1_455 S
O22 C25 1.258 1_455 S
C23 O20 1.320 . S
C23 O21 1.214 1_455 S
O24 Cd16 2.277 1_655 S
O24 C19 1.209 . S
C25 O22 1.258 1_655 S
C25 O27 1.282 . S
O26 Cd18 2.277 . S
O26 C19 1.226 . S
O27 Cd18 2.356 . S
O27 C25 1.282 . S
C28 O29 1.306 . S
C28 O31 1.160 . S
O29 C28 1.306 . S
O29 Cd30 2.228 . S
Cd30 O29 2.228 . S
Cd30 O34 2.273 . S
Cd30 O38 2.277 . S
O31 C28 1.160 . S
O31 Cd32 2.203 . S
Cd32 O31 2.203 . S
Cd32 O34 2.411 . S
Cd32 O35 2.333 . S
Cd32 O36 2.352 . S
Cd32 O40 2.277 . S
Cd32 O41 2.356 . S
C33 O38 1.209 . S
C33 O40 1.226 . S
O34 Cd30 2.273 . S
O34 Cd32 2.411 . S
O34 C37 1.320 . S
O35 Cd32 2.333 . S
O35 C37 1.214 . S
O36 Cd32 2.352 . S
O36 C39 1.258 . S
C37 O34 1.320 . S
C37 O35 1.214 . S
O38 Cd30 2.277 . S
O38 C33 1.209 . S
C39 O36 1.258 . S
C39 O41 1.282 . S
O40 Cd32 2.277 . S
O40 C33 1.226 . S
O41 Cd32 2.356 . S
O41 C39 1.282 . S
C42 O43 1.306 . S
C42 O45 1.160 . S
O43 C42 1.306 . S
O43 Cd44 2.228 . S
Cd44 O43 2.228 . S
Cd44 O48 2.273 . S
Cd44 O52 2.277 . S
O45 C42 1.160 . S
O45 Cd46 2.203 . S
Cd46 O45 2.203 . S
Cd46 O48 2.411 . S
Cd46 O49 2.333 . S
Cd46 O50 2.352 . S
Cd46 O54 2.277 . S
Cd46 O55 2.356 . S
C47 O52 1.209 . S
C47 O54 1.226 . S
O48 Cd44 2.273 . S
O48 Cd46 2.411 . S
O48 C51 1.320 . S
O49 Cd46 2.333 . S
O49 C51 1.214 . S
O50 Cd46 2.352 . S
O50 C53 1.258 . S
C51 O48 1.320 . S
C51 O49 1.214 . S
O52 Cd44 2.277 . S
O52 C47 1.209 . S
C53 O50 1.258 . S
C53 O55 1.282 . S
O54 Cd46 2.277 . S
O54 C47 1.226 . S
O55 Cd46 2.356 . S
O55 C53 1.282 . S
C56 O57 1.306 . S
C56 O59 1.160 1_545 S
O57 C56 1.306 . S
O57 Cd58 2.228 . S
Cd58 O57 2.228 . S
Cd58 O62 2.273 . S
Cd58 O66 2.277 . S
O59 C56 1.160 1_565 S
O59 Cd60 2.203 . S
Cd60 O59 2.203 . S
Cd60 O62 2.411 1_565 S
Cd60 O63 2.333 1_565 S
Cd60 O64 2.352 . S
Cd60 O68 2.277 . S
Cd60 O69 2.356 . S
C61 O66 1.209 . S
C61 O68 1.226 1_545 S
O62 Cd58 2.273 . S
O62 Cd60 2.411 1_545 S
O62 C65 1.320 . S
O63 Cd60 2.333 1_545 S
O63 C65 1.214 . S
O64 Cd60 2.352 . S
O64 C67 1.258 . S
C65 O62 1.320 . S
C65 O63 1.214 . S
O66 Cd58 2.277 . S
O66 C61 1.209 . S
C67 O64 1.258 . S
C67 O69 1.282 . S
O68 Cd60 2.277 . S
O68 C61 1.226 1_565 S
O69 Cd60 2.356 . S
O69 C67 1.282 . S
C70 O71 1.306 . S
C70 O73 1.160 . S
O71 C70 1.306 . S
O71 Cd72 2.228 . S
Cd72 O71 2.228 . S
Cd72 O76 2.273 . S
Cd72 O80 2.277 . S
O73 C70 1.160 . S
O73 Cd74 2.203 . S
Cd74 O73 2.203 . S
Cd74 O76 2.411 . S
Cd74 O77 2.333 . S
Cd74 O78 2.352 . S
Cd74 O82 2.277 . S
Cd74 O83 2.356 . S
C75 O80 1.209 . S
C75 O82 1.226 . S
O76 Cd72 2.273 . S
O76 Cd74 2.411 . S
O76 C79 1.320 . S
O77 Cd74 2.333 . S
O77 C79 1.214 . S
O78 Cd74 2.352 . S
O78 C81 1.258 . S
C79 O76 1.320 . S
C79 O77 1.214 . S
O80 Cd72 2.277 . S
O80 C75 1.209 . S
C81 O78 1.258 . S
C81 O83 1.282 . S
O82 Cd74 2.277 . S
O82 C75 1.226 . S
O83 Cd74 2.356 . S
O83 C81 1.282 . S
C84 O85 1.306 . S
C84 O87 1.160 1_565 S
O85 C84 1.306 . S
O85 Cd86 2.228 . S
Cd86 O85 2.228 . S
Cd86 O90 2.273 . S
Cd86 O94 2.277 . S
O87 C84 1.160 1_545 S
O87 Cd88 2.203 . S
Cd88 O87 2.203 . S
Cd88 O90 2.411 1_545 S
Cd88 O91 2.333 1_545 S
Cd88 O92 2.352 . S
Cd88 O96 2.277 . S
Cd88 O97 2.356 . S
C89 O94 1.209 1_545 S
C89 O96 1.226 . S
O90 Cd86 2.273 . S
O90 Cd88 2.411 1_565 S
O90 C93 1.320 . S
O91 Cd88 2.333 1_565 S
O91 C93 1.214 . S
O92 Cd88 2.352 . S
O92 C95 1.258 . S
C93 O90 1.320 . S
C93 O91 1.214 . S
O94 Cd86 2.277 . S
O94 C89 1.209 1_565 S
C95 O92 1.258 . S
C95 O97 1.282 . S
O96 Cd88 2.277 . S
O96 C89 1.226 . S
O97 Cd88 2.356 . S
O97 C95 1.282 . S
C98 O99 1.306 . S
C98 O101 1.160 1_554 S
O99 C98 1.306 . S
O99 Cd100 2.228 . S
Cd100 O99 2.228 . S
Cd100 O104 2.273 . S
Cd100 O108 2.277 . S
O101 C98 1.160 1_556 S
O101 Cd102 2.203 . S
Cd102 O101 2.203 . S
Cd102 O104 2.411 1_556 S
Cd102 O105 2.333 1_556 S
Cd102 O106 2.352 . S
Cd102 O110 2.277 . S
Cd102 O111 2.356 . S
C103 O108 1.209 1_556 S
C103 O110 1.226 . S
O104 Cd100 2.273 . S
O104 Cd102 2.411 1_554 S
O104 C107 1.320 . S
O105 Cd102 2.333 1_554 S
O105 C107 1.214 . S
O106 Cd102 2.352 . S
O106 C109 1.258 . S
C107 O104 1.320 . S
C107 O105 1.214 . S
O108 Cd100 2.277 . S
O108 C103 1.209 1_554 S
C109 O106 1.258 . S
C109 O111 1.282 . S
O110 Cd102 2.277 . S
O110 C103 1.226 . S
O111 Cd102 2.356 . S
O111 C109 1.282 . S
C112 O113 1.306 1_554 S
C112 O115 1.160 . S
O113 C112 1.306 1_556 S
O113 Cd114 2.228 . S
Cd114 O113 2.228 . S
Cd114 O118 2.273 . S
Cd114 O122 2.277 . S
O115 C112 1.160 . S
O115 Cd116 2.203 . S
Cd116 O115 2.203 . S
Cd116 O118 2.411 1_554 S
Cd116 O119 2.337 . S
Cd116 O120 2.352 . S
Cd116 O124 2.277 . S
Cd116 O125 2.356 . S
C117 O122 1.209 1_554 S
C117 O124 1.226 . S
O118 Cd114 2.273 . S
O118 Cd116 2.411 1_556 S
O118 C121 1.320 . S
O119 Cd116 2.337 . S
O119 C121 1.203 1_554 S
O120 Cd116 2.352 . S
O120 C123 1.258 . S
C121 O118 1.320 . S
C121 O119 1.203 1_556 S
O122 Cd114 2.277 . S
O122 C117 1.209 1_556 S
C123 O120 1.258 . S
C123 O125 1.282 . S
O124 Cd116 2.277 . S
O124 C117 1.226 . S
O125 Cd116 2.356 . S
O125 C123 1.282 . S
C126 O127 1.306 . S
C126 O129 1.160 . S
O127 C126 1.306 . S
O127 Cd128 2.228 . S
Cd128 O127 2.228 . S
Cd128 O132 2.273 . S
Cd128 O136 2.277 . S
O129 C126 1.160 . S
O129 Cd130 2.203 . S
Cd130 O129 2.203 . S
Cd130 O132 2.411 . S
Cd130 O133 2.333 . S
Cd130 O134 2.352 . S
Cd130 O138 2.277 . S
Cd130 O139 2.356 . S
C131 O136 1.209 . S
C131 O138 1.226 . S
O132 Cd128 2.273 . S
O132 Cd130 2.411 . S
O132 C135 1.320 . S
O133 Cd130 2.333 . S
O133 C135 1.214 . S
O134 Cd130 2.352 . S
O134 C137 1.258 . S
C135 O132 1.320 . S
C135 O133 1.214 . S
O136 Cd128 2.277 . S
O136 C131 1.209 . S
C137 O134 1.258 . S
C137 O139 1.282 . S
O138 Cd130 2.277 . S
O138 C131 1.226 . S
O139 Cd130 2.356 . S
O139 C137 1.282 . S
C140 O141 1.306 . S
C140 O143 1.160 . S
O141 C140 1.306 . S
O141 Cd142 2.228 . S
Cd142 O141 2.228 . S
Cd142 O146 2.273 . S
Cd142 O150 2.277 . S
O143 C140 1.160 . S
O143 Cd144 2.203 . S
Cd144 O143 2.203 . S
Cd144 O146 2.411 . S
Cd144 O147 2.333 . S
Cd144 O148 2.352 . S
Cd144 O152 2.277 . S
Cd144 O153 2.356 . S
C145 O150 1.209 . S
C145 O152 1.226 . S
O146 Cd142 2.273 . S
O146 Cd144 2.411 . S
O146 C149 1.320 . S
O147 Cd144 2.333 . S
O147 C149 1.214 . S
O148 Cd144 2.352 . S
O148 C151 1.258 . S
C149 O146 1.320 . S
C149 O147 1.214 . S
O150 Cd142 2.277 . S
O150 C145 1.209 . S
C151 O148 1.258 . S
C151 O153 1.282 . S
O152 Cd144 2.277 . S
O152 C145 1.226 . S
O153 Cd144 2.356 . S
O153 C151 1.282 . S
C154 O155 1.306 . S
C154 O157 1.160 . S
O155 C154 1.306 . S
O155 Cd156 2.228 . S
Cd156 O155 2.228 . S
Cd156 O160 2.273 . S
Cd156 O164 2.277 . S
O157 C154 1.160 . S
O157 Cd158 2.203 . S
Cd158 O157 2.203 . S
Cd158 O160 2.411 . S
Cd158 O161 2.333 . S
Cd158 O162 2.352 . S
Cd158 O166 2.277 . S
Cd158 O167 2.356 . S
C159 O164 1.209 . S
C159 O166 1.226 . S
O160 Cd156 2.273 . S
O160 Cd158 2.411 . S
O160 C163 1.320 . S
O161 Cd158 2.333 . S
O161 C163 1.214 . S
O162 Cd158 2.352 . S
O162 C165 1.258 . S
C163 O160 1.320 . S
C163 O161 1.214 . S
O164 Cd156 2.277 . S
O164 C159 1.209 . S
C165 O162 1.258 . S
C165 O167 1.282 . S
O166 Cd158 2.277 . S
O166 C159 1.226 . S
O167 Cd158 2.356 . S
O167 C165 1.282 . S
H168 C174 0.930 . S
H169 C177 0.931 . S
H170 C179 0.931 1_455 S
H171 C181 0.930 . S
H172 C183 0.930 . S
H173 C185 0.931 . S
C174 H168 0.930 . S
C174 C175 1.380 . S
C174 C176 1.394 . S
C175 C174 1.380 . S
C175 C179 1.382 . S
C176 C174 1.394 . S
C176 C177 1.400 . S
C177 H169 0.931 . S
C177 C176 1.400 . S
C177 C178 1.381 . S
C178 C177 1.381 . S
C178 C179 1.417 . S
C178 C180 1.493 1_655 S
C179 H170 0.931 1_655 S
C179 C175 1.382 . S
C179 C178 1.417 . S
C180 C178 1.493 1_455 S
C180 C181 1.384 . S
C180 C185 1.408 . S
C181 H171 0.930 . S
C181 C180 1.384 . S
C181 C182 1.389 . S
C182 C181 1.389 . S
C182 C183 1.405 . S
C183 H172 0.930 . S
C183 C182 1.405 . S
C183 C184 1.364 . S
C184 C183 1.364 . S
C184 C185 1.400 . S
C185 H173 0.931 . S
C185 C180 1.408 . S
C185 C184 1.400 . S
H186 C192 0.930 . S
H187 C195 0.931 1_455 S
H188 C197 0.931 . S
H189 C199 0.930 . S
H190 C201 0.930 . S
H191 C203 0.931 . S
C192 H186 0.930 . S
C192 C193 1.380 . S
C192 C194 1.394 1_556 S
C193 C192 1.380 . S
C193 C197 1.382 . S
C194 C192 1.394 1_554 S
C194 C195 1.400 . S
C195 H187 0.931 1_655 S
C195 C194 1.400 . S
C195 C196 1.375 1_654 S
C196 C195 1.375 1_456 S
C196 C197 1.415 1_455 S
C196 C198 1.501 . S
C197 H188 0.931 . S
C197 C193 1.382 . S
C197 C196 1.415 1_655 S
C198 C196 1.501 . S
C198 C199 1.384 . S
C198 C203 1.408 1_556 S
C199 H189 0.930 . S
C199 C198 1.384 . S
C199 C200 1.389 . S
C200 C199 1.389 . S
C200 C201 1.405 . S
C201 H190 0.930 . S
C201 C200 1.405 . S
C201 C202 1.347 1_556 S
C202 C201 1.347 1_554 S
C202 C203 1.402 . S
C203 H191 0.931 . S
C203 C198 1.408 1_554 S
C203 C202 1.402 . S
H204 C210 0.930 . S
H205 C213 0.931 . S
H206 C215 0.931 1_556 S
H207 C217 0.930 1_556 S
H208 C219 0.930 . S
H209 C221 0.931 . S
C210 H204 0.930 . S
C210 C211 1.380 . S
C210 C212 1.394 . S
C211 C210 1.380 . S
C211 C215 1.382 . S
C212 C210 1.394 . S
C212 C213 1.400 . S
C213 H205 0.931 . S
C213 C212 1.400 . S
C213 C214 1.375 . S
C214 C213 1.375 . S
C214 C215 1.415 . S
C214 C216 1.501 . S
C215 H206 0.931 1_554 S
C215 C211 1.382 . S
C215 C214 1.415 . S
C216 C214 1.501 . S
C216 C217 1.384 . S
C216 C221 1.408 . S
C217 H207 0.930 1_554 S
C217 C216 1.384 . S
C217 C218 1.389 . S
C218 C217 1.389 . S
C218 C219 1.405 . S
C219 H208 0.930 . S
C219 C218 1.405 . S
C219 C220 1.364 . S
C220 C219 1.364 . S
C220 C221 1.400 . S
C221 H209 0.931 . S
C221 C216 1.408 . S
C221 C220 1.400 . S
H222 C228 0.930 . S
H223 C231 0.931 . S
H224 C233 0.931 . S
H225 C235 0.930 . S
H226 C237 0.930 . S
H227 C239 0.931 . S
C228 H222 0.930 . S
C228 C229 1.380 . S
C228 C230 1.394 . S
C229 C228 1.380 . S
C229 C233 1.382 . S
C230 C228 1.394 . S
C230 C231 1.400 . S
C231 H223 0.931 . S
C231 C230 1.400 . S
C231 C232 1.375 . S
C232 C231 1.375 . S
C232 C233 1.415 . S
C232 C234 1.501 . S
C233 H224 0.931 . S
C233 C229 1.382 . S
C233 C232 1.415 . S
C234 C232 1.501 . S
C234 C235 1.384 . S
C234 C239 1.408 . S
C235 H225 0.930 . S
C235 C234 1.384 . S
C235 C236 1.389 . S
C236 C235 1.389 . S
C236 C237 1.405 . S
C237 H226 0.930 . S
C237 C236 1.405 . S
C237 C238 1.364 . S
C238 C237 1.364 . S
C238 C239 1.400 . S
C239 H227 0.931 . S
C239 C234 1.408 . S
C239 C238 1.400 . S
H240 C246 0.930 . S
H241 C249 0.931 . S
H242 C251 0.931 . S
H243 C253 0.930 . S
H244 C255 0.930 . S
H245 C257 0.931 . S
C246 H240 0.930 . S
C246 C247 1.380 . S
C246 C248 1.394 . S
C247 C246 1.380 . S
C247 C251 1.382 . S
C248 C246 1.394 . S
C248 C249 1.400 . S
C249 H241 0.931 . S
C249 C248 1.400 . S
C249 C250 1.375 . S
C250 C249 1.375 . S
C250 C251 1.415 . S
C250 C252 1.501 1_565 S
C251 H242 0.931 . S
C251 C247 1.382 . S
C251 C250 1.415 . S
C252 C250 1.501 1_545 S
C252 C253 1.384 . S
C252 C257 1.408 . S
C253 H243 0.930 . S
C253 C252 1.384 . S
C253 C254 1.389 . S
C254 C253 1.389 . S
C254 C255 1.405 . S
C255 H244 0.930 . S
C255 C254 1.405 . S
C255 C256 1.364 . S
C256 C255 1.364 . S
C256 C257 1.400 . S
C257 H245 0.931 . S
C257 C252 1.408 . S
C257 C256 1.400 . S
H258 C264 0.930 . S
H259 C267 0.931 . S
H260 C269 0.931 . S
H261 C271 0.930 . S
H262 C273 0.930 . S
H263 C275 0.931 . S
C264 H258 0.930 . S
C264 C265 1.380 . S
C264 C266 1.394 . S
C265 C264 1.380 . S
C265 C269 1.382 . S
C266 C264 1.394 . S
C266 C267 1.400 . S
C267 H259 0.931 . S
C267 C266 1.400 . S
C267 C268 1.375 . S
C268 C267 1.375 . S
C268 C269 1.415 . S
C268 C270 1.501 . S
C269 H260 0.931 . S
C269 C265 1.382 . S
C269 C268 1.415 . S
C270 C268 1.501 . S
C270 C271 1.384 . S
C270 C275 1.408 . S
C271 H261 0.930 . S
C271 C270 1.384 . S
C271 C272 1.389 . S
C272 C271 1.389 . S
C272 C273 1.405 . S
C273 H262 0.930 . S
C273 C272 1.405 . S
C273 C274 1.364 . S
C274 C273 1.364 . S
C274 C275 1.400 . S
C275 H263 0.931 . S
C275 C270 1.408 . S
C275 C274 1.400 . S
H276 C282 0.930 . S
H277 C285 0.931 . S
H278 C287 0.931 . S
H279 C289 0.930 . S
H280 C291 0.930 . S
H281 C293 0.931 . S
C282 H276 0.930 . S
C282 C283 1.380 1_655 S
C282 C284 1.394 . S
C283 C282 1.380 1_455 S
C283 C287 1.382 . S
C284 C282 1.394 . S
C284 C285 1.400 . S
C285 H277 0.931 . S
C285 C284 1.400 . S
C285 C286 1.375 . S
C286 C285 1.375 . S
C286 C287 1.415 1_655 S
C286 C288 1.501 1_545 S
C287 H278 0.931 . S
C287 C283 1.382 . S
C287 C286 1.415 1_455 S
C288 C286 1.501 1_565 S
C288 C289 1.384 1_655 S
C288 C293 1.408 . S
C289 H279 0.930 . S
C289 C288 1.384 1_455 S
C289 C290 1.389 . S
C290 C289 1.389 . S
C290 C291 1.405 1_455 S
C291 H280 0.930 . S
C291 C290 1.405 1_655 S
C291 C292 1.364 . S
C292 C291 1.364 . S
C292 C293 1.400 . S
C293 H281 0.931 . S
C293 C288 1.408 . S
C293 C292 1.400 . S
H294 C300 0.930 . S
H295 C303 0.931 1_554 S
H296 C305 0.931 . S
H297 C307 0.930 . S
H298 C309 0.930 . S
H299 C311 0.931 . S
C300 H294 0.930 . S
C300 C301 1.380 . S
C300 C302 1.394 . S
C301 C300 1.380 . S
C301 C305 1.382 . S
C302 C300 1.394 . S
C302 C303 1.400 . S
C303 H295 0.931 1_556 S
C303 C302 1.400 . S
C303 C304 1.375 1_556 S
C304 C303 1.375 1_554 S
C304 C305 1.415 1_554 S
C304 C306 1.501 . S
C305 H296 0.931 . S
C305 C301 1.382 . S
C305 C304 1.415 1_556 S
C306 C304 1.501 . S
C306 C307 1.384 . S
C306 C311 1.408 . S
C307 H297 0.930 . S
C307 C306 1.384 . S
C307 C308 1.389 . S
C308 C307 1.389 . S
C308 C309 1.405 . S
C309 H298 0.930 . S
C309 C308 1.405 . S
C309 C310 1.364 . S
C310 C309 1.364 . S
C310 C311 1.400 . S
C311 H299 0.931 . S
C311 C306 1.408 . S
C311 C310 1.400 . S
H312 C318 0.930 . S
H313 C321 0.931 1_544 S
H314 C323 0.932 1_554 S
H315 C325 0.930 . S
H316 C327 0.930 . S
H317 C329 0.931 1_545 S
C318 H312 0.930 . S
C318 C319 1.380 . S
C318 C320 1.394 . S
C319 C318 1.380 . S
C319 C323 1.382 . S
C320 C318 1.394 . S
C320 C321 1.400 . S
C321 H313 0.931 1_566 S
C321 C320 1.400 . S
C321 C322 1.375 1_556 S
C322 C321 1.375 1_554 S
C322 C323 1.415 1_554 S
C322 C324 1.501 . S
C323 H314 0.932 1_556 S
C323 C319 1.382 . S
C323 C322 1.415 1_556 S
C324 C322 1.501 . S
C324 C325 1.384 . S
C324 C329 1.408 . S
C325 H315 0.930 . S
C325 C324 1.384 . S
C325 C326 1.389 . S
C326 C325 1.389 . S
C326 C327 1.405 . S
C327 H316 0.930 . S
C327 C326 1.405 . S
C327 C328 1.364 . S
C328 C327 1.364 . S
C328 C329 1.400 . S
C329 H317 0.931 1_565 S
C329 C324 1.408 . S
C329 C328 1.400 . S
H330 C336 0.930 . S
H331 C339 0.931 . S
H332 C341 0.931 . S
H333 C343 0.930 . S
H334 C345 0.930 . S
H335 C347 0.931 . S
C336 H330 0.930 . S
C336 C337 1.380 . S
C336 C338 1.394 . S
C337 C336 1.380 . S
C337 C341 1.382 . S
C338 C336 1.394 . S
C338 C339 1.400 . S
C339 H331 0.931 . S
C339 C338 1.400 . S
C339 C340 1.375 . S
C340 C339 1.375 . S
C340 C341 1.415 . S
C340 C342 1.501 . S
C341 H332 0.931 . S
C341 C337 1.382 . S
C341 C340 1.415 . S
C342 C340 1.501 . S
C342 C343 1.384 . S
C342 C347 1.408 . S
C343 H333 0.930 . S
C343 C342 1.384 . S
C343 C344 1.389 . S
C344 C343 1.389 . S
C344 C345 1.405 . S
C345 H334 0.930 . S
C345 C344 1.405 . S
C345 C346 1.364 . S
C346 C345 1.364 . S
C346 C347 1.400 . S
C347 H335 0.931 . S
C347 C342 1.408 . S
C347 C346 1.400 . S
H348 C354 0.930 . S
H349 C357 0.931 1_565 S
H350 C359 0.931 . S
H351 C361 0.930 . S
H352 C363 0.930 . S
H353 C365 0.931 1_565 S
C354 H348 0.930 . S
C354 C355 1.380 . S
C354 C356 1.394 . S
C355 C354 1.380 . S
C355 C359 1.382 . S
C356 C354 1.394 . S
C356 C357 1.400 . S
C357 H349 0.931 1_545 S
C357 C356 1.400 . S
C357 C358 1.375 . S
C358 C357 1.375 . S
C358 C359 1.415 . S
C358 C360 1.501 . S
C359 H350 0.931 . S
C359 C355 1.382 . S
C359 C358 1.415 . S
C360 C358 1.501 . S
C360 C361 1.384 . S
C360 C365 1.408 . S
C361 H351 0.930 . S
C361 C360 1.384 . S
C361 C362 1.389 . S
C362 C361 1.389 . S
C362 C363 1.405 . S
C363 H352 0.930 . S
C363 C362 1.405 . S
C363 C364 1.364 . S
C364 C363 1.364 . S
C364 C365 1.400 . S
C365 H353 0.931 1_545 S
C365 C360 1.408 . S
C365 C364 1.400 . S
H366 C372 0.930 . S
H367 C375 0.931 . S
H368 C377 0.931 . S
H369 C379 0.930 . S
H370 C381 0.930 . S
H371 C383 0.931 . S
C372 H366 0.930 . S
C372 C373 1.380 . S
C372 C374 1.394 . S
C373 C372 1.380 . S
C373 C377 1.382 . S
C374 C372 1.394 . S
C374 C375 1.400 . S
C375 H367 0.931 . S
C375 C374 1.400 . S
C375 C376 1.375 . S
C376 C375 1.375 . S
C376 C377 1.415 . S
C376 C378 1.501 . S
C377 H368 0.931 . S
C377 C373 1.382 . S
C377 C376 1.415 . S
C378 C376 1.501 . S
C378 C379 1.384 . S
C378 C383 1.408 . S
C379 H369 0.930 . S
C379 C378 1.384 . S
C379 C380 1.389 . S
C380 C379 1.389 . S
C380 C381 1.405 . S
C381 H370 0.930 . S
C381 C380 1.405 . S
C381 C382 1.364 . S
C382 C381 1.364 . S
C382 C383 1.400 . S
C383 H371 0.931 . S
C383 C378 1.408 . S
C383 C382 1.400 . S
H384 C396 0.930 . S
H385 C398 0.930 . S
H386 C399 0.930 . S
H387 C403 0.959 1_455 S
H388 C403 0.959 . S
H389 C403 0.961 . S
H390 C404 0.960 . S
H391 C404 0.961 . S
H392 C404 0.959 . S
H393 C407 0.929 . S
H394 C408 0.931 . S
H395 C410 0.930 . S
C396 H384 0.930 . S
C396 C397 1.399 . S
C396 C401 1.399 1_554 S
C397 C396 1.399 . S
C397 C398 1.376 1_655 S
C398 H385 0.930 . S
C398 C397 1.376 1_455 S
C398 C399 1.388 . S
C399 H386 0.930 . S
C399 C398 1.388 . S
C399 C400 1.390 1_554 S
C400 C399 1.390 1_556 S
C400 C401 1.394 1_455 S
C400 C406 1.465 . S
C401 C396 1.399 1_556 S
C401 C400 1.394 1_655 S
C401 C402 1.516 . S
C402 C401 1.516 . S
C402 C403 1.502 . S
C402 C404 1.561 . S
C402 C405 1.526 . S
C403 H387 0.959 1_655 S
C403 H388 0.959 . S
C403 H389 0.961 . S
C403 C402 1.502 . S
C404 H390 0.960 . S
C404 H391 0.961 . S
C404 H392 0.959 . S
C404 C402 1.561 . S
C405 C402 1.526 . S
C405 C406 1.396 1_655 S
C405 C410 1.390 . S
C406 C400 1.465 . S
C406 C405 1.396 1_455 S
C406 C407 1.399 . S
C407 H393 0.929 . S
C407 C406 1.399 . S
C407 C408 1.385 . S
C408 H394 0.931 . S
C408 C407 1.385 . S
C408 C409 1.389 . S
C409 C408 1.389 . S
C409 C410 1.387 1_455 S
C410 H395 0.930 . S
C410 C405 1.390 . S
C410 C409 1.387 1_655 S
H411 C423 0.930 . S
H412 C425 0.930 . S
H413 C426 0.930 . S
H414 C430 0.959 . S
H415 C430 0.959 . S
H416 C430 0.961 . S
H417 C431 0.960 . S
H418 C431 0.961 . S
H419 C431 0.959 . S
H420 C434 0.929 . S
H421 C435 0.931 . S
H422 C437 0.930 . S
C423 H411 0.930 . S
C423 C424 1.399 . S
C423 C428 1.399 . S
C424 C423 1.399 . S
C424 C425 1.376 . S
C425 H412 0.930 . S
C425 C424 1.376 . S
C425 C426 1.388 . S
C426 H413 0.930 . S
C426 C425 1.388 . S
C426 C427 1.390 . S
C427 C426 1.390 . S
C427 C428 1.394 . S
C427 C433 1.465 . S
C428 C423 1.399 . S
C428 C427 1.394 . S
C428 C429 1.516 . S
C429 C428 1.516 . S
C429 C430 1.502 . S
C429 C431 1.561 . S
C429 C432 1.526 . S
C430 H414 0.959 . S
C430 H415 0.959 . S
C430 H416 0.961 . S
C430 C429 1.502 . S
C431 H417 0.960 . S
C431 H418 0.961 . S
C431 H419 0.959 . S
C431 C429 1.561 . S
C432 C429 1.526 . S
C432 C433 1.396 . S
C432 C437 1.390 . S
C433 C427 1.465 . S
C433 C432 1.396 . S
C433 C434 1.399 . S
C434 H420 0.929 . S
C434 C433 1.399 . S
C434 C435 1.385 . S
C435 H421 0.931 . S
C435 C434 1.385 . S
C435 C436 1.389 . S
C436 C435 1.389 . S
C436 C437 1.387 . S
C437 H422 0.930 . S
C437 C432 1.390 . S
C437 C436 1.387 . S
H438 C450 0.930 . S
H439 C452 0.930 . S
H440 C453 0.930 . S
H441 C457 0.959 . S
H442 C457 0.959 . S
H443 C457 0.961 . S
H444 C458 0.960 . S
H445 C458 0.961 . S
H446 C458 0.959 . S
H447 C461 0.929 . S
H448 C462 0.931 . S
H449 C464 0.930 . S
C450 H438 0.930 . S
C450 C451 1.399 . S
C450 C455 1.399 . S
C451 C450 1.399 . S
C451 C452 1.376 . S
C452 H439 0.930 . S
C452 C451 1.376 . S
C452 C453 1.388 . S
C453 H440 0.930 . S
C453 C452 1.388 . S
C453 C454 1.390 . S
C454 C453 1.390 . S
C454 C455 1.394 . S
C454 C460 1.465 . S
C455 C450 1.399 . S
C455 C454 1.394 . S
C455 C456 1.516 . S
C456 C455 1.516 . S
C456 C457 1.502 . S
C456 C458 1.561 . S
C456 C459 1.526 . S
C457 H441 0.959 . S
C457 H442 0.959 . S
C457 H443 0.961 . S
C457 C456 1.502 . S
C458 H444 0.960 . S
C458 H445 0.961 . S
C458 H446 0.959 . S
C458 C456 1.561 . S
C459 C456 1.526 . S
C459 C460 1.396 . S
C459 C464 1.390 . S
C460 C454 1.465 . S
C460 C459 1.396 . S
C460 C461 1.399 . S
C461 H447 0.929 . S
C461 C460 1.399 . S
C461 C462 1.385 . S
C462 H448 0.931 . S
C462 C461 1.385 . S
C462 C463 1.389 . S
C463 C462 1.389 . S
C463 C464 1.387 . S
C464 H449 0.930 . S
C464 C459 1.390 . S
C464 C463 1.387 . S
H465 C477 0.930 . S
H466 C479 0.930 . S
H467 C480 0.930 . S
H468 C484 0.959 . S
H469 C484 0.959 . S
H470 C484 0.961 . S
H471 C485 0.960 . S
H472 C485 0.961 . S
H473 C485 0.959 . S
H474 C488 0.929 . S
H475 C489 0.931 . S
H476 C491 0.930 . S
C477 H465 0.930 . S
C477 C478 1.399 . S
C477 C482 1.399 . S
C478 C477 1.399 . S
C478 C479 1.376 . S
C479 H466 0.930 . S
C479 C478 1.376 . S
C479 C480 1.388 . S
C480 H467 0.930 . S
C480 C479 1.388 . S
C480 C481 1.390 . S
C481 C480 1.390 . S
C481 C482 1.394 . S
C481 C487 1.465 . S
C482 C477 1.399 . S
C482 C481 1.394 . S
C482 C483 1.516 . S
C483 C482 1.516 . S
C483 C484 1.502 . S
C483 C485 1.561 . S
C483 C486 1.526 . S
C484 H468 0.959 . S
C484 H469 0.959 . S
C484 H470 0.961 . S
C484 C483 1.502 . S
C485 H471 0.960 . S
C485 H472 0.961 . S
C485 H473 0.959 . S
C485 C483 1.561 . S
C486 C483 1.526 . S
C486 C487 1.396 . S
C486 C491 1.390 . S
C487 C481 1.465 . S
C487 C486 1.396 . S
C487 C488 1.399 . S
C488 H474 0.929 . S
C488 C487 1.399 . S
C488 C489 1.385 . S
C489 H475 0.931 . S
C489 C488 1.385 . S
C489 C490 1.389 . S
C490 C489 1.389 . S
C490 C491 1.387 . S
C491 H476 0.930 . S
C491 C486 1.390 . S
C491 C490 1.387 . S
H492 C504 0.930 . S
H493 C506 0.930 . S
H494 C507 0.930 . S
H495 C511 0.959 . S
H496 C511 0.959 . S
H497 C511 0.961 . S
H498 C512 0.960 . S
H499 C512 0.961 . S
H500 C512 0.959 1_455 S
H501 C515 0.929 . S
H502 C516 0.931 . S
H503 C518 0.930 . S
C504 H492 0.930 . S
C504 C505 1.399 1_655 S
C504 C509 1.399 . S
C505 C504 1.399 1_455 S
C505 C506 1.376 . S
C506 H493 0.930 . S
C506 C505 1.376 . S
C506 C507 1.388 . S
C507 H494 0.930 . S
C507 C506 1.388 . S
C507 C508 1.390 . S
C508 C507 1.390 . S
C508 C509 1.394 1_455 S
C508 C514 1.465 . S
C509 C504 1.399 . S
C509 C508 1.394 1_655 S
C509 C510 1.516 . S
C510 C509 1.516 . S
C510 C511 1.502 . S
C510 C512 1.561 . S
C510 C513 1.526 . S
C511 H495 0.959 . S
C511 H496 0.959 . S
C511 H497 0.961 . S
C511 C510 1.502 . S
C512 H498 0.960 . S
C512 H499 0.961 . S
C512 H500 0.959 1_655 S
C512 C510 1.561 . S
C513 C510 1.526 . S
C513 C514 1.396 1_655 S
C513 C518 1.390 . S
C514 C508 1.465 . S
C514 C513 1.396 1_455 S
C514 C515 1.399 . S
C515 H501 0.929 . S
C515 C514 1.399 . S
C515 C516 1.385 . S
C516 H502 0.931 . S
C516 C515 1.385 . S
C516 C517 1.389 . S
C517 C516 1.389 . S
C517 C518 1.387 1_455 S
C518 H503 0.930 . S
C518 C513 1.390 . S
C518 C517 1.387 1_655 S
H519 C531 0.930 . S
H520 C533 0.930 . S
H521 C534 0.930 . S
H522 C538 0.959 . S
H523 C538 0.959 . S
H524 C538 0.961 . S
H525 C539 0.960 . S
H526 C539 0.961 . S
H527 C539 0.959 . S
H528 C542 0.929 . S
H529 C543 0.931 . S
H530 C545 0.930 . S
C531 H519 0.930 . S
C531 C532 1.399 . S
C531 C536 1.399 . S
C532 C531 1.399 . S
C532 C533 1.376 . S
C533 H520 0.930 . S
C533 C532 1.376 . S
C533 C534 1.388 . S
C534 H521 0.930 . S
C534 C533 1.388 . S
C534 C535 1.390 . S
C535 C534 1.390 . S
C535 C536 1.394 . S
C535 C541 1.465 . S
C536 C531 1.399 . S
C536 C535 1.394 . S
C536 C537 1.516 . S
C537 C536 1.516 . S
C537 C538 1.502 . S
C537 C539 1.561 . S
C537 C540 1.526 . S
C538 H522 0.959 . S
C538 H523 0.959 . S
C538 H524 0.961 . S
C538 C537 1.502 . S
C539 H525 0.960 . S
C539 H526 0.961 . S
C539 H527 0.959 . S
C539 C537 1.561 . S
C540 C537 1.526 . S
C540 C541 1.396 . S
C540 C545 1.390 . S
C541 C535 1.465 . S
C541 C540 1.396 . S
C541 C542 1.399 . S
C542 H528 0.929 . S
C542 C541 1.399 . S
C542 C543 1.385 . S
C543 H529 0.931 . S
C543 C542 1.385 . S
C543 C544 1.389 . S
C544 C543 1.389 . S
C544 C545 1.387 . S
C545 H530 0.930 . S
C545 C540 1.390 . S
C545 C544 1.387 . S
H546 C558 0.930 . S
H547 C560 0.930 . S
H548 C561 0.930 . S
H549 C565 0.959 . S
H550 C565 0.959 . S
H551 C565 0.961 . S
H552 C566 0.960 . S
H553 C566 0.961 . S
H554 C566 0.959 . S
H555 C569 0.929 . S
H556 C570 0.931 . S
H557 C572 0.930 . S
C558 H546 0.930 . S
C558 C559 1.399 . S
C558 C563 1.399 1_556 S
C559 C558 1.399 . S
C559 C560 1.376 . S
C560 H547 0.930 . S
C560 C559 1.376 . S
C560 C561 1.388 1_556 S
C561 H548 0.930 . S
C561 C560 1.388 1_554 S
C561 C562 1.390 . S
C562 C561 1.390 . S
C562 C563 1.394 . S
C562 C568 1.465 . S
C563 C558 1.399 1_554 S
C563 C562 1.394 . S
C563 C564 1.516 . S
C564 C563 1.516 . S
C564 C565 1.502 . S
C564 C566 1.561 . S
C564 C567 1.526 . S
C565 H549 0.959 . S
C565 H550 0.959 . S
C565 H551 0.961 . S
C565 C564 1.502 . S
C566 H552 0.960 . S
C566 H553 0.961 . S
C566 H554 0.959 . S
C566 C564 1.561 . S
C567 C564 1.526 . S
C567 C568 1.396 . S
C567 C572 1.390 . S
C568 C562 1.465 . S
C568 C567 1.396 . S
C568 C569 1.399 . S
C569 H555 0.929 . S
C569 C568 1.399 . S
C569 C570 1.385 . S
C570 H556 0.931 . S
C570 C569 1.385 . S
C570 C571 1.389 . S
C571 C570 1.389 . S
C571 C572 1.387 . S
C572 H557 0.930 . S
C572 C567 1.390 . S
C572 C571 1.387 . S
H573 C585 0.930 . S
H574 C587 0.930 . S
H575 C588 0.930 . S
H576 C592 0.959 . S
H577 C592 0.959 . S
H578 C592 0.961 . S
H579 C593 0.960 . S
H580 C593 0.961 . S
H581 C593 0.959 . S
H582 C596 0.929 . S
H583 C597 0.931 . S
H584 C599 0.930 . S
C585 H573 0.930 . S
C585 C586 1.399 . S
C585 C590 1.399 . S
C586 C585 1.399 . S
C586 C587 1.376 . S
C587 H574 0.930 . S
C587 C586 1.376 . S
C587 C588 1.388 . S
C588 H575 0.930 . S
C588 C587 1.388 . S
C588 C589 1.390 . S
C589 C588 1.390 . S
C589 C590 1.394 . S
C589 C595 1.465 . S
C590 C585 1.399 . S
C590 C589 1.394 . S
C590 C591 1.516 . S
C591 C590 1.516 . S
C591 C592 1.502 . S
C591 C593 1.561 . S
C591 C594 1.526 . S
C592 H576 0.959 . S
C592 H577 0.959 . S
C592 H578 0.961 . S
C592 C591 1.502 . S
C593 H579 0.960 . S
C593 H580 0.961 . S
C593 H581 0.959 . S
C593 C591 1.561 . S
C594 C591 1.526 . S
C594 C595 1.396 . S
C594 C599 1.390 . S
C595 C589 1.465 . S
C595 C594 1.396 . S
C595 C596 1.399 . S
C596 H582 0.929 . S
C596 C595 1.399 . S
C596 C597 1.385 . S
C597 H583 0.931 . S
C597 C596 1.385 . S
C597 C598 1.389 . S
C598 C597 1.389 . S
C598 C599 1.387 . S
C599 H584 0.930 . S
C599 C594 1.390 . S
C599 C598 1.387 . S
H600 C612 0.930 . S
H601 C614 0.930 . S
H602 C615 0.930 . S
H603 C619 0.959 . S
H604 C619 0.959 . S
H605 C619 0.961 . S
H606 C620 0.960 . S
H607 C620 0.961 . S
H608 C620 0.959 . S
H609 C623 0.929 . S
H610 C624 0.931 . S
H611 C626 0.930 . S
C612 H600 0.930 . S
C612 C613 1.399 1_565 S
C612 C617 1.399 1_455 S
C613 C612 1.399 1_545 S
C613 C614 1.376 . S
C614 H601 0.930 . S
C614 C613 1.376 . S
C614 C615 1.388 . S
C615 H602 0.930 . S
C615 C614 1.388 . S
C615 C616 1.390 1_455 S
C616 C615 1.390 1_655 S
C616 C617 1.394 1_545 S
C616 C622 1.465 . S
C617 C612 1.399 1_655 S
C617 C616 1.394 1_565 S
C617 C618 1.516 . S
C618 C617 1.516 . S
C618 C619 1.502 . S
C618 C620 1.561 . S
C618 C621 1.526 . S
C619 H603 0.959 . S
C619 H604 0.959 . S
C619 H605 0.961 . S
C619 C618 1.502 . S
C620 H606 0.960 . S
C620 H607 0.961 . S
C620 H608 0.959 . S
C620 C618 1.561 . S
C621 C618 1.526 . S
C621 C622 1.396 1_565 S
C621 C626 1.390 . S
C622 C616 1.465 . S
C622 C621 1.396 1_545 S
C622 C623 1.399 . S
C623 H609 0.929 . S
C623 C622 1.399 . S
C623 C624 1.385 . S
C624 H610 0.931 . S
C624 C623 1.385 . S
C624 C625 1.389 . S
C625 C624 1.389 . S
C625 C626 1.387 1_545 S
C626 H611 0.930 . S
C626 C621 1.390 . S
C626 C625 1.387 1_565 S
H627 C639 0.930 . S
H628 C641 0.930 . S
H629 C642 0.930 . S
H630 C646 0.959 . S
H631 C646 0.959 . S
H632 C646 0.961 . S
H633 C647 0.960 . S
H634 C647 0.961 . S
H635 C647 0.959 . S
H636 C650 0.929 . S
H637 C651 0.931 . S
H638 C653 0.930 . S
C639 H627 0.930 . S
C639 C640 1.399 . S
C639 C644 1.399 . S
C640 C639 1.399 . S
C640 C641 1.376 . S
C641 H628 0.930 . S
C641 C640 1.376 . S
C641 C642 1.388 . S
C642 H629 0.930 . S
C642 C641 1.388 . S
C642 C643 1.390 . S
C643 C642 1.390 . S
C643 C644 1.394 . S
C643 C649 1.465 . S
C644 C639 1.399 . S
C644 C643 1.394 . S
C644 C645 1.516 . S
C645 C644 1.516 . S
C645 C646 1.502 . S
C645 C647 1.561 . S
C645 C648 1.526 . S
C646 H630 0.959 . S
C646 H631 0.959 . S
C646 H632 0.961 . S
C646 C645 1.502 . S
C647 H633 0.960 . S
C647 H634 0.961 . S
C647 H635 0.959 . S
C647 C645 1.561 . S
C648 C645 1.526 . S
C648 C649 1.396 . S
C648 C653 1.390 . S
C649 C643 1.465 . S
C649 C648 1.396 . S
C649 C650 1.399 . S
C650 H636 0.929 . S
C650 C649 1.399 . S
C650 C651 1.385 . S
C651 H637 0.931 . S
C651 C650 1.385 . S
C651 C652 1.389 . S
C652 C651 1.389 . S
C652 C653 1.387 . S
C653 H638 0.930 . S
C653 C648 1.390 . S
C653 C652 1.387 . S
H654 C666 0.930 . S
H655 C668 0.930 . S
H656 C669 0.930 . S
H657 C673 0.959 1_565 S
H658 C673 0.959 . S
H659 C673 0.961 . S
H660 C674 0.960 . S
H661 C674 0.961 . S
H662 C674 0.959 . S
H663 C677 0.929 . S
H664 C678 0.931 1_554 S
H665 C680 0.930 . S
C666 H654 0.930 . S
C666 C667 1.399 . S
C666 C671 1.399 . S
C667 C666 1.399 . S
C667 C668 1.376 1_545 S
C668 H655 0.930 . S
C668 C667 1.376 1_565 S
C668 C669 1.388 . S
C669 H656 0.930 . S
C669 C668 1.388 . S
C669 C670 1.390 1_565 S
C670 C669 1.390 1_545 S
C670 C671 1.394 . S
C670 C676 1.465 . S
C671 C666 1.399 . S
C671 C670 1.394 . S
C671 C672 1.516 . S
C672 C671 1.516 . S
C672 C673 1.502 . S
C672 C674 1.561 . S
C672 C675 1.526 . S
C673 H657 0.959 1_545 S
C673 H658 0.959 . S
C673 H659 0.961 . S
C673 C672 1.502 . S
C674 H660 0.960 . S
C674 H661 0.961 . S
C674 H662 0.959 . S
C674 C672 1.561 . S
C675 C672 1.526 . S
C675 C676 1.396 . S
C675 C680 1.390 . S
C676 C670 1.465 . S
C676 C675 1.396 . S
C676 C677 1.399 1_545 S
C677 H663 0.929 . S
C677 C676 1.399 1_565 S
C677 C678 1.385 . S
C678 H664 0.931 1_556 S
C678 C677 1.385 . S
C678 C679 1.389 1_565 S
C679 C678 1.389 1_545 S
C679 C680 1.387 . S
C680 H665 0.930 . S
C680 C675 1.390 . S
C680 C679 1.387 . S
H681 C693 0.930 . S
H682 C695 0.930 . S
H683 C696 0.930 . S
H684 C700 0.959 . S
H685 C700 0.959 . S
H686 C700 0.961 . S
H687 C701 0.960 . S
H688 C701 0.961 . S
H689 C701 0.959 . S
H690 C704 0.929 . S
H691 C705 0.931 . S
H692 C707 0.930 . S
C693 H681 0.930 . S
C693 C694 1.399 . S
C693 C698 1.399 . S
C694 C693 1.399 . S
C694 C695 1.376 . S
C695 H682 0.930 . S
C695 C694 1.376 . S
C695 C696 1.388 . S
C696 H683 0.930 . S
C696 C695 1.388 . S
C696 C697 1.390 . S
C697 C696 1.390 . S
C697 C698 1.394 . S
C697 C703 1.465 . S
C698 C693 1.399 . S
C698 C697 1.394 . S
C698 C699 1.516 . S
C699 C698 1.516 . S
C699 C700 1.502 . S
C699 C701 1.561 . S
C699 C702 1.526 . S
C700 H684 0.959 . S
C700 H685 0.959 . S
C700 H686 0.961 . S
C700 C699 1.502 . S
C701 H687 0.960 . S
C701 H688 0.961 . S
C701 H689 0.959 . S
C701 C699 1.561 . S
C702 C699 1.526 . S
C702 C703 1.396 . S
C702 C707 1.390 . S
C703 C697 1.465 . S
C703 C702 1.396 . S
C703 C704 1.399 . S
C704 H690 0.929 . S
C704 C703 1.399 . S
C704 C705 1.385 . S
C705 H691 0.931 . S
C705 C704 1.385 . S
C705 C706 1.389 . S
C706 C705 1.389 . S
C706 C707 1.387 . S
C707 H692 0.930 . S
C707 C702 1.390 . S
C707 C706 1.387 . S
H708 C720 0.930 . S
H709 C722 0.930 . S
H710 C723 0.930 . S
H711 C727 0.959 . S
H712 C727 0.959 . S
H713 C727 0.961 . S
H714 C728 0.960 . S
H715 C728 0.961 . S
H716 C728 0.959 . S
H717 C731 0.929 . S
H718 C732 0.931 . S
H719 C734 0.930 . S
C720 H708 0.930 . S
C720 C721 1.399 . S
C720 C725 1.399 1_455 S
C721 C720 1.399 . S
C721 C722 1.376 1_545 S
C722 H709 0.930 . S
C722 C721 1.376 1_565 S
C722 C723 1.388 . S
C723 H710 0.930 . S
C723 C722 1.388 . S
C723 C724 1.390 1_455 S
C724 C723 1.390 1_655 S
C724 C725 1.394 1_565 S
C724 C730 1.465 . S
C725 C720 1.399 1_655 S
C725 C724 1.394 1_545 S
C725 C726 1.516 . S
C726 C725 1.516 . S
C726 C727 1.502 . S
C726 C728 1.561 . S
C726 C729 1.526 . S
C727 H711 0.959 . S
C727 H712 0.959 . S
C727 H713 0.961 . S
C727 C726 1.502 . S
C728 H714 0.960 . S
C728 H715 0.961 . S
C728 H716 0.959 . S
C728 C726 1.561 . S
C729 C726 1.526 . S
C729 C730 1.396 1_545 S
C729 C734 1.390 . S
C730 C724 1.465 . S
C730 C729 1.396 1_565 S
C730 C731 1.399 . S
C731 H717 0.929 . S
C731 C730 1.399 . S
C731 C732 1.385 . S
C732 H718 0.931 . S
C732 C731 1.385 . S
C732 C733 1.389 1_565 S
C733 C732 1.389 1_545 S
C733 C734 1.387 . S
C734 H719 0.930 . S
C734 C729 1.390 . S
C734 C733 1.387 . S
H735 C747 0.930 . S
H736 C749 0.930 . S
H737 C750 0.930 . S
H738 C754 0.959 . S
H739 C754 0.959 . S
H740 C754 0.961 . S
H741 C755 0.960 . S
H742 C755 0.961 . S
H743 C755 0.959 . S
H744 C758 0.929 . S
H745 C759 0.931 . S
H746 C761 0.930 . S
C747 H735 0.930 . S
C747 C748 1.399 . S
C747 C752 1.399 . S
C748 C747 1.399 . S
C748 C749 1.376 . S
C749 H736 0.930 . S
C749 C748 1.376 . S
C749 C750 1.388 . S
C750 H737 0.930 . S
C750 C749 1.388 . S
C750 C751 1.390 . S
C751 C750 1.390 . S
C751 C752 1.394 . S
C751 C757 1.465 . S
C752 C747 1.399 . S
C752 C751 1.394 . S
C752 C753 1.516 . S
C753 C752 1.516 . S
C753 C754 1.502 . S
C753 C755 1.561 . S
C753 C756 1.526 . S
C754 H738 0.959 . S
C754 H739 0.959 . S
C754 H740 0.961 . S
C754 C753 1.502 . S
C755 H741 0.960 . S
C755 H742 0.961 . S
C755 H743 0.959 . S
C755 C753 1.561 . S
C756 C753 1.526 . S
C756 C757 1.396 . S
C756 C761 1.390 . S
C757 C751 1.465 . S
C757 C756 1.396 . S
C757 C758 1.399 . S
C758 H744 0.929 . S
C758 C757 1.399 . S
C758 C759 1.385 . S
C759 H745 0.931 . S
C759 C758 1.385 . S
C759 C760 1.389 . S
C760 C759 1.389 . S
C760 C761 1.387 . S
C761 H746 0.930 . S
C761 C756 1.390 . S
C761 C760 1.387 . S
H762 C774 0.930 . S
H763 C776 0.930 . S
H764 C777 0.930 . S
H765 C781 0.959 . S
H766 C781 0.959 . S
H767 C781 0.961 . S
H768 C782 0.960 . S
H769 C782 0.961 . S
H770 C782 0.959 . S
H771 C785 0.929 . S
H772 C786 0.931 . S
H773 C788 0.930 . S
C774 H762 0.930 . S
C774 C775 1.399 . S
C774 C779 1.399 . S
C775 C774 1.399 . S
C775 C776 1.376 1_565 S
C776 H763 0.930 . S
C776 C775 1.376 1_545 S
C776 C777 1.388 . S
C777 H764 0.930 . S
C777 C776 1.388 . S
C777 C778 1.390 . S
C778 C777 1.390 . S
C778 C779 1.394 1_545 S
C778 C784 1.465 . S
C779 C774 1.399 . S
C779 C778 1.394 1_565 S
C779 C780 1.516 . S
C780 C779 1.516 . S
C780 C781 1.502 . S
C780 C782 1.561 . S
C780 C783 1.526 . S
C781 H765 0.959 . S
C781 H766 0.959 . S
C781 H767 0.961 . S
C781 C780 1.502 . S
C782 H768 0.960 . S
C782 H769 0.961 . S
C782 H770 0.959 . S
C782 C780 1.561 . S
C783 C780 1.526 . S
C783 C784 1.396 1_565 S
C783 C788 1.390 . S
C784 C778 1.465 . S
C784 C783 1.396 1_545 S
C784 C785 1.399 . S
C785 H771 0.929 . S
C785 C784 1.399 . S
C785 C786 1.385 . S
C786 H772 0.931 . S
C786 C785 1.385 . S
C786 C787 1.389 . S
C787 C786 1.389 . S
C787 C788 1.387 1_545 S
C788 H773 0.930 . S
C788 C783 1.390 . S
C788 C787 1.387 1_565 S
H789 C801 0.930 . S
H790 C803 0.930 . S
H791 C804 0.930 . S
H792 C808 0.959 . S
H793 C808 0.959 . S
H794 C808 0.961 . S
H795 C809 0.960 . S
H796 C809 0.961 . S
H797 C809 0.959 . S
H798 C812 0.929 . S
H799 C813 0.931 . S
H800 C815 0.930 . S
C801 H789 0.930 . S
C801 C802 1.399 . S
C801 C806 1.399 . S
C802 C801 1.399 . S
C802 C803 1.376 . S
C803 H790 0.930 . S
C803 C802 1.376 . S
C803 C804 1.388 . S
C804 H791 0.930 . S
C804 C803 1.388 . S
C804 C805 1.390 . S
C805 C804 1.390 . S
C805 C806 1.394 . S
C805 C811 1.465 . S
C806 C801 1.399 . S
C806 C805 1.394 . S
C806 C807 1.516 . S
C807 C806 1.516 . S
C807 C808 1.502 . S
C807 C809 1.561 . S
C807 C810 1.526 . S
C808 H792 0.959 . S
C808 H793 0.959 . S
C808 H794 0.961 . S
C808 C807 1.502 . S
C809 H795 0.960 . S
C809 H796 0.961 . S
C809 H797 0.959 . S
C809 C807 1.561 . S
C810 C807 1.526 . S
C810 C811 1.396 . S
C810 C815 1.390 . S
C811 C805 1.465 . S
C811 C810 1.396 . S
C811 C812 1.399 . S
C812 H798 0.929 . S
C812 C811 1.399 . S
C812 C813 1.385 . S
C813 H799 0.931 . S
C813 C812 1.385 . S
C813 C814 1.389 . S
C814 C813 1.389 . S
C814 C815 1.387 . S
C815 H800 0.930 . S
C815 C810 1.390 . S
C815 C814 1.387 . S
H816 C828 0.930 . S
H817 C830 0.930 . S
H818 C831 0.930 . S
H819 C835 0.959 . S
H820 C835 0.959 . S
H821 C835 0.961 . S
H822 C836 0.960 . S
H823 C836 0.961 . S
H824 C836 0.959 . S
H825 C839 0.929 . S
H826 C840 0.931 . S
H827 C842 0.930 . S
C828 H816 0.930 . S
C828 C829 1.399 1_554 S
C828 C833 1.399 1_545 S
C829 C828 1.399 1_556 S
C829 C830 1.376 . S
C830 H817 0.930 . S
C830 C829 1.376 . S
C830 C831 1.388 1_545 S
C831 H818 0.930 . S
C831 C830 1.388 1_565 S
C831 C832 1.390 . S
C832 C831 1.390 . S
C832 C833 1.394 1_556 S
C832 C838 1.465 . S
C833 C828 1.399 1_565 S
C833 C832 1.394 1_554 S
C833 C834 1.516 . S
C834 C833 1.516 . S
C834 C835 1.502 . S
C834 C836 1.561 . S
C834 C837 1.526 . S
C835 H819 0.959 . S
C835 H820 0.959 . S
C835 H821 0.961 . S
C835 C834 1.502 . S
C836 H822 0.960 . S
C836 H823 0.961 . S
C836 H824 0.959 . S
C836 C834 1.561 . S
C837 C834 1.526 . S
C837 C838 1.396 1_554 S
C837 C842 1.390 . S
C838 C832 1.465 . S
C838 C837 1.396 1_556 S
C838 C839 1.399 . S
C839 H825 0.929 . S
C839 C838 1.399 . S
C839 C840 1.385 . S
C840 H826 0.931 . S
C840 C839 1.385 . S
C840 C841 1.389 . S
C841 C840 1.389 . S
C841 C842 1.387 1_556 S
C842 H827 0.930 . S
C842 C837 1.390 . S
C842 C841 1.387 1_554 S
H843 C855 0.930 . S
H844 C857 0.930 . S
H845 C858 0.930 . S
H846 C862 0.959 . S
H847 C862 0.959 . S
H848 C862 0.961 . S
H849 C863 0.960 . S
H850 C863 0.961 . S
H851 C863 0.959 . S
H852 C866 0.929 . S
H853 C867 0.931 . S
H854 C869 0.930 . S
C855 H843 0.930 . S
C855 C856 1.399 . S
C855 C860 1.399 . S
C856 C855 1.399 . S
C856 C857 1.376 1_554 S
C857 H844 0.930 . S
C857 C856 1.376 1_556 S
C857 C858 1.388 . S
C858 H845 0.930 . S
C858 C857 1.388 . S
C858 C859 1.390 1_556 S
C859 C858 1.390 1_554 S
C859 C860 1.394 . S
C859 C865 1.465 . S
C860 C855 1.399 . S
C860 C859 1.394 . S
C860 C861 1.516 . S
C861 C860 1.516 . S
C861 C862 1.502 . S
C861 C863 1.561 . S
C861 C864 1.526 . S
C862 H846 0.959 . S
C862 H847 0.959 . S
C862 H848 0.961 . S
C862 C861 1.502 . S
C863 H849 0.960 . S
C863 H850 0.961 . S
C863 H851 0.959 . S
C863 C861 1.561 . S
C864 C861 1.526 . S
C864 C865 1.396 . S
C864 C869 1.390 . S
C865 C859 1.465 . S
C865 C864 1.396 . S
C865 C866 1.399 1_554 S
C866 H852 0.929 . S
C866 C865 1.399 1_556 S
C866 C867 1.385 . S
C867 H853 0.931 . S
C867 C866 1.385 . S
C867 C868 1.389 1_556 S
C868 C867 1.389 1_554 S
C868 C869 1.387 . S
C869 H854 0.930 . S
C869 C864 1.390 . S
C869 C868 1.387 . S
H870 C882 0.930 . S
H871 C884 0.930 . S
H872 C885 0.930 . S
H873 C889 0.959 . S
H874 C889 0.959 . S
H875 C889 0.961 . S
H876 C890 0.960 . S
H877 C890 0.961 . S
H878 C890 0.959 . S
H879 C893 0.929 . S
H880 C894 0.931 . S
H881 C896 0.930 . S
C882 H870 0.930 . S
C882 C883 1.399 . S
C882 C887 1.399 . S
C883 C882 1.399 . S
C883 C884 1.376 . S
C884 H871 0.930 . S
C884 C883 1.376 . S
C884 C885 1.388 . S
C885 H872 0.930 . S
C885 C884 1.388 . S
C885 C886 1.390 . S
C886 C885 1.390 . S
C886 C887 1.394 . S
C886 C892 1.465 . S
C887 C882 1.399 . S
C887 C886 1.394 . S
C887 C888 1.516 . S
C888 C887 1.516 . S
C888 C889 1.502 . S
C888 C890 1.561 . S
C888 C891 1.526 . S
C889 H873 0.959 . S
C889 H874 0.959 . S
C889 H875 0.961 . S
C889 C888 1.502 . S
C890 H876 0.960 . S
C890 H877 0.961 . S
C890 H878 0.959 . S
C890 C888 1.561 . S
C891 C888 1.526 . S
C891 C892 1.396 . S
C891 C896 1.390 . S
C892 C886 1.465 . S
C892 C891 1.396 . S
C892 C893 1.399 . S
C893 H879 0.929 . S
C893 C892 1.399 . S
C893 C894 1.385 . S
C894 H880 0.931 . S
C894 C893 1.385 . S
C894 C895 1.389 . S
C895 C894 1.389 . S
C895 C896 1.387 . S
C896 H881 0.930 . S
C896 C891 1.390 . S
C896 C895 1.387 . S
H897 C909 0.930 . S
H898 C911 0.930 . S
H899 C912 0.930 . S
H900 C916 0.959 . S
H901 C916 0.959 . S
H902 C916 0.961 . S
H903 C917 0.960 . S
H904 C917 0.961 . S
H905 C917 0.959 . S
H906 C920 0.929 . S
H907 C921 0.931 . S
H908 C923 0.930 . S
C909 H897 0.930 . S
C909 C910 1.399 . S
C909 C914 1.399 . S
C910 C909 1.399 . S
C910 C911 1.376 . S
C911 H898 0.930 . S
C911 C910 1.376 . S
C911 C912 1.388 . S
C912 H899 0.930 . S
C912 C911 1.388 . S
C912 C913 1.390 . S
C913 C912 1.390 . S
C913 C914 1.394 . S
C913 C919 1.465 . S
C914 C909 1.399 . S
C914 C913 1.394 . S
C914 C915 1.516 . S
C915 C914 1.516 . S
C915 C916 1.502 . S
C915 C917 1.561 . S
C915 C918 1.526 . S
C916 H900 0.959 . S
C916 H901 0.959 . S
C916 H902 0.961 . S
C916 C915 1.502 . S
C917 H903 0.960 . S
C917 H904 0.961 . S
C917 H905 0.959 . S
C917 C915 1.561 . S
C918 C915 1.526 . S
C918 C919 1.396 . S
C918 C923 1.390 . S
C919 C913 1.465 . S
C919 C918 1.396 . S
C919 C920 1.399 . S
C920 H906 0.929 . S
C920 C919 1.399 . S
C920 C921 1.385 . S
C921 H907 0.931 . S
C921 C920 1.385 . S
C921 C922 1.389 . S
C922 C921 1.389 . S
C922 C923 1.387 . S
C923 H908 0.930 . S
C923 C918 1.390 . S
C923 C922 1.387 . S
H924 C936 0.930 . S
H925 C938 0.930 . S
H926 C939 0.930 . S
H927 C943 0.959 . S
H928 C943 0.959 . S
H929 C943 0.961 . S
H930 C944 0.960 . S
H931 C944 0.961 . S
H932 C944 0.959 . S
H933 C947 0.929 . S
H934 C948 0.931 . S
H935 C950 0.930 . S
C936 H924 0.930 . S
C936 C937 1.399 . S
C936 C941 1.399 . S
C937 C936 1.399 . S
C937 C938 1.376 . S
C938 H925 0.930 . S
C938 C937 1.376 . S
C938 C939 1.388 . S
C939 H926 0.930 . S
C939 C938 1.388 . S
C939 C940 1.390 . S
C940 C939 1.390 . S
C940 C941 1.394 . S
C940 C946 1.465 . S
C941 C936 1.399 . S
C941 C940 1.394 . S
C941 C942 1.516 . S
C942 C941 1.516 . S
C942 C943 1.502 . S
C942 C944 1.561 . S
C942 C945 1.526 . S
C943 H927 0.959 . S
C943 H928 0.959 . S
C943 H929 0.961 . S
C943 C942 1.502 . S
C944 H930 0.960 . S
C944 H931 0.961 . S
C944 H932 0.959 . S
C944 C942 1.561 . S
C945 C942 1.526 . S
C945 C946 1.396 . S
C945 C950 1.390 . S
C946 C940 1.465 . S
C946 C945 1.396 . S
C946 C947 1.399 . S
C947 H933 0.929 . S
C947 C946 1.399 . S
C947 C948 1.385 . S
C948 H934 0.931 . S
C948 C947 1.385 . S
C948 C949 1.389 . S
C949 C948 1.389 . S
C949 C950 1.387 . S
C950 H935 0.930 . S
C950 C945 1.390 . S
C950 C949 1.387 . S
H951 C963 0.930 . S
H952 C965 0.930 . S
H953 C966 0.930 . S
H954 C970 0.959 . S
H955 C970 0.959 . S
H956 C970 0.961 . S
H957 C971 0.960 . S
H958 C971 0.961 . S
H959 C971 0.959 . S
H960 C974 0.929 . S
H961 C975 0.931 . S
H962 C977 0.930 . S
C963 H951 0.930 . S
C963 C964 1.399 . S
C963 C968 1.399 1_565 S
C964 C963 1.399 . S
C964 C965 1.376 . S
C965 H952 0.930 . S
C965 C964 1.376 . S
C965 C966 1.388 . S
C966 H953 0.930 . S
C966 C965 1.388 . S
C966 C967 1.390 1_565 S
C967 C966 1.390 1_545 S
C967 C968 1.394 . S
C967 C973 1.465 . S
C968 C963 1.399 1_545 S
C968 C967 1.394 . S
C968 C969 1.516 . S
C969 C968 1.516 . S
C969 C970 1.502 . S
C969 C971 1.561 . S
C969 C972 1.526 . S
C970 H954 0.959 . S
C970 H955 0.959 . S
C970 H956 0.961 . S
C970 C969 1.502 . S
C971 H957 0.960 . S
C971 H958 0.961 . S
C971 H959 0.959 . S
C971 C969 1.561 . S
C972 C969 1.526 . S
C972 C973 1.396 . S
C972 C977 1.390 . S
C973 C967 1.465 . S
C973 C972 1.396 . S
C973 C974 1.399 . S
C974 H960 0.929 . S
C974 C973 1.399 . S
C974 C975 1.385 . S
C975 H961 0.931 . S
C975 C974 1.385 . S
C975 C976 1.389 . S
C976 C975 1.389 . S
C976 C977 1.387 . S
C977 H962 0.930 . S
C977 C972 1.390 . S
C977 C976 1.387 . S
H978 C990 0.930 . S
H979 C992 0.930 . S
H980 C993 0.930 . S
H981 C997 0.959 . S
H982 C997 0.959 . S
H983 C997 0.961 . S
H984 C998 0.960 . S
H985 C998 0.961 . S
H986 C998 0.959 . S
H987 C1001 0.929 . S
H988 C1002 0.931 . S
H989 C1004 0.930 . S
C990 H978 0.930 . S
C990 C991 1.399 . S
C990 C995 1.399 . S
C991 C990 1.399 . S
C991 C992 1.376 . S
C992 H979 0.930 . S
C992 C991 1.376 . S
C992 C993 1.388 . S
C993 H980 0.930 . S
C993 C992 1.388 . S
C993 C994 1.390 . S
C994 C993 1.390 . S
C994 C995 1.394 . S
C994 C1000 1.465 . S
C995 C990 1.399 . S
C995 C994 1.394 . S
C995 C996 1.516 . S
C996 C995 1.516 . S
C996 C997 1.502 . S
C996 C998 1.561 . S
C996 C999 1.526 . S
C997 H981 0.959 . S
C997 H982 0.959 . S
C997 H983 0.961 . S
C997 C996 1.502 . S
C998 H984 0.960 . S
C998 H985 0.961 . S
C998 H986 0.959 . S
C998 C996 1.561 . S
C999 C996 1.526 . S
C999 C1000 1.396 . S
C999 C1004 1.390 . S
C1000 C994 1.465 . S
C1000 C999 1.396 . S
C1000 C1001 1.399 . S
C1001 H987 0.929 . S
C1001 C1000 1.399 . S
C1001 C1002 1.385 . S
C1002 H988 0.931 . S
C1002 C1001 1.385 . S
C1002 C1003 1.389 . S
C1003 C1002 1.389 . S
C1003 C1004 1.387 . S
C1004 H989 0.930 . S
C1004 C999 1.390 . S
C1004 C1003 1.387 . S
H1005 C1017 0.930 . S
H1006 C1019 0.930 . S
H1007 C1020 0.930 . S
H1008 C1024 0.959 . S
H1009 C1024 0.959 . S
H1010 C1024 0.961 . S
H1011 C1025 0.960 . S
H1012 C1025 0.961 . S
H1013 C1025 0.959 . S
H1014 C1028 0.929 . S
H1015 C1029 0.931 . S
H1016 C1031 0.930 . S
C1017 H1005 0.930 . S
C1017 C1018 1.399 . S
C1017 C1022 1.399 . S
C1018 C1017 1.399 . S
C1018 C1019 1.376 . S
C1019 H1006 0.930 . S
C1019 C1018 1.376 . S
C1019 C1020 1.388 . S
C1020 H1007 0.930 . S
C1020 C1019 1.388 . S
C1020 C1021 1.390 . S
C1021 C1020 1.390 . S
C1021 C1022 1.394 . S
C1021 C1027 1.465 . S
C1022 C1017 1.399 . S
C1022 C1021 1.394 . S
C1022 C1023 1.516 . S
C1023 C1022 1.516 . S
C1023 C1024 1.502 . S
C1023 C1025 1.561 . S
C1023 C1026 1.526 . S
C1024 H1008 0.959 . S
C1024 H1009 0.959 . S
C1024 H1010 0.961 . S
C1024 C1023 1.502 . S
C1025 H1011 0.960 . S
C1025 H1012 0.961 . S
C1025 H1013 0.959 . S
C1025 C1023 1.561 . S
C1026 C1023 1.526 . S
C1026 C1027 1.396 . S
C1026 C1031 1.390 . S
C1027 C1021 1.465 . S
C1027 C1026 1.396 . S
C1027 C1028 1.399 . S
C1028 H1014 0.929 . S
C1028 C1027 1.399 . S
C1028 C1029 1.385 . S
C1029 H1015 0.931 . S
C1029 C1028 1.385 . S
C1029 C1030 1.389 . S
C1030 C1029 1.389 . S
C1030 C1031 1.387 . S
C1031 H1016 0.930 . S
C1031 C1026 1.390 . S
C1031 C1030 1.387 . S
H1032 C1044 0.930 . S
H1033 C1046 0.930 . S
H1034 C1047 0.930 . S
H1035 C1051 0.959 . S
H1036 C1051 0.959 . S
H1037 C1051 0.961 . S
H1038 C1052 0.960 . S
H1039 C1052 0.961 . S
H1040 C1052 0.959 . S
H1041 C1055 0.929 . S
H1042 C1056 0.931 . S
H1043 C1058 0.930 . S
C1044 H1032 0.930 . S
C1044 C1045 1.399 . S
C1044 C1049 1.399 . S
C1045 C1044 1.399 . S
C1045 C1046 1.376 . S
C1046 H1033 0.930 . S
C1046 C1045 1.376 . S
C1046 C1047 1.388 . S
C1047 H1034 0.930 . S
C1047 C1046 1.388 . S
C1047 C1048 1.390 . S
C1048 C1047 1.390 . S
C1048 C1049 1.394 . S
C1048 C1054 1.465 . S
C1049 C1044 1.399 . S
C1049 C1048 1.394 . S
C1049 C1050 1.516 . S
C1050 C1049 1.516 . S
C1050 C1051 1.502 . S
C1050 C1052 1.561 . S
C1050 C1053 1.526 . S
C1051 H1035 0.959 . S
C1051 H1036 0.959 . S
C1051 H1037 0.961 . S
C1051 C1050 1.502 . S
C1052 H1038 0.960 . S
C1052 H1039 0.961 . S
C1052 H1040 0.959 . S
C1052 C1050 1.561 . S
C1053 C1050 1.526 . S
C1053 C1054 1.396 . S
C1053 C1058 1.390 . S
C1054 C1048 1.465 . S
C1054 C1053 1.396 . S
C1054 C1055 1.399 . S
C1055 H1041 0.929 . S
C1055 C1054 1.399 . S
C1055 C1056 1.385 . S
C1056 H1042 0.931 . S
C1056 C1055 1.385 . S
C1056 C1057 1.389 . S
C1057 C1056 1.389 . S
C1057 C1058 1.387 . S
C1058 H1043 0.930 . S
C1058 C1053 1.390 . S
C1058 C1057 1.387 . S
H1059 C1071 0.930 . S
H1060 C1073 0.930 . S
H1061 C1074 0.930 . S
H1062 C1078 0.959 . S
H1063 C1078 0.959 . S
H1064 C1078 0.961 . S
H1065 C1079 0.960 . S
H1066 C1079 0.961 . S
H1067 C1079 0.959 . S
H1068 C1082 0.929 . S
H1069 C1083 0.931 . S
H1070 C1085 0.930 . S
C1071 H1059 0.930 . S
C1071 C1072 1.399 . S
C1071 C1076 1.399 . S
C1072 C1071 1.399 . S
C1072 C1073 1.376 . S
C1073 H1060 0.930 . S
C1073 C1072 1.376 . S
C1073 C1074 1.388 . S
C1074 H1061 0.930 . S
C1074 C1073 1.388 . S
C1074 C1075 1.390 . S
C1075 C1074 1.390 . S
C1075 C1076 1.394 . S
C1075 C1081 1.465 . S
C1076 C1071 1.399 . S
C1076 C1075 1.394 . S
C1076 C1077 1.516 . S
C1077 C1076 1.516 . S
C1077 C1078 1.502 . S
C1077 C1079 1.561 . S
C1077 C1080 1.526 . S
C1078 H1062 0.959 . S
C1078 H1063 0.959 . S
C1078 H1064 0.961 . S
C1078 C1077 1.502 . S
C1079 H1065 0.960 . S
C1079 H1066 0.961 . S
C1079 H1067 0.959 . S
C1079 C1077 1.561 . S
C1080 C1077 1.526 . S
C1080 C1081 1.396 . S
C1080 C1085 1.390 . S
C1081 C1075 1.465 . S
C1081 C1080 1.396 . S
C1081 C1082 1.399 . S
C1082 H1068 0.929 . S
C1082 C1081 1.399 . S
C1082 C1083 1.385 . S
C1083 H1069 0.931 . S
C1083 C1082 1.385 . S
C1083 C1084 1.389 . S
C1084 C1083 1.389 . S
C1084 C1085 1.387 . S
C1085 H1070 0.930 . S
C1085 C1080 1.390 . S
C1085 C1084 1.387 . S
H1086 C1098 0.930 . S
H1087 C1100 0.930 . S
H1088 C1101 0.930 . S
H1089 C1105 0.959 . S
H1090 C1105 0.959 . S
H1091 C1105 0.961 . S
H1092 C1106 0.960 . S
H1093 C1106 0.961 . S
H1094 C1106 0.959 . S
H1095 C1109 0.929 . S
H1096 C1110 0.931 . S
H1097 C1112 0.930 . S
C1098 H1086 0.930 . S
C1098 C1099 1.399 1_655 S
C1098 C1103 1.399 1_654 S
C1099 C1098 1.399 1_455 S
C1099 C1100 1.376 . S
C1100 H1087 0.930 . S
C1100 C1099 1.376 . S
C1100 C1101 1.388 . S
C1101 H1088 0.930 . S
C1101 C1100 1.388 . S
C1101 C1102 1.390 1_554 S
C1102 C1101 1.390 1_556 S
C1102 C1103 1.394 . S
C1102 C1108 1.465 . S
C1103 C1098 1.399 1_456 S
C1103 C1102 1.394 . S
C1103 C1104 1.520 . S
C1104 C1103 1.520 . S
C1104 C1105 1.481 1_455 S
C1104 C1106 1.573 . S
C1104 C1107 1.534 . S
C1105 H1089 0.959 . S
C1105 H1090 0.959 . S
C1105 H1091 0.961 . S
C1105 C1104 1.481 1_655 S
C1106 H1092 0.960 . S
C1106 H1093 0.961 . S
C1106 H1094 0.959 . S
C1106 C1104 1.573 . S
C1107 C1104 1.534 . S
C1107 C1108 1.396 . S
C1107 C1112 1.390 . S
C1108 C1102 1.465 . S
C1108 C1107 1.396 . S
C1108 C1109 1.399 . S
C1109 H1095 0.929 . S
C1109 C1108 1.399 . S
C1109 C1110 1.385 . S
C1110 H1096 0.931 . S
C1110 C1109 1.385 . S
C1110 C1111 1.389 . S
C1111 C1110 1.389 . S
C1111 C1112 1.387 . S
C1112 H1097 0.930 . S
C1112 C1107 1.390 . S
C1112 C1111 1.387 . S
H1113 C1125 0.930 . S
H1114 C1127 0.930 . S
H1115 C1128 0.930 . S
H1116 C1132 0.959 . S
H1117 C1132 0.959 . S
H1118 C1132 0.961 . S
H1119 C1133 0.960 . S
H1120 C1133 0.961 . S
H1121 C1133 0.959 . S
H1122 C1136 0.929 . S
H1123 C1137 0.931 . S
H1124 C1139 0.930 . S
C1125 H1113 0.930 . S
C1125 C1126 1.399 . S
C1125 C1130 1.399 . S
C1126 C1125 1.399 . S
C1126 C1127 1.376 . S
C1127 H1114 0.930 . S
C1127 C1126 1.376 . S
C1127 C1128 1.388 . S
C1128 H1115 0.930 . S
C1128 C1127 1.388 . S
C1128 C1129 1.390 . S
C1129 C1128 1.390 . S
C1129 C1130 1.394 . S
C1129 C1135 1.465 . S
C1130 C1125 1.399 . S
C1130 C1129 1.394 . S
C1130 C1131 1.516 . S
C1131 C1130 1.516 . S
C1131 C1132 1.502 . S
C1131 C1133 1.561 . S
C1131 C1134 1.526 . S
C1132 H1116 0.959 . S
C1132 H1117 0.959 . S
C1132 H1118 0.961 . S
C1132 C1131 1.502 . S
C1133 H1119 0.960 . S
C1133 H1120 0.961 . S
C1133 H1121 0.959 . S
C1133 C1131 1.561 . S
C1134 C1131 1.526 . S
C1134 C1135 1.396 . S
C1134 C1139 1.390 . S
C1135 C1129 1.465 . S
C1135 C1134 1.396 . S
C1135 C1136 1.399 . S
C1136 H1122 0.929 . S
C1136 C1135 1.399 . S
C1136 C1137 1.385 . S
C1137 H1123 0.931 . S
C1137 C1136 1.385 . S
C1137 C1138 1.389 . S
C1138 C1137 1.389 . S
C1138 C1139 1.387 . S
C1139 H1124 0.930 . S
C1139 C1134 1.390 . S
C1139 C1138 1.387 . S
H1140 C1152 0.930 . S
H1141 C1154 0.923 1_556 S
H1142 C1155 0.930 . S
H1143 C1159 0.959 . S
H1144 C1159 0.959 . S
H1145 C1159 0.961 . S
H1146 C1160 0.960 . S
H1147 C1160 0.961 . S
H1148 C1160 0.959 . S
H1149 C1163 0.929 . S
H1150 C1164 0.931 . S
H1151 C1166 0.930 . S
C1152 H1140 0.930 . S
C1152 C1153 1.399 . S
C1152 C1157 1.399 1_556 S
C1153 C1152 1.399 . S
C1153 C1154 1.368 1_556 S
C1154 H1141 0.923 1_554 S
C1154 C1153 1.368 1_554 S
C1154 C1155 1.404 . S
C1155 H1142 0.930 . S
C1155 C1154 1.404 . S
C1155 C1156 1.390 . S
C1156 C1155 1.390 . S
C1156 C1157 1.394 . S
C1156 C1162 1.465 . S
C1157 C1152 1.399 1_554 S
C1157 C1156 1.394 . S
C1157 C1158 1.516 . S
C1158 C1157 1.516 . S
C1158 C1159 1.502 . S
C1158 C1160 1.561 . S
C1158 C1161 1.526 . S
C1159 H1143 0.959 . S
C1159 H1144 0.959 . S
C1159 H1145 0.961 . S
C1159 C1158 1.502 . S
C1160 H1146 0.960 . S
C1160 H1147 0.961 . S
C1160 H1148 0.959 . S
C1160 C1158 1.561 . S
C1161 C1158 1.526 . S
C1161 C1162 1.396 . S
C1161 C1166 1.390 . S
C1162 C1156 1.465 . S
C1162 C1161 1.396 . S
C1162 C1163 1.399 . S
C1163 H1149 0.929 . S
C1163 C1162 1.399 . S
C1163 C1164 1.385 . S
C1164 H1150 0.931 . S
C1164 C1163 1.385 . S
C1164 C1165 1.389 . S
C1165 C1164 1.389 . S
C1165 C1166 1.387 . S
C1166 H1151 0.930 . S
C1166 C1161 1.390 . S
C1166 C1165 1.387 . S
H1167 C1179 0.930 . S
H1168 C1181 0.930 . S
H1169 C1182 0.930 . S
H1170 C1186 0.959 . S
H1171 C1186 0.959 . S
H1172 C1186 0.961 . S
H1173 C1187 0.960 . S
H1174 C1187 0.961 . S
H1175 C1187 0.959 . S
H1176 C1190 0.929 . S
H1177 C1191 0.931 . S
H1178 C1193 0.930 . S
C1179 H1167 0.930 . S
C1179 C1180 1.399 . S
C1179 C1184 1.399 . S
C1180 C1179 1.399 . S
C1180 C1181 1.376 . S
C1181 H1168 0.930 . S
C1181 C1180 1.376 . S
C1181 C1182 1.388 . S
C1182 H1169 0.930 . S
C1182 C1181 1.388 . S
C1182 C1183 1.390 . S
C1183 C1182 1.390 . S
C1183 C1184 1.394 . S
C1183 C1189 1.465 . S
C1184 C1179 1.399 . S
C1184 C1183 1.394 . S
C1184 C1185 1.516 . S
C1185 C1184 1.516 . S
C1185 C1186 1.502 . S
C1185 C1187 1.561 . S
C1185 C1188 1.526 . S
C1186 H1170 0.959 . S
C1186 H1171 0.959 . S
C1186 H1172 0.961 . S
C1186 C1185 1.502 . S
C1187 H1173 0.960 . S
C1187 H1174 0.961 . S
C1187 H1175 0.959 . S
C1187 C1185 1.561 . S
C1188 C1185 1.526 . S
C1188 C1189 1.396 . S
C1188 C1193 1.390 . S
C1189 C1183 1.465 . S
C1189 C1188 1.396 . S
C1189 C1190 1.399 . S
C1190 H1176 0.929 . S
C1190 C1189 1.399 . S
C1190 C1191 1.385 . S
C1191 H1177 0.931 . S
C1191 C1190 1.385 . S
C1191 C1192 1.389 . S
C1192 C1191 1.389 . S
C1192 C1193 1.387 . S
C1193 H1178 0.930 . S
C1193 C1188 1.390 . S
C1193 C1192 1.387 . S
H1194 C1206 0.930 . S
H1195 C1208 0.930 . S
H1196 C1209 0.930 . S
H1197 C1213 0.959 . S
H1198 C1213 0.959 . S
H1199 C1213 0.961 . S
H1200 C1214 0.960 . S
H1201 C1214 0.961 . S
H1202 C1214 0.959 . S
H1203 C1217 0.929 . S
H1204 C1218 0.931 1_655 S
H1205 C1220 0.930 . S
C1206 H1194 0.930 . S
C1206 C1207 1.399 . S
C1206 C1211 1.399 . S
C1207 C1206 1.399 . S
C1207 C1208 1.376 1_455 S
C1208 H1195 0.930 . S
C1208 C1207 1.376 1_655 S
C1208 C1209 1.388 . S
C1209 H1196 0.930 . S
C1209 C1208 1.388 . S
C1209 C1210 1.390 1_655 S
C1210 C1209 1.390 1_455 S
C1210 C1211 1.394 . S
C1210 C1216 1.465 . S
C1211 C1206 1.399 . S
C1211 C1210 1.394 . S
C1211 C1212 1.516 . S
C1212 C1211 1.516 . S
C1212 C1213 1.502 . S
C1212 C1214 1.561 . S
C1212 C1215 1.526 . S
C1213 H1197 0.959 . S
C1213 H1198 0.959 . S
C1213 H1199 0.961 . S
C1213 C1212 1.502 . S
C1214 H1200 0.960 . S
C1214 H1201 0.961 . S
C1214 H1202 0.959 . S
C1214 C1212 1.561 . S
C1215 C1212 1.526 . S
C1215 C1216 1.396 . S
C1215 C1220 1.390 . S
C1216 C1210 1.465 . S
C1216 C1215 1.396 . S
C1216 C1217 1.399 1_455 S
C1217 H1203 0.929 . S
C1217 C1216 1.399 1_655 S
C1217 C1218 1.385 1_655 S
C1218 H1204 0.931 1_455 S
C1218 C1217 1.385 1_455 S
C1218 C1219 1.389 . S
C1219 C1218 1.389 . S
C1219 C1220 1.387 . S
C1220 H1205 0.930 . S
C1220 C1215 1.390 . S
C1220 C1219 1.387 . S
H1221 C1233 0.930 . S
H1222 C1235 0.930 . S
H1223 C1236 0.930 . S
H1224 C1240 0.959 . S
H1225 C1240 0.959 . S
H1226 C1240 0.961 . S
H1227 C1241 0.960 . S
H1228 C1241 0.961 . S
H1229 C1241 0.959 . S
H1230 C1244 0.929 . S
H1231 C1245 0.931 . S
H1232 C1247 0.930 . S
C1233 H1221 0.930 . S
C1233 C1234 1.399 . S
C1233 C1238 1.399 . S
C1234 C1233 1.399 . S
C1234 C1235 1.376 . S
C1235 H1222 0.930 . S
C1235 C1234 1.376 . S
C1235 C1236 1.388 . S
C1236 H1223 0.930 . S
C1236 C1235 1.388 . S
C1236 C1237 1.390 . S
C1237 C1236 1.390 . S
C1237 C1238 1.394 . S
C1237 C1243 1.465 . S
C1238 C1233 1.399 . S
C1238 C1237 1.394 . S
C1238 C1239 1.516 . S
C1239 C1238 1.516 . S
C1239 C1240 1.502 . S
C1239 C1241 1.561 . S
C1239 C1242 1.526 . S
C1240 H1224 0.959 . S
C1240 H1225 0.959 . S
C1240 H1226 0.961 . S
C1240 C1239 1.502 . S
C1241 H1227 0.960 . S
C1241 H1228 0.961 . S
C1241 H1229 0.959 . S
C1241 C1239 1.561 . S
C1242 C1239 1.526 . S
C1242 C1243 1.396 . S
C1242 C1247 1.390 . S
C1243 C1237 1.465 . S
C1243 C1242 1.396 . S
C1243 C1244 1.399 . S
C1244 H1230 0.929 . S
C1244 C1243 1.399 . S
C1244 C1245 1.385 . S
C1245 H1231 0.931 . S
C1245 C1244 1.385 . S
C1245 C1246 1.389 . S
C1246 C1245 1.389 . S
C1246 C1247 1.387 . S
C1247 H1232 0.930 . S
C1247 C1242 1.390 . S
C1247 C1246 1.387 . S
H1248 C1260 0.930 . S
H1249 C1262 0.930 . S
H1250 C1263 0.930 . S
H1251 C1267 0.959 . S
H1252 C1267 0.959 . S
H1253 C1267 0.961 . S
H1254 C1268 0.960 . S
H1255 C1268 0.961 . S
H1256 C1268 0.959 . S
H1257 C1271 0.929 . S
H1258 C1272 0.931 . S
H1259 C1274 0.930 . S
C1260 H1248 0.930 . S
C1260 C1261 1.399 . S
C1260 C1265 1.399 . S
C1261 C1260 1.399 . S
C1261 C1262 1.376 . S
C1262 H1249 0.930 . S
C1262 C1261 1.376 . S
C1262 C1263 1.388 . S
C1263 H1250 0.930 . S
C1263 C1262 1.388 . S
C1263 C1264 1.390 . S
C1264 C1263 1.390 . S
C1264 C1265 1.394 . S
C1264 C1270 1.465 . S
C1265 C1260 1.399 . S
C1265 C1264 1.394 . S
C1265 C1266 1.516 . S
C1266 C1265 1.516 . S
C1266 C1267 1.502 . S
C1266 C1268 1.561 . S
C1266 C1269 1.526 . S
C1267 H1251 0.959 . S
C1267 H1252 0.959 . S
C1267 H1253 0.961 . S
C1267 C1266 1.502 . S
C1268 H1254 0.960 . S
C1268 H1255 0.961 . S
C1268 H1256 0.959 . S
C1268 C1266 1.561 . S
C1269 C1266 1.526 . S
C1269 C1270 1.396 . S
C1269 C1274 1.390 . S
C1270 C1264 1.465 . S
C1270 C1269 1.396 . S
C1270 C1271 1.399 . S
C1271 H1257 0.929 . S
C1271 C1270 1.399 . S
C1271 C1272 1.385 . S
C1272 H1258 0.931 . S
C1272 C1271 1.385 . S
C1272 C1273 1.389 . S
C1273 C1272 1.389 . S
C1273 C1274 1.387 . S
C1274 H1259 0.930 . S
C1274 C1269 1.390 . S
C1274 C1273 1.387 . S
H1275 C1287 0.930 . S
H1276 C1289 0.930 . S
H1277 C1290 0.930 . S
H1278 C1294 0.959 . S
H1279 C1294 0.959 . S
H1280 C1294 0.961 . S
H1281 C1295 0.960 . S
H1282 C1295 0.961 . S
H1283 C1295 0.959 . S
H1284 C1298 0.929 . S
H1285 C1299 0.931 . S
H1286 C1301 0.930 . S
C1287 H1275 0.930 . S
C1287 C1288 1.399 . S
C1287 C1292 1.399 . S
C1288 C1287 1.399 . S
C1288 C1289 1.376 . S
C1289 H1276 0.930 . S
C1289 C1288 1.376 . S
C1289 C1290 1.388 . S
C1290 H1277 0.930 . S
C1290 C1289 1.388 . S
C1290 C1291 1.390 . S
C1291 C1290 1.390 . S
C1291 C1292 1.394 . S
C1291 C1297 1.465 . S
C1292 C1287 1.399 . S
C1292 C1291 1.394 . S
C1292 C1293 1.516 . S
C1293 C1292 1.516 . S
C1293 C1294 1.502 . S
C1293 C1295 1.561 . S
C1293 C1296 1.526 . S
C1294 H1278 0.959 . S
C1294 H1279 0.959 . S
C1294 H1280 0.961 . S
C1294 C1293 1.502 . S
C1295 H1281 0.960 . S
C1295 H1282 0.961 . S
C1295 H1283 0.959 . S
C1295 C1293 1.561 . S
C1296 C1293 1.526 . S
C1296 C1297 1.396 . S
C1296 C1301 1.390 . S
C1297 C1291 1.465 . S
C1297 C1296 1.396 . S
C1297 C1298 1.399 . S
C1298 H1284 0.929 . S
C1298 C1297 1.399 . S
C1298 C1299 1.385 . S
C1299 H1285 0.931 . S
C1299 C1298 1.385 . S
C1299 C1300 1.389 . S
C1300 C1299 1.389 . S
C1300 C1301 1.387 . S
C1301 H1286 0.930 . S
C1301 C1296 1.390 . S
C1301 C1300 1.387 . S
H1302 C1314 0.930 . S
H1303 C1316 0.930 1_655 S
H1304 C1317 0.930 . S
H1305 C1321 0.959 . S
H1306 C1321 0.959 . S
H1307 C1321 0.961 . S
H1308 C1322 0.960 . S
H1309 C1322 0.961 . S
H1310 C1322 0.959 . S
H1311 C1325 0.929 . S
H1312 C1326 0.931 . S
H1313 C1328 0.930 . S
C1314 H1302 0.930 . S
C1314 C1315 1.399 . S
C1314 C1319 1.399 1_655 S
C1315 C1314 1.399 . S
C1315 C1316 1.376 1_655 S
C1316 H1303 0.930 1_455 S
C1316 C1315 1.376 1_455 S
C1316 C1317 1.388 . S
C1317 H1304 0.930 . S
C1317 C1316 1.388 . S
C1317 C1318 1.390 . S
C1318 C1317 1.390 . S
C1318 C1319 1.394 . S
C1318 C1324 1.465 . S
C1319 C1314 1.399 1_455 S
C1319 C1318 1.394 . S
C1319 C1320 1.516 . S
C1320 C1319 1.516 . S
C1320 C1321 1.502 . S
C1320 C1322 1.561 . S
C1320 C1323 1.526 . S
C1321 H1305 0.959 . S
C1321 H1306 0.959 . S
C1321 H1307 0.961 . S
C1321 C1320 1.502 . S
C1322 H1308 0.960 . S
C1322 H1309 0.961 . S
C1322 H1310 0.959 . S
C1322 C1320 1.561 . S
C1323 C1320 1.526 . S
C1323 C1324 1.396 . S
C1323 C1328 1.390 . S
C1324 C1318 1.465 . S
C1324 C1323 1.396 . S
C1324 C1325 1.399 . S
C1325 H1311 0.929 . S
C1325 C1324 1.399 . S
C1325 C1326 1.385 . S
C1326 H1312 0.931 . S
C1326 C1325 1.385 . S
C1326 C1327 1.389 . S
C1327 C1326 1.389 . S
C1327 C1328 1.387 . S
C1328 H1313 0.930 . S
C1328 C1323 1.390 . S
C1328 C1327 1.387 . S
H1329 C1341 0.930 . S
H1330 C1343 0.930 . S
H1331 C1344 0.930 . S
H1332 C1348 0.959 . S
H1333 C1348 0.959 . S
H1334 C1348 0.961 . S
H1335 C1349 0.960 . S
H1336 C1349 0.961 . S
H1337 C1349 0.959 . S
H1338 C1352 0.929 . S
H1339 C1353 0.931 . S
H1340 C1355 0.930 . S
C1341 H1329 0.930 . S
C1341 C1342 1.399 . S
C1341 C1346 1.399 . S
C1342 C1341 1.399 . S
C1342 C1343 1.376 . S
C1343 H1330 0.930 . S
C1343 C1342 1.376 . S
C1343 C1344 1.388 . S
C1344 H1331 0.930 . S
C1344 C1343 1.388 . S
C1344 C1345 1.390 . S
C1345 C1344 1.390 . S
C1345 C1346 1.394 . S
C1345 C1351 1.465 . S
C1346 C1341 1.399 . S
C1346 C1345 1.394 . S
C1346 C1347 1.516 . S
C1347 C1346 1.516 . S
C1347 C1348 1.502 . S
C1347 C1349 1.561 . S
C1347 C1350 1.526 . S
C1348 H1332 0.959 . S
C1348 H1333 0.959 . S
C1348 H1334 0.961 . S
C1348 C1347 1.502 . S
C1349 H1335 0.960 . S
C1349 H1336 0.961 . S
C1349 H1337 0.959 . S
C1349 C1347 1.561 . S
C1350 C1347 1.526 . S
C1350 C1351 1.396 . S
C1350 C1355 1.390 . S
C1351 C1345 1.465 . S
C1351 C1350 1.396 . S
C1351 C1352 1.399 . S
C1352 H1338 0.929 . S
C1352 C1351 1.399 . S
C1352 C1353 1.385 . S
C1353 H1339 0.931 . S
C1353 C1352 1.385 . S
C1353 C1354 1.389 . S
C1354 C1353 1.389 . S
C1354 C1355 1.387 . S
C1355 H1340 0.930 . S
C1355 C1350 1.390 . S
C1355 C1354 1.387 . S
H1356 C1368 0.930 . S
H1357 C1370 0.930 . S
H1358 C1371 0.930 . S
H1359 C1375 0.959 . S
H1360 C1375 0.959 . S
H1361 C1375 0.961 . S
H1362 C1376 0.960 . S
H1363 C1376 0.961 . S
H1364 C1376 0.959 . S
H1365 C1379 0.929 . S
H1366 C1380 0.931 . S
H1367 C1382 0.930 . S
C1368 H1356 0.930 . S
C1368 C1369 1.399 . S
C1368 C1373 1.399 . S
C1369 C1368 1.399 . S
C1369 C1370 1.376 . S
C1370 H1357 0.930 . S
C1370 C1369 1.376 . S
C1370 C1371 1.388 . S
C1371 H1358 0.930 . S
C1371 C1370 1.388 . S
C1371 C1372 1.390 . S
C1372 C1371 1.390 . S
C1372 C1373 1.394 . S
C1372 C1378 1.465 . S
C1373 C1368 1.399 . S
C1373 C1372 1.394 . S
C1373 C1374 1.516 . S
C1374 C1373 1.516 . S
C1374 C1375 1.502 . S
C1374 C1376 1.561 . S
C1374 C1377 1.526 . S
C1375 H1359 0.959 . S
C1375 H1360 0.959 . S
C1375 H1361 0.961 . S
C1375 C1374 1.502 . S
C1376 H1362 0.960 . S
C1376 H1363 0.961 . S
C1376 H1364 0.959 . S
C1376 C1374 1.561 . S
C1377 C1374 1.526 . S
C1377 C1378 1.396 . S
C1377 C1382 1.390 . S
C1378 C1372 1.465 . S
C1378 C1377 1.396 . S
C1378 C1379 1.399 . S
C1379 H1365 0.929 . S
C1379 C1378 1.399 . S
C1379 C1380 1.385 . S
C1380 H1366 0.931 . S
C1380 C1379 1.385 . S
C1380 C1381 1.389 . S
C1381 C1380 1.389 . S
C1381 C1382 1.387 . S
C1382 H1367 0.930 . S
C1382 C1377 1.390 . S
C1382 C1381 1.387 . S
H1383 C1395 0.930 . S
H1384 C1397 0.930 1_554 S
H1385 C1398 0.930 . S
H1386 C1402 0.959 . S
H1387 C1402 0.959 . S
H1388 C1402 0.961 . S
H1389 C1403 0.960 . S
H1390 C1403 0.961 . S
H1391 C1403 0.959 . S
H1392 C1406 0.929 . S
H1393 C1407 0.931 . S
H1394 C1409 0.930 . S
C1395 H1383 0.930 . S
C1395 C1396 1.399 . S
C1395 C1400 1.399 . S
C1396 C1395 1.399 . S
C1396 C1397 1.376 . S
C1397 H1384 0.930 1_556 S
C1397 C1396 1.376 . S
C1397 C1398 1.388 . S
C1398 H1385 0.930 . S
C1398 C1397 1.388 . S
C1398 C1399 1.390 . S
C1399 C1398 1.390 . S
C1399 C1400 1.394 . S
C1399 C1405 1.465 . S
C1400 C1395 1.399 . S
C1400 C1399 1.394 . S
C1400 C1401 1.516 . S
C1401 C1400 1.516 . S
C1401 C1402 1.502 . S
C1401 C1403 1.561 . S
C1401 C1404 1.526 . S
C1402 H1386 0.959 . S
C1402 H1387 0.959 . S
C1402 H1388 0.961 . S
C1402 C1401 1.502 . S
C1403 H1389 0.960 . S
C1403 H1390 0.961 . S
C1403 H1391 0.959 . S
C1403 C1401 1.561 . S
C1404 C1401 1.526 . S
C1404 C1405 1.396 . S
C1404 C1409 1.390 . S
C1405 C1399 1.465 . S
C1405 C1404 1.396 . S
C1405 C1406 1.399 . S
C1406 H1392 0.929 . S
C1406 C1405 1.399 . S
C1406 C1407 1.385 . S
C1407 H1393 0.931 . S
C1407 C1406 1.385 . S
C1407 C1408 1.389 . S
C1408 C1407 1.389 . S
C1408 C1409 1.387 . S
C1409 H1394 0.930 . S
C1409 C1404 1.390 . S
C1409 C1408 1.387 . S
H1410 C1422 0.930 . S
H1411 C1424 0.926 1_655 S
H1412 C1425 0.930 . S
H1413 C1429 0.959 . S
H1414 C1429 0.959 . S
H1415 C1429 0.961 . S
H1416 C1430 0.960 . S
H1417 C1430 0.961 . S
H1418 C1430 0.959 . S
H1419 C1433 0.929 . S
H1420 C1434 0.931 . S
H1421 C1436 0.930 . S
C1422 H1410 0.930 . S
C1422 C1423 1.399 . S
C1422 C1427 1.399 1_655 S
C1423 C1422 1.399 . S
C1423 C1424 1.369 1_655 S
C1424 H1411 0.926 1_455 S
C1424 C1423 1.369 1_455 S
C1424 C1425 1.401 . S
C1425 H1412 0.930 . S
C1425 C1424 1.401 . S
C1425 C1426 1.390 . S
C1426 C1425 1.390 . S
C1426 C1427 1.394 . S
C1426 C1432 1.465 . S
C1427 C1422 1.399 1_455 S
C1427 C1426 1.394 . S
C1427 C1428 1.516 . S
C1428 C1427 1.516 . S
C1428 C1429 1.502 . S
C1428 C1430 1.561 . S
C1428 C1431 1.526 . S
C1429 H1413 0.959 . S
C1429 H1414 0.959 . S
C1429 H1415 0.961 . S
C1429 C1428 1.502 . S
C1430 H1416 0.960 . S
C1430 H1417 0.961 . S
C1430 H1418 0.959 . S
C1430 C1428 1.561 . S
C1431 C1428 1.526 . S
C1431 C1432 1.396 . S
C1431 C1436 1.390 . S
C1432 C1426 1.465 . S
C1432 C1431 1.396 . S
C1432 C1433 1.399 . S
C1433 H1419 0.929 . S
C1433 C1432 1.399 . S
C1433 C1434 1.385 . S
C1434 H1420 0.931 . S
C1434 C1433 1.385 . S
C1434 C1435 1.389 . S
C1435 C1434 1.389 . S
C1435 C1436 1.387 . S
C1436 H1421 0.930 . S
C1436 C1431 1.390 . S
C1436 C1435 1.387 . S
H1437 C1449 0.930 . S
H1438 C1451 0.930 . S
H1439 C1452 0.930 . S
H1440 C1456 0.959 . S
H1441 C1456 0.959 . S
H1442 C1456 0.961 . S
H1443 C1457 0.960 . S
H1444 C1457 0.961 . S
H1445 C1457 0.959 . S
H1446 C1460 0.929 . S
H1447 C1461 0.931 . S
H1448 C1463 0.930 . S
C1449 H1437 0.930 . S
C1449 C1450 1.399 . S
C1449 C1454 1.399 . S
C1450 C1449 1.399 . S
C1450 C1451 1.376 . S
C1451 H1438 0.930 . S
C1451 C1450 1.376 . S
C1451 C1452 1.388 . S
C1452 H1439 0.930 . S
C1452 C1451 1.388 . S
C1452 C1453 1.390 . S
C1453 C1452 1.390 . S
C1453 C1454 1.394 . S
C1453 C1459 1.465 . S
C1454 C1449 1.399 . S
C1454 C1453 1.394 . S
C1454 C1455 1.516 . S
C1455 C1454 1.516 . S
C1455 C1456 1.502 . S
C1455 C1457 1.561 . S
C1455 C1458 1.526 . S
C1456 H1440 0.959 . S
C1456 H1441 0.959 . S
C1456 H1442 0.961 . S
C1456 C1455 1.502 . S
C1457 H1443 0.960 . S
C1457 H1444 0.961 . S
C1457 H1445 0.959 . S
C1457 C1455 1.561 . S
C1458 C1455 1.526 . S
C1458 C1459 1.396 . S
C1458 C1463 1.390 . S
C1459 C1453 1.465 . S
C1459 C1458 1.396 . S
C1459 C1460 1.399 . S
C1460 H1446 0.929 . S
C1460 C1459 1.399 . S
C1460 C1461 1.385 . S
C1461 H1447 0.931 . S
C1461 C1460 1.385 . S
C1461 C1462 1.389 . S
C1462 C1461 1.389 . S
C1462 C1463 1.387 . S
C1463 H1448 0.930 . S
C1463 C1458 1.390 . S
C1463 C1462 1.387 . S
H1464 C1476 0.930 . S
H1465 C1478 0.930 . S
H1466 C1479 0.930 . S
H1467 C1483 0.959 . S
H1468 C1483 0.959 . S
H1469 C1483 0.961 . S
H1470 C1484 0.960 . S
H1471 C1484 0.961 . S
H1472 C1484 0.959 . S
H1473 C1487 0.929 . S
H1474 C1488 0.931 . S
H1475 C1490 0.930 . S
C1476 H1464 0.930 . S
C1476 C1477 1.399 . S
C1476 C1481 1.399 . S
C1477 C1476 1.399 . S
C1477 C1478 1.376 . S
C1478 H1465 0.930 . S
C1478 C1477 1.376 . S
C1478 C1479 1.388 . S
C1479 H1466 0.930 . S
C1479 C1478 1.388 . S
C1479 C1480 1.390 . S
C1480 C1479 1.390 . S
C1480 C1481 1.394 . S
C1480 C1486 1.465 . S
C1481 C1476 1.399 . S
C1481 C1480 1.394 . S
C1481 C1482 1.516 . S
C1482 C1481 1.516 . S
C1482 C1483 1.502 . S
C1482 C1484 1.561 . S
C1482 C1485 1.526 . S
C1483 H1467 0.959 . S
C1483 H1468 0.959 . S
C1483 H1469 0.961 . S
C1483 C1482 1.502 . S
C1484 H1470 0.960 . S
C1484 H1471 0.961 . S
C1484 H1472 0.959 . S
C1484 C1482 1.561 . S
C1485 C1482 1.526 . S
C1485 C1486 1.396 . S
C1485 C1490 1.390 . S
C1486 C1480 1.465 . S
C1486 C1485 1.396 . S
C1486 C1487 1.399 . S
C1487 H1473 0.929 . S
C1487 C1486 1.399 . S
C1487 C1488 1.385 . S
C1488 H1474 0.931 . S
C1488 C1487 1.385 . S
C1488 C1489 1.389 . S
C1489 C1488 1.389 . S
C1489 C1490 1.387 . S
C1490 H1475 0.930 . S
C1490 C1485 1.390 . S
C1490 C1489 1.387 . S
H1491 C1503 0.930 . S
H1492 C1505 0.930 . S
H1493 C1506 0.930 . S
H1494 C1510 0.959 . S
H1495 C1510 0.959 . S
H1496 C1510 0.961 . S
H1497 C1511 0.960 . S
H1498 C1511 0.961 . S
H1499 C1511 0.959 . S
H1500 C1514 0.929 . S
H1501 C1515 0.931 . S
H1502 C1517 0.930 . S
C1503 H1491 0.930 . S
C1503 C1504 1.399 . S
C1503 C1508 1.399 1_565 S
C1504 C1503 1.399 . S
C1504 C1505 1.376 . S
C1505 H1492 0.930 . S
C1505 C1504 1.376 . S
C1505 C1506 1.388 1_565 S
C1506 H1493 0.930 . S
C1506 C1505 1.388 1_545 S
C1506 C1507 1.390 . S
C1507 C1506 1.390 . S
C1507 C1508 1.394 . S
C1507 C1513 1.465 . S
C1508 C1503 1.399 1_545 S
C1508 C1507 1.394 . S
C1508 C1509 1.516 . S
C1509 C1508 1.516 . S
C1509 C1510 1.502 . S
C1509 C1511 1.561 . S
C1509 C1512 1.526 . S
C1510 H1494 0.959 . S
C1510 H1495 0.959 . S
C1510 H1496 0.961 . S
C1510 C1509 1.502 . S
C1511 H1497 0.960 . S
C1511 H1498 0.961 . S
C1511 H1499 0.959 . S
C1511 C1509 1.561 . S
C1512 C1509 1.526 . S
C1512 C1513 1.396 . S
C1512 C1517 1.390 . S
C1513 C1507 1.465 . S
C1513 C1512 1.396 . S
C1513 C1514 1.399 . S
C1514 H1500 0.929 . S
C1514 C1513 1.399 . S
C1514 C1515 1.385 . S
C1515 H1501 0.931 . S
C1515 C1514 1.385 . S
C1515 C1516 1.389 . S
C1516 C1515 1.389 . S
C1516 C1517 1.387 . S
C1517 H1502 0.930 . S
C1517 C1512 1.390 . S
C1517 C1516 1.387 . S
H1518 C1530 0.930 . S
H1519 C1532 0.930 . S
H1520 C1533 0.930 . S
H1521 C1537 0.959 . S
H1522 C1537 0.959 . S
H1523 C1537 0.961 . S
H1524 C1538 0.960 . S
H1525 C1538 0.961 . S
H1526 C1538 0.959 . S
H1527 C1541 0.929 . S
H1528 C1542 0.931 . S
H1529 C1544 0.930 . S
C1530 H1518 0.930 . S
C1530 C1531 1.399 . S
C1530 C1535 1.399 . S
C1531 C1530 1.399 . S
C1531 C1532 1.376 . S
C1532 H1519 0.930 . S
C1532 C1531 1.376 . S
C1532 C1533 1.388 . S
C1533 H1520 0.930 . S
C1533 C1532 1.388 . S
C1533 C1534 1.390 . S
C1534 C1533 1.390 . S
C1534 C1535 1.394 . S
C1534 C1540 1.465 . S
C1535 C1530 1.399 . S
C1535 C1534 1.394 . S
C1535 C1536 1.516 . S
C1536 C1535 1.516 . S
C1536 C1537 1.502 . S
C1536 C1538 1.561 . S
C1536 C1539 1.526 . S
C1537 H1521 0.959 . S
C1537 H1522 0.959 . S
C1537 H1523 0.961 . S
C1537 C1536 1.502 . S
C1538 H1524 0.960 . S
C1538 H1525 0.961 . S
C1538 H1526 0.959 . S
C1538 C1536 1.561 . S
C1539 C1536 1.526 . S
C1539 C1540 1.396 . S
C1539 C1544 1.390 . S
C1540 C1534 1.465 . S
C1540 C1539 1.396 . S
C1540 C1541 1.399 . S
C1541 H1527 0.929 . S
C1541 C1540 1.399 . S
C1541 C1542 1.385 . S
C1542 H1528 0.931 . S
C1542 C1541 1.385 . S
C1542 C1543 1.389 . S
C1543 C1542 1.389 . S
C1543 C1544 1.387 . S
C1544 H1529 0.930 . S
C1544 C1539 1.390 . S
C1544 C1543 1.387 . S
H1545 C1557 0.930 . S
H1546 C1559 0.930 . S
H1547 C1560 0.930 . S
H1548 C1564 0.959 . S
H1549 C1564 0.959 . S
H1550 C1564 0.961 . S
H1551 C1565 0.960 . S
H1552 C1565 0.961 . S
H1553 C1565 0.959 . S
H1554 C1568 0.929 . S
H1555 C1569 0.931 . S
H1556 C1571 0.930 1_556 S
C1557 H1545 0.930 . S
C1557 C1558 1.399 1_556 S
C1557 C1562 1.399 1_546 S
C1558 C1557 1.399 1_554 S
C1558 C1559 1.376 . S
C1559 H1546 0.930 . S
C1559 C1558 1.376 . S
C1559 C1560 1.388 . S
C1560 H1547 0.930 . S
C1560 C1559 1.388 . S
C1560 C1561 1.390 1_545 S
C1561 C1560 1.390 1_565 S
C1561 C1562 1.394 . S
C1561 C1567 1.465 . S
C1562 C1557 1.399 1_564 S
C1562 C1561 1.394 . S
C1562 C1563 1.516 1_554 S
C1563 C1562 1.516 1_556 S
C1563 C1564 1.502 . S
C1563 C1565 1.561 1_556 S
C1563 C1566 1.526 1_556 S
C1564 H1548 0.959 . S
C1564 H1549 0.959 . S
C1564 H1550 0.961 . S
C1564 C1563 1.502 . S
C1565 H1551 0.960 . S
C1565 H1552 0.961 . S
C1565 H1553 0.959 . S
C1565 C1563 1.561 1_554 S
C1566 C1563 1.526 1_554 S
C1566 C1567 1.396 . S
C1566 C1571 1.390 . S
C1567 C1561 1.465 . S
C1567 C1566 1.396 . S
C1567 C1568 1.399 . S
C1568 H1554 0.929 . S
C1568 C1567 1.399 . S
C1568 C1569 1.385 . S
C1569 H1555 0.931 . S
C1569 C1568 1.385 . S
C1569 C1570 1.389 . S
C1570 C1569 1.389 . S
C1570 C1571 1.387 . S
C1571 H1556 0.930 1_554 S
C1571 C1566 1.390 . S
C1571 C1570 1.387 . S
H1572 C1584 0.930 . S
H1573 C1586 0.930 . S
H1574 C1587 0.930 . S
H1575 C1591 0.959 . S
H1576 C1591 0.959 . S
H1577 C1591 0.961 . S
H1578 C1592 0.960 . S
H1579 C1592 0.961 . S
H1580 C1592 0.959 . S
H1581 C1595 0.929 . S
H1582 C1596 0.931 . S
H1583 C1598 0.930 . S
C1584 H1572 0.930 . S
C1584 C1585 1.399 . S
C1584 C1589 1.399 . S
C1585 C1584 1.399 . S
C1585 C1586 1.376 . S
C1586 H1573 0.930 . S
C1586 C1585 1.376 . S
C1586 C1587 1.388 . S
C1587 H1574 0.930 . S
C1587 C1586 1.388 . S
C1587 C1588 1.390 . S
C1588 C1587 1.390 . S
C1588 C1589 1.394 . S
C1588 C1594 1.465 . S
C1589 C1584 1.399 . S
C1589 C1588 1.394 . S
C1589 C1590 1.516 . S
C1590 C1589 1.516 . S
C1590 C1591 1.502 . S
C1590 C1592 1.561 . S
C1590 C1593 1.526 . S
C1591 H1575 0.959 . S
C1591 H1576 0.959 . S
C1591 H1577 0.961 . S
C1591 C1590 1.502 . S
C1592 H1578 0.960 . S
C1592 H1579 0.961 . S
C1592 H1580 0.959 . S
C1592 C1590 1.561 . S
C1593 C1590 1.526 . S
C1593 C1594 1.396 . S
C1593 C1598 1.390 . S
C1594 C1588 1.465 . S
C1594 C1593 1.396 . S
C1594 C1595 1.399 . S
C1595 H1581 0.929 . S
C1595 C1594 1.399 . S
C1595 C1596 1.385 . S
C1596 H1582 0.931 . S
C1596 C1595 1.385 . S
C1596 C1597 1.389 . S
C1597 C1596 1.389 . S
C1597 C1598 1.387 . S
C1598 H1583 0.930 . S
C1598 C1593 1.390 . S
C1598 C1597 1.387 . S
H1599 C1611 0.930 . S
H1600 C1613 0.930 . S
H1601 C1614 0.930 . S
H1602 C1618 0.959 1_556 S
H1603 C1618 0.959 . S
H1604 C1618 0.961 . S
H1605 C1619 0.960 . S
H1606 C1619 0.961 . S
H1607 C1619 0.959 . S
H1608 C1622 0.929 . S
H1609 C1623 0.931 . S
H1610 C1625 0.930 . S
C1611 H1599 0.930 . S
C1611 C1612 1.399 . S
C1611 C1616 1.399 . S
C1612 C1611 1.399 . S
C1612 C1613 1.376 1_554 S
C1613 H1600 0.930 . S
C1613 C1612 1.376 1_556 S
C1613 C1614 1.388 . S
C1614 H1601 0.930 . S
C1614 C1613 1.388 . S
C1614 C1615 1.390 1_556 S
C1615 C1614 1.390 1_554 S
C1615 C1616 1.394 . S
C1615 C1621 1.465 1_554 S
C1616 C1611 1.399 . S
C1616 C1615 1.394 . S
C1616 C1617 1.516 . S
C1617 C1616 1.516 . S
C1617 C1618 1.502 . S
C1617 C1619 1.561 . S
C1617 C1620 1.526 . S
C1618 H1602 0.959 1_554 S
C1618 H1603 0.959 . S
C1618 H1604 0.961 . S
C1618 C1617 1.502 . S
C1619 H1605 0.960 . S
C1619 H1606 0.961 . S
C1619 H1607 0.959 . S
C1619 C1617 1.561 . S
C1620 C1617 1.526 . S
C1620 C1621 1.396 1_554 S
C1620 C1625 1.390 . S
C1621 C1615 1.465 1_556 S
C1621 C1620 1.396 1_556 S
C1621 C1622 1.399 . S
C1622 H1608 0.929 . S
C1622 C1621 1.399 . S
C1622 C1623 1.385 . S
C1623 H1609 0.931 . S
C1623 C1622 1.385 . S
C1623 C1624 1.389 . S
C1624 C1623 1.389 . S
C1624 C1625 1.387 1_556 S
C1625 H1610 0.930 . S
C1625 C1620 1.390 . S
C1625 C1624 1.387 1_554 S
H1626 C1638 0.930 . S
H1627 C1640 0.930 . S
H1628 C1641 0.930 . S
H1629 C1645 0.959 . S
H1630 C1645 0.959 . S
H1631 C1645 0.961 . S
H1632 C1646 0.960 . S
H1633 C1646 0.961 . S
H1634 C1646 0.959 . S
H1635 C1649 0.929 . S
H1636 C1650 0.931 . S
H1637 C1652 0.930 . S
C1638 H1626 0.930 . S
C1638 C1639 1.399 . S
C1638 C1643 1.399 . S
C1639 C1638 1.399 . S
C1639 C1640 1.376 . S
C1640 H1627 0.930 . S
C1640 C1639 1.376 . S
C1640 C1641 1.388 . S
C1641 H1628 0.930 . S
C1641 C1640 1.388 . S
C1641 C1642 1.390 . S
C1642 C1641 1.390 . S
C1642 C1643 1.394 . S
C1642 C1648 1.465 . S
C1643 C1638 1.399 . S
C1643 C1642 1.394 . S
C1643 C1644 1.516 . S
C1644 C1643 1.516 . S
C1644 C1645 1.502 . S
C1644 C1646 1.561 . S
C1644 C1647 1.526 . S
C1645 H1629 0.959 . S
C1645 H1630 0.959 . S
C1645 H1631 0.961 . S
C1645 C1644 1.502 . S
C1646 H1632 0.960 . S
C1646 H1633 0.961 . S
C1646 H1634 0.959 . S
C1646 C1644 1.561 . S
C1647 C1644 1.526 . S
C1647 C1648 1.396 . S
C1647 C1652 1.390 . S
C1648 C1642 1.465 . S
C1648 C1647 1.396 . S
C1648 C1649 1.399 . S
C1649 H1635 0.929 . S
C1649 C1648 1.399 . S
C1649 C1650 1.385 . S
C1650 H1636 0.931 . S
C1650 C1649 1.385 . S
C1650 C1651 1.389 . S
C1651 C1650 1.389 . S
C1651 C1652 1.387 . S
C1652 H1637 0.930 . S
C1652 C1647 1.390 . S
C1652 C1651 1.387 . S
H1653 C1665 0.930 . S
H1654 C1667 0.930 . S
H1655 C1668 0.930 . S
H1656 C1672 0.959 . S
H1657 C1672 0.959 . S
H1658 C1672 0.961 . S
H1659 C1673 0.960 . S
H1660 C1673 0.961 . S
H1661 C1673 0.959 . S
H1662 C1676 0.929 . S
H1663 C1677 0.931 . S
H1664 C1679 0.930 . S
C1665 H1653 0.930 . S
C1665 C1666 1.399 . S
C1665 C1670 1.399 . S
C1666 C1665 1.399 . S
C1666 C1667 1.376 . S
C1667 H1654 0.930 . S
C1667 C1666 1.376 . S
C1667 C1668 1.388 . S
C1668 H1655 0.930 . S
C1668 C1667 1.388 . S
C1668 C1669 1.390 . S
C1669 C1668 1.390 . S
C1669 C1670 1.394 . S
C1669 C1675 1.465 . S
C1670 C1665 1.399 . S
C1670 C1669 1.394 . S
C1670 C1671 1.516 . S
C1671 C1670 1.516 . S
C1671 C1672 1.502 . S
C1671 C1673 1.561 . S
C1671 C1674 1.526 . S
C1672 H1656 0.959 . S
C1672 H1657 0.959 . S
C1672 H1658 0.961 . S
C1672 C1671 1.502 . S
C1673 H1659 0.960 . S
C1673 H1660 0.961 . S
C1673 H1661 0.959 . S
C1673 C1671 1.561 . S
C1674 C1671 1.526 . S
C1674 C1675 1.396 . S
C1674 C1679 1.390 . S
C1675 C1669 1.465 . S
C1675 C1674 1.396 . S
C1675 C1676 1.399 . S
C1676 H1662 0.929 . S
C1676 C1675 1.399 . S
C1676 C1677 1.385 . S
C1677 H1663 0.931 . S
C1677 C1676 1.385 . S
C1677 C1678 1.389 . S
C1678 C1677 1.389 . S
C1678 C1679 1.387 . S
C1679 H1664 0.930 . S
C1679 C1674 1.390 . S
C1679 C1678 1.387 . S
C409 C373 1.007 . S
C397 C11 1.179 . S
C424 C19 1.385 . S
C436 C326 1.278 . S
C451 C37 1.206 . S
C463 C337 1.086 . S
C490 C362 1.188 . S
C478 C42 1.333 . S
C505 C25 1.128 1_455 S
C517 C380 0.985 . S
C544 C319 1.157 . S
C532 C28 1.306 . S
C571 C344 1.115 . S
C559 C51 1.150 . S
C598 C355 1.308 . S
C586 C5 1.370 . S
C613 C61 1.178 . S
C625 C356 0.953 . S
C652 C382 1.324 . S
C640 C81 1.331 . S
C679 C320 1.010 1_545 S
C667 C89 1.247 . S
C706 C346 1.244 . S
C694 C107 1.311 . S
C721 C56 1.152 . S
C733 C328 0.949 1_545 S
C748 C79 1.323 . S
C760 C338 1.287 . S
C775 C84 1.190 . S
C787 C364 0.967 . S
C814 C374 1.325 . S
C802 C109 1.348 . S
C841 C211 1.192 1_556 S
C829 C103 1.216 . S
C868 C194 0.980 . S
C856 C117 1.209 . S
C895 C220 1.307 . S
C883 C137 1.299 . S
C922 C238 1.087 . S
C910 C140 1.075 . S
C937 C67 1.241 . S
C949 C212 1.238 . S
C964 C70 1.213 . S
C976 C182 0.949 . S
C991 C135 1.339 . S
C1003 C236 1.362 . S
C1018 C163 1.288 . S
C1030 C193 1.339 . S
C1057 C247 1.082 . S
C1045 C39 1.162 . S
C1084 C272 1.276 . S
C1072 C47 1.383 . S
C1099 C9 1.207 . S
C1111 C283 1.086 . S
C1126 C14 1.331 . S
C1138 C308 1.181 . S
C1165 C254 1.011 . S
C1153 C53 1.115 . S
C1192 C265 1.197 . S
C1180 C0 1.303 . S
C1207 C23 1.170 . S
C1219 C290 0.974 . S
C1246 C301 1.261 . S
C1234 C33 1.366 . S
C1261 C159 1.184 . S
C1273 C302 0.961 . S
C1288 C123 1.357 . S
C1300 C256 1.267 . S
C1327 C266 1.067 . S
C1315 C131 1.172 . S
C1342 C149 1.236 . S
C1354 C292 1.267 . S
C1381 C274 1.102 . S
C1369 C154 1.058 . S
C1396 C121 1.263 . S
C1408 C284 1.255 . S
C1435 C310 1.109 . S
C1423 C126 1.119 . S
C1462 C248 1.304 . S
C1450 C151 1.356 . S
C1489 C175 1.046 . S
C1477 C145 1.275 . S
C1516 C230 1.131 . S
C1504 C75 1.155 . S
C1531 C95 1.328 . S
C1543 C184 1.268 . S
C1570 C202 1.075 . S
C1558 C98 1.135 . S
C1597 C176 1.190 . S
C1585 C165 1.291 . S
C1612 C112 1.115 . S
C1624 C218 1.077 1_556 S
C1639 C93 1.388 . S
C1651 C200 1.300 . S
C1666 C65 1.273 . S
C1678 C229 1.328 . S
