# Generated by pormake.
# Topology zzz, (3,6)-cn, num edge types: 1
# Building blocks:
#     Node 0, Type 0, BuildingBlock: MIDCAF_clean_linker_0, # of connection points: 3
#     Node 1, Type 0, BuildingBlock: MIDCAF_clean_linker_0, # of connection points: 3
#     Node 2, Type 0, BuildingBlock: MIDCAF_clean_linker_0, # of connection points: 3
#     Node 3, Type 0, BuildingBlock: MIDCAF_clean_linker_0, # of connection points: 3
#     Node 4, Type 0, BuildingBlock: MIDCAF_clean_linker_0, # of connection points: 3
#     Node 5, Type 0, BuildingBlock: MIDCAF_clean_linker_0, # of connection points: 3
#     Node 6, Type 0, BuildingBlock: MIDCAF_clean_linker_0, # of connection points: 3
#     Node 7, Type 0, BuildingBlock: MIDCAF_clean_linker_0, # of connection points: 3
#     Node 8, Type 1, BuildingBlock: KUMJIN_clean_sbu_1, # of connection points: 6
#     Node 9, Type 1, BuildingBlock: KUMJIN_clean_sbu_1, # of connection points: 6
#     Node 10, Type 1, BuildingBlock: KUMJIN_clean_sbu_1, # of connection points: 6
#     Node 11, Type 1, BuildingBlock: KUMJIN_clean_sbu_1, # of connection points: 6
#     Edge 12, Type (0, 1), BuildingBlock: UVAHIK_clean_linker_0, # of connection points: 2
#     Edge 13, Type (0, 1), BuildingBlock: UVAHIK_clean_linker_0, # of connection points: 2
#     Edge 14, Type (0, 1), BuildingBlock: UVAHIK_clean_linker_0, # of connection points: 2
#     Edge 15, Type (0, 1), BuildingBlock: UVAHIK_clean_linker_0, # of connection points: 2
#     Edge 16, Type (0, 1), BuildingBlock: UVAHIK_clean_linker_0, # of connection points: 2
#     Edge 17, Type (0, 1), BuildingBlock: UVAHIK_clean_linker_0, # of connection points: 2
#     Edge 18, Type (0, 1), BuildingBlock: UVAHIK_clean_linker_0, # of connection points: 2
#     Edge 19, Type (0, 1), BuildingBlock: UVAHIK_clean_linker_0, # of connection points: 2
#     Edge 20, Type (0, 1), BuildingBlock: UVAHIK_clean_linker_0, # of connection points: 2
#     Edge 21, Type (0, 1), BuildingBlock: UVAHIK_clean_linker_0, # of connection points: 2
#     Edge 22, Type (0, 1), BuildingBlock: UVAHIK_clean_linker_0, # of connection points: 2
#     Edge 23, Type (0, 1), BuildingBlock: UVAHIK_clean_linker_0, # of connection points: 2
#     Edge 24, Type (0, 1), BuildingBlock: UVAHIK_clean_linker_0, # of connection points: 2
#     Edge 25, Type (0, 1), BuildingBlock: UVAHIK_clean_linker_0, # of connection points: 2
#     Edge 26, Type (0, 1), BuildingBlock: UVAHIK_clean_linker_0, # of connection points: 2
#     Edge 27, Type (0, 1), BuildingBlock: UVAHIK_clean_linker_0, # of connection points: 2
#     Edge 28, Type (0, 1), BuildingBlock: UVAHIK_clean_linker_0, # of connection points: 2
#     Edge 29, Type (0, 1), BuildingBlock: UVAHIK_clean_linker_0, # of connection points: 2
#     Edge 30, Type (0, 1), BuildingBlock: UVAHIK_clean_linker_0, # of connection points: 2
#     Edge 31, Type (0, 1), BuildingBlock: UVAHIK_clean_linker_0, # of connection points: 2
#     Edge 32, Type (0, 1), BuildingBlock: UVAHIK_clean_linker_0, # of connection points: 2
#     Edge 33, Type (0, 1), BuildingBlock: UVAHIK_clean_linker_0, # of connection points: 2
#     Edge 34, Type (0, 1), BuildingBlock: UVAHIK_clean_linker_0, # of connection points: 2
#     Edge 35, Type (0, 1), BuildingBlock: UVAHIK_clean_linker_0, # of connection points: 2
# Relax obj value: 0.289
# Max RMSD: 0.211
# Mean RMSD: 0.180
data_MOF--net-zzz--node1-KUMJIN_clean_sbu_1--node2-MIDCAF_clean_linker_0--edge1-UVAHIK_clean_linker_0
_symmetry_space_group_name_H-M    P1
_symmetry_Int_Tables_number       1
_symmetry_cell_setting            triclinic
loop_
_symmetry_equiv_pos_as_xyz
'x, y, z'
_cell_length_a     70.010363
_cell_length_b     70.053345
_cell_length_c     26.015417
_cell_angle_alpha  90.096073
_cell_angle_beta   89.951959
_cell_angle_gamma 90.281647
loop_
_atom_site_label
_atom_site_type_symbol
_atom_site_fract_x
_atom_site_fract_y
_atom_site_fract_z
_atom_type_partial_charge
C0 C 0.8127 0.55087 0.25204 0.0
C1 C 0.80688 0.54255 0.2985 0.0
C2 C 0.7873 0.53873 0.30603 0.0
C3 C 0.77396 0.54255 0.26685 0.0
H4 H 0.70423 0.56825 0.16674 0.0
H5 H 0.67217 0.56234 0.13235 0.0
H6 H 0.69328 0.51246 0.05283 0.0
H7 H 0.72487 0.51819 0.08865 0.0
H8 H 0.7457 0.56527 0.99515 0.0
H9 H 0.76137 0.57003 0.91258 0.0
H10 H 0.8145 0.58237 0.99013 0.0
H11 H 0.79894 0.57766 0.07299 0.0
H12 H 0.80486 0.56109 0.17823 0.0
H13 H 0.82761 0.55428 0.24533 0.0
H14 H 0.7824 0.53232 0.34155 0.0
H15 H 0.75906 0.53907 0.27323 0.0
N16 N 0.74785 0.54807 0.17714 0.0
N17 N 0.74419 0.55836 0.09158 0.0
N18 N 0.77366 0.56182 0.13223 0.0
C19 C 0.73665 0.55053 0.13466 0.0
C20 C 0.76263 0.56416 0.08998 0.0
C21 C 0.76656 0.55388 0.17601 0.0
C22 C 0.71686 0.54342 0.13124 0.0
C23 C 0.70166 0.5555 0.14408 0.0
C24 C 0.6834 0.55229 0.12343 0.0
C25 C 0.68008 0.53708 0.08893 0.0
C26 C 0.69507 0.52419 0.07956 0.0
C27 C 0.71323 0.52738 0.10035 0.0
C28 C 0.77116 0.57066 0.04082 0.0
C29 C 0.76062 0.5694 0.99487 0.0
C30 C 0.76957 0.57214 0.94746 0.0
C31 C 0.78916 0.57637 0.94499 0.0
C32 C 0.79933 0.57922 0.99091 0.0
C33 C 0.79043 0.57635 0.0384 0.0
C34 C 0.77995 0.55051 0.21977 0.0
C35 C 0.7995 0.55485 0.2135 0.0
C36 C 0.95774 0.81334 0.27347 0.0
C37 C 0.97181 0.80937 0.31037 0.0
C38 C 0.98217 0.79221 0.3055 0.0
C39 C 0.97874 0.77963 0.26406 0.0
H40 H 0.99595 0.72327 0.1502 0.0
H41 H 1.00304 0.69132 0.11602 0.0
H42 H 0.94572 0.68768 0.05503 0.0
H43 H 0.93879 0.71899 0.08981 0.0
H44 H 0.96114 0.76363 0.99132 0.0
H45 H 0.95708 0.78356 0.91618 0.0
H46 H 0.92845 0.82592 0.00939 0.0
H47 H 0.93364 0.80631 0.08532 0.0
H48 H 0.94365 0.80491 0.20459 0.0
H49 H 0.94967 0.82648 0.27497 0.0
H50 H 0.99304 0.78859 0.33336 0.0
H51 H 0.98725 0.76682 0.2605 0.0
N52 N 0.96669 0.7537 0.17499 0.0
N53 N 0.95719 0.75398 0.08806 0.0
N54 N 0.95602 0.78205 0.13607 0.0
C55 C 0.96365 0.74425 0.12956 0.0
C56 C 0.95342 0.77284 0.09089 0.0
C57 C 0.96258 0.77278 0.17833 0.0
C58 C 0.96679 0.72352 0.12292 0.0
C59 C 0.98474 0.71522 0.13124 0.0
C60 C 0.98884 0.69706 0.11091 0.0
C61 C 0.97502 0.68687 0.08218 0.0
C62 C 0.9567 0.6948 0.07731 0.0
C63 C 0.95269 0.71284 0.09724 0.0
C64 C 0.94801 0.78356 0.04434 0.0
C65 C 0.95371 0.77706 0.99564 0.0
C66 C 0.95121 0.7885 0.95231 0.0
C67 C 0.94262 0.80657 0.9565 0.0
C68 C 0.9356 0.81236 1.00479 0.0
C69 C 0.93848 0.80109 0.04834 0.0
C70 C 0.96506 0.78412 0.22644 0.0
C71 C 0.95441 0.80095 0.23247 0.0
C72 C 0.73274 0.96977 0.32922 0.0
C73 C 0.72686 0.98893 0.32803 0.0
C74 C 0.73637 1.00159 0.29443 0.0
C75 C 0.7506 0.99496 0.26078 0.0
H76 H 0.81328 0.99654 0.16972 0.0
H77 H 0.84409 1.00354 0.12802 0.0
H78 H 0.84545 0.946 0.0681 0.0
H79 H 0.81541 0.93906 0.11008 0.0
H80 H 0.77327 0.93169 0.04925 0.0
H81 H 0.75193 0.9219 0.98012 0.0
H82 H 0.70343 0.92986 0.08051 0.0
H83 H 0.72463 0.93923 0.14977 0.0
H84 H 0.74987 0.94801 0.29441 0.0
H85 H 0.72564 0.95956 0.35404 0.0
H86 H 0.73227 0.01646 0.29278 0.0
H87 H 0.75679 1.00471 0.23303 0.0
N88 N 0.78376 0.9717 0.20198 0.0
N89 N 0.78121 0.95142 0.13002 0.0
N90 N 0.75507 0.95519 0.18453 0.0
C91 C 0.79187 0.96336 0.15967 0.0
C92 C 0.76282 0.94734 0.14182 0.0
C93 C 0.76532 0.96722 0.21486 0.0
C94 C 0.81184 0.96729 0.14302 0.0
C95 C 0.82048 0.98533 0.14869 0.0
C96 C 0.83801 0.98937 0.12429 0.0
C97 C 0.84731 0.97537 0.09434 0.0
C98 C 0.83899 0.95711 0.09119 0.0
C99 C 0.82159 0.95316 0.11508 0.0
C100 C 0.75063 0.93683 0.10468 0.0
C101 C 0.75809 0.93085 0.0571 0.0
C102 C 0.74587 0.92524 0.01737 0.0
C103 C 0.72597 0.92549 0.02445 0.0
C104 C 0.71868 0.92945 0.07368 0.0
C105 C 0.73088 0.93503 0.11341 0.0
C106 C 0.75542 0.97553 0.25979 0.0
C107 C 0.7467 0.96314 0.29519 0.0
C108 C 0.58185 0.71469 0.02101 0.0
C109 C 0.57959 0.7199 0.96915 0.0
C110 C 0.57464 0.73885 0.95765 0.0
C111 C 0.57059 0.75179 0.99686 0.0
H112 H 0.53487 0.79535 0.01504 0.0
H113 H 0.52997 0.82658 0.9773 0.0
H114 H 0.53785 0.853 0.12559 0.0
H115 H 0.54321 0.82125 0.16421 0.0
H116 H 0.57725 0.74591 0.23449 0.0
H117 H 0.57088 0.72381 0.30482 0.0
H118 H 0.51066 0.73615 0.2942 0.0
H119 H 0.5172 0.7586 0.22372 0.0
H120 H 0.57856 0.72284 0.09985 0.0
H121 H 0.58607 0.70034 0.03126 0.0
H122 H 0.57255 0.74341 0.91832 0.0
H123 H 0.56588 0.76595 0.9862 0.0
N124 N 0.55625 0.77598 0.07629 0.0
N125 N 0.54421 0.78042 0.15983 0.0
N126 N 0.56069 0.75226 0.13766 0.0
C127 C 0.54691 0.78704 0.11088 0.0
C128 C 0.5513 0.76293 0.17322 0.0
C129 C 0.5632 0.75867 0.08907 0.0
C130 C 0.53975 0.8058 0.09261 0.0
C131 C 0.53532 0.80771 0.04011 0.0
C132 C 0.53249 0.82561 0.01831 0.0
C133 C 0.53382 0.84217 0.04833 0.0
C134 C 0.53679 0.84038 0.10166 0.0
C135 C 0.53977 0.82225 0.12374 0.0
C136 C 0.54774 0.75411 0.22403 0.0
C137 C 0.56273 0.74443 0.24847 0.0
C138 C 0.55906 0.73173 0.28874 0.0
C139 C 0.54024 0.72807 0.30492 0.0
C140 C 0.52531 0.73857 0.28236 0.0
C141 C 0.52905 0.7516 0.24253 0.0
C142 C 0.57119 0.74609 0.04863 0.0
C143 C 0.57762 0.72763 0.06037 0.0
C144 C 0.22129 0.49893 0.98736 0.0
C145 C 0.22276 0.49379 0.93522 0.0
C146 C 0.23954 0.48462 0.91842 0.0
C147 C 0.25402 0.47986 0.95349 0.0
H148 H 0.30592 0.50705 0.10936 0.0
H149 H 0.33513 0.51551 0.15675 0.0
H150 H 0.35175 0.45627 0.15726 0.0
H151 H 0.32249 0.44787 0.11119 0.0
H152 H 0.27788 0.44073 0.20896 0.0
H153 H 0.25805 0.43194 0.28223 0.0
H154 H 0.20801 0.43333 0.18517 0.0
H155 H 0.22772 0.44151 0.11211 0.0
H156 H 0.23345 0.49704 0.06271 0.0
H157 H 0.20853 0.50575 1.00193 0.0
H158 H 0.24119 0.48057 0.87848 0.0
H159 H 0.26627 0.47185 0.94019 0.0
N160 N 0.28256 0.47954 0.05304 0.0
N161 N 0.28351 0.45813 0.12277 0.0
N162 N 0.25522 0.46199 0.07677 0.0
C163 C 0.29249 0.47095 0.09184 0.0
C164 C 0.26489 0.45356 0.11558 0.0
C165 C 0.26387 0.47469 0.04503 0.0
C166 C 0.31208 0.47684 0.1062 0.0
C167 C 0.31619 0.496 0.118 0.0
C168 C 0.33276 0.50078 0.14565 0.0
C169 C 0.34567 0.48653 0.16099 0.0
C170 C 0.34218 0.46758 0.14571 0.0
C171 C 0.32547 0.46278 0.11918 0.0
C172 C 0.25428 0.44256 0.15505 0.0
C173 C 0.26273 0.4385 0.20282 0.0
C174 C 0.25136 0.4335 0.24495 0.0
C175 C 0.23138 0.4325 0.24 0.0
C176 C 0.22333 0.43401 0.19067 0.0
C177 C 0.23467 0.43895 0.14863 0.0
C178 C 0.25189 0.48408 1.00593 0.0
C179 C 0.23559 0.49399 0.02226 0.0
C180 C 0.05902 0.23383 0.92031 0.0
C181 C 0.03956 0.22993 0.91172 0.0
C182 C 0.02591 0.24112 0.93783 0.0
C183 C 0.03163 0.25487 0.97424 0.0
H184 H 0.04264 0.29393 0.19781 0.0
H185 H 0.03321 0.32283 0.24255 0.0
H186 H 0.03721 0.35448 0.1006 0.0
H187 H 0.04671 0.32508 0.05527 0.0
H188 H 0.08578 0.27112 0.21001 0.0
H189 H 0.09662 0.24753 0.27193 0.0
H190 H 0.10102 0.2057 0.15031 0.0
H191 H 0.09084 0.22927 0.08839 0.0
H192 H 0.07978 0.24908 0.96466 0.0
H193 H 0.06999 0.22549 0.90159 0.0
H194 H 0.01079 0.23871 0.93167 0.0
H195 H 0.02083 0.2623 0.99626 0.0
N196 N 0.04903 0.28334 0.05215 0.0
N197 N 0.06708 0.28028 0.1281 0.0
N198 N 0.07029 0.25773 0.0628 0.0
C199 C 0.05421 0.29011 0.09954 0.0
C200 C 0.07527 0.26415 0.11 0.0
C201 C 0.05731 0.26707 0.03358 0.0
C202 C 0.0454 0.30724 0.12302 0.0
C203 C 0.04117 0.30697 0.17582 0.0
C204 C 0.03568 0.32355 0.20148 0.0
C205 C 0.03447 0.34102 0.17527 0.0
C206 C 0.03811 0.34125 0.12193 0.0
C207 C 0.04335 0.32443 0.09588 0.0
C208 C 0.08677 0.25191 0.14446 0.0
C209 C 0.08962 0.25707 0.19617 0.0
C210 C 0.09582 0.24353 0.23174 0.0
C211 C 0.09917 0.22458 0.21634 0.0
C212 C 0.09856 0.22012 0.16367 0.0
C213 C 0.09249 0.23367 0.12807 0.0
C214 C 0.05108 0.25756 0.98543 0.0
C215 C 0.06467 0.24741 0.95666 0.0
C216 C 0.29452 0.02542 0.9449 0.0
C217 C 0.29516 0.03823 0.90337 0.0
C218 C 0.28118 0.05262 0.90065 0.0
C219 C 0.26759 0.05476 0.94005 0.0
H220 H 0.20584 0.02347 0.06382 0.0
H221 H 0.1744 0.01909 0.10423 0.0
H222 H 0.1773 0.07664 0.16355 0.0
H223 H 0.20857 0.08081 0.12379 0.0
H224 H 0.2497 0.06031 0.21889 0.0
H225 H 0.27014 0.06022 0.29481 0.0
H226 H 0.32006 0.06004 0.1971 0.0
H227 H 0.29982 0.06042 0.12155 0.0
H228 H 0.28195 0.01848 0.01768 0.0
H229 H 0.30515 0.01433 0.94868 0.0
H230 H 0.28121 0.06266 0.86904 0.0
H231 H 0.25776 0.06664 0.93864 0.0
N232 N 0.23851 0.04831 0.0354 0.0
N233 N 0.24169 0.05762 0.12208 0.0
N234 N 0.26893 0.05227 0.07254 0.0
C235 C 0.23037 0.05328 0.08131 0.0
C236 C 0.26095 0.05714 0.11811 0.0
C237 C 0.25797 0.04803 0.03106 0.0
C238 C 0.20953 0.05252 0.09041 0.0
C239 C 0.19934 0.03539 0.0837 0.0
C240 C 0.18148 0.03282 0.10742 0.0
C241 C 0.17341 0.04746 0.13757 0.0
C242 C 0.18296 0.06512 0.14036 0.0
C243 C 0.20089 0.06754 0.11749 0.0
C244 C 0.27312 0.06006 0.16403 0.0
C245 C 0.26504 0.06064 0.21357 0.0
C246 C 0.27673 0.06054 0.25714 0.0
C247 C 0.2967 0.06001 0.25201 0.0
C248 C 0.30474 0.06067 0.2025 0.0
C249 C 0.29309 0.06069 0.15905 0.0
C250 C 0.2679 0.04269 0.98304 0.0
C251 C 0.28119 0.02775 0.98444 0.0
C252 C 0.44306 0.3024 0.2137 0.0
C253 C 0.44238 0.2928 0.26108 0.0
C254 C 0.44357 0.27281 0.26157 0.0
C255 C 0.44711 0.26277 0.21619 0.0
H256 H 0.44634 0.20779 0.11547 0.0
H257 H 0.45288 0.17665 0.15139 0.0
H258 H 0.51299 0.18429 0.11856 0.0
H259 H 0.50618 0.2161 0.08317 0.0
H260 H 0.50728 0.26981 0.99763 0.0
H261 H 0.5154 0.29501 0.9353 0.0
H262 H 0.45579 0.30995 0.92454 0.0
H263 H 0.44788 0.28519 0.98687 0.0
H264 H 0.4483 0.30037 0.13295 0.0
H265 H 0.44229 0.31783 0.21212 0.0
H266 H 0.44286 0.26504 0.2975 0.0
H267 H 0.44899 0.24746 0.21851 0.0
N268 N 0.46214 0.24382 0.12734 0.0
N269 N 0.47711 0.24489 0.04631 0.0
N270 N 0.46257 0.27231 0.08123 0.0
C271 C 0.4717 0.23484 0.08901 0.0
C272 C 0.47216 0.26371 0.04218 0.0
C273 C 0.45767 0.26253 0.12415 0.0
C274 C 0.47572 0.2143 0.09617 0.0
C275 C 0.46088 0.20257 0.11438 0.0
C276 C 0.46469 0.18462 0.13499 0.0
C277 C 0.48352 0.17781 0.13832 0.0
C278 C 0.49833 0.18912 0.11719 0.0
C279 C 0.49444 0.2072 0.09614 0.0
C280 C 0.47694 0.27545 0.99662 0.0
C281 C 0.49593 0.27813 0.98064 0.0
C282 C 0.50057 0.29269 0.94548 0.0
C283 C 0.48623 0.30454 0.92503 0.0
C284 C 0.46715 0.30101 0.93902 0.0
C285 C 0.46261 0.2868 0.97472 0.0
C286 C 0.44966 0.27255 0.16945 0.0
C287 C 0.44667 0.29238 0.16831 0.0
Eu288 Eu 0.98936 0.0234 0.58064 0.0
C289 C 0.04931 0.04079 0.74185 0.0
N290 N 0.05242 0.03371 0.69408 0.0
C291 C 0.07661 0.05739 0.67909 0.0
C292 C 0.05912 0.05717 0.75935 0.0
C293 C 0.0664 0.04118 0.66337 0.0
C294 C 0.07273 0.06562 0.72696 0.0
C295 C 0.034 0.03743 0.82479 0.0
C296 C 0.03693 0.03106 0.77397 0.0
C297 C 0.04278 0.05443 0.8415 0.0
C298 C 0.05535 0.06427 0.80883 0.0
Eu299 Eu 0.03371 1.00719 0.6686 0.0
N300 N 0.02896 0.01453 0.7568 0.0
C301 C 0.023 0.02611 0.85788 0.0
C302 C 0.01986 1.00259 0.79032 0.0
C303 C 0.01626 0.00839 0.84087 0.0
H304 H 0.06923 0.0349 0.62616 0.0
H305 H 0.0085 0.9991 0.86682 0.0
H306 H 0.9496 0.02221 0.6565 0.0
H307 H 0.99583 0.9921 0.3897 0.0
H308 H 0.01539 0.98851 0.77821 0.0
H309 H 0.02038 0.03049 0.89721 0.0
H310 H 1.00256 0.01542 0.45936 0.0
H311 H 0.08736 0.06359 0.6542 0.0
H312 H 0.04048 0.0597 0.88017 0.0
H313 H 0.06249 0.07703 0.82271 0.0
H314 H 0.92278 1.00014 0.67359 0.0
H315 H 0.08058 0.07822 0.73897 0.0
H316 H 0.97198 0.96638 0.40355 0.0
N317 N 0.96118 1.00528 0.59612 0.0
C318 C 0.95784 0.99072 0.56268 0.0
C319 C 0.93272 0.99713 0.64276 0.0
C320 C 0.94231 0.97809 0.56977 0.0
C321 C 0.94813 0.00944 0.6335 0.0
C322 C 0.93005 0.98111 0.6115 0.0
N323 N 0.98288 1.00272 0.51134 0.0
C324 C 0.99202 1.0043 0.46517 0.0
C325 C 0.96468 0.97589 0.48035 0.0
C326 C 0.96887 0.98957 0.51854 0.0
C327 C 0.9748 0.97662 0.4339 0.0
C328 C 0.98825 0.99114 0.42588 0.0
H329 H 0.91797 0.97173 0.61834 0.0
H330 H 0.92729 0.95347 0.53895 0.0
H331 H 0.94693 0.95154 0.46058 0.0
O332 O 0.99027 0.05332 0.56015 0.0
O333 O 0.00753 0.99744 0.56125 0.0
O334 O 0.01334 0.98434 0.63945 0.0
O335 O 0.96598 0.0365 0.53665 0.0
O336 O 0.01833 0.03029 0.54411 0.0
O337 O 0.0419 0.01245 0.58529 0.0
O338 O 0.05277 0.99003 0.71619 0.0
O339 O 0.02788 0.03811 0.64614 0.0
O340 O 0.99573 0.04024 0.65294 0.0
O341 O 0.05711 0.99114 0.63432 0.0
O342 O 1.00412 0.9959 0.69199 0.0
O343 O 0.98389 0.01996 0.66652 0.0
C344 C 0.00915 0.98236 0.59067 0.0
C345 C 0.97676 0.06098 0.47994 0.0
C346 C 0.99582 0.07876 0.41689 0.0
C347 C 0.97959 0.07976 0.385 0.0
C348 C 0.96083 0.06213 0.44755 0.0
C349 C 0.96234 0.07131 0.40008 0.0
C350 C 0.99423 0.0689 0.4637 0.0
C351 C 0.03578 0.02318 0.54704 0.0
C352 C 0.97499 0.05268 0.5319 0.0
C353 C 0.93897 0.96349 0.5337 0.0
C354 C 0.95012 0.96241 0.48901 0.0
C355 C 0.01272 0.04736 0.66173 0.0
C356 C 0.06322 0.9621 0.6745 0.0
C357 C 0.04767 0.93088 0.67718 0.0
C358 C 0.06521 0.92233 0.66456 0.0
C359 C 0.08057 0.9534 0.66202 0.0
C360 C 0.04681 0.95085 0.68161 0.0
C361 C 0.08153 0.93357 0.65702 0.0
C362 C 0.98837 1.00595 0.69792 0.0
C363 C 0.06195 0.98296 0.67708 0.0
H364 H 0.97995 0.08753 0.3491 0.0
H365 H 0.9472 0.05618 0.45925 0.0
H366 H 0.94994 0.0723 0.37539 0.0
H367 H 0.00657 0.06766 0.48829 0.0
H368 H 0.06643 0.90697 0.66158 0.0
H369 H 0.09331 0.96193 0.6558 0.0
H370 H 0.03335 0.95772 0.69029 0.0
H371 H 0.09498 0.92687 0.64748 0.0
Eu372 Eu 0.5196 0.04139 0.65399 0.0
C373 C 0.48695 0.96124 0.66449 0.0
N374 N 0.50341 0.96585 0.64002 0.0
C375 C 0.51934 0.93963 0.68049 0.0
C376 C 0.48632 0.94622 0.7005 0.0
C377 C 0.51927 0.95474 0.64539 0.0
C378 C 0.50295 0.93571 0.70931 0.0
C379 C 0.45257 0.96405 0.66889 0.0
C380 C 0.47034 0.97008 0.64891 0.0
C381 C 0.45202 0.95036 0.70829 0.0
C382 C 0.4689 0.94145 0.7241 0.0
Eu383 Eu 0.50277 0.99247 0.58424 0.0
N384 N 0.47139 0.98285 0.6098 0.0
C385 C 0.43585 0.97099 0.64633 0.0
C386 C 0.45511 0.98802 0.58429 0.0
C387 C 0.43714 0.98256 0.60284 0.0
H388 H 0.53202 0.95797 0.62349 0.0
H389 H 0.42432 0.9874 0.58375 0.0
H390 H 0.49768 0.0435 0.7683 0.0
H391 H 0.53682 0.10007 0.52406 0.0
H392 H 0.45593 0.9973 0.55128 0.0
H393 H 0.42192 0.96671 0.6605 0.0
H394 H 0.54036 0.06802 0.56284 0.0
H395 H 0.5321 0.9312 0.68576 0.0
H396 H 0.43853 0.94583 0.72479 0.0
H397 H 0.46818 0.93021 0.7526 0.0
H398 H 0.47586 0.06507 0.81537 0.0
H399 H 0.50305 0.92404 0.73659 0.0
H400 H 0.51317 0.1227 0.55969 0.0
N401 N 0.50069 0.06211 0.70439 0.0
C402 C 0.4969 0.07954 0.68445 0.0
C403 C 0.4816 0.06929 0.77842 0.0
C404 C 0.4848 0.09245 0.71013 0.0
C405 C 0.49388 0.05709 0.75165 0.0
C406 C 0.47682 0.08696 0.75724 0.0
N407 N 0.51854 0.07241 0.61838 0.0
C408 C 0.53006 0.07788 0.57857 0.0
C409 C 0.50376 0.10334 0.61954 0.0
C410 C 0.50619 0.08489 0.63994 0.0
C411 C 0.51464 0.10867 0.57665 0.0
C412 C 0.52805 0.09596 0.55653 0.0
H413 H 0.46742 0.09644 0.77819 0.0
H414 H 0.47216 0.12063 0.70762 0.0
H415 H 0.4888 0.13019 0.62817 0.0
O416 O 0.5477 0.03028 0.67402 0.0
O417 O 0.50708 0.04625 0.57484 0.0
O418 O 0.49807 0.01817 0.53201 0.0
O419 O 0.53876 0.05835 0.70293 0.0
O420 O 0.53529 0.03159 0.58162 0.0
O421 O 0.53447 0.99896 0.58851 0.0
O422 O 0.50868 0.98941 0.50179 0.0
O423 O 0.52464 0.99396 0.6494 0.0
O424 O 0.51194 0.01589 0.70341 0.0
O425 O 0.5007 0.96484 0.54582 0.0
O426 O 0.4804 0.01493 0.60606 0.0
O427 O 0.49247 0.02686 0.68109 0.0
C428 C 0.50029 0.03691 0.5347 0.0
C429 C 0.5704 0.04728 0.72785 0.0
C430 C 0.59891 0.03254 0.76362 0.0
C431 C 0.60548 0.05067 0.77899 0.0
C432 C 0.57706 0.06525 0.74383 0.0
C433 C 0.59458 0.06691 0.7691 0.0
C434 C 0.58139 0.031 0.73771 0.0
C435 C 0.5428 0.01472 0.57243 0.0
C436 C 0.552 0.04535 0.70117 0.0
C437 C 0.48156 0.11056 0.68875 0.0
C438 C 0.49103 0.116 0.64351 0.0
C439 C 0.51989 0.99925 0.69612 0.0
C440 C 0.48857 0.96632 0.46322 0.0
C441 C 0.45588 0.97069 0.43384 0.0
C442 C 0.45649 0.95267 0.41008 0.0
C443 C 0.48906 0.94843 0.43909 0.0
C444 C 0.47221 0.97767 0.45888 0.0
C445 C 0.47314 0.94176 0.41199 0.0
C446 C 0.47788 0.02278 0.65151 0.0
C447 C 0.50351 0.97157 0.50016 0.0
H448 H 0.61885 0.05227 0.79951 0.0
H449 H 0.5688 0.078 0.73659 0.0
H450 H 0.59967 0.0808 0.78135 0.0
H451 H 0.57629 0.0171 0.72531 0.0
H452 H 0.44409 0.94703 0.39019 0.0
H453 H 0.50149 0.93938 0.44271 0.0
H454 H 0.47186 0.99149 0.47746 0.0
H455 H 0.4735 0.92786 0.39381 0.0
Eu456 Eu 0.53803 0.50862 0.57503 0.0
C457 C 0.47137 0.52061 0.76083 0.0
N458 N 0.47125 0.51522 0.71086 0.0
C459 C 0.44596 0.4929 0.72778 0.0
C460 C 0.45907 0.51196 0.79693 0.0
C461 C 0.45836 0.50204 0.69344 0.0
C462 C 0.44647 0.49771 0.77993 0.0
C463 C 0.48285 0.5425 0.826 0.0
C464 C 0.48304 0.53561 0.77505 0.0
C465 C 0.47125 0.53345 0.86282 0.0
C466 C 0.45936 0.51819 0.8483 0.0
Eu467 Eu 0.49352 0.53005 0.65532 0.0
N468 N 0.49375 0.54416 0.73825 0.0
C469 C 0.49392 0.55859 0.83798 0.0
C470 C 0.5039 0.56037 0.74917 0.0
C471 C 0.50432 0.5677 0.79921 0.0
H472 H 0.45798 0.4983 0.65314 0.0
H473 H 0.51265 0.58037 0.80777 0.0
H474 H 0.57366 0.50054 0.66109 0.0
H475 H 0.54516 0.55092 0.40038 0.0
H476 H 0.51199 0.56752 0.71948 0.0
H477 H 0.49419 0.56435 0.87667 0.0
H478 H 0.53348 0.52411 0.45434 0.0
H479 H 0.43602 0.48216 0.71404 0.0
H480 H 0.47101 0.53842 0.90227 0.0
H481 H 0.45014 0.51163 0.87676 0.0
H482 H 0.60126 0.51805 0.69738 0.0
H483 H 0.43679 0.49068 0.80644 0.0
H484 H 0.56969 0.57316 0.43455 0.0
N485 N 0.56694 0.52224 0.60694 0.0
C486 C 0.5734 0.53809 0.58252 0.0
C487 C 0.59337 0.52403 0.66553 0.0
C488 C 0.58938 0.54836 0.60083 0.0
C489 C 0.57758 0.51428 0.64528 0.0
C490 C 0.59899 0.54145 0.64407 0.0
N491 N 0.55112 0.53142 0.5178 0.0
C492 C 0.54444 0.53362 0.46888 0.0
C493 C 0.57235 0.55822 0.50701 0.0
C494 C 0.56523 0.54281 0.53611 0.0
C495 C 0.56468 0.5614 0.45807 0.0
C496 C 0.55091 0.54882 0.43855 0.0
H497 H 0.61133 0.5489 0.65945 0.0
H498 H 0.60785 0.57282 0.58774 0.0
H499 H 0.59275 0.5816 0.50563 0.0
O500 O 0.53266 0.48392 0.52607 0.0
O501 O 0.52175 0.53545 0.55415 0.0
O502 O 0.51803 0.5494 0.63144 0.0
O503 O 0.56165 0.49184 0.54368 0.0
O504 O 0.51006 0.51171 0.53235 0.0
O505 O 0.48834 0.50635 0.5968 0.0
O506 O 0.46894 0.54909 0.65693 0.0
O507 O 0.49694 0.49807 0.67011 0.0
O508 O 0.52541 0.48742 0.63261 0.0
O509 O 0.48239 0.54266 0.58444 0.0
O510 O 0.52366 0.53572 0.68412 0.0
O511 O 0.53961 0.50842 0.66261 0.0
C512 C 0.52254 0.55077 0.58285 0.0
C513 C 0.55374 0.4588 0.54265 0.0
C514 C 0.54248 0.42578 0.54471 0.0
C515 C 0.55586 0.42171 0.5833 0.0
C516 C 0.56721 0.45446 0.58096 0.0
C517 C 0.56828 0.43597 0.60086 0.0
C518 C 0.5417 0.44428 0.5242 0.0
C519 C 0.49285 0.50679 0.54775 0.0
C520 C 0.55042 0.47861 0.52561 0.0
C521 C 0.5958 0.56453 0.57383 0.0
C522 C 0.58725 0.56949 0.52699 0.0
C523 C 0.50995 0.4848 0.66129 0.0
C524 C 0.47117 0.57375 0.596 0.0
C525 C 0.48555 0.60503 0.61216 0.0
C526 C 0.47433 0.61269 0.57245 0.0
C527 C 0.4601 0.58155 0.5566 0.0
C528 C 0.48399 0.58543 0.62288 0.0
C529 C 0.46174 0.60097 0.5448 0.0
C530 C 0.53617 0.52244 0.69487 0.0
C531 C 0.47008 0.55332 0.60822 0.0
H532 H 0.55674 0.40753 0.59964 0.0
H533 H 0.57656 0.4654 0.59646 0.0
H534 H 0.57856 0.43276 0.63064 0.0
H535 H 0.53105 0.44765 0.4954 0.0
H536 H 0.47504 0.62774 0.56317 0.0
H537 H 0.45029 0.57264 0.53492 0.0
H538 H 0.49301 0.57905 0.65174 0.0
H539 H 0.45316 0.60698 0.51432 0.0
Eu540 Eu 0.01994 0.5353 0.58332 0.0
C541 C 0.03168 0.47646 0.75352 0.0
N542 N 0.02488 0.47354 0.70538 0.0
C543 C 0.04615 0.44715 0.69398 0.0
C544 C 0.0468 0.46542 0.77299 0.0
C545 C 0.03123 0.45862 0.67625 0.0
C546 C 0.0542 0.45078 0.74222 0.0
C547 C 0.02883 0.49277 0.8352 0.0
C548 C 0.02279 0.4899 0.78407 0.0
C549 C 0.04468 0.48269 0.85389 0.0
C550 C 0.05363 0.469 0.82286 0.0
Eu551 Eu 1.00037 0.49398 0.67677 0.0
N552 N 0.00728 0.49904 0.76507 0.0
C553 C 0.01828 0.50509 0.86658 0.0
C554 C 0.99599 0.50964 0.79686 0.0
C555 C 1.00155 0.51325 0.8476 0.0
H556 H 0.02509 0.45599 0.63875 0.0
H557 H 0.99281 0.52212 0.87219 0.0
H558 H 0.01708 0.57624 0.65322 0.0
H559 H 0.99004 0.52202 0.39317 0.0
H560 H 0.98259 0.51525 0.78325 0.0
H561 H 0.02245 0.50771 0.90607 0.0
H562 H 0.01258 0.51769 0.46571 0.0
H563 H 0.0515 0.43563 0.67034 0.0
H564 H 0.0497 0.48489 0.89286 0.0
H565 H 0.06544 0.46088 0.83827 0.0
H566 H 0.99514 0.60343 0.66241 0.0
H567 H 0.06581 0.44195 0.75579 0.0
H568 H 0.96506 0.54687 0.39837 0.0
N569 N 1.00167 0.56362 0.59129 0.0
C570 C 0.98795 0.56627 0.55513 0.0
C571 C 0.99275 0.59292 0.63252 0.0
C572 C 0.97541 0.58194 0.55781 0.0
C573 C 1.00496 0.57727 0.6278 0.0
C574 C 0.97765 0.59506 0.598 0.0
N575 N 1.00012 0.53959 0.51097 0.0
C576 C 1.00178 0.52864 0.46776 0.0
C577 C 0.97414 0.55699 0.47323 0.0
C578 C 0.98733 0.55405 0.5133 0.0
C579 C 0.97496 0.54508 0.42998 0.0
C580 C 0.98905 0.53104 0.42687 0.0
H581 H 0.96832 0.60729 0.60145 0.0
H582 H 0.95162 0.59618 0.52115 0.0
H583 H 0.95047 0.57427 0.44712 0.0
O584 O 0.04663 0.53066 0.5433 0.0
O585 O 0.99233 0.51918 0.56678 0.0
O586 O 0.97914 0.51554 0.64597 0.0
O587 O 0.0362 0.55988 0.55226 0.0
O588 O 0.02684 0.50508 0.55629 0.0
O589 O 1.00408 0.48516 0.59332 0.0
O590 O 0.97963 0.47816 0.72346 0.0
O591 O 0.03217 0.49693 0.65749 0.0
O592 O 0.03668 0.52908 0.65568 0.0
O593 O 0.98458 0.46988 0.6448 0.0
O594 O 0.99191 0.52472 0.69652 0.0
O595 O 0.01785 0.54224 0.6689 0.0
C596 C 0.97729 0.51892 0.59675 0.0
C597 C 0.06678 0.55538 0.5076 0.0
C598 C 0.09782 0.54801 0.4699 0.0
C599 C 0.09991 0.56724 0.45558 0.0
C600 C 0.06912 0.57457 0.49352 0.0
C601 C 0.08564 0.58044 0.46756 0.0
C602 C 0.08119 0.54225 0.49574 0.0
C603 C 0.0169 0.48902 0.55759 0.0
C604 C 0.04958 0.54873 0.53493 0.0
C605 C 0.96154 0.58438 0.51937 0.0
C606 C 0.96091 0.57192 0.47715 0.0
C607 C 0.04267 0.512 0.66796 0.0
C608 C 0.95338 0.4666 0.67473 0.0
C609 C 0.92227 0.48199 0.66858 0.0
C610 C 0.91469 0.46514 0.64714 0.0
C611 C 0.94555 0.44989 0.6536 0.0
C612 C 0.94175 0.48266 0.68175 0.0
C613 C 0.9263 0.44921 0.63975 0.0
C614 C 1.00344 0.53957 0.70077 0.0
C615 C 0.97397 0.46752 0.68523 0.0
H616 H 0.11261 0.57208 0.43557 0.0
H617 H 0.05821 0.58499 0.50239 0.0
H618 H 0.08737 0.59525 0.45665 0.0
H619 H 0.07938 0.52735 0.50596 0.0
H620 H 0.8997 0.46413 0.63718 0.0
H621 H 0.9544 0.43746 0.64721 0.0
H622 H 0.9479 0.49573 0.69701 0.0
H623 H 0.92033 0.43628 0.62342 0.0
C624 C 0.15584 0.02723 0.20186 0.0
C625 C 0.15654 0.04377 0.17135 0.0
C626 C 0.14172 0.02497 0.23952 0.0
C627 C 0.09445 0.04128 0.28417 0.0
H628 H 0.11344 0.02685 0.41844 0.0
C629 C 0.04564 0.04036 0.46575 0.0
C630 C 0.04904 0.02622 0.50293 0.0
C631 C 0.05822 0.04296 0.42428 0.0
C632 C 0.10774 0.03058 0.38114 0.0
H633 H 0.14228 0.07045 0.1548 0.0
H634 H 0.11739 0.06635 0.22022 0.0
H635 H 0.13549 0.02956 0.34663 0.0
H636 H 0.06827 1.0034 0.52457 0.0
H637 H 0.08965 1.00743 0.45211 0.0
H638 H 0.0666 0.04192 0.31839 0.0
C639 C 0.12789 0.0552 0.21511 0.0
C640 C 0.12046 0.03219 0.33989 0.0
C641 C 0.14218 0.05758 0.1778 0.0
C642 C 0.06525 0.01463 0.49722 0.0
C643 C 0.07765 0.01703 0.45555 0.0
C644 C 0.08162 0.03942 0.3254 0.0
C645 C 0.1278 0.03909 0.24733 0.0
C646 C 0.114 0.03745 0.29084 0.0
C647 C 0.07445 0.03132 0.41855 0.0
C648 C 0.08806 0.03392 0.37452 0.0
H649 H 0.16677 0.01642 0.1984 0.0
H650 H 0.14192 0.0123 0.26331 0.0
H651 H 0.08902 0.04532 0.24678 0.0
H652 H 0.03337 0.04957 0.46888 0.0
H653 H 0.05532 0.0543 0.39718 0.0
C654 C 0.50326 0.15882 0.20148 0.0
C655 C 0.48746 0.15995 0.16809 0.0
C656 C 0.50516 0.14341 0.23555 0.0
C657 C 0.47536 0.1102 0.30788 0.0
H658 H 0.52204 0.08248 0.33563 0.0
C659 C 0.48958 0.06743 0.49448 0.0
C660 C 0.49621 0.04863 0.48862 0.0
C661 C 0.48795 0.07952 0.45199 0.0
C662 C 0.50888 0.09004 0.32801 0.0
H663 H 0.46217 0.14476 0.14187 0.0
H664 H 0.46525 0.11834 0.20214 0.0
H665 H 0.52134 0.10625 0.26626 0.0
H666 H 0.50623 0.02774 0.4335 0.0
H667 H 0.50378 0.04915 0.35899 0.0
H668 H 0.46309 0.09456 0.37072 0.0
C669 C 0.47602 0.1295 0.20227 0.0
C670 C 0.50852 0.1037 0.28859 0.0
C671 C 0.47426 0.1447 0.1678 0.0
C672 C 0.50086 0.04207 0.43907 0.0
C673 C 0.49965 0.05436 0.3966 0.0
C674 C 0.47584 0.09687 0.34788 0.0
C675 C 0.49123 0.1289 0.2374 0.0
C676 C 0.49173 0.11393 0.27808 0.0
C677 C 0.49329 0.07325 0.40274 0.0
C678 C 0.49259 0.08666 0.35844 0.0
H679 H 0.51363 0.17031 0.20336 0.0
H680 H 0.51702 0.14338 0.26228 0.0
H681 H 0.46227 0.11798 0.30108 0.0
H682 H 0.48594 0.0729 0.53219 0.0
H683 H 0.48309 0.09402 0.45792 0.0
C684 C 0.38002 0.48353 0.18865 0.0
C685 C 0.36162 0.49086 0.19715 0.0
C686 C 0.39446 0.48601 0.22542 0.0
C687 C 0.40136 0.49199 0.36369 0.0
H688 H 0.45223 0.50966 0.32849 0.0
C689 C 0.45838 0.50652 0.52065 0.0
C690 C 0.47773 0.50376 0.5085 0.0
C691 C 0.4443 0.50505 0.48257 0.0
C692 C 0.43823 0.50436 0.3391 0.0
H693 H 0.34398 0.50659 0.25085 0.0
H694 H 0.36911 0.51066 0.31537 0.0
H695 H 0.42789 0.50718 0.2618 0.0
H696 H 0.4974 0.49673 0.44707 0.0
H697 H 0.4729 0.49323 0.38135 0.0
H698 H 0.41164 0.48844 0.4404 0.0
C699 C 0.37239 0.50314 0.28005 0.0
C700 C 0.42423 0.50308 0.30073 0.0
C701 C 0.35807 0.50097 0.2429 0.0
C702 C 0.48262 0.49906 0.45765 0.0
C703 C 0.46852 0.49724 0.41977 0.0
C704 C 0.41542 0.49293 0.40191 0.0
C705 C 0.3907 0.49553 0.27196 0.0
C706 C 0.40561 0.49697 0.31264 0.0
C707 C 0.44913 0.50045 0.43139 0.0
C708 C 0.4341 0.49921 0.39034 0.0
H709 H 0.38317 0.47566 0.1538 0.0
H710 H 0.4084 0.47992 0.21819 0.0
H711 H 0.38719 0.48697 0.37392 0.0
H712 H 0.45414 0.51042 0.55929 0.0
H713 H 0.42966 0.508 0.49324 0.0
C714 C 0.01667 0.35889 0.24405 0.0
C715 C 0.03054 0.35885 0.2049 0.0
C716 C 0.01464 0.37464 0.2767 0.0
C717 C 0.04192 0.41577 0.3281 0.0
H718 H 0.99253 0.43061 0.38198 0.0
C719 C 0.03222 0.47822 0.47448 0.0
C720 C 0.01915 0.47504 0.51478 0.0
C721 C 0.03364 0.46526 0.43343 0.0
C722 C 0.00646 0.42656 0.36766 0.0
H723 H 0.05273 0.37571 0.16841 0.0
H724 H 0.04901 0.4034 0.22503 0.0
H725 H 0.99436 0.40647 0.31468 0.0
H726 H 0.99753 0.45539 0.5434 0.0
H727 H 1.00014 0.43294 0.47261 0.0
H728 H 0.05401 0.43576 0.38165 0.0
C729 C 0.03985 0.39109 0.23083 0.0
C730 C 0.00751 0.4127 0.32895 0.0
C731 C 0.04182 0.37532 0.19793 0.0
C732 C 0.00772 0.45846 0.51313 0.0
C733 C 0.0091 0.44559 0.47216 0.0
C734 C 0.04087 0.42968 0.36685 0.0
C735 C 0.02644 0.39083 0.27125 0.0
C736 C 0.02526 0.40687 0.30917 0.0
C737 C 0.02197 0.44884 0.43154 0.0
C738 C 0.02314 0.43503 0.38778 0.0
H739 H 0.00764 0.34651 0.25025 0.0
H740 H 1.00427 0.37378 0.30753 0.0
H741 H 0.05586 0.41151 0.31432 0.0
H742 H 0.04125 0.49082 0.47431 0.0
H743 H 0.04363 0.46829 0.40269 0.0
C744 C 0.87906 0.96592 0.05615 0.0
C745 C 0.86479 0.97979 0.06327 0.0
C746 C 0.89402 0.96887 0.02124 0.0
C747 C 0.92002 1.00575 0.9465 0.0
H748 H 0.93026 0.96412 0.85212 0.0
C749 C 0.96391 0.01717 0.76119 0.0
C750 C 0.97569 1.00245 0.74287 0.0
C751 C 0.95167 0.0142 0.80291 0.0
C752 C 0.92788 0.97581 0.87859 0.0
H753 H 0.85575 0.0081 0.04037 0.0
H754 H 0.88206 0.01339 0.98029 0.0
H755 H 0.90711 0.95975 0.92117 0.0
H756 H 0.98386 0.97299 0.75442 0.0
H757 H 0.96286 0.96789 0.82847 0.0
H758 H 0.94083 0.02181 0.90432 0.0
C759 C 0.8816 1.00017 1.00176 0.0
C760 C 0.91453 0.97331 0.91823 0.0
C761 C 0.86653 0.99715 0.03645 0.0
C762 C 0.97503 0.98466 0.76773 0.0
C763 C 0.96284 0.98171 0.80991 0.0
C764 C 0.93349 0.00821 0.90716 0.0
C765 C 0.89528 0.98587 0.9928 0.0
C766 C 0.91026 0.98831 0.95236 0.0
C767 C 0.95092 0.99645 0.82805 0.0
C768 C 0.93745 0.99337 0.87213 0.0
H769 H 0.87849 0.95253 0.07688 0.0
H770 H 0.90451 0.95772 0.01612 0.0
H771 H 0.91729 0.01751 0.97253 0.0
H772 H 0.96413 0.03111 0.74324 0.0
H773 H 0.94255 0.02583 0.81484 0.0
C774 C 0.54761 0.8645 0.98369 0.0
C775 C 0.53391 0.86097 0.02197 0.0
C776 C 0.54673 0.88092 0.95347 0.0
C777 C 0.52398 0.92879 0.94088 0.0
H778 H 0.537 0.92142 0.79729 0.0
C779 C 0.50878 0.98418 0.77819 0.0
C780 C 0.52283 0.98618 0.73998 0.0
C781 C 0.51059 0.97022 0.81645 0.0
C782 C 0.53353 0.92382 0.83737 0.0
H783 H 0.50882 0.87212 0.05984 0.0
H784 H 0.50692 0.90087 1.00612 0.0
H785 H 0.53889 0.89471 0.85639 0.0
H786 H 0.5504 0.97629 0.7138 0.0
H787 H 0.55375 0.95209 0.78084 0.0
H788 H 0.51818 0.95795 0.92089 0.0
C789 C 0.51858 0.89105 0.99995 0.0
C790 C 0.53466 0.90846 0.87147 0.0
C791 C 0.51963 0.87459 0.03076 0.0
C792 C 0.53924 0.97481 0.74242 0.0
C793 C 0.5411 0.96092 0.78068 0.0
C794 C 0.52271 0.94418 0.9065 0.0
C795 C 0.5319 0.8942 0.96005 0.0
C796 C 0.53012 0.91073 0.92389 0.0
C797 C 0.52657 0.95811 0.81738 0.0
C798 C 0.52767 0.94191 0.85442 0.0
H799 H 0.55887 0.85427 0.97643 0.0
H800 H 0.55758 0.88304 0.92433 0.0
H801 H 0.52048 0.93116 0.98092 0.0
H802 H 0.49597 0.9928 0.77709 0.0
H803 H 0.49911 0.96838 0.84396 0.0
C804 C 0.65434 0.5181 0.04306 0.0
C805 C 0.66204 0.53586 0.05811 0.0
C806 C 0.63901 0.51706 0.00851 0.0
C807 C 0.6153 0.54578 0.90693 0.0
H808 H 0.57719 0.50551 0.91207 0.0
C809 C 0.55222 0.5423 0.76302 0.0
C810 C 0.54831 0.52431 0.74136 0.0
C811 C 0.56477 0.54408 0.80473 0.0
C812 C 0.5878 0.51679 0.90993 0.0
H813 H 0.65893 0.56651 0.0493 0.0
H814 H 0.63187 0.56469 0.99112 0.0
H815 H 0.60103 0.50802 0.98021 0.0
H816 H 0.55404 0.49403 0.74743 0.0
H817 H 0.57592 0.49711 0.82008 0.0
H818 H 0.60207 0.55451 0.83662 0.0
C819 C 0.63797 0.5515 1.00503 0.0
C820 C 0.60152 0.51822 0.949 0.0
C821 C 0.65336 0.55254 0.0393 0.0
C822 C 0.55683 0.5081 0.76317 0.0
C823 C 0.56927 0.50986 0.80504 0.0
C824 C 0.60153 0.54442 0.86809 0.0
C825 C 0.63084 0.53375 0.98817 0.0
C826 C 0.61558 0.53266 0.9479 0.0
C827 C 0.57358 0.52789 0.82604 0.0
C828 C 0.58768 0.52982 0.86882 0.0
H829 H 0.66043 0.50493 0.05712 0.0
H830 H 0.63404 0.5031 0.99638 0.0
H831 H 0.62607 0.55687 0.90398 0.0
H832 H 0.54603 0.55508 0.74683 0.0
H833 H 0.56762 0.55816 0.82022 0.0
C834 C 0.9662 0.65454 0.0457 0.0
C835 C 0.97989 0.66911 0.05287 0.0
C836 C 0.96957 0.63942 0.01161 0.0
C837 C 0.99961 0.62734 0.898 0.0
H838 H 0.97796 0.57678 0.91688 0.0
C839 C 0.01624 0.56493 0.75968 0.0
C840 C 1.00083 0.55345 0.74355 0.0
C841 C 0.014 0.5783 0.79917 0.0
C842 C 0.98397 0.59088 0.91088 0.0
H843 H 0.00838 0.67841 0.03124 0.0
H844 H 0.01457 0.6517 0.97377 0.0
H845 H 0.97441 0.60075 0.98447 0.0
H846 H 0.97088 0.54712 0.75647 0.0
H847 H 0.96702 0.57031 0.82632 0.0
H848 H 0.00932 0.61737 0.82465 0.0
C849 C 1.00093 0.65226 0.99333 0.0
C850 C 0.98193 0.60467 0.94965 0.0
C851 C 0.9975 0.66747 0.02715 0.0
C852 C 0.98311 0.55557 0.76836 0.0
C853 C 0.9809 0.56885 0.80837 0.0
C854 C 1.00179 0.61351 0.85954 0.0
C855 C 0.98681 0.63827 0.98393 0.0
C856 C 0.98966 0.62316 0.94373 0.0
C857 C 0.9963 0.5805 0.824 0.0
C858 C 0.99395 0.59512 0.86534 0.0
H859 H 0.95259 0.65507 0.0654 0.0
H860 H 0.95827 0.62906 1.00551 0.0
H861 H 1.0054 0.64147 0.8912 0.0
H862 H 0.03015 0.56356 0.74181 0.0
H863 H 0.02622 0.58683 0.81063 0.0
C864 C 0.11006 0.19228 0.24685 0.0
C865 C 0.09924 0.2089 0.25471 0.0
C866 C 0.10625 0.17577 0.27543 0.0
C867 C 0.07591 0.15705 0.38343 0.0
H868 H 0.06997 0.1133 0.29344 0.0
C869 C 0.02584 0.0965 0.44231 0.0
C870 C 0.01397 0.08895 0.40342 0.0
C871 C 0.04202 0.10724 0.43012 0.0
C872 C 0.07141 0.1254 0.3191 0.0
H873 H 0.07691 0.22155 0.30144 0.0
H874 H 0.07026 0.19318 0.35031 0.0
H875 H 0.08855 0.14062 0.26484 0.0
H876 H 0.01089 0.08607 0.32072 0.0
H877 H 0.03791 0.10627 0.29958 0.0
H878 H 0.05719 0.14293 0.4354 0.0
C879 C 0.08191 0.19272 0.32295 0.0
C880 C 0.08245 0.14098 0.30307 0.0
C881 C 0.08575 0.20915 0.29471 0.0
C882 C 0.01926 0.092 0.3519 0.0
C883 C 0.03514 0.1033 0.33971 0.0
C884 C 0.06453 0.14172 0.39894 0.0
C885 C 0.09151 0.17558 0.31224 0.0
C886 C 0.08412 0.15736 0.33415 0.0
C887 C 0.0465 0.11148 0.37873 0.0
C888 C 0.06148 0.12598 0.36614 0.0
H889 H 0.12075 0.19173 0.21679 0.0
H890 H 0.11422 0.16294 0.26695 0.0
H891 H 0.0773 0.1692 0.409 0.0
H892 H 0.02235 0.09487 0.48257 0.0
H893 H 0.05064 0.11276 0.46136 0.0
C894 C 0.30418 0.04196 0.33237 0.0
C895 C 0.30916 0.0563 0.29699 0.0
C896 C 0.31766 0.03515 0.36729 0.0
C897 C 0.36708 0.04204 0.41763 0.0
H898 H 0.3701 0.98731 0.39713 0.0
C899 C 0.43792 1.00112 0.42118 0.0
C900 C 0.43796 0.98177 0.435 0.0
C901 C 0.42083 0.01132 0.42014 0.0
C902 C 0.36935 1.0025 0.40463 0.0
H903 H 0.33138 0.07624 0.27444 0.0
H904 H 0.35502 0.06412 0.33459 0.0
H905 H 0.34177 1.00419 0.37028 0.0
H906 H 0.42057 0.95827 0.46256 0.0
H907 H 0.39073 0.97614 0.46184 0.0
H908 H 0.39506 0.04033 0.45046 0.0
C909 C 0.34074 0.05813 0.33553 0.0
C910 C 0.35302 0.01221 0.38918 0.0
C911 C 0.32726 0.06494 0.30064 0.0
C912 C 0.4208 0.97306 0.45039 0.0
C913 C 0.40375 0.98331 0.45006 0.0
C914 C 0.38343 0.03227 0.43349 0.0
C915 C 0.33636 0.04254 0.36746 0.0
C916 C 0.35195 0.03216 0.39387 0.0
C917 C 0.40346 1.00243 0.43361 0.0
C918 C 0.38502 0.01246 0.42548 0.0
H919 H 0.29037 0.03496 0.33055 0.0
H920 H 0.31379 0.02332 0.392 0.0
H921 H 0.36655 0.05739 0.42231 0.0
H922 H 0.45102 0.00818 0.40944 0.0
H923 H 0.42117 0.02593 0.40663 0.0
C924 C 0.43342 0.32064 0.31698 0.0
C925 C 0.44392 0.30383 0.30955 0.0
C926 C 0.43821 0.33322 0.35676 0.0
C927 C 0.47197 0.34013 0.46788 0.0
H928 H 0.47576 0.39119 0.41161 0.0
C929 C 0.51824 0.39999 0.56139 0.0
C930 C 0.52881 0.41109 0.52646 0.0
C931 C 0.50421 0.38728 0.54369 0.0
C932 C 0.47484 0.377 0.42792 0.0
H933 H 0.46671 0.28634 0.34009 0.0
H934 H 0.47537 0.30829 0.40801 0.0
H935 H 0.45628 0.36754 0.36826 0.0
H936 H 0.53366 0.41708 0.44583 0.0
H937 H 0.5097 0.39466 0.41485 0.0
H938 H 0.49189 0.34938 0.52527 0.0
C939 C 0.46316 0.31174 0.38434 0.0
C940 C 0.46334 0.36346 0.40355 0.0
C941 C 0.45821 0.2991 0.34509 0.0
C942 C 0.52551 0.4089 0.47361 0.0
C943 C 0.51166 0.39617 0.45595 0.0
C944 C 0.4837 0.35366 0.49196 0.0
C945 C 0.4538 0.32938 0.38926 0.0
C946 C 0.46233 0.34463 0.42202 0.0
C947 C 0.50062 0.38541 0.49073 0.0
C948 C 0.48585 0.37202 0.47095 0.0
H949 H 0.42215 0.32449 0.2905 0.0
H950 H 0.43036 0.34644 0.36026 0.0
H951 H 0.4712 0.32589 0.48384 0.0
H952 H 0.52043 0.4015 0.60237 0.0
H953 H 0.49595 0.37923 0.57148 0.0
C954 C 0.20041 0.42623 0.28615 0.0
C955 C 0.21882 0.43434 0.28581 0.0
C956 C 0.18647 0.43311 0.31986 0.0
C957 C 0.17752 0.46775 0.42671 0.0
H958 H 0.13493 0.48272 0.34075 0.0
C959 C 0.11787 0.51975 0.49291 0.0
C960 C 0.11247 0.53362 0.45673 0.0
C961 C 0.13017 0.50498 0.47906 0.0
C962 C 0.14672 0.47865 0.36526 0.0
H963 H 0.23761 0.45435 0.3251 0.0
H964 H 0.21357 0.4661 0.38352 0.0
H965 H 0.15735 0.45901 0.30957 0.0
H966 H 0.11609 0.54317 0.37815 0.0
H967 H 0.13785 0.51754 0.35408 0.0
H968 H 0.16731 0.48826 0.48126 0.0
C969 C 0.20976 0.45449 0.35792 0.0
C970 C 0.1594 0.46479 0.34781 0.0
C971 C 0.22364 0.44766 0.32424 0.0
C972 C 0.12009 0.53276 0.40688 0.0
C973 C 0.13232 0.51794 0.39296 0.0
C974 C 0.16477 0.48162 0.44425 0.0
C975 C 0.19075 0.44815 0.35389 0.0
C976 C 0.17528 0.45958 0.37764 0.0
C977 C 0.13725 0.50373 0.42867 0.0
C978 C 0.1496 0.48763 0.41294 0.0
H979 H 0.19636 0.41563 0.25778 0.0
H980 H 0.17203 0.42761 0.31677 0.0
H981 H 0.18955 0.46394 0.45069 0.0
H982 H 0.11235 0.52018 0.53181 0.0
H983 H 0.13373 0.49425 0.50737 0.0
C984 C 0.94686 0.83961 0.92112 0.0
C985 C 0.94323 0.8201 0.91236 0.0
C986 C 0.95104 0.85182 0.88034 0.0
C987 C 0.97657 0.84968 0.76182 0.0
H988 H 0.96383 0.90341 0.7546 0.0
C989 C 0.0264 0.90261 0.65883 0.0
C990 C 0.03049 0.91904 0.68797 0.0
C991 C 0.01084 0.89092 0.67149 0.0
C992 C 0.96753 0.88842 0.75595 0.0
H993 H 0.93937 0.79864 0.85281 0.0
H994 H 0.94759 0.81992 0.78172 0.0
H995 H 0.94378 0.88178 0.80494 0.0
H996 H 0.02122 0.93624 0.75274 0.0
H997 H 0.99447 0.91591 0.77513 0.0
H998 H 1.00113 0.85642 0.71662 0.0
C999 C 0.94712 0.82564 0.82042 0.0
C1000 C 0.95596 0.87605 0.78446 0.0
C1001 C 0.94259 0.81345 0.86123 0.0
C1002 C 0.01834 0.92385 0.72896 0.0
C1003 C 1.00288 0.91219 0.74165 0.0
C1004 C 0.98825 0.86208 0.73381 0.0
C1005 C 0.95197 0.84479 0.82986 0.0
C1006 C 0.96086 0.85673 0.78943 0.0
C1007 C 0.9991 0.8954 0.7137 0.0
C1008 C 0.98436 0.88175 0.73256 0.0
H1009 H 0.94782 0.84532 0.95972 0.0
H1010 H 0.95499 0.86646 0.88886 0.0
H1011 H 0.98077 0.83488 0.76534 0.0
H1012 H 0.03527 0.89873 0.62637 0.0
H1013 H 0.00817 0.87824 0.64867 0.0
C1014 C 0.69463 0.91696 0.98291 0.0
C1015 C 0.71288 0.92531 0.97959 0.0
C1016 C 0.68065 0.92119 0.94633 0.0
C1017 C 0.67197 0.94817 0.82414 0.0
H1018 H 0.62701 0.96554 0.89735 0.0
C1019 C 0.62994 0.01501 0.76922 0.0
C1020 C 0.61004 0.01518 0.77575 0.0
C1021 C 0.64053 0.99903 0.78341 0.0
C1022 C 0.63923 0.96043 0.87588 0.0
H1023 H 0.73124 0.94331 0.93276 0.0
H1024 H 0.70709 0.95074 0.86981 0.0
H1025 H 0.64944 0.94465 0.94014 0.0
H1026 H 0.58553 0.99857 0.801 0.0
H1027 H 0.60409 0.97065 0.82591 0.0
H1028 H 0.66223 0.96516 0.76102 0.0
C1029 C 0.70346 0.94074 0.9 0.0
C1030 C 0.6521 0.94834 0.90037 0.0
C1031 C 0.7174 0.93645 0.93634 0.0
C1032 C 0.60086 0.99882 0.7953 0.0
C1033 C 0.61147 0.98288 0.80978 0.0
C1034 C 0.65914 0.96041 0.79977 0.0
C1035 C 0.68466 0.93393 0.90593 0.0
C1036 C 0.66902 0.94268 0.87554 0.0
C1037 C 0.63144 0.98294 0.80468 0.0
C1038 C 0.64303 0.96721 0.82613 0.0
H1039 H 0.69083 0.90804 0.01537 0.0
H1040 H 0.66642 0.91536 0.95135 0.0
H1041 H 0.68467 0.94378 0.80357 0.0
H1042 H 0.63736 0.02732 0.75367 0.0
H1043 H 0.65593 0.99959 0.77963 0.0
C1044 C 0.58539 0.70989 0.87738 0.0
C1045 C 0.57953 0.70526 0.92765 0.0
C1046 C 0.58114 0.69769 0.83631 0.0
C1047 C 0.56307 0.64941 0.80233 0.0
H1048 H 0.5331 0.67624 0.70025 0.0
C1049 C 0.50199 0.61311 0.69502 0.0
C1050 C 0.49894 0.6171 0.64269 0.0
C1051 C 0.51562 0.6232 0.72311 0.0
C1052 C 0.54175 0.66851 0.72765 0.0
H1053 H 0.56594 0.68336 0.97432 0.0
H1054 H 0.55905 0.66207 0.90329 0.0
H1055 H 0.55241 0.69432 0.76129 0.0
H1056 H 0.50733 0.63565 0.57982 0.0
H1057 H 0.53115 0.6534 0.62916 0.0
H1058 H 0.55186 0.62362 0.76991 0.0
C1059 C 0.56688 0.67512 0.89551 0.0
C1060 C 0.55286 0.67888 0.76258 0.0
C1061 C 0.57091 0.68738 0.93641 0.0
C1062 C 0.50932 0.63211 0.61989 0.0
C1063 C 0.52303 0.64225 0.64811 0.0
C1064 C 0.55204 0.63905 0.76729 0.0
C1065 C 0.57123 0.68051 0.84484 0.0
C1066 C 0.56307 0.66945 0.80145 0.0
C1067 C 0.52649 0.63771 0.69989 0.0
C1068 C 0.54067 0.64852 0.73088 0.0
H1069 H 0.59244 0.72335 0.86939 0.0
H1070 H 0.5849 0.70205 0.79765 0.0
H1071 H 0.57101 0.64178 0.83145 0.0
H1072 H 0.49376 0.60221 0.71463 0.0
H1073 H 0.51742 0.61979 0.76341 0.0
C1074 C 0.7969 0.55845 0.86512 0.0
C1075 C 0.79958 0.57477 0.89563 0.0
C1076 C 0.8091 0.55466 0.82407 0.0
C1077 C 0.85869 0.56531 0.78571 0.0
H1078 H 0.84571 0.52779 0.68174 0.0
C1079 C 0.89553 0.50416 0.64497 0.0
C1080 C 0.90969 0.49843 0.67988 0.0
C1081 C 0.88292 0.51887 0.65769 0.0
C1082 C 0.84972 0.5386 0.70953 0.0
H1083 H 0.81604 0.6008 0.90459 0.0
H1084 H 0.83699 0.59466 0.83123 0.0
H1085 H 0.82051 0.54532 0.72431 0.0
H1086 H 0.92178 0.50363 0.7553 0.0
H1087 H 0.89953 0.52846 0.77839 0.0
H1088 H 0.88791 0.55898 0.76995 0.0
C1089 C 0.82587 0.58439 0.84008 0.0
C1090 C 0.83516 0.54847 0.73473 0.0
C1091 C 0.81381 0.588 0.88191 0.0
C1092 C 0.91124 0.50793 0.7272 0.0
C1093 C 0.89848 0.52235 0.74026 0.0
C1094 C 0.87325 0.55582 0.75956 0.0
C1095 C 0.82418 0.56725 0.81193 0.0
C1096 C 0.8394 0.56105 0.77546 0.0
C1097 C 0.88396 0.52788 0.70605 0.0
C1098 C 0.86894 0.54145 0.7235 0.0
H1099 H 0.78622 0.54786 0.8752 0.0
H1100 H 0.80742 0.54115 0.80436 0.0
H1101 H 0.8627 0.57493 0.81649 0.0
H1102 H 0.89423 0.49731 0.60777 0.0
H1103 H 0.87222 0.52296 0.62985 0.0
C1104 C 0.01897 0.20083 0.89567 0.0
C1105 C 0.03387 0.21303 0.87975 0.0
C1106 C 0.01536 0.18359 0.86991 0.0
C1107 C 0.02634 0.15644 0.74934 0.0
H1108 H 0.01408 0.11247 0.83371 0.0
C1109 C 0.02955 0.07884 0.67171 0.0
C1110 C 0.01458 0.06648 0.68567 0.0
C1111 C 0.03131 0.09689 0.69454 0.0
C1112 C 0.01731 0.12463 0.80949 0.0
H1113 H 0.05592 0.21696 0.82206 0.0
H1114 H 0.05001 0.18683 0.77819 0.0
H1115 H 0.01759 0.14379 0.87364 0.0
H1116 H 0.98968 0.06328 0.73434 0.0
H1117 H 0.99271 0.0948 0.77435 0.0
H1118 H 0.02642 0.13711 0.68534 0.0
C1119 C 0.04096 0.19059 0.81037 0.0
C1120 C 0.01926 0.14266 0.83238 0.0
C1121 C 0.0445 0.20785 0.83597 0.0
C1122 C 1.00134 0.07254 0.72279 0.0
C1123 C 1.00319 0.09053 0.74598 0.0
C1124 C 0.02452 0.13838 0.72653 0.0
C1125 C 0.02658 0.178 0.82754 0.0
C1126 C 0.02384 0.15886 0.80268 0.0
C1127 C 0.01816 0.10297 0.73203 0.0
C1128 C 0.02001 0.12223 0.75631 0.0
H1129 H 0.01056 0.20417 0.92943 0.0
H1130 H 1.00392 0.1745 0.88376 0.0
H1131 H 0.02957 0.16854 0.72495 0.0
H1132 H 0.03983 0.07461 0.64278 0.0
H1133 H 0.04312 0.106 0.68323 0.0
C1134 C 0.32144 0.05443 0.85342 0.0
C1135 C 0.31153 0.0376 0.86647 0.0
C1136 C 0.33837 0.05368 0.82469 0.0
C1137 C 0.36771 0.02304 0.73907 0.0
H1138 H 0.41007 0.05266 0.79345 0.0
C1139 C 0.45521 0.02543 0.72574 0.0
C1140 C 0.45827 0.02534 0.67232 0.0
C1141 C 0.43685 0.0277 0.74603 0.0
C1142 C 0.3984 0.0443 0.77775 0.0
H1143 H 0.31122 1.00685 0.85711 0.0
H1144 H 0.34069 1.00556 0.80672 0.0
H1145 H 0.3786 0.05519 0.83318 0.0
H1146 H 0.44438 0.02802 0.59834 0.0
H1147 H 0.41211 0.03144 0.63381 0.0
H1148 H 0.3877 0.01197 0.68399 0.0
C1149 C 0.33538 0.01935 0.81885 0.0
C1150 C 0.38029 0.04589 0.80022 0.0
C1151 C 0.31855 0.02008 0.84802 0.0
C1152 C 0.44247 0.02768 0.63964 0.0
C1153 C 0.424 0.02968 0.65996 0.0
C1154 C 0.38582 0.02161 0.71616 0.0
C1155 C 0.34576 0.0361 0.80781 0.0
C1156 C 0.36474 0.03514 0.78156 0.0
C1157 C 0.42098 0.02979 0.71347 0.0
C1158 C 0.40144 0.03205 0.73566 0.0
H1159 H 0.31659 0.06816 0.86736 0.0
H1160 H 0.34587 0.06688 0.81641 0.0
H1161 H 0.35603 0.01464 0.72353 0.0
H1162 H 0.467 0.02346 0.75208 0.0
H1163 H 0.43504 0.02748 0.78738 0.0
C1164 C 0.50544 0.33436 0.90777 0.0
C1165 C 0.49101 0.32149 0.89261 0.0
C1166 C 0.50834 0.35151 0.88107 0.0
C1167 C 0.4994 0.37615 0.75768 0.0
H1168 H 0.50346 0.42242 0.83912 0.0
C1169 C 0.51842 0.45009 0.6699 0.0
C1170 C 0.50763 0.46584 0.68657 0.0
C1171 C 0.51664 0.43231 0.69403 0.0
C1172 C 0.50228 0.40964 0.81581 0.0
H1173 H 0.46888 0.31624 0.83608 0.0
H1174 H 0.47415 0.34601 0.78901 0.0
H1175 H 0.50062 0.3915 0.882 0.0
H1176 H 0.48657 0.4751 0.74236 0.0
H1177 H 0.48343 0.44405 0.78433 0.0
H1178 H 0.50107 0.39432 0.69146 0.0
C1179 C 0.48315 0.34289 0.82176 0.0
C1180 C 0.50085 0.3919 0.84038 0.0
C1181 C 0.48007 0.32587 0.84887 0.0
C1182 C 0.49498 0.4633 0.72811 0.0
C1183 C 0.49331 0.44552 0.7525 0.0
C1184 C 0.5011 0.39388 0.73308 0.0
C1185 C 0.49707 0.35611 0.8381 0.0
C1186 C 0.49929 0.37492 0.81167 0.0
C1187 C 0.5041 0.42979 0.73573 0.0
C1188 C 0.50245 0.41087 0.76185 0.0
H1189 H 0.514 0.33153 0.94156 0.0
H1190 H 0.51931 0.36128 0.89438 0.0
H1191 H 0.49831 0.36335 0.7344 0.0
H1192 H 0.52829 0.45146 0.63809 0.0
H1193 H 0.52539 0.4206 0.68067 0.0
C1194 C 0.20012 0.48193 0.86675 0.0
C1195 C 0.2061 0.49661 0.90016 0.0
C1196 C 0.18321 0.48364 0.83831 0.0
C1197 C 0.14747 0.51879 0.79187 0.0
H1198 H 0.11355 0.4749 0.78715 0.0
C1199 C 0.06927 0.52494 0.72233 0.0
C1200 C 0.0616 0.50993 0.69288 0.0
C1201 C 0.08715 0.52316 0.74589 0.0
C1202 C 0.12293 0.48723 0.78743 0.0
H1203 H 0.19927 0.52495 0.92798 0.0
H1204 H 0.16982 0.52791 0.87869 0.0
H1205 H 0.14453 0.47228 0.82929 0.0
H1206 H 0.06696 0.48152 0.66369 0.0
H1207 H 0.09812 0.47828 0.70491 0.0
H1208 H 0.1259 0.53376 0.7501 0.0
C1209 C 0.17821 0.51506 0.87434 0.0
C1210 C 0.14074 0.48572 0.81164 0.0
C1211 C 0.19505 0.51331 0.90295 0.0
C1212 C 0.07229 0.49314 0.68716 0.0
C1213 C 0.09018 0.49133 0.71075 0.0
C1214 C 0.12969 0.52028 0.76755 0.0
C1215 C 0.17187 0.50012 0.84226 0.0
C1216 C 0.15322 0.50152 0.81449 0.0
C1217 C 0.09791 0.50634 0.74038 0.0
C1218 C 0.11709 0.50457 0.76527 0.0
H1219 H 0.20814 0.46878 0.86398 0.0
H1220 H 0.17892 0.47195 0.81352 0.0
H1221 H 0.15679 0.53116 0.7926 0.0
H1222 H 0.06134 0.53804 0.72768 0.0
H1223 H 0.09242 0.53491 0.76903 0.0
C1224 C 0.99488 0.82821 0.3661 0.0
C1225 C 0.97599 0.82381 0.35151 0.0
C1226 C 0.99877 0.8438 0.39864 0.0
C1227 C 0.97949 0.89063 0.42897 0.0
H1228 H 0.01358 0.89119 0.54641 0.0
C1229 C 0.01009 0.96021 0.51516 0.0
C1230 C 0.00698 0.96302 0.56796 0.0
C1231 C 0.00662 0.94244 0.49237 0.0
C1232 C 1.00398 0.89119 0.5138 0.0
H1233 H 0.94632 0.8315 0.36377 0.0
H1234 H 0.95318 0.85884 0.41881 0.0
H1235 H 0.00691 0.86096 0.5014 0.0
H1236 H 0.99876 0.94904 0.63893 0.0
H1237 H 0.99292 0.91774 0.59893 0.0
H1238 H 0.97693 0.92084 0.44028 0.0
C1239 C 0.96498 0.85038 0.4046 0.0
C1240 C 1.00026 0.87395 0.48791 0.0
C1241 C 0.96108 0.83472 0.37283 0.0
C1242 C 1.00122 0.94734 0.59807 0.0
C1243 C 0.99793 0.92944 0.57528 0.0
C1244 C 0.98351 0.90785 0.45411 0.0
C1245 C 0.98387 0.85541 0.41686 0.0
C1246 C 0.98792 0.87349 0.44526 0.0
C1247 C 1.00034 0.9269 0.52203 0.0
C1248 C 0.9958 0.90835 0.49674 0.0
H1249 H 0.00675 0.82026 0.35034 0.0
H1250 H 0.01349 0.84735 0.40739 0.0
H1251 H 0.97004 0.89078 0.39602 0.0
H1252 H 0.01515 0.97181 0.49127 0.0
H1253 H 0.00884 0.94085 0.45137 0.0
C1254 C 0.70665 0.98846 0.40848 0.0
C1255 C 0.70966 0.99497 0.35798 0.0
C1256 C 0.68947 0.99219 0.43425 0.0
C1257 C 0.64482 0.0216 0.42861 0.0
H1258 H 0.62448 0.98081 0.51322 0.0
C1259 C 0.57385 0.02968 0.54337 0.0
C1260 C 0.56202 0.01348 0.54808 0.0
C1261 C 0.59219 0.02822 0.52188 0.0
C1262 C 0.62979 0.99232 0.48937 0.0
H1263 H 0.69694 0.01085 0.29546 0.0
H1264 H 0.66697 0.01714 0.33983 0.0
H1265 H 0.65554 0.97719 0.47297 0.0
H1266 H 0.56016 0.9831 0.53279 0.0
H1267 H 0.59171 0.98063 0.49422 0.0
H1268 H 0.61866 0.03638 0.44336 0.0
C1269 C 0.678 0.00945 0.36017 0.0
C1270 C 0.64787 0.99037 0.46684 0.0
C1271 C 0.69525 1.00585 0.33458 0.0
C1272 C 0.56891 0.99585 0.5302 0.0
C1273 C 0.58714 0.99442 0.50834 0.0
C1274 C 0.62666 0.02351 0.45092 0.0
C1275 C 0.67468 1.0024 0.41011 0.0
C1276 C 0.65566 1.00493 0.43587 0.0
C1277 C 0.59916 0.01054 0.50413 0.0
C1278 C 0.61879 0.00883 0.48138 0.0
H1279 H 0.71752 0.98022 0.42791 0.0
H1280 H 0.68774 0.98689 0.47304 0.0
H1281 H 0.65034 0.03327 0.40566 0.0
H1282 H 0.5691 0.04346 0.55713 0.0
H1283 H 0.60102 0.04093 0.52008 0.0
C1284 C 0.54782 0.70913 0.38472 0.0
C1285 C 0.53629 0.71202 0.3412 0.0
C1286 C 0.54553 0.6928 0.41527 0.0
C1287 C 0.51264 0.65121 0.43963 0.0
H1288 H 0.55853 0.62798 0.49406 0.0
C1289 C 0.51469 0.57315 0.51143 0.0
C1290 C 0.52386 0.56976 0.55847 0.0
C1291 C 0.51588 0.59106 0.48795 0.0
C1292 C 0.54556 0.63438 0.47952 0.0
H1293 H 0.51316 0.70003 0.29611 0.0
H1294 H 0.50939 0.67148 0.34837 0.0
H1295 H 0.56074 0.65832 0.44861 0.0
H1296 H 0.54183 0.58218 0.61742 0.0
H1297 H 0.54472 0.61337 0.57509 0.0
H1298 H 0.49763 0.62684 0.46932 0.0
C1299 C 0.51992 0.68199 0.35999 0.0
C1300 C 0.54678 0.65188 0.45359 0.0
C1301 C 0.52208 0.69842 0.32982 0.0
C1302 C 0.53454 0.58451 0.58127 0.0
C1303 C 0.53627 0.60228 0.55688 0.0
C1304 C 0.51148 0.6336 0.46496 0.0
C1305 C 0.5318 0.67876 0.40281 0.0
C1306 C 0.53035 0.66053 0.43286 0.0
C1307 C 0.52672 0.60585 0.51028 0.0
C1308 C 0.52794 0.6249 0.48489 0.0
H1309 H 0.5588 0.71941 0.39481 0.0
H1310 H 0.55467 0.69115 0.44849 0.0
H1311 H 0.49958 0.6575 0.42544 0.0
H1312 H 0.50636 0.56199 0.49308 0.0
H1313 H 0.50855 0.59326 0.45182 0.0
C1314 C 0.81993 0.54327 0.38918 0.0
C1315 C 0.8216 0.53753 0.33754 0.0
C1316 C 0.83493 0.5401 0.42401 0.0
C1317 C 0.87882 0.51116 0.44254 0.0
H1318 H 0.89657 0.55341 0.52658 0.0
C1319 C 0.95497 0.51309 0.52367 0.0
C1320 C 0.95806 0.52016 0.57349 0.0
C1321 C 0.93705 0.51454 0.5005 0.0
C1322 C 0.89165 0.54136 0.504 0.0
H1323 H 0.83992 0.52324 0.28262 0.0
H1324 H 0.86584 0.51765 0.34285 0.0
H1325 H 0.86702 0.55652 0.47711 0.0
H1326 H 0.94488 0.53449 0.63808 0.0
H1327 H 0.91353 0.53759 0.5969 0.0
H1328 H 0.90346 0.49606 0.4686 0.0
C1329 C 0.85306 0.52462 0.35676 0.0
C1330 C 0.87468 0.54314 0.47565 0.0
C1331 C 0.83824 0.52795 0.32205 0.0
C1332 C 0.94283 0.52881 0.59971 0.0
C1333 C 0.92492 0.53064 0.57602 0.0
C1334 C 0.89569 0.50937 0.47085 0.0
C1335 C 0.85176 0.53085 0.40805 0.0
C1336 C 0.86833 0.52822 0.4435 0.0
C1337 C 0.92171 0.52325 0.52635 0.0
C1338 C 0.90264 0.52462 0.50087 0.0
H1339 H 0.80731 0.55077 0.40216 0.0
H1340 H 0.83341 0.54497 0.46333 0.0
H1341 H 0.87415 0.49922 0.41912 0.0
H1342 H 0.96643 0.5063 0.50258 0.0
H1343 H 0.9353 0.50907 0.46182 0.0
loop_
_geom_bond_atom_site_label_1
_geom_bond_atom_site_label_2
_geom_bond_distance
_geom_bond_site_symmetry_2
_ccdc_geom_bond_type
C0 C1 1.384 . S
C0 H13 0.947 . S
C0 C35 1.382 . S
C1 C0 1.384 . S
C1 C2 1.378 . S
C2 C1 1.378 . S
C2 C3 1.378 . S
C2 H14 0.952 . S
C3 C2 1.378 . S
C3 H15 0.950 . S
C3 C34 1.383 . S
H4 C23 0.947 . S
H5 C24 0.946 . S
H6 C26 0.953 . S
H7 C27 0.945 . S
H8 C29 0.952 . S
H9 C30 0.949 1_556 S
H10 C32 0.950 . S
H11 C33 0.948 . S
H12 C35 0.951 . S
H13 C0 0.947 . S
H14 C2 0.952 . S
H15 C3 0.950 . S
N16 C19 1.382 . S
N16 C21 1.363 . S
N17 C19 1.371 . S
N17 C20 1.372 . S
N18 C20 1.361 . S
N18 C21 1.377 . S
C19 N16 1.382 . S
C19 N17 1.371 . S
C19 C22 1.480 . S
C20 N17 1.372 . S
C20 N18 1.361 . S
C20 C28 1.457 . S
C21 N16 1.363 . S
C21 N18 1.377 . S
C21 C34 1.479 . S
C22 C19 1.480 . S
C22 C23 1.383 . S
C22 C27 1.385 . S
C23 H4 0.947 . S
C23 C22 1.383 . S
C23 C24 1.388 . S
C24 H5 0.946 . S
C24 C23 1.388 . S
C24 C25 1.384 . S
C25 C24 1.384 . S
C25 C26 1.377 . S
C26 H6 0.953 . S
C26 C25 1.377 . S
C26 C27 1.369 . S
C27 H7 0.945 . S
C27 C22 1.385 . S
C27 C26 1.369 . S
C28 C20 1.457 . S
C28 C29 1.372 . S
C28 C33 1.364 . S
C29 H8 0.952 . S
C29 C28 1.372 . S
C29 C30 1.389 . S
C30 H9 0.949 1_554 S
C30 C29 1.389 . S
C30 C31 1.387 . S
C31 C30 1.387 . S
C31 C32 1.372 . S
C32 H10 0.950 . S
C32 C31 1.372 . S
C32 C33 1.379 . S
C33 H11 0.948 . S
C33 C28 1.364 . S
C33 C32 1.379 . S
C34 C3 1.383 . S
C34 C21 1.479 . S
C34 C35 1.398 . S
C35 C0 1.382 . S
C35 H12 0.951 . S
C35 C34 1.398 . S
C36 C37 1.384 . S
C36 H49 0.947 . S
C36 C71 1.382 . S
C37 C36 1.384 . S
C37 C38 1.378 . S
C38 C37 1.378 . S
C38 C39 1.378 . S
C38 H50 0.952 . S
C39 C38 1.378 . S
C39 H51 0.950 . S
C39 C70 1.383 . S
H40 C59 0.947 . S
H41 C60 0.946 . S
H42 C62 0.953 . S
H43 C63 0.945 . S
H44 C65 0.952 . S
H45 C66 0.949 1_556 S
H46 C68 0.950 . S
H47 C69 0.948 . S
H48 C71 0.951 . S
H49 C36 0.947 . S
H50 C38 0.952 . S
H51 C39 0.950 . S
N52 C55 1.382 . S
N52 C57 1.363 . S
N53 C55 1.371 . S
N53 C56 1.372 . S
N54 C56 1.361 . S
N54 C57 1.377 . S
C55 N52 1.382 . S
C55 N53 1.371 . S
C55 C58 1.480 . S
C56 N53 1.372 . S
C56 N54 1.361 . S
C56 C64 1.457 . S
C57 N52 1.363 . S
C57 N54 1.377 . S
C57 C70 1.479 . S
C58 C55 1.480 . S
C58 C59 1.383 . S
C58 C63 1.385 . S
C59 H40 0.947 . S
C59 C58 1.383 . S
C59 C60 1.388 . S
C60 H41 0.946 . S
C60 C59 1.388 . S
C60 C61 1.384 . S
C61 C60 1.384 . S
C61 C62 1.377 . S
C62 H42 0.953 . S
C62 C61 1.377 . S
C62 C63 1.369 . S
C63 H43 0.945 . S
C63 C58 1.385 . S
C63 C62 1.369 . S
C64 C56 1.457 . S
C64 C65 1.372 . S
C64 C69 1.364 . S
C65 H44 0.952 . S
C65 C64 1.372 . S
C65 C66 1.389 . S
C66 H45 0.949 1_554 S
C66 C65 1.389 . S
C66 C67 1.387 . S
C67 C66 1.387 . S
C67 C68 1.372 . S
C68 H46 0.950 . S
C68 C67 1.372 . S
C68 C69 1.379 . S
C69 H47 0.948 . S
C69 C64 1.364 . S
C69 C68 1.379 . S
C70 C39 1.383 . S
C70 C57 1.479 . S
C70 C71 1.398 . S
C71 C36 1.382 . S
C71 H48 0.951 . S
C71 C70 1.398 . S
C72 C73 1.384 . S
C72 H85 0.947 . S
C72 C107 1.382 . S
C73 C72 1.384 . S
C73 C74 1.378 . S
C74 C73 1.378 . S
C74 C75 1.378 . S
C74 H86 0.952 . S
C75 C74 1.378 . S
C75 H87 0.950 . S
C75 C106 1.383 . S
H76 C95 0.947 . S
H77 C96 0.946 . S
H78 C98 0.953 . S
H79 C99 0.945 . S
H80 C101 0.952 . S
H81 C102 0.949 1_556 S
H82 C104 0.950 . S
H83 C105 0.948 . S
H84 C107 0.951 . S
H85 C72 0.947 . S
H86 C74 0.952 . S
H87 C75 0.950 . S
N88 C91 1.382 . S
N88 C93 1.363 . S
N89 C91 1.371 . S
N89 C92 1.372 . S
N90 C92 1.361 . S
N90 C93 1.377 . S
C91 N88 1.382 . S
C91 N89 1.371 . S
C91 C94 1.480 . S
C92 N89 1.372 . S
C92 N90 1.361 . S
C92 C100 1.457 . S
C93 N88 1.363 . S
C93 N90 1.377 . S
C93 C106 1.479 . S
C94 C91 1.480 . S
C94 C95 1.383 . S
C94 C99 1.385 . S
C95 H76 0.947 . S
C95 C94 1.383 . S
C95 C96 1.388 . S
C96 H77 0.946 . S
C96 C95 1.388 . S
C96 C97 1.384 . S
C97 C96 1.384 . S
C97 C98 1.377 . S
C98 H78 0.953 . S
C98 C97 1.377 . S
C98 C99 1.369 . S
C99 H79 0.945 . S
C99 C94 1.385 . S
C99 C98 1.369 . S
C100 C92 1.457 . S
C100 C101 1.372 . S
C100 C105 1.364 . S
C101 H80 0.952 . S
C101 C100 1.372 . S
C101 C102 1.389 . S
C102 H81 0.949 1_554 S
C102 C101 1.389 . S
C102 C103 1.387 . S
C103 C102 1.387 . S
C103 C104 1.372 . S
C104 H82 0.950 . S
C104 C103 1.372 . S
C104 C105 1.379 . S
C105 H83 0.948 . S
C105 C100 1.364 . S
C105 C104 1.379 . S
C106 C75 1.383 . S
C106 C93 1.479 . S
C106 C107 1.398 . S
C107 C72 1.382 . S
C107 H84 0.951 . S
C107 C106 1.398 . S
C108 C109 1.384 . S
C108 H121 0.947 . S
C108 C143 1.382 . S
C109 C108 1.384 . S
C109 C110 1.378 . S
C110 C109 1.378 . S
C110 C111 1.378 . S
C110 H122 0.952 1_554 S
C111 C110 1.378 . S
C111 H123 0.950 . S
C111 C142 1.383 . S
H112 C131 0.947 . S
H113 C132 0.946 . S
H114 C134 0.953 . S
H115 C135 0.945 . S
H116 C137 0.952 . S
H117 C138 0.949 . S
H118 C140 0.950 . S
H119 C141 0.948 . S
H120 C143 0.951 . S
H121 C108 0.947 . S
H122 C110 0.952 1_556 S
H123 C111 0.950 . S
N124 C127 1.382 . S
N124 C129 1.363 . S
N125 C127 1.371 . S
N125 C128 1.372 . S
N126 C128 1.361 . S
N126 C129 1.377 . S
C127 N124 1.382 . S
C127 N125 1.371 . S
C127 C130 1.480 . S
C128 N125 1.372 . S
C128 N126 1.361 . S
C128 C136 1.457 . S
C129 N124 1.363 . S
C129 N126 1.377 . S
C129 C142 1.479 . S
C130 C127 1.480 . S
C130 C131 1.383 . S
C130 C135 1.385 . S
C131 H112 0.947 . S
C131 C130 1.383 . S
C131 C132 1.388 . S
C132 H113 0.946 . S
C132 C131 1.388 . S
C132 C133 1.384 . S
C133 C132 1.384 . S
C133 C134 1.377 . S
C134 H114 0.953 . S
C134 C133 1.377 . S
C134 C135 1.369 . S
C135 H115 0.945 . S
C135 C130 1.385 . S
C135 C134 1.369 . S
C136 C128 1.457 . S
C136 C137 1.372 . S
C136 C141 1.364 . S
C137 H116 0.952 . S
C137 C136 1.372 . S
C137 C138 1.389 . S
C138 H117 0.949 . S
C138 C137 1.389 . S
C138 C139 1.387 . S
C139 C138 1.387 . S
C139 C140 1.372 . S
C140 H118 0.950 . S
C140 C139 1.372 . S
C140 C141 1.379 . S
C141 H119 0.948 . S
C141 C136 1.364 . S
C141 C140 1.379 . S
C142 C111 1.383 . S
C142 C129 1.479 . S
C142 C143 1.398 . S
C143 C108 1.382 . S
C143 H120 0.951 . S
C143 C142 1.398 . S
C144 C145 1.384 . S
C144 H157 0.947 . S
C144 C179 1.382 . S
C145 C144 1.384 . S
C145 C146 1.378 . S
C146 C145 1.378 . S
C146 C147 1.378 . S
C146 H158 0.952 . S
C147 C146 1.378 . S
C147 H159 0.950 . S
C147 C178 1.383 . S
H148 C167 0.947 1_556 S
H149 C168 0.946 . S
H150 C170 0.953 . S
H151 C171 0.945 . S
H152 C173 0.952 . S
H153 C174 0.949 . S
H154 C176 0.950 . S
H155 C177 0.948 . S
H156 C179 0.951 . S
H157 C144 0.947 . S
H158 C146 0.952 . S
H159 C147 0.950 . S
N160 C163 1.382 1_556 S
N160 C165 1.363 . S
N161 C163 1.371 . S
N161 C164 1.372 . S
N162 C164 1.361 . S
N162 C165 1.377 1_554 S
C163 N160 1.382 1_554 S
C163 N161 1.371 . S
C163 C166 1.480 . S
C164 N161 1.372 . S
C164 N162 1.361 . S
C164 C172 1.457 . S
C165 N160 1.363 . S
C165 N162 1.377 1_556 S
C165 C178 1.479 . S
C166 C163 1.480 . S
C166 C167 1.383 . S
C166 C171 1.385 . S
C167 H148 0.947 1_554 S
C167 C166 1.383 . S
C167 C168 1.388 . S
C168 H149 0.946 . S
C168 C167 1.388 . S
C168 C169 1.384 . S
C169 C168 1.384 . S
C169 C170 1.377 . S
C170 H150 0.953 . S
C170 C169 1.377 . S
C170 C171 1.369 . S
C171 H151 0.945 . S
C171 C166 1.385 . S
C171 C170 1.369 . S
C172 C164 1.457 . S
C172 C173 1.372 . S
C172 C177 1.364 . S
C173 H152 0.952 . S
C173 C172 1.372 . S
C173 C174 1.389 . S
C174 H153 0.949 . S
C174 C173 1.389 . S
C174 C175 1.387 . S
C175 C174 1.387 . S
C175 C176 1.372 . S
C176 H154 0.950 . S
C176 C175 1.372 . S
C176 C177 1.379 . S
C177 H155 0.948 . S
C177 C172 1.364 . S
C177 C176 1.379 . S
C178 C147 1.383 . S
C178 C165 1.479 . S
C178 C179 1.398 . S
C179 C144 1.382 . S
C179 H156 0.951 . S
C179 C178 1.398 . S
C180 C181 1.384 . S
C180 H193 0.947 . S
C180 C215 1.382 . S
C181 C180 1.384 . S
C181 C182 1.378 . S
C182 C181 1.378 . S
C182 C183 1.378 . S
C182 H194 0.952 . S
C183 C182 1.378 . S
C183 H195 0.950 . S
C183 C214 1.383 . S
H184 C203 0.947 1_556 S
H185 C204 0.946 . S
H186 C206 0.953 . S
H187 C207 0.945 . S
H188 C209 0.952 . S
H189 C210 0.949 . S
H190 C212 0.950 . S
H191 C213 0.948 . S
H192 C215 0.951 . S
H193 C180 0.947 . S
H194 C182 0.952 . S
H195 C183 0.950 . S
N196 C199 1.382 1_556 S
N196 C201 1.363 . S
N197 C199 1.371 . S
N197 C200 1.372 . S
N198 C200 1.361 . S
N198 C201 1.377 1_554 S
C199 N196 1.382 1_554 S
C199 N197 1.371 . S
C199 C202 1.480 . S
C200 N197 1.372 . S
C200 N198 1.361 . S
C200 C208 1.457 . S
C201 N196 1.363 . S
C201 N198 1.377 1_556 S
C201 C214 1.479 . S
C202 C199 1.480 . S
C202 C203 1.383 . S
C202 C207 1.385 . S
C203 H184 0.947 1_554 S
C203 C202 1.383 . S
C203 C204 1.388 . S
C204 H185 0.946 . S
C204 C203 1.388 . S
C204 C205 1.384 . S
C205 C204 1.384 . S
C205 C206 1.377 . S
C206 H186 0.953 . S
C206 C205 1.377 . S
C206 C207 1.369 . S
C207 H187 0.945 . S
C207 C202 1.385 . S
C207 C206 1.369 . S
C208 C200 1.457 . S
C208 C209 1.372 . S
C208 C213 1.364 . S
C209 H188 0.952 . S
C209 C208 1.372 . S
C209 C210 1.389 . S
C210 H189 0.949 . S
C210 C209 1.389 . S
C210 C211 1.387 . S
C211 C210 1.387 . S
C211 C212 1.372 . S
C212 H190 0.950 . S
C212 C211 1.372 . S
C212 C213 1.379 . S
C213 H191 0.948 . S
C213 C208 1.364 . S
C213 C212 1.379 . S
C214 C183 1.383 . S
C214 C201 1.479 . S
C214 C215 1.398 . S
C215 C180 1.382 . S
C215 H192 0.951 . S
C215 C214 1.398 . S
C216 C217 1.384 . S
C216 H229 0.947 . S
C216 C251 1.382 . S
C217 C216 1.384 . S
C217 C218 1.378 . S
C218 C217 1.378 . S
C218 C219 1.378 . S
C218 H230 0.952 . S
C219 C218 1.378 . S
C219 H231 0.950 . S
C219 C250 1.383 . S
H220 C239 0.947 1_556 S
H221 C240 0.946 . S
H222 C242 0.953 . S
H223 C243 0.945 . S
H224 C245 0.952 . S
H225 C246 0.949 . S
H226 C248 0.950 . S
H227 C249 0.948 . S
H228 C251 0.951 . S
H229 C216 0.947 . S
H230 C218 0.952 . S
H231 C219 0.950 . S
N232 C235 1.382 1_556 S
N232 C237 1.363 . S
N233 C235 1.371 . S
N233 C236 1.372 . S
N234 C236 1.361 . S
N234 C237 1.377 1_554 S
C235 N232 1.382 1_554 S
C235 N233 1.371 . S
C235 C238 1.480 . S
C236 N233 1.372 . S
C236 N234 1.361 . S
C236 C244 1.457 . S
C237 N232 1.363 . S
C237 N234 1.377 1_556 S
C237 C250 1.479 . S
C238 C235 1.480 . S
C238 C239 1.383 . S
C238 C243 1.385 . S
C239 H220 0.947 1_554 S
C239 C238 1.383 . S
C239 C240 1.388 . S
C240 H221 0.946 . S
C240 C239 1.388 . S
C240 C241 1.384 . S
C241 C240 1.384 . S
C241 C242 1.377 . S
C242 H222 0.953 . S
C242 C241 1.377 . S
C242 C243 1.369 . S
C243 H223 0.945 . S
C243 C238 1.385 . S
C243 C242 1.369 . S
C244 C236 1.457 . S
C244 C245 1.372 . S
C244 C249 1.364 . S
C245 H224 0.952 . S
C245 C244 1.372 . S
C245 C246 1.389 . S
C246 H225 0.949 . S
C246 C245 1.389 . S
C246 C247 1.387 . S
C247 C246 1.387 . S
C247 C248 1.372 . S
C248 H226 0.950 . S
C248 C247 1.372 . S
C248 C249 1.379 . S
C249 H227 0.948 . S
C249 C244 1.364 . S
C249 C248 1.379 . S
C250 C219 1.383 . S
C250 C237 1.479 . S
C250 C251 1.398 . S
C251 C216 1.382 . S
C251 H228 0.951 . S
C251 C250 1.398 . S
C252 C253 1.384 . S
C252 H265 0.947 . S
C252 C287 1.382 . S
C253 C252 1.384 . S
C253 C254 1.378 . S
C254 C253 1.378 . S
C254 C255 1.378 . S
C254 H266 0.952 . S
C255 C254 1.378 . S
C255 H267 0.950 . S
C255 C286 1.383 . S
H256 C275 0.947 . S
H257 C276 0.946 . S
H258 C278 0.953 . S
H259 C279 0.945 1_556 S
H260 C281 0.952 . S
H261 C282 0.949 . S
H262 C284 0.950 . S
H263 C285 0.948 . S
H264 C287 0.951 . S
H265 C252 0.947 . S
H266 C254 0.952 . S
H267 C255 0.950 . S
N268 C271 1.382 . S
N268 C273 1.363 . S
N269 C271 1.371 1_556 S
N269 C272 1.372 . S
N270 C272 1.361 1_554 S
N270 C273 1.377 . S
C271 N268 1.382 . S
C271 N269 1.371 1_554 S
C271 C274 1.480 . S
C272 N269 1.372 . S
C272 N270 1.361 1_556 S
C272 C280 1.457 . S
C273 N268 1.363 . S
C273 N270 1.377 . S
C273 C286 1.479 . S
C274 C271 1.480 . S
C274 C275 1.383 . S
C274 C279 1.385 . S
C275 H256 0.947 . S
C275 C274 1.383 . S
C275 C276 1.388 . S
C276 H257 0.946 . S
C276 C275 1.388 . S
C276 C277 1.384 . S
C277 C276 1.384 . S
C277 C278 1.377 . S
C278 H258 0.953 . S
C278 C277 1.377 . S
C278 C279 1.369 . S
C279 H259 0.945 1_554 S
C279 C274 1.385 . S
C279 C278 1.369 . S
C280 C272 1.457 . S
C280 C281 1.372 . S
C280 C285 1.364 . S
C281 H260 0.952 . S
C281 C280 1.372 . S
C281 C282 1.389 . S
C282 H261 0.949 . S
C282 C281 1.389 . S
C282 C283 1.387 . S
C283 C282 1.387 . S
C283 C284 1.372 . S
C284 H262 0.950 . S
C284 C283 1.372 . S
C284 C285 1.379 . S
C285 H263 0.948 . S
C285 C280 1.364 . S
C285 C284 1.379 . S
C286 C255 1.383 . S
C286 C273 1.479 . S
C286 C287 1.398 . S
C287 C252 1.382 . S
C287 H264 0.951 . S
C287 C286 1.398 . S
Eu288 N317 2.600 . S
Eu288 N323 2.562 . S
Eu288 O332 2.460 . S
Eu288 O333 2.373 1_545 S
Eu288 O335 2.432 . S
Eu288 O336 2.291 1_655 S
Eu288 O340 2.335 1_655 S
Eu288 O343 2.372 . S
Eu288 C352 2.787 . S
C289 N290 1.365 1_545 S
C289 C292 1.405 . S
C289 C296 1.448 . S
N290 C289 1.365 1_565 S
N290 C293 1.319 . S
N290 Eu299 2.600 . S
C291 C293 1.397 1_545 S
C291 C294 1.367 . S
C291 H311 0.931 . S
C292 C289 1.405 . S
C292 C294 1.403 . S
C292 C298 1.439 . S
C293 N290 1.319 . S
C293 C291 1.397 1_565 S
C293 H304 0.930 . S
C294 C291 1.367 . S
C294 C292 1.403 . S
C294 H315 0.929 . S
C295 C296 1.430 . S
C295 C297 1.387 . S
C295 C301 1.404 . S
C296 C289 1.448 . S
C296 C295 1.430 . S
C296 N300 1.351 . S
C297 C295 1.387 . S
C297 C298 1.374 . S
C297 H312 0.931 . S
C298 C292 1.439 . S
C298 C297 1.374 . S
C298 H313 0.931 . S
Eu299 N290 2.600 . S
Eu299 N300 2.562 1_565 S
Eu299 O334 2.335 . S
Eu299 O337 2.372 . S
Eu299 O338 2.462 . S
Eu299 O339 2.373 1_565 S
Eu299 O341 2.432 . S
Eu299 O342 2.277 1_465 S
Eu299 C363 2.787 . S
N300 C296 1.351 . S
N300 Eu299 2.562 1_545 S
N300 C302 1.325 . S
C301 C295 1.404 . S
C301 C303 1.366 . S
C301 H309 0.930 . S
C302 N300 1.325 . S
C302 C303 1.416 . S
C302 H308 0.926 1_445 S
C303 C301 1.366 . S
C303 C302 1.416 . S
C303 H305 0.934 1_455 S
H304 C293 0.930 . S
H305 C303 0.934 1_655 S
H306 C321 0.930 . S
H307 C328 0.933 1_455 S
H308 C302 0.926 1_665 S
H309 C301 0.930 . S
H310 C324 0.900 1_455 S
H311 C291 0.931 . S
H312 C297 0.931 . S
H313 C298 0.931 . S
H314 C319 0.931 . S
H315 C294 0.929 . S
H316 C327 0.930 . S
N317 Eu288 2.600 . S
N317 C318 1.365 . S
N317 C321 1.319 . S
C318 N317 1.365 . S
C318 C320 1.405 1_545 S
C318 C326 1.448 . S
C319 H314 0.931 . S
C319 C321 1.397 . S
C319 C322 1.367 . S
C320 C318 1.405 1_565 S
C320 C322 1.403 1_565 S
C320 C353 1.439 . S
C321 H306 0.930 . S
C321 N317 1.319 . S
C321 C319 1.397 . S
C322 C319 1.367 . S
C322 C320 1.403 1_545 S
C322 H329 0.929 1_545 S
N323 Eu288 2.562 . S
N323 C324 1.351 . S
N323 C326 1.351 . S
C324 H310 0.900 1_655 S
C324 N323 1.351 . S
C324 C328 1.406 1_545 S
C325 C326 1.430 1_565 S
C325 C327 1.404 . S
C325 C354 1.387 . S
C326 C318 1.448 . S
C326 N323 1.351 . S
C326 C325 1.430 1_545 S
C327 H316 0.930 . S
C327 C325 1.404 . S
C327 C328 1.374 . S
C328 H307 0.933 1_655 S
C328 C324 1.406 1_565 S
C328 C327 1.374 . S
H329 C322 0.929 1_565 S
H330 C353 0.931 . S
H331 C354 0.931 . S
O332 Eu288 2.460 . S
O332 C352 1.248 . S
O333 Eu288 2.373 1_565 S
O333 C344 1.249 . S
O334 Eu299 2.335 . S
O334 C344 1.264 1_455 S
O335 Eu288 2.432 . S
O335 C352 1.268 . S
O336 Eu288 2.291 1_455 S
O336 C351 1.255 . S
O337 Eu299 2.372 . S
O337 C351 1.257 1_565 S
O338 Eu299 2.462 . S
O338 C363 1.252 . S
O339 Eu299 2.373 1_545 S
O339 C355 1.249 . S
O340 Eu288 2.335 1_455 S
O340 C355 1.264 . S
O341 Eu299 2.432 . S
O341 C363 1.268 . S
O342 Eu299 2.277 1_645 S
O342 C362 1.268 . S
O343 Eu288 2.372 . S
O343 C362 1.257 . S
C344 O333 1.249 . S
C344 O334 1.264 1_655 S
C345 C348 1.382 . S
C345 C350 1.390 . S
C345 C352 1.506 . S
C346 C347 1.398 . S
C346 C350 1.392 . S
C347 C346 1.398 . S
C347 C349 1.372 . S
C347 H364 0.931 . S
C348 C345 1.382 . S
C348 C349 1.390 . S
C348 H365 0.931 . S
C349 C347 1.372 . S
C349 C348 1.390 . S
C349 H366 0.929 . S
C350 C345 1.390 . S
C350 C346 1.392 . S
C350 H367 0.930 1_655 S
C351 O336 1.255 . S
C351 O337 1.257 1_545 S
C352 Eu288 2.787 . S
C352 O332 1.248 . S
C352 O335 1.268 . S
C352 C345 1.506 . S
C353 C320 1.439 . S
C353 H330 0.931 . S
C353 C354 1.374 . S
C354 C325 1.387 . S
C354 H331 0.931 . S
C354 C353 1.374 . S
C355 O339 1.249 . S
C355 O340 1.264 . S
C356 C359 1.382 . S
C356 C360 1.390 . S
C356 C363 1.506 . S
C357 C358 1.398 . S
C357 C360 1.392 . S
C358 C357 1.398 . S
C358 C361 1.372 . S
C358 H368 0.931 . S
C359 C356 1.382 . S
C359 C361 1.390 . S
C359 H369 0.931 . S
C360 C356 1.390 . S
C360 C357 1.392 . S
C360 H370 0.912 1_455 S
C361 C358 1.372 . S
C361 C359 1.390 . S
C361 H371 0.929 . S
C362 O342 1.268 . S
C362 O343 1.257 . S
C363 Eu299 2.787 . S
C363 O338 1.252 . S
C363 O341 1.268 . S
C363 C356 1.506 . S
H364 C347 0.931 . S
H365 C348 0.931 . S
H366 C349 0.929 . S
H367 C350 0.930 1_455 S
H368 C358 0.931 . S
H369 C359 0.931 . S
H370 C360 0.912 1_655 S
H371 C361 0.929 . S
Eu372 N401 2.600 . S
Eu372 N407 2.562 . S
Eu372 O416 2.462 . S
Eu372 O417 2.373 . S
Eu372 O419 2.432 . S
Eu372 O420 2.291 . S
Eu372 O424 2.335 1_545 S
Eu372 O427 2.372 . S
Eu372 C436 2.787 . S
C373 N374 1.365 . S
C373 C376 1.405 . S
C373 C380 1.448 . S
N374 C373 1.365 . S
N374 C377 1.319 . S
N374 Eu383 2.600 . S
C375 C377 1.397 . S
C375 C378 1.367 . S
C375 H395 0.931 . S
C376 C373 1.405 . S
C376 C378 1.403 . S
C376 C382 1.439 . S
C377 N374 1.319 . S
C377 C375 1.397 . S
C377 H388 0.930 . S
C378 C375 1.367 . S
C378 C376 1.403 . S
C378 H399 0.929 . S
C379 C380 1.430 . S
C379 C381 1.387 . S
C379 C385 1.404 . S
C380 C373 1.448 . S
C380 C379 1.430 . S
C380 N384 1.351 . S
C381 C379 1.387 . S
C381 C382 1.374 . S
C381 H396 0.931 . S
C382 C376 1.439 . S
C382 C381 1.374 . S
C382 H397 0.931 . S
Eu383 N374 2.600 . S
Eu383 N384 2.562 . S
Eu383 O418 2.335 1_565 S
Eu383 O421 2.372 . S
Eu383 O422 2.462 . S
Eu383 O423 2.373 . S
Eu383 O425 2.432 . S
Eu383 O426 2.291 1_565 S
Eu383 C447 2.787 . S
N384 C380 1.351 . S
N384 Eu383 2.562 . S
N384 C386 1.325 . S
C385 C379 1.404 . S
C385 C387 1.366 . S
C385 H393 0.930 . S
C386 N384 1.325 . S
C386 C387 1.416 . S
C386 H392 0.929 . S
C387 C385 1.366 . S
C387 C386 1.416 . S
C387 H389 0.930 . S
H388 C377 0.930 . S
H389 C387 0.930 . S
H390 C405 0.930 . S
H391 C412 0.930 . S
H392 C386 0.929 . S
H393 C385 0.930 . S
H394 C408 0.929 . S
H395 C375 0.931 . S
H396 C381 0.931 . S
H397 C382 0.931 . S
H398 C403 0.931 . S
H399 C378 0.929 . S
H400 C411 0.930 . S
N401 Eu372 2.600 . S
N401 C402 1.365 . S
N401 C405 1.319 . S
C402 N401 1.365 . S
C402 C404 1.405 . S
C402 C410 1.448 . S
C403 H398 0.931 . S
C403 C405 1.397 . S
C403 C406 1.367 . S
C404 C402 1.405 . S
C404 C406 1.403 . S
C404 C437 1.439 . S
C405 H390 0.930 . S
C405 N401 1.319 . S
C405 C403 1.397 . S
C406 C403 1.367 . S
C406 C404 1.403 . S
C406 H413 0.929 . S
N407 Eu372 2.562 . S
N407 C408 1.325 . S
N407 C410 1.351 . S
C408 H394 0.929 . S
C408 N407 1.325 . S
C408 C412 1.416 . S
C409 C410 1.430 . S
C409 C411 1.404 . S
C409 C438 1.387 . S
C410 C402 1.448 . S
C410 N407 1.351 . S
C410 C409 1.430 . S
C411 H400 0.930 . S
C411 C409 1.404 . S
C411 C412 1.366 . S
C412 H391 0.930 . S
C412 C408 1.416 . S
C412 C411 1.366 . S
H413 C406 0.929 . S
H414 C437 0.931 . S
H415 C438 0.931 . S
O416 Eu372 2.462 . S
O416 C436 1.252 . S
O417 Eu372 2.373 . S
O417 C428 1.249 . S
O418 Eu383 2.335 1_545 S
O418 C428 1.264 . S
O419 Eu372 2.432 . S
O419 C436 1.268 . S
O420 Eu372 2.291 . S
O420 C435 1.255 1_545 S
O421 Eu383 2.372 . S
O421 C435 1.257 . S
O422 Eu383 2.462 . S
O422 C447 1.252 . S
O423 Eu383 2.373 . S
O423 C439 1.249 . S
O424 Eu372 2.335 1_565 S
O424 C439 1.264 . S
O425 Eu383 2.432 . S
O425 C447 1.268 . S
O426 Eu383 2.291 1_545 S
O426 C446 1.255 . S
O427 Eu372 2.372 . S
O427 C446 1.257 . S
C428 O417 1.249 . S
C428 O418 1.264 . S
C429 C432 1.382 . S
C429 C434 1.390 . S
C429 C436 1.506 . S
C430 C431 1.398 . S
C430 C434 1.392 . S
C431 C430 1.398 . S
C431 C433 1.372 . S
C431 H448 0.931 . S
C432 C429 1.382 . S
C432 C433 1.390 . S
C432 H449 0.931 . S
C433 C431 1.372 . S
C433 C432 1.390 . S
C433 H450 0.929 . S
C434 C429 1.390 . S
C434 C430 1.392 . S
C434 H451 0.930 . S
C435 O420 1.255 1_565 S
C435 O421 1.257 . S
C436 Eu372 2.787 . S
C436 O416 1.252 . S
C436 O419 1.268 . S
C436 C429 1.506 . S
C437 C404 1.439 . S
C437 H414 0.931 . S
C437 C438 1.374 . S
C438 C409 1.387 . S
C438 H415 0.931 . S
C438 C437 1.374 . S
C439 O423 1.249 . S
C439 O424 1.264 . S
C440 C443 1.382 . S
C440 C444 1.390 1_565 S
C440 C447 1.506 . S
C441 C442 1.398 1_545 S
C441 C444 1.392 . S
C442 C441 1.398 1_565 S
C442 C445 1.372 . S
C442 H452 0.931 . S
C443 C440 1.382 . S
C443 C445 1.390 . S
C443 H453 0.931 . S
C444 C440 1.390 1_545 S
C444 C441 1.392 . S
C444 H454 0.930 . S
C445 C442 1.372 . S
C445 C443 1.390 . S
C445 H455 0.929 . S
C446 O426 1.255 . S
C446 O427 1.257 . S
C447 Eu383 2.787 . S
C447 O422 1.252 . S
C447 O425 1.268 . S
C447 C440 1.506 . S
H448 C431 0.931 . S
H449 C432 0.931 . S
H450 C433 0.929 . S
H451 C434 0.930 . S
H452 C442 0.931 . S
H453 C443 0.931 . S
H454 C444 0.930 . S
H455 C445 0.929 . S
Eu456 N485 2.600 . S
Eu456 N491 2.562 . S
Eu456 O500 2.462 . S
Eu456 O501 2.373 . S
Eu456 O503 2.432 . S
Eu456 O504 2.291 . S
Eu456 O508 2.335 . S
Eu456 O511 2.372 . S
Eu456 C520 2.787 . S
C457 N458 1.365 . S
C457 C460 1.405 . S
C457 C464 1.448 . S
N458 C457 1.365 . S
N458 C461 1.319 . S
N458 Eu467 2.600 . S
C459 C461 1.397 . S
C459 C462 1.367 . S
C459 H479 0.931 . S
C460 C457 1.405 . S
C460 C462 1.403 . S
C460 C466 1.439 . S
C461 N458 1.319 . S
C461 C459 1.397 . S
C461 H472 0.930 . S
C462 C459 1.367 . S
C462 C460 1.403 . S
C462 H483 0.929 . S
C463 C464 1.430 . S
C463 C465 1.387 . S
C463 C469 1.404 . S
C464 C457 1.448 . S
C464 C463 1.430 . S
C464 N468 1.351 . S
C465 C463 1.387 . S
C465 C466 1.374 . S
C465 H480 0.931 . S
C466 C460 1.439 . S
C466 C465 1.374 . S
C466 H481 0.931 . S
Eu467 N458 2.600 . S
Eu467 N468 2.562 . S
Eu467 O502 2.335 . S
Eu467 O505 2.372 . S
Eu467 O506 2.462 . S
Eu467 O507 2.373 . S
Eu467 O509 2.432 . S
Eu467 O510 2.291 . S
Eu467 C531 2.787 . S
N468 C464 1.351 . S
N468 Eu467 2.562 . S
N468 C470 1.325 . S
C469 C463 1.404 . S
C469 C471 1.366 . S
C469 H477 0.930 . S
C470 N468 1.325 . S
C470 C471 1.416 . S
C470 H476 0.929 . S
C471 C469 1.366 . S
C471 C470 1.416 . S
C471 H473 0.930 . S
H472 C461 0.930 . S
H473 C471 0.930 . S
H474 C489 0.930 . S
H475 C496 0.930 . S
H476 C470 0.929 . S
H477 C469 0.930 . S
H478 C492 0.929 . S
H479 C459 0.931 . S
H480 C465 0.931 . S
H481 C466 0.931 . S
H482 C487 0.931 . S
H483 C462 0.929 . S
H484 C495 0.930 . S
N485 Eu456 2.600 . S
N485 C486 1.365 . S
N485 C489 1.319 . S
C486 N485 1.365 . S
C486 C488 1.405 . S
C486 C494 1.448 . S
C487 H482 0.931 . S
C487 C489 1.397 . S
C487 C490 1.367 . S
C488 C486 1.405 . S
C488 C490 1.403 . S
C488 C521 1.439 . S
C489 H474 0.930 . S
C489 N485 1.319 . S
C489 C487 1.397 . S
C490 C487 1.367 . S
C490 C488 1.403 . S
C490 H497 0.929 . S
N491 Eu456 2.562 . S
N491 C492 1.325 . S
N491 C494 1.351 . S
C492 H478 0.929 . S
C492 N491 1.325 . S
C492 C496 1.416 . S
C493 C494 1.430 . S
C493 C495 1.404 . S
C493 C522 1.387 . S
C494 C486 1.448 . S
C494 N491 1.351 . S
C494 C493 1.430 . S
C495 H484 0.930 . S
C495 C493 1.404 . S
C495 C496 1.366 . S
C496 H475 0.930 . S
C496 C492 1.416 . S
C496 C495 1.366 . S
H497 C490 0.929 . S
H498 C521 0.931 . S
H499 C522 0.931 . S
O500 Eu456 2.462 . S
O500 C520 1.252 . S
O501 Eu456 2.373 . S
O501 C512 1.249 . S
O502 Eu467 2.335 . S
O502 C512 1.264 . S
O503 Eu456 2.432 . S
O503 C520 1.268 . S
O504 Eu456 2.291 . S
O504 C519 1.255 . S
O505 Eu467 2.372 . S
O505 C519 1.257 . S
O506 Eu467 2.462 . S
O506 C531 1.252 . S
O507 Eu467 2.373 . S
O507 C523 1.249 . S
O508 Eu456 2.335 . S
O508 C523 1.264 . S
O509 Eu467 2.432 . S
O509 C531 1.268 . S
O510 Eu467 2.291 . S
O510 C530 1.255 . S
O511 Eu456 2.372 . S
O511 C530 1.257 . S
C512 O501 1.249 . S
C512 O502 1.264 . S
C513 C516 1.382 . S
C513 C518 1.390 . S
C513 C520 1.506 . S
C514 C515 1.398 . S
C514 C518 1.392 . S
C515 C514 1.398 . S
C515 C517 1.372 . S
C515 H532 0.931 . S
C516 C513 1.382 . S
C516 C517 1.390 . S
C516 H533 0.931 . S
C517 C515 1.372 . S
C517 C516 1.390 . S
C517 H534 0.929 . S
C518 C513 1.390 . S
C518 C514 1.392 . S
C518 H535 0.930 . S
C519 O504 1.255 . S
C519 O505 1.257 . S
C520 Eu456 2.787 . S
C520 O500 1.252 . S
C520 O503 1.268 . S
C520 C513 1.506 . S
C521 C488 1.439 . S
C521 H498 0.931 . S
C521 C522 1.374 . S
C522 C493 1.387 . S
C522 H499 0.931 . S
C522 C521 1.374 . S
C523 O507 1.249 . S
C523 O508 1.264 . S
C524 C527 1.382 . S
C524 C528 1.390 . S
C524 C531 1.506 . S
C525 C526 1.398 . S
C525 C528 1.392 . S
C526 C525 1.398 . S
C526 C529 1.372 . S
C526 H536 0.931 . S
C527 C524 1.382 . S
C527 C529 1.390 . S
C527 H537 0.931 . S
C528 C524 1.390 . S
C528 C525 1.392 . S
C528 H538 0.930 . S
C529 C526 1.372 . S
C529 C527 1.390 . S
C529 H539 0.929 . S
C530 O510 1.255 . S
C530 O511 1.257 . S
C531 Eu467 2.787 . S
C531 O506 1.252 . S
C531 O509 1.268 . S
C531 C524 1.506 . S
H532 C515 0.931 . S
H533 C516 0.931 . S
H534 C517 0.929 . S
H535 C518 0.930 . S
H536 C526 0.931 . S
H537 C527 0.931 . S
H538 C528 0.930 . S
H539 C529 0.929 . S
Eu540 N569 2.600 . S
Eu540 N575 2.562 . S
Eu540 O584 2.462 . S
Eu540 O585 2.373 1_455 S
Eu540 O587 2.432 . S
Eu540 O588 2.291 . S
Eu540 O592 2.335 . S
Eu540 O595 2.372 . S
Eu540 C604 2.787 . S
C541 N542 1.365 1_455 S
C541 C544 1.405 . S
C541 C548 1.448 . S
N542 C541 1.365 1_655 S
N542 C545 1.319 . S
N542 Eu551 2.600 . S
C543 C545 1.380 1_455 S
C543 C546 1.392 . S
C543 H563 0.926 1_455 S
C544 C541 1.405 . S
C544 C546 1.403 . S
C544 C550 1.439 . S
C545 N542 1.319 . S
C545 C543 1.380 1_655 S
C545 H556 0.930 . S
C546 C543 1.392 . S
C546 C544 1.403 . S
C546 H567 0.929 . S
C547 C548 1.430 . S
C547 C549 1.387 . S
C547 C553 1.404 . S
C548 C541 1.448 . S
C548 C547 1.430 . S
C548 N552 1.364 . S
C549 C547 1.387 . S
C549 C550 1.374 . S
C549 H564 0.931 . S
C550 C544 1.439 . S
C550 C549 1.374 . S
C550 H565 0.931 . S
Eu551 N542 2.600 . S
Eu551 N552 2.551 1_655 S
Eu551 O586 2.335 . S
Eu551 O589 2.372 . S
Eu551 O590 2.462 . S
Eu551 O591 2.373 1_655 S
Eu551 O593 2.432 . S
Eu551 O594 2.294 . S
Eu551 C615 2.787 . S
N552 C548 1.364 . S
N552 Eu551 2.551 1_455 S
N552 C554 1.329 . S
C553 C547 1.404 . S
C553 C555 1.366 . S
C553 H561 0.930 . S
C554 N552 1.329 . S
C554 C555 1.416 . S
C554 H560 0.929 1_455 S
C555 C553 1.366 . S
C555 C554 1.416 . S
C555 H557 0.930 . S
H556 C545 0.930 . S
H557 C555 0.930 . S
H558 C573 0.930 . S
H559 C580 0.930 . S
H560 C554 0.929 1_655 S
H561 C553 0.930 . S
H562 C576 0.929 . S
H563 C543 0.926 1_655 S
H564 C549 0.931 . S
H565 C550 0.931 . S
H566 C571 0.931 . S
H567 C546 0.929 . S
H568 C579 0.930 . S
N569 Eu540 2.600 . S
N569 C570 1.365 . S
N569 C573 1.319 . S
C570 N569 1.365 . S
C570 C572 1.405 1_455 S
C570 C578 1.448 . S
C571 H566 0.931 . S
C571 C573 1.397 . S
C571 C574 1.393 . S
C572 C570 1.405 1_655 S
C572 C574 1.398 1_655 S
C572 C605 1.439 . S
C573 H558 0.930 . S
C573 N569 1.319 . S
C573 C571 1.397 . S
C574 C571 1.393 . S
C574 C572 1.398 1_455 S
C574 H581 0.913 1_455 S
N575 Eu540 2.562 . S
N575 C576 1.325 . S
N575 C578 1.351 . S
C576 H562 0.929 . S
C576 N575 1.325 . S
C576 C580 1.416 1_455 S
C577 C578 1.430 1_655 S
C577 C579 1.404 . S
C577 C606 1.387 . S
C578 C570 1.448 . S
C578 N575 1.351 . S
C578 C577 1.430 1_455 S
C579 H568 0.930 . S
C579 C577 1.404 . S
C579 C580 1.366 . S
C580 H559 0.930 . S
C580 C576 1.416 1_655 S
C580 C579 1.366 . S
H581 C574 0.913 1_655 S
H582 C605 0.931 . S
H583 C606 0.931 . S
O584 Eu540 2.462 . S
O584 C604 1.252 . S
O585 Eu540 2.373 1_655 S
O585 C596 1.249 . S
O586 Eu551 2.335 . S
O586 C596 1.264 . S
O587 Eu540 2.432 . S
O587 C604 1.268 . S
O588 Eu540 2.291 . S
O588 C603 1.255 . S
O589 Eu551 2.372 . S
O589 C603 1.257 1_655 S
O590 Eu551 2.462 . S
O590 C615 1.252 . S
O591 Eu551 2.373 1_455 S
O591 C607 1.249 . S
O592 Eu540 2.335 . S
O592 C607 1.264 . S
O593 Eu551 2.432 . S
O593 C615 1.268 . S
O594 Eu551 2.294 . S
O594 C614 1.253 1_655 S
O595 Eu540 2.372 . S
O595 C614 1.257 . S
C596 O585 1.249 . S
C596 O586 1.264 . S
C597 C600 1.382 . S
C597 C602 1.390 . S
C597 C604 1.506 . S
C598 C599 1.398 . S
C598 C602 1.392 . S
C599 C598 1.398 . S
C599 C601 1.372 . S
C599 H616 0.931 . S
C600 C597 1.382 . S
C600 C601 1.390 . S
C600 H617 0.931 . S
C601 C599 1.372 . S
C601 C600 1.390 . S
C601 H618 0.929 . S
C602 C597 1.390 . S
C602 C598 1.392 . S
C602 H619 0.930 . S
C603 O588 1.255 . S
C603 O589 1.257 1_455 S
C604 Eu540 2.787 . S
C604 O584 1.252 . S
C604 O587 1.268 . S
C604 C597 1.506 . S
C605 C572 1.439 . S
C605 H582 0.931 . S
C605 C606 1.374 . S
C606 C577 1.387 . S
C606 H583 0.931 . S
C606 C605 1.374 . S
C607 O591 1.249 . S
C607 O592 1.264 . S
C608 C611 1.382 . S
C608 C612 1.390 . S
C608 C615 1.506 . S
C609 C610 1.398 . S
C609 C612 1.392 . S
C610 C609 1.398 . S
C610 C613 1.372 . S
C610 H620 0.931 . S
C611 C608 1.382 . S
C611 C613 1.390 . S
C611 H621 0.931 . S
C612 C608 1.390 . S
C612 C609 1.392 . S
C612 H622 0.930 . S
C613 C610 1.372 . S
C613 C611 1.390 . S
C613 H623 0.929 . S
C614 O594 1.253 1_455 S
C614 O595 1.257 . S
C615 Eu551 2.787 . S
C615 O590 1.252 . S
C615 O593 1.268 . S
C615 C608 1.506 . S
H616 C599 0.931 . S
H617 C600 0.931 . S
H618 C601 0.929 . S
H619 C602 0.930 . S
H620 C610 0.931 . S
H621 C611 0.931 . S
H622 C612 0.930 . S
H623 C613 0.929 . S
C624 C625 1.349 . S
C624 C626 1.327 . S
C624 H649 0.950 . S
C625 C624 1.349 . S
C625 C641 1.349 . S
C626 C624 1.327 . S
C626 C645 1.429 . S
C626 H650 0.950 . S
C627 C644 1.574 . S
C627 C646 1.368 . S
C627 H651 0.949 . S
H628 C632 0.949 . S
C629 C630 1.349 . S
C629 C631 1.327 . S
C629 H652 0.950 . S
C630 C629 1.349 . S
C630 C642 1.349 . S
C631 C629 1.327 . S
C631 C647 1.429 . S
C631 H653 0.950 . S
C632 H628 0.949 . S
C632 C640 1.574 . S
C632 C648 1.368 . S
H633 C641 0.950 . S
H634 C639 0.950 . S
H635 C640 0.949 . S
H636 C642 0.950 1_565 S
H637 C643 0.950 1_565 S
H638 C644 0.949 . S
C639 H634 0.950 . S
C639 C641 1.327 . S
C639 C645 1.429 . S
C640 C632 1.574 . S
C640 H635 0.949 . S
C640 C646 1.368 . S
C641 C625 1.349 . S
C641 H633 0.950 . S
C641 C639 1.327 . S
C642 C630 1.349 . S
C642 H636 0.950 1_545 S
C642 C643 1.327 . S
C643 H637 0.950 1_545 S
C643 C642 1.327 . S
C643 C647 1.429 . S
C644 C627 1.574 . S
C644 H638 0.949 . S
C644 C648 1.368 . S
C645 C626 1.429 . S
C645 C639 1.429 . S
C645 C646 1.523 . S
C646 C627 1.368 . S
C646 C640 1.368 . S
C646 C645 1.523 . S
C647 C631 1.429 . S
C647 C643 1.429 . S
C647 C648 1.523 . S
C648 C632 1.368 . S
C648 C644 1.368 . S
C648 C647 1.523 . S
H649 C624 0.950 . S
H650 C626 0.950 . S
H651 C627 0.949 . S
H652 C629 0.950 . S
H653 C631 0.950 . S
C654 C655 1.349 . S
C654 C656 1.327 . S
C654 H679 0.950 . S
C655 C654 1.349 . S
C655 C671 1.349 . S
C656 C654 1.327 . S
C656 C675 1.429 . S
C656 H680 0.950 . S
C657 C674 1.574 . S
C657 C676 1.368 . S
C657 H681 0.949 . S
H658 C662 0.949 . S
C659 C660 1.349 . S
C659 C661 1.327 . S
C659 H682 0.950 . S
C660 C659 1.349 . S
C660 C672 1.349 . S
C661 C659 1.327 . S
C661 C677 1.429 . S
C661 H683 0.950 . S
C662 H658 0.949 . S
C662 C670 1.574 . S
C662 C678 1.368 . S
H663 C671 0.950 . S
H664 C669 0.950 . S
H665 C670 0.949 . S
H666 C672 0.950 . S
H667 C673 0.950 . S
H668 C674 0.949 . S
C669 H664 0.950 . S
C669 C671 1.327 . S
C669 C675 1.429 . S
C670 C662 1.574 . S
C670 H665 0.949 . S
C670 C676 1.368 . S
C671 C655 1.349 . S
C671 H663 0.950 . S
C671 C669 1.327 . S
C672 C660 1.349 . S
C672 H666 0.950 . S
C672 C673 1.327 . S
C673 H667 0.950 . S
C673 C672 1.327 . S
C673 C677 1.429 . S
C674 C657 1.574 . S
C674 H668 0.949 . S
C674 C678 1.368 . S
C675 C656 1.429 . S
C675 C669 1.429 . S
C675 C676 1.523 . S
C676 C657 1.368 . S
C676 C670 1.368 . S
C676 C675 1.523 . S
C677 C661 1.429 . S
C677 C673 1.429 . S
C677 C678 1.523 . S
C678 C662 1.368 . S
C678 C674 1.368 . S
C678 C677 1.523 . S
H679 C654 0.950 . S
H680 C656 0.950 . S
H681 C657 0.949 . S
H682 C659 0.950 . S
H683 C661 0.950 . S
C684 C685 1.349 . S
C684 C686 1.327 . S
C684 H709 0.950 . S
C685 C684 1.349 . S
C685 C701 1.349 . S
C686 C684 1.327 . S
C686 C705 1.429 . S
C686 H710 0.950 . S
C687 C704 1.574 . S
C687 C706 1.368 . S
C687 H711 0.949 . S
H688 C692 0.949 . S
C689 C690 1.349 . S
C689 C691 1.327 . S
C689 H712 0.950 . S
C690 C689 1.349 . S
C690 C702 1.349 . S
C691 C689 1.327 . S
C691 C707 1.429 . S
C691 H713 0.950 . S
C692 H688 0.949 . S
C692 C700 1.574 . S
C692 C708 1.368 . S
H693 C701 0.950 . S
H694 C699 0.950 . S
H695 C700 0.949 . S
H696 C702 0.950 . S
H697 C703 0.950 . S
H698 C704 0.949 . S
C699 H694 0.950 . S
C699 C701 1.327 . S
C699 C705 1.429 . S
C700 C692 1.574 . S
C700 H695 0.949 . S
C700 C706 1.368 . S
C701 C685 1.349 . S
C701 H693 0.950 . S
C701 C699 1.327 . S
C702 C690 1.349 . S
C702 H696 0.950 . S
C702 C703 1.327 . S
C703 H697 0.950 . S
C703 C702 1.327 . S
C703 C707 1.429 . S
C704 C687 1.574 . S
C704 H698 0.949 . S
C704 C708 1.368 . S
C705 C686 1.429 . S
C705 C699 1.429 . S
C705 C706 1.523 . S
C706 C687 1.368 . S
C706 C700 1.368 . S
C706 C705 1.523 . S
C707 C691 1.429 . S
C707 C703 1.429 . S
C707 C708 1.523 . S
C708 C692 1.368 . S
C708 C704 1.368 . S
C708 C707 1.523 . S
H709 C684 0.950 . S
H710 C686 0.950 . S
H711 C687 0.949 . S
H712 C689 0.950 . S
H713 C691 0.950 . S
C714 C715 1.349 . S
C714 C716 1.327 . S
C714 H739 0.950 . S
C715 C714 1.349 . S
C715 C731 1.349 . S
C716 C714 1.327 . S
C716 C735 1.429 . S
C716 H740 0.950 . S
C717 C734 1.574 . S
C717 C736 1.368 . S
C717 H741 0.949 . S
H718 C722 0.949 . S
C719 C720 1.349 . S
C719 C721 1.327 . S
C719 H742 0.950 . S
C720 C719 1.349 . S
C720 C732 1.349 . S
C721 C719 1.327 . S
C721 C737 1.429 . S
C721 H743 0.950 . S
C722 H718 0.949 . S
C722 C730 1.574 . S
C722 C738 1.368 . S
H723 C731 0.950 . S
H724 C729 0.950 . S
H725 C730 0.949 . S
H726 C732 0.950 . S
H727 C733 0.950 . S
H728 C734 0.949 . S
C729 H724 0.950 . S
C729 C731 1.327 . S
C729 C735 1.429 . S
C730 C722 1.574 . S
C730 H725 0.949 . S
C730 C736 1.368 . S
C731 C715 1.349 . S
C731 H723 0.950 . S
C731 C729 1.327 . S
C732 C720 1.349 . S
C732 H726 0.950 . S
C732 C733 1.327 . S
C733 H727 0.950 . S
C733 C732 1.327 . S
C733 C737 1.429 . S
C734 C717 1.574 . S
C734 H728 0.949 . S
C734 C738 1.368 . S
C735 C716 1.429 . S
C735 C729 1.429 . S
C735 C736 1.523 . S
C736 C717 1.368 . S
C736 C730 1.368 . S
C736 C735 1.523 . S
C737 C721 1.429 . S
C737 C733 1.429 . S
C737 C738 1.523 . S
C738 C722 1.368 . S
C738 C734 1.368 . S
C738 C737 1.523 . S
H739 C714 0.950 . S
H740 C716 0.950 . S
H741 C717 0.949 . S
H742 C719 0.950 . S
H743 C721 0.950 . S
C744 C745 1.349 . S
C744 C746 1.327 1_554 S
C744 H769 0.950 . S
C745 C744 1.349 . S
C745 C761 1.349 . S
C746 C744 1.327 1_556 S
C746 C765 1.429 . S
C746 H770 0.950 . S
C747 C764 1.573 . S
C747 C766 1.368 . S
C747 H771 0.949 1_565 S
H748 C752 0.949 . S
C749 C750 1.349 1_545 S
C749 C751 1.327 . S
C749 H772 0.950 . S
C750 C749 1.349 1_565 S
C750 C762 1.349 . S
C751 C749 1.327 . S
C751 C767 1.429 1_545 S
C751 H773 0.950 . S
C752 H748 0.949 . S
C752 C760 1.574 . S
C752 C768 1.368 . S
H753 C761 0.950 . S
H754 C759 0.977 . S
H755 C760 0.949 . S
H756 C762 0.950 . S
H757 C763 0.950 . S
H758 C764 0.954 1_545 S
C759 H754 0.977 . S
C759 C761 1.327 . S
C759 C765 1.429 1_554 S
C760 C752 1.574 . S
C760 H755 0.949 . S
C760 C766 1.368 . S
C761 C745 1.349 . S
C761 H753 0.950 . S
C761 C759 1.327 . S
C762 C750 1.349 . S
C762 H756 0.950 . S
C762 C763 1.327 . S
C763 H757 0.950 . S
C763 C762 1.327 . S
C763 C767 1.429 . S
C764 C747 1.573 . S
C764 H758 0.954 1_565 S
C764 C768 1.364 . S
C765 C746 1.429 . S
C765 C759 1.429 1_556 S
C765 C766 1.523 . S
C766 C747 1.368 . S
C766 C760 1.368 . S
C766 C765 1.523 . S
C767 C751 1.429 1_565 S
C767 C763 1.429 . S
C767 C768 1.523 . S
C768 C752 1.368 . S
C768 C764 1.364 . S
C768 C767 1.523 . S
H769 C744 0.950 . S
H770 C746 0.950 . S
H771 C747 0.949 1_545 S
H772 C749 0.950 . S
H773 C751 0.950 . S
C774 C775 1.349 . S
C774 C776 1.327 1_554 S
C774 H799 0.950 . S
C775 C774 1.349 . S
C775 C791 1.349 . S
C776 C774 1.327 1_556 S
C776 C795 1.429 . S
C776 H800 0.950 . S
C777 C794 1.574 . S
C777 C796 1.368 . S
C777 H801 0.949 . S
H778 C782 0.949 . S
C779 C780 1.349 . S
C779 C781 1.327 . S
C779 H802 0.950 . S
C780 C779 1.349 . S
C780 C792 1.349 . S
C781 C779 1.327 . S
C781 C797 1.429 . S
C781 H803 0.950 . S
C782 H778 0.949 . S
C782 C790 1.574 . S
C782 C798 1.368 . S
H783 C791 0.950 . S
H784 C789 0.950 . S
H785 C790 0.949 . S
H786 C792 0.950 . S
H787 C793 0.950 . S
H788 C794 0.949 . S
C789 H784 0.950 . S
C789 C791 1.327 . S
C789 C795 1.429 1_554 S
C790 C782 1.574 . S
C790 H785 0.949 . S
C790 C796 1.368 . S
C791 C775 1.349 . S
C791 H783 0.950 . S
C791 C789 1.327 . S
C792 C780 1.349 . S
C792 H786 0.950 . S
C792 C793 1.327 . S
C793 H787 0.950 . S
C793 C792 1.327 . S
C793 C797 1.429 . S
C794 C777 1.574 . S
C794 H788 0.949 . S
C794 C798 1.368 . S
C795 C776 1.429 . S
C795 C789 1.429 1_556 S
C795 C796 1.523 . S
C796 C777 1.368 . S
C796 C790 1.368 . S
C796 C795 1.523 . S
C797 C781 1.429 . S
C797 C793 1.429 . S
C797 C798 1.523 . S
C798 C782 1.368 . S
C798 C794 1.368 . S
C798 C797 1.523 . S
H799 C774 0.950 . S
H800 C776 0.950 . S
H801 C777 0.949 . S
H802 C779 0.950 . S
H803 C781 0.950 . S
C804 C805 1.349 . S
C804 C806 1.327 . S
C804 H829 0.950 . S
C805 C804 1.349 . S
C805 C821 1.349 . S
C806 C804 1.327 . S
C806 C825 1.429 1_554 S
C806 H830 0.950 . S
C807 C824 1.574 . S
C807 C826 1.368 . S
C807 H831 0.949 . S
H808 C812 0.949 . S
C809 C810 1.349 . S
C809 C811 1.327 . S
C809 H832 0.950 . S
C810 C809 1.349 . S
C810 C822 1.349 . S
C811 C809 1.327 . S
C811 C827 1.429 . S
C811 H833 0.950 . S
C812 H808 0.949 . S
C812 C820 1.574 . S
C812 C828 1.368 . S
H813 C821 0.950 . S
H814 C819 0.950 . S
H815 C820 0.949 . S
H816 C822 0.950 . S
H817 C823 0.950 . S
H818 C824 0.949 . S
C819 H814 0.950 . S
C819 C821 1.327 1_556 S
C819 C825 1.429 . S
C820 C812 1.574 . S
C820 H815 0.949 . S
C820 C826 1.368 . S
C821 C805 1.349 . S
C821 H813 0.950 . S
C821 C819 1.327 1_554 S
C822 C810 1.349 . S
C822 H816 0.950 . S
C822 C823 1.327 . S
C823 H817 0.950 . S
C823 C822 1.327 . S
C823 C827 1.429 . S
C824 C807 1.574 . S
C824 H818 0.949 . S
C824 C828 1.368 . S
C825 C806 1.429 1_556 S
C825 C819 1.429 . S
C825 C826 1.523 . S
C826 C807 1.368 . S
C826 C820 1.368 . S
C826 C825 1.523 . S
C827 C811 1.429 . S
C827 C823 1.429 . S
C827 C828 1.523 . S
C828 C812 1.368 . S
C828 C824 1.368 . S
C828 C827 1.523 . S
H829 C804 0.950 . S
H830 C806 0.950 . S
H831 C807 0.949 . S
H832 C809 0.950 . S
H833 C811 0.950 . S
C834 C835 1.349 . S
C834 C836 1.327 . S
C834 H859 0.950 . S
C835 C834 1.349 . S
C835 C851 1.349 . S
C836 C834 1.327 . S
C836 C855 1.429 1_554 S
C836 H860 0.950 . S
C837 C854 1.574 . S
C837 C856 1.368 . S
C837 H861 0.949 . S
H838 C842 0.949 . S
C839 C840 1.349 1_455 S
C839 C841 1.327 . S
C839 H862 0.950 . S
C840 C839 1.349 1_655 S
C840 C852 1.349 . S
C841 C839 1.327 . S
C841 C857 1.429 1_455 S
C841 H863 0.950 . S
C842 H838 0.949 . S
C842 C850 1.574 . S
C842 C858 1.368 . S
H843 C851 0.950 . S
H844 C849 0.950 1_556 S
H845 C850 0.949 . S
H846 C852 0.950 . S
H847 C853 0.950 . S
H848 C854 0.949 1_455 S
C849 H844 0.950 1_554 S
C849 C851 1.327 . S
C849 C855 1.429 1_554 S
C850 C842 1.574 . S
C850 H845 0.949 . S
C850 C856 1.368 . S
C851 C835 1.349 . S
C851 H843 0.950 . S
C851 C849 1.327 . S
C852 C840 1.349 . S
C852 H846 0.950 . S
C852 C853 1.327 . S
C853 H847 0.950 . S
C853 C852 1.327 . S
C853 C857 1.429 . S
C854 C837 1.574 . S
C854 H848 0.949 1_655 S
C854 C858 1.368 . S
C855 C836 1.429 1_556 S
C855 C849 1.429 1_556 S
C855 C856 1.523 . S
C856 C837 1.368 . S
C856 C850 1.368 . S
C856 C855 1.523 . S
C857 C841 1.429 1_655 S
C857 C853 1.429 . S
C857 C858 1.523 . S
C858 C842 1.368 . S
C858 C854 1.368 . S
C858 C857 1.523 . S
H859 C834 0.950 . S
H860 C836 0.950 . S
H861 C837 0.949 . S
H862 C839 0.950 . S
H863 C841 0.950 . S
C864 C865 1.349 . S
C864 C866 1.327 . S
C864 H889 0.950 . S
C865 C864 1.349 . S
C865 C881 1.349 . S
C866 C864 1.327 . S
C866 C885 1.429 . S
C866 H890 0.950 . S
C867 C884 1.574 . S
C867 C886 1.368 . S
C867 H891 0.949 . S
H868 C872 0.949 . S
C869 C870 1.349 1_655 S
C869 C871 1.327 . S
C869 H892 0.950 . S
C870 C869 1.349 1_455 S
C870 C882 1.349 . S
C871 C869 1.327 . S
C871 C887 1.429 1_655 S
C871 H893 0.950 . S
C872 H868 0.949 . S
C872 C880 1.574 . S
C872 C888 1.368 . S
H873 C881 0.950 . S
H874 C879 0.950 . S
H875 C880 0.949 . S
H876 C882 0.950 . S
H877 C883 0.950 . S
H878 C884 0.949 1_655 S
C879 H874 0.950 . S
C879 C881 1.327 . S
C879 C885 1.429 . S
C880 C872 1.574 . S
C880 H875 0.949 . S
C880 C886 1.368 . S
C881 C865 1.349 . S
C881 H873 0.950 . S
C881 C879 1.327 . S
C882 C870 1.349 . S
C882 H876 0.950 . S
C882 C883 1.327 . S
C883 H877 0.950 . S
C883 C882 1.327 . S
C883 C887 1.429 . S
C884 C867 1.574 . S
C884 H878 0.949 1_455 S
C884 C888 1.368 . S
C885 C866 1.429 . S
C885 C879 1.429 . S
C885 C886 1.523 . S
C886 C867 1.368 . S
C886 C880 1.368 . S
C886 C885 1.523 . S
C887 C871 1.429 1_455 S
C887 C883 1.429 . S
C887 C888 1.523 . S
C888 C872 1.368 . S
C888 C884 1.368 . S
C888 C887 1.523 . S
H889 C864 0.950 . S
H890 C866 0.950 . S
H891 C867 0.949 . S
H892 C869 0.950 . S
H893 C871 0.950 . S
C894 C895 1.349 . S
C894 C896 1.327 . S
C894 H919 0.950 . S
C895 C894 1.349 . S
C895 C911 1.349 . S
C896 C894 1.327 . S
C896 C915 1.429 . S
C896 H920 0.950 . S
C897 C914 1.574 . S
C897 C916 1.368 . S
C897 H921 0.949 . S
H898 C902 0.949 . S
C899 C900 1.349 . S
C899 C901 1.327 . S
C899 H922 0.950 . S
C900 C899 1.349 . S
C900 C912 1.349 1_545 S
C901 C899 1.327 . S
C901 C917 1.429 . S
C901 H923 0.950 . S
C902 H898 0.949 . S
C902 C910 1.574 . S
C902 C918 1.368 . S
H903 C911 0.950 . S
H904 C909 0.950 . S
H905 C910 0.949 . S
H906 C912 0.950 . S
H907 C913 0.938 1_565 S
H908 C914 0.949 . S
C909 H904 0.950 . S
C909 C911 1.327 . S
C909 C915 1.429 . S
C910 C902 1.574 . S
C910 H905 0.949 . S
C910 C916 1.368 . S
C911 C895 1.349 . S
C911 H903 0.950 . S
C911 C909 1.327 . S
C912 C900 1.349 1_565 S
C912 H906 0.950 . S
C912 C913 1.320 1_565 S
C913 H907 0.938 1_545 S
C913 C912 1.320 1_545 S
C913 C917 1.447 . S
C914 C897 1.574 . S
C914 H908 0.949 . S
C914 C918 1.368 . S
C915 C896 1.429 . S
C915 C909 1.429 . S
C915 C916 1.523 . S
C916 C897 1.368 . S
C916 C910 1.368 . S
C916 C915 1.523 . S
C917 C901 1.429 . S
C917 C913 1.447 . S
C917 C918 1.523 . S
C918 C902 1.368 . S
C918 C914 1.368 . S
C918 C917 1.523 . S
H919 C894 0.950 . S
H920 C896 0.950 . S
H921 C897 0.949 . S
H922 C899 0.950 . S
H923 C901 0.950 . S
C924 C925 1.349 . S
C924 C926 1.327 . S
C924 H949 0.950 . S
C925 C924 1.349 . S
C925 C941 1.349 . S
C926 C924 1.327 . S
C926 C945 1.429 . S
C926 H950 0.950 . S
C927 C944 1.574 . S
C927 C946 1.368 . S
C927 H951 0.949 . S
H928 C932 0.949 . S
C929 C930 1.349 . S
C929 C931 1.327 . S
C929 H952 0.950 . S
C930 C929 1.349 . S
C930 C942 1.349 . S
C931 C929 1.327 . S
C931 C947 1.429 . S
C931 H953 0.950 . S
C932 H928 0.949 . S
C932 C940 1.574 . S
C932 C948 1.368 . S
H933 C941 0.950 . S
H934 C939 0.950 . S
H935 C940 0.949 . S
H936 C942 0.950 . S
H937 C943 0.950 . S
H938 C944 0.949 . S
C939 H934 0.950 . S
C939 C941 1.327 . S
C939 C945 1.429 . S
C940 C932 1.574 . S
C940 H935 0.949 . S
C940 C946 1.368 . S
C941 C925 1.349 . S
C941 H933 0.950 . S
C941 C939 1.327 . S
C942 C930 1.349 . S
C942 H936 0.950 . S
C942 C943 1.327 . S
C943 H937 0.950 . S
C943 C942 1.327 . S
C943 C947 1.429 . S
C944 C927 1.574 . S
C944 H938 0.949 . S
C944 C948 1.368 . S
C945 C926 1.429 . S
C945 C939 1.429 . S
C945 C946 1.523 . S
C946 C927 1.368 . S
C946 C940 1.368 . S
C946 C945 1.523 . S
C947 C931 1.429 . S
C947 C943 1.429 . S
C947 C948 1.523 . S
C948 C932 1.368 . S
C948 C944 1.368 . S
C948 C947 1.523 . S
H949 C924 0.950 . S
H950 C926 0.950 . S
H951 C927 0.949 . S
H952 C929 0.950 . S
H953 C931 0.950 . S
C954 C955 1.349 . S
C954 C956 1.327 . S
C954 H979 0.950 . S
C955 C954 1.349 . S
C955 C971 1.349 . S
C956 C954 1.327 . S
C956 C975 1.429 . S
C956 H980 0.950 . S
C957 C974 1.574 . S
C957 C976 1.368 . S
C957 H981 0.949 . S
H958 C962 0.949 . S
C959 C960 1.349 . S
C959 C961 1.327 . S
C959 H982 0.950 . S
C960 C959 1.349 . S
C960 C972 1.349 . S
C961 C959 1.327 . S
C961 C977 1.429 . S
C961 H983 0.950 . S
C962 H958 0.949 . S
C962 C970 1.574 . S
C962 C978 1.368 . S
H963 C971 0.950 . S
H964 C969 0.950 . S
H965 C970 0.949 . S
H966 C972 0.950 . S
H967 C973 0.950 . S
H968 C974 0.949 . S
C969 H964 0.950 . S
C969 C971 1.327 . S
C969 C975 1.429 . S
C970 C962 1.574 . S
C970 H965 0.949 . S
C970 C976 1.368 . S
C971 C955 1.349 . S
C971 H963 0.950 . S
C971 C969 1.327 . S
C972 C960 1.349 . S
C972 H966 0.950 . S
C972 C973 1.327 . S
C973 H967 0.950 . S
C973 C972 1.327 . S
C973 C977 1.429 . S
C974 C957 1.574 . S
C974 H968 0.949 . S
C974 C978 1.368 . S
C975 C956 1.429 . S
C975 C969 1.429 . S
C975 C976 1.523 . S
C976 C957 1.368 . S
C976 C970 1.368 . S
C976 C975 1.523 . S
C977 C961 1.429 . S
C977 C973 1.429 . S
C977 C978 1.523 . S
C978 C962 1.368 . S
C978 C974 1.368 . S
C978 C977 1.523 . S
H979 C954 0.950 . S
H980 C956 0.950 . S
H981 C957 0.949 . S
H982 C959 0.950 . S
H983 C961 0.950 . S
C984 C985 1.349 . S
C984 C986 1.327 . S
C984 H1009 0.950 . S
C985 C984 1.349 . S
C985 C1001 1.349 1_554 S
C986 C984 1.327 . S
C986 C1005 1.429 1_554 S
C986 H1010 0.950 . S
C987 C1004 1.574 . S
C987 C1006 1.368 . S
C987 H1011 0.949 . S
H988 C992 0.949 1_455 S
C989 C990 1.349 1_655 S
C989 C991 1.327 . S
C989 H1012 0.950 . S
C990 C989 1.349 1_455 S
C990 C1002 1.349 . S
C991 C989 1.327 . S
C991 C1007 1.429 . S
C991 H1013 0.950 . S
C992 H988 0.949 1_655 S
C992 C1000 1.574 . S
C992 C1008 1.368 . S
H993 C1001 0.950 . S
H994 C999 0.950 . S
H995 C1000 0.949 . S
H996 C1002 0.950 . S
H997 C1003 0.950 . S
H998 C1004 0.949 . S
C999 H994 0.950 . S
C999 C1001 1.327 . S
C999 C1005 1.429 . S
C1000 C992 1.574 . S
C1000 H995 0.949 . S
C1000 C1006 1.368 . S
C1001 C985 1.349 1_556 S
C1001 H993 0.950 . S
C1001 C999 1.327 . S
C1002 C990 1.349 . S
C1002 H996 0.950 . S
C1002 C1003 1.327 . S
C1003 H997 0.950 . S
C1003 C1002 1.327 . S
C1003 C1007 1.429 1_455 S
C1004 C987 1.574 . S
C1004 H998 0.949 . S
C1004 C1008 1.368 . S
C1005 C986 1.429 1_556 S
C1005 C999 1.429 . S
C1005 C1006 1.523 . S
C1006 C987 1.368 . S
C1006 C1000 1.368 . S
C1006 C1005 1.523 . S
C1007 C991 1.429 . S
C1007 C1003 1.429 1_655 S
C1007 C1008 1.523 . S
C1008 C992 1.368 . S
C1008 C1004 1.368 . S
C1008 C1007 1.523 . S
H1009 C984 0.950 . S
H1010 C986 0.950 . S
H1011 C987 0.949 . S
H1012 C989 0.950 . S
H1013 C991 0.950 . S
C1014 C1015 1.349 . S
C1014 C1016 1.327 . S
C1014 H1039 0.950 . S
C1015 C1014 1.349 . S
C1015 C1031 1.349 1_554 S
C1016 C1014 1.327 . S
C1016 C1035 1.429 1_554 S
C1016 H1040 0.950 . S
C1017 C1034 1.574 . S
C1017 C1036 1.368 . S
C1017 H1041 0.949 . S
H1018 C1022 0.949 . S
C1019 C1020 1.349 . S
C1019 C1021 1.327 . S
C1019 H1042 0.950 . S
C1020 C1019 1.349 . S
C1020 C1032 1.349 . S
C1021 C1019 1.327 . S
C1021 C1037 1.429 1_545 S
C1021 H1043 0.950 . S
C1022 H1018 0.949 . S
C1022 C1030 1.574 . S
C1022 C1038 1.368 . S
H1023 C1031 0.950 . S
H1024 C1029 0.950 . S
H1025 C1030 0.949 . S
H1026 C1032 0.950 . S
H1027 C1033 0.950 . S
H1028 C1034 0.949 . S
C1029 H1024 0.950 . S
C1029 C1031 1.327 . S
C1029 C1035 1.429 . S
C1030 C1022 1.574 . S
C1030 H1025 0.949 . S
C1030 C1036 1.368 . S
C1031 C1015 1.349 1_556 S
C1031 H1023 0.950 . S
C1031 C1029 1.327 . S
C1032 C1020 1.349 . S
C1032 H1026 0.950 . S
C1032 C1033 1.327 1_545 S
C1033 H1027 0.950 . S
C1033 C1032 1.327 1_565 S
C1033 C1037 1.429 . S
C1034 C1017 1.574 . S
C1034 H1028 0.949 . S
C1034 C1038 1.368 . S
C1035 C1016 1.429 1_556 S
C1035 C1029 1.429 . S
C1035 C1036 1.523 . S
C1036 C1017 1.368 . S
C1036 C1030 1.368 . S
C1036 C1035 1.523 . S
C1037 C1021 1.429 1_565 S
C1037 C1033 1.429 . S
C1037 C1038 1.523 . S
C1038 C1022 1.368 . S
C1038 C1034 1.368 . S
C1038 C1037 1.523 . S
H1039 C1014 0.950 . S
H1040 C1016 0.950 . S
H1041 C1017 0.949 . S
H1042 C1019 0.950 . S
H1043 C1021 0.950 . S
C1044 C1045 1.349 1_556 S
C1044 C1046 1.327 . S
C1044 H1069 0.950 . S
C1045 C1044 1.349 1_554 S
C1045 C1061 1.349 . S
C1046 C1044 1.327 . S
C1046 C1065 1.429 . S
C1046 H1070 0.950 . S
C1047 C1064 1.574 . S
C1047 C1066 1.368 . S
C1047 H1071 0.949 . S
H1048 C1052 0.949 . S
C1049 C1050 1.349 . S
C1049 C1051 1.327 . S
C1049 H1072 0.950 . S
C1050 C1049 1.349 . S
C1050 C1062 1.349 . S
C1051 C1049 1.327 . S
C1051 C1067 1.429 . S
C1051 H1073 0.950 . S
C1052 H1048 0.949 . S
C1052 C1060 1.574 . S
C1052 C1068 1.368 . S
H1053 C1061 0.950 . S
H1054 C1059 0.950 . S
H1055 C1060 0.949 . S
H1056 C1062 0.950 . S
H1057 C1063 0.950 . S
H1058 C1064 0.949 . S
C1059 H1054 0.950 . S
C1059 C1061 1.327 . S
C1059 C1065 1.429 1_554 S
C1060 C1052 1.574 . S
C1060 H1055 0.949 . S
C1060 C1066 1.368 . S
C1061 C1045 1.349 . S
C1061 H1053 0.950 . S
C1061 C1059 1.327 . S
C1062 C1050 1.349 . S
C1062 H1056 0.950 . S
C1062 C1063 1.327 . S
C1063 H1057 0.950 . S
C1063 C1062 1.327 . S
C1063 C1067 1.429 . S
C1064 C1047 1.574 . S
C1064 H1058 0.949 . S
C1064 C1068 1.368 . S
C1065 C1046 1.429 . S
C1065 C1059 1.429 1_556 S
C1065 C1066 1.523 . S
C1066 C1047 1.368 . S
C1066 C1060 1.368 . S
C1066 C1065 1.523 . S
C1067 C1051 1.429 . S
C1067 C1063 1.429 . S
C1067 C1068 1.523 . S
C1068 C1052 1.368 . S
C1068 C1064 1.368 . S
C1068 C1067 1.523 . S
H1069 C1044 0.950 . S
H1070 C1046 0.950 . S
H1071 C1047 0.949 . S
H1072 C1049 0.950 . S
H1073 C1051 0.950 . S
C1074 C1075 1.349 . S
C1074 C1076 1.327 1_554 S
C1074 H1099 0.950 . S
C1075 C1074 1.349 . S
C1075 C1091 1.349 . S
C1076 C1074 1.327 1_556 S
C1076 C1095 1.429 . S
C1076 H1100 0.950 . S
C1077 C1094 1.574 . S
C1077 C1096 1.368 . S
C1077 H1101 0.949 . S
H1078 C1082 0.949 . S
C1079 C1080 1.349 . S
C1079 C1081 1.327 . S
C1079 H1102 0.950 . S
C1080 C1079 1.349 . S
C1080 C1092 1.349 . S
C1081 C1079 1.327 . S
C1081 C1097 1.429 . S
C1081 H1103 0.950 . S
C1082 H1078 0.949 . S
C1082 C1090 1.574 . S
C1082 C1098 1.368 . S
H1083 C1091 0.950 . S
H1084 C1089 0.950 . S
H1085 C1090 0.949 . S
H1086 C1092 0.950 . S
H1087 C1093 0.950 . S
H1088 C1094 0.949 . S
C1089 H1084 0.950 . S
C1089 C1091 1.327 1_556 S
C1089 C1095 1.429 . S
C1090 C1082 1.574 . S
C1090 H1085 0.949 . S
C1090 C1096 1.368 . S
C1091 C1075 1.349 . S
C1091 H1083 0.950 . S
C1091 C1089 1.327 1_554 S
C1092 C1080 1.349 . S
C1092 H1086 0.950 . S
C1092 C1093 1.327 . S
C1093 H1087 0.950 . S
C1093 C1092 1.327 . S
C1093 C1097 1.429 . S
C1094 C1077 1.574 . S
C1094 H1088 0.949 . S
C1094 C1098 1.368 . S
C1095 C1076 1.429 . S
C1095 C1089 1.429 . S
C1095 C1096 1.523 . S
C1096 C1077 1.368 . S
C1096 C1090 1.368 . S
C1096 C1095 1.523 . S
C1097 C1081 1.429 . S
C1097 C1093 1.429 . S
C1097 C1098 1.523 . S
C1098 C1082 1.368 . S
C1098 C1094 1.368 . S
C1098 C1097 1.523 . S
H1099 C1074 0.950 . S
H1100 C1076 0.950 . S
H1101 C1077 0.949 . S
H1102 C1079 0.950 . S
H1103 C1081 0.950 . S
C1104 C1105 1.349 . S
C1104 C1106 1.327 . S
C1104 H1129 0.950 . S
C1105 C1104 1.349 . S
C1105 C1121 1.349 . S
C1106 C1104 1.327 . S
C1106 C1125 1.429 . S
C1106 H1130 0.950 . S
C1107 C1124 1.574 . S
C1107 C1126 1.368 . S
C1107 H1131 0.949 . S
H1108 C1112 0.949 . S
C1109 C1110 1.349 . S
C1109 C1111 1.327 . S
C1109 H1132 0.950 . S
C1110 C1109 1.349 . S
C1110 C1122 1.349 . S
C1111 C1109 1.327 . S
C1111 C1127 1.429 . S
C1111 H1133 0.950 . S
C1112 H1108 0.949 . S
C1112 C1120 1.574 . S
C1112 C1128 1.368 . S
H1113 C1121 0.950 . S
H1114 C1119 0.950 . S
H1115 C1120 0.949 . S
H1116 C1122 0.950 . S
H1117 C1123 0.950 . S
H1118 C1124 0.949 . S
C1119 H1114 0.950 . S
C1119 C1121 1.327 . S
C1119 C1125 1.429 . S
C1120 C1112 1.574 . S
C1120 H1115 0.949 . S
C1120 C1126 1.368 . S
C1121 C1105 1.349 . S
C1121 H1113 0.950 . S
C1121 C1119 1.327 . S
C1122 C1110 1.349 . S
C1122 H1116 0.950 . S
C1122 C1123 1.327 . S
C1123 H1117 0.950 . S
C1123 C1122 1.327 . S
C1123 C1127 1.429 . S
C1124 C1107 1.574 . S
C1124 H1118 0.949 . S
C1124 C1128 1.368 . S
C1125 C1106 1.429 . S
C1125 C1119 1.429 . S
C1125 C1126 1.523 . S
C1126 C1107 1.368 . S
C1126 C1120 1.368 . S
C1126 C1125 1.523 . S
C1127 C1111 1.429 . S
C1127 C1123 1.429 . S
C1127 C1128 1.523 . S
C1128 C1112 1.368 . S
C1128 C1124 1.368 . S
C1128 C1127 1.523 . S
H1129 C1104 0.950 . S
H1130 C1106 0.950 . S
H1131 C1107 0.949 . S
H1132 C1109 0.950 . S
H1133 C1111 0.950 . S
C1134 C1135 1.349 . S
C1134 C1136 1.327 . S
C1134 H1159 0.950 . S
C1135 C1134 1.349 . S
C1135 C1151 1.349 . S
C1136 C1134 1.327 . S
C1136 C1155 1.429 . S
C1136 H1160 0.950 . S
C1137 C1154 1.574 . S
C1137 C1156 1.368 . S
C1137 H1161 0.949 . S
H1138 C1142 0.949 . S
C1139 C1140 1.349 . S
C1139 C1141 1.327 . S
C1139 H1162 0.950 1_545 S
C1140 C1139 1.349 . S
C1140 C1152 1.349 . S
C1141 C1139 1.327 . S
C1141 C1157 1.429 . S
C1141 H1163 0.950 1_545 S
C1142 H1138 0.949 . S
C1142 C1150 1.574 . S
C1142 C1158 1.368 . S
H1143 C1151 0.950 . S
H1144 C1149 0.950 . S
H1145 C1150 0.949 . S
H1146 C1152 0.950 . S
H1147 C1153 0.950 . S
H1148 C1154 0.949 . S
C1149 H1144 0.950 . S
C1149 C1151 1.327 . S
C1149 C1155 1.429 . S
C1150 C1142 1.574 . S
C1150 H1145 0.949 . S
C1150 C1156 1.368 . S
C1151 C1135 1.349 . S
C1151 H1143 0.950 . S
C1151 C1149 1.327 . S
C1152 C1140 1.349 . S
C1152 H1146 0.950 . S
C1152 C1153 1.327 . S
C1153 H1147 0.950 . S
C1153 C1152 1.327 . S
C1153 C1157 1.429 . S
C1154 C1137 1.574 . S
C1154 H1148 0.949 . S
C1154 C1158 1.368 . S
C1155 C1136 1.429 . S
C1155 C1149 1.429 . S
C1155 C1156 1.523 . S
C1156 C1137 1.368 . S
C1156 C1150 1.368 . S
C1156 C1155 1.523 . S
C1157 C1141 1.429 . S
C1157 C1153 1.429 . S
C1157 C1158 1.523 . S
C1158 C1142 1.368 . S
C1158 C1154 1.368 . S
C1158 C1157 1.523 . S
H1159 C1134 0.950 . S
H1160 C1136 0.950 . S
H1161 C1137 0.949 . S
H1162 C1139 0.950 1_565 S
H1163 C1141 0.950 1_565 S
C1164 C1165 1.349 . S
C1164 C1166 1.327 . S
C1164 H1189 0.950 . S
C1165 C1164 1.349 . S
C1165 C1181 1.349 . S
C1166 C1164 1.327 . S
C1166 C1185 1.429 . S
C1166 H1190 0.950 . S
C1167 C1184 1.574 . S
C1167 C1186 1.368 . S
C1167 H1191 0.949 . S
H1168 C1172 0.949 . S
C1169 C1170 1.349 . S
C1169 C1171 1.327 . S
C1169 H1192 0.950 . S
C1170 C1169 1.349 . S
C1170 C1182 1.349 . S
C1171 C1169 1.327 . S
C1171 C1187 1.429 . S
C1171 H1193 0.950 . S
C1172 H1168 0.949 . S
C1172 C1180 1.574 . S
C1172 C1188 1.368 . S
H1173 C1181 0.950 . S
H1174 C1179 0.950 . S
H1175 C1180 0.949 . S
H1176 C1182 0.950 . S
H1177 C1183 0.950 . S
H1178 C1184 0.949 . S
C1179 H1174 0.950 . S
C1179 C1181 1.327 . S
C1179 C1185 1.429 . S
C1180 C1172 1.574 . S
C1180 H1175 0.949 . S
C1180 C1186 1.368 . S
C1181 C1165 1.349 . S
C1181 H1173 0.950 . S
C1181 C1179 1.327 . S
C1182 C1170 1.349 . S
C1182 H1176 0.950 . S
C1182 C1183 1.327 . S
C1183 H1177 0.950 . S
C1183 C1182 1.327 . S
C1183 C1187 1.429 . S
C1184 C1167 1.574 . S
C1184 H1178 0.949 . S
C1184 C1188 1.368 . S
C1185 C1166 1.429 . S
C1185 C1179 1.429 . S
C1185 C1186 1.523 . S
C1186 C1167 1.368 . S
C1186 C1180 1.368 . S
C1186 C1185 1.523 . S
C1187 C1171 1.429 . S
C1187 C1183 1.429 . S
C1187 C1188 1.523 . S
C1188 C1172 1.368 . S
C1188 C1184 1.368 . S
C1188 C1187 1.523 . S
H1189 C1164 0.950 . S
H1190 C1166 0.950 . S
H1191 C1167 0.949 . S
H1192 C1169 0.950 . S
H1193 C1171 0.950 . S
C1194 C1195 1.349 . S
C1194 C1196 1.327 . S
C1194 H1219 0.950 . S
C1195 C1194 1.349 . S
C1195 C1211 1.349 . S
C1196 C1194 1.327 . S
C1196 C1215 1.429 . S
C1196 H1220 0.950 . S
C1197 C1214 1.574 . S
C1197 C1216 1.368 . S
C1197 H1221 0.949 . S
H1198 C1202 0.949 . S
C1199 C1200 1.349 . S
C1199 C1201 1.327 . S
C1199 H1222 0.950 . S
C1200 C1199 1.349 . S
C1200 C1212 1.349 . S
C1201 C1199 1.327 . S
C1201 C1217 1.429 . S
C1201 H1223 0.950 . S
C1202 H1198 0.949 . S
C1202 C1210 1.574 . S
C1202 C1218 1.368 . S
H1203 C1211 0.950 . S
H1204 C1209 0.950 . S
H1205 C1210 0.949 . S
H1206 C1212 0.950 . S
H1207 C1213 0.950 . S
H1208 C1214 0.949 . S
C1209 H1204 0.950 . S
C1209 C1211 1.327 . S
C1209 C1215 1.429 . S
C1210 C1202 1.574 . S
C1210 H1205 0.949 . S
C1210 C1216 1.368 . S
C1211 C1195 1.349 . S
C1211 H1203 0.950 . S
C1211 C1209 1.327 . S
C1212 C1200 1.349 . S
C1212 H1206 0.950 . S
C1212 C1213 1.327 . S
C1213 H1207 0.950 . S
C1213 C1212 1.327 . S
C1213 C1217 1.429 . S
C1214 C1197 1.574 . S
C1214 H1208 0.949 . S
C1214 C1218 1.368 . S
C1215 C1196 1.429 . S
C1215 C1209 1.429 . S
C1215 C1216 1.523 . S
C1216 C1197 1.368 . S
C1216 C1210 1.368 . S
C1216 C1215 1.523 . S
C1217 C1201 1.429 . S
C1217 C1213 1.429 . S
C1217 C1218 1.523 . S
C1218 C1202 1.368 . S
C1218 C1214 1.368 . S
C1218 C1217 1.523 . S
H1219 C1194 0.950 . S
H1220 C1196 0.950 . S
H1221 C1197 0.949 . S
H1222 C1199 0.950 . S
H1223 C1201 0.950 . S
C1224 C1225 1.349 . S
C1224 C1226 1.327 . S
C1224 H1249 0.950 . S
C1225 C1224 1.349 . S
C1225 C1241 1.349 . S
C1226 C1224 1.327 . S
C1226 C1245 1.429 . S
C1226 H1250 0.950 . S
C1227 C1244 1.574 . S
C1227 C1246 1.368 . S
C1227 H1251 0.949 . S
H1228 C1232 0.949 . S
C1229 C1230 1.349 . S
C1229 C1231 1.327 . S
C1229 H1252 0.950 . S
C1230 C1229 1.349 . S
C1230 C1242 1.349 . S
C1231 C1229 1.327 . S
C1231 C1247 1.429 . S
C1231 H1253 0.950 . S
C1232 H1228 0.949 . S
C1232 C1240 1.574 . S
C1232 C1248 1.368 . S
H1233 C1241 0.950 . S
H1234 C1239 0.950 . S
H1235 C1240 0.949 . S
H1236 C1242 0.950 1_455 S
H1237 C1243 0.950 . S
H1238 C1244 0.949 . S
C1239 H1234 0.950 . S
C1239 C1241 1.327 . S
C1239 C1245 1.429 . S
C1240 C1232 1.574 . S
C1240 H1235 0.949 . S
C1240 C1246 1.368 . S
C1241 C1225 1.349 . S
C1241 H1233 0.950 . S
C1241 C1239 1.327 . S
C1242 C1230 1.349 . S
C1242 H1236 0.950 1_655 S
C1242 C1243 1.327 . S
C1243 H1237 0.950 . S
C1243 C1242 1.327 . S
C1243 C1247 1.429 . S
C1244 C1227 1.574 . S
C1244 H1238 0.949 . S
C1244 C1248 1.368 . S
C1245 C1226 1.429 . S
C1245 C1239 1.429 . S
C1245 C1246 1.523 . S
C1246 C1227 1.368 . S
C1246 C1240 1.368 . S
C1246 C1245 1.523 . S
C1247 C1231 1.429 . S
C1247 C1243 1.429 . S
C1247 C1248 1.523 . S
C1248 C1232 1.368 . S
C1248 C1244 1.368 . S
C1248 C1247 1.523 . S
H1249 C1224 0.950 . S
H1250 C1226 0.950 . S
H1251 C1227 0.949 . S
H1252 C1229 0.950 . S
H1253 C1231 0.950 . S
C1254 C1255 1.349 . S
C1254 C1256 1.327 . S
C1254 H1279 0.950 . S
C1255 C1254 1.349 . S
C1255 C1271 1.349 . S
C1256 C1254 1.327 . S
C1256 C1275 1.429 . S
C1256 H1280 0.950 . S
C1257 C1274 1.574 . S
C1257 C1276 1.368 . S
C1257 H1281 0.949 . S
H1258 C1262 0.949 . S
C1259 C1260 1.361 . S
C1259 C1261 1.331 . S
C1259 H1282 0.934 1_565 S
C1260 C1259 1.361 . S
C1260 C1272 1.349 . S
C1261 C1259 1.331 . S
C1261 C1277 1.429 . S
C1261 H1283 0.950 1_565 S
C1262 H1258 0.949 . S
C1262 C1270 1.574 . S
C1262 C1278 1.368 . S
H1263 C1271 0.950 . S
H1264 C1269 0.950 . S
H1265 C1270 0.949 . S
H1266 C1272 0.950 . S
H1267 C1273 0.950 . S
H1268 C1274 0.949 . S
C1269 H1264 0.950 . S
C1269 C1271 1.327 . S
C1269 C1275 1.429 . S
C1270 C1262 1.574 . S
C1270 H1265 0.949 . S
C1270 C1276 1.368 . S
C1271 C1255 1.349 . S
C1271 H1263 0.950 . S
C1271 C1269 1.327 . S
C1272 C1260 1.349 . S
C1272 H1266 0.950 . S
C1272 C1273 1.327 . S
C1273 H1267 0.950 . S
C1273 C1272 1.327 . S
C1273 C1277 1.429 . S
C1274 C1257 1.574 . S
C1274 H1268 0.949 . S
C1274 C1278 1.368 . S
C1275 C1256 1.429 . S
C1275 C1269 1.429 . S
C1275 C1276 1.523 . S
C1276 C1257 1.368 . S
C1276 C1270 1.368 . S
C1276 C1275 1.523 . S
C1277 C1261 1.429 . S
C1277 C1273 1.429 . S
C1277 C1278 1.523 . S
C1278 C1262 1.368 . S
C1278 C1274 1.368 . S
C1278 C1277 1.523 . S
H1279 C1254 0.950 . S
H1280 C1256 0.950 . S
H1281 C1257 0.949 . S
H1282 C1259 0.934 1_545 S
H1283 C1261 0.950 1_545 S
C1284 C1285 1.349 . S
C1284 C1286 1.327 . S
C1284 H1309 0.950 . S
C1285 C1284 1.349 . S
C1285 C1301 1.349 . S
C1286 C1284 1.327 . S
C1286 C1305 1.429 . S
C1286 H1310 0.950 . S
C1287 C1304 1.574 . S
C1287 C1306 1.368 . S
C1287 H1311 0.949 . S
H1288 C1292 0.949 . S
C1289 C1290 1.349 . S
C1289 C1291 1.327 . S
C1289 H1312 0.950 . S
C1290 C1289 1.349 . S
C1290 C1302 1.349 . S
C1291 C1289 1.327 . S
C1291 C1307 1.429 . S
C1291 H1313 0.950 . S
C1292 H1288 0.949 . S
C1292 C1300 1.574 . S
C1292 C1308 1.368 . S
H1293 C1301 0.950 . S
H1294 C1299 0.950 . S
H1295 C1300 0.949 . S
H1296 C1302 0.950 . S
H1297 C1303 0.950 . S
H1298 C1304 0.949 . S
C1299 H1294 0.950 . S
C1299 C1301 1.327 . S
C1299 C1305 1.429 . S
C1300 C1292 1.574 . S
C1300 H1295 0.949 . S
C1300 C1306 1.368 . S
C1301 C1285 1.349 . S
C1301 H1293 0.950 . S
C1301 C1299 1.327 . S
C1302 C1290 1.349 . S
C1302 H1296 0.950 . S
C1302 C1303 1.327 . S
C1303 H1297 0.950 . S
C1303 C1302 1.327 . S
C1303 C1307 1.429 . S
C1304 C1287 1.574 . S
C1304 H1298 0.949 . S
C1304 C1308 1.368 . S
C1305 C1286 1.429 . S
C1305 C1299 1.429 . S
C1305 C1306 1.523 . S
C1306 C1287 1.368 . S
C1306 C1300 1.368 . S
C1306 C1305 1.523 . S
C1307 C1291 1.429 . S
C1307 C1303 1.429 . S
C1307 C1308 1.523 . S
C1308 C1292 1.368 . S
C1308 C1304 1.368 . S
C1308 C1307 1.523 . S
H1309 C1284 0.950 . S
H1310 C1286 0.950 . S
H1311 C1287 0.949 . S
H1312 C1289 0.950 . S
H1313 C1291 0.950 . S
C1314 C1315 1.349 . S
C1314 C1316 1.327 . S
C1314 H1339 0.950 . S
C1315 C1314 1.349 . S
C1315 C1331 1.349 . S
C1316 C1314 1.327 . S
C1316 C1335 1.429 . S
C1316 H1340 0.950 . S
C1317 C1334 1.574 . S
C1317 C1336 1.368 . S
C1317 H1341 0.949 . S
H1318 C1322 0.949 . S
C1319 C1320 1.349 . S
C1319 C1321 1.327 . S
C1319 H1342 0.950 . S
C1320 C1319 1.349 . S
C1320 C1332 1.349 . S
C1321 C1319 1.327 . S
C1321 C1337 1.429 . S
C1321 H1343 0.950 . S
C1322 H1318 0.949 . S
C1322 C1330 1.574 . S
C1322 C1338 1.368 . S
H1323 C1331 0.950 . S
H1324 C1329 0.950 . S
H1325 C1330 0.949 . S
H1326 C1332 0.950 . S
H1327 C1333 0.950 . S
H1328 C1334 0.949 . S
C1329 H1324 0.950 . S
C1329 C1331 1.327 . S
C1329 C1335 1.429 . S
C1330 C1322 1.574 . S
C1330 H1325 0.949 . S
C1330 C1336 1.368 . S
C1331 C1315 1.349 . S
C1331 H1323 0.950 . S
C1331 C1329 1.327 . S
C1332 C1320 1.349 . S
C1332 H1326 0.950 . S
C1332 C1333 1.327 . S
C1333 H1327 0.950 . S
C1333 C1332 1.327 . S
C1333 C1337 1.429 . S
C1334 C1317 1.574 . S
C1334 H1328 0.949 . S
C1334 C1338 1.368 . S
C1335 C1316 1.429 . S
C1335 C1329 1.429 . S
C1335 C1336 1.523 . S
C1336 C1317 1.368 . S
C1336 C1330 1.368 . S
C1336 C1335 1.523 . S
C1337 C1321 1.429 . S
C1337 C1333 1.429 . S
C1337 C1338 1.523 . S
C1338 C1322 1.368 . S
C1338 C1334 1.368 . S
C1338 C1337 1.523 . S
H1339 C1314 0.950 . S
H1340 C1316 0.950 . S
H1341 C1317 0.949 . S
H1342 C1319 0.950 . S
H1343 C1321 0.950 . S
C625 C241 2.054 . S
C630 C351 2.185 . S
C660 C428 2.209 . S
C655 C277 2.093 . S
C690 C519 2.177 . S
C685 C169 2.045 . S
C720 C603 2.173 . S
C715 C205 2.042 . S
C750 C362 2.185 1_565 S
C745 C97 2.025 . S
C775 C133 2.122 . S
C780 C439 2.209 . S
C805 C25 2.018 . S
C810 C530 2.178 . S
C835 C61 2.014 . S
C840 C614 2.172 1_655 S
C870 C346 0.429 1_455 S
C865 C211 0.288 . S
C900 C441 0.524 . S
C895 C247 0.271 . S
C930 C514 0.423 . S
C925 C253 0.350 . S
C955 C175 0.279 . S
C960 C598 0.424 . S
C985 C67 0.382 . S
C990 C357 0.429 . S
C1020 C430 0.524 . S
C1015 C103 0.376 . S
C1050 C525 0.423 . S
C1045 C109 0.268 . S
C1075 C31 0.377 . S
C1080 C609 0.424 . S
C1105 C181 2.445 . S
C1110 C355 2.650 . S
C1135 C217 2.432 . S
C1140 C446 2.658 . S
C1170 C523 2.671 . S
C1165 C283 2.380 . S
C1200 C607 2.664 . S
C1195 C145 2.458 . S
C1225 C37 2.426 . S
C1230 C344 2.650 . S
C1260 C435 2.658 . S
C1255 C73 2.412 . S
C1290 C512 2.671 . S
C1285 C139 2.405 . S
C1315 C1 2.440 . S
C1320 C596 2.664 . S
