# Generated by pormake.
# Topology wbl, (4,4)-cn, num edge types: 1
# Building blocks:
#     Node 0, Type 0, BuildingBlock: NAWXER_clean_linker_0, # of connection points: 4
#     Node 1, Type 0, BuildingBlock: NAWXER_clean_linker_0, # of connection points: 4
#     Node 2, Type 0, BuildingBlock: NAWXER_clean_linker_0, # of connection points: 4
#     Node 3, Type 0, BuildingBlock: NAWXER_clean_linker_0, # of connection points: 4
#     Node 4, Type 0, BuildingBlock: NAWXER_clean_linker_0, # of connection points: 4
#     Node 5, Type 0, BuildingBlock: NAWXER_clean_linker_0, # of connection points: 4
#     Node 6, Type 0, BuildingBlock: NAWXER_clean_linker_0, # of connection points: 4
#     Node 7, Type 0, BuildingBlock: NAWXER_clean_linker_0, # of connection points: 4
#     Node 8, Type 1, BuildingBlock: QUQFOY_clean_sbu_3, # of connection points: 4
#     Node 9, Type 1, BuildingBlock: QUQFOY_clean_sbu_3, # of connection points: 4
#     Node 10, Type 1, BuildingBlock: QUQFOY_clean_sbu_3, # of connection points: 4
#     Node 11, Type 1, BuildingBlock: QUQFOY_clean_sbu_3, # of connection points: 4
#     Node 12, Type 1, BuildingBlock: QUQFOY_clean_sbu_3, # of connection points: 4
#     Node 13, Type 1, BuildingBlock: QUQFOY_clean_sbu_3, # of connection points: 4
#     Node 14, Type 1, BuildingBlock: QUQFOY_clean_sbu_3, # of connection points: 4
#     Node 15, Type 1, BuildingBlock: QUQFOY_clean_sbu_3, # of connection points: 4
#     Edge 16, Type (0, 1), BuildingBlock: XIVTED_clean_linker_0, # of connection points: 2
#     Edge 17, Type (0, 1), BuildingBlock: XIVTED_clean_linker_0, # of connection points: 2
#     Edge 18, Type (0, 1), BuildingBlock: XIVTED_clean_linker_0, # of connection points: 2
#     Edge 19, Type (0, 1), BuildingBlock: XIVTED_clean_linker_0, # of connection points: 2
#     Edge 20, Type (0, 1), BuildingBlock: XIVTED_clean_linker_0, # of connection points: 2
#     Edge 21, Type (0, 1), BuildingBlock: XIVTED_clean_linker_0, # of connection points: 2
#     Edge 22, Type (0, 1), BuildingBlock: XIVTED_clean_linker_0, # of connection points: 2
#     Edge 23, Type (0, 1), BuildingBlock: XIVTED_clean_linker_0, # of connection points: 2
#     Edge 24, Type (0, 1), BuildingBlock: XIVTED_clean_linker_0, # of connection points: 2
#     Edge 25, Type (0, 1), BuildingBlock: XIVTED_clean_linker_0, # of connection points: 2
#     Edge 26, Type (0, 1), BuildingBlock: XIVTED_clean_linker_0, # of connection points: 2
#     Edge 27, Type (0, 1), BuildingBlock: XIVTED_clean_linker_0, # of connection points: 2
#     Edge 28, Type (0, 1), BuildingBlock: XIVTED_clean_linker_0, # of connection points: 2
#     Edge 29, Type (0, 1), BuildingBlock: XIVTED_clean_linker_0, # of connection points: 2
#     Edge 30, Type (0, 1), BuildingBlock: XIVTED_clean_linker_0, # of connection points: 2
#     Edge 31, Type (0, 1), BuildingBlock: XIVTED_clean_linker_0, # of connection points: 2
#     Edge 32, Type (0, 1), BuildingBlock: XIVTED_clean_linker_0, # of connection points: 2
#     Edge 33, Type (0, 1), BuildingBlock: XIVTED_clean_linker_0, # of connection points: 2
#     Edge 34, Type (0, 1), BuildingBlock: XIVTED_clean_linker_0, # of connection points: 2
#     Edge 35, Type (0, 1), BuildingBlock: XIVTED_clean_linker_0, # of connection points: 2
#     Edge 36, Type (0, 1), BuildingBlock: XIVTED_clean_linker_0, # of connection points: 2
#     Edge 37, Type (0, 1), BuildingBlock: XIVTED_clean_linker_0, # of connection points: 2
#     Edge 38, Type (0, 1), BuildingBlock: XIVTED_clean_linker_0, # of connection points: 2
#     Edge 39, Type (0, 1), BuildingBlock: XIVTED_clean_linker_0, # of connection points: 2
#     Edge 40, Type (0, 1), BuildingBlock: XIVTED_clean_linker_0, # of connection points: 2
#     Edge 41, Type (0, 1), BuildingBlock: XIVTED_clean_linker_0, # of connection points: 2
#     Edge 42, Type (0, 1), BuildingBlock: XIVTED_clean_linker_0, # of connection points: 2
#     Edge 43, Type (0, 1), BuildingBlock: XIVTED_clean_linker_0, # of connection points: 2
#     Edge 44, Type (0, 1), BuildingBlock: XIVTED_clean_linker_0, # of connection points: 2
#     Edge 45, Type (0, 1), BuildingBlock: XIVTED_clean_linker_0, # of connection points: 2
#     Edge 46, Type (0, 1), BuildingBlock: XIVTED_clean_linker_0, # of connection points: 2
#     Edge 47, Type (0, 1), BuildingBlock: XIVTED_clean_linker_0, # of connection points: 2
# Relax obj value: 0.172
# Max RMSD: 0.174
# Mean RMSD: 0.145
data_MOF--net-wbl--node1-QUQFOY_clean_sbu_3--node2-NAWXER_clean_linker_0--edge1-XIVTED_clean_linker_0
_symmetry_space_group_name_H-M    P1
_symmetry_Int_Tables_number       1
_symmetry_cell_setting            triclinic
loop_
_symmetry_equiv_pos_as_xyz
'x, y, z'
_cell_length_a     46.033255
_cell_length_b     46.486868
_cell_length_c     79.368562
_cell_angle_alpha  90.581484
_cell_angle_beta   90.368019
_cell_angle_gamma 90.085854
loop_
_atom_site_label
_atom_site_type_symbol
_atom_site_fract_x
_atom_site_fract_y
_atom_site_fract_z
_atom_type_partial_charge
C0 C 0.11252 -0.01178 0.35526 0.0
C1 C 0.13139 0.00404 0.36589 0.0
C2 C 0.09866 0.00149 0.34166 0.0
C3 C 0.10332 0.03079 0.33852 0.0
C4 C 0.13794 0.03267 0.36169 0.0
C5 C 0.12371 0.04601 0.3483 0.0
C6 C 0.08295 0.04676 0.32766 0.0
C7 C 0.14161 0.002 0.29169 0.0
C8 C 0.12859 0.97937 0.28251 0.0
C9 C 0.12468 0.02113 0.30101 0.0
C10 C 0.09436 0.01807 0.30133 0.0
C11 C 0.09823 0.97625 0.28282 0.0
C12 C 0.0812 -0.00429 0.29201 0.0
C13 C 0.07655 0.03896 0.31085 0.0
C14 C 0.98556 0.12768 0.29182 0.0
C15 C 0.96657 0.10963 0.28264 0.0
C16 C 0.00909 0.11611 0.30068 0.0
C17 C 0.01376 0.08623 0.30075 0.0
C18 C 0.97184 0.07983 0.28236 0.0
C19 C -0.00477 0.0683 0.29125 0.0
C20 C 0.03795 0.07329 0.31042 0.0
C21 C 0.98302 0.11009 0.35333 0.0
C22 C -0.00194 0.12903 0.36423 0.0
C23 C -0.00239 0.09616 0.34016 0.0
C24 C 0.02734 0.10125 0.33762 0.0
C25 C 0.02718 0.13574 0.36079 0.0
C26 C 0.0417 0.12187 0.34767 0.0
C27 C 0.04484 0.08139 0.32719 0.0
H28 H 0.10675 0.96623 0.35813 0.0
H29 H 0.0826 -0.01054 0.33445 0.0
H30 H 0.15297 0.0453 0.36928 0.0
H31 H 0.12755 0.06867 0.3461 0.0
H32 H 0.16498 0.00475 0.2918 0.0
H33 H 0.13528 0.03856 0.30783 0.0
H34 H 0.08769 0.95903 0.27579 0.0
H35 H 0.0578 -0.00685 0.29199 0.0
H36 H 0.98233 0.15076 0.29206 0.0
H37 H 0.02363 0.13054 0.30744 0.0
H38 H 0.95741 0.06527 0.27561 0.0
H39 H -0.00155 0.04521 0.29103 0.0
H40 H 0.96065 0.1043 0.35578 0.0
H41 H 0.98622 0.07986 0.33284 0.0
H42 H 0.0392 0.15051 0.36886 0.0
H43 H 0.06467 0.126 0.34598 0.0
N44 N 0.06701 0.06775 0.33508 0.0
N45 N 0.05417 0.05237 0.30287 0.0
C46 C 0.92593 0.47836 0.59172 0.0
C47 C 0.94266 0.46681 0.60492 0.0
C48 C 0.93853 0.49693 0.58004 0.0
C49 C 0.96814 0.50413 0.58129 0.0
C50 C 0.97239 0.47372 0.6059 0.0
C51 C 0.98492 0.49217 0.59426 0.0
C52 C 0.98138 0.52611 0.57031 0.0
C53 C 0.96325 0.45194 0.53587 0.0
C54 C 0.93757 0.45578 0.52652 0.0
C55 C 0.97621 0.47512 0.54427 0.0
C56 C 0.96391 0.50262 0.54336 0.0
C57 C 0.92524 0.48336 0.52555 0.0
C58 C 0.9386 0.50677 0.53374 0.0
C59 C 0.9777 0.52668 0.55263 0.0
C60 C 0.06902 0.60496 0.52907 0.0
C61 C 0.05675 0.63171 0.52492 0.0
C62 C 0.05253 0.58407 0.53717 0.0
C63 C 0.02339 0.58937 0.5411 0.0
C64 C 0.02715 0.63646 0.52841 0.0
C65 C 0.01058 0.61538 0.53637 0.0
C66 C 0.00733 0.56866 0.55141 0.0
C67 C 0.03712 0.63509 0.59139 0.0
C68 C 0.06028 0.62433 0.6011 0.0
C69 C 0.0222 0.6171 0.58004 0.0
C70 C 0.03014 0.5881 0.57835 0.0
C71 C 0.0691 0.59568 0.59864 0.0
C72 C 0.05397 0.57766 0.58748 0.0
C73 C 0.01149 0.56766 0.56897 0.0
H74 H 0.903 0.47341 0.59055 0.0
H75 H 0.92487 0.50643 0.57045 0.0
H76 H 0.98586 0.46575 0.61606 0.0
H77 H 0.00773 0.49758 0.5956 0.0
H78 H 0.97303 0.43085 0.53694 0.0
H79 H -0.00414 0.47158 0.55155 0.0
H80 H 0.90547 0.48678 0.51838 0.0
H81 H 0.92889 0.52792 0.5329 0.0
H82 H 0.09154 0.60029 0.52631 0.0
H83 H 0.0627 0.56403 0.54077 0.0
H84 H 0.01702 0.65689 0.52564 0.0
H85 H -0.01187 0.61983 0.53946 0.0
H86 H 0.0299 0.6571 0.59305 0.0
H87 H 0.00354 0.6254 0.57329 0.0
H88 H 0.08658 0.58667 0.60611 0.0
H89 H 0.06019 0.55524 0.58644 0.0
N90 N -0.00163 0.54651 0.57775 0.0
N91 N -0.0092 0.54797 0.54375 0.0
C92 C 0.56377 0.43534 0.84327 0.0
C93 C 0.57694 0.45044 0.85676 0.0
C94 C 0.54576 0.44966 0.8318 0.0
C95 C 0.54075 0.47935 0.83361 0.0
C96 C 0.57286 0.48036 0.85799 0.0
C97 C 0.55495 0.49459 0.84659 0.0
C98 C 0.5177 0.49398 0.82385 0.0
C99 C 0.58587 0.47511 0.78586 0.0
C100 C 0.57854 0.45284 0.77452 0.0
C101 C 0.56482 0.4873 0.79624 0.0
C102 C 0.53599 0.47756 0.79544 0.0
C103 C 0.54965 0.44307 0.77368 0.0
C104 C 0.5284 0.45566 0.78393 0.0
C105 C 0.51389 0.49115 0.80628 0.0
C106 C 0.41712 0.5765 0.79305 0.0
C107 C 0.40031 0.56049 0.78142 0.0
C108 C 0.44075 0.56394 0.80128 0.0
C109 C 0.44755 0.53484 0.79847 0.0
C110 C 0.40831 0.53184 0.7779 0.0
C111 C 0.43164 0.51917 0.78636 0.0
C112 C 0.47146 0.52065 0.80777 0.0
C113 C 0.41085 0.55003 0.85039 0.0
C114 C 0.42471 0.56799 0.86233 0.0
C115 C 0.42705 0.53651 0.83767 0.0
C116 C 0.45716 0.54124 0.83664 0.0
C117 C 0.45452 0.57362 0.86074 0.0
C118 C 0.47055 0.56033 0.84807 0.0
C119 C 0.47583 0.52401 0.82533 0.0
H120 H 0.56662 0.41232 0.84188 0.0
H121 H 0.5346 0.43726 0.82212 0.0
H122 H 0.58217 0.49269 0.86835 0.0
H123 H 0.55124 0.51744 0.84833 0.0
H124 H 0.60803 0.48285 0.78688 0.0
H125 H 0.57104 0.50453 0.80483 0.0
H126 H 0.54349 0.42597 0.76499 0.0
H127 H 0.50618 0.44806 0.78305 0.0
H128 H 0.41169 0.59855 0.79617 0.0
H129 H 0.45346 0.57698 0.80998 0.0
H130 H 0.39646 0.51904 0.76868 0.0
H131 H 0.43688 0.49688 0.78367 0.0
H132 H 0.38791 0.54523 0.85145 0.0
H133 H 0.41634 0.52144 0.82918 0.0
H134 H 0.46565 0.58766 0.86966 0.0
H135 H 0.49374 0.56428 0.84752 0.0
N136 N 0.49867 0.51046 0.83259 0.0
N137 N 0.49074 0.50431 0.7989 0.0
C138 C 0.45724 0.90992 0.04738 0.0
C139 C 0.43684 0.92234 0.0365 0.0
C140 C 0.47917 0.92661 0.05469 0.0
C141 C 0.4805 0.95637 0.05179 0.0
C142 C 0.43862 0.9518 0.033 0.0
C143 C 0.46023 0.96876 0.04069 0.0
C144 C 0.50399 0.97412 0.05949 0.0
C145 C 0.45835 0.94138 0.1065 0.0
C146 C 0.4755 0.92296 0.11641 0.0
C147 C 0.47039 0.95559 0.09272 0.0
C148 C 0.49975 0.95159 0.08864 0.0
C149 C 0.50445 0.91789 0.11164 0.0
C150 C 0.51651 0.93231 0.09804 0.0
C151 C 0.51419 0.96999 0.07614 0.0
C152 C 0.59053 0.06652 0.09326 0.0
C153 C 0.6113 0.05156 0.10284 0.0
C154 C 0.57234 0.05168 0.08195 0.0
C155 C 0.57479 0.02173 0.08002 0.0
C156 C 0.61521 0.02198 0.09978 0.0
C157 C 0.59696 0.00718 0.0886 0.0
C158 C 0.55132 0.00484 0.0719 0.0
C159 C 0.59738 0.05158 0.03156 0.0
C160 C 0.58084 0.07451 0.02519 0.0
C161 C 0.58426 0.03003 0.04102 0.0
C162 C 0.55433 0.03087 0.0442 0.0
C163 C 0.5506 0.07452 0.02782 0.0
C164 C 0.53746 0.05275 0.03712 0.0
C165 C 0.54077 0.0097 0.05547 0.0
H166 H 0.45672 0.88703 0.04984 0.0
H167 H 0.49539 0.91598 0.06232 0.0
H168 H 0.42328 0.96165 0.02442 0.0
H169 H 0.46111 -0.00847 0.03797 0.0
H170 H 0.43608 0.946 0.10989 0.0
H171 H 0.4572 0.97077 0.0858 0.0
H172 H 0.51811 0.90333 0.11872 0.0
H173 H 0.53921 0.92892 0.09509 0.0
H174 H 0.58681 0.08926 0.09542 0.0
H175 H 0.555 0.06327 0.07572 0.0
H176 H 0.63138 0.00995 0.10675 0.0
H177 H 0.59915 0.98405 0.08731 0.0
H178 H 0.62057 0.05044 0.02946 0.0
H179 H 0.59758 0.01293 0.04608 0.0
H180 H 0.53716 0.09195 0.02331 0.0
H181 H 0.5143 0.05371 0.03941 0.0
N182 N 0.51751 -0.00586 0.04983 0.0
N183 N 0.53757 0.98528 0.08156 0.0
C184 C 0.05852 0.5801 0.89762 0.0
C185 C 0.07508 0.56414 0.88599 0.0
C186 C 0.04442 0.56623 0.91087 0.0
C187 C 0.04668 0.53628 0.91258 0.0
C188 C 0.07957 0.53467 0.88886 0.0
C189 C 0.06523 0.52083 0.9019 0.0
C190 C 0.02537 0.52033 0.92268 0.0
C191 C 0.09082 0.55013 0.96029 0.0
C192 C 0.08123 0.57255 0.97086 0.0
C193 C 0.07119 0.53495 0.95017 0.0
C194 C 0.04154 0.54178 0.95045 0.0
C195 C 0.05153 0.57949 0.97113 0.0
C196 C 0.03172 0.5639 0.96114 0.0
C197 C 0.02099 0.5248 0.94005 0.0
C198 C 0.93599 0.43028 0.95568 0.0
C199 C 0.91459 0.44509 0.96487 0.0
C200 C 0.95806 0.44533 0.9476 0.0
C201 C 0.9592 0.47547 0.94857 0.0
C202 C 0.91647 0.47526 0.9663 0.0
C203 C 0.93873 0.49027 0.95832 0.0
C204 C 0.98144 0.49154 0.9392 0.0
C205 C 0.92142 0.45991 0.89672 0.0
C206 C 0.93545 0.44322 0.88436 0.0
C207 C 0.93748 0.47267 0.90985 0.0
C208 C 0.96769 0.46859 0.91085 0.0
C209 C 0.96527 0.43757 0.88612 0.0
C210 C 0.98123 0.45023 0.8992 0.0
C211 C 0.9861 0.487 0.92183 0.0
H212 H 0.05458 0.6028 0.89574 0.0
H213 H 0.02987 0.57848 0.91885 0.0
H214 H 0.09277 0.5219 0.88037 0.0
H215 H 0.06723 0.49771 0.90303 0.0
H216 H 0.11364 0.54456 0.95971 0.0
H217 H 0.07915 0.5176 0.94225 0.0
H218 H 0.04366 0.59668 0.9792 0.0
H219 H 0.00885 0.56926 0.96161 0.0
H220 H 0.93562 0.40704 0.95462 0.0
H221 H 0.97413 0.43342 0.94047 0.0
H222 H 0.90021 0.48742 0.97311 0.0
H223 H 0.93936 0.51354 0.95928 0.0
H224 H 0.89848 0.46473 0.89557 0.0
H225 H 0.92665 0.48724 0.91849 0.0
H226 H 0.97653 0.42445 0.8769 0.0
H227 H 0.0045 0.44682 0.89972 0.0
N228 N 0.00784 0.5016 0.9143 0.0
N229 N -0.00094 0.51033 0.94773 0.0
C230 C 0.42952 0.55983 0.14823 0.0
C231 C 0.44544 0.57277 0.13525 0.0
C232 C 0.44322 0.54139 0.15964 0.0
C233 C 0.47312 0.53577 0.15833 0.0
C234 C 0.47536 0.56707 0.13407 0.0
C235 C 0.48898 0.54875 0.14544 0.0
C236 C 0.48792 0.51492 0.16945 0.0
C237 C 0.45959 0.58846 0.20118 0.0
C238 C 0.4403 0.58159 0.21414 0.0
C239 C 0.47483 0.56684 0.19279 0.0
C240 C 0.47025 0.53779 0.19674 0.0
C241 C 0.43682 0.55274 0.21879 0.0
C242 C 0.45164 0.53095 0.21009 0.0
C243 C 0.48539 0.51475 0.18723 0.0
C244 C 0.57862 0.43396 0.20803 0.0
C245 C 0.56505 0.40896 0.21406 0.0
C246 C 0.56236 0.45537 0.20018 0.0
C247 C 0.53219 0.45248 0.19845 0.0
C248 C 0.53457 0.4067 0.2128 0.0
C249 C 0.51827 0.4284 0.20514 0.0
C250 C 0.51584 0.47332 0.18827 0.0
C251 C 0.54235 0.40567 0.14882 0.0
C252 C 0.56468 0.41589 0.13845 0.0
C253 C 0.52852 0.42425 0.16016 0.0
C254 C 0.53664 0.45333 0.16112 0.0
C255 C 0.57373 0.44466 0.14012 0.0
C256 C 0.55959 0.46329 0.15124 0.0
C257 C 0.51899 0.47415 0.17068 0.0
H258 H 0.40646 0.5638 0.1495 0.0
H259 H 0.43036 0.53113 0.16926 0.0
H260 H 0.48821 0.57609 0.12403 0.0
H261 H 0.51198 0.54451 0.14406 0.0
H262 H 0.46313 0.61066 0.19768 0.0
H263 H 0.49014 0.57291 0.18315 0.0
H264 H 0.42223 0.54707 0.22889 0.0
H265 H 0.4482 0.50874 0.21359 0.0
H266 H 0.6019 0.43682 0.2091 0.0
H267 H 0.57341 0.47393 0.19509 0.0
H268 H 0.52336 0.38766 0.21708 0.0
H269 H 0.49499 0.42576 0.20375 0.0
H270 H 0.53501 0.38357 0.14774 0.0
H271 H 0.51054 0.4163 0.16753 0.0
H272 H 0.59061 0.45318 0.13213 0.0
H273 H 0.56592 0.48575 0.15173 0.0
N274 N 0.5049 0.4948 0.16194 0.0
N275 N 0.49928 0.49369 0.19601 0.0
C276 C 0.44666 0.94171 0.40619 0.0
C277 C 0.43394 0.95516 0.39215 0.0
C278 C 0.46677 0.95643 0.41638 0.0
C279 C 0.47392 0.98525 0.41311 0.0
C280 C 0.44064 0.98423 0.3892 0.0
C281 C 0.46024 -0.00094 0.39958 0.0
C282 C 0.49815 7e-05 0.4221 0.0
C283 C 0.43404 0.98319 0.46267 0.0
C284 C 0.44137 0.95898 0.47221 0.0
C285 C 0.45442 -0.00426 0.45211 0.0
C286 C 0.48261 0.98451 0.45108 0.0
C287 C 0.46963 0.94776 0.47127 0.0
C288 C 0.49032 0.96078 0.46095 0.0
C289 C 0.5037 -0.00238 0.43956 0.0
C290 C 0.6039 0.08048 0.44985 0.0
C291 C 0.62231 0.06389 0.46008 0.0
C292 C 0.57902 0.06837 0.44254 0.0
C293 C 0.57233 0.03923 0.44496 0.0
C294 C 0.61482 0.03501 0.46307 0.0
C295 C 0.59006 0.02284 0.4556 0.0
C296 C 0.54669 0.02583 0.43669 0.0
C297 C 0.60178 0.0457 0.38968 0.0
C298 C 0.59207 0.07146 0.38228 0.0
C299 C 0.58576 0.03258 0.4024 0.0
C300 C 0.55953 0.04467 0.40776 0.0
C301 C 0.56633 0.08409 0.38838 0.0
C302 C 0.54997 0.07052 0.40075 0.0
C303 C 0.54057 0.029 0.41938 0.0
H304 H 0.44185 0.9195 0.40904 0.0
H305 H 0.47766 0.9447 0.42627 0.0
H306 H 0.43193 -0.00467 0.37836 0.0
H307 H 0.46553 0.02116 0.39662 0.0
H308 H 0.41231 -0.00792 0.46315 0.0
H309 H 0.44818 0.01419 0.44469 0.0
H310 H 0.47567 0.92911 0.47857 0.0
H311 H 0.51204 0.95193 0.46032 0.0
H312 H 0.60894 0.10272 0.44719 0.0
H313 H 0.56505 0.08187 0.43499 0.0
H314 H 0.62809 0.02176 0.4712 0.0
H315 H 0.58503 0.00045 0.45791 0.0
H316 H 0.62111 0.03489 0.38522 0.0
H317 H 0.59321 0.01237 0.40755 0.0
H318 H 0.55842 0.10424 0.38344 0.0
H319 H 0.52968 0.08009 0.40478 0.0
N320 N 0.51673 0.01591 0.41275 0.0
N321 N 0.52794 0.01027 0.44619 0.0
C322 C 0.08066 0.96035 0.66146 0.0
C323 C 0.0681 0.94322 0.64867 0.0
C324 C 0.06309 0.97512 0.67293 0.0
C325 C 0.03272 0.97323 0.67164 0.0
C326 C 0.03777 0.93998 0.64805 0.0
C327 C 0.0202 0.95517 0.65933 0.0
C328 C 0.01422 -0.00668 0.68127 0.0
C329 C 0.03963 0.92699 0.71873 0.0
C330 C 0.06274 0.93611 0.72912 0.0
C331 C 0.02453 0.94668 0.7089 0.0
C332 C 0.03201 0.97591 0.70944 0.0
C333 C 0.07034 0.96538 0.72964 0.0
C334 C 0.05474 0.98527 0.72003 0.0
C335 C 0.01581 -0.00359 0.69894 0.0
C336 C 0.91968 0.08194 0.71158 0.0
C337 C 0.93376 0.10266 0.72177 0.0
C338 C 0.93542 0.05956 0.70417 0.0
C339 C 0.96551 0.05746 0.70682 0.0
C340 C 0.96372 0.09963 0.72502 0.0
C341 C 0.97939 0.07708 0.7177 0.0
C342 C 0.9827 0.03563 0.69768 0.0
C343 C 0.95977 0.10116 0.65797 0.0
C344 C 0.94098 0.0906 0.64532 0.0
C345 C 0.97195 0.08249 0.66974 0.0
C346 C 0.96562 0.05294 0.66901 0.0
C347 C 0.93394 0.06117 0.64496 0.0
C348 C 0.94641 0.04245 0.65661 0.0
C349 C 0.98126 0.03259 0.67998 0.0
H350 H 0.104 0.96323 0.66213 0.0
H351 H 0.0732 -0.01062 0.68213 0.0
H352 H 0.02758 0.92716 0.63818 0.0
H353 H -0.0032 0.95369 0.65803 0.0
H354 H 0.03358 0.90447 0.718 0.0
H355 H 0.00691 0.93911 0.70088 0.0
H356 H 0.08813 0.97282 0.73757 0.0
H357 H 0.06072 0.00781 0.72059 0.0
H358 H 0.89656 0.08323 0.70911 0.0
H359 H 0.92418 0.04419 0.6961 0.0
H360 H 0.97536 0.11533 0.73264 0.0
H361 H 0.00259 0.07573 0.71993 0.0
H362 H 0.96553 0.12375 0.65851 0.0
H363 H -0.01281 0.09096 0.67899 0.0
H364 H 0.91984 0.0524 0.63521 0.0
H365 H 0.94151 0.01968 0.65574 0.0
N366 N -0.00301 0.01149 0.67245 0.0
N367 N 3e-05 0.01749 0.70657 0.0
C368 C 0.37551 0.66464 0.03003 0.0
O369 O 0.3959 0.66931 0.01969 0.0
Cd370 Cd 0.38959 0.67888 0.99033 0.0
O371 O 0.349 0.66611 0.02533 0.0
Cd372 Cd 0.32276 0.67876 -0.00123 0.0
C373 C 0.35624 0.74351 -0.00526 0.0
O374 O 0.35183 0.64673 0.98156 0.0
O375 O 0.32218 0.67318 0.96755 0.0
O376 O 0.2844 0.64738 0.00889 0.0
C377 C 0.34029 0.65268 0.96752 0.0
O378 O 0.37774 0.72977 0.98872 0.0
C379 C 0.26361 0.66387 0.0048 0.0
O380 O 0.33441 0.73018 0.00062 0.0
O381 O 0.2704 0.68789 -0.00156 0.0
C382 C 0.40544 0.85253 0.22835 0.0
O383 O 0.42403 0.84859 0.23998 0.0
Cd384 Cd 0.41139 0.83374 0.26762 0.0
O385 O 0.37844 0.84908 0.23123 0.0
Cd386 Cd 0.3483 0.83593 0.25614 0.0
C387 C 0.37803 0.77015 0.2576 0.0
O388 O 0.37373 0.86577 0.27673 0.0
O389 O 0.34652 0.83294 0.28735 0.0
O390 O 0.3146 0.87168 0.2456 0.0
C391 C 0.36114 0.85582 0.28953 0.0
O392 O 0.39908 0.78264 0.26516 0.0
C393 C 0.29166 0.85772 0.24885 0.0
O394 O 0.35696 0.7847 0.25172 0.0
O395 O 0.29495 0.83262 0.25476 0.0
C396 C 0.17501 0.92477 0.48061 0.0
O397 O 0.17773 0.94315 0.49248 0.0
Cd398 Cd 0.18824 0.93341 0.52133 0.0
O399 O 0.17708 0.8979 0.48357 0.0
Cd400 Cd 0.18577 0.86753 0.50906 0.0
C401 C 0.25243 0.89769 0.51479 0.0
O402 O 0.15622 0.89559 0.52845 0.0
O403 O 0.18198 0.86255 0.54004 0.0
O404 O 0.1499 0.83365 0.49772 0.0
C405 C 0.16289 0.88197 0.54162 0.0
O406 O 0.23895 0.91911 0.52106 0.0
C407 C 0.1648 0.81127 0.5007 0.0
O408 O 0.23853 0.87636 0.50849 0.0
O409 O 0.19024 0.81519 0.5066 0.0
C410 C 0.12653 0.6407 0.77211 0.0
O411 O 0.12284 0.62377 0.75962 0.0
Cd412 Cd 0.14094 0.63258 0.73219 0.0
O413 O 0.13865 0.66514 0.77015 0.0
Cd414 Cd 0.15777 0.69392 0.74603 0.0
C415 C 0.21237 0.64647 0.74329 0.0
O416 O 0.12312 0.67875 0.72446 0.0
O417 O 0.1622 0.69833 0.71514 0.0
O418 O 0.13054 0.73348 0.75806 0.0
C419 C 0.13684 0.68889 0.71209 0.0
O420 O 0.19355 0.63009 0.73628 0.0
C421 C 0.14998 0.7525 0.75607 0.0
O422 O 0.20529 0.67128 0.74884 0.0
O423 O 0.17408 0.74406 0.75006 0.0
C424 C 0.90345 0.15819 0.47604 0.0
O425 O 0.90766 0.1379 0.48635 0.0
Cd426 Cd 0.88355 0.13537 0.51276 0.0
O427 O 0.8878 0.17975 0.4801 0.0
Cd428 Cd 0.86215 0.19909 0.50545 0.0
C429 C 0.81239 0.14704 0.49976 0.0
O430 O 0.89445 0.17966 0.52681 0.0
O431 O 0.85311 0.19468 0.53591 0.0
O432 O 0.88874 0.24217 0.4988 0.0
C433 C 0.87817 0.18494 0.53925 0.0
O434 O 0.83206 0.13036 0.50539 0.0
C435 C 0.86804 0.25971 0.50109 0.0
O436 O 0.81745 0.17374 0.49774 0.0
O437 O 0.84362 0.24907 0.50514 0.0
C438 C 0.8771 0.37975 0.7123 0.0
O439 O 0.89755 0.37705 0.72298 0.0
Cd440 Cd 0.89241 0.36612 0.75218 0.0
O441 O 0.8507 0.37588 0.71656 0.0
Cd442 Cd 0.82506 0.36128 0.74286 0.0
C443 C 0.86304 0.29919 0.74697 0.0
O444 O 0.85187 0.39309 0.76182 0.0
O445 O 0.82437 0.36232 0.77402 0.0
O446 O 0.78496 0.39218 0.73454 0.0
C447 C 0.84125 0.38378 0.77538 0.0
O448 O 0.88357 0.31466 0.75295 0.0
C449 C 0.76512 0.37386 0.7373 0.0
O450 O 0.84011 0.31065 0.74098 0.0
O451 O 0.77326 0.34904 0.7419 0.0
C452 C 0.64233 0.37681 0.96766 0.0
O453 O 0.643 0.3966 0.97879 0.0
Cd454 Cd 0.65496 0.39004 0.00783 0.0
O455 O 0.64815 0.35089 0.97153 0.0
Cd456 Cd 0.66371 0.32607 -0.00217 0.0
C457 C 0.72407 0.36713 0.00103 0.0
O458 O 0.63026 0.3483 0.0178 0.0
O459 O 0.66716 0.32684 0.02876 0.0
O460 O 0.63424 0.2848 0.98919 0.0
C461 C 0.64272 0.33879 0.03088 0.0
O462 O 0.70768 0.38589 0.00786 0.0
C463 C 0.65353 0.26609 0.99233 0.0
O464 O 0.71349 0.34392 -0.00509 0.0
O465 O 0.67817 0.2754 -0.00278 0.0
C466 C 0.68488 0.12611 0.27393 0.0
O467 O 0.6933 0.1045 0.26535 0.0
Cd468 Cd 0.70731 0.10565 0.23635 0.0
O469 O 0.68446 0.15119 0.26756 0.0
Cd470 Cd 0.69873 0.17362 0.24042 0.0
C471 C 0.76765 0.14743 0.24178 0.0
O472 O 0.67425 0.13768 0.22302 0.0
O473 O 0.69995 0.1683 0.20941 0.0
O474 O 0.66013 0.20831 0.24618 0.0
C475 C 0.68233 0.14735 0.20896 0.0
O476 O 0.75677 0.1236 0.23683 0.0
C477 C 0.67468 0.23028 0.24197 0.0
O478 O 0.75141 0.16875 0.24546 0.0
O479 O 0.70085 0.22603 0.23761 0.0
H480 H 0.12677 0.92041 0.28241 0.0
H481 H 0.2782 0.9091 0.23449 0.0
H482 H 0.17253 -0.00785 0.26096 0.0
H483 H 0.23985 0.83866 0.26155 0.0
H484 H 0.2337 0.93665 0.23839 0.0
H485 H 0.16215 0.88757 0.26953 0.0
C486 C 0.14396 0.92917 0.27473 0.0
C487 C 0.14707 0.95901 0.27293 0.0
C488 C 0.23481 0.91501 0.24327 0.0
C489 C 0.18751 0.92177 0.25827 0.0
C490 C 0.2602 0.89921 0.241 0.0
C491 C 0.26291 0.87173 0.24797 0.0
C492 C 0.21201 0.90338 0.25272 0.0
C493 C 0.23877 0.85989 0.25611 0.0
C494 C 0.16418 0.91047 0.26745 0.0
C495 C 0.16972 0.9693 0.26291 0.0
N496 N 0.21446 0.87598 0.25852 0.0
N497 N 0.1892 0.95074 0.25609 0.0
H498 H 0.11334 0.64479 0.53303 0.0
H499 H 0.11155 0.79619 0.48776 0.0
H500 H 0.04228 0.67262 0.50138 0.0
H501 H 0.18789 0.76033 0.51133 0.0
H502 H 0.087 0.74985 0.49063 0.0
H503 H 0.14202 0.68539 0.52347 0.0
C504 C 0.10385 0.65912 0.52385 0.0
C505 C 0.07517 0.65519 0.51808 0.0
C506 C 0.10927 0.75198 0.49494 0.0
C507 C 0.10791 0.70241 0.50736 0.0
C508 C 0.12333 0.77843 0.49327 0.0
C509 C 0.15172 0.78223 0.49947 0.0
C510 C 0.12358 0.72927 0.50305 0.0
C511 C 0.16595 0.75843 0.50645 0.0
C512 C 0.12027 0.68248 0.51846 0.0
C513 C 0.06404 0.675 0.50644 0.0
N514 N 0.15159 0.7331 0.50827 0.0
N515 N 0.08032 0.69788 0.50159 0.0
H516 H 0.34883 0.53354 0.77352 0.0
H517 H 0.26054 0.67583 0.75492 0.0
H518 H 0.391 0.61656 0.77155 0.0
H519 H 0.23175 0.5915 0.73862 0.0
H520 H 0.3079 0.65528 0.76231 0.0
H521 H 0.30498 0.5549 0.76192 0.0
C522 C 0.34912 0.55617 0.77044 0.0
C523 C 0.37387 0.57318 0.77355 0.0
C524 C 0.29126 0.64141 0.75694 0.0
C525 C 0.32312 0.598 0.76066 0.0
C526 C 0.26423 0.65309 0.75275 0.0
C527 C 0.24205 0.63534 0.74624 0.0
C528 C 0.29592 0.61175 0.75484 0.0
C529 C 0.24811 0.60603 0.74365 0.0
C530 C 0.32392 0.5684 0.7639 0.0
C531 C 0.37239 0.60263 0.76968 0.0
N532 N 0.27433 0.59512 0.74813 0.0
N533 N 0.34736 0.61415 0.76357 0.0
H534 H 0.39471 0.89076 0.05142 0.0
H535 H 0.39066 0.78052 0.97726 0.0
H536 H 0.4308 0.91067 0.00297 0.0
H537 H 0.32794 0.77809 0.0174 0.0
H538 H 0.40207 0.83029 0.98494 0.0
H539 H 0.36623 0.85196 0.03832 0.0
C540 C 0.39599 0.88732 0.03793 0.0
C541 C 0.41505 0.90366 0.02821 0.0
C542 C 0.38534 0.81911 0.99184 0.0
C543 C 0.38338 0.859 0.01322 0.0
C544 C 0.37888 0.79066 0.98749 0.0
C545 C 0.35868 0.77502 -0.00311 0.0
C546 C 0.37199 0.83175 0.00593 0.0
C547 C 0.34384 0.78929 0.0099 0.0
C548 C 0.37978 0.86524 0.03044 0.0
C549 C 0.41621 0.89845 0.01082 0.0
N550 N 0.35127 0.81668 0.01429 0.0
N551 N 0.40105 0.87611 0.0039 0.0
H552 H 0.08829 0.63094 0.97334 0.0
H553 H 0.24296 0.61384 0.01797 0.0
H554 H 0.1232 0.5509 0.99145 0.0
H555 H 0.21486 0.69137 0.99327 0.0
H556 H 0.19417 0.59405 0.0145 0.0
H557 H 0.12932 0.65654 0.98654 0.0
C558 C 0.10427 0.61888 0.98041 0.0
C559 C 0.10271 0.58879 0.98112 0.0
C560 C 0.19853 0.61556 0.01004 0.0
C561 C 0.14958 0.6177 -0.00391 0.0
C562 C 0.2264 0.6269 0.01206 0.0
C563 C 0.23312 0.65408 0.00562 0.0
C564 C 0.17727 0.63141 0.00142 0.0
C565 C 0.2107 0.67017 -0.00176 0.0
C566 C 0.12772 0.63343 0.98786 0.0
C567 C 0.12396 0.57409 0.99037 0.0
N568 N 0.18385 0.65841 -0.0039 0.0
N569 N 0.14667 0.58865 -0.00266 0.0
H570 H 0.44077 0.59561 0.24765 0.0
H571 H 0.34764 0.73877 0.23401 0.0
H572 H 0.40407 0.62062 0.19991 0.0
H573 H 0.41289 0.73044 0.27296 0.0
H574 H 0.35687 0.68899 0.22531 0.0
H575 H 0.41944 0.63883 0.26074 0.0
C576 C 0.42772 0.60994 0.24005 0.0
C577 C 0.42426 0.60489 0.22272 0.0
C578 C 0.36883 0.69799 0.23592 0.0
C579 C 0.39988 0.65385 0.23746 0.0
C580 C 0.3635 0.72633 0.24095 0.0
C581 C 0.37984 0.73891 0.25407 0.0
C582 C 0.39039 0.68205 0.24419 0.0
C583 C 0.4001 0.72172 0.26262 0.0
C584 C 0.41571 0.63456 0.24746 0.0
C585 C 0.40736 0.62404 0.21331 0.0
N586 N 0.40497 0.6942 0.25745 0.0
N587 N 0.39587 0.64777 0.22079 0.0
H588 H 0.41039 0.98409 0.49732 0.0
H589 H 0.28877 0.86388 0.49556 0.0
H590 H 0.42122 0.90365 0.47067 0.0
H591 H 0.28891 0.93664 0.52981 0.0
H592 H 0.33946 0.87443 0.48866 0.0
H593 H 0.36826 0.96416 0.51166 0.0
C594 C 0.40404 0.96202 0.49472 0.0
C595 C 0.41901 0.94548 0.48279 0.0
C596 C 0.32852 0.88774 0.49792 0.0
C597 C 0.37051 0.92262 0.49881 0.0
C598 C 0.29959 0.88168 0.50189 0.0
C599 C 0.28436 0.89976 0.51302 0.0
C600 C 0.34214 0.91209 0.50506 0.0
C601 C 0.29956 0.92244 0.5209 0.0
C602 C 0.38003 0.9506 0.50289 0.0
C603 C 0.41013 0.91699 0.47984 0.0
N604 N 0.32741 0.92819 0.51658 0.0
N605 N 0.38607 0.90657 0.48759 0.0
H606 H 0.04107 0.8973 0.75112 0.0
H607 H 0.18132 0.79941 0.74581 0.0
H608 H 0.1212 0.92569 0.72893 0.0
H609 H 0.10253 0.77567 0.77138 0.0
H610 H 0.1636 0.84896 0.74416 0.0
H611 H 0.06653 0.85629 0.7632 0.0
C612 C 0.0642 0.89504 0.74905 0.0
C613 C 0.07906 0.91456 0.73889 0.0
C614 C 0.15046 0.83303 0.75044 0.0
C615 C 0.10833 0.86743 0.75234 0.0
C616 C 0.16062 0.80476 0.75144 0.0
C617 C 0.14309 0.78329 0.75844 0.0
C618 C 0.12257 0.83972 0.75643 0.0
C619 C 0.11653 0.79143 0.7656 0.0
C620 C 0.07877 0.87167 0.75593 0.0
C621 C 0.10903 0.91096 0.73667 0.0
N622 N 0.1069 0.81886 0.76417 0.0
N623 N 0.12263 0.88747 0.74307 0.0
H624 H 0.61852 0.48024 0.75523 0.0
H625 H 0.71793 0.34144 0.74625 0.0
H626 H 0.5909 0.39563 0.77015 0.0
H627 H 0.74184 0.4256 0.72847 0.0
H628 H 0.66852 0.35886 0.75104 0.0
H629 H 0.66074 0.45898 0.74148 0.0
C630 C 0.62125 0.4571 0.75543 0.0
C631 C 0.60149 0.43967 0.76401 0.0
C632 C 0.68445 0.37338 0.74583 0.0
C633 C 0.64991 0.41512 0.74846 0.0
C634 C 0.71266 0.36342 0.74305 0.0
C635 C 0.73416 0.38224 0.7372 0.0
C636 C 0.6778 0.40238 0.74283 0.0
C637 C 0.72606 0.41044 0.7332 0.0
C638 C 0.64531 0.44494 0.74755 0.0
C639 C 0.60572 0.40979 0.76369 0.0
N640 N 0.69866 0.41975 0.7363 0.0
N641 N 0.62976 0.39847 0.75628 0.0
H642 H 0.63362 0.09904 0.03292 0.0
H643 H 0.60426 0.23973 0.98036 0.0
H644 H 0.56088 0.107 -0.00137 0.0
H645 H 0.68626 0.22195 0.00474 0.0
H646 H 0.58931 0.19002 0.98513 0.0
H647 H 0.65467 0.14239 0.02118 0.0
C648 C 0.62225 0.10953 0.02271 0.0
C649 C 0.59522 0.0993 0.01688 0.0
C650 C 0.61076 0.19685 0.9892 0.0
C651 C 0.61905 0.14967 0.00364 0.0
C652 C 0.61932 0.22523 0.98647 0.0
C653 C 0.64642 0.23508 0.99234 0.0
C654 C 0.62928 0.17831 -0.00192 0.0
C655 C 0.66511 0.21532 0.0001 0.0
C656 C 0.63428 0.13448 0.01607 0.0
C657 C 0.58141 0.11436 0.00382 0.0
N658 N 0.656 0.188 0.00298 0.0
N659 N 0.5933 0.13895 -0.00221 0.0
H660 H 0.94518 0.09475 0.25148 0.0
H661 H 0.79815 0.18427 0.26266 0.0
H662 H 0.92889 0.15128 0.29384 0.0
H663 H 0.8093 0.1137 0.22755 0.0
H664 H 0.84971 0.18058 0.27041 0.0
H665 H 0.89915 0.10963 0.23891 0.0
C666 C 0.93198 0.11043 0.25809 0.0
C667 C 0.94066 0.1214 0.27388 0.0
C668 C 0.84089 0.1662 0.26084 0.0
C669 C 0.88797 0.13867 0.2595 0.0
C670 C 0.81155 0.16839 0.25635 0.0
C671 C 0.79937 0.14899 0.24462 0.0
C672 C 0.8581 0.14464 0.25341 0.0
C673 C 0.8177 0.12882 0.23684 0.0
C674 C 0.90576 0.119 0.25088 0.0
C675 C 0.92305 0.14224 0.28166 0.0
N676 N 0.84604 0.12703 0.24147 0.0
N677 N 0.89734 0.14996 0.27448 0.0
H678 H 0.96292 0.41682 0.50553 0.0
H679 H 0.83334 0.3038 0.5126 0.0
H680 H 0.88118 0.43735 0.52892 0.0
H681 H 0.91504 0.28689 0.48808 0.0
H682 H 0.84688 0.35477 0.5151 0.0
H683 H 0.94239 0.37143 0.49536 0.0
C684 C 0.94048 0.41182 0.50833 0.0
C685 C 0.92378 0.43059 0.5182 0.0
C686 C 0.86162 0.33994 0.50895 0.0
C687 C 0.90014 0.37846 0.50686 0.0
C688 C 0.85386 0.31089 0.50748 0.0
C689 C 0.87329 0.29104 0.50035 0.0
C690 C 0.88895 0.34906 0.50324 0.0
C691 C 0.89957 0.30136 0.4939 0.0
C692 C 0.92872 0.38592 0.50254 0.0
C693 C 0.89473 0.42335 0.52134 0.0
N694 N 0.90673 0.32954 0.49566 0.0
N695 N 0.88391 0.39758 0.51591 0.0
H696 H 0.63173 0.11888 0.47223 0.0
H697 H 0.79725 0.09028 0.49749 0.0
H698 H 0.67525 0.03768 0.46413 0.0
H699 H 0.76225 0.17568 0.49124 0.0
H700 H 0.75054 0.07008 0.48886 0.0
H701 H 0.67747 0.13947 0.48253 0.0
C702 C 0.65085 0.10536 0.47256 0.0
C703 C 0.64954 0.07645 0.46721 0.0
C704 C 0.75306 0.09324 0.48939 0.0
C705 C 0.70184 0.09985 0.4793 0.0
C706 C 0.77971 0.10483 0.49438 0.0
C707 C 0.78375 0.13477 0.49504 0.0
C708 C 0.73009 0.11165 0.48516 0.0
C709 C 0.76017 0.15249 0.49083 0.0
C710 C 0.67692 0.11713 0.47852 0.0
C711 C 0.67498 0.0599 0.46832 0.0
N712 N 0.7343 0.14066 0.48608 0.0
N713 N 0.70003 0.07183 0.47423 0.0
H714 H 0.93963 0.13065 0.75232 0.0
H715 H 0.83436 0.26009 0.72673 0.0
H716 H 0.89166 0.13362 0.70541 0.0
H717 H 0.90148 0.26669 0.76482 0.0
H718 H 0.84666 0.20922 0.72269 0.0
H719 H 0.91746 0.17628 0.76073 0.0
C720 C 0.92433 0.14076 0.74382 0.0
C721 C 0.91783 0.12839 0.72802 0.0
C722 C 0.85843 0.22178 0.73206 0.0
C723 C 0.8921 0.1804 0.7377 0.0
C724 C 0.85134 0.25075 0.73443 0.0
C725 C 0.86721 0.26772 0.74596 0.0
C726 C 0.8813 0.20974 0.74141 0.0
C727 C 0.88898 0.25449 0.75561 0.0
C728 C 0.91159 0.16673 0.74867 0.0
C729 C 0.89724 0.14217 0.71774 0.0
N730 N 0.89551 0.22634 0.75304 0.0
N731 N 0.8853 0.16755 0.7227 0.0
H732 H 0.88499 0.3989 0.95143 0.0
H733 H 0.7558 0.40938 0.0168 0.0
H734 H 0.88692 0.45538 -0.00503 0.0
H735 H 0.7631 0.34083 0.97997 0.0
H736 H 0.80497 0.42486 0.01002 0.0
H737 H 0.8418 0.37567 0.96255 0.0
C738 C 0.87666 0.40617 0.96347 0.0
C739 C 0.88962 0.42933 0.97221 0.0
C740 C 0.79598 0.40621 0.00356 0.0
C741 C 0.83962 0.4031 0.98485 0.0
C742 C 0.76787 0.39736 0.00742 0.0
C743 C 0.75518 0.37396 -0.0012 0.0
C744 C 0.81142 0.39181 0.99083 0.0
C745 C 0.77197 0.35906 0.98688 0.0
C746 C 0.85185 0.39294 0.96977 0.0
C747 C 0.87738 0.43804 0.9876 0.0
N748 N 0.79908 0.36849 0.98307 0.0
N749 N 0.85293 0.4251 0.99334 0.0
H750 H 0.55222 0.37171 0.23986 0.0
H751 H 0.69733 0.27912 0.22826 0.0
H752 H 0.61837 0.39035 0.20315 0.0
H753 H 0.62082 0.2467 0.2529 0.0
H754 H 0.6722 0.32465 0.22351 0.0
H755 H 0.58042 0.32994 0.24885 0.0
C756 C 0.57264 0.36714 0.2337 0.0
C757 C 0.58278 0.38467 0.22065 0.0
C758 C 0.661 0.30764 0.23007 0.0
C759 C 0.61538 0.33715 0.23114 0.0
C760 C 0.67538 0.2817 0.23287 0.0
C761 C 0.66106 0.25899 0.24086 0.0
C762 C 0.63217 0.311 0.23541 0.0
C763 C 0.6326 0.26357 0.24656 0.0
C764 C 0.58879 0.34337 0.23891 0.0
C765 C 0.60976 0.37788 0.21342 0.0
N766 N 0.61902 0.28902 0.24366 0.0
N767 N 0.62503 0.35467 0.21873 0.0
H768 H 0.13656 0.03253 0.39605 0.0
H769 H 0.17035 0.89319 0.45104 0.0
H770 H 0.14742 0.94821 0.37359 0.0
H771 H 0.16798 0.98023 0.47053 0.0
H772 H 0.16196 0.9119 0.42259 0.0
H773 H 0.14885 0.0129 0.4233 0.0
C774 C 0.14206 0.00993 0.39673 0.0
C775 C 0.14117 -0.00787 0.38234 0.0
C776 C 0.16336 0.92682 0.43313 0.0
C777 C 0.15448 0.96912 0.41397 0.0
C778 C 0.16806 0.91617 0.44937 0.0
C779 C 0.16979 0.93513 0.46325 0.0
C780 C 0.1603 0.9566 0.4308 0.0
C781 C 0.16676 0.96471 0.46029 0.0
C782 C 0.14879 -0.00137 0.41243 0.0
C783 C 0.1476 0.96276 0.38432 0.0
N784 N 0.16213 0.97444 0.44446 0.0
N785 N 0.15388 0.95214 0.39986 0.0
H786 H 0.11773 0.63134 0.60973 0.0
H787 H 0.08058 0.68107 0.70238 0.0
H788 H 0.0312 0.65526 0.62495 0.0
H789 H 0.16715 0.68913 0.68244 0.0
H790 H 0.06223 0.67158 0.67392 0.0
H791 H 0.13689 0.65274 0.6359 0.0
C792 C 0.10285 0.64152 0.61846 0.0
C793 C 0.07284 0.64144 0.61523 0.0
C794 C 0.08519 0.67576 0.67572 0.0
C795 C 0.09447 0.66547 0.6452 0.0
C796 C 0.09569 0.68104 0.69197 0.0
C797 C 0.12544 0.68567 0.69475 0.0
C798 C 0.10466 0.67452 0.66218 0.0
C799 C 0.14405 0.6856 0.68081 0.0
C800 C 0.11378 0.65376 0.63335 0.0
C801 C 0.0545 0.65501 0.6269 0.0
N802 N 0.13341 0.67966 0.66512 0.0
N803 N 0.06555 0.66607 0.64149 0.0
H804 H 0.37229 0.59649 0.86403 0.0
H805 H 0.38088 0.61058 0.96458 0.0
H806 H 0.44195 0.56366 0.89488 0.0
H807 H 0.32191 0.66177 0.93488 0.0
H808 H 0.39881 0.58817 0.9389 0.0
H809 H 0.349 0.61584 0.88963 0.0
C810 C 0.38253 0.59325 0.87618 0.0
C811 C 0.4092 0.57882 0.87739 0.0
C812 C 0.38192 0.60428 0.93794 0.0
C813 C 0.38284 0.6005 0.90649 0.0
C814 C 0.37162 0.61708 0.95263 0.0
C815 C 0.35004 0.63828 0.95187 0.0
C816 C 0.3706 0.61261 0.92226 0.0
C817 C 0.33872 0.64564 0.936 0.0
C818 C 0.36936 0.60435 0.89073 0.0
C819 C 0.42163 0.5751 0.89338 0.0
N820 N 0.34923 0.63287 0.92177 0.0
N821 N 0.40838 0.58587 0.90726 0.0
H822 H 0.4206 0.90206 0.12319 0.0
H823 H 0.46098 0.86415 0.21867 0.0
H824 H 0.50453 0.91697 0.14631 0.0
H825 H 0.37292 0.86151 0.1996 0.0
H826 H 0.47749 0.87986 0.19124 0.0
H827 H 0.4028 0.88402 0.15018 0.0
C828 C 0.43529 0.90153 0.13389 0.0
C829 C 0.46421 0.91088 0.13238 0.0
C830 C 0.45454 0.87587 0.193 0.0
C831 C 0.44405 0.89009 0.16321 0.0
C832 C 0.44506 0.86682 0.2087 0.0
C833 C 0.41546 0.86157 0.21151 0.0
C834 C 0.43437 0.87969 0.17988 0.0
C835 C 0.39593 0.86539 0.19803 0.0
C836 C 0.42514 0.89115 0.14927 0.0
C837 C 0.48229 0.90944 0.14667 0.0
N838 N 0.40573 0.87425 0.18278 0.0
N839 N 0.47192 0.89928 0.16142 0.0
H840 H 0.09845 0.61795 0.8799 0.0
H841 H 0.09808 0.59128 0.78003 0.0
H842 H 0.07092 0.5396 0.85483 0.0
H843 H 0.13473 0.66798 0.80286 0.0
H844 H 0.08584 0.57387 0.80778 0.0
H845 H 0.11027 0.63831 0.85226 0.0
C846 C 0.09504 0.60501 0.86863 0.0
C847 C 0.08406 0.57687 0.86972 0.0
C848 C 0.09654 0.59455 0.8068 0.0
C849 C 0.09723 0.60001 0.83821 0.0
C850 C 0.10351 0.60457 0.79089 0.0
C851 C 0.11762 0.63111 0.78906 0.0
C852 C 0.10367 0.61107 0.82115 0.0
C853 C 0.1239 0.64736 0.80368 0.0
C854 C 0.10181 0.61661 0.8529 0.0
C855 C 0.08 0.56109 0.85472 0.0
N856 N 0.11696 0.63703 0.81915 0.0
N857 N 0.08652 0.57287 0.83967 0.0
H858 H 0.39219 0.56462 0.11998 0.0
H859 H 0.42655 0.67392 0.04683 0.0
H860 H 0.46587 0.62219 0.12092 0.0
H861 H 0.34173 0.6358 0.05277 0.0
H862 H 0.44062 0.65579 0.07439 0.0
H863 H 0.37211 0.59122 0.09616 0.0
C864 C 0.40392 0.58314 0.11539 0.0
C865 C 0.43101 0.59089 0.12233 0.0
C866 C 0.41881 0.65162 0.06979 0.0
C867 C 0.40838 0.62106 0.09487 0.0
C868 C 0.41079 0.66189 0.054 0.0
C869 C 0.383 0.65615 0.04743 0.0
C870 C 0.39909 0.63503 0.079 0.0
C871 C 0.3634 0.64067 0.05736 0.0
C872 C 0.39249 0.59823 0.10173 0.0
C873 C 0.4453 0.61495 0.11572 0.0
N874 N 0.37195 0.63028 0.07257 0.0
N875 N 0.434 0.62892 0.10225 0.0
H876 H 0.38791 0.97394 0.37271 0.0
H877 H 0.36548 0.82892 0.32002 0.0
H878 H 0.43912 0.89806 0.38283 0.0
H879 H 0.36761 0.91247 0.29692 0.0
H880 H 0.37786 0.85172 0.34732 0.0
H881 H 0.36525 0.94858 0.34892 0.0
C882 C 0.3943 0.95195 0.3701 0.0
C883 C 0.41609 0.93848 0.37967 0.0
C884 C 0.37519 0.86496 0.33626 0.0
C885 C 0.38926 0.90913 0.35284 0.0
C886 C 0.36809 0.85206 0.32078 0.0
C887 C 0.36583 0.86893 0.30628 0.0
C888 C 0.3791 0.89488 0.33721 0.0
C889 C 0.36949 0.89877 0.30783 0.0
C890 C 0.38115 0.93749 0.35658 0.0
C891 C 0.42246 0.90948 0.37596 0.0
N892 N 0.37588 0.91085 0.32304 0.0
N893 N 0.40924 0.89583 0.36276 0.0
H894 H 0.07025 0.88817 0.63589 0.0
H895 H 0.14268 0.93455 0.55108 0.0
H896 H 0.1057 0.97322 0.62939 0.0
H897 H 0.1565 0.84872 0.56967 0.0
H898 H 0.12267 0.94852 0.57843 0.0
H899 H 0.0962 0.87208 0.61045 0.0
C900 C 0.08379 0.90328 0.62921 0.0
C901 C 0.08604 0.93198 0.63471 0.0
C902 C 0.13022 0.92667 0.57654 0.0
C903 C 0.11487 0.91407 0.60563 0.0
C904 C 0.14144 0.91864 0.56094 0.0
C905 C 0.1512 0.89046 0.55818 0.0
C906 C 0.12806 0.90618 0.58932 0.0
C907 C 0.14927 0.87071 0.57138 0.0
C908 C 0.09855 0.89413 0.61479 0.0
C909 C 0.10368 0.95085 0.62563 0.0
N910 N 0.13754 0.87884 0.58639 0.0
N911 N 0.11709 0.94167 0.61138 0.0
H912 H 0.62589 0.46756 0.8741 0.0
H913 H 0.62052 0.34223 0.94222 0.0
H914 H 0.56312 0.39853 0.87103 0.0
H915 H 0.64978 0.42879 0.95292 0.0
H916 H 0.60873 0.35676 0.91323 0.0
H917 H 0.64513 0.44692 0.90004 0.0
C918 C 0.61632 0.44791 0.87876 0.0
C919 C 0.59243 0.43512 0.87051 0.0
C920 C 0.6179 0.37242 0.92196 0.0
C921 C 0.61466 0.41122 0.9001 0.0
C922 C 0.62463 0.36418 0.93844 0.0
C923 C 0.63583 0.38444 0.95001 0.0
C924 C 0.62307 0.40088 0.917 0.0
C925 C 0.64081 0.41258 0.94448 0.0
C926 C 0.62735 0.43614 0.89355 0.0
C927 C 0.58153 0.40917 0.87692 0.0
N928 N 0.63447 0.41993 0.92838 0.0
N929 N 0.59255 0.39821 0.89145 0.0
H930 H 0.63546 0.10588 0.10524 0.0
H931 H 0.65371 0.09644 0.20508 0.0
H932 H 0.61889 0.02953 0.13418 0.0
H933 H 0.69082 0.16586 0.17657 0.0
H934 H 0.63897 0.07294 0.17886 0.0
H935 H 0.65456 0.12951 0.13085 0.0
C936 C 0.63608 0.09403 0.11692 0.0
C937 C 0.62571 0.06563 0.11754 0.0
C938 C 0.65043 0.09326 0.17828 0.0
C939 C 0.64717 0.09251 0.14678 0.0
C940 C 0.65875 0.10677 0.19327 0.0
C941 C 0.67349 0.13316 0.193 0.0
C942 C 0.65659 0.10631 0.16282 0.0
C943 C 0.67952 0.14548 0.17731 0.0
C944 C 0.64703 0.10748 0.13149 0.0
C945 C 0.62708 0.05124 0.13299 0.0
N946 N 0.67089 0.13201 0.16281 0.0
N947 N 0.63738 0.06489 0.14697 0.0
H948 H 0.02319 0.12735 0.39526 0.0
H949 H 0.88755 0.18609 0.44704 0.0
H950 H 0.94312 0.15033 0.37024 0.0
H951 H 0.95111 0.12719 0.46706 0.0
H952 H 0.91099 0.18219 0.41934 0.0
H953 H 0.00063 0.13736 0.42236 0.0
C954 C 0.00099 0.13504 0.39545 0.0
C955 C 0.98502 0.13812 0.38046 0.0
C956 C 0.91971 0.17022 0.42985 0.0
C957 C 0.95895 0.14921 0.41153 0.0
C958 C 0.90648 0.17249 0.44563 0.0
C959 C 0.91735 0.15683 0.45933 0.0
C960 C 0.94429 0.15269 0.42795 0.0
C961 C 0.94187 0.13947 0.45682 0.0
C962 C -0.01195 0.14045 0.41094 0.0
C963 C 0.95611 0.14757 0.38153 0.0
N964 N 0.95457 0.13799 0.44147 0.0
N965 N 0.94393 0.15282 0.39685 0.0
H966 H 0.88938 0.47412 0.61989 0.0
H967 H 0.92898 0.37333 0.69643 0.0
H968 H 0.96518 0.41954 0.62076 0.0
H969 H 0.84197 0.40513 0.68855 0.0
H970 H 0.94227 0.39026 0.66857 0.0
H971 H 0.8707 0.44887 0.64446 0.0
C972 C 0.90188 0.45651 0.62503 0.0
C973 C 0.92913 0.44923 0.61834 0.0
C974 C 0.92017 0.39332 0.67283 0.0
C975 C 0.9081 0.4207 0.64669 0.0
C976 C 0.9126 0.38378 0.68878 0.0
C977 C 0.88438 0.38803 0.69488 0.0
C978 C 0.89955 0.40773 0.66293 0.0
C979 C 0.86398 0.40145 0.68434 0.0
C980 C 0.89124 0.44221 0.63913 0.0
C981 C 0.94443 0.42641 0.62571 0.0
N982 N 0.87207 0.41119 0.66894 0.0
N983 N 0.93388 0.41324 0.63958 0.0
H984 H 0.5688 0.10126 0.35553 0.0
H985 H 0.70198 0.08478 0.29601 0.0
H986 H 0.65079 0.07011 0.37499 0.0
H987 H 0.64391 0.15702 0.29111 0.0
H988 H 0.68159 0.07514 0.32384 0.0
H989 H 0.59381 0.1187 0.33075 0.0
C990 C 0.59209 0.09844 0.35485 0.0
C991 C 0.60754 0.084 0.36757 0.0
C992 C 0.67359 0.09328 0.31673 0.0
C993 C 0.63605 0.10311 0.33868 0.0
C994 C 0.68507 0.09871 0.30086 0.0
C995 C 0.6745 0.12166 0.29126 0.0
C996 C 0.65086 0.11045 0.32283 0.0
C997 C 0.65268 0.13916 0.29814 0.0
C998 C 0.60629 0.1083 0.34056 0.0
C999 C 0.63767 0.08042 0.36546 0.0
N1000 N 0.6412 0.13289 0.31342 0.0
N1001 N 0.65085 0.08952 0.35118 0.0
H1002 H 0.97313 0.12807 0.62692 0.0
H1003 H 0.84268 0.17463 0.56614 0.0
H1004 H 0.88584 0.09578 0.63241 0.0
H1005 H 0.93267 0.1746 0.55125 0.0
H1006 H 0.85716 0.15549 0.59365 0.0
H1007 H 0.95725 0.15545 0.60236 0.0
C1008 C 0.9505 0.12715 0.62312 0.0
C1009 C 0.93076 0.10958 0.63164 0.0
C1010 C 0.87369 0.15992 0.58438 0.0
C1011 C 0.91254 0.14067 0.60357 0.0
C1012 C 0.86549 0.17094 0.56874 0.0
C1013 C 0.88652 0.17597 0.55639 0.0
C1014 C 0.90313 0.15442 0.58773 0.0
C1015 C 0.91576 0.17077 0.56038 0.0
C1016 C 0.94152 0.14258 0.60905 0.0
C1017 C 0.90176 0.10888 0.62606 0.0
N1018 N 0.92321 0.16027 0.57571 0.0
N1019 N 0.8935 0.12417 0.61233 0.0
H1020 H 0.9543 0.45063 0.85242 0.0
H1021 H 0.82361 0.36771 0.80697 0.0
H1022 H 0.88182 0.41735 0.88041 0.0
H1023 H 0.88381 0.42335 0.78143 0.0
H1024 H 0.84496 0.38302 0.83406 0.0
H1025 H 0.92968 0.43746 0.82626 0.0
C1026 C 0.93324 0.44029 0.85304 0.0
C1027 C 0.92021 0.43474 0.86859 0.0
C1028 C 0.85328 0.39199 0.8225 0.0
C1029 C 0.89162 0.41986 0.83859 0.0
C1030 C 0.84116 0.38326 0.80707 0.0
C1031 C 0.85209 0.39415 0.79192 0.0
C1032 C 0.87663 0.41146 0.82272 0.0
C1033 C 0.87476 0.4143 0.79276 0.0
C1034 C 0.91905 0.43302 0.83808 0.0
C1035 C 0.89258 0.42191 0.86864 0.0
N1036 N 0.8864 0.4221 0.80787 0.0
N1037 N 0.87922 0.41467 0.85383 0.0
H1038 H 0.53398 0.38474 0.11517 0.0
H1039 H 0.67223 0.33871 0.06094 0.0
H1040 H 0.62159 0.40695 0.12992 0.0
H1041 H 0.58727 0.35314 0.03936 0.0
H1042 H 0.65327 0.35253 0.08868 0.0
H1043 H 0.55286 0.36115 0.0898 0.0
C1044 C 0.55724 0.38408 0.11324 0.0
C1045 C 0.5763 0.39786 0.12459 0.0
C1046 C 0.6388 0.35243 0.07787 0.0
C1047 C 0.59793 0.37118 0.09562 0.0
C1048 C 0.64954 0.34449 0.06208 0.0
C1049 C 0.6313 0.34506 0.04784 0.0
C1050 C 0.60956 0.36043 0.07943 0.0
C1051 C 0.6021 0.35271 0.05 0.0
C1052 C 0.56795 0.37087 0.09871 0.0
C1053 C 0.60622 0.39673 0.12138 0.0
N1054 N 0.59211 0.3601 0.06551 0.0
N1055 N 0.61615 0.38369 0.10714 0.0
loop_
_geom_bond_atom_site_label_1
_geom_bond_atom_site_label_2
_geom_bond_distance
_geom_bond_site_symmetry_2
_ccdc_geom_bond_type
C0 C1 1.384 . S
C0 C2 1.384 . S
C0 H28 0.931 . S
C1 C0 1.384 . S
C1 C4 1.382 1_565 S
C2 C0 1.384 . S
C2 C3 1.381 1_565 S
C2 H29 0.930 . S
C3 C2 1.381 1_545 S
C3 C5 1.381 . S
C3 C6 1.487 . S
C4 C1 1.382 1_545 S
C4 C5 1.387 . S
C4 H30 0.930 . S
C5 C3 1.381 . S
C5 C4 1.387 . S
C5 H31 0.931 . S
C6 C3 1.487 . S
C6 C13 1.399 . S
C6 N44 1.343 . S
C7 C8 1.384 . S
C7 C9 1.384 1_565 S
C7 H32 0.931 . S
C8 C7 1.384 . S
C8 C11 1.382 . S
C9 C7 1.384 1_545 S
C9 C10 1.381 . S
C9 H33 0.930 . S
C10 C9 1.381 . S
C10 C12 1.381 1_545 S
C10 C13 1.487 . S
C11 C8 1.382 . S
C11 C12 1.387 . S
C11 H34 0.930 . S
C12 C10 1.381 1_565 S
C12 C11 1.387 . S
C12 H35 0.931 . S
C13 C6 1.399 . S
C13 C10 1.487 . S
C13 N45 1.343 . S
C14 C15 1.384 . S
C14 C16 1.384 . S
C14 H36 0.931 . S
C15 C14 1.384 . S
C15 C18 1.382 . S
C16 C14 1.384 . S
C16 C17 1.381 . S
C16 H37 0.930 1_655 S
C17 C16 1.381 . S
C17 C19 1.381 . S
C17 C20 1.487 1_655 S
C18 C15 1.382 . S
C18 C19 1.387 . S
C18 H38 0.930 . S
C19 C17 1.381 . S
C19 C18 1.387 . S
C19 H39 0.931 . S
C20 C17 1.487 1_455 S
C20 C27 1.399 . S
C20 N45 1.343 . S
C21 C22 1.384 . S
C21 C23 1.384 . S
C21 H40 0.931 . S
C22 C21 1.384 . S
C22 C25 1.382 . S
C23 C21 1.384 . S
C23 C24 1.381 1_655 S
C23 H41 0.930 . S
C24 C23 1.381 1_455 S
C24 C26 1.381 . S
C24 C27 1.487 . S
C25 C22 1.382 . S
C25 C26 1.387 1_655 S
C25 H42 0.923 1_655 S
C26 C24 1.381 . S
C26 C25 1.387 1_455 S
C26 H43 0.931 . S
C27 C20 1.399 . S
C27 C24 1.487 . S
C27 N44 1.343 . S
H28 C0 0.931 . S
H29 C2 0.930 . S
H30 C4 0.930 . S
H31 C5 0.931 . S
H32 C7 0.931 . S
H33 C9 0.930 . S
H34 C11 0.930 . S
H35 C12 0.931 . S
H36 C14 0.931 . S
H37 C16 0.930 1_455 S
H38 C18 0.930 . S
H39 C19 0.931 . S
H40 C21 0.931 . S
H41 C23 0.930 . S
H42 C25 0.923 1_455 S
H43 C26 0.931 . S
N44 C6 1.343 . S
N44 C27 1.343 . S
N45 C13 1.343 . S
N45 C20 1.343 . S
C46 C47 1.384 . S
C46 C48 1.384 . S
C46 H74 0.931 . S
C47 C46 1.384 . S
C47 C50 1.382 . S
C48 C46 1.384 . S
C48 C49 1.381 . S
C48 H75 0.930 . S
C49 C48 1.381 . S
C49 C51 1.381 . S
C49 C52 1.487 . S
C50 C47 1.382 . S
C50 C51 1.387 . S
C50 H76 0.930 . S
C51 C49 1.381 . S
C51 C50 1.387 . S
C51 H77 0.931 1_655 S
C52 C49 1.487 . S
C52 C59 1.399 . S
C52 N90 1.343 1_655 S
C53 C54 1.384 . S
C53 C55 1.384 . S
C53 H78 0.931 . S
C54 C53 1.384 . S
C54 C57 1.382 . S
C55 C53 1.384 . S
C55 C56 1.381 . S
C55 H79 0.930 . S
C56 C55 1.381 . S
C56 C58 1.381 . S
C56 C59 1.487 . S
C57 C54 1.382 . S
C57 C58 1.387 . S
C57 H80 0.930 . S
C58 C56 1.381 . S
C58 C57 1.387 . S
C58 H81 0.931 . S
C59 C52 1.399 . S
C59 C56 1.487 . S
C59 N91 1.343 1_655 S
C60 C61 1.384 . S
C60 C62 1.384 . S
C60 H82 0.931 . S
C61 C60 1.384 . S
C61 C64 1.382 . S
C62 C60 1.384 . S
C62 C63 1.381 . S
C62 H83 0.930 . S
C63 C62 1.381 . S
C63 C65 1.381 . S
C63 C66 1.487 . S
C64 C61 1.382 . S
C64 C65 1.387 . S
C64 H84 0.930 . S
C65 C63 1.381 . S
C65 C64 1.387 . S
C65 H85 0.931 . S
C66 C63 1.487 . S
C66 C73 1.399 . S
C66 N91 1.343 . S
C67 C68 1.384 . S
C67 C69 1.384 . S
C67 H86 0.931 . S
C68 C67 1.384 . S
C68 C71 1.382 . S
C69 C67 1.384 . S
C69 C70 1.381 . S
C69 H87 0.930 . S
C70 C69 1.381 . S
C70 C72 1.381 . S
C70 C73 1.487 . S
C71 C68 1.382 . S
C71 C72 1.387 . S
C71 H88 0.930 . S
C72 C70 1.381 . S
C72 C71 1.387 . S
C72 H89 0.931 . S
C73 C66 1.399 . S
C73 C70 1.487 . S
C73 N90 1.343 . S
H74 C46 0.931 . S
H75 C48 0.930 . S
H76 C50 0.930 . S
H77 C51 0.931 1_455 S
H78 C53 0.931 . S
H79 C55 0.930 . S
H80 C57 0.930 . S
H81 C58 0.931 . S
H82 C60 0.931 . S
H83 C62 0.930 . S
H84 C64 0.930 . S
H85 C65 0.931 . S
H86 C67 0.931 . S
H87 C69 0.930 . S
H88 C71 0.930 . S
H89 C72 0.931 . S
N90 C52 1.343 1_455 S
N90 C73 1.343 . S
N91 C59 1.343 1_455 S
N91 C66 1.343 . S
C92 C93 1.384 . S
C92 C94 1.384 . S
C92 H120 0.931 . S
C93 C92 1.384 . S
C93 C96 1.382 . S
C94 C92 1.384 . S
C94 C95 1.381 . S
C94 H121 0.930 . S
C95 C94 1.381 . S
C95 C97 1.381 . S
C95 C98 1.487 . S
C96 C93 1.382 . S
C96 C97 1.387 . S
C96 H122 0.930 . S
C97 C95 1.381 . S
C97 C96 1.387 . S
C97 H123 0.931 . S
C98 C95 1.487 . S
C98 C105 1.399 . S
C98 N136 1.343 . S
C99 C100 1.384 . S
C99 C101 1.384 . S
C99 H124 0.931 . S
C100 C99 1.384 . S
C100 C103 1.382 . S
C101 C99 1.384 . S
C101 C102 1.381 . S
C101 H125 0.930 . S
C102 C101 1.381 . S
C102 C104 1.381 . S
C102 C105 1.487 . S
C103 C100 1.382 . S
C103 C104 1.387 . S
C103 H126 0.930 . S
C104 C102 1.381 . S
C104 C103 1.387 . S
C104 H127 0.931 . S
C105 C98 1.399 . S
C105 C102 1.487 . S
C105 N137 1.343 . S
C106 C107 1.384 . S
C106 C108 1.384 . S
C106 H128 0.931 . S
C107 C106 1.384 . S
C107 C110 1.382 . S
C108 C106 1.384 . S
C108 C109 1.381 . S
C108 H129 0.930 . S
C109 C108 1.381 . S
C109 C111 1.381 . S
C109 C112 1.487 . S
C110 C107 1.382 . S
C110 C111 1.387 . S
C110 H130 0.930 . S
C111 C109 1.381 . S
C111 C110 1.387 . S
C111 H131 0.931 . S
C112 C109 1.487 . S
C112 C119 1.399 . S
C112 N137 1.343 . S
C113 C114 1.384 . S
C113 C115 1.384 . S
C113 H132 0.931 . S
C114 C113 1.384 . S
C114 C117 1.382 . S
C115 C113 1.384 . S
C115 C116 1.381 . S
C115 H133 0.930 . S
C116 C115 1.381 . S
C116 C118 1.381 . S
C116 C119 1.487 . S
C117 C114 1.382 . S
C117 C118 1.387 . S
C117 H134 0.930 . S
C118 C116 1.381 . S
C118 C117 1.387 . S
C118 H135 0.931 . S
C119 C112 1.399 . S
C119 C116 1.487 . S
C119 N136 1.343 . S
H120 C92 0.931 . S
H121 C94 0.930 . S
H122 C96 0.930 . S
H123 C97 0.931 . S
H124 C99 0.931 . S
H125 C101 0.930 . S
H126 C103 0.930 . S
H127 C104 0.931 . S
H128 C106 0.931 . S
H129 C108 0.930 . S
H130 C110 0.930 . S
H131 C111 0.931 . S
H132 C113 0.931 . S
H133 C115 0.930 . S
H134 C117 0.930 . S
H135 C118 0.931 . S
N136 C98 1.343 . S
N136 C119 1.343 . S
N137 C105 1.343 . S
N137 C112 1.343 . S
C138 C139 1.384 . S
C138 C140 1.384 . S
C138 H166 0.931 . S
C139 C138 1.384 . S
C139 C142 1.382 . S
C140 C138 1.384 . S
C140 C141 1.381 . S
C140 H167 0.930 . S
C141 C140 1.381 . S
C141 C143 1.381 . S
C141 C144 1.487 . S
C142 C139 1.382 . S
C142 C143 1.387 . S
C142 H168 0.930 . S
C143 C141 1.381 . S
C143 C142 1.387 . S
C143 H169 0.931 . S
C144 C141 1.487 . S
C144 C151 1.399 . S
C144 N182 1.343 1_565 S
C145 C146 1.384 . S
C145 C147 1.384 . S
C145 H170 0.931 . S
C146 C145 1.384 . S
C146 C149 1.382 . S
C147 C145 1.384 . S
C147 C148 1.381 . S
C147 H171 0.930 . S
C148 C147 1.381 . S
C148 C150 1.381 . S
C148 C151 1.487 . S
C149 C146 1.382 . S
C149 C150 1.387 . S
C149 H172 0.930 . S
C150 C148 1.381 . S
C150 C149 1.387 . S
C150 H173 0.931 . S
C151 C144 1.399 . S
C151 C148 1.487 . S
C151 N183 1.343 . S
C152 C153 1.384 . S
C152 C154 1.384 . S
C152 H174 0.931 . S
C153 C152 1.384 . S
C153 C156 1.382 . S
C154 C152 1.384 . S
C154 C155 1.381 . S
C154 H175 0.930 . S
C155 C154 1.381 . S
C155 C157 1.381 . S
C155 C158 1.487 . S
C156 C153 1.382 . S
C156 C157 1.387 . S
C156 H176 0.930 . S
C157 C155 1.381 . S
C157 C156 1.387 . S
C157 H177 0.931 . S
C158 C155 1.487 . S
C158 C165 1.399 . S
C158 N183 1.343 1_545 S
C159 C160 1.384 . S
C159 C161 1.384 . S
C159 H178 0.931 . S
C160 C159 1.384 . S
C160 C163 1.382 . S
C161 C159 1.384 . S
C161 C162 1.381 . S
C161 H179 0.930 . S
C162 C161 1.381 . S
C162 C164 1.381 . S
C162 C165 1.487 . S
C163 C160 1.382 . S
C163 C164 1.387 . S
C163 H180 0.930 . S
C164 C162 1.381 . S
C164 C163 1.387 . S
C164 H181 0.931 . S
C165 C158 1.399 . S
C165 C162 1.487 . S
C165 N182 1.343 . S
H166 C138 0.931 . S
H167 C140 0.930 . S
H168 C142 0.930 . S
H169 C143 0.931 . S
H170 C145 0.931 . S
H171 C147 0.930 . S
H172 C149 0.930 . S
H173 C150 0.931 . S
H174 C152 0.931 . S
H175 C154 0.930 . S
H176 C156 0.930 . S
H177 C157 0.931 . S
H178 C159 0.931 . S
H179 C161 0.930 . S
H180 C163 0.930 . S
H181 C164 0.931 . S
N182 C144 1.343 1_545 S
N182 C165 1.343 . S
N183 C151 1.343 . S
N183 C158 1.343 1_565 S
C184 C185 1.384 . S
C184 C186 1.384 . S
C184 H212 0.931 . S
C185 C184 1.384 . S
C185 C188 1.382 . S
C186 C184 1.384 . S
C186 C187 1.381 . S
C186 H213 0.930 . S
C187 C186 1.381 . S
C187 C189 1.381 . S
C187 C190 1.487 . S
C188 C185 1.382 . S
C188 C189 1.387 . S
C188 H214 0.930 . S
C189 C187 1.381 . S
C189 C188 1.387 . S
C189 H215 0.931 . S
C190 C187 1.487 . S
C190 C197 1.399 . S
C190 N228 1.343 . S
C191 C192 1.384 . S
C191 C193 1.384 . S
C191 H216 0.931 . S
C192 C191 1.384 . S
C192 C195 1.382 . S
C193 C191 1.384 . S
C193 C194 1.381 . S
C193 H217 0.930 . S
C194 C193 1.381 . S
C194 C196 1.381 . S
C194 C197 1.487 . S
C195 C192 1.382 . S
C195 C196 1.387 . S
C195 H218 0.930 . S
C196 C194 1.381 . S
C196 C195 1.387 . S
C196 H219 0.931 . S
C197 C190 1.399 . S
C197 C194 1.487 . S
C197 N229 1.343 1_455 S
C198 C199 1.384 . S
C198 C200 1.384 . S
C198 H220 0.931 . S
C199 C198 1.384 . S
C199 C202 1.382 . S
C200 C198 1.384 . S
C200 C201 1.381 . S
C200 H221 0.930 . S
C201 C200 1.381 . S
C201 C203 1.381 . S
C201 C204 1.487 . S
C202 C199 1.382 . S
C202 C203 1.387 . S
C202 H222 0.930 . S
C203 C201 1.381 . S
C203 C202 1.387 . S
C203 H223 0.931 . S
C204 C201 1.487 . S
C204 C211 1.399 . S
C204 N229 1.343 . S
C205 C206 1.384 . S
C205 C207 1.384 . S
C205 H224 0.931 . S
C206 C205 1.384 . S
C206 C209 1.382 . S
C207 C205 1.384 . S
C207 C208 1.381 . S
C207 H225 0.930 . S
C208 C207 1.381 . S
C208 C210 1.381 . S
C208 C211 1.487 . S
C209 C206 1.382 . S
C209 C210 1.387 . S
C209 H226 0.930 . S
C210 C208 1.381 . S
C210 C209 1.387 . S
C210 H227 0.931 . S
C211 C204 1.399 . S
C211 C208 1.487 . S
C211 N228 1.343 1_655 S
H212 C184 0.931 . S
H213 C186 0.930 . S
H214 C188 0.930 . S
H215 C189 0.931 . S
H216 C191 0.931 . S
H217 C193 0.930 . S
H218 C195 0.930 . S
H219 C196 0.931 . S
H220 C198 0.931 . S
H221 C200 0.930 . S
H222 C202 0.930 . S
H223 C203 0.931 . S
H224 C205 0.931 . S
H225 C207 0.930 . S
H226 C209 0.930 . S
H227 C210 0.931 . S
N228 C190 1.343 . S
N228 C211 1.343 1_455 S
N229 C197 1.343 1_655 S
N229 C204 1.343 . S
C230 C231 1.384 . S
C230 C232 1.384 . S
C230 H258 0.931 . S
C231 C230 1.384 . S
C231 C234 1.382 . S
C232 C230 1.384 . S
C232 C233 1.381 . S
C232 H259 0.930 . S
C233 C232 1.381 . S
C233 C235 1.381 . S
C233 C236 1.487 . S
C234 C231 1.382 . S
C234 C235 1.387 . S
C234 H260 0.930 . S
C235 C233 1.381 . S
C235 C234 1.387 . S
C235 H261 0.931 . S
C236 C233 1.487 . S
C236 C243 1.399 . S
C236 N274 1.343 . S
C237 C238 1.384 . S
C237 C239 1.384 . S
C237 H262 0.931 . S
C238 C237 1.384 . S
C238 C241 1.382 . S
C239 C237 1.384 . S
C239 C240 1.381 . S
C239 H263 0.930 . S
C240 C239 1.381 . S
C240 C242 1.381 . S
C240 C243 1.487 . S
C241 C238 1.382 . S
C241 C242 1.387 . S
C241 H264 0.930 . S
C242 C240 1.381 . S
C242 C241 1.387 . S
C242 H265 0.931 . S
C243 C236 1.399 . S
C243 C240 1.487 . S
C243 N275 1.343 . S
C244 C245 1.384 . S
C244 C246 1.384 . S
C244 H266 0.931 . S
C245 C244 1.384 . S
C245 C248 1.382 . S
C246 C244 1.384 . S
C246 C247 1.381 . S
C246 H267 0.930 . S
C247 C246 1.381 . S
C247 C249 1.381 . S
C247 C250 1.487 . S
C248 C245 1.382 . S
C248 C249 1.387 . S
C248 H268 0.930 . S
C249 C247 1.381 . S
C249 C248 1.387 . S
C249 H269 0.931 . S
C250 C247 1.487 . S
C250 C257 1.399 . S
C250 N275 1.343 . S
C251 C252 1.384 . S
C251 C253 1.384 . S
C251 H270 0.931 . S
C252 C251 1.384 . S
C252 C255 1.382 . S
C253 C251 1.384 . S
C253 C254 1.381 . S
C253 H271 0.930 . S
C254 C253 1.381 . S
C254 C256 1.381 . S
C254 C257 1.487 . S
C255 C252 1.382 . S
C255 C256 1.387 . S
C255 H272 0.930 . S
C256 C254 1.381 . S
C256 C255 1.387 . S
C256 H273 0.931 . S
C257 C250 1.399 . S
C257 C254 1.487 . S
C257 N274 1.343 . S
H258 C230 0.931 . S
H259 C232 0.930 . S
H260 C234 0.930 . S
H261 C235 0.931 . S
H262 C237 0.931 . S
H263 C239 0.930 . S
H264 C241 0.930 . S
H265 C242 0.931 . S
H266 C244 0.931 . S
H267 C246 0.930 . S
H268 C248 0.930 . S
H269 C249 0.931 . S
H270 C251 0.931 . S
H271 C253 0.930 . S
H272 C255 0.930 . S
H273 C256 0.931 . S
N274 C236 1.343 . S
N274 C257 1.343 . S
N275 C243 1.343 . S
N275 C250 1.343 . S
C276 C277 1.384 . S
C276 C278 1.384 . S
C276 H304 0.931 . S
C277 C276 1.384 . S
C277 C280 1.382 . S
C278 C276 1.384 . S
C278 C279 1.381 . S
C278 H305 0.930 . S
C279 C278 1.381 . S
C279 C281 1.381 . S
C279 C282 1.487 . S
C280 C277 1.382 . S
C280 C281 1.387 . S
C280 H306 0.930 . S
C281 C279 1.381 . S
C281 C280 1.387 . S
C281 H307 0.931 1_565 S
C282 C279 1.487 . S
C282 C289 1.399 . S
C282 N320 1.343 1_565 S
C283 C284 1.384 . S
C283 C285 1.384 . S
C283 H308 0.931 . S
C284 C283 1.384 . S
C284 C287 1.382 . S
C285 C283 1.384 . S
C285 C286 1.381 . S
C285 H309 0.930 . S
C286 C285 1.381 . S
C286 C288 1.381 . S
C286 C289 1.487 . S
C287 C284 1.382 . S
C287 C288 1.387 . S
C287 H310 0.930 . S
C288 C286 1.381 . S
C288 C287 1.387 . S
C288 H311 0.931 . S
C289 C282 1.399 . S
C289 C286 1.487 . S
C289 N321 1.343 1_565 S
C290 C291 1.384 . S
C290 C292 1.384 . S
C290 H312 0.931 . S
C291 C290 1.384 . S
C291 C294 1.382 . S
C292 C290 1.384 . S
C292 C293 1.381 . S
C292 H313 0.930 . S
C293 C292 1.381 . S
C293 C295 1.381 . S
C293 C296 1.487 . S
C294 C291 1.382 . S
C294 C295 1.387 . S
C294 H314 0.930 . S
C295 C293 1.381 . S
C295 C294 1.387 . S
C295 H315 0.931 . S
C296 C293 1.487 . S
C296 C303 1.399 . S
C296 N321 1.343 . S
C297 C298 1.384 . S
C297 C299 1.384 . S
C297 H316 0.931 . S
C298 C297 1.384 . S
C298 C301 1.382 . S
C299 C297 1.384 . S
C299 C300 1.381 . S
C299 H317 0.930 . S
C300 C299 1.381 . S
C300 C302 1.381 . S
C300 C303 1.487 . S
C301 C298 1.382 . S
C301 C302 1.387 . S
C301 H318 0.930 . S
C302 C300 1.381 . S
C302 C301 1.387 . S
C302 H319 0.931 . S
C303 C296 1.399 . S
C303 C300 1.487 . S
C303 N320 1.343 . S
H304 C276 0.931 . S
H305 C278 0.930 . S
H306 C280 0.930 . S
H307 C281 0.931 1_545 S
H308 C283 0.931 . S
H309 C285 0.930 . S
H310 C287 0.930 . S
H311 C288 0.931 . S
H312 C290 0.931 . S
H313 C292 0.930 . S
H314 C294 0.930 . S
H315 C295 0.931 . S
H316 C297 0.931 . S
H317 C299 0.930 . S
H318 C301 0.930 . S
H319 C302 0.931 . S
N320 C282 1.343 1_545 S
N320 C303 1.343 . S
N321 C289 1.343 1_545 S
N321 C296 1.343 . S
C322 C323 1.384 . S
C322 C324 1.384 1_565 S
C322 H350 0.931 . S
C323 C322 1.384 . S
C323 C326 1.382 . S
C324 C322 1.384 1_545 S
C324 C325 1.381 . S
C324 H351 0.930 . S
C325 C324 1.381 . S
C325 C327 1.381 . S
C325 C328 1.487 . S
C326 C323 1.382 . S
C326 C327 1.388 1_565 S
C326 H352 0.930 . S
C327 C325 1.381 . S
C327 C326 1.388 1_545 S
C327 H353 0.931 . S
C328 C325 1.487 . S
C328 C335 1.399 . S
C328 N366 1.343 . S
C329 C330 1.384 . S
C329 C331 1.384 . S
C329 H354 0.931 . S
C330 C329 1.384 . S
C330 C333 1.382 1_565 S
C331 C329 1.384 . S
C331 C332 1.381 1_565 S
C331 H355 0.930 . S
C332 C331 1.381 1_545 S
C332 C334 1.381 . S
C332 C335 1.487 . S
C333 C330 1.382 1_545 S
C333 C334 1.387 . S
C333 H356 0.930 . S
C334 C332 1.381 . S
C334 C333 1.387 . S
C334 H357 0.931 . S
C335 C328 1.399 . S
C335 C332 1.487 . S
C335 N367 1.343 . S
C336 C337 1.384 . S
C336 C338 1.384 . S
C336 H358 0.931 . S
C337 C336 1.384 . S
C337 C340 1.382 1_655 S
C338 C336 1.384 . S
C338 C339 1.381 1_655 S
C338 H359 0.930 . S
C339 C338 1.381 1_455 S
C339 C341 1.381 . S
C339 C342 1.487 . S
C340 C337 1.382 1_455 S
C340 C341 1.387 . S
C340 H360 0.930 . S
C341 C339 1.381 . S
C341 C340 1.387 . S
C341 H361 0.931 . S
C342 C339 1.487 . S
C342 C349 1.399 . S
C342 N367 1.343 . S
C343 C344 1.384 1_455 S
C343 C345 1.384 . S
C343 H362 0.931 . S
C344 C343 1.384 1_655 S
C344 C347 1.382 . S
C345 C343 1.384 . S
C345 C346 1.381 . S
C345 H363 0.930 . S
C346 C345 1.381 . S
C346 C348 1.381 1_455 S
C346 C349 1.487 . S
C347 C344 1.382 . S
C347 C348 1.387 . S
C347 H364 0.930 . S
C348 C346 1.381 1_655 S
C348 C347 1.387 . S
C348 H365 0.931 . S
C349 C342 1.399 . S
C349 C346 1.487 . S
C349 N366 1.343 . S
H350 C322 0.931 . S
H351 C324 0.930 . S
H352 C326 0.930 . S
H353 C327 0.931 . S
H354 C329 0.931 . S
H355 C331 0.930 . S
H356 C333 0.930 . S
H357 C334 0.931 . S
H358 C336 0.931 . S
H359 C338 0.930 . S
H360 C340 0.930 . S
H361 C341 0.931 . S
H362 C343 0.931 . S
H363 C345 0.930 . S
H364 C347 0.930 . S
H365 C348 0.931 . S
N366 C328 1.343 . S
N366 C349 1.343 . S
N367 C335 1.343 . S
N367 C342 1.343 . S
C368 O369 1.306 . S
C368 O371 1.160 . S
O369 C368 1.306 . S
O369 Cd370 2.228 . S
Cd370 O369 2.228 . S
Cd370 O374 2.273 1_554 S
Cd370 O378 2.277 . S
O371 C368 1.160 . S
O371 Cd372 2.203 . S
Cd372 O371 2.203 . S
Cd372 O374 2.411 1_554 S
Cd372 O375 2.333 1_554 S
Cd372 O376 2.352 . S
Cd372 O380 2.277 . S
Cd372 O381 2.356 . S
C373 O378 1.209 . S
C373 O380 1.226 . S
O374 Cd370 2.273 1_556 S
O374 Cd372 2.411 1_556 S
O374 C377 1.320 . S
O375 Cd372 2.333 1_556 S
O375 C377 1.214 . S
O376 Cd372 2.352 . S
O376 C379 1.258 . S
C377 O374 1.320 . S
C377 O375 1.214 . S
O378 Cd370 2.277 . S
O378 C373 1.209 . S
C379 O376 1.258 . S
C379 O381 1.282 . S
O380 Cd372 2.277 . S
O380 C373 1.226 . S
O381 Cd372 2.356 . S
O381 C379 1.282 . S
C382 O383 1.306 . S
C382 O385 1.160 . S
O383 C382 1.306 . S
O383 Cd384 2.228 . S
Cd384 O383 2.228 . S
Cd384 O388 2.273 . S
Cd384 O392 2.277 . S
O385 C382 1.160 . S
O385 Cd386 2.203 . S
Cd386 O385 2.203 . S
Cd386 O388 2.411 . S
Cd386 O389 2.333 . S
Cd386 O390 2.352 . S
Cd386 O394 2.277 . S
Cd386 O395 2.356 . S
C387 O392 1.209 . S
C387 O394 1.226 . S
O388 Cd384 2.273 . S
O388 Cd386 2.411 . S
O388 C391 1.320 . S
O389 Cd386 2.333 . S
O389 C391 1.214 . S
O390 Cd386 2.352 . S
O390 C393 1.258 . S
C391 O388 1.320 . S
C391 O389 1.214 . S
O392 Cd384 2.277 . S
O392 C387 1.209 . S
C393 O390 1.258 . S
C393 O395 1.282 . S
O394 Cd386 2.277 . S
O394 C387 1.226 . S
O395 Cd386 2.356 . S
O395 C393 1.282 . S
C396 O397 1.306 . S
C396 O399 1.160 . S
O397 C396 1.306 . S
O397 Cd398 2.228 . S
Cd398 O397 2.228 . S
Cd398 O402 2.273 . S
Cd398 O406 2.277 . S
O399 C396 1.160 . S
O399 Cd400 2.203 . S
Cd400 O399 2.203 . S
Cd400 O402 2.411 . S
Cd400 O403 2.333 . S
Cd400 O404 2.352 . S
Cd400 O408 2.277 . S
Cd400 O409 2.356 . S
C401 O406 1.209 . S
C401 O408 1.226 . S
O402 Cd398 2.273 . S
O402 Cd400 2.411 . S
O402 C405 1.320 . S
O403 Cd400 2.333 . S
O403 C405 1.214 . S
O404 Cd400 2.352 . S
O404 C407 1.258 . S
C405 O402 1.320 . S
C405 O403 1.214 . S
O406 Cd398 2.277 . S
O406 C401 1.209 . S
C407 O404 1.258 . S
C407 O409 1.282 . S
O408 Cd400 2.277 . S
O408 C401 1.226 . S
O409 Cd400 2.356 . S
O409 C407 1.282 . S
C410 O411 1.306 . S
C410 O413 1.160 . S
O411 C410 1.306 . S
O411 Cd412 2.228 . S
Cd412 O411 2.228 . S
Cd412 O416 2.273 . S
Cd412 O420 2.277 . S
O413 C410 1.160 . S
O413 Cd414 2.203 . S
Cd414 O413 2.203 . S
Cd414 O416 2.411 . S
Cd414 O417 2.333 . S
Cd414 O418 2.352 . S
Cd414 O422 2.277 . S
Cd414 O423 2.356 . S
C415 O420 1.209 . S
C415 O422 1.226 . S
O416 Cd412 2.273 . S
O416 Cd414 2.411 . S
O416 C419 1.320 . S
O417 Cd414 2.333 . S
O417 C419 1.214 . S
O418 Cd414 2.352 . S
O418 C421 1.258 . S
C419 O416 1.320 . S
C419 O417 1.214 . S
O420 Cd412 2.277 . S
O420 C415 1.209 . S
C421 O418 1.258 . S
C421 O423 1.282 . S
O422 Cd414 2.277 . S
O422 C415 1.226 . S
O423 Cd414 2.356 . S
O423 C421 1.282 . S
C424 O425 1.306 . S
C424 O427 1.160 . S
O425 C424 1.306 . S
O425 Cd426 2.228 . S
Cd426 O425 2.228 . S
Cd426 O430 2.273 . S
Cd426 O434 2.277 . S
O427 C424 1.160 . S
O427 Cd428 2.203 . S
Cd428 O427 2.203 . S
Cd428 O430 2.411 . S
Cd428 O431 2.333 . S
Cd428 O432 2.352 . S
Cd428 O436 2.277 . S
Cd428 O437 2.356 . S
C429 O434 1.209 . S
C429 O436 1.226 . S
O430 Cd426 2.273 . S
O430 Cd428 2.411 . S
O430 C433 1.320 . S
O431 Cd428 2.333 . S
O431 C433 1.214 . S
O432 Cd428 2.352 . S
O432 C435 1.258 . S
C433 O430 1.320 . S
C433 O431 1.214 . S
O434 Cd426 2.277 . S
O434 C429 1.209 . S
C435 O432 1.258 . S
C435 O437 1.282 . S
O436 Cd428 2.277 . S
O436 C429 1.226 . S
O437 Cd428 2.356 . S
O437 C435 1.282 . S
C438 O439 1.306 . S
C438 O441 1.160 . S
O439 C438 1.306 . S
O439 Cd440 2.228 . S
Cd440 O439 2.228 . S
Cd440 O444 2.273 . S
Cd440 O448 2.277 . S
O441 C438 1.160 . S
O441 Cd442 2.203 . S
Cd442 O441 2.203 . S
Cd442 O444 2.411 . S
Cd442 O445 2.333 . S
Cd442 O446 2.352 . S
Cd442 O450 2.277 . S
Cd442 O451 2.356 . S
C443 O448 1.209 . S
C443 O450 1.226 . S
O444 Cd440 2.273 . S
O444 Cd442 2.411 . S
O444 C447 1.320 . S
O445 Cd442 2.333 . S
O445 C447 1.214 . S
O446 Cd442 2.352 . S
O446 C449 1.258 . S
C447 O444 1.320 . S
C447 O445 1.214 . S
O448 Cd440 2.277 . S
O448 C443 1.209 . S
C449 O446 1.258 . S
C449 O451 1.282 . S
O450 Cd442 2.277 . S
O450 C443 1.226 . S
O451 Cd442 2.356 . S
O451 C449 1.282 . S
C452 O453 1.306 . S
C452 O455 1.160 . S
O453 C452 1.306 . S
O453 Cd454 2.274 . S
Cd454 O453 2.274 . S
Cd454 O458 2.234 1_556 S
Cd454 O462 2.284 . S
O455 C452 1.160 . S
O455 Cd456 2.203 1_556 S
Cd456 O455 2.203 1_554 S
Cd456 O458 2.411 . S
Cd456 O459 2.333 . S
Cd456 O460 2.352 . S
Cd456 O464 2.277 1_554 S
Cd456 O465 2.356 . S
C457 O462 1.209 . S
C457 O464 1.226 . S
O458 Cd454 2.234 1_554 S
O458 Cd456 2.411 . S
O458 C461 1.320 . S
O459 Cd456 2.333 . S
O459 C461 1.214 . S
O460 Cd456 2.352 . S
O460 C463 1.258 . S
C461 O458 1.320 . S
C461 O459 1.214 . S
O462 Cd454 2.284 . S
O462 C457 1.209 . S
C463 O460 1.258 . S
C463 O465 1.282 . S
O464 Cd456 2.277 1_556 S
O464 C457 1.226 . S
O465 Cd456 2.356 . S
O465 C463 1.282 . S
C466 O467 1.306 . S
C466 O469 1.160 . S
O467 C466 1.306 . S
O467 Cd468 2.228 . S
Cd468 O467 2.228 . S
Cd468 O472 2.273 . S
Cd468 O476 2.277 . S
O469 C466 1.160 . S
O469 Cd470 2.203 . S
Cd470 O469 2.203 . S
Cd470 O472 2.411 . S
Cd470 O473 2.333 . S
Cd470 O474 2.352 . S
Cd470 O478 2.277 . S
Cd470 O479 2.356 . S
C471 O476 1.209 . S
C471 O478 1.226 . S
O472 Cd468 2.273 . S
O472 Cd470 2.411 . S
O472 C475 1.320 . S
O473 Cd470 2.333 . S
O473 C475 1.214 . S
O474 Cd470 2.352 . S
O474 C477 1.258 . S
C475 O472 1.320 . S
C475 O473 1.214 . S
O476 Cd468 2.277 . S
O476 C471 1.209 . S
C477 O474 1.258 . S
C477 O479 1.282 . S
O478 Cd470 2.277 . S
O478 C471 1.226 . S
O479 Cd470 2.356 . S
O479 C477 1.282 . S
H480 C486 0.930 . S
H481 C490 0.930 . S
H482 C495 0.929 . S
H483 C493 0.929 . S
H484 C488 0.929 . S
H485 C494 0.929 . S
C486 H480 0.930 . S
C486 C487 1.367 . S
C486 C494 1.378 . S
C487 C486 1.367 . S
C487 C495 1.433 . S
C488 H484 0.929 . S
C488 C490 1.378 . S
C488 C492 1.350 . S
C489 C492 1.463 . S
C489 C494 1.350 . S
C489 N497 1.427 . S
C490 H481 0.930 . S
C490 C488 1.378 . S
C490 C491 1.367 . S
C491 C490 1.367 . S
C491 C493 1.433 . S
C492 C488 1.350 . S
C492 C489 1.463 . S
C492 N496 1.427 . S
C493 H483 0.929 . S
C493 C491 1.433 . S
C493 N496 1.384 . S
C494 H485 0.929 . S
C494 C486 1.378 . S
C494 C489 1.350 . S
C495 H482 0.929 . S
C495 C487 1.433 . S
C495 N497 1.384 . S
N496 C492 1.427 . S
N496 C493 1.384 . S
N497 C489 1.427 . S
N497 C495 1.384 . S
H498 C504 0.930 . S
H499 C508 0.930 . S
H500 C513 0.929 . S
H501 C511 0.929 . S
H502 C506 0.929 . S
H503 C512 0.929 . S
C504 H498 0.930 . S
C504 C505 1.367 . S
C504 C512 1.378 . S
C505 C504 1.367 . S
C505 C513 1.433 . S
C506 H502 0.929 . S
C506 C508 1.378 . S
C506 C510 1.350 . S
C507 C510 1.463 . S
C507 C512 1.350 . S
C507 N515 1.427 . S
C508 H499 0.930 . S
C508 C506 1.378 . S
C508 C509 1.367 . S
C509 C508 1.367 . S
C509 C511 1.433 . S
C510 C506 1.350 . S
C510 C507 1.463 . S
C510 N514 1.427 . S
C511 H501 0.929 . S
C511 C509 1.433 . S
C511 N514 1.384 . S
C512 H503 0.929 . S
C512 C504 1.378 . S
C512 C507 1.350 . S
C513 H500 0.929 . S
C513 C505 1.433 . S
C513 N515 1.384 . S
N514 C510 1.427 . S
N514 C511 1.384 . S
N515 C507 1.427 . S
N515 C513 1.384 . S
H516 C522 0.930 . S
H517 C526 0.930 . S
H518 C531 0.929 . S
H519 C529 0.929 . S
H520 C524 0.929 . S
H521 C530 0.929 . S
C522 H516 0.930 . S
C522 C523 1.367 . S
C522 C530 1.378 . S
C523 C522 1.367 . S
C523 C531 1.433 . S
C524 H520 0.929 . S
C524 C526 1.378 . S
C524 C528 1.350 . S
C525 C528 1.463 . S
C525 C530 1.350 . S
C525 N533 1.427 . S
C526 H517 0.930 . S
C526 C524 1.378 . S
C526 C527 1.367 . S
C527 C526 1.367 . S
C527 C529 1.433 . S
C528 C524 1.350 . S
C528 C525 1.463 . S
C528 N532 1.427 . S
C529 H519 0.929 . S
C529 C527 1.433 . S
C529 N532 1.384 . S
C530 H521 0.929 . S
C530 C522 1.378 . S
C530 C525 1.350 . S
C531 H518 0.929 . S
C531 C523 1.433 . S
C531 N533 1.384 . S
N532 C528 1.427 . S
N532 C529 1.384 . S
N533 C525 1.427 . S
N533 C531 1.384 . S
H534 C540 0.930 . S
H535 C544 0.930 1_556 S
H536 C549 0.929 . S
H537 C547 0.929 . S
H538 C542 0.969 . S
H539 C548 0.929 . S
C540 H534 0.930 . S
C540 C541 1.367 . S
C540 C548 1.378 . S
C541 C540 1.367 . S
C541 C549 1.433 . S
C542 H538 0.969 . S
C542 C544 1.378 . S
C542 C546 1.350 . S
C543 C546 1.463 . S
C543 C548 1.350 . S
C543 N551 1.427 . S
C544 H535 0.930 1_554 S
C544 C542 1.378 . S
C544 C545 1.367 . S
C545 C544 1.367 . S
C545 C547 1.433 . S
C546 C542 1.350 . S
C546 C543 1.463 . S
C546 N550 1.427 . S
C547 H537 0.929 . S
C547 C545 1.433 . S
C547 N550 1.384 . S
C548 H539 0.929 . S
C548 C540 1.378 . S
C548 C543 1.350 . S
C549 H536 0.929 . S
C549 C541 1.433 . S
C549 N551 1.384 . S
N550 C546 1.427 . S
N550 C547 1.384 . S
N551 C543 1.427 . S
N551 C549 1.384 . S
H552 C558 0.930 . S
H553 C562 0.930 . S
H554 C567 0.929 . S
H555 C565 0.929 . S
H556 C560 0.929 . S
H557 C566 0.929 . S
C558 H552 0.930 . S
C558 C559 1.367 . S
C558 C566 1.378 . S
C559 C558 1.367 . S
C559 C567 1.433 . S
C560 H556 0.929 . S
C560 C562 1.378 . S
C560 C564 1.350 . S
C561 C564 1.463 . S
C561 C566 1.350 . S
C561 N569 1.427 . S
C562 H553 0.930 . S
C562 C560 1.378 . S
C562 C563 1.374 . S
C563 C562 1.374 . S
C563 C565 1.430 1_556 S
C564 C560 1.350 . S
C564 C561 1.463 . S
C564 N568 1.433 . S
C565 H555 0.929 . S
C565 C563 1.430 1_554 S
C565 N568 1.381 1_554 S
C566 H557 0.929 . S
C566 C558 1.378 . S
C566 C561 1.350 . S
C567 H554 0.929 . S
C567 C559 1.433 . S
C567 N569 1.384 . S
N568 C564 1.433 . S
N568 C565 1.381 1_556 S
N569 C561 1.427 . S
N569 C567 1.384 . S
H570 C576 0.930 . S
H571 C580 0.930 . S
H572 C585 0.929 . S
H573 C583 0.929 . S
H574 C578 0.929 . S
H575 C584 0.929 . S
C576 H570 0.930 . S
C576 C577 1.367 . S
C576 C584 1.378 . S
C577 C576 1.367 . S
C577 C585 1.433 . S
C578 H574 0.929 . S
C578 C580 1.378 . S
C578 C582 1.350 . S
C579 C582 1.463 . S
C579 C584 1.350 . S
C579 N587 1.427 . S
C580 H571 0.930 . S
C580 C578 1.378 . S
C580 C581 1.367 . S
C581 C580 1.367 . S
C581 C583 1.433 . S
C582 C578 1.350 . S
C582 C579 1.463 . S
C582 N586 1.427 . S
C583 H573 0.929 . S
C583 C581 1.433 . S
C583 N586 1.384 . S
C584 H575 0.929 . S
C584 C576 1.378 . S
C584 C579 1.350 . S
C585 H572 0.929 . S
C585 C577 1.433 . S
C585 N587 1.384 . S
N586 C582 1.427 . S
N586 C583 1.384 . S
N587 C579 1.427 . S
N587 C585 1.384 . S
H588 C594 0.930 . S
H589 C598 0.930 . S
H590 C603 0.929 . S
H591 C601 0.929 . S
H592 C596 0.929 . S
H593 C602 0.929 . S
C594 H588 0.930 . S
C594 C595 1.367 . S
C594 C602 1.378 . S
C595 C594 1.367 . S
C595 C603 1.433 . S
C596 H592 0.929 . S
C596 C598 1.378 . S
C596 C600 1.350 . S
C597 C600 1.463 . S
C597 C602 1.350 . S
C597 N605 1.427 . S
C598 H589 0.930 . S
C598 C596 1.378 . S
C598 C599 1.367 . S
C599 C598 1.367 . S
C599 C601 1.433 . S
C600 C596 1.350 . S
C600 C597 1.463 . S
C600 N604 1.427 . S
C601 H591 0.929 . S
C601 C599 1.433 . S
C601 N604 1.384 . S
C602 H593 0.929 . S
C602 C594 1.378 . S
C602 C597 1.350 . S
C603 H590 0.929 . S
C603 C595 1.433 . S
C603 N605 1.384 . S
N604 C600 1.427 . S
N604 C601 1.384 . S
N605 C597 1.427 . S
N605 C603 1.384 . S
H606 C612 0.930 . S
H607 C616 0.930 . S
H608 C621 0.929 . S
H609 C619 0.929 . S
H610 C614 0.929 . S
H611 C620 0.929 . S
C612 H606 0.930 . S
C612 C613 1.367 . S
C612 C620 1.378 . S
C613 C612 1.367 . S
C613 C621 1.433 . S
C614 H610 0.929 . S
C614 C616 1.378 . S
C614 C618 1.350 . S
C615 C618 1.463 . S
C615 C620 1.350 . S
C615 N623 1.427 . S
C616 H607 0.930 . S
C616 C614 1.378 . S
C616 C617 1.367 . S
C617 C616 1.367 . S
C617 C619 1.433 . S
C618 C614 1.350 . S
C618 C615 1.463 . S
C618 N622 1.427 . S
C619 H609 0.929 . S
C619 C617 1.433 . S
C619 N622 1.384 . S
C620 H611 0.929 . S
C620 C612 1.378 . S
C620 C615 1.350 . S
C621 H608 0.929 . S
C621 C613 1.433 . S
C621 N623 1.384 . S
N622 C618 1.427 . S
N622 C619 1.384 . S
N623 C615 1.427 . S
N623 C621 1.384 . S
H624 C630 0.930 . S
H625 C634 0.930 . S
H626 C639 0.929 . S
H627 C637 0.929 . S
H628 C632 0.929 . S
H629 C638 0.929 . S
C630 H624 0.930 . S
C630 C631 1.367 . S
C630 C638 1.378 . S
C631 C630 1.367 . S
C631 C639 1.433 . S
C632 H628 0.929 . S
C632 C634 1.378 . S
C632 C636 1.350 . S
C633 C636 1.463 . S
C633 C638 1.350 . S
C633 N641 1.427 . S
C634 H625 0.930 . S
C634 C632 1.378 . S
C634 C635 1.367 . S
C635 C634 1.367 . S
C635 C637 1.433 . S
C636 C632 1.350 . S
C636 C633 1.463 . S
C636 N640 1.427 . S
C637 H627 0.929 . S
C637 C635 1.433 . S
C637 N640 1.384 . S
C638 H629 0.929 . S
C638 C630 1.378 . S
C638 C633 1.350 . S
C639 H626 0.929 . S
C639 C631 1.433 . S
C639 N641 1.384 . S
N640 C636 1.427 . S
N640 C637 1.384 . S
N641 C633 1.427 . S
N641 C639 1.384 . S
H642 C648 0.930 . S
H643 C652 0.962 . S
H644 C657 0.929 . S
H645 C655 0.929 . S
H646 C650 0.929 1_556 S
H647 C656 0.929 . S
C648 H642 0.930 . S
C648 C649 1.367 . S
C648 C656 1.378 . S
C649 C648 1.367 . S
C649 C657 1.433 . S
C650 H646 0.929 1_554 S
C650 C652 1.369 1_554 S
C650 C654 1.350 . S
C651 C654 1.463 . S
C651 C656 1.350 . S
C651 N659 1.427 . S
C652 H643 0.962 . S
C652 C650 1.369 1_556 S
C652 C653 1.344 1_556 S
C653 C652 1.344 1_554 S
C653 C655 1.433 . S
C654 C650 1.350 . S
C654 C651 1.463 . S
C654 N658 1.427 . S
C655 H645 0.929 . S
C655 C653 1.433 . S
C655 N658 1.384 . S
C656 H647 0.929 . S
C656 C648 1.378 . S
C656 C651 1.350 . S
C657 H644 0.929 . S
C657 C649 1.433 . S
C657 N659 1.384 . S
N658 C654 1.427 . S
N658 C655 1.384 . S
N659 C651 1.427 . S
N659 C657 1.384 . S
H660 C666 0.930 . S
H661 C670 0.930 . S
H662 C675 0.929 . S
H663 C673 0.929 . S
H664 C668 0.929 . S
H665 C674 0.929 . S
C666 H660 0.930 . S
C666 C667 1.367 . S
C666 C674 1.378 . S
C667 C666 1.367 . S
C667 C675 1.433 . S
C668 H664 0.929 . S
C668 C670 1.378 . S
C668 C672 1.350 . S
C669 C672 1.463 . S
C669 C674 1.350 . S
C669 N677 1.427 . S
C670 H661 0.930 . S
C670 C668 1.378 . S
C670 C671 1.367 . S
C671 C670 1.367 . S
C671 C673 1.433 . S
C672 C668 1.350 . S
C672 C669 1.463 . S
C672 N676 1.427 . S
C673 H663 0.929 . S
C673 C671 1.433 . S
C673 N676 1.384 . S
C674 H665 0.929 . S
C674 C666 1.378 . S
C674 C669 1.350 . S
C675 H662 0.929 . S
C675 C667 1.433 . S
C675 N677 1.384 . S
N676 C672 1.427 . S
N676 C673 1.384 . S
N677 C669 1.427 . S
N677 C675 1.384 . S
H678 C684 0.930 . S
H679 C688 0.930 . S
H680 C693 0.929 . S
H681 C691 0.929 . S
H682 C686 0.929 . S
H683 C692 0.929 . S
C684 H678 0.930 . S
C684 C685 1.367 . S
C684 C692 1.378 . S
C685 C684 1.367 . S
C685 C693 1.433 . S
C686 H682 0.929 . S
C686 C688 1.378 . S
C686 C690 1.350 . S
C687 C690 1.463 . S
C687 C692 1.350 . S
C687 N695 1.427 . S
C688 H679 0.930 . S
C688 C686 1.378 . S
C688 C689 1.367 . S
C689 C688 1.367 . S
C689 C691 1.433 . S
C690 C686 1.350 . S
C690 C687 1.463 . S
C690 N694 1.427 . S
C691 H681 0.929 . S
C691 C689 1.433 . S
C691 N694 1.384 . S
C692 H683 0.929 . S
C692 C684 1.378 . S
C692 C687 1.350 . S
C693 H680 0.929 . S
C693 C685 1.433 . S
C693 N695 1.384 . S
N694 C690 1.427 . S
N694 C691 1.384 . S
N695 C687 1.427 . S
N695 C693 1.384 . S
H696 C702 0.930 . S
H697 C706 0.930 . S
H698 C711 0.929 . S
H699 C709 0.929 . S
H700 C704 0.929 . S
H701 C710 0.929 . S
C702 H696 0.930 . S
C702 C703 1.367 . S
C702 C710 1.378 . S
C703 C702 1.367 . S
C703 C711 1.433 . S
C704 H700 0.929 . S
C704 C706 1.378 . S
C704 C708 1.350 . S
C705 C708 1.463 . S
C705 C710 1.350 . S
C705 N713 1.427 . S
C706 H697 0.930 . S
C706 C704 1.378 . S
C706 C707 1.367 . S
C707 C706 1.367 . S
C707 C709 1.433 . S
C708 C704 1.350 . S
C708 C705 1.463 . S
C708 N712 1.427 . S
C709 H699 0.929 . S
C709 C707 1.433 . S
C709 N712 1.384 . S
C710 H701 0.929 . S
C710 C702 1.378 . S
C710 C705 1.350 . S
C711 H698 0.929 . S
C711 C703 1.433 . S
C711 N713 1.384 . S
N712 C708 1.427 . S
N712 C709 1.384 . S
N713 C705 1.427 . S
N713 C711 1.384 . S
H714 C720 0.930 . S
H715 C724 0.930 . S
H716 C729 0.929 . S
H717 C727 0.929 . S
H718 C722 0.929 . S
H719 C728 0.929 . S
C720 H714 0.930 . S
C720 C721 1.367 . S
C720 C728 1.378 . S
C721 C720 1.367 . S
C721 C729 1.433 . S
C722 H718 0.929 . S
C722 C724 1.378 . S
C722 C726 1.350 . S
C723 C726 1.463 . S
C723 C728 1.350 . S
C723 N731 1.427 . S
C724 H715 0.930 . S
C724 C722 1.378 . S
C724 C725 1.367 . S
C725 C724 1.367 . S
C725 C727 1.433 . S
C726 C722 1.350 . S
C726 C723 1.463 . S
C726 N730 1.427 . S
C727 H717 0.929 . S
C727 C725 1.433 . S
C727 N730 1.384 . S
C728 H719 0.929 . S
C728 C720 1.378 . S
C728 C723 1.350 . S
C729 H716 0.929 . S
C729 C721 1.433 . S
C729 N731 1.384 . S
N730 C726 1.427 . S
N730 C727 1.384 . S
N731 C723 1.427 . S
N731 C729 1.384 . S
H732 C738 0.930 . S
H733 C742 0.930 . S
H734 C747 0.929 . S
H735 C745 0.929 . S
H736 C740 0.929 . S
H737 C746 0.929 . S
C738 H732 0.930 . S
C738 C739 1.367 . S
C738 C746 1.378 . S
C739 C738 1.367 . S
C739 C747 1.433 . S
C740 H736 0.929 . S
C740 C742 1.378 . S
C740 C744 1.350 1_554 S
C741 C744 1.463 . S
C741 C746 1.350 . S
C741 N749 1.427 . S
C742 H733 0.930 . S
C742 C740 1.378 . S
C742 C743 1.367 1_554 S
C743 C742 1.367 1_556 S
C743 C745 1.433 . S
C744 C740 1.350 1_556 S
C744 C741 1.463 . S
C744 N748 1.427 . S
C745 H735 0.929 . S
C745 C743 1.433 . S
C745 N748 1.384 . S
C746 H737 0.929 . S
C746 C738 1.378 . S
C746 C741 1.350 . S
C747 H734 0.929 . S
C747 C739 1.433 . S
C747 N749 1.384 . S
N748 C744 1.427 . S
N748 C745 1.384 . S
N749 C741 1.427 . S
N749 C747 1.384 . S
H750 C756 0.930 . S
H751 C760 0.930 . S
H752 C765 0.929 . S
H753 C763 0.929 . S
H754 C758 0.929 . S
H755 C764 0.929 . S
C756 H750 0.930 . S
C756 C757 1.367 . S
C756 C764 1.378 . S
C757 C756 1.367 . S
C757 C765 1.433 . S
C758 H754 0.929 . S
C758 C760 1.378 . S
C758 C762 1.350 . S
C759 C762 1.463 . S
C759 C764 1.350 . S
C759 N767 1.427 . S
C760 H751 0.930 . S
C760 C758 1.378 . S
C760 C761 1.367 . S
C761 C760 1.367 . S
C761 C763 1.433 . S
C762 C758 1.350 . S
C762 C759 1.463 . S
C762 N766 1.427 . S
C763 H753 0.929 . S
C763 C761 1.433 . S
C763 N766 1.384 . S
C764 H755 0.929 . S
C764 C756 1.378 . S
C764 C759 1.350 . S
C765 H752 0.929 . S
C765 C757 1.433 . S
C765 N767 1.384 . S
N766 C762 1.427 . S
N766 C763 1.384 . S
N767 C759 1.427 . S
N767 C765 1.384 . S
H768 C774 0.930 . S
H769 C778 0.930 . S
H770 C783 0.929 . S
H771 C781 0.929 . S
H772 C776 0.929 . S
H773 C782 0.929 . S
C774 H768 0.930 . S
C774 C775 1.367 . S
C774 C782 1.378 . S
C775 C774 1.367 . S
C775 C783 1.433 . S
C776 H772 0.929 . S
C776 C778 1.378 . S
C776 C780 1.350 . S
C777 C780 1.463 . S
C777 C782 1.350 . S
C777 N785 1.427 . S
C778 H769 0.930 . S
C778 C776 1.378 . S
C778 C779 1.367 . S
C779 C778 1.367 . S
C779 C781 1.433 . S
C780 C776 1.350 . S
C780 C777 1.463 . S
C780 N784 1.427 . S
C781 H771 0.929 . S
C781 C779 1.433 . S
C781 N784 1.384 . S
C782 H773 0.929 . S
C782 C774 1.378 . S
C782 C777 1.350 . S
C783 H770 0.929 . S
C783 C775 1.433 . S
C783 N785 1.384 . S
N784 C780 1.427 . S
N784 C781 1.384 . S
N785 C777 1.427 . S
N785 C783 1.384 . S
H786 C792 0.930 . S
H787 C796 0.930 . S
H788 C801 0.929 . S
H789 C799 0.929 . S
H790 C794 0.929 . S
H791 C800 0.929 . S
C792 H786 0.930 . S
C792 C793 1.367 . S
C792 C800 1.378 . S
C793 C792 1.367 . S
C793 C801 1.433 . S
C794 H790 0.929 . S
C794 C796 1.378 . S
C794 C798 1.350 . S
C795 C798 1.463 . S
C795 C800 1.350 . S
C795 N803 1.427 . S
C796 H787 0.930 . S
C796 C794 1.378 . S
C796 C797 1.367 . S
C797 C796 1.367 . S
C797 C799 1.433 . S
C798 C794 1.350 . S
C798 C795 1.463 . S
C798 N802 1.427 . S
C799 H789 0.929 . S
C799 C797 1.433 . S
C799 N802 1.384 . S
C800 H791 0.929 . S
C800 C792 1.378 . S
C800 C795 1.350 . S
C801 H788 0.929 . S
C801 C793 1.433 . S
C801 N803 1.384 . S
N802 C798 1.427 . S
N802 C799 1.384 . S
N803 C795 1.427 . S
N803 C801 1.384 . S
H804 C810 0.930 . S
H805 C814 0.930 . S
H806 C819 0.929 . S
H807 C817 0.929 . S
H808 C812 0.929 . S
H809 C818 0.929 . S
C810 H804 0.930 . S
C810 C811 1.367 . S
C810 C818 1.378 . S
C811 C810 1.367 . S
C811 C819 1.433 . S
C812 H808 0.929 . S
C812 C814 1.378 . S
C812 C816 1.350 . S
C813 C816 1.463 . S
C813 C818 1.350 . S
C813 N821 1.427 . S
C814 H805 0.930 . S
C814 C812 1.378 . S
C814 C815 1.367 . S
C815 C814 1.367 . S
C815 C817 1.433 . S
C816 C812 1.350 . S
C816 C813 1.463 . S
C816 N820 1.427 . S
C817 H807 0.929 . S
C817 C815 1.433 . S
C817 N820 1.384 . S
C818 H809 0.929 . S
C818 C810 1.378 . S
C818 C813 1.350 . S
C819 H806 0.929 . S
C819 C811 1.433 . S
C819 N821 1.384 . S
N820 C816 1.427 . S
N820 C817 1.384 . S
N821 C813 1.427 . S
N821 C819 1.384 . S
H822 C828 0.930 . S
H823 C832 0.930 . S
H824 C837 0.929 . S
H825 C835 0.929 . S
H826 C830 0.929 . S
H827 C836 0.929 . S
C828 H822 0.930 . S
C828 C829 1.367 . S
C828 C836 1.378 . S
C829 C828 1.367 . S
C829 C837 1.433 . S
C830 H826 0.929 . S
C830 C832 1.378 . S
C830 C834 1.350 . S
C831 C834 1.463 . S
C831 C836 1.350 . S
C831 N839 1.427 . S
C832 H823 0.930 . S
C832 C830 1.378 . S
C832 C833 1.367 . S
C833 C832 1.367 . S
C833 C835 1.433 . S
C834 C830 1.350 . S
C834 C831 1.463 . S
C834 N838 1.427 . S
C835 H825 0.929 . S
C835 C833 1.433 . S
C835 N838 1.384 . S
C836 H827 0.929 . S
C836 C828 1.378 . S
C836 C831 1.350 . S
C837 H824 0.929 . S
C837 C829 1.433 . S
C837 N839 1.384 . S
N838 C834 1.427 . S
N838 C835 1.384 . S
N839 C831 1.427 . S
N839 C837 1.384 . S
H840 C846 0.930 . S
H841 C850 0.930 . S
H842 C855 0.929 . S
H843 C853 0.929 . S
H844 C848 0.929 . S
H845 C854 0.929 . S
C846 H840 0.930 . S
C846 C847 1.367 . S
C846 C854 1.378 . S
C847 C846 1.367 . S
C847 C855 1.433 . S
C848 H844 0.929 . S
C848 C850 1.378 . S
C848 C852 1.350 . S
C849 C852 1.463 . S
C849 C854 1.350 . S
C849 N857 1.427 . S
C850 H841 0.930 . S
C850 C848 1.378 . S
C850 C851 1.367 . S
C851 C850 1.367 . S
C851 C853 1.433 . S
C852 C848 1.350 . S
C852 C849 1.463 . S
C852 N856 1.427 . S
C853 H843 0.929 . S
C853 C851 1.433 . S
C853 N856 1.384 . S
C854 H845 0.929 . S
C854 C846 1.378 . S
C854 C849 1.350 . S
C855 H842 0.929 . S
C855 C847 1.433 . S
C855 N857 1.384 . S
N856 C852 1.427 . S
N856 C853 1.384 . S
N857 C849 1.427 . S
N857 C855 1.384 . S
H858 C864 0.930 . S
H859 C868 0.930 . S
H860 C873 0.929 . S
H861 C871 0.929 . S
H862 C866 0.929 . S
H863 C872 0.929 . S
C864 H858 0.930 . S
C864 C865 1.367 . S
C864 C872 1.378 . S
C865 C864 1.367 . S
C865 C873 1.433 . S
C866 H862 0.929 . S
C866 C868 1.378 . S
C866 C870 1.350 . S
C867 C870 1.463 . S
C867 C872 1.350 . S
C867 N875 1.427 . S
C868 H859 0.930 . S
C868 C866 1.378 . S
C868 C869 1.367 . S
C869 C868 1.367 . S
C869 C871 1.433 . S
C870 C866 1.350 . S
C870 C867 1.463 . S
C870 N874 1.427 . S
C871 H861 0.929 . S
C871 C869 1.433 . S
C871 N874 1.384 . S
C872 H863 0.929 . S
C872 C864 1.378 . S
C872 C867 1.350 . S
C873 H860 0.929 . S
C873 C865 1.433 . S
C873 N875 1.384 . S
N874 C870 1.427 . S
N874 C871 1.384 . S
N875 C867 1.427 . S
N875 C873 1.384 . S
H876 C882 0.930 . S
H877 C886 0.930 . S
H878 C891 0.929 . S
H879 C889 0.929 . S
H880 C884 0.929 . S
H881 C890 0.929 . S
C882 H876 0.930 . S
C882 C883 1.367 . S
C882 C890 1.378 . S
C883 C882 1.367 . S
C883 C891 1.433 . S
C884 H880 0.929 . S
C884 C886 1.378 . S
C884 C888 1.350 . S
C885 C888 1.463 . S
C885 C890 1.350 . S
C885 N893 1.427 . S
C886 H877 0.930 . S
C886 C884 1.378 . S
C886 C887 1.367 . S
C887 C886 1.367 . S
C887 C889 1.433 . S
C888 C884 1.350 . S
C888 C885 1.463 . S
C888 N892 1.427 . S
C889 H879 0.929 . S
C889 C887 1.433 . S
C889 N892 1.384 . S
C890 H881 0.929 . S
C890 C882 1.378 . S
C890 C885 1.350 . S
C891 H878 0.929 . S
C891 C883 1.433 . S
C891 N893 1.384 . S
N892 C888 1.427 . S
N892 C889 1.384 . S
N893 C885 1.427 . S
N893 C891 1.384 . S
H894 C900 0.930 . S
H895 C904 0.930 . S
H896 C909 0.929 . S
H897 C907 0.929 . S
H898 C902 0.929 . S
H899 C908 0.929 . S
C900 H894 0.930 . S
C900 C901 1.367 . S
C900 C908 1.378 . S
C901 C900 1.367 . S
C901 C909 1.433 . S
C902 H898 0.929 . S
C902 C904 1.378 . S
C902 C906 1.350 . S
C903 C906 1.463 . S
C903 C908 1.350 . S
C903 N911 1.427 . S
C904 H895 0.930 . S
C904 C902 1.378 . S
C904 C905 1.367 . S
C905 C904 1.367 . S
C905 C907 1.433 . S
C906 C902 1.350 . S
C906 C903 1.463 . S
C906 N910 1.427 . S
C907 H897 0.929 . S
C907 C905 1.433 . S
C907 N910 1.384 . S
C908 H899 0.929 . S
C908 C900 1.378 . S
C908 C903 1.350 . S
C909 H896 0.929 . S
C909 C901 1.433 . S
C909 N911 1.384 . S
N910 C906 1.427 . S
N910 C907 1.384 . S
N911 C903 1.427 . S
N911 C909 1.384 . S
H912 C918 0.930 . S
H913 C922 0.930 . S
H914 C927 0.929 . S
H915 C925 0.929 . S
H916 C920 0.929 . S
H917 C926 0.929 . S
C918 H912 0.930 . S
C918 C919 1.367 . S
C918 C926 1.378 . S
C919 C918 1.367 . S
C919 C927 1.433 . S
C920 H916 0.929 . S
C920 C922 1.378 . S
C920 C924 1.350 . S
C921 C924 1.463 . S
C921 C926 1.350 . S
C921 N929 1.427 . S
C922 H913 0.930 . S
C922 C920 1.378 . S
C922 C923 1.367 . S
C923 C922 1.367 . S
C923 C925 1.433 . S
C924 C920 1.350 . S
C924 C921 1.463 . S
C924 N928 1.427 . S
C925 H915 0.929 . S
C925 C923 1.433 . S
C925 N928 1.384 . S
C926 H917 0.929 . S
C926 C918 1.378 . S
C926 C921 1.350 . S
C927 H914 0.929 . S
C927 C919 1.433 . S
C927 N929 1.384 . S
N928 C924 1.427 . S
N928 C925 1.384 . S
N929 C921 1.427 . S
N929 C927 1.384 . S
H930 C936 0.930 . S
H931 C940 0.930 . S
H932 C945 0.929 . S
H933 C943 0.929 . S
H934 C938 0.929 . S
H935 C944 0.929 . S
C936 H930 0.930 . S
C936 C937 1.367 . S
C936 C944 1.378 . S
C937 C936 1.367 . S
C937 C945 1.433 . S
C938 H934 0.929 . S
C938 C940 1.378 . S
C938 C942 1.350 . S
C939 C942 1.463 . S
C939 C944 1.350 . S
C939 N947 1.427 . S
C940 H931 0.930 . S
C940 C938 1.378 . S
C940 C941 1.367 . S
C941 C940 1.367 . S
C941 C943 1.433 . S
C942 C938 1.350 . S
C942 C939 1.463 . S
C942 N946 1.427 . S
C943 H933 0.929 . S
C943 C941 1.433 . S
C943 N946 1.384 . S
C944 H935 0.929 . S
C944 C936 1.378 . S
C944 C939 1.350 . S
C945 H932 0.929 . S
C945 C937 1.433 . S
C945 N947 1.384 . S
N946 C942 1.427 . S
N946 C943 1.384 . S
N947 C939 1.427 . S
N947 C945 1.384 . S
H948 C954 0.930 . S
H949 C958 0.930 . S
H950 C963 0.929 . S
H951 C961 0.929 . S
H952 C956 0.929 . S
H953 C962 0.929 . S
C954 H948 0.930 . S
C954 C955 1.367 . S
C954 C962 1.378 . S
C955 C954 1.367 . S
C955 C963 1.433 . S
C956 H952 0.929 . S
C956 C958 1.378 . S
C956 C960 1.350 . S
C957 C960 1.463 . S
C957 C962 1.350 . S
C957 N965 1.427 . S
C958 H949 0.930 . S
C958 C956 1.378 . S
C958 C959 1.367 . S
C959 C958 1.367 . S
C959 C961 1.433 . S
C960 C956 1.350 . S
C960 C957 1.463 . S
C960 N964 1.427 . S
C961 H951 0.929 . S
C961 C959 1.433 . S
C961 N964 1.384 . S
C962 H953 0.929 . S
C962 C954 1.378 . S
C962 C957 1.350 . S
C963 H950 0.929 . S
C963 C955 1.433 . S
C963 N965 1.384 . S
N964 C960 1.427 . S
N964 C961 1.384 . S
N965 C957 1.427 . S
N965 C963 1.384 . S
H966 C972 0.930 . S
H967 C976 0.930 . S
H968 C981 0.929 . S
H969 C979 0.929 . S
H970 C974 0.929 . S
H971 C980 0.929 . S
C972 H966 0.930 . S
C972 C973 1.367 . S
C972 C980 1.378 . S
C973 C972 1.367 . S
C973 C981 1.433 . S
C974 H970 0.929 . S
C974 C976 1.378 . S
C974 C978 1.350 . S
C975 C978 1.463 . S
C975 C980 1.350 . S
C975 N983 1.427 . S
C976 H967 0.930 . S
C976 C974 1.378 . S
C976 C977 1.367 . S
C977 C976 1.367 . S
C977 C979 1.433 . S
C978 C974 1.350 . S
C978 C975 1.463 . S
C978 N982 1.427 . S
C979 H969 0.929 . S
C979 C977 1.433 . S
C979 N982 1.384 . S
C980 H971 0.929 . S
C980 C972 1.378 . S
C980 C975 1.350 . S
C981 H968 0.929 . S
C981 C973 1.433 . S
C981 N983 1.384 . S
N982 C978 1.427 . S
N982 C979 1.384 . S
N983 C975 1.427 . S
N983 C981 1.384 . S
H984 C990 0.930 . S
H985 C994 0.930 . S
H986 C999 0.929 . S
H987 C997 0.929 . S
H988 C992 0.929 . S
H989 C998 0.929 . S
C990 H984 0.930 . S
C990 C991 1.367 . S
C990 C998 1.378 . S
C991 C990 1.367 . S
C991 C999 1.433 . S
C992 H988 0.929 . S
C992 C994 1.378 . S
C992 C996 1.350 . S
C993 C996 1.463 . S
C993 C998 1.350 . S
C993 N1001 1.427 . S
C994 H985 0.930 . S
C994 C992 1.378 . S
C994 C995 1.367 . S
C995 C994 1.367 . S
C995 C997 1.433 . S
C996 C992 1.350 . S
C996 C993 1.463 . S
C996 N1000 1.427 . S
C997 H987 0.929 . S
C997 C995 1.433 . S
C997 N1000 1.384 . S
C998 H989 0.929 . S
C998 C990 1.378 . S
C998 C993 1.350 . S
C999 H986 0.929 . S
C999 C991 1.433 . S
C999 N1001 1.384 . S
N1000 C996 1.427 . S
N1000 C997 1.384 . S
N1001 C993 1.427 . S
N1001 C999 1.384 . S
H1002 C1008 0.930 . S
H1003 C1012 0.930 . S
H1004 C1017 0.929 . S
H1005 C1015 0.929 . S
H1006 C1010 0.929 . S
H1007 C1016 0.929 . S
C1008 H1002 0.930 . S
C1008 C1009 1.367 . S
C1008 C1016 1.378 . S
C1009 C1008 1.367 . S
C1009 C1017 1.433 . S
C1010 H1006 0.929 . S
C1010 C1012 1.378 . S
C1010 C1014 1.350 . S
C1011 C1014 1.463 . S
C1011 C1016 1.350 . S
C1011 N1019 1.427 . S
C1012 H1003 0.930 . S
C1012 C1010 1.378 . S
C1012 C1013 1.367 . S
C1013 C1012 1.367 . S
C1013 C1015 1.433 . S
C1014 C1010 1.350 . S
C1014 C1011 1.463 . S
C1014 N1018 1.427 . S
C1015 H1005 0.929 . S
C1015 C1013 1.433 . S
C1015 N1018 1.384 . S
C1016 H1007 0.929 . S
C1016 C1008 1.378 . S
C1016 C1011 1.350 . S
C1017 H1004 0.929 . S
C1017 C1009 1.433 . S
C1017 N1019 1.384 . S
N1018 C1014 1.427 . S
N1018 C1015 1.384 . S
N1019 C1011 1.427 . S
N1019 C1017 1.384 . S
H1020 C1026 0.930 . S
H1021 C1030 0.930 . S
H1022 C1035 0.929 . S
H1023 C1033 0.929 . S
H1024 C1028 0.929 . S
H1025 C1034 0.929 . S
C1026 H1020 0.930 . S
C1026 C1027 1.367 . S
C1026 C1034 1.378 . S
C1027 C1026 1.367 . S
C1027 C1035 1.433 . S
C1028 H1024 0.929 . S
C1028 C1030 1.378 . S
C1028 C1032 1.350 . S
C1029 C1032 1.463 . S
C1029 C1034 1.350 . S
C1029 N1037 1.427 . S
C1030 H1021 0.930 . S
C1030 C1028 1.378 . S
C1030 C1031 1.367 . S
C1031 C1030 1.367 . S
C1031 C1033 1.433 . S
C1032 C1028 1.350 . S
C1032 C1029 1.463 . S
C1032 N1036 1.427 . S
C1033 H1023 0.929 . S
C1033 C1031 1.433 . S
C1033 N1036 1.384 . S
C1034 H1025 0.929 . S
C1034 C1026 1.378 . S
C1034 C1029 1.350 . S
C1035 H1022 0.929 . S
C1035 C1027 1.433 . S
C1035 N1037 1.384 . S
N1036 C1032 1.427 . S
N1036 C1033 1.384 . S
N1037 C1029 1.427 . S
N1037 C1035 1.384 . S
H1038 C1044 0.930 . S
H1039 C1048 0.930 . S
H1040 C1053 0.929 . S
H1041 C1051 0.929 . S
H1042 C1046 0.929 . S
H1043 C1052 0.929 . S
C1044 H1038 0.930 . S
C1044 C1045 1.367 . S
C1044 C1052 1.378 . S
C1045 C1044 1.367 . S
C1045 C1053 1.433 . S
C1046 H1042 0.929 . S
C1046 C1048 1.378 . S
C1046 C1050 1.350 . S
C1047 C1050 1.463 . S
C1047 C1052 1.350 . S
C1047 N1055 1.427 . S
C1048 H1039 0.930 . S
C1048 C1046 1.378 . S
C1048 C1049 1.367 . S
C1049 C1048 1.367 . S
C1049 C1051 1.433 . S
C1050 C1046 1.350 . S
C1050 C1047 1.463 . S
C1050 N1054 1.427 . S
C1051 H1041 0.929 . S
C1051 C1049 1.433 . S
C1051 N1054 1.384 . S
C1052 H1043 0.929 . S
C1052 C1044 1.378 . S
C1052 C1047 1.350 . S
C1053 H1040 0.929 . S
C1053 C1045 1.433 . S
C1053 N1055 1.384 . S
N1054 C1050 1.427 . S
N1054 C1051 1.384 . S
N1055 C1047 1.427 . S
N1055 C1053 1.384 . S
C491 C393 1.322 . S
C487 C8 1.280 . S
C509 C407 1.330 . S
C505 C61 1.293 . S
C527 C415 1.374 . S
C523 C107 1.342 . S
C541 C139 1.302 . S
C545 C373 1.334 . S
C559 C192 1.245 . S
C563 C379 1.265 1_556 S
C577 C238 1.239 . S
C581 C387 1.262 . S
C599 C401 1.387 . S
C595 C284 1.343 . S
C617 C421 1.347 . S
C613 C330 1.323 . S
C631 C100 1.260 . S
C635 C449 1.282 . S
C653 C463 1.379 . S
C649 C160 1.327 . S
C667 C15 1.248 . S
C671 C471 1.274 . S
C689 C435 1.223 . S
C685 C54 1.204 . S
C703 C291 1.326 . S
C707 C429 1.345 . S
C721 C337 1.355 . S
C725 C443 1.372 . S
C743 C457 1.363 . S
C739 C199 1.331 . S
C757 C245 1.340 . S
C761 C477 1.370 . S
C779 C396 1.668 . S
C775 C1 1.705 . S
C797 C419 1.695 . S
C793 C68 1.700 . S
C811 C114 1.724 . S
C815 C377 1.718 . S
C829 C146 1.749 . S
C833 C382 1.699 . S
C847 C185 1.638 . S
C851 C410 1.578 . S
C869 C368 1.594 . S
C865 C231 1.643 . S
C887 C391 1.636 . S
C883 C277 1.651 . S
C905 C405 1.640 . S
C901 C323 1.656 . S
C923 C452 1.592 . S
C919 C93 1.638 . S
C941 C475 1.630 . S
C937 C153 1.643 . S
C955 C22 1.620 . S
C959 C424 1.582 . S
C977 C438 1.565 . S
C973 C47 1.621 . S
C995 C466 1.699 . S
C991 C298 1.730 . S
C1009 C344 1.746 . S
C1013 C433 1.744 . S
C1031 C447 1.727 . S
C1027 C206 1.728 . S
C1049 C461 1.709 . S
C1045 C252 1.711 . S
