# Generated by pormake.
# Topology ctn, (3,4)-cn, num edge types: 1
# Building blocks:
#     Node 0, Type 0, BuildingBlock: BETDIP_clean_linker_0, # of connection points: 3
#     Node 1, Type 0, BuildingBlock: BETDIP_clean_linker_0, # of connection points: 3
#     Node 2, Type 0, BuildingBlock: BETDIP_clean_linker_0, # of connection points: 3
#     Node 3, Type 0, BuildingBlock: BETDIP_clean_linker_0, # of connection points: 3
#     Node 4, Type 0, BuildingBlock: BETDIP_clean_linker_0, # of connection points: 3
#     Node 5, Type 0, BuildingBlock: BETDIP_clean_linker_0, # of connection points: 3
#     Node 6, Type 0, BuildingBlock: BETDIP_clean_linker_0, # of connection points: 3
#     Node 7, Type 0, BuildingBlock: BETDIP_clean_linker_0, # of connection points: 3
#     Node 8, Type 0, BuildingBlock: BETDIP_clean_linker_0, # of connection points: 3
#     Node 9, Type 0, BuildingBlock: BETDIP_clean_linker_0, # of connection points: 3
#     Node 10, Type 0, BuildingBlock: BETDIP_clean_linker_0, # of connection points: 3
#     Node 11, Type 0, BuildingBlock: BETDIP_clean_linker_0, # of connection points: 3
#     Node 12, Type 0, BuildingBlock: BETDIP_clean_linker_0, # of connection points: 3
#     Node 13, Type 0, BuildingBlock: BETDIP_clean_linker_0, # of connection points: 3
#     Node 14, Type 0, BuildingBlock: BETDIP_clean_linker_0, # of connection points: 3
#     Node 15, Type 0, BuildingBlock: BETDIP_clean_linker_0, # of connection points: 3
#     Node 16, Type 1, BuildingBlock: KUFVIS_clean_sbu_0, # of connection points: 4
#     Node 17, Type 1, BuildingBlock: KUFVIS_clean_sbu_0, # of connection points: 4
#     Node 18, Type 1, BuildingBlock: KUFVIS_clean_sbu_0, # of connection points: 4
#     Node 19, Type 1, BuildingBlock: KUFVIS_clean_sbu_0, # of connection points: 4
#     Node 20, Type 1, BuildingBlock: KUFVIS_clean_sbu_0, # of connection points: 4
#     Node 21, Type 1, BuildingBlock: KUFVIS_clean_sbu_0, # of connection points: 4
#     Node 22, Type 1, BuildingBlock: KUFVIS_clean_sbu_0, # of connection points: 4
#     Node 23, Type 1, BuildingBlock: KUFVIS_clean_sbu_0, # of connection points: 4
#     Node 24, Type 1, BuildingBlock: KUFVIS_clean_sbu_0, # of connection points: 4
#     Node 25, Type 1, BuildingBlock: KUFVIS_clean_sbu_0, # of connection points: 4
#     Node 26, Type 1, BuildingBlock: KUFVIS_clean_sbu_0, # of connection points: 4
#     Node 27, Type 1, BuildingBlock: KUFVIS_clean_sbu_0, # of connection points: 4
#     Edge 28, Type (0, 1), BuildingBlock: CIFDUS_clean_linker_0, # of connection points: 2
#     Edge 29, Type (0, 1), BuildingBlock: CIFDUS_clean_linker_0, # of connection points: 2
#     Edge 30, Type (0, 1), BuildingBlock: CIFDUS_clean_linker_0, # of connection points: 2
#     Edge 31, Type (0, 1), BuildingBlock: CIFDUS_clean_linker_0, # of connection points: 2
#     Edge 32, Type (0, 1), BuildingBlock: CIFDUS_clean_linker_0, # of connection points: 2
#     Edge 33, Type (0, 1), BuildingBlock: CIFDUS_clean_linker_0, # of connection points: 2
#     Edge 34, Type (0, 1), BuildingBlock: CIFDUS_clean_linker_0, # of connection points: 2
#     Edge 35, Type (0, 1), BuildingBlock: CIFDUS_clean_linker_0, # of connection points: 2
#     Edge 36, Type (0, 1), BuildingBlock: CIFDUS_clean_linker_0, # of connection points: 2
#     Edge 37, Type (0, 1), BuildingBlock: CIFDUS_clean_linker_0, # of connection points: 2
#     Edge 38, Type (0, 1), BuildingBlock: CIFDUS_clean_linker_0, # of connection points: 2
#     Edge 39, Type (0, 1), BuildingBlock: CIFDUS_clean_linker_0, # of connection points: 2
#     Edge 40, Type (0, 1), BuildingBlock: CIFDUS_clean_linker_0, # of connection points: 2
#     Edge 41, Type (0, 1), BuildingBlock: CIFDUS_clean_linker_0, # of connection points: 2
#     Edge 42, Type (0, 1), BuildingBlock: CIFDUS_clean_linker_0, # of connection points: 2
#     Edge 43, Type (0, 1), BuildingBlock: CIFDUS_clean_linker_0, # of connection points: 2
#     Edge 44, Type (0, 1), BuildingBlock: CIFDUS_clean_linker_0, # of connection points: 2
#     Edge 45, Type (0, 1), BuildingBlock: CIFDUS_clean_linker_0, # of connection points: 2
#     Edge 46, Type (0, 1), BuildingBlock: CIFDUS_clean_linker_0, # of connection points: 2
#     Edge 47, Type (0, 1), BuildingBlock: CIFDUS_clean_linker_0, # of connection points: 2
#     Edge 48, Type (0, 1), BuildingBlock: CIFDUS_clean_linker_0, # of connection points: 2
#     Edge 49, Type (0, 1), BuildingBlock: CIFDUS_clean_linker_0, # of connection points: 2
#     Edge 50, Type (0, 1), BuildingBlock: CIFDUS_clean_linker_0, # of connection points: 2
#     Edge 51, Type (0, 1), BuildingBlock: CIFDUS_clean_linker_0, # of connection points: 2
#     Edge 52, Type (0, 1), BuildingBlock: CIFDUS_clean_linker_0, # of connection points: 2
#     Edge 53, Type (0, 1), BuildingBlock: CIFDUS_clean_linker_0, # of connection points: 2
#     Edge 54, Type (0, 1), BuildingBlock: CIFDUS_clean_linker_0, # of connection points: 2
#     Edge 55, Type (0, 1), BuildingBlock: CIFDUS_clean_linker_0, # of connection points: 2
#     Edge 56, Type (0, 1), BuildingBlock: CIFDUS_clean_linker_0, # of connection points: 2
#     Edge 57, Type (0, 1), BuildingBlock: CIFDUS_clean_linker_0, # of connection points: 2
#     Edge 58, Type (0, 1), BuildingBlock: CIFDUS_clean_linker_0, # of connection points: 2
#     Edge 59, Type (0, 1), BuildingBlock: CIFDUS_clean_linker_0, # of connection points: 2
#     Edge 60, Type (0, 1), BuildingBlock: CIFDUS_clean_linker_0, # of connection points: 2
#     Edge 61, Type (0, 1), BuildingBlock: CIFDUS_clean_linker_0, # of connection points: 2
#     Edge 62, Type (0, 1), BuildingBlock: CIFDUS_clean_linker_0, # of connection points: 2
#     Edge 63, Type (0, 1), BuildingBlock: CIFDUS_clean_linker_0, # of connection points: 2
#     Edge 64, Type (0, 1), BuildingBlock: CIFDUS_clean_linker_0, # of connection points: 2
#     Edge 65, Type (0, 1), BuildingBlock: CIFDUS_clean_linker_0, # of connection points: 2
#     Edge 66, Type (0, 1), BuildingBlock: CIFDUS_clean_linker_0, # of connection points: 2
#     Edge 67, Type (0, 1), BuildingBlock: CIFDUS_clean_linker_0, # of connection points: 2
#     Edge 68, Type (0, 1), BuildingBlock: CIFDUS_clean_linker_0, # of connection points: 2
#     Edge 69, Type (0, 1), BuildingBlock: CIFDUS_clean_linker_0, # of connection points: 2
#     Edge 70, Type (0, 1), BuildingBlock: CIFDUS_clean_linker_0, # of connection points: 2
#     Edge 71, Type (0, 1), BuildingBlock: CIFDUS_clean_linker_0, # of connection points: 2
#     Edge 72, Type (0, 1), BuildingBlock: CIFDUS_clean_linker_0, # of connection points: 2
#     Edge 73, Type (0, 1), BuildingBlock: CIFDUS_clean_linker_0, # of connection points: 2
#     Edge 74, Type (0, 1), BuildingBlock: CIFDUS_clean_linker_0, # of connection points: 2
#     Edge 75, Type (0, 1), BuildingBlock: CIFDUS_clean_linker_0, # of connection points: 2
# Relax obj value: 0.080
# Max RMSD: 0.188
# Mean RMSD: 0.122
data_MOF--net-ctn--node1-KUFVIS_clean_sbu_0--node2-BETDIP_clean_linker_0--edge1-CIFDUS_clean_linker_0
_symmetry_space_group_name_H-M    P1
_symmetry_Int_Tables_number       1
_symmetry_cell_setting            triclinic
loop_
_symmetry_equiv_pos_as_xyz
'x, y, z'
_cell_length_a     44.522199
_cell_length_b     44.86801
_cell_length_c     49.609886
_cell_angle_alpha  94.866921
_cell_angle_beta   94.140864
_cell_angle_gamma 94.382609
loop_
_atom_site_label
_atom_site_type_symbol
_atom_site_fract_x
_atom_site_fract_y
_atom_site_fract_z
_atom_type_partial_charge
H0 H 0.03824 0.06261 0.08545 0.0
H1 H 0.10153 0.04328 0.02693 0.0
H2 H 0.1011 0.99571 0.09868 0.0
H3 H 0.10015 0.09348 0.02258 0.0
C4 C 0.07607 0.09594 0.02278 0.0
C5 C 0.05701 0.05028 0.0794 0.0
C6 C 0.06783 0.02819 0.09524 0.0
C7 C 0.06994 0.05667 0.05549 0.0
C8 C 0.09311 0.03976 0.04642 0.0
C9 C 0.10472 0.01762 0.06174 0.0
C10 C 0.09197 0.01214 0.08631 0.0
N11 N 0.05871 0.07975 0.04055 0.0
H12 H 0.29832 0.66264 0.18237 0.0
H13 H 0.38828 0.70492 0.2008 0.0
H14 H 0.35327 0.63999 0.25161 0.0
H15 H 0.36463 0.74368 0.18204 0.0
C16 C 0.35236 0.73157 0.16419 0.0
C17 C 0.31946 0.66499 0.19493 0.0
C18 C 0.32277 0.64875 0.21787 0.0
C19 C 0.34273 0.68562 0.18885 0.0
C20 C 0.36995 0.68941 0.20548 0.0
C21 C 0.37383 0.67286 0.22808 0.0
C22 C 0.35031 0.65248 0.23397 0.0
N23 N 0.33806 0.70244 0.16608 0.0
H24 H 0.94398 0.50577 0.02082 0.0
H25 H 1.00774 0.46949 0.07462 0.0
H26 H 0.98064 0.55825 0.09427 0.0
H27 H 0.02523 0.45282 0.03185 0.0
C28 C 1.00331 0.44421 0.02201 0.0
C29 C 0.95891 0.50892 0.03922 0.0
C30 C 0.95912 0.53503 0.05716 0.0
C31 C 0.97781 0.48629 0.04476 0.0
C32 C 0.99544 0.48839 0.06959 0.0
C33 C 0.99602 0.51393 0.08823 0.0
C34 C 0.97876 0.53763 0.08109 0.0
N35 N 0.97779 0.46099 0.02547 0.0
H36 H 0.68671 0.81815 0.16996 0.0
H37 H 0.73051 0.88492 0.22989 0.0
H38 H 0.77512 0.85921 0.15857 0.0
H39 H 0.70816 0.85376 0.25765 0.0
C40 C 0.68569 0.84861 0.2475 0.0
C41 C 0.70573 0.83426 0.17663 0.0
C42 C 0.73057 0.83713 0.16077 0.0
C43 C 0.70609 0.85055 0.20199 0.0
C44 C 0.73082 0.87115 0.21093 0.0
C45 C 0.75599 0.87429 0.1956 0.0
C46 C 0.75566 0.85724 0.17042 0.0
N47 N 0.68197 0.84493 0.21865 0.0
H48 H 0.03245 0.96498 0.4592 0.0
H49 H 0.11644 0.99064 0.50703 0.0
H50 H 0.09497 0.03412 0.43535 0.0
H51 H 0.11072 0.94633 0.52038 0.0
C52 C 0.0867 0.94048 0.52096 0.0
C53 C 0.05362 0.97885 0.46272 0.0
C54 C 0.0613 1.0001 0.44448 0.0
C55 C 0.0736 0.97458 0.48501 0.0
C56 C 0.10107 0.99275 0.48958 0.0
C57 C 0.10924 0.01383 0.47152 0.0
C58 C 0.08917 0.01737 0.44905 0.0
N59 N 0.06556 0.95198 0.50242 0.0
H60 H 0.22711 0.7293 0.8451 0.0
H61 H 0.26702 0.66755 0.79026 0.0
H62 H 0.31343 0.69729 0.86803 0.0
H63 H 0.20931 0.74442 0.80289 0.0
C64 C 0.20166 0.72253 0.79254 0.0
C65 C 0.2454 0.71555 0.84065 0.0
C66 C 0.27023 0.71544 0.8599 0.0
C67 C 0.24423 0.69825 0.81555 0.0
C68 C 0.268 0.68076 0.80969 0.0
C69 C 0.29323 0.6806 0.82834 0.0
C70 C 0.29403 0.69759 0.85359 0.0
N71 N 0.21938 0.69787 0.79582 0.0
H72 H 0.02019 0.5951 0.48265 0.0
H73 H 0.97016 0.51009 0.45858 0.0
H74 H 0.94838 0.56412 0.52935 0.0
H75 H 1.00948 0.50202 0.43224 0.0
C76 C 0.01828 0.52406 0.42757 0.0
C77 C 1.00275 0.57801 0.48627 0.0
C78 C 0.98492 0.58268 0.50815 0.0
C79 C 0.99789 0.55192 0.46843 0.0
C80 C 0.97478 0.52994 0.47268 0.0
C81 C 0.95657 0.53427 0.49461 0.0
C82 C 0.96189 0.56074 0.51219 0.0
N83 N 0.01564 0.54987 0.44571 0.0
H84 H 0.82533 0.87435 0.79395 0.0
H85 H 0.85615 0.80011 0.8347 0.0
H86 H 0.77591 0.83977 0.85774 0.0
H87 H 0.90174 0.82149 0.82542 0.0
C88 C 0.89683 0.8257 0.80437 0.0
C89 C 0.82272 0.85862 0.80921 0.0
C90 C 0.79799 0.85938 0.82526 0.0
C91 C 0.84434 0.83795 0.81295 0.0
C92 C 0.84043 0.81713 0.83233 0.0
C93 C 0.81603 0.81778 0.84867 0.0
C94 C 0.79491 0.83919 0.84527 0.0
N95 N 0.86925 0.83778 0.79648 0.0
H96 H 0.348 0.37214 0.30073 0.0
H97 H 0.3788 0.30315 0.34849 0.0
H98 H 0.29646 0.34367 0.36496 0.0
H99 H 0.39366 0.37324 0.28519 0.0
C100 C 0.40134 0.35102 0.28664 0.0
C101 C 0.34561 0.35829 0.31737 0.0
C102 C 0.32009 0.36031 0.33228 0.0
C103 C 0.36697 0.33773 0.3233 0.0
C104 C 0.36268 0.31946 0.3445 0.0
C105 C 0.33731 0.32117 0.35973 0.0
C106 C 0.31603 0.34174 0.35334 0.0
N107 N 0.39182 0.33315 0.30734 0.0
H108 H 0.44722 1.00643 0.51559 0.0
H109 H 0.51933 0.97442 0.56346 0.0
H110 H 0.49162 0.06238 0.58459 0.0
H111 H 0.52987 0.95405 0.5211 0.0
C112 C 0.50719 0.94511 0.51344 0.0
C113 C 0.46441 0.01072 0.53233 0.0
C114 C 0.46652 0.03776 0.54936 0.0
C115 C 0.48433 0.98865 0.53656 0.0
C116 C 0.50546 0.99249 0.55915 0.0
C117 C 0.5081 0.01885 0.57682 0.0
C118 C 0.48883 0.04161 0.57156 0.0
N119 N 0.48227 0.96237 0.51815 0.0
H120 H 0.19961 0.3023 0.68536 0.0
H121 H 0.24742 0.37564 0.73589 0.0
H122 H 0.27858 0.34856 0.6582 0.0
H123 H 0.23475 0.34219 0.76834 0.0
C124 C 0.21092 0.3372 0.76183 0.0
C125 C 0.21781 0.32001 0.68843 0.0
C126 C 0.23846 0.32348 0.66854 0.0
C127 C 0.22161 0.33805 0.7131 0.0
C128 C 0.24537 0.36084 0.71734 0.0
C129 C 0.26616 0.36489 0.69765 0.0
C130 C 0.26245 0.34603 0.67334 0.0
N131 N 0.20173 0.33245 0.73362 0.0
H132 H 0.80007 0.17722 0.6896 0.0
H133 H 0.88396 0.23058 0.70903 0.0
H134 H 0.85955 0.15918 0.75775 0.0
H135 H 0.87777 0.23668 0.66192 0.0
C136 C 0.85405 0.24092 0.66154 0.0
C137 C 0.82131 0.1814 0.70192 0.0
C138 C 0.8275 0.16441 0.72394 0.0
C139 C 0.84184 0.20466 0.69601 0.0
C140 C 0.86857 0.2118 0.71281 0.0
C141 C 0.87484 0.19576 0.73539 0.0
C142 C 0.85462 0.17161 0.7404 0.0
N143 N 0.83354 0.22227 0.67466 0.0
H144 H 0.52494 0.55945 0.57906 0.0
H145 H 0.59238 0.5394 0.52484 0.0
H146 H 0.5864 0.49232 0.5966 0.0
H147 H 0.58846 0.58679 0.51552 0.0
C148 C 0.56453 0.5898 0.51599 0.0
C149 C 0.54356 0.54642 0.57386 0.0
C150 C 0.55307 0.52446 0.59055 0.0
C151 C 0.558 0.55248 0.55067 0.0
C152 C 0.5823 0.53608 0.54366 0.0
C153 C 0.59341 0.51483 0.56032 0.0
C154 C 0.57844 0.50891 0.58378 0.0
N155 N 0.5472 0.57486 0.53459 0.0
H156 H 0.53355 0.46429 0.97111 0.0
H157 H 0.60682 0.50001 0.02891 0.0
H158 H 0.5901 0.54238 0.95572 0.0
H159 H 0.60573 0.45441 0.04043 0.0
C160 C 0.58241 0.445 0.03803 0.0
C161 C 0.55223 0.48097 0.97727 0.0
C162 C 0.55958 0.50373 0.96034 0.0
C163 C 0.56947 0.47884 1.00174 0.0
C164 C 0.59373 0.50056 0.00979 0.0
C165 C 0.60167 0.52314 0.99306 0.0
C166 C 0.58447 0.52456 0.96839 0.0
N167 N 0.56208 0.4546 0.01765 0.0
H168 H 0.70412 0.21965 0.34656 0.0
H169 H 0.75396 0.16787 0.29158 0.0
H170 H 0.79614 0.20266 0.36989 0.0
H171 H 0.7213 0.19062 0.26078 0.0
C172 C 0.70006 0.18761 0.27011 0.0
C173 C 0.72477 0.2094 0.3424 0.0
C174 C 0.74991 0.21348 0.36156 0.0
C175 C 0.72615 0.1935 0.31716 0.0
C176 C 0.75294 0.18082 0.31089 0.0
C177 C 0.77817 0.18379 0.32994 0.0
C178 C 0.77662 0.20019 0.35527 0.0
N179 N 0.69991 0.19035 0.29881 0.0
H180 H 0.53251 0.06998 0.97743 0.0
H181 H 0.46747 0.99723 0.94703 0.0
H182 H 0.45288 0.0519 0.0197 0.0
H183 H 0.50504 0.98205 0.92171 0.0
C184 C 0.51824 1.00257 0.91837 0.0
C185 C 0.51182 0.05635 0.97969 0.0
C186 C 0.49414 0.06363 1.00123 0.0
C187 C 0.50268 0.03238 0.96026 0.0
C188 C 0.47522 0.01536 0.96231 0.0
C189 C 0.45711 0.02225 0.98379 0.0
C190 C 0.46687 0.04627 1.00331 0.0
N191 N 0.52079 0.02775 0.93807 0.0
Mn192 Mn 0.27475 0.86369 0.02389 0.0
Mn193 Mn 0.25932 0.88793 0.9623 0.0
C194 C 0.25229 0.83068 0.98818 0.0
C195 C 0.30551 0.84344 0.05634 0.0
C196 C 0.22447 0.90417 0.01113 0.0
O197 O 0.30298 0.90233 0.02474 0.0
O198 O 0.29383 0.91354 0.9815 0.0
C199 C 0.31501 0.87479 0.93589 0.0
N200 N 0.28443 0.87079 0.93644 0.0
C201 C 0.28 0.83843 0.89484 0.0
C202 C 0.31142 0.84237 0.89376 0.0
C203 C 0.329 0.86055 0.91442 0.0
C204 C 0.26731 0.8533 0.91668 0.0
H205 H 0.32864 0.88869 0.95175 0.0
C206 C 0.3086 0.9179 1.00487 0.0
O207 O 0.28434 0.8602 0.06306 0.0
O208 O 0.30975 0.83915 0.03071 0.0
N209 N 0.22668 0.8638 0.94191 0.0
C210 C 0.19698 0.86068 0.94694 0.0
C211 C 0.17648 0.84221 0.92876 0.0
C212 C 0.18671 0.82718 0.90559 0.0
C213 C 0.21738 0.83073 0.90083 0.0
C214 C 0.23673 0.84956 0.91959 0.0
H215 H 0.189 0.87211 0.96474 0.0
O216 O 0.24867 0.82513 0.01308 0.0
O217 O 0.26772 0.85568 0.9853 0.0
O218 O 0.23767 0.88746 0.0268 0.0
O219 O 0.23156 0.90709 0.98695 0.0
C220 C 0.22961 0.81584 0.87851 0.0
C221 C 0.26089 0.8197 0.87551 0.0
H222 H 0.32233 0.83121 0.87736 0.0
H223 H 0.35329 0.86353 0.91382 0.0
H224 H 0.15286 0.83948 0.93263 0.0
H225 H 0.17087 0.81277 0.89173 0.0
H226 H 0.21523 0.801 0.86376 0.0
H227 H 0.2701 0.80774 0.85851 0.0
Mn228 Mn 0.15972 0.49163 0.25948 0.0
Mn229 Mn 0.13826 0.56233 0.26089 0.0
C230 C 0.18812 0.52789 0.23984 0.0
C231 C 0.18677 0.45578 0.28017 0.0
C232 C 0.10929 0.51127 0.22114 0.0
O233 O 0.12898 0.49228 0.28812 0.0
O234 O 0.11883 0.54074 0.28938 0.0
C235 C 0.16808 0.58577 0.3146 0.0
N236 N 0.16392 0.58768 0.28735 0.0
C237 C 0.19853 0.63195 0.2902 0.0
C238 C 0.20302 0.63057 0.31832 0.0
C239 C 0.18779 0.60733 0.33055 0.0
C240 C 0.17857 0.60987 0.27536 0.0
H241 H 0.15649 0.5679 0.32408 0.0
C242 C 0.11588 0.51462 0.298 0.0
O243 O 0.16427 0.4478 0.26216 0.0
O244 O 0.19252 0.48428 0.28685 0.0
N245 N 0.15557 0.58609 0.23474 0.0
C246 C 0.14991 0.58337 0.20724 0.0
C247 C 0.16416 0.60434 0.19183 0.0
C248 C 0.18381 0.62803 0.20486 0.0
C249 C 0.18893 0.63063 0.23321 0.0
C250 C 0.17399 0.60915 0.24752 0.0
H251 H 0.13482 0.56523 0.19709 0.0
O252 O 0.19052 0.49966 0.23318 0.0
O253 O 0.16969 0.53412 0.25834 0.0
O254 O 0.1259 0.491 0.22875 0.0
O255 O 0.11128 0.53807 0.23253 0.0
C256 C 0.20869 0.65339 0.24779 0.0
C257 C 0.21348 0.65405 0.27627 0.0
H258 H 0.21831 0.64708 0.33069 0.0
H259 H 0.19126 0.60602 0.35222 0.0
H260 H 0.16007 0.60219 0.16996 0.0
H261 H 0.19497 0.644 0.19289 0.0
H262 H 0.22067 0.67023 0.23727 0.0
H263 H 0.22908 0.67138 0.28721 0.0
Mn264 Mn 0.79228 0.66993 1.00906 0.0
Mn265 Mn 0.72618 0.69206 0.98251 0.0
C266 C 0.74757 0.63964 1.00878 0.0
C267 C 0.8366 0.64516 1.00805 0.0
C268 C 0.75685 0.71826 0.03673 0.0
O269 O 0.80638 0.70274 0.98521 0.0
O270 O 0.76063 0.71374 0.96734 0.0
C271 C 0.72887 0.66757 0.92547 0.0
N272 N 0.71423 0.66915 0.94865 0.0
C273 C 0.67283 0.63548 0.92766 0.0
C274 C 0.68741 0.63363 0.90352 0.0
C275 C 0.71559 0.64968 0.90245 0.0
C276 C 0.68718 0.65366 0.94994 0.0
H277 H 0.75053 0.67983 0.92458 0.0
C278 C 0.78957 0.71703 0.9696 0.0
O279 O 0.83347 0.667 0.02616 0.0
O280 O 0.81473 0.63891 0.9891 0.0
N281 N 0.69098 0.67241 0.99535 0.0
C282 C 0.6805 0.67564 0.02049 0.0
C283 C 0.65273 0.66065 0.02511 0.0
C284 C 0.63592 0.64272 1.0038 0.0
C285 C 0.64703 0.63996 0.97805 0.0
C286 C 0.67474 0.65559 0.97462 0.0
H287 H 0.69326 0.68948 0.03692 0.0
O288 O 0.76995 0.6369 0.02641 0.0
O289 O 0.75179 0.66023 0.9923 0.0
O290 O 0.77868 0.70161 0.03624 0.0
O291 O 0.73584 0.71683 0.01762 0.0
C292 C 0.63192 0.62193 0.95578 0.0
C293 C 0.64486 0.61961 0.93062 0.0
H294 H 0.67728 0.61979 0.88574 0.0
H295 H 0.72705 0.64827 0.88393 0.0
H296 H 0.64434 0.66285 0.04505 0.0
H297 H 0.61466 0.63096 1.00751 0.0
H298 H 0.61057 0.60941 0.95788 0.0
H299 H 0.63325 0.60534 0.91376 0.0
Mn300 Mn 0.92425 0.03371 0.26474 0.0
Mn301 Mn 0.94609 0.96336 0.25397 0.0
C302 C 0.89395 0.99747 0.23719 0.0
C303 C 0.89867 0.06897 0.29007 0.0
C304 C 0.97138 0.01555 0.2251 0.0
O305 O 0.95698 0.03234 0.29551 0.0
O306 O 0.9694 0.9848 0.28661 0.0
C307 C 0.9233 0.93899 0.30297 0.0
N308 N 0.92391 0.93743 0.27548 0.0
C309 C 0.88982 0.89267 0.2699 0.0
C310 C 0.889 0.89368 0.29816 0.0
C311 C 0.90575 0.917 0.31476 0.0
C312 C 0.90775 0.91518 0.25932 0.0
H313 H 0.93608 0.9569 0.31581 0.0
C314 C 0.97216 0.01022 0.30079 0.0
O315 O 0.91942 0.07739 0.27453 0.0
O316 O 0.89361 0.04036 0.29152 0.0
N317 N 0.92528 0.93975 0.22332 0.0
C318 C 0.92721 0.94292 0.19641 0.0
C319 C 0.91096 0.92197 0.17705 0.0
C320 C 0.89314 0.89784 0.18553 0.0
C321 C 0.89183 0.89481 0.21333 0.0
C322 C 0.90863 0.9163 0.23169 0.0
H323 H 0.94083 0.96144 0.18976 0.0
O324 O 0.89118 0.02573 0.23497 0.0
O325 O 0.91425 0.99119 0.25558 0.0
O326 O 0.95627 0.03557 0.23652 0.0
O327 O 0.96934 0.98816 0.23048 0.0
C328 C 0.87408 0.87161 0.22353 0.0
C329 C 0.87309 0.87053 0.2518 0.0
H330 H 0.87538 0.87684 0.30733 0.0
H331 H 0.90511 0.91802 0.33658 0.0
H332 H 0.91209 0.92446 0.15563 0.0
H333 H 0.88043 0.88188 0.17054 0.0
H334 H 0.86075 0.85475 0.20982 0.0
H335 H 0.85899 0.85286 0.25939 0.0
Mn336 Mn 0.29198 0.1643 0.5068 0.0
Mn337 Mn 0.22079 0.18064 0.48789 0.0
C338 C 0.25025 0.13177 0.51307 0.0
C339 C 0.33744 0.14198 0.50259 0.0
C340 C 0.25693 0.21051 0.53807 0.0
O341 O 0.29974 0.19575 0.47942 0.0
O342 O 0.25099 0.20371 0.46894 0.0
C343 C 0.21759 0.15536 0.43048 0.0
N344 N 0.20601 0.15676 0.45518 0.0
C345 C 0.16293 0.12313 0.43787 0.0
C346 C 0.17429 0.12149 0.4122 0.0
C347 C 0.20184 0.13753 0.40854 0.0
C348 C 0.17982 0.14097 0.45904 0.0
H349 H 0.23865 0.16779 0.42753 0.0
C350 C 0.27927 0.20848 0.46608 0.0
O351 O 0.33525 0.16497 0.51972 0.0
O352 O 0.3138 0.13333 0.48601 0.0
N353 N 0.18905 0.15945 0.50438 0.0
C354 C 0.18181 0.1625 0.53065 0.0
C355 C 0.15534 0.14716 0.53791 0.0
C356 C 0.13632 0.12927 0.51804 0.0
C357 C 0.14399 0.12685 0.49107 0.0
C358 C 0.17072 0.14256 0.48506 0.0
H359 H 0.19616 0.17648 0.54595 0.0
O360 O 0.27514 0.13169 0.52834 0.0
O361 O 0.25013 0.15113 0.49514 0.0
O362 O 0.2803 0.19661 0.5344 0.0
O363 O 0.23301 0.20626 0.52202 0.0
C364 C 0.12626 0.10931 0.46995 0.0
C365 C 0.13573 0.10744 0.44337 0.0
H366 H 0.16217 0.10783 0.39522 0.0
H367 H 0.21083 0.13627 0.38882 0.0
H368 H 0.14954 0.14919 0.55876 0.0
H369 H 0.11596 0.11742 0.52374 0.0
H370 H 0.10552 0.09682 0.474 0.0
H371 H 0.12216 0.09348 0.4274 0.0
Mn372 Mn 0.43649 0.52357 0.77125 0.0
Mn373 Mn 0.46072 0.45394 0.76768 0.0
C374 C 0.40534 0.48334 0.7504 0.0
C375 C 0.41198 0.56124 0.79436 0.0
C376 C 0.48265 0.50222 0.73262 0.0
O377 O 0.47197 0.52711 0.80028 0.0
O378 O 0.48281 0.47854 0.79923 0.0
C379 C 0.43927 0.43241 0.8183 0.0
N380 N 0.43937 0.42922 0.79076 0.0
C381 C 0.40566 0.38429 0.78771 0.0
C382 C 0.40534 0.38701 0.81605 0.0
C383 C 0.42219 0.4112 0.8314 0.0
C384 C 0.42337 0.40594 0.7758 0.0
H385 H 0.45205 0.45103 0.83019 0.0
C386 C 0.48621 0.50591 0.80946 0.0
O387 O 0.43066 0.5675 0.77629 0.0
O388 O 0.40846 0.53346 0.79962 0.0
N389 N 0.44007 0.42817 0.73825 0.0
C390 C 0.44067 0.43025 0.71105 0.0
C391 C 0.42372 0.40861 0.6928 0.0
C392 C 0.40638 0.38504 0.70269 0.0
C393 C 0.40616 0.38332 0.73076 0.0
C394 C 0.42367 0.40542 0.74798 0.0
H395 H 0.45376 0.44841 0.7033 0.0
O396 O 0.40094 0.51045 0.74474 0.0
O397 O 0.42798 0.48072 0.76782 0.0
O398 O 0.46502 0.52188 0.74032 0.0
O399 O 0.48392 0.47699 0.74258 0.0
C400 C 0.38862 0.361 0.74233 0.0
C401 C 0.38842 0.36144 0.77078 0.0
H402 H 0.39196 0.37087 0.82622 0.0
H403 H 0.42193 0.41355 0.85327 0.0
H404 H 0.42388 0.41019 0.67117 0.0
H405 H 0.39307 0.36859 0.68855 0.0
H406 H 0.37479 0.34368 0.72952 0.0
H407 H 0.37445 0.34445 0.77942 0.0
Mn408 Mn 0.77507 0.3744 0.52217 0.0
Mn409 Mn 0.76036 0.40292 0.46253 0.0
C410 C 0.75819 0.34273 0.48382 0.0
C411 C 0.80605 0.35368 0.55412 0.0
C412 C 0.72181 0.41135 0.51034 0.0
O413 O 0.79979 0.41531 0.52677 0.0
O414 O 0.7924 0.4298 0.4842 0.0
C415 C 0.81802 0.39775 0.43696 0.0
N416 N 0.78772 0.39046 0.43663 0.0
C417 C 0.78752 0.35991 0.39431 0.0
C418 C 0.8187 0.36717 0.39417 0.0
C419 C 0.834 0.38618 0.41559 0.0
C420 C 0.77271 0.37242 0.41598 0.0
H421 H 0.82994 0.41218 0.45346 0.0
C422 C 0.80522 0.43303 0.50839 0.0
O423 O 0.78269 0.36735 0.56076 0.0
O424 O 0.81256 0.35345 0.52898 0.0
N425 N 0.73025 0.37739 0.44022 0.0
C426 C 0.70075 0.37055 0.44458 0.0
C427 C 0.68258 0.35059 0.42569 0.0
C428 C 0.69493 0.33781 0.40258 0.0
C429 C 0.72536 0.34511 0.39856 0.0
C430 C 0.74232 0.36533 0.41797 0.0
H431 H 0.69121 0.38005 0.46243 0.0
O432 O 0.75333 0.33463 0.50776 0.0
O433 O 0.77111 0.36956 0.48338 0.0
O434 O 0.73522 0.39375 0.52494 0.0
O435 O 0.7302 0.4175 0.48723 0.0
C436 C 0.73972 0.33252 0.37643 0.0
C437 C 0.77075 0.33999 0.37425 0.0
H438 H 0.83118 0.358 0.37789 0.0
H439 H 0.8581 0.39176 0.4157 0.0
H440 H 0.65916 0.34491 0.42902 0.0
H441 H 0.68092 0.32217 0.38822 0.0
H442 H 0.72721 0.31671 0.36117 0.0
H443 H 0.78164 0.32982 0.35736 0.0
Mn444 Mn 0.65684 0.00922 0.75384 0.0
Mn445 Mn 0.64518 0.08292 0.75897 0.0
C446 C 0.69002 0.04316 0.73613 0.0
C447 C 0.67832 0.96879 0.77267 0.0
C448 C 0.6091 0.03677 0.71846 0.0
O449 O 0.62645 0.0126 0.78276 0.0
O450 O 0.62471 0.06284 0.78761 0.0
C451 C 0.67918 0.10177 0.81195 0.0
N452 N 0.67434 0.10474 0.78492 0.0
C453 C 0.71279 0.14583 0.78753 0.0
C454 C 0.71804 0.14335 0.81543 0.0
C455 C 0.70125 0.12114 0.82766 0.0
C456 C 0.69054 0.12587 0.77291 0.0
H457 H 0.66629 0.08475 0.82142 0.0
C458 C 0.61779 0.0365 0.79465 0.0
O459 O 0.65568 0.96449 0.75431 0.0
O460 O 0.68756 0.99641 0.78063 0.0
N461 N 0.6642 0.10509 0.73263 0.0
C462 C 0.65771 0.10325 0.70524 0.0
C463 C 0.67349 0.12306 0.68975 0.0
C464 C 0.69553 0.14473 0.70259 0.0
C465 C 0.70159 0.14642 0.73083 0.0
C466 C 0.68512 0.12611 0.74521 0.0
H467 H 0.64075 0.0867 0.69525 0.0
O468 O 0.68874 0.01485 0.7279 0.0
O469 O 0.67216 0.05066 0.75469 0.0
O470 O 0.62378 0.01425 0.72366 0.0
O471 O 0.61438 0.06274 0.73133 0.0
C472 C 0.72365 0.16714 0.74521 0.0
C473 C 0.72919 0.1669 0.77356 0.0
H474 H 0.73512 0.15818 0.8276 0.0
H475 H 0.70529 0.11898 0.84915 0.0
H476 H 0.6687 0.1216 0.66796 0.0
H477 H 0.70779 0.15984 0.69055 0.0
H478 H 0.73683 0.18305 0.73463 0.0
H479 H 0.74657 0.18261 0.78432 0.0
Mn480 Mn 0.04556 0.26013 0.87709 0.0
Mn481 Mn 0.97661 0.24453 0.89908 0.0
C482 C 1.0097 0.22822 0.85075 0.0
C483 C 0.07872 0.28868 0.85327 0.0
C484 C 0.0329 0.21738 0.92064 0.0
O485 O 0.04317 0.29376 0.90706 0.0
O486 O 0.99571 0.28266 0.91857 0.0
C487 C 0.94614 0.29523 0.87804 0.0
N488 N 0.94757 0.26514 0.87914 0.0
C489 C 0.9027 0.25428 0.84873 0.0
C490 C 0.90062 0.28516 0.84747 0.0
C491 C 0.92248 0.30571 0.86213 0.0
C492 C 0.92673 0.24516 0.86499 0.0
H493 H 0.96299 0.31111 0.88913 0.0
C494 C 0.02066 0.29934 0.92076 0.0
O495 O 0.08857 0.27277 0.87221 0.0
O496 O 0.04966 0.28924 0.84922 0.0
N497 N 0.95562 0.20851 0.88134 0.0
C498 C 0.96184 0.1795 0.8835 0.0
C499 C 0.94263 0.15615 0.86937 0.0
C500 C 0.91719 0.16284 0.85327 0.0
C501 C 0.91113 0.19285 0.85151 0.0
C502 C 0.93094 0.21517 0.86623 0.0
H503 H 0.98138 0.1742 0.89581 0.0
O504 O 0.03816 0.2268 0.84722 0.0
O505 O 1.00333 0.24793 0.86971 0.0
O506 O 0.05082 0.23007 0.90538 0.0
O507 O 1.00479 0.22158 0.92031 0.0
C508 C 0.8865 0.20151 0.83536 0.0
C509 C 0.88229 0.2322 0.83397 0.0
H510 H 0.88253 0.29333 0.83507 0.0
H511 H 0.92115 0.32957 0.86111 0.0
H512 H 0.94748 0.13304 0.8708 0.0
H513 H 0.90259 0.14478 0.8422 0.0
H514 H 0.87092 0.18476 0.8236 0.0
H515 H 0.86356 0.23858 0.82114 0.0
Mn516 Mn 0.54035 0.7567 0.37265 0.0
Mn517 Mn 0.4703 0.74318 0.39276 0.0
C518 C 0.50311 0.7301 0.34347 0.0
C519 C 0.57643 0.78613 0.35301 0.0
C520 C 0.52411 0.71107 0.41267 0.0
O521 O 0.53922 0.78755 0.40506 0.0
O522 O 0.49052 0.77951 0.41448 0.0
C523 C 0.44261 0.79676 0.37461 0.0
N524 N 0.44282 0.76636 0.3738 0.0
C525 C 0.39886 0.75924 0.34199 0.0
C526 C 0.39804 0.79047 0.34268 0.0
C527 C 0.42005 0.8093 0.35902 0.0
C528 C 0.4218 0.74803 0.35808 0.0
H529 H 0.45961 0.81134 0.38697 0.0
C530 C 0.51661 0.79418 0.41823 0.0
O531 O 0.58408 0.76716 0.37009 0.0
O532 O 0.54779 0.78881 0.34801 0.0
N533 N 0.4485 0.70896 0.37261 0.0
C534 C 0.45358 0.67941 0.37291 0.0
C535 C 0.43405 0.65764 0.35701 0.0
C536 C 0.40949 0.66643 0.34104 0.0
C537 C 0.40467 0.69695 0.34111 0.0
C538 C 0.42473 0.71763 0.35753 0.0
H539 H 0.47244 0.67251 0.38509 0.0
O540 O 0.53136 0.72697 0.33997 0.0
O541 O 0.49787 0.74802 0.36418 0.0
O542 O 0.54264 0.72325 0.39772 0.0
O543 O 0.49666 0.71749 0.41311 0.0
C544 C 0.38113 0.7077 0.32509 0.0
C545 C 0.37825 0.73883 0.3255 0.0
H546 H 0.38081 0.80024 0.33054 0.0
H547 H 0.41969 0.83343 0.35951 0.0
H548 H 0.438 0.63413 0.35697 0.0
H549 H 0.39468 0.64959 0.32857 0.0
H550 H 0.36541 0.69225 0.31203 0.0
H551 H 0.36034 0.74684 0.31278 0.0
Mn552 Mn 0.03335 0.77115 0.6374 0.0
Mn553 Mn 1.0051 0.70726 0.66127 0.0
C554 C 0.03535 0.72526 0.6129 0.0
C555 C 0.03137 0.81314 0.61278 0.0
C556 C 0.06495 0.73931 0.68284 0.0
O557 O 1.0056 0.78704 0.66518 0.0
O558 O 0.98997 0.74305 0.68077 0.0
C559 C 0.94105 0.71046 0.64179 0.0
N560 N 0.96639 0.69527 0.64268 0.0
C561 C 0.94048 0.65262 0.61565 0.0
C562 C 0.91407 0.66776 0.61455 0.0
C563 C 0.9144 0.69685 0.62759 0.0
C564 C 0.96638 0.66737 0.63001 0.0
H565 H 0.94118 0.73278 0.65185 0.0
C566 C 0.99069 0.77172 0.68106 0.0
O567 O 0.05119 0.81198 0.63302 0.0
O568 O 1.01146 0.79025 0.60744 0.0
N569 N 0.01756 0.67081 0.6443 0.0
C570 C 0.04528 0.65987 0.64624 0.0
C571 C 0.04905 0.63134 0.63358 0.0
C572 C 0.02423 0.61422 0.61938 0.0
C573 C 0.99583 0.62576 0.61802 0.0
C574 C 0.99343 0.65432 0.63104 0.0
H575 H 0.06441 0.67291 0.65718 0.0
O576 O 0.05463 0.74762 0.6097 0.0
O577 O 0.01575 0.73015 0.63063 0.0
O578 O 0.06301 0.76099 0.66801 0.0
O579 O 0.04506 0.7171 0.68145 0.0
C580 C 0.96989 0.61023 0.60392 0.0
C581 C 0.94223 0.62365 0.60274 0.0
H582 H 0.89347 0.65735 0.6036 0.0
H583 H 0.89413 0.70872 0.62675 0.0
H584 H 0.07104 0.62258 0.63473 0.0
H585 H 0.02727 0.59231 0.60949 0.0
H586 H 0.97107 0.58816 0.59354 0.0
H587 H 0.92257 0.61169 0.59148 0.0
Mn588 Mn 0.52777 0.25597 0.13154 0.0
Mn589 Mn 0.49461 0.1928 0.15334 0.0
C590 C 0.51938 0.2124 0.10262 0.0
C591 C 0.52773 0.30191 0.1125 0.0
C592 C 0.55996 0.21484 0.1685 0.0
O593 O 0.50836 0.27201 0.16548 0.0
O594 O 0.48594 0.22854 0.17686 0.0
C595 C 0.43094 0.20478 0.14049 0.0
N596 N 0.45383 0.18656 0.13783 0.0
C597 C 0.42129 0.14912 0.10982 0.0
C598 C 0.39731 0.16743 0.11238 0.0
C599 C 0.40219 0.19542 0.1277 0.0
C600 C 0.44946 0.15971 0.12293 0.0
H601 H 0.43461 0.22631 0.15226 0.0
C602 C 0.49209 0.25701 0.18068 0.0
O603 O 0.54991 0.29535 0.12869 0.0
O604 O 0.5046 0.2821 0.10804 0.0
N605 N 0.5009 0.15614 0.13264 0.0
C606 C 0.5265 0.14133 0.13196 0.0
C607 C 0.52548 0.11292 0.1175 0.0
C608 C 0.49811 0.09986 0.10419 0.0
C609 C 0.47195 0.11526 0.10562 0.0
C610 C 0.47429 0.1434 0.12051 0.0
H611 H 0.54756 0.15115 0.14231 0.0
O612 O 0.53987 0.23318 0.09816 0.0
O613 O 0.50423 0.21771 0.1237 0.0
O614 O 0.55985 0.23751 0.15476 0.0
O615 O 0.53667 0.1968 0.17 0.0
C616 C 0.44372 0.10395 0.09258 0.0
C617 C 0.41844 0.12094 0.09457 0.0
H618 H 0.3751 0.16028 0.10255 0.0
H619 H 0.38381 0.20971 0.12968 0.0
H620 H 0.54576 0.10115 0.11655 0.0
H621 H 0.49749 0.07809 0.09281 0.0
H622 H 0.44127 0.08237 0.08072 0.0
H623 H 0.39693 0.11216 0.08421 0.0
H624 H 0.22477 0.72742 0.89286 0.0
H625 H 0.31976 0.74905 0.8849 0.0
H626 H 0.32258 0.78459 0.92506 0.0
H627 H 0.29761 0.81243 0.9603 0.0
H628 H 0.20269 0.79283 0.96841 0.0
H629 H 0.20011 0.75376 0.93014 0.0
C630 C 0.24609 0.73992 0.89988 0.0
C631 C 0.27203 0.73544 0.88571 0.0
C632 C 0.24747 0.76087 0.92284 0.0
C633 C 0.29955 0.75154 0.8955 0.0
C634 C 0.30116 0.77209 0.9184 0.0
C635 C 0.27636 0.79951 0.95366 0.0
C636 C 0.25016 0.80588 0.96646 0.0
C637 C 0.2752 0.77732 0.93187 0.0
C638 C 0.22298 0.78851 0.95844 0.0
C639 C 0.22157 0.76627 0.93661 0.0
H640 H 0.03821 0.47923 0.39475 0.0
H641 H 0.03753 0.57561 0.40608 0.0
H642 H 0.06688 0.58079 0.36696 0.0
H643 H 0.09337 0.55843 0.32999 0.0
H644 H 0.09586 0.4622 0.31854 0.0
H645 H 0.0653 0.45656 0.35715 0.0
C646 C 0.04448 0.50132 0.38855 0.0
C647 C 0.03576 0.52695 0.4034 0.0
C648 C 0.06173 0.50422 0.36602 0.0
C649 C 0.04406 0.55547 0.3952 0.0
C650 C 0.06084 0.55849 0.37275 0.0
C651 C 0.08717 0.53613 0.33575 0.0
C652 C 0.09691 0.51078 0.32118 0.0
C653 C 0.06989 0.53306 0.35809 0.0
C654 C 0.08876 0.48215 0.3293 0.0
C655 C 0.07124 0.47889 0.35141 0.0
H656 H 0.81589 0.82774 0.90357 0.0
H657 H 0.80957 0.75736 0.8382 0.0
H658 H 0.80511 0.71934 0.87057 0.0
H659 H 0.80005 0.70623 0.91724 0.0
H660 H 0.80607 0.77611 0.98286 0.0
H661 H 0.81459 0.81427 0.95097 0.0
C662 C 0.81344 0.80406 0.89656 0.0
C663 C 0.81259 0.79523 0.86862 0.0
C664 C 0.81145 0.78231 0.91537 0.0
C665 C 0.81 0.76454 0.85964 0.0
C666 C 0.80761 0.74285 0.87812 0.0
C667 C 0.80415 0.72978 0.92455 0.0
C668 C 0.80316 0.73848 0.95229 0.0
C669 C 0.80813 0.75146 0.906 0.0
C670 C 0.80764 0.76901 0.96162 0.0
C671 C 0.81201 0.79078 0.94334 0.0
H672 H 0.07584 1.00339 0.3925 0.0
H673 H 1.00037 1.00544 0.44224 0.0
H674 H 0.96643 0.01178 0.40241 0.0
H675 H 0.95794 0.01486 0.3529 0.0
H676 H 0.03295 0.0094 0.30307 0.0
H677 H 0.06755 1.00698 0.34342 0.0
C678 C 0.05201 1.00551 0.39465 0.0
C679 C 0.04064 1.00398 0.4203 0.0
C680 C 0.03264 0.00881 0.37164 0.0
C681 C 1.00962 1.00627 0.42268 0.0
C682 C 0.99025 0.01007 0.39995 0.0
C683 C 0.98198 0.01375 0.3511 0.0
C684 C 0.99318 0.01293 0.32531 0.0
C685 C 1.00147 0.01122 0.37429 0.0
C686 C 0.0241 0.01054 0.32288 0.0
C687 C 0.04377 0.00896 0.34588 0.0
H688 H 0.28403 0.29675 0.64557 0.0
H689 H 0.18777 0.30294 0.6353 0.0
H690 H 0.18475 0.26883 0.59372 0.0
H691 H 0.20984 0.23736 0.56015 0.0
H692 H 0.30644 0.2323 0.5713 0.0
H693 H 0.3089 0.26629 0.61232 0.0
C694 C 0.26241 0.29098 0.63407 0.0
C695 C 0.23622 0.3026 0.6434 0.0
C696 C 0.2609 0.27161 0.61024 0.0
C697 C 0.20827 0.2942 0.62862 0.0
C698 C 0.20656 0.27483 0.60478 0.0
C699 C 0.23144 0.24383 0.57146 0.0
C700 C 0.25788 0.23218 0.56252 0.0
C701 C 0.23278 0.26342 0.59534 0.0
C702 C 0.28565 0.24072 0.57763 0.0
C703 C 0.28715 0.26022 0.60116 0.0
H704 H 0.57515 0.51341 0.64195 0.0
H705 H 0.49201 0.52182 0.59376 0.0
H706 H 0.46369 0.51853 0.63362 0.0
H707 H 0.46199 0.51377 0.68245 0.0
H708 H 0.54346 0.50003 0.7303 0.0
H709 H 0.57285 0.5049 0.69062 0.0
C710 C 0.55081 0.51411 0.64008 0.0
C711 C 0.536 0.51856 0.61479 0.0
C712 C 0.5343 0.51161 0.66321 0.0
C713 C 0.50431 0.51931 0.61296 0.0
C714 C 0.48796 0.51731 0.63579 0.0
C715 C 0.48625 0.51227 0.68419 0.0
C716 C 0.50074 0.50733 0.70931 0.0
C717 C 0.5027 0.51388 0.66108 0.0
C718 C 0.53198 0.50434 0.71119 0.0
C719 C 0.54872 0.50695 0.68848 0.0
H720 H 0.88041 0.26575 0.62026 0.0
H721 H 0.80201 0.26826 0.66642 0.0
H722 H 0.78209 0.30578 0.6388 0.0
H723 H 0.78544 0.3357 0.60027 0.0
H724 H 0.86125 0.33077 0.55109 0.0
H725 H 0.88396 0.29664 0.58129 0.0
C726 C 0.85905 0.27469 0.62424 0.0
C727 C 0.84257 0.26417 0.64514 0.0
C728 C 0.84735 0.29582 0.60781 0.0
C729 C 0.81491 0.27576 0.65021 0.0
C730 C 0.80356 0.2973 0.63451 0.0
C731 C 0.80717 0.32754 0.59633 0.0
C732 C 0.82176 0.33587 0.57359 0.0
C733 C 0.8194 0.3072 0.61309 0.0
C734 C 0.84965 0.32472 0.56854 0.0
C735 C 0.86255 0.30514 0.58573 0.0
H736 H 0.50201 0.04285 0.62873 0.0
H737 H 0.56569 1.00131 0.57898 0.0
H738 H 0.60105 1.00052 0.61864 0.0
H739 H 0.61429 0.0115 0.66768 0.0
H740 H 0.55311 0.05714 0.71694 0.0
H741 H 0.5165 0.05641 0.67749 0.0
C742 C 0.52378 0.03403 0.62648 0.0
C743 C 0.53083 0.02175 0.60083 0.0
C744 C 0.54441 0.03403 0.64943 0.0
C745 C 0.55922 0.01029 0.59847 0.0
C746 C 0.57959 0.00988 0.62118 0.0
C747 C 0.59272 0.02085 0.66977 0.0
C748 C 0.58605 0.03378 0.6952 0.0
C749 C 0.57232 0.02137 0.64681 0.0
C750 C 0.55849 0.04672 0.69756 0.0
C751 C 0.53766 0.04645 0.675 0.0
H752 H 0.91554 0.16198 0.76003 0.0
H753 H 0.89179 0.25308 0.75581 0.0
H754 H 0.93232 0.27092 0.79028 0.0
H755 H 0.97276 0.26064 0.82315 0.0
H756 H 0.9975 0.1703 0.82832 0.0
H757 H 0.95827 0.15194 0.79194 0.0
C758 C 0.91934 0.18571 0.76666 0.0
C759 C 0.90079 0.20619 0.75525 0.0
C760 C 0.94264 0.19586 0.78673 0.0
C761 C 0.90608 0.23692 0.76387 0.0
C762 C 0.92913 0.24715 0.7837 0.0
C763 C 0.9694 0.23691 0.81631 0.0
C764 C 0.98699 0.21658 0.82875 0.0
C765 C 0.94722 0.22681 0.79547 0.0
C766 C 0.98354 0.18611 0.81923 0.0
C767 C 0.96122 0.17571 0.79851 0.0
H768 H 0.55152 0.91295 0.4956 0.0
H769 H 0.45446 0.91274 0.49303 0.0
H770 H 0.44907 0.86519 0.4645 0.0
H771 H 0.47189 0.82443 0.4395 0.0
H772 H 0.56906 0.82544 0.44052 0.0
H773 H 0.57444 0.87186 0.4706 0.0
C774 C 0.52921 0.9024 0.48878 0.0
C775 C 0.50346 0.9163 0.49628 0.0
C776 C 0.52631 0.87523 0.47218 0.0
C777 C 0.47465 0.90255 0.48739 0.0
C778 C 0.47155 0.87533 0.47113 0.0
C779 C 0.4943 0.8346 0.44644 0.0
C780 C 0.52004 0.82135 0.43776 0.0
C781 C 0.49723 0.86155 0.46332 0.0
C782 C 0.54885 0.83513 0.44682 0.0
C783 C 0.55196 0.8617 0.46401 0.0
H784 H 0.14927 0.3349 0.75713 0.0
H785 H 0.22558 0.32404 0.81299 0.0
H786 H 0.19156 0.3096 0.84712 0.0
H787 H 0.14005 0.29752 0.86014 0.0
H788 H 0.06372 0.31047 0.80492 0.0
H789 H 0.09772 0.32702 0.77169 0.0
C790 C 0.15838 0.3294 0.7768 0.0
C791 C 0.18981 0.33003 0.78248 0.0
C792 C 0.13869 0.32161 0.79646 0.0
C793 C 0.2014 0.32347 0.80818 0.0
C794 C 0.18199 0.31522 0.82767 0.0
C795 C 0.13088 0.3043 0.84096 0.0
C796 C 0.09941 0.30257 0.83497 0.0
C797 C 0.15058 0.31388 0.82193 0.0
C798 C 0.08786 0.31163 0.81009 0.0
C799 C 0.10729 0.32094 0.79098 0.0
H800 H 0.59346 0.62108 0.48064 0.0
H801 H 0.50615 0.60662 0.51184 0.0
H802 H 0.48575 0.64268 0.48245 0.0
H803 H 0.49304 0.67872 0.44795 0.0
H804 H 0.58103 0.6925 0.41729 0.0
H805 H 0.60064 0.65637 0.44629 0.0
C806 C 0.56995 0.62585 0.48098 0.0
C807 C 0.5514 0.61131 0.49837 0.0
C808 C 0.55844 0.64652 0.46409 0.0
C809 C 0.52095 0.61757 0.49864 0.0
C810 C 0.50927 0.63819 0.48183 0.0
C811 C 0.51649 0.67383 0.44759 0.0
C812 C 0.53542 0.68853 0.43038 0.0
C813 C 0.52785 0.65288 0.46447 0.0
C814 C 0.56578 0.68172 0.43024 0.0
C815 C 0.57713 0.66099 0.44687 0.0
H816 H 0.9033 0.84263 0.75303 0.0
H817 H 0.936 0.78388 0.81099 0.0
H818 H 0.96832 0.76229 0.77808 0.0
H819 H 0.98597 0.75882 0.73251 0.0
H820 H 0.95678 0.8195 0.675 0.0
H821 H 0.92458 0.84195 0.70805 0.0
C822 C 0.91758 0.82516 0.75837 0.0
C823 C 0.9171 0.81451 0.78422 0.0
C824 C 0.9367 0.8133 0.73948 0.0
C825 C 0.93601 0.79227 0.79114 0.0
C826 C 0.95443 0.77991 0.77235 0.0
C827 C 0.97263 0.77706 0.72728 0.0
C828 C 0.97341 0.78736 0.70138 0.0
C829 C 0.95475 0.79005 0.74643 0.0
C830 C 0.95649 0.8113 0.69491 0.0
C831 C 0.93802 0.82399 0.71373 0.0
H832 H 0.03423 0.90365 0.52144 0.0
H833 H 0.1193 0.93254 0.56678 0.0
H834 H 0.10806 0.89794 0.60069 0.0
H835 H 0.0762 0.85739 0.61583 0.0
H836 H 0.99275 0.82451 0.56957 0.0
H837 H 1.00096 0.86289 0.53781 0.0
C838 C 0.05004 0.90252 0.53894 0.0
C839 C 0.07756 0.9206 0.54173 0.0
C840 C 0.04378 0.88181 0.55809 0.0
C841 C 0.09804 0.91875 0.56425 0.0
C842 C 0.09164 0.899 0.58364 0.0
C843 C 0.05953 0.85875 0.59901 0.0
C844 C 0.0339 0.8381 0.5951 0.0
C845 C 0.06486 0.88011 0.58053 0.0
C846 C 0.01268 0.84017 0.57306 0.0
C847 C 0.01744 0.86204 0.55485 0.0
H848 H 0.17634 0.76794 0.76996 0.0
H849 H 0.16856 0.67154 0.76937 0.0
H850 H 0.12517 0.66815 0.73568 0.0
H851 H 0.08941 0.69278 0.70626 0.0
H852 H 0.09943 0.78915 0.70527 0.0
H853 H 0.14193 0.79234 0.73951 0.0
C854 C 0.16508 0.74622 0.76241 0.0
C855 C 0.17552 0.72008 0.77209 0.0
C856 C 0.14058 0.74443 0.7427 0.0
C857 C 0.16097 0.69201 0.76211 0.0
C858 C 0.13614 0.69006 0.74289 0.0
C859 C 0.1009 0.71446 0.71356 0.0
C860 C 0.09118 0.74067 0.70321 0.0
C861 C 0.12574 0.71614 0.73301 0.0
C862 C 0.10651 0.76858 0.71273 0.0
C863 C 0.13078 0.77047 0.7324 0.0
H864 H 0.03815 0.60865 0.53297 0.0
H865 H 0.9427 0.61987 0.52392 0.0
H866 H 0.95035 0.66614 0.55423 0.0
H867 H 0.98379 0.70215 0.58487 0.0
H868 H 0.07898 0.69085 0.59498 0.0
H869 H 0.07205 0.646 0.56243 0.0
C870 C 0.0191 0.62136 0.53757 0.0
C871 C 0.98988 0.61083 0.5264 0.0
C872 C 0.02363 0.64775 0.55526 0.0
C873 C 0.96533 0.62738 0.53255 0.0
C874 C 0.96972 0.6539 0.54971 0.0
C875 C 1.00292 0.68966 0.58001 0.0
C876 C 0.03163 0.69886 0.59287 0.0
C877 C 0.99866 0.66401 0.5615 0.0
C878 C 0.05657 0.68355 0.58567 0.0
C879 C 0.05259 0.65799 0.56713 0.0
H880 H 0.79086 0.91318 0.16878 0.0
H881 H 0.78151 0.88089 0.24755 0.0
H882 H 0.82288 0.91649 0.26722 0.0
H883 H 0.86118 0.95741 0.26247 0.0
H884 H 0.87219 0.98939 0.18412 0.0
H885 H 0.83078 0.95332 0.16375 0.0
C886 C 0.79816 0.91368 0.19016 0.0
C887 C 0.78278 0.89464 0.2067 0.0
C888 C 0.82225 0.93412 0.2014 0.0
C889 C 0.79243 0.89575 0.23444 0.0
C890 C 0.81617 0.91603 0.24573 0.0
C891 C 0.85478 0.95603 0.24085 0.0
C892 C 0.87018 0.97507 0.22453 0.0
C893 C 0.83112 0.93539 0.22946 0.0
C894 C 0.86093 0.9743 0.19683 0.0
C895 C 0.83733 0.95374 0.18525 0.0
H896 H 0.80129 0.13657 0.35238 0.0
H897 H 0.81551 0.19735 0.29101 0.0
H898 H 0.85682 0.16911 0.27506 0.0
H899 H 0.88573 0.12431 0.2759 0.0
H900 H 0.86816 0.06112 0.33481 0.0
H901 H 0.83177 0.09299 0.35453 0.0
C902 C 0.81392 0.14387 0.33589 0.0
C903 C 0.8057 0.16909 0.32301 0.0
C904 C 0.83691 0.12688 0.32624 0.0
C905 C 0.8217 0.17809 0.30129 0.0
C906 C 0.8452 0.16188 0.29212 0.0
C907 C 0.87433 0.11784 0.29336 0.0
C908 C 0.87971 0.09041 0.3039 0.0
C909 C 0.8526 0.13583 0.30405 0.0
C910 C 0.8644 0.08209 0.32628 0.0
C911 C 0.84352 0.10029 0.33755 0.0
H912 H 0.43348 0.99736 0.02704 0.0
H913 H 0.41342 0.00995 0.94256 0.0
H914 H 0.36474 0.98116 0.94263 0.0
H915 H 0.32923 0.95069 0.96559 0.0
H916 H 0.34898 0.93505 0.04951 0.0
H917 H 0.39615 0.96734 0.0509 0.0
C918 C 0.41828 0.99392 1.00876 0.0
C919 C 0.42716 1.00549 0.98472 0.0
C920 C 0.39029 0.97695 1.00885 0.0
C921 C 0.40733 1.00085 0.96115 0.0
C922 C 0.37943 0.98454 0.96122 0.0
C923 C 0.34355 0.95442 0.9844 0.0
C924 C 0.3354 0.94025 1.00742 0.0
C925 C 0.37087 0.97221 0.98482 0.0
C926 C 0.35453 0.94561 0.03146 0.0
C927 C 0.38162 0.96397 0.03222 0.0
H928 H 0.26065 0.34802 0.31497 0.0
H929 H 0.32979 0.4208 0.33426 0.0
H930 H 0.2939 0.45692 0.32167 0.0
H931 H 0.24366 0.46757 0.30349 0.0
H932 H 0.17516 0.39484 0.28047 0.0
H933 H 0.20982 0.35887 0.29625 0.0
C934 C 0.26764 0.37184 0.31657 0.0
C935 C 0.29768 0.3819 0.32562 0.0
C936 C 0.24704 0.39238 0.30857 0.0
C937 C 0.30675 0.41269 0.32733 0.0
C938 C 0.28626 0.43328 0.32014 0.0
C939 C 0.23616 0.44388 0.30216 0.0
C940 C 0.20679 0.43391 0.29099 0.0
C941 C 0.25645 0.42336 0.31052 0.0
C942 C 0.19763 0.40308 0.28903 0.0
C943 C 0.21746 0.38253 0.29803 0.0
H944 H 0.13702 0.04101 0.51933 0.0
H945 H 0.14845 0.02694 0.43361 0.0
H946 H 0.19506 0.05986 0.4397 0.0
H947 H 0.22953 0.09659 0.46841 0.0
H948 H 0.2196 0.11017 0.55414 0.0
H949 H 0.17582 0.0727 0.54926 0.0
C950 C 0.14999 0.04467 0.50206 0.0
C951 C 0.13888 0.03196 0.47593 0.0
C952 C 0.17695 0.06351 0.50573 0.0
C953 C 0.15602 0.03703 0.4538 0.0
C954 C 0.18284 0.05561 0.45729 0.0
C955 C 0.21788 0.09103 0.48603 0.0
C956 C 0.22678 0.10664 0.5114 0.0
C957 C 0.19297 0.06967 0.48298 0.0
C958 C 0.21252 0.09871 0.53434 0.0
C959 C 0.18754 0.07741 0.5315 0.0
H960 H 0.7904 0.12526 0.68878 0.0
H961 H 0.81296 0.14999 0.77437 0.0
H962 H 0.7741 0.1129 0.78538 0.0
H963 H 0.73102 0.07614 0.77092 0.0
H964 H 0.70613 0.05346 0.68577 0.0
H965 H 0.74811 0.08758 0.6743 0.0
C966 C 0.78669 0.12281 0.70986 0.0
C967 C 0.80474 0.14059 0.73063 0.0
C968 C 0.76353 0.10215 0.71613 0.0
C969 C 0.79998 0.13637 0.75785 0.0
C970 C 0.77751 0.1153 0.76424 0.0
C971 C 0.73475 0.07898 0.74988 0.0
C972 C 0.71508 0.06348 0.72914 0.0
C973 C 0.75876 0.09858 0.74357 0.0
C974 C 0.72071 0.06597 0.70196 0.0
C975 C 0.74466 0.08536 0.69546 0.0
H976 H 0.43883 0.0508 0.50047 0.0
H977 H 0.44482 0.07834 0.58657 0.0
H978 H 0.40874 0.11516 0.5787 0.0
H979 H 0.37254 0.13718 0.54832 0.0
H980 H 0.36039 0.10484 0.4636 0.0
H981 H 0.40124 0.07171 0.47017 0.0
C982 C 0.43206 0.06438 0.51773 0.0
C983 C 0.445 0.06133 0.5442 0.0
C984 C 0.40992 0.08466 0.51332 0.0
C985 C 0.43616 0.0802 0.56589 0.0
C986 C 0.41511 0.1012 0.56148 0.0
C987 C 0.37911 0.1232 0.53116 0.0
C988 C 0.36373 0.12375 0.50539 0.0
C989 C 0.40158 0.10336 0.53537 0.0
C990 C 0.37202 0.10497 0.48356 0.0
C991 C 0.3953 0.08599 0.48737 0.0
H992 H 0.6052 0.45543 0.56288 0.0
H993 H 0.6438 0.54009 0.54025 0.0
H994 H 0.68533 0.51547 0.52139 0.0
H995 H 0.71047 0.46976 0.50989 0.0
H996 H 0.67559 0.38574 0.53608 0.0
H997 H 0.63316 0.41003 0.55488 0.0
C998 C 0.62292 0.46856 0.55421 0.0
C999 C 0.62073 0.49956 0.55248 0.0
C1000 C 0.64739 0.45427 0.5437 0.0
C1001 C 0.64418 0.51609 0.5412 0.0
C1002 C 0.66813 0.50205 0.53044 0.0
C1003 C 0.69345 0.45678 0.51958 0.0
C1004 C 0.69584 0.42595 0.52121 0.0
C1005 C 0.66974 0.4711 0.53114 0.0
C1006 C 0.67407 0.4095 0.53442 0.0
C1007 C 0.64986 0.42341 0.54522 0.0
H1008 H 0.79265 0.25557 0.38658 0.0
H1009 H 0.70267 0.21575 0.39405 0.0
H1010 H 0.69675 0.25232 0.43221 0.0
H1011 H 0.71652 0.29725 0.46269 0.0
H1012 H 0.8073 0.33509 0.45625 0.0
H1013 H 0.81368 0.2976 0.41899 0.0
C1014 C 0.77199 0.25444 0.39689 0.0
C1015 C 0.74811 0.23302 0.38721 0.0
C1016 C 0.76873 0.27547 0.41897 0.0
C1017 C 0.72131 0.23227 0.40073 0.0
C1018 C 0.71788 0.25316 0.42264 0.0
C1019 C 0.73759 0.29718 0.45301 0.0
C1020 C 0.76096 0.31956 0.46136 0.0
C1021 C 0.74126 0.27521 0.4317 0.0
C1022 C 0.78855 0.31876 0.44935 0.0
C1023 C 0.79234 0.29714 0.42823 0.0
H1024 H 0.54756 0.05142 0.90023 0.0
H1025 H 0.52761 0.95601 0.88179 0.0
H1026 H 0.55687 0.95753 0.84176 0.0
H1027 H 0.58841 0.98638 0.81216 0.0
H1028 H 0.60645 0.08218 0.83118 0.0
H1029 H 0.57768 0.07997 0.87075 0.0
C1030 C 0.54964 0.03088 0.88756 0.0
C1031 C 0.53565 1.00357 0.89405 0.0
C1032 C 0.56617 0.03201 0.8646 0.0
C1033 C 0.53829 0.97729 0.87718 0.0
C1034 C 0.55502 0.97817 0.85434 0.0
C1035 C 0.58605 1.00674 0.82497 0.0
C1036 C 0.59967 0.03438 0.81852 0.0
C1037 C 0.56912 1.00545 0.84785 0.0
C1038 C 0.59618 0.06057 0.83538 0.0
C1039 C 0.57975 0.05938 0.85816 0.0
H1040 H 0.28452 0.29199 0.37025 0.0
H1041 H 0.37912 0.30357 0.39776 0.0
H1042 H 0.37039 0.26916 0.43274 0.0
H1043 H 0.33507 0.23596 0.45615 0.0
H1044 H 0.24037 0.22693 0.42761 0.0
H1045 H 0.25009 0.26022 0.39306 0.0
C1046 C 0.30324 0.28741 0.38411 0.0
C1047 C 0.33235 0.3006 0.38142 0.0
C1048 C 0.29806 0.2679 0.40422 0.0
C1049 C 0.35642 0.29361 0.39919 0.0
C1050 C 0.35143 0.274 0.41932 0.0
C1051 C 0.31664 0.24127 0.44235 0.0
C1052 C 0.28702 0.22885 0.44491 0.0
C1053 C 0.32224 0.26096 0.4221 0.0
C1054 C 0.26344 0.23612 0.42664 0.0
C1055 C 0.26888 0.25524 0.40663 0.0
H1056 H 0.58026 0.51446 0.91124 0.0
H1057 H 0.49814 0.49737 0.95063 0.0
H1058 H 0.46822 0.49936 0.90767 0.0
H1059 H 0.4654 0.50378 0.85848 0.0
H1060 H 0.54712 0.51887 0.8185 0.0
H1061 H 0.5773 0.5207 0.8622 0.0
C1062 C 0.5558 0.51154 0.9105 0.0
C1063 C 0.54149 0.50564 0.93416 0.0
C1064 C 0.53871 0.51263 0.88566 0.0
C1065 C 0.50977 0.50149 0.9327 0.0
C1066 C 0.49263 0.50283 0.90817 0.0
C1067 C 0.4898 0.50805 0.85956 0.0
C1068 C 0.50418 0.51175 0.83565 0.0
C1069 C 0.50685 0.50814 0.88451 0.0
C1070 C 0.53574 0.51653 0.83688 0.0
C1071 C 0.55291 0.51731 0.86177 0.0
H1072 H 0.77639 0.8052 0.14461 0.0
H1073 H 0.68558 0.82435 0.11985 0.0
H1074 H 0.68557 0.78961 0.07901 0.0
H1075 H 0.7112 0.75287 0.05082 0.0
H1076 H 0.80193 0.73374 0.07675 0.0
H1077 H 0.8021 0.76946 0.1164 0.0
C1078 C 0.75676 0.80212 0.13008 0.0
C1079 C 0.7311 0.81745 0.13518 0.0
C1080 C 0.75681 0.78195 0.10685 0.0
C1081 C 0.70558 0.8127 0.11642 0.0
C1082 C 0.70559 0.79288 0.09306 0.0
C1083 C 0.73104 0.75659 0.06508 0.0
C1084 C 0.75644 0.74045 0.06068 0.0
C1085 C 0.73102 0.77719 0.08814 0.0
C1086 C 0.78192 0.74558 0.07954 0.0
C1087 C 0.78213 0.76612 0.10228 0.0
H1088 H 0.04566 0.06769 0.13279 0.0
H1089 H 0.05647 0.97339 0.11476 0.0
H1090 H 0.02961 0.96177 0.15417 0.0
H1091 H 1.00052 0.97769 0.192 0.0
H1092 H 0.98678 0.0715 0.2088 0.0
H1093 H 0.01691 0.08379 0.17131 0.0
C1094 C 0.04202 0.04453 0.1373 0.0
C1095 C 0.05314 0.02148 0.12053 0.0
C1096 C 0.0258 0.03784 0.15969 0.0
C1097 C 0.04867 0.99172 0.12731 0.0
C1098 C 0.03302 0.98498 0.14977 0.0
C1099 C 1.00419 1.00093 0.1877 0.0
C1100 C 0.9912 0.02362 0.20336 0.0
C1101 C 0.02116 0.00779 0.16588 0.0
C1102 C 0.99634 0.05352 0.19719 0.0
C1103 C 0.01359 0.06057 0.1757 0.0
H1104 H 0.3573 0.79144 0.16205 0.0
H1105 H 0.3332 0.7083 0.11241 0.0
H1106 H 0.32072 0.73607 0.07325 0.0
H1107 H 0.31295 0.78418 0.05409 0.0
H1108 H 0.33146 0.86692 0.10535 0.0
H1109 H 0.35036 0.83941 0.14278 0.0
C1110 C 0.34953 0.77948 0.14256 0.0
C1111 C 0.34602 0.74798 0.14007 0.0
C1112 C 0.34155 0.79561 0.12043 0.0
C1113 C 0.33582 0.7326 0.11484 0.0
C1114 C 0.32877 0.74847 0.09244 0.0
C1115 C 0.32182 0.79611 0.0733 0.0
C1116 C 0.32139 0.82746 0.07701 0.0
C1117 C 0.33111 0.77998 0.0951 0.0
C1118 C 0.33199 0.84278 0.10212 0.0
C1119 C 0.34257 0.82705 0.12351 0.0
H1120 H 0.04812 0.487 0.10219 0.0
H1121 H 0.98354 0.54364 0.13662 0.0
H1122 H 0.01228 0.54722 0.18037 0.0
H1123 H 0.05621 0.53512 0.20911 0.0
H1124 H 0.11741 0.47412 0.17629 0.0
H1125 H 0.08849 0.47021 0.1321 0.0
C1126 C 0.03972 0.49967 0.11921 0.0
C1127 C 0.01365 0.51544 0.11543 0.0
C1128 C 0.05556 0.50053 0.14491 0.0
C1129 C 1.00396 0.53208 0.13815 0.0
C1130 C 0.02018 0.53382 0.1635 0.0
C1131 C 0.06295 0.52062 0.19237 0.0
C1132 C 0.08893 0.50494 0.19599 0.0
C1133 C 0.04608 0.51828 0.16709 0.0
C1134 C 0.09732 0.48616 0.17415 0.0
C1135 C 0.08096 0.48417 0.14879 0.0
H1136 H 0.39962 0.72646 0.25033 0.0
H1137 H 0.40904 0.63145 0.24862 0.0
H1138 H 0.45166 0.64066 0.2832 0.0
H1139 H 0.48447 0.67596 0.31593 0.0
H1140 H 0.47215 0.77046 0.31899 0.0
H1141 H 0.43297 0.76145 0.28153 0.0
C1142 C 0.41143 0.70785 0.25714 0.0
C1143 C 0.40144 0.67839 0.24689 0.0
C1144 C 0.43537 0.71327 0.27731 0.0
C1145 C 0.41642 0.65436 0.25631 0.0
C1146 C 0.44076 0.6596 0.27602 0.0
C1147 C 0.47319 0.69442 0.30817 0.0
C1148 C 0.48043 0.72366 0.32038 0.0
C1149 C 0.45014 0.68896 0.287 0.0
C1150 C 0.46625 0.74766 0.31012 0.0
C1151 C 0.444 0.74256 0.28868 0.0
H1152 H 0.04971 0.41624 1.00218 0.0
H1153 H 0.95236 0.4109 0.99906 0.0
H1154 H 0.94944 0.36547 0.96785 0.0
H1155 H 0.97439 0.32739 0.94151 0.0
H1156 H 0.07174 0.33341 0.9428 0.0
H1157 H 0.07483 0.37853 0.97459 0.0
C1158 C 0.0279 0.40506 0.9946 0.0
C1159 C 1.00132 0.41685 1.00288 0.0
C1160 C 0.02639 0.37914 0.97636 0.0
C1161 C 0.97315 0.40235 0.99291 0.0
C1162 C 0.97147 0.37633 0.9751 0.0
C1163 C 0.99635 0.33845 0.94877 0.0
C1164 C 0.02282 0.32686 0.93987 0.0
C1165 C 0.99792 0.36454 0.96671 0.0
C1166 C 0.05101 0.34181 0.94928 0.0
C1167 C 0.05279 0.36759 0.9675 0.0
H1168 H 0.69091 0.8384 0.30002 0.0
H1169 H 0.62491 0.83967 0.23221 0.0
H1170 H 0.58462 0.8233 0.26008 0.0
H1171 H 0.56876 0.80571 0.303 0.0
H1172 H 0.63564 0.80075 0.36949 0.0
H1173 H 0.67502 0.8218 0.34305 0.0
C1174 C 0.66765 0.83526 0.29145 0.0
C1175 C 0.66082 0.84005 0.26418 0.0
C1176 C 0.64483 0.82523 0.30738 0.0
C1177 C 0.63069 0.83589 0.25315 0.0
C1178 C 0.60768 0.82659 0.26908 0.0
C1179 C 0.59189 0.80971 0.3118 0.0
C1180 C 0.59936 0.80187 0.33815 0.0
C1181 C 0.61455 0.82082 0.29612 0.0
C1182 C 0.62943 0.80664 0.34922 0.0
C1183 C 0.65193 0.81859 0.3341 0.0
H1184 H 0.10544 0.13133 0.99061 0.0
H1185 H 0.01675 0.10939 0.01665 0.0
H1186 H 0.99563 0.14537 0.98762 0.0
H1187 H 1.00243 0.18269 0.95438 0.0
H1188 H 0.09163 0.20429 0.9287 0.0
H1189 H 0.11236 0.16891 0.95805 0.0
C1190 C 0.08149 0.1345 0.98994 0.0
C1191 C 0.06271 0.1178 1.0057 0.0
C1192 C 0.06956 0.15517 0.97326 0.0
C1193 C 0.03171 0.12203 1.00471 0.0
C1194 C 0.01963 0.14259 0.9881 0.0
C1195 C 0.02643 0.17978 0.95525 0.0
C1196 C 0.04534 0.19626 0.93923 0.0
C1197 C 0.03834 0.15926 0.97223 0.0
C1198 C 0.0764 0.19201 0.94068 0.0
C1199 C 0.08836 0.17172 0.95749 0.0
H1200 H 0.42534 0.29687 0.28355 0.0
H1201 H 0.42166 0.37849 0.24384 0.0
H1202 H 0.45169 0.35788 0.20823 0.0
H1203 H 0.47642 0.31508 0.18696 0.0
H1204 H 0.47801 0.23338 0.22699 0.0
H1205 H 0.45166 0.25569 0.26389 0.0
C1206 C 0.43123 0.31029 0.26724 0.0
C1207 C 0.42118 0.33913 0.26624 0.0
C1208 C 0.44814 0.29822 0.24679 0.0
C1209 C 0.42914 0.35618 0.24497 0.0
C1210 C 0.44626 0.3444 0.22461 0.0
C1211 C 0.47134 0.30239 0.20396 0.0
C1212 C 0.47901 0.27254 0.20408 0.0
C1213 C 0.45558 0.31523 0.2251 0.0
C1214 C 0.47209 0.25629 0.2262 0.0
C1215 C 0.45701 0.26901 0.24737 0.0
H1216 H 0.52995 0.40707 0.03473 0.0
H1217 H 0.61623 0.42891 0.08033 0.0
H1218 H 0.60577 0.38826 0.10872 0.0
H1219 H 0.57386 0.34511 0.11915 0.0
H1220 H 0.48819 0.32073 0.07332 0.0
H1221 H 0.49644 0.36393 0.04672 0.0
C1222 C 0.54629 0.403 0.05101 0.0
C1223 C 0.57392 0.42091 0.0554 0.0
C1224 C 0.54026 0.37915 0.0672 0.0
C1225 C 0.59489 0.41535 0.07651 0.0
C1226 C 0.58893 0.39212 0.09278 0.0
C1227 C 0.55677 0.34929 0.10352 0.0
C1228 C 0.53049 0.32962 0.0982 0.0
C1229 C 0.56193 0.37367 0.08809 0.0
C1230 C 0.50863 0.33554 0.07787 0.0
C1231 C 0.51341 0.36017 0.06257 0.0
H1232 H 0.69255 0.2073 0.22042 0.0
H1233 H 0.64333 0.16841 0.28232 0.0
H1234 H 0.59558 0.17151 0.25544 0.0
H1235 H 0.56763 0.18764 0.21525 0.0
H1236 H 0.61689 0.23009 0.15509 0.0
H1237 H 0.66469 0.22326 0.18023 0.0
C1238 C 0.67133 0.1993 0.22784 0.0
C1239 C 0.67135 0.1877 0.25322 0.0
C1240 C 0.64396 0.20196 0.21264 0.0
C1241 C 0.6438 0.17759 0.26285 0.0
C1242 C 0.61652 0.17935 0.24749 0.0
C1243 C 0.58886 0.19515 0.20757 0.0
C1244 C 0.58873 0.20937 0.18338 0.0
C1245 C 0.61628 0.19186 0.22251 0.0
C1246 C 0.61639 0.21928 0.17378 0.0
C1247 C 0.64374 0.21533 0.18811 0.0
H1248 H 0.45964 0.10751 0.01919 0.0
H1249 H 0.55037 0.07989 0.02616 0.0
H1250 H 0.56691 0.12495 0.05636 0.0
H1251 H 0.55519 0.17159 0.08202 0.0
H1252 H 0.46413 0.19793 0.07664 0.0
H1253 H 0.44816 0.15452 0.04405 0.0
C1254 C 0.48296 0.11126 0.0275 0.0
C1255 C 0.50371 0.09034 0.02055 0.0
C1256 C 0.49232 0.13721 0.0448 0.0
C1257 C 0.53399 0.09575 0.03112 0.0
C1258 C 0.54349 0.12152 0.04833 0.0
C1259 C 0.53194 0.16773 0.07352 0.0
C1260 C 0.51058 0.18713 0.0821 0.0
C1261 C 0.52284 0.14235 0.05538 0.0
C1262 C 0.48065 0.18261 0.07071 0.0
C1263 C 0.47158 0.1579 0.05209 0.0
H1264 H 0.29954 0.38172 0.74551 0.0
H1265 H 0.29187 0.40026 0.66137 0.0
H1266 H 0.33532 0.4373 0.66982 0.0
H1267 H 0.37498 0.46557 0.70156 0.0
H1268 H 0.37895 0.45006 0.78617 0.0
H1269 H 0.33693 0.41136 0.77729 0.0
C1270 C 0.30692 0.39416 0.72904 0.0
C1271 C 0.29226 0.38807 0.70284 0.0
C1272 C 0.33133 0.41605 0.73416 0.0
C1273 C 0.30288 0.40403 0.68169 0.0
C1274 C 0.32763 0.42544 0.68653 0.0
C1275 C 0.36666 0.45345 0.71788 0.0
C1276 C 0.38071 0.45949 0.74422 0.0
C1277 C 0.342 0.43169 0.71269 0.0
C1278 C 0.36921 0.44467 0.76552 0.0
C1279 C 0.34503 0.4228 0.76051 0.0
H1280 H 0.31815 0.63633 0.85452 0.0
H1281 H 0.32563 0.6863 0.78456 0.0
H1282 H 0.36556 0.65588 0.76929 0.0
H1283 H 0.39576 0.61264 0.77404 0.0
H1284 H 0.38538 0.55997 0.84203 0.0
H1285 H 0.34963 0.59384 0.86001 0.0
C1286 C 0.32886 0.6407 0.83614 0.0
C1287 C 0.31903 0.66345 0.82065 0.0
C1288 C 0.35126 0.62254 0.82709 0.0
C1289 C 0.33279 0.66878 0.79671 0.0
C1290 C 0.35561 0.65141 0.78799 0.0
C1291 C 0.38605 0.6089 0.79303 0.0
C1292 C 0.39331 0.5839 0.80673 0.0
C1293 C 0.36469 0.62789 0.80276 0.0
C1294 C 0.38016 0.57906 0.83109 0.0
C1295 C 0.35964 0.59838 0.84135 0.0
H1296 H 0.89933 0.54417 0.50727 0.0
H1297 H 0.95781 0.47326 0.49195 0.0
H1298 H 0.91677 0.43581 0.4985 0.0
H1299 H 0.86341 0.42305 0.50601 0.0
H1300 H 0.80412 0.49349 0.51853 0.0
H1301 H 0.84648 0.53147 0.51657 0.0
C1302 C 0.90321 0.52054 0.50571 0.0
C1303 C 0.93163 0.51154 0.49904 0.0
C1304 C 0.87944 0.49912 0.50936 0.0
C1305 C 0.93609 0.48079 0.49669 0.0
C1306 C 0.91269 0.45937 0.50064 0.0
C1307 C 0.8601 0.44678 0.50909 0.0
C1308 C 0.83109 0.4557 0.51317 0.0
C1309 C 0.88422 0.46826 0.50674 0.0
C1310 C 0.82653 0.48633 0.51608 0.0
C1311 C 0.85064 0.50793 0.51463 0.0
H1312 H 0.7455 0.8524 0.79316 0.0
H1313 H 0.80186 0.91669 0.84775 0.0
H1314 H 0.76832 0.9559 0.83786 0.0
H1315 H 0.72508 0.97254 0.81138 0.0
H1316 H 0.66896 0.90877 0.75575 0.0
H1317 H 0.69996 0.86863 0.76849 0.0
C1318 C 0.75004 0.87494 0.80309 0.0
C1319 C 0.77588 0.88185 0.8212 0.0
C1320 C 0.73081 0.89741 0.79701 0.0
C1321 C 0.78194 0.91105 0.83385 0.0
C1322 C 0.76284 0.9334 0.82813 0.0
C1323 C 0.71939 0.94981 0.80222 0.0
C1324 C 0.69478 0.94374 0.78252 0.0
C1325 C 0.73751 0.92696 0.80941 0.0
C1326 C 0.68774 0.9141 0.77096 0.0
C1327 C 0.70555 0.89114 0.77816 0.0
H1328 H 0.64564 0.54075 0.96136 0.0
H1329 H 0.61802 0.55371 0.0428 0.0
H1330 H 0.66233 0.58906 0.05578 0.0
H1331 H 0.70797 0.61821 0.04326 0.0
H1332 H 0.73364 0.60653 0.9612 0.0
H1333 H 0.69151 0.56842 0.94926 0.0
C1334 C 0.64924 0.55142 0.98192 0.0
C1335 C 0.62849 0.54472 1.00103 0.0
C1336 C 0.67461 0.57176 0.98919 0.0
C1337 C 0.63376 0.55835 0.02773 0.0
C1338 C 0.65907 0.57857 0.03517 0.0
C1339 C 0.70428 0.60707 0.02288 0.0
C1340 C 0.72315 0.61551 1.00289 0.0
C1341 C 0.67955 0.58564 0.01601 0.0
C1342 C 0.71878 0.60073 0.97666 0.0
C1343 C 0.69479 0.57895 0.96986 0.0
H1344 H 0.28284 0.60983 0.18509 0.0
H1345 H 0.30525 0.64316 0.26893 0.0
H1346 H 0.26578 0.60859 0.28298 0.0
H1347 H 0.22545 0.56815 0.27173 0.0
H1348 H 0.20153 0.53555 0.18825 0.0
H1349 H 0.24085 0.57066 0.17367 0.0
C1350 C 0.27883 0.6098 0.20638 0.0
C1351 C 0.29734 0.62879 0.2259 0.0
C1352 C 0.25576 0.59006 0.21438 0.0
C1353 C 0.29191 0.62827 0.25348 0.0
C1354 C 0.26922 0.60862 0.26157 0.0
C1355 C 0.22855 0.56926 0.25033 0.0
C1356 C 0.21014 0.55029 0.23094 0.0
C1357 C 0.25113 0.58934 0.24224 0.0
C1358 C 0.21514 0.55064 0.20338 0.0
C1359 C 0.23758 0.57061 0.1951 0.0
H1360 H 0.93587 0.5515 1.00767 0.0
H1361 H 0.93346 0.57236 0.09426 0.0
H1362 H 0.89885 0.61024 0.08614 0.0
H1363 H 0.86655 0.63553 0.05514 0.0
H1364 H 0.86224 0.61024 0.96909 0.0
H1365 H 0.90156 0.57555 0.97642 0.0
C1366 C 0.92763 0.56392 0.0249 0.0
C1367 C 0.93803 0.55885 0.05165 0.0
C1368 C 0.90622 0.58491 0.02019 0.0
C1369 C 0.92706 0.57599 0.07342 0.0
C1370 C 0.90678 0.59758 0.06884 0.0
C1371 C 0.87448 0.62272 0.0379 0.0
C1372 C 0.86181 0.62573 0.01156 0.0
C1373 C 0.89603 0.60205 0.04239 0.0
C1374 C 0.8718 0.60845 0.98954 0.0
C1375 C 0.89421 0.58858 0.99376 0.0
H1376 H 0.11449 0.95829 0.06642 0.0
H1377 H 0.15238 0.03818 0.03427 0.0
H1378 H 0.19081 0.00985 0.01412 0.0
H1379 H 0.2142 0.96231 1.00538 0.0
H1380 H 0.18011 0.88383 0.04149 0.0
H1381 H 0.14009 0.91163 0.06045 0.0
C1382 C 0.13137 0.96971 0.05538 0.0
C1383 C 0.12986 1.00038 0.05157 0.0
C1384 C 0.15418 0.95342 0.04436 0.0
C1385 C 0.1521 0.01447 0.03697 0.0
C1386 C 0.17437 0.99831 0.02552 0.0
C1387 C 0.19784 0.95132 0.01725 0.0
C1388 C 0.19984 0.92101 0.02178 0.0
C1389 C 0.17551 0.96773 0.02887 0.0
C1390 C 0.17893 0.90715 0.03767 0.0
C1391 C 0.15608 0.92305 0.04854 0.0
loop_
_geom_bond_atom_site_label_1
_geom_bond_atom_site_label_2
_geom_bond_distance
_geom_bond_site_symmetry_2
_ccdc_geom_bond_type
H0 C5 0.930 . S
H1 C8 0.930 . S
H2 C10 0.910 1_565 S
H3 C4 1.016 . S
C4 H3 1.016 . S
C4 N11 1.286 1_556 S
C5 H0 0.930 . S
C5 C6 1.397 . S
C5 C7 1.361 . S
C6 C5 1.397 . S
C6 C10 1.390 . S
C7 C5 1.361 . S
C7 C8 1.393 . S
C7 N11 1.413 . S
C8 H1 0.930 . S
C8 C7 1.393 . S
C8 C9 1.399 . S
C9 C8 1.399 . S
C9 C10 1.381 . S
C10 H2 0.910 1_545 S
C10 C6 1.390 . S
C10 C9 1.381 . S
N11 C4 1.286 1_554 S
N11 C7 1.413 . S
H12 C17 0.930 . S
H13 C20 0.930 . S
H14 C22 0.930 . S
H15 C16 1.016 . S
C16 H15 1.016 . S
C16 N23 1.286 . S
C17 H12 0.930 . S
C17 C18 1.397 . S
C17 C19 1.361 . S
C18 C17 1.397 . S
C18 C22 1.390 . S
C19 C17 1.361 . S
C19 C20 1.393 . S
C19 N23 1.413 . S
C20 H13 0.930 . S
C20 C19 1.393 . S
C20 C21 1.399 . S
C21 C20 1.399 . S
C21 C22 1.381 . S
C22 H14 0.930 . S
C22 C18 1.390 . S
C22 C21 1.381 . S
N23 C16 1.286 . S
N23 C19 1.413 . S
H24 C29 0.930 . S
H25 C32 0.930 1_455 S
H26 C34 0.930 . S
H27 C28 1.016 1_454 S
C28 H27 1.016 1_656 S
C28 N35 1.286 1_556 S
C29 H24 0.930 . S
C29 C30 1.397 . S
C29 C31 1.361 . S
C30 C29 1.397 . S
C30 C34 1.390 . S
C31 C29 1.361 . S
C31 C32 1.393 . S
C31 N35 1.413 . S
C32 H25 0.930 1_655 S
C32 C31 1.393 . S
C32 C33 1.399 . S
C33 C32 1.399 . S
C33 C34 1.381 . S
C34 H26 0.930 . S
C34 C30 1.390 . S
C34 C33 1.381 . S
N35 C28 1.286 1_554 S
N35 C31 1.413 . S
H36 C41 0.930 . S
H37 C44 0.930 . S
H38 C46 0.930 . S
H39 C40 1.016 . S
C40 H39 1.016 . S
C40 N47 1.286 . S
C41 H36 0.930 . S
C41 C42 1.397 . S
C41 C43 1.361 . S
C42 C41 1.397 . S
C42 C46 1.390 . S
C43 C41 1.361 . S
C43 C44 1.393 . S
C43 N47 1.413 . S
C44 H37 0.930 . S
C44 C43 1.393 . S
C44 C45 1.399 . S
C45 C44 1.399 . S
C45 C46 1.381 . S
C46 H38 0.930 . S
C46 C42 1.390 . S
C46 C45 1.381 . S
N47 C40 1.286 . S
N47 C43 1.413 . S
H48 C53 0.930 . S
H49 C56 0.930 . S
H50 C58 0.930 . S
H51 C52 1.016 . S
C52 H51 1.016 . S
C52 N59 1.286 . S
C53 H48 0.930 . S
C53 C54 1.397 . S
C53 C55 1.361 . S
C54 C53 1.397 . S
C54 C58 1.390 1_565 S
C55 C53 1.361 . S
C55 C56 1.393 . S
C55 N59 1.413 . S
C56 H49 0.930 . S
C56 C55 1.393 . S
C56 C57 1.399 1_565 S
C57 C56 1.399 1_545 S
C57 C58 1.381 . S
C58 H50 0.930 . S
C58 C54 1.390 1_545 S
C58 C57 1.381 . S
N59 C52 1.286 . S
N59 C55 1.413 . S
H60 C65 0.930 . S
H61 C68 0.930 . S
H62 C70 0.930 . S
H63 C64 1.016 . S
C64 H63 1.016 . S
C64 N71 1.286 . S
C65 H60 0.930 . S
C65 C66 1.397 . S
C65 C67 1.361 . S
C66 C65 1.397 . S
C66 C70 1.390 . S
C67 C65 1.361 . S
C67 C68 1.393 . S
C67 N71 1.413 . S
C68 H61 0.930 . S
C68 C67 1.393 . S
C68 C69 1.399 . S
C69 C68 1.399 . S
C69 C70 1.381 . S
C70 H62 0.930 . S
C70 C66 1.390 . S
C70 C69 1.381 . S
N71 C64 1.286 . S
N71 C67 1.413 . S
H72 C77 0.930 . S
H73 C80 0.930 . S
H74 C82 0.930 . S
H75 C76 1.016 . S
C76 H75 1.016 . S
C76 N83 1.286 . S
C77 H72 0.930 . S
C77 C78 1.397 1_455 S
C77 C79 1.361 . S
C78 C77 1.397 1_655 S
C78 C82 1.390 . S
C79 C77 1.361 . S
C79 C80 1.393 1_455 S
C79 N83 1.413 . S
C80 H73 0.930 . S
C80 C79 1.393 1_655 S
C80 C81 1.399 . S
C81 C80 1.399 . S
C81 C82 1.381 . S
C82 H74 0.930 . S
C82 C78 1.390 . S
C82 C81 1.381 . S
N83 C76 1.286 . S
N83 C79 1.413 . S
H84 C89 0.930 . S
H85 C92 0.930 . S
H86 C94 0.930 . S
H87 C88 1.016 . S
C88 H87 1.016 . S
C88 N95 1.286 . S
C89 H84 0.930 . S
C89 C90 1.397 . S
C89 C91 1.361 . S
C90 C89 1.397 . S
C90 C94 1.390 . S
C91 C89 1.361 . S
C91 C92 1.393 . S
C91 N95 1.413 . S
C92 H85 0.930 . S
C92 C91 1.393 . S
C92 C93 1.399 . S
C93 C92 1.399 . S
C93 C94 1.381 . S
C94 H86 0.930 . S
C94 C90 1.390 . S
C94 C93 1.381 . S
N95 C88 1.286 . S
N95 C91 1.413 . S
H96 C101 0.930 . S
H97 C104 0.930 . S
H98 C106 0.930 . S
H99 C100 1.016 . S
C100 H99 1.016 . S
C100 N107 1.286 . S
C101 H96 0.930 . S
C101 C102 1.397 . S
C101 C103 1.361 . S
C102 C101 1.397 . S
C102 C106 1.390 . S
C103 C101 1.361 . S
C103 C104 1.393 . S
C103 N107 1.413 . S
C104 H97 0.930 . S
C104 C103 1.393 . S
C104 C105 1.399 . S
C105 C104 1.399 . S
C105 C106 1.381 . S
C106 H98 0.930 . S
C106 C102 1.390 . S
C106 C105 1.381 . S
N107 C100 1.286 . S
N107 C103 1.413 . S
H108 C113 0.930 . S
H109 C116 0.930 . S
H110 C118 0.930 . S
H111 C112 1.016 . S
C112 H111 1.016 . S
C112 N119 1.286 . S
C113 H108 0.930 . S
C113 C114 1.397 1_565 S
C113 C115 1.361 . S
C114 C113 1.397 1_545 S
C114 C118 1.390 . S
C115 C113 1.361 . S
C115 C116 1.393 . S
C115 N119 1.413 . S
C116 H109 0.930 . S
C116 C115 1.393 . S
C116 C117 1.399 . S
C117 C116 1.399 . S
C117 C118 1.381 1_565 S
C118 H110 0.930 . S
C118 C114 1.390 . S
C118 C117 1.381 1_545 S
N119 C112 1.286 . S
N119 C115 1.413 . S
H120 C125 0.930 . S
H121 C128 0.930 . S
H122 C130 0.930 . S
H123 C124 1.016 . S
C124 H123 1.016 . S
C124 N131 1.286 . S
C125 H120 0.930 . S
C125 C126 1.397 . S
C125 C127 1.361 . S
C126 C125 1.397 . S
C126 C130 1.390 . S
C127 C125 1.361 . S
C127 C128 1.393 . S
C127 N131 1.413 . S
C128 H121 0.930 . S
C128 C127 1.393 . S
C128 C129 1.399 . S
C129 C128 1.399 . S
C129 C130 1.381 . S
C130 H122 0.930 . S
C130 C126 1.390 . S
C130 C129 1.381 . S
N131 C124 1.286 . S
N131 C127 1.413 . S
H132 C137 0.930 . S
H133 C140 0.930 . S
H134 C142 0.930 . S
H135 C136 1.016 . S
C136 H135 1.016 . S
C136 N143 1.286 . S
C137 H132 0.930 . S
C137 C138 1.397 . S
C137 C139 1.361 . S
C138 C137 1.397 . S
C138 C142 1.390 . S
C139 C137 1.361 . S
C139 C140 1.393 . S
C139 N143 1.413 . S
C140 H133 0.930 . S
C140 C139 1.393 . S
C140 C141 1.399 . S
C141 C140 1.399 . S
C141 C142 1.381 . S
C142 H134 0.930 . S
C142 C138 1.390 . S
C142 C141 1.381 . S
N143 C136 1.286 . S
N143 C139 1.413 . S
H144 C149 0.930 . S
H145 C152 0.930 . S
H146 C154 0.930 . S
H147 C148 1.016 . S
C148 H147 1.016 . S
C148 N155 1.286 . S
C149 H144 0.930 . S
C149 C150 1.397 . S
C149 C151 1.361 . S
C150 C149 1.397 . S
C150 C154 1.390 . S
C151 C149 1.361 . S
C151 C152 1.393 . S
C151 N155 1.413 . S
C152 H145 0.930 . S
C152 C151 1.393 . S
C152 C153 1.399 . S
C153 C152 1.399 . S
C153 C154 1.381 . S
C154 H146 0.930 . S
C154 C150 1.390 . S
C154 C153 1.381 . S
N155 C148 1.286 . S
N155 C151 1.413 . S
H156 C161 0.930 . S
H157 C164 0.930 1_554 S
H158 C166 0.930 . S
H159 C160 1.016 . S
C160 H159 1.016 . S
C160 N167 1.286 1_554 S
C161 H156 0.930 . S
C161 C162 1.397 . S
C161 C163 1.361 . S
C162 C161 1.397 . S
C162 C166 1.390 . S
C163 C161 1.361 . S
C163 C164 1.393 . S
C163 N167 1.413 . S
C164 H157 0.930 1_556 S
C164 C163 1.393 . S
C164 C165 1.399 . S
C165 C164 1.399 . S
C165 C166 1.381 . S
C166 H158 0.930 . S
C166 C162 1.390 . S
C166 C165 1.381 . S
N167 C160 1.286 1_556 S
N167 C163 1.413 . S
H168 C173 0.930 . S
H169 C176 0.930 . S
H170 C178 0.930 . S
H171 C172 1.016 . S
C172 H171 1.016 . S
C172 N179 1.286 . S
C173 H168 0.930 . S
C173 C174 1.397 . S
C173 C175 1.361 . S
C174 C173 1.397 . S
C174 C178 1.390 . S
C175 C173 1.361 . S
C175 C176 1.393 . S
C175 N179 1.413 . S
C176 H169 0.930 . S
C176 C175 1.393 . S
C176 C177 1.399 . S
C177 C176 1.399 . S
C177 C178 1.381 . S
C178 H170 0.930 . S
C178 C174 1.390 . S
C178 C177 1.381 . S
N179 C172 1.286 . S
N179 C175 1.413 . S
H180 C185 0.930 . S
H181 C188 0.930 . S
H182 C190 0.930 . S
H183 C184 1.016 1_565 S
C184 H183 1.016 1_545 S
C184 N191 1.286 . S
C185 H180 0.930 . S
C185 C186 1.397 . S
C185 C187 1.361 . S
C186 C185 1.397 . S
C186 C190 1.390 1_556 S
C187 C185 1.361 . S
C187 C188 1.393 . S
C187 N191 1.413 . S
C188 H181 0.930 . S
C188 C187 1.393 . S
C188 C189 1.399 . S
C189 C188 1.399 . S
C189 C190 1.381 1_556 S
C190 H182 0.930 . S
C190 C186 1.390 1_554 S
C190 C189 1.381 1_554 S
N191 C184 1.286 . S
N191 C187 1.413 . S
Mn192 O197 2.095 . S
Mn192 O207 2.162 . S
Mn192 O208 2.297 . S
Mn192 O216 2.385 . S
Mn192 O217 2.209 1_554 S
Mn192 O218 2.094 . S
Mn193 O198 2.121 . S
Mn193 N200 2.257 . S
Mn193 N209 2.282 . S
Mn193 O217 2.215 . S
Mn193 O219 2.117 . S
C194 O216 1.234 1_556 S
C194 O217 1.283 . S
C195 O207 1.281 . S
C195 O208 1.236 . S
C196 O218 1.240 . S
C196 O219 1.264 1_554 S
O197 Mn192 2.095 . S
O197 C206 1.250 . S
O198 Mn193 2.121 . S
O198 C206 1.258 1_556 S
C199 N200 1.326 . S
C199 C203 1.460 . S
C199 H205 0.929 . S
N200 Mn193 2.257 . S
N200 C199 1.326 . S
N200 C204 1.362 . S
C201 C202 1.258 . S
C201 C204 1.431 . S
C201 C221 1.449 . S
C202 C201 1.258 . S
C202 C203 1.477 . S
C202 H222 0.931 . S
C203 C199 1.460 . S
C203 C202 1.477 . S
C203 H223 0.930 . S
C204 N200 1.362 . S
C204 C201 1.431 . S
C204 C214 1.476 . S
H205 C199 0.929 . S
C206 O197 1.250 . S
C206 O198 1.258 1_554 S
O207 Mn192 2.162 . S
O207 C195 1.281 . S
O208 Mn192 2.297 . S
O208 C195 1.236 . S
N209 Mn193 2.282 . S
N209 C210 1.328 . S
N209 C214 1.318 . S
C210 N209 1.328 . S
C210 C211 1.457 . S
C210 H215 0.929 . S
C211 C210 1.457 . S
C211 C212 1.291 . S
C211 H224 0.931 . S
C212 C211 1.291 . S
C212 C213 1.373 . S
C212 H225 0.929 . S
C213 C212 1.373 . S
C213 C214 1.396 . S
C213 C220 1.403 . S
C214 C204 1.476 . S
C214 N209 1.318 . S
C214 C213 1.396 . S
H215 C210 0.929 . S
O216 Mn192 2.385 . S
O216 C194 1.234 1_554 S
O217 Mn192 2.209 1_556 S
O217 Mn193 2.215 . S
O217 C194 1.283 . S
O218 Mn192 2.094 . S
O218 C196 1.240 . S
O219 Mn193 2.117 . S
O219 C196 1.264 1_556 S
C220 C213 1.403 . S
C220 C221 1.399 . S
C220 H226 0.929 . S
C221 C201 1.449 . S
C221 C220 1.399 . S
C221 H227 0.930 . S
H222 C202 0.931 . S
H223 C203 0.930 . S
H224 C211 0.931 . S
H225 C212 0.929 . S
H226 C220 0.929 . S
H227 C221 0.930 . S
Mn228 O233 2.095 . S
Mn228 O243 2.162 . S
Mn228 O244 2.297 . S
Mn228 O252 2.385 . S
Mn228 O253 2.209 . S
Mn228 O254 2.094 . S
Mn229 O234 2.121 . S
Mn229 N236 2.257 . S
Mn229 N245 2.282 . S
Mn229 O253 2.215 . S
Mn229 O255 2.117 . S
C230 O252 1.234 . S
C230 O253 1.283 . S
C231 O243 1.281 . S
C231 O244 1.236 . S
C232 O254 1.240 . S
C232 O255 1.264 . S
O233 Mn228 2.095 . S
O233 C242 1.250 . S
O234 Mn229 2.121 . S
O234 C242 1.258 . S
C235 N236 1.326 . S
C235 C239 1.460 . S
C235 H241 0.929 . S
N236 Mn229 2.257 . S
N236 C235 1.326 . S
N236 C240 1.362 . S
C237 C238 1.258 . S
C237 C240 1.431 . S
C237 C257 1.449 . S
C238 C237 1.258 . S
C238 C239 1.477 . S
C238 H258 0.931 . S
C239 C235 1.460 . S
C239 C238 1.477 . S
C239 H259 0.930 . S
C240 N236 1.362 . S
C240 C237 1.431 . S
C240 C250 1.476 . S
H241 C235 0.929 . S
C242 O233 1.250 . S
C242 O234 1.258 . S
O243 Mn228 2.162 . S
O243 C231 1.281 . S
O244 Mn228 2.297 . S
O244 C231 1.236 . S
N245 Mn229 2.282 . S
N245 C246 1.328 . S
N245 C250 1.318 . S
C246 N245 1.328 . S
C246 C247 1.457 . S
C246 H251 0.929 . S
C247 C246 1.457 . S
C247 C248 1.291 . S
C247 H260 0.931 . S
C248 C247 1.291 . S
C248 C249 1.373 . S
C248 H261 0.929 . S
C249 C248 1.373 . S
C249 C250 1.396 . S
C249 C256 1.403 . S
C250 C240 1.476 . S
C250 N245 1.318 . S
C250 C249 1.396 . S
H251 C246 0.929 . S
O252 Mn228 2.385 . S
O252 C230 1.234 . S
O253 Mn228 2.209 . S
O253 Mn229 2.215 . S
O253 C230 1.283 . S
O254 Mn228 2.094 . S
O254 C232 1.240 . S
O255 Mn229 2.117 . S
O255 C232 1.264 . S
C256 C249 1.403 . S
C256 C257 1.399 . S
C256 H262 0.929 . S
C257 C237 1.449 . S
C257 C256 1.399 . S
C257 H263 0.930 . S
H258 C238 0.931 . S
H259 C239 0.930 . S
H260 C247 0.931 . S
H261 C248 0.929 . S
H262 C256 0.929 . S
H263 C257 0.930 . S
Mn264 O269 2.095 1_554 S
Mn264 O279 2.162 . S
Mn264 O280 2.297 1_554 S
Mn264 O288 2.385 . S
Mn264 O289 2.209 1_554 S
Mn264 O290 2.094 . S
Mn265 O270 2.121 . S
Mn265 N272 2.257 . S
Mn265 N281 2.280 . S
Mn265 O289 2.215 . S
Mn265 O291 2.117 1_556 S
C266 O288 1.234 . S
C266 O289 1.283 1_554 S
C267 O279 1.281 . S
C267 O280 1.236 1_554 S
C268 O290 1.240 . S
C268 O291 1.264 . S
O269 Mn264 2.095 1_556 S
O269 C278 1.250 . S
O270 Mn265 2.121 . S
O270 C278 1.258 . S
C271 N272 1.326 . S
C271 C275 1.460 . S
C271 H277 0.929 . S
N272 Mn265 2.257 . S
N272 C271 1.326 . S
N272 C276 1.362 . S
C273 C274 1.258 . S
C273 C276 1.431 . S
C273 C293 1.449 . S
C274 C273 1.258 . S
C274 C275 1.477 . S
C274 H294 0.931 . S
C275 C271 1.460 . S
C275 C274 1.477 . S
C275 H295 0.930 . S
C276 N272 1.362 . S
C276 C273 1.431 . S
C276 C286 1.476 . S
H277 C271 0.929 . S
C278 O269 1.250 . S
C278 O270 1.258 . S
O279 Mn264 2.162 . S
O279 C267 1.281 . S
O280 Mn264 2.297 1_556 S
O280 C267 1.236 1_556 S
N281 Mn265 2.280 . S
N281 C282 1.331 1_556 S
N281 C286 1.316 . S
C282 N281 1.331 1_554 S
C282 C283 1.457 . S
C282 H287 0.929 . S
C283 C282 1.457 . S
C283 C284 1.291 . S
C283 H296 0.931 . S
C284 C283 1.291 . S
C284 C285 1.373 1_554 S
C284 H297 0.929 . S
C285 C284 1.373 1_556 S
C285 C286 1.396 . S
C285 C292 1.403 . S
C286 C276 1.476 . S
C286 N281 1.316 . S
C286 C285 1.396 . S
H287 C282 0.929 . S
O288 Mn264 2.385 . S
O288 C266 1.234 . S
O289 Mn264 2.209 1_556 S
O289 Mn265 2.215 . S
O289 C266 1.283 1_556 S
O290 Mn264 2.094 . S
O290 C268 1.240 . S
O291 Mn265 2.117 1_554 S
O291 C268 1.264 . S
C292 C285 1.403 . S
C292 C293 1.399 . S
C292 H298 0.929 . S
C293 C273 1.449 . S
C293 C292 1.399 . S
C293 H299 0.930 . S
H294 C274 0.931 . S
H295 C275 0.930 . S
H296 C283 0.931 . S
H297 C284 0.929 . S
H298 C292 0.929 . S
H299 C293 0.930 . S
Mn300 O305 2.095 . S
Mn300 O315 2.162 . S
Mn300 O316 2.297 . S
Mn300 O324 2.385 . S
Mn300 O325 2.209 1_545 S
Mn300 O326 2.094 . S
Mn301 O306 2.121 . S
Mn301 N308 2.257 . S
Mn301 N317 2.282 . S
Mn301 O325 2.215 . S
Mn301 O327 2.117 1_565 S
C302 O324 1.234 1_565 S
C302 O325 1.283 . S
C303 O315 1.281 . S
C303 O316 1.236 . S
C304 O326 1.240 . S
C304 O327 1.265 . S
O305 Mn300 2.095 . S
O305 C314 1.250 . S
O306 Mn301 2.121 . S
O306 C314 1.258 1_565 S
C307 N308 1.326 . S
C307 C311 1.460 . S
C307 H313 0.929 . S
N308 Mn301 2.257 . S
N308 C307 1.326 . S
N308 C312 1.362 . S
C309 C310 1.258 . S
C309 C312 1.431 . S
C309 C329 1.449 . S
C310 C309 1.258 . S
C310 C311 1.477 . S
C310 H330 0.931 . S
C311 C307 1.460 . S
C311 C310 1.477 . S
C311 H331 0.930 . S
C312 N308 1.362 . S
C312 C309 1.431 . S
C312 C322 1.476 . S
H313 C307 0.929 . S
C314 O305 1.250 . S
C314 O306 1.258 1_545 S
O315 Mn300 2.162 . S
O315 C303 1.281 . S
O316 Mn300 2.297 . S
O316 C303 1.236 . S
N317 Mn301 2.282 . S
N317 C318 1.328 . S
N317 C322 1.318 . S
C318 N317 1.328 . S
C318 C319 1.457 . S
C318 H323 0.929 . S
C319 C318 1.457 . S
C319 C320 1.291 . S
C319 H332 0.931 . S
C320 C319 1.291 . S
C320 C321 1.373 . S
C320 H333 0.929 . S
C321 C320 1.373 . S
C321 C322 1.396 . S
C321 C328 1.403 . S
C322 C312 1.476 . S
C322 N317 1.318 . S
C322 C321 1.396 . S
H323 C318 0.929 . S
O324 Mn300 2.385 . S
O324 C302 1.234 1_545 S
O325 Mn300 2.209 1_565 S
O325 Mn301 2.215 . S
O325 C302 1.283 . S
O326 Mn300 2.094 . S
O326 C304 1.240 . S
O327 Mn301 2.117 1_545 S
O327 C304 1.265 . S
C328 C321 1.403 . S
C328 C329 1.399 . S
C328 H334 0.929 . S
C329 C309 1.449 . S
C329 C328 1.399 . S
C329 H335 0.930 . S
H330 C310 0.931 . S
H331 C311 0.930 . S
H332 C319 0.931 . S
H333 C320 0.929 . S
H334 C328 0.929 . S
H335 C329 0.930 . S
Mn336 O341 2.095 . S
Mn336 O351 2.162 . S
Mn336 O352 2.297 . S
Mn336 O360 2.385 . S
Mn336 O361 2.209 . S
Mn336 O362 2.094 . S
Mn337 O342 2.121 . S
Mn337 N344 2.257 . S
Mn337 N353 2.282 . S
Mn337 O361 2.215 . S
Mn337 O363 2.117 . S
C338 O360 1.234 . S
C338 O361 1.283 . S
C339 O351 1.281 . S
C339 O352 1.236 . S
C340 O362 1.240 . S
C340 O363 1.264 . S
O341 Mn336 2.095 . S
O341 C350 1.250 . S
O342 Mn337 2.121 . S
O342 C350 1.258 . S
C343 N344 1.326 . S
C343 C347 1.460 . S
C343 H349 0.929 . S
N344 Mn337 2.257 . S
N344 C343 1.326 . S
N344 C348 1.362 . S
C345 C346 1.258 . S
C345 C348 1.431 . S
C345 C365 1.449 . S
C346 C345 1.258 . S
C346 C347 1.477 . S
C346 H366 0.931 . S
C347 C343 1.460 . S
C347 C346 1.477 . S
C347 H367 0.930 . S
C348 N344 1.362 . S
C348 C345 1.431 . S
C348 C358 1.476 . S
H349 C343 0.929 . S
C350 O341 1.250 . S
C350 O342 1.258 . S
O351 Mn336 2.162 . S
O351 C339 1.281 . S
O352 Mn336 2.297 . S
O352 C339 1.236 . S
N353 Mn337 2.282 . S
N353 C354 1.328 . S
N353 C358 1.318 . S
C354 N353 1.328 . S
C354 C355 1.457 . S
C354 H359 0.929 . S
C355 C354 1.457 . S
C355 C356 1.291 . S
C355 H368 0.931 . S
C356 C355 1.291 . S
C356 C357 1.373 . S
C356 H369 0.929 . S
C357 C356 1.373 . S
C357 C358 1.396 . S
C357 C364 1.403 . S
C358 C348 1.476 . S
C358 N353 1.318 . S
C358 C357 1.396 . S
H359 C354 0.929 . S
O360 Mn336 2.385 . S
O360 C338 1.234 . S
O361 Mn336 2.209 . S
O361 Mn337 2.215 . S
O361 C338 1.283 . S
O362 Mn336 2.094 . S
O362 C340 1.240 . S
O363 Mn337 2.117 . S
O363 C340 1.264 . S
C364 C357 1.403 . S
C364 C365 1.399 . S
C364 H370 0.929 . S
C365 C345 1.449 . S
C365 C364 1.399 . S
C365 H371 0.930 . S
H366 C346 0.931 . S
H367 C347 0.930 . S
H368 C355 0.931 . S
H369 C356 0.929 . S
H370 C364 0.929 . S
H371 C365 0.930 . S
Mn372 O377 2.095 . S
Mn372 O387 2.162 . S
Mn372 O388 2.297 . S
Mn372 O396 2.385 . S
Mn372 O397 2.209 . S
Mn372 O398 2.094 . S
Mn373 O378 2.121 . S
Mn373 N380 2.257 . S
Mn373 N389 2.282 . S
Mn373 O397 2.215 . S
Mn373 O399 2.117 . S
C374 O396 1.234 . S
C374 O397 1.283 . S
C375 O387 1.281 . S
C375 O388 1.236 . S
C376 O398 1.240 . S
C376 O399 1.264 . S
O377 Mn372 2.095 . S
O377 C386 1.250 . S
O378 Mn373 2.121 . S
O378 C386 1.258 . S
C379 N380 1.326 . S
C379 C383 1.460 . S
C379 H385 0.929 . S
N380 Mn373 2.257 . S
N380 C379 1.326 . S
N380 C384 1.362 . S
C381 C382 1.258 . S
C381 C384 1.431 . S
C381 C401 1.449 . S
C382 C381 1.258 . S
C382 C383 1.477 . S
C382 H402 0.931 . S
C383 C379 1.460 . S
C383 C382 1.477 . S
C383 H403 0.930 . S
C384 N380 1.362 . S
C384 C381 1.431 . S
C384 C394 1.476 . S
H385 C379 0.929 . S
C386 O377 1.250 . S
C386 O378 1.258 . S
O387 Mn372 2.162 . S
O387 C375 1.281 . S
O388 Mn372 2.297 . S
O388 C375 1.236 . S
N389 Mn373 2.282 . S
N389 C390 1.328 . S
N389 C394 1.318 . S
C390 N389 1.328 . S
C390 C391 1.457 . S
C390 H395 0.929 . S
C391 C390 1.457 . S
C391 C392 1.291 . S
C391 H404 0.931 . S
C392 C391 1.291 . S
C392 C393 1.373 . S
C392 H405 0.929 . S
C393 C392 1.373 . S
C393 C394 1.396 . S
C393 C400 1.403 . S
C394 C384 1.476 . S
C394 N389 1.318 . S
C394 C393 1.396 . S
H395 C390 0.929 . S
O396 Mn372 2.385 . S
O396 C374 1.234 . S
O397 Mn372 2.209 . S
O397 Mn373 2.215 . S
O397 C374 1.283 . S
O398 Mn372 2.094 . S
O398 C376 1.240 . S
O399 Mn373 2.117 . S
O399 C376 1.264 . S
C400 C393 1.403 . S
C400 C401 1.399 . S
C400 H406 0.929 . S
C401 C381 1.449 . S
C401 C400 1.399 . S
C401 H407 0.930 . S
H402 C382 0.931 . S
H403 C383 0.930 . S
H404 C391 0.931 . S
H405 C392 0.929 . S
H406 C400 0.929 . S
H407 C401 0.930 . S
Mn408 O413 2.095 . S
Mn408 O423 2.162 . S
Mn408 O424 2.297 . S
Mn408 O432 2.385 . S
Mn408 O433 2.209 . S
Mn408 O434 2.094 . S
Mn409 O414 2.121 . S
Mn409 N416 2.257 . S
Mn409 N425 2.282 . S
Mn409 O433 2.215 . S
Mn409 O435 2.117 . S
C410 O432 1.234 . S
C410 O433 1.283 . S
C411 O423 1.281 . S
C411 O424 1.236 . S
C412 O434 1.240 . S
C412 O435 1.264 . S
O413 Mn408 2.095 . S
O413 C422 1.250 . S
O414 Mn409 2.121 . S
O414 C422 1.258 . S
C415 N416 1.326 . S
C415 C419 1.460 . S
C415 H421 0.929 . S
N416 Mn409 2.257 . S
N416 C415 1.326 . S
N416 C420 1.362 . S
C417 C418 1.258 . S
C417 C420 1.431 . S
C417 C437 1.449 . S
C418 C417 1.258 . S
C418 C419 1.477 . S
C418 H438 0.931 . S
C419 C415 1.460 . S
C419 C418 1.477 . S
C419 H439 0.930 . S
C420 N416 1.362 . S
C420 C417 1.431 . S
C420 C430 1.476 . S
H421 C415 0.929 . S
C422 O413 1.250 . S
C422 O414 1.258 . S
O423 Mn408 2.162 . S
O423 C411 1.281 . S
O424 Mn408 2.297 . S
O424 C411 1.236 . S
N425 Mn409 2.282 . S
N425 C426 1.328 . S
N425 C430 1.318 . S
C426 N425 1.328 . S
C426 C427 1.457 . S
C426 H431 0.929 . S
C427 C426 1.457 . S
C427 C428 1.291 . S
C427 H440 0.931 . S
C428 C427 1.291 . S
C428 C429 1.373 . S
C428 H441 0.929 . S
C429 C428 1.373 . S
C429 C430 1.396 . S
C429 C436 1.403 . S
C430 C420 1.476 . S
C430 N425 1.318 . S
C430 C429 1.396 . S
H431 C426 0.929 . S
O432 Mn408 2.385 . S
O432 C410 1.234 . S
O433 Mn408 2.209 . S
O433 Mn409 2.215 . S
O433 C410 1.283 . S
O434 Mn408 2.094 . S
O434 C412 1.240 . S
O435 Mn409 2.117 . S
O435 C412 1.264 . S
C436 C429 1.403 . S
C436 C437 1.399 . S
C436 H442 0.929 . S
C437 C417 1.449 . S
C437 C436 1.399 . S
C437 H443 0.930 . S
H438 C418 0.931 . S
H439 C419 0.930 . S
H440 C427 0.931 . S
H441 C428 0.929 . S
H442 C436 0.929 . S
H443 C437 0.930 . S
Mn444 O449 2.095 . S
Mn444 O459 2.162 . S
Mn444 O460 2.297 . S
Mn444 O468 2.385 1_565 S
Mn444 O469 2.209 1_565 S
Mn444 O470 2.094 . S
Mn445 O450 2.121 . S
Mn445 N452 2.257 . S
Mn445 N461 2.282 . S
Mn445 O469 2.215 . S
Mn445 O471 2.117 . S
C446 O468 1.234 . S
C446 O469 1.283 . S
C447 O459 1.281 . S
C447 O460 1.236 . S
C448 O470 1.240 . S
C448 O471 1.264 1_565 S
O449 Mn444 2.095 . S
O449 C458 1.250 1_565 S
O450 Mn445 2.121 . S
O450 C458 1.258 . S
C451 N452 1.326 . S
C451 C455 1.460 . S
C451 H457 0.929 . S
N452 Mn445 2.257 . S
N452 C451 1.326 . S
N452 C456 1.362 . S
C453 C454 1.258 . S
C453 C456 1.431 . S
C453 C473 1.449 . S
C454 C453 1.258 . S
C454 C455 1.477 . S
C454 H474 0.931 . S
C455 C451 1.460 . S
C455 C454 1.477 . S
C455 H475 0.930 . S
C456 N452 1.362 . S
C456 C453 1.431 . S
C456 C466 1.476 . S
H457 C451 0.929 . S
C458 O449 1.250 1_545 S
C458 O450 1.258 . S
O459 Mn444 2.162 . S
O459 C447 1.281 . S
O460 Mn444 2.297 . S
O460 C447 1.236 . S
N461 Mn445 2.282 . S
N461 C462 1.328 . S
N461 C466 1.318 . S
C462 N461 1.328 . S
C462 C463 1.457 . S
C462 H467 0.929 . S
C463 C462 1.457 . S
C463 C464 1.291 . S
C463 H476 0.931 . S
C464 C463 1.291 . S
C464 C465 1.373 . S
C464 H477 0.929 . S
C465 C464 1.373 . S
C465 C466 1.396 . S
C465 C472 1.403 . S
C466 C456 1.476 . S
C466 N461 1.318 . S
C466 C465 1.396 . S
H467 C462 0.929 . S
O468 Mn444 2.385 1_545 S
O468 C446 1.234 . S
O469 Mn444 2.209 1_545 S
O469 Mn445 2.215 . S
O469 C446 1.283 . S
O470 Mn444 2.094 . S
O470 C448 1.240 . S
O471 Mn445 2.117 . S
O471 C448 1.264 1_545 S
C472 C465 1.403 . S
C472 C473 1.399 . S
C472 H478 0.929 . S
C473 C453 1.449 . S
C473 C472 1.399 . S
C473 H479 0.930 . S
H474 C454 0.931 . S
H475 C455 0.930 . S
H476 C463 0.931 . S
H477 C464 0.929 . S
H478 C472 0.929 . S
H479 C473 0.930 . S
Mn480 O485 2.095 . S
Mn480 O495 2.162 . S
Mn480 O496 2.297 . S
Mn480 O504 2.385 1_455 S
Mn480 O505 2.209 1_455 S
Mn480 O506 2.094 . S
Mn481 O486 2.121 . S
Mn481 N488 2.257 . S
Mn481 N497 2.282 . S
Mn481 O505 2.215 . S
Mn481 O507 2.117 . S
C482 O504 1.234 . S
C482 O505 1.283 . S
C483 O495 1.281 . S
C483 O496 1.236 . S
C484 O506 1.240 . S
C484 O507 1.264 1_455 S
O485 Mn480 2.095 . S
O485 C494 1.251 . S
O486 Mn481 2.121 . S
O486 C494 1.257 1_655 S
C487 N488 1.326 . S
C487 C491 1.460 . S
C487 H493 0.929 . S
N488 Mn481 2.257 . S
N488 C487 1.326 . S
N488 C492 1.362 . S
C489 C490 1.258 . S
C489 C492 1.431 . S
C489 C509 1.449 . S
C490 C489 1.258 . S
C490 C491 1.477 . S
C490 H510 0.931 . S
C491 C487 1.460 . S
C491 C490 1.477 . S
C491 H511 0.930 . S
C492 N488 1.362 . S
C492 C489 1.431 . S
C492 C502 1.476 . S
H493 C487 0.929 . S
C494 O485 1.251 . S
C494 O486 1.257 1_455 S
O495 Mn480 2.162 . S
O495 C483 1.281 . S
O496 Mn480 2.297 . S
O496 C483 1.236 . S
N497 Mn481 2.282 . S
N497 C498 1.328 . S
N497 C502 1.318 . S
C498 N497 1.328 . S
C498 C499 1.457 . S
C498 H503 0.929 . S
C499 C498 1.457 . S
C499 C500 1.291 . S
C499 H512 0.931 . S
C500 C499 1.291 . S
C500 C501 1.373 . S
C500 H513 0.929 . S
C501 C500 1.373 . S
C501 C502 1.396 . S
C501 C508 1.403 . S
C502 C492 1.476 . S
C502 N497 1.318 . S
C502 C501 1.396 . S
H503 C498 0.929 . S
O504 Mn480 2.385 1_655 S
O504 C482 1.234 . S
O505 Mn480 2.209 1_655 S
O505 Mn481 2.215 . S
O505 C482 1.283 . S
O506 Mn480 2.094 . S
O506 C484 1.240 . S
O507 Mn481 2.117 . S
O507 C484 1.264 1_655 S
C508 C501 1.403 . S
C508 C509 1.399 . S
C508 H514 0.929 . S
C509 C489 1.449 . S
C509 C508 1.399 . S
C509 H515 0.930 . S
H510 C490 0.931 . S
H511 C491 0.930 . S
H512 C499 0.931 . S
H513 C500 0.929 . S
H514 C508 0.929 . S
H515 C509 0.930 . S
Mn516 O521 2.095 . S
Mn516 O531 2.162 . S
Mn516 O532 2.297 . S
Mn516 O540 2.385 . S
Mn516 O541 2.209 . S
Mn516 O542 2.094 . S
Mn517 O522 2.121 . S
Mn517 N524 2.257 . S
Mn517 N533 2.282 . S
Mn517 O541 2.215 . S
Mn517 O543 2.117 . S
C518 O540 1.234 . S
C518 O541 1.283 . S
C519 O531 1.281 . S
C519 O532 1.236 . S
C520 O542 1.240 . S
C520 O543 1.264 . S
O521 Mn516 2.095 . S
O521 C530 1.250 . S
O522 Mn517 2.121 . S
O522 C530 1.258 . S
C523 N524 1.326 . S
C523 C527 1.460 . S
C523 H529 0.929 . S
N524 Mn517 2.257 . S
N524 C523 1.326 . S
N524 C528 1.362 . S
C525 C526 1.258 . S
C525 C528 1.431 . S
C525 C545 1.449 . S
C526 C525 1.258 . S
C526 C527 1.477 . S
C526 H546 0.931 . S
C527 C523 1.460 . S
C527 C526 1.477 . S
C527 H547 0.930 . S
C528 N524 1.362 . S
C528 C525 1.431 . S
C528 C538 1.476 . S
H529 C523 0.929 . S
C530 O521 1.250 . S
C530 O522 1.258 . S
O531 Mn516 2.162 . S
O531 C519 1.281 . S
O532 Mn516 2.297 . S
O532 C519 1.236 . S
N533 Mn517 2.282 . S
N533 C534 1.328 . S
N533 C538 1.318 . S
C534 N533 1.328 . S
C534 C535 1.457 . S
C534 H539 0.929 . S
C535 C534 1.457 . S
C535 C536 1.291 . S
C535 H548 0.931 . S
C536 C535 1.291 . S
C536 C537 1.373 . S
C536 H549 0.929 . S
C537 C536 1.373 . S
C537 C538 1.396 . S
C537 C544 1.403 . S
C538 C528 1.476 . S
C538 N533 1.318 . S
C538 C537 1.396 . S
H539 C534 0.929 . S
O540 Mn516 2.385 . S
O540 C518 1.234 . S
O541 Mn516 2.209 . S
O541 Mn517 2.215 . S
O541 C518 1.283 . S
O542 Mn516 2.094 . S
O542 C520 1.240 . S
O543 Mn517 2.117 . S
O543 C520 1.264 . S
C544 C537 1.403 . S
C544 C545 1.399 . S
C544 H550 0.929 . S
C545 C525 1.449 . S
C545 C544 1.399 . S
C545 H551 0.930 . S
H546 C526 0.931 . S
H547 C527 0.930 . S
H548 C535 0.931 . S
H549 C536 0.929 . S
H550 C544 0.929 . S
H551 C545 0.930 . S
Mn552 O557 2.113 . S
Mn552 O567 2.162 . S
Mn552 O568 2.297 . S
Mn552 O576 2.385 . S
Mn552 O577 2.209 1_455 S
Mn552 O578 2.094 . S
Mn553 O558 2.121 . S
Mn553 N560 2.257 . S
Mn553 N569 2.282 1_655 S
Mn553 O577 2.215 . S
Mn553 O579 2.117 1_655 S
C554 O576 1.234 . S
C554 O577 1.283 1_455 S
C555 O567 1.281 . S
C555 O568 1.236 . S
C556 O578 1.240 . S
C556 O579 1.264 . S
O557 Mn552 2.113 . S
O557 C566 1.225 1_455 S
O558 Mn553 2.121 . S
O558 C566 1.258 . S
C559 N560 1.326 . S
C559 C563 1.460 . S
C559 H565 0.929 . S
N560 Mn553 2.257 . S
N560 C559 1.326 . S
N560 C564 1.362 . S
C561 C562 1.258 . S
C561 C564 1.431 . S
C561 C581 1.449 . S
C562 C561 1.258 . S
C562 C563 1.477 . S
C562 H582 0.931 . S
C563 C559 1.460 . S
C563 C562 1.477 . S
C563 H583 0.930 . S
C564 N560 1.362 . S
C564 C561 1.431 . S
C564 C574 1.476 . S
H565 C559 0.929 . S
C566 O557 1.225 1_655 S
C566 O558 1.258 . S
O567 Mn552 2.162 . S
O567 C555 1.281 . S
O568 Mn552 2.297 . S
O568 C555 1.236 . S
N569 Mn553 2.282 1_455 S
N569 C570 1.328 . S
N569 C574 1.318 1_455 S
C570 N569 1.328 . S
C570 C571 1.457 . S
C570 H575 0.929 . S
C571 C570 1.457 . S
C571 C572 1.291 . S
C571 H584 0.931 . S
C572 C571 1.291 . S
C572 C573 1.373 1_455 S
C572 H585 0.929 . S
C573 C572 1.373 1_655 S
C573 C574 1.396 . S
C573 C580 1.403 . S
C574 C564 1.476 . S
C574 N569 1.318 1_655 S
C574 C573 1.396 . S
H575 C570 0.929 . S
O576 Mn552 2.385 . S
O576 C554 1.234 . S
O577 Mn552 2.209 1_655 S
O577 Mn553 2.215 . S
O577 C554 1.283 1_655 S
O578 Mn552 2.094 . S
O578 C556 1.240 . S
O579 Mn553 2.117 1_455 S
O579 C556 1.264 . S
C580 C573 1.403 . S
C580 C581 1.399 . S
C580 H586 0.929 . S
C581 C561 1.449 . S
C581 C580 1.399 . S
C581 H587 0.930 . S
H582 C562 0.931 . S
H583 C563 0.930 . S
H584 C571 0.931 . S
H585 C572 0.929 . S
H586 C580 0.929 . S
H587 C581 0.930 . S
Mn588 O593 2.095 . S
Mn588 O603 2.162 . S
Mn588 O604 2.297 . S
Mn588 O612 2.385 . S
Mn588 O613 2.209 . S
Mn588 O614 2.094 . S
Mn589 O594 2.121 . S
Mn589 N596 2.257 . S
Mn589 N605 2.282 . S
Mn589 O613 2.215 . S
Mn589 O615 2.117 . S
C590 O612 1.234 . S
C590 O613 1.283 . S
C591 O603 1.281 . S
C591 O604 1.236 . S
C592 O614 1.240 . S
C592 O615 1.264 . S
O593 Mn588 2.095 . S
O593 C602 1.250 . S
O594 Mn589 2.121 . S
O594 C602 1.258 . S
C595 N596 1.326 . S
C595 C599 1.460 . S
C595 H601 0.929 . S
N596 Mn589 2.257 . S
N596 C595 1.326 . S
N596 C600 1.362 . S
C597 C598 1.258 . S
C597 C600 1.431 . S
C597 C617 1.449 . S
C598 C597 1.258 . S
C598 C599 1.477 . S
C598 H618 0.931 . S
C599 C595 1.460 . S
C599 C598 1.477 . S
C599 H619 0.930 . S
C600 N596 1.362 . S
C600 C597 1.431 . S
C600 C610 1.476 . S
H601 C595 0.929 . S
C602 O593 1.250 . S
C602 O594 1.258 . S
O603 Mn588 2.162 . S
O603 C591 1.281 . S
O604 Mn588 2.297 . S
O604 C591 1.236 . S
N605 Mn589 2.282 . S
N605 C606 1.328 . S
N605 C610 1.318 . S
C606 N605 1.328 . S
C606 C607 1.457 . S
C606 H611 0.929 . S
C607 C606 1.457 . S
C607 C608 1.291 . S
C607 H620 0.931 . S
C608 C607 1.291 . S
C608 C609 1.373 . S
C608 H621 0.929 . S
C609 C608 1.373 . S
C609 C610 1.396 . S
C609 C616 1.403 . S
C610 C600 1.476 . S
C610 N605 1.318 . S
C610 C609 1.396 . S
H611 C606 0.929 . S
O612 Mn588 2.385 . S
O612 C590 1.234 . S
O613 Mn588 2.209 . S
O613 Mn589 2.215 . S
O613 C590 1.283 . S
O614 Mn588 2.094 . S
O614 C592 1.240 . S
O615 Mn589 2.117 . S
O615 C592 1.264 . S
C616 C609 1.403 . S
C616 C617 1.399 . S
C616 H622 0.929 . S
C617 C597 1.449 . S
C617 C616 1.399 . S
C617 H623 0.930 . S
H618 C598 0.931 . S
H619 C599 0.930 . S
H620 C607 0.931 . S
H621 C608 0.929 . S
H622 C616 0.929 . S
H623 C617 0.930 . S
H624 C630 0.930 . S
H625 C633 0.930 . S
H626 C634 0.930 . S
H627 C635 0.930 . S
H628 C638 0.930 . S
H629 C639 0.930 . S
C630 H624 0.930 . S
C630 C631 1.355 . S
C630 C632 1.415 . S
C631 C630 1.355 . S
C631 C633 1.419 . S
C632 C630 1.415 . S
C632 C637 1.425 . S
C632 C639 1.409 . S
C633 H625 0.930 . S
C633 C631 1.419 . S
C633 C634 1.362 . S
C634 H626 0.930 . S
C634 C633 1.362 . S
C634 C637 1.409 . S
C635 H627 0.930 . S
C635 C636 1.355 . S
C635 C637 1.415 . S
C636 C635 1.355 . S
C636 C638 1.419 . S
C637 C632 1.425 . S
C637 C634 1.409 . S
C637 C635 1.415 . S
C638 H628 0.930 . S
C638 C636 1.419 . S
C638 C639 1.362 . S
C639 H629 0.930 . S
C639 C632 1.409 . S
C639 C638 1.362 . S
H640 C646 0.930 . S
H641 C649 0.930 . S
H642 C650 0.930 . S
H643 C651 0.930 . S
H644 C654 0.930 . S
H645 C655 0.930 . S
C646 H640 0.930 . S
C646 C647 1.355 . S
C646 C648 1.415 . S
C647 C646 1.355 . S
C647 C649 1.419 . S
C648 C646 1.415 . S
C648 C653 1.425 . S
C648 C655 1.409 . S
C649 H641 0.930 . S
C649 C647 1.419 . S
C649 C650 1.362 . S
C650 H642 0.930 . S
C650 C649 1.362 . S
C650 C653 1.409 . S
C651 H643 0.930 . S
C651 C652 1.355 . S
C651 C653 1.415 . S
C652 C651 1.355 . S
C652 C654 1.419 . S
C653 C648 1.425 . S
C653 C650 1.409 . S
C653 C651 1.415 . S
C654 H644 0.930 . S
C654 C652 1.419 . S
C654 C655 1.362 . S
C655 H645 0.930 . S
C655 C648 1.409 . S
C655 C654 1.362 . S
H656 C662 0.930 . S
H657 C665 0.930 . S
H658 C666 0.930 . S
H659 C667 0.930 . S
H660 C670 0.930 . S
H661 C671 0.930 . S
C662 H656 0.930 . S
C662 C663 1.355 . S
C662 C664 1.415 . S
C663 C662 1.355 . S
C663 C665 1.419 . S
C664 C662 1.415 . S
C664 C669 1.425 . S
C664 C671 1.409 . S
C665 H657 0.930 . S
C665 C663 1.419 . S
C665 C666 1.362 . S
C666 H658 0.930 . S
C666 C665 1.362 . S
C666 C669 1.409 . S
C667 H659 0.930 . S
C667 C668 1.355 . S
C667 C669 1.415 . S
C668 C667 1.355 . S
C668 C670 1.419 . S
C669 C664 1.425 . S
C669 C666 1.409 . S
C669 C667 1.415 . S
C670 H660 0.930 . S
C670 C668 1.419 . S
C670 C671 1.362 . S
C671 H661 0.930 . S
C671 C664 1.409 . S
C671 C670 1.362 . S
H672 C678 0.930 . S
H673 C681 0.926 1_655 S
H674 C682 0.930 . S
H675 C683 0.930 1_565 S
H676 C686 0.930 . S
H677 C687 0.930 . S
C678 H672 0.930 . S
C678 C679 1.330 1_545 S
C678 C680 1.415 . S
C679 C678 1.330 1_565 S
C679 C681 1.437 . S
C680 C678 1.415 . S
C680 C685 1.438 1_455 S
C680 C687 1.409 . S
C681 H673 0.926 1_455 S
C681 C679 1.437 . S
C681 C682 1.362 1_455 S
C682 H674 0.930 . S
C682 C681 1.362 1_655 S
C682 C685 1.393 1_565 S
C683 H675 0.930 1_545 S
C683 C684 1.355 . S
C683 C685 1.419 . S
C684 C683 1.355 . S
C684 C686 1.419 1_655 S
C685 C680 1.438 1_655 S
C685 C682 1.393 1_545 S
C685 C683 1.419 . S
C686 H676 0.930 . S
C686 C684 1.419 1_455 S
C686 C687 1.362 . S
C687 H677 0.930 . S
C687 C680 1.409 . S
C687 C686 1.362 . S
H688 C694 0.930 . S
H689 C697 0.930 . S
H690 C698 0.930 . S
H691 C699 0.930 . S
H692 C702 0.930 . S
H693 C703 0.930 . S
C694 H688 0.930 . S
C694 C695 1.355 . S
C694 C696 1.415 . S
C695 C694 1.355 . S
C695 C697 1.419 . S
C696 C694 1.415 . S
C696 C701 1.425 . S
C696 C703 1.409 . S
C697 H689 0.930 . S
C697 C695 1.419 . S
C697 C698 1.362 . S
C698 H690 0.930 . S
C698 C697 1.362 . S
C698 C701 1.409 . S
C699 H691 0.930 . S
C699 C700 1.355 . S
C699 C701 1.415 . S
C700 C699 1.355 . S
C700 C702 1.419 . S
C701 C696 1.425 . S
C701 C698 1.409 . S
C701 C699 1.415 . S
C702 H692 0.930 . S
C702 C700 1.419 . S
C702 C703 1.362 . S
C703 H693 0.930 . S
C703 C696 1.409 . S
C703 C702 1.362 . S
H704 C710 0.930 . S
H705 C713 0.930 . S
H706 C714 0.930 . S
H707 C715 0.930 . S
H708 C718 0.930 . S
H709 C719 0.930 . S
C710 H704 0.930 . S
C710 C711 1.355 . S
C710 C712 1.415 . S
C711 C710 1.355 . S
C711 C713 1.419 . S
C712 C710 1.415 . S
C712 C717 1.425 . S
C712 C719 1.409 . S
C713 H705 0.930 . S
C713 C711 1.419 . S
C713 C714 1.362 . S
C714 H706 0.930 . S
C714 C713 1.362 . S
C714 C717 1.409 . S
C715 H707 0.930 . S
C715 C716 1.355 . S
C715 C717 1.415 . S
C716 C715 1.355 . S
C716 C718 1.419 . S
C717 C712 1.425 . S
C717 C714 1.409 . S
C717 C715 1.415 . S
C718 H708 0.930 . S
C718 C716 1.419 . S
C718 C719 1.362 . S
C719 H709 0.930 . S
C719 C712 1.409 . S
C719 C718 1.362 . S
H720 C726 0.930 . S
H721 C729 0.930 . S
H722 C730 0.930 . S
H723 C731 0.930 . S
H724 C734 0.930 . S
H725 C735 0.930 . S
C726 H720 0.930 . S
C726 C727 1.355 . S
C726 C728 1.415 . S
C727 C726 1.355 . S
C727 C729 1.419 . S
C728 C726 1.415 . S
C728 C733 1.425 . S
C728 C735 1.409 . S
C729 H721 0.930 . S
C729 C727 1.419 . S
C729 C730 1.362 . S
C730 H722 0.930 . S
C730 C729 1.362 . S
C730 C733 1.409 . S
C731 H723 0.930 . S
C731 C732 1.355 . S
C731 C733 1.415 . S
C732 C731 1.355 . S
C732 C734 1.419 . S
C733 C728 1.425 . S
C733 C730 1.409 . S
C733 C731 1.415 . S
C734 H724 0.930 . S
C734 C732 1.419 . S
C734 C735 1.362 . S
C735 H725 0.930 . S
C735 C728 1.409 . S
C735 C734 1.362 . S
H736 C742 0.930 . S
H737 C745 0.930 . S
H738 C746 0.930 . S
H739 C747 0.930 . S
H740 C750 0.930 . S
H741 C751 0.930 . S
C742 H736 0.930 . S
C742 C743 1.355 1_545 S
C742 C744 1.415 . S
C743 C742 1.355 1_565 S
C743 C745 1.419 . S
C744 C742 1.415 . S
C744 C749 1.425 1_545 S
C744 C751 1.409 . S
C745 H737 0.930 . S
C745 C743 1.419 . S
C745 C746 1.362 . S
C746 H738 0.930 . S
C746 C745 1.362 . S
C746 C749 1.409 . S
C747 H739 0.930 . S
C747 C748 1.355 . S
C747 C749 1.415 . S
C748 C747 1.355 . S
C748 C750 1.419 1_565 S
C749 C744 1.425 1_565 S
C749 C746 1.409 . S
C749 C747 1.415 . S
C750 H740 0.930 . S
C750 C748 1.419 1_545 S
C750 C751 1.362 . S
C751 H741 0.930 . S
C751 C744 1.409 . S
C751 C750 1.362 . S
H752 C758 0.930 . S
H753 C761 0.930 . S
H754 C762 0.930 . S
H755 C763 0.930 . S
H756 C766 0.930 . S
H757 C767 0.930 . S
C758 H752 0.930 . S
C758 C759 1.355 . S
C758 C760 1.415 . S
C759 C758 1.355 . S
C759 C761 1.419 . S
C760 C758 1.415 . S
C760 C765 1.425 . S
C760 C767 1.409 . S
C761 H753 0.930 . S
C761 C759 1.419 . S
C761 C762 1.362 . S
C762 H754 0.930 . S
C762 C761 1.362 . S
C762 C765 1.409 . S
C763 H755 0.930 . S
C763 C764 1.355 . S
C763 C765 1.415 . S
C764 C763 1.355 . S
C764 C766 1.419 . S
C765 C760 1.425 . S
C765 C762 1.409 . S
C765 C763 1.415 . S
C766 H756 0.930 . S
C766 C764 1.419 . S
C766 C767 1.362 . S
C767 H757 0.930 . S
C767 C760 1.409 . S
C767 C766 1.362 . S
H768 C774 0.930 . S
H769 C777 0.930 . S
H770 C778 0.930 . S
H771 C779 0.930 . S
H772 C782 0.930 . S
H773 C783 0.930 . S
C774 H768 0.930 . S
C774 C775 1.355 . S
C774 C776 1.415 . S
C775 C774 1.355 . S
C775 C777 1.419 . S
C776 C774 1.415 . S
C776 C781 1.425 . S
C776 C783 1.409 . S
C777 H769 0.930 . S
C777 C775 1.419 . S
C777 C778 1.362 . S
C778 H770 0.930 . S
C778 C777 1.362 . S
C778 C781 1.409 . S
C779 H771 0.930 . S
C779 C780 1.355 . S
C779 C781 1.415 . S
C780 C779 1.355 . S
C780 C782 1.419 . S
C781 C776 1.425 . S
C781 C778 1.409 . S
C781 C779 1.415 . S
C782 H772 0.930 . S
C782 C780 1.419 . S
C782 C783 1.362 . S
C783 H773 0.930 . S
C783 C776 1.409 . S
C783 C782 1.362 . S
H784 C790 0.930 . S
H785 C793 0.930 . S
H786 C794 0.930 . S
H787 C795 0.930 . S
H788 C798 0.930 . S
H789 C799 0.930 . S
C790 H784 0.930 . S
C790 C791 1.355 . S
C790 C792 1.415 . S
C791 C790 1.355 . S
C791 C793 1.419 . S
C792 C790 1.415 . S
C792 C797 1.425 . S
C792 C799 1.409 . S
C793 H785 0.930 . S
C793 C791 1.419 . S
C793 C794 1.362 . S
C794 H786 0.930 . S
C794 C793 1.362 . S
C794 C797 1.409 . S
C795 H787 0.930 . S
C795 C796 1.355 . S
C795 C797 1.415 . S
C796 C795 1.355 . S
C796 C798 1.419 . S
C797 C792 1.425 . S
C797 C794 1.409 . S
C797 C795 1.415 . S
C798 H788 0.930 . S
C798 C796 1.419 . S
C798 C799 1.362 . S
C799 H789 0.930 . S
C799 C792 1.409 . S
C799 C798 1.362 . S
H800 C806 0.930 . S
H801 C809 0.930 . S
H802 C810 0.930 . S
H803 C811 0.930 . S
H804 C814 0.930 . S
H805 C815 0.930 . S
C806 H800 0.930 . S
C806 C807 1.355 . S
C806 C808 1.415 . S
C807 C806 1.355 . S
C807 C809 1.419 . S
C808 C806 1.415 . S
C808 C813 1.425 . S
C808 C815 1.409 . S
C809 H801 0.930 . S
C809 C807 1.419 . S
C809 C810 1.362 . S
C810 H802 0.930 . S
C810 C809 1.362 . S
C810 C813 1.409 . S
C811 H803 0.930 . S
C811 C812 1.355 . S
C811 C813 1.415 . S
C812 C811 1.355 . S
C812 C814 1.419 . S
C813 C808 1.425 . S
C813 C810 1.409 . S
C813 C811 1.415 . S
C814 H804 0.930 . S
C814 C812 1.419 . S
C814 C815 1.362 . S
C815 H805 0.930 . S
C815 C808 1.409 . S
C815 C814 1.362 . S
H816 C822 0.930 . S
H817 C825 0.930 . S
H818 C826 0.930 . S
H819 C827 0.930 . S
H820 C830 0.930 . S
H821 C831 0.930 . S
C822 H816 0.930 . S
C822 C823 1.355 . S
C822 C824 1.415 . S
C823 C822 1.355 . S
C823 C825 1.419 . S
C824 C822 1.415 . S
C824 C829 1.425 . S
C824 C831 1.409 . S
C825 H817 0.930 . S
C825 C823 1.419 . S
C825 C826 1.362 . S
C826 H818 0.930 . S
C826 C825 1.362 . S
C826 C829 1.409 . S
C827 H819 0.930 . S
C827 C828 1.355 . S
C827 C829 1.415 . S
C828 C827 1.355 . S
C828 C830 1.419 . S
C829 C824 1.425 . S
C829 C826 1.409 . S
C829 C827 1.415 . S
C830 H820 0.930 . S
C830 C828 1.419 . S
C830 C831 1.362 . S
C831 H821 0.930 . S
C831 C824 1.409 . S
C831 C830 1.362 . S
H832 C838 0.930 . S
H833 C841 0.930 . S
H834 C842 0.930 . S
H835 C843 0.930 . S
H836 C846 0.937 . S
H837 C847 0.899 1_655 S
C838 H832 0.930 . S
C838 C839 1.355 . S
C838 C840 1.415 . S
C839 C838 1.355 . S
C839 C841 1.419 . S
C840 C838 1.415 . S
C840 C845 1.425 . S
C840 C847 1.440 . S
C841 H833 0.930 . S
C841 C839 1.419 . S
C841 C842 1.362 . S
C842 H834 0.930 . S
C842 C841 1.362 . S
C842 C845 1.409 . S
C843 H835 0.930 . S
C843 C844 1.355 . S
C843 C845 1.415 . S
C844 C843 1.355 . S
C844 C846 1.412 1_455 S
C845 C840 1.425 . S
C845 C842 1.409 . S
C845 C843 1.415 . S
C846 H836 0.937 . S
C846 C844 1.412 1_655 S
C846 C847 1.363 1_655 S
C847 H837 0.899 1_455 S
C847 C840 1.440 . S
C847 C846 1.363 1_455 S
H848 C854 0.930 . S
H849 C857 0.930 . S
H850 C858 0.930 . S
H851 C859 0.930 . S
H852 C862 0.930 . S
H853 C863 0.930 . S
C854 H848 0.930 . S
C854 C855 1.355 . S
C854 C856 1.415 . S
C855 C854 1.355 . S
C855 C857 1.419 . S
C856 C854 1.415 . S
C856 C861 1.425 . S
C856 C863 1.409 . S
C857 H849 0.930 . S
C857 C855 1.419 . S
C857 C858 1.362 . S
C858 H850 0.930 . S
C858 C857 1.362 . S
C858 C861 1.409 . S
C859 H851 0.930 . S
C859 C860 1.355 . S
C859 C861 1.415 . S
C860 C859 1.355 . S
C860 C862 1.419 . S
C861 C856 1.425 . S
C861 C858 1.409 . S
C861 C859 1.415 . S
C862 H852 0.930 . S
C862 C860 1.419 . S
C862 C863 1.362 . S
C863 H853 0.930 . S
C863 C856 1.409 . S
C863 C862 1.362 . S
H864 C870 0.930 . S
H865 C873 0.930 . S
H866 C874 0.930 . S
H867 C875 0.930 . S
H868 C878 0.930 . S
H869 C879 0.930 . S
C870 H864 0.930 . S
C870 C871 1.355 1_455 S
C870 C872 1.415 . S
C871 C870 1.355 1_655 S
C871 C873 1.419 . S
C872 C870 1.415 . S
C872 C877 1.425 1_455 S
C872 C879 1.409 . S
C873 H865 0.930 . S
C873 C871 1.419 . S
C873 C874 1.362 . S
C874 H866 0.930 . S
C874 C873 1.362 . S
C874 C877 1.409 . S
C875 H867 0.930 . S
C875 C876 1.355 1_655 S
C875 C877 1.415 . S
C876 C875 1.355 1_455 S
C876 C878 1.419 . S
C877 C872 1.425 1_655 S
C877 C874 1.409 . S
C877 C875 1.415 . S
C878 H868 0.930 . S
C878 C876 1.419 . S
C878 C879 1.362 . S
C879 H869 0.930 . S
C879 C872 1.409 . S
C879 C878 1.362 . S
H880 C886 0.930 . S
H881 C889 0.930 . S
H882 C890 0.930 . S
H883 C891 0.930 . S
H884 C894 0.930 1_545 S
H885 C895 0.930 . S
C886 H880 0.930 . S
C886 C887 1.355 . S
C886 C888 1.415 . S
C887 C886 1.355 . S
C887 C889 1.419 . S
C888 C886 1.415 . S
C888 C893 1.425 . S
C888 C895 1.409 . S
C889 H881 0.930 . S
C889 C887 1.419 . S
C889 C890 1.362 . S
C890 H882 0.930 . S
C890 C889 1.362 . S
C890 C893 1.409 . S
C891 H883 0.930 . S
C891 C892 1.355 . S
C891 C893 1.415 . S
C892 C891 1.355 . S
C892 C894 1.419 . S
C893 C888 1.425 . S
C893 C890 1.409 . S
C893 C891 1.415 . S
C894 H884 0.930 1_565 S
C894 C892 1.419 . S
C894 C895 1.362 . S
C895 H885 0.930 . S
C895 C888 1.409 . S
C895 C894 1.362 . S
H896 C902 0.930 . S
H897 C905 0.930 . S
H898 C906 0.930 . S
H899 C907 0.930 . S
H900 C910 0.930 . S
H901 C911 0.930 . S
C902 H896 0.930 . S
C902 C903 1.355 . S
C902 C904 1.415 . S
C903 C902 1.355 . S
C903 C905 1.419 . S
C904 C902 1.415 . S
C904 C909 1.425 . S
C904 C911 1.409 . S
C905 H897 0.930 . S
C905 C903 1.419 . S
C905 C906 1.362 . S
C906 H898 0.930 . S
C906 C905 1.362 . S
C906 C909 1.409 . S
C907 H899 0.930 . S
C907 C908 1.355 . S
C907 C909 1.415 . S
C908 C907 1.355 . S
C908 C910 1.419 . S
C909 C904 1.425 . S
C909 C906 1.409 . S
C909 C907 1.415 . S
C910 H900 0.930 . S
C910 C908 1.419 . S
C910 C911 1.362 . S
C911 H901 0.930 . S
C911 C904 1.409 . S
C911 C910 1.362 . S
H912 C918 0.930 . S
H913 C921 0.930 . S
H914 C922 0.930 . S
H915 C923 0.930 . S
H916 C926 0.930 . S
H917 C927 0.930 . S
C918 H912 0.930 . S
C918 C919 1.355 1_554 S
C918 C920 1.415 . S
C919 C918 1.355 1_556 S
C919 C921 1.419 . S
C920 C918 1.415 . S
C920 C925 1.425 1_554 S
C920 C927 1.409 . S
C921 H913 0.930 . S
C921 C919 1.419 . S
C921 C922 1.362 . S
C922 H914 0.930 . S
C922 C921 1.362 . S
C922 C925 1.409 . S
C923 H915 0.930 . S
C923 C924 1.355 1_556 S
C923 C925 1.415 . S
C924 C923 1.355 1_554 S
C924 C926 1.419 . S
C925 C920 1.425 1_556 S
C925 C922 1.409 . S
C925 C923 1.415 . S
C926 H916 0.930 . S
C926 C924 1.419 . S
C926 C927 1.362 . S
C927 H917 0.930 . S
C927 C920 1.409 . S
C927 C926 1.362 . S
H928 C934 0.930 . S
H929 C937 0.930 . S
H930 C938 0.930 . S
H931 C939 0.930 . S
H932 C942 0.930 . S
H933 C943 0.930 . S
C934 H928 0.930 . S
C934 C935 1.355 . S
C934 C936 1.415 . S
C935 C934 1.355 . S
C935 C937 1.419 . S
C936 C934 1.415 . S
C936 C941 1.425 . S
C936 C943 1.409 . S
C937 H929 0.930 . S
C937 C935 1.419 . S
C937 C938 1.362 . S
C938 H930 0.930 . S
C938 C937 1.362 . S
C938 C941 1.409 . S
C939 H931 0.930 . S
C939 C940 1.355 . S
C939 C941 1.415 . S
C940 C939 1.355 . S
C940 C942 1.419 . S
C941 C936 1.425 . S
C941 C938 1.409 . S
C941 C939 1.415 . S
C942 H932 0.930 . S
C942 C940 1.419 . S
C942 C943 1.362 . S
C943 H933 0.930 . S
C943 C936 1.409 . S
C943 C942 1.362 . S
H944 C950 0.930 . S
H945 C953 0.930 . S
H946 C954 0.930 . S
H947 C955 0.930 . S
H948 C958 0.930 . S
H949 C959 0.930 . S
C950 H944 0.930 . S
C950 C951 1.355 . S
C950 C952 1.415 . S
C951 C950 1.355 . S
C951 C953 1.419 . S
C952 C950 1.415 . S
C952 C957 1.425 . S
C952 C959 1.409 . S
C953 H945 0.930 . S
C953 C951 1.419 . S
C953 C954 1.362 . S
C954 H946 0.930 . S
C954 C953 1.362 . S
C954 C957 1.409 . S
C955 H947 0.930 . S
C955 C956 1.355 . S
C955 C957 1.415 . S
C956 C955 1.355 . S
C956 C958 1.419 . S
C957 C952 1.425 . S
C957 C954 1.409 . S
C957 C955 1.415 . S
C958 H948 0.930 . S
C958 C956 1.419 . S
C958 C959 1.362 . S
C959 H949 0.930 . S
C959 C952 1.409 . S
C959 C958 1.362 . S
H960 C966 0.930 . S
H961 C969 0.930 . S
H962 C970 0.930 . S
H963 C971 0.930 . S
H964 C974 0.930 . S
H965 C975 0.930 . S
C966 H960 0.930 . S
C966 C967 1.355 . S
C966 C968 1.415 . S
C967 C966 1.355 . S
C967 C969 1.419 . S
C968 C966 1.415 . S
C968 C973 1.425 . S
C968 C975 1.409 . S
C969 H961 0.930 . S
C969 C967 1.419 . S
C969 C970 1.362 . S
C970 H962 0.930 . S
C970 C969 1.362 . S
C970 C973 1.409 . S
C971 H963 0.930 . S
C971 C972 1.355 . S
C971 C973 1.415 . S
C972 C971 1.355 . S
C972 C974 1.419 . S
C973 C968 1.425 . S
C973 C970 1.409 . S
C973 C971 1.415 . S
C974 H964 0.930 . S
C974 C972 1.419 . S
C974 C975 1.362 . S
C975 H965 0.930 . S
C975 C968 1.409 . S
C975 C974 1.362 . S
H976 C982 0.930 . S
H977 C985 0.930 . S
H978 C986 0.930 . S
H979 C987 0.930 . S
H980 C990 0.930 . S
H981 C991 0.930 . S
C982 H976 0.930 . S
C982 C983 1.355 . S
C982 C984 1.415 . S
C983 C982 1.355 . S
C983 C985 1.419 . S
C984 C982 1.415 . S
C984 C989 1.425 . S
C984 C991 1.409 . S
C985 H977 0.930 . S
C985 C983 1.419 . S
C985 C986 1.362 . S
C986 H978 0.930 . S
C986 C985 1.362 . S
C986 C989 1.409 . S
C987 H979 0.930 . S
C987 C988 1.355 . S
C987 C989 1.415 . S
C988 C987 1.355 . S
C988 C990 1.419 . S
C989 C984 1.425 . S
C989 C986 1.409 . S
C989 C987 1.415 . S
C990 H980 0.930 . S
C990 C988 1.419 . S
C990 C991 1.362 . S
C991 H981 0.930 . S
C991 C984 1.409 . S
C991 C990 1.362 . S
H992 C998 0.930 . S
H993 C1001 0.930 . S
H994 C1002 0.930 . S
H995 C1003 0.930 . S
H996 C1006 0.930 . S
H997 C1007 0.930 . S
C998 H992 0.930 . S
C998 C999 1.355 . S
C998 C1000 1.415 . S
C999 C998 1.355 . S
C999 C1001 1.419 . S
C1000 C998 1.415 . S
C1000 C1005 1.425 . S
C1000 C1007 1.409 . S
C1001 H993 0.930 . S
C1001 C999 1.419 . S
C1001 C1002 1.362 . S
C1002 H994 0.930 . S
C1002 C1001 1.362 . S
C1002 C1005 1.409 . S
C1003 H995 0.930 . S
C1003 C1004 1.355 . S
C1003 C1005 1.415 . S
C1004 C1003 1.355 . S
C1004 C1006 1.419 . S
C1005 C1000 1.425 . S
C1005 C1002 1.409 . S
C1005 C1003 1.415 . S
C1006 H996 0.930 . S
C1006 C1004 1.419 . S
C1006 C1007 1.362 . S
C1007 H997 0.930 . S
C1007 C1000 1.409 . S
C1007 C1006 1.362 . S
H1008 C1014 0.930 . S
H1009 C1017 0.930 . S
H1010 C1018 0.930 . S
H1011 C1019 0.930 . S
H1012 C1022 0.930 . S
H1013 C1023 0.930 . S
C1014 H1008 0.930 . S
C1014 C1015 1.355 . S
C1014 C1016 1.415 . S
C1015 C1014 1.355 . S
C1015 C1017 1.419 . S
C1016 C1014 1.415 . S
C1016 C1021 1.425 . S
C1016 C1023 1.409 . S
C1017 H1009 0.930 . S
C1017 C1015 1.419 . S
C1017 C1018 1.362 . S
C1018 H1010 0.930 . S
C1018 C1017 1.362 . S
C1018 C1021 1.409 . S
C1019 H1011 0.930 . S
C1019 C1020 1.355 . S
C1019 C1021 1.415 . S
C1020 C1019 1.355 . S
C1020 C1022 1.419 . S
C1021 C1016 1.425 . S
C1021 C1018 1.409 . S
C1021 C1019 1.415 . S
C1022 H1012 0.930 . S
C1022 C1020 1.419 . S
C1022 C1023 1.362 . S
C1023 H1013 0.930 . S
C1023 C1016 1.409 . S
C1023 C1022 1.362 . S
H1024 C1030 0.930 . S
H1025 C1033 0.930 . S
H1026 C1034 0.930 . S
H1027 C1035 0.930 . S
H1028 C1038 0.930 . S
H1029 C1039 0.930 . S
C1030 H1024 0.930 . S
C1030 C1031 1.355 . S
C1030 C1032 1.415 . S
C1031 C1030 1.355 . S
C1031 C1033 1.419 1_545 S
C1032 C1030 1.415 . S
C1032 C1037 1.425 1_545 S
C1032 C1039 1.409 . S
C1033 H1025 0.930 . S
C1033 C1031 1.419 1_565 S
C1033 C1034 1.362 . S
C1034 H1026 0.930 . S
C1034 C1033 1.362 . S
C1034 C1037 1.409 . S
C1035 H1027 0.930 . S
C1035 C1036 1.355 1_565 S
C1035 C1037 1.415 . S
C1036 C1035 1.355 1_545 S
C1036 C1038 1.419 . S
C1037 C1032 1.425 1_565 S
C1037 C1034 1.409 . S
C1037 C1035 1.415 . S
C1038 H1028 0.930 . S
C1038 C1036 1.419 . S
C1038 C1039 1.362 . S
C1039 H1029 0.930 . S
C1039 C1032 1.409 . S
C1039 C1038 1.362 . S
H1040 C1046 0.930 . S
H1041 C1049 0.930 . S
H1042 C1050 0.930 . S
H1043 C1051 0.930 . S
H1044 C1054 0.930 . S
H1045 C1055 0.930 . S
C1046 H1040 0.930 . S
C1046 C1047 1.355 . S
C1046 C1048 1.415 . S
C1047 C1046 1.355 . S
C1047 C1049 1.419 . S
C1048 C1046 1.415 . S
C1048 C1053 1.425 . S
C1048 C1055 1.409 . S
C1049 H1041 0.930 . S
C1049 C1047 1.419 . S
C1049 C1050 1.362 . S
C1050 H1042 0.930 . S
C1050 C1049 1.362 . S
C1050 C1053 1.409 . S
C1051 H1043 0.930 . S
C1051 C1052 1.355 . S
C1051 C1053 1.415 . S
C1052 C1051 1.355 . S
C1052 C1054 1.419 . S
C1053 C1048 1.425 . S
C1053 C1050 1.409 . S
C1053 C1051 1.415 . S
C1054 H1044 0.930 . S
C1054 C1052 1.419 . S
C1054 C1055 1.362 . S
C1055 H1045 0.930 . S
C1055 C1048 1.409 . S
C1055 C1054 1.362 . S
H1056 C1062 0.930 . S
H1057 C1065 0.930 . S
H1058 C1066 0.930 . S
H1059 C1067 0.930 . S
H1060 C1070 0.930 . S
H1061 C1071 0.930 . S
C1062 H1056 0.930 . S
C1062 C1063 1.355 . S
C1062 C1064 1.415 . S
C1063 C1062 1.355 . S
C1063 C1065 1.419 . S
C1064 C1062 1.415 . S
C1064 C1069 1.425 . S
C1064 C1071 1.409 . S
C1065 H1057 0.930 . S
C1065 C1063 1.419 . S
C1065 C1066 1.362 . S
C1066 H1058 0.930 . S
C1066 C1065 1.362 . S
C1066 C1069 1.409 . S
C1067 H1059 0.930 . S
C1067 C1068 1.355 . S
C1067 C1069 1.415 . S
C1068 C1067 1.355 . S
C1068 C1070 1.419 . S
C1069 C1064 1.425 . S
C1069 C1066 1.409 . S
C1069 C1067 1.415 . S
C1070 H1060 0.930 . S
C1070 C1068 1.419 . S
C1070 C1071 1.362 . S
C1071 H1061 0.930 . S
C1071 C1064 1.409 . S
C1071 C1070 1.362 . S
H1072 C1078 0.930 . S
H1073 C1081 0.930 . S
H1074 C1082 0.930 . S
H1075 C1083 0.930 . S
H1076 C1086 0.930 . S
H1077 C1087 0.930 . S
C1078 H1072 0.930 . S
C1078 C1079 1.355 . S
C1078 C1080 1.415 . S
C1079 C1078 1.355 . S
C1079 C1081 1.419 . S
C1080 C1078 1.415 . S
C1080 C1085 1.425 . S
C1080 C1087 1.409 . S
C1081 H1073 0.930 . S
C1081 C1079 1.419 . S
C1081 C1082 1.362 . S
C1082 H1074 0.930 . S
C1082 C1081 1.362 . S
C1082 C1085 1.409 . S
C1083 H1075 0.930 . S
C1083 C1084 1.355 . S
C1083 C1085 1.415 . S
C1084 C1083 1.355 . S
C1084 C1086 1.419 . S
C1085 C1080 1.425 . S
C1085 C1082 1.409 . S
C1085 C1083 1.415 . S
C1086 H1076 0.930 . S
C1086 C1084 1.419 . S
C1086 C1087 1.362 . S
C1087 H1077 0.930 . S
C1087 C1080 1.409 . S
C1087 C1086 1.362 . S
H1088 C1094 0.930 . S
H1089 C1097 0.930 . S
H1090 C1098 0.930 . S
H1091 C1099 0.930 1_565 S
H1092 C1102 0.930 . S
H1093 C1103 0.931 1_455 S
C1094 H1088 0.930 . S
C1094 C1095 1.355 . S
C1094 C1096 1.415 . S
C1095 C1094 1.355 . S
C1095 C1097 1.419 1_545 S
C1096 C1094 1.415 . S
C1096 C1101 1.426 1_455 S
C1096 C1103 1.410 1_455 S
C1097 H1089 0.930 . S
C1097 C1095 1.419 1_565 S
C1097 C1098 1.362 . S
C1098 H1090 0.930 . S
C1098 C1097 1.362 . S
C1098 C1101 1.410 1_465 S
C1099 H1091 0.930 1_545 S
C1099 C1100 1.355 . S
C1099 C1101 1.414 . S
C1100 C1099 1.355 . S
C1100 C1102 1.419 . S
C1101 C1096 1.426 1_655 S
C1101 C1098 1.410 1_645 S
C1101 C1099 1.414 . S
C1102 H1092 0.930 . S
C1102 C1100 1.419 . S
C1102 C1103 1.361 . S
C1103 H1093 0.931 1_655 S
C1103 C1096 1.410 1_655 S
C1103 C1102 1.361 . S
H1104 C1110 0.930 . S
H1105 C1113 0.930 . S
H1106 C1114 0.930 . S
H1107 C1115 0.930 . S
H1108 C1118 0.930 . S
H1109 C1119 0.930 . S
C1110 H1104 0.930 . S
C1110 C1111 1.355 . S
C1110 C1112 1.415 . S
C1111 C1110 1.355 . S
C1111 C1113 1.419 . S
C1112 C1110 1.415 . S
C1112 C1117 1.425 . S
C1112 C1119 1.409 . S
C1113 H1105 0.930 . S
C1113 C1111 1.419 . S
C1113 C1114 1.362 . S
C1114 H1106 0.930 . S
C1114 C1113 1.362 . S
C1114 C1117 1.409 . S
C1115 H1107 0.930 . S
C1115 C1116 1.355 . S
C1115 C1117 1.415 . S
C1116 C1115 1.355 . S
C1116 C1118 1.419 . S
C1117 C1112 1.425 . S
C1117 C1114 1.409 . S
C1117 C1115 1.415 . S
C1118 H1108 0.930 . S
C1118 C1116 1.419 . S
C1118 C1119 1.362 . S
C1119 H1109 0.930 . S
C1119 C1112 1.409 . S
C1119 C1118 1.362 . S
H1120 C1126 0.930 . S
H1121 C1129 0.930 1_655 S
H1122 C1130 0.930 . S
H1123 C1131 0.930 . S
H1124 C1134 0.930 . S
H1125 C1135 0.930 . S
C1126 H1120 0.930 . S
C1126 C1127 1.355 . S
C1126 C1128 1.415 . S
C1127 C1126 1.355 . S
C1127 C1129 1.419 . S
C1128 C1126 1.415 . S
C1128 C1133 1.425 . S
C1128 C1135 1.409 . S
C1129 H1121 0.930 1_455 S
C1129 C1127 1.419 . S
C1129 C1130 1.362 . S
C1130 H1122 0.930 . S
C1130 C1129 1.362 . S
C1130 C1133 1.409 . S
C1131 H1123 0.930 . S
C1131 C1132 1.355 . S
C1131 C1133 1.415 . S
C1132 C1131 1.355 . S
C1132 C1134 1.419 . S
C1133 C1128 1.425 . S
C1133 C1130 1.409 . S
C1133 C1131 1.415 . S
C1134 H1124 0.930 . S
C1134 C1132 1.419 . S
C1134 C1135 1.362 . S
C1135 H1125 0.930 . S
C1135 C1128 1.409 . S
C1135 C1134 1.362 . S
H1136 C1142 0.930 . S
H1137 C1145 0.930 . S
H1138 C1146 0.930 . S
H1139 C1147 0.930 . S
H1140 C1150 0.930 . S
H1141 C1151 0.930 . S
C1142 H1136 0.930 . S
C1142 C1143 1.355 . S
C1142 C1144 1.415 . S
C1143 C1142 1.355 . S
C1143 C1145 1.419 . S
C1144 C1142 1.415 . S
C1144 C1149 1.425 . S
C1144 C1151 1.409 . S
C1145 H1137 0.930 . S
C1145 C1143 1.419 . S
C1145 C1146 1.362 . S
C1146 H1138 0.930 . S
C1146 C1145 1.362 . S
C1146 C1149 1.409 . S
C1147 H1139 0.930 . S
C1147 C1148 1.355 . S
C1147 C1149 1.415 . S
C1148 C1147 1.355 . S
C1148 C1150 1.419 . S
C1149 C1144 1.425 . S
C1149 C1146 1.409 . S
C1149 C1147 1.415 . S
C1150 H1140 0.930 . S
C1150 C1148 1.419 . S
C1150 C1151 1.362 . S
C1151 H1141 0.930 . S
C1151 C1144 1.409 . S
C1151 C1150 1.362 . S
H1152 C1158 0.930 1_455 S
H1153 C1161 0.930 1_554 S
H1154 C1162 0.930 . S
H1155 C1163 0.930 . S
H1156 C1166 0.930 . S
H1157 C1167 0.930 . S
C1158 H1152 0.930 1_655 S
C1158 C1159 1.355 . S
C1158 C1160 1.412 1_655 S
C1159 C1158 1.355 . S
C1159 C1161 1.419 . S
C1160 C1158 1.412 1_455 S
C1160 C1165 1.423 1_455 S
C1160 C1167 1.414 . S
C1161 H1153 0.930 1_556 S
C1161 C1159 1.419 . S
C1161 C1162 1.362 . S
C1162 H1154 0.930 . S
C1162 C1161 1.362 . S
C1162 C1165 1.409 . S
C1163 H1155 0.930 . S
C1163 C1164 1.355 1_655 S
C1163 C1165 1.415 . S
C1164 C1163 1.355 1_455 S
C1164 C1166 1.419 . S
C1165 C1160 1.423 1_655 S
C1165 C1162 1.409 . S
C1165 C1163 1.415 . S
C1166 H1156 0.930 . S
C1166 C1164 1.419 . S
C1166 C1167 1.362 . S
C1167 H1157 0.930 . S
C1167 C1160 1.414 . S
C1167 C1166 1.362 . S
H1168 C1174 0.930 . S
H1169 C1177 0.930 . S
H1170 C1178 0.930 . S
H1171 C1179 0.930 . S
H1172 C1182 0.930 . S
H1173 C1183 0.930 . S
C1174 H1168 0.930 . S
C1174 C1175 1.355 . S
C1174 C1176 1.415 . S
C1175 C1174 1.355 . S
C1175 C1177 1.419 . S
C1176 C1174 1.415 . S
C1176 C1181 1.425 . S
C1176 C1183 1.409 . S
C1177 H1169 0.930 . S
C1177 C1175 1.419 . S
C1177 C1178 1.362 . S
C1178 H1170 0.930 . S
C1178 C1177 1.362 . S
C1178 C1181 1.409 . S
C1179 H1171 0.930 . S
C1179 C1180 1.355 . S
C1179 C1181 1.415 . S
C1180 C1179 1.355 . S
C1180 C1182 1.419 . S
C1181 C1176 1.425 . S
C1181 C1178 1.409 . S
C1181 C1179 1.415 . S
C1182 H1172 0.930 . S
C1182 C1180 1.419 . S
C1182 C1183 1.362 . S
C1183 H1173 0.930 . S
C1183 C1176 1.409 . S
C1183 C1182 1.362 . S
H1184 C1190 0.930 . S
H1185 C1193 0.930 . S
H1186 C1194 0.930 1_655 S
H1187 C1195 0.930 1_655 S
H1188 C1198 0.930 . S
H1189 C1199 0.930 . S
C1190 H1184 0.930 . S
C1190 C1191 1.355 . S
C1190 C1192 1.415 . S
C1191 C1190 1.355 . S
C1191 C1193 1.419 . S
C1192 C1190 1.415 . S
C1192 C1197 1.425 . S
C1192 C1199 1.409 . S
C1193 H1185 0.930 . S
C1193 C1191 1.419 . S
C1193 C1194 1.362 . S
C1194 H1186 0.930 1_455 S
C1194 C1193 1.362 . S
C1194 C1197 1.409 . S
C1195 H1187 0.930 1_455 S
C1195 C1196 1.355 . S
C1195 C1197 1.415 . S
C1196 C1195 1.355 . S
C1196 C1198 1.419 . S
C1197 C1192 1.425 . S
C1197 C1194 1.409 . S
C1197 C1195 1.415 . S
C1198 H1188 0.930 . S
C1198 C1196 1.419 . S
C1198 C1199 1.362 . S
C1199 H1189 0.930 . S
C1199 C1192 1.409 . S
C1199 C1198 1.362 . S
H1200 C1206 0.930 . S
H1201 C1209 0.930 . S
H1202 C1210 0.930 . S
H1203 C1211 0.930 . S
H1204 C1214 0.930 . S
H1205 C1215 0.930 . S
C1206 H1200 0.930 . S
C1206 C1207 1.355 . S
C1206 C1208 1.415 . S
C1207 C1206 1.355 . S
C1207 C1209 1.419 . S
C1208 C1206 1.415 . S
C1208 C1213 1.425 . S
C1208 C1215 1.409 . S
C1209 H1201 0.930 . S
C1209 C1207 1.419 . S
C1209 C1210 1.362 . S
C1210 H1202 0.930 . S
C1210 C1209 1.362 . S
C1210 C1213 1.409 . S
C1211 H1203 0.930 . S
C1211 C1212 1.355 . S
C1211 C1213 1.415 . S
C1212 C1211 1.355 . S
C1212 C1214 1.419 . S
C1213 C1208 1.425 . S
C1213 C1210 1.409 . S
C1213 C1211 1.415 . S
C1214 H1204 0.930 . S
C1214 C1212 1.419 . S
C1214 C1215 1.362 . S
C1215 H1205 0.930 . S
C1215 C1208 1.409 . S
C1215 C1214 1.362 . S
H1216 C1222 0.930 . S
H1217 C1225 0.930 . S
H1218 C1226 0.930 . S
H1219 C1227 0.930 . S
H1220 C1230 0.930 . S
H1221 C1231 0.930 . S
C1222 H1216 0.930 . S
C1222 C1223 1.355 . S
C1222 C1224 1.415 . S
C1223 C1222 1.355 . S
C1223 C1225 1.419 . S
C1224 C1222 1.415 . S
C1224 C1229 1.425 . S
C1224 C1231 1.409 . S
C1225 H1217 0.930 . S
C1225 C1223 1.419 . S
C1225 C1226 1.362 . S
C1226 H1218 0.930 . S
C1226 C1225 1.362 . S
C1226 C1229 1.409 . S
C1227 H1219 0.930 . S
C1227 C1228 1.355 . S
C1227 C1229 1.415 . S
C1228 C1227 1.355 . S
C1228 C1230 1.419 . S
C1229 C1224 1.425 . S
C1229 C1226 1.409 . S
C1229 C1227 1.415 . S
C1230 H1220 0.930 . S
C1230 C1228 1.419 . S
C1230 C1231 1.362 . S
C1231 H1221 0.930 . S
C1231 C1224 1.409 . S
C1231 C1230 1.362 . S
H1232 C1238 0.930 . S
H1233 C1241 0.930 . S
H1234 C1242 0.930 . S
H1235 C1243 0.930 . S
H1236 C1246 0.930 . S
H1237 C1247 0.930 . S
C1238 H1232 0.930 . S
C1238 C1239 1.355 . S
C1238 C1240 1.415 . S
C1239 C1238 1.355 . S
C1239 C1241 1.419 . S
C1240 C1238 1.415 . S
C1240 C1245 1.425 . S
C1240 C1247 1.409 . S
C1241 H1233 0.930 . S
C1241 C1239 1.419 . S
C1241 C1242 1.362 . S
C1242 H1234 0.930 . S
C1242 C1241 1.362 . S
C1242 C1245 1.409 . S
C1243 H1235 0.930 . S
C1243 C1244 1.355 . S
C1243 C1245 1.415 . S
C1244 C1243 1.355 . S
C1244 C1246 1.419 . S
C1245 C1240 1.425 . S
C1245 C1242 1.409 . S
C1245 C1243 1.415 . S
C1246 H1236 0.930 . S
C1246 C1244 1.419 . S
C1246 C1247 1.362 . S
C1247 H1237 0.930 . S
C1247 C1240 1.409 . S
C1247 C1246 1.362 . S
H1248 C1254 0.930 . S
H1249 C1257 0.930 . S
H1250 C1258 0.930 . S
H1251 C1259 0.930 . S
H1252 C1262 0.930 . S
H1253 C1263 0.930 . S
C1254 H1248 0.930 . S
C1254 C1255 1.355 . S
C1254 C1256 1.415 . S
C1255 C1254 1.355 . S
C1255 C1257 1.419 . S
C1256 C1254 1.415 . S
C1256 C1261 1.425 . S
C1256 C1263 1.409 . S
C1257 H1249 0.930 . S
C1257 C1255 1.419 . S
C1257 C1258 1.362 . S
C1258 H1250 0.930 . S
C1258 C1257 1.362 . S
C1258 C1261 1.409 . S
C1259 H1251 0.930 . S
C1259 C1260 1.355 . S
C1259 C1261 1.415 . S
C1260 C1259 1.355 . S
C1260 C1262 1.419 . S
C1261 C1256 1.425 . S
C1261 C1258 1.409 . S
C1261 C1259 1.415 . S
C1262 H1252 0.930 . S
C1262 C1260 1.419 . S
C1262 C1263 1.362 . S
C1263 H1253 0.930 . S
C1263 C1256 1.409 . S
C1263 C1262 1.362 . S
H1264 C1270 0.930 . S
H1265 C1273 0.930 . S
H1266 C1274 0.930 . S
H1267 C1275 0.930 . S
H1268 C1278 0.930 . S
H1269 C1279 0.930 . S
C1270 H1264 0.930 . S
C1270 C1271 1.355 . S
C1270 C1272 1.415 . S
C1271 C1270 1.355 . S
C1271 C1273 1.419 . S
C1272 C1270 1.415 . S
C1272 C1277 1.425 . S
C1272 C1279 1.409 . S
C1273 H1265 0.930 . S
C1273 C1271 1.419 . S
C1273 C1274 1.362 . S
C1274 H1266 0.930 . S
C1274 C1273 1.362 . S
C1274 C1277 1.409 . S
C1275 H1267 0.930 . S
C1275 C1276 1.355 . S
C1275 C1277 1.415 . S
C1276 C1275 1.355 . S
C1276 C1278 1.419 . S
C1277 C1272 1.425 . S
C1277 C1274 1.409 . S
C1277 C1275 1.415 . S
C1278 H1268 0.930 . S
C1278 C1276 1.419 . S
C1278 C1279 1.362 . S
C1279 H1269 0.930 . S
C1279 C1272 1.409 . S
C1279 C1278 1.362 . S
H1280 C1286 0.930 . S
H1281 C1289 0.930 . S
H1282 C1290 0.930 . S
H1283 C1291 0.930 . S
H1284 C1294 0.930 . S
H1285 C1295 0.930 . S
C1286 H1280 0.930 . S
C1286 C1287 1.355 . S
C1286 C1288 1.415 . S
C1287 C1286 1.355 . S
C1287 C1289 1.419 . S
C1288 C1286 1.415 . S
C1288 C1293 1.425 . S
C1288 C1295 1.409 . S
C1289 H1281 0.930 . S
C1289 C1287 1.419 . S
C1289 C1290 1.362 . S
C1290 H1282 0.930 . S
C1290 C1289 1.362 . S
C1290 C1293 1.409 . S
C1291 H1283 0.930 . S
C1291 C1292 1.355 . S
C1291 C1293 1.415 . S
C1292 C1291 1.355 . S
C1292 C1294 1.419 . S
C1293 C1288 1.425 . S
C1293 C1290 1.409 . S
C1293 C1291 1.415 . S
C1294 H1284 0.930 . S
C1294 C1292 1.419 . S
C1294 C1295 1.362 . S
C1295 H1285 0.930 . S
C1295 C1288 1.409 . S
C1295 C1294 1.362 . S
H1296 C1302 0.930 . S
H1297 C1305 0.930 . S
H1298 C1306 0.930 . S
H1299 C1307 0.930 . S
H1300 C1310 0.930 . S
H1301 C1311 0.930 . S
C1302 H1296 0.930 . S
C1302 C1303 1.355 . S
C1302 C1304 1.415 . S
C1303 C1302 1.355 . S
C1303 C1305 1.419 . S
C1304 C1302 1.415 . S
C1304 C1309 1.425 . S
C1304 C1311 1.409 . S
C1305 H1297 0.930 . S
C1305 C1303 1.419 . S
C1305 C1306 1.362 . S
C1306 H1298 0.930 . S
C1306 C1305 1.362 . S
C1306 C1309 1.409 . S
C1307 H1299 0.930 . S
C1307 C1308 1.355 . S
C1307 C1309 1.415 . S
C1308 C1307 1.355 . S
C1308 C1310 1.419 . S
C1309 C1304 1.425 . S
C1309 C1306 1.409 . S
C1309 C1307 1.415 . S
C1310 H1300 0.930 . S
C1310 C1308 1.419 . S
C1310 C1311 1.362 . S
C1311 H1301 0.930 . S
C1311 C1304 1.409 . S
C1311 C1310 1.362 . S
H1312 C1318 0.930 . S
H1313 C1321 0.930 . S
H1314 C1322 0.930 . S
H1315 C1323 0.930 . S
H1316 C1326 0.930 . S
H1317 C1327 0.930 . S
C1318 H1312 0.930 . S
C1318 C1319 1.355 . S
C1318 C1320 1.415 . S
C1319 C1318 1.355 . S
C1319 C1321 1.419 . S
C1320 C1318 1.415 . S
C1320 C1325 1.425 . S
C1320 C1327 1.409 . S
C1321 H1313 0.930 . S
C1321 C1319 1.419 . S
C1321 C1322 1.362 . S
C1322 H1314 0.930 . S
C1322 C1321 1.362 . S
C1322 C1325 1.409 . S
C1323 H1315 0.930 . S
C1323 C1324 1.355 . S
C1323 C1325 1.415 . S
C1324 C1323 1.355 . S
C1324 C1326 1.419 . S
C1325 C1320 1.425 . S
C1325 C1322 1.409 . S
C1325 C1323 1.415 . S
C1326 H1316 0.930 . S
C1326 C1324 1.419 . S
C1326 C1327 1.362 . S
C1327 H1317 0.930 . S
C1327 C1320 1.409 . S
C1327 C1326 1.362 . S
H1328 C1334 0.930 . S
H1329 C1337 0.930 . S
H1330 C1338 0.930 . S
H1331 C1339 0.930 . S
H1332 C1342 0.930 . S
H1333 C1343 0.930 . S
C1334 H1328 0.930 . S
C1334 C1335 1.355 . S
C1334 C1336 1.415 . S
C1335 C1334 1.355 . S
C1335 C1337 1.419 1_556 S
C1336 C1334 1.415 . S
C1336 C1341 1.425 . S
C1336 C1343 1.409 . S
C1337 H1329 0.930 . S
C1337 C1335 1.419 1_554 S
C1337 C1338 1.362 . S
C1338 H1330 0.930 . S
C1338 C1337 1.362 . S
C1338 C1341 1.409 1_554 S
C1339 H1331 0.930 . S
C1339 C1340 1.355 1_554 S
C1339 C1341 1.415 1_554 S
C1340 C1339 1.355 1_556 S
C1340 C1342 1.419 . S
C1341 C1336 1.425 . S
C1341 C1338 1.409 1_556 S
C1341 C1339 1.415 1_556 S
C1342 H1332 0.930 . S
C1342 C1340 1.419 . S
C1342 C1343 1.362 . S
C1343 H1333 0.930 . S
C1343 C1336 1.409 . S
C1343 C1342 1.362 . S
H1344 C1350 0.930 . S
H1345 C1353 0.930 . S
H1346 C1354 0.930 . S
H1347 C1355 0.930 . S
H1348 C1358 0.930 . S
H1349 C1359 0.930 . S
C1350 H1344 0.930 . S
C1350 C1351 1.355 . S
C1350 C1352 1.415 . S
C1351 C1350 1.355 . S
C1351 C1353 1.419 . S
C1352 C1350 1.415 . S
C1352 C1357 1.425 . S
C1352 C1359 1.409 . S
C1353 H1345 0.930 . S
C1353 C1351 1.419 . S
C1353 C1354 1.362 . S
C1354 H1346 0.930 . S
C1354 C1353 1.362 . S
C1354 C1357 1.409 . S
C1355 H1347 0.930 . S
C1355 C1356 1.355 . S
C1355 C1357 1.415 . S
C1356 C1355 1.355 . S
C1356 C1358 1.419 . S
C1357 C1352 1.425 . S
C1357 C1354 1.409 . S
C1357 C1355 1.415 . S
C1358 H1348 0.930 . S
C1358 C1356 1.419 . S
C1358 C1359 1.362 . S
C1359 H1349 0.930 . S
C1359 C1352 1.409 . S
C1359 C1358 1.362 . S
H1360 C1366 0.930 1_556 S
H1361 C1369 0.930 . S
H1362 C1370 0.930 . S
H1363 C1371 0.930 . S
H1364 C1374 0.930 . S
H1365 C1375 0.930 . S
C1366 H1360 0.930 1_554 S
C1366 C1367 1.355 . S
C1366 C1368 1.415 . S
C1367 C1366 1.355 . S
C1367 C1369 1.419 . S
C1368 C1366 1.415 . S
C1368 C1373 1.425 . S
C1368 C1375 1.409 1_554 S
C1369 H1361 0.930 . S
C1369 C1367 1.419 . S
C1369 C1370 1.362 . S
C1370 H1362 0.930 . S
C1370 C1369 1.362 . S
C1370 C1373 1.409 . S
C1371 H1363 0.930 . S
C1371 C1372 1.355 . S
C1371 C1373 1.415 . S
C1372 C1371 1.355 . S
C1372 C1374 1.419 1_554 S
C1373 C1368 1.425 . S
C1373 C1370 1.409 . S
C1373 C1371 1.415 . S
C1374 H1364 0.930 . S
C1374 C1372 1.419 1_556 S
C1374 C1375 1.362 . S
C1375 H1365 0.930 . S
C1375 C1368 1.409 1_556 S
C1375 C1374 1.362 . S
H1376 C1382 0.930 . S
H1377 C1385 0.930 . S
H1378 C1386 0.930 . S
H1379 C1387 0.930 . S
H1380 C1390 0.930 . S
H1381 C1391 0.930 . S
C1382 H1376 0.930 . S
C1382 C1383 1.355 . S
C1382 C1384 1.415 . S
C1383 C1382 1.355 . S
C1383 C1385 1.419 1_565 S
C1384 C1382 1.415 . S
C1384 C1389 1.425 . S
C1384 C1391 1.409 . S
C1385 H1377 0.930 . S
C1385 C1383 1.419 1_545 S
C1385 C1386 1.362 . S
C1386 H1378 0.930 . S
C1386 C1385 1.362 . S
C1386 C1389 1.409 1_545 S
C1387 H1379 0.930 . S
C1387 C1388 1.355 . S
C1387 C1389 1.415 . S
C1388 C1387 1.355 . S
C1388 C1390 1.419 . S
C1389 C1384 1.425 . S
C1389 C1386 1.409 1_565 S
C1389 C1387 1.415 . S
C1390 H1380 0.930 . S
C1390 C1388 1.419 . S
C1390 C1391 1.362 . S
C1391 H1381 0.930 . S
C1391 C1384 1.409 . S
C1391 C1390 1.362 . S
C636 C194 1.670 . S
C631 C66 1.667 . S
C652 C242 1.298 . S
C647 C76 1.319 . S
C663 C93 1.717 . S
C668 C278 1.641 . S
C684 C314 1.538 . S
C679 C54 1.594 . S
C700 C340 1.469 . S
C695 C126 1.472 . S
C716 C376 1.825 . S
C711 C150 1.840 . S
C727 C136 1.219 . S
C732 C411 1.262 . S
C748 C448 1.781 . S
C743 C117 1.803 . S
C759 C141 1.279 . S
C764 C482 1.273 . S
C780 C530 1.396 . S
C775 C112 1.397 . S
C791 C124 1.464 . S
C796 C483 1.498 . S
C812 C520 1.425 . S
C807 C148 1.428 . S
C823 C88 1.309 . S
C828 C566 1.286 . S
C839 C52 1.647 . S
C844 C555 1.661 . S
C855 C64 1.293 . S
C860 C556 1.302 . S
C871 C78 1.329 . S
C876 C554 1.320 . S
C887 C45 1.590 . S
C892 C302 1.584 . S
C903 C177 1.764 . S
C908 C303 1.771 . S
C924 C206 1.511 . S
C919 C189 1.567 1_565 S
C940 C231 1.557 . S
C935 C102 1.554 . S
C951 C57 1.776 . S
C956 C338 1.772 . S
C972 C446 1.405 . S
C967 C138 1.444 . S
C988 C339 1.768 . S
C983 C114 1.770 . S
C1004 C412 1.782 . S
C999 C153 1.789 . S
C1020 C410 1.679 . S
C1015 C174 1.671 . S
C1031 C184 1.297 . S
C1036 C458 1.267 . S
C1047 C105 1.728 . S
C1052 C350 1.616 . S
C1068 C386 1.508 . S
C1063 C162 1.580 . S
C1079 C42 1.473 . S
C1084 C268 1.466 . S
C1100 C304 1.827 . S
C1095 C6 1.845 . S
C1116 C195 1.268 . S
C1111 C16 1.267 . S
C1132 C232 1.778 . S
C1127 C33 1.791 1_455 S
C1143 C21 1.252 . S
C1148 C518 1.252 . S
C1159 C28 1.392 . S
C1164 C494 1.395 . S
C1175 C40 1.496 . S
C1180 C519 1.498 . S
C1191 C4 1.427 . S
C1196 C484 1.429 . S
C1212 C602 1.230 . S
C1207 C100 1.319 . S
C1228 C591 1.659 . S
C1223 C160 1.652 . S
C1244 C592 1.300 . S
C1239 C172 1.302 . S
C1255 C186 1.340 1_554 S
C1260 C590 1.350 . S
C1271 C129 1.608 . S
C1276 C374 1.614 . S
C1292 C375 1.759 . S
C1287 C69 1.752 . S
C1308 C422 1.450 . S
C1303 C81 1.536 . S
C1324 C447 1.554 . S
C1319 C90 1.563 . S
C1335 C165 1.782 . S
C1340 C266 1.784 1_556 S
C1356 C230 1.425 . S
C1351 C18 1.460 . S
C1367 C30 1.770 . S
C1372 C267 1.765 . S
C1388 C196 1.778 . S
C1383 C9 1.787 1_565 S
