# Generated by pormake.
# Topology zzz, (3,6)-cn, num edge types: 1
# Building blocks:
#     Node 0, Type 0, BuildingBlock: BETDAH_clean_linker_0, # of connection points: 3
#     Node 1, Type 0, BuildingBlock: BETDAH_clean_linker_0, # of connection points: 3
#     Node 2, Type 0, BuildingBlock: BETDAH_clean_linker_0, # of connection points: 3
#     Node 3, Type 0, BuildingBlock: BETDAH_clean_linker_0, # of connection points: 3
#     Node 4, Type 0, BuildingBlock: BETDAH_clean_linker_0, # of connection points: 3
#     Node 5, Type 0, BuildingBlock: BETDAH_clean_linker_0, # of connection points: 3
#     Node 6, Type 0, BuildingBlock: BETDAH_clean_linker_0, # of connection points: 3
#     Node 7, Type 0, BuildingBlock: BETDAH_clean_linker_0, # of connection points: 3
#     Node 8, Type 1, BuildingBlock: FUNLAD_clean_sbu_0, # of connection points: 6
#     Node 9, Type 1, BuildingBlock: FUNLAD_clean_sbu_0, # of connection points: 6
#     Node 10, Type 1, BuildingBlock: FUNLAD_clean_sbu_0, # of connection points: 6
#     Node 11, Type 1, BuildingBlock: FUNLAD_clean_sbu_0, # of connection points: 6
#     Edge 12, Type (0, 1), BuildingBlock: TEMPAE_clean_linker_10, # of connection points: 2
#     Edge 13, Type (0, 1), BuildingBlock: TEMPAE_clean_linker_10, # of connection points: 2
#     Edge 14, Type (0, 1), BuildingBlock: TEMPAE_clean_linker_10, # of connection points: 2
#     Edge 15, Type (0, 1), BuildingBlock: TEMPAE_clean_linker_10, # of connection points: 2
#     Edge 16, Type (0, 1), BuildingBlock: TEMPAE_clean_linker_10, # of connection points: 2
#     Edge 17, Type (0, 1), BuildingBlock: TEMPAE_clean_linker_10, # of connection points: 2
#     Edge 18, Type (0, 1), BuildingBlock: TEMPAE_clean_linker_10, # of connection points: 2
#     Edge 19, Type (0, 1), BuildingBlock: TEMPAE_clean_linker_10, # of connection points: 2
#     Edge 20, Type (0, 1), BuildingBlock: TEMPAE_clean_linker_10, # of connection points: 2
#     Edge 21, Type (0, 1), BuildingBlock: TEMPAE_clean_linker_10, # of connection points: 2
#     Edge 22, Type (0, 1), BuildingBlock: TEMPAE_clean_linker_10, # of connection points: 2
#     Edge 23, Type (0, 1), BuildingBlock: TEMPAE_clean_linker_10, # of connection points: 2
#     Edge 24, Type (0, 1), BuildingBlock: TEMPAE_clean_linker_10, # of connection points: 2
#     Edge 25, Type (0, 1), BuildingBlock: TEMPAE_clean_linker_10, # of connection points: 2
#     Edge 26, Type (0, 1), BuildingBlock: TEMPAE_clean_linker_10, # of connection points: 2
#     Edge 27, Type (0, 1), BuildingBlock: TEMPAE_clean_linker_10, # of connection points: 2
#     Edge 28, Type (0, 1), BuildingBlock: TEMPAE_clean_linker_10, # of connection points: 2
#     Edge 29, Type (0, 1), BuildingBlock: TEMPAE_clean_linker_10, # of connection points: 2
#     Edge 30, Type (0, 1), BuildingBlock: TEMPAE_clean_linker_10, # of connection points: 2
#     Edge 31, Type (0, 1), BuildingBlock: TEMPAE_clean_linker_10, # of connection points: 2
#     Edge 32, Type (0, 1), BuildingBlock: TEMPAE_clean_linker_10, # of connection points: 2
#     Edge 33, Type (0, 1), BuildingBlock: TEMPAE_clean_linker_10, # of connection points: 2
#     Edge 34, Type (0, 1), BuildingBlock: TEMPAE_clean_linker_10, # of connection points: 2
#     Edge 35, Type (0, 1), BuildingBlock: TEMPAE_clean_linker_10, # of connection points: 2
# Relax obj value: 0.118
# Max RMSD: 0.175
# Mean RMSD: 0.091
data_MOF--net-zzz--node1-FUNLAD_clean_sbu_0--node2-BETDAH_clean_linker_0--edge1-TEMPAE_clean_linker_10
_symmetry_space_group_name_H-M    P1
_symmetry_Int_Tables_number       1
_symmetry_cell_setting            triclinic
loop_
_symmetry_equiv_pos_as_xyz
'x, y, z'
_cell_length_a     52.317314
_cell_length_b     57.661053
_cell_length_c     17.54998
_cell_angle_alpha  85.354823
_cell_angle_beta   85.093108
_cell_angle_gamma 89.961476
loop_
_atom_site_label
_atom_site_type_symbol
_atom_site_fract_x
_atom_site_fract_y
_atom_site_fract_z
_atom_type_partial_charge
H0 H 0.86028 0.48778 0.25769 0.0
H1 H 0.78885 0.46693 0.18034 0.0
H2 H 0.78979 0.50048 0.39148 0.0
C3 C 0.83951 0.48655 0.26607 0.0
C4 C 0.82664 0.49576 0.32981 0.0
C5 C 0.82608 0.47585 0.21281 0.0
C6 C 0.79923 0.47488 0.2224 0.0
C7 C 0.78603 0.48367 0.28745 0.0
C8 C 0.79989 0.49368 0.34163 0.0
N9 N 0.75889 0.48291 0.29947 0.0
C10 C 0.74332 0.48046 0.24046 0.0
H11 H 0.989 0.84013 0.12078 0.0
H12 H 0.97314 0.77856 0.01062 0.0
H13 H 0.94311 0.78547 0.24463 0.0
C14 C 0.98072 0.82277 0.12386 0.0
C15 C 0.96627 0.81413 0.19067 0.0
C16 C 0.98304 0.81021 0.05885 0.0
C17 C 0.97168 0.78809 0.0615 0.0
C18 C 0.95767 0.77885 0.12959 0.0
C19 C 0.95447 0.79225 0.19311 0.0
N20 N 0.94592 0.75654 0.13564 0.0
C21 C 0.95307 0.73909 0.08811 0.0
H22 H 0.67584 0.00282 0.11576 0.0
H23 H 0.75341 0.00629 0.0153 0.0
H24 H 0.73789 0.99457 0.26117 0.0
C25 C 0.6962 0.00224 0.12338 0.0
C26 C 0.70443 0.99901 0.19721 0.0
C27 C 0.71359 0.0056 0.05846 0.0
C28 C 0.74001 0.00377 0.06586 0.0
C29 C 0.74883 0.99917 0.13946 0.0
C30 C 0.73096 0.99713 0.2047 0.0
N31 N 0.77538 0.99714 0.1508 0.0
C32 C 0.79543 0.99783 0.09293 0.0
H33 H 0.53648 0.63837 0.13817 0.0
H34 H 0.52981 0.70747 0.03039 0.0
H35 H 0.56839 0.69616 0.23809 0.0
C36 C 0.54021 0.65692 0.13705 0.0
C37 C 0.55375 0.66541 0.1943 0.0
C38 C 0.53126 0.67194 0.07855 0.0
C39 C 0.53637 0.69592 0.07638 0.0
C40 C 0.54975 0.70473 0.13453 0.0
C41 C 0.55818 0.68938 0.19338 0.0
N42 N 0.55518 0.72879 0.13619 0.0
C43 C 0.54731 0.74633 0.08445 0.0
H44 H 0.16602 0.49156 0.2588 0.0
H45 H 0.24181 0.51436 0.29027 0.0
H46 H 0.22462 0.49326 0.07019 0.0
C47 C 0.18567 0.4947 0.23527 0.0
C48 C 0.19276 0.49169 0.15788 0.0
C49 C 0.20305 0.50349 0.28193 0.0
C50 C 0.22861 0.50729 0.25376 0.0
C51 C 0.23666 0.5026 0.17774 0.0
C52 C 0.21856 0.49536 0.12979 0.0
N53 N 0.26253 0.50582 0.14718 0.0
C54 C 0.28235 0.50899 0.19308 0.0
H55 H 0.08137 0.15732 0.33404 0.0
H56 H 0.0609 0.22461 0.40663 0.0
H57 H 0.09721 0.21804 0.17903 0.0
C58 C 0.08182 0.17612 0.32297 0.0
C59 C 0.09124 0.18598 0.25068 0.0
C60 C 0.07081 0.18985 0.37906 0.0
C61 C 0.06979 0.21407 0.36348 0.0
C62 C 0.07996 0.22437 0.29148 0.0
C63 C 0.09026 0.21019 0.23519 0.0
N64 N 0.0795 0.24876 0.27253 0.0
C65 C 0.07152 0.26504 0.32362 0.0
H66 H 0.35949 0.00627 0.31365 0.0
H67 H 0.28211 0.00307 0.41561 0.0
H68 H 0.29713 0.01528 0.16966 0.0
C69 C 0.3391 0.00697 0.30645 0.0
C70 C 0.33072 0.01044 0.23287 0.0
C71 C 0.32184 0.00358 0.37164 0.0
C72 C 0.2954 0.00559 0.3648 0.0
C73 C 0.28643 0.01039 0.2915 0.0
C74 C 0.30417 0.01251 0.22594 0.0
N75 N 0.25984 0.01259 0.28084 0.0
C76 C 0.23993 0.01144 0.33921 0.0
H77 H 0.49679 0.36663 0.2691 0.0
H78 H 0.49768 0.2976 0.38114 0.0
H79 H 0.45923 0.31088 0.17395 0.0
C80 C 0.49146 0.34838 0.27138 0.0
C81 C 0.47688 0.34069 0.21514 0.0
C82 C 0.49927 0.33297 0.33066 0.0
C83 C 0.49204 0.30941 0.33446 0.0
C84 C 0.47765 0.30136 0.27725 0.0
C85 C 0.47031 0.31707 0.21775 0.0
N86 N 0.47001 0.27773 0.27741 0.0
C87 C 0.47684 0.25979 0.32938 0.0
C88 C 0.02677 0.95827 0.78434 0.0
N89 N 0.99688 0.98063 0.5803 0.0
C90 C 0.01187 0.96341 0.55242 0.0
C91 C 1.0018 0.94731 0.50817 0.0
C92 C 0.97608 0.94888 0.49255 0.0
C93 C 0.9613 0.96753 0.51746 0.0
C94 C 0.97222 0.98343 0.56177 0.0
Zn95 Zn 0.01072 0.99668 0.66821 0.0
C96 C 0.96928 0.0015 0.79609 0.0
N97 N 0.04022 0.02411 0.86128 0.0
C98 C 0.06484 0.02063 0.87908 0.0
C99 C 0.02548 0.04091 0.89278 0.0
C100 C 0.03567 0.05562 0.94168 0.0
C101 C 0.06141 0.05332 0.95748 0.0
C102 C 0.07597 0.03528 0.92692 0.0
Zn103 Zn 0.02615 0.00849 0.77291 0.0
O104 O 0.01779 0.9631 0.72008 0.0
C105 C 0.06753 0.00382 0.64457 0.0
O106 O 0.03264 0.97468 0.824 0.0
H107 H 0.00622 0.04388 0.87653 0.0
H108 H 0.03115 0.961 0.56913 0.0
H109 H 0.07629 0.00725 0.85321 0.0
O110 O 0.04837 0.99782 0.6107 0.0
O111 O 0.06388 0.00919 0.71352 0.0
H112 H 0.96053 0.99704 0.58528 0.0
O113 O 0.0192 0.04205 0.72108 0.0
O114 O 0.00418 0.03049 0.61725 0.0
O115 O 0.98842 0.00749 0.83022 0.0
O116 O 0.97303 0.99598 0.72732 0.0
C117 C 0.01021 0.0469 0.65676 0.0
H118 H 0.01359 0.93298 0.48984 0.0
H119 H 0.9413 0.96904 0.5063 0.0
H120 H 0.02394 0.06955 0.96324 0.0
H121 H 0.09589 0.03298 0.93818 0.0
C122 C 0.47679 0.99575 0.63367 0.0
N123 N 0.51528 0.05845 0.65658 0.0
C124 C 0.51343 0.06346 0.58018 0.0
C125 C 0.51167 0.08649 0.54995 0.0
C126 C 0.5118 0.10465 0.59866 0.0
C127 C 0.51382 0.09899 0.67734 0.0
C128 C 0.51558 0.07566 0.70521 0.0
Zn129 Zn 0.51713 0.02417 0.69683 0.0
C130 C 0.481 0.01228 0.83396 0.0
N131 N 0.52007 0.95192 0.7737 0.0
C132 C 0.51988 0.93486 0.72446 0.0
C133 C 0.52185 0.94669 0.85003 0.0
C134 C 0.52376 0.9236 0.87948 0.0
C135 C 0.52393 0.9056 0.83001 0.0
C136 C 0.52178 0.91148 0.75153 0.0
Zn137 Zn 0.51821 0.98622 0.73386 0.0
O138 O 0.48612 0.01616 0.63208 0.0
C139 C 0.55431 0.9981 0.59669 0.0
O140 O 0.48725 0.97893 0.67034 0.0
H141 H 0.5219 0.96049 0.88823 0.0
H142 H 0.5131 0.04954 0.54254 0.0
H143 H 0.51847 0.93941 0.66396 0.0
O144 O 0.54486 0.01809 0.60591 0.0
O145 O 0.54586 0.98061 0.64033 0.0
H146 H 0.51711 0.07128 0.76575 0.0
O147 O 0.54917 0.99421 0.79872 0.0
O148 O 0.54815 0.03144 0.76031 0.0
O149 O 0.49044 0.99229 0.8247 0.0
O150 O 0.48949 0.02979 0.79042 0.0
C151 C 0.55855 0.0146 0.79708 0.0
H152 H 0.5097 0.08997 0.48917 0.0
H153 H 0.51419 0.11245 0.71686 0.0
H154 H 0.52496 0.91988 0.94056 0.0
H155 H 0.52206 0.89821 0.71122 0.0
C156 C 0.52951 0.46395 0.62045 0.0
N157 N 0.46551 0.50723 0.6268 0.0
C158 C 0.46799 0.50595 0.54946 0.0
C159 C 0.44674 0.50853 0.50719 0.0
C160 C 0.42254 0.5124 0.54461 0.0
C161 C 0.42031 0.51331 0.62469 0.0
C162 C 0.44226 0.51077 0.66497 0.0
Zn163 Zn 0.4985 0.50419 0.68069 0.0
C164 C 0.49563 0.47226 0.81792 0.0
N165 N 0.57058 0.4975 0.77466 0.0
C166 C 0.59362 0.49282 0.73705 0.0
C167 C 0.5684 0.5003 0.85116 0.0
C168 C 0.58985 0.49873 0.89279 0.0
C169 C 0.61388 0.49406 0.85575 0.0
C170 C 0.61569 0.49088 0.77695 0.0
Zn171 Zn 0.53752 0.50042 0.72103 0.0
O172 O 0.50852 0.47501 0.61927 0.0
C173 C 0.54041 0.53235 0.58398 0.0
O174 O 0.54694 0.47085 0.65965 0.0
H175 H 0.5499 0.50371 0.88031 0.0
H176 H 0.48657 0.50297 0.52012 0.0
H177 H 0.59487 0.49061 0.67624 0.0
O178 O 0.51678 0.52686 0.59246 0.0
O179 O 0.55546 0.52328 0.63102 0.0
H180 H 0.44076 0.51174 0.72648 0.0
O181 O 0.52751 0.52979 0.78181 0.0
O182 O 0.48892 0.5336 0.74254 0.0
O183 O 0.51924 0.47789 0.80986 0.0
O184 O 0.48064 0.48121 0.77044 0.0
C185 C 0.50641 0.54069 0.78115 0.0
H186 H 0.4492 0.50725 0.44575 0.0
H187 H 0.40193 0.51628 0.65552 0.0
H188 H 0.58758 0.50086 0.95377 0.0
H189 H 0.63396 0.48725 0.74653 0.0
C190 C 0.05127 0.51408 0.61918 0.0
N191 N 0.01636 0.44846 0.66368 0.0
C192 C 0.01848 0.44731 0.58628 0.0
C193 C 0.02188 0.42594 0.55493 0.0
C194 C 0.02313 0.40546 0.60356 0.0
C195 C 0.0206 0.40711 0.68331 0.0
C196 C 0.01718 0.4289 0.7123 0.0
Zn197 Zn 0.01303 0.48058 0.70534 0.0
C198 C 0.04885 0.4875 0.82221 0.0
N199 N 0.0073 0.54888 0.78355 0.0
C200 C 0.00643 0.56806 0.7333 0.0
C201 C 0.00506 0.55067 0.86065 0.0
C202 C 1.00137 0.57233 0.88995 0.0
C203 C 1.0 0.59243 0.83949 0.0
C204 C 0.0028 0.59009 0.76013 0.0
Zn205 Zn 0.01067 0.51664 0.74287 0.0
O206 O 0.04314 0.4932 0.62473 0.0
C207 C 0.97508 0.50991 0.62483 0.0
O208 O 0.04041 0.5288 0.661 0.0
H209 H 0.00571 0.53519 0.8996 0.0
H210 H 0.01792 0.46306 0.54859 0.0
H211 H 0.00827 0.56624 0.67222 0.0
O212 O 0.98559 0.49003 0.62785 0.0
O213 O 0.98219 0.52519 0.66692 0.0
H214 H 0.01543 0.43022 0.77365 0.0
O215 O 0.98133 0.50376 0.82569 0.0
O216 O 0.98282 0.46855 0.78637 0.0
O217 O 0.0391 0.50769 0.81683 0.0
O218 O 0.04071 0.47163 0.78412 0.0
C219 C 0.97274 0.48302 0.83067 0.0
H220 H 0.02415 0.42556 0.49313 0.0
H221 H 0.02124 0.39174 0.72287 0.0
H222 H 0.99895 0.57324 0.95153 0.0
H223 H 0.00217 0.60512 0.71915 0.0
C224 C 0.20957 0.99047 0.43669 0.0
C225 C 0.21697 0.01088 0.3917 0.0
C226 C 0.18597 0.98912 0.482 0.0
C227 C 0.16944 0.00864 0.48177 0.0
C228 C 0.17729 0.02948 0.43749 0.0
C229 C 0.20098 0.03032 0.39288 0.0
C230 C 0.1784 0.96661 0.52829 0.0
C231 C 0.16032 0.05068 0.43539 0.0
C232 C 0.09756 0.9986 0.52779 0.0
C233 C 0.09373 0.00471 0.60376 0.0
C234 C 0.12207 0.99963 0.48788 0.0
C235 C 0.14342 0.00695 0.52458 0.0
C236 C 0.13974 0.013 0.6014 0.0
C237 C 0.11498 0.01181 0.64003 0.0
C238 C 0.12507 0.99304 0.40606 0.0
C239 C 0.16194 0.0209 0.64263 0.0
H240 H 0.22197 0.97541 0.43511 0.0
H241 H 0.20673 0.04604 0.35742 0.0
H242 H 0.17326 0.96984 0.58915 0.0
H243 H 0.16117 0.95918 0.50634 0.0
H244 H 0.19397 0.95351 0.52585 0.0
H245 H 0.16978 0.06588 0.40139 0.0
H246 H 0.14231 0.04669 0.40983 0.0
H247 H 0.15492 0.05553 0.49449 0.0
H248 H 0.08133 0.99307 0.49913 0.0
H249 H 0.11229 0.01656 0.69867 0.0
H250 H 0.13914 0.97874 0.40063 0.0
H251 H 0.13266 0.0081 0.36739 0.0
H252 H 0.10665 0.98736 0.38611 0.0
H253 H 0.17702 0.00735 0.64322 0.0
H254 H 0.15602 0.02459 0.70273 0.0
H255 H 0.1707 0.03687 0.61167 0.0
C256 C 0.46778 0.21892 0.37089 0.0
C257 C 0.48218 0.239 0.37651 0.0
C258 C 0.47331 0.19795 0.41225 0.0
C259 C 0.49377 0.19716 0.46033 0.0
C260 C 0.50806 0.21766 0.46726 0.0
C261 C 0.5021 0.23844 0.42485 0.0
C262 C 0.45763 0.17652 0.40305 0.0
C263 C 0.5299 0.21752 0.51813 0.0
C264 C 0.49285 0.14456 0.60595 0.0
C265 C 0.50917 0.12922 0.56723 0.0
C266 C 0.48849 0.16714 0.57339 0.0
C267 C 0.5007 0.17454 0.50034 0.0
C268 C 0.518 0.15948 0.46247 0.0
C269 C 0.52204 0.13705 0.49639 0.0
C270 C 0.46997 0.18271 0.61568 0.0
C271 C 0.53148 0.16672 0.38463 0.0
H272 H 0.4524 0.21954 0.33306 0.0
H273 H 0.5132 0.25412 0.42867 0.0
H274 H 0.47019 0.16307 0.37801 0.0
H275 H 0.44923 0.16903 0.45989 0.0
H276 H 0.44185 0.18028 0.36546 0.0
H277 H 0.53817 0.23516 0.52051 0.0
H278 H 0.52325 0.21052 0.57724 0.0
H279 H 0.54531 0.20589 0.49655 0.0
H280 H 0.48268 0.13862 0.66043 0.0
H281 H 0.53507 0.12546 0.46681 0.0
H282 H 0.45255 0.18525 0.58417 0.0
H283 H 0.47869 0.20012 0.61845 0.0
H284 H 0.46407 0.17531 0.67499 0.0
H285 H 0.51716 0.16913 0.34159 0.0
H286 H 0.54571 0.15364 0.36537 0.0
H287 H 0.54148 0.18363 0.38581 0.0
C288 C 0.30005 0.52828 0.29676 0.0
C289 C 0.30201 0.51122 0.24444 0.0
C290 C 0.31858 0.53 0.34939 0.0
C291 C 0.33933 0.51422 0.34909 0.0
C292 C 0.34126 0.49697 0.29578 0.0
C293 C 0.32246 0.49568 0.24394 0.0
C294 C 0.31593 0.5486 0.40528 0.0
C295 C 0.36314 0.47986 0.29364 0.0
C296 C 0.40168 0.52881 0.42955 0.0
C297 C 0.39993 0.51499 0.49935 0.0
C298 C 0.38166 0.52941 0.38135 0.0
C299 C 0.35934 0.51584 0.40354 0.0
C300 C 0.35697 0.50265 0.47551 0.0
C301 C 0.37732 0.50242 0.52275 0.0
C302 C 0.38482 0.54383 0.30534 0.0
C303 C 0.33342 0.48799 0.50107 0.0
H304 H 0.28397 0.54017 0.29681 0.0
H305 H 0.32365 0.48242 0.20331 0.0
H306 H 0.31483 0.54049 0.465 0.0
H307 H 0.3331 0.56011 0.39744 0.0
H308 H 0.29861 0.55945 0.39811 0.0
H309 H 0.36171 0.46745 0.24895 0.0
H310 H 0.38169 0.48934 0.28214 0.0
H311 H 0.36345 0.46982 0.35022 0.0
H312 H 0.41901 0.53885 0.41193 0.0
H313 H 0.37599 0.49161 0.57645 0.0
H314 H 0.36806 0.55539 0.29877 0.0
H315 H 0.38568 0.53222 0.25779 0.0
H316 H 0.40252 0.5547 0.2992 0.0
H317 H 0.31583 0.49859 0.4965 0.0
H318 H 0.33366 0.48027 0.56109 0.0
H319 H 0.33219 0.47368 0.46288 0.0
C320 C 0.07697 0.30506 0.35646 0.0
C321 C 0.06428 0.28366 0.37085 0.0
C322 C 0.06963 0.32391 0.39895 0.0
C323 C 0.04908 0.32115 0.45708 0.0
C324 C 0.03646 0.29931 0.47246 0.0
C325 C 0.04423 0.28074 0.42881 0.0
C326 C 0.08356 0.34689 0.38068 0.0
C327 C 0.01455 0.2957 0.53403 0.0
C328 C 0.04557 0.36699 0.6014 0.0
C329 C 0.02794 0.38273 0.57065 0.0
C330 C 0.05193 0.34639 0.56673 0.0
C331 C 0.04042 0.34144 0.49966 0.0
C332 C 0.02193 0.35683 0.47002 0.0
C333 C 0.0159 0.37726 0.5059 0.0
C334 C 0.07171 0.3304 0.6001 0.0
C335 C 0.00916 0.35214 0.39878 0.0
H336 H 0.09248 0.30714 0.31122 0.0
H337 H 0.03448 0.26405 0.43938 0.0
H338 H 0.06996 0.36045 0.36132 0.0
H339 H 0.09141 0.35257 0.43295 0.0
H340 H 0.09957 0.34594 0.3352 0.0
H341 H 0.00747 0.27743 0.54092 0.0
H342 H 0.02065 0.30043 0.58979 0.0
H343 H 0.99841 0.30729 0.51968 0.0
H344 H 0.05513 0.37118 0.65098 0.0
H345 H 1.00194 0.38913 0.48262 0.0
H346 H 0.0892 0.3305 0.55959 0.0
H347 H 0.06434 0.31225 0.60824 0.0
H348 H 0.07718 0.33565 0.65605 0.0
H349 H 0.02372 0.35271 0.34881 0.0
H350 H 0.994 0.36503 0.38599 0.0
H351 H 1.00046 0.33448 0.40528 0.0
C352 C 0.83389 0.97793 0.04063 0.0
C353 C 0.81862 0.99784 0.04149 0.0
C354 C 0.85782 0.97818 0.99741 0.0
C355 C 0.86667 0.99891 0.95424 0.0
C356 C 0.85086 0.01893 0.95362 0.0
C357 C 0.827 0.01815 0.99754 0.0
C358 C 0.87398 0.95648 -0.00015 0.0
C359 C 0.85949 0.04134 0.90838 0.0
C360 C 0.93898 0.00693 0.91218 0.0
C361 C 0.94297 1.00099 0.83606 0.0
C362 C 0.91429 0.00646 0.95093 0.0
C363 C 0.89292 0.99992 0.91284 0.0
C364 C 0.89677 0.99402 0.83589 0.0
C365 C 0.9217 0.99461 0.79849 0.0
C366 C 0.91111 0.01284 0.03296 0.0
C367 C 0.87455 0.98696 0.79317 0.0
H368 H 0.82738 0.96228 0.07531 0.0
H369 H 0.81516 0.03359 -0.00109 0.0
H370 H 0.87953 0.95167 0.94078 0.0
H371 H 0.89195 0.9598 0.02662 0.0
H372 H 0.86381 0.94147 0.03291 0.0
H373 H 0.8444 0.0549 0.91033 0.0
H374 H 0.87681 0.04813 0.93163 0.0
H375 H 0.86485 0.03816 0.84759 0.0
H376 H 0.95522 0.01192 0.94182 0.0
H377 H 0.92451 0.99001 0.73969 0.0
H378 H 0.90273 0.99793 0.07082 0.0
H379 H 0.8976 0.02759 0.03804 0.0
H380 H 0.92959 0.01781 0.05416 0.0
H381 H 0.86502 0.97122 0.82338 0.0
H382 H 0.88065 0.98322 0.73323 0.0
H383 H 0.86003 1.00099 0.79196 0.0
C384 C 0.52148 0.78148 0.0651 0.0
C385 C 0.54072 0.76676 0.03747 0.0
C386 C 0.51727 0.80317 0.02595 0.0
C387 C 0.53282 0.81019 0.95787 0.0
C388 C 0.55155 0.79477 0.92808 0.0
C389 C 0.55535 0.77318 0.96861 0.0
C390 C 0.49712 0.81906 0.05963 0.0
C391 C 0.56841 0.80154 0.85558 0.0
C392 C 0.51201 0.86319 0.83494 0.0
C393 C 0.52669 0.88094 0.86039 0.0
C394 C 0.51404 0.83998 0.86517 0.0
C395 C 0.53112 0.83442 0.92224 0.0
C396 C 0.54625 0.85221 0.94723 0.0
C397 C 0.5439 0.87519 0.91593 0.0
C398 C 0.49762 0.82148 0.83702 0.0
C399 C 0.56477 0.84702 0.0078 0.0
H400 H 0.51035 0.7764 0.11887 0.0
H401 H 0.57035 0.76169 0.9479 0.0
H402 H 0.50655 0.83441 0.07966 0.0
H403 H 0.48439 0.82558 0.01533 0.0
H404 H 0.48516 0.81022 0.10886 0.0
H405 H 0.58012 0.78674 0.83583 0.0
H406 H 0.5566 0.80812 0.80898 0.0
H407 H 0.58156 0.81583 0.86585 0.0
H408 H 0.49851 0.8675 0.79252 0.0
H409 H 0.55567 0.88871 0.93484 0.0
H410 H 0.48427 0.81386 0.88504 0.0
H411 H 0.50983 0.80715 0.81635 0.0
H412 H 0.4862 0.82844 0.78985 0.0
H413 H 0.5542 0.8397 0.06191 0.0
H414 H 0.57546 0.86276 0.01997 0.0
H415 H 0.57881 0.83375 0.98916 0.0
C416 C 0.73592 0.49029 0.10573 0.0
C417 C 0.72744 0.4797 0.17787 0.0
C418 C 0.71971 0.49171 0.04582 0.0
C419 C 0.69457 0.48233 0.0592 0.0
C420 C 0.68642 0.47078 0.1316 0.0
C421 C 0.70303 0.46966 0.19039 0.0
C422 C 0.72908 0.50412 0.96952 0.0
C423 C 0.65978 0.46051 0.148 0.0
C424 C 0.64063 0.50904 0.95205 0.0
C425 C 0.63661 0.49231 0.9006 0.0
C426 C 0.66009 0.50638 0.00198 0.0
C427 C 0.6759 0.48647 0.00048 0.0
C428 C 0.67271 0.47002 0.94627 0.0
C429 C 0.65306 0.47318 0.89666 0.0
C430 C 0.66304 0.52444 0.05843 0.0
C431 C 0.68926 0.44862 0.94301 0.0
H432 H 0.75495 0.49802 0.09681 0.0
H433 H 0.6967 0.4615 0.24669 0.0
H434 H 0.72537 0.49337 0.92196 0.0
H435 H 0.71839 0.52061 0.96071 0.0
H436 H 0.74991 0.50826 0.96595 0.0
H437 H 0.65719 0.4505 0.20496 0.0
H438 H 0.6454 0.47467 0.14654 0.0
H439 H 0.65569 0.44885 0.10321 0.0
H440 H 0.62814 0.52402 0.95431 0.0
H441 H 0.64987 0.46017 0.85716 0.0
H442 H 0.68317 0.53078 0.0541 0.0
H443 H 0.65851 0.51651 0.11779 0.0
H444 H 0.65024 0.53959 0.04892 0.0
H445 H 0.70985 0.45348 0.93996 0.0
H446 H 0.68596 0.4387 0.89301 0.0
H447 H 0.68502 0.43703 0.99622 0.0
C448 C 0.94644 0.69838 0.06434 0.0
C449 C 0.95986 0.71928 0.04578 0.0
C450 C 0.95346 0.6784 0.02722 0.0
C451 C 0.97443 0.67949 0.97028 0.0
C452 C 0.98781 0.7008 0.9507 0.0
C453 C 0.98036 0.72053 0.98904 0.0
C454 C 0.93873 0.65603 0.04986 0.0
C455 C 0.01018 0.70265 0.8902 0.0
C456 C 0.00644 0.62179 0.93432 0.0
C457 C 0.99485 0.61551 0.86971 0.0
C458 C 1.0005 0.64287 0.96635 0.0
C459 C 0.98259 0.6581 0.93287 0.0
C460 C 0.97138 0.65221 0.86636 0.0
C461 C 0.9776 0.63097 0.83568 0.0
C462 C 0.01291 0.64856 0.03723 0.0
C463 C 0.9522 0.668 0.829 0.0
H464 H 0.93063 0.69759 0.10872 0.0
H465 H 0.99073 0.73682 0.97534 0.0
H466 H 0.93096 0.64944 -0.00121 0.0
H467 H 0.95177 0.64253 0.0729 0.0
H468 H 0.92256 0.65826 0.09393 0.0
H469 H 0.01798 0.72065 0.87986 0.0
H470 H 0.02576 0.69088 0.90804 0.0
H471 H 0.00424 0.69699 0.83538 0.0
H472 H 0.0201 0.61013 0.9602 0.0
H473 H 0.96832 0.62616 0.7863 0.0
H474 H 0.99802 0.64942 0.08587 0.0
H475 H 0.02238 0.66588 0.02755 0.0
H476 H 0.02739 0.63543 0.05397 0.0
H477 H 0.93467 0.66918 0.86878 0.0
H478 H 0.94662 0.66169 0.77457 0.0
H479 H 0.96023 0.68585 0.81683 0.0
C480 C 0.03138 0.17688 0.46017 0.0
C481 C 0.05821 0.17755 0.4493 0.0
C482 C 0.01871 0.15852 0.50592 0.0
C483 C 0.03337 0.1405 0.54019 0.0
C484 C 0.06043 0.14271 0.53645 0.0
C485 C 0.0725 0.16135 0.49139 0.0
C486 C 0.98982 0.15725 0.51101 0.0
C487 C 0.07687 0.12401 0.57246 0.0
C488 C 0.00965 0.08927 0.67588 0.0
C489 C 0.01 0.07147 0.62574 0.0
C490 C 0.01491 0.11243 0.64822 0.0
C491 C 0.02133 0.11775 0.56884 0.0
C492 C 0.01984 0.10011 0.51745 0.0
C493 C 0.0139 0.07718 0.54657 0.0
C494 C 0.01545 0.13081 0.70462 0.0
C495 C 0.02668 0.10502 0.43225 0.0
H496 H 0.02033 0.18936 0.42718 0.0
H497 H 0.09328 0.16194 0.48259 0.0
H498 H 0.9838 0.14541 0.46898 0.0
H499 H 0.98194 0.15018 0.56895 0.0
H500 H 0.9813 0.17461 0.49778 0.0
H501 H 0.09726 0.12953 0.57107 0.0
H502 H 0.06962 0.11925 0.6329 0.0
H503 H 0.07602 0.10813 0.54093 0.0
H504 H 0.00634 0.08493 0.73724 0.0
H505 H 0.01423 0.06347 0.50772 0.0
H506 H 0.00751 0.14746 0.68098 0.0
H507 H 0.03558 0.13411 0.71624 0.0
H508 H 0.00442 0.12525 0.76002 0.0
H509 H 0.01584 0.12023 0.40961 0.0
H510 H 0.02262 0.08991 0.39959 0.0
H511 H 0.04741 0.10937 0.42155 0.0
C512 C 0.33848 0.01369 0.49287 0.0
C513 C 0.333 0.99663 0.44427 0.0
C514 C 0.3591 0.01087 0.5391 0.0
C515 C 0.37482 0.99093 0.53409 0.0
C516 C 0.36727 0.97247 0.49239 0.0
C517 C 0.34612 0.97543 0.44885 0.0
C518 C 0.36571 0.03033 0.58658 0.0
C519 C 0.38342 0.95091 0.48532 0.0
C520 C 0.4461 0.00325 0.53379 0.0
C521 C 0.45158 0.99254 0.60476 0.0
C522 C 0.42128 0.00225 0.50957 0.0
C523 C 0.40125 0.99126 0.55933 0.0
C524 C 0.40675 0.98052 0.63141 0.0
C525 C 0.432 0.98095 0.65267 0.0
C526 C 0.41648 0.01314 0.43086 0.0
C527 C 0.38591 0.96959 0.68777 0.0
H528 H 0.32843 0.03014 0.48889 0.0
H529 H 0.34192 0.96234 0.41054 0.0
H530 H 0.37207 0.02326 0.64252 0.0
H531 H 0.38175 0.04083 0.5559 0.0
H532 H 0.34913 0.04203 0.59715 0.0
H533 H 0.37315 0.93697 0.45986 0.0
H534 H 0.40122 0.95541 0.448 0.0
H535 H 0.38917 0.94402 0.54212 0.0
H536 H 0.46127 0.01237 0.49727 0.0
H537 H 0.4362 0.97315 0.70849 0.0
H538 H 0.40323 0.02804 0.43633 0.0
H539 H 0.40718 1.00031 0.39803 0.0
H540 H 0.43445 0.01947 0.39734 0.0
H541 H 0.37515 0.98358 0.71613 0.0
H542 H 0.39392 0.95781 0.73292 0.0
H543 H 0.37201 0.95966 0.65867 0.0
C544 C 0.53582 0.35597 0.36618 0.0
C545 C 0.51363 0.34277 0.38959 0.0
C546 C 0.54428 0.3728 0.41175 0.0
C547 C 0.53008 0.37644 0.48201 0.0
C548 C 0.50988 0.36087 0.51052 0.0
C549 C 0.5018 0.34416 0.46361 0.0
C550 C 0.5662 0.38868 0.37971 0.0
C551 C 0.49466 0.36379 0.58604 0.0
C552 C 0.54864 0.42449 0.60441 0.0
C553 C 0.5323 0.44242 0.58028 0.0
C554 C 0.5486 0.40287 0.57238 0.0
C555 C 0.53195 0.39932 0.51479 0.0
C556 C 0.51623 0.41776 0.48824 0.0
C557 C 0.51654 0.43898 0.52153 0.0
C558 C 0.56554 0.38364 0.60235 0.0
C559 C 0.49851 0.41496 0.42585 0.0
H560 H 0.54503 0.35474 0.30889 0.0
H561 H 0.48463 0.33393 0.48162 0.0
H562 H 0.55836 0.40515 0.35421 0.0
H563 H 0.57825 0.39312 0.42555 0.0
H564 H 0.5785 0.38068 0.33425 0.0
H565 H 0.48336 0.34789 0.60702 0.0
H566 H 0.50747 0.36797 0.63029 0.0
H567 H 0.48113 0.37848 0.57865 0.0
H568 H 0.5607 0.42702 0.65035 0.0
H569 H 0.50401 0.45285 0.5023 0.0
H570 H 0.57513 0.37451 0.55459 0.0
H571 H 0.55358 0.37062 0.63944 0.0
H572 H 0.58042 0.39028 0.63673 0.0
H573 H 0.50956 0.40952 0.37354 0.0
H574 H 0.48818 0.43126 0.41021 0.0
H575 H 0.48408 0.40115 0.44508 0.0
C576 C 0.18561 0.49548 0.41681 0.0
C577 C 0.19241 0.51173 0.35497 0.0
C578 C 0.16568 0.50019 0.47191 0.0
C579 C 0.15197 0.5213 0.46284 0.0
C580 C 0.16107 0.53888 0.40613 0.0
C581 C 0.18143 0.5339 0.3529 0.0
C582 C 0.15719 0.48137 0.53364 0.0
C583 C 0.14713 0.56165 0.39468 0.0
C584 C 0.08057 0.51095 0.50203 0.0
C585 C 0.07557 0.51982 0.57348 0.0
C586 C 0.10516 0.51258 0.46368 0.0
C587 C 0.1254 0.52255 0.49931 0.0
C588 C 0.12022 0.53221 0.57056 0.0
C589 C 0.09518 0.53097 0.60649 0.0
C590 C 0.10969 0.50267 0.38654 0.0
C591 C 0.1413 0.54237 0.61144 0.0
H592 H 0.19404 0.47828 0.41771 0.0
H593 H 0.18661 0.54632 0.30425 0.0
H594 H 0.15143 0.48895 0.58862 0.0
H595 H 0.14027 0.47212 0.5164 0.0
H596 H 0.17259 0.46843 0.54299 0.0
H597 H 0.15935 0.57501 0.35978 0.0
H598 H 0.12979 0.55881 0.36424 0.0
H599 H 0.14073 0.56844 0.45046 0.0
H600 H 0.06534 0.50221 0.47709 0.0
H601 H 0.09132 0.53735 0.66278 0.0
H602 H 0.12204 0.48707 0.39171 0.0
H603 H 0.11982 0.51556 0.34414 0.0
H604 H 0.09151 0.49755 0.36385 0.0
H605 H 0.15231 0.52797 0.63868 0.0
H606 H 0.1335 0.55335 0.65705 0.0
H607 H 0.15491 0.55292 0.57078 0.0
C608 C 0.02053 0.82766 0.97901 0.0
C609 C 0.99421 0.82266 0.98729 0.0
C610 C 0.03011 0.84723 0.93254 0.0
C611 C 0.01275 0.86236 0.89602 0.0
C612 C 0.98657 0.85588 0.89773 0.0
C613 C 0.97766 0.83588 0.9429 0.0
C614 C 0.05833 0.85297 0.92923 0.0
C615 C 0.96734 0.87151 0.85997 0.0
C616 C 0.02291 0.92752 0.89294 0.0
C617 C 0.02783 0.93368 0.81432 0.0
C618 C 0.01892 0.90416 0.92054 0.0
C619 C 0.0207 0.88655 0.86832 0.0
C620 C 0.02763 0.89259 0.78956 0.0
C621 C 0.03067 0.91615 0.76328 0.0
C622 C 0.01119 0.89851 0.00497 0.0
C623 C 0.03059 0.87436 0.73243 0.0
H624 H 0.03323 0.81754 0.01428 0.0
H625 H 0.95724 0.83216 0.95063 0.0
H626 H 0.06554 0.86031 0.87095 0.0
H627 H 0.06142 0.86625 0.96991 0.0
H628 H 0.0698 0.83738 0.94522 0.0
H629 H 0.94848 0.86274 0.85904 0.0
H630 H 0.96441 0.88728 0.89197 0.0
H631 H 0.97453 0.87735 0.80027 0.0
H632 H 0.02052 0.94106 0.93232 0.0
H633 H 0.03465 0.9209 0.70234 0.0
H634 H 0.02435 0.88543 0.0297 0.0
H635 H 0.9916 0.89083 0.01256 0.0
H636 H 0.01132 0.91413 0.03812 0.0
H637 H 0.04048 0.85875 0.75656 0.0
H638 H 0.04152 0.88114 0.67815 0.0
H639 H 0.01136 0.86877 0.71856 0.0
C640 C 0.68982 0.03394 0.98044 0.0
C641 C 0.70254 0.01254 0.98562 0.0
C642 C 0.66864 0.03709 0.93705 0.0
C643 C 0.66066 0.01861 0.89614 0.0
C644 C 0.67598 0.9984 0.89174 0.0
C645 C 0.69663 0.9954 0.93779 0.0
C646 C 0.65293 0.05892 0.94351 0.0
C647 C 0.6689 0.97888 0.84514 0.0
C648 C 0.58915 0.00723 0.89728 0.0
C649 C 0.58379 0.01773 0.82592 0.0
C650 C 0.614 0.00803 0.92138 0.0
C651 C 0.63418 0.0186 0.87115 0.0
C652 C 0.62879 0.02916 0.79871 0.0
C653 C 0.60352 0.02894 0.77753 0.0
C654 C 0.61869 0.99735 0.00044 0.0
C655 C 0.64976 0.03964 0.7419 0.0
H656 H 0.69433 0.04707 0.01823 0.0
H657 H 0.70636 0.9788 0.94229 0.0
H658 H 0.64715 0.06571 0.88664 0.0
H659 H 0.63513 0.0548 0.98131 0.0
H660 H 0.66354 0.07281 0.96817 0.0
H661 H 0.68524 0.96688 0.83488 0.0
H662 H 0.6527 0.96872 0.87634 0.0
H663 H 0.66259 0.98588 0.78905 0.0
H664 H 0.57387 0.9984 0.93416 0.0
H665 H 0.5994 0.03656 0.72141 0.0
H666 H 0.62827 0.01017 0.03262 0.0
H667 H 0.63166 0.98222 0.99555 0.0
H668 H 0.60064 0.99139 0.03429 0.0
H669 H 0.66383 0.04955 0.7705 0.0
H670 H 0.64191 0.05135 0.69627 0.0
H671 H 0.6603 0.02541 0.7142 0.0
C672 C 0.52953 0.66098 0.94495 0.0
C673 C 0.51767 0.66144 0.01932 0.0
C674 C 0.52246 0.64413 0.89701 0.0
C675 C 0.50326 0.62748 0.92483 0.0
C676 C 0.48901 0.62997 0.9959 0.0
C677 C 0.49644 0.64697 0.04243 0.0
C678 C 0.53772 0.64239 0.82081 0.0
C679 C 0.4682 0.61285 0.02746 0.0
C680 C 0.48623 0.57961 0.79966 0.0
C681 C 0.50341 0.56214 0.82177 0.0
C682 C 0.48564 0.60105 0.8329 0.0
C683 C 0.50247 0.60487 0.88976 0.0
C684 C 0.51919 0.58691 0.91394 0.0
C685 C 0.51951 0.56587 0.87942 0.0
C686 C 0.46769 0.61981 0.80539 0.0
C687 C 0.53717 0.59002 0.97546 0.0
H688 H 0.54599 0.67216 0.92723 0.0
H689 H 0.48723 0.64746 0.10005 0.0
H690 H 0.55218 0.62841 0.82677 0.0
H691 H 0.52512 0.63781 0.77653 0.0
H692 H 0.54797 0.65892 0.80071 0.0
H693 H 0.4556 0.61985 0.07431 0.0
H694 H 0.45622 0.60816 0.98176 0.0
H695 H 0.47715 0.59665 0.05097 0.0
H696 H 0.4739 0.57686 0.75457 0.0
H697 H 0.53271 0.55236 0.89709 0.0
H698 H 0.47899 0.63395 0.77144 0.0
H699 H 0.45723 0.62759 0.85467 0.0
H700 H 0.45352 0.6131 0.7688 0.0
H701 H 0.55077 0.60453 0.95664 0.0
H702 H 0.54843 0.57409 0.98894 0.0
H703 H 0.52614 0.5946 0.02894 0.0
C704 C 0.86167 0.45216 0.15877 0.0
C705 C 0.84098 0.46701 0.14615 0.0
C706 C 0.88146 0.44984 0.10105 0.0
C707 C 0.88035 0.46267 0.02924 0.0
C708 C 0.85788 0.47527 0.01329 0.0
C709 C 0.83835 0.47735 0.07237 0.0
C710 C 0.90491 0.43604 0.1204 0.0
C711 C 0.85575 0.48879 0.93685 0.0
C712 C 0.94266 0.49076 0.94307 0.0
C713 C 0.95006 0.47656 0.8841 0.0
C714 C 0.92012 0.48621 0.99077 0.0
C715 C 0.90438 0.46707 0.97875 0.0
C716 C 0.91188 0.45243 0.91999 0.0
C717 C 0.93477 0.45728 0.87344 0.0
C718 C 0.91305 0.50207 0.05371 0.0
C719 C 0.89546 0.43203 0.9052 0.0
H720 H 0.86349 0.44403 0.21598 0.0
H721 H 0.8223 0.48882 0.06276 0.0
H722 H 0.91243 0.42624 0.07157 0.0
H723 H 0.92023 0.44818 0.13254 0.0
H724 H 0.90079 0.42362 0.17176 0.0
H725 H 0.83555 0.49352 0.92811 0.0
H726 H 0.86719 0.50508 0.93434 0.0
H727 H 0.86352 0.47867 0.88904 0.0
H728 H 0.95445 0.50563 0.95171 0.0
H729 H 0.9403 0.44638 0.82735 0.0
H730 H 0.91091 0.49183 0.11022 0.0
H731 H 0.89434 0.51046 0.04461 0.0
H732 H 0.92763 0.51594 0.05609 0.0
H733 H 0.8909 0.42076 0.95893 0.0
H734 H 0.90492 0.42133 0.86117 0.0
H735 H 0.87698 0.43844 0.88525 0.0
C736 C 0.08554 0.1717 0.12313 0.0
C737 C 0.09838 0.17013 0.19012 0.0
C738 C 0.08506 0.15277 0.07785 0.0
C739 C 0.09771 0.13191 0.10048 0.0
C740 C 0.11324 0.13132 0.16272 0.0
C741 C 0.11342 0.15052 0.20684 0.0
C742 C 0.06863 0.15423 0.01099 0.0
C743 C 0.12738 0.1096 0.18801 0.0
C744 C 0.06035 0.07799 0.06785 0.0
C745 C 0.07316 0.07105 0.00023 0.0
C746 C 0.06891 0.09721 0.10272 0.0
C747 C 0.09075 0.10989 0.06871 0.0
C748 C 0.10455 0.10224 0.00258 0.0
C749 C 0.09559 0.08282 0.96906 0.0
C750 C 0.05387 0.10454 0.17413 0.0
C751 C 0.12795 0.11522 0.96495 0.0
H752 H 0.07386 0.18681 0.11013 0.0
H753 H 0.12363 0.14943 0.25826 0.0
H754 H 0.07859 0.14641 0.961 0.0
H755 H 0.05059 0.14425 0.02748 0.0
H756 H 0.06358 0.17248 0.99334 0.0
H757 H 0.14247 0.11337 0.22622 0.0
H758 H 0.11357 0.09698 0.22 0.0
H759 H 0.13637 0.10116 0.13789 0.0
H760 H 0.04314 0.06874 0.09226 0.0
H761 H 0.10537 0.07759 0.91627 0.0
H762 H 0.04525 0.12189 0.16177 0.0
H763 H 0.06677 0.10612 0.22045 0.0
H764 H 0.03823 0.09205 0.19561 0.0
H765 H 0.12193 0.13185 0.93563 0.0
H766 H 0.13875 0.10506 0.92181 0.0
H767 H 0.14099 0.11958 0.00841 0.0
C768 C 0.34848 0.0264 0.09993 0.0
C769 C 0.35024 0.01093 0.16529 0.0
C770 C 0.36835 0.02803 0.04004 0.0
C771 C 0.39073 0.01436 0.0468 0.0
C772 C 0.3923 0.99843 0.11177 0.0
C773 C 0.37185 0.99648 0.16877 0.0
C774 C 0.36555 0.04451 0.97004 0.0
C775 C 0.41583 0.98365 0.12206 0.0
C776 C 0.43728 0.99864 0.88193 0.0
C777 C 0.4576 0.01417 0.8861 0.0
C778 C 0.41457 0.99973 0.93002 0.0
C779 C 0.41256 0.01611 0.98607 0.0
C780 C 0.43291 0.03216 0.98954 0.0
C781 C 0.45505 0.03132 0.9382 0.0
C782 C 0.39304 0.98288 0.9222 0.0
C783 C 0.43186 0.04941 0.04995 0.0
H784 H 0.33191 0.03759 0.0963 0.0
H785 H 0.37307 0.98375 0.21724 0.0
H786 H 0.38001 0.05868 0.96706 0.0
H787 H 0.36917 0.03524 0.91721 0.0
H788 H 0.34616 0.05241 0.97052 0.0
H789 H 0.41466 0.97322 0.17836 0.0
H790 H 0.41836 0.97155 0.07602 0.0
H791 H 0.43322 0.99486 0.11752 0.0
H792 H 0.4391 0.98568 0.84041 0.0
H793 H 0.47075 0.04341 0.94083 0.0
H794 H 0.37451 0.99221 0.92083 0.0
H795 H 0.39128 0.96988 0.97253 0.0
H796 H 0.39626 0.97346 0.86949 0.0
H797 H 0.41393 0.05964 0.04892 0.0
H798 H 0.44848 0.0616 0.04208 0.0
H799 H 0.43171 0.03991 0.1076 0.0
C800 C 0.45855 0.37885 0.17102 0.0
C801 C 0.46973 0.35767 0.15283 0.0
C802 C 0.45719 0.39741 0.11479 0.0
C803 C 0.46754 0.39473 0.03887 0.0
C804 C 0.47667 0.37268 0.01887 0.0
C805 C 0.47758 0.35432 0.07628 0.0
C806 C 0.44692 0.42047 0.13839 0.0
C807 C 0.48782 0.36909 0.93852 0.0
C808 C 0.46283 0.44301 0.87894 0.0
C809 C 0.48675 0.45404 0.87873 0.0
C810 C 0.4559 0.4239 0.93176 0.0
C811 C 0.47335 0.41571 0.9851 0.0
C812 C 0.49711 0.42732 0.98664 0.0
C813 C 0.50345 0.44632 0.93371 0.0
C814 C 0.43031 0.41208 0.92904 0.0
C815 C 0.51624 0.4193 0.04294 0.0
H816 H 0.45221 0.38132 0.23027 0.0
H817 H 0.48627 0.33795 0.06228 0.0
H818 H 0.4632 0.43242 0.14334 0.0
H819 H 0.43496 0.42873 0.09463 0.0
H820 H 0.43531 0.41856 0.19461 0.0
H821 H 0.49026 0.35035 0.9294 0.0
H822 H 0.47544 0.37708 0.89546 0.0
H823 H 0.50689 0.37773 0.92812 0.0
H824 H 0.44986 0.44885 0.83649 0.0
H825 H 0.5219 0.45482 0.93441 0.0
H826 H 0.42003 0.40999 0.98717 0.0
H827 H 0.43337 0.3944 0.90943 0.0
H828 H 0.41793 0.42192 0.88957 0.0
H829 H 0.50731 0.41933 0.10258 0.0
H830 H 0.53369 0.43049 0.03727 0.0
H831 H 0.52218 0.40119 0.0338 0.0
C832 C 0.14826 0.49723 0.11814 0.0
C833 C 0.17254 0.48704 0.10618 0.0
C834 C 0.12884 0.49364 0.07051 0.0
C835 C 0.13398 0.48033 0.00686 0.0
C836 C 0.15832 0.46992 0.99391 0.0
C837 C 0.17729 0.47321 0.04427 0.0
C838 C 0.10305 0.5049 0.08693 0.0
C839 C 0.16459 0.45605 0.92548 0.0
C840 C 0.07403 0.46421 0.91564 0.0
C841 C 0.0717 0.48378 0.86428 0.0
C842 C 0.09513 0.46203 0.96014 0.0
C843 C 0.11446 0.47951 0.95068 0.0
C844 C 0.11296 0.49835 0.89437 0.0
C845 C 0.09135 0.50045 0.85279 0.0
C846 C 0.09584 0.44195 0.02063 0.0
C847 C 0.13345 0.51703 0.88094 0.0
H848 H 0.14447 0.50863 0.16385 0.0
H849 H 0.19586 0.46512 0.03474 0.0
H850 H 0.10026 0.51908 0.04183 0.0
H851 H 0.08735 0.49203 0.08592 0.0
H852 H 0.10127 0.51238 0.14352 0.0
H853 H 0.18357 0.44745 0.92707 0.0
H854 H 0.14966 0.44258 0.92256 0.0
H855 H 0.16476 0.46775 0.87203 0.0
H856 H 0.05879 0.45127 0.92368 0.0
H857 H 0.08969 0.51531 0.81148 0.0
H858 H 0.09175 0.44846 0.07821 0.0
H859 H 0.11517 0.43401 0.019 0.0
H860 H 0.08146 0.42829 0.01359 0.0
H861 H 0.13211 0.52819 0.92973 0.0
H862 H 0.13146 0.52828 0.8273 0.0
H863 H 0.15284 0.50917 0.87766 0.0
C864 C 0.93823 0.83743 0.2775 0.0
C865 C 0.96267 0.82923 0.25467 0.0
C866 C 0.93534 0.85615 0.32404 0.0
C867 C 0.95745 0.8667 0.34781 0.0
C868 C 0.982 0.85727 0.32926 0.0
C869 C 0.98428 0.83866 0.28277 0.0
C870 C 0.90888 0.86559 0.34329 0.0
C871 C 0.00607 0.8678 0.35416 0.0
C872 C 0.96363 0.93053 0.37782 0.0
C873 C 0.96473 0.92952 0.45723 0.0
C874 C 0.95902 0.91029 0.34162 0.0
C875 C 0.95563 0.88871 0.38634 0.0
C876 C 0.95471 0.88809 0.46728 0.0
C877 C 0.95943 0.90856 0.50181 0.0
C878 C 0.96002 0.91169 0.25513 0.0
C879 C 0.95102 0.86553 0.51697 0.0
H880 H 0.92156 0.83025 0.25488 0.0
H881 H 0.00316 0.83224 0.26482 0.0
H882 H 0.90622 0.86925 0.40455 0.0
H883 H 0.90654 0.88227 0.30844 0.0
H884 H 0.8936 0.85336 0.33131 0.0
H885 H 0.02338 0.85732 0.33984 0.0
H886 H 0.00905 0.88557 0.32541 0.0
H887 H 0.00414 0.86942 0.41694 0.0
H888 H 0.96802 0.94679 0.34374 0.0
H889 H 0.96055 0.90794 0.56338 0.0
H890 H 0.9438 0.90185 0.23628 0.0
H891 H 0.97805 0.90367 0.23204 0.0
H892 H 0.95939 0.92995 0.22974 0.0
H893 H 0.9356 0.85485 0.49735 0.0
H894 H 0.9462 0.86853 0.57827 0.0
H895 H 0.96899 0.85531 0.51253 0.0
C896 C 0.68664 0.98351 0.33059 0.0
C897 C 0.6848 0.99864 0.26449 0.0
C898 C 0.66678 0.98206 0.39049 0.0
C899 C 0.64433 0.99557 0.38302 0.0
C900 C 0.64265 0.01115 0.31722 0.0
C901 C 0.66309 0.01293 0.26018 0.0
C902 C 0.66969 0.96596 0.46133 0.0
C903 C 0.61902 0.02574 0.30617 0.0
C904 C 0.58021 0.97877 0.4931 0.0
C905 C 0.57762 0.99618 0.54423 0.0
C906 C 0.60229 0.97781 0.44157 0.0
C907 C 0.62254 0.99405 0.44388 0.0
C908 C 0.62049 0.01074 0.49891 0.0
C909 C 0.59784 0.01191 0.54719 0.0
C910 C 0.60337 0.96023 0.38222 0.0
C911 C 0.64194 0.02779 0.50549 0.0
H912 H 0.70329 0.97244 0.33487 0.0
H913 H 0.66179 0.02543 0.21113 0.0
H914 H 0.66613 0.97555 0.51351 0.0
H915 H 0.65524 0.95176 0.46538 0.0
H916 H 0.68909 0.95809 0.46111 0.0
H917 H 0.6201 0.03584 0.2493 0.0
H918 H 0.60169 0.01444 0.31157 0.0
H919 H 0.61646 0.03812 0.35135 0.0
H920 H 0.56459 0.96652 0.49141 0.0
H921 H 0.59599 0.02509 0.58798 0.0
H922 H 0.62136 0.95009 0.38368 0.0
H923 H 0.60344 0.96943 0.32414 0.0
H924 H 0.58681 0.94797 0.39089 0.0
H925 H 0.66052 0.01857 0.50734 0.0
H926 H 0.6387 0.03753 0.55751 0.0
H927 H 0.6436 0.04052 0.45439 0.0
C928 C 0.57528 0.62871 0.23754 0.0
C929 C 0.56184 0.6488 0.25625 0.0
C930 C 0.57764 0.61002 0.2927 0.0
C931 C 0.56594 0.61141 0.3679 0.0
C932 C 0.55444 0.63252 0.38873 0.0
C933 C 0.55261 0.65107 0.33248 0.0
C934 C 0.59046 0.58802 0.2684 0.0
C935 C 0.54177 0.63474 0.46834 0.0
C936 C 0.533 0.5573 0.4659 0.0
C937 C 0.54917 0.55066 0.52346 0.0
C938 C 0.53871 0.57666 0.41397 0.0
C939 C 0.56125 0.58978 0.41937 0.0
C940 C 0.57833 0.5826 0.47502 0.0
C941 C 0.57207 0.56306 0.52664 0.0
C942 C 0.52005 0.58353 0.35501 0.0
C943 C 0.60264 0.59605 0.48191 0.0
H944 H 0.58263 0.62709 0.17853 0.0
H945 H 0.54216 0.6666 0.34681 0.0
H946 H 0.60234 0.58036 0.31335 0.0
H947 H 0.57557 0.575 0.25997 0.0
H948 H 0.60278 0.5912 0.21375 0.0
H949 H 0.53731 0.65312 0.4787 0.0
H950 H 0.52357 0.6246 0.47579 0.0
H951 H 0.5542 0.6275 0.51246 0.0
H952 H 0.51538 0.54768 0.4626 0.0
H953 H 0.5846 0.55806 0.5712 0.0
H954 H 0.53002 0.5845 0.29645 0.0
H955 H 0.51223 0.60105 0.36457 0.0
H956 H 0.50374 0.57108 0.35729 0.0
H957 H 0.61334 0.59964 0.42481 0.0
H958 H 0.61539 0.5866 0.52119 0.0
H959 H 0.59773 0.61309 0.5043 0.0
C960 C 0.84213 0.49718 0.45952 0.0
C961 C 0.84204 0.50674 0.38374 0.0
C962 C 0.86207 0.50248 0.50403 0.0
C963 C 0.88215 0.51761 0.47137 0.0
C964 C 0.88039 0.52934 0.39811 0.0
C965 C 0.8603 0.52373 0.35503 0.0
C966 C 0.86307 0.48993 0.58256 0.0
C967 C 0.90119 0.5458 0.36157 0.0
C968 C 0.9353 0.53173 0.59521 0.0
C969 C 0.95293 0.51407 0.57897 0.0
C970 C 0.91227 0.53354 0.55955 0.0
C971 C 0.90697 0.51739 0.50636 0.0
C972 C 0.92529 0.50023 0.48724 0.0
C973 C 0.94799 0.49875 0.52396 0.0
C974 C 0.8932 0.55205 0.58117 0.0
C975 C 0.92057 0.4829 0.42969 0.0
H976 H 0.82797 0.48405 0.48155 0.0
H977 H 0.85997 0.53127 0.29645 0.0
H978 H 0.87737 0.47574 0.57933 0.0
H979 H 0.86922 0.50191 0.62396 0.0
H980 H 0.8442 0.48217 0.60483 0.0
H981 H 0.89461 0.55679 0.31214 0.0
H982 H 0.90777 0.55728 0.40383 0.0
H983 H 0.91795 0.53558 0.34051 0.0
H984 H 0.93898 0.54354 0.6381 0.0
H985 H 0.96164 0.48517 0.51087 0.0
H986 H 0.87638 0.54379 0.61563 0.0
H987 H 0.88609 0.56122 0.52916 0.0
H988 H 0.90158 0.56507 0.61538 0.0
H989 H 0.90352 0.47202 0.45059 0.0
H990 H 0.93719 0.47122 0.41934 0.0
H991 H 0.9165 0.49215 0.37415 0.0
loop_
_geom_bond_atom_site_label_1
_geom_bond_atom_site_label_2
_geom_bond_distance
_geom_bond_site_symmetry_2
_ccdc_geom_bond_type
H0 C3 0.929 . S
H1 C6 0.929 . S
H2 C8 0.930 . S
C3 H0 0.929 . S
C3 C4 1.398 . S
C3 C5 1.396 . S
C4 C3 1.398 . S
C4 C8 1.407 . S
C5 C3 1.396 . S
C5 C6 1.394 . S
C6 H1 0.929 . S
C6 C5 1.394 . S
C6 C7 1.382 . S
C7 C6 1.382 . S
C7 C8 1.392 . S
C7 N9 1.420 . S
C8 H2 0.930 . S
C8 C4 1.407 . S
C8 C7 1.392 . S
N9 C7 1.420 . S
N9 C10 1.244 . S
C10 N9 1.244 . S
H11 C14 0.929 . S
H12 C17 0.929 . S
H13 C19 0.930 . S
C14 H11 0.929 . S
C14 C15 1.398 . S
C14 C16 1.396 1_554 S
C15 C14 1.398 . S
C15 C19 1.407 . S
C16 C14 1.396 1_556 S
C16 C17 1.394 . S
C17 H12 0.929 . S
C17 C16 1.394 . S
C17 C18 1.382 1_556 S
C18 C17 1.382 1_554 S
C18 C19 1.392 . S
C18 N20 1.420 . S
C19 H13 0.930 . S
C19 C15 1.407 . S
C19 C18 1.392 . S
N20 C18 1.420 . S
N20 C21 1.244 1_554 S
C21 N20 1.244 1_556 S
H22 C25 0.929 . S
H23 C28 0.929 1_556 S
H24 C30 0.930 . S
C25 H22 0.929 . S
C25 C26 1.393 1_565 S
C25 C27 1.396 1_565 S
C26 C25 1.393 1_545 S
C26 C30 1.413 . S
C27 C25 1.396 1_545 S
C27 C28 1.396 . S
C28 H23 0.929 1_554 S
C28 C27 1.396 . S
C28 C29 1.382 . S
C29 C28 1.382 . S
C29 C30 1.392 . S
C29 N31 1.420 . S
C30 H24 0.930 . S
C30 C26 1.413 . S
C30 C29 1.392 . S
N31 C29 1.420 . S
N31 C32 1.230 1_545 S
C32 N31 1.230 1_565 S
H33 C36 0.929 . S
H34 C39 0.929 1_556 S
H35 C41 0.930 . S
C36 H33 0.929 . S
C36 C37 1.398 . S
C36 C38 1.396 . S
C37 C36 1.398 . S
C37 C41 1.407 . S
C38 C36 1.396 . S
C38 C39 1.394 . S
C39 H34 0.929 1_554 S
C39 C38 1.394 . S
C39 C40 1.382 . S
C40 C39 1.382 . S
C40 C41 1.392 . S
C40 N42 1.420 . S
C41 H35 0.930 . S
C41 C37 1.407 . S
C41 C40 1.392 . S
N42 C40 1.420 . S
N42 C43 1.244 . S
C43 N42 1.244 . S
H44 C47 0.929 . S
H45 C50 0.929 . S
H46 C52 0.930 . S
C47 H44 0.929 . S
C47 C48 1.398 . S
C47 C49 1.396 . S
C48 C47 1.398 . S
C48 C52 1.407 . S
C49 C47 1.396 . S
C49 C50 1.394 . S
C50 H45 0.929 . S
C50 C49 1.394 . S
C50 C51 1.382 . S
C51 C50 1.382 . S
C51 C52 1.392 . S
C51 N53 1.420 . S
C52 H46 0.930 . S
C52 C48 1.407 . S
C52 C51 1.392 . S
N53 C51 1.420 . S
N53 C54 1.244 . S
C54 N53 1.244 . S
H55 C58 0.929 . S
H56 C61 0.929 . S
H57 C63 0.930 . S
C58 H55 0.929 . S
C58 C59 1.398 . S
C58 C60 1.396 . S
C59 C58 1.398 . S
C59 C63 1.407 . S
C60 C58 1.396 . S
C60 C61 1.394 . S
C61 H56 0.929 . S
C61 C60 1.394 . S
C61 C62 1.382 . S
C62 C61 1.382 . S
C62 C63 1.392 . S
C62 N64 1.420 . S
C63 H57 0.930 . S
C63 C59 1.407 . S
C63 C62 1.392 . S
N64 C62 1.420 . S
N64 C65 1.244 . S
C65 N64 1.244 . S
H66 C69 0.929 . S
H67 C72 0.929 . S
H68 C74 0.930 . S
C69 H66 0.929 . S
C69 C70 1.397 1_565 S
C69 C71 1.392 1_565 S
C70 C69 1.397 1_545 S
C70 C74 1.416 . S
C71 C69 1.392 1_545 S
C71 C72 1.399 . S
C72 H67 0.929 . S
C72 C71 1.399 . S
C72 C73 1.382 . S
C73 C72 1.382 . S
C73 C74 1.392 . S
C73 N75 1.420 . S
C74 H68 0.930 . S
C74 C70 1.416 . S
C74 C73 1.392 . S
N75 C73 1.420 . S
N75 C76 1.238 1_545 S
C76 N75 1.238 1_565 S
H77 C80 0.929 . S
H78 C83 0.929 . S
H79 C85 0.930 . S
C80 H77 0.929 . S
C80 C81 1.398 . S
C80 C82 1.396 . S
C81 C80 1.398 . S
C81 C85 1.407 . S
C82 C80 1.396 . S
C82 C83 1.394 . S
C83 H78 0.929 . S
C83 C82 1.394 . S
C83 C84 1.382 . S
C84 C83 1.382 . S
C84 C85 1.392 . S
C84 N86 1.420 . S
C85 H79 0.930 . S
C85 C81 1.407 . S
C85 C84 1.392 . S
N86 C84 1.420 . S
N86 C87 1.244 . S
C87 N86 1.244 . S
C88 O104 1.251 . S
C88 O106 1.254 . S
N89 C90 1.339 . S
N89 C94 1.291 1_455 S
N89 Zn95 2.026 . S
C90 N89 1.339 . S
C90 C91 1.379 . S
C90 H108 0.952 . S
C91 C90 1.379 . S
C91 C92 1.390 1_455 S
C91 H118 0.949 . S
C92 C91 1.390 1_655 S
C92 C93 1.357 . S
C93 C92 1.357 . S
C93 C94 1.370 . S
C93 H119 0.950 . S
C94 N89 1.291 1_655 S
C94 C93 1.370 . S
C94 H112 0.948 . S
Zn95 N89 2.026 . S
Zn95 O104 2.039 . S
Zn95 O110 2.034 . S
Zn95 O114 2.025 1_565 S
Zn95 O116 2.024 1_455 S
C96 O115 1.246 . S
C96 O116 1.249 1_545 S
N97 C98 1.307 . S
N97 C99 1.333 . S
N97 Zn103 2.020 . S
C98 N97 1.307 . S
C98 C102 1.370 1_556 S
C98 H109 0.948 . S
C99 N97 1.333 . S
C99 C100 1.379 . S
C99 H107 0.952 . S
C100 C99 1.379 . S
C100 C101 1.390 1_556 S
C100 H120 0.949 . S
C101 C100 1.390 1_554 S
C101 C102 1.357 . S
C102 C98 1.370 1_554 S
C102 C101 1.357 . S
C102 H121 0.950 . S
Zn103 N97 2.020 . S
Zn103 O106 2.025 1_545 S
Zn103 O111 2.024 . S
Zn103 O113 2.039 . S
Zn103 O115 2.034 1_455 S
O104 C88 1.251 . S
O104 Zn95 2.039 . S
C105 O110 1.246 . S
C105 O111 1.249 1_565 S
O106 C88 1.254 . S
O106 Zn103 2.025 1_565 S
H107 C99 0.952 . S
H108 C90 0.952 . S
H109 C98 0.948 . S
O110 Zn95 2.034 . S
O110 C105 1.246 . S
O111 Zn103 2.024 . S
O111 C105 1.249 1_545 S
H112 C94 0.948 . S
O113 Zn103 2.039 . S
O113 C117 1.251 . S
O114 Zn95 2.025 1_545 S
O114 C117 1.254 . S
O115 C96 1.246 . S
O115 Zn103 2.034 1_655 S
O116 Zn95 2.024 1_655 S
O116 C96 1.249 1_565 S
C117 O113 1.251 . S
C117 O114 1.254 . S
H118 C91 0.949 . S
H119 C93 0.950 . S
H120 C100 0.949 . S
H121 C102 0.950 . S
C122 O138 1.251 1_565 S
C122 O140 1.254 . S
N123 C124 1.333 . S
N123 C128 1.307 . S
N123 Zn129 2.020 . S
C124 N123 1.333 . S
C124 C125 1.379 . S
C124 H142 0.952 . S
C125 C124 1.379 . S
C125 C126 1.390 . S
C125 H152 0.949 . S
C126 C125 1.390 . S
C126 C127 1.357 . S
C127 C126 1.357 . S
C127 C128 1.370 . S
C127 H153 0.950 . S
C128 N123 1.307 . S
C128 C127 1.370 . S
C128 H146 0.948 . S
Zn129 N123 2.020 . S
Zn129 O138 2.039 . S
Zn129 O144 2.034 . S
Zn129 O148 2.025 . S
Zn129 O150 2.024 . S
C130 O149 1.246 1_545 S
C130 O150 1.249 . S
N131 C132 1.307 . S
N131 C133 1.333 . S
N131 Zn137 2.020 . S
C132 N131 1.307 . S
C132 C136 1.370 . S
C132 H143 0.948 . S
C133 N131 1.333 . S
C133 C134 1.379 . S
C133 H141 0.952 . S
C134 C133 1.379 . S
C134 C135 1.390 . S
C134 H154 0.949 . S
C135 C134 1.390 . S
C135 C136 1.357 . S
C136 C132 1.370 . S
C136 C135 1.357 . S
C136 H155 0.950 . S
Zn137 N131 2.020 . S
Zn137 O140 2.025 . S
Zn137 O145 2.024 . S
Zn137 O147 2.039 . S
Zn137 O149 2.034 . S
O138 C122 1.251 1_545 S
O138 Zn129 2.039 . S
C139 O144 1.246 1_565 S
C139 O145 1.249 . S
O140 C122 1.254 . S
O140 Zn137 2.025 . S
H141 C133 0.952 . S
H142 C124 0.952 . S
H143 C132 0.948 . S
O144 Zn129 2.034 . S
O144 C139 1.246 1_545 S
O145 Zn137 2.024 . S
O145 C139 1.249 . S
H146 C128 0.948 . S
O147 Zn137 2.039 . S
O147 C151 1.251 1_565 S
O148 Zn129 2.025 . S
O148 C151 1.254 . S
O149 C130 1.246 1_565 S
O149 Zn137 2.034 . S
O150 Zn129 2.024 . S
O150 C130 1.249 . S
C151 O147 1.251 1_545 S
C151 O148 1.254 . S
H152 C125 0.949 . S
H153 C127 0.950 . S
H154 C134 0.949 . S
H155 C136 0.950 . S
C156 O172 1.251 . S
C156 O174 1.254 . S
N157 C158 1.333 . S
N157 C162 1.307 . S
N157 Zn163 2.020 . S
C158 N157 1.333 . S
C158 C159 1.379 . S
C158 H176 0.952 . S
C159 C158 1.379 . S
C159 C160 1.390 . S
C159 H186 0.949 . S
C160 C159 1.390 . S
C160 C161 1.357 . S
C161 C160 1.357 . S
C161 C162 1.370 . S
C161 H187 0.950 . S
C162 N157 1.307 . S
C162 C161 1.370 . S
C162 H180 0.948 . S
Zn163 N157 2.020 . S
Zn163 O172 2.039 . S
Zn163 O178 2.034 . S
Zn163 O182 2.025 . S
Zn163 O184 2.024 . S
C164 O183 1.246 . S
C164 O184 1.249 . S
N165 C166 1.307 . S
N165 C167 1.333 . S
N165 Zn171 2.020 . S
C166 N165 1.307 . S
C166 C170 1.370 . S
C166 H177 0.948 . S
C167 N165 1.333 . S
C167 C168 1.379 . S
C167 H175 0.952 . S
C168 C167 1.379 . S
C168 C169 1.390 . S
C168 H188 0.949 . S
C169 C168 1.390 . S
C169 C170 1.357 . S
C170 C166 1.370 . S
C170 C169 1.357 . S
C170 H189 0.950 . S
Zn171 N165 2.020 . S
Zn171 O174 2.025 . S
Zn171 O179 2.024 . S
Zn171 O181 2.039 . S
Zn171 O183 2.034 . S
O172 C156 1.251 . S
O172 Zn163 2.039 . S
C173 O178 1.246 . S
C173 O179 1.249 . S
O174 C156 1.254 . S
O174 Zn171 2.025 . S
H175 C167 0.952 . S
H176 C158 0.952 . S
H177 C166 0.948 . S
O178 Zn163 2.034 . S
O178 C173 1.246 . S
O179 Zn171 2.024 . S
O179 C173 1.249 . S
H180 C162 0.948 . S
O181 Zn171 2.039 . S
O181 C185 1.251 . S
O182 Zn163 2.025 . S
O182 C185 1.254 . S
O183 C164 1.246 . S
O183 Zn171 2.034 . S
O184 Zn163 2.024 . S
O184 C164 1.249 . S
C185 O181 1.251 . S
C185 O182 1.254 . S
H186 C159 0.949 . S
H187 C161 0.950 . S
H188 C168 0.949 . S
H189 C170 0.950 . S
C190 O206 1.251 . S
C190 O208 1.254 . S
N191 C192 1.333 . S
N191 C196 1.307 . S
N191 Zn197 2.020 . S
C192 N191 1.333 . S
C192 C193 1.379 . S
C192 H210 0.952 . S
C193 C192 1.379 . S
C193 C194 1.390 . S
C193 H220 0.949 . S
C194 C193 1.390 . S
C194 C195 1.357 . S
C195 C194 1.357 . S
C195 C196 1.370 . S
C195 H221 0.950 . S
C196 N191 1.307 . S
C196 C195 1.370 . S
C196 H214 0.948 . S
Zn197 N191 2.020 . S
Zn197 O206 2.039 . S
Zn197 O212 2.034 1_455 S
Zn197 O216 2.025 1_455 S
Zn197 O218 2.024 . S
C198 O217 1.246 . S
C198 O218 1.249 . S
N199 C200 1.307 . S
N199 C201 1.333 1_455 S
N199 Zn205 2.020 . S
C200 N199 1.307 . S
C200 C204 1.370 . S
C200 H211 0.948 . S
C201 N199 1.333 1_655 S
C201 C202 1.379 . S
C201 H209 0.952 . S
C202 C201 1.379 . S
C202 C203 1.390 1_655 S
C202 H222 0.949 . S
C203 C202 1.390 1_455 S
C203 C204 1.357 . S
C204 C200 1.370 . S
C204 C203 1.357 . S
C204 H223 0.950 . S
Zn205 N199 2.020 . S
Zn205 O208 2.025 . S
Zn205 O213 2.024 1_455 S
Zn205 O215 2.039 1_455 S
Zn205 O217 2.034 . S
O206 C190 1.251 . S
O206 Zn197 2.039 . S
C207 O212 1.246 . S
C207 O213 1.249 . S
O208 C190 1.254 . S
O208 Zn205 2.025 . S
H209 C201 0.952 . S
H210 C192 0.952 . S
H211 C200 0.948 . S
O212 Zn197 2.034 1_655 S
O212 C207 1.246 . S
O213 Zn205 2.024 1_655 S
O213 C207 1.249 . S
H214 C196 0.948 . S
O215 Zn205 2.039 1_655 S
O215 C219 1.251 . S
O216 Zn197 2.025 1_655 S
O216 C219 1.254 . S
O217 C198 1.246 . S
O217 Zn205 2.034 . S
O218 Zn197 2.024 . S
O218 C198 1.249 . S
C219 O215 1.251 . S
C219 O216 1.254 . S
H220 C193 0.949 . S
H221 C195 0.950 . S
H222 C202 0.949 . S
H223 C204 0.950 . S
C224 C225 1.391 . S
C224 C226 1.394 . S
C224 H240 0.931 . S
C225 C224 1.391 . S
C225 C229 1.376 1_565 S
C226 C224 1.394 . S
C226 C227 1.369 . S
C226 C230 1.531 . S
C227 C226 1.369 . S
C227 C228 1.410 1_565 S
C227 C235 1.503 . S
C228 C227 1.410 1_545 S
C228 C229 1.392 . S
C228 C231 1.511 . S
C229 C225 1.376 1_545 S
C229 C228 1.392 . S
C229 H241 0.929 . S
C230 C226 1.531 . S
C230 H242 0.960 . S
C230 H243 0.962 . S
C230 H244 0.960 . S
C231 C228 1.511 . S
C231 H245 0.961 . S
C231 H246 0.961 . S
C231 H247 0.961 . S
C232 C233 1.370 1_545 S
C232 C234 1.363 . S
C232 H248 0.931 . S
C233 C232 1.370 1_565 S
C233 C237 1.408 . S
C234 C232 1.363 . S
C234 C235 1.370 1_545 S
C234 C238 1.524 . S
C235 C227 1.503 . S
C235 C234 1.370 1_565 S
C235 C236 1.403 . S
C236 C235 1.403 . S
C236 C237 1.404 . S
C236 C239 1.539 . S
C237 C233 1.408 . S
C237 C236 1.404 . S
C237 H249 0.930 . S
C238 C234 1.524 . S
C238 H250 0.956 . S
C238 H251 0.961 . S
C238 H252 0.961 . S
C239 C236 1.539 . S
C239 H253 0.958 . S
C239 H254 0.961 . S
C239 H255 0.960 . S
H240 C224 0.931 . S
H241 C229 0.929 . S
H242 C230 0.960 . S
H243 C230 0.962 . S
H244 C230 0.960 . S
H245 C231 0.961 . S
H246 C231 0.961 . S
H247 C231 0.961 . S
H248 C232 0.931 . S
H249 C237 0.930 . S
H250 C238 0.956 . S
H251 C238 0.961 . S
H252 C238 0.961 . S
H253 C239 0.958 . S
H254 C239 0.961 . S
H255 C239 0.960 . S
C256 C257 1.391 . S
C256 C258 1.394 . S
C256 H272 0.931 . S
C257 C256 1.391 . S
C257 C261 1.376 . S
C258 C256 1.394 . S
C258 C259 1.369 . S
C258 C262 1.531 . S
C259 C258 1.369 . S
C259 C260 1.410 . S
C259 C267 1.503 . S
C260 C259 1.410 . S
C260 C261 1.392 . S
C260 C263 1.511 . S
C261 C257 1.376 . S
C261 C260 1.392 . S
C261 H273 0.929 . S
C262 C258 1.531 . S
C262 H274 0.960 . S
C262 H275 0.962 . S
C262 H276 0.960 . S
C263 C260 1.511 . S
C263 H277 0.961 . S
C263 H278 0.961 . S
C263 H279 0.961 . S
C264 C265 1.370 . S
C264 C266 1.363 . S
C264 H280 0.931 . S
C265 C264 1.370 . S
C265 C269 1.408 . S
C266 C264 1.363 . S
C266 C267 1.370 . S
C266 C270 1.524 . S
C267 C259 1.503 . S
C267 C266 1.370 . S
C267 C268 1.403 . S
C268 C267 1.403 . S
C268 C269 1.404 . S
C268 C271 1.539 . S
C269 C265 1.408 . S
C269 C268 1.404 . S
C269 H281 0.930 . S
C270 C266 1.524 . S
C270 H282 0.956 . S
C270 H283 0.961 . S
C270 H284 0.961 . S
C271 C268 1.539 . S
C271 H285 0.958 . S
C271 H286 0.961 . S
C271 H287 0.960 . S
H272 C256 0.931 . S
H273 C261 0.929 . S
H274 C262 0.960 . S
H275 C262 0.962 . S
H276 C262 0.960 . S
H277 C263 0.961 . S
H278 C263 0.961 . S
H279 C263 0.961 . S
H280 C264 0.931 . S
H281 C269 0.930 . S
H282 C270 0.956 . S
H283 C270 0.961 . S
H284 C270 0.961 . S
H285 C271 0.958 . S
H286 C271 0.961 . S
H287 C271 0.960 . S
C288 C289 1.391 . S
C288 C290 1.394 . S
C288 H304 0.931 . S
C289 C288 1.391 . S
C289 C293 1.376 . S
C290 C288 1.394 . S
C290 C291 1.369 . S
C290 C294 1.531 . S
C291 C290 1.369 . S
C291 C292 1.410 . S
C291 C299 1.503 . S
C292 C291 1.410 . S
C292 C293 1.392 . S
C292 C295 1.511 . S
C293 C289 1.376 . S
C293 C292 1.392 . S
C293 H305 0.929 . S
C294 C290 1.531 . S
C294 H306 0.960 . S
C294 H307 0.962 . S
C294 H308 0.960 . S
C295 C292 1.511 . S
C295 H309 0.961 . S
C295 H310 0.961 . S
C295 H311 0.961 . S
C296 C297 1.370 . S
C296 C298 1.363 . S
C296 H312 0.931 . S
C297 C296 1.370 . S
C297 C301 1.408 . S
C298 C296 1.363 . S
C298 C299 1.370 . S
C298 C302 1.524 . S
C299 C291 1.503 . S
C299 C298 1.370 . S
C299 C300 1.403 . S
C300 C299 1.403 . S
C300 C301 1.404 . S
C300 C303 1.539 . S
C301 C297 1.408 . S
C301 C300 1.404 . S
C301 H313 0.930 . S
C302 C298 1.524 . S
C302 H314 0.956 . S
C302 H315 0.961 . S
C302 H316 0.961 . S
C303 C300 1.539 . S
C303 H317 0.958 . S
C303 H318 0.961 . S
C303 H319 0.960 . S
H304 C288 0.931 . S
H305 C293 0.929 . S
H306 C294 0.960 . S
H307 C294 0.962 . S
H308 C294 0.960 . S
H309 C295 0.961 . S
H310 C295 0.961 . S
H311 C295 0.961 . S
H312 C296 0.931 . S
H313 C301 0.930 . S
H314 C302 0.956 . S
H315 C302 0.961 . S
H316 C302 0.961 . S
H317 C303 0.958 . S
H318 C303 0.961 . S
H319 C303 0.960 . S
C320 C321 1.391 . S
C320 C322 1.394 . S
C320 H336 0.931 . S
C321 C320 1.391 . S
C321 C325 1.376 . S
C322 C320 1.394 . S
C322 C323 1.369 . S
C322 C326 1.531 . S
C323 C322 1.369 . S
C323 C324 1.410 . S
C323 C331 1.503 . S
C324 C323 1.410 . S
C324 C325 1.392 . S
C324 C327 1.511 1_455 S
C325 C321 1.376 . S
C325 C324 1.392 . S
C325 H337 0.929 . S
C326 C322 1.531 . S
C326 H338 0.960 . S
C326 H339 0.962 . S
C326 H340 0.960 . S
C327 C324 1.511 1_655 S
C327 H341 0.961 . S
C327 H342 0.961 . S
C327 H343 0.961 . S
C328 C329 1.370 . S
C328 C330 1.363 . S
C328 H344 0.931 . S
C329 C328 1.370 . S
C329 C333 1.408 . S
C330 C328 1.363 . S
C330 C331 1.370 . S
C330 C334 1.524 . S
C331 C323 1.503 . S
C331 C330 1.370 . S
C331 C332 1.403 . S
C332 C331 1.403 . S
C332 C333 1.404 . S
C332 C335 1.539 . S
C333 C329 1.408 . S
C333 C332 1.404 . S
C333 H345 0.930 . S
C334 C330 1.524 . S
C334 H346 0.956 . S
C334 H347 0.961 . S
C334 H348 0.961 . S
C335 C332 1.539 . S
C335 H349 0.958 . S
C335 H350 0.961 . S
C335 H351 0.960 . S
H336 C320 0.931 . S
H337 C325 0.929 . S
H338 C326 0.960 . S
H339 C326 0.962 . S
H340 C326 0.960 . S
H341 C327 0.961 . S
H342 C327 0.961 . S
H343 C327 0.961 . S
H344 C328 0.931 . S
H345 C333 0.930 . S
H346 C334 0.956 . S
H347 C334 0.961 . S
H348 C334 0.961 . S
H349 C335 0.958 . S
H350 C335 0.961 . S
H351 C335 0.960 . S
C352 C353 1.391 1_565 S
C352 C354 1.394 . S
C352 H368 0.931 . S
C353 C352 1.391 1_545 S
C353 C357 1.376 1_556 S
C354 C352 1.394 . S
C354 C355 1.369 1_565 S
C354 C358 1.531 . S
C355 C354 1.369 1_545 S
C355 C356 1.410 . S
C355 C363 1.503 . S
C356 C355 1.410 . S
C356 C357 1.392 1_556 S
C356 C359 1.511 1_556 S
C357 C353 1.376 1_554 S
C357 C356 1.392 1_554 S
C357 H369 0.929 . S
C358 C354 1.531 . S
C358 H370 0.960 . S
C358 H371 0.962 . S
C358 H372 0.960 . S
C359 C356 1.511 1_554 S
C359 H373 0.961 . S
C359 H374 0.961 1_554 S
C359 H375 0.961 1_554 S
C360 C361 1.370 1_565 S
C360 C362 1.363 . S
C360 H376 0.931 . S
C361 C360 1.370 1_545 S
C361 C365 1.408 . S
C362 C360 1.363 . S
C362 C363 1.370 1_565 S
C362 C366 1.524 . S
C363 C355 1.503 . S
C363 C362 1.370 1_545 S
C363 C364 1.403 . S
C364 C363 1.403 . S
C364 C365 1.404 . S
C364 C367 1.539 . S
C365 C361 1.408 . S
C365 C364 1.404 . S
C365 H377 0.930 . S
C366 C362 1.524 . S
C366 H378 0.956 . S
C366 H379 0.961 1_556 S
C366 H380 0.961 . S
C367 C364 1.539 . S
C367 H381 0.958 . S
C367 H382 0.961 . S
C367 H383 0.960 . S
H368 C352 0.931 . S
H369 C357 0.929 . S
H370 C358 0.960 . S
H371 C358 0.962 . S
H372 C358 0.960 . S
H373 C359 0.961 . S
H374 C359 0.961 1_556 S
H375 C359 0.961 1_556 S
H376 C360 0.931 . S
H377 C365 0.930 . S
H378 C366 0.956 . S
H379 C366 0.961 1_554 S
H380 C366 0.961 . S
H381 C367 0.958 . S
H382 C367 0.961 . S
H383 C367 0.960 . S
C384 C385 1.391 . S
C384 C386 1.394 . S
C384 H400 0.931 . S
C385 C384 1.391 . S
C385 C389 1.376 1_554 S
C386 C384 1.394 . S
C386 C387 1.369 1_554 S
C386 C390 1.531 . S
C387 C386 1.369 1_556 S
C387 C388 1.410 . S
C387 C395 1.503 . S
C388 C387 1.410 . S
C388 C389 1.392 . S
C388 C391 1.511 . S
C389 C385 1.376 1_556 S
C389 C388 1.392 . S
C389 H401 0.929 . S
C390 C386 1.531 . S
C390 H402 0.960 . S
C390 H403 0.962 . S
C390 H404 0.960 . S
C391 C388 1.511 . S
C391 H405 0.961 . S
C391 H406 0.961 . S
C391 H407 0.961 . S
C392 C393 1.370 . S
C392 C394 1.363 . S
C392 H408 0.931 . S
C393 C392 1.370 . S
C393 C397 1.408 . S
C394 C392 1.363 . S
C394 C395 1.370 . S
C394 C398 1.524 . S
C395 C387 1.503 . S
C395 C394 1.370 . S
C395 C396 1.403 . S
C396 C395 1.403 . S
C396 C397 1.404 . S
C396 C399 1.539 . S
C397 C393 1.408 . S
C397 C396 1.404 . S
C397 H409 0.930 . S
C398 C394 1.524 . S
C398 H410 0.956 . S
C398 H411 0.961 . S
C398 H412 0.961 . S
C399 C396 1.539 . S
C399 H413 0.958 1_556 S
C399 H414 0.961 . S
C399 H415 0.960 . S
H400 C384 0.931 . S
H401 C389 0.929 . S
H402 C390 0.960 . S
H403 C390 0.962 . S
H404 C390 0.960 . S
H405 C391 0.961 . S
H406 C391 0.961 . S
H407 C391 0.961 . S
H408 C392 0.931 . S
H409 C397 0.930 . S
H410 C398 0.956 . S
H411 C398 0.961 . S
H412 C398 0.961 . S
H413 C399 0.958 1_554 S
H414 C399 0.961 . S
H415 C399 0.960 . S
C416 C417 1.391 1_556 S
C416 C418 1.394 . S
C416 H432 0.931 . S
C417 C416 1.391 1_554 S
C417 C421 1.376 . S
C418 C416 1.394 . S
C418 C419 1.369 . S
C418 C422 1.531 . S
C419 C418 1.369 . S
C419 C420 1.410 1_556 S
C419 C427 1.503 . S
C420 C419 1.410 1_554 S
C420 C421 1.392 . S
C420 C423 1.511 . S
C421 C417 1.376 . S
C421 C420 1.392 . S
C421 H433 0.929 . S
C422 C418 1.531 . S
C422 H434 0.960 . S
C422 H435 0.962 . S
C422 H436 0.960 . S
C423 C420 1.511 . S
C423 H437 0.961 . S
C423 H438 0.961 . S
C423 H439 0.961 . S
C424 C425 1.370 . S
C424 C426 1.363 . S
C424 H440 0.931 . S
C425 C424 1.370 . S
C425 C429 1.408 . S
C426 C424 1.363 . S
C426 C427 1.370 . S
C426 C430 1.524 . S
C427 C419 1.503 . S
C427 C426 1.370 . S
C427 C428 1.403 . S
C428 C427 1.403 . S
C428 C429 1.404 . S
C428 C431 1.539 . S
C429 C425 1.408 . S
C429 C428 1.404 . S
C429 H441 0.930 . S
C430 C426 1.524 . S
C430 H442 0.956 . S
C430 H443 0.961 1_556 S
C430 H444 0.961 . S
C431 C428 1.539 . S
C431 H445 0.958 . S
C431 H446 0.961 . S
C431 H447 0.960 . S
H432 C416 0.931 . S
H433 C421 0.929 . S
H434 C422 0.960 . S
H435 C422 0.962 . S
H436 C422 0.960 . S
H437 C423 0.961 . S
H438 C423 0.961 . S
H439 C423 0.961 . S
H440 C424 0.931 . S
H441 C429 0.930 . S
H442 C430 0.956 . S
H443 C430 0.961 1_554 S
H444 C430 0.961 . S
H445 C431 0.958 . S
H446 C431 0.961 . S
H447 C431 0.960 . S
C448 C449 1.391 . S
C448 C450 1.394 . S
C448 H464 0.931 . S
C449 C448 1.391 . S
C449 C453 1.376 . S
C450 C448 1.394 . S
C450 C451 1.369 . S
C450 C454 1.531 . S
C451 C450 1.369 . S
C451 C452 1.411 . S
C451 C459 1.503 . S
C452 C451 1.411 . S
C452 C453 1.393 . S
C452 C455 1.510 1_655 S
C453 C449 1.376 . S
C453 C452 1.393 . S
C453 H465 0.929 1_655 S
C454 C450 1.531 . S
C454 H466 0.960 . S
C454 H467 0.962 . S
C454 H468 0.960 . S
C455 C452 1.510 1_455 S
C455 H469 0.961 . S
C455 H470 0.961 . S
C455 H471 0.961 . S
C456 C457 1.370 1_455 S
C456 C458 1.363 1_455 S
C456 H472 0.930 . S
C457 C456 1.370 1_655 S
C457 C461 1.408 . S
C458 C456 1.363 1_655 S
C458 C459 1.370 . S
C458 C462 1.524 . S
C459 C451 1.503 . S
C459 C458 1.370 . S
C459 C460 1.403 . S
C460 C459 1.403 . S
C460 C461 1.404 . S
C460 C463 1.539 . S
C461 C457 1.408 . S
C461 C460 1.404 . S
C461 H473 0.930 . S
C462 C458 1.524 . S
C462 H474 0.956 . S
C462 H475 0.961 1_655 S
C462 H476 0.961 1_655 S
C463 C460 1.539 . S
C463 H477 0.958 . S
C463 H478 0.961 . S
C463 H479 0.960 . S
H464 C448 0.931 . S
H465 C453 0.929 1_455 S
H466 C454 0.960 . S
H467 C454 0.962 . S
H468 C454 0.960 . S
H469 C455 0.961 . S
H470 C455 0.961 . S
H471 C455 0.961 . S
H472 C456 0.930 . S
H473 C461 0.930 . S
H474 C462 0.956 . S
H475 C462 0.961 1_455 S
H476 C462 0.961 1_455 S
H477 C463 0.958 . S
H478 C463 0.961 . S
H479 C463 0.960 . S
C480 C481 1.391 . S
C480 C482 1.394 . S
C480 H496 0.931 . S
C481 C480 1.391 . S
C481 C485 1.376 . S
C482 C480 1.394 . S
C482 C483 1.369 . S
C482 C486 1.531 1_455 S
C483 C482 1.369 . S
C483 C484 1.410 . S
C483 C491 1.503 . S
C484 C483 1.410 . S
C484 C485 1.392 . S
C484 C487 1.511 . S
C485 C481 1.376 . S
C485 C484 1.392 . S
C485 H497 0.929 . S
C486 C482 1.531 1_655 S
C486 H498 0.960 . S
C486 H499 0.962 . S
C486 H500 0.960 . S
C487 C484 1.511 . S
C487 H501 0.961 . S
C487 H502 0.961 . S
C487 H503 0.961 . S
C488 C489 1.370 . S
C488 C490 1.363 . S
C488 H504 0.931 . S
C489 C488 1.370 . S
C489 C493 1.408 . S
C490 C488 1.363 . S
C490 C491 1.370 . S
C490 C494 1.524 . S
C491 C483 1.503 . S
C491 C490 1.370 . S
C491 C492 1.403 . S
C492 C491 1.403 . S
C492 C493 1.404 . S
C492 C495 1.539 . S
C493 C489 1.408 . S
C493 C492 1.404 . S
C493 H505 0.930 . S
C494 C490 1.524 . S
C494 H506 0.956 . S
C494 H507 0.961 . S
C494 H508 0.961 . S
C495 C492 1.539 . S
C495 H509 0.958 . S
C495 H510 0.961 . S
C495 H511 0.960 . S
H496 C480 0.931 . S
H497 C485 0.929 . S
H498 C486 0.960 . S
H499 C486 0.962 . S
H500 C486 0.960 . S
H501 C487 0.961 . S
H502 C487 0.961 . S
H503 C487 0.961 . S
H504 C488 0.931 . S
H505 C493 0.930 . S
H506 C494 0.956 . S
H507 C494 0.961 . S
H508 C494 0.961 . S
H509 C495 0.958 . S
H510 C495 0.961 . S
H511 C495 0.960 . S
C512 C513 1.391 . S
C512 C514 1.394 . S
C512 H528 0.931 . S
C513 C512 1.391 . S
C513 C517 1.376 1_545 S
C514 C512 1.394 . S
C514 C515 1.369 . S
C514 C518 1.531 . S
C515 C514 1.369 . S
C515 C516 1.410 1_545 S
C515 C523 1.507 . S
C516 C515 1.410 1_565 S
C516 C517 1.392 . S
C516 C519 1.511 . S
C517 C513 1.376 1_565 S
C517 C516 1.392 . S
C517 H529 0.929 . S
C518 C514 1.531 . S
C518 H530 0.960 . S
C518 H531 0.962 . S
C518 H532 0.960 . S
C519 C516 1.511 . S
C519 H533 0.961 . S
C519 H534 0.961 . S
C519 H535 0.961 1_565 S
C520 C521 1.370 . S
C520 C522 1.363 . S
C520 H536 0.931 . S
C521 C520 1.370 . S
C521 C525 1.408 1_565 S
C522 C520 1.363 . S
C522 C523 1.334 1_565 S
C522 C526 1.524 . S
C523 C515 1.507 . S
C523 C522 1.334 1_545 S
C523 C524 1.437 . S
C524 C523 1.437 . S
C524 C525 1.404 . S
C524 C527 1.539 . S
C525 C521 1.408 1_545 S
C525 C524 1.404 . S
C525 H537 0.930 . S
C526 C522 1.524 . S
C526 H538 0.956 . S
C526 H539 0.961 . S
C526 H540 0.961 . S
C527 C524 1.539 . S
C527 H541 0.958 . S
C527 H542 0.961 . S
C527 H543 0.960 . S
H528 C512 0.931 . S
H529 C517 0.929 . S
H530 C518 0.960 . S
H531 C518 0.962 . S
H532 C518 0.960 . S
H533 C519 0.961 . S
H534 C519 0.961 . S
H535 C519 0.961 1_545 S
H536 C520 0.931 . S
H537 C525 0.930 . S
H538 C526 0.956 . S
H539 C526 0.961 . S
H540 C526 0.961 . S
H541 C527 0.958 . S
H542 C527 0.961 . S
H543 C527 0.960 . S
C544 C545 1.391 . S
C544 C546 1.394 . S
C544 H560 0.931 . S
C545 C544 1.391 . S
C545 C549 1.376 . S
C546 C544 1.394 . S
C546 C547 1.369 . S
C546 C550 1.531 . S
C547 C546 1.369 . S
C547 C548 1.410 . S
C547 C555 1.503 . S
C548 C547 1.410 . S
C548 C549 1.392 . S
C548 C551 1.511 . S
C549 C545 1.376 . S
C549 C548 1.392 . S
C549 H561 0.929 . S
C550 C546 1.531 . S
C550 H562 0.960 . S
C550 H563 0.962 . S
C550 H564 0.960 . S
C551 C548 1.511 . S
C551 H565 0.961 . S
C551 H566 0.961 . S
C551 H567 0.961 . S
C552 C553 1.370 . S
C552 C554 1.363 . S
C552 H568 0.931 . S
C553 C552 1.370 . S
C553 C557 1.408 . S
C554 C552 1.363 . S
C554 C555 1.370 . S
C554 C558 1.524 . S
C555 C547 1.503 . S
C555 C554 1.370 . S
C555 C556 1.403 . S
C556 C555 1.403 . S
C556 C557 1.404 . S
C556 C559 1.539 . S
C557 C553 1.408 . S
C557 C556 1.404 . S
C557 H569 0.930 . S
C558 C554 1.524 . S
C558 H570 0.956 . S
C558 H571 0.961 . S
C558 H572 0.961 . S
C559 C556 1.539 . S
C559 H573 0.958 . S
C559 H574 0.961 . S
C559 H575 0.960 . S
H560 C544 0.931 . S
H561 C549 0.929 . S
H562 C550 0.960 . S
H563 C550 0.962 . S
H564 C550 0.960 . S
H565 C551 0.961 . S
H566 C551 0.961 . S
H567 C551 0.961 . S
H568 C552 0.931 . S
H569 C557 0.930 . S
H570 C558 0.956 . S
H571 C558 0.961 . S
H572 C558 0.961 . S
H573 C559 0.958 . S
H574 C559 0.961 . S
H575 C559 0.960 . S
C576 C577 1.391 . S
C576 C578 1.394 . S
C576 H592 0.931 . S
C577 C576 1.391 . S
C577 C581 1.376 . S
C578 C576 1.394 . S
C578 C579 1.369 . S
C578 C582 1.531 . S
C579 C578 1.369 . S
C579 C580 1.410 . S
C579 C587 1.503 . S
C580 C579 1.410 . S
C580 C581 1.392 . S
C580 C583 1.511 . S
C581 C577 1.376 . S
C581 C580 1.392 . S
C581 H593 0.929 . S
C582 C578 1.531 . S
C582 H594 0.960 . S
C582 H595 0.962 . S
C582 H596 0.960 . S
C583 C580 1.511 . S
C583 H597 0.961 . S
C583 H598 0.961 . S
C583 H599 0.961 . S
C584 C585 1.370 . S
C584 C586 1.363 . S
C584 H600 0.931 . S
C585 C584 1.370 . S
C585 C589 1.408 . S
C586 C584 1.363 . S
C586 C587 1.370 . S
C586 C590 1.524 . S
C587 C579 1.503 . S
C587 C586 1.370 . S
C587 C588 1.403 . S
C588 C587 1.403 . S
C588 C589 1.404 . S
C588 C591 1.539 . S
C589 C585 1.408 . S
C589 C588 1.404 . S
C589 H601 0.930 . S
C590 C586 1.524 . S
C590 H602 0.956 . S
C590 H603 0.961 . S
C590 H604 0.961 . S
C591 C588 1.539 . S
C591 H605 0.958 . S
C591 H606 0.961 . S
C591 H607 0.960 . S
H592 C576 0.931 . S
H593 C581 0.929 . S
H594 C582 0.960 . S
H595 C582 0.962 . S
H596 C582 0.960 . S
H597 C583 0.961 . S
H598 C583 0.961 . S
H599 C583 0.961 . S
H600 C584 0.931 . S
H601 C589 0.930 . S
H602 C590 0.956 . S
H603 C590 0.961 . S
H604 C590 0.961 . S
H605 C591 0.958 . S
H606 C591 0.961 . S
H607 C591 0.960 . S
C608 C609 1.391 . S
C608 C610 1.380 1_655 S
C608 H624 0.925 1_655 S
C609 C608 1.391 . S
C609 C613 1.376 . S
C610 C608 1.380 1_455 S
C610 C611 1.346 1_455 S
C610 C614 1.569 . S
C611 C610 1.346 1_655 S
C611 C612 1.410 . S
C611 C619 1.503 . S
C612 C611 1.410 . S
C612 C613 1.392 . S
C612 C615 1.511 . S
C613 C609 1.376 . S
C613 C612 1.392 . S
C613 H625 0.929 . S
C614 C610 1.569 . S
C614 H626 0.960 . S
C614 H627 0.962 . S
C614 H628 0.960 . S
C615 C612 1.511 . S
C615 H629 0.961 . S
C615 H630 0.961 . S
C615 H631 0.961 . S
C616 C617 1.370 1_655 S
C616 C618 1.363 . S
C616 H632 0.931 . S
C617 C616 1.370 1_455 S
C617 C621 1.408 . S
C618 C616 1.363 . S
C618 C619 1.370 . S
C618 C622 1.524 . S
C619 C611 1.503 . S
C619 C618 1.370 . S
C619 C620 1.403 1_655 S
C620 C619 1.403 1_455 S
C620 C621 1.404 . S
C620 C623 1.539 . S
C621 C617 1.408 . S
C621 C620 1.404 . S
C621 H633 0.930 . S
C622 C618 1.524 . S
C622 H634 0.956 1_556 S
C622 H635 0.961 . S
C622 H636 0.961 . S
C623 C620 1.539 . S
C623 H637 0.958 . S
C623 H638 0.961 . S
C623 H639 0.960 . S
H624 C608 0.925 1_455 S
H625 C613 0.929 . S
H626 C614 0.960 . S
H627 C614 0.962 . S
H628 C614 0.960 . S
H629 C615 0.961 . S
H630 C615 0.961 . S
H631 C615 0.961 . S
H632 C616 0.931 . S
H633 C621 0.930 . S
H634 C622 0.956 1_554 S
H635 C622 0.961 . S
H636 C622 0.961 . S
H637 C623 0.958 . S
H638 C623 0.961 . S
H639 C623 0.960 . S
C640 C641 1.391 1_545 S
C640 C642 1.394 . S
C640 H656 0.931 . S
C641 C640 1.391 1_565 S
C641 C645 1.376 1_556 S
C642 C640 1.394 . S
C642 C643 1.369 1_545 S
C642 C646 1.531 . S
C643 C642 1.369 1_565 S
C643 C644 1.410 1_556 S
C643 C651 1.504 . S
C644 C643 1.410 1_554 S
C644 C645 1.392 . S
C644 C647 1.511 . S
C645 C641 1.376 1_554 S
C645 C644 1.392 . S
C645 H657 0.929 . S
C646 C642 1.531 . S
C646 H658 0.960 . S
C646 H659 0.962 . S
C646 H660 0.960 . S
C647 C644 1.511 . S
C647 H661 0.961 . S
C647 H662 0.961 . S
C647 H663 0.961 . S
C648 C649 1.370 . S
C648 C650 1.363 . S
C648 H664 0.931 . S
C649 C648 1.370 . S
C649 C653 1.408 1_545 S
C650 C648 1.363 . S
C650 C651 1.358 1_545 S
C650 C654 1.524 . S
C651 C643 1.504 . S
C651 C650 1.358 1_565 S
C651 C652 1.414 . S
C652 C651 1.414 . S
C652 C653 1.404 . S
C652 C655 1.539 . S
C653 C649 1.408 1_565 S
C653 C652 1.404 . S
C653 H665 0.930 . S
C654 C650 1.524 . S
C654 H666 0.956 . S
C654 H667 0.961 . S
C654 H668 0.961 . S
C655 C652 1.539 . S
C655 H669 0.958 . S
C655 H670 0.961 . S
C655 H671 0.960 . S
H656 C640 0.931 . S
H657 C645 0.929 . S
H658 C646 0.960 . S
H659 C646 0.962 . S
H660 C646 0.960 . S
H661 C647 0.961 . S
H662 C647 0.961 . S
H663 C647 0.961 . S
H664 C648 0.931 . S
H665 C653 0.930 . S
H666 C654 0.956 . S
H667 C654 0.961 . S
H668 C654 0.961 . S
H669 C655 0.958 . S
H670 C655 0.961 . S
H671 C655 0.960 . S
C672 C673 1.391 . S
C672 C674 1.394 . S
C672 H688 0.931 . S
C673 C672 1.391 . S
C673 C677 1.376 1_554 S
C674 C672 1.394 . S
C674 C675 1.369 1_554 S
C674 C678 1.531 . S
C675 C674 1.369 1_556 S
C675 C676 1.410 . S
C675 C683 1.503 . S
C676 C675 1.410 . S
C676 C677 1.392 . S
C676 C679 1.511 . S
C677 C673 1.376 1_556 S
C677 C676 1.392 . S
C677 H689 0.929 . S
C678 C674 1.531 . S
C678 H690 0.960 . S
C678 H691 0.962 . S
C678 H692 0.960 . S
C679 C676 1.511 . S
C679 H693 0.961 . S
C679 H694 0.961 . S
C679 H695 0.961 . S
C680 C681 1.370 . S
C680 C682 1.363 . S
C680 H696 0.931 . S
C681 C680 1.370 . S
C681 C685 1.408 . S
C682 C680 1.363 . S
C682 C683 1.370 . S
C682 C686 1.524 . S
C683 C675 1.503 . S
C683 C682 1.370 . S
C683 C684 1.403 . S
C684 C683 1.403 . S
C684 C685 1.404 . S
C684 C687 1.539 . S
C685 C681 1.408 . S
C685 C684 1.404 . S
C685 H697 0.930 . S
C686 C682 1.524 . S
C686 H698 0.956 . S
C686 H699 0.961 . S
C686 H700 0.961 . S
C687 C684 1.539 . S
C687 H701 0.958 1_556 S
C687 H702 0.961 . S
C687 H703 0.960 1_556 S
H688 C672 0.931 . S
H689 C677 0.929 . S
H690 C678 0.960 . S
H691 C678 0.962 . S
H692 C678 0.960 . S
H693 C679 0.961 . S
H694 C679 0.961 . S
H695 C679 0.961 . S
H696 C680 0.931 . S
H697 C685 0.930 . S
H698 C686 0.956 . S
H699 C686 0.961 . S
H700 C686 0.961 . S
H701 C687 0.958 1_554 S
H702 C687 0.961 . S
H703 C687 0.960 1_554 S
C704 C705 1.391 . S
C704 C706 1.394 . S
C704 H720 0.931 . S
C705 C704 1.391 . S
C705 C709 1.376 . S
C706 C704 1.394 . S
C706 C707 1.369 1_554 S
C706 C710 1.531 . S
C707 C706 1.369 1_556 S
C707 C708 1.410 . S
C707 C715 1.503 . S
C708 C707 1.410 . S
C708 C709 1.392 1_556 S
C708 C711 1.511 . S
C709 C705 1.376 . S
C709 C708 1.392 1_554 S
C709 H721 0.929 . S
C710 C706 1.531 . S
C710 H722 0.960 1_554 S
C710 H723 0.962 . S
C710 H724 0.960 . S
C711 C708 1.511 . S
C711 H725 0.961 . S
C711 H726 0.961 . S
C711 H727 0.961 . S
C712 C713 1.370 . S
C712 C714 1.363 . S
C712 H728 0.931 . S
C713 C712 1.370 . S
C713 C717 1.408 . S
C714 C712 1.363 . S
C714 C715 1.370 . S
C714 C718 1.524 1_556 S
C715 C707 1.503 . S
C715 C714 1.370 . S
C715 C716 1.403 . S
C716 C715 1.403 . S
C716 C717 1.404 . S
C716 C719 1.539 . S
C717 C713 1.408 . S
C717 C716 1.404 . S
C717 H729 0.930 . S
C718 C714 1.524 1_554 S
C718 H730 0.956 . S
C718 H731 0.961 . S
C718 H732 0.961 . S
C719 C716 1.539 . S
C719 H733 0.958 . S
C719 H734 0.961 . S
C719 H735 0.960 . S
H720 C704 0.931 . S
H721 C709 0.929 . S
H722 C710 0.960 1_556 S
H723 C710 0.962 . S
H724 C710 0.960 . S
H725 C711 0.961 . S
H726 C711 0.961 . S
H727 C711 0.961 . S
H728 C712 0.931 . S
H729 C717 0.930 . S
H730 C718 0.956 . S
H731 C718 0.961 . S
H732 C718 0.961 . S
H733 C719 0.958 . S
H734 C719 0.961 . S
H735 C719 0.960 . S
C736 C737 1.391 . S
C736 C738 1.394 . S
C736 H752 0.931 . S
C737 C736 1.391 . S
C737 C741 1.376 . S
C738 C736 1.394 . S
C738 C739 1.369 . S
C738 C742 1.531 . S
C739 C738 1.369 . S
C739 C740 1.410 . S
C739 C747 1.503 . S
C740 C739 1.410 . S
C740 C741 1.392 . S
C740 C743 1.511 . S
C741 C737 1.376 . S
C741 C740 1.392 . S
C741 H753 0.929 . S
C742 C738 1.531 . S
C742 H754 0.960 . S
C742 H755 0.962 . S
C742 H756 0.960 . S
C743 C740 1.511 . S
C743 H757 0.961 . S
C743 H758 0.961 . S
C743 H759 0.961 . S
C744 C745 1.370 . S
C744 C746 1.363 . S
C744 H760 0.931 . S
C745 C744 1.370 . S
C745 C749 1.408 . S
C746 C744 1.363 . S
C746 C747 1.370 . S
C746 C750 1.524 . S
C747 C739 1.503 . S
C747 C746 1.370 . S
C747 C748 1.403 . S
C748 C747 1.403 . S
C748 C749 1.404 . S
C748 C751 1.539 . S
C749 C745 1.408 . S
C749 C748 1.404 . S
C749 H761 0.930 1_554 S
C750 C746 1.524 . S
C750 H762 0.956 . S
C750 H763 0.961 . S
C750 H764 0.961 . S
C751 C748 1.539 . S
C751 H765 0.958 1_554 S
C751 H766 0.961 1_554 S
C751 H767 0.960 . S
H752 C736 0.931 . S
H753 C741 0.929 . S
H754 C742 0.960 . S
H755 C742 0.962 . S
H756 C742 0.960 . S
H757 C743 0.961 . S
H758 C743 0.961 . S
H759 C743 0.961 . S
H760 C744 0.931 . S
H761 C749 0.930 1_556 S
H762 C750 0.956 . S
H763 C750 0.961 . S
H764 C750 0.961 . S
H765 C751 0.958 1_556 S
H766 C751 0.961 1_556 S
H767 C751 0.960 . S
C768 C769 1.391 . S
C768 C770 1.394 . S
C768 H784 0.931 . S
C769 C768 1.391 . S
C769 C773 1.376 1_545 S
C770 C768 1.394 . S
C770 C771 1.369 . S
C770 C774 1.531 . S
C771 C770 1.369 . S
C771 C772 1.410 1_545 S
C771 C779 1.503 . S
C772 C771 1.410 1_565 S
C772 C773 1.392 . S
C772 C775 1.511 . S
C773 C769 1.376 1_565 S
C773 C772 1.392 . S
C773 H785 0.929 . S
C774 C770 1.531 . S
C774 H786 0.960 . S
C774 H787 0.962 . S
C774 H788 0.960 . S
C775 C772 1.511 . S
C775 H789 0.961 . S
C775 H790 0.961 . S
C775 H791 0.961 . S
C776 C777 1.362 1_565 S
C776 C778 1.362 . S
C776 H792 0.942 . S
C777 C776 1.362 1_545 S
C777 C781 1.408 . S
C778 C776 1.362 . S
C778 C779 1.370 1_566 S
C778 C782 1.524 . S
C779 C771 1.503 . S
C779 C778 1.370 1_544 S
C779 C780 1.403 . S
C780 C779 1.403 . S
C780 C781 1.404 1_554 S
C780 C783 1.539 . S
C781 C777 1.408 . S
C781 C780 1.404 1_556 S
C781 H793 0.930 . S
C782 C778 1.524 . S
C782 H794 0.956 1_565 S
C782 H795 0.961 . S
C782 H796 0.961 . S
C783 C780 1.539 . S
C783 H797 0.958 . S
C783 H798 0.961 . S
C783 H799 0.960 . S
H784 C768 0.931 . S
H785 C773 0.929 . S
H786 C774 0.960 . S
H787 C774 0.962 . S
H788 C774 0.960 . S
H789 C775 0.961 . S
H790 C775 0.961 . S
H791 C775 0.961 . S
H792 C776 0.942 . S
H793 C781 0.930 . S
H794 C782 0.956 1_545 S
H795 C782 0.961 . S
H796 C782 0.961 . S
H797 C783 0.958 . S
H798 C783 0.961 . S
H799 C783 0.960 . S
C800 C801 1.391 . S
C800 C802 1.394 . S
C800 H816 0.931 . S
C801 C800 1.391 . S
C801 C805 1.376 . S
C802 C800 1.394 . S
C802 C803 1.369 . S
C802 C806 1.531 . S
C803 C802 1.369 . S
C803 C804 1.410 . S
C803 C811 1.503 . S
C804 C803 1.410 . S
C804 C805 1.392 . S
C804 C807 1.511 . S
C805 C801 1.376 . S
C805 C804 1.392 . S
C805 H817 0.929 . S
C806 C802 1.531 . S
C806 H818 0.960 . S
C806 H819 0.962 . S
C806 H820 0.960 . S
C807 C804 1.511 . S
C807 H821 0.961 . S
C807 H822 0.961 1_554 S
C807 H823 0.961 . S
C808 C809 1.370 . S
C808 C810 1.363 . S
C808 H824 0.931 . S
C809 C808 1.370 . S
C809 C813 1.408 . S
C810 C808 1.363 . S
C810 C811 1.370 1_556 S
C810 C814 1.524 . S
C811 C803 1.503 . S
C811 C810 1.370 1_554 S
C811 C812 1.403 . S
C812 C811 1.403 . S
C812 C813 1.404 1_554 S
C812 C815 1.539 . S
C813 C809 1.408 . S
C813 C812 1.404 1_556 S
C813 H825 0.930 . S
C814 C810 1.524 . S
C814 H826 0.956 . S
C814 H827 0.961 . S
C814 H828 0.961 . S
C815 C812 1.539 . S
C815 H829 0.958 . S
C815 H830 0.961 . S
C815 H831 0.960 . S
H816 C800 0.931 . S
H817 C805 0.929 . S
H818 C806 0.960 . S
H819 C806 0.962 . S
H820 C806 0.960 . S
H821 C807 0.961 . S
H822 C807 0.961 1_556 S
H823 C807 0.961 . S
H824 C808 0.931 . S
H825 C813 0.930 . S
H826 C814 0.956 . S
H827 C814 0.961 . S
H828 C814 0.961 . S
H829 C815 0.958 . S
H830 C815 0.961 . S
H831 C815 0.960 . S
C832 C833 1.391 . S
C832 C834 1.394 . S
C832 H848 0.931 . S
C833 C832 1.391 . S
C833 C837 1.376 . S
C834 C832 1.394 . S
C834 C835 1.369 . S
C834 C838 1.531 . S
C835 C834 1.369 . S
C835 C836 1.410 . S
C835 C843 1.503 1_554 S
C836 C835 1.410 . S
C836 C837 1.392 . S
C836 C839 1.511 1_554 S
C837 C833 1.376 . S
C837 C836 1.392 . S
C837 H849 0.929 . S
C838 C834 1.531 . S
C838 H850 0.960 . S
C838 H851 0.962 . S
C838 H852 0.960 . S
C839 C836 1.511 1_556 S
C839 H853 0.961 . S
C839 H854 0.961 . S
C839 H855 0.961 . S
C840 C841 1.370 . S
C840 C842 1.363 . S
C840 H856 0.931 . S
C841 C840 1.370 . S
C841 C845 1.408 . S
C842 C840 1.363 . S
C842 C843 1.370 . S
C842 C846 1.524 1_556 S
C843 C835 1.503 1_556 S
C843 C842 1.370 . S
C843 C844 1.403 . S
C844 C843 1.403 . S
C844 C845 1.404 . S
C844 C847 1.539 . S
C845 C841 1.408 . S
C845 C844 1.404 . S
C845 H857 0.930 . S
C846 C842 1.524 1_554 S
C846 H858 0.956 . S
C846 H859 0.961 . S
C846 H860 0.961 . S
C847 C844 1.539 . S
C847 H861 0.958 . S
C847 H862 0.961 . S
C847 H863 0.960 . S
H848 C832 0.931 . S
H849 C837 0.929 . S
H850 C838 0.960 . S
H851 C838 0.962 . S
H852 C838 0.960 . S
H853 C839 0.961 . S
H854 C839 0.961 . S
H855 C839 0.961 . S
H856 C840 0.931 . S
H857 C845 0.930 . S
H858 C846 0.956 . S
H859 C846 0.961 . S
H860 C846 0.961 . S
H861 C847 0.958 . S
H862 C847 0.961 . S
H863 C847 0.960 . S
C864 C865 1.391 . S
C864 C866 1.394 . S
C864 H880 0.931 . S
C865 C864 1.391 . S
C865 C869 1.376 . S
C866 C864 1.394 . S
C866 C867 1.369 . S
C866 C870 1.531 . S
C867 C866 1.369 . S
C867 C868 1.410 . S
C867 C875 1.503 . S
C868 C867 1.410 . S
C868 C869 1.392 . S
C868 C871 1.511 1_655 S
C869 C865 1.376 . S
C869 C868 1.392 . S
C869 H881 0.929 . S
C870 C866 1.531 . S
C870 H882 0.960 . S
C870 H883 0.962 . S
C870 H884 0.960 . S
C871 C868 1.511 1_455 S
C871 H885 0.961 . S
C871 H886 0.961 . S
C871 H887 0.961 . S
C872 C873 1.370 . S
C872 C874 1.363 . S
C872 H888 0.931 . S
C873 C872 1.370 . S
C873 C877 1.408 1_655 S
C874 C872 1.363 . S
C874 C875 1.370 . S
C874 C878 1.524 . S
C875 C867 1.503 . S
C875 C874 1.370 . S
C875 C876 1.403 1_655 S
C876 C875 1.403 1_455 S
C876 C877 1.404 . S
C876 C879 1.539 . S
C877 C873 1.408 1_455 S
C877 C876 1.404 . S
C877 H889 0.930 . S
C878 C874 1.524 . S
C878 H890 0.956 . S
C878 H891 0.961 . S
C878 H892 0.961 . S
C879 C876 1.539 . S
C879 H893 0.958 . S
C879 H894 0.961 . S
C879 H895 0.960 . S
H880 C864 0.931 . S
H881 C869 0.929 . S
H882 C870 0.960 . S
H883 C870 0.962 . S
H884 C870 0.960 . S
H885 C871 0.961 . S
H886 C871 0.961 . S
H887 C871 0.961 . S
H888 C872 0.931 . S
H889 C877 0.930 . S
H890 C878 0.956 . S
H891 C878 0.961 . S
H892 C878 0.961 . S
H893 C879 0.958 . S
H894 C879 0.961 . S
H895 C879 0.960 . S
C896 C897 1.367 1_565 S
C896 C898 1.394 . S
C896 H912 0.931 . S
C897 C896 1.367 1_545 S
C897 C901 1.403 . S
C898 C896 1.394 . S
C898 C899 1.334 1_565 S
C898 C902 1.531 . S
C899 C898 1.334 1_545 S
C899 C900 1.443 . S
C899 C907 1.505 1_545 S
C900 C899 1.443 . S
C900 C901 1.392 . S
C900 C903 1.511 . S
C901 C897 1.403 . S
C901 C900 1.392 . S
C901 H913 0.929 . S
C902 C898 1.531 . S
C902 H914 0.960 . S
C902 H915 0.962 . S
C902 H916 0.960 . S
C903 C900 1.511 . S
C903 H917 0.961 . S
C903 H918 0.961 . S
C903 H919 0.961 . S
C904 C905 1.370 . S
C904 C906 1.363 . S
C904 H920 0.931 . S
C905 C904 1.370 . S
C905 C909 1.408 1_565 S
C906 C904 1.363 . S
C906 C907 1.378 . S
C906 C910 1.524 . S
C907 C899 1.505 1_565 S
C907 C906 1.378 . S
C907 C908 1.395 1_565 S
C908 C907 1.395 1_545 S
C908 C909 1.404 . S
C908 C911 1.539 . S
C909 C905 1.408 1_545 S
C909 C908 1.404 . S
C909 H921 0.930 . S
C910 C906 1.524 . S
C910 H922 0.956 . S
C910 H923 0.961 . S
C910 H924 0.961 . S
C911 C908 1.539 . S
C911 H925 0.958 . S
C911 H926 0.961 . S
C911 H927 0.960 . S
H912 C896 0.931 . S
H913 C901 0.929 . S
H914 C902 0.960 . S
H915 C902 0.962 . S
H916 C902 0.960 . S
H917 C903 0.961 . S
H918 C903 0.961 . S
H919 C903 0.961 . S
H920 C904 0.931 . S
H921 C909 0.930 . S
H922 C910 0.956 . S
H923 C910 0.961 . S
H924 C910 0.961 . S
H925 C911 0.958 . S
H926 C911 0.961 . S
H927 C911 0.960 . S
C928 C929 1.391 . S
C928 C930 1.394 . S
C928 H944 0.931 . S
C929 C928 1.391 . S
C929 C933 1.376 . S
C930 C928 1.394 . S
C930 C931 1.369 . S
C930 C934 1.531 . S
C931 C930 1.369 . S
C931 C932 1.410 . S
C931 C939 1.503 . S
C932 C931 1.410 . S
C932 C933 1.392 . S
C932 C935 1.511 . S
C933 C929 1.376 . S
C933 C932 1.392 . S
C933 H945 0.929 . S
C934 C930 1.531 . S
C934 H946 0.960 . S
C934 H947 0.962 . S
C934 H948 0.960 . S
C935 C932 1.511 . S
C935 H949 0.961 . S
C935 H950 0.961 . S
C935 H951 0.961 . S
C936 C937 1.370 . S
C936 C938 1.363 . S
C936 H952 0.931 . S
C937 C936 1.370 . S
C937 C941 1.408 . S
C938 C936 1.363 . S
C938 C939 1.370 . S
C938 C942 1.524 . S
C939 C931 1.503 . S
C939 C938 1.370 . S
C939 C940 1.403 . S
C940 C939 1.403 . S
C940 C941 1.404 . S
C940 C943 1.539 . S
C941 C937 1.408 . S
C941 C940 1.404 . S
C941 H953 0.930 . S
C942 C938 1.524 . S
C942 H954 0.956 . S
C942 H955 0.961 . S
C942 H956 0.961 . S
C943 C940 1.539 . S
C943 H957 0.958 . S
C943 H958 0.961 . S
C943 H959 0.960 . S
H944 C928 0.931 . S
H945 C933 0.929 . S
H946 C934 0.960 . S
H947 C934 0.962 . S
H948 C934 0.960 . S
H949 C935 0.961 . S
H950 C935 0.961 . S
H951 C935 0.961 . S
H952 C936 0.931 . S
H953 C941 0.930 . S
H954 C942 0.956 . S
H955 C942 0.961 . S
H956 C942 0.961 . S
H957 C943 0.958 . S
H958 C943 0.961 . S
H959 C943 0.960 . S
C960 C961 1.391 . S
C960 C962 1.394 . S
C960 H976 0.931 . S
C961 C960 1.391 . S
C961 C965 1.376 . S
C962 C960 1.394 . S
C962 C963 1.369 . S
C962 C966 1.531 . S
C963 C962 1.369 . S
C963 C964 1.410 . S
C963 C971 1.503 . S
C964 C963 1.410 . S
C964 C965 1.392 . S
C964 C967 1.511 . S
C965 C961 1.376 . S
C965 C964 1.392 . S
C965 H977 0.929 . S
C966 C962 1.531 . S
C966 H978 0.960 . S
C966 H979 0.962 . S
C966 H980 0.960 . S
C967 C964 1.511 . S
C967 H981 0.961 . S
C967 H982 0.961 . S
C967 H983 0.961 . S
C968 C969 1.370 . S
C968 C970 1.363 . S
C968 H984 0.931 . S
C969 C968 1.370 . S
C969 C973 1.408 . S
C970 C968 1.363 . S
C970 C971 1.370 . S
C970 C974 1.524 . S
C971 C963 1.503 . S
C971 C970 1.370 . S
C971 C972 1.403 . S
C972 C971 1.403 . S
C972 C973 1.404 . S
C972 C975 1.539 . S
C973 C969 1.408 . S
C973 C972 1.404 . S
C973 H985 0.930 . S
C974 C970 1.524 . S
C974 H986 0.956 . S
C974 H987 0.961 . S
C974 H988 0.961 . S
C975 C972 1.539 . S
C975 H989 0.958 . S
C975 H990 0.961 . S
C975 H991 0.960 . S
H976 C960 0.931 . S
H977 C965 0.929 . S
H978 C966 0.960 . S
H979 C966 0.962 . S
H980 C966 0.960 . S
H981 C967 0.961 . S
H982 C967 0.961 . S
H983 C967 0.961 . S
H984 C968 0.931 . S
H985 C973 0.930 . S
H986 C974 0.956 . S
H987 C974 0.961 . S
H988 C974 0.961 . S
H989 C975 0.958 . S
H990 C975 0.961 . S
H991 C975 0.960 . S
C225 C76 1.828 . S
C233 C105 1.876 . S
C265 C126 1.541 . S
C257 C87 1.515 . S
C297 C160 1.384 . S
C289 C54 1.309 . S
C329 C194 1.539 . S
C321 C65 1.532 . S
C361 C96 1.875 . S
C353 C32 1.835 1_546 S
C385 C43 1.537 . S
C393 C135 1.546 . S
C417 C10 1.333 . S
C425 C169 1.376 . S
C449 C21 1.511 . S
C457 C203 1.548 1_655 S
C489 C117 0.519 . S
C481 C60 0.483 . S
C521 C122 0.972 . S
C513 C71 0.979 . S
C553 C156 0.905 . S
C545 C82 0.847 . S
C577 C49 0.478 . S
C585 C190 0.389 . S
C609 C16 0.654 . S
C617 C88 0.497 . S
C649 C151 0.973 . S
C641 C27 0.979 1_566 S
C681 C185 0.911 . S
C673 C38 0.848 . S
C705 C5 0.467 . S
C713 C219 0.392 . S
C737 C59 1.316 . S
C745 C101 1.318 . S
C769 C70 1.681 . S
C777 C130 1.760 . S
C809 C164 1.548 . S
C801 C81 1.490 . S
C841 C198 1.611 . S
C833 C48 1.574 . S
C865 C15 1.295 . S
C873 C92 1.322 . S
C905 C139 1.758 . S
C897 C26 1.728 . S
C937 C173 1.548 . S
C929 C37 1.526 . S
C961 C4 1.548 . S
C969 C207 1.611 . S
