# Generated by pormake.
# Topology rtl, (3,6)-cn, num edge types: 1
# Building blocks:
#     Node 0, Type 0, BuildingBlock: CUQRIR_clean_linker_1, # of connection points: 3
#     Node 1, Type 0, BuildingBlock: CUQRIR_clean_linker_1, # of connection points: 3
#     Node 2, Type 0, BuildingBlock: CUQRIR_clean_linker_1, # of connection points: 3
#     Node 3, Type 0, BuildingBlock: CUQRIR_clean_linker_1, # of connection points: 3
#     Node 4, Type 1, BuildingBlock: FUNLAD_clean_sbu_0, # of connection points: 6
#     Node 5, Type 1, BuildingBlock: FUNLAD_clean_sbu_0, # of connection points: 6
#     Edge 6, Type (0, 1), BuildingBlock: XUDNAN_clean_linker_2, # of connection points: 2
#     Edge 7, Type (0, 1), BuildingBlock: XUDNAN_clean_linker_2, # of connection points: 2
#     Edge 8, Type (0, 1), BuildingBlock: XUDNAN_clean_linker_2, # of connection points: 2
#     Edge 9, Type (0, 1), BuildingBlock: XUDNAN_clean_linker_2, # of connection points: 2
#     Edge 10, Type (0, 1), BuildingBlock: XUDNAN_clean_linker_2, # of connection points: 2
#     Edge 11, Type (0, 1), BuildingBlock: XUDNAN_clean_linker_2, # of connection points: 2
#     Edge 12, Type (0, 1), BuildingBlock: XUDNAN_clean_linker_2, # of connection points: 2
#     Edge 13, Type (0, 1), BuildingBlock: XUDNAN_clean_linker_2, # of connection points: 2
#     Edge 14, Type (0, 1), BuildingBlock: XUDNAN_clean_linker_2, # of connection points: 2
#     Edge 15, Type (0, 1), BuildingBlock: XUDNAN_clean_linker_2, # of connection points: 2
#     Edge 16, Type (0, 1), BuildingBlock: XUDNAN_clean_linker_2, # of connection points: 2
#     Edge 17, Type (0, 1), BuildingBlock: XUDNAN_clean_linker_2, # of connection points: 2
# Relax obj value: 0.002
# Max RMSD: 0.037
# Mean RMSD: 0.031
data_MOF--net-rtl--node1-FUNLAD_clean_sbu_0--node2-CUQRIR_clean_linker_1--edge1-XUDNAN_clean_linker_2
_symmetry_space_group_name_H-M    P1
_symmetry_Int_Tables_number       1
_symmetry_cell_setting            triclinic
loop_
_symmetry_equiv_pos_as_xyz
'x, y, z'
_cell_length_a     37.632819
_cell_length_b     37.619362
_cell_length_c     18.980765
_cell_angle_alpha  90.120937
_cell_angle_beta   91.055932
_cell_angle_gamma 89.96774
loop_
_atom_site_label
_atom_site_type_symbol
_atom_site_fract_x
_atom_site_fract_y
_atom_site_fract_z
_atom_type_partial_charge
C0 C 0.19494 0.81945 0.9631 0.0
N1 N 0.16679 0.83873 0.98511 0.0
N2 N 0.21249 0.80471 0.01886 0.0
C3 C 0.20728 0.81789 0.88822 0.0
C4 C 0.1941 0.81587 0.07543 0.0
N5 N 0.16658 0.83671 0.05496 0.0
C6 C 0.2023 0.80542 0.15044 0.0
H7 H 0.19264 0.79637 0.86013 0.0
H8 H 0.23615 0.81218 0.88589 0.0
H9 H 0.20158 0.84325 0.86049 0.0
H10 H 0.21947 0.82607 0.17528 0.0
H11 H 0.21652 0.7796 0.15274 0.0
H12 H 0.17754 0.80354 0.18107 0.0
C13 C 0.69787 0.69731 0.57707 0.0
N14 N 0.67712 0.66993 0.55564 0.0
N15 N 0.70943 0.71591 0.52102 0.0
C16 C 0.70763 0.70536 0.65264 0.0
C17 C 0.69502 0.69866 0.46455 0.0
N18 N 0.67553 0.67045 0.48567 0.0
C19 C 0.69707 0.71129 0.38963 0.0
H20 H 0.6868 0.72256 0.67542 0.0
H21 H 0.73344 0.71955 0.65651 0.0
H22 H 0.70921 0.68054 0.68404 0.0
H23 H 0.7173 0.69525 0.36201 0.0
H24 H 0.70473 0.73971 0.38696 0.0
H25 H 0.6712 0.70744 0.36165 0.0
C26 C 0.8022 0.18056 0.0642 0.0
N27 N 0.83098 0.16406 0.0373 0.0
N28 N 0.78393 0.19825 0.01295 0.0
C29 C 0.79413 0.1827 0.14153 0.0
C30 C 0.80287 0.19221 0.95408 0.0
N31 N 0.83153 0.17166 0.96899 0.0
C32 C 0.79269 0.20513 0.88156 0.0
H33 H 0.77756 0.15954 0.15598 0.0
H34 H 0.77936 0.20737 0.15403 0.0
H35 H 0.81892 0.18198 0.17405 0.0
H36 H 0.80606 0.23092 0.87208 0.0
H37 H 0.76354 0.20909 0.87644 0.0
H38 H 0.80146 0.18602 0.84078 0.0
C39 C 0.32195 0.3072 0.45013 0.0
N40 N 0.34217 0.33587 0.46623 0.0
N41 N 0.31537 0.28801 0.50878 0.0
C42 C 0.30994 0.29725 0.37669 0.0
C43 C 0.33248 0.30613 0.56114 0.0
N44 N 0.3491 0.33508 0.53509 0.0
C45 C 0.32962 0.29776 0.63838 0.0
H46 H 0.28425 0.3106 0.36466 0.0
H47 H 0.30617 0.2681 0.37171 0.0
H48 H 0.32951 0.30623 0.33748 0.0
H49 H 0.35252 0.28094 0.65481 0.0
H50 H 0.30474 0.28312 0.64923 0.0
H51 H 0.33022 0.32241 0.67057 0.0
C52 C 0.03498 0.96446 0.41583 0.0
N53 N 0.07139 0.0602 0.50765 0.0
C54 C 0.10426 0.04517 0.50669 0.0
C55 C 0.13466 0.0664 0.50837 0.0
C56 C 0.13142 0.10359 0.51232 0.0
C57 C 0.09707 0.11838 0.51233 0.0
C58 C 0.06733 0.09613 0.50957 0.0
Zn59 Zn 0.02791 0.02744 0.51049 0.0
C60 C 0.97351 0.0461 0.4025 0.0
N61 N 0.93846 0.95767 0.51997 0.0
C62 C 0.94395 0.92203 0.52569 0.0
C63 C 0.90503 0.97134 0.51545 0.0
C64 C 0.87548 0.94888 0.51667 0.0
C65 C 0.88031 0.91194 0.52286 0.0
C66 C 0.91518 0.89862 0.52735 0.0
Zn67 Zn 0.98143 0.99099 0.51668 0.0
O68 O 0.05207 0.9916 0.43777 0.0
C69 C 0.03708 0.97363 0.62465 0.0
O70 O 1.00456 0.95793 0.44053 0.0
H71 H 0.90125 0.99974 0.51066 0.0
H72 H 0.10701 0.01657 0.50551 0.0
H73 H 0.97075 0.91168 0.5291 0.0
O74 O 0.05101 1.00066 0.59642 0.0
O75 O 0.00758 0.9618 0.60055 0.0
H76 H 0.04097 0.10758 0.51025 0.0
O77 O 0.95838 0.02475 0.5931 0.0
O78 O 1.00251 0.06241 0.58259 0.0
O79 O 0.95668 0.02107 0.43237 0.0
O80 O 1.00441 0.0543 0.4251 0.0
C81 C 0.97328 0.05386 0.61064 0.0
H82 H 0.16044 0.05366 0.50673 0.0
H83 H 0.09308 0.14681 0.51622 0.0
H84 H 0.84915 0.96036 0.5121 0.0
H85 H 0.92024 0.87043 0.53322 0.0
C86 C 0.46763 0.47706 0.90083 0.0
N87 N 0.55545 0.44161 0.02386 0.0
C88 C 0.54079 0.40864 0.01868 0.0
C89 C 0.56222 0.37836 0.022 0.0
C90 C 0.59921 0.38186 0.03139 0.0
C91 C 0.61358 0.41629 0.03685 0.0
C92 C 0.59115 0.4459 0.0327 0.0
Zn93 Zn 0.5227 0.48509 0.01707 0.0
C94 C 0.54931 0.53837 0.91523 0.0
N95 N 0.45315 0.57475 1.00094 0.0
C96 C 0.41735 0.56965 0.99873 0.0
C97 C 0.46723 0.60804 1.00176 0.0
C98 C 0.44506 0.63783 1.00181 0.0
C99 C 0.40795 0.63342 1.00178 0.0
C100 C 0.39419 0.59869 0.99937 0.0
Zn101 Zn 0.48631 0.53163 1.00737 0.0
O102 O 0.49258 0.4602 0.93241 0.0
C103 C 0.45981 0.47743 0.10862 0.0
O104 O 0.45957 0.50803 0.92185 0.0
H105 H 0.49576 0.61154 1.00347 0.0
H106 H 0.51235 0.40577 0.01163 0.0
H107 H 0.40666 0.54297 0.99796 0.0
O108 O 0.4889 0.46246 0.09298 0.0
O109 O 0.45128 0.50655 0.0789 0.0
H110 H 0.60228 0.47234 0.03663 0.0
O111 O 0.51307 0.55494 0.09356 0.0
O112 O 0.55195 0.51147 0.1011 0.0
O113 O 0.52219 0.55557 0.93543 0.0
O114 O 0.55587 0.50795 0.94132 0.0
C115 C 0.54013 0.54107 0.12346 0.0
H116 H 0.54989 0.3525 0.0163 0.0
H117 H 0.64183 0.4204 0.04509 0.0
H118 H 0.45695 0.66403 1.00238 0.0
H119 H 0.36585 0.59385 1.0002 0.0
H120 H 0.24818 0.279 0.45814 0.0
H121 H 0.33354 0.22663 0.57345 0.0
H122 H 0.29568 0.17329 0.58745 0.0
H123 H 0.17613 0.24478 0.55647 0.0
H124 H 0.14683 0.23911 0.48109 0.0
H125 H 0.18061 0.273 0.48049 0.0
H126 H 0.20577 0.24669 0.36535 0.0
H127 H 0.1719 0.21287 0.36532 0.0
H128 H 0.21811 0.20041 0.36238 0.0
H129 H 0.24773 0.12686 0.59189 0.0
H130 H 0.19432 0.08928 0.5828 0.0
H131 H 0.14161 0.17048 0.45616 0.0
C132 C 0.25895 0.25608 0.48547 0.0
C133 C 0.29366 0.2567 0.51486 0.0
C134 C 0.30683 0.22655 0.55129 0.0
C135 C 0.2856 0.19624 0.55918 0.0
C136 C 0.2514 0.19648 0.52967 0.0
C137 C 0.23825 0.2255 0.49304 0.0
C138 C 0.20073 0.21884 0.46594 0.0
C139 C 0.17454 0.24552 0.49793 0.0
C140 C 0.19904 0.21975 0.38494 0.0
C141 C 0.1947 0.18163 0.49357 0.0
C142 C 0.2242 0.1693 0.53039 0.0
C143 C 0.22463 0.13605 0.56239 0.0
C144 C 0.19416 0.11475 0.55639 0.0
C145 C 0.16365 0.12657 0.51806 0.0
C146 C 0.1642 0.16058 0.48631 0.0
H147 H 0.22686 0.74343 0.94981 0.0
H148 H 0.27239 0.82308 0.0893 0.0
H149 H 0.32865 0.78899 0.09634 0.0
H150 H 0.26531 0.6683 0.03455 0.0
H151 H 0.27348 0.64396 0.95456 0.0
H152 H 0.23755 0.67552 0.95746 0.0
H153 H 0.26325 0.70884 0.85046 0.0
H154 H 0.2992 0.67725 0.84701 0.0
H155 H 0.30865 0.7241 0.85412 0.0
H156 H 0.37823 0.74489 0.09338 0.0
H157 H 0.41871 0.69401 0.07996 0.0
H158 H 0.34205 0.64345 0.93816 0.0
C159 C 0.24897 0.7537 0.98096 0.0
C160 C 0.24559 0.78562 0.01937 0.0
C161 C 0.27467 0.79842 0.06024 0.0
C162 C 0.30663 0.77936 0.0642 0.0
C163 C 0.30906 0.74767 0.02651 0.0
C164 C 0.28112 0.73496 0.98536 0.0
C165 C 0.29044 0.69964 0.95183 0.0
C166 C 0.26519 0.67012 0.97607 0.0
C167 C 0.29039 0.70265 0.87106 0.0
C168 C 0.32773 0.69426 0.98145 0.0
C169 C 0.33797 0.72236 0.02411 0.0
C170 C 0.37074 0.72294 0.05931 0.0
C171 C 0.39368 0.69394 0.05092 0.0
C172 C 0.38386 0.6647 1.00747 0.0
C173 C 0.35041 0.66518 0.97206 0.0
H174 H 0.77251 0.73038 0.461 0.0
H175 H 0.68872 0.77589 0.58561 0.0
H176 H 0.72245 0.83224 0.59617 0.0
H177 H 0.84463 0.7687 0.55733 0.0
H178 H 0.87168 0.77683 0.48166 0.0
H179 H 0.84003 0.74095 0.48014 0.0
H180 H 0.81051 0.76671 0.36686 0.0
H181 H 0.84224 0.80257 0.36778 0.0
H182 H 0.7953 0.81216 0.36634 0.0
H183 H 0.76644 0.88208 0.59821 0.0
H184 H 0.81755 0.92278 0.59098 0.0
H185 H 0.87282 0.8455 0.46256 0.0
C186 C 0.76128 0.75253 0.48952 0.0
C187 C 0.72822 0.74917 0.52265 0.0
C188 C 0.71417 0.77825 0.56037 0.0
C189 C 0.73305 0.81023 0.56637 0.0
C190 C 0.7659 0.81264 0.53406 0.0
C191 C 0.77988 0.78467 0.49609 0.0
C192 C 0.81628 0.7939 0.46859 0.0
C193 C 0.84483 0.76859 0.49875 0.0
C194 C 0.81605 0.79384 0.38758 0.0
C195 C 0.82074 0.83119 0.49783 0.0
C196 C 0.79129 0.84153 0.5351 0.0
C197 C 0.78952 0.87446 0.5685 0.0
C198 C 0.81864 0.8975 0.56375 0.0
C199 C 0.84923 0.88754 0.52589 0.0
C200 C 0.85003 0.8539 0.49236 0.0
H201 H 0.77482 0.2663 0.96951 0.0
H202 H 0.72264 0.17895 0.07363 0.0
H203 H 0.66936 0.21656 0.09075 0.0
H204 H 0.74102 0.33627 0.07639 0.0
H205 H 0.73527 0.36722 1.00472 0.0
H206 H 0.76905 0.3334 1.00057 0.0
H207 H 0.74245 0.31091 0.88172 0.0
H208 H 0.70874 0.34486 0.88521 0.0
H209 H 0.69613 0.29884 0.87607 0.0
H210 H 0.62274 0.26431 0.09897 0.0
H211 H 0.58493 0.3178 0.09432 0.0
H212 H 0.66648 0.37318 0.97836 0.0
C213 C 0.75195 0.25509 0.99506 0.0
C214 C 0.75259 0.21984 0.02037 0.0
C215 C 0.72251 0.20604 0.05453 0.0
C216 C 0.69224 0.22714 0.06421 0.0
C217 C 0.69248 0.26191 0.03892 0.0
C218 C 0.72144 0.27572 1.0046 0.0
C219 C 0.71482 0.31381 0.98219 0.0
C220 C 0.74164 0.33916 0.01813 0.0
C221 C 0.71557 0.3173 0.90151 0.0
C222 C 0.67769 0.31937 0.00969 0.0
C223 C 0.66534 0.28915 0.04238 0.0
C224 C 0.63199 0.28803 0.07288 0.0
C225 C 0.6106 0.31855 0.06953 0.0
C226 C 0.62247 0.3498 0.03551 0.0
C227 C 0.6566 0.34999 1.00539 0.0
H228 H 0.18093 0.88451 0.15798 0.0
H229 H 0.09581 0.82701 0.05244 0.0
H230 H 0.05235 0.85333 0.13455 0.0
H231 H 0.1494 0.87693 0.33338 0.0
H232 H 0.1625 0.92116 0.35969 0.0
H233 H 0.18652 0.89822 0.29211 0.0
H234 H 0.17502 0.95059 0.20615 0.0
H235 H 0.15114 0.97381 0.27359 0.0
H236 H 0.13008 0.96531 0.18915 0.0
H237 H 0.01944 0.88292 0.23248 0.0
H238 H 0.99749 0.91852 0.33184 0.0
H239 H 0.10391 0.95958 0.37046 0.0
C240 C 0.15308 0.87767 0.15254 0.0
C241 C 0.14135 0.85364 0.09996 0.0
C242 C 0.10488 0.84541 0.09286 0.0
C243 C 0.08023 0.86011 0.13922 0.0
C244 C 0.09266 0.88332 0.19151 0.0
C245 C 0.12814 0.89251 0.19775 0.0
C246 C 0.13446 0.91856 0.25767 0.0
C247 C 0.15971 0.90276 0.31404 0.0
C248 C 0.1485 0.95418 0.22997 0.0
C249 C 0.09705 0.92226 0.28485 0.0
C250 C 0.07343 0.90148 0.24626 0.0
C251 C 0.0376 0.89955 0.26267 0.0
C252 C 0.02544 0.91974 0.31946 0.0
C253 C 0.04897 0.94191 0.35876 0.0
C254 C 0.08526 0.94306 0.34112 0.0
H255 H 0.62889 0.68418 0.6555 0.0
H256 H 0.68647 0.59908 0.55495 0.0
H257 H 0.65999 0.55555 0.63703 0.0
H258 H 0.63658 0.65265 0.83173 0.0
H259 H 0.59239 0.66576 0.85613 0.0
H260 H 0.61518 0.68977 0.78853 0.0
H261 H 0.5627 0.67826 0.70112 0.0
H262 H 0.53962 0.65442 0.76859 0.0
H263 H 0.54798 0.63332 0.68516 0.0
H264 H 0.6305 0.52262 0.73505 0.0
H265 H 0.59514 0.50076 0.83411 0.0
H266 H 0.55412 0.60724 0.86762 0.0
C267 C 0.63567 0.65631 0.65105 0.0
C268 C 0.65979 0.64462 0.59998 0.0
C269 C 0.66797 0.60812 0.59419 0.0
C270 C 0.6532 0.58344 0.64056 0.0
C271 C 0.62996 0.59585 0.6915 0.0
C272 C 0.62078 0.63135 0.6963 0.0
C273 C 0.59484 0.63769 0.75511 0.0
C274 C 0.61071 0.66296 0.81119 0.0
C275 C 0.55917 0.65174 0.72573 0.0
C276 C 0.59121 0.60029 0.78341 0.0
C277 C 0.61191 0.57664 0.74628 0.0
C278 C 0.61392 0.54081 0.76406 0.0
C279 C 0.59388 0.52871 0.82069 0.0
C280 C 0.57179 0.55228 0.85845 0.0
C281 C 0.57058 0.58856 0.83946 0.0
H282 H 0.82269 0.1088 0.12653 0.0
H283 H 0.90083 0.18006 0.04013 0.0
H284 H 0.94701 0.15445 0.1194 0.0
H285 H 0.85164 0.11659 0.30203 0.0
H286 H 0.84358 0.07096 0.32573 0.0
H287 H 0.81779 0.09132 0.25591 0.0
H288 H 0.83639 0.04138 0.16989 0.0
H289 H 0.86199 0.02061 0.23967 0.0
H290 H 0.8829 0.03207 0.15812 0.0
H291 H 0.98271 0.12584 0.21579 0.0
H292 H 0.00704 0.094 0.31902 0.0
H293 H 0.90549 0.04133 0.34579 0.0
C294 C 0.84975 0.11834 0.12361 0.0
C295 C 0.85854 0.14597 0.07681 0.0
C296 C 0.89395 0.15832 0.07451 0.0
C297 C 0.92019 0.14412 0.11971 0.0
C298 C 0.91047 0.11757 0.16675 0.0
C299 C 0.87619 0.10454 0.16867 0.0
C300 C 0.87227 0.0775 0.2272 0.0
C301 C 0.84469 0.08985 0.28089 0.0
C302 C 0.86284 0.0407 0.1969 0.0
C303 C 0.90954 0.07793 0.2589 0.0
C304 C 0.93113 0.10113 0.22291 0.0
C305 C 0.9662 0.1073 0.24387 0.0
C306 C 0.97971 0.08916 0.3029 0.0
C307 C 0.95822 0.06505 0.34059 0.0
C308 C 0.92266 0.05937 0.31791 0.0
H309 H 0.40383 0.3263 0.62792 0.0
H310 H 0.33313 0.40496 0.53585 0.0
H311 H 0.35883 0.45094 0.61498 0.0
H312 H 0.3962 0.35547 0.80261 0.0
H313 H 0.44179 0.34706 0.82824 0.0
H314 H 0.42117 0.32136 0.75862 0.0
H315 H 0.47115 0.33945 0.67378 0.0
H316 H 0.49215 0.36499 0.74335 0.0
H317 H 0.48075 0.38588 0.66059 0.0
H318 H 0.38772 0.4865 0.71102 0.0
H319 H 0.41989 0.51078 0.81431 0.0
H320 H 0.47192 0.40886 0.847 0.0
C321 C 0.39439 0.35342 0.62386 0.0
C322 C 0.36695 0.36244 0.57538 0.0
C323 C 0.35474 0.39791 0.57154 0.0
C324 C 0.36899 0.42403 0.61663 0.0
C325 C 0.39543 0.41413 0.66514 0.0
C326 C 0.40826 0.37975 0.66875 0.0
C327 C 0.43533 0.3757 0.72842 0.0
C328 C 0.42286 0.34828 0.78267 0.0
C329 C 0.47203 0.36594 0.69981 0.0
C330 C 0.43519 0.41302 0.75871 0.0
C331 C 0.41207 0.43472 0.72111 0.0
C332 C 0.40619 0.46989 0.74041 0.0
C333 C 0.42452 0.48337 0.79948 0.0
C334 C 0.44854 0.46177 0.83885 0.0
C335 C 0.45395 0.42611 0.81782 0.0
H336 H 0.69066 0.62686 0.37579 0.0
H337 H 0.60477 0.66956 0.49873 0.0
H338 H 0.561 0.63789 0.42271 0.0
H339 H 0.64746 0.63301 0.20836 0.0
H340 H 0.66479 0.59187 0.17428 0.0
H341 H 0.68955 0.61616 0.24063 0.0
H342 H 0.69081 0.56045 0.32058 0.0
H343 H 0.66606 0.53593 0.2544 0.0
H344 H 0.64964 0.53911 0.34281 0.0
H345 H 0.52688 0.60675 0.3286 0.0
H346 H 0.50344 0.57435 0.22482 0.0
H347 H 0.61085 0.54806 0.16381 0.0
C348 C 0.6626 0.62905 0.38665 0.0
C349 C 0.65076 0.65029 0.44301 0.0
C350 C 0.61404 0.65296 0.45617 0.0
C351 C 0.58914 0.6352 0.41323 0.0
C352 C 0.60151 0.61461 0.35772 0.0
C353 C 0.63734 0.61107 0.34455 0.0
C354 C 0.64322 0.58774 0.28037 0.0
C355 C 0.66238 0.60844 0.22249 0.0
C356 C 0.66364 0.55379 0.30078 0.0
C357 C 0.60507 0.57942 0.25872 0.0
C358 C 0.58156 0.59536 0.30421 0.0
C359 C 0.54496 0.59367 0.29322 0.0
C360 C 0.53193 0.57535 0.23401 0.0
C361 C 0.55534 0.55851 0.18688 0.0
C362 C 0.59241 0.56018 0.19984 0.0
H363 H 0.84197 0.10471 0.92242 0.0
H364 H 0.8788 0.21303 0.90375 0.0
H365 H 0.92161 0.19429 0.81282 0.0
H366 H 0.92719 0.06021 0.89315 0.0
H367 H 0.90734 0.02487 0.84168 0.0
H368 H 0.88221 0.04646 0.90944 0.0
H369 H 0.83248 0.06119 0.81782 0.0
H370 H 0.85752 0.03986 0.74973 0.0
H371 H 0.84342 0.08537 0.73923 0.0
H372 H 0.95923 0.16368 0.72252 0.0
H373 H 0.98705 0.12431 0.63481 0.0
H374 H 0.92275 0.03632 0.70698 0.0
C375 C 0.8596 0.12413 0.89971 0.0
C376 C 0.85783 0.16011 0.92001 0.0
C377 C 0.88037 0.18532 0.88865 0.0
C378 C 0.90462 0.17488 0.8373 0.0
C379 C 0.90554 0.13917 0.81749 0.0
C380 C 0.88349 0.11419 0.84743 0.0
C381 C 0.88816 0.07803 0.81352 0.0
C382 C 0.90206 0.05079 0.86767 0.0
C383 C 0.85332 0.06539 0.77796 0.0
C384 C 0.91604 0.08661 0.75952 0.0
C385 C 0.92605 0.1219 0.76331 0.0
C386 C 0.95158 0.136 0.71901 0.0
C387 C 0.96724 0.11345 0.66939 0.0
C388 C 0.95693 0.07733 0.66375 0.0
C389 C 0.93098 0.06388 0.7096 0.0
H390 H 0.40914 0.34641 0.42268 0.0
H391 H 0.30093 0.38368 0.39901 0.0
H392 H 0.31973 0.42673 0.30799 0.0
H393 H 0.45391 0.43175 0.3928 0.0
H394 H 0.48911 0.41174 0.34319 0.0
H395 H 0.46755 0.3867 0.41103 0.0
H396 H 0.45256 0.33702 0.32048 0.0
H397 H 0.47382 0.36198 0.2523 0.0
H398 H 0.42826 0.34805 0.24073 0.0
H399 H 0.35025 0.46418 0.21757 0.0
H400 H 0.38949 0.49165 0.12997 0.0
H401 H 0.47741 0.42703 0.20742 0.0
C402 C 0.38978 0.36424 0.39896 0.0
C403 C 0.35382 0.36253 0.41781 0.0
C404 C 0.32865 0.38526 0.38506 0.0
C405 C 0.33912 0.40964 0.33366 0.0
C406 C 0.3748 0.41048 0.31523 0.0
C407 C 0.39975 0.38827 0.34663 0.0
C408 C 0.43585 0.39277 0.31383 0.0
C409 C 0.46322 0.40657 0.36847 0.0
C410 C 0.44834 0.35788 0.27981 0.0
C411 C 0.42725 0.42069 0.25867 0.0
C412 C 0.39202 0.4309 0.26099 0.0
C413 C 0.37789 0.45641 0.21525 0.0
C414 C 0.40036 0.47185 0.16569 0.0
C415 C 0.43641 0.46133 0.1616 0.0
C416 C 0.4499 0.43543 0.20888 0.0
H417 H 0.12323 0.82346 0.87345 0.0
H418 H 0.16478 0.90942 1.00245 0.0
H419 H 0.13256 0.95307 0.92775 0.0
H420 H 0.1293 0.86703 0.70906 0.0
H421 H 0.08847 0.84943 0.67216 0.0
H422 H 0.11274 0.82472 0.73843 0.0
H423 H 0.05675 0.8228 0.81571 0.0
H424 H 0.03224 0.84748 0.74957 0.0
H425 H 0.03492 0.86374 0.83891 0.0
H426 H 0.10142 0.98713 0.8339 0.0
H427 H 0.06944 0.01048 0.72941 0.0
H428 H 0.04438 0.90296 0.66209 0.0
C429 C 0.12499 0.85149 0.88599 0.0
C430 C 0.14609 0.8634 0.9436 0.0
C431 C 0.14827 0.90009 0.95891 0.0
C432 C 0.1302 0.92493 0.91674 0.0
C433 C 0.10982 0.9125 0.85984 0.0
C434 C 0.10672 0.87668 0.84465 0.0
C435 C 0.08372 0.87072 0.7791 0.0
C436 C 0.10482 0.85186 0.72127 0.0
C437 C 0.0499 0.84995 0.79691 0.0
C438 C 0.0751 0.90883 0.75897 0.0
C439 C 0.09058 0.93239 0.80642 0.0
C440 C 0.08867 0.969 0.79701 0.0
C441 C 0.0706 0.98199 0.7374 0.0
C442 C 0.05425 0.9585 0.6883 0.0
C443 C 0.05612 0.92143 0.69966 0.0
loop_
_geom_bond_atom_site_label_1
_geom_bond_atom_site_label_2
_geom_bond_distance
_geom_bond_site_symmetry_2
_ccdc_geom_bond_type
C0 N1 1.317 . S
C0 N2 1.348 1_556 S
C0 C3 1.485 . S
N1 C0 1.317 . S
N1 N5 1.370 1_556 S
N2 C0 1.348 1_554 S
N2 C4 1.346 . S
C3 C0 1.485 . S
C3 H7 0.960 . S
C3 H8 0.961 . S
C3 H9 0.960 . S
C4 N2 1.346 . S
C4 N5 1.307 . S
C4 C6 1.486 . S
N5 N1 1.370 1_554 S
N5 C4 1.307 . S
C6 C4 1.486 . S
C6 H10 0.960 . S
C6 H11 0.960 . S
C6 H12 0.959 . S
H7 C3 0.960 . S
H8 C3 0.961 . S
H9 C3 0.960 . S
H10 C6 0.960 . S
H11 C6 0.960 . S
H12 C6 0.959 . S
C13 N14 1.317 . S
C13 N15 1.348 . S
C13 C16 1.485 . S
N14 C13 1.317 . S
N14 N18 1.370 . S
N15 C13 1.348 . S
N15 C17 1.346 . S
C16 C13 1.485 . S
C16 H20 0.960 . S
C16 H21 0.961 . S
C16 H22 0.960 . S
C17 N15 1.346 . S
C17 N18 1.307 . S
C17 C19 1.486 . S
N18 N14 1.370 . S
N18 C17 1.307 . S
C19 C17 1.486 . S
C19 H23 0.960 . S
C19 H24 0.960 . S
C19 H25 0.959 . S
H20 C16 0.960 . S
H21 C16 0.961 . S
H22 C16 0.960 . S
H23 C19 0.960 . S
H24 C19 0.960 . S
H25 C19 0.959 . S
C26 N27 1.317 . S
C26 N28 1.348 . S
C26 C29 1.485 . S
N27 C26 1.317 . S
N27 N31 1.370 1_554 S
N28 C26 1.348 . S
N28 C30 1.346 1_554 S
C29 C26 1.485 . S
C29 H33 0.960 . S
C29 H34 0.961 . S
C29 H35 0.960 . S
C30 N28 1.346 1_556 S
C30 N31 1.307 . S
C30 C32 1.486 . S
N31 N27 1.370 1_556 S
N31 C30 1.307 . S
C32 C30 1.486 . S
C32 H36 0.960 . S
C32 H37 0.960 . S
C32 H38 0.959 . S
H33 C29 0.960 . S
H34 C29 0.961 . S
H35 C29 0.960 . S
H36 C32 0.960 . S
H37 C32 0.960 . S
H38 C32 0.959 . S
C39 N40 1.317 . S
C39 N41 1.348 . S
C39 C42 1.485 . S
N40 C39 1.317 . S
N40 N44 1.370 . S
N41 C39 1.348 . S
N41 C43 1.346 . S
C42 C39 1.485 . S
C42 H46 0.960 . S
C42 H47 0.961 . S
C42 H48 0.960 . S
C43 N41 1.346 . S
C43 N44 1.307 . S
C43 C45 1.486 . S
N44 N40 1.370 . S
N44 C43 1.307 . S
C45 C43 1.486 . S
C45 H49 0.960 . S
C45 H50 0.960 . S
C45 H51 0.959 . S
H46 C42 0.960 . S
H47 C42 0.961 . S
H48 C42 0.960 . S
H49 C45 0.960 . S
H50 C45 0.960 . S
H51 C45 0.959 . S
C52 O68 1.251 . S
C52 O70 1.254 . S
N53 C54 1.333 . S
N53 C58 1.307 . S
N53 Zn59 2.020 . S
C54 N53 1.333 . S
C54 C55 1.379 . S
C54 H72 0.952 . S
C55 C54 1.379 . S
C55 C56 1.390 . S
C55 H82 0.949 . S
C56 C55 1.390 . S
C56 C57 1.357 . S
C57 C56 1.357 . S
C57 C58 1.370 . S
C57 H83 0.950 . S
C58 N53 1.307 . S
C58 C57 1.370 . S
C58 H76 0.948 . S
Zn59 N53 2.020 . S
Zn59 O68 2.039 1_545 S
Zn59 O74 2.034 1_545 S
Zn59 O78 2.025 1_455 S
Zn59 O80 2.024 1_455 S
C60 O79 1.246 . S
C60 O80 1.249 . S
N61 C62 1.307 . S
N61 C63 1.333 . S
N61 Zn67 2.020 . S
C62 N61 1.307 . S
C62 C66 1.370 . S
C62 H73 0.948 . S
C63 N61 1.333 . S
C63 C64 1.379 . S
C63 H71 0.952 . S
C64 C63 1.379 . S
C64 C65 1.390 . S
C64 H84 0.949 . S
C65 C64 1.390 . S
C65 C66 1.357 . S
C66 C62 1.370 . S
C66 C65 1.357 . S
C66 H85 0.950 . S
Zn67 N61 2.020 . S
Zn67 O70 2.025 1_655 S
Zn67 O75 2.024 1_655 S
Zn67 O77 2.039 1_565 S
Zn67 O79 2.034 1_565 S
O68 C52 1.251 . S
O68 Zn59 2.039 1_565 S
C69 O74 1.246 . S
C69 O75 1.249 . S
O70 C52 1.254 . S
O70 Zn67 2.025 1_455 S
H71 C63 0.952 . S
H72 C54 0.952 . S
H73 C62 0.948 . S
O74 Zn59 2.034 1_565 S
O74 C69 1.246 . S
O75 Zn67 2.024 1_455 S
O75 C69 1.249 . S
H76 C58 0.948 . S
O77 Zn67 2.039 1_545 S
O77 C81 1.251 . S
O78 Zn59 2.025 1_655 S
O78 C81 1.254 . S
O79 C60 1.246 . S
O79 Zn67 2.034 1_545 S
O80 Zn59 2.024 1_655 S
O80 C60 1.249 . S
C81 O77 1.251 . S
C81 O78 1.254 . S
H82 C55 0.949 . S
H83 C57 0.950 . S
H84 C64 0.949 . S
H85 C66 0.950 . S
C86 O102 1.251 . S
C86 O104 1.254 . S
N87 C88 1.333 1_554 S
N87 C92 1.307 . S
N87 Zn93 2.020 . S
C88 N87 1.333 1_556 S
C88 C89 1.379 . S
C88 H106 0.952 . S
C89 C88 1.379 . S
C89 C90 1.390 1_556 S
C89 H116 0.949 . S
C90 C89 1.390 1_554 S
C90 C91 1.357 . S
C91 C90 1.357 . S
C91 C92 1.370 . S
C91 H117 0.950 . S
C92 N87 1.307 . S
C92 C91 1.370 . S
C92 H110 0.948 . S
Zn93 N87 2.020 . S
Zn93 O102 2.039 1_554 S
Zn93 O108 2.034 . S
Zn93 O112 2.025 . S
Zn93 O114 2.024 1_554 S
C94 O113 1.246 . S
C94 O114 1.249 . S
N95 C96 1.307 1_554 S
N95 C97 1.333 . S
N95 Zn101 2.020 . S
C96 N95 1.307 1_556 S
C96 C100 1.370 . S
C96 H107 0.948 . S
C97 N95 1.333 . S
C97 C98 1.379 . S
C97 H105 0.952 . S
C98 C97 1.379 . S
C98 C99 1.390 . S
C98 H118 0.949 . S
C99 C98 1.390 . S
C99 C100 1.357 1_554 S
C100 C96 1.370 . S
C100 C99 1.357 1_556 S
C100 H119 0.950 . S
Zn101 N95 2.020 . S
Zn101 O104 2.025 1_554 S
Zn101 O109 2.024 . S
Zn101 O111 2.039 . S
Zn101 O113 2.034 1_554 S
O102 C86 1.251 . S
O102 Zn93 2.039 1_556 S
C103 O108 1.246 . S
C103 O109 1.249 . S
O104 C86 1.254 . S
O104 Zn101 2.025 1_556 S
H105 C97 0.952 . S
H106 C88 0.952 . S
H107 C96 0.948 . S
O108 Zn93 2.034 . S
O108 C103 1.246 . S
O109 Zn101 2.024 . S
O109 C103 1.249 . S
H110 C92 0.948 . S
O111 Zn101 2.039 . S
O111 C115 1.251 . S
O112 Zn93 2.025 . S
O112 C115 1.254 . S
O113 C94 1.246 . S
O113 Zn101 2.034 1_556 S
O114 Zn93 2.024 1_556 S
O114 C94 1.249 . S
C115 O111 1.251 . S
C115 O112 1.254 . S
H116 C89 0.949 . S
H117 C91 0.950 . S
H118 C98 0.949 . S
H119 C100 0.950 . S
H120 C132 0.930 . S
H121 C134 0.930 . S
H122 C135 0.930 . S
H123 C139 0.959 . S
H124 C139 0.959 . S
H125 C139 0.961 . S
H126 C140 0.960 . S
H127 C140 0.961 . S
H128 C140 0.959 . S
H129 C143 0.929 . S
H130 C144 0.931 . S
H131 C146 0.930 . S
C132 H120 0.930 . S
C132 C133 1.399 . S
C132 C137 1.399 . S
C133 C132 1.399 . S
C133 C134 1.376 . S
C134 H121 0.930 . S
C134 C133 1.376 . S
C134 C135 1.388 . S
C135 H122 0.930 . S
C135 C134 1.388 . S
C135 C136 1.390 . S
C136 C135 1.390 . S
C136 C137 1.394 . S
C136 C142 1.465 . S
C137 C132 1.399 . S
C137 C136 1.394 . S
C137 C138 1.516 . S
C138 C137 1.516 . S
C138 C139 1.502 . S
C138 C140 1.561 . S
C138 C141 1.526 . S
C139 H123 0.959 . S
C139 H124 0.959 . S
C139 H125 0.961 . S
C139 C138 1.502 . S
C140 H126 0.960 . S
C140 H127 0.961 . S
C140 H128 0.959 . S
C140 C138 1.561 . S
C141 C138 1.526 . S
C141 C142 1.396 . S
C141 C146 1.390 . S
C142 C136 1.465 . S
C142 C141 1.396 . S
C142 C143 1.399 . S
C143 H129 0.929 . S
C143 C142 1.399 . S
C143 C144 1.385 . S
C144 H130 0.931 . S
C144 C143 1.385 . S
C144 C145 1.389 . S
C145 C144 1.389 . S
C145 C146 1.387 . S
C146 H131 0.930 . S
C146 C141 1.390 . S
C146 C145 1.387 . S
H147 C159 0.930 . S
H148 C161 0.930 . S
H149 C162 0.930 . S
H150 C166 0.959 . S
H151 C166 0.959 . S
H152 C166 0.961 . S
H153 C167 0.960 . S
H154 C167 0.961 . S
H155 C167 0.959 . S
H156 C170 0.929 . S
H157 C171 0.931 . S
H158 C173 0.930 . S
C159 H147 0.930 . S
C159 C160 1.399 1_556 S
C159 C164 1.399 . S
C160 C159 1.399 1_554 S
C160 C161 1.376 . S
C161 H148 0.930 . S
C161 C160 1.376 . S
C161 C162 1.388 . S
C162 H149 0.930 . S
C162 C161 1.388 . S
C162 C163 1.390 . S
C163 C162 1.390 . S
C163 C164 1.394 1_554 S
C163 C169 1.465 . S
C164 C159 1.399 . S
C164 C163 1.394 1_556 S
C164 C165 1.516 . S
C165 C164 1.516 . S
C165 C166 1.502 . S
C165 C167 1.561 . S
C165 C168 1.526 . S
C166 H150 0.959 . S
C166 H151 0.959 . S
C166 H152 0.961 . S
C166 C165 1.502 . S
C167 H153 0.960 . S
C167 H154 0.961 . S
C167 H155 0.959 . S
C167 C165 1.561 . S
C168 C165 1.526 . S
C168 C169 1.396 1_556 S
C168 C173 1.390 . S
C169 C163 1.465 . S
C169 C168 1.396 1_554 S
C169 C170 1.399 . S
C170 H156 0.929 . S
C170 C169 1.399 . S
C170 C171 1.385 . S
C171 H157 0.931 . S
C171 C170 1.385 . S
C171 C172 1.389 . S
C172 C171 1.389 . S
C172 C173 1.387 1_554 S
C173 H158 0.930 . S
C173 C168 1.390 . S
C173 C172 1.387 1_556 S
H174 C186 0.930 . S
H175 C188 0.930 . S
H176 C189 0.930 . S
H177 C193 0.959 . S
H178 C193 0.959 . S
H179 C193 0.961 . S
H180 C194 0.960 . S
H181 C194 0.961 . S
H182 C194 0.959 . S
H183 C197 0.929 . S
H184 C198 0.931 . S
H185 C200 0.930 . S
C186 H174 0.930 . S
C186 C187 1.399 . S
C186 C191 1.399 . S
C187 C186 1.399 . S
C187 C188 1.376 . S
C188 H175 0.930 . S
C188 C187 1.376 . S
C188 C189 1.388 . S
C189 H176 0.930 . S
C189 C188 1.388 . S
C189 C190 1.390 . S
C190 C189 1.390 . S
C190 C191 1.394 . S
C190 C196 1.465 . S
C191 C186 1.399 . S
C191 C190 1.394 . S
C191 C192 1.516 . S
C192 C191 1.516 . S
C192 C193 1.502 . S
C192 C194 1.561 . S
C192 C195 1.526 . S
C193 H177 0.959 . S
C193 H178 0.959 . S
C193 H179 0.961 . S
C193 C192 1.502 . S
C194 H180 0.960 . S
C194 H181 0.961 . S
C194 H182 0.959 . S
C194 C192 1.561 . S
C195 C192 1.526 . S
C195 C196 1.396 . S
C195 C200 1.390 . S
C196 C190 1.465 . S
C196 C195 1.396 . S
C196 C197 1.399 . S
C197 H183 0.929 . S
C197 C196 1.399 . S
C197 C198 1.385 . S
C198 H184 0.931 . S
C198 C197 1.385 . S
C198 C199 1.389 . S
C199 C198 1.389 . S
C199 C200 1.387 . S
C200 H185 0.930 . S
C200 C195 1.390 . S
C200 C199 1.387 . S
H201 C213 0.930 . S
H202 C215 0.930 . S
H203 C216 0.930 . S
H204 C220 0.959 . S
H205 C220 0.959 . S
H206 C220 0.961 . S
H207 C221 0.960 . S
H208 C221 0.961 . S
H209 C221 0.959 . S
H210 C224 0.929 . S
H211 C225 0.931 . S
H212 C227 0.930 . S
C213 H201 0.930 . S
C213 C214 1.399 1_556 S
C213 C218 1.399 . S
C214 C213 1.399 1_554 S
C214 C215 1.376 . S
C215 H202 0.930 . S
C215 C214 1.376 . S
C215 C216 1.388 . S
C216 H203 0.930 . S
C216 C215 1.388 . S
C216 C217 1.390 . S
C217 C216 1.390 . S
C217 C218 1.394 1_554 S
C217 C223 1.465 . S
C218 C213 1.399 . S
C218 C217 1.394 1_556 S
C218 C219 1.516 . S
C219 C218 1.516 . S
C219 C220 1.502 . S
C219 C221 1.561 . S
C219 C222 1.526 . S
C220 H204 0.959 . S
C220 H205 0.959 . S
C220 H206 0.961 . S
C220 C219 1.502 . S
C221 H207 0.960 . S
C221 H208 0.961 . S
C221 H209 0.959 . S
C221 C219 1.561 . S
C222 C219 1.526 . S
C222 C223 1.396 1_556 S
C222 C227 1.390 . S
C223 C217 1.465 . S
C223 C222 1.396 1_554 S
C223 C224 1.399 . S
C224 H210 0.929 . S
C224 C223 1.399 . S
C224 C225 1.385 . S
C225 H211 0.931 . S
C225 C224 1.385 . S
C225 C226 1.389 . S
C226 C225 1.389 . S
C226 C227 1.387 1_554 S
C227 H212 0.930 . S
C227 C222 1.390 . S
C227 C226 1.387 1_556 S
H228 C240 0.930 . S
H229 C242 0.930 . S
H230 C243 0.930 . S
H231 C247 0.959 . S
H232 C247 0.959 . S
H233 C247 0.961 . S
H234 C248 0.960 . S
H235 C248 0.961 . S
H236 C248 0.959 . S
H237 C251 0.929 . S
H238 C252 0.931 . S
H239 C254 0.930 . S
C240 H228 0.930 . S
C240 C241 1.399 . S
C240 C245 1.399 . S
C241 C240 1.399 . S
C241 C242 1.376 . S
C242 H229 0.930 . S
C242 C241 1.376 . S
C242 C243 1.388 . S
C243 H230 0.930 . S
C243 C242 1.388 . S
C243 C244 1.390 . S
C244 C243 1.390 . S
C244 C245 1.394 . S
C244 C250 1.465 . S
C245 C240 1.399 . S
C245 C244 1.394 . S
C245 C246 1.516 . S
C246 C245 1.516 . S
C246 C247 1.502 . S
C246 C248 1.561 . S
C246 C249 1.526 . S
C247 H231 0.959 . S
C247 H232 0.959 . S
C247 H233 0.961 . S
C247 C246 1.502 . S
C248 H234 0.960 . S
C248 H235 0.961 . S
C248 H236 0.959 . S
C248 C246 1.561 . S
C249 C246 1.526 . S
C249 C250 1.396 . S
C249 C254 1.390 . S
C250 C244 1.465 . S
C250 C249 1.396 . S
C250 C251 1.399 . S
C251 H237 0.929 . S
C251 C250 1.399 . S
C251 C252 1.385 . S
C252 H238 0.931 . S
C252 C251 1.385 . S
C252 C253 1.389 . S
C253 C252 1.389 . S
C253 C254 1.387 . S
C254 H239 0.930 . S
C254 C249 1.390 . S
C254 C253 1.387 . S
H255 C267 0.930 . S
H256 C269 0.930 . S
H257 C270 0.930 . S
H258 C274 0.959 . S
H259 C274 0.959 . S
H260 C274 0.961 . S
H261 C275 0.960 . S
H262 C275 0.961 . S
H263 C275 0.959 . S
H264 C278 0.929 . S
H265 C279 0.931 . S
H266 C281 0.930 . S
C267 H255 0.930 . S
C267 C268 1.399 . S
C267 C272 1.399 . S
C268 C267 1.399 . S
C268 C269 1.376 . S
C269 H256 0.930 . S
C269 C268 1.376 . S
C269 C270 1.388 . S
C270 H257 0.930 . S
C270 C269 1.388 . S
C270 C271 1.390 . S
C271 C270 1.390 . S
C271 C272 1.394 . S
C271 C277 1.465 . S
C272 C267 1.399 . S
C272 C271 1.394 . S
C272 C273 1.516 . S
C273 C272 1.516 . S
C273 C274 1.502 . S
C273 C275 1.561 . S
C273 C276 1.526 . S
C274 H258 0.959 . S
C274 H259 0.959 . S
C274 H260 0.961 . S
C274 C273 1.502 . S
C275 H261 0.960 . S
C275 H262 0.961 . S
C275 H263 0.959 . S
C275 C273 1.561 . S
C276 C273 1.526 . S
C276 C277 1.396 . S
C276 C281 1.390 . S
C277 C271 1.465 . S
C277 C276 1.396 . S
C277 C278 1.399 . S
C278 H264 0.929 . S
C278 C277 1.399 . S
C278 C279 1.385 . S
C279 H265 0.931 . S
C279 C278 1.385 . S
C279 C280 1.389 . S
C280 C279 1.389 . S
C280 C281 1.387 . S
C281 H266 0.930 . S
C281 C276 1.390 . S
C281 C280 1.387 . S
H282 C294 0.930 . S
H283 C296 0.930 . S
H284 C297 0.930 . S
H285 C301 0.959 . S
H286 C301 0.959 . S
H287 C301 0.961 . S
H288 C302 0.960 . S
H289 C302 0.961 . S
H290 C302 0.959 . S
H291 C305 0.929 . S
H292 C306 0.931 . S
H293 C308 0.930 . S
C294 H282 0.930 . S
C294 C295 1.399 . S
C294 C299 1.399 . S
C295 C294 1.399 . S
C295 C296 1.376 . S
C296 H283 0.930 . S
C296 C295 1.376 . S
C296 C297 1.388 . S
C297 H284 0.930 . S
C297 C296 1.388 . S
C297 C298 1.390 . S
C298 C297 1.390 . S
C298 C299 1.394 . S
C298 C304 1.465 . S
C299 C294 1.399 . S
C299 C298 1.394 . S
C299 C300 1.516 . S
C300 C299 1.516 . S
C300 C301 1.502 . S
C300 C302 1.561 . S
C300 C303 1.526 . S
C301 H285 0.959 . S
C301 H286 0.959 . S
C301 H287 0.961 . S
C301 C300 1.502 . S
C302 H288 0.960 . S
C302 H289 0.961 . S
C302 H290 0.959 . S
C302 C300 1.561 . S
C303 C300 1.526 . S
C303 C304 1.396 . S
C303 C308 1.390 . S
C304 C298 1.465 . S
C304 C303 1.396 . S
C304 C305 1.399 . S
C305 H291 0.929 . S
C305 C304 1.399 . S
C305 C306 1.385 . S
C306 H292 0.931 . S
C306 C305 1.385 . S
C306 C307 1.389 . S
C307 C306 1.389 . S
C307 C308 1.387 . S
C308 H293 0.930 . S
C308 C303 1.390 . S
C308 C307 1.387 . S
H309 C321 0.930 . S
H310 C323 0.930 . S
H311 C324 0.930 . S
H312 C328 0.959 . S
H313 C328 0.959 . S
H314 C328 0.961 . S
H315 C329 0.960 . S
H316 C329 0.961 . S
H317 C329 0.959 . S
H318 C332 0.929 . S
H319 C333 0.931 . S
H320 C335 0.930 . S
C321 H309 0.930 . S
C321 C322 1.399 . S
C321 C326 1.399 . S
C322 C321 1.399 . S
C322 C323 1.376 . S
C323 H310 0.930 . S
C323 C322 1.376 . S
C323 C324 1.388 . S
C324 H311 0.930 . S
C324 C323 1.388 . S
C324 C325 1.390 . S
C325 C324 1.390 . S
C325 C326 1.394 . S
C325 C331 1.465 . S
C326 C321 1.399 . S
C326 C325 1.394 . S
C326 C327 1.516 . S
C327 C326 1.516 . S
C327 C328 1.502 . S
C327 C329 1.561 . S
C327 C330 1.526 . S
C328 H312 0.959 . S
C328 H313 0.959 . S
C328 H314 0.961 . S
C328 C327 1.502 . S
C329 H315 0.960 . S
C329 H316 0.961 . S
C329 H317 0.959 . S
C329 C327 1.561 . S
C330 C327 1.526 . S
C330 C331 1.396 . S
C330 C335 1.390 . S
C331 C325 1.465 . S
C331 C330 1.396 . S
C331 C332 1.399 . S
C332 H318 0.929 . S
C332 C331 1.399 . S
C332 C333 1.385 . S
C333 H319 0.931 . S
C333 C332 1.385 . S
C333 C334 1.389 . S
C334 C333 1.389 . S
C334 C335 1.387 . S
C335 H320 0.930 . S
C335 C330 1.390 . S
C335 C334 1.387 . S
H336 C348 0.930 . S
H337 C350 0.930 . S
H338 C351 0.930 . S
H339 C355 0.959 . S
H340 C355 0.959 . S
H341 C355 0.961 . S
H342 C356 0.960 . S
H343 C356 0.961 . S
H344 C356 0.959 . S
H345 C359 0.929 . S
H346 C360 0.931 . S
H347 C362 0.930 . S
C348 H336 0.930 . S
C348 C349 1.399 . S
C348 C353 1.399 . S
C349 C348 1.399 . S
C349 C350 1.376 . S
C350 H337 0.930 . S
C350 C349 1.376 . S
C350 C351 1.388 . S
C351 H338 0.930 . S
C351 C350 1.388 . S
C351 C352 1.390 . S
C352 C351 1.390 . S
C352 C353 1.394 . S
C352 C358 1.465 . S
C353 C348 1.399 . S
C353 C352 1.394 . S
C353 C354 1.516 . S
C354 C353 1.516 . S
C354 C355 1.502 . S
C354 C356 1.561 . S
C354 C357 1.526 . S
C355 H339 0.959 . S
C355 H340 0.959 . S
C355 H341 0.961 . S
C355 C354 1.502 . S
C356 H342 0.960 . S
C356 H343 0.961 . S
C356 H344 0.959 . S
C356 C354 1.561 . S
C357 C354 1.526 . S
C357 C358 1.396 . S
C357 C362 1.390 . S
C358 C352 1.465 . S
C358 C357 1.396 . S
C358 C359 1.399 . S
C359 H345 0.929 . S
C359 C358 1.399 . S
C359 C360 1.385 . S
C360 H346 0.931 . S
C360 C359 1.385 . S
C360 C361 1.389 . S
C361 C360 1.389 . S
C361 C362 1.387 . S
C362 H347 0.930 . S
C362 C357 1.390 . S
C362 C361 1.387 . S
H363 C375 0.930 . S
H364 C377 0.930 . S
H365 C378 0.930 . S
H366 C382 0.959 . S
H367 C382 0.959 . S
H368 C382 0.961 . S
H369 C383 0.960 . S
H370 C383 0.961 . S
H371 C383 0.959 . S
H372 C386 0.929 . S
H373 C387 0.931 . S
H374 C389 0.930 . S
C375 H363 0.930 . S
C375 C376 1.399 . S
C375 C380 1.399 . S
C376 C375 1.399 . S
C376 C377 1.376 . S
C377 H364 0.930 . S
C377 C376 1.376 . S
C377 C378 1.388 . S
C378 H365 0.930 . S
C378 C377 1.388 . S
C378 C379 1.390 . S
C379 C378 1.390 . S
C379 C380 1.394 . S
C379 C385 1.465 . S
C380 C375 1.399 . S
C380 C379 1.394 . S
C380 C381 1.516 . S
C381 C380 1.516 . S
C381 C382 1.502 . S
C381 C383 1.561 . S
C381 C384 1.526 . S
C382 H366 0.959 . S
C382 H367 0.959 . S
C382 H368 0.961 . S
C382 C381 1.502 . S
C383 H369 0.960 . S
C383 H370 0.961 . S
C383 H371 0.959 . S
C383 C381 1.561 . S
C384 C381 1.526 . S
C384 C385 1.396 . S
C384 C389 1.390 . S
C385 C379 1.465 . S
C385 C384 1.396 . S
C385 C386 1.399 . S
C386 H372 0.929 . S
C386 C385 1.399 . S
C386 C387 1.385 . S
C387 H373 0.931 . S
C387 C386 1.385 . S
C387 C388 1.389 . S
C388 C387 1.389 . S
C388 C389 1.387 . S
C389 H374 0.930 . S
C389 C384 1.390 . S
C389 C388 1.387 . S
H390 C402 0.930 . S
H391 C404 0.930 . S
H392 C405 0.930 . S
H393 C409 0.959 . S
H394 C409 0.959 . S
H395 C409 0.961 . S
H396 C410 0.960 . S
H397 C410 0.961 . S
H398 C410 0.959 . S
H399 C413 0.929 . S
H400 C414 0.931 . S
H401 C416 0.930 . S
C402 H390 0.930 . S
C402 C403 1.399 . S
C402 C407 1.399 . S
C403 C402 1.399 . S
C403 C404 1.376 . S
C404 H391 0.930 . S
C404 C403 1.376 . S
C404 C405 1.388 . S
C405 H392 0.930 . S
C405 C404 1.388 . S
C405 C406 1.390 . S
C406 C405 1.390 . S
C406 C407 1.394 . S
C406 C412 1.465 . S
C407 C402 1.399 . S
C407 C406 1.394 . S
C407 C408 1.516 . S
C408 C407 1.516 . S
C408 C409 1.502 . S
C408 C410 1.561 . S
C408 C411 1.526 . S
C409 H393 0.959 . S
C409 H394 0.959 . S
C409 H395 0.961 . S
C409 C408 1.502 . S
C410 H396 0.960 . S
C410 H397 0.961 . S
C410 H398 0.959 . S
C410 C408 1.561 . S
C411 C408 1.526 . S
C411 C412 1.396 . S
C411 C416 1.390 . S
C412 C406 1.465 . S
C412 C411 1.396 . S
C412 C413 1.399 . S
C413 H399 0.929 . S
C413 C412 1.399 . S
C413 C414 1.385 . S
C414 H400 0.931 . S
C414 C413 1.385 . S
C414 C415 1.389 . S
C415 C414 1.389 . S
C415 C416 1.387 . S
C416 H401 0.930 . S
C416 C411 1.390 . S
C416 C415 1.387 . S
H417 C429 0.930 . S
H418 C431 0.930 . S
H419 C432 0.930 . S
H420 C436 0.959 . S
H421 C436 0.959 . S
H422 C436 0.961 . S
H423 C437 0.960 . S
H424 C437 0.961 . S
H425 C437 0.959 . S
H426 C440 0.929 . S
H427 C441 0.946 . S
H428 C443 0.930 . S
C429 H417 0.930 . S
C429 C430 1.399 . S
C429 C434 1.399 . S
C430 C429 1.399 . S
C430 C431 1.376 . S
C431 H418 0.930 . S
C431 C430 1.376 . S
C431 C432 1.388 . S
C432 H419 0.930 . S
C432 C431 1.388 . S
C432 C433 1.390 . S
C433 C432 1.390 . S
C433 C434 1.394 . S
C433 C439 1.465 . S
C434 C429 1.399 . S
C434 C433 1.394 . S
C434 C435 1.516 . S
C435 C434 1.516 . S
C435 C436 1.502 . S
C435 C437 1.561 . S
C435 C438 1.526 . S
C436 H420 0.959 . S
C436 H421 0.959 . S
C436 H422 0.961 . S
C436 C435 1.502 . S
C437 H423 0.960 . S
C437 H424 0.961 . S
C437 H425 0.959 . S
C437 C435 1.561 . S
C438 C435 1.526 . S
C438 C439 1.396 . S
C438 C443 1.390 . S
C439 C433 1.465 . S
C439 C438 1.396 . S
C439 C440 1.399 . S
C440 H426 0.929 . S
C440 C439 1.399 . S
C440 C441 1.385 . S
C441 H427 0.946 . S
C441 C440 1.385 . S
C441 C442 1.389 . S
C442 C441 1.389 . S
C442 C443 1.387 . S
C443 H428 0.930 . S
C443 C438 1.390 . S
C443 C442 1.387 . S
C145 C56 1.503 . S
C133 N41 1.507 . S
C160 N2 1.508 . S
C172 C99 1.513 . S
C187 N15 1.510 . S
C199 C65 1.514 . S
C214 N28 1.508 . S
C226 C90 1.502 . S
C253 C52 1.515 . S
C241 N5 1.518 . S
C280 C94 1.519 . S
C268 N14 1.518 . S
C295 N27 1.490 . S
C307 C60 1.501 . S
C322 N44 1.518 . S
C334 C86 1.514 . S
C361 C115 1.511 . S
C349 N18 1.508 . S
C388 C81 1.514 . S
C376 N31 1.509 . S
C415 C103 1.512 . S
C403 N40 1.514 . S
C430 N1 1.509 . S
C442 C69 1.513 . S
