# Generated by pormake.
# Topology hwx, (6,3)-cn, num edge types: 1
# Building blocks:
#     Node 0, Type 0, BuildingBlock: IZENUY_clean_sbu_0, # of connection points: 6
#     Node 1, Type 0, BuildingBlock: IZENUY_clean_sbu_0, # of connection points: 6
#     Node 2, Type 0, BuildingBlock: IZENUY_clean_sbu_0, # of connection points: 6
#     Node 3, Type 0, BuildingBlock: IZENUY_clean_sbu_0, # of connection points: 6
#     Node 4, Type 1, BuildingBlock: PAMTOO_clean_linker_0, # of connection points: 3
#     Node 5, Type 1, BuildingBlock: PAMTOO_clean_linker_0, # of connection points: 3
#     Node 6, Type 1, BuildingBlock: PAMTOO_clean_linker_0, # of connection points: 3
#     Node 7, Type 1, BuildingBlock: PAMTOO_clean_linker_0, # of connection points: 3
#     Node 8, Type 1, BuildingBlock: PAMTOO_clean_linker_0, # of connection points: 3
#     Node 9, Type 1, BuildingBlock: PAMTOO_clean_linker_0, # of connection points: 3
#     Node 10, Type 1, BuildingBlock: PAMTOO_clean_linker_0, # of connection points: 3
#     Node 11, Type 1, BuildingBlock: PAMTOO_clean_linker_0, # of connection points: 3
#     Edge 12, Type (0, 1), BuildingBlock: AJUNOK_clean_linker_0, # of connection points: 2
#     Edge 13, Type (0, 1), BuildingBlock: AJUNOK_clean_linker_0, # of connection points: 2
#     Edge 14, Type (0, 1), BuildingBlock: AJUNOK_clean_linker_0, # of connection points: 2
#     Edge 15, Type (0, 1), BuildingBlock: AJUNOK_clean_linker_0, # of connection points: 2
#     Edge 16, Type (0, 1), BuildingBlock: AJUNOK_clean_linker_0, # of connection points: 2
#     Edge 17, Type (0, 1), BuildingBlock: AJUNOK_clean_linker_0, # of connection points: 2
#     Edge 18, Type (0, 1), BuildingBlock: AJUNOK_clean_linker_0, # of connection points: 2
#     Edge 19, Type (0, 1), BuildingBlock: AJUNOK_clean_linker_0, # of connection points: 2
#     Edge 20, Type (0, 1), BuildingBlock: AJUNOK_clean_linker_0, # of connection points: 2
#     Edge 21, Type (0, 1), BuildingBlock: AJUNOK_clean_linker_0, # of connection points: 2
#     Edge 22, Type (0, 1), BuildingBlock: AJUNOK_clean_linker_0, # of connection points: 2
#     Edge 23, Type (0, 1), BuildingBlock: AJUNOK_clean_linker_0, # of connection points: 2
#     Edge 24, Type (0, 1), BuildingBlock: AJUNOK_clean_linker_0, # of connection points: 2
#     Edge 25, Type (0, 1), BuildingBlock: AJUNOK_clean_linker_0, # of connection points: 2
#     Edge 26, Type (0, 1), BuildingBlock: AJUNOK_clean_linker_0, # of connection points: 2
#     Edge 27, Type (0, 1), BuildingBlock: AJUNOK_clean_linker_0, # of connection points: 2
#     Edge 28, Type (0, 1), BuildingBlock: AJUNOK_clean_linker_0, # of connection points: 2
#     Edge 29, Type (0, 1), BuildingBlock: AJUNOK_clean_linker_0, # of connection points: 2
#     Edge 30, Type (0, 1), BuildingBlock: AJUNOK_clean_linker_0, # of connection points: 2
#     Edge 31, Type (0, 1), BuildingBlock: AJUNOK_clean_linker_0, # of connection points: 2
#     Edge 32, Type (0, 1), BuildingBlock: AJUNOK_clean_linker_0, # of connection points: 2
#     Edge 33, Type (0, 1), BuildingBlock: AJUNOK_clean_linker_0, # of connection points: 2
#     Edge 34, Type (0, 1), BuildingBlock: AJUNOK_clean_linker_0, # of connection points: 2
#     Edge 35, Type (0, 1), BuildingBlock: AJUNOK_clean_linker_0, # of connection points: 2
# Relax obj value: 0.004
# Max RMSD: 0.056
# Mean RMSD: 0.047
data_MOF--net-hwx--node1-IZENUY_clean_sbu_0--node2-PAMTOO_clean_linker_0--edge1-AJUNOK_clean_linker_0
_symmetry_space_group_name_H-M    P1
_symmetry_Int_Tables_number       1
_symmetry_cell_setting            triclinic
loop_
_symmetry_equiv_pos_as_xyz
'x, y, z'
_cell_length_a     37.374316
_cell_length_b     37.364655
_cell_length_c     15.310389
_cell_angle_alpha  88.155603
_cell_angle_beta   91.619053
_cell_angle_gamma 90.064331
loop_
_atom_site_label
_atom_site_type_symbol
_atom_site_fract_x
_atom_site_fract_y
_atom_site_fract_z
_atom_type_partial_charge
Fe0 Fe 0.26403 0.2614 0.11542 0.0
Fe1 Fe 0.25866 0.26756 0.91529 0.0
O2 O 0.2442 0.24822 0.01517 0.0
Fe3 Fe 0.20968 0.21562 0.01525 0.0
O4 O 0.18119 0.2437 0.07867 0.0
O5 O 0.22298 0.25515 0.17781 0.0
O6 O 0.25041 0.30758 0.09541 0.0
C7 C 0.25806 0.32651 0.0288 0.0
C8 C 0.25785 0.18965 0.14918 0.0
O9 O 0.26808 0.31195 0.95982 0.0
C10 C 0.24899 0.19391 0.87889 0.0
O11 O 0.30872 0.27017 0.07145 0.0
O12 O 0.30426 0.25257 0.93641 0.0
O13 O 0.22685 0.19113 0.11363 0.0
O14 O 0.27886 0.21601 0.14215 0.0
C15 C 0.18654 0.26462 0.88046 0.0
O16 O 0.25203 0.22645 0.85367 0.0
O17 O 0.23585 0.18561 0.9518 0.0
C18 C 0.32324 0.26002 0.00262 0.0
O19 O 0.21406 0.28403 0.88631 0.0
O20 O 0.18623 0.23379 0.91692 0.0
C21 C 0.19034 0.25473 0.15297 0.0
Fe22 Fe 0.26929 0.76276 0.62865 0.0
Fe23 Fe 0.3164 0.71047 0.53229 0.0
O24 O 0.2854 0.74669 0.52951 0.0
Fe25 Fe 0.27061 0.76664 0.42819 0.0
O26 O 0.26741 0.81235 0.46926 0.0
O27 O 0.28666 0.80721 0.6062 0.0
O28 O 0.31085 0.75365 0.6912 0.0
C29 C 0.34265 0.75012 0.66659 0.0
C30 C 0.20763 0.76567 0.51693 0.0
O31 O 0.34913 0.73568 0.59538 0.0
C32 C 0.27175 0.69202 0.3962 0.0
O33 O 0.25073 0.71934 0.65825 0.0
O34 O 0.29884 0.68854 0.6315 0.0
O35 O 0.22388 0.75704 0.44968 0.0
O36 O 0.22486 0.77516 0.58447 0.0
C37 C 0.34147 0.75565 0.39443 0.0
O38 O 0.28597 0.68281 0.46925 0.0
O39 O 0.27126 0.72452 0.36959 0.0
C40 C 0.26878 0.69091 0.66712 0.0
O41 O 0.33969 0.72542 0.4337 0.0
O42 O 0.31611 0.77778 0.39822 0.0
C43 C 0.2799 0.82622 0.53828 0.0
Fe44 Fe 0.76525 0.78076 0.89306 0.0
Fe45 Fe 0.77354 0.77387 0.09254 0.0
O46 O 0.78578 0.79441 0.99202 0.0
Fe47 Fe 0.81868 0.82866 0.99111 0.0
O48 O 0.79957 0.85318 0.89484 0.0
O49 O 0.74902 0.82558 0.86662 0.0
O50 O 0.72116 0.77169 0.94065 0.0
C51 C 0.70781 0.78179 0.01116 0.0
C52 C 0.83854 0.79029 0.85151 0.0
O53 O 0.72764 0.78824 0.07668 0.0
C54 C 0.84531 0.77901 0.12195 0.0
O55 O 0.78016 0.73505 0.9118 0.0
O56 O 0.76391 0.72962 0.04789 0.0
O57 O 0.84765 0.80286 0.92431 0.0
O58 O 0.80577 0.7874 0.82854 0.0
C59 C 0.78162 0.84706 0.13292 0.0
O60 O 0.81879 0.75838 0.11464 0.0
O61 O 0.84414 0.8103 0.08723 0.0
C62 C 0.77419 0.7157 0.97858 0.0
O63 O 0.78097 0.81423 0.15624 0.0
O64 O 0.79168 0.85678 0.05797 0.0
C65 C 0.76854 0.85296 0.85944 0.0
Fe66 Fe 0.70963 0.32538 0.49251 0.0
Fe67 Fe 0.76238 0.27493 0.59327 0.0
O68 O 0.74434 0.29296 0.4932 0.0
Fe69 Fe 0.76138 0.27872 0.39336 0.0
O70 O 0.77537 0.32378 0.36387 0.0
O71 O 0.7247 0.34981 0.3937 0.0
O72 O 0.73689 0.35604 0.55553 0.0
C73 C 0.75239 0.34828 0.62785 0.0
C74 C 0.68698 0.28587 0.35531 0.0
O75 O 0.75655 0.31599 0.65369 0.0
C76 C 0.7587 0.21481 0.48429 0.0
O77 O 0.68859 0.30679 0.59107 0.0
O78 O 0.71901 0.25776 0.62513 0.0
O79 O 0.71903 0.28439 0.33141 0.0
O80 O 0.67957 0.29723 0.42922 0.0
C81 C 0.82358 0.2843 0.50035 0.0
O82 O 0.77141 0.23044 0.55063 0.0
O83 O 0.74849 0.23267 0.41677 0.0
C84 C 0.69099 0.27637 0.62992 0.0
O85 O 0.80697 0.29126 0.56838 0.0
O86 O 0.80712 0.27076 0.43614 0.0
C87 C 0.75466 0.35041 0.35668 0.0
H88 H 0.24491 0.64096 0.03304 0.0
H89 H 0.24371 0.54056 0.9039 0.0
H90 H 0.24315 0.54195 0.1847 0.0
H91 H 0.28886 0.48635 0.11908 0.0
C92 C 0.2753 0.48179 0.05476 0.0
O93 O 0.24367 0.50087 0.04853 0.0
H94 H 0.29363 0.49146 0.00295 0.0
C95 C 0.24315 0.61197 0.03657 0.0
C96 C 0.24288 0.59402 0.11848 0.0
C97 C 0.24297 0.59311 0.95895 0.0
C98 C 0.24328 0.55553 0.96333 0.0
C99 C 0.24324 0.53712 0.04475 0.0
C100 C 0.24298 0.55636 0.12214 0.0
H101 H 0.89299 0.76419 0.48823 0.0
H102 H 0.9948 0.75639 0.36729 0.0
H103 H 0.9903 0.7626 0.64661 0.0
H104 H 0.04655 0.80856 0.55461 0.0
C105 C 0.05288 0.78951 0.50281 0.0
O106 O 0.0328 0.75873 0.51335 0.0
H107 H 0.04587 0.80298 0.43866 0.0
C108 C 0.9219 0.76198 0.49456 0.0
C109 C 0.93882 0.76345 0.57739 0.0
C110 C 0.94177 0.75921 0.41894 0.0
C111 C 0.97919 0.75805 0.4256 0.0
C112 C 0.99662 0.75944 0.5077 0.0
C113 C 0.9765 0.76193 0.58353 0.0
H114 H 0.772 0.40153 0.99004 0.0
H115 H 0.76881 0.50202 0.11821 0.0
H116 H 0.77146 0.50043 0.83755 0.0
H117 H 0.81888 0.55473 0.92503 0.0
C118 C 0.80114 0.5613 0.9794 0.0
O119 O 0.76997 0.54159 0.97353 0.0
H120 H 0.8159 0.55412 0.04168 0.0
C121 C 0.77234 0.43057 0.98622 0.0
C122 C 0.77255 0.44847 0.9043 0.0
C123 C 0.77132 0.44954 0.06347 0.0
C124 C 0.76981 0.48704 0.05889 0.0
C125 C 0.77035 0.50538 0.97744 0.0
C126 C 0.77136 0.4861 0.90021 0.0
H127 H 0.13708 0.28426 0.51674 0.0
H128 H 0.03526 0.29099 0.63858 0.0
H129 H 0.03946 0.27685 0.36178 0.0
H130 H 0.98284 0.33043 0.42384 0.0
C131 C 0.97711 0.3159 0.48646 0.0
O132 O 0.99719 0.28493 0.49394 0.0
H133 H 0.98459 0.33393 0.54054 0.0
C134 C 0.10809 0.28483 0.51133 0.0
C135 C 0.09105 0.28023 0.42951 0.0
C136 C 0.08844 0.2881 0.58724 0.0
C137 C 0.05093 0.28854 0.58059 0.0
C138 C 0.03338 0.28546 0.49897 0.0
C139 C 0.05338 0.281 0.42362 0.0
H140 H 0.7521 0.90088 0.49966 0.0
H141 H 0.74425 1.00429 0.61259 0.0
H142 H 0.76021 0.99646 0.3367 0.0
H143 H 0.7973 0.05597 0.40833 0.0
C144 C 0.78164 0.06051 0.46771 0.0
O145 O 0.75056 0.04059 0.46403 0.0
H146 H 0.79865 0.0517 0.52529 0.0
C147 C 0.75176 0.92984 0.49186 0.0
C148 C 0.75758 0.94594 0.40947 0.0
C149 C 0.74724 0.95051 0.56541 0.0
C150 C 0.74713 0.98797 0.55597 0.0
C151 C 0.75097 1.00446 0.47305 0.0
C152 C 0.75611 0.98346 0.3999 0.0
H153 H 0.63798 0.26004 0.98729 0.0
H154 H 0.53814 0.2619 0.12017 0.0
H155 H 0.53884 0.246 0.84302 0.0
H156 H 0.48104 0.29204 0.89751 0.0
C157 C 0.47737 0.28128 0.96527 0.0
O158 O 0.49817 0.25105 0.9798 0.0
H159 H 0.48613 0.30246 0.01077 0.0
C160 C 0.60904 0.2576 0.98594 0.0
C161 C 0.5909 0.25187 0.90634 0.0
C162 C 0.59037 0.26198 0.06302 0.0
C163 C 0.55295 0.25864 0.06113 0.0
C164 C 0.53437 0.25275 0.98183 0.0
C165 C 0.55334 0.24969 0.90436 0.0
H166 H 0.27285 0.13991 0.51844 0.0
H167 H 0.27847 0.03879 0.39349 0.0
H168 H 0.27571 0.04162 0.67354 0.0
H169 H 0.32491 0.98662 0.60034 0.0
C170 C 0.30855 0.98032 0.54097 0.0
O171 O 0.27726 0.99995 0.53881 0.0
H172 H 0.32465 0.98776 0.48305 0.0
C173 C 0.27496 0.11096 0.52329 0.0
C174 C 0.27438 0.09347 0.60577 0.0
C175 C 0.27658 0.09169 0.44646 0.0
C176 C 0.27743 0.05414 0.45221 0.0
C177 C 0.27718 0.03617 0.53409 0.0
C178 C 0.27577 0.0558 0.61072 0.0
H179 H 0.39461 0.76929 0.03139 0.0
H180 H 0.49412 0.76894 0.8972 0.0
H181 H 0.49452 0.77357 0.17761 0.0
H182 H 0.54732 0.82218 0.08217 0.0
C183 C 0.5531 0.80411 0.02795 0.0
O184 O 0.5346 0.77238 0.03907 0.0
H185 H 0.544 0.81806 0.96588 0.0
C186 C 0.42363 0.77051 0.03321 0.0
C187 C 0.44206 0.77169 0.11408 0.0
C188 C 0.44203 0.76984 0.95471 0.0
C189 C 0.47954 0.76961 0.95731 0.0
C190 C 0.49842 0.7714 0.03757 0.0
C191 C 0.47972 0.77228 0.11592 0.0
C192 C 0.16687 0.24263 0.30067 0.0
C193 C 0.16279 0.25995 0.21838 0.0
C194 C 0.14247 0.24814 0.36638 0.0
C195 C 0.11346 0.27202 0.35356 0.0
H196 H 0.18919 0.22463 0.31447 0.0
H197 H 0.1468 0.23392 0.42856 0.0
S198 S 0.09076 0.32339 0.14792 0.0
N199 N 0.12698 0.30055 0.1251 0.0
N200 N 0.08175 0.31249 0.25046 0.0
C201 C 0.10855 0.28884 0.2704 0.0
C202 C 0.13313 0.2825 0.20249 0.0
C203 C 0.28077 0.63311 0.751 0.0
C204 C 0.25803 0.66266 0.73209 0.0
C205 C 0.27434 0.609 0.82098 0.0
C206 C 0.24497 0.61357 0.87469 0.0
H207 H 0.30469 0.62937 0.71405 0.0
H208 H 0.29361 0.58792 0.83624 0.0
S209 S 0.17418 0.68268 0.84601 0.0
N210 N 0.20238 0.69221 0.76749 0.0
N211 N 0.19073 0.64699 0.89913 0.0
C212 C 0.22067 0.64132 0.8531 0.0
C213 C 0.22704 0.6658 0.78173 0.0
C214 C 0.90164 0.7948 0.2048 0.0
C215 C 0.87432 0.76973 0.18715 0.0
C216 C 0.9254 0.78989 0.27667 0.0
C217 C 0.92262 0.75983 0.33334 0.0
H218 H 0.90362 0.81933 0.16558 0.0
H219 H 0.9446 0.81079 0.29106 0.0
S220 S 0.85993 0.68373 0.31022 0.0
N221 N 0.84912 0.71142 0.22748 0.0
N222 N 0.89349 0.70294 0.36323 0.0
C223 C 0.89731 0.7334 0.31342 0.0
C224 C 0.87329 0.73812 0.23998 0.0
C225 C 0.73992 0.40766 0.69269 0.0
C226 C 0.76154 0.37693 0.68915 0.0
C227 C 0.74505 0.43224 0.75951 0.0
C228 C 0.77214 0.427 0.82434 0.0
H229 H 0.71765 0.41171 0.64661 0.0
H230 H 0.72643 0.4543 0.76331 0.0
S231 S 0.84014 0.35461 0.83389 0.0
N232 N 0.81385 0.3452 0.74922 0.0
N233 N 0.82393 0.39168 0.87334 0.0
C234 C 0.79567 0.39796 0.81709 0.0
C235 C 0.79023 0.37283 0.74991 0.0
C236 C 0.63236 0.25618 0.29225 0.0
C237 C 0.65853 0.28315 0.28763 0.0
C238 C 0.60872 0.25046 0.2208 0.0
C239 C 0.61067 0.27172 0.14341 0.0
H240 H 0.63134 0.23838 0.3494 0.0
H241 H 0.5901 0.22827 0.22444 0.0
S242 S 0.67098 0.34932 0.1056 0.0
N243 N 0.68268 0.33347 0.20417 0.0
N244 N 0.63793 0.32348 0.07129 0.0
C245 C 0.63516 0.30031 0.14112 0.0
C246 C 0.65924 0.30581 0.21293 0.0
C247 C 0.28458 0.17173 0.75641 0.0
C248 C 0.25774 0.16552 0.81754 0.0
C249 C 0.29127 0.1471 0.69185 0.0
C250 C 0.27099 0.11546 0.68465 0.0
H251 H 0.30018 0.19618 0.75746 0.0
H252 H 0.31181 0.15347 0.64526 0.0
S253 S 0.19832 0.086 0.8308 0.0
N254 N 0.21187 0.12455 0.86989 0.0
N255 N 0.22361 0.07878 0.74641 0.0
C256 C 0.24498 0.10821 0.74754 0.0
C257 C 0.23851 0.13313 0.81435 0.0
C258 C 0.36742 0.79075 0.26874 0.0
C259 C 0.37079 0.7627 0.33215 0.0
C260 C 0.39191 0.79475 0.2014 0.0
C261 C 0.42099 0.77115 0.19506 0.0
H262 H 0.34479 0.80884 0.26849 0.0
H263 H 0.38729 0.81572 0.15183 0.0
S264 S 0.44456 0.69596 0.34966 0.0
N265 N 0.40772 0.71295 0.38854 0.0
N266 N 0.45343 0.72054 0.26135 0.0
C267 C 0.42607 0.74447 0.26088 0.0
C268 C 0.40105 0.74022 0.32943 0.0
C269 C 0.78151 0.91136 0.78132 0.0
C270 C 0.75802 0.88231 0.79586 0.0
C271 C 0.77594 0.93574 0.71067 0.0
C272 C 0.74672 0.93193 0.6521 0.0
H273 H 0.80552 0.91424 0.82175 0.0
H274 H 0.79602 0.95607 0.69817 0.0
S275 S 0.67398 0.86488 0.66855 0.0
N276 N 0.70153 0.85454 0.75173 0.0
N277 N 0.69171 0.90015 0.61844 0.0
C278 C 0.72146 0.90506 0.66977 0.0
C279 C 0.7269 0.88033 0.7419 0.0
C280 C 0.85981 0.75497 0.72749 0.0
C281 C 0.86638 0.78173 0.78834 0.0
C282 C 0.8844 0.74793 0.66283 0.0
C283 C 0.91633 0.76777 0.65528 0.0
H284 H 0.83526 0.73953 0.72925 0.0
H285 H 0.87788 0.7273 0.61685 0.0
S286 S 0.94634 0.84058 0.79947 0.0
N287 N 0.90769 0.82742 0.83917 0.0
N288 N 0.95333 0.81506 0.71557 0.0
C289 C 0.92373 0.79393 0.71737 0.0
C290 C 0.89887 0.80075 0.78423 0.0
C291 C 0.73635 0.406 0.2704 0.0
C292 C 0.76242 0.37956 0.29149 0.0
C293 C 0.74047 0.43039 0.19979 0.0
C294 C 0.77075 0.42919 0.14784 0.0
H295 H 0.71174 0.40686 0.30596 0.0
H296 H 0.71893 0.44894 0.18275 0.0
S297 S 0.84914 0.36923 0.18181 0.0
N298 N 0.82163 0.35679 0.25966 0.0
N299 N 0.82881 0.40238 0.12657 0.0
C300 C 0.79802 0.40465 0.17129 0.0
C301 C 0.79404 0.37995 0.24331 0.0
C302 C 0.16223 0.30342 0.75599 0.0
C303 C 0.15724 0.27493 0.81693 0.0
C304 C 0.13815 0.30937 0.68522 0.0
C305 C 0.10803 0.28729 0.67296 0.0
H306 H 0.18595 0.32004 0.75985 0.0
H307 H 0.14416 0.33026 0.63709 0.0
S308 S 0.07965 0.21265 0.82073 0.0
N309 N 0.11726 0.22729 0.8661 0.0
N310 N 0.07248 0.23825 0.73211 0.0
C311 C 0.10109 0.26066 0.73706 0.0
C312 C 0.1256 0.25452 0.80923 0.0
C313 C 0.27926 0.63197 0.33038 0.0
C314 C 0.26009 0.66426 0.33475 0.0
C315 C 0.27205 0.608 0.2632 0.0
C316 C 0.2452 0.61538 0.1988 0.0
H317 H 0.30131 0.62616 0.37604 0.0
H318 H 0.28896 0.58463 0.25882 0.0
S319 S 0.18299 0.69284 0.19161 0.0
N320 N 0.21029 0.70007 0.27588 0.0
N321 N 0.19606 0.65466 0.15143 0.0
C322 C 0.224 0.64613 0.20698 0.0
C323 C 0.23164 0.67067 0.27442 0.0
C324 C 0.40144 0.73592 0.74295 0.0
C325 C 0.37196 0.75898 0.72872 0.0
C326 C 0.4257 0.74077 0.81348 0.0
C327 C 0.42121 0.76894 0.87107 0.0
H328 H 0.4045 0.71282 0.70286 0.0
H329 H 0.44678 0.72125 0.82597 0.0
S330 S 0.35246 0.84034 0.85136 0.0
N331 N 0.34248 0.81351 0.77061 0.0
N332 N 0.3883 0.8229 0.90172 0.0
C333 C 0.39361 0.79374 0.85282 0.0
C334 C 0.3689 0.78868 0.78197 0.0
C335 C 0.75401 0.90298 0.18692 0.0
C336 C 0.77773 0.87401 0.20003 0.0
C337 C 0.7483 0.92704 0.25396 0.0
C338 C 0.76651 0.92302 0.3355 0.0
H339 H 0.73888 0.90626 0.12578 0.0
H340 H 0.72866 0.94813 0.24297 0.0
S341 S 0.83608 0.85491 0.3956 0.0
N342 N 0.82216 0.84468 0.29622 0.0
N343 N 0.81272 0.89046 0.42061 0.0
C344 C 0.79198 0.89536 0.34676 0.0
C345 C 0.79724 0.87068 0.27944 0.0
C346 C 0.63123 0.28607 0.69623 0.0
C347 C 0.66257 0.26523 0.69157 0.0
C348 C 0.60637 0.27964 0.76191 0.0
C349 C 0.6119 0.25219 0.82558 0.0
H350 H 0.62652 0.30859 0.65107 0.0
H351 H 0.58388 0.29772 0.76615 0.0
S352 S 0.68632 0.18657 0.83634 0.0
N353 N 0.69526 0.2132 0.75159 0.0
N354 N 0.6486 0.20159 0.87516 0.0
C355 C 0.64162 0.22958 0.81837 0.0
C356 C 0.66689 0.23593 0.7513 0.0
C357 C 0.2946 0.16463 0.27617 0.0
C358 C 0.26632 0.16041 0.21461 0.0
C359 C 0.29908 0.14085 0.34822 0.0
C360 C 0.27574 0.11172 0.36119 0.0
H361 H 0.31232 0.18753 0.27156 0.0
H362 H 0.32009 0.14616 0.3963 0.0
S363 S 0.20058 0.0857 0.21336 0.0
N364 N 0.21704 0.12234 0.16658 0.0
N365 N 0.22544 0.07797 0.30283 0.0
C366 C 0.24904 0.10559 0.29708 0.0
C367 C 0.24434 0.12986 0.22364 0.0
C368 C 0.27469 0.38709 0.96644 0.0
C369 C 0.25953 0.36628 0.03445 0.0
C370 C 0.27886 0.42427 0.97239 0.0
C371 C 0.26809 0.44221 0.04655 0.0
H372 H 0.28419 0.37455 0.90866 0.0
H373 H 0.2913 0.43898 0.9192 0.0
S374 S 0.224 0.40142 0.23929 0.0
N375 N 0.23143 0.36735 0.17614 0.0
N376 N 0.23962 0.43717 0.18676 0.0
C377 C 0.25171 0.42218 0.11348 0.0
C378 C 0.24739 0.38428 0.10765 0.0
C379 C 0.14878 0.7716 0.43392 0.0
C380 C 0.16792 0.76861 0.51443 0.0
C381 C 0.11164 0.77753 0.43056 0.0
C382 C 0.09229 0.78064 0.50749 0.0
H383 H 0.16267 0.77039 0.37294 0.0
H384 H 0.09808 0.78051 0.36727 0.0
S385 S 0.12849 0.76995 0.73453 0.0
N386 N 0.16376 0.76578 0.67308 0.0
N387 N 0.09411 0.77678 0.66595 0.0
C388 C 0.11065 0.77577 0.58815 0.0
C389 C 0.14841 0.76991 0.59182 0.0
C390 C 0.77885 0.65517 0.05406 0.0
C391 C 0.77892 0.67618 0.9759 0.0
C392 C 0.78545 0.6182 0.05435 0.0
C393 C 0.79257 0.6008 0.97669 0.0
H394 H 0.77437 0.66741 0.11598 0.0
H395 H 0.78562 0.60317 0.11608 0.0
S396 S 0.79304 0.6424 0.75368 0.0
N397 N 0.78475 0.67595 0.81771 0.0
N398 N 0.79696 0.60652 0.81903 0.0
C399 C 0.79147 0.62104 0.8978 0.0
C400 C 0.78485 0.65871 0.89726 0.0
C401 C 0.88237 0.302 0.57076 0.0
C402 C 0.86289 0.29076 0.49634 0.0
C403 C 0.91913 0.30965 0.56748 0.0
C404 C 0.93777 0.30679 0.48946 0.0
H405 H 0.86915 0.30513 0.63212 0.0
H406 H 0.93299 0.31828 0.62623 0.0
S407 S 0.90019 0.2777 0.27682 0.0
N408 N 0.86583 0.27651 0.34228 0.0
N409 N 0.93473 0.29095 0.33716 0.0
C410 C 0.91898 0.295 0.41518 0.0
C411 C 0.88162 0.2871 0.41827 0.0
C412 C 0.76356 0.15845 0.40054 0.0
C413 C 0.76105 0.17518 0.48131 0.0
C414 C 0.76939 0.12143 0.39663 0.0
C415 C 0.77288 0.09979 0.47324 0.0
H416 H 0.76219 0.17417 0.33985 0.0
H417 H 0.77205 0.10977 0.33327 0.0
S418 S 0.76324 0.12931 0.70018 0.0
N419 N 0.75899 0.16645 0.63932 0.0
N420 N 0.76963 0.0969 0.63144 0.0
C421 C 0.76838 0.11574 0.55401 0.0
C422 C 0.76269 0.15343 0.55818 0.0
C423 C 0.38376 0.27875 0.06049 0.0
C424 C 0.36292 0.26182 0.99561 0.0
C425 C 0.42069 0.28398 0.0516 0.0
C426 C 0.4383 0.27255 0.97749 0.0
H427 H 0.37135 0.28902 0.11766 0.0
H428 H 0.43541 0.29792 0.10214 0.0
S429 S 0.39748 0.22332 0.79355 0.0
N430 N 0.36376 0.23094 0.85781 0.0
N431 N 0.43309 0.24106 0.84168 0.0
C432 C 0.41833 0.25412 0.91424 0.0
C433 C 0.38071 0.24875 0.92305 0.0
C434 C 0.29207 0.88528 0.46223 0.0
C435 C 0.28556 0.86557 0.54016 0.0
C436 C 0.29914 0.9222 0.46281 0.0
C437 C 0.29997 0.9408 0.5413 0.0
H438 H 0.29242 0.87197 0.40043 0.0
H439 H 0.30444 0.93624 0.40152 0.0
S440 S 0.28052 0.9029 0.76146 0.0
N441 N 0.2776 0.86831 0.69712 0.0
N442 N 0.29077 0.93763 0.69755 0.0
C443 C 0.29214 0.92182 0.61902 0.0
C444 C 0.28512 0.88422 0.61869 0.0
C445 C 0.6463 0.78656 0.94125 0.0
C446 C 0.6683 0.78538 0.01759 0.0
C447 C 0.60923 0.79208 0.94517 0.0
C448 C 0.59275 0.79679 0.02545 0.0
H449 H 0.65784 0.78394 0.87765 0.0
H450 H 0.59339 0.79327 0.88478 0.0
S451 S 0.63719 0.79283 0.24492 0.0
N452 N 0.67001 0.78717 0.17675 0.0
N453 N 0.60044 0.7974 0.1832 0.0
C454 C 0.61403 0.79436 0.10237 0.0
C455 C 0.65176 0.78885 0.09865 0.0
loop_
_geom_bond_atom_site_label_1
_geom_bond_atom_site_label_2
_geom_bond_distance
_geom_bond_site_symmetry_2
_ccdc_geom_bond_type
Fe0 O2 1.918 . S
Fe0 O5 1.997 . S
Fe0 O6 2.002 . S
Fe0 O11 1.976 . S
Fe0 O14 1.996 . S
Fe1 O2 1.918 1_556 S
Fe1 O9 1.997 . S
Fe1 O12 1.996 . S
Fe1 O16 1.976 . S
Fe1 O19 2.002 . S
O2 Fe0 1.918 . S
O2 Fe1 1.918 1_554 S
O2 Fe3 1.918 . S
Fe3 O2 1.918 . S
Fe3 O4 2.002 . S
Fe3 O13 1.976 . S
Fe3 O17 1.996 1_554 S
Fe3 O20 1.997 1_554 S
O4 Fe3 2.002 . S
O4 C21 1.295 . S
O5 Fe0 1.997 . S
O5 C21 1.235 . S
O6 Fe0 2.002 . S
O6 C7 1.295 . S
C7 O6 1.295 . S
C7 O9 1.235 1_554 S
C8 O13 1.287 . S
C8 O14 1.255 . S
O9 Fe1 1.997 . S
O9 C7 1.235 1_556 S
C10 O16 1.287 . S
C10 O17 1.255 . S
O11 Fe0 1.976 . S
O11 C18 1.287 . S
O12 Fe1 1.996 . S
O12 C18 1.255 1_556 S
O13 Fe3 1.976 . S
O13 C8 1.287 . S
O14 Fe0 1.996 . S
O14 C8 1.255 . S
C15 O19 1.295 . S
C15 O20 1.235 . S
O16 Fe1 1.976 . S
O16 C10 1.287 . S
O17 Fe3 1.996 1_556 S
O17 C10 1.255 . S
C18 O11 1.287 . S
C18 O12 1.255 1_554 S
O19 Fe1 2.002 . S
O19 C15 1.295 . S
O20 Fe3 1.997 1_556 S
O20 C15 1.235 . S
C21 O4 1.295 . S
C21 O5 1.235 . S
Fe22 O24 1.918 . S
Fe22 O27 1.997 . S
Fe22 O28 2.002 . S
Fe22 O33 1.976 . S
Fe22 O36 1.996 . S
Fe23 O24 1.918 . S
Fe23 O31 1.997 . S
Fe23 O34 1.996 . S
Fe23 O38 1.976 . S
Fe23 O41 2.002 . S
O24 Fe22 1.918 . S
O24 Fe23 1.918 . S
O24 Fe25 1.918 . S
Fe25 O24 1.918 . S
Fe25 O26 2.002 . S
Fe25 O35 1.976 . S
Fe25 O39 1.996 . S
Fe25 O42 1.997 . S
O26 Fe25 2.002 . S
O26 C43 1.295 . S
O27 Fe22 1.997 . S
O27 C43 1.235 . S
O28 Fe22 2.002 . S
O28 C29 1.295 . S
C29 O28 1.295 . S
C29 O31 1.235 . S
C30 O35 1.287 . S
C30 O36 1.255 . S
O31 Fe23 1.997 . S
O31 C29 1.235 . S
C32 O38 1.287 . S
C32 O39 1.255 . S
O33 Fe22 1.976 . S
O33 C40 1.287 . S
O34 Fe23 1.996 . S
O34 C40 1.255 . S
O35 Fe25 1.976 . S
O35 C30 1.287 . S
O36 Fe22 1.996 . S
O36 C30 1.255 . S
C37 O41 1.295 . S
C37 O42 1.235 . S
O38 Fe23 1.976 . S
O38 C32 1.287 . S
O39 Fe25 1.996 . S
O39 C32 1.255 . S
C40 O33 1.287 . S
C40 O34 1.255 . S
O41 Fe23 2.002 . S
O41 C37 1.295 . S
O42 Fe25 1.997 . S
O42 C37 1.235 . S
C43 O26 1.295 . S
C43 O27 1.235 . S
Fe44 O46 1.918 1_556 S
Fe44 O49 1.997 . S
Fe44 O50 2.002 . S
Fe44 O55 1.976 . S
Fe44 O58 1.996 . S
Fe45 O46 1.918 . S
Fe45 O53 1.997 . S
Fe45 O56 1.996 . S
Fe45 O60 1.976 . S
Fe45 O63 2.002 . S
O46 Fe44 1.918 1_554 S
O46 Fe45 1.918 . S
O46 Fe47 1.918 . S
Fe47 O46 1.918 . S
Fe47 O48 2.002 1_554 S
Fe47 O57 1.976 1_554 S
Fe47 O61 1.996 . S
Fe47 O64 1.997 . S
O48 Fe47 2.002 1_556 S
O48 C65 1.295 . S
O49 Fe44 1.997 . S
O49 C65 1.235 . S
O50 Fe44 2.002 . S
O50 C51 1.295 1_556 S
C51 O50 1.295 1_554 S
C51 O53 1.235 . S
C52 O57 1.287 . S
C52 O58 1.255 . S
O53 Fe45 1.997 . S
O53 C51 1.235 . S
C54 O60 1.287 . S
C54 O61 1.255 . S
O55 Fe44 1.976 . S
O55 C62 1.287 1_556 S
O56 Fe45 1.996 . S
O56 C62 1.255 . S
O57 Fe47 1.976 1_556 S
O57 C52 1.287 . S
O58 Fe44 1.996 . S
O58 C52 1.255 . S
C59 O63 1.295 . S
C59 O64 1.235 . S
O60 Fe45 1.976 . S
O60 C54 1.287 . S
O61 Fe47 1.996 . S
O61 C54 1.255 . S
C62 O55 1.287 1_554 S
C62 O56 1.255 . S
O63 Fe45 2.002 . S
O63 C59 1.295 . S
O64 Fe47 1.997 . S
O64 C59 1.235 . S
C65 O48 1.295 . S
C65 O49 1.235 . S
Fe66 O68 1.918 . S
Fe66 O71 1.997 . S
Fe66 O72 2.002 . S
Fe66 O77 1.976 . S
Fe66 O80 1.996 . S
Fe67 O68 1.918 . S
Fe67 O75 1.997 . S
Fe67 O78 1.996 . S
Fe67 O82 1.976 . S
Fe67 O85 2.002 . S
O68 Fe66 1.918 . S
O68 Fe67 1.918 . S
O68 Fe69 1.918 . S
Fe69 O68 1.918 . S
Fe69 O70 2.002 . S
Fe69 O79 1.976 . S
Fe69 O83 1.996 . S
Fe69 O86 1.997 . S
O70 Fe69 2.002 . S
O70 C87 1.295 . S
O71 Fe66 1.997 . S
O71 C87 1.235 . S
O72 Fe66 2.002 . S
O72 C73 1.295 . S
C73 O72 1.295 . S
C73 O75 1.235 . S
C74 O79 1.287 . S
C74 O80 1.255 . S
O75 Fe67 1.997 . S
O75 C73 1.235 . S
C76 O82 1.287 . S
C76 O83 1.255 . S
O77 Fe66 1.976 . S
O77 C84 1.287 . S
O78 Fe67 1.996 . S
O78 C84 1.255 . S
O79 Fe69 1.976 . S
O79 C74 1.287 . S
O80 Fe66 1.996 . S
O80 C74 1.255 . S
C81 O85 1.295 . S
C81 O86 1.235 . S
O82 Fe67 1.976 . S
O82 C76 1.287 . S
O83 Fe69 1.996 . S
O83 C76 1.255 . S
C84 O77 1.287 . S
C84 O78 1.255 . S
O85 Fe67 2.002 . S
O85 C81 1.295 . S
O86 Fe69 1.997 . S
O86 C81 1.235 . S
C87 O70 1.295 . S
C87 O71 1.235 . S
H88 C95 0.929 . S
H89 C98 0.930 . S
H90 C100 0.929 . S
H91 C92 0.969 . S
C92 H91 0.969 . S
C92 O93 1.550 1_556 S
C92 H94 0.973 . S
O93 C92 1.550 1_554 S
O93 C99 1.412 . S
H94 C92 0.973 . S
C95 H88 0.929 . S
C95 C96 1.400 . S
C95 C97 1.364 1_554 S
C96 C95 1.400 . S
C96 C100 1.377 . S
C97 C95 1.364 1_556 S
C97 C98 1.374 . S
C98 H89 0.930 . S
C98 C97 1.374 . S
C98 C99 1.383 1_556 S
C99 O93 1.412 . S
C99 C98 1.383 1_554 S
C99 C100 1.394 . S
C100 H90 0.929 . S
C100 C96 1.377 . S
C100 C99 1.394 . S
H101 C108 0.929 . S
H102 C111 0.930 . S
H103 C113 0.929 . S
H104 C105 0.969 . S
C105 H104 0.969 . S
C105 O106 1.550 . S
C105 H107 0.973 . S
O106 C105 1.550 . S
O106 C112 1.434 . S
H107 C105 0.973 . S
C108 H101 0.929 . S
C108 C109 1.400 . S
C108 C110 1.364 . S
C109 C108 1.400 . S
C109 C113 1.377 . S
C110 C108 1.364 . S
C110 C111 1.374 . S
C111 H102 0.930 . S
C111 C110 1.374 . S
C111 C112 1.374 1_655 S
C112 O106 1.434 . S
C112 C111 1.374 1_455 S
C112 C113 1.380 1_455 S
C113 H103 0.929 . S
C113 C109 1.377 . S
C113 C112 1.380 1_655 S
H114 C121 0.929 . S
H115 C124 0.930 . S
H116 C126 0.929 . S
H117 C118 0.969 . S
C118 H117 0.969 . S
C118 O119 1.550 1_554 S
C118 H120 0.973 . S
O119 C118 1.550 1_556 S
O119 C125 1.412 . S
H120 C118 0.973 . S
C121 H114 0.929 . S
C121 C122 1.400 1_554 S
C121 C123 1.364 . S
C122 C121 1.400 1_556 S
C122 C126 1.377 . S
C123 C121 1.364 . S
C123 C124 1.374 . S
C124 H115 0.930 . S
C124 C123 1.374 . S
C124 C125 1.383 1_554 S
C125 O119 1.412 . S
C125 C124 1.383 1_556 S
C125 C126 1.394 . S
C126 H116 0.929 . S
C126 C122 1.377 . S
C126 C125 1.394 . S
H127 C134 0.929 . S
H128 C137 0.930 1_655 S
H129 C139 0.929 . S
H130 C131 0.969 . S
C131 H130 0.969 . S
C131 O132 1.550 . S
C131 H133 0.973 . S
O132 C131 1.550 . S
O132 C138 1.412 . S
H133 C131 0.973 . S
C134 H127 0.929 . S
C134 C135 1.400 . S
C134 C136 1.364 . S
C135 C134 1.400 . S
C135 C139 1.377 . S
C136 C134 1.364 . S
C136 C137 1.374 . S
C137 H128 0.930 1_455 S
C137 C136 1.374 . S
C137 C138 1.383 1_455 S
C138 O132 1.412 . S
C138 C137 1.383 1_655 S
C138 C139 1.394 1_655 S
C139 H129 0.929 . S
C139 C135 1.377 . S
C139 C138 1.394 1_455 S
H140 C147 0.929 . S
H141 C150 0.930 1_545 S
H142 C152 0.929 . S
H143 C144 0.969 . S
C144 H143 0.969 . S
C144 O145 1.550 . S
C144 H146 0.973 . S
O145 C144 1.550 . S
O145 C151 1.412 . S
H146 C144 0.973 . S
C147 H140 0.929 . S
C147 C148 1.400 . S
C147 C149 1.364 . S
C148 C147 1.400 . S
C148 C152 1.377 . S
C149 C147 1.364 . S
C149 C150 1.374 . S
C150 H141 0.930 1_565 S
C150 C149 1.374 . S
C150 C151 1.383 1_565 S
C151 O145 1.412 . S
C151 C150 1.383 1_545 S
C151 C152 1.394 1_545 S
C152 H142 0.929 . S
C152 C148 1.377 . S
C152 C151 1.394 1_565 S
H153 C160 0.929 1_554 S
H154 C163 0.930 . S
H155 C165 0.929 . S
H156 C157 0.969 . S
C157 H156 0.969 . S
C157 O158 1.550 1_554 S
C157 H159 0.973 . S
O158 C157 1.550 1_556 S
O158 C164 1.412 . S
H159 C157 0.973 . S
C160 H153 0.929 1_556 S
C160 C161 1.400 . S
C160 C162 1.364 1_556 S
C161 C160 1.400 . S
C161 C165 1.377 . S
C162 C160 1.364 1_554 S
C162 C163 1.374 . S
C163 H154 0.930 . S
C163 C162 1.374 . S
C163 C164 1.383 1_554 S
C164 O158 1.412 . S
C164 C163 1.383 1_556 S
C164 C165 1.394 . S
C165 H155 0.929 . S
C165 C161 1.377 . S
C165 C164 1.394 . S
H166 C173 0.929 . S
H167 C176 0.930 1_565 S
H168 C178 0.929 . S
H169 C170 0.969 . S
C170 H169 0.969 . S
C170 O171 1.550 . S
C170 H172 0.973 . S
O171 C170 1.550 . S
O171 C177 1.412 . S
H172 C170 0.973 . S
C173 H166 0.929 . S
C173 C174 1.400 . S
C173 C175 1.364 . S
C174 C173 1.400 . S
C174 C178 1.377 . S
C175 C173 1.364 . S
C175 C176 1.374 . S
C176 H167 0.930 1_545 S
C176 C175 1.374 . S
C176 C177 1.383 1_545 S
C177 O171 1.412 . S
C177 C176 1.383 1_565 S
C177 C178 1.394 1_565 S
C178 H168 0.929 . S
C178 C174 1.377 . S
C178 C177 1.394 1_545 S
H179 C186 0.929 . S
H180 C189 0.930 . S
H181 C191 0.929 . S
H182 C183 0.969 . S
C183 H182 0.969 . S
C183 O184 1.550 1_556 S
C183 H185 0.973 . S
O184 C183 1.550 1_554 S
O184 C190 1.412 . S
H185 C183 0.973 . S
C186 H179 0.929 . S
C186 C187 1.400 . S
C186 C188 1.364 1_554 S
C187 C186 1.400 . S
C187 C191 1.377 . S
C188 C186 1.364 1_556 S
C188 C189 1.374 . S
C189 H180 0.930 . S
C189 C188 1.374 . S
C189 C190 1.383 1_556 S
C190 O184 1.412 . S
C190 C189 1.383 1_554 S
C190 C191 1.394 . S
C191 H181 0.929 . S
C191 C187 1.377 . S
C191 C190 1.394 . S
C192 C193 1.369 . S
C192 C194 1.419 . S
C192 H196 0.930 . S
C193 C192 1.369 . S
C193 C202 1.429 . S
C194 C192 1.419 . S
C194 C195 1.363 . S
C194 H197 0.929 . S
C195 C194 1.363 . S
C195 C201 1.428 . S
H196 C192 0.930 . S
H197 C194 0.929 . S
S198 N199 1.613 . S
S198 N200 1.610 . S
N199 S198 1.613 . S
N199 C202 1.350 . S
N200 S198 1.610 . S
N200 C201 1.351 . S
C201 C195 1.428 . S
C201 N200 1.351 . S
C201 C202 1.434 . S
C202 C193 1.429 . S
C202 N199 1.350 . S
C202 C201 1.434 . S
C203 C204 1.369 . S
C203 C205 1.419 . S
C203 H207 0.930 . S
C204 C203 1.369 . S
C204 C213 1.429 . S
C205 C203 1.419 . S
C205 C206 1.363 . S
C205 H208 0.929 . S
C206 C205 1.363 . S
C206 C212 1.428 . S
H207 C203 0.930 . S
H208 C205 0.929 . S
S209 N210 1.613 . S
S209 N211 1.610 . S
N210 S209 1.613 . S
N210 C213 1.350 . S
N211 S209 1.610 . S
N211 C212 1.351 . S
C212 C206 1.428 . S
C212 N211 1.351 . S
C212 C213 1.434 . S
C213 C204 1.429 . S
C213 N210 1.350 . S
C213 C212 1.434 . S
C214 C215 1.369 . S
C214 C216 1.419 . S
C214 H218 0.930 . S
C215 C214 1.369 . S
C215 C224 1.429 . S
C216 C214 1.419 . S
C216 C217 1.363 . S
C216 H219 0.929 . S
C217 C216 1.363 . S
C217 C223 1.428 . S
H218 C214 0.930 . S
H219 C216 0.929 . S
S220 N221 1.613 . S
S220 N222 1.610 . S
N221 S220 1.613 . S
N221 C224 1.350 . S
N222 S220 1.610 . S
N222 C223 1.351 . S
C223 C217 1.428 . S
C223 N222 1.351 . S
C223 C224 1.434 . S
C224 C215 1.429 . S
C224 N221 1.350 . S
C224 C223 1.434 . S
C225 C226 1.369 . S
C225 C227 1.419 . S
C225 H229 0.930 . S
C226 C225 1.369 . S
C226 C235 1.429 . S
C227 C225 1.419 . S
C227 C228 1.363 . S
C227 H230 0.929 . S
C228 C227 1.363 . S
C228 C234 1.428 . S
H229 C225 0.930 . S
H230 C227 0.929 . S
S231 N232 1.613 . S
S231 N233 1.610 . S
N232 S231 1.613 . S
N232 C235 1.350 . S
N233 S231 1.610 . S
N233 C234 1.351 . S
C234 C228 1.428 . S
C234 N233 1.351 . S
C234 C235 1.434 . S
C235 C226 1.429 . S
C235 N232 1.350 . S
C235 C234 1.434 . S
C236 C237 1.369 . S
C236 C238 1.419 . S
C236 H240 0.930 . S
C237 C236 1.369 . S
C237 C246 1.429 . S
C238 C236 1.419 . S
C238 C239 1.363 . S
C238 H241 0.929 . S
C239 C238 1.363 . S
C239 C245 1.428 . S
H240 C236 0.930 . S
H241 C238 0.929 . S
S242 N243 1.613 . S
S242 N244 1.610 . S
N243 S242 1.613 . S
N243 C246 1.350 . S
N244 S242 1.610 . S
N244 C245 1.351 . S
C245 C239 1.428 . S
C245 N244 1.351 . S
C245 C246 1.434 . S
C246 C237 1.429 . S
C246 N243 1.350 . S
C246 C245 1.434 . S
C247 C248 1.369 . S
C247 C249 1.419 . S
C247 H251 0.930 . S
C248 C247 1.369 . S
C248 C257 1.429 . S
C249 C247 1.419 . S
C249 C250 1.363 . S
C249 H252 0.929 . S
C250 C249 1.363 . S
C250 C256 1.428 . S
H251 C247 0.930 . S
H252 C249 0.929 . S
S253 N254 1.613 . S
S253 N255 1.610 . S
N254 S253 1.613 . S
N254 C257 1.350 . S
N255 S253 1.610 . S
N255 C256 1.351 . S
C256 C250 1.428 . S
C256 N255 1.351 . S
C256 C257 1.434 . S
C257 C248 1.429 . S
C257 N254 1.350 . S
C257 C256 1.434 . S
C258 C259 1.369 . S
C258 C260 1.419 . S
C258 H262 0.930 . S
C259 C258 1.369 . S
C259 C268 1.429 . S
C260 C258 1.419 . S
C260 C261 1.363 . S
C260 H263 0.929 . S
C261 C260 1.363 . S
C261 C267 1.428 . S
H262 C258 0.930 . S
H263 C260 0.929 . S
S264 N265 1.613 . S
S264 N266 1.610 . S
N265 S264 1.613 . S
N265 C268 1.350 . S
N266 S264 1.610 . S
N266 C267 1.351 . S
C267 C261 1.428 . S
C267 N266 1.351 . S
C267 C268 1.434 . S
C268 C259 1.429 . S
C268 N265 1.350 . S
C268 C267 1.434 . S
C269 C270 1.369 . S
C269 C271 1.419 . S
C269 H273 0.930 . S
C270 C269 1.369 . S
C270 C279 1.429 . S
C271 C269 1.419 . S
C271 C272 1.363 . S
C271 H274 0.929 . S
C272 C271 1.363 . S
C272 C278 1.428 . S
H273 C269 0.930 . S
H274 C271 0.929 . S
S275 N276 1.613 . S
S275 N277 1.610 . S
N276 S275 1.613 . S
N276 C279 1.350 . S
N277 S275 1.610 . S
N277 C278 1.351 . S
C278 C272 1.428 . S
C278 N277 1.351 . S
C278 C279 1.434 . S
C279 C270 1.429 . S
C279 N276 1.350 . S
C279 C278 1.434 . S
C280 C281 1.369 . S
C280 C282 1.419 . S
C280 H284 0.930 . S
C281 C280 1.369 . S
C281 C290 1.429 . S
C282 C280 1.419 . S
C282 C283 1.363 . S
C282 H285 0.929 . S
C283 C282 1.363 . S
C283 C289 1.428 . S
H284 C280 0.930 . S
H285 C282 0.929 . S
S286 N287 1.613 . S
S286 N288 1.610 . S
N287 S286 1.613 . S
N287 C290 1.350 . S
N288 S286 1.610 . S
N288 C289 1.351 . S
C289 C283 1.428 . S
C289 N288 1.351 . S
C289 C290 1.434 . S
C290 C281 1.429 . S
C290 N287 1.350 . S
C290 C289 1.434 . S
C291 C292 1.369 . S
C291 C293 1.419 . S
C291 H295 0.930 . S
C292 C291 1.369 . S
C292 C301 1.429 . S
C293 C291 1.419 . S
C293 C294 1.363 . S
C293 H296 0.929 . S
C294 C293 1.363 . S
C294 C300 1.428 . S
H295 C291 0.930 . S
H296 C293 0.929 . S
S297 N298 1.613 . S
S297 N299 1.610 . S
N298 S297 1.613 . S
N298 C301 1.350 . S
N299 S297 1.610 . S
N299 C300 1.351 . S
C300 C294 1.428 . S
C300 N299 1.351 . S
C300 C301 1.434 . S
C301 C292 1.429 . S
C301 N298 1.350 . S
C301 C300 1.434 . S
C302 C303 1.369 . S
C302 C304 1.419 . S
C302 H306 0.930 . S
C303 C302 1.369 . S
C303 C312 1.429 . S
C304 C302 1.419 . S
C304 C305 1.363 . S
C304 H307 0.929 . S
C305 C304 1.363 . S
C305 C311 1.428 . S
H306 C302 0.930 . S
H307 C304 0.929 . S
S308 N309 1.613 . S
S308 N310 1.610 . S
N309 S308 1.613 . S
N309 C312 1.350 . S
N310 S308 1.610 . S
N310 C311 1.351 . S
C311 C305 1.428 . S
C311 N310 1.351 . S
C311 C312 1.434 . S
C312 C303 1.429 . S
C312 N309 1.350 . S
C312 C311 1.434 . S
C313 C314 1.369 . S
C313 C315 1.419 . S
C313 H317 0.930 . S
C314 C313 1.369 . S
C314 C323 1.429 . S
C315 C313 1.419 . S
C315 C316 1.363 . S
C315 H318 0.929 . S
C316 C315 1.363 . S
C316 C322 1.428 . S
H317 C313 0.930 . S
H318 C315 0.929 . S
S319 N320 1.613 . S
S319 N321 1.610 . S
N320 S319 1.613 . S
N320 C323 1.350 . S
N321 S319 1.610 . S
N321 C322 1.351 . S
C322 C316 1.428 . S
C322 N321 1.351 . S
C322 C323 1.434 . S
C323 C314 1.429 . S
C323 N320 1.350 . S
C323 C322 1.434 . S
C324 C325 1.369 . S
C324 C326 1.419 . S
C324 H328 0.930 . S
C325 C324 1.369 . S
C325 C334 1.429 . S
C326 C324 1.419 . S
C326 C327 1.363 . S
C326 H329 0.929 . S
C327 C326 1.363 . S
C327 C333 1.428 . S
H328 C324 0.930 . S
H329 C326 0.929 . S
S330 N331 1.613 . S
S330 N332 1.610 . S
N331 S330 1.613 . S
N331 C334 1.350 . S
N332 S330 1.610 . S
N332 C333 1.351 . S
C333 C327 1.428 . S
C333 N332 1.351 . S
C333 C334 1.434 . S
C334 C325 1.429 . S
C334 N331 1.350 . S
C334 C333 1.434 . S
C335 C336 1.369 . S
C335 C337 1.419 . S
C335 H339 0.930 . S
C336 C335 1.369 . S
C336 C345 1.429 . S
C337 C335 1.419 . S
C337 C338 1.363 . S
C337 H340 0.929 . S
C338 C337 1.363 . S
C338 C344 1.428 . S
H339 C335 0.930 . S
H340 C337 0.929 . S
S341 N342 1.613 . S
S341 N343 1.610 . S
N342 S341 1.613 . S
N342 C345 1.350 . S
N343 S341 1.610 . S
N343 C344 1.351 . S
C344 C338 1.428 . S
C344 N343 1.351 . S
C344 C345 1.434 . S
C345 C336 1.429 . S
C345 N342 1.350 . S
C345 C344 1.434 . S
C346 C347 1.369 . S
C346 C348 1.419 . S
C346 H350 0.930 . S
C347 C346 1.369 . S
C347 C356 1.429 . S
C348 C346 1.419 . S
C348 C349 1.363 . S
C348 H351 0.929 . S
C349 C348 1.363 . S
C349 C355 1.428 . S
H350 C346 0.930 . S
H351 C348 0.929 . S
S352 N353 1.613 . S
S352 N354 1.610 . S
N353 S352 1.613 . S
N353 C356 1.350 . S
N354 S352 1.610 . S
N354 C355 1.351 . S
C355 C349 1.428 . S
C355 N354 1.351 . S
C355 C356 1.434 . S
C356 C347 1.429 . S
C356 N353 1.350 . S
C356 C355 1.434 . S
C357 C358 1.369 . S
C357 C359 1.419 . S
C357 H361 0.930 . S
C358 C357 1.369 . S
C358 C367 1.429 . S
C359 C357 1.419 . S
C359 C360 1.363 . S
C359 H362 0.929 . S
C360 C359 1.363 . S
C360 C366 1.428 . S
H361 C357 0.930 . S
H362 C359 0.929 . S
S363 N364 1.613 . S
S363 N365 1.610 . S
N364 S363 1.613 . S
N364 C367 1.350 . S
N365 S363 1.610 . S
N365 C366 1.351 . S
C366 C360 1.428 . S
C366 N365 1.351 . S
C366 C367 1.434 . S
C367 C358 1.429 . S
C367 N364 1.350 . S
C367 C366 1.434 . S
C368 C369 1.369 1_556 S
C368 C370 1.419 . S
C368 H372 0.930 . S
C369 C368 1.369 1_554 S
C369 C378 1.429 . S
C370 C368 1.419 . S
C370 C371 1.363 1_556 S
C370 H373 0.929 . S
C371 C370 1.363 1_554 S
C371 C377 1.428 . S
H372 C368 0.930 . S
H373 C370 0.929 . S
S374 N375 1.613 . S
S374 N376 1.610 . S
N375 S374 1.613 . S
N375 C378 1.350 . S
N376 S374 1.610 . S
N376 C377 1.351 . S
C377 C371 1.428 . S
C377 N376 1.351 . S
C377 C378 1.434 . S
C378 C369 1.429 . S
C378 N375 1.350 . S
C378 C377 1.434 . S
C379 C380 1.369 . S
C379 C381 1.419 . S
C379 H383 0.930 . S
C380 C379 1.369 . S
C380 C389 1.429 . S
C381 C379 1.419 . S
C381 C382 1.363 . S
C381 H384 0.929 . S
C382 C381 1.363 . S
C382 C388 1.428 . S
H383 C379 0.930 . S
H384 C381 0.929 . S
S385 N386 1.613 . S
S385 N387 1.610 . S
N386 S385 1.613 . S
N386 C389 1.350 . S
N387 S385 1.610 . S
N387 C388 1.351 . S
C388 C382 1.428 . S
C388 N387 1.351 . S
C388 C389 1.434 . S
C389 C380 1.429 . S
C389 N386 1.350 . S
C389 C388 1.434 . S
C390 C391 1.369 . S
C390 C392 1.419 . S
C390 H394 0.930 . S
C391 C390 1.369 . S
C391 C400 1.429 1_554 S
C392 C390 1.419 . S
C392 C393 1.363 . S
C392 H395 0.929 . S
C393 C392 1.363 . S
C393 C399 1.428 1_554 S
H394 C390 0.930 . S
H395 C392 0.929 . S
S396 N397 1.613 . S
S396 N398 1.610 . S
N397 S396 1.613 . S
N397 C400 1.350 . S
N398 S396 1.610 . S
N398 C399 1.351 . S
C399 C393 1.428 1_556 S
C399 N398 1.351 . S
C399 C400 1.434 . S
C400 C391 1.429 1_556 S
C400 N397 1.350 . S
C400 C399 1.434 . S
C401 C402 1.369 . S
C401 C403 1.419 . S
C401 H405 0.930 . S
C402 C401 1.369 . S
C402 C411 1.429 . S
C403 C401 1.419 . S
C403 C404 1.363 . S
C403 H406 0.929 . S
C404 C403 1.363 . S
C404 C410 1.428 . S
H405 C401 0.930 . S
H406 C403 0.929 . S
S407 N408 1.613 . S
S407 N409 1.610 . S
N408 S407 1.613 . S
N408 C411 1.350 . S
N409 S407 1.610 . S
N409 C410 1.351 . S
C410 C404 1.428 . S
C410 N409 1.351 . S
C410 C411 1.434 . S
C411 C402 1.429 . S
C411 N408 1.350 . S
C411 C410 1.434 . S
C412 C413 1.369 . S
C412 C414 1.419 . S
C412 H416 0.930 . S
C413 C412 1.369 . S
C413 C422 1.429 . S
C414 C412 1.419 . S
C414 C415 1.363 . S
C414 H417 0.929 . S
C415 C414 1.363 . S
C415 C421 1.428 . S
H416 C412 0.930 . S
H417 C414 0.929 . S
S418 N419 1.613 . S
S418 N420 1.610 . S
N419 S418 1.613 . S
N419 C422 1.350 . S
N420 S418 1.610 . S
N420 C421 1.351 . S
C421 C415 1.428 . S
C421 N420 1.351 . S
C421 C422 1.434 . S
C422 C413 1.429 . S
C422 N419 1.350 . S
C422 C421 1.434 . S
C423 C424 1.369 . S
C423 C425 1.419 . S
C423 H427 0.930 . S
C424 C423 1.369 . S
C424 C433 1.429 1_554 S
C425 C423 1.419 . S
C425 C426 1.363 . S
C425 H428 0.929 . S
C426 C425 1.363 . S
C426 C432 1.428 1_554 S
H427 C423 0.930 . S
H428 C425 0.929 . S
S429 N430 1.613 . S
S429 N431 1.610 . S
N430 S429 1.613 . S
N430 C433 1.350 . S
N431 S429 1.610 . S
N431 C432 1.351 . S
C432 C426 1.428 1_556 S
C432 N431 1.351 . S
C432 C433 1.434 . S
C433 C424 1.429 1_556 S
C433 N430 1.350 . S
C433 C432 1.434 . S
C434 C435 1.369 . S
C434 C436 1.419 . S
C434 H438 0.930 . S
C435 C434 1.369 . S
C435 C444 1.429 . S
C436 C434 1.419 . S
C436 C437 1.363 . S
C436 H439 0.929 . S
C437 C436 1.363 . S
C437 C443 1.428 . S
H438 C434 0.930 . S
H439 C436 0.929 . S
S440 N441 1.613 . S
S440 N442 1.610 . S
N441 S440 1.613 . S
N441 C444 1.350 . S
N442 S440 1.610 . S
N442 C443 1.351 . S
C443 C437 1.428 . S
C443 N442 1.351 . S
C443 C444 1.434 . S
C444 C435 1.429 . S
C444 N441 1.350 . S
C444 C443 1.434 . S
C445 C446 1.369 1_556 S
C445 C447 1.419 . S
C445 H449 0.930 . S
C446 C445 1.369 1_554 S
C446 C455 1.429 . S
C447 C445 1.419 . S
C447 C448 1.363 1_556 S
C447 H450 0.929 . S
C448 C447 1.363 1_554 S
C448 C454 1.428 . S
H449 C445 0.930 . S
H450 C447 0.929 . S
S451 N452 1.613 . S
S451 N453 1.610 . S
N452 S451 1.613 . S
N452 C455 1.350 . S
N453 S451 1.610 . S
N453 C454 1.351 . S
C454 C448 1.428 . S
C454 N453 1.351 . S
C454 C455 1.434 . S
C455 C446 1.429 . S
C455 N452 1.350 . S
C455 C454 1.434 . S
C193 C21 1.498 . S
C195 C135 1.503 . S
C204 C40 1.523 . S
C206 C97 1.486 . S
C217 C110 1.448 . S
C215 C54 1.472 . S
C226 C73 1.506 . S
C228 C122 1.509 . S
C239 C162 1.456 . S
C237 C74 1.481 . S
C250 C174 1.490 . S
C248 C10 1.502 . S
C261 C187 1.496 . S
C259 C37 1.482 . S
C272 C149 1.510 . S
C270 C65 1.530 . S
C281 C52 1.459 . S
C283 C109 1.456 . S
C292 C87 1.540 . S
C294 C123 1.519 . S
C303 C15 1.505 . S
C305 C136 1.495 . S
C316 C96 1.470 . S
C314 C32 1.483 . S
C325 C29 1.520 . S
C327 C188 1.504 . S
C338 C148 1.510 . S
C336 C59 1.516 . S
C349 C161 1.449 . S
C347 C84 1.452 . S
C358 C8 1.506 . S
C360 C175 1.475 . S
C371 C92 1.461 1_554 S
C369 C7 1.532 . S
C382 C105 1.459 . S
C380 C30 1.491 . S
C391 C62 1.538 . S
C393 C118 1.504 . S
C402 C81 1.500 . S
C404 C131 1.460 . S
C415 C144 1.451 . S
C413 C76 1.539 . S
C424 C18 1.490 . S
C426 C157 1.459 . S
C435 C43 1.534 . S
C437 C170 1.506 . S
C446 C51 1.503 . S
C448 C183 1.457 1_554 S
