# Generated by pormake.
# Topology zzz, (3,6)-cn, num edge types: 1
# Building blocks:
#     Node 0, Type 0, BuildingBlock: PAMTOO_clean_linker_0, # of connection points: 3
#     Node 1, Type 0, BuildingBlock: PAMTOO_clean_linker_0, # of connection points: 3
#     Node 2, Type 0, BuildingBlock: PAMTOO_clean_linker_0, # of connection points: 3
#     Node 3, Type 0, BuildingBlock: PAMTOO_clean_linker_0, # of connection points: 3
#     Node 4, Type 0, BuildingBlock: PAMTOO_clean_linker_0, # of connection points: 3
#     Node 5, Type 0, BuildingBlock: PAMTOO_clean_linker_0, # of connection points: 3
#     Node 6, Type 0, BuildingBlock: PAMTOO_clean_linker_0, # of connection points: 3
#     Node 7, Type 0, BuildingBlock: PAMTOO_clean_linker_0, # of connection points: 3
#     Node 8, Type 1, BuildingBlock: BETDIP_clean_sbu_0, # of connection points: 6
#     Node 9, Type 1, BuildingBlock: BETDIP_clean_sbu_0, # of connection points: 6
#     Node 10, Type 1, BuildingBlock: BETDIP_clean_sbu_0, # of connection points: 6
#     Node 11, Type 1, BuildingBlock: BETDIP_clean_sbu_0, # of connection points: 6
#     Edge 12, Type (0, 1), BuildingBlock: UVAHIK_clean_linker_0, # of connection points: 2
#     Edge 13, Type (0, 1), BuildingBlock: UVAHIK_clean_linker_0, # of connection points: 2
#     Edge 14, Type (0, 1), BuildingBlock: UVAHIK_clean_linker_0, # of connection points: 2
#     Edge 15, Type (0, 1), BuildingBlock: UVAHIK_clean_linker_0, # of connection points: 2
#     Edge 16, Type (0, 1), BuildingBlock: UVAHIK_clean_linker_0, # of connection points: 2
#     Edge 17, Type (0, 1), BuildingBlock: UVAHIK_clean_linker_0, # of connection points: 2
#     Edge 18, Type (0, 1), BuildingBlock: UVAHIK_clean_linker_0, # of connection points: 2
#     Edge 19, Type (0, 1), BuildingBlock: UVAHIK_clean_linker_0, # of connection points: 2
#     Edge 20, Type (0, 1), BuildingBlock: UVAHIK_clean_linker_0, # of connection points: 2
#     Edge 21, Type (0, 1), BuildingBlock: UVAHIK_clean_linker_0, # of connection points: 2
#     Edge 22, Type (0, 1), BuildingBlock: UVAHIK_clean_linker_0, # of connection points: 2
#     Edge 23, Type (0, 1), BuildingBlock: UVAHIK_clean_linker_0, # of connection points: 2
#     Edge 24, Type (0, 1), BuildingBlock: UVAHIK_clean_linker_0, # of connection points: 2
#     Edge 25, Type (0, 1), BuildingBlock: UVAHIK_clean_linker_0, # of connection points: 2
#     Edge 26, Type (0, 1), BuildingBlock: UVAHIK_clean_linker_0, # of connection points: 2
#     Edge 27, Type (0, 1), BuildingBlock: UVAHIK_clean_linker_0, # of connection points: 2
#     Edge 28, Type (0, 1), BuildingBlock: UVAHIK_clean_linker_0, # of connection points: 2
#     Edge 29, Type (0, 1), BuildingBlock: UVAHIK_clean_linker_0, # of connection points: 2
#     Edge 30, Type (0, 1), BuildingBlock: UVAHIK_clean_linker_0, # of connection points: 2
#     Edge 31, Type (0, 1), BuildingBlock: UVAHIK_clean_linker_0, # of connection points: 2
#     Edge 32, Type (0, 1), BuildingBlock: UVAHIK_clean_linker_0, # of connection points: 2
#     Edge 33, Type (0, 1), BuildingBlock: UVAHIK_clean_linker_0, # of connection points: 2
#     Edge 34, Type (0, 1), BuildingBlock: UVAHIK_clean_linker_0, # of connection points: 2
#     Edge 35, Type (0, 1), BuildingBlock: UVAHIK_clean_linker_0, # of connection points: 2
# Relax obj value: 0.219
# Max RMSD: 0.153
# Mean RMSD: 0.145
data_MOF--net-zzz--node1-BETDIP_clean_sbu_0--node2-PAMTOO_clean_linker_0--edge1-UVAHIK_clean_linker_0
_symmetry_space_group_name_H-M    P1
_symmetry_Int_Tables_number       1
_symmetry_cell_setting            triclinic
loop_
_symmetry_equiv_pos_as_xyz
'x, y, z'
_cell_length_a     67.602837
_cell_length_b     67.792309
_cell_length_c     17.464154
_cell_angle_alpha  89.96964
_cell_angle_beta   89.952596
_cell_angle_gamma 89.968699
loop_
_atom_site_label
_atom_site_type_symbol
_atom_site_fract_x
_atom_site_fract_y
_atom_site_fract_z
_atom_type_partial_charge
H0 H 0.79652 0.48399 0.23175 0.0
H1 H 0.73734 0.49476 0.15322 0.0
H2 H 0.75831 0.52304 0.35857 0.0
H3 H 0.70685 0.5174 0.34641 0.0
C4 C 0.71073 0.51013 0.29141 0.0
O5 O 0.7278 0.51887 0.2632 0.0
H6 H 0.71322 0.49419 0.30371 0.0
C7 C 0.7822 0.4909 0.24028 0.0
C8 C 0.77946 0.50391 0.30181 0.0
C9 C 0.76707 0.48741 0.18728 0.0
C10 C 0.74886 0.49693 0.1955 0.0
C11 C 0.74543 0.50938 0.25811 0.0
C12 C 0.76073 0.51283 0.31182 0.0
H13 H 0.02888 0.79807 0.22099 0.0
H14 H 0.0269 0.7377 0.14772 0.0
H15 H 1.00393 0.75379 0.36943 0.0
H16 H 0.98414 0.72612 0.20662 0.0
C17 C 0.99243 0.7157 0.24418 0.0
O18 O 1.0098 0.72417 0.27076 0.0
H19 H 0.9827 0.71261 0.29407 0.0
C20 C 0.02492 0.78282 0.23227 0.0
C21 C 0.01637 0.77779 0.3027 0.0
C22 C 0.02848 0.76852 0.17609 0.0
C23 C 0.02382 0.7488 0.19062 0.0
C24 C 0.01456 0.74342 0.25928 0.0
C25 C 0.01075 0.75797 0.31569 0.0
H26 H 0.72567 0.0288 0.22779 0.0
H27 H 0.78563 0.02088 0.15146 0.0
H28 H 0.76477 0.99024 0.35185 0.0
H29 H 0.81607 0.99754 0.34161 0.0
C30 C 0.81222 1.00481 0.28659 0.0
O31 O 0.79534 0.99588 0.25778 0.0
H32 H 0.8095 0.02071 0.29894 0.0
C33 C 0.74025 0.02247 0.23599 0.0
C34 C 0.74323 0.00915 0.29632 0.0
C35 C 0.75542 0.02699 0.18394 0.0
C36 C 0.77392 0.01794 0.19233 0.0
C37 C 0.7775 1.00502 0.25342 0.0
C38 C 0.76218 1.00072 0.30612 0.0
H39 H 0.47351 0.72516 0.25557 0.0
H40 H 0.48916 0.77953 0.14501 0.0
H41 H 0.52314 0.75896 0.33745 0.0
H42 H 0.52695 0.80899 0.30924 0.0
C43 C 0.51502 0.80568 0.26755 0.0
O44 O 0.51891 0.78752 0.23419 0.0
H45 H 0.50087 0.80519 0.30035 0.0
C46 C 0.48254 0.73838 0.25397 0.0
C47 C 0.49842 0.74031 0.30524 0.0
C48 C 0.47913 0.75234 0.1962 0.0
C49 C 0.49143 0.76887 0.19045 0.0
C50 C 0.50699 0.77155 0.24225 0.0
C51 C 0.51071 0.75712 0.29904 0.0
H52 H 0.22478 0.51644 0.19352 0.0
H53 H 0.28618 0.5193 0.25721 0.0
H54 H 0.26991 0.5042 0.02616 0.0
H55 H 0.31709 0.4878 0.08005 0.0
C56 C 0.31093 0.49284 0.13568 0.0
O57 O 0.29988 0.50976 0.12304 0.0
H58 H 0.30144 0.48055 0.15699 0.0
C59 C 0.24029 0.51481 0.17863 0.0
C60 C 0.24543 0.50994 0.10331 0.0
C61 C 0.25484 0.51818 0.23438 0.0
C62 C 0.27484 0.51662 0.21463 0.0
C63 C 0.28035 0.51123 0.14025 0.0
C64 C 0.26563 0.50799 0.08409 0.0
H65 H 0.98638 0.22419 0.19374 0.0
H66 H 1.00117 0.28212 0.27533 0.0
H67 H 0.02511 0.26142 0.06164 0.0
H68 H 0.99993 0.30628 0.11758 0.0
C69 C 0.01569 0.30851 0.13409 0.0
O70 O 0.02401 0.29118 0.16137 0.0
H71 H 0.02359 0.31288 0.08091 0.0
C72 C 0.99359 0.23829 0.18483 0.0
C73 C 1.00545 0.24095 0.11953 0.0
C74 C 0.99186 0.25296 0.24121 0.0
C75 C 1.00217 0.27071 0.23205 0.0
C76 C 0.01391 0.27394 0.16721 0.0
C77 C 0.01573 0.25899 0.11105 0.0
H78 H 0.29752 1.00459 0.19299 0.0
H79 H 0.23591 1.00009 0.25244 0.0
H80 H 0.25295 0.01407 0.02106 0.0
H81 H 0.20477 0.02945 0.07073 0.0
C82 C 0.21112 0.02514 0.12695 0.0
O83 O 0.22265 1.00844 0.11663 0.0
H84 H 0.22026 0.03791 0.14609 0.0
C85 C 0.28206 1.00565 0.17689 0.0
C86 C 0.27718 0.0098 0.10063 0.0
C87 C 0.26733 1.00206 0.23187 0.0
C88 C 0.2474 1.00288 0.21049 0.0
C89 C 0.24212 1.00759 0.13521 0.0
C90 C 0.25703 0.01083 0.07969 0.0
H91 H 0.51658 0.29777 0.22658 0.0
H92 H 0.50722 0.23734 0.29102 0.0
H93 H 0.50095 0.25486 0.05505 0.0
H94 H 0.52777 0.21604 0.14346 0.0
C95 C 0.5124 0.21012 0.1416 0.0
O96 O 0.49865 0.22495 0.15409 0.0
H97 H 0.51023 0.20423 0.08286 0.0
C98 C 0.51295 0.28274 0.21053 0.0
C99 C 0.5091 0.2783 0.13353 0.0
C100 C 0.51227 0.26814 0.26737 0.0
C101 C 0.50776 0.2487 0.24739 0.0
C102 C 0.50365 0.24383 0.17114 0.0
C103 C 0.50417 0.25866 0.11396 0.0
Tb104 Tb 0.0241 1.0026 0.77709 0.0
Tb105 Tb 1.00203 0.01557 0.64732 0.0
C106 C 0.0379 0.98318 0.88717 0.0
C107 C 0.04608 0.96298 0.88877 0.0
C108 C 0.03423 0.94678 0.86858 0.0
C109 C 0.04264 0.92823 0.85794 0.0
C110 C 0.063 0.92537 0.86873 0.0
C111 C 0.07474 0.94125 0.89297 0.0
C112 C 0.06636 0.95997 0.90238 0.0
C113 C 0.04681 0.01488 0.66258 0.0
C114 C 0.01077 0.97104 0.64897 0.0
C115 C 0.98849 0.03565 0.53877 0.0
C116 C 0.98199 0.05647 0.53883 0.0
C117 C 0.99558 0.07173 0.55291 0.0
C118 C 0.989 0.09094 0.56547 0.0
C119 C 0.96872 0.0954 0.56377 0.0
C120 C 0.95516 0.08037 0.54624 0.0
C121 C 0.96174 0.06106 0.53401 0.0
C122 C 0.97937 1.00302 0.76148 0.0
C123 C 0.01508 0.04701 0.77539 0.0
O124 O 0.01894 0.98484 0.87344 0.0
O125 O 0.04825 0.99594 0.84801 0.0
O126 O 0.03144 1.00443 0.65689 0.0
O127 O 0.04991 0.01851 0.7342 0.0
O128 O 0.0159 0.97437 0.72112 0.0
O129 O 1.00696 0.98599 0.60284 0.0
O130 O 1.00742 0.03244 0.54871 0.0
O131 O 0.97767 0.02373 0.57994 0.0
O132 O 0.99463 0.01363 0.76741 0.0
O133 O 0.97631 0.99946 0.68975 0.0
O134 O 0.01072 0.04374 0.70256 0.0
O135 O 0.01825 0.03198 0.82177 0.0
H136 H 0.01851 0.9485 0.85883 0.0
H137 H 0.0332 0.91604 0.84136 0.0
H138 H 0.09044 0.93925 0.90281 0.0
H139 H 0.07579 0.97222 0.91823 0.0
H140 H 0.01129 0.06879 0.55665 0.0
H141 H 0.99984 0.10234 0.57673 0.0
H142 H 0.93944 0.08344 0.54399 0.0
H143 H 0.95096 0.04957 0.52331 0.0
Tb144 Tb 0.51711 0.01809 0.76615 0.0
Tb145 Tb 0.50425 0.9965 0.63519 0.0
C146 C 0.53678 0.031 0.87708 0.0
C147 C 0.55747 0.03803 0.87999 0.0
C148 C 0.57326 0.02493 0.86738 0.0
C149 C 0.59249 0.03201 0.85901 0.0
C150 C 0.59641 0.05231 0.86356 0.0
C151 C 0.58082 0.06536 0.8798 0.0
C152 C 0.56149 0.05827 0.88777 0.0
C153 C 0.50494 0.04113 0.65281 0.0
C154 C 0.5489 1.00487 0.6382 0.0
C155 C 0.48438 0.98328 0.52545 0.0
C156 C 0.46329 0.97766 0.52386 0.0
C157 C 0.44859 0.99149 0.54271 0.0
C158 C 0.42915 0.98545 0.55505 0.0
C159 C 0.42394 0.96552 0.54795 0.0
C160 C 0.43833 0.95179 0.52502 0.0
C161 C 0.45791 0.95781 0.51349 0.0
C162 C 0.51658 0.97361 0.74879 0.0
C163 C 0.47253 0.00965 0.76279 0.0
O164 O 0.53417 0.01218 0.86374 0.0
O165 O 0.52469 0.04192 0.83699 0.0
O166 O 0.51545 0.02581 0.64638 0.0
O167 O 0.50116 0.04397 0.72454 0.0
O168 O 0.54546 0.01001 0.71025 0.0
O169 O 0.534 1.00109 0.59175 0.0
O170 O 0.4883 1.00205 0.53438 0.0
O171 O 0.4955 0.97222 0.56891 0.0
O172 O 0.50588 0.9888 0.75485 0.0
O173 O 0.52052 0.97083 0.67714 0.0
O174 O 0.47597 1.00539 0.68993 0.0
O175 O 0.48748 0.01262 0.80983 0.0
H176 H 0.57076 0.00922 0.86149 0.0
H177 H 0.60432 0.02156 0.84852 0.0
H178 H 0.5835 0.08107 0.88432 0.0
H179 H 0.5496 0.06868 0.89772 0.0
H180 H 0.45216 1.00693 0.55056 0.0
H181 H 0.41816 0.9964 0.57045 0.0
H182 H 0.43454 0.93637 0.51815 0.0
H183 H 0.46898 0.94686 0.49906 0.0
Tb184 Tb 0.49908 0.51537 0.77975 0.0
Tb185 Tb 0.5212 0.50284 0.651 0.0
C186 C 0.48516 0.53478 0.8896 0.0
C187 C 0.47516 0.55421 0.89164 0.0
C188 C 0.48618 0.57142 0.90497 0.0
C189 C 0.47719 0.58992 0.90073 0.0
C190 C 0.45695 0.59166 0.88348 0.0
C191 C 0.4458 0.57444 0.87199 0.0
C192 C 0.4548 0.5559 0.87606 0.0
C193 C 0.47625 0.50328 0.66517 0.0
C194 C 0.51156 0.54709 0.65195 0.0
C195 C 0.53551 0.483 0.54346 0.0
C196 C 0.5451 0.46364 0.54924 0.0
C197 C 0.5438 0.45017 0.48887 0.0
C198 C 0.5501 0.43071 0.49918 0.0
C199 C 0.55773 0.42442 0.57026 0.0
C200 C 0.55973 0.43824 0.6296 0.0
C201 C 0.55343 0.45765 0.61924 0.0
C202 C 0.54392 0.51498 0.76583 0.0
C203 C 0.50859 0.47107 0.77839 0.0
O204 O 0.50391 0.53491 0.87095 0.0
O205 O 0.4756 0.52051 0.85564 0.0
O206 O 0.49163 0.51372 0.65937 0.0
O207 O 0.47315 0.49972 0.73681 0.0
O208 O 0.50701 0.54371 0.72454 0.0
O209 O 0.51502 0.53211 0.60558 0.0
O210 O 0.51667 0.48301 0.56038 0.0
O211 O 0.54491 0.49754 0.57628 0.0
O212 O 0.52862 0.50442 0.77129 0.0
O213 O 0.547 0.51865 0.69429 0.0
O214 O 0.51305 0.47447 0.70578 0.0
O215 O 0.50524 0.48606 0.82474 0.0
H216 H 0.50183 0.57064 0.91779 0.0
H217 H 0.4861 0.60288 0.91185 0.0
H218 H 0.43017 0.57531 0.8587 0.0
H219 H 0.44585 0.54293 0.86578 0.0
H220 H 0.53714 0.45446 0.43496 0.0
H221 H 0.54802 0.42036 0.45268 0.0
H222 H 0.56564 0.43392 0.68475 0.0
H223 H 0.55434 0.4678 0.66704 0.0
Tb224 Tb 1.00578 0.49759 0.77389 0.0
Tb225 Tb 0.01781 0.51966 0.64371 0.0
C226 C 0.98614 0.48429 0.88391 0.0
C227 C 0.96618 0.47543 0.88356 0.0
C228 C 0.9504 0.48575 0.91698 0.0
C229 C 0.93101 0.47918 0.9074 0.0
C230 C 0.92703 0.46205 0.86485 0.0
C231 C 0.94283 0.45126 0.8339 0.0
C232 C 0.96225 0.45795 0.84272 0.0
C233 C 0.01807 0.47485 0.65975 0.0
C234 C 0.97339 0.50986 0.64711 0.0
C235 C 0.03704 0.5338 0.53367 0.0
C236 C 0.05798 0.53992 0.53073 0.0
C237 C 0.0731 0.52639 0.54785 0.0
C238 C 0.09245 0.53287 0.5587 0.0
C239 C 0.09714 0.55293 0.55184 0.0
C240 C 0.08233 0.56637 0.53051 0.0
C241 C 0.06284 0.55991 0.52048 0.0
C242 C 1.005 0.54202 0.75815 0.0
C243 C 0.05002 0.50712 0.76999 0.0
O244 O 0.98677 0.50305 0.86646 0.0
O245 O 1.00015 0.47428 0.84988 0.0
O246 O 1.00736 0.49004 0.65388 0.0
O247 O 0.02181 0.47186 0.73139 0.0
O248 O 0.97709 0.50445 0.71857 0.0
O249 O 0.98811 0.51444 0.60075 0.0
O250 O 0.03359 0.51491 0.54182 0.0
O251 O 0.02588 0.54442 0.5786 0.0
O252 O 0.01621 0.5272 0.76362 0.0
O253 O 1.00071 0.54467 0.68677 0.0
O254 O 0.04637 0.51123 0.69716 0.0
O255 O 0.03519 0.50397 0.81747 0.0
H256 H 0.95301 0.49925 0.94855 0.0
H257 H 0.91909 0.48756 0.93317 0.0
H258 H 0.94013 0.43799 0.80104 0.0
H259 H 0.97406 0.44971 0.81565 0.0
H260 H 0.06993 0.51086 0.55555 0.0
H261 H 0.10378 0.52216 0.57291 0.0
H262 H 0.08572 0.58189 0.5238 0.0
H263 H 0.05144 0.57062 0.5073 0.0
C264 C 0.19621 0.02756 0.26022 0.0
C265 C 0.19451 0.0214 0.18372 0.0
C266 C 0.18021 0.02571 0.311 0.0
C267 C 0.12526 0.0198 0.31326 0.0
H268 H 0.13369 0.00947 0.52902 0.0
C269 C 0.06041 1.00793 0.53047 0.0
C270 C 0.06269 0.01625 0.60368 0.0
C271 C 0.07614 1.00811 0.47766 0.0
C272 C 0.13104 0.01257 0.46906 0.0
H273 H 0.17513 1.00748 0.10152 0.0
H274 H 0.14728 1.00385 0.19019 0.0
H275 H 0.1618 0.00971 0.44174 0.0
H276 H 0.0831 0.03176 0.67791 0.0
H277 H 0.11031 0.0322 0.58634 0.0
H278 H 0.09444 0.02258 0.34093 0.0
C279 C 0.16075 0.01065 0.21076 0.0
C280 C 0.14723 0.01272 0.41878 0.0
C281 C 0.17676 0.01255 0.15999 0.0
C282 C 0.08086 0.02512 0.62218 0.0
C283 C 0.09655 0.02523 0.56975 0.0
C284 C 0.10904 0.01957 0.36359 0.0
C285 C 0.1621 0.01748 0.28682 0.0
C286 C 0.14465 0.0165 0.34011 0.0
C287 C 0.09455 0.01653 0.49699 0.0
C288 C 0.1117 0.01613 0.4424 0.0
H289 H 0.20976 0.03433 0.28022 0.0
H290 H 0.1819 0.03131 0.36867 0.0
H291 H 0.1226 0.02306 0.25346 0.0
H292 H 0.04661 1.00095 0.51451 0.0
H293 H 0.07403 1.00119 0.42242 0.0
C294 C 0.49336 0.18095 0.19576 0.0
C295 C 0.50994 0.19342 0.19891 0.0
C296 C 0.49189 0.16445 0.24419 0.0
C297 C 0.52302 0.13029 0.35946 0.0
H298 H 0.47316 0.11473 0.45103 0.0
C299 C 0.51422 0.05632 0.52566 0.0
C300 C 0.50363 0.0572 0.59489 0.0
C301 C 0.51425 0.07244 0.47493 0.0
C302 C 0.48724 0.11887 0.42614 0.0
H303 H 0.53766 0.19876 0.25724 0.0
H304 H 0.53513 0.17012 0.34193 0.0
H305 H 0.4747 0.14427 0.37115 0.0
H306 H 0.4843 0.07547 0.66393 0.0
H307 H 0.48426 0.10341 0.57583 0.0
H308 H 0.53561 0.10506 0.41526 0.0
C309 C 0.52336 0.17283 0.30124 0.0
C310 C 0.48808 0.13576 0.37967 0.0
C311 C 0.52476 0.18936 0.25311 0.0
C312 C 0.49261 0.0743 0.61105 0.0
C313 C 0.49252 0.09032 0.56024 0.0
C314 C 0.52214 0.11333 0.40549 0.0
C315 C 0.50703 0.15997 0.29688 0.0
C316 C 0.50602 0.14181 0.34599 0.0
C317 C 0.50354 0.08977 0.49185 0.0
C318 C 0.50427 0.10741 0.43994 0.0
H319 H 0.48174 0.18371 0.15443 0.0
H320 H 0.47916 0.15488 0.23869 0.0
H321 H 0.53705 0.13429 0.33385 0.0
H322 H 0.52286 0.04336 0.51151 0.0
H323 H 0.52272 0.07134 0.42243 0.0
C324 C 0.3455 0.50523 0.16626 0.0
C325 C 0.32771 0.49668 0.19142 0.0
C326 C 0.36164 0.50722 0.21622 0.0
C327 C 0.37557 0.506 0.42393 0.0
H328 H 0.42814 0.49539 0.34499 0.0
C329 C 0.44208 0.49334 0.62574 0.0
C330 C 0.4603 0.50204 0.60665 0.0
C331 C 0.42632 0.4933 0.57371 0.0
C332 C 0.4136 0.49861 0.36791 0.0
H333 H 0.31257 0.48437 0.28956 0.0
H334 H 0.34066 0.48754 0.37656 0.0
H335 H 0.39981 0.49481 0.25846 0.0
H336 H 0.4764 0.51712 0.51681 0.0
H337 H 0.44886 0.51698 0.42531 0.0
H338 H 0.38933 0.50952 0.53352 0.0
C339 C 0.34227 0.49285 0.31841 0.0
C340 C 0.39729 0.49833 0.31813 0.0
C341 C 0.32614 0.49091 0.26846 0.0
C342 C 0.46256 0.51027 0.53323 0.0
C343 C 0.44677 0.51015 0.48078 0.0
C344 C 0.39185 0.50619 0.47366 0.0
C345 C 0.3604 0.50079 0.29287 0.0
C346 C 0.37797 0.50188 0.34543 0.0
C347 C 0.42832 0.50189 0.50073 0.0
C348 C 0.4111 0.50234 0.44659 0.0
H349 H 0.34704 0.50998 0.10733 0.0
H350 H 0.37513 0.51379 0.19456 0.0
H351 H 0.36108 0.50923 0.44719 0.0
H352 H 0.43985 0.48676 0.68163 0.0
H353 H 0.41253 0.48646 0.59076 0.0
C354 C 1.00129 0.32908 0.24239 0.0
C355 C 0.01717 0.32494 0.19295 0.0
C356 C 1.00203 0.34525 0.29253 0.0
C357 C 0.03665 0.38096 0.38478 0.0
H358 H 0.98919 0.41236 0.41152 0.0
C359 C 0.03024 0.44161 0.61805 0.0
C360 C 0.01959 0.45891 0.60136 0.0
C361 C 0.03061 0.42578 0.5665 0.0
C362 C 1.00265 0.4039 0.40428 0.0
H363 H 0.04666 0.33393 0.15993 0.0
H364 H 0.04803 0.36218 0.24706 0.0
H365 H 0.98859 0.38366 0.32733 0.0
H366 H 1.00127 0.47326 0.51628 0.0
H367 H 1.00199 0.44564 0.42567 0.0
H368 H 0.05078 0.40134 0.46093 0.0
C369 C 0.03493 0.35299 0.24731 0.0
C370 C 1.00224 0.38722 0.35665 0.0
C371 C 0.03415 0.33684 0.19708 0.0
C372 C 1.00962 0.46014 0.53089 0.0
C373 C 1.00991 0.44422 0.47926 0.0
C374 C 0.03705 0.3976 0.43261 0.0
C375 C 0.01876 0.35764 0.29506 0.0
C376 C 0.01922 0.37544 0.34626 0.0
C377 C 0.02029 0.42671 0.4966 0.0
C378 C 0.02004 0.40931 0.44333 0.0
H379 H 0.9881 0.32001 0.2411 0.0
H380 H 0.98945 0.34803 0.32939 0.0
H381 H 0.05 0.37226 0.37891 0.0
H382 H 0.03806 0.44015 0.67188 0.0
H383 H 0.03858 0.41255 0.58259 0.0
C384 C 0.84839 0.00991 0.25707 0.0
C385 C 0.82977 1.00331 0.2321 0.0
C386 C 0.8649 0.00931 0.20849 0.0
C387 C 0.8844 0.98527 0.03288 0.0
H388 H 0.92091 0.02935 0.03009 0.0
C389 C 0.94533 0.99259 0.80112 0.0
C390 C 0.9635 1.00137 0.82026 0.0
C391 C 0.92965 0.99216 0.85355 0.0
C392 C 0.91109 0.01673 0.03082 0.0
H393 H 0.81395 0.99114 0.13481 0.0
H394 H 0.84274 0.98998 0.05032 0.0
H395 H 0.8924 0.03002 0.11563 0.0
H396 H 0.97959 0.01618 0.91058 0.0
H397 H 0.95235 0.0151 0.00315 0.0
H398 H 0.9031 0.97187 0.94863 0.0
C399 C 0.84463 0.99542 0.10814 0.0
C400 C 0.89464 0.01716 0.07991 0.0
C401 C 0.82806 0.99614 0.15669 0.0
C402 C 0.96576 0.00934 0.89401 0.0
C403 C 0.95005 0.00886 0.94682 0.0
C404 C 0.90091 0.98478 0.98414 0.0
C405 C 0.8633 1.00204 0.13328 0.0
C406 C 0.88098 1.00148 0.08138 0.0
C407 C 0.93165 1.00041 0.92713 0.0
C408 C 0.91447 1.00057 0.98186 0.0
H409 H 0.85015 0.01561 0.31461 0.0
H410 H 0.87901 0.01435 0.23029 0.0
H411 H 0.87443 0.97277 0.03326 0.0
H412 H 0.94305 0.98636 0.74471 0.0
H413 H 0.91574 0.9858 0.83535 0.0
C414 C 0.52746 0.82282 0.14631 0.0
C415 C 0.51429 0.82221 0.20869 0.0
C416 C 0.52776 0.83912 0.09654 0.0
C417 C 0.51468 0.89235 0.08789 0.0
H418 H 0.51937 0.88536 0.8685 0.0
C419 C 0.5066 0.95795 0.87414 0.0
C420 C 0.51785 0.9575 0.80645 0.0
C421 C 0.50654 0.94173 0.92435 0.0
C422 C 0.51836 0.88769 0.92969 0.0
H423 H 0.49162 0.83859 0.26893 0.0
H424 H 0.49202 0.86688 0.18227 0.0
H425 H 0.51852 0.85656 0.95193 0.0
H426 H 0.53843 0.94002 0.73993 0.0
H427 H 0.53884 0.91213 0.82792 0.0
H428 H 0.51475 0.92345 0.066 0.0
C429 C 0.50206 0.85475 0.17131 0.0
C430 C 0.51781 0.87108 0.97765 0.0
C431 C 0.50167 0.83842 0.2206 0.0
C432 C 0.52949 0.94077 0.79137 0.0
C433 C 0.52956 0.92466 0.84166 0.0
C434 C 0.51536 0.90898 0.03999 0.0
C435 C 0.51518 0.85541 0.10875 0.0
C436 C 0.51592 0.87315 0.05746 0.0
C437 C 0.51784 0.92469 0.90841 0.0
C438 C 0.5172 0.90694 0.96003 0.0
H439 H 0.53774 0.81082 0.13664 0.0
H440 H 0.53826 0.83919 0.04968 0.0
H441 H 0.51351 0.89458 0.14912 0.0
H442 H 0.49738 0.97058 0.8872 0.0
H443 H 0.49715 0.94235 0.97454 0.0
C444 C 0.69518 0.51935 0.16157 0.0
C445 C 0.69331 0.51191 0.23656 0.0
C446 C 0.6787 0.52033 0.11273 0.0
C447 C 0.62857 0.49898 0.08281 0.0
H448 H 0.62058 0.54471 0.95331 0.0
C449 C 0.55753 0.50806 0.89783 0.0
C450 C 0.55985 0.51623 0.82439 0.0
C451 C 0.57327 0.50821 0.95044 0.0
C452 C 0.62264 0.53169 0.98831 0.0
H453 H 0.67271 0.49945 0.31806 0.0
H454 H 0.64401 0.50117 0.23331 0.0
H455 H 0.64918 0.54334 0.03801 0.0
H456 H 0.58044 0.53124 0.74918 0.0
H457 H 0.60779 0.53122 0.83949 0.0
H458 H 0.60223 0.48717 0.03246 0.0
C459 C 0.65818 0.5062 0.21199 0.0
C460 C 0.63911 0.53093 0.03709 0.0
C461 C 0.67461 0.50533 0.26084 0.0
C462 C 0.57811 0.52486 0.80536 0.0
C463 C 0.59382 0.52496 0.85759 0.0
C464 C 0.61216 0.49969 0.03371 0.0
C465 C 0.65996 0.51371 0.13717 0.0
C466 C 0.64235 0.51455 0.08501 0.0
C467 C 0.59175 0.51651 0.93086 0.0
C468 C 0.60894 0.51603 0.98542 0.0
H469 H 0.70935 0.52437 0.14026 0.0
H470 H 0.68072 0.52597 0.05523 0.0
H471 H 0.63068 0.486 0.11802 0.0
H472 H 0.54363 0.50133 0.9143 0.0
H473 H 0.57092 0.50183 0.00654 0.0
C474 C 0.99168 0.67832 0.23003 0.0
C475 C 0.99651 0.69689 0.19942 0.0
C476 C 0.99362 0.66112 0.1858 0.0
C477 C 0.99774 0.64489 0.98125 0.0
H478 H 1.00884 0.59396 0.07252 0.0
C479 C 0.98981 0.57356 0.80363 0.0
C480 C 1.00321 0.55804 0.81594 0.0
C481 C 0.98911 0.58976 0.85334 0.0
C482 C 1.00592 0.60805 0.04565 0.0
H483 H 1.00764 0.71184 0.09889 0.0
H484 H 0.01201 0.68198 0.02303 0.0
H485 H 1.00896 0.62345 0.15216 0.0
H486 H 0.02616 0.54716 0.89132 0.0
H487 H 0.02539 0.57566 0.9773 0.0
H488 H 0.99545 0.62973 0.8744 0.0
C489 C 1.00614 0.68058 0.08045 0.0
C490 C 1.00571 0.62504 0.0918 0.0
C491 C 1.00397 0.69777 0.12442 0.0
C492 C 0.0156 0.55885 0.88048 0.0
C493 C 0.01508 0.57523 0.92994 0.0
C494 C 0.99813 0.62798 0.93512 0.0
C495 C 1.00064 0.66197 0.10978 0.0
C496 C 1.00151 0.64377 0.06046 0.0
C497 C 1.00201 0.59111 0.91651 0.0
C498 C 1.00204 0.60922 0.96648 0.0
H499 H 0.98581 0.67715 0.28758 0.0
H500 H 0.98896 0.64725 0.21064 0.0
H501 H 0.99413 0.65883 0.9545 0.0
H502 H 0.97996 0.5733 0.75475 0.0
H503 H 0.97843 0.60127 0.84178 0.0
C504 C 0.96282 0.23808 0.30839 0.0
C505 C 0.98066 0.24863 0.31231 0.0
C506 C 0.95504 0.22912 0.37361 0.0
C507 C 0.977 0.20621 0.54045 0.0
H508 H 0.92489 0.18251 0.54968 0.0
C509 C 0.94852 0.12489 0.52763 0.0
C510 C 0.96205 0.11591 0.57756 0.0
C511 C 0.94507 0.14517 0.53172 0.0
C512 C 0.93947 0.18914 0.5489 0.0
H513 H 1.00275 0.26053 0.38943 0.0
H514 H 0.9888 0.2454 0.50402 0.0
H515 H 0.92907 0.2148 0.48986 0.0
H516 H 0.98073 0.12053 0.6768 0.0
H517 H 0.97478 0.15602 0.68378 0.0
H518 H 0.98767 0.18015 0.59456 0.0
C519 C 0.98118 0.24347 0.45003 0.0
C520 C 0.94188 0.20762 0.51453 0.0
C521 C 0.9891 0.25229 0.38441 0.0
C522 C 0.97062 0.12721 0.63629 0.0
C523 C 0.96712 0.14749 0.64057 0.0
C524 C 0.97456 0.18787 0.5752 0.0
C525 C 0.96486 0.23065 0.4444 0.0
C526 C 0.96092 0.21566 0.50483 0.0
C527 C 0.95506 0.15684 0.58596 0.0
C528 C 0.95602 0.17853 0.57491 0.0
H529 H 0.95571 0.23547 0.25377 0.0
H530 H 0.94244 0.21944 0.36646 0.0
H531 H 0.99192 0.21178 0.53434 0.0
H532 H 0.94171 0.11655 0.48182 0.0
H533 H 0.93586 0.15188 0.48818 0.0
C534 C 0.28757 1.00785 0.34851 0.0
C535 C 0.27317 0.99666 0.31062 0.0
C536 C 0.29632 1.00078 0.4152 0.0
C537 C 0.31058 0.95314 0.48896 0.0
H538 H 0.34051 0.98773 0.62173 0.0
C539 C 0.39281 0.94948 0.50431 0.0
C540 C 0.40323 0.95955 0.56142 0.0
C541 C 0.37229 0.94769 0.50902 0.0
C542 C 0.3321 0.97747 0.58727 0.0
H543 H 0.2552 0.97026 0.31602 0.0
H544 H 0.27057 0.95776 0.43344 0.0
H545 H 0.30933 0.99887 0.56966 0.0
H546 H 0.40101 0.97346 0.67273 0.0
H547 H 0.36516 0.96977 0.6825 0.0
H548 H 0.33361 0.93192 0.50487 0.0
C549 C 0.27521 0.97194 0.41117 0.0
C550 C 0.31422 0.98402 0.55661 0.0
C551 C 0.26635 0.97911 0.34427 0.0
C552 C 0.39314 0.96596 0.62721 0.0
C553 C 0.37264 0.96388 0.63263 0.0
C554 C 0.32829 0.94642 0.52084 0.0
C555 C 0.29091 0.98229 0.44542 0.0
C556 C 0.30424 0.97263 0.5017 0.0
C557 C 0.36181 0.95576 0.57151 0.0
C558 C 0.34012 0.9592 0.56465 0.0
H559 H 0.29288 0.02155 0.324 0.0
H560 H 0.30849 0.00913 0.43909 0.0
H561 H 0.30314 0.94378 0.44786 0.0
H562 H 0.40029 0.94442 0.45306 0.0
H563 H 0.36462 0.94151 0.46024 0.0
C564 C 0.53321 0.26582 0.38496 0.0
C565 C 0.51667 0.27368 0.34718 0.0
C566 C 0.54026 0.27473 0.45191 0.0
C567 C 0.56101 0.30963 0.52428 0.0
H568 H 0.5279 0.34361 0.64837 0.0
C569 C 0.56991 0.39144 0.52616 0.0
C570 C 0.56167 0.40318 0.5841 0.0
C571 C 0.56989 0.37095 0.5327 0.0
C572 C 0.53767 0.33402 0.61631 0.0
H573 H 0.49326 0.29537 0.35287 0.0
H574 H 0.50539 0.31096 0.46847 0.0
H575 H 0.51471 0.31272 0.60072 0.0
H576 H 0.54883 0.4027 0.69802 0.0
H577 H 0.54898 0.36689 0.70985 0.0
H578 H 0.58369 0.33134 0.53711 0.0
C579 C 0.51303 0.29796 0.44788 0.0
C580 C 0.52999 0.31633 0.58831 0.0
C581 C 0.50612 0.28917 0.38106 0.0
C582 C 0.55515 0.39407 0.65201 0.0
C583 C 0.55515 0.37352 0.65868 0.0
C584 C 0.56878 0.32719 0.55315 0.0
C585 C 0.53078 0.29153 0.48192 0.0
C586 C 0.54101 0.30484 0.5366 0.0
C587 C 0.56167 0.36169 0.59755 0.0
C588 C 0.55664 0.34036 0.59391 0.0
H589 H 0.54153 0.25382 0.3596 0.0
H590 H 0.55384 0.26931 0.47722 0.0
H591 H 0.57006 0.30106 0.48541 0.0
H592 H 0.57544 0.39805 0.47387 0.0
H593 H 0.57491 0.36242 0.48402 0.0
C594 C 0.25518 0.54165 0.34503 0.0
C595 C 0.24871 0.52386 0.31244 0.0
C596 C 0.24606 0.54896 0.41122 0.0
C597 C 0.20729 0.53666 0.55745 0.0
H598 H 0.18668 0.5881 0.50291 0.0
C599 C 0.12811 0.5533 0.6297 0.0
C600 C 0.11775 0.55937 0.56412 0.0
C601 C 0.14859 0.5558 0.63415 0.0
C602 C 0.19234 0.57379 0.51963 0.0
H603 H 0.22931 0.49877 0.32663 0.0
H604 H 0.2133 0.51137 0.44072 0.0
H605 H 0.21736 0.5767 0.4459 0.0
H606 H 0.12011 0.57427 0.45503 0.0
H607 H 0.15574 0.57786 0.46047 0.0
H608 H 0.18117 0.53262 0.62345 0.0
C609 C 0.22539 0.5198 0.41656 0.0
C610 C 0.21016 0.56734 0.48776 0.0
C611 C 0.23438 0.51262 0.35052 0.0
C612 C 0.12782 0.56948 0.50613 0.0
C613 C 0.14832 0.57167 0.50985 0.0
C614 C 0.1893 0.54293 0.58813 0.0
C615 C 0.23047 0.53847 0.44583 0.0
C616 C 0.21696 0.54806 0.50165 0.0
C617 C 0.15911 0.56397 0.57221 0.0
C618 C 0.18085 0.56093 0.56463 0.0
H619 H 0.26628 0.55054 0.31648 0.0
H620 H 0.25041 0.5633 0.43272 0.0
H621 H 0.21253 0.52198 0.57129 0.0
H622 H 0.1205 0.54576 0.67584 0.0
H623 H 0.15628 0.55019 0.68397 0.0
C624 C 0.05533 0.76889 0.07724 0.0
C625 C 0.03642 0.77475 0.10141 0.0
C626 C 0.06417 0.77803 0.01391 0.0
C627 C 0.05427 0.81518 0.8594 0.0
H628 H 0.10295 0.83867 0.93227 0.0
C629 C 0.06753 0.89476 0.79123 0.0
C630 C 0.07142 0.90547 0.85832 0.0
C631 C 0.07162 0.87458 0.78789 0.0
C632 C 0.08943 0.83222 0.91048 0.0
H633 H 0.01118 0.79321 0.07607 0.0
H634 H 0.02634 0.80918 0.96666 0.0
H635 H 0.09161 0.80779 0.98725 0.0
H636 H 0.08415 0.90416 0.9717 0.0
H637 H 0.09037 0.86899 0.96816 0.0
H638 H 0.0506 0.84068 0.7901 0.0
C639 C 0.0345 0.79753 0.99501 0.0
C640 C 0.08307 0.81427 0.94123 0.0
C641 C 0.02583 0.78857 0.05828 0.0
C642 C 0.08104 0.89616 0.91938 0.0
C643 C 0.08475 0.87593 0.91677 0.0
C644 C 0.06039 0.8333 0.8299 0.0
C645 C 0.05408 0.79298 0.97381 0.0
C646 C 0.06458 0.80646 0.92046 0.0
C647 C 0.07912 0.86465 0.85248 0.0
C648 C 0.0772 0.84282 0.85986 0.0
H649 H 0.0637 0.7582 0.11007 0.0
H650 H 0.07921 0.77416 0.99877 0.0
H651 H 0.04029 0.80914 0.84032 0.0
H652 H 0.06037 0.9018 0.74288 0.0
H653 H 0.06764 0.86657 0.73655 0.0
C654 C 0.75507 0.0332 0.04257 0.0
C655 C 0.75087 0.03969 0.11719 0.0
C656 C 0.74584 0.04212 0.97979 0.0
C657 C 0.70815 0.08086 0.92796 0.0
H658 H 0.68239 0.0359 0.83445 0.0
C659 C 0.62527 0.07239 0.90737 0.0
C660 C 0.61692 0.05951 0.85358 0.0
C661 C 0.64555 0.07628 0.90611 0.0
C662 C 0.68961 0.04883 0.85768 0.0
H663 H 0.73626 0.06228 0.18412 0.0
H664 H 0.71971 0.07738 0.07603 0.0
H665 H 0.71425 0.03168 0.89357 0.0
H666 H 0.62261 0.04244 0.75101 0.0
H667 H 0.65807 0.04927 0.74852 0.0
H668 H 0.6824 0.09753 0.89729 0.0
C669 C 0.73008 0.06555 0.06476 0.0
C670 C 0.70807 0.04642 0.89176 0.0
C671 C 0.73937 0.05673 0.12719 0.0
C672 C 0.62883 0.05205 0.79428 0.0
C673 C 0.64909 0.05603 0.79269 0.0
C674 C 0.68956 0.08326 0.89407 0.0
C675 C 0.73216 0.05753 0.99089 0.0
C676 C 0.71694 0.06206 0.93193 0.0
C677 C 0.65783 0.06742 0.85077 0.0
C678 C 0.67957 0.06694 0.86302 0.0
H679 H 0.76403 0.02017 0.03312 0.0
H680 H 0.74815 0.03588 0.9234 0.0
H681 H 0.71485 0.09335 0.95652 0.0
H682 H 0.61642 0.07833 0.95367 0.0
H683 H 0.65177 0.08494 0.95227 0.0
C684 C 0.44516 0.7423 0.1566 0.0
C685 C 0.46451 0.74766 0.13619 0.0
C686 C 0.43343 0.73159 0.10566 0.0
C687 C 0.43488 0.7058 0.91454 0.0
H688 H 0.42111 0.66097 0.04149 0.0
C689 C 0.45764 0.62745 0.84782 0.0
C690 C 0.44755 0.61144 0.88072 0.0
C691 C 0.45055 0.64663 0.85689 0.0
C692 C 0.42425 0.67337 0.00431 0.0
H693 H 0.48598 0.7482 0.04437 0.0
H694 H 0.46601 0.72894 0.95659 0.0
H695 H 0.42439 0.69297 0.09912 0.0
H696 H 0.42105 0.60279 0.94227 0.0
H697 H 0.40848 0.6363 0.95698 0.0
H698 H 0.43626 0.68548 0.82069 0.0
C699 C 0.4595 0.73322 0.01075 0.0
C700 C 0.42612 0.69193 0.03762 0.0
C701 C 0.47107 0.74424 0.06122 0.0
C702 C 0.42925 0.61482 0.91663 0.0
C703 C 0.42209 0.63404 0.92542 0.0
C704 C 0.43306 0.68712 0.88113 0.0
C705 C 0.4411 0.72558 0.03442 0.0
C706 C 0.43267 0.70815 0.99415 0.0
C707 C 0.43315 0.65023 0.89885 0.0
C708 C 0.42891 0.67051 0.92671 0.0
H709 H 0.43976 0.74499 0.21408 0.0
H710 H 0.41908 0.72648 0.12487 0.0
H711 H 0.43942 0.71808 0.87896 0.0
H712 H 0.47154 0.62524 0.81809 0.0
H713 H 0.45956 0.65869 0.83591 0.0
C714 C 0.77523 0.45518 0.12717 0.0
C715 C 0.77155 0.47542 0.11933 0.0
C716 C 0.78507 0.44492 0.06917 0.0
C717 C 0.82358 0.43596 0.99309 0.0
H718 H 0.83162 0.45599 0.78756 0.0
C719 C 0.90081 0.43599 0.87068 0.0
C720 C 0.90635 0.4555 0.85419 0.0
C721 C 0.88081 0.4308 0.87374 0.0
C722 C 0.82944 0.44996 0.84439 0.0
H723 H 0.7735 0.50057 0.04371 0.0
H724 H 0.79141 0.48312 0.94398 0.0
H725 H 0.79941 0.45994 0.84918 0.0
H726 H 0.89568 0.48426 0.81939 0.0
H727 H 0.86086 0.47541 0.82603 0.0
H728 H 0.85378 0.42705 0.99043 0.0
C729 C 0.78632 0.47477 0.993 0.0
C730 C 0.81102 0.45228 0.87987 0.0
C731 C 0.77612 0.48489 0.05033 0.0
C732 C 0.89173 0.46922 0.83381 0.0
C733 C 0.87179 0.46403 0.83646 0.0
C734 C 0.84185 0.43348 0.95744 0.0
C735 C 0.79198 0.45494 0.00372 0.0
C736 C 0.80832 0.44653 0.95664 0.0
C737 C 0.86608 0.44502 0.85998 0.0
C738 C 0.84536 0.44161 0.88475 0.0
H739 H 0.77174 0.44766 0.18023 0.0
H740 H 0.78867 0.42954 0.07848 0.0
H741 H 0.82228 0.43135 0.05222 0.0
H742 H 0.91184 0.4251 0.88612 0.0
H743 H 0.87685 0.416 0.89133 0.0
C744 C 0.02582 0.21678 0.04114 0.0
C745 C 1.00726 0.2241 0.06428 0.0
C746 C 0.02732 0.1986 0.00235 0.0
C747 C 0.9998 0.15159 0.98379 0.0
H748 H 0.03598 0.13983 0.81771 0.0
C749 C 0.01479 0.07128 0.88494 0.0
C750 C 0.0154 0.06764 0.80566 0.0
C751 C 0.01442 0.09065 0.91339 0.0
C752 C 0.02573 0.14288 0.8639 0.0
H753 H 0.97569 0.21871 0.05917 0.0
H754 H 0.97828 0.18736 0.99192 0.0
H755 H 0.03412 0.17347 0.86899 0.0
H756 H 0.01675 0.08175 0.6945 0.0
H757 H 0.01608 0.11549 0.74392 0.0
H758 H 0.99139 0.12115 0.97915 0.0
C759 C 0.99174 0.19532 0.00507 0.0
C760 C 0.02478 0.16216 0.89371 0.0
C761 C 0.99025 0.21341 0.04328 0.0
C762 C 0.01603 0.08395 0.75575 0.0
C763 C 0.01584 0.10334 0.78421 0.0
C764 C 1.00091 0.13235 0.9547 0.0
C765 C 0.0103 0.18731 0.9861 0.0
C766 C 0.0117 0.16682 0.95385 0.0
C767 C 0.01485 0.107 0.8635 0.0
C768 C 0.01385 0.12767 0.89425 0.0
H769 H 0.03922 0.22452 0.05685 0.0
H770 H 0.04187 0.19291 0.98863 0.0
H771 H 0.98972 0.15449 0.0307 0.0
H772 H 0.01432 0.05915 0.92526 0.0
H773 H 0.0139 0.09282 0.9748 0.0
C774 C 0.29987 0.99661 0.99885 0.0
C775 C 0.29371 0.01241 0.04512 0.0
C776 C 0.31822 0.9972 0.96087 0.0
C777 C 0.36729 0.02238 0.97536 0.0
H778 H 0.37809 0.99544 0.78426 0.0
C779 C 0.44775 0.00949 0.87102 0.0
C780 C 0.45175 0.01037 0.79205 0.0
C781 C 0.42822 0.0099 0.89842 0.0
C782 C 0.37538 1.00322 0.83736 0.0
H783 H 0.30161 0.04141 0.08619 0.0
H784 H 0.33307 0.04297 0.01757 0.0
H785 H 0.3443 0.99688 0.83303 0.0
H786 H 0.43815 0.01292 0.68043 0.0
H787 H 0.4042 0.01372 0.72758 0.0
H788 H 0.39818 0.02915 0.97901 0.0
C789 C 0.32408 0.02985 0.01154 0.0
C790 C 0.35592 1.00385 0.86594 0.0
C791 C 0.30586 0.02915 0.04994 0.0
C792 C 0.43565 0.01179 0.74137 0.0
C793 C 0.4161 0.01226 0.76867 0.0
C794 C 0.38667 0.02182 0.94671 0.0
C795 C 0.3309 0.01363 0.96834 0.0
C796 C 0.35154 0.01341 0.93562 0.0
C797 C 0.41203 0.01135 0.84776 0.0
C798 C 0.39111 0.01214 0.87746 0.0
H799 H 0.29102 0.98331 0.99573 0.0
H800 H 0.32288 0.98431 0.92905 0.0
H801 H 0.36479 0.02961 0.02977 0.0
H802 H 0.45973 1.00825 0.91189 0.0
H803 H 0.42584 0.00881 0.95958 0.0
C804 C 0.52727 0.30689 0.07587 0.0
C805 C 0.51043 0.29471 0.07644 0.0
C806 C 0.52741 0.32471 0.0354 0.0
C807 C 0.50128 0.3551 0.8884 0.0
H808 H 0.52458 0.39841 0.00182 0.0
C809 C 0.51149 0.43418 0.7593 0.0
C810 C 0.50832 0.45039 0.8083 0.0
C811 C 0.51142 0.41477 0.78782 0.0
C812 C 0.51786 0.38658 0.96933 0.0
H813 H 0.48083 0.29133 0.03139 0.0
H814 H 0.48102 0.3226 0.95999 0.0
H815 H 0.52508 0.36536 0.05555 0.0
H816 H 0.50244 0.45865 0.92603 0.0
H817 H 0.50235 0.42504 0.97552 0.0
H818 H 0.49379 0.37658 0.80263 0.0
C819 C 0.49421 0.31826 0.99082 0.0
C820 C 0.51839 0.36746 0.99982 0.0
C821 C 0.4941 0.30028 0.03147 0.0
C822 C 0.50501 0.44661 0.88648 0.0
C823 C 0.50508 0.42726 0.91503 0.0
C824 C 0.50084 0.3743 0.85757 0.0
C825 C 0.51067 0.33105 0.99434 0.0
C826 C 0.51012 0.35139 0.96 0.0
C827 C 0.50839 0.41101 0.86632 0.0
C828 C 0.50904 0.39037 0.89785 0.0
H829 H 0.54014 0.30296 0.10954 0.0
H830 H 0.54056 0.33382 0.03802 0.0
H831 H 0.49485 0.34314 0.85576 0.0
H832 H 0.51412 0.43644 0.69873 0.0
H833 H 0.51412 0.40273 0.74848 0.0
C834 C 0.22144 0.52419 0.00911 0.0
C835 C 0.22913 0.50757 0.04688 0.0
C836 C 0.20316 0.52325 0.97104 0.0
C837 C 0.15631 0.49437 0.97427 0.0
H838 H 0.14347 0.52539 0.79458 0.0
C839 C 0.07501 0.50625 0.87748 0.0
C840 C 0.07087 0.50668 0.79855 0.0
C841 C 0.09461 0.50601 0.90414 0.0
C842 C 0.14678 0.51648 0.84443 0.0
H843 H 0.22391 0.47689 0.07352 0.0
H844 H 0.19237 0.47493 0.00512 0.0
H845 H 0.17741 0.52477 0.84214 0.0
H846 H 0.08434 0.50664 0.68619 0.0
H847 H 0.11839 0.50632 0.73205 0.0
H848 H 0.12582 0.48585 0.9761 0.0
C849 C 0.20026 0.48882 0.00533 0.0
C850 C 0.16629 0.51629 0.8723 0.0
C851 C 0.21851 0.4898 0.04349 0.0
C852 C 0.08692 0.50674 0.74718 0.0
C853 C 0.10652 0.50654 0.77372 0.0
C854 C 0.13684 0.49457 0.94648 0.0
C855 C 0.19199 0.50568 0.97033 0.0
C856 C 0.17137 0.50528 0.93791 0.0
C857 C 0.11071 0.50614 0.85271 0.0
C858 C 0.1317 0.50571 0.88138 0.0
H859 H 0.22906 0.53821 0.0127 0.0
H860 H 0.19731 0.53663 0.94581 0.0
H861 H 0.15942 0.48593 0.02551 0.0
H862 H 0.06309 0.50627 0.91894 0.0
H863 H 0.09712 0.50601 0.96536 0.0
C864 C 0.99539 0.80192 0.37696 0.0
C865 C 0.01405 0.7938 0.36057 0.0
C866 C 0.9938 0.81993 0.41665 0.0
C867 C 0.02249 0.85628 0.53489 0.0
H868 H 0.98513 0.89422 0.45322 0.0
C869 C 0.01284 0.9342 0.66911 0.0
C870 C 0.00999 0.95031 0.61947 0.0
C871 C 0.01245 0.91473 0.64186 0.0
C872 C 0.99574 0.88388 0.47657 0.0
H873 H 0.04556 0.79787 0.37459 0.0
H874 H 0.04288 0.82889 0.44447 0.0
H875 H 0.98589 0.86074 0.40212 0.0
H876 H 1.00429 0.95828 0.50131 0.0
H877 H 1.0037 0.92442 0.45355 0.0
H878 H 0.03275 0.87954 0.60779 0.0
C879 C 0.0294 0.82144 0.42768 0.0
C880 C 0.99598 0.86451 0.44792 0.0
C881 C 0.03097 0.80359 0.38769 0.0
C882 C 1.00652 0.94632 0.54153 0.0
C883 C 1.00607 0.92682 0.51414 0.0
C884 C 0.02221 0.87562 0.56369 0.0
C885 C 0.01083 0.8302 0.4411 0.0
C886 C 1.0095 0.85044 0.47605 0.0
C887 C 1.0091 0.91069 0.56385 0.0
C888 C 1.00896 0.88981 0.53452 0.0
H889 H 0.98212 0.7949 0.35547 0.0
H890 H 0.97922 0.82604 0.42658 0.0
H891 H 0.03299 0.8459 0.5587 0.0
H892 H 0.01527 0.93658 0.72943 0.0
H893 H 0.01455 0.90283 0.68241 0.0
C894 C 0.72451 1.00788 0.42192 0.0
C895 C 0.72568 1.00348 0.34342 0.0
C896 C 0.70643 1.006 0.46149 0.0
C897 C 0.65533 0.98447 0.44492 0.0
H898 H 0.64049 0.02694 0.58187 0.0
C899 C 0.57376 0.99785 0.53356 0.0
C900 C 0.5697 1.00378 0.60918 0.0
C901 C 0.59329 0.99674 0.50651 0.0
C902 C 0.64443 0.01481 0.54452 0.0
H903 H 0.70909 0.99295 0.24576 0.0
H904 H 0.67788 0.9896 0.31376 0.0
H905 H 0.67383 0.02597 0.52811 0.0
H906 H 0.5833 0.0132 0.7152 0.0
H907 H 0.61726 0.01119 0.66851 0.0
H908 H 0.62588 0.9735 0.46016 0.0
C909 C 0.69075 0.99435 0.34569 0.0
C910 C 0.66365 0.01421 0.51376 0.0
C911 C 0.70868 0.99631 0.3064 0.0
C912 C 0.58578 0.00862 0.65677 0.0
C913 C 0.60532 1.00758 0.62971 0.0
C914 C 0.63614 0.9851 0.47539 0.0
C915 C 0.68916 0.99955 0.42347 0.0
C916 C 0.66932 0.99919 0.46249 0.0
C917 C 0.6094 1.00158 0.55414 0.0
C918 C 0.63027 1.00043 0.5248 0.0
H919 H 0.73731 0.01365 0.45172 0.0
H920 H 0.7059 0.00993 0.52153 0.0
H921 H 0.65917 0.97241 0.40706 0.0
H922 H 0.56182 0.99405 0.49497 0.0
H923 H 0.59574 0.99235 0.44766 0.0
C924 C 0.52125 0.71511 0.36585 0.0
C925 C 0.50238 0.72374 0.35998 0.0
C926 C 0.52391 0.69722 0.40552 0.0
C927 C 0.49858 0.66186 0.5403 0.0
H928 H 0.53345 0.62343 0.44671 0.0
C929 C 0.50944 0.58387 0.67252 0.0
C930 C 0.51187 0.56778 0.62242 0.0
C931 C 0.50958 0.60333 0.64496 0.0
C932 C 0.52349 0.63387 0.47344 0.0
H933 H 0.47181 0.72087 0.39558 0.0
H934 H 0.47629 0.68989 0.46315 0.0
H935 H 0.53145 0.65659 0.39386 0.0
H936 H 0.51625 0.55976 0.50351 0.0
H937 H 0.51603 0.5935 0.45525 0.0
H938 H 0.48993 0.63894 0.6177 0.0
C939 C 0.48917 0.6968 0.43787 0.0
C940 C 0.52259 0.65311 0.44372 0.0
C941 C 0.48654 0.71461 0.39849 0.0
C942 C 0.51445 0.57173 0.54395 0.0
C943 C 0.51446 0.59119 0.51629 0.0
C944 C 0.49939 0.6426 0.56973 0.0
C945 C 0.50779 0.68752 0.44057 0.0
C946 C 0.50996 0.66739 0.47613 0.0
C947 C 0.51203 0.60735 0.56629 0.0
C948 C 0.51172 0.6282 0.53641 0.0
H949 H 0.53376 0.72164 0.33651 0.0
H950 H 0.53857 0.6908 0.40733 0.0
H951 H 0.48887 0.67239 0.56787 0.0
H952 H 0.50748 0.58147 0.73339 0.0
H953 H 0.50796 0.61523 0.68579 0.0
C954 C 0.81418 0.51616 0.31342 0.0
C955 C 0.79706 0.50895 0.34956 0.0
C956 C 0.83199 0.51805 0.35352 0.0
C957 C 0.8589 0.49796 0.52104 0.0
H958 H 0.89565 0.54013 0.47388 0.0
C959 C 0.93669 0.50424 0.66549 0.0
C960 C 0.95255 0.5103 0.6186 0.0
C961 C 0.9171 0.50485 0.63861 0.0
C962 C 0.88569 0.52811 0.48729 0.0
H963 H 0.78511 0.49847 0.45698 0.0
H964 H 0.81636 0.50189 0.5281 0.0
H965 H 0.86254 0.54069 0.41936 0.0
H966 H 0.96 0.52162 0.5061 0.0
H967 H 0.9261 0.52253 0.45927 0.0
H968 H 0.88222 0.48527 0.58834 0.0
C969 C 0.81598 0.50601 0.46821 0.0
C970 C 0.8666 0.52846 0.45604 0.0
C971 C 0.79801 0.50427 0.42788 0.0
C972 C 0.94824 0.5169 0.54408 0.0
C973 C 0.92869 0.51757 0.51734 0.0
C974 C 0.87805 0.49761 0.55241 0.0
C975 C 0.83332 0.51266 0.4312 0.0
C976 C 0.85299 0.51323 0.47125 0.0
C977 C 0.91278 0.51163 0.56417 0.0
C978 C 0.89188 0.51251 0.53492 0.0
H979 H 0.81395 0.51975 0.25295 0.0
H980 H 0.84495 0.52296 0.32245 0.0
H981 H 0.84897 0.48585 0.53359 0.0
H982 H 0.93938 0.49902 0.72322 0.0
H983 H 0.90532 0.50028 0.67671 0.0
loop_
_geom_bond_atom_site_label_1
_geom_bond_atom_site_label_2
_geom_bond_distance
_geom_bond_site_symmetry_2
_ccdc_geom_bond_type
H0 C7 0.929 . S
H1 C10 0.930 . S
H2 C12 0.929 . S
H3 C4 0.969 . S
C4 H3 0.969 . S
C4 O5 1.550 . S
C4 H6 0.973 . S
O5 C4 1.550 . S
O5 C11 1.412 . S
H6 C4 0.973 . S
C7 H0 0.929 . S
C7 C8 1.400 . S
C7 C9 1.364 . S
C8 C7 1.400 . S
C8 C12 1.377 . S
C9 C7 1.364 . S
C9 C10 1.374 . S
C10 H1 0.930 . S
C10 C9 1.374 . S
C10 C11 1.383 . S
C11 O5 1.412 . S
C11 C10 1.383 . S
C11 C12 1.394 . S
C12 H2 0.929 . S
C12 C8 1.377 . S
C12 C11 1.394 . S
H13 C20 0.928 . S
H14 C23 0.930 . S
H15 C25 0.928 1_655 S
H16 C17 0.969 . S
C17 H16 0.969 . S
C17 O18 1.550 1_455 S
C17 H19 0.973 1_455 S
O18 C17 1.550 1_655 S
O18 C24 1.406 1_655 S
H19 C17 0.973 1_655 S
C20 H13 0.928 . S
C20 C21 1.400 1_655 S
C20 C22 1.364 1_655 S
C21 C20 1.400 1_455 S
C21 C25 1.377 . S
C22 C20 1.364 1_455 S
C22 C23 1.374 1_455 S
C23 H14 0.930 . S
C23 C22 1.374 1_655 S
C23 C24 1.382 1_655 S
C24 O18 1.406 1_455 S
C24 C23 1.382 1_455 S
C24 C25 1.394 . S
C25 H15 0.928 1_455 S
C25 C21 1.377 . S
C25 C24 1.394 . S
H26 C33 0.928 . S
H27 C36 0.930 . S
H28 C38 0.928 1_565 S
H29 C30 0.969 . S
C30 H29 0.969 . S
C30 O31 1.550 1_545 S
C30 H32 0.973 1_545 S
O31 C30 1.550 1_565 S
O31 C37 1.406 1_565 S
H32 C30 0.973 1_565 S
C33 H26 0.928 . S
C33 C34 1.400 1_565 S
C33 C35 1.364 1_565 S
C34 C33 1.400 1_545 S
C34 C38 1.377 . S
C35 C33 1.364 1_545 S
C35 C36 1.374 1_545 S
C36 H27 0.930 . S
C36 C35 1.374 1_565 S
C36 C37 1.382 1_565 S
C37 O31 1.406 1_545 S
C37 C36 1.382 1_545 S
C37 C38 1.394 . S
C38 H28 0.928 1_545 S
C38 C34 1.377 . S
C38 C37 1.394 . S
H39 C46 0.929 . S
H40 C49 0.930 . S
H41 C51 0.929 . S
H42 C43 0.969 . S
C43 H42 0.969 . S
C43 O44 1.550 . S
C43 H45 0.973 . S
O44 C43 1.550 . S
O44 C50 1.412 . S
H45 C43 0.973 . S
C46 H39 0.929 . S
C46 C47 1.400 . S
C46 C48 1.364 . S
C47 C46 1.400 . S
C47 C51 1.377 . S
C48 C46 1.364 . S
C48 C49 1.374 . S
C49 H40 0.930 . S
C49 C48 1.374 . S
C49 C50 1.383 . S
C50 O44 1.412 . S
C50 C49 1.383 . S
C50 C51 1.394 . S
C51 H41 0.929 . S
C51 C47 1.377 . S
C51 C50 1.394 . S
H52 C59 0.929 . S
H53 C62 0.930 . S
H54 C64 0.929 . S
H55 C56 0.969 . S
C56 H55 0.969 . S
C56 O57 1.550 . S
C56 H58 0.973 . S
O57 C56 1.550 . S
O57 C63 1.412 . S
H58 C56 0.973 . S
C59 H52 0.929 . S
C59 C60 1.400 1_554 S
C59 C61 1.364 . S
C60 C59 1.400 1_556 S
C60 C64 1.377 . S
C61 C59 1.364 . S
C61 C62 1.374 . S
C62 H53 0.930 . S
C62 C61 1.374 . S
C62 C63 1.383 . S
C63 O57 1.412 . S
C63 C62 1.383 . S
C63 C64 1.394 1_554 S
C64 H54 0.929 . S
C64 C60 1.377 . S
C64 C63 1.394 1_556 S
H65 C72 0.929 1_655 S
H66 C75 0.930 . S
H67 C77 0.928 1_655 S
H68 C69 0.969 . S
C69 H68 0.969 . S
C69 O70 1.550 1_455 S
C69 H71 0.973 1_455 S
O70 C69 1.550 1_655 S
O70 C76 1.402 1_655 S
H71 C69 0.973 1_655 S
C72 H65 0.929 1_455 S
C72 C73 1.400 1_554 S
C72 C74 1.364 . S
C73 C72 1.400 1_556 S
C73 C77 1.377 . S
C74 C72 1.364 . S
C74 C75 1.374 1_455 S
C75 H66 0.930 . S
C75 C74 1.374 1_655 S
C75 C76 1.382 1_655 S
C76 O70 1.402 1_455 S
C76 C75 1.382 1_455 S
C76 C77 1.394 1_554 S
C77 H67 0.928 1_455 S
C77 C73 1.377 . S
C77 C76 1.394 1_556 S
H78 C85 0.929 1_565 S
H79 C88 0.930 . S
H80 C90 0.928 1_565 S
H81 C82 0.969 . S
C82 H81 0.969 . S
C82 O83 1.550 1_545 S
C82 H84 0.973 1_545 S
O83 C82 1.550 1_565 S
O83 C89 1.402 1_565 S
H84 C82 0.973 1_565 S
C85 H78 0.929 1_545 S
C85 C86 1.400 1_554 S
C85 C87 1.364 . S
C86 C85 1.400 1_556 S
C86 C90 1.377 . S
C87 C85 1.364 . S
C87 C88 1.374 1_545 S
C88 H79 0.930 . S
C88 C87 1.374 1_565 S
C88 C89 1.382 1_565 S
C89 O83 1.402 1_545 S
C89 C88 1.382 1_545 S
C89 C90 1.394 1_554 S
C90 H80 0.928 1_545 S
C90 C86 1.377 . S
C90 C89 1.394 1_556 S
H91 C98 0.929 . S
H92 C101 0.930 . S
H93 C103 0.929 . S
H94 C95 0.969 . S
C95 H94 0.969 . S
C95 O96 1.550 . S
C95 H97 0.973 . S
O96 C95 1.550 . S
O96 C102 1.412 . S
H97 C95 0.973 . S
C98 H91 0.929 . S
C98 C99 1.400 1_554 S
C98 C100 1.364 . S
C99 C98 1.400 1_556 S
C99 C103 1.377 . S
C100 C98 1.364 . S
C100 C101 1.374 . S
C101 H92 0.930 . S
C101 C100 1.374 . S
C101 C102 1.383 . S
C102 O96 1.412 . S
C102 C101 1.383 . S
C102 C103 1.394 1_554 S
C103 H93 0.929 . S
C103 C99 1.377 . S
C103 C102 1.394 1_556 S
Tb104 C106 2.809 . S
Tb104 O124 2.480 1_455 S
Tb104 O125 2.440 . S
Tb104 O126 2.658 1_565 S
Tb104 O127 2.409 . S
Tb104 O128 2.378 . S
Tb104 O132 2.325 1_455 S
Tb104 O135 2.341 1_565 S
Tb105 C115 2.809 . S
Tb105 O126 2.325 1_655 S
Tb105 O129 2.341 1_545 S
Tb105 O130 2.475 1_655 S
Tb105 O131 2.440 . S
Tb105 O132 2.658 1_545 S
Tb105 O133 2.409 . S
Tb105 O134 2.378 . S
C106 Tb104 2.809 . S
C106 C107 1.514 . S
C106 O124 1.239 1_455 S
C106 O125 1.266 . S
C107 C106 1.514 . S
C107 C108 1.359 . S
C107 C112 1.348 . S
C108 C107 1.359 . S
C108 C109 1.380 . S
C108 H136 0.929 1_455 S
C109 C108 1.380 . S
C109 C110 1.347 . S
C109 H137 0.931 1_455 S
C110 C109 1.347 . S
C110 C111 1.369 . S
C111 C110 1.369 . S
C111 C112 1.408 . S
C111 H138 0.930 . S
C112 C107 1.348 . S
C112 C111 1.408 . S
C112 H139 0.930 . S
C113 O126 1.262 1_565 S
C113 O127 1.281 . S
C114 O128 1.236 1_655 S
C114 O129 1.266 . S
C115 Tb105 2.809 . S
C115 C116 1.514 . S
C115 O130 1.226 1_655 S
C115 O131 1.266 . S
C116 C115 1.514 . S
C116 C117 1.359 . S
C116 C121 1.348 . S
C117 C116 1.359 . S
C117 C118 1.380 . S
C117 H140 0.929 1_655 S
C118 C117 1.380 . S
C118 C119 1.347 . S
C118 H141 0.931 1_655 S
C119 C118 1.347 . S
C119 C120 1.369 . S
C120 C119 1.369 . S
C120 C121 1.408 . S
C120 H142 0.930 . S
C121 C116 1.348 . S
C121 C120 1.408 . S
C121 H143 0.930 . S
C122 O132 1.281 1_545 S
C122 O133 1.254 . S
C123 O134 1.236 1_455 S
C123 O135 1.266 . S
O124 Tb104 2.480 1_655 S
O124 C106 1.239 1_655 S
O125 Tb104 2.440 . S
O125 C106 1.266 . S
O126 Tb104 2.658 1_545 S
O126 Tb105 2.325 1_455 S
O126 C113 1.262 1_545 S
O127 Tb104 2.409 . S
O127 C113 1.281 . S
O128 Tb104 2.378 . S
O128 C114 1.236 1_455 S
O129 Tb105 2.341 1_565 S
O129 C114 1.266 . S
O130 Tb105 2.475 1_455 S
O130 C115 1.226 1_455 S
O131 Tb105 2.440 . S
O131 C115 1.266 . S
O132 Tb104 2.325 1_655 S
O132 Tb105 2.658 1_565 S
O132 C122 1.281 1_565 S
O133 Tb105 2.409 . S
O133 C122 1.254 . S
O134 Tb105 2.378 . S
O134 C123 1.236 1_655 S
O135 Tb104 2.341 1_545 S
O135 C123 1.266 . S
H136 C108 0.929 1_655 S
H137 C109 0.931 1_655 S
H138 C111 0.930 . S
H139 C112 0.930 . S
H140 C117 0.929 1_455 S
H141 C118 0.931 1_455 S
H142 C120 0.930 . S
H143 C121 0.930 . S
Tb144 C146 2.809 . S
Tb144 O164 2.477 1_545 S
Tb144 O165 2.440 . S
Tb144 O166 2.658 . S
Tb144 O167 2.409 . S
Tb144 O168 2.378 . S
Tb144 O172 2.325 1_545 S
Tb144 O175 2.341 . S
Tb145 C155 2.809 . S
Tb145 O166 2.325 1_565 S
Tb145 O169 2.341 . S
Tb145 O170 2.471 1_565 S
Tb145 O171 2.440 . S
Tb145 O172 2.658 . S
Tb145 O173 2.409 . S
Tb145 O174 2.378 . S
C146 Tb144 2.809 . S
C146 C147 1.514 . S
C146 O164 1.231 1_545 S
C146 O165 1.266 . S
C147 C146 1.514 . S
C147 C148 1.359 . S
C147 C152 1.348 . S
C148 C147 1.359 . S
C148 C149 1.380 . S
C148 H176 0.929 1_545 S
C149 C148 1.380 . S
C149 C150 1.347 . S
C149 H177 0.931 1_545 S
C150 C149 1.347 . S
C150 C151 1.369 . S
C151 C150 1.369 . S
C151 C152 1.408 . S
C151 H178 0.930 . S
C152 C147 1.348 . S
C152 C151 1.408 . S
C152 H179 0.930 . S
C153 O166 1.281 . S
C153 O167 1.254 . S
C154 O168 1.236 1_565 S
C154 O169 1.266 . S
C155 Tb145 2.809 . S
C155 C156 1.514 . S
C155 O170 1.218 1_565 S
C155 O171 1.266 . S
C156 C155 1.514 . S
C156 C157 1.359 . S
C156 C161 1.348 . S
C157 C156 1.359 . S
C157 C158 1.380 . S
C157 H180 0.929 1_565 S
C158 C157 1.380 . S
C158 C159 1.347 . S
C158 H181 0.931 1_565 S
C159 C158 1.347 . S
C159 C160 1.369 . S
C160 C159 1.369 . S
C160 C161 1.408 . S
C160 H182 0.930 . S
C161 C156 1.348 . S
C161 C160 1.408 . S
C161 H183 0.930 . S
C162 O172 1.281 . S
C162 O173 1.254 . S
C163 O174 1.236 1_545 S
C163 O175 1.266 . S
O164 Tb144 2.477 1_565 S
O164 C146 1.231 1_565 S
O165 Tb144 2.440 . S
O165 C146 1.266 . S
O166 Tb144 2.658 . S
O166 Tb145 2.325 1_545 S
O166 C153 1.281 . S
O167 Tb144 2.409 . S
O167 C153 1.254 . S
O168 Tb144 2.378 . S
O168 C154 1.236 1_545 S
O169 Tb145 2.341 . S
O169 C154 1.266 . S
O170 Tb145 2.471 1_545 S
O170 C155 1.218 1_545 S
O171 Tb145 2.440 . S
O171 C155 1.266 . S
O172 Tb144 2.325 1_565 S
O172 Tb145 2.658 . S
O172 C162 1.281 . S
O173 Tb145 2.409 . S
O173 C162 1.254 . S
O174 Tb145 2.378 . S
O174 C163 1.236 1_565 S
O175 Tb144 2.341 . S
O175 C163 1.266 . S
H176 C148 0.929 1_565 S
H177 C149 0.931 1_565 S
H178 C151 0.930 . S
H179 C152 0.930 . S
H180 C157 0.929 1_545 S
H181 C158 0.931 1_545 S
H182 C160 0.930 . S
H183 C161 0.930 . S
Tb184 C186 2.809 . S
Tb184 O204 2.484 . S
Tb184 O205 2.440 . S
Tb184 O206 2.658 . S
Tb184 O207 2.409 . S
Tb184 O208 2.378 . S
Tb184 O212 2.325 . S
Tb184 O215 2.341 . S
Tb185 C195 2.809 . S
Tb185 O206 2.325 . S
Tb185 O209 2.341 . S
Tb185 O210 2.484 . S
Tb185 O211 2.440 . S
Tb185 O212 2.658 . S
Tb185 O213 2.409 . S
Tb185 O214 2.378 . S
C186 Tb184 2.809 . S
C186 C187 1.514 . S
C186 O204 1.248 . S
C186 O205 1.266 . S
C187 C186 1.514 . S
C187 C188 1.359 . S
C187 C192 1.348 . S
C188 C187 1.359 . S
C188 C189 1.380 . S
C188 H216 0.929 . S
C189 C188 1.380 . S
C189 C190 1.347 . S
C189 H217 0.931 . S
C190 C189 1.347 . S
C190 C191 1.369 . S
C191 C190 1.369 . S
C191 C192 1.408 . S
C191 H218 0.930 . S
C192 C187 1.348 . S
C192 C191 1.408 . S
C192 H219 0.930 . S
C193 O206 1.281 . S
C193 O207 1.254 . S
C194 O208 1.236 . S
C194 O209 1.266 . S
C195 Tb185 2.809 . S
C195 C196 1.514 . S
C195 O210 1.248 . S
C195 O211 1.266 . S
C196 C195 1.514 . S
C196 C197 1.359 . S
C196 C201 1.348 . S
C197 C196 1.359 . S
C197 C198 1.380 . S
C197 H220 0.929 . S
C198 C197 1.380 . S
C198 C199 1.347 . S
C198 H221 0.931 . S
C199 C198 1.347 . S
C199 C200 1.369 . S
C200 C199 1.369 . S
C200 C201 1.408 . S
C200 H222 0.930 . S
C201 C196 1.348 . S
C201 C200 1.408 . S
C201 H223 0.930 . S
C202 O212 1.281 . S
C202 O213 1.254 . S
C203 O214 1.236 . S
C203 O215 1.266 . S
O204 Tb184 2.484 . S
O204 C186 1.248 . S
O205 Tb184 2.440 . S
O205 C186 1.266 . S
O206 Tb184 2.658 . S
O206 Tb185 2.325 . S
O206 C193 1.281 . S
O207 Tb184 2.409 . S
O207 C193 1.254 . S
O208 Tb184 2.378 . S
O208 C194 1.236 . S
O209 Tb185 2.341 . S
O209 C194 1.266 . S
O210 Tb185 2.484 . S
O210 C195 1.248 . S
O211 Tb185 2.440 . S
O211 C195 1.266 . S
O212 Tb184 2.325 . S
O212 Tb185 2.658 . S
O212 C202 1.281 . S
O213 Tb185 2.409 . S
O213 C202 1.254 . S
O214 Tb185 2.378 . S
O214 C203 1.236 . S
O215 Tb184 2.341 . S
O215 C203 1.266 . S
H216 C188 0.929 . S
H217 C189 0.931 . S
H218 C191 0.930 . S
H219 C192 0.930 . S
H220 C197 0.929 . S
H221 C198 0.931 . S
H222 C200 0.930 . S
H223 C201 0.930 . S
Tb224 C226 2.809 . S
Tb224 O244 2.484 . S
Tb224 O245 2.440 . S
Tb224 O246 2.658 1_655 S
Tb224 O247 2.409 . S
Tb224 O248 2.378 . S
Tb224 O252 2.325 . S
Tb224 O255 2.341 1_655 S
Tb225 C235 2.809 . S
Tb225 O246 2.325 . S
Tb225 O249 2.341 1_455 S
Tb225 O250 2.484 . S
Tb225 O251 2.440 . S
Tb225 O252 2.658 1_455 S
Tb225 O253 2.409 . S
Tb225 O254 2.378 . S
C226 Tb224 2.809 . S
C226 C227 1.514 . S
C226 O244 1.248 . S
C226 O245 1.266 . S
C227 C226 1.514 . S
C227 C228 1.359 . S
C227 C232 1.348 . S
C228 C227 1.359 . S
C228 C229 1.380 . S
C228 H256 0.929 . S
C229 C228 1.380 . S
C229 C230 1.347 . S
C229 H257 0.931 . S
C230 C229 1.347 . S
C230 C231 1.369 . S
C231 C230 1.369 . S
C231 C232 1.408 . S
C231 H258 0.930 . S
C232 C227 1.348 . S
C232 C231 1.408 . S
C232 H259 0.930 . S
C233 O246 1.269 1_655 S
C233 O247 1.270 . S
C234 O248 1.236 . S
C234 O249 1.266 . S
C235 Tb225 2.809 . S
C235 C236 1.514 . S
C235 O250 1.248 . S
C235 O251 1.266 . S
C236 C235 1.514 . S
C236 C237 1.359 . S
C236 C241 1.348 . S
C237 C236 1.359 . S
C237 C238 1.380 . S
C237 H260 0.929 . S
C238 C237 1.380 . S
C238 C239 1.347 . S
C238 H261 0.931 . S
C239 C238 1.347 . S
C239 C240 1.369 . S
C240 C239 1.369 . S
C240 C241 1.408 . S
C240 H262 0.930 . S
C241 C236 1.348 . S
C241 C240 1.408 . S
C241 H263 0.930 . S
C242 O252 1.265 1_455 S
C242 O253 1.277 . S
C243 O254 1.236 . S
C243 O255 1.266 . S
O244 Tb224 2.484 . S
O244 C226 1.248 . S
O245 Tb224 2.440 . S
O245 C226 1.266 . S
O246 Tb224 2.658 1_455 S
O246 Tb225 2.325 . S
O246 C233 1.269 1_455 S
O247 Tb224 2.409 . S
O247 C233 1.270 . S
O248 Tb224 2.378 . S
O248 C234 1.236 . S
O249 Tb225 2.341 1_655 S
O249 C234 1.266 . S
O250 Tb225 2.484 . S
O250 C235 1.248 . S
O251 Tb225 2.440 . S
O251 C235 1.266 . S
O252 Tb224 2.325 . S
O252 Tb225 2.658 1_655 S
O252 C242 1.265 1_655 S
O253 Tb225 2.409 . S
O253 C242 1.277 . S
O254 Tb225 2.378 . S
O254 C243 1.236 . S
O255 Tb224 2.341 1_455 S
O255 C243 1.266 . S
H256 C228 0.929 . S
H257 C229 0.931 . S
H258 C231 0.930 . S
H259 C232 0.930 . S
H260 C237 0.929 . S
H261 C238 0.931 . S
H262 C240 0.930 . S
H263 C241 0.930 . S
C264 C265 1.347 1_565 S
C264 C266 1.327 . S
C264 H289 0.950 . S
C265 C264 1.347 1_545 S
C265 C281 1.350 . S
C266 C264 1.327 . S
C266 C285 1.423 1_565 S
C266 H290 0.950 . S
C267 C284 1.574 . S
C267 C286 1.377 . S
C267 H291 0.949 . S
H268 C272 0.949 . S
C269 C270 1.367 . S
C269 C271 1.327 . S
C269 H292 0.950 . S
C270 C269 1.367 . S
C270 C282 1.331 1_545 S
C271 C269 1.327 . S
C271 C287 1.442 . S
C271 H293 0.950 . S
C272 H268 0.949 . S
C272 C280 1.574 . S
C272 C288 1.356 1_565 S
H273 C281 0.950 . S
H274 C279 0.950 . S
H275 C280 0.949 . S
H276 C282 0.950 . S
H277 C283 0.950 . S
H278 C284 0.949 . S
C279 H274 0.950 . S
C279 C281 1.327 . S
C279 C285 1.434 . S
C280 C272 1.574 . S
C280 H275 0.949 . S
C280 C286 1.360 1_565 S
C281 C265 1.350 . S
C281 H273 0.950 . S
C281 C279 1.327 . S
C282 C270 1.331 1_565 S
C282 H276 0.950 . S
C282 C283 1.327 . S
C283 H277 0.950 . S
C283 C282 1.327 . S
C283 C287 1.415 1_565 S
C284 C267 1.574 . S
C284 H278 0.949 . S
C284 C288 1.381 . S
C285 C266 1.423 1_545 S
C285 C279 1.434 . S
C285 C286 1.523 . S
C286 C267 1.377 . S
C286 C280 1.360 1_545 S
C286 C285 1.523 . S
C287 C271 1.442 . S
C287 C283 1.415 1_545 S
C287 C288 1.523 . S
C288 C272 1.356 1_545 S
C288 C284 1.381 . S
C288 C287 1.523 . S
H289 C264 0.950 . S
H290 C266 0.950 . S
H291 C267 0.949 . S
H292 C269 0.950 . S
H293 C271 0.950 . S
C294 C295 1.349 . S
C294 C296 1.327 . S
C294 H319 0.950 . S
C295 C294 1.349 . S
C295 C311 1.349 . S
C296 C294 1.327 . S
C296 C315 1.429 . S
C296 H320 0.950 . S
C297 C314 1.574 . S
C297 C316 1.368 . S
C297 H321 0.949 . S
H298 C302 0.949 . S
C299 C300 1.349 . S
C299 C301 1.327 . S
C299 H322 0.950 . S
C300 C299 1.349 . S
C300 C312 1.349 . S
C301 C299 1.327 . S
C301 C317 1.429 . S
C301 H323 0.950 . S
C302 H298 0.949 . S
C302 C310 1.574 . S
C302 C318 1.368 . S
H303 C311 0.950 . S
H304 C309 0.950 . S
H305 C310 0.949 . S
H306 C312 0.950 . S
H307 C313 0.950 . S
H308 C314 0.949 . S
C309 H304 0.950 . S
C309 C311 1.327 . S
C309 C315 1.429 . S
C310 C302 1.574 . S
C310 H305 0.949 . S
C310 C316 1.368 . S
C311 C295 1.349 . S
C311 H303 0.950 . S
C311 C309 1.327 . S
C312 C300 1.349 . S
C312 H306 0.950 . S
C312 C313 1.327 . S
C313 H307 0.950 . S
C313 C312 1.327 . S
C313 C317 1.429 . S
C314 C297 1.574 . S
C314 H308 0.949 . S
C314 C318 1.368 . S
C315 C296 1.429 . S
C315 C309 1.429 . S
C315 C316 1.523 . S
C316 C297 1.368 . S
C316 C310 1.368 . S
C316 C315 1.523 . S
C317 C301 1.429 . S
C317 C313 1.429 . S
C317 C318 1.523 . S
C318 C302 1.368 . S
C318 C314 1.368 . S
C318 C317 1.523 . S
H319 C294 0.950 . S
H320 C296 0.950 . S
H321 C297 0.949 . S
H322 C299 0.950 . S
H323 C301 0.950 . S
C324 C325 1.349 . S
C324 C326 1.327 . S
C324 H349 0.950 . S
C325 C324 1.349 . S
C325 C341 1.349 . S
C326 C324 1.327 . S
C326 C345 1.429 . S
C326 H350 0.950 . S
C327 C344 1.574 . S
C327 C346 1.368 . S
C327 H351 0.949 . S
H328 C332 0.949 . S
C329 C330 1.349 . S
C329 C331 1.327 . S
C329 H352 0.950 . S
C330 C329 1.349 . S
C330 C342 1.349 . S
C331 C329 1.327 . S
C331 C347 1.429 . S
C331 H353 0.950 . S
C332 H328 0.949 . S
C332 C340 1.574 . S
C332 C348 1.368 . S
H333 C341 0.950 . S
H334 C339 0.950 . S
H335 C340 0.949 . S
H336 C342 0.950 . S
H337 C343 0.950 . S
H338 C344 0.949 . S
C339 H334 0.950 . S
C339 C341 1.327 . S
C339 C345 1.429 . S
C340 C332 1.574 . S
C340 H335 0.949 . S
C340 C346 1.368 . S
C341 C325 1.349 . S
C341 H333 0.950 . S
C341 C339 1.327 . S
C342 C330 1.349 . S
C342 H336 0.950 . S
C342 C343 1.327 . S
C343 H337 0.950 . S
C343 C342 1.327 . S
C343 C347 1.429 . S
C344 C327 1.574 . S
C344 H338 0.949 . S
C344 C348 1.368 . S
C345 C326 1.429 . S
C345 C339 1.429 . S
C345 C346 1.523 . S
C346 C327 1.368 . S
C346 C340 1.368 . S
C346 C345 1.523 . S
C347 C331 1.429 . S
C347 C343 1.429 . S
C347 C348 1.523 . S
C348 C332 1.368 . S
C348 C344 1.368 . S
C348 C347 1.523 . S
H349 C324 0.950 . S
H350 C326 0.950 . S
H351 C327 0.949 . S
H352 C329 0.950 . S
H353 C331 0.950 . S
C354 C355 1.346 1_655 S
C354 C356 1.327 . S
C354 H379 0.950 . S
C355 C354 1.346 1_455 S
C355 C371 1.352 . S
C356 C354 1.327 . S
C356 C375 1.418 1_655 S
C356 H380 0.950 . S
C357 C374 1.574 . S
C357 C376 1.384 . S
C357 H381 0.949 . S
H358 C362 0.949 . S
C359 C360 1.383 . S
C359 C361 1.327 . S
C359 H382 0.950 . S
C360 C359 1.383 . S
C360 C372 1.315 1_455 S
C361 C359 1.327 . S
C361 C377 1.454 . S
C361 H383 0.950 . S
C362 H358 0.949 . S
C362 C370 1.574 . S
C362 C378 1.345 1_655 S
H363 C371 0.950 . S
H364 C369 0.950 . S
H365 C370 0.949 . S
H366 C372 0.950 . S
H367 C373 0.950 . S
H368 C374 0.949 . S
C369 H364 0.950 . S
C369 C371 1.327 . S
C369 C375 1.439 . S
C370 C362 1.574 . S
C370 H365 0.949 . S
C370 C376 1.353 1_655 S
C371 C355 1.352 . S
C371 H363 0.950 . S
C371 C369 1.327 . S
C372 C360 1.315 1_655 S
C372 H366 0.950 . S
C372 C373 1.327 . S
C373 H367 0.950 . S
C373 C372 1.327 . S
C373 C377 1.403 1_655 S
C374 C357 1.574 . S
C374 H368 0.949 . S
C374 C378 1.392 . S
C375 C356 1.418 1_455 S
C375 C369 1.439 . S
C375 C376 1.523 . S
C376 C357 1.384 . S
C376 C370 1.353 1_455 S
C376 C375 1.523 . S
C377 C361 1.454 . S
C377 C373 1.403 1_455 S
C377 C378 1.523 . S
C378 C362 1.345 1_455 S
C378 C374 1.392 . S
C378 C377 1.523 . S
H379 C354 0.950 . S
H380 C356 0.950 . S
H381 C357 0.949 . S
H382 C359 0.950 . S
H383 C361 0.950 . S
C384 C385 1.347 . S
C384 C386 1.327 . S
C384 H409 0.950 . S
C385 C384 1.347 . S
C385 C401 1.351 1_545 S
C386 C384 1.327 . S
C386 C405 1.432 1_545 S
C386 H410 0.950 . S
C387 C404 1.574 1_554 S
C387 C406 1.366 . S
C387 H411 0.949 . S
H388 C392 0.949 . S
C389 C390 1.357 . S
C389 C391 1.327 . S
C389 H412 0.950 . S
C390 C389 1.357 . S
C390 C402 1.340 1_565 S
C391 C389 1.327 . S
C391 C407 1.433 . S
C391 H413 0.950 . S
C392 H388 0.949 . S
C392 C400 1.574 . S
C392 C408 1.366 1_545 S
H393 C401 0.950 . S
H394 C399 0.950 . S
H395 C400 0.949 . S
H396 C402 0.950 . S
H397 C403 0.950 . S
H398 C404 0.949 . S
C399 H394 0.950 . S
C399 C401 1.327 . S
C399 C405 1.425 . S
C400 C392 1.574 . S
C400 H395 0.949 . S
C400 C406 1.370 1_545 S
C401 C385 1.351 1_565 S
C401 H393 0.950 . S
C401 C399 1.327 . S
C402 C390 1.340 1_545 S
C402 H396 0.950 . S
C402 C403 1.327 . S
C403 H397 0.950 . S
C403 C402 1.327 . S
C403 C407 1.424 1_545 S
C404 C387 1.574 1_556 S
C404 H398 0.949 . S
C404 C408 1.371 1_556 S
C405 C386 1.432 1_565 S
C405 C399 1.425 . S
C405 C406 1.523 . S
C406 C387 1.366 . S
C406 C400 1.370 1_565 S
C406 C405 1.523 . S
C407 C391 1.433 . S
C407 C403 1.424 1_565 S
C407 C408 1.523 1_556 S
C408 C392 1.366 1_565 S
C408 C404 1.371 1_554 S
C408 C407 1.523 1_554 S
H409 C384 0.950 . S
H410 C386 0.950 . S
H411 C387 0.949 . S
H412 C389 0.950 . S
H413 C391 0.950 . S
C414 C415 1.349 . S
C414 C416 1.327 . S
C414 H439 0.950 . S
C415 C414 1.349 . S
C415 C431 1.349 . S
C416 C414 1.327 . S
C416 C435 1.429 . S
C416 H440 0.950 . S
C417 C434 1.574 . S
C417 C436 1.368 . S
C417 H441 0.949 . S
H418 C422 0.949 . S
C419 C420 1.349 . S
C419 C421 1.327 . S
C419 H442 0.950 . S
C420 C419 1.349 . S
C420 C432 1.349 . S
C421 C419 1.327 . S
C421 C437 1.429 . S
C421 H443 0.950 1_556 S
C422 H418 0.949 . S
C422 C430 1.574 1_556 S
C422 C438 1.368 1_556 S
H423 C431 0.950 . S
H424 C429 0.950 . S
H425 C430 0.949 . S
H426 C432 0.950 . S
H427 C433 0.950 . S
H428 C434 0.949 . S
C429 H424 0.950 . S
C429 C431 1.327 . S
C429 C435 1.429 . S
C430 C422 1.574 1_554 S
C430 H425 0.949 . S
C430 C436 1.368 . S
C431 C415 1.349 . S
C431 H423 0.950 . S
C431 C429 1.327 . S
C432 C420 1.349 . S
C432 H426 0.950 . S
C432 C433 1.327 . S
C433 H427 0.950 . S
C433 C432 1.327 . S
C433 C437 1.429 . S
C434 C417 1.574 . S
C434 H428 0.949 . S
C434 C438 1.368 . S
C435 C416 1.429 . S
C435 C429 1.429 . S
C435 C436 1.523 . S
C436 C417 1.368 . S
C436 C430 1.368 . S
C436 C435 1.523 . S
C437 C421 1.429 . S
C437 C433 1.429 . S
C437 C438 1.523 1_556 S
C438 C422 1.368 1_554 S
C438 C434 1.368 . S
C438 C437 1.523 1_554 S
H439 C414 0.950 . S
H440 C416 0.950 . S
H441 C417 0.949 . S
H442 C419 0.950 . S
H443 C421 0.950 1_554 S
C444 C445 1.349 . S
C444 C446 1.327 . S
C444 H469 0.950 . S
C445 C444 1.349 . S
C445 C461 1.349 . S
C446 C444 1.327 . S
C446 C465 1.429 . S
C446 H470 0.950 . S
C447 C464 1.574 . S
C447 C466 1.368 . S
C447 H471 0.949 . S
H448 C452 0.949 . S
C449 C450 1.349 . S
C449 C451 1.327 . S
C449 H472 0.950 . S
C450 C449 1.349 . S
C450 C462 1.349 . S
C451 C449 1.327 . S
C451 C467 1.429 . S
C451 H473 0.950 . S
C452 H448 0.949 . S
C452 C460 1.574 1_556 S
C452 C468 1.368 1_556 S
H453 C461 0.950 . S
H454 C459 0.950 . S
H455 C460 0.949 . S
H456 C462 0.950 . S
H457 C463 0.950 . S
H458 C464 0.949 . S
C459 H454 0.950 . S
C459 C461 1.327 . S
C459 C465 1.429 . S
C460 C452 1.574 1_554 S
C460 H455 0.949 . S
C460 C466 1.368 . S
C461 C445 1.349 . S
C461 H453 0.950 . S
C461 C459 1.327 . S
C462 C450 1.349 . S
C462 H456 0.950 . S
C462 C463 1.327 . S
C463 H457 0.950 . S
C463 C462 1.327 . S
C463 C467 1.429 . S
C464 C447 1.574 . S
C464 H458 0.949 . S
C464 C468 1.368 . S
C465 C446 1.429 . S
C465 C459 1.429 . S
C465 C466 1.523 . S
C466 C447 1.368 . S
C466 C460 1.368 . S
C466 C465 1.523 . S
C467 C451 1.429 . S
C467 C463 1.429 . S
C467 C468 1.523 1_556 S
C468 C452 1.368 1_554 S
C468 C464 1.368 . S
C468 C467 1.523 1_554 S
H469 C444 0.950 . S
H470 C446 0.950 . S
H471 C447 0.949 . S
H472 C449 0.950 . S
H473 C451 0.950 . S
C474 C475 1.350 . S
C474 C476 1.327 . S
C474 H499 0.950 . S
C475 C474 1.350 . S
C475 C491 1.348 1_655 S
C476 C474 1.327 . S
C476 C495 1.431 . S
C476 H500 0.950 . S
C477 C494 1.574 1_554 S
C477 C496 1.365 1_455 S
C477 H501 0.949 . S
H478 C482 0.949 . S
C479 C480 1.341 1_455 S
C479 C481 1.327 . S
C479 H502 0.950 . S
C480 C479 1.341 1_655 S
C480 C492 1.358 . S
C481 C479 1.327 . S
C481 C497 1.423 1_455 S
C481 H503 0.950 . S
C482 H478 0.949 . S
C482 C490 1.574 . S
C482 C498 1.374 . S
H483 C491 0.950 . S
H484 C489 0.950 . S
H485 C490 0.949 . S
H486 C492 0.950 . S
H487 C493 0.950 1_554 S
H488 C494 0.949 . S
C489 H484 0.950 . S
C489 C491 1.327 . S
C489 C495 1.426 1_455 S
C490 C482 1.574 . S
C490 H485 0.949 . S
C490 C496 1.372 . S
C491 C475 1.348 1_455 S
C491 H483 0.950 . S
C491 C489 1.327 . S
C492 C480 1.358 . S
C492 H486 0.950 . S
C492 C493 1.327 . S
C493 H487 0.950 1_556 S
C493 C492 1.327 . S
C493 C497 1.435 . S
C494 C477 1.574 1_556 S
C494 H488 0.949 . S
C494 C498 1.363 1_456 S
C495 C476 1.431 . S
C495 C489 1.426 1_655 S
C495 C496 1.523 . S
C496 C477 1.365 1_655 S
C496 C490 1.372 . S
C496 C495 1.523 . S
C497 C481 1.423 1_655 S
C497 C493 1.435 . S
C497 C498 1.523 1_556 S
C498 C482 1.374 . S
C498 C494 1.363 1_654 S
C498 C497 1.523 1_554 S
H499 C474 0.950 . S
H500 C476 0.950 . S
H501 C477 0.949 . S
H502 C479 0.950 . S
H503 C481 0.950 . S
C504 C505 1.349 1_655 S
C504 C506 1.327 . S
C504 H529 0.950 . S
C505 C504 1.349 1_455 S
C505 C521 1.349 . S
C506 C504 1.327 . S
C506 C525 1.429 . S
C506 H530 0.950 . S
C507 C524 1.574 . S
C507 C526 1.368 1_455 S
C507 H531 0.949 . S
H508 C512 0.949 . S
C509 C510 1.349 . S
C509 C511 1.327 . S
C509 H532 0.937 1_655 S
C510 C509 1.349 . S
C510 C522 1.349 . S
C511 C509 1.327 . S
C511 C527 1.429 . S
C511 H533 0.950 1_655 S
C512 H508 0.949 . S
C512 C520 1.574 . S
C512 C528 1.368 . S
H513 C521 0.950 . S
H514 C519 0.950 . S
H515 C520 0.949 . S
H516 C522 0.950 . S
H517 C523 0.950 . S
H518 C524 0.949 . S
C519 H514 0.950 . S
C519 C521 1.327 . S
C519 C525 1.429 1_455 S
C520 C512 1.574 . S
C520 H515 0.949 . S
C520 C526 1.368 . S
C521 C505 1.349 . S
C521 H513 0.950 . S
C521 C519 1.327 . S
C522 C510 1.349 . S
C522 H516 0.950 . S
C522 C523 1.327 . S
C523 H517 0.950 . S
C523 C522 1.327 . S
C523 C527 1.429 . S
C524 C507 1.574 . S
C524 H518 0.949 . S
C524 C528 1.368 1_455 S
C525 C506 1.429 . S
C525 C519 1.429 1_655 S
C525 C526 1.523 . S
C526 C507 1.368 1_655 S
C526 C520 1.368 . S
C526 C525 1.523 . S
C527 C511 1.429 . S
C527 C523 1.429 . S
C527 C528 1.523 . S
C528 C512 1.368 . S
C528 C524 1.368 1_655 S
C528 C527 1.523 . S
H529 C504 0.950 . S
H530 C506 0.950 . S
H531 C507 0.949 . S
H532 C509 0.937 1_455 S
H533 C511 0.950 1_455 S
C534 C535 1.349 . S
C534 C536 1.327 . S
C534 H559 0.950 . S
C535 C534 1.349 . S
C535 C551 1.349 1_545 S
C536 C534 1.327 . S
C536 C555 1.429 1_545 S
C536 H560 0.950 . S
C537 C554 1.574 . S
C537 C556 1.368 . S
C537 H561 0.949 . S
H538 C542 0.966 . S
C539 C540 1.349 . S
C539 C541 1.327 . S
C539 H562 0.950 . S
C540 C539 1.349 . S
C540 C552 1.349 . S
C541 C539 1.327 . S
C541 C557 1.429 . S
C541 H563 0.950 . S
C542 H538 0.966 . S
C542 C550 1.579 . S
C542 C558 1.346 1_545 S
H543 C551 0.950 . S
H544 C549 0.950 . S
H545 C550 0.949 . S
H546 C552 0.950 . S
H547 C553 0.950 1_545 S
H548 C554 0.949 . S
C549 H544 0.950 . S
C549 C551 1.327 . S
C549 C555 1.429 . S
C550 C542 1.579 . S
C550 H545 0.949 . S
C550 C556 1.368 1_545 S
C551 C535 1.349 1_565 S
C551 H543 0.950 . S
C551 C549 1.327 . S
C552 C540 1.349 . S
C552 H546 0.950 . S
C552 C553 1.327 . S
C553 H547 0.950 1_565 S
C553 C552 1.327 . S
C553 C557 1.429 . S
C554 C537 1.574 . S
C554 H548 0.949 . S
C554 C558 1.368 . S
C555 C536 1.429 1_565 S
C555 C549 1.429 . S
C555 C556 1.523 . S
C556 C537 1.368 . S
C556 C550 1.368 1_565 S
C556 C555 1.523 . S
C557 C541 1.429 . S
C557 C553 1.429 . S
C557 C558 1.523 . S
C558 C542 1.346 1_565 S
C558 C554 1.368 . S
C558 C557 1.523 . S
H559 C534 0.950 . S
H560 C536 0.950 . S
H561 C537 0.949 . S
H562 C539 0.950 . S
H563 C541 0.950 . S
C564 C565 1.349 . S
C564 C566 1.327 . S
C564 H589 0.950 . S
C565 C564 1.349 . S
C565 C581 1.349 . S
C566 C564 1.327 . S
C566 C585 1.429 . S
C566 H590 0.950 . S
C567 C584 1.574 . S
C567 C586 1.368 . S
C567 H591 0.949 . S
H568 C572 0.949 . S
C569 C570 1.349 . S
C569 C571 1.327 . S
C569 H592 0.950 . S
C570 C569 1.349 . S
C570 C582 1.349 . S
C571 C569 1.327 . S
C571 C587 1.429 . S
C571 H593 0.950 . S
C572 H568 0.949 . S
C572 C580 1.574 . S
C572 C588 1.368 . S
H573 C581 0.950 . S
H574 C579 0.950 . S
H575 C580 0.949 . S
H576 C582 0.950 . S
H577 C583 0.950 . S
H578 C584 0.949 . S
C579 H574 0.950 . S
C579 C581 1.327 . S
C579 C585 1.429 . S
C580 C572 1.574 . S
C580 H575 0.949 . S
C580 C586 1.368 . S
C581 C565 1.349 . S
C581 H573 0.950 . S
C581 C579 1.327 . S
C582 C570 1.349 . S
C582 H576 0.950 . S
C582 C583 1.327 . S
C583 H577 0.950 . S
C583 C582 1.327 . S
C583 C587 1.429 . S
C584 C567 1.574 . S
C584 H578 0.949 . S
C584 C588 1.368 . S
C585 C566 1.429 . S
C585 C579 1.429 . S
C585 C586 1.523 . S
C586 C567 1.368 . S
C586 C580 1.368 . S
C586 C585 1.523 . S
C587 C571 1.429 . S
C587 C583 1.429 . S
C587 C588 1.523 . S
C588 C572 1.368 . S
C588 C584 1.368 . S
C588 C587 1.523 . S
H589 C564 0.950 . S
H590 C566 0.950 . S
H591 C567 0.949 . S
H592 C569 0.950 . S
H593 C571 0.950 . S
C594 C595 1.349 . S
C594 C596 1.327 . S
C594 H619 0.950 . S
C595 C594 1.349 . S
C595 C611 1.349 . S
C596 C594 1.327 . S
C596 C615 1.429 . S
C596 H620 0.950 . S
C597 C614 1.574 . S
C597 C616 1.368 . S
C597 H621 0.949 . S
H598 C602 0.949 . S
C599 C600 1.349 . S
C599 C601 1.327 . S
C599 H622 0.950 . S
C600 C599 1.349 . S
C600 C612 1.349 . S
C601 C599 1.327 . S
C601 C617 1.429 . S
C601 H623 0.950 . S
C602 H598 0.949 . S
C602 C610 1.574 . S
C602 C618 1.368 . S
H603 C611 0.950 . S
H604 C609 0.950 . S
H605 C610 0.949 . S
H606 C612 0.950 . S
H607 C613 0.950 . S
H608 C614 0.949 . S
C609 H604 0.950 . S
C609 C611 1.327 . S
C609 C615 1.429 . S
C610 C602 1.574 . S
C610 H605 0.949 . S
C610 C616 1.368 . S
C611 C595 1.349 . S
C611 H603 0.950 . S
C611 C609 1.327 . S
C612 C600 1.349 . S
C612 H606 0.950 . S
C612 C613 1.327 . S
C613 H607 0.950 . S
C613 C612 1.327 . S
C613 C617 1.429 . S
C614 C597 1.574 . S
C614 H608 0.949 . S
C614 C618 1.368 . S
C615 C596 1.429 . S
C615 C609 1.429 . S
C615 C616 1.523 . S
C616 C597 1.368 . S
C616 C610 1.368 . S
C616 C615 1.523 . S
C617 C601 1.429 . S
C617 C613 1.429 . S
C617 C618 1.523 . S
C618 C602 1.368 . S
C618 C614 1.368 . S
C618 C617 1.523 . S
H619 C594 0.950 . S
H620 C596 0.950 . S
H621 C597 0.949 . S
H622 C599 0.950 . S
H623 C601 0.950 . S
C624 C625 1.349 1_455 S
C624 C626 1.327 . S
C624 H649 0.950 . S
C625 C624 1.349 1_655 S
C625 C641 1.349 . S
C626 C624 1.327 . S
C626 C645 1.429 . S
C626 H650 0.950 . S
C627 C644 1.574 . S
C627 C646 1.368 1_655 S
C627 H651 0.949 . S
H628 C632 0.949 . S
C629 C630 1.349 . S
C629 C631 1.327 . S
C629 H652 0.936 1_455 S
C630 C629 1.349 . S
C630 C642 1.349 1_556 S
C631 C629 1.327 . S
C631 C647 1.429 1_556 S
C631 H653 0.950 1_455 S
C632 H628 0.949 . S
C632 C640 1.574 . S
C632 C648 1.368 . S
H633 C641 0.950 . S
H634 C639 0.950 . S
H635 C640 0.949 . S
H636 C642 0.950 . S
H637 C643 0.950 . S
H638 C644 0.949 . S
C639 H634 0.950 . S
C639 C641 1.327 . S
C639 C645 1.429 1_655 S
C640 C632 1.574 . S
C640 H635 0.949 . S
C640 C646 1.368 . S
C641 C625 1.349 . S
C641 H633 0.950 . S
C641 C639 1.327 . S
C642 C630 1.349 1_554 S
C642 H636 0.950 . S
C642 C643 1.327 . S
C643 H637 0.950 . S
C643 C642 1.327 . S
C643 C647 1.429 . S
C644 C627 1.574 . S
C644 H638 0.949 . S
C644 C648 1.368 1_655 S
C645 C626 1.429 . S
C645 C639 1.429 1_455 S
C645 C646 1.523 . S
C646 C627 1.368 1_455 S
C646 C640 1.368 . S
C646 C645 1.523 . S
C647 C631 1.429 1_554 S
C647 C643 1.429 . S
C647 C648 1.523 . S
C648 C632 1.368 . S
C648 C644 1.368 1_455 S
C648 C647 1.523 . S
H649 C624 0.950 . S
H650 C626 0.950 . S
H651 C627 0.949 . S
H652 C629 0.936 1_655 S
H653 C631 0.950 1_655 S
C654 C655 1.391 . S
C654 C656 1.327 . S
C654 H679 0.950 . S
C655 C654 1.391 . S
C655 C671 1.300 1_565 S
C656 C654 1.327 . S
C656 C675 1.429 1_565 S
C656 H680 0.950 . S
C657 C674 1.574 . S
C657 C676 1.368 . S
C657 H681 0.949 . S
H658 C662 0.949 . S
C659 C660 1.349 1_554 S
C659 C661 1.327 . S
C659 H682 0.950 1_554 S
C660 C659 1.349 1_556 S
C660 C672 1.349 . S
C661 C659 1.327 . S
C661 C677 1.429 . S
C661 H683 0.950 . S
C662 H658 0.949 . S
C662 C670 1.574 . S
C662 C678 1.368 1_565 S
H663 C671 0.950 . S
H664 C669 0.950 . S
H665 C670 0.949 . S
H666 C672 0.950 1_565 S
H667 C673 0.950 1_565 S
H668 C674 0.949 . S
C669 H664 0.950 . S
C669 C671 1.327 . S
C669 C675 1.429 . S
C670 C662 1.574 . S
C670 H665 0.949 . S
C670 C676 1.368 1_565 S
C671 C655 1.300 1_545 S
C671 H663 0.950 . S
C671 C669 1.327 . S
C672 C660 1.349 . S
C672 H666 0.950 1_545 S
C672 C673 1.327 1_556 S
C673 H667 0.950 1_545 S
C673 C672 1.327 1_554 S
C673 C677 1.429 . S
C674 C657 1.574 . S
C674 H668 0.949 . S
C674 C678 1.368 . S
C675 C656 1.429 1_545 S
C675 C669 1.429 . S
C675 C676 1.523 . S
C676 C657 1.368 . S
C676 C670 1.368 1_545 S
C676 C675 1.523 . S
C677 C661 1.429 . S
C677 C673 1.429 . S
C677 C678 1.523 . S
C678 C662 1.368 1_545 S
C678 C674 1.368 . S
C678 C677 1.523 . S
H679 C654 0.950 . S
H680 C656 0.950 . S
H681 C657 0.949 . S
H682 C659 0.950 1_556 S
H683 C661 0.950 . S
C684 C685 1.349 . S
C684 C686 1.327 . S
C684 H709 0.950 . S
C685 C684 1.349 . S
C685 C701 1.349 . S
C686 C684 1.327 . S
C686 C705 1.429 . S
C686 H710 0.950 . S
C687 C704 1.574 . S
C687 C706 1.368 . S
C687 H711 0.949 . S
H688 C692 0.949 . S
C689 C690 1.349 . S
C689 C691 1.327 . S
C689 H712 0.950 . S
C690 C689 1.349 . S
C690 C702 1.349 1_556 S
C691 C689 1.327 . S
C691 C707 1.429 1_556 S
C691 H713 0.950 . S
C692 H688 0.949 . S
C692 C700 1.574 . S
C692 C708 1.368 . S
H693 C701 0.950 . S
H694 C699 0.950 . S
H695 C700 0.949 . S
H696 C702 0.950 . S
H697 C703 0.950 . S
H698 C704 0.949 . S
C699 H694 0.950 . S
C699 C701 1.327 . S
C699 C705 1.429 . S
C700 C692 1.574 . S
C700 H695 0.949 . S
C700 C706 1.368 . S
C701 C685 1.349 . S
C701 H693 0.950 . S
C701 C699 1.327 . S
C702 C690 1.349 1_554 S
C702 H696 0.950 . S
C702 C703 1.327 . S
C703 H697 0.950 . S
C703 C702 1.327 . S
C703 C707 1.429 . S
C704 C687 1.574 . S
C704 H698 0.949 . S
C704 C708 1.368 . S
C705 C686 1.429 . S
C705 C699 1.429 . S
C705 C706 1.523 . S
C706 C687 1.368 . S
C706 C700 1.368 . S
C706 C705 1.523 . S
C707 C691 1.429 1_554 S
C707 C703 1.429 . S
C707 C708 1.523 . S
C708 C692 1.368 . S
C708 C704 1.368 . S
C708 C707 1.523 . S
H709 C684 0.950 . S
H710 C686 0.950 . S
H711 C687 0.949 . S
H712 C689 0.950 . S
H713 C691 0.950 . S
C714 C715 1.349 . S
C714 C716 1.327 . S
C714 H739 0.950 . S
C715 C714 1.349 . S
C715 C731 1.349 . S
C716 C714 1.327 . S
C716 C735 1.429 . S
C716 H740 0.950 . S
C717 C734 1.574 . S
C717 C736 1.368 . S
C717 H741 0.949 . S
H718 C722 0.949 . S
C719 C720 1.349 1_554 S
C719 C721 1.327 . S
C719 H742 0.950 . S
C720 C719 1.349 1_556 S
C720 C732 1.349 . S
C721 C719 1.327 . S
C721 C737 1.429 . S
C721 H743 0.950 . S
C722 H718 0.949 . S
C722 C730 1.574 . S
C722 C738 1.368 . S
H723 C731 0.950 . S
H724 C729 0.950 . S
H725 C730 0.949 . S
H726 C732 0.950 . S
H727 C733 0.950 1_556 S
H728 C734 0.949 . S
C729 H724 0.950 . S
C729 C731 1.327 . S
C729 C735 1.429 . S
C730 C722 1.574 . S
C730 H725 0.949 . S
C730 C736 1.368 . S
C731 C715 1.349 . S
C731 H723 0.950 . S
C731 C729 1.327 . S
C732 C720 1.349 . S
C732 H726 0.950 . S
C732 C733 1.327 1_556 S
C733 H727 0.950 1_554 S
C733 C732 1.327 1_554 S
C733 C737 1.429 . S
C734 C717 1.574 . S
C734 H728 0.949 . S
C734 C738 1.368 . S
C735 C716 1.429 . S
C735 C729 1.429 . S
C735 C736 1.523 . S
C736 C717 1.368 . S
C736 C730 1.368 . S
C736 C735 1.523 . S
C737 C721 1.429 . S
C737 C733 1.429 . S
C737 C738 1.523 . S
C738 C722 1.368 . S
C738 C734 1.368 . S
C738 C737 1.523 . S
H739 C714 0.950 . S
H740 C716 0.950 . S
H741 C717 0.949 . S
H742 C719 0.950 . S
H743 C721 0.950 . S
C744 C745 1.380 . S
C744 C746 1.327 . S
C744 H769 0.950 . S
C745 C744 1.380 . S
C745 C761 1.321 1_455 S
C746 C744 1.327 . S
C746 C765 1.429 . S
C746 H770 0.950 . S
C747 C764 1.574 . S
C747 C766 1.368 1_655 S
C747 H771 0.949 . S
H748 C752 0.949 . S
C749 C750 1.349 1_655 S
C749 C751 1.327 . S
C749 H772 0.950 . S
C750 C749 1.349 1_455 S
C750 C762 1.349 . S
C751 C749 1.327 . S
C751 C767 1.429 1_655 S
C751 H773 0.950 . S
C752 H748 0.949 . S
C752 C760 1.574 . S
C752 C768 1.368 . S
H753 C761 0.950 . S
H754 C759 0.950 . S
H755 C760 0.949 . S
H756 C762 0.950 . S
H757 C763 0.950 . S
H758 C764 0.949 . S
C759 H754 0.950 . S
C759 C761 1.327 . S
C759 C765 1.429 1_655 S
C760 C752 1.574 . S
C760 H755 0.949 . S
C760 C766 1.368 . S
C761 C745 1.321 1_655 S
C761 H753 0.950 . S
C761 C759 1.327 . S
C762 C750 1.349 . S
C762 H756 0.950 . S
C762 C763 1.327 . S
C763 H757 0.950 . S
C763 C762 1.327 . S
C763 C767 1.429 . S
C764 C747 1.574 . S
C764 H758 0.949 . S
C764 C768 1.368 1_655 S
C765 C746 1.429 . S
C765 C759 1.429 1_455 S
C765 C766 1.523 . S
C766 C747 1.368 1_455 S
C766 C760 1.368 . S
C766 C765 1.523 . S
C767 C751 1.429 1_455 S
C767 C763 1.429 . S
C767 C768 1.523 . S
C768 C752 1.368 . S
C768 C764 1.368 1_455 S
C768 C767 1.523 . S
H769 C744 0.950 . S
H770 C746 0.950 . S
H771 C747 0.949 . S
H772 C749 0.950 . S
H773 C751 0.950 . S
C774 C775 1.305 1_565 S
C774 C776 1.327 . S
C774 H799 0.950 . S
C775 C774 1.305 1_545 S
C775 C791 1.395 . S
C776 C774 1.327 . S
C776 C795 1.429 1_565 S
C776 H800 0.950 . S
C777 C794 1.574 . S
C777 C796 1.368 . S
C777 H801 0.949 . S
H778 C782 0.949 . S
C779 C780 1.349 . S
C779 C781 1.327 . S
C779 H802 0.950 . S
C780 C779 1.349 . S
C780 C792 1.349 1_545 S
C781 C779 1.327 . S
C781 C797 1.429 . S
C781 H803 0.950 . S
C782 H778 0.949 . S
C782 C790 1.574 . S
C782 C798 1.368 1_565 S
H783 C791 0.950 . S
H784 C789 0.950 . S
H785 C790 0.949 . S
H786 C792 0.950 . S
H787 C793 0.950 . S
H788 C794 0.949 . S
C789 H784 0.950 . S
C789 C791 1.327 . S
C789 C795 1.429 . S
C790 C782 1.574 . S
C790 H785 0.949 . S
C790 C796 1.368 1_565 S
C791 C775 1.395 . S
C791 H783 0.950 . S
C791 C789 1.327 . S
C792 C780 1.349 1_565 S
C792 H786 0.950 . S
C792 C793 1.327 . S
C793 H787 0.950 . S
C793 C792 1.327 . S
C793 C797 1.429 1_565 S
C794 C777 1.574 . S
C794 H788 0.949 . S
C794 C798 1.368 . S
C795 C776 1.429 1_545 S
C795 C789 1.429 . S
C795 C796 1.523 . S
C796 C777 1.368 . S
C796 C790 1.368 1_545 S
C796 C795 1.523 . S
C797 C781 1.429 . S
C797 C793 1.429 1_545 S
C797 C798 1.523 . S
C798 C782 1.368 1_545 S
C798 C794 1.368 . S
C798 C797 1.523 . S
H799 C774 0.950 . S
H800 C776 0.950 . S
H801 C777 0.949 . S
H802 C779 0.950 . S
H803 C781 0.950 . S
C804 C805 1.349 . S
C804 C806 1.327 . S
C804 H829 0.950 1_556 S
C805 C804 1.349 . S
C805 C821 1.349 . S
C806 C804 1.327 . S
C806 C825 1.429 . S
C806 H830 0.950 . S
C807 C824 1.574 . S
C807 C826 1.368 . S
C807 H831 0.949 . S
H808 C812 0.949 . S
C809 C810 1.349 . S
C809 C811 1.327 . S
C809 H832 0.950 . S
C810 C809 1.349 . S
C810 C822 1.349 . S
C811 C809 1.327 . S
C811 C827 1.429 . S
C811 H833 0.950 . S
C812 H808 0.949 . S
C812 C820 1.574 . S
C812 C828 1.368 . S
H813 C821 0.950 . S
H814 C819 0.950 . S
H815 C820 0.949 . S
H816 C822 0.950 . S
H817 C823 0.950 . S
H818 C824 0.949 . S
C819 H814 0.950 . S
C819 C821 1.327 . S
C819 C825 1.429 . S
C820 C812 1.574 . S
C820 H815 0.949 . S
C820 C826 1.368 . S
C821 C805 1.349 . S
C821 H813 0.950 . S
C821 C819 1.327 . S
C822 C810 1.349 . S
C822 H816 0.950 . S
C822 C823 1.327 . S
C823 H817 0.950 . S
C823 C822 1.327 . S
C823 C827 1.429 . S
C824 C807 1.574 . S
C824 H818 0.949 . S
C824 C828 1.368 . S
C825 C806 1.429 . S
C825 C819 1.429 . S
C825 C826 1.523 . S
C826 C807 1.368 . S
C826 C820 1.368 . S
C826 C825 1.523 . S
C827 C811 1.429 . S
C827 C823 1.429 . S
C827 C828 1.523 . S
C828 C812 1.368 . S
C828 C824 1.368 . S
C828 C827 1.523 . S
H829 C804 0.950 1_554 S
H830 C806 0.950 . S
H831 C807 0.949 . S
H832 C809 0.950 . S
H833 C811 0.950 . S
C834 C835 1.349 . S
C834 C836 1.327 . S
C834 H859 0.950 . S
C835 C834 1.349 . S
C835 C851 1.349 . S
C836 C834 1.327 . S
C836 C855 1.429 . S
C836 H860 0.950 . S
C837 C854 1.574 . S
C837 C856 1.368 . S
C837 H861 0.949 . S
H838 C842 0.949 . S
C839 C840 1.349 . S
C839 C841 1.327 . S
C839 H862 0.950 . S
C840 C839 1.349 . S
C840 C852 1.349 . S
C841 C839 1.327 . S
C841 C857 1.429 . S
C841 H863 0.950 . S
C842 H838 0.949 . S
C842 C850 1.574 . S
C842 C858 1.368 . S
H843 C851 0.950 . S
H844 C849 0.950 . S
H845 C850 0.949 . S
H846 C852 0.950 . S
H847 C853 0.950 . S
H848 C854 0.949 . S
C849 H844 0.950 . S
C849 C851 1.327 . S
C849 C855 1.429 . S
C850 C842 1.574 . S
C850 H845 0.949 . S
C850 C856 1.368 . S
C851 C835 1.349 . S
C851 H843 0.950 . S
C851 C849 1.327 . S
C852 C840 1.349 . S
C852 H846 0.950 . S
C852 C853 1.327 . S
C853 H847 0.950 . S
C853 C852 1.327 . S
C853 C857 1.429 . S
C854 C837 1.574 . S
C854 H848 0.949 . S
C854 C858 1.368 . S
C855 C836 1.429 . S
C855 C849 1.429 . S
C855 C856 1.523 . S
C856 C837 1.368 . S
C856 C850 1.368 . S
C856 C855 1.523 . S
C857 C841 1.429 . S
C857 C853 1.429 . S
C857 C858 1.523 . S
C858 C842 1.368 . S
C858 C854 1.368 . S
C858 C857 1.523 . S
H859 C834 0.950 . S
H860 C836 0.950 . S
H861 C837 0.949 . S
H862 C839 0.950 . S
H863 C841 0.950 . S
C864 C865 1.376 . S
C864 C866 1.327 . S
C864 H889 0.950 . S
C865 C864 1.376 . S
C865 C881 1.326 1_655 S
C866 C864 1.327 . S
C866 C885 1.429 . S
C866 H890 0.950 . S
C867 C884 1.574 . S
C867 C886 1.368 1_455 S
C867 H891 0.949 . S
H868 C872 0.949 . S
C869 C870 1.349 1_455 S
C869 C871 1.327 . S
C869 H892 0.950 . S
C870 C869 1.349 1_655 S
C870 C882 1.349 . S
C871 C869 1.327 . S
C871 C887 1.429 1_455 S
C871 H893 0.950 . S
C872 H868 0.949 . S
C872 C880 1.574 . S
C872 C888 1.368 . S
H873 C881 0.950 . S
H874 C879 0.950 . S
H875 C880 0.949 . S
H876 C882 0.950 . S
H877 C883 0.950 . S
H878 C884 0.949 . S
C879 H874 0.950 . S
C879 C881 1.327 . S
C879 C885 1.429 1_455 S
C880 C872 1.574 . S
C880 H875 0.949 . S
C880 C886 1.368 . S
C881 C865 1.326 1_455 S
C881 H873 0.950 . S
C881 C879 1.327 . S
C882 C870 1.349 . S
C882 H876 0.950 . S
C882 C883 1.327 . S
C883 H877 0.950 . S
C883 C882 1.327 . S
C883 C887 1.429 . S
C884 C867 1.574 . S
C884 H878 0.949 . S
C884 C888 1.368 1_455 S
C885 C866 1.429 . S
C885 C879 1.429 1_655 S
C885 C886 1.523 . S
C886 C867 1.368 1_655 S
C886 C880 1.368 . S
C886 C885 1.523 . S
C887 C871 1.429 1_655 S
C887 C883 1.429 . S
C887 C888 1.523 . S
C888 C872 1.368 . S
C888 C884 1.368 1_655 S
C888 C887 1.523 . S
H889 C864 0.950 . S
H890 C866 0.950 . S
H891 C867 0.949 . S
H892 C869 0.950 . S
H893 C871 0.950 . S
C894 C895 1.319 1_545 S
C894 C896 1.327 . S
C894 H919 0.950 . S
C895 C894 1.319 1_565 S
C895 C911 1.381 . S
C896 C894 1.327 . S
C896 C915 1.429 1_545 S
C896 H920 0.950 . S
C897 C914 1.574 . S
C897 C916 1.368 . S
C897 H921 0.949 . S
H898 C902 0.949 . S
C899 C900 1.349 . S
C899 C901 1.327 . S
C899 H922 0.950 . S
C900 C899 1.349 . S
C900 C912 1.349 1_565 S
C901 C899 1.327 . S
C901 C917 1.429 . S
C901 H923 0.950 . S
C902 H898 0.949 . S
C902 C910 1.574 . S
C902 C918 1.368 1_545 S
H903 C911 0.950 . S
H904 C909 0.950 . S
H905 C910 0.949 . S
H906 C912 0.950 . S
H907 C913 0.950 . S
H908 C914 0.949 . S
C909 H904 0.950 . S
C909 C911 1.327 . S
C909 C915 1.429 . S
C910 C902 1.574 . S
C910 H905 0.949 . S
C910 C916 1.368 1_545 S
C911 C895 1.381 . S
C911 H903 0.950 . S
C911 C909 1.327 . S
C912 C900 1.349 1_545 S
C912 H906 0.950 . S
C912 C913 1.327 . S
C913 H907 0.950 . S
C913 C912 1.327 . S
C913 C917 1.429 1_545 S
C914 C897 1.574 . S
C914 H908 0.949 . S
C914 C918 1.368 . S
C915 C896 1.429 1_565 S
C915 C909 1.429 . S
C915 C916 1.523 . S
C916 C897 1.368 . S
C916 C910 1.368 1_565 S
C916 C915 1.523 . S
C917 C901 1.429 . S
C917 C913 1.429 1_565 S
C917 C918 1.523 . S
C918 C902 1.368 1_565 S
C918 C914 1.368 . S
C918 C917 1.523 . S
H919 C894 0.950 . S
H920 C896 0.950 . S
H921 C897 0.949 . S
H922 C899 0.950 . S
H923 C901 0.950 . S
C924 C925 1.349 . S
C924 C926 1.327 . S
C924 H949 0.950 . S
C925 C924 1.349 . S
C925 C941 1.349 . S
C926 C924 1.327 . S
C926 C945 1.429 . S
C926 H950 0.950 . S
C927 C944 1.574 . S
C927 C946 1.368 . S
C927 H951 0.949 . S
H928 C932 0.949 . S
C929 C930 1.349 . S
C929 C931 1.327 . S
C929 H952 0.950 . S
C930 C929 1.349 . S
C930 C942 1.349 . S
C931 C929 1.327 . S
C931 C947 1.429 . S
C931 H953 0.950 . S
C932 H928 0.949 . S
C932 C940 1.574 . S
C932 C948 1.368 . S
H933 C941 0.950 . S
H934 C939 0.950 . S
H935 C940 0.949 . S
H936 C942 0.950 . S
H937 C943 0.950 . S
H938 C944 0.949 . S
C939 H934 0.950 . S
C939 C941 1.327 . S
C939 C945 1.429 . S
C940 C932 1.574 . S
C940 H935 0.949 . S
C940 C946 1.368 . S
C941 C925 1.349 . S
C941 H933 0.950 . S
C941 C939 1.327 . S
C942 C930 1.349 . S
C942 H936 0.950 . S
C942 C943 1.327 . S
C943 H937 0.950 . S
C943 C942 1.327 . S
C943 C947 1.429 . S
C944 C927 1.574 . S
C944 H938 0.949 . S
C944 C948 1.368 . S
C945 C926 1.429 . S
C945 C939 1.429 . S
C945 C946 1.523 . S
C946 C927 1.368 . S
C946 C940 1.368 . S
C946 C945 1.523 . S
C947 C931 1.429 . S
C947 C943 1.429 . S
C947 C948 1.523 . S
C948 C932 1.368 . S
C948 C944 1.368 . S
C948 C947 1.523 . S
H949 C924 0.950 . S
H950 C926 0.950 . S
H951 C927 0.949 . S
H952 C929 0.950 . S
H953 C931 0.950 . S
C954 C955 1.349 . S
C954 C956 1.327 . S
C954 H979 0.950 . S
C955 C954 1.349 . S
C955 C971 1.349 . S
C956 C954 1.327 . S
C956 C975 1.429 . S
C956 H980 0.950 . S
C957 C974 1.574 . S
C957 C976 1.368 . S
C957 H981 0.949 . S
H958 C962 0.949 . S
C959 C960 1.349 . S
C959 C961 1.327 . S
C959 H982 0.950 . S
C960 C959 1.349 . S
C960 C972 1.349 . S
C961 C959 1.327 . S
C961 C977 1.429 . S
C961 H983 0.950 . S
C962 H958 0.949 . S
C962 C970 1.574 . S
C962 C978 1.368 . S
H963 C971 0.950 . S
H964 C969 0.950 . S
H965 C970 0.949 . S
H966 C972 0.950 . S
H967 C973 0.950 . S
H968 C974 0.949 . S
C969 H964 0.950 . S
C969 C971 1.327 . S
C969 C975 1.429 . S
C970 C962 1.574 . S
C970 H965 0.949 . S
C970 C976 1.368 . S
C971 C955 1.349 . S
C971 H963 0.950 . S
C971 C969 1.327 . S
C972 C960 1.349 . S
C972 H966 0.950 . S
C972 C973 1.327 . S
C973 H967 0.950 . S
C973 C972 1.327 . S
C973 C977 1.429 . S
C974 C957 1.574 . S
C974 H968 0.949 . S
C974 C978 1.368 . S
C975 C956 1.429 . S
C975 C969 1.429 . S
C975 C976 1.523 . S
C976 C957 1.368 . S
C976 C970 1.368 . S
C976 C975 1.523 . S
C977 C961 1.429 . S
C977 C973 1.429 . S
C977 C978 1.523 . S
C978 C962 1.368 . S
C978 C974 1.368 . S
C978 C977 1.523 . S
H979 C954 0.950 . S
H980 C956 0.950 . S
H981 C957 0.949 . S
H982 C959 0.950 . S
H983 C961 0.950 . S
C265 C82 1.607 . S
C270 C113 1.808 1_545 S
C300 C153 1.822 . S
C295 C95 1.605 . S
C330 C193 1.826 . S
C325 C56 1.615 . S
C360 C233 1.817 1_455 S
C355 C69 1.611 . S
C390 C122 1.815 1_565 S
C385 C30 1.612 . S
C415 C43 1.615 . S
C420 C162 1.826 . S
C445 C4 1.620 . S
C450 C202 1.826 . S
C475 C17 1.612 1_655 S
C480 C242 1.817 1_655 S
C510 C119 0.328 . S
C505 C74 0.384 . S
C540 C159 0.337 . S
C535 C87 0.392 . S
C570 C199 0.344 . S
C565 C100 0.395 . S
C595 C61 0.388 . S
C600 C239 0.330 . S
C625 C22 0.388 1_655 S
C630 C110 0.327 . S
C660 C150 0.337 . S
C655 C35 0.387 1_565 S
C690 C190 0.345 . S
C685 C48 0.399 . S
C715 C9 0.391 . S
C720 C230 0.341 . S
C745 C73 1.900 . S
C750 C123 2.074 . S
C775 C86 1.881 . S
C780 C163 2.061 . S
C810 C203 2.049 . S
C805 C99 1.870 . S
C840 C243 2.069 . S
C835 C60 1.883 . S
C865 C21 1.901 1_655 S
C870 C114 2.089 . S
C900 C154 2.061 . S
C895 C34 1.881 1_565 S
C930 C194 2.049 . S
C925 C47 1.871 . S
C955 C8 1.891 . S
C960 C234 2.076 . S
