# Generated by pormake.
# Topology pto, (3,4)-cn, num edge types: 1
# Building blocks:
#     Node 0, Type 0, BuildingBlock: MIDCAF_clean_linker_0, # of connection points: 3
#     Node 1, Type 0, BuildingBlock: MIDCAF_clean_linker_0, # of connection points: 3
#     Node 2, Type 0, BuildingBlock: MIDCAF_clean_linker_0, # of connection points: 3
#     Node 3, Type 0, BuildingBlock: MIDCAF_clean_linker_0, # of connection points: 3
#     Node 4, Type 0, BuildingBlock: MIDCAF_clean_linker_0, # of connection points: 3
#     Node 5, Type 0, BuildingBlock: MIDCAF_clean_linker_0, # of connection points: 3
#     Node 6, Type 0, BuildingBlock: MIDCAF_clean_linker_0, # of connection points: 3
#     Node 7, Type 0, BuildingBlock: MIDCAF_clean_linker_0, # of connection points: 3
#     Node 8, Type 1, BuildingBlock: KOZSID_clean_sbu_0, # of connection points: 4
#     Node 9, Type 1, BuildingBlock: KOZSID_clean_sbu_0, # of connection points: 4
#     Node 10, Type 1, BuildingBlock: KOZSID_clean_sbu_0, # of connection points: 4
#     Node 11, Type 1, BuildingBlock: KOZSID_clean_sbu_0, # of connection points: 4
#     Node 12, Type 1, BuildingBlock: KOZSID_clean_sbu_0, # of connection points: 4
#     Node 13, Type 1, BuildingBlock: KOZSID_clean_sbu_0, # of connection points: 4
#     Edge 14, Type (0, 1), BuildingBlock: CIFDUS_clean_linker_0, # of connection points: 2
#     Edge 15, Type (0, 1), BuildingBlock: CIFDUS_clean_linker_0, # of connection points: 2
#     Edge 16, Type (0, 1), BuildingBlock: CIFDUS_clean_linker_0, # of connection points: 2
#     Edge 17, Type (0, 1), BuildingBlock: CIFDUS_clean_linker_0, # of connection points: 2
#     Edge 18, Type (0, 1), BuildingBlock: CIFDUS_clean_linker_0, # of connection points: 2
#     Edge 19, Type (0, 1), BuildingBlock: CIFDUS_clean_linker_0, # of connection points: 2
#     Edge 20, Type (0, 1), BuildingBlock: CIFDUS_clean_linker_0, # of connection points: 2
#     Edge 21, Type (0, 1), BuildingBlock: CIFDUS_clean_linker_0, # of connection points: 2
#     Edge 22, Type (0, 1), BuildingBlock: CIFDUS_clean_linker_0, # of connection points: 2
#     Edge 23, Type (0, 1), BuildingBlock: CIFDUS_clean_linker_0, # of connection points: 2
#     Edge 24, Type (0, 1), BuildingBlock: CIFDUS_clean_linker_0, # of connection points: 2
#     Edge 25, Type (0, 1), BuildingBlock: CIFDUS_clean_linker_0, # of connection points: 2
#     Edge 26, Type (0, 1), BuildingBlock: CIFDUS_clean_linker_0, # of connection points: 2
#     Edge 27, Type (0, 1), BuildingBlock: CIFDUS_clean_linker_0, # of connection points: 2
#     Edge 28, Type (0, 1), BuildingBlock: CIFDUS_clean_linker_0, # of connection points: 2
#     Edge 29, Type (0, 1), BuildingBlock: CIFDUS_clean_linker_0, # of connection points: 2
#     Edge 30, Type (0, 1), BuildingBlock: CIFDUS_clean_linker_0, # of connection points: 2
#     Edge 31, Type (0, 1), BuildingBlock: CIFDUS_clean_linker_0, # of connection points: 2
#     Edge 32, Type (0, 1), BuildingBlock: CIFDUS_clean_linker_0, # of connection points: 2
#     Edge 33, Type (0, 1), BuildingBlock: CIFDUS_clean_linker_0, # of connection points: 2
#     Edge 34, Type (0, 1), BuildingBlock: CIFDUS_clean_linker_0, # of connection points: 2
#     Edge 35, Type (0, 1), BuildingBlock: CIFDUS_clean_linker_0, # of connection points: 2
#     Edge 36, Type (0, 1), BuildingBlock: CIFDUS_clean_linker_0, # of connection points: 2
#     Edge 37, Type (0, 1), BuildingBlock: CIFDUS_clean_linker_0, # of connection points: 2
# Relax obj value: 0.000
# Max RMSD: 0.025
# Mean RMSD: 0.010
data_MOF--net-pto--node1-KOZSID_clean_sbu_0--node2-MIDCAF_clean_linker_0--edge1-CIFDUS_clean_linker_0
_symmetry_space_group_name_H-M    P1
_symmetry_Int_Tables_number       1
_symmetry_cell_setting            triclinic
loop_
_symmetry_equiv_pos_as_xyz
'x, y, z'
_cell_length_a     42.164925
_cell_length_b     56.835467
_cell_length_c     49.619754
_cell_angle_alpha  87.323383
_cell_angle_beta   87.184514
_cell_angle_gamma 93.063001
loop_
_atom_site_label
_atom_site_type_symbol
_atom_site_fract_x
_atom_site_fract_y
_atom_site_fract_z
_atom_type_partial_charge
C0 C 0.34247 0.24019 0.23012 0.0
C1 C 0.34226 0.25823 0.20975 0.0
C2 C 0.32452 0.27798 0.21459 0.0
C3 C 0.30731 0.27965 0.23914 0.0
H4 H 0.24459 0.32019 0.2763 0.0
H5 H 0.21444 0.35483 0.2826 0.0
H6 H 0.19348 0.33256 0.36632 0.0
H7 H 0.22303 0.29732 0.35985 0.0
H8 H 0.23631 0.24333 0.3773 0.0
H9 H 0.23303 0.21025 0.41057 0.0
H10 H 0.30016 0.17405 0.36121 0.0
H11 H 0.30303 0.20676 0.3277 0.0
H12 H 0.32579 0.22756 0.26988 0.0
H13 H 0.35567 0.22464 0.22692 0.0
H14 H 0.32425 0.29236 0.19951 0.0
H15 H 0.29399 0.29519 0.24206 0.0
N16 N 0.27199 0.28271 0.28987 0.0
N17 N 0.25425 0.26689 0.33278 0.0
N18 N 0.2881 0.24582 0.30503 0.0
C19 C 0.2547 0.28465 0.31341 0.0
C20 C 0.2709 0.24738 0.32874 0.0
C21 C 0.2888 0.26342 0.28549 0.0
C22 C 0.23635 0.30589 0.31758 0.0
C23 C 0.23364 0.3226 0.29612 0.0
C24 C 0.21647 0.34262 0.29976 0.0
C25 C 0.20167 0.34662 0.32501 0.0
C26 C 0.20429 0.32992 0.34652 0.0
C27 C 0.22138 0.30975 0.34283 0.0
C28 C 0.2698 0.22773 0.34965 0.0
C29 C 0.25047 0.22836 0.37352 0.0
C30 C 0.24869 0.20943 0.39272 0.0
C31 C 0.2662 0.18944 0.3885 0.0
C32 C 0.28593 0.189 0.36488 0.0
C33 C 0.28769 0.20787 0.3457 0.0
C34 C 0.30736 0.26159 0.25952 0.0
C35 C 0.32519 0.24183 0.2547 0.0
C36 C 0.19298 0.69584 0.73909 0.0
C37 C 0.17045 0.69593 0.71913 0.0
C38 C 0.1668 0.71705 0.70393 0.0
C39 C 0.18511 0.7376 0.7087 0.0
H40 H 0.20091 0.80938 0.68407 0.0
H41 H 0.19671 0.84685 0.6586 0.0
H42 H 0.27014 0.87885 0.7049 0.0
H43 H 0.27392 0.84192 0.73058 0.0
H44 H 0.30208 0.81582 0.77654 0.0
H45 H 0.33906 0.81584 0.81245 0.0
H46 H 0.31718 0.74134 0.82929 0.0
H47 H 0.27944 0.7413 0.79353 0.0
H48 H 0.22813 0.71551 0.7596 0.0
H49 H 0.19611 0.68001 0.75147 0.0
H50 H 0.1499 0.71768 0.68821 0.0
H51 H 0.18158 0.75352 0.69664 0.0
N52 N 0.22334 0.77995 0.71984 0.0
N53 N 0.26139 0.79905 0.7453 0.0
N54 N 0.24746 0.759 0.75454 0.0
C55 C 0.24076 0.7999 0.72518 0.0
C56 C 0.26495 0.77879 0.76009 0.0
C57 C 0.22659 0.75938 0.73446 0.0
C58 C 0.23772 0.82251 0.70946 0.0
C59 C 0.21608 0.82442 0.68888 0.0
C60 C 0.21376 0.84589 0.67419 0.0
C61 C 0.233 0.86591 0.67978 0.0
C62 C 0.25453 0.86395 0.70037 0.0
C63 C 0.25684 0.8426 0.715 0.0
C64 C 0.28768 0.77853 0.78202 0.0
C65 C 0.30504 0.79937 0.78781 0.0
C66 C 0.32647 0.79939 0.80835 0.0
C67 C 0.33122 0.77858 0.82368 0.0
C68 C 0.31384 0.75772 0.81802 0.0
C69 C 0.29232 0.75769 0.79741 0.0
C70 C 0.20747 0.73754 0.72885 0.0
C71 C 0.21123 0.71634 0.74388 0.0
C72 C 0.71927 0.76349 0.21922 0.0
C73 C 0.70639 0.78502 0.21193 0.0
C74 C 0.71314 0.80472 0.2272 0.0
C75 C 0.73199 0.80281 0.24956 0.0
H76 H 0.78019 0.84136 0.30606 0.0
H77 H 0.78627 0.87487 0.33462 0.0
H78 H 0.80584 0.82791 0.40189 0.0
H79 H 0.80014 0.79413 0.37317 0.0
H80 H 0.82567 0.74112 0.35441 0.0
H81 H 0.8501 0.70359 0.36273 0.0
H82 H 0.82418 0.68189 0.28407 0.0
H83 H 0.79915 0.71872 0.27611 0.0
H84 H 0.74755 0.74464 0.24647 0.0
H85 H 0.71487 0.74807 0.20762 0.0
H86 H 0.70335 0.82151 0.22218 0.0
H87 H 0.73646 0.81828 0.26103 0.0
N88 N 0.76822 0.79706 0.29749 0.0
N89 N 0.79878 0.77396 0.32567 0.0
N90 N 0.77769 0.75828 0.28703 0.0
C91 C 0.78544 0.79479 0.31983 0.0
C92 C 0.79512 0.75563 0.30917 0.0
C93 C 0.76408 0.77884 0.28105 0.0
C94 C 0.78968 0.81504 0.33734 0.0
C95 C 0.78582 0.8381 0.32692 0.0
C96 C 0.78946 0.85733 0.34321 0.0
C97 C 0.79655 0.85396 0.37041 0.0
C98 C 0.80023 0.83095 0.38098 0.0
C99 C 0.79715 0.81167 0.36452 0.0
C100 C 0.81026 0.73299 0.31464 0.0
C101 C 0.82512 0.7283 0.33894 0.0
C102 C 0.83927 0.70681 0.34366 0.0
C103 C 0.83897 0.6896 0.32414 0.0
C104 C 0.82429 0.69445 0.29983 0.0
C105 C 0.81005 0.71575 0.2952 0.0
C106 C 0.74464 0.78117 0.25702 0.0
C107 C 0.73819 0.76158 0.24145 0.0
C108 C 0.816 0.20904 0.68609 0.0
C109 C 0.78908 0.19349 0.68528 0.0
C110 C 0.76233 0.19668 0.7024 0.0
C111 C 0.7625 0.21505 0.72014 0.0
H112 H 0.74815 0.22652 0.80745 0.0
H113 H 0.71517 0.22249 0.8495 0.0
H114 H 0.70907 0.29803 0.84891 0.0
H115 H 0.74273 0.30226 0.80707 0.0
H116 H 0.80911 0.32972 0.77764 0.0
H117 H 0.84358 0.36509 0.76779 0.0
H118 H 0.88412 0.33398 0.69714 0.0
H119 H 0.85009 0.29836 0.70717 0.0
H120 H 0.8369 0.23964 0.7035 0.0
H121 H 0.83685 0.20694 0.67296 0.0
H122 H 0.74136 0.18483 0.70217 0.0
H123 H 0.74148 0.21706 0.73309 0.0
N124 N 0.76961 0.24896 0.76196 0.0
N125 N 0.78687 0.28719 0.77249 0.0
N126 N 0.80738 0.27074 0.73322 0.0
C127 C 0.76854 0.2671 0.77877 0.0
C128 C 0.80644 0.28915 0.74977 0.0
C129 C 0.78886 0.25067 0.73911 0.0
C130 C 0.74806 0.26473 0.80396 0.0
C131 C 0.73976 0.24229 0.81623 0.0
C132 C 0.72104 0.23996 0.84034 0.0
C133 C 0.70969 0.25995 0.85234 0.0
C134 C 0.71751 0.28236 0.83993 0.0
C135 C 0.73684 0.28476 0.81611 0.0
C136 C 0.82682 0.31104 0.74329 0.0
C137 C 0.8253 0.33036 0.75996 0.0
C138 C 0.84493 0.35076 0.75421 0.0
C139 C 0.86663 0.35239 0.73167 0.0
C140 C 0.86795 0.3332 0.71484 0.0
C141 C 0.84827 0.31279 0.72055 0.0
C142 C 0.78919 0.23092 0.7207 0.0
C143 C 0.81593 0.22777 0.70344 0.0
C144 C 0.69696 0.79137 0.82796 0.0
C145 C 0.69727 0.77189 0.84646 0.0
C146 C 0.71745 0.7537 0.84066 0.0
C147 C 0.73698 0.75498 0.81701 0.0
H148 H 0.81017 0.72275 0.78004 0.0
H149 H 0.84408 0.6905 0.77143 0.0
H150 H 0.86203 0.71734 0.68883 0.0
H151 H 0.82892 0.75027 0.69779 0.0
H152 H 0.81589 0.80616 0.68684 0.0
H153 H 0.82065 0.84257 0.65855 0.0
H154 H 0.75081 0.87296 0.71105 0.0
H155 H 0.74632 0.83687 0.73955 0.0
H156 H 0.71584 0.80805 0.79061 0.0
H157 H 0.68192 0.8058 0.83197 0.0
H158 H 0.71795 0.7383 0.85432 0.0
H159 H 0.7522 0.74059 0.8133 0.0
N160 N 0.77669 0.75792 0.76785 0.0
N161 N 0.7973 0.77851 0.72823 0.0
N162 N 0.75935 0.79538 0.75645 0.0
C163 C 0.79631 0.75899 0.74524 0.0
C164 C 0.77892 0.79684 0.73373 0.0
C165 C 0.75804 0.77596 0.7736 0.0
C166 C 0.81675 0.73915 0.73961 0.0
C167 C 0.82126 0.72181 0.75999 0.0
C168 C 0.84061 0.70316 0.75499 0.0
C169 C 0.85572 0.70114 0.72936 0.0
C170 C 0.85114 0.71846 0.70891 0.0
C171 C 0.832 0.7373 0.71401 0.0
C172 C 0.78085 0.81853 0.71565 0.0
C173 C 0.80145 0.82056 0.69235 0.0
C174 C 0.80409 0.8414 0.67602 0.0
C175 C 0.78627 0.86073 0.68264 0.0
C176 C 0.76528 0.85855 0.70563 0.0
C177 C 0.76259 0.83774 0.72191 0.0
C178 C 0.7369 0.77454 0.79854 0.0
C179 C 0.71658 0.79271 0.8043 0.0
C180 C 0.79956 0.20078 0.39566 0.0
C181 C 0.80057 0.17828 0.38496 0.0
C182 C 0.79739 0.17646 0.35697 0.0
C183 C 0.79331 0.19655 0.34028 0.0
H184 H 0.74098 0.22015 0.27258 0.0
H185 H 0.71136 0.21927 0.23149 0.0
H186 H 0.71985 0.29538 0.22368 0.0
H187 H 0.74976 0.29635 0.26411 0.0
H188 H 0.76896 0.32312 0.328 0.0
H189 H 0.7935 0.36164 0.33625 0.0
H190 H 0.88421 0.33015 0.34369 0.0
H191 H 0.85851 0.29146 0.33796 0.0
H192 H 0.79564 0.23781 0.38792 0.0
H193 H 0.80089 0.20302 0.41712 0.0
H194 H 0.7985 0.15961 0.34778 0.0
H195 H 0.79097 0.1946 0.31884 0.0
N196 N 0.7717 0.23925 0.31136 0.0
N197 N 0.7795 0.28023 0.30362 0.0
N198 N 0.80207 0.26157 0.34058 0.0
C199 C 0.76676 0.25919 0.29621 0.0
C200 C 0.7973 0.28152 0.32557 0.0
C201 C 0.78909 0.24038 0.33372 0.0
C202 C 0.74796 0.2583 0.27169 0.0
C203 C 0.73651 0.2367 0.26211 0.0
C204 C 0.71941 0.23619 0.23861 0.0
C205 C 0.71342 0.25725 0.22418 0.0
C206 C 0.72456 0.2788 0.23397 0.0
C207 C 0.7416 0.27933 0.25734 0.0
C208 C 0.8119 0.30445 0.33239 0.0
C209 C 0.79404 0.32455 0.33185 0.0
C210 C 0.80834 0.34668 0.33627 0.0
C211 C 0.84119 0.34942 0.34028 0.0
C212 C 0.85883 0.32901 0.34122 0.0
C213 C 0.84421 0.30674 0.33774 0.0
C214 C 0.79305 0.21895 0.35108 0.0
C215 C 0.79629 0.22083 0.37891 0.0
C216 C 0.2454 0.17781 0.70862 0.0
C217 C 0.23855 0.18126 0.68137 0.0
C218 C 0.23565 0.20435 0.67072 0.0
C219 C 0.23936 0.22363 0.6871 0.0
H220 H 0.21244 0.29477 0.69683 0.0
H221 H 0.18866 0.33262 0.68867 0.0
H222 H 0.21545 0.35387 0.76727 0.0
H223 H 0.23981 0.31679 0.77505 0.0
H224 H 0.29294 0.29135 0.80301 0.0
H225 H 0.32533 0.28801 0.84205 0.0
H226 H 0.33308 0.21373 0.83011 0.0
H227 H 0.30027 0.21689 0.79104 0.0
H228 H 0.25523 0.19377 0.74573 0.0
H229 H 0.24799 0.16021 0.71728 0.0
H230 H 0.23026 0.20746 0.64977 0.0
H231 H 0.23701 0.24123 0.67834 0.0
N232 N 0.23871 0.26147 0.72573 0.0
N233 N 0.26089 0.27727 0.76384 0.0
N234 N 0.26931 0.23822 0.75377 0.0
C235 C 0.24307 0.27992 0.74195 0.0
C236 C 0.27419 0.2566 0.76989 0.0
C237 C 0.25171 0.24051 0.73162 0.0
C238 C 0.22826 0.3027 0.73652 0.0
C239 C 0.21332 0.30758 0.7123 0.0
C240 C 0.19956 0.32925 0.70767 0.0
C241 C 0.20034 0.34644 0.72721 0.0
C242 C 0.21502 0.34137 0.75146 0.0
C243 C 0.22888 0.31991 0.756 0.0
C244 C 0.29391 0.25438 0.79377 0.0
C245 C 0.30144 0.27425 0.80863 0.0
C246 C 0.32022 0.2724 0.83096 0.0
C247 C 0.33186 0.25064 0.83912 0.0
C248 C 0.32423 0.23071 0.82444 0.0
C249 C 0.30555 0.23257 0.80196 0.0
C250 C 0.24672 0.2202 0.7143 0.0
C251 C 0.24972 0.19706 0.72484 0.0
C252 C 0.19546 0.67944 0.30831 0.0
C253 C 0.17556 0.67819 0.33196 0.0
C254 C 0.17577 0.6976 0.34852 0.0
C255 C 0.19503 0.71793 0.34135 0.0
H256 H 0.23107 0.78104 0.37004 0.0
H257 H 0.22614 0.81475 0.39788 0.0
H258 H 0.25833 0.86147 0.32961 0.0
H259 H 0.26455 0.82747 0.30195 0.0
H260 H 0.31079 0.79895 0.25664 0.0
H261 H 0.34284 0.80032 0.21418 0.0
H262 H 0.30354 0.73115 0.19734 0.0
H263 H 0.27133 0.72977 0.23939 0.0
H264 H 0.22934 0.70017 0.28253 0.0
H265 H 0.19557 0.66492 0.29493 0.0
H266 H 0.161 0.69708 0.36705 0.0
H267 H 0.19433 0.7326 0.35449 0.0
N268 N 0.23307 0.76041 0.32455 0.0
N269 N 0.26774 0.78212 0.29301 0.0
N270 N 0.25178 0.74287 0.28555 0.0
C271 C 0.2499 0.78084 0.3167 0.0
C272 C 0.26889 0.76311 0.27736 0.0
C273 C 0.23382 0.74135 0.30909 0.0
C274 C 0.24807 0.80154 0.3337 0.0
C275 C 0.23719 0.79849 0.36093 0.0
C276 C 0.23414 0.8179 0.37689 0.0
C277 C 0.24144 0.84095 0.36599 0.0
C278 C 0.25278 0.844 0.33881 0.0
C279 C 0.25624 0.82449 0.32289 0.0
C280 C 0.28839 0.76426 0.25152 0.0
C281 C 0.30889 0.78405 0.24387 0.0
C282 C 0.32741 0.7848 0.21961 0.0
C283 C 0.32567 0.76586 0.20238 0.0
C284 C 0.30513 0.74615 0.20999 0.0
C285 C 0.28678 0.74533 0.23425 0.0
C286 C 0.2145 0.71937 0.3174 0.0
C287 C 0.21469 0.69976 0.30111 0.0
C288 C 0.06361 0.54415 0.37361 0.0
C289 C 0.07582 0.55015 0.39799 0.0
C290 C 0.05742 0.53784 0.41784 0.0
C291 C 0.03527 0.52498 0.40448 0.0
N292 N 0.03843 0.52829 0.37729 0.0
Co293 Co 0.01174 0.51258 0.35017 0.0
N294 N 0.98374 0.49553 0.37936 0.0
C295 C 0.98429 0.49856 0.4062 0.0
C296 C 0.96176 0.48466 0.42125 0.0
C297 C 0.9462 0.47174 0.40295 0.0
C298 C 0.96046 0.47835 0.37773 0.0
N299 N 0.98616 0.49576 0.32309 0.0
C300 C 0.96438 0.47727 0.32681 0.0
C301 C 0.95556 0.46875 0.30228 0.0
C302 C 0.97209 0.48238 0.28247 0.0
C303 C 0.99039 0.49813 0.29587 0.0
N304 N 0.03882 0.53049 0.3209 0.0
C305 C 0.035 0.53025 0.29401 0.0
C306 C 0.05592 0.54539 0.27889 0.0
C307 C 0.074 0.55622 0.29722 0.0
C308 C 0.06309 0.54689 0.32258 0.0
N309 N 0.0408 0.48629 0.35015 0.0
C310 C 0.08007 0.44775 0.3497 0.0
C311 C 0.07504 0.46083 0.32591 0.0
C312 C 0.05538 0.47981 0.32655 0.0
C313 C 0.06544 0.45447 0.37379 0.0
C314 C 0.04624 0.47377 0.3736 0.0
N315 N 0.98266 0.5391 0.35019 0.0
C316 C 0.9502 0.56616 0.3262 0.0
C317 C 0.9466 0.57953 0.34893 0.0
C318 C 0.96027 0.57185 0.37257 0.0
C319 C 0.97772 0.55164 0.37285 0.0
C320 C 0.96822 0.54621 0.32723 0.0
H321 H 0.98728 0.54679 0.39161 0.0
H322 H 0.97053 0.53715 0.30902 0.0
H323 H 0.05203 0.48883 0.30767 0.0
H324 H 0.03587 0.47815 0.39264 0.0
C325 C 0.00922 0.51172 0.41684 0.0
C326 C 0.07597 0.55469 0.34761 0.0
C327 C 0.95255 0.46672 0.35312 0.0
C328 C 0.01269 0.5147 0.28351 0.0
H329 H 0.09555 0.56253 0.4011 0.0
H330 H 0.05934 0.53874 0.43944 0.0
H331 H 0.95815 0.48321 0.44302 0.0
H332 H 0.92732 0.45832 0.40772 0.0
H333 H 0.93956 0.45385 0.29877 0.0
H334 H 0.97165 0.48049 0.26088 0.0
H335 H 0.05786 0.54818 0.25713 0.0
H336 H 0.09291 0.56961 0.29244 0.0
H337 H 0.08566 0.45612 0.30672 0.0
H338 H 0.06898 0.445 0.39277 0.0
H339 H 0.93998 0.57145 0.3074 0.0
H340 H 0.95754 0.58142 0.39086 0.0
C341 C 0.07365 0.55639 0.73768 0.0
C342 C 0.08512 0.56345 0.76196 0.0
C343 C 0.06958 0.54931 0.78188 0.0
C344 C 0.04949 0.53457 0.76871 0.0
N345 N 0.0516 0.53812 0.74151 0.0
Co346 Co 0.0247 0.52196 0.71483 0.0
N347 N 0.00056 0.5021 0.74433 0.0
C348 C 0.00584 0.50167 0.77102 0.0
C349 C 0.98663 0.4854 0.78624 0.0
C350 C 0.9682 0.47452 0.76818 0.0
C351 C 0.97722 0.48491 0.74289 0.0
N352 N 0.99684 0.50659 0.68826 0.0
C353 C 0.97314 0.48951 0.69223 0.0
C354 C 0.95963 0.48401 0.66821 0.0
C355 C 0.9756 0.49793 0.64828 0.0
C356 C 0.99775 0.51116 0.66122 0.0
N357 N 0.04971 0.54114 0.68528 0.0
C358 C 0.04668 0.5398 0.65838 0.0
C359 C 0.06699 0.55531 0.64307 0.0
C360 C 0.08383 0.56743 0.66128 0.0
C361 C 0.07265 0.55864 0.68673 0.0
N362 N 0.05515 0.49654 0.71144 0.0
C363 C 0.09259 0.45701 0.70818 0.0
C364 C 0.078 0.46595 0.68555 0.0
C365 C 0.0599 0.48576 0.68751 0.0
C366 C 0.08928 0.46875 0.73216 0.0
C367 C 0.07056 0.48826 0.73336 0.0
N368 N 0.99414 0.54718 0.71821 0.0
C369 C 0.96505 0.57843 0.69798 0.0
C370 C 0.95184 0.58365 0.7232 0.0
C371 C 0.96 0.57024 0.74586 0.0
C372 C 0.98115 0.55233 0.74296 0.0
C373 C 0.98579 0.56016 0.69593 0.0
H374 H 0.98678 0.543 0.76107 0.0
H375 H 0.9948 0.55689 0.67609 0.0
H376 H 0.04959 0.49174 0.66946 0.0
H377 H 0.06841 0.49599 0.75243 0.0
C378 C 0.02837 0.51725 0.78128 0.0
C379 C 0.08364 0.56811 0.71164 0.0
C380 C 0.96345 0.47741 0.7181 0.0
C381 C 0.02178 0.52614 0.64837 0.0
H382 H 0.10257 0.57761 0.76501 0.0
H383 H 0.07226 0.54994 0.80342 0.0
H384 H 0.98615 0.48183 0.80788 0.0
H385 H 0.95031 0.46039 0.77305 0.0
H386 H 0.94065 0.47091 0.66536 0.0
H387 H 0.97214 0.49788 0.6268 0.0
H388 H 0.06842 0.55817 0.62131 0.0
H389 H 0.10169 0.58158 0.65643 0.0
H390 H 0.08046 0.45766 0.66639 0.0
H391 H 0.10019 0.46243 0.75024 0.0
H392 H 0.95911 0.58822 0.67983 0.0
H393 H 0.95056 0.57382 0.76587 0.0
C394 C 0.26756 0.98342 0.56083 0.0
C395 C 0.29533 0.97354 0.56863 0.0
C396 C 0.31886 0.98141 0.5499 0.0
C397 C 0.30428 0.99566 0.5318 0.0
N398 N 0.27312 0.99764 0.53818 0.0
Co399 Co 0.2433 0.01588 0.51668 0.0
N400 N 0.27898 0.03336 0.49538 0.0
C401 C 0.3093 0.02711 0.4932 0.0
C402 C 0.32863 0.0427 0.47706 0.0
C403 C 0.30921 0.0598 0.46844 0.0
C404 C 0.27903 0.0536 0.47987 0.0
N405 N 0.21366 0.03406 0.49506 0.0
C406 C 0.2193 0.05422 0.47956 0.0
C407 C 0.19176 0.06113 0.46794 0.0
C408 C 0.16814 0.04458 0.47643 0.0
C409 C 0.1825 0.02858 0.4927 0.0
N410 N 0.20745 0.99834 0.53784 0.0
C411 C 0.1768 0.99711 0.53123 0.0
C412 C 0.15731 0.98335 0.54926 0.0
C413 C 0.17696 0.97501 0.5682 0.0
C414 C 0.20747 0.98412 0.56055 0.0
N415 N 0.24391 0.0404 0.54307 0.0
C416 C 0.24563 0.07869 0.5766 0.0
C417 C 0.21656 0.0685 0.56919 0.0
C418 C 0.21623 0.04948 0.55228 0.0
C419 C 0.27371 0.06878 0.56768 0.0
C420 C 0.27232 0.04955 0.55121 0.0
N421 N 0.2429 0.99148 0.49004 0.0
C422 C 0.24089 0.95047 0.47986 0.0
C423 C 0.24523 0.95647 0.45222 0.0
C424 C 0.24795 0.98039 0.44381 0.0
C425 C 0.24643 0.9976 0.46301 0.0
C426 C 0.23996 0.96816 0.49836 0.0
H427 H 0.24845 0.01586 0.45593 0.0
H428 H 0.23726 0.96287 0.51943 0.0
H429 H 0.19359 0.04251 0.54613 0.0
H430 H 0.29437 0.04245 0.54454 0.0
C431 C 0.31961 0.00911 0.51019 0.0
C432 C 0.236 0.97602 0.57309 0.0
C433 C 0.25066 0.06633 0.47406 0.0
C434 C 0.16673 0.01091 0.50957 0.0
H435 H 0.29806 0.96125 0.58558 0.0
H436 H 0.34365 0.97732 0.54961 0.0
H437 H 0.35403 0.04226 0.47293 0.0
H438 H 0.31641 0.07503 0.45522 0.0
H439 H 0.18904 0.0765 0.45472 0.0
H440 H 0.14322 0.04475 0.47214 0.0
H441 H 0.13185 0.97993 0.54882 0.0
H442 H 0.16984 0.96293 0.5852 0.0
H443 H 0.1943 0.07569 0.57564 0.0
H444 H 0.29666 0.07593 0.5733 0.0
H445 H 0.239 0.93218 0.48724 0.0
H446 H 0.25103 0.98576 0.42257 0.0
C447 C 0.4644 0.79468 0.06328 0.0
C448 C 0.4535 0.81632 0.07025 0.0
C449 C 0.47003 0.83306 0.05378 0.0
C450 C 0.48981 0.82074 0.03763 0.0
N451 N 0.48677 0.7971 0.04263 0.0
Co452 Co 0.51048 0.7726 0.02344 0.0
N453 N 0.53695 0.79738 0.00109 0.0
C454 C 0.53656 0.82103 0.00307 0.0
C455 C 0.5578 0.83358 0.98538 0.0
C456 C 0.57252 0.81698 0.97109 0.0
C457 C 0.55914 0.79519 0.9808 0.0
N458 N 0.53334 0.74808 0.00342 0.0
C459 C 0.55495 0.75057 0.98216 0.0
C460 C 0.56322 0.72887 0.97309 0.0
C461 C 0.54619 0.71206 0.98912 0.0
C462 C 0.52841 0.72439 0.00686 0.0
N463 N 0.48486 0.74783 0.04661 0.0
C464 C 0.48712 0.72419 0.04619 0.0
C465 C 0.46802 0.7117 0.06556 0.0
C466 C 0.45293 0.72834 0.0795 0.0
C467 C 0.46361 0.75012 0.06762 0.0
N468 N 0.47792 0.77201 0.99581 0.0
C469 C 0.43356 0.77069 0.95513 0.0
C470 C 0.44014 0.75022 0.96997 0.0
C471 C 0.46225 0.75126 0.98997 0.0
C472 C 0.44922 0.79191 0.96124 0.0
C473 C 0.47098 0.7922 0.9816 0.0
N474 N 0.54294 0.77309 0.05113 0.0
C475 C 0.57651 0.75212 0.08101 0.0
C476 C 0.58453 0.77275 0.09397 0.0
C477 C 0.57238 0.79377 0.08433 0.0
C478 C 0.55192 0.79356 0.06298 0.0
C479 C 0.55591 0.75268 0.05988 0.0
H480 H 0.54321 0.81011 0.05677 0.0
H481 H 0.5505 0.73627 0.05124 0.0
H482 H 0.46646 0.73495 1.0002 0.0
H483 H 0.482 0.80895 0.98536 0.0
C484 C 0.51375 0.83093 0.01971 0.0
C485 C 0.45372 0.77248 0.07761 0.0
C486 C 0.56743 0.77303 0.96935 0.0
C487 C 0.50721 0.71425 0.02717 0.0
H488 H 0.43594 0.81968 0.08606 0.0
H489 H 0.46857 0.852 0.05415 0.0
H490 H 0.56142 0.85255 0.98261 0.0
H491 H 0.59055 0.82054 0.95491 0.0
H492 H 0.57956 0.72549 0.95639 0.0
H493 H 0.54649 0.69312 0.98781 0.0
H494 H 0.46562 0.69275 0.06931 0.0
H495 H 0.43628 0.72482 0.09669 0.0
H496 H 0.42879 0.73332 0.96579 0.0
H497 H 0.44454 0.80829 0.9505 0.0
H498 H 0.58595 0.73548 0.08721 0.0
H499 H 0.57784 0.81024 0.09368 0.0
C500 C 0.82963 0.98331 0.56773 0.0
C501 C 0.85871 0.97707 0.57694 0.0
C502 C 0.88091 0.99403 0.56644 0.0
C503 C 0.86415 0.0096 0.55151 0.0
N504 N 0.83288 0.00347 0.552 0.0
Co505 Co 0.80002 0.02058 0.53307 0.0
N506 N 0.8325 0.03776 0.50812 0.0
C507 C 0.86402 0.0397 0.51166 0.0
C508 C 0.88083 0.05211 0.49077 0.0
C509 C 0.85849 0.05874 0.47323 0.0
C510 C 0.82906 0.05027 0.48462 0.0
N511 N 0.76689 0.0376 0.51426 0.0
C512 C 0.76886 0.05068 0.49061 0.0
C513 C 0.74003 0.06059 0.48595 0.0
C514 C 0.71963 0.05366 0.5075 0.0
C515 C 0.73694 0.04001 0.52415 0.0
N516 N 0.76776 0.00352 0.55827 0.0
C517 C 0.73792 0.0098 0.56376 0.0
C518 C 0.7211 0.99429 0.5819 0.0
C519 C 0.74174 0.97725 0.58822 0.0
C520 C 0.77007 0.98341 0.57353 0.0
N521 N 0.80381 0.04598 0.55825 0.0
C522 C 0.80746 0.08232 0.59431 0.0
C523 C 0.80819 0.05873 0.6036 0.0
C524 C 0.80607 0.04082 0.58528 0.0
C525 C 0.80531 0.08738 0.56664 0.0
C526 C 0.80383 0.06903 0.54896 0.0
N527 N 0.79627 0.99514 0.50807 0.0
C528 C 0.76405 0.96584 0.48685 0.0
C529 C 0.79132 0.9564 0.47541 0.0
C530 C 0.82106 0.96709 0.4802 0.0
C531 C 0.82302 0.98633 0.49663 0.0
C532 C 0.76702 0.98531 0.50292 0.0
H533 H 0.84628 0.99377 0.50051 0.0
H534 H 0.74567 0.99217 0.51155 0.0
H535 H 0.806 0.02278 0.59305 0.0
H536 H 0.80252 0.07358 0.52777 0.0
C537 C 0.87732 0.02697 0.53274 0.0
C538 C 0.79916 0.97059 0.57537 0.0
C539 C 0.79846 0.05689 0.47422 0.0
C540 C 0.72502 0.02734 0.54768 0.0
H541 H 0.86338 0.96185 0.58977 0.0
H542 H 0.90638 0.99428 0.56836 0.0
H543 H 0.90634 0.05543 0.48822 0.0
H544 H 0.8633 0.06911 0.45449 0.0
H545 H 0.73448 0.07231 0.46926 0.0
H546 H 0.69505 0.05796 0.51055 0.0
H547 H 0.69635 0.99465 0.58869 0.0
H548 H 0.73648 0.96202 0.60193 0.0
H549 H 0.80967 0.05413 0.62492 0.0
H550 H 0.80503 0.10544 0.55866 0.0
H551 H 0.74057 0.95828 0.48336 0.0
H552 H 0.84276 0.96025 0.4719 0.0
C553 C 0.47798 0.27341 0.0721 0.0
C554 C 0.46916 0.29459 0.08232 0.0
C555 C 0.48722 0.31207 0.06824 0.0
C556 C 0.50604 0.30066 0.05039 0.0
N557 N 0.50084 0.27691 0.0519 0.0
Co558 Co 0.52429 0.25343 0.0307 0.0
N559 N 0.55232 0.27913 0.01131 0.0
C560 C 0.55188 0.30258 0.01482 0.0
C561 C 0.5738 0.3159 0.99853 0.0
C562 C 0.58883 0.30008 0.98332 0.0
C563 C 0.57494 0.27794 0.99113 0.0
N564 N 0.54798 0.22996 0.00964 0.0
C565 C 0.57071 0.23346 0.98929 0.0
C566 C 0.57954 0.21225 0.97919 0.0
C567 C 0.56183 0.19477 0.99361 0.0
C568 C 0.5431 0.20619 0.01152 0.0
N569 N 0.49605 0.22776 0.04994 0.0
C570 C 0.49622 0.20434 0.04621 0.0
C571 C 0.47449 0.19104 0.06275 0.0
C572 C 0.4598 0.20686 0.07823 0.0
C573 C 0.47359 0.22897 0.07026 0.0
N574 N 0.49366 0.25593 0.00161 0.0
C575 C 0.45285 0.25956 0.9583 0.0
C576 C 0.46218 0.23764 0.96799 0.0
C577 C 0.48223 0.23624 0.98952 0.0
C578 C 0.46389 0.2796 0.97108 0.0
C579 C 0.48411 0.27741 0.99245 0.0
N580 N 0.55488 0.25088 0.05981 0.0
C581 C 0.5819 0.22702 0.0922 0.0
C582 C 0.5948 0.24713 0.10364 0.0
C583 C 0.58802 0.26915 0.09234 0.0
C584 C 0.56816 0.27061 0.07066 0.0
C585 C 0.56235 0.22928 0.07041 0.0
H586 H 0.56354 0.2879 0.06332 0.0
H587 H 0.5533 0.21327 0.06269 0.0
H588 H 0.48847 0.21902 0.99572 0.0
H589 H 0.49192 0.29337 0.00107 0.0
C590 C 0.52994 0.31164 0.033 0.0
C591 C 0.46529 0.25043 0.08325 0.0
C592 C 0.58321 0.2565 0.97796 0.0
C593 C 0.51868 0.19525 0.02848 0.0
H594 H 0.45205 0.29716 0.09874 0.0
H595 H 0.48727 0.33082 0.0712 0.0
H596 H 0.57797 0.33489 0.9975 0.0
H597 H 0.60752 0.3044 0.96787 0.0
H598 H 0.59631 0.20958 0.96257 0.0
H599 H 0.56171 0.17602 0.99065 0.0
H600 H 0.47047 0.17204 0.06394 0.0
H601 H 0.44147 0.2026 0.09401 0.0
H602 H 0.45469 0.22156 0.95866 0.0
H603 H 0.45694 0.29699 0.96472 0.0
H604 H 0.58691 0.20956 0.09998 0.0
H605 H 0.59729 0.28527 0.10062 0.0
H606 H 0.14542 0.35027 0.35391 0.0
H607 H 0.21707 0.39144 0.30427 0.0
H608 H 0.18596 0.4262 0.30765 0.0
H609 H 0.13792 0.44485 0.3239 0.0
H610 H 0.06686 0.40418 0.37447 0.0
H611 H 0.0986 0.36948 0.3721 0.0
C612 C 0.15449 0.36691 0.34416 0.0
C613 C 0.18345 0.36809 0.32863 0.0
C614 C 0.1366 0.38697 0.34639 0.0
C615 C 0.19457 0.38982 0.31589 0.0
C616 C 0.17689 0.40979 0.31794 0.0
C617 C 0.12938 0.42836 0.33434 0.0
C618 C 0.10004 0.42704 0.34922 0.0
C619 C 0.14773 0.40852 0.33289 0.0
C620 C 0.08949 0.40568 0.36303 0.0
C621 C 0.10754 0.38581 0.36157 0.0
H622 H 0.18869 0.65061 0.71832 0.0
H623 H 0.10683 0.69236 0.7103 0.0
H624 H 0.07316 0.65663 0.70558 0.0
H625 H 0.06634 0.61314 0.7062 0.0
H626 H 0.14771 0.57144 0.7155 0.0
H627 H 0.18225 0.60741 0.71749 0.0
C628 C 0.16346 0.6519 0.71564 0.0
C629 C 0.15035 0.67419 0.71479 0.0
C630 C 0.14415 0.63124 0.71326 0.0
C631 C 0.11768 0.67551 0.71077 0.0
C632 C 0.09833 0.65505 0.70825 0.0
C633 C 0.09171 0.6121 0.70839 0.0
C634 C 0.10472 0.58993 0.71071 0.0
C635 C 0.11122 0.63282 0.70975 0.0
C636 C 0.13746 0.58849 0.71365 0.0
C637 C 0.15708 0.60899 0.71485 0.0
H638 H 0.89468 0.6818 0.34824 0.0
H639 H 0.81726 0.64578 0.3103 0.0
H640 H 0.84364 0.60876 0.31449 0.0
H641 H 0.88927 0.58662 0.328 0.0
H642 H 0.96579 0.62217 0.36732 0.0
H643 H 0.93889 0.65919 0.36405 0.0
C644 C 0.8833 0.66581 0.34126 0.0
C645 C 0.85414 0.66674 0.32869 0.0
C646 C 0.89845 0.64443 0.34399 0.0
C647 C 0.84 0.64578 0.31953 0.0
C648 C 0.85498 0.62452 0.32205 0.0
C649 C 0.90002 0.6025 0.33581 0.0
C650 C 0.92949 0.60169 0.34779 0.0
C651 C 0.88437 0.62368 0.33397 0.0
C652 C 0.94299 0.62231 0.35818 0.0
C653 C 0.92769 0.6435 0.35621 0.0
H654 H 0.85243 0.39846 0.7352 0.0
H655 H 0.92979 0.35437 0.71589 0.0
H656 H 0.96611 0.38924 0.70847 0.0
H657 H 0.97655 0.43233 0.70946 0.0
H658 H 0.89981 0.4763 0.72987 0.0
H659 H 0.86253 0.4415 0.73507 0.0
C660 C 0.87726 0.39647 0.72948 0.0
C661 C 0.88833 0.37379 0.72618 0.0
C662 C 0.89811 0.4166 0.72549 0.0
C663 C 0.92051 0.37159 0.71829 0.0
C664 C 0.94137 0.39153 0.7142 0.0
C665 C 0.95156 0.43414 0.71479 0.0
C666 C 0.94063 0.45658 0.71924 0.0
C667 C 0.93051 0.41409 0.71795 0.0
C668 C 0.90842 0.45904 0.72629 0.0
C669 C 0.88725 0.4392 0.72932 0.0
H670 H 0.26197 0.14297 0.37776 0.0
H671 H 0.26395 0.18968 0.44383 0.0
H672 H 0.25909 0.15576 0.47625 0.0
H673 H 0.25461 0.11249 0.48583 0.0
H674 H 0.25348 0.06622 0.41958 0.0
H675 H 0.25816 0.10022 0.38712 0.0
C676 C 0.26172 0.14576 0.39924 0.0
C677 C 0.26343 0.16886 0.40831 0.0
C678 C 0.25912 0.12622 0.41772 0.0
C679 C 0.26236 0.17211 0.43627 0.0
C680 C 0.25976 0.15272 0.45483 0.0
C681 C 0.25545 0.11005 0.46426 0.0
C682 C 0.25375 0.08715 0.45485 0.0
C683 C 0.25812 0.12968 0.44579 0.0
C684 C 0.25479 0.08386 0.427 0.0
C685 C 0.25744 0.10323 0.40855 0.0
H686 H 0.32395 0.75671 0.8739 0.0
H687 H 0.39021 0.8011 0.82245 0.0
H688 H 0.42723 0.80299 0.85865 0.0
H689 H 0.44097 0.79199 0.90489 0.0
H690 H 0.37528 0.7471 0.95619 0.0
H691 H 0.33814 0.74511 0.91994 0.0
C692 C 0.34664 0.76657 0.8705 0.0
C693 C 0.35417 0.77883 0.84551 0.0
C694 C 0.36796 0.76749 0.89138 0.0
C695 C 0.38355 0.79179 0.84161 0.0
C696 C 0.40483 0.7928 0.86226 0.0
C697 C 0.4184 0.78195 0.9082 0.0
C698 C 0.41085 0.76979 0.93321 0.0
C699 C 0.39722 0.78083 0.88726 0.0
C700 C 0.38175 0.75649 0.93704 0.0
C701 C 0.36047 0.7554 0.91636 0.0
H702 H 0.76752 0.85957 0.41965 0.0
H703 H 0.83289 0.89455 0.35923 0.0
H704 H 0.83731 0.92926 0.38644 0.0
H705 H 0.82191 0.94991 0.42707 0.0
H706 H 0.75527 0.91553 0.48695 0.0
H707 H 0.7518 0.88043 0.46029 0.0
C708 C 0.78291 0.87474 0.41263 0.0
C709 C 0.79994 0.87453 0.38756 0.0
C710 C 0.78491 0.89478 0.42817 0.0
C711 C 0.81946 0.8944 0.37842 0.0
C712 C 0.82202 0.91421 0.39397 0.0
C713 C 0.80677 0.93467 0.43432 0.0
C714 C 0.78889 0.9353 0.45893 0.0
C715 C 0.80474 0.91464 0.41881 0.0
C716 C 0.76902 0.91555 0.46793 0.0
C717 C 0.76717 0.89544 0.45277 0.0
H718 H 0.65109 0.27609 0.86203 0.0
H719 H 0.72405 0.2378 0.89955 0.0
H720 H 0.6916 0.23348 0.942 0.0
H721 H 0.64244 0.24099 0.96855 0.0
H722 H 0.56808 0.27694 0.93014 0.0
H723 H 0.60102 0.28204 0.88796 0.0
C724 C 0.65981 0.26688 0.87958 0.0
C725 C 0.68988 0.25738 0.87786 0.0
C726 C 0.64076 0.26407 0.90367 0.0
C727 C 0.70089 0.2452 0.90052 0.0
C728 C 0.6824 0.24277 0.92474 0.0
C729 C 0.63347 0.2497 0.95079 0.0
C730 C 0.60298 0.25848 0.9522 0.0
C731 C 0.65228 0.25212 0.92655 0.0
C732 C 0.59154 0.27001 0.9293 0.0
C733 C 0.61033 0.27292 0.90528 0.0
H734 H 0.22767 0.87253 0.6255 0.0
H735 H 0.23508 0.91058 0.69837 0.0
H736 H 0.23636 0.94804 0.67204 0.0
H737 H 0.23686 0.97019 0.62783 0.0
H738 H 0.22865 0.93191 0.55541 0.0
H739 H 0.22575 0.89442 0.58192 0.0
C740 C 0.22904 0.88899 0.63569 0.0
C741 C 0.23143 0.88867 0.66388 0.0
C742 C 0.22969 0.91049 0.62044 0.0
C743 C 0.2337 0.91026 0.67666 0.0
C744 C 0.23429 0.93172 0.66163 0.0
C745 C 0.23424 0.95357 0.61806 0.0
C746 C 0.23295 0.95361 0.58988 0.0
C747 C 0.23262 0.93207 0.63347 0.0
C748 C 0.22965 0.93213 0.57716 0.0
C749 C 0.22802 0.91074 0.59228 0.0
H750 H 0.65874 0.75398 0.19973 0.0
H751 H 0.70739 0.82001 0.17198 0.0
H752 H 0.6738 0.82229 0.13321 0.0
H753 H 0.6315 0.80489 0.10657 0.0
H754 H 0.58255 0.73909 0.13518 0.0
H755 H 0.61588 0.73713 0.17385 0.0
C756 C 0.66215 0.76879 0.18508 0.0
C757 C 0.68564 0.78672 0.18865 0.0
C758 C 0.64286 0.76995 0.16287 0.0
C759 C 0.68933 0.80604 0.16979 0.0
C760 C 0.67024 0.8073 0.14756 0.0
C761 C 0.62791 0.79023 0.12139 0.0
C762 C 0.60469 0.77207 0.11776 0.0
C763 C 0.64699 0.7893 0.14384 0.0
C764 C 0.60064 0.75309 0.13709 0.0
C765 C 0.61954 0.75202 0.15936 0.0
H766 H 0.8307 0.15889 0.68076 0.0
H767 H 0.74593 0.18488 0.64764 0.0
H768 H 0.74439 0.15296 0.6162 0.0
H769 H 0.76705 0.11754 0.59831 0.0
H770 H 0.8501 0.0901 0.63296 0.0
H771 H 0.85244 0.12256 0.66377 0.0
C772 C 0.81204 0.15753 0.66654 0.0
C773 C 0.78856 0.17417 0.66631 0.0
C774 C 0.81096 0.13886 0.64894 0.0
C775 C 0.76418 0.17217 0.64813 0.0
C776 C 0.76333 0.15398 0.63017 0.0
C777 C 0.7857 0.11877 0.61257 0.0
C778 C 0.80848 0.10163 0.61334 0.0
C779 C 0.78656 0.13722 0.63042 0.0
C780 C 0.83226 0.10311 0.63214 0.0
C781 C 0.83366 0.12168 0.64965 0.0
H782 H 0.40224 0.2434 0.20149 0.0
H783 H 0.32334 0.26956 0.15911 0.0
H784 H 0.35404 0.2688 0.11618 0.0
H785 H 0.40398 0.26168 0.09065 0.0
H786 H 0.48281 0.23569 0.13281 0.0
H787 H 0.45139 0.23492 0.17584 0.0
C788 C 0.39161 0.24864 0.18283 0.0
C789 C 0.36058 0.25664 0.18357 0.0
C790 C 0.40941 0.24815 0.15819 0.0
C791 C 0.34734 0.26367 0.15919 0.0
C792 C 0.36481 0.26313 0.1346 0.0
C793 C 0.41403 0.25576 0.10933 0.0
C794 C 0.44547 0.24884 0.10889 0.0
C795 C 0.39594 0.2556 0.13387 0.0
C796 C 0.45855 0.2411 0.13296 0.0
C797 C 0.44065 0.24072 0.15745 0.0
H798 H 0.84639 0.65535 0.74846 0.0
H799 H 0.91179 0.70193 0.69869 0.0
H800 H 0.94632 0.66949 0.69131 0.0
H801 H 0.95919 0.62822 0.70053 0.0
H802 H 0.89514 0.58237 0.75221 0.0
H803 H 0.85927 0.61437 0.75785 0.0
C804 C 0.86835 0.65854 0.73621 0.0
C805 C 0.87639 0.68117 0.72423 0.0
C806 C 0.8885 0.63995 0.73255 0.0
C807 C 0.90465 0.68469 0.7079 0.0
C808 C 0.92461 0.66617 0.70383 0.0
C809 C 0.93723 0.62522 0.71283 0.0
C810 C 0.92981 0.60299 0.72595 0.0
C811 C 0.91688 0.64377 0.7162 0.0
C812 C 0.9015 0.5994 0.74212 0.0
C813 C 0.88094 0.61765 0.74526 0.0
H814 H 0.894 0.36209 0.368 0.0
H815 H 0.82484 0.39148 0.31633 0.0
H816 H 0.85092 0.43035 0.31848 0.0
H817 H 0.89496 0.45608 0.33295 0.0
H818 H 0.96863 0.42587 0.37826 0.0
H819 H 0.9394 0.38732 0.38052 0.0
C820 C 0.88472 0.37681 0.35682 0.0
C821 C 0.8571 0.37346 0.34219 0.0
C822 C 0.90081 0.39912 0.35692 0.0
C823 C 0.84539 0.39322 0.32846 0.0
C824 C 0.86056 0.41559 0.32936 0.0
C825 C 0.90464 0.44095 0.34311 0.0
C826 C 0.93401 0.4436 0.35509 0.0
C827 C 0.88844 0.4187 0.34326 0.0
C828 C 0.94609 0.4241 0.36875 0.0
C829 C 0.92945 0.4021 0.36996 0.0
H830 H 0.14467 0.35507 0.70332 0.0
H831 H 0.22307 0.38993 0.74121 0.0
H832 H 0.19699 0.42711 0.73831 0.0
H833 H 0.15094 0.44955 0.72674 0.0
H834 H 0.07337 0.41532 0.68744 0.0
H835 H 0.10042 0.37828 0.68857 0.0
C836 C 0.15634 0.37086 0.71052 0.0
C837 C 0.18562 0.3695 0.72285 0.0
C838 C 0.14135 0.39236 0.70855 0.0
C839 C 0.20019 0.39022 0.73223 0.0
C840 C 0.18539 0.41158 0.73045 0.0
C841 C 0.14005 0.43397 0.71838 0.0
C842 C 0.11017 0.4351 0.70717 0.0
C843 C 0.15575 0.41278 0.71904 0.0
C844 C 0.09648 0.4149 0.69604 0.0
C845 C 0.11185 0.3937 0.69681 0.0
H846 H 0.1886 0.63197 0.3282 0.0
H847 H 0.11348 0.67702 0.35077 0.0
H848 H 0.07666 0.64259 0.35947 0.0
H849 H 0.06486 0.59972 0.35803 0.0
H850 H 0.13923 0.55479 0.33422 0.0
H851 H 0.17736 0.58905 0.32844 0.0
C852 C 0.16416 0.63425 0.33497 0.0
C853 C 0.15382 0.65706 0.33873 0.0
C854 C 0.14299 0.61438 0.33962 0.0
C855 C 0.12219 0.65967 0.34797 0.0
C856 C 0.10103 0.64 0.35278 0.0
C857 C 0.08955 0.59757 0.3519 0.0
C858 C 0.09954 0.57504 0.34655 0.0
C859 C 0.11106 0.61731 0.34837 0.0
C860 C 0.13135 0.57213 0.33847 0.0
C861 C 0.15299 0.59166 0.3351 0.0
H862 H 0.79058 0.86686 0.62758 0.0
H863 H 0.79032 0.9054 0.70051 0.0
H864 H 0.79487 0.94266 0.67379 0.0
H865 H 0.79815 0.96449 0.62963 0.0
H866 H 0.79844 0.92645 0.55666 0.0
H867 H 0.79518 0.88876 0.5833 0.0
C868 C 0.79184 0.88341 0.63761 0.0
C869 C 0.7899 0.8833 0.66603 0.0
C870 C 0.79452 0.90484 0.62208 0.0
C871 C 0.79122 0.90494 0.67869 0.0
C872 C 0.79402 0.92628 0.66343 0.0
C873 C 0.79762 0.94786 0.61973 0.0
C874 C 0.79844 0.94794 0.59144 0.0
C875 C 0.79551 0.92645 0.63516 0.0
C876 C 0.79779 0.92654 0.57851 0.0
C877 C 0.79588 0.90511 0.59372 0.0
H878 H 0.66049 0.22988 0.21417 0.0
H879 H 0.7265 0.28414 0.17748 0.0
H880 H 0.69591 0.28565 0.13704 0.0
H881 H 0.64989 0.27215 0.11231 0.0
H882 H 0.58402 0.21771 0.14867 0.0
H883 H 0.61545 0.21532 0.18869 0.0
C884 C 0.66842 0.24181 0.19719 0.0
C885 C 0.69563 0.257 0.19901 0.0
C886 C 0.65077 0.24255 0.17388 0.0
C887 C 0.70534 0.27254 0.17687 0.0
C888 C 0.68795 0.27335 0.15365 0.0
C889 C 0.64236 0.25983 0.12905 0.0
C890 C 0.61461 0.24519 0.12752 0.0
C891 C 0.66046 0.25861 0.15203 0.0
C892 C 0.60545 0.22903 0.1492 0.0
C893 C 0.62332 0.22774 0.17217 0.0
H894 H 0.26838 0.1754 0.63261 0.0
H895 H 0.20099 0.14104 0.69183 0.0
H896 H 0.19629 0.10651 0.66429 0.0
H897 H 0.21239 0.08567 0.62372 0.0
H898 H 0.2818 0.11938 0.56569 0.0
H899 H 0.28472 0.15452 0.59227 0.0
C900 C 0.25248 0.16041 0.6393 0.0
C901 C 0.23495 0.16075 0.66411 0.0
C902 C 0.2504 0.14046 0.62363 0.0
C903 C 0.21479 0.1411 0.67282 0.0
C904 C 0.21207 0.12139 0.65708 0.0
C905 C 0.22798 0.1008 0.61689 0.0
C906 C 0.24686 0.09997 0.59283 0.0
C907 C 0.22991 0.1208 0.63251 0.0
C908 C 0.26725 0.11955 0.58429 0.0
C909 C 0.26884 0.13967 0.59942 0.0
H910 H 0.38822 0.7801 0.19381 0.0
H911 H 0.30705 0.7528 0.15306 0.0
H912 H 0.33944 0.75232 0.11093 0.0
H913 H 0.39112 0.75944 0.08557 0.0
H914 H 0.47219 0.78664 0.12614 0.0
H915 H 0.43964 0.78767 0.16839 0.0
C916 C 0.37756 0.77429 0.17564 0.0
C917 C 0.34528 0.76646 0.1766 0.0
C918 C 0.39635 0.77401 0.15148 0.0
C919 C 0.33193 0.75866 0.15295 0.0
C920 C 0.35039 0.75846 0.12882 0.0
C921 C 0.40148 0.76551 0.10377 0.0
C922 C 0.43382 0.77283 0.10308 0.0
C923 C 0.38265 0.76598 0.12787 0.0
C924 C 0.44726 0.78086 0.1265 0.0
C925 C 0.42869 0.78145 0.15054 0.0
H926 H 0.77638 0.13266 0.38063 0.0
H927 H 0.83529 0.1756 0.43027 0.0
H928 H 0.83911 0.1422 0.46201 0.0
H929 H 0.8244 0.1012 0.47681 0.0
H930 H 0.77094 0.05669 0.42542 0.0
H931 H 0.76664 0.09026 0.39301 0.0
C932 C 0.79059 0.13472 0.39806 0.0
C933 C 0.80489 0.15702 0.40311 0.0
C934 C 0.7937 0.11512 0.41597 0.0
C935 C 0.82297 0.15907 0.42612 0.0
C936 C 0.82551 0.13985 0.44426 0.0
C937 C 0.81243 0.09876 0.4582 0.0
C938 C 0.79829 0.07654 0.45325 0.0
C939 C 0.81073 0.1179 0.43954 0.0
C940 C 0.7822 0.07366 0.42942 0.0
C941 C 0.77971 0.09283 0.41101 0.0
H942 H 0.38071 0.28069 0.85169 0.0
H943 H 0.32781 0.21647 0.87998 0.0
H944 H 0.36018 0.21372 0.91944 0.0
H945 H 0.40295 0.22987 0.94619 0.0
H946 H 0.45683 0.29354 0.91708 0.0
H947 H 0.42396 0.29655 0.87813 0.0
C948 C 0.37612 0.26618 0.8666 0.0
C949 C 0.35185 0.24883 0.86291 0.0
C950 C 0.3948 0.26472 0.88923 0.0
C951 C 0.34655 0.22993 0.88219 0.0
C952 C 0.36493 0.22842 0.90483 0.0
C953 C 0.40777 0.24429 0.93122 0.0
C954 C 0.43237 0.26148 0.93473 0.0
C955 C 0.38911 0.24572 0.90856 0.0
C956 C 0.43777 0.28026 0.91526 0.0
C957 C 0.41914 0.2819 0.89281 0.0
H958 H 0.27853 0.88205 0.36608 0.0
H959 H 0.19357 0.84654 0.40405 0.0
H960 H 0.18723 0.87906 0.4337 0.0
H961 H 0.2062 0.91726 0.44963 0.0
H962 H 0.28961 0.95376 0.41068 0.0
H963 H 0.29557 0.92152 0.3801 0.0
C964 C 0.25834 0.88153 0.38053 0.0
C965 C 0.23685 0.8616 0.38297 0.0
C966 C 0.25444 0.90055 0.3973 0.0
C967 C 0.21101 0.86128 0.4021 0.0
C968 C 0.20716 0.88 0.41897 0.0
C969 C 0.22566 0.91813 0.43441 0.0
C970 C 0.24753 0.93775 0.43249 0.0
C971 C 0.22888 0.8996 0.41693 0.0
C972 C 0.27236 0.93887 0.41243 0.0
C973 C 0.27587 0.9204 0.39506 0.0
H974 H 0.63532 0.78291 0.85282 0.0
H975 H 0.7134 0.7579 0.89718 0.0
H976 H 0.68002 0.75555 0.93896 0.0
H977 H 0.62865 0.76116 0.96318 0.0
H978 H 0.55085 0.78638 0.91904 0.0
H979 H 0.58407 0.7884 0.87691 0.0
C980 C 0.6451 0.77712 0.87167 0.0
C981 C 0.67682 0.77059 0.87184 0.0
C982 C 0.6258 0.77588 0.89565 0.0
C983 C 0.68896 0.76278 0.8964 0.0
C984 C 0.66995 0.76154 0.92034 0.0
C985 C 0.61912 0.76696 0.94423 0.0
C986 C 0.58754 0.77352 0.94391 0.0
C987 C 0.63835 0.76805 0.92022 0.0
C988 C 0.57519 0.7812 0.91949 0.0
C989 C 0.59414 0.78236 0.89552 0.0
loop_
_geom_bond_atom_site_label_1
_geom_bond_atom_site_label_2
_geom_bond_distance
_geom_bond_site_symmetry_2
_ccdc_geom_bond_type
C0 C1 1.384 . S
C0 H13 0.947 . S
C0 C35 1.382 . S
C1 C0 1.384 . S
C1 C2 1.378 . S
C2 C1 1.378 . S
C2 C3 1.378 . S
C2 H14 0.952 . S
C3 C2 1.378 . S
C3 H15 0.950 . S
C3 C34 1.383 . S
H4 C23 0.947 . S
H5 C24 0.946 . S
H6 C26 0.953 . S
H7 C27 0.945 . S
H8 C29 0.952 . S
H9 C30 0.949 . S
H10 C32 0.950 . S
H11 C33 0.948 . S
H12 C35 0.951 . S
H13 C0 0.947 . S
H14 C2 0.952 . S
H15 C3 0.950 . S
N16 C19 1.382 . S
N16 C21 1.363 . S
N17 C19 1.371 . S
N17 C20 1.372 . S
N18 C20 1.361 . S
N18 C21 1.377 . S
C19 N16 1.382 . S
C19 N17 1.371 . S
C19 C22 1.480 . S
C20 N17 1.372 . S
C20 N18 1.361 . S
C20 C28 1.457 . S
C21 N16 1.363 . S
C21 N18 1.377 . S
C21 C34 1.479 . S
C22 C19 1.480 . S
C22 C23 1.383 . S
C22 C27 1.385 . S
C23 H4 0.947 . S
C23 C22 1.383 . S
C23 C24 1.388 . S
C24 H5 0.946 . S
C24 C23 1.388 . S
C24 C25 1.384 . S
C25 C24 1.384 . S
C25 C26 1.377 . S
C26 H6 0.953 . S
C26 C25 1.377 . S
C26 C27 1.369 . S
C27 H7 0.945 . S
C27 C22 1.385 . S
C27 C26 1.369 . S
C28 C20 1.457 . S
C28 C29 1.372 . S
C28 C33 1.364 . S
C29 H8 0.952 . S
C29 C28 1.372 . S
C29 C30 1.389 . S
C30 H9 0.949 . S
C30 C29 1.389 . S
C30 C31 1.387 . S
C31 C30 1.387 . S
C31 C32 1.372 . S
C32 H10 0.950 . S
C32 C31 1.372 . S
C32 C33 1.379 . S
C33 H11 0.948 . S
C33 C28 1.364 . S
C33 C32 1.379 . S
C34 C3 1.383 . S
C34 C21 1.479 . S
C34 C35 1.398 . S
C35 C0 1.382 . S
C35 H12 0.951 . S
C35 C34 1.398 . S
C36 C37 1.384 . S
C36 H49 0.947 . S
C36 C71 1.382 . S
C37 C36 1.384 . S
C37 C38 1.378 . S
C38 C37 1.378 . S
C38 C39 1.378 . S
C38 H50 0.952 . S
C39 C38 1.378 . S
C39 H51 0.950 . S
C39 C70 1.383 . S
H40 C59 0.947 . S
H41 C60 0.946 . S
H42 C62 0.953 . S
H43 C63 0.945 . S
H44 C65 0.952 . S
H45 C66 0.949 . S
H46 C68 0.950 . S
H47 C69 0.948 . S
H48 C71 0.951 . S
H49 C36 0.947 . S
H50 C38 0.952 . S
H51 C39 0.950 . S
N52 C55 1.382 . S
N52 C57 1.363 . S
N53 C55 1.371 . S
N53 C56 1.372 . S
N54 C56 1.361 . S
N54 C57 1.377 . S
C55 N52 1.382 . S
C55 N53 1.371 . S
C55 C58 1.480 . S
C56 N53 1.372 . S
C56 N54 1.361 . S
C56 C64 1.457 . S
C57 N52 1.363 . S
C57 N54 1.377 . S
C57 C70 1.479 . S
C58 C55 1.480 . S
C58 C59 1.383 . S
C58 C63 1.385 . S
C59 H40 0.947 . S
C59 C58 1.383 . S
C59 C60 1.388 . S
C60 H41 0.946 . S
C60 C59 1.388 . S
C60 C61 1.384 . S
C61 C60 1.384 . S
C61 C62 1.377 . S
C62 H42 0.953 . S
C62 C61 1.377 . S
C62 C63 1.369 . S
C63 H43 0.945 . S
C63 C58 1.385 . S
C63 C62 1.369 . S
C64 C56 1.457 . S
C64 C65 1.372 . S
C64 C69 1.364 . S
C65 H44 0.952 . S
C65 C64 1.372 . S
C65 C66 1.389 . S
C66 H45 0.949 . S
C66 C65 1.389 . S
C66 C67 1.387 . S
C67 C66 1.387 . S
C67 C68 1.372 . S
C68 H46 0.950 . S
C68 C67 1.372 . S
C68 C69 1.379 . S
C69 H47 0.948 . S
C69 C64 1.364 . S
C69 C68 1.379 . S
C70 C39 1.383 . S
C70 C57 1.479 . S
C70 C71 1.398 . S
C71 C36 1.382 . S
C71 H48 0.951 . S
C71 C70 1.398 . S
C72 C73 1.384 . S
C72 H85 0.947 . S
C72 C107 1.382 . S
C73 C72 1.384 . S
C73 C74 1.378 . S
C74 C73 1.378 . S
C74 C75 1.378 . S
C74 H86 0.952 . S
C75 C74 1.378 . S
C75 H87 0.950 . S
C75 C106 1.383 . S
H76 C95 0.947 . S
H77 C96 0.946 . S
H78 C98 0.953 . S
H79 C99 0.945 . S
H80 C101 0.952 . S
H81 C102 0.949 . S
H82 C104 0.950 . S
H83 C105 0.948 . S
H84 C107 0.951 . S
H85 C72 0.947 . S
H86 C74 0.952 . S
H87 C75 0.950 . S
N88 C91 1.382 . S
N88 C93 1.363 . S
N89 C91 1.371 . S
N89 C92 1.372 . S
N90 C92 1.361 . S
N90 C93 1.377 . S
C91 N88 1.382 . S
C91 N89 1.371 . S
C91 C94 1.480 . S
C92 N89 1.372 . S
C92 N90 1.361 . S
C92 C100 1.457 . S
C93 N88 1.363 . S
C93 N90 1.377 . S
C93 C106 1.479 . S
C94 C91 1.480 . S
C94 C95 1.383 . S
C94 C99 1.385 . S
C95 H76 0.947 . S
C95 C94 1.383 . S
C95 C96 1.388 . S
C96 H77 0.946 . S
C96 C95 1.388 . S
C96 C97 1.384 . S
C97 C96 1.384 . S
C97 C98 1.377 . S
C98 H78 0.953 . S
C98 C97 1.377 . S
C98 C99 1.369 . S
C99 H79 0.945 . S
C99 C94 1.385 . S
C99 C98 1.369 . S
C100 C92 1.457 . S
C100 C101 1.372 . S
C100 C105 1.364 . S
C101 H80 0.952 . S
C101 C100 1.372 . S
C101 C102 1.389 . S
C102 H81 0.949 . S
C102 C101 1.389 . S
C102 C103 1.387 . S
C103 C102 1.387 . S
C103 C104 1.372 . S
C104 H82 0.950 . S
C104 C103 1.372 . S
C104 C105 1.379 . S
C105 H83 0.948 . S
C105 C100 1.364 . S
C105 C104 1.379 . S
C106 C75 1.383 . S
C106 C93 1.479 . S
C106 C107 1.398 . S
C107 C72 1.382 . S
C107 H84 0.951 . S
C107 C106 1.398 . S
C108 C109 1.384 . S
C108 H121 0.947 . S
C108 C143 1.382 . S
C109 C108 1.384 . S
C109 C110 1.378 . S
C110 C109 1.378 . S
C110 C111 1.378 . S
C110 H122 0.952 . S
C111 C110 1.378 . S
C111 H123 0.950 . S
C111 C142 1.383 . S
H112 C131 0.947 . S
H113 C132 0.946 . S
H114 C134 0.953 . S
H115 C135 0.945 . S
H116 C137 0.952 . S
H117 C138 0.949 . S
H118 C140 0.950 . S
H119 C141 0.948 . S
H120 C143 0.951 . S
H121 C108 0.947 . S
H122 C110 0.952 . S
H123 C111 0.950 . S
N124 C127 1.382 . S
N124 C129 1.363 . S
N125 C127 1.371 . S
N125 C128 1.372 . S
N126 C128 1.361 . S
N126 C129 1.377 . S
C127 N124 1.382 . S
C127 N125 1.371 . S
C127 C130 1.480 . S
C128 N125 1.372 . S
C128 N126 1.361 . S
C128 C136 1.457 . S
C129 N124 1.363 . S
C129 N126 1.377 . S
C129 C142 1.479 . S
C130 C127 1.480 . S
C130 C131 1.383 . S
C130 C135 1.385 . S
C131 H112 0.947 . S
C131 C130 1.383 . S
C131 C132 1.388 . S
C132 H113 0.946 . S
C132 C131 1.388 . S
C132 C133 1.384 . S
C133 C132 1.384 . S
C133 C134 1.377 . S
C134 H114 0.953 . S
C134 C133 1.377 . S
C134 C135 1.369 . S
C135 H115 0.945 . S
C135 C130 1.385 . S
C135 C134 1.369 . S
C136 C128 1.457 . S
C136 C137 1.372 . S
C136 C141 1.364 . S
C137 H116 0.952 . S
C137 C136 1.372 . S
C137 C138 1.389 . S
C138 H117 0.949 . S
C138 C137 1.389 . S
C138 C139 1.387 . S
C139 C138 1.387 . S
C139 C140 1.372 . S
C140 H118 0.950 . S
C140 C139 1.372 . S
C140 C141 1.379 . S
C141 H119 0.948 . S
C141 C136 1.364 . S
C141 C140 1.379 . S
C142 C111 1.383 . S
C142 C129 1.479 . S
C142 C143 1.398 . S
C143 C108 1.382 . S
C143 H120 0.951 . S
C143 C142 1.398 . S
C144 C145 1.384 . S
C144 H157 0.947 . S
C144 C179 1.382 . S
C145 C144 1.384 . S
C145 C146 1.378 . S
C146 C145 1.378 . S
C146 C147 1.378 . S
C146 H158 0.952 . S
C147 C146 1.378 . S
C147 H159 0.950 . S
C147 C178 1.383 . S
H148 C167 0.947 . S
H149 C168 0.946 . S
H150 C170 0.953 . S
H151 C171 0.945 . S
H152 C173 0.952 . S
H153 C174 0.949 . S
H154 C176 0.950 . S
H155 C177 0.948 . S
H156 C179 0.951 . S
H157 C144 0.947 . S
H158 C146 0.952 . S
H159 C147 0.950 . S
N160 C163 1.382 . S
N160 C165 1.363 . S
N161 C163 1.371 . S
N161 C164 1.372 . S
N162 C164 1.361 . S
N162 C165 1.377 . S
C163 N160 1.382 . S
C163 N161 1.371 . S
C163 C166 1.480 . S
C164 N161 1.372 . S
C164 N162 1.361 . S
C164 C172 1.457 . S
C165 N160 1.363 . S
C165 N162 1.377 . S
C165 C178 1.479 . S
C166 C163 1.480 . S
C166 C167 1.383 . S
C166 C171 1.385 . S
C167 H148 0.947 . S
C167 C166 1.383 . S
C167 C168 1.388 . S
C168 H149 0.946 . S
C168 C167 1.388 . S
C168 C169 1.384 . S
C169 C168 1.384 . S
C169 C170 1.377 . S
C170 H150 0.953 . S
C170 C169 1.377 . S
C170 C171 1.369 . S
C171 H151 0.945 . S
C171 C166 1.385 . S
C171 C170 1.369 . S
C172 C164 1.457 . S
C172 C173 1.372 . S
C172 C177 1.364 . S
C173 H152 0.952 . S
C173 C172 1.372 . S
C173 C174 1.389 . S
C174 H153 0.949 . S
C174 C173 1.389 . S
C174 C175 1.387 . S
C175 C174 1.387 . S
C175 C176 1.372 . S
C176 H154 0.950 . S
C176 C175 1.372 . S
C176 C177 1.379 . S
C177 H155 0.948 . S
C177 C172 1.364 . S
C177 C176 1.379 . S
C178 C147 1.383 . S
C178 C165 1.479 . S
C178 C179 1.398 . S
C179 C144 1.382 . S
C179 H156 0.951 . S
C179 C178 1.398 . S
C180 C181 1.384 . S
C180 H193 0.947 . S
C180 C215 1.382 . S
C181 C180 1.384 . S
C181 C182 1.378 . S
C182 C181 1.378 . S
C182 C183 1.378 . S
C182 H194 0.952 . S
C183 C182 1.378 . S
C183 H195 0.950 . S
C183 C214 1.383 . S
H184 C203 0.947 . S
H185 C204 0.946 . S
H186 C206 0.953 . S
H187 C207 0.945 . S
H188 C209 0.952 . S
H189 C210 0.949 . S
H190 C212 0.950 . S
H191 C213 0.948 . S
H192 C215 0.951 . S
H193 C180 0.947 . S
H194 C182 0.952 . S
H195 C183 0.950 . S
N196 C199 1.382 . S
N196 C201 1.363 . S
N197 C199 1.371 . S
N197 C200 1.372 . S
N198 C200 1.361 . S
N198 C201 1.377 . S
C199 N196 1.382 . S
C199 N197 1.371 . S
C199 C202 1.480 . S
C200 N197 1.372 . S
C200 N198 1.361 . S
C200 C208 1.457 . S
C201 N196 1.363 . S
C201 N198 1.377 . S
C201 C214 1.479 . S
C202 C199 1.480 . S
C202 C203 1.383 . S
C202 C207 1.385 . S
C203 H184 0.947 . S
C203 C202 1.383 . S
C203 C204 1.388 . S
C204 H185 0.946 . S
C204 C203 1.388 . S
C204 C205 1.384 . S
C205 C204 1.384 . S
C205 C206 1.377 . S
C206 H186 0.953 . S
C206 C205 1.377 . S
C206 C207 1.369 . S
C207 H187 0.945 . S
C207 C202 1.385 . S
C207 C206 1.369 . S
C208 C200 1.457 . S
C208 C209 1.372 . S
C208 C213 1.364 . S
C209 H188 0.952 . S
C209 C208 1.372 . S
C209 C210 1.389 . S
C210 H189 0.949 . S
C210 C209 1.389 . S
C210 C211 1.387 . S
C211 C210 1.387 . S
C211 C212 1.372 . S
C212 H190 0.950 . S
C212 C211 1.372 . S
C212 C213 1.379 . S
C213 H191 0.948 . S
C213 C208 1.364 . S
C213 C212 1.379 . S
C214 C183 1.383 . S
C214 C201 1.479 . S
C214 C215 1.398 . S
C215 C180 1.382 . S
C215 H192 0.951 . S
C215 C214 1.398 . S
C216 C217 1.384 . S
C216 H229 0.947 . S
C216 C251 1.382 . S
C217 C216 1.384 . S
C217 C218 1.378 . S
C218 C217 1.378 . S
C218 C219 1.378 . S
C218 H230 0.952 . S
C219 C218 1.378 . S
C219 H231 0.950 . S
C219 C250 1.383 . S
H220 C239 0.947 . S
H221 C240 0.946 . S
H222 C242 0.953 . S
H223 C243 0.945 . S
H224 C245 0.952 . S
H225 C246 0.949 . S
H226 C248 0.950 . S
H227 C249 0.948 . S
H228 C251 0.951 . S
H229 C216 0.947 . S
H230 C218 0.952 . S
H231 C219 0.950 . S
N232 C235 1.382 . S
N232 C237 1.363 . S
N233 C235 1.371 . S
N233 C236 1.372 . S
N234 C236 1.361 . S
N234 C237 1.377 . S
C235 N232 1.382 . S
C235 N233 1.371 . S
C235 C238 1.480 . S
C236 N233 1.372 . S
C236 N234 1.361 . S
C236 C244 1.457 . S
C237 N232 1.363 . S
C237 N234 1.377 . S
C237 C250 1.479 . S
C238 C235 1.480 . S
C238 C239 1.383 . S
C238 C243 1.385 . S
C239 H220 0.947 . S
C239 C238 1.383 . S
C239 C240 1.388 . S
C240 H221 0.946 . S
C240 C239 1.388 . S
C240 C241 1.384 . S
C241 C240 1.384 . S
C241 C242 1.377 . S
C242 H222 0.953 . S
C242 C241 1.377 . S
C242 C243 1.369 . S
C243 H223 0.945 . S
C243 C238 1.385 . S
C243 C242 1.369 . S
C244 C236 1.457 . S
C244 C245 1.372 . S
C244 C249 1.364 . S
C245 H224 0.952 . S
C245 C244 1.372 . S
C245 C246 1.389 . S
C246 H225 0.949 . S
C246 C245 1.389 . S
C246 C247 1.387 . S
C247 C246 1.387 . S
C247 C248 1.372 . S
C248 H226 0.950 . S
C248 C247 1.372 . S
C248 C249 1.379 . S
C249 H227 0.948 . S
C249 C244 1.364 . S
C249 C248 1.379 . S
C250 C219 1.383 . S
C250 C237 1.479 . S
C250 C251 1.398 . S
C251 C216 1.382 . S
C251 H228 0.951 . S
C251 C250 1.398 . S
C252 C253 1.384 . S
C252 H265 0.947 . S
C252 C287 1.382 . S
C253 C252 1.384 . S
C253 C254 1.378 . S
C254 C253 1.378 . S
C254 C255 1.378 . S
C254 H266 0.952 . S
C255 C254 1.378 . S
C255 H267 0.950 . S
C255 C286 1.383 . S
H256 C275 0.947 . S
H257 C276 0.946 . S
H258 C278 0.953 . S
H259 C279 0.945 . S
H260 C281 0.952 . S
H261 C282 0.949 . S
H262 C284 0.950 . S
H263 C285 0.948 . S
H264 C287 0.951 . S
H265 C252 0.947 . S
H266 C254 0.952 . S
H267 C255 0.950 . S
N268 C271 1.382 . S
N268 C273 1.363 . S
N269 C271 1.371 . S
N269 C272 1.372 . S
N270 C272 1.361 . S
N270 C273 1.377 . S
C271 N268 1.382 . S
C271 N269 1.371 . S
C271 C274 1.480 . S
C272 N269 1.372 . S
C272 N270 1.361 . S
C272 C280 1.457 . S
C273 N268 1.363 . S
C273 N270 1.377 . S
C273 C286 1.479 . S
C274 C271 1.480 . S
C274 C275 1.383 . S
C274 C279 1.385 . S
C275 H256 0.947 . S
C275 C274 1.383 . S
C275 C276 1.388 . S
C276 H257 0.946 . S
C276 C275 1.388 . S
C276 C277 1.384 . S
C277 C276 1.384 . S
C277 C278 1.377 . S
C278 H258 0.953 . S
C278 C277 1.377 . S
C278 C279 1.369 . S
C279 H259 0.945 . S
C279 C274 1.385 . S
C279 C278 1.369 . S
C280 C272 1.457 . S
C280 C281 1.372 . S
C280 C285 1.364 . S
C281 H260 0.952 . S
C281 C280 1.372 . S
C281 C282 1.389 . S
C282 H261 0.949 . S
C282 C281 1.389 . S
C282 C283 1.387 . S
C283 C282 1.387 . S
C283 C284 1.372 . S
C284 H262 0.950 . S
C284 C283 1.372 . S
C284 C285 1.379 . S
C285 H263 0.948 . S
C285 C280 1.364 . S
C285 C284 1.379 . S
C286 C255 1.383 . S
C286 C273 1.479 . S
C286 C287 1.398 . S
C287 C252 1.382 . S
C287 H264 0.951 . S
C287 C286 1.398 . S
C288 C289 1.443 . S
C288 N292 1.376 . S
C288 C326 1.389 . S
C289 C288 1.443 . S
C289 C290 1.340 . S
C289 H329 0.951 . S
C290 C289 1.340 . S
C290 C291 1.439 . S
C290 H330 0.950 . S
C291 C290 1.439 . S
C291 N292 1.374 . S
C291 C325 1.395 . S
N292 C288 1.376 . S
N292 C291 1.374 . S
N292 Co293 2.008 . S
Co293 N292 2.008 . S
Co293 N294 1.995 1_455 S
Co293 N299 2.008 . S
Co293 N304 1.995 . S
Co293 N309 2.282 . S
Co293 N315 2.282 1_455 S
N294 Co293 1.995 1_655 S
N294 C295 1.376 . S
N294 C298 1.383 . S
C295 N294 1.376 . S
C295 C296 1.446 . S
C295 C325 1.391 1_655 S
C296 C295 1.446 . S
C296 C297 1.339 . S
C296 H331 0.949 . S
C297 C296 1.339 . S
C297 C298 1.439 . S
C297 H332 0.950 . S
C298 N294 1.383 . S
C298 C297 1.439 . S
C298 C327 1.392 . S
N299 Co293 2.008 . S
N299 C300 1.376 1_455 S
N299 C303 1.374 . S
C300 N299 1.376 1_655 S
C300 C301 1.443 . S
C300 C327 1.389 . S
C301 C300 1.443 . S
C301 C302 1.340 . S
C301 H333 0.951 . S
C302 C301 1.340 . S
C302 C303 1.439 1_655 S
C302 H334 0.950 . S
C303 N299 1.374 . S
C303 C302 1.439 1_455 S
C303 C328 1.395 . S
N304 Co293 1.995 . S
N304 C305 1.376 . S
N304 C308 1.383 . S
C305 N304 1.376 . S
C305 C306 1.446 . S
C305 C328 1.391 . S
C306 C305 1.446 . S
C306 C307 1.339 . S
C306 H335 0.949 . S
C307 C306 1.339 . S
C307 C308 1.439 . S
C307 H336 0.950 . S
C308 N304 1.383 . S
C308 C307 1.439 . S
C308 C326 1.392 . S
N309 Co293 2.282 . S
N309 C312 1.332 . S
N309 C314 1.332 . S
C310 C311 1.386 . S
C310 C313 1.388 . S
C311 C310 1.386 . S
C311 C312 1.382 . S
C311 H337 0.950 . S
C312 N309 1.332 . S
C312 C311 1.382 . S
C312 H323 0.952 . S
C313 C310 1.388 . S
C313 C314 1.382 . S
C313 H338 0.950 . S
C314 N309 1.332 . S
C314 C313 1.382 . S
C314 H324 0.948 . S
N315 Co293 2.282 1_655 S
N315 C319 1.332 . S
N315 C320 1.332 . S
C316 C317 1.388 . S
C316 C320 1.382 . S
C316 H339 0.950 . S
C317 C316 1.388 . S
C317 C318 1.386 . S
C318 C317 1.386 . S
C318 C319 1.382 . S
C318 H340 0.950 . S
C319 N315 1.332 . S
C319 C318 1.382 . S
C319 H321 0.952 . S
C320 N315 1.332 . S
C320 C316 1.382 . S
C320 H322 0.948 . S
H321 C319 0.952 . S
H322 C320 0.948 . S
H323 C312 0.952 . S
H324 C314 0.948 . S
C325 C291 1.395 . S
C325 C295 1.391 1_455 S
C326 C288 1.389 . S
C326 C308 1.392 . S
C327 C298 1.392 . S
C327 C300 1.389 . S
C328 C303 1.395 . S
C328 C305 1.391 . S
H329 C289 0.951 . S
H330 C290 0.950 . S
H331 C296 0.949 . S
H332 C297 0.950 . S
H333 C301 0.951 . S
H334 C302 0.950 . S
H335 C306 0.949 . S
H336 C307 0.950 . S
H337 C311 0.950 . S
H338 C313 0.950 . S
H339 C316 0.950 . S
H340 C318 0.950 . S
C341 C342 1.443 . S
C341 N345 1.376 . S
C341 C379 1.389 . S
C342 C341 1.443 . S
C342 C343 1.340 . S
C342 H382 0.951 . S
C343 C342 1.340 . S
C343 C344 1.439 . S
C343 H383 0.950 . S
C344 C343 1.439 . S
C344 N345 1.374 . S
C344 C378 1.395 . S
N345 C341 1.376 . S
N345 C344 1.374 . S
N345 Co346 2.008 . S
Co346 N345 2.008 . S
Co346 N347 1.995 1_455 S
Co346 N352 2.008 1_455 S
Co346 N357 1.995 . S
Co346 N362 2.282 . S
Co346 N368 2.282 1_455 S
N347 Co346 1.995 1_655 S
N347 C348 1.376 . S
N347 C351 1.383 . S
C348 N347 1.376 . S
C348 C349 1.446 . S
C348 C378 1.391 1_655 S
C349 C348 1.446 . S
C349 C350 1.339 . S
C349 H384 0.949 . S
C350 C349 1.339 . S
C350 C351 1.439 . S
C350 H385 0.950 . S
C351 N347 1.383 . S
C351 C350 1.439 . S
C351 C380 1.392 . S
N352 Co346 2.008 1_655 S
N352 C353 1.376 . S
N352 C356 1.374 1_655 S
C353 N352 1.376 . S
C353 C354 1.443 . S
C353 C380 1.389 . S
C354 C353 1.443 . S
C354 C355 1.340 . S
C354 H386 0.951 . S
C355 C354 1.340 . S
C355 C356 1.439 1_655 S
C355 H387 0.950 . S
C356 N352 1.374 1_455 S
C356 C355 1.439 1_455 S
C356 C381 1.395 . S
N357 Co346 1.995 . S
N357 C358 1.376 . S
N357 C361 1.383 . S
C358 N357 1.376 . S
C358 C359 1.446 . S
C358 C381 1.391 . S
C359 C358 1.446 . S
C359 C360 1.339 . S
C359 H388 0.949 . S
C360 C359 1.339 . S
C360 C361 1.439 . S
C360 H389 0.950 . S
C361 N357 1.383 . S
C361 C360 1.439 . S
C361 C379 1.392 . S
N362 Co346 2.282 . S
N362 C365 1.332 . S
N362 C367 1.332 . S
C363 C364 1.386 . S
C363 C366 1.388 . S
C364 C363 1.386 . S
C364 C365 1.382 . S
C364 H390 0.950 . S
C365 N362 1.332 . S
C365 C364 1.382 . S
C365 H376 0.952 . S
C366 C363 1.388 . S
C366 C367 1.382 . S
C366 H391 0.950 . S
C367 N362 1.332 . S
C367 C366 1.382 . S
C367 H377 0.948 . S
N368 Co346 2.282 1_655 S
N368 C372 1.332 . S
N368 C373 1.332 . S
C369 C370 1.388 . S
C369 C373 1.382 . S
C369 H392 0.950 . S
C370 C369 1.388 . S
C370 C371 1.386 . S
C371 C370 1.386 . S
C371 C372 1.382 . S
C371 H393 0.950 . S
C372 N368 1.332 . S
C372 C371 1.382 . S
C372 H374 0.952 . S
C373 N368 1.332 . S
C373 C369 1.382 . S
C373 H375 0.948 . S
H374 C372 0.952 . S
H375 C373 0.948 . S
H376 C365 0.952 . S
H377 C367 0.948 . S
C378 C344 1.395 . S
C378 C348 1.391 1_455 S
C379 C341 1.389 . S
C379 C361 1.392 . S
C380 C351 1.392 . S
C380 C353 1.389 . S
C381 C356 1.395 . S
C381 C358 1.391 . S
H382 C342 0.951 . S
H383 C343 0.950 . S
H384 C349 0.949 . S
H385 C350 0.950 . S
H386 C354 0.951 . S
H387 C355 0.950 . S
H388 C359 0.949 . S
H389 C360 0.950 . S
H390 C364 0.950 . S
H391 C366 0.950 . S
H392 C369 0.950 . S
H393 C371 0.950 . S
C394 C395 1.443 . S
C394 N398 1.376 . S
C394 C432 1.389 . S
C395 C394 1.443 . S
C395 C396 1.340 . S
C395 H435 0.951 . S
C396 C395 1.340 . S
C396 C397 1.439 . S
C396 H436 0.950 . S
C397 C396 1.439 . S
C397 N398 1.374 . S
C397 C431 1.395 1_565 S
N398 C394 1.376 . S
N398 C397 1.374 . S
N398 Co399 2.008 1_565 S
Co399 N398 2.008 1_545 S
Co399 N400 1.995 . S
Co399 N405 2.008 . S
Co399 N410 1.995 1_545 S
Co399 N415 2.282 . S
Co399 N421 2.282 1_545 S
N400 Co399 1.995 . S
N400 C401 1.376 . S
N400 C404 1.383 . S
C401 N400 1.376 . S
C401 C402 1.446 . S
C401 C431 1.391 . S
C402 C401 1.446 . S
C402 C403 1.339 . S
C402 H437 0.949 . S
C403 C402 1.339 . S
C403 C404 1.439 . S
C403 H438 0.950 . S
C404 N400 1.383 . S
C404 C403 1.439 . S
C404 C433 1.392 . S
N405 Co399 2.008 . S
N405 C406 1.376 . S
N405 C409 1.374 . S
C406 N405 1.376 . S
C406 C407 1.443 . S
C406 C433 1.389 . S
C407 C406 1.443 . S
C407 C408 1.340 . S
C407 H439 0.951 . S
C408 C407 1.340 . S
C408 C409 1.439 . S
C408 H440 0.950 . S
C409 N405 1.374 . S
C409 C408 1.439 . S
C409 C434 1.395 . S
N410 Co399 1.995 1_565 S
N410 C411 1.376 . S
N410 C414 1.383 . S
C411 N410 1.376 . S
C411 C412 1.446 . S
C411 C434 1.391 1_565 S
C412 C411 1.446 . S
C412 C413 1.339 . S
C412 H441 0.949 . S
C413 C412 1.339 . S
C413 C414 1.439 . S
C413 H442 0.950 . S
C414 N410 1.383 . S
C414 C413 1.439 . S
C414 C432 1.392 . S
N415 Co399 2.282 . S
N415 C418 1.332 . S
N415 C420 1.332 . S
C416 C417 1.386 . S
C416 C419 1.388 . S
C417 C416 1.386 . S
C417 C418 1.382 . S
C417 H443 0.950 . S
C418 N415 1.332 . S
C418 C417 1.382 . S
C418 H429 0.952 . S
C419 C416 1.388 . S
C419 C420 1.382 . S
C419 H444 0.950 . S
C420 N415 1.332 . S
C420 C419 1.382 . S
C420 H430 0.948 . S
N421 Co399 2.282 1_565 S
N421 C425 1.332 . S
N421 C426 1.332 . S
C422 C423 1.388 . S
C422 C426 1.382 . S
C422 H445 0.950 . S
C423 C422 1.388 . S
C423 C424 1.386 . S
C424 C423 1.386 . S
C424 C425 1.382 . S
C424 H446 0.950 . S
C425 N421 1.332 . S
C425 C424 1.382 . S
C425 H427 0.952 . S
C426 N421 1.332 . S
C426 C422 1.382 . S
C426 H428 0.948 . S
H427 C425 0.952 . S
H428 C426 0.948 . S
H429 C418 0.952 . S
H430 C420 0.948 . S
C431 C397 1.395 1_545 S
C431 C401 1.391 . S
C432 C394 1.389 . S
C432 C414 1.392 . S
C433 C404 1.392 . S
C433 C406 1.389 . S
C434 C409 1.395 . S
C434 C411 1.391 1_545 S
H435 C395 0.951 . S
H436 C396 0.950 . S
H437 C402 0.949 . S
H438 C403 0.950 . S
H439 C407 0.951 . S
H440 C408 0.950 . S
H441 C412 0.949 . S
H442 C413 0.950 . S
H443 C417 0.950 . S
H444 C419 0.950 . S
H445 C422 0.950 . S
H446 C424 0.950 . S
C447 C448 1.443 . S
C447 N451 1.376 . S
C447 C485 1.389 . S
C448 C447 1.443 . S
C448 C449 1.340 . S
C448 H488 0.951 . S
C449 C448 1.340 . S
C449 C450 1.439 . S
C449 H489 0.950 . S
C450 C449 1.439 . S
C450 N451 1.374 . S
C450 C484 1.395 . S
N451 C447 1.376 . S
N451 C450 1.374 . S
N451 Co452 2.008 . S
Co452 N451 2.008 . S
Co452 N453 2.006 . S
Co452 N458 1.988 1_554 S
Co452 N463 1.995 . S
Co452 N468 2.282 1_554 S
Co452 N474 2.282 . S
N453 Co452 2.006 . S
N453 C454 1.380 . S
N453 C457 1.364 1_554 S
C454 N453 1.380 . S
C454 C455 1.446 1_554 S
C454 C484 1.391 . S
C455 C454 1.446 1_556 S
C455 C456 1.339 . S
C455 H490 0.949 . S
C456 C455 1.339 . S
C456 C457 1.439 . S
C456 H491 0.950 . S
C457 N453 1.364 1_556 S
C457 C456 1.439 . S
C457 C486 1.392 . S
N458 Co452 1.988 1_556 S
N458 C459 1.405 . S
N458 C462 1.375 1_556 S
C459 N458 1.405 . S
C459 C460 1.443 . S
C459 C486 1.389 . S
C460 C459 1.443 . S
C460 C461 1.340 . S
C460 H492 0.951 . S
C461 C460 1.340 . S
C461 C462 1.417 1_556 S
C461 H493 0.950 . S
C462 N458 1.375 1_554 S
C462 C461 1.417 1_554 S
C462 C487 1.413 . S
N463 Co452 1.995 . S
N463 C464 1.376 . S
N463 C467 1.383 . S
C464 N463 1.376 . S
C464 C465 1.446 . S
C464 C487 1.391 . S
C465 C464 1.446 . S
C465 C466 1.339 . S
C465 H494 0.949 . S
C466 C465 1.339 . S
C466 C467 1.439 . S
C466 H495 0.950 . S
C467 N463 1.383 . S
C467 C466 1.439 . S
C467 C485 1.392 . S
N468 Co452 2.282 1_556 S
N468 C471 1.332 . S
N468 C473 1.332 . S
C469 C470 1.386 . S
C469 C472 1.388 . S
C470 C469 1.386 . S
C470 C471 1.382 . S
C470 H496 0.950 . S
C471 N468 1.332 . S
C471 C470 1.382 . S
C471 H482 0.952 . S
C472 C469 1.388 . S
C472 C473 1.382 . S
C472 H497 0.950 . S
C473 N468 1.332 . S
C473 C472 1.382 . S
C473 H483 0.948 . S
N474 Co452 2.282 . S
N474 C478 1.332 . S
N474 C479 1.332 . S
C475 C476 1.388 . S
C475 C479 1.382 . S
C475 H498 0.950 . S
C476 C475 1.388 . S
C476 C477 1.386 . S
C477 C476 1.386 . S
C477 C478 1.382 . S
C477 H499 0.950 . S
C478 N474 1.332 . S
C478 C477 1.382 . S
C478 H480 0.952 . S
C479 N474 1.332 . S
C479 C475 1.382 . S
C479 H481 0.948 . S
H480 C478 0.952 . S
H481 C479 0.948 . S
H482 C471 0.952 . S
H483 C473 0.948 . S
C484 C450 1.395 . S
C484 C454 1.391 . S
C485 C447 1.389 . S
C485 C467 1.392 . S
C486 C457 1.392 . S
C486 C459 1.389 . S
C487 C462 1.413 . S
C487 C464 1.391 . S
H488 C448 0.951 . S
H489 C449 0.950 . S
H490 C455 0.949 . S
H491 C456 0.950 . S
H492 C460 0.951 . S
H493 C461 0.950 . S
H494 C465 0.949 . S
H495 C466 0.950 . S
H496 C470 0.950 . S
H497 C472 0.950 . S
H498 C475 0.950 . S
H499 C477 0.950 . S
C500 C501 1.443 . S
C500 N504 1.376 1_565 S
C500 C538 1.389 . S
C501 C500 1.443 . S
C501 C502 1.340 . S
C501 H541 0.951 . S
C502 C501 1.340 . S
C502 C503 1.439 1_565 S
C502 H542 0.950 . S
C503 C502 1.439 1_545 S
C503 N504 1.374 . S
C503 C537 1.395 . S
N504 C500 1.376 1_545 S
N504 C503 1.374 . S
N504 Co505 2.008 . S
Co505 N504 2.008 . S
Co505 N506 1.995 . S
Co505 N511 2.008 . S
Co505 N516 1.995 . S
Co505 N521 2.282 . S
Co505 N527 2.282 1_545 S
N506 Co505 1.995 . S
N506 C507 1.376 . S
N506 C510 1.383 . S
C507 N506 1.376 . S
C507 C508 1.446 . S
C507 C537 1.391 . S
C508 C507 1.446 . S
C508 C509 1.339 . S
C508 H543 0.949 . S
C509 C508 1.339 . S
C509 C510 1.439 . S
C509 H544 0.950 . S
C510 N506 1.383 . S
C510 C509 1.439 . S
C510 C539 1.392 . S
N511 Co505 2.008 . S
N511 C512 1.376 . S
N511 C515 1.374 . S
C512 N511 1.376 . S
C512 C513 1.443 . S
C512 C539 1.389 . S
C513 C512 1.443 . S
C513 C514 1.340 . S
C513 H545 0.951 . S
C514 C513 1.340 . S
C514 C515 1.439 . S
C514 H546 0.950 . S
C515 N511 1.374 . S
C515 C514 1.439 . S
C515 C540 1.395 . S
N516 Co505 1.995 . S
N516 C517 1.376 . S
N516 C520 1.383 1_545 S
C517 N516 1.376 . S
C517 C518 1.446 1_545 S
C517 C540 1.391 . S
C518 C517 1.446 1_565 S
C518 C519 1.339 . S
C518 H547 0.949 . S
C519 C518 1.339 . S
C519 C520 1.439 . S
C519 H548 0.950 . S
C520 N516 1.383 1_565 S
C520 C519 1.439 . S
C520 C538 1.392 . S
N521 Co505 2.282 . S
N521 C524 1.332 . S
N521 C526 1.332 . S
C522 C523 1.386 . S
C522 C525 1.388 . S
C523 C522 1.386 . S
C523 C524 1.382 . S
C523 H549 0.950 . S
C524 N521 1.332 . S
C524 C523 1.382 . S
C524 H535 0.952 . S
C525 C522 1.388 . S
C525 C526 1.382 . S
C525 H550 0.950 . S
C526 N521 1.332 . S
C526 C525 1.382 . S
C526 H536 0.948 . S
N527 Co505 2.282 1_565 S
N527 C531 1.332 . S
N527 C532 1.332 . S
C528 C529 1.388 . S
C528 C532 1.382 . S
C528 H551 0.950 . S
C529 C528 1.388 . S
C529 C530 1.386 . S
C530 C529 1.386 . S
C530 C531 1.382 . S
C530 H552 0.950 . S
C531 N527 1.332 . S
C531 C530 1.382 . S
C531 H533 0.952 . S
C532 N527 1.332 . S
C532 C528 1.382 . S
C532 H534 0.948 . S
H533 C531 0.952 . S
H534 C532 0.948 . S
H535 C524 0.952 . S
H536 C526 0.948 . S
C537 C503 1.395 . S
C537 C507 1.391 . S
C538 C500 1.389 . S
C538 C520 1.392 . S
C539 C510 1.392 . S
C539 C512 1.389 . S
C540 C515 1.395 . S
C540 C517 1.391 . S
H541 C501 0.951 . S
H542 C502 0.950 . S
H543 C508 0.949 . S
H544 C509 0.950 . S
H545 C513 0.951 . S
H546 C514 0.950 . S
H547 C518 0.949 . S
H548 C519 0.950 . S
H549 C523 0.950 . S
H550 C525 0.950 . S
H551 C528 0.950 . S
H552 C530 0.950 . S
C553 C554 1.443 . S
C553 N557 1.376 . S
C553 C591 1.389 . S
C554 C553 1.443 . S
C554 C555 1.340 . S
C554 H594 0.951 . S
C555 C554 1.340 . S
C555 C556 1.439 . S
C555 H595 0.950 . S
C556 C555 1.439 . S
C556 N557 1.374 . S
C556 C590 1.395 . S
N557 C553 1.376 . S
N557 C556 1.374 . S
N557 Co558 2.008 . S
Co558 N557 2.008 . S
Co558 N559 1.995 . S
Co558 N564 2.008 . S
Co558 N569 1.995 . S
Co558 N574 2.285 . S
Co558 N580 2.282 . S
N559 Co558 1.995 . S
N559 C560 1.376 . S
N559 C563 1.383 1_554 S
C560 N559 1.376 . S
C560 C561 1.446 1_554 S
C560 C590 1.391 . S
C561 C560 1.446 1_556 S
C561 C562 1.339 . S
C561 H596 0.949 . S
C562 C561 1.339 . S
C562 C563 1.439 . S
C562 H597 0.950 . S
C563 N559 1.383 1_556 S
C563 C562 1.439 . S
C563 C592 1.392 . S
N564 Co558 2.008 . S
N564 C565 1.376 1_554 S
N564 C568 1.374 . S
C565 N564 1.376 1_556 S
C565 C566 1.443 . S
C565 C592 1.389 . S
C566 C565 1.443 . S
C566 C567 1.340 . S
C566 H598 0.951 . S
C567 C566 1.340 . S
C567 C568 1.439 1_556 S
C567 H599 0.950 . S
C568 N564 1.374 . S
C568 C567 1.439 1_554 S
C568 C593 1.395 . S
N569 Co558 1.995 . S
N569 C570 1.376 . S
N569 C573 1.383 . S
C570 N569 1.376 . S
C570 C571 1.446 . S
C570 C593 1.391 . S
C571 C570 1.446 . S
C571 C572 1.339 . S
C571 H600 0.949 . S
C572 C571 1.339 . S
C572 C573 1.439 . S
C572 H601 0.950 . S
C573 N569 1.383 . S
C573 C572 1.439 . S
C573 C591 1.392 . S
N574 Co558 2.285 . S
N574 C577 1.331 1_554 S
N574 C579 1.330 1_554 S
C575 C576 1.386 . S
C575 C578 1.388 . S
C576 C575 1.386 . S
C576 C577 1.382 . S
C576 H602 0.950 . S
C577 N574 1.331 1_556 S
C577 C576 1.382 . S
C577 H588 0.952 1_556 S
C578 C575 1.388 . S
C578 C579 1.382 . S
C578 H603 0.950 . S
C579 N574 1.330 1_556 S
C579 C578 1.382 . S
C579 H589 0.948 . S
N580 Co558 2.282 . S
N580 C584 1.332 . S
N580 C585 1.332 . S
C581 C582 1.388 . S
C581 C585 1.382 . S
C581 H604 0.950 . S
C582 C581 1.388 . S
C582 C583 1.386 . S
C583 C582 1.386 . S
C583 C584 1.382 . S
C583 H605 0.950 . S
C584 N580 1.332 . S
C584 C583 1.382 . S
C584 H586 0.952 . S
C585 N580 1.332 . S
C585 C581 1.382 . S
C585 H587 0.948 . S
H586 C584 0.952 . S
H587 C585 0.948 . S
H588 C577 0.952 1_554 S
H589 C579 0.948 . S
C590 C556 1.395 . S
C590 C560 1.391 . S
C591 C553 1.389 . S
C591 C573 1.392 . S
C592 C563 1.392 . S
C592 C565 1.389 . S
C593 C568 1.395 . S
C593 C570 1.391 . S
H594 C554 0.951 . S
H595 C555 0.950 . S
H596 C561 0.949 . S
H597 C562 0.950 . S
H598 C566 0.951 . S
H599 C567 0.950 . S
H600 C571 0.949 . S
H601 C572 0.950 . S
H602 C576 0.950 . S
H603 C578 0.950 . S
H604 C581 0.950 . S
H605 C583 0.950 . S
H606 C612 0.930 . S
H607 C615 0.930 . S
H608 C616 0.930 . S
H609 C617 0.930 . S
H610 C620 0.930 . S
H611 C621 0.930 . S
C612 H606 0.930 . S
C612 C613 1.355 . S
C612 C614 1.415 . S
C613 C612 1.355 . S
C613 C615 1.419 . S
C614 C612 1.415 . S
C614 C619 1.425 . S
C614 C621 1.409 . S
C615 H607 0.930 . S
C615 C613 1.419 . S
C615 C616 1.362 . S
C616 H608 0.930 . S
C616 C615 1.362 . S
C616 C619 1.409 . S
C617 H609 0.930 . S
C617 C618 1.355 . S
C617 C619 1.415 . S
C618 C617 1.355 . S
C618 C620 1.419 . S
C619 C614 1.425 . S
C619 C616 1.409 . S
C619 C617 1.415 . S
C620 H610 0.930 . S
C620 C618 1.419 . S
C620 C621 1.362 . S
C621 H611 0.930 . S
C621 C614 1.409 . S
C621 C620 1.362 . S
H622 C628 0.930 . S
H623 C631 0.930 . S
H624 C632 0.930 . S
H625 C633 0.930 . S
H626 C636 0.930 . S
H627 C637 0.930 . S
C628 H622 0.930 . S
C628 C629 1.355 . S
C628 C630 1.415 . S
C629 C628 1.355 . S
C629 C631 1.419 . S
C630 C628 1.415 . S
C630 C635 1.425 . S
C630 C637 1.409 . S
C631 H623 0.930 . S
C631 C629 1.419 . S
C631 C632 1.362 . S
C632 H624 0.930 . S
C632 C631 1.362 . S
C632 C635 1.409 . S
C633 H625 0.930 . S
C633 C634 1.355 . S
C633 C635 1.415 . S
C634 C633 1.355 . S
C634 C636 1.419 . S
C635 C630 1.425 . S
C635 C632 1.409 . S
C635 C633 1.415 . S
C636 H626 0.930 . S
C636 C634 1.419 . S
C636 C637 1.362 . S
C637 H627 0.930 . S
C637 C630 1.409 . S
C637 C636 1.362 . S
H638 C644 0.930 . S
H639 C647 0.930 . S
H640 C648 0.930 . S
H641 C649 0.930 . S
H642 C652 0.930 . S
H643 C653 0.930 . S
C644 H638 0.930 . S
C644 C645 1.355 . S
C644 C646 1.415 . S
C645 C644 1.355 . S
C645 C647 1.419 . S
C646 C644 1.415 . S
C646 C651 1.425 . S
C646 C653 1.409 . S
C647 H639 0.930 . S
C647 C645 1.419 . S
C647 C648 1.362 . S
C648 H640 0.930 . S
C648 C647 1.362 . S
C648 C651 1.409 . S
C649 H641 0.930 . S
C649 C650 1.355 . S
C649 C651 1.415 . S
C650 C649 1.355 . S
C650 C652 1.419 . S
C651 C646 1.425 . S
C651 C648 1.409 . S
C651 C649 1.415 . S
C652 H642 0.930 . S
C652 C650 1.419 . S
C652 C653 1.362 . S
C653 H643 0.930 . S
C653 C646 1.409 . S
C653 C652 1.362 . S
H654 C660 0.930 . S
H655 C663 0.930 . S
H656 C664 0.930 . S
H657 C665 0.930 . S
H658 C668 0.930 . S
H659 C669 0.930 . S
C660 H654 0.930 . S
C660 C661 1.355 . S
C660 C662 1.415 . S
C661 C660 1.355 . S
C661 C663 1.419 . S
C662 C660 1.415 . S
C662 C667 1.425 . S
C662 C669 1.409 . S
C663 H655 0.930 . S
C663 C661 1.419 . S
C663 C664 1.362 . S
C664 H656 0.930 . S
C664 C663 1.362 . S
C664 C667 1.409 . S
C665 H657 0.930 . S
C665 C666 1.355 . S
C665 C667 1.415 . S
C666 C665 1.355 . S
C666 C668 1.419 . S
C667 C662 1.425 . S
C667 C664 1.409 . S
C667 C665 1.415 . S
C668 H658 0.930 . S
C668 C666 1.419 . S
C668 C669 1.362 . S
C669 H659 0.930 . S
C669 C662 1.409 . S
C669 C668 1.362 . S
H670 C676 0.930 . S
H671 C679 0.930 . S
H672 C680 0.930 . S
H673 C681 0.930 . S
H674 C684 0.930 . S
H675 C685 0.930 . S
C676 H670 0.930 . S
C676 C677 1.355 . S
C676 C678 1.415 . S
C677 C676 1.355 . S
C677 C679 1.419 . S
C678 C676 1.415 . S
C678 C683 1.425 . S
C678 C685 1.409 . S
C679 H671 0.930 . S
C679 C677 1.419 . S
C679 C680 1.362 . S
C680 H672 0.930 . S
C680 C679 1.362 . S
C680 C683 1.409 . S
C681 H673 0.930 . S
C681 C682 1.355 . S
C681 C683 1.415 . S
C682 C681 1.355 . S
C682 C684 1.419 . S
C683 C678 1.425 . S
C683 C680 1.409 . S
C683 C681 1.415 . S
C684 H674 0.930 . S
C684 C682 1.419 . S
C684 C685 1.362 . S
C685 H675 0.930 . S
C685 C678 1.409 . S
C685 C684 1.362 . S
H686 C692 0.930 . S
H687 C695 0.930 . S
H688 C696 0.930 . S
H689 C697 0.930 . S
H690 C700 0.930 . S
H691 C701 0.930 . S
C692 H686 0.930 . S
C692 C693 1.355 . S
C692 C694 1.415 . S
C693 C692 1.355 . S
C693 C695 1.419 . S
C694 C692 1.415 . S
C694 C699 1.425 . S
C694 C701 1.409 . S
C695 H687 0.930 . S
C695 C693 1.419 . S
C695 C696 1.362 . S
C696 H688 0.930 . S
C696 C695 1.362 . S
C696 C699 1.409 . S
C697 H689 0.930 . S
C697 C698 1.355 . S
C697 C699 1.415 . S
C698 C697 1.355 . S
C698 C700 1.419 . S
C699 C694 1.425 . S
C699 C696 1.409 . S
C699 C697 1.415 . S
C700 H690 0.930 . S
C700 C698 1.419 . S
C700 C701 1.362 . S
C701 H691 0.930 . S
C701 C694 1.409 . S
C701 C700 1.362 . S
H702 C708 0.930 . S
H703 C711 0.930 . S
H704 C712 0.930 . S
H705 C713 0.930 . S
H706 C716 0.930 . S
H707 C717 0.930 . S
C708 H702 0.930 . S
C708 C709 1.355 . S
C708 C710 1.415 . S
C709 C708 1.355 . S
C709 C711 1.419 . S
C710 C708 1.415 . S
C710 C715 1.425 . S
C710 C717 1.409 . S
C711 H703 0.930 . S
C711 C709 1.419 . S
C711 C712 1.362 . S
C712 H704 0.930 . S
C712 C711 1.362 . S
C712 C715 1.409 . S
C713 H705 0.930 . S
C713 C714 1.355 . S
C713 C715 1.415 . S
C714 C713 1.355 . S
C714 C716 1.419 . S
C715 C710 1.425 . S
C715 C712 1.409 . S
C715 C713 1.415 . S
C716 H706 0.930 . S
C716 C714 1.419 . S
C716 C717 1.362 . S
C717 H707 0.930 . S
C717 C710 1.409 . S
C717 C716 1.362 . S
H718 C724 0.930 . S
H719 C727 0.930 . S
H720 C728 0.930 . S
H721 C729 0.930 . S
H722 C732 0.930 . S
H723 C733 0.930 . S
C724 H718 0.930 . S
C724 C725 1.355 . S
C724 C726 1.415 . S
C725 C724 1.355 . S
C725 C727 1.419 . S
C726 C724 1.415 . S
C726 C731 1.425 . S
C726 C733 1.409 . S
C727 H719 0.930 . S
C727 C725 1.419 . S
C727 C728 1.362 . S
C728 H720 0.930 . S
C728 C727 1.362 . S
C728 C731 1.409 . S
C729 H721 0.930 . S
C729 C730 1.355 . S
C729 C731 1.415 . S
C730 C729 1.355 . S
C730 C732 1.419 . S
C731 C726 1.425 . S
C731 C728 1.409 . S
C731 C729 1.415 . S
C732 H722 0.930 . S
C732 C730 1.419 . S
C732 C733 1.362 . S
C733 H723 0.930 . S
C733 C726 1.409 . S
C733 C732 1.362 . S
H734 C740 0.930 . S
H735 C743 0.930 . S
H736 C744 0.930 . S
H737 C745 0.930 . S
H738 C748 0.930 . S
H739 C749 0.930 . S
C740 H734 0.930 . S
C740 C741 1.355 . S
C740 C742 1.415 . S
C741 C740 1.355 . S
C741 C743 1.419 . S
C742 C740 1.415 . S
C742 C747 1.425 . S
C742 C749 1.409 . S
C743 H735 0.930 . S
C743 C741 1.419 . S
C743 C744 1.362 . S
C744 H736 0.930 . S
C744 C743 1.362 . S
C744 C747 1.409 . S
C745 H737 0.930 . S
C745 C746 1.355 . S
C745 C747 1.415 . S
C746 C745 1.355 . S
C746 C748 1.419 . S
C747 C742 1.425 . S
C747 C744 1.409 . S
C747 C745 1.415 . S
C748 H738 0.930 . S
C748 C746 1.419 . S
C748 C749 1.362 . S
C749 H739 0.930 . S
C749 C742 1.409 . S
C749 C748 1.362 . S
H750 C756 0.930 . S
H751 C759 0.930 . S
H752 C760 0.930 . S
H753 C761 0.930 . S
H754 C764 0.930 . S
H755 C765 0.930 . S
C756 H750 0.930 . S
C756 C757 1.355 . S
C756 C758 1.415 . S
C757 C756 1.355 . S
C757 C759 1.419 . S
C758 C756 1.415 . S
C758 C763 1.425 . S
C758 C765 1.409 . S
C759 H751 0.930 . S
C759 C757 1.419 . S
C759 C760 1.362 . S
C760 H752 0.930 . S
C760 C759 1.362 . S
C760 C763 1.409 . S
C761 H753 0.930 . S
C761 C762 1.355 . S
C761 C763 1.415 . S
C762 C761 1.355 . S
C762 C764 1.419 . S
C763 C758 1.425 . S
C763 C760 1.409 . S
C763 C761 1.415 . S
C764 H754 0.930 . S
C764 C762 1.419 . S
C764 C765 1.362 . S
C765 H755 0.930 . S
C765 C758 1.409 . S
C765 C764 1.362 . S
H766 C772 0.930 . S
H767 C775 0.930 . S
H768 C776 0.930 . S
H769 C777 0.930 . S
H770 C780 0.930 . S
H771 C781 0.930 . S
C772 H766 0.930 . S
C772 C773 1.355 . S
C772 C774 1.415 . S
C773 C772 1.355 . S
C773 C775 1.419 . S
C774 C772 1.415 . S
C774 C779 1.425 . S
C774 C781 1.409 . S
C775 H767 0.930 . S
C775 C773 1.419 . S
C775 C776 1.362 . S
C776 H768 0.930 . S
C776 C775 1.362 . S
C776 C779 1.409 . S
C777 H769 0.930 . S
C777 C778 1.355 . S
C777 C779 1.415 . S
C778 C777 1.355 . S
C778 C780 1.419 . S
C779 C774 1.425 . S
C779 C776 1.409 . S
C779 C777 1.415 . S
C780 H770 0.930 . S
C780 C778 1.419 . S
C780 C781 1.362 . S
C781 H771 0.930 . S
C781 C774 1.409 . S
C781 C780 1.362 . S
H782 C788 0.930 . S
H783 C791 0.930 . S
H784 C792 0.930 . S
H785 C793 0.930 . S
H786 C796 0.930 . S
H787 C797 0.930 . S
C788 H782 0.930 . S
C788 C789 1.355 . S
C788 C790 1.415 . S
C789 C788 1.355 . S
C789 C791 1.419 . S
C790 C788 1.415 . S
C790 C795 1.425 . S
C790 C797 1.409 . S
C791 H783 0.930 . S
C791 C789 1.419 . S
C791 C792 1.362 . S
C792 H784 0.930 . S
C792 C791 1.362 . S
C792 C795 1.409 . S
C793 H785 0.930 . S
C793 C794 1.355 . S
C793 C795 1.415 . S
C794 C793 1.355 . S
C794 C796 1.419 . S
C795 C790 1.425 . S
C795 C792 1.409 . S
C795 C793 1.415 . S
C796 H786 0.930 . S
C796 C794 1.419 . S
C796 C797 1.362 . S
C797 H787 0.930 . S
C797 C790 1.409 . S
C797 C796 1.362 . S
H798 C804 0.930 . S
H799 C807 0.930 . S
H800 C808 0.930 . S
H801 C809 0.930 . S
H802 C812 0.930 . S
H803 C813 0.930 . S
C804 H798 0.930 . S
C804 C805 1.355 . S
C804 C806 1.415 . S
C805 C804 1.355 . S
C805 C807 1.419 . S
C806 C804 1.415 . S
C806 C811 1.425 . S
C806 C813 1.409 . S
C807 H799 0.930 . S
C807 C805 1.419 . S
C807 C808 1.362 . S
C808 H800 0.930 . S
C808 C807 1.362 . S
C808 C811 1.409 . S
C809 H801 0.930 . S
C809 C810 1.355 . S
C809 C811 1.415 . S
C810 C809 1.355 . S
C810 C812 1.419 . S
C811 C806 1.425 . S
C811 C808 1.409 . S
C811 C809 1.415 . S
C812 H802 0.930 . S
C812 C810 1.419 . S
C812 C813 1.362 . S
C813 H803 0.930 . S
C813 C806 1.409 . S
C813 C812 1.362 . S
H814 C820 0.930 . S
H815 C823 0.930 . S
H816 C824 0.930 . S
H817 C825 0.930 . S
H818 C828 0.930 . S
H819 C829 0.930 . S
C820 H814 0.930 . S
C820 C821 1.355 . S
C820 C822 1.415 . S
C821 C820 1.355 . S
C821 C823 1.419 . S
C822 C820 1.415 . S
C822 C827 1.425 . S
C822 C829 1.409 . S
C823 H815 0.930 . S
C823 C821 1.419 . S
C823 C824 1.362 . S
C824 H816 0.930 . S
C824 C823 1.362 . S
C824 C827 1.409 . S
C825 H817 0.930 . S
C825 C826 1.355 . S
C825 C827 1.415 . S
C826 C825 1.355 . S
C826 C828 1.419 . S
C827 C822 1.425 . S
C827 C824 1.409 . S
C827 C825 1.415 . S
C828 H818 0.930 . S
C828 C826 1.419 . S
C828 C829 1.362 . S
C829 H819 0.930 . S
C829 C822 1.409 . S
C829 C828 1.362 . S
H830 C836 0.930 . S
H831 C839 0.930 . S
H832 C840 0.930 . S
H833 C841 0.930 . S
H834 C844 0.930 . S
H835 C845 0.930 . S
C836 H830 0.930 . S
C836 C837 1.355 . S
C836 C838 1.415 . S
C837 C836 1.355 . S
C837 C839 1.419 . S
C838 C836 1.415 . S
C838 C843 1.425 . S
C838 C845 1.409 . S
C839 H831 0.930 . S
C839 C837 1.419 . S
C839 C840 1.362 . S
C840 H832 0.930 . S
C840 C839 1.362 . S
C840 C843 1.409 . S
C841 H833 0.930 . S
C841 C842 1.355 . S
C841 C843 1.415 . S
C842 C841 1.355 . S
C842 C844 1.419 . S
C843 C838 1.425 . S
C843 C840 1.409 . S
C843 C841 1.415 . S
C844 H834 0.930 . S
C844 C842 1.419 . S
C844 C845 1.362 . S
C845 H835 0.930 . S
C845 C838 1.409 . S
C845 C844 1.362 . S
H846 C852 0.930 . S
H847 C855 0.930 . S
H848 C856 0.930 . S
H849 C857 0.930 . S
H850 C860 0.930 . S
H851 C861 0.930 . S
C852 H846 0.930 . S
C852 C853 1.355 . S
C852 C854 1.415 . S
C853 C852 1.355 . S
C853 C855 1.419 . S
C854 C852 1.415 . S
C854 C859 1.425 . S
C854 C861 1.409 . S
C855 H847 0.930 . S
C855 C853 1.419 . S
C855 C856 1.362 . S
C856 H848 0.930 . S
C856 C855 1.362 . S
C856 C859 1.409 . S
C857 H849 0.930 . S
C857 C858 1.355 . S
C857 C859 1.415 . S
C858 C857 1.355 . S
C858 C860 1.419 . S
C859 C854 1.425 . S
C859 C856 1.409 . S
C859 C857 1.415 . S
C860 H850 0.930 . S
C860 C858 1.419 . S
C860 C861 1.362 . S
C861 H851 0.930 . S
C861 C854 1.409 . S
C861 C860 1.362 . S
H862 C868 0.930 . S
H863 C871 0.930 . S
H864 C872 0.930 . S
H865 C873 0.930 . S
H866 C876 0.930 . S
H867 C877 0.930 . S
C868 H862 0.930 . S
C868 C869 1.355 . S
C868 C870 1.415 . S
C869 C868 1.355 . S
C869 C871 1.419 . S
C870 C868 1.415 . S
C870 C875 1.425 . S
C870 C877 1.409 . S
C871 H863 0.930 . S
C871 C869 1.419 . S
C871 C872 1.362 . S
C872 H864 0.930 . S
C872 C871 1.362 . S
C872 C875 1.409 . S
C873 H865 0.930 . S
C873 C874 1.355 . S
C873 C875 1.415 . S
C874 C873 1.355 . S
C874 C876 1.419 . S
C875 C870 1.425 . S
C875 C872 1.409 . S
C875 C873 1.415 . S
C876 H866 0.930 . S
C876 C874 1.419 . S
C876 C877 1.362 . S
C877 H867 0.930 . S
C877 C870 1.409 . S
C877 C876 1.362 . S
H878 C884 0.930 . S
H879 C887 0.930 . S
H880 C888 0.930 . S
H881 C889 0.930 . S
H882 C892 0.930 . S
H883 C893 0.930 . S
C884 H878 0.930 . S
C884 C885 1.355 . S
C884 C886 1.415 . S
C885 C884 1.355 . S
C885 C887 1.419 . S
C886 C884 1.415 . S
C886 C891 1.425 . S
C886 C893 1.409 . S
C887 H879 0.930 . S
C887 C885 1.419 . S
C887 C888 1.362 . S
C888 H880 0.930 . S
C888 C887 1.362 . S
C888 C891 1.409 . S
C889 H881 0.930 . S
C889 C890 1.355 . S
C889 C891 1.415 . S
C890 C889 1.355 . S
C890 C892 1.419 . S
C891 C886 1.425 . S
C891 C888 1.409 . S
C891 C889 1.415 . S
C892 H882 0.930 . S
C892 C890 1.419 . S
C892 C893 1.362 . S
C893 H883 0.930 . S
C893 C886 1.409 . S
C893 C892 1.362 . S
H894 C900 0.930 . S
H895 C903 0.930 . S
H896 C904 0.930 . S
H897 C905 0.930 . S
H898 C908 0.930 . S
H899 C909 0.930 . S
C900 H894 0.930 . S
C900 C901 1.355 . S
C900 C902 1.415 . S
C901 C900 1.355 . S
C901 C903 1.419 . S
C902 C900 1.415 . S
C902 C907 1.425 . S
C902 C909 1.409 . S
C903 H895 0.930 . S
C903 C901 1.419 . S
C903 C904 1.362 . S
C904 H896 0.930 . S
C904 C903 1.362 . S
C904 C907 1.409 . S
C905 H897 0.930 . S
C905 C906 1.355 . S
C905 C907 1.415 . S
C906 C905 1.355 . S
C906 C908 1.419 . S
C907 C902 1.425 . S
C907 C904 1.409 . S
C907 C905 1.415 . S
C908 H898 0.930 . S
C908 C906 1.419 . S
C908 C909 1.362 . S
C909 H899 0.930 . S
C909 C902 1.409 . S
C909 C908 1.362 . S
H910 C916 0.930 . S
H911 C919 0.930 . S
H912 C920 0.930 . S
H913 C921 0.930 . S
H914 C924 0.930 . S
H915 C925 0.930 . S
C916 H910 0.930 . S
C916 C917 1.355 . S
C916 C918 1.415 . S
C917 C916 1.355 . S
C917 C919 1.419 . S
C918 C916 1.415 . S
C918 C923 1.425 . S
C918 C925 1.409 . S
C919 H911 0.930 . S
C919 C917 1.419 . S
C919 C920 1.362 . S
C920 H912 0.930 . S
C920 C919 1.362 . S
C920 C923 1.409 . S
C921 H913 0.930 . S
C921 C922 1.355 . S
C921 C923 1.415 . S
C922 C921 1.355 . S
C922 C924 1.419 . S
C923 C918 1.425 . S
C923 C920 1.409 . S
C923 C921 1.415 . S
C924 H914 0.930 . S
C924 C922 1.419 . S
C924 C925 1.362 . S
C925 H915 0.930 . S
C925 C918 1.409 . S
C925 C924 1.362 . S
H926 C932 0.930 . S
H927 C935 0.930 . S
H928 C936 0.930 . S
H929 C937 0.930 . S
H930 C940 0.930 . S
H931 C941 0.930 . S
C932 H926 0.930 . S
C932 C933 1.355 . S
C932 C934 1.415 . S
C933 C932 1.355 . S
C933 C935 1.419 . S
C934 C932 1.415 . S
C934 C939 1.425 . S
C934 C941 1.409 . S
C935 H927 0.930 . S
C935 C933 1.419 . S
C935 C936 1.362 . S
C936 H928 0.930 . S
C936 C935 1.362 . S
C936 C939 1.409 . S
C937 H929 0.930 . S
C937 C938 1.355 . S
C937 C939 1.415 . S
C938 C937 1.355 . S
C938 C940 1.419 . S
C939 C934 1.425 . S
C939 C936 1.409 . S
C939 C937 1.415 . S
C940 H930 0.930 . S
C940 C938 1.419 . S
C940 C941 1.362 . S
C941 H931 0.930 . S
C941 C934 1.409 . S
C941 C940 1.362 . S
H942 C948 0.930 . S
H943 C951 0.930 . S
H944 C952 0.930 . S
H945 C953 0.930 . S
H946 C956 0.930 . S
H947 C957 0.930 . S
C948 H942 0.930 . S
C948 C949 1.355 . S
C948 C950 1.415 . S
C949 C948 1.355 . S
C949 C951 1.419 . S
C950 C948 1.415 . S
C950 C955 1.425 . S
C950 C957 1.409 . S
C951 H943 0.930 . S
C951 C949 1.419 . S
C951 C952 1.362 . S
C952 H944 0.930 . S
C952 C951 1.362 . S
C952 C955 1.409 . S
C953 H945 0.930 . S
C953 C954 1.355 . S
C953 C955 1.415 . S
C954 C953 1.355 . S
C954 C956 1.419 . S
C955 C950 1.425 . S
C955 C952 1.409 . S
C955 C953 1.415 . S
C956 H946 0.930 . S
C956 C954 1.419 . S
C956 C957 1.362 . S
C957 H947 0.930 . S
C957 C950 1.409 . S
C957 C956 1.362 . S
H958 C964 0.930 . S
H959 C967 0.930 . S
H960 C968 0.930 . S
H961 C969 0.930 . S
H962 C972 0.930 . S
H963 C973 0.930 . S
C964 H958 0.930 . S
C964 C965 1.355 . S
C964 C966 1.415 . S
C965 C964 1.355 . S
C965 C967 1.419 . S
C966 C964 1.415 . S
C966 C971 1.425 . S
C966 C973 1.409 . S
C967 H959 0.930 . S
C967 C965 1.419 . S
C967 C968 1.362 . S
C968 H960 0.930 . S
C968 C967 1.362 . S
C968 C971 1.409 . S
C969 H961 0.930 . S
C969 C970 1.355 . S
C969 C971 1.415 . S
C970 C969 1.355 . S
C970 C972 1.419 . S
C971 C966 1.425 . S
C971 C968 1.409 . S
C971 C969 1.415 . S
C972 H962 0.930 . S
C972 C970 1.419 . S
C972 C973 1.362 . S
C973 H963 0.930 . S
C973 C966 1.409 . S
C973 C972 1.362 . S
H974 C980 0.930 . S
H975 C983 0.930 . S
H976 C984 0.930 . S
H977 C985 0.930 . S
H978 C988 0.930 . S
H979 C989 0.930 . S
C980 H974 0.930 . S
C980 C981 1.355 . S
C980 C982 1.415 . S
C981 C980 1.355 . S
C981 C983 1.419 . S
C982 C980 1.415 . S
C982 C987 1.425 . S
C982 C989 1.409 . S
C983 H975 0.930 . S
C983 C981 1.419 . S
C983 C984 1.362 . S
C984 H976 0.930 . S
C984 C983 1.362 . S
C984 C987 1.409 . S
C985 H977 0.930 . S
C985 C986 1.355 . S
C985 C987 1.415 . S
C986 C985 1.355 . S
C986 C988 1.419 . S
C987 C982 1.425 . S
C987 C984 1.409 . S
C987 C985 1.415 . S
C988 H978 0.930 . S
C988 C986 1.419 . S
C988 C989 1.362 . S
C989 H979 0.930 . S
C989 C982 1.409 . S
C989 C988 1.362 . S
C618 C310 1.549 . S
C613 C25 1.544 . S
C634 C379 1.523 . S
C629 C37 1.534 . S
C650 C317 1.565 . S
C645 C103 1.560 . S
C666 C380 1.538 . S
C661 C139 1.547 . S
C682 C433 1.543 . S
C677 C31 1.550 . S
C698 C469 1.517 . S
C693 C67 1.519 . S
C709 C97 1.546 . S
C714 C529 1.564 . S
C730 C592 1.511 . S
C725 C133 1.514 . S
C746 C432 1.542 . S
C741 C61 1.540 . S
C757 C73 1.499 . S
C762 C476 1.519 . S
C778 C522 1.565 . S
C773 C109 1.562 . S
C794 C591 1.527 . S
C789 C1 1.520 . S
C805 C169 1.526 . S
C810 C370 1.544 . S
C826 C327 1.553 . S
C821 C211 1.548 . S
C837 C241 1.537 . S
C842 C363 1.539 . S
C853 C253 1.524 . S
C858 C326 1.530 . S
C874 C538 1.560 . S
C869 C175 1.536 . S
C890 C582 1.513 . S
C885 C205 1.492 . S
C906 C416 1.531 . S
C901 C217 1.544 . S
C917 C283 1.503 . S
C922 C485 1.526 . S
C938 C539 1.537 . S
C933 C181 1.548 . S
C954 C575 1.510 . S
C949 C247 1.518 . S
C970 C423 1.531 . S
C965 C277 1.529 . S
C981 C145 1.507 . S
C986 C486 1.531 . S
