# Generated by pormake.
# Topology pth, (4,4)-cn, num edge types: 1
# Building blocks:
#     Node 0, Type 0, BuildingBlock: QUQFOY_clean_sbu_3, # of connection points: 4
#     Node 1, Type 0, BuildingBlock: QUQFOY_clean_sbu_3, # of connection points: 4
#     Node 2, Type 0, BuildingBlock: QUQFOY_clean_sbu_3, # of connection points: 4
#     Node 3, Type 1, BuildingBlock: NAWXER_clean_linker_0, # of connection points: 4
#     Node 4, Type 1, BuildingBlock: NAWXER_clean_linker_0, # of connection points: 4
#     Node 5, Type 1, BuildingBlock: NAWXER_clean_linker_0, # of connection points: 4
#     Edge 6, Type (0, 1), BuildingBlock: ZUJKAS_clean_linker_0, # of connection points: 2
#     Edge 7, Type (0, 1), BuildingBlock: ZUJKAS_clean_linker_0, # of connection points: 2
#     Edge 8, Type (0, 1), BuildingBlock: ZUJKAS_clean_linker_0, # of connection points: 2
#     Edge 9, Type (0, 1), BuildingBlock: ZUJKAS_clean_linker_0, # of connection points: 2
#     Edge 10, Type (0, 1), BuildingBlock: ZUJKAS_clean_linker_0, # of connection points: 2
#     Edge 11, Type (0, 1), BuildingBlock: ZUJKAS_clean_linker_0, # of connection points: 2
#     Edge 12, Type (0, 1), BuildingBlock: ZUJKAS_clean_linker_0, # of connection points: 2
#     Edge 13, Type (0, 1), BuildingBlock: ZUJKAS_clean_linker_0, # of connection points: 2
#     Edge 14, Type (0, 1), BuildingBlock: ZUJKAS_clean_linker_0, # of connection points: 2
#     Edge 15, Type (0, 1), BuildingBlock: ZUJKAS_clean_linker_0, # of connection points: 2
#     Edge 16, Type (0, 1), BuildingBlock: ZUJKAS_clean_linker_0, # of connection points: 2
#     Edge 17, Type (0, 1), BuildingBlock: ZUJKAS_clean_linker_0, # of connection points: 2
# Relax obj value: 0.008
# Max RMSD: 0.058
# Mean RMSD: 0.041
data_MOF--net-pth--node1-QUQFOY_clean_sbu_3--node2-NAWXER_clean_linker_0--edge1-ZUJKAS_clean_linker_0
_symmetry_space_group_name_H-M    P1
_symmetry_Int_Tables_number       1
_symmetry_cell_setting            triclinic
loop_
_symmetry_equiv_pos_as_xyz
'x, y, z'
_cell_length_a     36.293481
_cell_length_b     36.071382
_cell_length_c     84.114021
_cell_angle_alpha  89.998457
_cell_angle_beta   90.708213
_cell_angle_gamma 120.67613
loop_
_atom_site_label
_atom_site_type_symbol
_atom_site_fract_x
_atom_site_fract_y
_atom_site_fract_z
_atom_type_partial_charge
C0 C -0.00331 0.11482 0.07208 0.0
O1 O 0.97283 0.1091 0.06004 0.0
Cd2 Cd 0.96637 0.06477 0.03759 0.0
O3 O 0.01802 0.09573 0.07304 0.0
Cd4 Cd 0.02985 0.04421 0.05788 0.0
C5 C 0.07274 0.11452 0.0275 0.0
O6 O 0.95675 -0.00127 0.04785 0.0
O7 O 0.00447 0.98688 0.03801 0.0
O8 O 0.02765 0.01124 0.08326 0.0
C9 C 0.96548 0.97644 0.03867 0.0
O10 O 0.03457 0.10469 0.02392 0.0
C11 C 0.06195 0.01056 0.08136 0.0
O12 O 0.08066 0.09937 0.03991 0.0
O13 O 0.08206 0.02641 0.06855 0.0
C14 C 0.10938 0.07774 0.40483 0.0
O15 O 0.1286 0.10404 0.39364 0.0
Cd16 Cd 0.09185 0.11482 0.3718 0.0
O17 O 0.06862 0.05701 0.40541 0.0
Cd18 Cd 0.00553 0.04978 0.39093 0.0
C19 C 0.03075 0.00841 0.35967 0.0
O20 O 0.03678 0.1244 0.38254 0.0
O21 O 0.97577 0.0786 0.37185 0.0
O22 O 0.97803 0.05127 0.41691 0.0
C23 C 0.00604 0.11737 0.37325 0.0
O24 O 0.06076 0.04692 0.35712 0.0
C25 C 0.94091 0.0188 0.41449 0.0
O26 O 0.00676 -0.00055 0.37173 0.0
O27 O 0.93393 -0.00022 0.40112 0.0
C28 C 0.96242 0.08735 0.69961 0.0
O29 O 0.96852 0.1116 0.71151 0.0
Cd30 Cd 0.0102 0.11512 0.73448 0.0
O31 O 0.9803 0.06484 0.69905 0.0
Cd32 Cd 0.0302 0.05158 0.71485 0.0
C33 C 0.9576 0.00727 0.74407 0.0
O34 O 0.07646 0.12386 0.72565 0.0
O35 O 0.08266 0.07294 0.73643 0.0
O36 O 0.06942 0.05837 0.69088 0.0
C37 C 0.09579 0.11286 0.73553 0.0
O38 O 0.96776 0.04573 0.7476 0.0
C39 C 0.06646 0.02184 0.69185 0.0
O40 O 0.97352 -0.00053 0.73199 0.0
O41 O 0.04573 -0.0017 0.70352 0.0
C42 C 0.01444 0.42439 0.24832 0.0
C43 C 0.04239 0.43412 0.26144 0.0
C44 C 0.01814 0.45715 0.23839 0.0
C45 C 0.05036 0.50015 0.24124 0.0
C46 C 0.07421 0.4773 0.26435 0.0
C47 C 0.07806 0.50993 0.25437 0.0
C48 C 0.05392 0.53562 0.23133 0.0
C49 C 0.07608 0.4501 0.19865 0.0
C50 C 0.04488 0.43134 0.18648 0.0
C51 C 0.07943 0.48403 0.20783 0.0
C52 C 0.05146 0.49954 0.20503 0.0
C53 C 0.01745 0.44748 0.18357 0.0
C54 C 0.02089 0.4814 0.19271 0.0
C55 C 0.0542 0.53528 0.21454 0.0
C56 C 0.10225 0.71762 0.19908 0.0
C57 C 0.07822 0.70987 0.18495 0.0
C58 C 0.09622 0.68337 0.20866 0.0
C59 C 0.0655 0.64073 0.20444 0.0
C60 C 0.04811 0.66707 0.18062 0.0
C61 C 0.04191 0.6329 0.19025 0.0
C62 C 0.05946 0.60395 0.21422 0.0
C63 C 0.01876 0.67664 0.24588 0.0
C64 C 0.04345 0.69355 0.25987 0.0
C65 C 0.02377 0.64797 0.23629 0.0
C66 C 0.05394 0.63607 0.24041 0.0
C67 C 0.0736 0.68153 0.26396 0.0
C68 C 0.07859 0.65287 0.25436 0.0
C69 C 0.05741 0.60345 0.23098 0.0
H70 H 0.98969 0.39146 0.2457 0.0
H71 H -0.00453 0.4489 0.22863 0.0
H72 H 0.09567 0.48607 0.27453 0.0
H73 H 0.10269 0.54297 0.25694 0.0
H74 H 0.09764 0.4383 0.20116 0.0
H75 H 0.1039 0.4982 0.21707 0.0
H76 H 0.99367 0.43429 0.17408 0.0
H77 H -0.00067 0.49323 0.19024 0.0
H78 H 0.12557 0.75017 0.2028 0.0
H79 H 0.11591 0.69028 0.21927 0.0
H80 H 0.02969 0.65985 0.16965 0.0
H81 H 0.01853 0.60025 0.18661 0.0
H82 H 0.99476 0.68469 0.24256 0.0
H83 H 0.00334 0.63432 0.22586 0.0
H84 H 0.09346 0.69439 0.27456 0.0
H85 H 0.10176 0.6438 0.25783 0.0
N86 N 0.05542 0.56965 0.23887 0.0
N87 N 0.0571 0.56951 0.20665 0.0
C88 C 0.61646 0.00142 0.52708 0.0
C89 C 0.60684 0.96546 0.51753 0.0
C90 C 0.58465 0.002 0.53606 0.0
C91 C 0.54266 0.96658 0.53571 0.0
C92 C 0.56454 0.93025 0.51709 0.0
C93 C 0.5327 0.93098 0.52602 0.0
C94 C 0.50877 0.96689 0.5451 0.0
C95 C 0.60288 0.96296 0.57946 0.0
C96 C 0.62302 -0.00043 0.58941 0.0
C97 C 0.5665 0.95392 0.57049 0.0
C98 C 0.54987 0.98151 0.57126 0.0
C99 C 0.60574 0.0266 0.59035 0.0
C100 C 0.56943 0.01752 0.58142 0.0
C101 C 0.51197 0.97338 0.56173 0.0
C102 C 0.33421 0.9343 0.57745 0.0
C103 C 0.34403 0.96568 0.58925 0.0
C104 C 0.36674 0.9354 0.56838 0.0
C105 C 0.40963 0.96785 0.57099 0.0
C106 C 0.38701 -0.00219 0.59196 0.0
C107 C 0.41955 -0.00136 0.583 0.0
C108 C 0.44435 0.96926 0.56151 0.0
C109 C 0.37503 0.00935 0.52805 0.0
C110 C 0.35607 0.98301 0.51458 0.0
C111 C 0.40236 0.00314 0.53801 0.0
C112 C 0.41068 0.96983 0.53494 0.0
C113 C 0.3643 0.94957 0.51151 0.0
C114 C 0.39157 0.94321 0.52157 0.0
C115 C 0.4425 0.96568 0.54476 0.0
H116 H 0.64842 0.02949 0.52743 0.0
H117 H 0.59275 0.03024 0.54318 0.0
H118 H 0.55609 0.9019 0.50999 0.0
H119 H 0.50037 0.90345 0.52554 0.0
H120 H 0.61549 0.94156 0.5785 0.0
H121 H 0.55136 0.92542 0.56298 0.0
H122 H 0.61999 0.05454 0.59814 0.0
H123 H 0.55689 0.03901 0.5823 0.0
H124 H 0.30133 0.90924 0.5751 0.0
H125 H 0.35842 0.91079 0.55938 0.0
H126 H 0.39551 0.02205 0.60113 0.0
H127 H 0.45246 0.02373 0.5853 0.0
H128 H 0.3691 0.03515 0.53084 0.0
H129 H 0.41787 0.02524 0.54788 0.0
H130 H 0.35068 0.9291 0.50111 0.0
H131 H 0.39813 0.91782 0.5188 0.0
N132 N 0.47434 0.96365 0.53721 0.0
N133 N 0.47943 0.9739 0.56932 0.0
C134 C 0.4156 0.4076 0.86063 0.0
C135 C 0.39418 0.4182 0.8491 0.0
C136 C 0.44722 0.43955 0.8704 0.0
C137 C 0.45778 0.48263 0.86889 0.0
C138 C 0.40458 0.4613 0.8477 0.0
C139 C 0.43633 0.49327 0.85744 0.0
C140 C 0.49322 0.51714 0.87836 0.0
C141 C 0.39059 0.43878 0.91357 0.0
C142 C 0.40197 0.41713 0.92472 0.0
C143 C 0.42145 0.47014 0.90373 0.0
C144 C 0.46425 0.48036 0.90481 0.0
C145 C 0.44493 0.42754 0.92576 0.0
C146 C 0.47581 0.4591 0.91597 0.0
C147 C 0.49748 0.51481 0.89497 0.0
C148 C 0.64191 0.69016 0.9128 0.0
C149 C 0.66364 0.67901 0.92399 0.0
C150 C 0.61006 0.65864 0.90294 0.0
C151 C 0.59954 0.61549 0.90411 0.0
C152 C 0.65321 0.63585 0.92504 0.0
C153 C 0.62122 0.60434 0.91526 0.0
C154 C 0.564 0.58132 0.89458 0.0
C155 C 0.66673 0.66166 0.8596 0.0
C156 C 0.6544 0.68056 0.84763 0.0
C157 C 0.63621 0.63054 0.86961 0.0
C158 C 0.59284 0.6182 0.86803 0.0
C159 C 0.6109 0.66786 0.846 0.0
C160 C 0.58046 0.63689 0.85606 0.0
C161 C 0.55977 0.5837 0.87796 0.0
H162 H 0.40811 0.37462 0.86201 0.0
H163 H 0.46409 0.43072 0.87887 0.0
H164 H 0.38905 0.47052 0.83877 0.0
H165 H 0.44436 0.5264 0.85596 0.0
H166 H 0.35801 0.43226 0.91268 0.0
H167 H 0.41201 0.48701 0.8955 0.0
H168 H 0.45471 0.41116 0.93408 0.0
H169 H 0.50874 0.46673 0.91705 0.0
H170 H 0.64939 0.72321 0.91172 0.0
H171 H 0.59306 0.66781 0.89466 0.0
H172 H 0.66898 0.62623 0.93372 0.0
H173 H 0.61321 0.57115 0.91646 0.0
H174 H 0.69999 0.67089 0.86124 0.0
H175 H 0.64648 0.61563 0.8784 0.0
H176 H 0.6002 0.68119 0.83673 0.0
H177 H 0.5471 0.6274 0.85446 0.0
N178 N 0.52441 0.55157 0.87051 0.0
N179 N 0.5328 0.54688 0.90243 0.0
H180 H 0.95996 0.16482 0.07339 0.0
H181 H 0.96958 0.21665 0.09413 0.0
H182 H 0.05237 0.18493 0.12046 0.0
H183 H 0.0428 0.13277 0.09988 0.0
H184 H 0.98959 0.18982 0.13911 0.0
H185 H 0.08198 0.33371 0.10119 0.0
H186 H 0.03151 0.29313 0.09279 0.0
H187 H 0.07346 0.28128 0.09603 0.0
C188 C 0.98012 0.16872 0.0836 0.0
C189 C 0.00084 0.14484 0.08492 0.0
C190 C 0.98572 0.19849 0.0954 0.0
C191 C 0.01218 0.20497 0.10867 0.0
C192 C 0.03201 0.18047 0.11024 0.0
H193 H 0.10972 0.42424 0.17346 0.0
H194 H 0.1032 0.36721 0.15576 0.0
C195 C 0.02653 0.15075 0.09845 0.0
C196 C 0.01941 0.23759 0.12086 0.0
H197 H 0.06031 0.34543 0.12629 0.0
C198 C 0.00521 0.22388 0.13636 0.0
C199 C 0.0404 0.28198 0.11724 0.0
C200 C 0.05811 0.29861 0.10096 0.0
C201 C 0.01042 0.25344 0.1483 0.0
C202 C 0.02994 0.29765 0.14451 0.0
C203 C 0.04514 0.31144 0.12911 0.0
C204 C 0.03393 0.33014 0.1562 0.0
C205 C -0.00474 0.23719 0.16485 0.0
C206 C -0.00286 0.32801 0.16231 0.0
C207 C 0.00076 0.36039 0.17244 0.0
C208 C 0.04126 0.39561 0.17657 0.0
C209 C 0.07812 0.39727 0.17064 0.0
C210 C 0.07445 0.36489 0.16047 0.0
H211 H 0.99183 0.20512 0.16683 0.0
H212 H 0.01775 0.26012 0.17396 0.0
H213 H 0.96346 0.23388 0.16658 0.0
H214 H 0.96556 0.30182 0.15895 0.0
H215 H 0.97181 0.35805 0.17694 0.0
H216 H 0.85486 0.96304 0.41038 0.0
H217 H 0.798 0.94901 0.42907 0.0
H218 H 0.89308 0.03047 0.46406 0.0
H219 H 0.94994 0.04558 0.44533 0.0
H220 H 0.77802 0.91539 0.45936 0.0
H221 H 0.82137 0.08687 0.45936 0.0
H222 H 0.84299 0.06549 0.44529 0.0
H223 H 0.86485 0.07938 0.46517 0.0
C224 C 0.86364 0.97763 0.42211 0.0
C225 C 0.90681 0.00587 0.42633 0.0
C226 C 0.83114 0.96959 0.43277 0.0
C227 C 0.84134 0.98953 0.4478 0.0
C228 C 0.8845 0.0157 0.45236 0.0
H229 H 0.69085 0.99616 0.52585 0.0
H230 H 0.7473 -0.00071 0.50929 0.0
C231 C 0.91694 0.0241 0.44167 0.0
C232 C 0.8069 0.9844 0.45847 0.0
H233 H 0.76902 0.04117 0.47782 0.0
C234 C 0.77595 0.94284 0.46337 0.0
C235 C 0.80415 0.0203 0.46359 0.0
C236 C 0.83484 0.06547 0.45797 0.0
C237 C 0.7427 0.93634 0.47349 0.0
C238 C 0.74039 0.9723 0.47873 0.0
C239 C 0.77124 0.01377 0.47385 0.0
C240 C 0.70562 0.96772 0.48901 0.0
C241 C 0.71053 0.89125 0.47868 0.0
C242 C 0.66364 0.94909 0.483 0.0
C243 C 0.63143 0.94781 0.49232 0.0
C244 C 0.64066 0.96514 0.50784 0.0
C245 C 0.68275 0.98314 0.51388 0.0
C246 C 0.71497 0.98465 0.5045 0.0
H247 H 0.72133 0.86811 0.47608 0.0
H248 H 0.70455 0.89066 0.49162 0.0
H249 H 0.67969 0.88023 0.47229 0.0
H250 H 0.65606 0.93657 0.47095 0.0
H251 H 0.59958 0.93436 0.4872 0.0
H252 H 0.92154 0.9203 0.73896 0.0
H253 H 0.87049 0.86164 0.75592 0.0
H254 H 0.87348 0.95449 0.78898 0.0
H255 H 0.92432 0.01322 0.77223 0.0
H256 H 0.8841 0.88564 0.80261 0.0
H257 H 0.74196 0.8274 0.76231 0.0
H258 H 0.79027 0.83435 0.75374 0.0
H259 H 0.78874 0.88057 0.76067 0.0
C260 C 0.91133 0.92825 0.74983 0.0
C261 C 0.92692 0.97147 0.75421 0.0
C262 C 0.88208 0.89471 0.75946 0.0
C263 C 0.8681 0.9039 0.77359 0.0
C264 C 0.88389 0.94687 0.77807 0.0
H265 H 0.65947 0.75435 0.83652 0.0
H266 H 0.71194 0.80687 0.81819 0.0
C267 C 0.91288 0.98035 0.76845 0.0
C268 C 0.83717 0.86889 0.78387 0.0
H269 H 0.73214 0.78959 0.78626 0.0
C270 C 0.85093 0.86441 0.79903 0.0
C271 C 0.79394 0.84169 0.77915 0.0
C272 C 0.77751 0.84618 0.76313 0.0
C273 C 0.82239 0.83337 0.80967 0.0
C274 C 0.77916 0.80612 0.80494 0.0
C275 C 0.76543 0.81049 0.78976 0.0
C276 C 0.74735 0.77388 0.81582 0.0
C277 C 0.8383 0.8306 0.82603 0.0
C278 C 0.74985 0.73785 0.8204 0.0
C279 C 0.71975 0.70759 0.83076 0.0
C280 C 0.68663 0.71288 0.83671 0.0
C281 C 0.68424 0.74903 0.83201 0.0
C282 C 0.71425 0.77916 0.82161 0.0
H283 H 0.87046 0.85886 0.82879 0.0
H284 H 0.81557 0.82834 0.83524 0.0
H285 H 0.84051 0.80108 0.82676 0.0
H286 H 0.7749 0.73301 0.81586 0.0
H287 H 0.72205 0.67972 0.83391 0.0
H288 H 0.02862 0.98049 0.11059 0.0
H289 H 0.04618 0.93883 0.12876 0.0
H290 H 0.14411 0.95123 0.09696 0.0
H291 H 0.12659 0.99297 0.0786 0.0
H292 H 0.08468 0.86631 0.10527 0.0
H293 H 0.148 0.9703 0.15893 0.0
H294 H 0.09846 0.96427 0.1517 0.0
H295 H 0.14546 0.99091 0.13961 0.0
C296 C 0.05441 0.97503 0.10757 0.0
C297 C 0.07612 0.98985 0.09313 0.0
C298 C 0.06462 0.95149 0.11804 0.0
C299 C 0.09679 0.94245 0.11429 0.0
C300 C 0.11942 0.95824 0.10011 0.0
H301 H 0.15379 0.78325 0.17759 0.0
H302 H 0.16368 0.84213 0.16023 0.0
C303 C 0.10937 0.98204 0.08965 0.0
C304 C 0.10317 0.91253 0.12437 0.0
H305 H 0.12149 0.8946 0.16272 0.0
C306 C 0.09349 0.87279 0.11777 0.0
C307 C 0.11498 0.92121 0.14062 0.0
C308 C 0.12774 0.96418 0.14811 0.0
C309 C 0.09296 0.84053 0.12721 0.0
C310 C 0.10202 0.84821 0.14366 0.0
C311 C 0.11409 0.88876 0.15011 0.0
C312 C 0.09631 0.81347 0.15447 0.0
C313 C 0.08168 0.79804 0.11963 0.0
C314 C 0.05509 0.77847 0.15714 0.0
C315 C 0.04923 0.74514 0.16716 0.0
C316 C 0.08456 0.74611 0.17467 0.0
C317 C 0.12586 0.78168 0.17213 0.0
C318 C 0.13164 0.81521 0.16215 0.0
H319 H 0.08573 0.80081 0.10653 0.0
H320 H 0.10183 0.78577 0.12467 0.0
H321 H 0.04769 0.77397 0.12207 0.0
H322 H 0.0274 0.77703 0.15149 0.0
H323 H 0.01695 0.71874 0.16911 0.0
H324 H 0.1959 0.1095 0.40576 0.0
H325 H 0.2361 0.09207 0.42487 0.0
H326 H 0.11984 0.00968 0.45015 0.0
H327 H 0.07928 0.02695 0.43119 0.0
H328 H 0.19242 0.06696 0.46977 0.0
H329 H 0.22855 0.97304 0.42682 0.0
H330 H 0.24242 0.0261 0.42041 0.0
H331 H 0.18716 0.98589 0.42322 0.0
C332 C 0.17885 0.08782 0.41542 0.0
C333 C 0.13431 0.06943 0.41689 0.0
C334 C 0.20185 0.07773 0.42626 0.0
C335 C 0.18074 0.04911 0.43873 0.0
C336 C 0.13658 0.03163 0.44052 0.0
H337 H 0.28119 0.92428 0.49946 0.0
H338 H 0.23709 0.9392 0.48127 0.0
C339 C 0.1135 0.04155 0.42967 0.0
C340 C 0.20473 0.03732 0.44993 0.0
H341 H 0.26307 0.98736 0.4521 0.0
C342 C 0.20778 0.04945 0.46595 0.0
C343 C 0.22414 0.01396 0.44489 0.0
C344 C 0.22022 -0.00141 0.42793 0.0
C345 C 0.23072 0.03969 0.47704 0.0
C346 C 0.25132 0.01758 0.47189 0.0
C347 C 0.24741 0.00455 0.45595 0.0
C348 C 0.27789 0.00851 0.48283 0.0
C349 C 0.23256 0.05287 0.49419 0.0
C350 C 0.31567 0.04257 0.48946 0.0
C351 C 0.34103 0.03421 0.49971 0.0
C352 C 0.32908 0.99156 0.50352 0.0
C353 C 0.29141 0.95745 0.49668 0.0
C354 C 0.2661 0.96589 0.48636 0.0
H355 H 0.20691 0.06 0.4969 0.0
H356 H 0.22954 0.0272 0.50231 0.0
H357 H 0.26393 0.08241 0.49667 0.0
H358 H 0.32574 0.07566 0.48658 0.0
H359 H 0.37033 0.0612 0.50448 0.0
H360 H 0.1297 0.20007 0.73648 0.0
H361 H 0.18156 0.25142 0.75585 0.0
H362 H 0.18708 0.14804 0.77932 0.0
H363 H 0.13525 0.09643 0.76004 0.0
H364 H 0.17322 0.20445 0.79973 0.0
H365 H 0.31187 0.29268 0.75958 0.0
H366 H 0.26204 0.28656 0.75256 0.0
H367 H 0.26701 0.23981 0.75483 0.0
C368 C 0.14219 0.18831 0.74569 0.0
C369 C 0.12846 0.14424 0.74673 0.0
C370 C 0.17187 0.21768 0.7567 0.0
C371 C 0.18827 0.20344 0.76889 0.0
C372 C 0.17478 0.15955 0.76994 0.0
H373 H 0.40088 0.35575 0.83342 0.0
H374 H 0.34961 0.30214 0.8145 0.0
C375 C 0.14527 0.13019 0.7589 0.0
C376 C 0.21852 0.23412 0.78086 0.0
H377 H 0.31922 0.32125 0.78557 0.0
C378 C 0.20518 0.22996 0.79668 0.0
C379 C 0.26021 0.26701 0.77679 0.0
C380 C 0.27645 0.27178 0.76005 0.0
C381 C 0.2324 0.25839 0.80855 0.0
C382 C 0.27376 0.29187 0.8044 0.0
C383 C 0.28731 0.29563 0.78863 0.0
C384 C 0.30368 0.3232 0.8163 0.0
C385 C 0.21699 0.25218 0.82545 0.0
C386 C 0.29467 0.3527 0.8235 0.0
C387 C 0.32381 0.38328 0.83433 0.0
C388 C 0.3624 0.38478 0.83811 0.0
C389 C 0.37113 0.35495 0.83092 0.0
C390 C 0.34208 0.32454 0.82004 0.0
H391 H 0.18827 0.2198 0.82724 0.0
H392 H 0.24264 0.25637 0.83389 0.0
H393 H 0.20838 0.27679 0.82838 0.0
H394 H 0.26537 0.35242 0.82059 0.0
H395 H 0.31617 0.40573 0.83976 0.0
H396 H 0.94031 0.03703 0.67283 0.0
H397 H 0.88664 0.02602 0.65265 0.0
H398 H 0.86321 0.11732 0.6768 0.0
H399 H 0.91649 0.12824 0.69719 0.0
H400 H 0.78938 0.03907 0.6701 0.0
H401 H 0.88991 0.10382 0.6165 0.0
H402 H 0.89723 0.06483 0.62715 0.0
H403 H 0.91217 0.11557 0.63644 0.0
C404 C 0.92416 0.05521 0.67377 0.0
C405 C 0.93264 0.08347 0.68666 0.0
C406 C 0.89368 0.04904 0.66216 0.0
C407 C 0.87136 0.07122 0.66315 0.0
C408 C 0.88029 0.10006 0.6758 0.0
H409 H 0.69561 0.07794 0.59414 0.0
H410 H 0.75645 0.09505 0.61179 0.0
C411 C 0.91077 0.10627 0.68743 0.0
C412 C 0.83649 0.06196 0.65165 0.0
H413 H 0.81429 0.06355 0.61218 0.0
C414 C 0.79482 0.04461 0.65744 0.0
C415 C 0.84384 0.06952 0.63518 0.0
C416 C 0.88825 0.08983 0.62842 0.0
C417 C 0.76009 0.03396 0.64716 0.0
C418 C 0.76721 0.04023 0.63064 0.0
C419 C 0.80897 0.0583 0.62485 0.0
C420 C 0.73168 0.02921 0.61926 0.0
C421 C 0.71616 0.01665 0.65408 0.0
C422 C 0.69818 0.98639 0.61738 0.0
C423 C 0.66328 0.97653 0.60738 0.0
C424 C 0.66142 0.00938 0.59909 0.0
C425 C 0.69582 0.05205 0.60059 0.0
C426 C 0.73069 0.06185 0.61057 0.0
H427 H 0.71781 0.02321 0.66706 0.0
H428 H 0.69892 0.03098 0.64811 0.0
H429 H 0.69713 0.98121 0.65224 0.0
H430 H 0.69874 0.9607 0.62384 0.0
H431 H 0.63721 0.94341 0.60652 0.0
H432 H 0.88319 0.95767 0.03355 0.0
H433 H 0.83097 0.90617 0.01427 0.0
H434 H 0.92219 0.87021 -0.00014 0.0
H435 H 0.97459 0.92155 0.01906 0.0
H436 H 0.84661 0.90731 0.97992 0.0
H437 H 0.809 0.75401 0.00932 0.0
H438 H 0.83198 0.80466 0.01998 0.0
H439 H 0.86495 0.79357 0.00745 0.0
C440 C 0.89197 0.93849 0.02639 0.0
C441 C 0.93296 0.9436 0.02781 0.0
C442 C 0.86218 0.90922 0.01538 0.0
C443 C 0.87275 0.8843 0.00579 0.0
C444 C 0.91336 0.88885 0.00733 0.0
H445 H 0.74212 0.69122 0.93225 0.0
H446 H 0.79362 0.74292 0.95162 0.0
C447 C 0.94325 0.91827 0.01825 0.0
C448 C 0.842 0.85482 0.99366 0.0
H449 H 0.78104 0.74866 0.98332 0.0
C450 C 0.83202 0.87259 0.98066 0.0
C451 C 0.82347 0.80969 0.99469 0.0
C452 C 0.83252 0.78913 0.00865 0.0
C453 C 0.80441 0.84632 0.96842 0.0
C454 C 0.78562 0.80108 0.96948 0.0
C455 C 0.79557 0.78336 0.98254 0.0
C456 C 0.75531 0.7714 0.95723 0.0
C457 C 0.79652 0.86731 0.95431 0.0
C458 C 0.71675 0.77031 0.954 0.0
C459 C 0.68741 0.74098 0.9429 0.0
C460 C 0.69592 0.71185 0.93501 0.0
C461 C 0.73463 0.71311 0.93824 0.0
C462 C 0.76406 0.74263 0.94926 0.0
H463 H 0.82222 0.90161 0.95315 0.0
H464 H 0.7944 0.85004 0.94309 0.0
H465 H 0.76575 0.86639 0.95586 0.0
H466 H 0.7089 0.7915 0.96031 0.0
H467 H 0.6575 0.74021 0.94086 0.0
H468 H 0.07526 0.01697 0.33269 0.0
H469 H 0.07084 0.95991 0.31581 0.0
H470 H 0.97094 0.86412 0.3451 0.0
H471 H 0.97485 0.92119 0.36213 0.0
H472 H 0.08531 0.89408 0.32702 0.0
H473 H 0.92429 0.82847 0.29871 0.0
H474 H 0.95281 0.88113 0.308 0.0
H475 H 0.92678 0.83366 0.32003 0.0
C476 C 0.05198 0.98383 0.3355 0.0
C477 C 0.02548 0.97367 0.34882 0.0
C478 C 0.04954 0.95128 0.32582 0.0
C479 C 0.02043 0.90793 0.32917 0.0
C480 C 0.99321 0.89749 0.34221 0.0
H481 H 0.04063 0.69355 0.29234 0.0
H482 H 0.03311 0.7439 0.30955 0.0
C483 C -0.00437 0.93013 0.35195 0.0
C484 C 0.02081 0.87392 0.31951 0.0
H485 H 0.96195 0.79256 0.29296 0.0
C486 C 0.05832 0.87176 0.31961 0.0
C487 C 0.9856 0.84521 0.3098 0.0
C488 C 0.94512 0.84721 0.30896 0.0
C489 C 0.06169 0.84165 0.31017 0.0
C490 C 0.02637 0.81266 0.30056 0.0
C491 C 0.9888 0.81474 0.30045 0.0
C492 C 0.02856 0.78084 0.29017 0.0
C493 C 0.10334 0.84177 0.31027 0.0
C494 C 0.02754 0.78452 0.2736 0.0
C495 C 0.03204 0.75597 0.26373 0.0
C496 C 0.03746 0.72317 0.2703 0.0
C497 C 0.0374 0.71902 0.28693 0.0
C498 C 0.03292 0.74758 0.29678 0.0
H499 H 0.13003 0.87176 0.31566 0.0
H500 H 0.09952 0.81404 0.31731 0.0
H501 H 0.11225 0.83834 0.298 0.0
H502 H 0.02423 0.81008 0.26832 0.0
H503 H 0.03226 0.7602 0.25098 0.0
H504 H 0.06228 0.94394 0.68957 0.0
H505 H 0.10108 0.92399 0.67106 0.0
H506 H 0.15836 0.04998 0.64984 0.0
H507 H 0.11902 0.06968 0.66792 0.0
H508 H 0.13157 0.98602 0.62757 0.0
H509 H 0.22797 0.96601 0.67508 0.0
H510 H 0.17095 0.93273 0.67703 0.0
H511 H 0.19605 0.99029 0.67883 0.0
C512 C 0.08299 0.96726 0.6809 0.0
C513 C 0.08783 0.00847 0.68027 0.0
C514 C 0.10531 0.95592 0.6704 0.0
C515 C 0.13319 0.9858 0.65928 0.0
C516 C 0.13711 0.02648 0.65837 0.0
H517 H 0.33323 0.03335 0.59609 0.0
H518 H 0.27766 0.03296 0.61243 0.0
C519 C 0.11464 0.03771 0.66874 0.0
C520 C 0.15913 0.97551 0.64869 0.0
H521 H 0.24062 0.95413 0.64869 0.0
C522 C 0.15518 0.97872 0.63219 0.0
C523 C 0.18994 0.966 0.65475 0.0
C524 C 0.19689 0.96387 0.67238 0.0
C525 C 0.18187 0.97363 0.62161 0.0
C526 C 0.21331 0.96528 0.62771 0.0
C527 C 0.21629 0.96046 0.64413 0.0
C528 C 0.24552 0.96467 0.61734 0.0
C529 C 0.17678 0.97786 0.60399 0.0
C530 C 0.24587 0.92642 0.61486 0.0
C531 C 0.27752 0.92653 0.60551 0.0
C532 C 0.30962 0.96506 0.59874 0.0
C533 C 0.30908 0.00329 0.60127 0.0
C534 C 0.27724 0.00305 0.61048 0.0
H535 H 0.14542 0.97474 0.60099 0.0
H536 H 0.20255 0.01003 0.60004 0.0
H537 H 0.17976 0.95306 0.59725 0.0
H538 H 0.22177 0.89659 0.6202 0.0
H539 H 0.27745 0.89671 0.60386 0.0
H540 H 0.06641 0.14222 -0.00204 0.0
H541 H 0.1245 0.19195 0.98086 0.0
H542 H 0.21714 0.205 0.01642 0.0
H543 H 0.15913 0.15428 0.0335 0.0
H544 H 0.18427 0.27534 0.98659 0.0
H545 H 0.26341 0.18016 0.97685 0.0
H546 H 0.21087 0.15713 0.98537 0.0
H547 H 0.25799 0.18946 -0.00258 0.0
C548 C 0.09913 0.15541 0.00214 0.0
C549 C 0.10814 0.14418 0.01709 0.0
C550 C 0.13229 0.18384 0.99234 0.0
C551 C 0.17513 0.20169 -0.00273 0.0
C552 C 0.18433 0.19078 0.01222 0.0
H553 H 0.41115 0.40421 0.95629 0.0
H554 H 0.35672 0.35137 0.97401 0.0
C555 C 0.15113 0.162 0.022 0.0
C556 C 0.20988 0.23301 0.98696 0.0
H557 H 0.2996 0.25206 0.96726 0.0
C558 C 0.20939 0.27016 0.98233 0.0
C559 C 0.24261 0.22614 0.98142 0.0
C560 C 0.24367 0.18589 0.98538 0.0
C561 C 0.24086 0.30072 0.97234 0.0
C562 C 0.27351 0.29385 0.96687 0.0
C563 C 0.2744 0.25705 0.97158 0.0
C564 C 0.30665 0.32444 0.956 0.0
C565 C 0.23927 0.34031 0.96774 0.0
C566 C 0.29639 0.32613 0.94001 0.0
C567 C 0.32745 0.35585 0.9298 0.0
C568 C 0.36929 0.38451 0.93544 0.0
C569 C 0.37945 0.38225 0.95149 0.0
C570 C 0.3484 0.3523 0.96166 0.0
H571 H 0.21557 0.3439 0.97479 0.0
H572 H 0.27132 0.36969 0.9694 0.0
H573 H 0.23029 0.3381 0.95497 0.0
H574 H 0.26429 0.3045 0.93546 0.0
H575 H 0.31873 0.35621 0.91746 0.0
H576 H 0.07452 0.1982 0.36853 0.0
H577 H 0.07913 0.25221 0.34969 0.0
H578 H 0.94729 0.16728 0.33564 0.0
H579 H 0.94235 0.11292 0.35433 0.0
H580 H 0.05336 0.2288 0.31379 0.0
H581 H 0.9661 0.29302 0.34731 0.0
H582 H 0.99382 0.26958 0.35721 0.0
H583 H 0.94424 0.23556 0.34686 0.0
C584 C 0.04637 0.1912 0.36156 0.0
C585 C 0.00808 0.15133 0.36287 0.0
C586 C 0.04912 0.222 0.3508 0.0
C587 C 0.0135 0.21357 0.34139 0.0
C588 C 0.97498 0.17429 0.34291 0.0
H589 H 0.96828 0.36469 0.27218 0.0
H590 H 0.9611 0.3093 0.29074 0.0
C591 C 0.97228 0.14333 0.35356 0.0
C592 C 0.01712 0.24502 0.32941 0.0
H593 H 0.98845 0.31965 0.32147 0.0
C594 C 0.03933 0.24882 0.31542 0.0
C595 C -0.00174 0.27046 0.33162 0.0
C596 C 0.97435 0.26735 0.34657 0.0
C597 C 0.04296 0.27744 0.30343 0.0
C598 C 0.02484 0.30367 0.30574 0.0
C599 C 0.00236 0.29956 0.31974 0.0
C600 C 0.02935 0.33607 0.29392 0.0
C601 C 0.06531 0.27858 0.28826 0.0
C602 C 0.0701 0.36947 0.28958 0.0
C603 C 0.07432 0.40078 0.2788 0.0
C604 C 0.03784 0.39966 0.27233 0.0
C605 C -0.00297 0.36612 0.27673 0.0
C606 C 0.99285 0.33465 0.28743 0.0
H607 H 0.06555 0.24821 0.28641 0.0
H608 H 0.04974 0.28388 0.27777 0.0
H609 H 0.0991 0.30542 0.28898 0.0
H610 H 0.0987 0.3717 0.2947 0.0
H611 H 0.10621 0.4259 0.27556 0.0
loop_
_geom_bond_atom_site_label_1
_geom_bond_atom_site_label_2
_geom_bond_distance
_geom_bond_site_symmetry_2
_ccdc_geom_bond_type
C0 O1 1.306 . S
C0 O3 1.160 . S
O1 C0 1.306 . S
O1 Cd2 2.228 1_455 S
Cd2 O1 2.228 1_655 S
Cd2 O6 2.273 . S
Cd2 O10 2.277 1_655 S
O3 C0 1.160 . S
O3 Cd4 2.203 . S
Cd4 O3 2.203 . S
Cd4 O6 2.411 1_455 S
Cd4 O7 2.333 1_545 S
Cd4 O8 2.352 1_545 S
Cd4 O12 2.277 . S
Cd4 O13 2.356 1_545 S
C5 O10 1.209 . S
C5 O12 1.226 . S
O6 Cd2 2.273 . S
O6 Cd4 2.411 1_655 S
O6 C9 1.320 1_545 S
O7 Cd4 2.333 1_565 S
O7 C9 1.214 1_455 S
O8 Cd4 2.352 1_565 S
O8 C11 1.258 . S
C9 O6 1.320 1_565 S
C9 O7 1.214 1_655 S
O10 Cd2 2.277 1_455 S
O10 C5 1.209 . S
C11 O8 1.258 . S
C11 O13 1.282 . S
O12 Cd4 2.277 . S
O12 C5 1.226 . S
O13 Cd4 2.356 1_565 S
O13 C11 1.282 . S
C14 O15 1.306 . S
C14 O17 1.160 . S
O15 C14 1.306 . S
O15 Cd16 2.228 . S
Cd16 O15 2.228 . S
Cd16 O20 2.273 . S
Cd16 O24 2.277 . S
O17 C14 1.160 . S
O17 Cd18 2.203 . S
Cd18 O17 2.203 . S
Cd18 O20 2.411 . S
Cd18 O21 2.333 1_455 S
Cd18 O22 2.352 1_455 S
Cd18 O26 2.277 1_445 S
Cd18 O27 2.356 1_445 S
C19 O24 1.209 1_565 S
C19 O26 1.226 1_455 S
O20 Cd16 2.273 . S
O20 Cd18 2.411 . S
O20 C23 1.320 . S
O21 Cd18 2.333 1_655 S
O21 C23 1.214 1_655 S
O22 Cd18 2.352 1_655 S
O22 C25 1.258 . S
C23 O20 1.320 . S
C23 O21 1.214 1_455 S
O24 Cd16 2.277 . S
O24 C19 1.209 1_545 S
C25 O22 1.258 . S
C25 O27 1.282 1_545 S
O26 Cd18 2.277 1_665 S
O26 C19 1.226 1_655 S
O27 Cd18 2.356 1_665 S
O27 C25 1.282 1_565 S
C28 O29 1.306 . S
C28 O31 1.160 . S
O29 C28 1.306 . S
O29 Cd30 2.228 . S
Cd30 O29 2.228 . S
Cd30 O34 2.273 1_655 S
Cd30 O38 2.277 . S
O31 C28 1.160 . S
O31 Cd32 2.203 1_655 S
Cd32 O31 2.203 1_455 S
Cd32 O34 2.411 . S
Cd32 O35 2.333 . S
Cd32 O36 2.352 . S
Cd32 O40 2.277 1_445 S
Cd32 O41 2.356 . S
C33 O38 1.209 1_565 S
C33 O40 1.226 . S
O34 Cd30 2.273 1_455 S
O34 Cd32 2.411 . S
O34 C37 1.320 . S
O35 Cd32 2.333 . S
O35 C37 1.214 . S
O36 Cd32 2.352 . S
O36 C39 1.258 . S
C37 O34 1.320 . S
C37 O35 1.214 . S
O38 Cd30 2.277 . S
O38 C33 1.209 1_545 S
C39 O36 1.258 . S
C39 O41 1.282 . S
O40 Cd32 2.277 1_665 S
O40 C33 1.226 . S
O41 Cd32 2.356 . S
O41 C39 1.282 . S
C42 C43 1.384 . S
C42 C44 1.384 . S
C42 H70 0.931 1_455 S
C43 C42 1.384 . S
C43 C46 1.382 . S
C44 C42 1.384 . S
C44 C45 1.381 . S
C44 H71 0.930 1_455 S
C45 C44 1.381 . S
C45 C47 1.381 . S
C45 C48 1.487 . S
C46 C43 1.382 . S
C46 C47 1.387 . S
C46 H72 0.930 . S
C47 C45 1.381 . S
C47 C46 1.387 . S
C47 H73 0.931 . S
C48 C45 1.487 . S
C48 C55 1.399 . S
C48 N86 1.343 . S
C49 C50 1.384 . S
C49 C51 1.384 . S
C49 H74 0.931 . S
C50 C49 1.384 . S
C50 C53 1.382 . S
C51 C49 1.384 . S
C51 C52 1.381 . S
C51 H75 0.930 . S
C52 C51 1.381 . S
C52 C54 1.381 . S
C52 C55 1.487 . S
C53 C50 1.382 . S
C53 C54 1.387 . S
C53 H76 0.930 1_455 S
C54 C52 1.381 . S
C54 C53 1.387 . S
C54 H77 0.931 1_455 S
C55 C48 1.399 . S
C55 C52 1.487 . S
C55 N87 1.343 . S
C56 C57 1.384 . S
C56 C58 1.384 . S
C56 H78 0.931 . S
C57 C56 1.384 . S
C57 C60 1.382 . S
C58 C56 1.384 . S
C58 C59 1.381 . S
C58 H79 0.930 . S
C59 C58 1.381 . S
C59 C61 1.381 . S
C59 C62 1.487 . S
C60 C57 1.382 . S
C60 C61 1.387 . S
C60 H80 0.930 1_455 S
C61 C59 1.381 . S
C61 C60 1.387 . S
C61 H81 0.931 1_455 S
C62 C59 1.487 . S
C62 C69 1.399 . S
C62 N87 1.343 . S
C63 C64 1.384 . S
C63 C65 1.384 . S
C63 H82 0.931 1_455 S
C64 C63 1.384 . S
C64 C67 1.382 . S
C65 C63 1.384 . S
C65 C66 1.381 . S
C65 H83 0.930 1_455 S
C66 C65 1.381 . S
C66 C68 1.381 . S
C66 C69 1.487 . S
C67 C64 1.382 . S
C67 C68 1.387 . S
C67 H84 0.930 . S
C68 C66 1.381 . S
C68 C67 1.387 . S
C68 H85 0.931 . S
C69 C62 1.399 . S
C69 C66 1.487 . S
C69 N86 1.343 . S
H70 C42 0.931 1_655 S
H71 C44 0.930 1_655 S
H72 C46 0.930 . S
H73 C47 0.931 . S
H74 C49 0.931 . S
H75 C51 0.930 . S
H76 C53 0.930 1_655 S
H77 C54 0.931 1_655 S
H78 C56 0.931 . S
H79 C58 0.930 . S
H80 C60 0.930 1_655 S
H81 C61 0.931 1_655 S
H82 C63 0.931 1_655 S
H83 C65 0.930 1_655 S
H84 C67 0.930 . S
H85 C68 0.931 . S
N86 C48 1.343 . S
N86 C69 1.343 . S
N87 C55 1.343 . S
N87 C62 1.343 . S
C88 C89 1.384 . S
C88 C90 1.384 . S
C88 H116 0.931 . S
C89 C88 1.384 . S
C89 C92 1.382 . S
C90 C88 1.384 . S
C90 C91 1.381 . S
C90 H117 0.930 . S
C91 C90 1.381 . S
C91 C93 1.381 . S
C91 C94 1.487 . S
C92 C89 1.382 . S
C92 C93 1.387 . S
C92 H118 0.930 1_545 S
C93 C91 1.381 . S
C93 C92 1.387 . S
C93 H119 0.931 1_545 S
C94 C91 1.487 . S
C94 C101 1.399 . S
C94 N132 1.343 . S
C95 C96 1.384 . S
C95 C97 1.384 . S
C95 H120 0.931 1_545 S
C96 C95 1.384 . S
C96 C99 1.382 . S
C97 C95 1.384 . S
C97 C98 1.381 . S
C97 H121 0.930 1_545 S
C98 C97 1.381 . S
C98 C100 1.381 . S
C98 C101 1.487 . S
C99 C96 1.382 . S
C99 C100 1.387 . S
C99 H122 0.930 . S
C100 C98 1.381 . S
C100 C99 1.387 . S
C100 H123 0.931 . S
C101 C94 1.399 . S
C101 C98 1.487 . S
C101 N133 1.343 . S
C102 C103 1.384 . S
C102 C104 1.384 . S
C102 H124 0.931 1_545 S
C103 C102 1.384 . S
C103 C106 1.382 . S
C104 C102 1.384 . S
C104 C105 1.381 . S
C104 H125 0.930 1_545 S
C105 C104 1.381 . S
C105 C107 1.381 . S
C105 C108 1.487 . S
C106 C103 1.382 . S
C106 C107 1.387 . S
C106 H126 0.930 . S
C107 C105 1.381 . S
C107 C106 1.387 . S
C107 H127 0.931 . S
C108 C105 1.487 . S
C108 C115 1.399 . S
C108 N133 1.343 . S
C109 C110 1.384 . S
C109 C111 1.384 . S
C109 H128 0.931 . S
C110 C109 1.384 . S
C110 C113 1.382 . S
C111 C109 1.384 . S
C111 C112 1.381 . S
C111 H129 0.930 . S
C112 C111 1.381 . S
C112 C114 1.381 . S
C112 C115 1.487 . S
C113 C110 1.382 . S
C113 C114 1.387 . S
C113 H130 0.930 1_545 S
C114 C112 1.381 . S
C114 C113 1.387 . S
C114 H131 0.931 1_545 S
C115 C108 1.399 . S
C115 C112 1.487 . S
C115 N132 1.343 . S
H116 C88 0.931 . S
H117 C90 0.930 . S
H118 C92 0.930 1_565 S
H119 C93 0.931 1_565 S
H120 C95 0.931 1_565 S
H121 C97 0.930 1_565 S
H122 C99 0.930 . S
H123 C100 0.931 . S
H124 C102 0.931 1_565 S
H125 C104 0.930 1_565 S
H126 C106 0.930 . S
H127 C107 0.931 . S
H128 C109 0.931 . S
H129 C111 0.930 . S
H130 C113 0.930 1_565 S
H131 C114 0.931 1_565 S
N132 C94 1.343 . S
N132 C115 1.343 . S
N133 C101 1.343 . S
N133 C108 1.343 . S
C134 C135 1.384 . S
C134 C136 1.384 . S
C134 H162 0.931 . S
C135 C134 1.384 . S
C135 C138 1.382 . S
C136 C134 1.384 . S
C136 C137 1.381 . S
C136 H163 0.930 . S
C137 C136 1.381 . S
C137 C139 1.381 . S
C137 C140 1.487 . S
C138 C135 1.382 . S
C138 C139 1.387 . S
C138 H164 0.930 . S
C139 C137 1.381 . S
C139 C138 1.387 . S
C139 H165 0.931 . S
C140 C137 1.487 . S
C140 C147 1.399 . S
C140 N178 1.343 . S
C141 C142 1.384 . S
C141 C143 1.384 . S
C141 H166 0.931 . S
C142 C141 1.384 . S
C142 C145 1.382 . S
C143 C141 1.384 . S
C143 C144 1.381 . S
C143 H167 0.930 . S
C144 C143 1.381 . S
C144 C146 1.381 . S
C144 C147 1.487 . S
C145 C142 1.382 . S
C145 C146 1.387 . S
C145 H168 0.930 . S
C146 C144 1.381 . S
C146 C145 1.387 . S
C146 H169 0.931 . S
C147 C140 1.399 . S
C147 C144 1.487 . S
C147 N179 1.343 . S
C148 C149 1.384 . S
C148 C150 1.384 . S
C148 H170 0.931 . S
C149 C148 1.384 . S
C149 C152 1.382 . S
C150 C148 1.384 . S
C150 C151 1.381 . S
C150 H171 0.930 . S
C151 C150 1.381 . S
C151 C153 1.381 . S
C151 C154 1.487 . S
C152 C149 1.382 . S
C152 C153 1.387 . S
C152 H172 0.930 . S
C153 C151 1.381 . S
C153 C152 1.387 . S
C153 H173 0.931 . S
C154 C151 1.487 . S
C154 C161 1.399 . S
C154 N179 1.343 . S
C155 C156 1.384 . S
C155 C157 1.384 . S
C155 H174 0.931 . S
C156 C155 1.384 . S
C156 C159 1.382 . S
C157 C155 1.384 . S
C157 C158 1.381 . S
C157 H175 0.930 . S
C158 C157 1.381 . S
C158 C160 1.381 . S
C158 C161 1.487 . S
C159 C156 1.382 . S
C159 C160 1.387 . S
C159 H176 0.930 . S
C160 C158 1.381 . S
C160 C159 1.387 . S
C160 H177 0.931 . S
C161 C154 1.399 . S
C161 C158 1.487 . S
C161 N178 1.343 . S
H162 C134 0.931 . S
H163 C136 0.930 . S
H164 C138 0.930 . S
H165 C139 0.931 . S
H166 C141 0.931 . S
H167 C143 0.930 . S
H168 C145 0.930 . S
H169 C146 0.931 . S
H170 C148 0.931 . S
H171 C150 0.930 . S
H172 C152 0.930 . S
H173 C153 0.931 . S
H174 C155 0.931 . S
H175 C157 0.930 . S
H176 C159 0.930 . S
H177 C160 0.931 . S
N178 C140 1.343 . S
N178 C161 1.343 . S
N179 C147 1.343 . S
N179 C154 1.343 . S
H180 C188 0.929 . S
H181 C190 0.930 . S
H182 C192 0.930 . S
H183 C195 0.929 . S
H184 C198 0.930 . S
H185 C200 0.960 . S
H186 C200 0.960 . S
H187 C200 0.960 . S
C188 H180 0.929 . S
C188 C189 1.377 1_655 S
C188 C190 1.384 . S
C189 C188 1.377 1_455 S
C189 C195 1.390 . S
C190 H181 0.930 . S
C190 C188 1.384 . S
C190 C191 1.372 1_655 S
C191 C190 1.372 1_455 S
C191 C192 1.400 . S
C191 C196 1.490 . S
C192 H182 0.930 . S
C192 C191 1.400 . S
C192 C195 1.386 . S
H193 C209 0.930 . S
H194 C210 0.931 . S
C195 H183 0.929 . S
C195 C189 1.390 . S
C195 C192 1.386 . S
C196 C191 1.490 . S
C196 C198 1.395 . S
C196 C199 1.403 . S
H197 C203 0.930 . S
C198 H184 0.930 . S
C198 C196 1.395 . S
C198 C201 1.403 . S
C199 C196 1.403 . S
C199 C200 1.524 . S
C199 C203 1.400 . S
C200 H185 0.960 . S
C200 H186 0.960 . S
C200 H187 0.960 . S
C200 C199 1.524 . S
C201 C198 1.403 . S
C201 C202 1.392 . S
C201 C205 1.500 . S
C202 C201 1.392 . S
C202 C203 1.385 . S
C202 C204 1.478 . S
C203 H197 0.930 . S
C203 C199 1.400 . S
C203 C202 1.385 . S
C204 C202 1.478 . S
C204 C206 1.381 . S
C204 C210 1.383 . S
C205 C201 1.500 . S
C205 H211 0.963 1_455 S
C205 H212 0.973 . S
C205 H213 0.939 1_455 S
C206 C204 1.381 . S
C206 C207 1.394 . S
C206 H214 0.930 1_455 S
C207 C206 1.394 . S
C207 C208 1.383 . S
C207 H215 0.929 1_455 S
C208 C207 1.383 . S
C208 C209 1.377 . S
C209 H193 0.930 . S
C209 C208 1.377 . S
C209 C210 1.379 . S
C210 H194 0.931 . S
C210 C204 1.383 . S
C210 C209 1.379 . S
H211 C205 0.963 1_655 S
H212 C205 0.973 . S
H213 C205 0.939 1_655 S
H214 C206 0.930 1_655 S
H215 C207 0.929 1_655 S
H216 C224 0.929 . S
H217 C226 0.930 . S
H218 C228 0.930 . S
H219 C231 0.929 . S
H220 C234 0.930 1_565 S
H221 C236 0.960 . S
H222 C236 0.960 . S
H223 C236 0.960 . S
C224 H216 0.929 . S
C224 C225 1.377 . S
C224 C226 1.384 . S
C225 C224 1.377 . S
C225 C231 1.390 . S
C226 H217 0.930 . S
C226 C224 1.384 . S
C226 C227 1.372 . S
C227 C226 1.372 . S
C227 C228 1.400 . S
C227 C232 1.490 . S
C228 H218 0.930 . S
C228 C227 1.400 . S
C228 C231 1.386 . S
H229 C245 0.930 . S
H230 C246 0.931 . S
C231 H219 0.929 . S
C231 C225 1.390 . S
C231 C228 1.386 . S
C232 C227 1.490 . S
C232 C234 1.395 . S
C232 C235 1.403 . S
H233 C239 0.930 . S
C234 H220 0.930 1_545 S
C234 C232 1.395 . S
C234 C237 1.394 . S
C235 C232 1.403 . S
C235 C236 1.524 . S
C235 C239 1.400 . S
C236 H221 0.960 . S
C236 H222 0.960 . S
C236 H223 0.960 . S
C236 C235 1.524 . S
C237 C234 1.394 . S
C237 C238 1.408 . S
C237 C241 1.490 1_545 S
C238 C237 1.408 . S
C238 C239 1.385 . S
C238 C240 1.478 . S
C239 H233 0.930 . S
C239 C235 1.400 . S
C239 C238 1.385 . S
C240 C238 1.478 . S
C240 C242 1.381 . S
C240 C246 1.383 . S
C241 C237 1.490 1_565 S
C241 H247 0.959 . S
C241 H248 0.961 . S
C241 H249 0.960 . S
C242 C240 1.381 . S
C242 C243 1.394 . S
C242 H250 0.930 . S
C243 C242 1.394 . S
C243 C244 1.383 . S
C243 H251 0.929 . S
C244 C243 1.383 . S
C244 C245 1.377 . S
C245 H229 0.930 . S
C245 C244 1.377 . S
C245 C246 1.379 . S
C246 H230 0.931 . S
C246 C240 1.383 . S
C246 C245 1.379 . S
H247 C241 0.959 . S
H248 C241 0.961 . S
H249 C241 0.960 . S
H250 C242 0.930 . S
H251 C243 0.929 . S
H252 C260 0.929 . S
H253 C262 0.930 . S
H254 C264 0.930 . S
H255 C267 0.929 . S
H256 C270 0.930 . S
H257 C272 0.960 . S
H258 C272 0.960 . S
H259 C272 0.960 . S
C260 H252 0.929 . S
C260 C261 1.377 . S
C260 C262 1.384 . S
C261 C260 1.377 . S
C261 C267 1.390 . S
C262 H253 0.930 . S
C262 C260 1.384 . S
C262 C263 1.372 . S
C263 C262 1.372 . S
C263 C264 1.400 . S
C263 C268 1.490 . S
C264 H254 0.930 . S
C264 C263 1.400 . S
C264 C267 1.386 . S
H265 C281 0.930 . S
H266 C282 0.931 . S
C267 H255 0.929 . S
C267 C261 1.390 . S
C267 C264 1.386 . S
C268 C263 1.490 . S
C268 C270 1.395 . S
C268 C271 1.403 . S
H269 C275 0.930 . S
C270 H256 0.930 . S
C270 C268 1.395 . S
C270 C273 1.403 . S
C271 C268 1.403 . S
C271 C272 1.524 . S
C271 C275 1.400 . S
C272 H257 0.960 . S
C272 H258 0.960 . S
C272 H259 0.960 . S
C272 C271 1.524 . S
C273 C270 1.403 . S
C273 C274 1.392 . S
C273 C277 1.495 . S
C274 C273 1.392 . S
C274 C275 1.385 . S
C274 C276 1.478 . S
C275 H269 0.930 . S
C275 C271 1.400 . S
C275 C274 1.385 . S
C276 C274 1.478 . S
C276 C278 1.381 . S
C276 C282 1.383 . S
C277 C273 1.495 . S
C277 H283 0.959 . S
C277 H284 0.961 . S
C277 H285 0.960 . S
C278 C276 1.381 . S
C278 C279 1.394 . S
C278 H286 0.930 . S
C279 C278 1.394 . S
C279 C280 1.383 . S
C279 H287 0.929 . S
C280 C279 1.383 . S
C280 C281 1.377 . S
C281 H265 0.930 . S
C281 C280 1.377 . S
C281 C282 1.379 . S
C282 H266 0.931 . S
C282 C276 1.383 . S
C282 C281 1.379 . S
H283 C277 0.959 . S
H284 C277 0.961 . S
H285 C277 0.960 . S
H286 C278 0.930 . S
H287 C279 0.929 . S
H288 C296 0.929 1_655 S
H289 C298 0.930 1_655 S
H290 C300 0.930 . S
H291 C303 0.929 . S
H292 C306 0.930 . S
H293 C308 0.960 . S
H294 C308 0.960 . S
H295 C308 0.960 . S
C296 H288 0.929 1_455 S
C296 C297 1.377 . S
C296 C298 1.384 . S
C297 C296 1.377 . S
C297 C303 1.390 . S
C298 H289 0.930 1_455 S
C298 C296 1.384 . S
C298 C299 1.372 . S
C299 C298 1.372 . S
C299 C300 1.400 . S
C299 C304 1.490 . S
C300 H290 0.930 . S
C300 C299 1.400 . S
C300 C303 1.386 . S
H301 C317 0.930 . S
H302 C318 0.931 . S
C303 H291 0.929 . S
C303 C297 1.390 . S
C303 C300 1.386 . S
C304 C299 1.490 . S
C304 C306 1.395 . S
C304 C307 1.403 . S
H305 C311 0.930 . S
C306 H292 0.930 . S
C306 C304 1.395 . S
C306 C309 1.403 . S
C307 C304 1.403 . S
C307 C308 1.524 . S
C307 C311 1.400 . S
C308 H293 0.960 . S
C308 H294 0.960 . S
C308 H295 0.960 . S
C308 C307 1.524 . S
C309 C306 1.403 . S
C309 C310 1.392 . S
C309 C313 1.495 . S
C310 C309 1.392 . S
C310 C311 1.385 . S
C310 C312 1.478 . S
C311 H305 0.930 . S
C311 C307 1.400 . S
C311 C310 1.385 . S
C312 C310 1.478 . S
C312 C314 1.381 . S
C312 C318 1.383 . S
C313 C309 1.495 . S
C313 H319 0.959 . S
C313 H320 0.961 . S
C313 H321 0.960 1_455 S
C314 C312 1.381 . S
C314 C315 1.394 . S
C314 H322 0.930 1_455 S
C315 C314 1.394 . S
C315 C316 1.383 . S
C315 H323 0.929 1_455 S
C316 C315 1.383 . S
C316 C317 1.377 . S
C317 H301 0.930 . S
C317 C316 1.377 . S
C317 C318 1.379 . S
C318 H302 0.931 . S
C318 C312 1.383 . S
C318 C317 1.379 . S
H319 C313 0.959 . S
H320 C313 0.961 . S
H321 C313 0.960 1_655 S
H322 C314 0.930 1_655 S
H323 C315 0.929 1_655 S
H324 C332 0.929 . S
H325 C334 0.930 . S
H326 C336 0.930 1_565 S
H327 C339 0.929 1_565 S
H328 C342 0.930 . S
H329 C344 0.960 . S
H330 C344 0.960 . S
H331 C344 0.960 . S
C332 H324 0.929 . S
C332 C333 1.377 . S
C332 C334 1.384 . S
C333 C332 1.377 . S
C333 C339 1.390 . S
C334 H325 0.930 . S
C334 C332 1.384 . S
C334 C335 1.372 . S
C335 C334 1.372 . S
C335 C336 1.400 . S
C335 C340 1.490 . S
C336 H326 0.930 1_545 S
C336 C335 1.400 . S
C336 C339 1.386 . S
H337 C353 0.930 1_565 S
H338 C354 0.931 1_565 S
C339 H327 0.929 1_545 S
C339 C333 1.390 . S
C339 C336 1.386 . S
C340 C335 1.490 . S
C340 C342 1.395 . S
C340 C343 1.403 . S
H341 C347 0.930 . S
C342 H328 0.930 . S
C342 C340 1.395 . S
C342 C345 1.403 . S
C343 C340 1.403 . S
C343 C344 1.524 . S
C343 C347 1.400 . S
C344 H329 0.960 . S
C344 H330 0.960 . S
C344 H331 0.960 . S
C344 C343 1.524 . S
C345 C342 1.403 . S
C345 C346 1.392 . S
C345 C349 1.495 . S
C346 C345 1.392 . S
C346 C347 1.385 . S
C346 C348 1.478 . S
C347 H341 0.930 . S
C347 C343 1.400 . S
C347 C346 1.385 . S
C348 C346 1.478 . S
C348 C350 1.381 . S
C348 C354 1.383 . S
C349 C345 1.495 . S
C349 H355 0.959 . S
C349 H356 0.961 . S
C349 H357 0.960 . S
C350 C348 1.381 . S
C350 C351 1.394 . S
C350 H358 0.930 . S
C351 C350 1.394 . S
C351 C352 1.383 . S
C351 H359 0.929 . S
C352 C351 1.383 . S
C352 C353 1.377 . S
C353 H337 0.930 1_545 S
C353 C352 1.377 . S
C353 C354 1.379 . S
C354 H338 0.931 1_545 S
C354 C348 1.383 . S
C354 C353 1.379 . S
H355 C349 0.959 . S
H356 C349 0.961 . S
H357 C349 0.960 . S
H358 C350 0.930 . S
H359 C351 0.929 . S
H360 C368 0.929 . S
H361 C370 0.930 . S
H362 C372 0.930 . S
H363 C375 0.929 . S
H364 C378 0.930 . S
H365 C380 0.960 . S
H366 C380 0.960 . S
H367 C380 0.960 . S
C368 H360 0.929 . S
C368 C369 1.377 . S
C368 C370 1.384 . S
C369 C368 1.377 . S
C369 C375 1.390 . S
C370 H361 0.930 . S
C370 C368 1.384 . S
C370 C371 1.372 . S
C371 C370 1.372 . S
C371 C372 1.400 . S
C371 C376 1.490 . S
C372 H362 0.930 . S
C372 C371 1.400 . S
C372 C375 1.386 . S
H373 C389 0.930 . S
H374 C390 0.931 . S
C375 H363 0.929 . S
C375 C369 1.390 . S
C375 C372 1.386 . S
C376 C371 1.490 . S
C376 C378 1.395 . S
C376 C379 1.403 . S
H377 C383 0.930 . S
C378 H364 0.930 . S
C378 C376 1.395 . S
C378 C381 1.403 . S
C379 C376 1.403 . S
C379 C380 1.524 . S
C379 C383 1.400 . S
C380 H365 0.960 . S
C380 H366 0.960 . S
C380 H367 0.960 . S
C380 C379 1.524 . S
C381 C378 1.403 . S
C381 C382 1.392 . S
C381 C385 1.495 . S
C382 C381 1.392 . S
C382 C383 1.385 . S
C382 C384 1.478 . S
C383 H377 0.930 . S
C383 C379 1.400 . S
C383 C382 1.385 . S
C384 C382 1.478 . S
C384 C386 1.381 . S
C384 C390 1.383 . S
C385 C381 1.495 . S
C385 H391 0.959 . S
C385 H392 0.961 . S
C385 H393 0.960 . S
C386 C384 1.381 . S
C386 C387 1.394 . S
C386 H394 0.930 . S
C387 C386 1.394 . S
C387 C388 1.383 . S
C387 H395 0.929 . S
C388 C387 1.383 . S
C388 C389 1.377 . S
C389 H373 0.930 . S
C389 C388 1.377 . S
C389 C390 1.379 . S
C390 H374 0.931 . S
C390 C384 1.383 . S
C390 C389 1.379 . S
H391 C385 0.959 . S
H392 C385 0.961 . S
H393 C385 0.960 . S
H394 C386 0.930 . S
H395 C387 0.929 . S
H396 C404 0.929 1_565 S
H397 C406 0.930 1_565 S
H398 C408 0.930 . S
H399 C411 0.929 . S
H400 C414 0.930 . S
H401 C416 0.960 . S
H402 C416 0.960 . S
H403 C416 0.960 . S
C404 H396 0.929 1_545 S
C404 C405 1.377 . S
C404 C406 1.384 . S
C405 C404 1.377 . S
C405 C411 1.390 . S
C406 H397 0.930 1_545 S
C406 C404 1.384 . S
C406 C407 1.372 . S
C407 C406 1.372 . S
C407 C408 1.400 . S
C407 C412 1.490 . S
C408 H398 0.930 . S
C408 C407 1.400 . S
C408 C411 1.386 . S
H409 C425 0.930 . S
H410 C426 0.931 . S
C411 H399 0.929 . S
C411 C405 1.390 . S
C411 C408 1.386 . S
C412 C407 1.490 . S
C412 C414 1.395 . S
C412 C415 1.403 . S
H413 C419 0.930 . S
C414 H400 0.930 . S
C414 C412 1.395 . S
C414 C417 1.403 . S
C415 C412 1.403 . S
C415 C416 1.524 . S
C415 C419 1.400 . S
C416 H401 0.960 . S
C416 H402 0.960 . S
C416 H403 0.960 . S
C416 C415 1.524 . S
C417 C414 1.403 . S
C417 C418 1.392 . S
C417 C421 1.494 . S
C418 C417 1.392 . S
C418 C419 1.385 . S
C418 C420 1.478 . S
C419 H413 0.930 . S
C419 C415 1.400 . S
C419 C418 1.385 . S
C420 C418 1.478 . S
C420 C422 1.381 1_545 S
C420 C426 1.383 . S
C421 C417 1.494 . S
C421 H427 0.955 1_545 S
C421 H428 0.971 . S
C421 H429 0.955 1_545 S
C422 C420 1.381 1_565 S
C422 C423 1.394 . S
C422 H430 0.930 . S
C423 C422 1.394 . S
C423 C424 1.383 1_565 S
C423 H431 0.929 . S
C424 C423 1.383 1_545 S
C424 C425 1.377 . S
C425 H409 0.930 . S
C425 C424 1.377 . S
C425 C426 1.379 . S
C426 H410 0.931 . S
C426 C420 1.383 . S
C426 C425 1.379 . S
H427 C421 0.955 1_565 S
H428 C421 0.971 . S
H429 C421 0.955 1_565 S
H430 C422 0.930 . S
H431 C423 0.929 . S
H432 C440 0.929 . S
H433 C442 0.930 . S
H434 C444 0.930 . S
H435 C447 0.929 . S
H436 C450 0.930 . S
H437 C452 0.960 . S
H438 C452 0.960 . S
H439 C452 0.960 . S
C440 H432 0.929 . S
C440 C441 1.377 . S
C440 C442 1.384 . S
C441 C440 1.377 . S
C441 C447 1.390 . S
C442 H433 0.930 . S
C442 C440 1.384 . S
C442 C443 1.372 . S
C443 C442 1.372 . S
C443 C444 1.400 . S
C443 C448 1.490 1_554 S
C444 H434 0.930 . S
C444 C443 1.400 . S
C444 C447 1.386 . S
H445 C461 0.930 . S
H446 C462 0.931 . S
C447 H435 0.929 . S
C447 C441 1.390 . S
C447 C444 1.386 . S
C448 C443 1.490 1_556 S
C448 C450 1.395 . S
C448 C451 1.403 . S
H449 C455 0.930 . S
C450 H436 0.930 . S
C450 C448 1.395 . S
C450 C453 1.403 . S
C451 C448 1.403 . S
C451 C452 1.524 1_556 S
C451 C455 1.400 . S
C452 H437 0.960 . S
C452 H438 0.960 . S
C452 H439 0.960 . S
C452 C451 1.524 1_554 S
C453 C450 1.403 . S
C453 C454 1.392 . S
C453 C457 1.495 . S
C454 C453 1.392 . S
C454 C455 1.385 . S
C454 C456 1.478 . S
C455 H449 0.930 . S
C455 C451 1.400 . S
C455 C454 1.385 . S
C456 C454 1.478 . S
C456 C458 1.381 . S
C456 C462 1.383 . S
C457 C453 1.495 . S
C457 H463 0.959 . S
C457 H464 0.961 . S
C457 H465 0.960 . S
C458 C456 1.381 . S
C458 C459 1.394 . S
C458 H466 0.930 . S
C459 C458 1.394 . S
C459 C460 1.383 . S
C459 H467 0.929 . S
C460 C459 1.383 . S
C460 C461 1.377 . S
C461 H445 0.930 . S
C461 C460 1.377 . S
C461 C462 1.379 . S
C462 H446 0.931 . S
C462 C456 1.383 . S
C462 C461 1.379 . S
H463 C457 0.959 . S
H464 C457 0.961 . S
H465 C457 0.960 . S
H466 C458 0.930 . S
H467 C459 0.929 . S
H468 C476 0.929 . S
H469 C478 0.930 . S
H470 C480 0.930 . S
H471 C483 0.924 1_655 S
H472 C486 0.930 . S
H473 C488 0.960 . S
H474 C488 0.960 . S
H475 C488 0.960 . S
C476 H468 0.929 . S
C476 C477 1.377 . S
C476 C478 1.384 . S
C477 C476 1.377 . S
C477 C483 1.390 . S
C478 H469 0.930 . S
C478 C476 1.384 . S
C478 C479 1.372 . S
C479 C478 1.372 . S
C479 C480 1.400 . S
C479 C484 1.490 . S
C480 H470 0.930 . S
C480 C479 1.400 . S
C480 C483 1.386 . S
H481 C497 0.930 . S
H482 C498 0.931 . S
C483 H471 0.924 1_455 S
C483 C477 1.390 . S
C483 C480 1.386 . S
C484 C479 1.490 . S
C484 C486 1.395 . S
C484 C487 1.403 1_455 S
H485 C491 0.930 1_655 S
C486 H472 0.930 . S
C486 C484 1.395 . S
C486 C489 1.403 . S
C487 C484 1.403 1_655 S
C487 C488 1.524 . S
C487 C491 1.400 1_655 S
C488 H473 0.960 . S
C488 H474 0.960 . S
C488 H475 0.960 . S
C488 C487 1.524 . S
C489 C486 1.403 . S
C489 C490 1.392 . S
C489 C493 1.495 . S
C490 C489 1.392 . S
C490 C491 1.385 . S
C490 C492 1.478 . S
C491 H485 0.930 1_455 S
C491 C487 1.400 1_455 S
C491 C490 1.385 . S
C492 C490 1.478 . S
C492 C494 1.381 . S
C492 C498 1.383 . S
C493 C489 1.495 . S
C493 H499 0.959 . S
C493 H500 0.961 . S
C493 H501 0.960 . S
C494 C492 1.381 . S
C494 C495 1.394 . S
C494 H502 0.930 . S
C495 C494 1.394 . S
C495 C496 1.383 . S
C495 H503 0.929 . S
C496 C495 1.383 . S
C496 C497 1.377 . S
C497 H481 0.930 . S
C497 C496 1.377 . S
C497 C498 1.379 . S
C498 H482 0.931 . S
C498 C492 1.383 . S
C498 C497 1.379 . S
H499 C493 0.959 . S
H500 C493 0.961 . S
H501 C493 0.960 . S
H502 C494 0.930 . S
H503 C495 0.929 . S
H504 C512 0.929 1_565 S
H505 C514 0.930 1_565 S
H506 C516 0.930 . S
H507 C519 0.929 . S
H508 C522 0.930 . S
H509 C524 0.960 . S
H510 C524 0.960 . S
H511 C524 0.960 . S
C512 H504 0.929 1_545 S
C512 C513 1.377 . S
C512 C514 1.384 . S
C513 C512 1.377 . S
C513 C519 1.390 . S
C514 H505 0.930 1_545 S
C514 C512 1.384 . S
C514 C515 1.372 . S
C515 C514 1.372 . S
C515 C516 1.400 . S
C515 C520 1.490 . S
C516 H506 0.930 . S
C516 C515 1.400 . S
C516 C519 1.386 . S
H517 C533 0.930 . S
H518 C534 0.931 . S
C519 H507 0.929 . S
C519 C513 1.390 . S
C519 C516 1.386 . S
C520 C515 1.490 . S
C520 C522 1.395 . S
C520 C523 1.403 . S
H521 C527 0.930 . S
C522 H508 0.930 . S
C522 C520 1.395 . S
C522 C525 1.403 . S
C523 C520 1.403 . S
C523 C524 1.524 . S
C523 C527 1.400 . S
C524 H509 0.960 . S
C524 H510 0.960 . S
C524 H511 0.960 . S
C524 C523 1.524 . S
C525 C522 1.403 . S
C525 C526 1.392 . S
C525 C529 1.495 . S
C526 C525 1.392 . S
C526 C527 1.385 . S
C526 C528 1.478 . S
C527 H521 0.930 . S
C527 C523 1.400 . S
C527 C526 1.385 . S
C528 C526 1.478 . S
C528 C530 1.381 . S
C528 C534 1.383 . S
C529 C525 1.495 . S
C529 H535 0.959 . S
C529 H536 0.961 . S
C529 H537 0.960 . S
C530 C528 1.381 . S
C530 C531 1.394 . S
C530 H538 0.930 1_545 S
C531 C530 1.394 . S
C531 C532 1.383 . S
C531 H539 0.929 1_545 S
C532 C531 1.383 . S
C532 C533 1.377 . S
C533 H517 0.930 . S
C533 C532 1.377 . S
C533 C534 1.379 . S
C534 H518 0.931 . S
C534 C528 1.383 . S
C534 C533 1.379 . S
H535 C529 0.959 . S
H536 C529 0.961 . S
H537 C529 0.960 . S
H538 C530 0.930 1_565 S
H539 C531 0.929 1_565 S
H540 C548 0.929 . S
H541 C550 0.930 . S
H542 C552 0.930 . S
H543 C555 0.929 . S
H544 C558 0.930 . S
H545 C560 0.960 . S
H546 C560 0.960 . S
H547 C560 0.960 . S
C548 H540 0.929 . S
C548 C549 1.377 . S
C548 C550 1.384 1_554 S
C549 C548 1.377 . S
C549 C555 1.390 . S
C550 H541 0.930 . S
C550 C548 1.384 1_556 S
C550 C551 1.372 1_556 S
C551 C550 1.372 1_554 S
C551 C552 1.400 . S
C551 C556 1.490 1_554 S
C552 H542 0.930 . S
C552 C551 1.400 . S
C552 C555 1.386 . S
H553 C569 0.930 . S
H554 C570 0.931 . S
C555 H543 0.929 . S
C555 C549 1.390 . S
C555 C552 1.386 . S
C556 C551 1.490 1_556 S
C556 C558 1.395 . S
C556 C559 1.403 . S
H557 C563 0.930 . S
C558 H544 0.930 . S
C558 C556 1.395 . S
C558 C561 1.403 . S
C559 C556 1.403 . S
C559 C560 1.524 1_556 S
C559 C563 1.400 . S
C560 H545 0.960 . S
C560 H546 0.960 . S
C560 H547 0.960 . S
C560 C559 1.524 1_554 S
C561 C558 1.403 . S
C561 C562 1.392 . S
C561 C565 1.495 . S
C562 C561 1.392 . S
C562 C563 1.385 . S
C562 C564 1.478 . S
C563 H557 0.930 . S
C563 C559 1.400 . S
C563 C562 1.385 . S
C564 C562 1.478 . S
C564 C566 1.381 . S
C564 C570 1.383 . S
C565 C561 1.495 . S
C565 H571 0.959 . S
C565 H572 0.961 . S
C565 H573 0.960 . S
C566 C564 1.381 . S
C566 C567 1.394 . S
C566 H574 0.930 . S
C567 C566 1.394 . S
C567 C568 1.383 . S
C567 H575 0.929 . S
C568 C567 1.383 . S
C568 C569 1.377 . S
C569 H553 0.930 . S
C569 C568 1.377 . S
C569 C570 1.379 . S
C570 H554 0.931 . S
C570 C564 1.383 . S
C570 C569 1.379 . S
H571 C565 0.959 . S
H572 C565 0.961 . S
H573 C565 0.960 . S
H574 C566 0.930 . S
H575 C567 0.929 . S
H576 C584 0.929 . S
H577 C586 0.930 . S
H578 C588 0.930 1_655 S
H579 C591 0.936 . S
H580 C594 0.930 . S
H581 C596 0.960 . S
H582 C596 0.960 . S
H583 C596 0.960 . S
C584 H576 0.929 . S
C584 C585 1.377 . S
C584 C586 1.384 . S
C585 C584 1.377 . S
C585 C591 1.377 1_455 S
C586 H577 0.930 . S
C586 C584 1.384 . S
C586 C587 1.372 . S
C587 C586 1.372 . S
C587 C588 1.400 . S
C587 C592 1.490 . S
C588 H578 0.930 1_455 S
C588 C587 1.400 . S
C588 C591 1.393 1_455 S
H589 C605 0.930 1_655 S
H590 C606 0.931 1_655 S
C591 H579 0.936 . S
C591 C585 1.377 1_655 S
C591 C588 1.393 1_655 S
C592 C587 1.490 . S
C592 C594 1.395 . S
C592 C595 1.403 . S
H593 C599 0.930 1_655 S
C594 H580 0.930 . S
C594 C592 1.395 . S
C594 C597 1.403 . S
C595 C592 1.403 . S
C595 C596 1.524 1_455 S
C595 C599 1.400 . S
C596 H581 0.960 . S
C596 H582 0.960 . S
C596 H583 0.960 . S
C596 C595 1.524 1_655 S
C597 C594 1.403 . S
C597 C598 1.392 . S
C597 C601 1.495 . S
C598 C597 1.392 . S
C598 C599 1.385 . S
C598 C600 1.478 . S
C599 H593 0.930 1_455 S
C599 C595 1.400 . S
C599 C598 1.385 . S
C600 C598 1.478 . S
C600 C602 1.381 . S
C600 C606 1.383 . S
C601 C597 1.495 . S
C601 H607 0.959 . S
C601 H608 0.961 . S
C601 H609 0.960 . S
C602 C600 1.381 . S
C602 C603 1.394 . S
C602 H610 0.930 . S
C603 C602 1.394 . S
C603 C604 1.383 . S
C603 H611 0.929 . S
C604 C603 1.383 . S
C604 C605 1.377 . S
C605 H589 0.930 1_455 S
C605 C604 1.377 . S
C605 C606 1.379 . S
C606 H590 0.931 1_455 S
C606 C600 1.383 . S
C606 C605 1.379 . S
H607 C601 0.959 . S
H608 C601 0.961 . S
H609 C601 0.960 . S
H610 C602 0.930 . S
H611 C603 0.929 . S
C208 C50 1.437 . S
C189 C0 1.437 . S
C225 C25 1.487 . S
C244 C89 1.483 . S
C261 C33 1.511 . S
C280 C156 1.508 . S
C297 C11 1.436 . S
C316 C57 1.434 . S
C352 C110 1.477 . S
C333 C14 1.475 . S
C369 C37 1.510 . S
C388 C135 1.511 . S
C424 C96 1.480 . S
C405 C28 1.476 . S
C441 C9 1.508 . S
C460 C149 1.511 . S
C496 C64 1.543 . S
C477 C19 1.546 . S
C532 C103 1.482 . S
C513 C39 1.485 . S
C568 C142 1.509 . S
C549 C5 1.510 . S
C585 C23 1.552 . S
C604 C43 1.556 . S
