# Generated by pormake.
# Topology pyr, (3,6)-cn, num edge types: 1
# Building blocks:
#     Node 0, Type 0, BuildingBlock: BELTOD_clean_linker_0, # of connection points: 3
#     Node 1, Type 0, BuildingBlock: BELTOD_clean_linker_0, # of connection points: 3
#     Node 2, Type 0, BuildingBlock: BELTOD_clean_linker_0, # of connection points: 3
#     Node 3, Type 0, BuildingBlock: BELTOD_clean_linker_0, # of connection points: 3
#     Node 4, Type 0, BuildingBlock: BELTOD_clean_linker_0, # of connection points: 3
#     Node 5, Type 0, BuildingBlock: BELTOD_clean_linker_0, # of connection points: 3
#     Node 6, Type 0, BuildingBlock: BELTOD_clean_linker_0, # of connection points: 3
#     Node 7, Type 0, BuildingBlock: BELTOD_clean_linker_0, # of connection points: 3
#     Node 8, Type 1, BuildingBlock: BETDEL_clean_sbu_0, # of connection points: 6
#     Node 9, Type 1, BuildingBlock: BETDEL_clean_sbu_0, # of connection points: 6
#     Node 10, Type 1, BuildingBlock: BETDEL_clean_sbu_0, # of connection points: 6
#     Node 11, Type 1, BuildingBlock: BETDEL_clean_sbu_0, # of connection points: 6
#     Edge 12, Type (0, 1), BuildingBlock: KIFKEQ_clean_linker_1, # of connection points: 2
#     Edge 13, Type (0, 1), BuildingBlock: KIFKEQ_clean_linker_1, # of connection points: 2
#     Edge 14, Type (0, 1), BuildingBlock: KIFKEQ_clean_linker_1, # of connection points: 2
#     Edge 15, Type (0, 1), BuildingBlock: KIFKEQ_clean_linker_1, # of connection points: 2
#     Edge 16, Type (0, 1), BuildingBlock: KIFKEQ_clean_linker_1, # of connection points: 2
#     Edge 17, Type (0, 1), BuildingBlock: KIFKEQ_clean_linker_1, # of connection points: 2
#     Edge 18, Type (0, 1), BuildingBlock: KIFKEQ_clean_linker_1, # of connection points: 2
#     Edge 19, Type (0, 1), BuildingBlock: KIFKEQ_clean_linker_1, # of connection points: 2
#     Edge 20, Type (0, 1), BuildingBlock: KIFKEQ_clean_linker_1, # of connection points: 2
#     Edge 21, Type (0, 1), BuildingBlock: KIFKEQ_clean_linker_1, # of connection points: 2
#     Edge 22, Type (0, 1), BuildingBlock: KIFKEQ_clean_linker_1, # of connection points: 2
#     Edge 23, Type (0, 1), BuildingBlock: KIFKEQ_clean_linker_1, # of connection points: 2
#     Edge 24, Type (0, 1), BuildingBlock: KIFKEQ_clean_linker_1, # of connection points: 2
#     Edge 25, Type (0, 1), BuildingBlock: KIFKEQ_clean_linker_1, # of connection points: 2
#     Edge 26, Type (0, 1), BuildingBlock: KIFKEQ_clean_linker_1, # of connection points: 2
#     Edge 27, Type (0, 1), BuildingBlock: KIFKEQ_clean_linker_1, # of connection points: 2
#     Edge 28, Type (0, 1), BuildingBlock: KIFKEQ_clean_linker_1, # of connection points: 2
#     Edge 29, Type (0, 1), BuildingBlock: KIFKEQ_clean_linker_1, # of connection points: 2
#     Edge 30, Type (0, 1), BuildingBlock: KIFKEQ_clean_linker_1, # of connection points: 2
#     Edge 31, Type (0, 1), BuildingBlock: KIFKEQ_clean_linker_1, # of connection points: 2
#     Edge 32, Type (0, 1), BuildingBlock: KIFKEQ_clean_linker_1, # of connection points: 2
#     Edge 33, Type (0, 1), BuildingBlock: KIFKEQ_clean_linker_1, # of connection points: 2
#     Edge 34, Type (0, 1), BuildingBlock: KIFKEQ_clean_linker_1, # of connection points: 2
#     Edge 35, Type (0, 1), BuildingBlock: KIFKEQ_clean_linker_1, # of connection points: 2
# Relax obj value: 0.027
# Max RMSD: 0.092
# Mean RMSD: 0.040
data_MOF--net-pyr--node1-BETDEL_clean_sbu_0--node2-BELTOD_clean_linker_0--edge1-KIFKEQ_clean_linker_1
_symmetry_space_group_name_H-M    P1
_symmetry_Int_Tables_number       1
_symmetry_cell_setting            triclinic
loop_
_symmetry_equiv_pos_as_xyz
'x, y, z'
_cell_length_a     42.440467
_cell_length_b     44.461752
_cell_length_c     40.394035
_cell_angle_alpha  91.449099
_cell_angle_beta   89.257173
_cell_angle_gamma 95.034069
loop_
_atom_site_label
_atom_site_type_symbol
_atom_site_fract_x
_atom_site_fract_y
_atom_site_fract_z
_atom_type_partial_charge
P0 P 0.24994 0.2508 0.22925 0.0
H1 H 0.31229 0.25586 0.19765 0.0
H2 H 0.34135 0.22019 0.16498 0.0
H3 H 0.26351 0.1516 0.17705 0.0
H4 H 0.23414 0.1878 0.20797 0.0
H5 H 0.2375 0.31429 0.22556 0.0
H6 H 0.20345 0.34044 0.18954 0.0
H7 H 0.17969 0.25694 0.13476 0.0
H8 H 0.21385 0.23113 0.17053 0.0
H9 H 0.25635 0.20174 0.2744 0.0
H10 H 0.18313 0.25729 0.24641 0.0
O11 O 0.27495 0.27456 0.25085 0.0
H12 H 0.21774 0.16997 0.30594 0.0
H13 H 0.14464 0.22653 0.27909 0.0
C14 C 0.27161 0.22415 0.20622 0.0
C15 C 0.30163 0.23308 0.19335 0.0
C16 C 0.3182 0.21263 0.17474 0.0
C17 C 0.30494 0.18286 0.16871 0.0
C18 C 0.27441 0.17434 0.18099 0.0
C19 C 0.25778 0.19491 0.19924 0.0
C20 C 0.22867 0.27097 0.20024 0.0
C21 C 0.22545 0.3018 0.20537 0.0
C22 C 0.2058 0.31662 0.18498 0.0
C23 C 0.18895 0.30069 0.15933 0.0
C24 C 0.19276 0.2699 0.15396 0.0
C25 C 0.21232 0.25512 0.1744 0.0
C26 C 0.22245 0.23123 0.25723 0.0
C27 C 0.23204 0.20738 0.27551 0.0
C28 C 0.2099 0.18936 0.29374 0.0
C29 C 0.17787 0.19539 0.29466 0.0
C30 C 0.16888 0.22071 0.27814 0.0
C31 C 0.19099 0.23847 0.25957 0.0
P32 P 0.32628 0.85951 0.62039 0.0
H33 H 0.38573 0.87227 0.65446 0.0
H34 H 0.39911 0.88507 0.71188 0.0
H35 H 0.29963 0.8809 0.73753 0.0
H36 H 0.28644 0.8687 0.67961 0.0
H37 H 0.34241 0.82343 0.5625 0.0
H38 H 0.35399 0.77082 0.55542 0.0
H39 H 0.32763 0.755 0.65765 0.0
H40 H 0.31655 0.80786 0.66462 0.0
H41 H 0.30774 0.91349 0.58963 0.0
H42 H 0.26142 0.83059 0.6265 0.0
O43 O 0.3538 0.87759 0.59649 0.0
H44 H 0.25684 0.92919 0.57266 0.0
H45 H 0.21001 0.84638 0.60963 0.0
C46 C 0.33516 0.87018 0.66268 0.0
C47 C 0.36679 0.87439 0.67238 0.0
C48 C 0.37439 0.88135 0.70532 0.0
C49 C 0.35041 0.88387 0.72936 0.0
C50 C 0.31862 0.87944 0.71956 0.0
C51 C 0.31106 0.87248 0.68646 0.0
C52 C 0.32934 0.81966 0.61423 0.0
C53 C 0.33876 0.80853 0.58326 0.0
C54 C 0.34518 0.77837 0.57922 0.0
C55 C 0.34208 0.75875 0.6061 0.0
C56 C 0.33084 0.76966 0.63664 0.0
C57 C 0.32439 0.79986 0.64062 0.0
C58 C 0.28837 0.87059 0.60859 0.0
C59 C 0.28659 0.89857 0.59391 0.0
C60 C 0.25749 0.90754 0.58423 0.0
C61 C 0.22953 0.88886 0.58952 0.0
C62 C 0.23121 0.8612 0.60528 0.0
C63 C 0.26052 0.85209 0.61468 0.0
P64 P 0.66526 0.31038 0.81821 0.0
H65 H 0.73046 0.29697 0.82816 0.0
H66 H 0.7741 0.32218 0.86002 0.0
H67 H 0.71327 0.38945 0.89487 0.0
H68 H 0.66923 0.36362 0.86334 0.0
H69 H 0.68111 0.25496 0.84696 0.0
H70 H 0.65233 0.21767 0.88197 0.0
H71 H 0.5717 0.27058 0.88381 0.0
H72 H 0.60108 0.30842 0.84924 0.0
H73 H 0.68034 0.37329 0.79906 0.0
H74 H 0.60312 0.30442 0.7863 0.0
O75 O 0.68151 0.2899 0.78844 0.0
H76 H 0.65471 0.40614 0.76274 0.0
H77 H 0.57761 0.33702 0.74889 0.0
C78 C 0.69689 0.32899 0.84256 0.0
C79 C 0.72644 0.31715 0.84261 0.0
C80 C 0.75132 0.33144 0.86101 0.0
C81 C 0.74713 0.35791 0.87967 0.0
C82 C 0.71723 0.3693 0.88033 0.0
C83 C 0.69213 0.35462 0.86233 0.0
C84 C 0.64298 0.28407 0.84476 0.0
C85 C 0.65725 0.25863 0.85494 0.0
C86 C 0.64087 0.23742 0.87516 0.0
C87 C 0.6097 0.24111 0.88552 0.0
C88 C 0.59558 0.26698 0.87586 0.0
C89 C 0.61228 0.28854 0.85598 0.0
C90 C 0.64304 0.33676 0.79683 0.0
C91 C 0.65733 0.36551 0.78942 0.0
C92 C 0.64285 0.38419 0.76803 0.0
C93 C 0.61405 0.37429 0.75277 0.0
C94 C 0.59946 0.34565 0.76065 0.0
C95 C 0.61399 0.32698 0.7822 0.0
P96 P 0.80352 0.68509 0.29762 0.0
H97 H 0.8171 0.74848 0.28124 0.0
H98 H 0.84678 0.79112 0.30905 0.0
H99 H 0.87242 0.73236 0.3859 0.0
H100 H 0.84297 0.68934 0.35741 0.0
H101 H 0.83958 0.6981 0.23741 0.0
H102 H 0.87058 0.66752 0.20027 0.0
H103 H 0.85502 0.59266 0.26628 0.0
H104 H 0.82467 0.62363 0.3038 0.0
H105 H 0.78282 0.69484 0.36708 0.0
H106 H 0.7647 0.62815 0.28867 0.0
O107 O 0.77941 0.69988 0.27137 0.0
H108 H 0.74356 0.66732 0.40209 0.0
H109 H 0.7252 0.60056 0.32364 0.0
C110 C 0.82702 0.7159 0.3178 0.0
C111 C 0.82909 0.74465 0.30404 0.0
C112 C 0.84626 0.76902 0.31984 0.0
C113 C 0.86166 0.76513 0.34981 0.0
C114 C 0.86039 0.73607 0.36307 0.0
C115 C 0.84361 0.71153 0.34685 0.0
C116 C 0.82913 0.66293 0.27292 0.0
C117 C 0.84309 0.6752 0.24406 0.0
C118 C 0.86089 0.65774 0.22291 0.0
C119 C 0.86489 0.62757 0.23016 0.0
C120 C 0.85187 0.61568 0.25979 0.0
C121 C 0.83446 0.63336 0.28122 0.0
C122 C 0.77785 0.66292 0.32561 0.0
C123 C 0.77126 0.67377 0.35768 0.0
C124 C 0.74857 0.65807 0.37772 0.0
C125 C 0.73139 0.63163 0.36575 0.0
C126 C 0.738 0.62086 0.3336 0.0
C127 C 0.76085 0.63645 0.31371 0.0
P128 P 0.82813 0.85541 0.90233 0.0
H129 H 0.78771 0.83547 0.95753 0.0
H130 H 0.73271 0.84233 0.97178 0.0
H131 H 0.72281 0.88696 0.87903 0.0
H132 H 0.77701 0.87842 0.86425 0.0
H133 H 0.89079 0.8363 0.91079 0.0
H134 H 0.91053 0.78688 0.91864 0.0
H135 H 0.81484 0.74504 0.9164 0.0
H136 H 0.79522 0.79434 0.90736 0.0
H137 H 0.8395 0.91398 0.87199 0.0
H138 H 0.83986 0.8203 0.8414 0.0
O139 O 0.84682 0.8802 0.92864 0.0
H140 H 0.85642 0.92924 0.81628 0.0
H141 H 0.85731 0.83549 0.78583 0.0
C142 C 0.78641 0.85627 0.90982 0.0
C143 C 0.77337 0.84597 0.93991 0.0
C144 C 0.74199 0.85014 0.94811 0.0
C145 C 0.72337 0.86549 0.92671 0.0
C146 C 0.73623 0.87466 0.89592 0.0
C147 C 0.76748 0.87006 0.88755 0.0
C148 C 0.84156 0.81905 0.90954 0.0
C149 C 0.87407 0.81651 0.91217 0.0
C150 C 0.88531 0.78835 0.91638 0.0
C151 C 0.86409 0.7624 0.91828 0.0
C152 C 0.83152 0.7649 0.91536 0.0
C153 C 0.82034 0.79305 0.91047 0.0
C154 C 0.8391 0.86611 0.86093 0.0
C155 C 0.84324 0.89674 0.85328 0.0
C156 C 0.85269 0.90539 0.82147 0.0
C157 C 0.85832 0.88349 0.79693 0.0
C158 C 0.85346 0.85276 0.80447 0.0
C159 C 0.84354 0.84412 0.8362 0.0
P160 P 0.77729 0.24583 0.30448 0.0
H161 H 0.78577 0.30735 0.33233 0.0
H162 H 0.74944 0.33948 0.36052 0.0
H163 H 0.67617 0.26547 0.35788 0.0
H164 H 0.71299 0.23332 0.33077 0.0
H165 H 0.84448 0.24036 0.31594 0.0
H166 H 0.87226 0.20627 0.34914 0.0
H167 H 0.78253 0.16361 0.383 0.0
H168 H 0.75494 0.19857 0.35041 0.0
H169 H 0.72855 0.26199 0.26006 0.0
H170 H 0.77465 0.18206 0.28134 0.0
O171 O 0.80354 0.26884 0.2841 0.0
H172 H 0.69407 0.23277 0.22078 0.0
H173 H 0.73979 0.15259 0.24273 0.0
C174 C 0.75184 0.26819 0.32889 0.0
C175 C 0.76198 0.298 0.33814 0.0
C176 C 0.74109 0.3164 0.35405 0.0
C177 C 0.70967 0.30525 0.36099 0.0
C178 C 0.70018 0.27482 0.35309 0.0
C179 C 0.72117 0.25642 0.33738 0.0
C180 C 0.79766 0.22199 0.33076 0.0
C181 C 0.83077 0.22386 0.33072 0.0
C182 C 0.84665 0.20413 0.34953 0.0
C183 C 0.82967 0.18199 0.36858 0.0
C184 C 0.79639 0.18058 0.36895 0.0
C185 C 0.78055 0.20049 0.35026 0.0
C186 C 0.75359 0.22407 0.27424 0.0
C187 C 0.73116 0.23812 0.25636 0.0
C188 C 0.71138 0.22137 0.23404 0.0
C189 C 0.71391 0.19028 0.22895 0.0
C190 C 0.73729 0.17651 0.24603 0.0
C191 C 0.75707 0.19332 0.26839 0.0
P192 P 0.36725 0.66037 0.14064 0.0
H193 H 0.31743 0.68665 0.10361 0.0
H194 H 0.26339 0.6672 0.08942 0.0
H195 H 0.2721 0.58995 0.1502 0.0
H196 H 0.32588 0.60952 0.1645 0.0
H197 H 0.42028 0.69196 0.10593 0.0
H198 H 0.43465 0.74491 0.09451 0.0
H199 H 0.35342 0.76963 0.15124 0.0
H200 H 0.33943 0.71614 0.1631 0.0
H201 H 0.41676 0.62198 0.15793 0.0
H202 H 0.34742 0.67133 0.20969 0.0
O203 O 0.38476 0.64126 0.11055 0.0
H204 H 0.43203 0.60108 0.20988 0.0
H205 H 0.36259 0.65018 0.26225 0.0
C206 C 0.32546 0.65002 0.13593 0.0
C207 C 0.30737 0.66607 0.11481 0.0
C208 C 0.27651 0.65487 0.10657 0.0
C209 C 0.26355 0.62702 0.11865 0.0
C210 C 0.2815 0.61139 0.14039 0.0
C211 C 0.31216 0.62275 0.14886 0.0
C212 C 0.37839 0.70003 0.13477 0.0
C213 C 0.40548 0.70869 0.11593 0.0
C214 C 0.41358 0.73906 0.10921 0.0
C215 C 0.39487 0.76157 0.12138 0.0
C216 C 0.36833 0.7529 0.14142 0.0
C217 C 0.36023 0.72235 0.14814 0.0
C218 C 0.38076 0.64806 0.17987 0.0
C219 C 0.40488 0.62849 0.18052 0.0
C220 C 0.41349 0.61635 0.2103 0.0
C221 C 0.39824 0.6236 0.2402 0.0
C222 C 0.37485 0.64418 0.23968 0.0
C223 C 0.36613 0.65627 0.2097 0.0
P224 P 0.19804 0.31318 0.70434 0.0
H225 H 0.17323 0.25299 0.7233 0.0
H226 H 0.14112 0.21233 0.69469 0.0
H227 H 0.13214 0.27011 0.61156 0.0
H228 H 0.16424 0.31092 0.64059 0.0
H229 H 0.22327 0.37685 0.70856 0.0
H230 H 0.26105 0.40709 0.67406 0.0
H231 H 0.26369 0.33213 0.60435 0.0
H232 H 0.2264 0.30174 0.63924 0.0
H233 H 0.214 0.33854 0.76982 0.0
H234 H 0.13493 0.33604 0.70359 0.0
O235 O 0.22396 0.2951 0.7253 0.0
H236 H 0.18541 0.3674 0.81059 0.0
H237 H 0.10615 0.36549 0.74424 0.0
C238 C 0.17189 0.28465 0.68368 0.0
C239 C 0.16426 0.25698 0.69897 0.0
C240 C 0.14572 0.23379 0.68266 0.0
C241 C 0.13435 0.23786 0.65068 0.0
C242 C 0.14103 0.2661 0.63593 0.0
C243 C 0.15935 0.28944 0.65249 0.0
C244 C 0.22115 0.33725 0.67603 0.0
C245 C 0.23137 0.36706 0.68552 0.0
C246 C 0.25319 0.3843 0.66591 0.0
C247 C 0.2652 0.37203 0.63641 0.0
C248 C 0.25444 0.34237 0.62664 0.0
C249 C 0.23298 0.32502 0.64652 0.0
C250 C 0.17639 0.33471 0.73391 0.0
C251 C 0.1904 0.34416 0.76408 0.0
C252 C 0.17409 0.36091 0.7873 0.0
C253 C 0.14342 0.36876 0.78077 0.0
C254 C 0.12954 0.35947 0.75027 0.0
C255 C 0.14599 0.34273 0.72696 0.0
Dy256 Dy 0.00726 0.01403 0.4667 0.0
C257 C 0.95455 0.96935 0.58749 0.0
C258 C 0.03147 0.04429 0.41288 0.0
Dy259 Dy 0.97742 0.99605 0.53106 0.0
O260 O 0.04273 0.021 0.42544 0.0
O261 O 0.00631 0.0507 0.42926 0.0
O262 O 0.03552 0.97414 0.46719 0.0
O263 O 0.02582 0.99627 0.5123 0.0
C264 C 0.03824 0.97402 0.49913 0.0
C265 C 0.94621 0.0353 0.49754 0.0
O266 O 0.01424 0.03095 0.55015 0.0
O267 O 0.02132 0.05439 0.50004 0.0
O268 O 0.95092 0.99679 0.57934 0.0
O269 O 0.97092 0.95626 0.56485 0.0
O270 O 0.94748 0.03526 0.52953 0.0
O271 O 0.95919 0.01314 0.4854 0.0
O272 O 0.97316 0.97701 0.44694 0.0
O273 O 0.96284 0.95556 0.49808 0.0
C274 C 0.02474 0.05457 0.5326 0.0
C275 C 0.96141 0.95426 0.46524 0.0
Dy276 Dy 0.51601 0.02564 0.05128 0.0
C277 C 0.4385 0.97001 0.94325 0.0
C278 C 0.55913 0.06184 0.08639 0.0
Dy279 Dy 0.46904 1.00069 0.99419 0.0
O280 O 0.55937 0.03273 0.08262 0.0
O281 O 0.53522 0.07124 0.071 0.0
O282 O 0.50382 0.98829 0.08798 0.0
O283 O 0.48183 0.98789 0.04268 0.0
C284 C 0.48321 0.9734 0.06879 0.0
C285 C 0.49605 0.05736 0.98813 0.0
O286 O 0.43468 0.01889 0.03031 0.0
O287 O 0.47194 0.04791 0.06285 0.0
O288 O 0.46605 0.98503 0.94135 0.0
O289 O 0.42714 0.97171 0.97332 0.0
O290 O 0.46804 0.04832 0.9774 0.0
O291 O 0.50902 0.03524 0.99912 0.0
O292 O 0.54803 1.00264 0.01716 0.0
O293 O 0.50954 0.97136 0.98962 0.0
C294 C 0.44241 0.03946 0.05397 0.0
C295 C 0.53943 0.97895 0.99781 0.0
Dy296 Dy 0.51092 0.47962 0.48356 0.0
C297 C 0.4499 0.57096 0.55664 0.0
C298 C 0.55146 0.4432 0.4529 0.0
Dy299 Dy 0.48639 0.53075 0.52593 0.0
O300 O 0.52108 0.43679 0.45579 0.0
O301 O 0.55947 0.46947 0.46644 0.0
O302 O 0.46216 0.45577 0.48058 0.0
O303 O 0.47526 0.4821 0.52287 0.0
C304 C 0.45248 0.46727 0.50846 0.0
C305 C 0.54453 0.54288 0.49963 0.0
O306 O 0.50297 0.50267 0.56668 0.0
O307 O 0.53399 0.47413 0.53277 0.0
O308 O 0.48048 0.57172 0.55845 0.0
O309 O 0.43916 0.5479 0.53847 0.0
O310 O 0.53567 0.55435 0.52776 0.0
O311 O 0.52125 0.5282 0.48622 0.0
O312 O 0.49235 0.50604 0.4428 0.0
O313 O 0.46319 0.53663 0.47656 0.0
C314 C 0.52502 0.48341 0.56265 0.0
C315 C 0.47116 0.52615 0.44675 0.0
Dy316 Dy 0.00892 0.46652 0.02034 0.0
C317 C 0.96396 0.57388 0.9738 0.0
C318 C 0.03879 0.41753 0.03738 0.0
Dy319 Dy 0.99278 0.52424 0.99052 0.0
O320 O 0.01292 0.42566 0.05104 0.0
O321 O 0.04808 0.43593 0.01408 0.0
O322 O 0.97149 0.47021 0.05967 0.0
O323 O 0.9954 0.50961 0.04115 0.0
C324 C 0.97302 0.4995 0.05967 0.0
C325 C 0.02852 0.4912 0.951 0.0
O326 O 0.03366 0.54318 0.02135 0.0
O327 O 0.05324 0.49711 0.02997 0.0
O328 O 0.99227 0.56826 0.96455 0.0
O329 O 0.95143 0.55251 0.9923 0.0
O330 O 0.02979 0.52044 0.95077 0.0
O331 O 0.00616 0.48119 0.96958 0.0
O332 O 0.96763 0.4476 0.99038 0.0
O333 O 0.94801 0.49379 0.98222 0.0
C334 C 0.05652 0.52705 0.03106 0.0
C335 C 0.94464 0.46383 0.98125 0.0
H336 H 0.18386 0.16537 0.35236 0.0
H337 H 0.1174 0.17769 0.27456 0.0
H338 H 0.14617 0.12752 0.37677 0.0
H339 H 0.07928 0.14063 0.30005 0.0
H340 H 0.01401 0.09694 0.38813 0.0
H341 H 0.04797 0.13433 0.35735 0.0
H342 H 0.12267 0.07435 0.35515 0.0
H343 H 0.08886 0.03702 0.38539 0.0
C344 C 0.16127 0.16007 0.34044 0.0
C345 C 0.15384 0.17444 0.31131 0.0
C346 C 0.13969 0.13847 0.35449 0.0
C347 C 0.11005 0.13105 0.34001 0.0
C348 C 0.102 0.14608 0.31165 0.0
C349 C 0.12379 0.16742 0.29726 0.0
C350 C 0.03742 0.09155 0.38034 0.0
C351 C 0.04897 0.06427 0.38925 0.0
C352 C 0.05679 0.11289 0.36284 0.0
C353 C 0.088 0.10728 0.35447 0.0
C354 C 0.09883 0.07932 0.36183 0.0
C355 C 0.07942 0.05792 0.37889 0.0
H356 H 0.32299 0.92284 0.77246 0.0
H357 H 0.39712 0.8622 0.76539 0.0
H358 H 0.34149 0.93981 0.82752 0.0
H359 H 0.4158 0.87958 0.81996 0.0
H360 H 0.46616 0.95606 0.88514 0.0
H361 H 0.44166 0.9313 0.83643 0.0
H362 H 0.35149 0.9227 0.88765 0.0
H363 H 0.37639 0.94752 0.93712 0.0
C364 C 0.3428 0.9127 0.78288 0.0
C365 C 0.35893 0.89155 0.76431 0.0
C366 C 0.35334 0.92241 0.81439 0.0
C367 C 0.38026 0.91123 0.82776 0.0
C368 C 0.39527 0.88889 0.80998 0.0
C369 C 0.38467 0.87909 0.77868 0.0
C370 C 0.44115 0.9487 0.88617 0.0
C371 C 0.42312 0.95368 0.91481 0.0
C372 C 0.42717 0.93435 0.85834 0.0
C373 C 0.39474 0.92493 0.85836 0.0
C374 C 0.37656 0.92979 0.88706 0.0
C375 C 0.39076 0.94383 0.91528 0.0
H376 H 0.55173 0.38381 0.74218 0.0
H377 H 0.64625 0.40635 0.70422 0.0
H378 H 0.53031 0.41183 0.69748 0.0
H379 H 0.62503 0.43499 0.66051 0.0
H380 H 0.5741 0.44773 0.56362 0.0
H381 H 0.59487 0.42306 0.61055 0.0
H382 H 0.52773 0.46326 0.67545 0.0
H383 H 0.50643 0.48785 0.62807 0.0
C384 C 0.56794 0.39486 0.72447 0.0
C385 C 0.60073 0.39278 0.72688 0.0
C386 C 0.55569 0.41118 0.69905 0.0
C387 C 0.57593 0.42558 0.6753 0.0
C388 C 0.60871 0.42391 0.67811 0.0
C389 C 0.62092 0.40774 0.70349 0.0
C390 C 0.56374 0.4515 0.58785 0.0
C391 C 0.53854 0.46984 0.59198 0.0
C392 C 0.57584 0.43744 0.61487 0.0
C393 C 0.56307 0.44122 0.64684 0.0
C394 C 0.53795 0.45968 0.65111 0.0
C395 C 0.5259 0.47395 0.62399 0.0
H396 H 0.9215 0.64107 0.19833 0.0
H397 H 0.84529 0.57082 0.20739 0.0
H398 H 0.94764 0.61011 0.1575 0.0
H399 H 0.87054 0.54024 0.16565 0.0
H400 H 0.93737 0.48019 0.11282 0.0
H401 H 0.91238 0.51075 0.15472 0.0
H402 H 0.9455 0.59154 0.1027 0.0
H403 H 0.97186 0.5608 0.06179 0.0
C404 C 0.91028 0.61903 0.1914 0.0
C405 C 0.88143 0.60831 0.20616 0.0
C406 C 0.92512 0.6013 0.1678 0.0
C407 C 0.91126 0.57256 0.15797 0.0
C408 C 0.88235 0.56192 0.17289 0.0
C409 C 0.86777 0.57948 0.19682 0.0
C410 C 0.93926 0.50449 0.11038 0.0
C411 C 0.95661 0.51813 0.08411 0.0
C412 C 0.92474 0.52208 0.13432 0.0
C413 C 0.92679 0.55379 0.13232 0.0
C414 C 0.94384 0.56732 0.10558 0.0
C415 C 0.95874 0.5497 0.0819 0.0
H416 H 0.36814 0.17651 0.17285 0.0
H417 H 0.28326 0.13843 0.12391 0.0
H418 H 0.39823 0.1396 0.14458 0.0
H419 H 0.31319 0.09997 0.0972 0.0
H420 H 0.38863 0.05871 0.02811 0.0
H421 H 0.35321 0.09244 0.05557 0.0
H422 H 0.40485 0.08747 0.14659 0.0
H423 H 0.44074 0.05518 0.11876 0.0
C424 C 0.35587 0.16031 0.15598 0.0
C425 C 0.32325 0.16051 0.15069 0.0
C426 C 0.37305 0.13874 0.14018 0.0
C427 C 0.35803 0.11646 0.11902 0.0
C428 C 0.32549 0.11683 0.1133 0.0
C429 C 0.30829 0.13867 0.12892 0.0
C430 C 0.39189 0.06451 0.05412 0.0
C431 C 0.4175 0.05479 0.0713 0.0
C432 C 0.37168 0.08379 0.06987 0.0
C433 C 0.37665 0.09321 0.10309 0.0
C434 C 0.40098 0.08151 0.12071 0.0
C435 C 0.42137 0.06279 0.10489 0.0
H436 H 0.17287 0.88844 0.62311 0.0
H437 H 0.21748 0.9102 0.52903 0.0
H438 H 0.12319 0.90571 0.6033 0.0
H439 H 0.16834 0.92756 0.50947 0.0
H440 H 0.07026 0.92949 0.47157 0.0
H441 H 0.11408 0.90559 0.49509 0.0
H442 H 0.10336 0.95592 0.58679 0.0
H443 H 0.05909 0.97985 0.56318 0.0
C444 C 0.17195 0.8967 0.59818 0.0
C445 C 0.199 0.89809 0.57762 0.0
C446 C 0.14366 0.90675 0.58695 0.0
C447 C 0.14188 0.91786 0.55481 0.0
C448 C 0.16886 0.91877 0.53421 0.0
C449 C 0.19708 0.90909 0.5455 0.0
C450 C 0.07697 0.93519 0.4969 0.0
C451 C 0.06162 0.95683 0.51541 0.0
C452 C 0.10212 0.92158 0.51031 0.0
C453 C 0.11243 0.92923 0.54258 0.0
C454 C 0.09587 0.94956 0.56186 0.0
C455 C 0.07065 0.96332 0.54834 0.0
H456 H 0.76744 0.41778 0.87816 0.0
H457 H 0.78819 0.33393 0.92098 0.0
H458 H 0.81457 0.44332 0.90361 0.0
H459 H 0.83462 0.35953 0.94773 0.0
H460 H 0.93428 0.40532 0.9588 0.0
H461 H 0.88594 0.38024 0.93573 0.0
H462 H 0.83883 0.46174 0.95266 0.0
H463 H 0.8877 0.48714 0.97429 0.0
C464 C 0.78182 0.40497 0.89358 0.0
C465 C 0.77426 0.37388 0.89751 0.0
C466 C 0.80883 0.41959 0.9083 0.0
C467 C 0.82869 0.40355 0.92771 0.0
C468 C 0.82043 0.37255 0.93238 0.0
C469 C 0.79369 0.35787 0.91725 0.0
C470 C 0.91358 0.41785 0.95765 0.0
C471 C 0.91489 0.44826 0.96826 0.0
C472 C 0.8857 0.4034 0.9446 0.0
C473 C 0.85825 0.41885 0.94228 0.0
C474 C 0.85954 0.44919 0.95342 0.0
C475 C 0.88756 0.46376 0.96603 0.0
H476 H 0.73162 0.61857 0.43178 0.0
H477 H 0.67225 0.61059 0.3455 0.0
H478 H 0.68829 0.59476 0.465 0.0
H479 H 0.6288 0.58757 0.3786 0.0
H480 H 0.56306 0.52492 0.43797 0.0
H481 H 0.60983 0.54368 0.4067 0.0
H482 H 0.63834 0.60402 0.48862 0.0
H483 H 0.5922 0.58405 0.52042 0.0
C484 C 0.70927 0.61181 0.41995 0.0
C485 C 0.70543 0.61634 0.38597 0.0
C486 C 0.68436 0.59824 0.439 0.0
C487 C 0.65492 0.58911 0.42457 0.0
C488 C 0.65124 0.59363 0.39052 0.0
C489 C 0.67618 0.60694 0.37148 0.0
C490 C 0.5796 0.54185 0.44947 0.0
C491 C 0.574 0.553 0.48165 0.0
C492 C 0.60627 0.55289 0.43141 0.0
C493 C 0.62784 0.57567 0.4449 0.0
C494 C 0.62253 0.58628 0.47748 0.0
C495 C 0.59596 0.57498 0.49568 0.0
H496 H 0.14582 0.33852 0.18153 0.0
H497 H 0.18033 0.29626 0.09231 0.0
H498 H 0.10769 0.36281 0.14919 0.0
H499 H 0.1414 0.31997 0.05993 0.0
H500 H 0.09652 0.40298 0.01552 0.0
H501 H 0.13199 0.3717 0.04344 0.0
H502 H 0.0594 0.34946 0.11701 0.0
H503 H 0.02418 0.38114 0.08936 0.0
C504 C 0.1453 0.33452 0.15497 0.0
C505 C 0.16617 0.31568 0.1394 0.0
C506 C 0.12315 0.34805 0.13652 0.0
C507 C 0.1214 0.34306 0.10208 0.0
C508 C 0.14229 0.32426 0.08644 0.0
C509 C 0.16442 0.3106 0.10496 0.0
C510 C 0.088 0.39091 0.03729 0.0
C511 C 0.05782 0.39462 0.05054 0.0
C512 C 0.10824 0.37297 0.05322 0.0
C513 C 0.09858 0.35851 0.08265 0.0
C514 C 0.06765 0.36082 0.09471 0.0
C515 C 0.04744 0.37874 0.07878 0.0
H516 H 0.54998 0.215 0.87487 0.0
H517 H 0.62937 0.21299 0.94013 0.0
H518 H 0.52268 0.1725 0.90326 0.0
H519 H 0.60167 0.17115 0.96964 0.0
H520 H 0.5599 0.07304 0.98583 0.0
H521 H 0.58678 0.1193 0.96404 0.0
H522 H 0.49623 0.15481 0.95066 0.0
H523 H 0.46963 0.10793 0.97079 0.0
C524 C 0.56128 0.20586 0.89582 0.0
C525 C 0.59183 0.21728 0.90519 0.0
C526 C 0.5456 0.18148 0.91227 0.0
C527 C 0.55987 0.16812 0.9389 0.0
C528 C 0.59009 0.18031 0.94891 0.0
C529 C 0.60594 0.20444 0.93213 0.0
C530 C 0.54587 0.09092 0.97851 0.0
C531 C 0.51271 0.0868 0.9796 0.0
C532 C 0.56124 0.11758 0.96613 0.0
C533 C 0.54376 0.14088 0.95505 0.0
C534 C 0.51056 0.13718 0.95799 0.0
C535 C 0.49525 0.11039 0.96984 0.0
H536 H 0.85628 0.78153 0.4151 0.0
H537 H 0.90371 0.80871 0.32418 0.0
H538 H 0.87986 0.82712 0.44311 0.0
H539 H 0.92841 0.85374 0.35227 0.0
H540 H 0.94109 0.94691 0.40125 0.0
H541 H 0.91745 0.90103 0.37408 0.0
H542 H 0.92622 0.85236 0.46437 0.0
H543 H 0.9485 0.89858 0.49182 0.0
C544 C 0.87224 0.79705 0.40128 0.0
C545 C 0.8781 0.79162 0.36745 0.0
C546 C 0.88585 0.8232 0.41732 0.0
C547 C 0.90602 0.8444 0.40001 0.0
C548 C 0.91247 0.83843 0.36631 0.0
C549 C 0.8985 0.81249 0.3502 0.0
C550 C 0.93786 0.92643 0.41531 0.0
C551 C 0.94659 0.92646 0.44873 0.0
C552 C 0.92451 0.89997 0.39965 0.0
C553 C 0.91996 0.87273 0.41687 0.0
C554 C 0.92879 0.87288 0.45036 0.0
C555 C 0.94174 0.89943 0.46612 0.0
H556 H 0.37602 0.72964 0.65047 0.0
H557 H 0.33308 0.7182 0.55406 0.0
H558 H 0.39848 0.68132 0.64287 0.0
H559 H 0.35654 0.67038 0.54595 0.0
H560 H 0.3868 0.5755 0.54845 0.0
H561 H 0.35688 0.61835 0.56416 0.0
H562 H 0.44082 0.66389 0.60822 0.0
H563 H 0.4704 0.62096 0.59298 0.0
C564 C 0.37093 0.7166 0.62786 0.0
C565 C 0.35284 0.72786 0.6028 0.0
C566 C 0.38412 0.68905 0.62336 0.0
C567 C 0.37953 0.6721 0.59371 0.0
C568 C 0.36035 0.68274 0.56921 0.0
C569 C 0.34718 0.71032 0.57369 0.0
C570 C 0.39864 0.59451 0.56196 0.0
C571 C 0.4309 0.59503 0.56943 0.0
C572 C 0.38159 0.6191 0.57076 0.0
C573 C 0.39649 0.64462 0.58729 0.0
C574 C 0.4285 0.64449 0.59586 0.0
C575 C 0.44552 0.61996 0.58699 0.0
H576 H 0.90878 0.8639 0.76298 0.0
H577 H 0.83498 0.92437 0.75697 0.0
H578 H 0.93191 0.88325 0.71124 0.0
H579 H 0.85732 0.94309 0.70473 0.0
H580 H 0.92675 0.99722 0.63887 0.0
H581 H 0.90261 0.97448 0.68815 0.0
H582 H 0.92601 0.88656 0.65242 0.0
H583 H 0.95136 0.9098 0.60343 0.0
C584 C 0.8972 0.88093 0.75017 0.0
C585 C 0.87031 0.89289 0.76398 0.0
C586 C 0.91037 0.89196 0.72053 0.0
C587 C 0.89668 0.91498 0.70403 0.0
C588 C 0.86892 0.92591 0.71723 0.0
C589 C 0.85601 0.91513 0.74701 0.0
C590 C 0.9268 0.97304 0.64162 0.0
C591 C 0.94083 0.9552 0.61746 0.0
C592 C 0.91271 0.95994 0.6697 0.0
C593 C 0.912 0.92862 0.67407 0.0
C594 C 0.92635 0.91078 0.64992 0.0
C595 C 0.94076 0.92401 0.62187 0.0
H596 H 0.65023 0.19355 0.22354 0.0
H597 H 0.72737 0.14593 0.18397 0.0
H598 H 0.61342 0.16315 0.18786 0.0
H599 H 0.69049 0.11547 0.14821 0.0
H600 H 0.60927 0.04436 0.11989 0.0
H601 H 0.64714 0.07597 0.15338 0.0
H602 H 0.59961 0.15464 0.12967 0.0
H603 H 0.56136 0.12281 0.09663 0.0
C604 C 0.65939 0.17684 0.20691 0.0
C605 C 0.69173 0.17217 0.20657 0.0
C606 C 0.63829 0.15942 0.18646 0.0
C607 C 0.64903 0.1369 0.16519 0.0
C608 C 0.68141 0.13236 0.16466 0.0
C609 C 0.70253 0.14979 0.18514 0.0
C610 C 0.607 0.06842 0.12181 0.0
C611 C 0.5824 0.08119 0.10581 0.0
C612 C 0.62879 0.08655 0.1408 0.0
C613 C 0.62639 0.11782 0.14418 0.0
C614 C 0.60186 0.13058 0.12788 0.0
C615 C 0.58007 0.11242 0.10885 0.0
H616 H 0.40728 0.6496 0.30223 0.0
H617 H 0.40726 0.56427 0.24881 0.0
H618 H 0.4232 0.62561 0.35244 0.0
H619 H 0.42264 0.54022 0.29883 0.0
H620 H 0.48659 0.51533 0.3818 0.0
H621 H 0.46771 0.53881 0.33305 0.0
H622 H 0.40689 0.5901 0.39482 0.0
H623 H 0.42646 0.56711 0.44388 0.0
C624 C 0.41032 0.62566 0.3013 0.0
C625 C 0.40635 0.60895 0.2714 0.0
C626 C 0.41939 0.61185 0.33011 0.0
C627 C 0.42451 0.58096 0.32973 0.0
C628 C 0.41966 0.56417 0.29997 0.0
C629 C 0.41079 0.57797 0.27123 0.0
C630 C 0.46905 0.53147 0.38508 0.0
C631 C 0.45809 0.53926 0.41688 0.0
C632 C 0.45807 0.54488 0.357 0.0
C633 C 0.43568 0.56638 0.35985 0.0
C634 C 0.42443 0.57395 0.39165 0.0
C635 C 0.4355 0.56057 0.41981 0.0
H636 H 0.1672 0.41703 0.81893 0.0
H637 H 0.08077 0.36103 0.79928 0.0
H638 H 0.13982 0.44543 0.86096 0.0
H639 H 0.05302 0.39022 0.84067 0.0
H640 H 0.02229 0.42973 0.94164 0.0
H641 H 0.04996 0.39975 0.90072 0.0
H642 H 0.10034 0.4814 0.86487 0.0
H643 H 0.07317 0.51108 0.906 0.0
C644 C 0.14234 0.41073 0.8236 0.0
C645 C 0.12623 0.38666 0.80573 0.0
C646 C 0.12653 0.42725 0.8475 0.0
C647 C 0.09417 0.42017 0.85422 0.0
C648 C 0.07802 0.3961 0.83637 0.0
C649 C 0.09383 0.3796 0.81235 0.0
C650 C 0.03937 0.44117 0.92504 0.0
C651 C 0.04558 0.47272 0.92696 0.0
C652 C 0.05506 0.42406 0.90147 0.0
C653 C 0.07738 0.43815 0.87944 0.0
C654 C 0.08364 0.46973 0.88166 0.0
C655 C 0.06794 0.48679 0.90514 0.0
H656 H 0.66924 0.86883 0.89051 0.0
H657 H 0.70758 0.88529 0.98866 0.0
H658 H 0.62239 0.89394 0.90743 0.0
H659 H 0.6604 0.90868 0.00573 0.0
H660 H 0.60279 0.98943 0.00723 0.0
H661 H 0.64399 0.95781 0.99038 0.0
H662 H 0.57446 0.89343 0.94497 0.0
H663 H 0.53264 0.92556 0.96158 0.0
C664 C 0.66747 0.87728 0.91579 0.0
C665 C 0.6924 0.87536 0.93808 0.0
C666 C 0.64051 0.89136 0.92553 0.0
C667 C 0.63806 0.90371 0.95771 0.0
C668 C 0.66194 0.89989 0.98056 0.0
C669 C 0.68884 0.88603 0.97084 0.0
C670 C 0.59607 0.96858 0.99366 0.0
C671 C 0.56433 0.95995 0.98596 0.0
C672 C 0.61975 0.95031 0.98421 0.0
C673 C 0.61237 0.92289 0.96688 0.0
C674 C 0.58076 0.91445 0.95838 0.0
C675 C 0.55689 0.93282 0.96793 0.0
H676 H 0.88238 0.15427 0.34949 0.0
H677 H 0.81539 0.16009 0.4304 0.0
H678 H 0.91084 0.1194 0.38069 0.0
H679 H 0.84288 0.12391 0.46087 0.0
H680 H 0.91913 0.0848 0.52105 0.0
H681 H 0.89122 0.12025 0.48983 0.0
H682 H 0.90653 0.06862 0.39981 0.0
H683 H 0.93525 0.03368 0.43108 0.0
C684 C 0.87372 0.14816 0.37396 0.0
C685 C 0.84665 0.16018 0.38748 0.0
C686 C 0.88981 0.12779 0.39168 0.0
C687 C 0.87918 0.11878 0.42331 0.0
C688 C 0.85199 0.13063 0.43675 0.0
C689 C 0.83597 0.15111 0.41909 0.0
C690 C 0.9165 0.08108 0.49458 0.0
C691 C 0.92926 0.05652 0.47845 0.0
C692 C 0.90034 0.10127 0.4767 0.0
C693 C 0.89648 0.09727 0.44229 0.0
C694 C 0.90938 0.07262 0.42619 0.0
C695 C 0.92567 0.0525 0.4441 0.0
H696 H 0.24969 0.56945 0.09567 0.0
H697 H 0.20765 0.65328 0.11392 0.0
H698 H 0.19969 0.54628 0.07471 0.0
H699 H 0.15687 0.62981 0.09404 0.0
H700 H 0.07916 0.5864 0.0253 0.0
H701 H 0.1287 0.61109 0.0466 0.0
H702 H 0.149 0.52755 0.09102 0.0
H703 H 0.10043 0.50275 0.0685 0.0
C704 C 0.22952 0.58278 0.09568 0.0
C705 C 0.23252 0.6131 0.10669 0.0
C706 C 0.20073 0.56948 0.08375 0.0
C707 C 0.17394 0.58599 0.08288 0.0
C708 C 0.17699 0.61643 0.0939 0.0
C709 C 0.20603 0.62988 0.10547 0.0
C710 C 0.09426 0.57337 0.03964 0.0
C711 C 0.08596 0.54256 0.04496 0.0
C712 C 0.12261 0.58757 0.05206 0.0
C713 C 0.14315 0.57136 0.07044 0.0
C714 C 0.13432 0.54068 0.07633 0.0
C715 C 0.10627 0.52644 0.06356 0.0
H716 H 0.31918 0.4027 0.65966 0.0
H717 H 0.26835 0.37989 0.5694 0.0
H718 H 0.36256 0.4277 0.62794 0.0
H719 H 0.31114 0.40603 0.53746 0.0
H720 H 0.40918 0.42168 0.48866 0.0
H721 H 0.36274 0.4008 0.519 0.0
H722 H 0.38112 0.46891 0.59636 0.0
H723 H 0.42857 0.48863 0.5666 0.0
C724 C 0.31704 0.4036 0.63301 0.0
C725 C 0.29039 0.3893 0.61701 0.0
C726 C 0.34189 0.41807 0.61474 0.0
C727 C 0.3406 0.41899 0.57995 0.0
C728 C 0.31342 0.40534 0.56408 0.0
C729 C 0.28876 0.39047 0.58237 0.0
C730 C 0.40314 0.43227 0.51206 0.0
C731 C 0.4226 0.45664 0.52538 0.0
C732 C 0.37632 0.42044 0.52943 0.0
C733 C 0.36802 0.43297 0.56039 0.0
C734 C 0.387 0.45815 0.57302 0.0
C735 C 0.41408 0.4697 0.55584 0.0
H736 H 0.84665 0.72337 0.96713 0.0
H737 H 0.90869 0.73555 0.8822 0.0
H738 H 0.87002 0.67683 0.97967 0.0
H739 H 0.93113 0.68824 0.89346 0.0
H740 H 0.99105 0.62481 0.94599 0.0
H741 H 0.96538 0.66939 0.9313 0.0
H742 H 0.87531 0.6263 0.96396 0.0
H743 H 0.90158 0.58242 0.98027 0.0
C744 C 0.8649 0.71564 0.95082 0.0
C745 C 0.87611 0.73292 0.9239 0.0
C746 C 0.87821 0.68895 0.95784 0.0
C747 C 0.90265 0.67883 0.93771 0.0
C748 C 0.91292 0.6957 0.90997 0.0
C749 C 0.89998 0.72264 0.90333 0.0
C750 C 0.96578 0.62499 0.95001 0.0
C751 C 0.94824 0.6004 0.96434 0.0
C752 C 0.95096 0.65039 0.94133 0.0
C753 C 0.91819 0.65146 0.9463 0.0
C754 C 0.90064 0.6265 0.96028 0.0
C755 C 0.9156 0.6013 0.96947 0.0
H756 H 0.4156 0.78421 0.06176 0.0
H757 H 0.39321 0.81202 0.16191 0.0
H758 H 0.43372 0.83616 0.04902 0.0
H759 H 0.41024 0.86429 0.14879 0.0
H760 H 0.48483 0.94314 0.12596 0.0
H761 H 0.46007 0.89315 0.13828 0.0
H762 H 0.4182 0.88677 0.04112 0.0
H763 H 0.44369 0.93692 0.02865 0.0
C764 C 0.41438 0.80145 0.08105 0.0
C765 C 0.40332 0.79381 0.11302 0.0
C766 C 0.42439 0.83136 0.07359 0.0
C767 C 0.42362 0.85448 0.09789 0.0
C768 C 0.41158 0.84701 0.12958 0.0
C769 C 0.40151 0.81706 0.13703 0.0
C770 C 0.47014 0.93116 0.10731 0.0
C771 C 0.46622 0.94386 0.07632 0.0
C772 C 0.45573 0.90255 0.11446 0.0
C773 C 0.43705 0.88585 0.09075 0.0
C774 C 0.43268 0.89886 0.05985 0.0
C775 C 0.44709 0.92762 0.05273 0.0
H776 H 0.14197 0.21957 0.58613 0.0
H777 H 0.08692 0.19813 0.67434 0.0
H778 H 0.11566 0.17559 0.55749 0.0
H779 H 0.06004 0.1545 0.6456 0.0
H780 H 0.04336 0.06084 0.59728 0.0
H781 H 0.06921 0.10543 0.62507 0.0
H782 H 0.06721 0.15461 0.53429 0.0
H783 H 0.04231 0.10972 0.50627 0.0
C784 C 0.12386 0.20572 0.59923 0.0
C785 C 0.11661 0.21231 0.63254 0.0
C786 C 0.10872 0.18046 0.58281 0.0
C787 C 0.08576 0.16126 0.59921 0.0
C788 C 0.07804 0.16832 0.63234 0.0
C789 C 0.09335 0.19343 0.64881 0.0
C790 C 0.04849 0.08114 0.58322 0.0
C791 C 0.04079 0.08163 0.54951 0.0
C792 C 0.06313 0.10685 0.59923 0.0
C793 C 0.07025 0.13381 0.58203 0.0
C794 C 0.06254 0.13422 0.54828 0.0
C795 C 0.0481 0.10845 0.53221 0.0
H796 H 0.70381 0.36409 0.34575 0.0
H797 H 0.66275 0.29247 0.40737 0.0
H798 H 0.66531 0.39724 0.36736 0.0
H799 H 0.62384 0.32564 0.42855 0.0
H800 H 0.53946 0.38482 0.43078 0.0
H801 H 0.5777 0.3512 0.40847 0.0
H802 H 0.65255 0.42288 0.42034 0.0
H803 H 0.61438 0.45639 0.44237 0.0
C804 C 0.68684 0.35549 0.3642 0.0
C805 C 0.68655 0.32561 0.37494 0.0
C806 C 0.66467 0.37449 0.37646 0.0
C807 C 0.64154 0.36405 0.39962 0.0
C808 C 0.64113 0.33419 0.41037 0.0
C809 C 0.66344 0.31521 0.39824 0.0
C810 C 0.56407 0.39335 0.42842 0.0
C811 C 0.57402 0.42315 0.43821 0.0
C812 C 0.58597 0.37408 0.4159 0.0
C813 C 0.61814 0.3844 0.41271 0.0
C814 C 0.6279 0.41437 0.42219 0.0
C815 C 0.60608 0.43351 0.43491 0.0
loop_
_geom_bond_atom_site_label_1
_geom_bond_atom_site_label_2
_geom_bond_distance
_geom_bond_site_symmetry_2
_ccdc_geom_bond_type
P0 O11 1.490 . S
P0 C14 1.812 . S
P0 C20 1.803 . S
P0 C26 1.819 . S
H1 C15 0.941 . S
H2 C16 0.939 . S
H3 C18 0.940 . S
H4 C19 0.940 . S
H5 C21 0.939 . S
H6 C22 0.942 . S
H7 C24 0.940 . S
H8 C25 0.939 . S
H9 C27 0.941 . S
H10 C31 0.939 . S
O11 P0 1.490 . S
H12 C28 0.939 . S
H13 C30 0.940 . S
C14 P0 1.812 . S
C14 C15 1.389 . S
C14 C19 1.391 . S
C15 H1 0.941 . S
C15 C14 1.389 . S
C15 C16 1.397 . S
C16 H2 0.939 . S
C16 C15 1.397 . S
C16 C17 1.378 . S
C17 C16 1.378 . S
C17 C18 1.378 . S
C18 H3 0.940 . S
C18 C17 1.378 . S
C18 C19 1.396 . S
C19 H4 0.940 . S
C19 C14 1.391 . S
C19 C18 1.396 . S
C20 P0 1.803 . S
C20 C21 1.378 . S
C20 C25 1.400 . S
C21 H5 0.939 . S
C21 C20 1.378 . S
C21 C22 1.361 . S
C22 H6 0.942 . S
C22 C21 1.361 . S
C22 C23 1.369 . S
C23 C22 1.369 . S
C23 C24 1.404 . S
C24 H7 0.940 . S
C24 C23 1.404 . S
C24 C25 1.389 . S
C25 H8 0.939 . S
C25 C20 1.400 . S
C25 C24 1.389 . S
C26 P0 1.819 . S
C26 C27 1.391 . S
C26 C31 1.391 . S
C27 H9 0.941 . S
C27 C26 1.391 . S
C27 C28 1.396 . S
C28 H12 0.939 . S
C28 C27 1.396 . S
C28 C29 1.397 . S
C29 C28 1.397 . S
C29 C30 1.385 . S
C30 H13 0.940 . S
C30 C29 1.385 . S
C30 C31 1.388 . S
C31 H10 0.939 . S
C31 C26 1.391 . S
C31 C30 1.388 . S
P32 O43 1.490 . S
P32 C46 1.812 . S
P32 C52 1.803 . S
P32 C58 1.819 . S
H33 C47 0.941 . S
H34 C48 0.939 . S
H35 C50 0.940 . S
H36 C51 0.940 . S
H37 C53 0.939 . S
H38 C54 0.942 . S
H39 C56 0.940 . S
H40 C57 0.939 . S
H41 C59 0.941 . S
H42 C63 0.939 . S
O43 P32 1.490 . S
H44 C60 0.939 . S
H45 C62 0.940 . S
C46 P32 1.812 . S
C46 C47 1.389 . S
C46 C51 1.391 . S
C47 H33 0.941 . S
C47 C46 1.389 . S
C47 C48 1.397 . S
C48 H34 0.939 . S
C48 C47 1.397 . S
C48 C49 1.378 . S
C49 C48 1.378 . S
C49 C50 1.378 . S
C50 H35 0.940 . S
C50 C49 1.378 . S
C50 C51 1.396 . S
C51 H36 0.940 . S
C51 C46 1.391 . S
C51 C50 1.396 . S
C52 P32 1.803 . S
C52 C53 1.378 . S
C52 C57 1.400 . S
C53 H37 0.939 . S
C53 C52 1.378 . S
C53 C54 1.361 . S
C54 H38 0.942 . S
C54 C53 1.361 . S
C54 C55 1.369 . S
C55 C54 1.369 . S
C55 C56 1.404 . S
C56 H39 0.940 . S
C56 C55 1.404 . S
C56 C57 1.389 . S
C57 H40 0.939 . S
C57 C52 1.400 . S
C57 C56 1.389 . S
C58 P32 1.819 . S
C58 C59 1.391 . S
C58 C63 1.391 . S
C59 H41 0.941 . S
C59 C58 1.391 . S
C59 C60 1.396 . S
C60 H44 0.939 . S
C60 C59 1.396 . S
C60 C61 1.397 . S
C61 C60 1.397 . S
C61 C62 1.385 . S
C62 H45 0.940 . S
C62 C61 1.385 . S
C62 C63 1.388 . S
C63 H42 0.939 . S
C63 C58 1.391 . S
C63 C62 1.388 . S
P64 O75 1.490 . S
P64 C78 1.812 . S
P64 C84 1.803 . S
P64 C90 1.819 . S
H65 C79 0.941 . S
H66 C80 0.939 . S
H67 C82 0.940 . S
H68 C83 0.940 . S
H69 C85 0.939 . S
H70 C86 0.942 . S
H71 C88 0.940 . S
H72 C89 0.939 . S
H73 C91 0.941 . S
H74 C95 0.939 . S
O75 P64 1.490 . S
H76 C92 0.939 . S
H77 C94 0.940 . S
C78 P64 1.812 . S
C78 C79 1.389 . S
C78 C83 1.391 . S
C79 H65 0.941 . S
C79 C78 1.389 . S
C79 C80 1.397 . S
C80 H66 0.939 . S
C80 C79 1.397 . S
C80 C81 1.378 . S
C81 C80 1.378 . S
C81 C82 1.378 . S
C82 H67 0.940 . S
C82 C81 1.378 . S
C82 C83 1.396 . S
C83 H68 0.940 . S
C83 C78 1.391 . S
C83 C82 1.396 . S
C84 P64 1.803 . S
C84 C85 1.378 . S
C84 C89 1.400 . S
C85 H69 0.939 . S
C85 C84 1.378 . S
C85 C86 1.361 . S
C86 H70 0.942 . S
C86 C85 1.361 . S
C86 C87 1.369 . S
C87 C86 1.369 . S
C87 C88 1.404 . S
C88 H71 0.940 . S
C88 C87 1.404 . S
C88 C89 1.389 . S
C89 H72 0.939 . S
C89 C84 1.400 . S
C89 C88 1.389 . S
C90 P64 1.819 . S
C90 C91 1.391 . S
C90 C95 1.391 . S
C91 H73 0.941 . S
C91 C90 1.391 . S
C91 C92 1.396 . S
C92 H76 0.939 . S
C92 C91 1.396 . S
C92 C93 1.397 . S
C93 C92 1.397 . S
C93 C94 1.385 . S
C94 H77 0.940 . S
C94 C93 1.385 . S
C94 C95 1.388 . S
C95 H74 0.939 . S
C95 C90 1.391 . S
C95 C94 1.388 . S
P96 O107 1.490 . S
P96 C110 1.812 . S
P96 C116 1.803 . S
P96 C122 1.819 . S
H97 C111 0.941 . S
H98 C112 0.939 . S
H99 C114 0.940 . S
H100 C115 0.940 . S
H101 C117 0.939 . S
H102 C118 0.942 . S
H103 C120 0.940 . S
H104 C121 0.939 . S
H105 C123 0.941 . S
H106 C127 0.939 . S
O107 P96 1.490 . S
H108 C124 0.939 . S
H109 C126 0.940 . S
C110 P96 1.812 . S
C110 C111 1.389 . S
C110 C115 1.391 . S
C111 H97 0.941 . S
C111 C110 1.389 . S
C111 C112 1.397 . S
C112 H98 0.939 . S
C112 C111 1.397 . S
C112 C113 1.378 . S
C113 C112 1.378 . S
C113 C114 1.378 . S
C114 H99 0.940 . S
C114 C113 1.378 . S
C114 C115 1.396 . S
C115 H100 0.940 . S
C115 C110 1.391 . S
C115 C114 1.396 . S
C116 P96 1.803 . S
C116 C117 1.378 . S
C116 C121 1.400 . S
C117 H101 0.939 . S
C117 C116 1.378 . S
C117 C118 1.361 . S
C118 H102 0.942 . S
C118 C117 1.361 . S
C118 C119 1.369 . S
C119 C118 1.369 . S
C119 C120 1.404 . S
C120 H103 0.940 . S
C120 C119 1.404 . S
C120 C121 1.389 . S
C121 H104 0.939 . S
C121 C116 1.400 . S
C121 C120 1.389 . S
C122 P96 1.819 . S
C122 C123 1.391 . S
C122 C127 1.391 . S
C123 H105 0.941 . S
C123 C122 1.391 . S
C123 C124 1.396 . S
C124 H108 0.939 . S
C124 C123 1.396 . S
C124 C125 1.397 . S
C125 C124 1.397 . S
C125 C126 1.385 . S
C126 H109 0.940 . S
C126 C125 1.385 . S
C126 C127 1.388 . S
C127 H106 0.939 . S
C127 C122 1.391 . S
C127 C126 1.388 . S
P128 O139 1.490 . S
P128 C142 1.812 . S
P128 C148 1.803 . S
P128 C154 1.819 . S
H129 C143 0.941 . S
H130 C144 0.939 . S
H131 C146 0.940 . S
H132 C147 0.940 . S
H133 C149 0.939 . S
H134 C150 0.942 . S
H135 C152 0.940 . S
H136 C153 0.939 . S
H137 C155 0.941 . S
H138 C159 0.939 . S
O139 P128 1.490 . S
H140 C156 0.939 . S
H141 C158 0.940 . S
C142 P128 1.812 . S
C142 C143 1.389 . S
C142 C147 1.391 . S
C143 H129 0.941 . S
C143 C142 1.389 . S
C143 C144 1.397 . S
C144 H130 0.939 . S
C144 C143 1.397 . S
C144 C145 1.378 . S
C145 C144 1.378 . S
C145 C146 1.378 . S
C146 H131 0.940 . S
C146 C145 1.378 . S
C146 C147 1.396 . S
C147 H132 0.940 . S
C147 C142 1.391 . S
C147 C146 1.396 . S
C148 P128 1.803 . S
C148 C149 1.378 . S
C148 C153 1.400 . S
C149 H133 0.939 . S
C149 C148 1.378 . S
C149 C150 1.361 . S
C150 H134 0.942 . S
C150 C149 1.361 . S
C150 C151 1.369 . S
C151 C150 1.369 . S
C151 C152 1.404 . S
C152 H135 0.940 . S
C152 C151 1.404 . S
C152 C153 1.389 . S
C153 H136 0.939 . S
C153 C148 1.400 . S
C153 C152 1.389 . S
C154 P128 1.819 . S
C154 C155 1.391 . S
C154 C159 1.391 . S
C155 H137 0.941 . S
C155 C154 1.391 . S
C155 C156 1.396 . S
C156 H140 0.939 . S
C156 C155 1.396 . S
C156 C157 1.397 . S
C157 C156 1.397 . S
C157 C158 1.385 . S
C158 H141 0.940 . S
C158 C157 1.385 . S
C158 C159 1.388 . S
C159 H138 0.939 . S
C159 C154 1.391 . S
C159 C158 1.388 . S
P160 O171 1.490 . S
P160 C174 1.812 . S
P160 C180 1.803 . S
P160 C186 1.819 . S
H161 C175 0.941 . S
H162 C176 0.939 . S
H163 C178 0.940 . S
H164 C179 0.940 . S
H165 C181 0.939 . S
H166 C182 0.942 . S
H167 C184 0.940 . S
H168 C185 0.939 . S
H169 C187 0.941 . S
H170 C191 0.939 . S
O171 P160 1.490 . S
H172 C188 0.939 . S
H173 C190 0.940 . S
C174 P160 1.812 . S
C174 C175 1.389 . S
C174 C179 1.391 . S
C175 H161 0.941 . S
C175 C174 1.389 . S
C175 C176 1.397 . S
C176 H162 0.939 . S
C176 C175 1.397 . S
C176 C177 1.378 . S
C177 C176 1.378 . S
C177 C178 1.378 . S
C178 H163 0.940 . S
C178 C177 1.378 . S
C178 C179 1.396 . S
C179 H164 0.940 . S
C179 C174 1.391 . S
C179 C178 1.396 . S
C180 P160 1.803 . S
C180 C181 1.378 . S
C180 C185 1.400 . S
C181 H165 0.939 . S
C181 C180 1.378 . S
C181 C182 1.361 . S
C182 H166 0.942 . S
C182 C181 1.361 . S
C182 C183 1.369 . S
C183 C182 1.369 . S
C183 C184 1.404 . S
C184 H167 0.940 . S
C184 C183 1.404 . S
C184 C185 1.389 . S
C185 H168 0.939 . S
C185 C180 1.400 . S
C185 C184 1.389 . S
C186 P160 1.819 . S
C186 C187 1.391 . S
C186 C191 1.391 . S
C187 H169 0.941 . S
C187 C186 1.391 . S
C187 C188 1.396 . S
C188 H172 0.939 . S
C188 C187 1.396 . S
C188 C189 1.397 . S
C189 C188 1.397 . S
C189 C190 1.385 . S
C190 H173 0.940 . S
C190 C189 1.385 . S
C190 C191 1.388 . S
C191 H170 0.939 . S
C191 C186 1.391 . S
C191 C190 1.388 . S
P192 O203 1.490 . S
P192 C206 1.812 . S
P192 C212 1.803 . S
P192 C218 1.819 . S
H193 C207 0.941 . S
H194 C208 0.939 . S
H195 C210 0.940 . S
H196 C211 0.940 . S
H197 C213 0.939 . S
H198 C214 0.942 . S
H199 C216 0.940 . S
H200 C217 0.939 . S
H201 C219 0.941 . S
H202 C223 0.939 . S
O203 P192 1.490 . S
H204 C220 0.939 . S
H205 C222 0.940 . S
C206 P192 1.812 . S
C206 C207 1.389 . S
C206 C211 1.391 . S
C207 H193 0.941 . S
C207 C206 1.389 . S
C207 C208 1.397 . S
C208 H194 0.939 . S
C208 C207 1.397 . S
C208 C209 1.378 . S
C209 C208 1.378 . S
C209 C210 1.378 . S
C210 H195 0.940 . S
C210 C209 1.378 . S
C210 C211 1.396 . S
C211 H196 0.940 . S
C211 C206 1.391 . S
C211 C210 1.396 . S
C212 P192 1.803 . S
C212 C213 1.378 . S
C212 C217 1.400 . S
C213 H197 0.939 . S
C213 C212 1.378 . S
C213 C214 1.361 . S
C214 H198 0.942 . S
C214 C213 1.361 . S
C214 C215 1.369 . S
C215 C214 1.369 . S
C215 C216 1.404 . S
C216 H199 0.940 . S
C216 C215 1.404 . S
C216 C217 1.389 . S
C217 H200 0.939 . S
C217 C212 1.400 . S
C217 C216 1.389 . S
C218 P192 1.819 . S
C218 C219 1.391 . S
C218 C223 1.391 . S
C219 H201 0.941 . S
C219 C218 1.391 . S
C219 C220 1.396 . S
C220 H204 0.939 . S
C220 C219 1.396 . S
C220 C221 1.397 . S
C221 C220 1.397 . S
C221 C222 1.385 . S
C222 H205 0.940 . S
C222 C221 1.385 . S
C222 C223 1.388 . S
C223 H202 0.939 . S
C223 C218 1.391 . S
C223 C222 1.388 . S
P224 O235 1.490 . S
P224 C238 1.812 . S
P224 C244 1.803 . S
P224 C250 1.819 . S
H225 C239 0.941 . S
H226 C240 0.939 . S
H227 C242 0.940 . S
H228 C243 0.940 . S
H229 C245 0.939 . S
H230 C246 0.942 . S
H231 C248 0.940 . S
H232 C249 0.939 . S
H233 C251 0.941 . S
H234 C255 0.939 . S
O235 P224 1.490 . S
H236 C252 0.939 . S
H237 C254 0.940 . S
C238 P224 1.812 . S
C238 C239 1.389 . S
C238 C243 1.391 . S
C239 H225 0.941 . S
C239 C238 1.389 . S
C239 C240 1.397 . S
C240 H226 0.939 . S
C240 C239 1.397 . S
C240 C241 1.378 . S
C241 C240 1.378 . S
C241 C242 1.378 . S
C242 H227 0.940 . S
C242 C241 1.378 . S
C242 C243 1.396 . S
C243 H228 0.940 . S
C243 C238 1.391 . S
C243 C242 1.396 . S
C244 P224 1.803 . S
C244 C245 1.378 . S
C244 C249 1.400 . S
C245 H229 0.939 . S
C245 C244 1.378 . S
C245 C246 1.361 . S
C246 H230 0.942 . S
C246 C245 1.361 . S
C246 C247 1.369 . S
C247 C246 1.369 . S
C247 C248 1.404 . S
C248 H231 0.940 . S
C248 C247 1.404 . S
C248 C249 1.389 . S
C249 H232 0.939 . S
C249 C244 1.400 . S
C249 C248 1.389 . S
C250 P224 1.819 . S
C250 C251 1.391 . S
C250 C255 1.391 . S
C251 H233 0.941 . S
C251 C250 1.391 . S
C251 C252 1.396 . S
C252 H236 0.939 . S
C252 C251 1.396 . S
C252 C253 1.397 . S
C253 C252 1.397 . S
C253 C254 1.385 . S
C254 H237 0.940 . S
C254 C253 1.385 . S
C254 C255 1.388 . S
C255 H234 0.939 . S
C255 C250 1.391 . S
C255 C254 1.388 . S
Dy256 O260 2.398 . S
Dy256 O261 2.491 . S
Dy256 O262 2.403 1_545 S
Dy256 O263 2.664 1_545 S
Dy256 O267 2.326 . S
Dy256 O271 2.310 1_455 S
Dy256 O272 2.351 1_445 S
C257 O268 1.185 . S
C257 O269 1.355 . S
C258 O260 1.185 . S
C258 O261 1.355 . S
Dy259 O263 2.307 1_645 S
Dy259 O266 2.358 1_655 S
Dy259 O268 2.394 1_545 S
Dy259 O269 2.484 1_545 S
Dy259 O270 2.407 . S
Dy259 O271 2.668 . S
Dy259 O273 2.321 1_545 S
O260 Dy256 2.398 . S
O260 C258 1.185 . S
O261 Dy256 2.491 . S
O261 C258 1.355 . S
O262 Dy256 2.403 1_565 S
O262 C264 1.254 . S
O263 Dy256 2.664 1_565 S
O263 Dy259 2.307 1_465 S
O263 C264 1.268 . S
C264 O262 1.254 . S
C264 O263 1.268 . S
C265 O270 1.254 . S
C265 O271 1.268 . S
O266 Dy259 2.358 1_455 S
O266 C274 1.249 . S
O267 Dy256 2.326 . S
O267 C274 1.267 . S
O268 C257 1.185 . S
O268 Dy259 2.394 1_565 S
O269 C257 1.355 . S
O269 Dy259 2.484 1_565 S
O270 Dy259 2.407 . S
O270 C265 1.254 . S
O271 Dy256 2.310 1_655 S
O271 Dy259 2.668 . S
O271 C265 1.268 . S
O272 Dy256 2.351 1_665 S
O272 C275 1.249 . S
O273 Dy259 2.321 1_565 S
O273 C275 1.267 . S
C274 O266 1.249 . S
C274 O267 1.267 . S
C275 O272 1.249 . S
C275 O273 1.267 . S
Dy276 O280 2.398 . S
Dy276 O281 2.491 . S
Dy276 O282 2.403 1_545 S
Dy276 O283 2.664 1_545 S
Dy276 O287 2.326 . S
Dy276 O291 2.310 . S
Dy276 O292 2.351 1_544 S
C277 O288 1.209 . S
C277 O289 1.355 . S
C278 O280 1.185 . S
C278 O281 1.355 . S
Dy279 O283 2.310 1_546 S
Dy279 O286 2.351 1_556 S
Dy279 O288 2.395 1_545 S
Dy279 O289 2.491 1_545 S
Dy279 O290 2.403 . S
Dy279 O291 2.664 1_556 S
Dy279 O293 2.326 1_545 S
O280 Dy276 2.398 . S
O280 C278 1.185 . S
O281 Dy276 2.491 . S
O281 C278 1.355 . S
O282 Dy276 2.403 1_565 S
O282 C284 1.254 . S
O283 Dy276 2.664 1_565 S
O283 Dy279 2.310 1_564 S
O283 C284 1.268 . S
C284 O282 1.254 . S
C284 O283 1.268 . S
C285 O290 1.254 . S
C285 O291 1.268 1_556 S
O286 Dy279 2.351 1_554 S
O286 C294 1.249 . S
O287 Dy276 2.326 . S
O287 C294 1.267 . S
O288 C277 1.209 . S
O288 Dy279 2.395 1_565 S
O289 C277 1.355 . S
O289 Dy279 2.491 1_565 S
O290 Dy279 2.403 . S
O290 C285 1.254 . S
O291 Dy276 2.310 . S
O291 Dy279 2.664 1_554 S
O291 C285 1.268 1_554 S
O292 Dy276 2.351 1_566 S
O292 C295 1.249 . S
O293 Dy279 2.326 1_565 S
O293 C295 1.267 . S
C294 O286 1.249 . S
C294 O287 1.267 . S
C295 O292 1.249 . S
C295 O293 1.267 . S
Dy296 O300 2.398 . S
Dy296 O301 2.491 . S
Dy296 O302 2.403 . S
Dy296 O303 2.664 . S
Dy296 O307 2.326 . S
Dy296 O311 2.310 . S
Dy296 O312 2.351 . S
C297 O308 1.185 . S
C297 O309 1.355 . S
C298 O300 1.185 . S
C298 O301 1.355 . S
Dy299 O303 2.310 . S
Dy299 O306 2.351 . S
Dy299 O308 2.398 . S
Dy299 O309 2.491 . S
Dy299 O310 2.403 . S
Dy299 O311 2.664 . S
Dy299 O313 2.326 . S
O300 Dy296 2.398 . S
O300 C298 1.185 . S
O301 Dy296 2.491 . S
O301 C298 1.355 . S
O302 Dy296 2.403 . S
O302 C304 1.254 . S
O303 Dy296 2.664 . S
O303 Dy299 2.310 . S
O303 C304 1.268 . S
C304 O302 1.254 . S
C304 O303 1.268 . S
C305 O310 1.254 . S
C305 O311 1.268 . S
O306 Dy299 2.351 . S
O306 C314 1.249 . S
O307 Dy296 2.326 . S
O307 C314 1.267 . S
O308 C297 1.185 . S
O308 Dy299 2.398 . S
O309 C297 1.355 . S
O309 Dy299 2.491 . S
O310 Dy299 2.403 . S
O310 C305 1.254 . S
O311 Dy296 2.310 . S
O311 Dy299 2.664 . S
O311 C305 1.268 . S
O312 Dy296 2.351 . S
O312 C315 1.249 . S
O313 Dy299 2.326 . S
O313 C315 1.267 . S
C314 O306 1.249 . S
C314 O307 1.267 . S
C315 O312 1.249 . S
C315 O313 1.267 . S
Dy316 O320 2.398 . S
Dy316 O321 2.491 . S
Dy316 O322 2.403 1_455 S
Dy316 O323 2.664 1_455 S
Dy316 O327 2.326 . S
Dy316 O331 2.310 1_554 S
Dy316 O332 2.348 1_454 S
C317 O328 1.185 . S
C317 O329 1.355 . S
C318 O320 1.185 . S
C318 O321 1.355 . S
Dy319 O323 2.310 1_556 S
Dy319 O326 2.351 1_656 S
Dy319 O328 2.398 . S
Dy319 O329 2.491 . S
Dy319 O330 2.403 1_655 S
Dy319 O331 2.664 1_655 S
Dy319 O333 2.326 . S
O320 Dy316 2.398 . S
O320 C318 1.185 . S
O321 Dy316 2.491 . S
O321 C318 1.355 . S
O322 Dy316 2.403 1_655 S
O322 C324 1.254 . S
O323 Dy316 2.664 1_655 S
O323 Dy319 2.310 1_554 S
O323 C324 1.268 . S
C324 O322 1.254 . S
C324 O323 1.268 . S
C325 O330 1.254 . S
C325 O331 1.268 . S
O326 Dy319 2.351 1_454 S
O326 C334 1.249 . S
O327 Dy316 2.326 . S
O327 C334 1.267 . S
O328 C317 1.185 . S
O328 Dy319 2.398 . S
O329 C317 1.355 . S
O329 Dy319 2.491 . S
O330 Dy319 2.403 1_455 S
O330 C325 1.254 . S
O331 Dy316 2.310 1_556 S
O331 Dy319 2.664 1_455 S
O331 C325 1.268 . S
O332 Dy316 2.348 1_656 S
O332 C335 1.253 . S
O333 Dy319 2.326 . S
O333 C335 1.267 . S
C334 O326 1.249 . S
C334 O327 1.267 . S
C335 O332 1.253 . S
C335 O333 1.267 . S
H336 C344 0.950 . S
H337 C349 0.950 . S
H338 C346 0.950 . S
H339 C348 0.950 . S
H340 C350 0.950 . S
H341 C352 0.950 . S
H342 C354 0.950 . S
H343 C355 0.950 . S
C344 H336 0.950 . S
C344 C345 1.386 . S
C344 C346 1.391 . S
C345 C344 1.386 . S
C345 C349 1.393 . S
C346 H338 0.950 . S
C346 C344 1.391 . S
C346 C347 1.400 . S
C347 C346 1.400 . S
C347 C348 1.398 . S
C347 C353 1.491 . S
C348 H339 0.950 . S
C348 C347 1.398 . S
C348 C349 1.391 . S
C349 H337 0.950 . S
C349 C345 1.393 . S
C349 C348 1.391 . S
C350 H340 0.950 . S
C350 C351 1.386 . S
C350 C352 1.391 . S
C351 C350 1.386 . S
C351 C355 1.393 . S
C352 H341 0.950 . S
C352 C350 1.391 . S
C352 C353 1.400 . S
C353 C347 1.491 . S
C353 C352 1.400 . S
C353 C354 1.398 . S
C354 H342 0.950 . S
C354 C353 1.398 . S
C354 C355 1.391 . S
C355 H343 0.950 . S
C355 C351 1.393 . S
C355 C354 1.391 . S
H356 C364 0.950 . S
H357 C369 0.950 . S
H358 C366 0.950 . S
H359 C368 0.950 . S
H360 C370 0.950 . S
H361 C372 0.950 . S
H362 C374 0.950 . S
H363 C375 0.950 . S
C364 H356 0.950 . S
C364 C365 1.386 . S
C364 C366 1.391 . S
C365 C364 1.386 . S
C365 C369 1.393 . S
C366 H358 0.950 . S
C366 C364 1.391 . S
C366 C367 1.400 . S
C367 C366 1.400 . S
C367 C368 1.398 . S
C367 C373 1.491 . S
C368 H359 0.950 . S
C368 C367 1.398 . S
C368 C369 1.391 . S
C369 H357 0.950 . S
C369 C365 1.393 . S
C369 C368 1.391 . S
C370 H360 0.950 . S
C370 C371 1.386 . S
C370 C372 1.391 . S
C371 C370 1.386 . S
C371 C375 1.393 . S
C372 H361 0.950 . S
C372 C370 1.391 . S
C372 C373 1.400 . S
C373 C367 1.491 . S
C373 C372 1.400 . S
C373 C374 1.398 . S
C374 H362 0.950 . S
C374 C373 1.398 . S
C374 C375 1.391 . S
C375 H363 0.950 . S
C375 C371 1.393 . S
C375 C374 1.391 . S
H376 C384 0.950 . S
H377 C389 0.950 . S
H378 C386 0.950 . S
H379 C388 0.950 . S
H380 C390 0.950 . S
H381 C392 0.950 . S
H382 C394 0.950 . S
H383 C395 0.950 . S
C384 H376 0.950 . S
C384 C385 1.386 . S
C384 C386 1.391 . S
C385 C384 1.386 . S
C385 C389 1.393 . S
C386 H378 0.950 . S
C386 C384 1.391 . S
C386 C387 1.400 . S
C387 C386 1.400 . S
C387 C388 1.398 . S
C387 C393 1.491 . S
C388 H379 0.950 . S
C388 C387 1.398 . S
C388 C389 1.391 . S
C389 H377 0.950 . S
C389 C385 1.393 . S
C389 C388 1.391 . S
C390 H380 0.950 . S
C390 C391 1.386 . S
C390 C392 1.391 . S
C391 C390 1.386 . S
C391 C395 1.393 . S
C392 H381 0.950 . S
C392 C390 1.391 . S
C392 C393 1.400 . S
C393 C387 1.491 . S
C393 C392 1.400 . S
C393 C394 1.398 . S
C394 H382 0.950 . S
C394 C393 1.398 . S
C394 C395 1.391 . S
C395 H383 0.950 . S
C395 C391 1.393 . S
C395 C394 1.391 . S
H396 C404 0.950 . S
H397 C409 0.950 . S
H398 C406 0.950 . S
H399 C408 0.950 . S
H400 C410 0.950 . S
H401 C412 0.950 . S
H402 C414 0.950 . S
H403 C415 0.950 . S
C404 H396 0.950 . S
C404 C405 1.386 . S
C404 C406 1.391 . S
C405 C404 1.386 . S
C405 C409 1.393 . S
C406 H398 0.950 . S
C406 C404 1.391 . S
C406 C407 1.400 . S
C407 C406 1.400 . S
C407 C408 1.398 . S
C407 C413 1.491 . S
C408 H399 0.950 . S
C408 C407 1.398 . S
C408 C409 1.391 . S
C409 H397 0.950 . S
C409 C405 1.393 . S
C409 C408 1.391 . S
C410 H400 0.950 . S
C410 C411 1.386 . S
C410 C412 1.391 . S
C411 C410 1.386 . S
C411 C415 1.393 . S
C412 H401 0.950 . S
C412 C410 1.391 . S
C412 C413 1.400 . S
C413 C407 1.491 . S
C413 C412 1.400 . S
C413 C414 1.398 . S
C414 H402 0.950 . S
C414 C413 1.398 . S
C414 C415 1.391 . S
C415 H403 0.950 . S
C415 C411 1.393 . S
C415 C414 1.391 . S
H416 C424 0.950 . S
H417 C429 0.950 . S
H418 C426 0.950 . S
H419 C428 0.950 . S
H420 C430 0.950 . S
H421 C432 0.950 . S
H422 C434 0.950 . S
H423 C435 0.950 . S
C424 H416 0.950 . S
C424 C425 1.386 . S
C424 C426 1.391 . S
C425 C424 1.386 . S
C425 C429 1.393 . S
C426 H418 0.950 . S
C426 C424 1.391 . S
C426 C427 1.400 . S
C427 C426 1.400 . S
C427 C428 1.398 . S
C427 C433 1.491 . S
C428 H419 0.950 . S
C428 C427 1.398 . S
C428 C429 1.391 . S
C429 H417 0.950 . S
C429 C425 1.393 . S
C429 C428 1.391 . S
C430 H420 0.950 . S
C430 C431 1.386 . S
C430 C432 1.391 . S
C431 C430 1.386 . S
C431 C435 1.393 . S
C432 H421 0.950 . S
C432 C430 1.391 . S
C432 C433 1.400 . S
C433 C427 1.491 . S
C433 C432 1.400 . S
C433 C434 1.398 . S
C434 H422 0.950 . S
C434 C433 1.398 . S
C434 C435 1.391 . S
C435 H423 0.950 . S
C435 C431 1.393 . S
C435 C434 1.391 . S
H436 C444 0.950 . S
H437 C449 0.950 . S
H438 C446 0.950 . S
H439 C448 0.950 . S
H440 C450 0.950 . S
H441 C452 0.950 . S
H442 C454 0.950 . S
H443 C455 0.950 . S
C444 H436 0.950 . S
C444 C445 1.386 . S
C444 C446 1.391 . S
C445 C444 1.386 . S
C445 C449 1.393 . S
C446 H438 0.950 . S
C446 C444 1.391 . S
C446 C447 1.400 . S
C447 C446 1.400 . S
C447 C448 1.398 . S
C447 C453 1.491 . S
C448 H439 0.950 . S
C448 C447 1.398 . S
C448 C449 1.391 . S
C449 H437 0.950 . S
C449 C445 1.393 . S
C449 C448 1.391 . S
C450 H440 0.950 . S
C450 C451 1.386 . S
C450 C452 1.391 . S
C451 C450 1.386 . S
C451 C455 1.393 . S
C452 H441 0.950 . S
C452 C450 1.391 . S
C452 C453 1.400 . S
C453 C447 1.491 . S
C453 C452 1.400 . S
C453 C454 1.398 . S
C454 H442 0.950 . S
C454 C453 1.398 . S
C454 C455 1.391 . S
C455 H443 0.950 . S
C455 C451 1.393 . S
C455 C454 1.391 . S
H456 C464 0.950 . S
H457 C469 0.950 . S
H458 C466 0.950 . S
H459 C468 0.950 . S
H460 C470 0.950 1_554 S
H461 C472 0.950 . S
H462 C474 0.950 . S
H463 C475 0.950 . S
C464 H456 0.950 . S
C464 C465 1.386 . S
C464 C466 1.391 . S
C465 C464 1.386 . S
C465 C469 1.393 . S
C466 H458 0.950 . S
C466 C464 1.391 . S
C466 C467 1.400 . S
C467 C466 1.400 . S
C467 C468 1.398 . S
C467 C473 1.491 . S
C468 H459 0.950 . S
C468 C467 1.398 . S
C468 C469 1.391 . S
C469 H457 0.950 . S
C469 C465 1.393 . S
C469 C468 1.391 . S
C470 H460 0.950 1_556 S
C470 C471 1.386 . S
C470 C472 1.391 . S
C471 C470 1.386 . S
C471 C475 1.393 . S
C472 H461 0.950 . S
C472 C470 1.391 . S
C472 C473 1.400 . S
C473 C467 1.491 . S
C473 C472 1.400 . S
C473 C474 1.398 . S
C474 H462 0.950 . S
C474 C473 1.398 . S
C474 C475 1.391 . S
C475 H463 0.950 . S
C475 C471 1.393 . S
C475 C474 1.391 . S
H476 C484 0.950 . S
H477 C489 0.950 . S
H478 C486 0.950 . S
H479 C488 0.950 . S
H480 C490 0.950 . S
H481 C492 0.950 . S
H482 C494 0.950 . S
H483 C495 0.950 . S
C484 H476 0.950 . S
C484 C485 1.386 . S
C484 C486 1.391 . S
C485 C484 1.386 . S
C485 C489 1.393 . S
C486 H478 0.950 . S
C486 C484 1.391 . S
C486 C487 1.400 . S
C487 C486 1.400 . S
C487 C488 1.398 . S
C487 C493 1.491 . S
C488 H479 0.950 . S
C488 C487 1.398 . S
C488 C489 1.391 . S
C489 H477 0.950 . S
C489 C485 1.393 . S
C489 C488 1.391 . S
C490 H480 0.950 . S
C490 C491 1.386 . S
C490 C492 1.391 . S
C491 C490 1.386 . S
C491 C495 1.393 . S
C492 H481 0.950 . S
C492 C490 1.391 . S
C492 C493 1.400 . S
C493 C487 1.491 . S
C493 C492 1.400 . S
C493 C494 1.398 . S
C494 H482 0.950 . S
C494 C493 1.398 . S
C494 C495 1.391 . S
C495 H483 0.950 . S
C495 C491 1.393 . S
C495 C494 1.391 . S
H496 C504 0.950 . S
H497 C509 0.950 . S
H498 C506 0.950 . S
H499 C508 0.950 . S
H500 C510 0.950 . S
H501 C512 0.950 . S
H502 C514 0.950 . S
H503 C515 0.950 . S
C504 H496 0.950 . S
C504 C505 1.386 . S
C504 C506 1.391 . S
C505 C504 1.386 . S
C505 C509 1.393 . S
C506 H498 0.950 . S
C506 C504 1.391 . S
C506 C507 1.400 . S
C507 C506 1.400 . S
C507 C508 1.398 . S
C507 C513 1.491 . S
C508 H499 0.950 . S
C508 C507 1.398 . S
C508 C509 1.391 . S
C509 H497 0.950 . S
C509 C505 1.393 . S
C509 C508 1.391 . S
C510 H500 0.950 . S
C510 C511 1.386 . S
C510 C512 1.391 . S
C511 C510 1.386 . S
C511 C515 1.393 . S
C512 H501 0.950 . S
C512 C510 1.391 . S
C512 C513 1.400 . S
C513 C507 1.491 . S
C513 C512 1.400 . S
C513 C514 1.398 . S
C514 H502 0.950 . S
C514 C513 1.398 . S
C514 C515 1.391 . S
C515 H503 0.950 . S
C515 C511 1.393 . S
C515 C514 1.391 . S
H516 C524 0.950 . S
H517 C529 0.950 . S
H518 C526 0.950 . S
H519 C528 0.950 . S
H520 C530 0.950 . S
H521 C532 0.950 . S
H522 C534 0.950 . S
H523 C535 0.950 . S
C524 H516 0.950 . S
C524 C525 1.386 . S
C524 C526 1.391 . S
C525 C524 1.386 . S
C525 C529 1.393 . S
C526 H518 0.950 . S
C526 C524 1.391 . S
C526 C527 1.400 . S
C527 C526 1.400 . S
C527 C528 1.398 . S
C527 C533 1.491 . S
C528 H519 0.950 . S
C528 C527 1.398 . S
C528 C529 1.391 . S
C529 H517 0.950 . S
C529 C525 1.393 . S
C529 C528 1.391 . S
C530 H520 0.950 . S
C530 C531 1.386 . S
C530 C532 1.391 . S
C531 C530 1.386 . S
C531 C535 1.393 . S
C532 H521 0.950 . S
C532 C530 1.391 . S
C532 C533 1.400 . S
C533 C527 1.491 . S
C533 C532 1.400 . S
C533 C534 1.398 . S
C534 H522 0.950 . S
C534 C533 1.398 . S
C534 C535 1.391 . S
C535 H523 0.950 . S
C535 C531 1.393 . S
C535 C534 1.391 . S
H536 C544 0.950 . S
H537 C549 0.950 . S
H538 C546 0.950 . S
H539 C548 0.950 . S
H540 C550 0.950 . S
H541 C552 0.950 . S
H542 C554 0.950 . S
H543 C555 0.950 . S
C544 H536 0.950 . S
C544 C545 1.386 . S
C544 C546 1.391 . S
C545 C544 1.386 . S
C545 C549 1.393 . S
C546 H538 0.950 . S
C546 C544 1.391 . S
C546 C547 1.400 . S
C547 C546 1.400 . S
C547 C548 1.398 . S
C547 C553 1.491 . S
C548 H539 0.950 . S
C548 C547 1.398 . S
C548 C549 1.391 . S
C549 H537 0.950 . S
C549 C545 1.393 . S
C549 C548 1.391 . S
C550 H540 0.950 . S
C550 C551 1.386 . S
C550 C552 1.391 . S
C551 C550 1.386 . S
C551 C555 1.393 . S
C552 H541 0.950 . S
C552 C550 1.391 . S
C552 C553 1.400 . S
C553 C547 1.491 . S
C553 C552 1.400 . S
C553 C554 1.398 . S
C554 H542 0.950 . S
C554 C553 1.398 . S
C554 C555 1.391 . S
C555 H543 0.950 . S
C555 C551 1.393 . S
C555 C554 1.391 . S
H556 C564 0.950 . S
H557 C569 0.950 . S
H558 C566 0.950 . S
H559 C568 0.950 . S
H560 C570 0.950 . S
H561 C572 0.950 . S
H562 C574 0.950 . S
H563 C575 0.950 . S
C564 H556 0.950 . S
C564 C565 1.386 . S
C564 C566 1.391 . S
C565 C564 1.386 . S
C565 C569 1.393 . S
C566 H558 0.950 . S
C566 C564 1.391 . S
C566 C567 1.400 . S
C567 C566 1.400 . S
C567 C568 1.398 . S
C567 C573 1.491 . S
C568 H559 0.950 . S
C568 C567 1.398 . S
C568 C569 1.391 . S
C569 H557 0.950 . S
C569 C565 1.393 . S
C569 C568 1.391 . S
C570 H560 0.950 . S
C570 C571 1.386 . S
C570 C572 1.391 . S
C571 C570 1.386 . S
C571 C575 1.393 . S
C572 H561 0.950 . S
C572 C570 1.391 . S
C572 C573 1.400 . S
C573 C567 1.491 . S
C573 C572 1.400 . S
C573 C574 1.398 . S
C574 H562 0.950 . S
C574 C573 1.398 . S
C574 C575 1.391 . S
C575 H563 0.950 . S
C575 C571 1.393 . S
C575 C574 1.391 . S
H576 C584 0.950 . S
H577 C589 0.950 . S
H578 C586 0.950 . S
H579 C588 0.950 . S
H580 C590 0.950 . S
H581 C592 0.950 . S
H582 C594 0.950 . S
H583 C595 0.950 . S
C584 H576 0.950 . S
C584 C585 1.386 . S
C584 C586 1.391 . S
C585 C584 1.386 . S
C585 C589 1.393 . S
C586 H578 0.950 . S
C586 C584 1.391 . S
C586 C587 1.400 . S
C587 C586 1.400 . S
C587 C588 1.398 . S
C587 C593 1.491 . S
C588 H579 0.950 . S
C588 C587 1.398 . S
C588 C589 1.391 . S
C589 H577 0.950 . S
C589 C585 1.393 . S
C589 C588 1.391 . S
C590 H580 0.950 . S
C590 C591 1.386 . S
C590 C592 1.391 . S
C591 C590 1.386 . S
C591 C595 1.393 . S
C592 H581 0.950 . S
C592 C590 1.391 . S
C592 C593 1.400 . S
C593 C587 1.491 . S
C593 C592 1.400 . S
C593 C594 1.398 . S
C594 H582 0.950 . S
C594 C593 1.398 . S
C594 C595 1.391 . S
C595 H583 0.950 . S
C595 C591 1.393 . S
C595 C594 1.391 . S
H596 C604 0.950 . S
H597 C609 0.950 . S
H598 C606 0.950 . S
H599 C608 0.950 . S
H600 C610 0.950 . S
H601 C612 0.950 . S
H602 C614 0.950 . S
H603 C615 0.950 . S
C604 H596 0.950 . S
C604 C605 1.386 . S
C604 C606 1.391 . S
C605 C604 1.386 . S
C605 C609 1.393 . S
C606 H598 0.950 . S
C606 C604 1.391 . S
C606 C607 1.400 . S
C607 C606 1.400 . S
C607 C608 1.398 . S
C607 C613 1.491 . S
C608 H599 0.950 . S
C608 C607 1.398 . S
C608 C609 1.391 . S
C609 H597 0.950 . S
C609 C605 1.393 . S
C609 C608 1.391 . S
C610 H600 0.950 . S
C610 C611 1.386 . S
C610 C612 1.391 . S
C611 C610 1.386 . S
C611 C615 1.393 . S
C612 H601 0.950 . S
C612 C610 1.391 . S
C612 C613 1.400 . S
C613 C607 1.491 . S
C613 C612 1.400 . S
C613 C614 1.398 . S
C614 H602 0.950 . S
C614 C613 1.398 . S
C614 C615 1.391 . S
C615 H603 0.950 . S
C615 C611 1.393 . S
C615 C614 1.391 . S
H616 C624 0.950 . S
H617 C629 0.950 . S
H618 C626 0.950 . S
H619 C628 0.950 . S
H620 C630 0.950 . S
H621 C632 0.950 . S
H622 C634 0.950 . S
H623 C635 0.950 . S
C624 H616 0.950 . S
C624 C625 1.386 . S
C624 C626 1.391 . S
C625 C624 1.386 . S
C625 C629 1.393 . S
C626 H618 0.950 . S
C626 C624 1.391 . S
C626 C627 1.400 . S
C627 C626 1.400 . S
C627 C628 1.398 . S
C627 C633 1.491 . S
C628 H619 0.950 . S
C628 C627 1.398 . S
C628 C629 1.391 . S
C629 H617 0.950 . S
C629 C625 1.393 . S
C629 C628 1.391 . S
C630 H620 0.950 . S
C630 C631 1.386 . S
C630 C632 1.391 . S
C631 C630 1.386 . S
C631 C635 1.393 . S
C632 H621 0.950 . S
C632 C630 1.391 . S
C632 C633 1.400 . S
C633 C627 1.491 . S
C633 C632 1.400 . S
C633 C634 1.398 . S
C634 H622 0.950 . S
C634 C633 1.398 . S
C634 C635 1.391 . S
C635 H623 0.950 . S
C635 C631 1.393 . S
C635 C634 1.391 . S
H636 C644 0.950 . S
H637 C649 0.950 . S
H638 C646 0.950 . S
H639 C648 0.950 . S
H640 C650 0.950 . S
H641 C652 0.950 . S
H642 C654 0.950 . S
H643 C655 0.950 . S
C644 H636 0.950 . S
C644 C645 1.386 . S
C644 C646 1.391 . S
C645 C644 1.386 . S
C645 C649 1.393 . S
C646 H638 0.950 . S
C646 C644 1.391 . S
C646 C647 1.400 . S
C647 C646 1.400 . S
C647 C648 1.398 . S
C647 C653 1.491 . S
C648 H639 0.950 . S
C648 C647 1.398 . S
C648 C649 1.391 . S
C649 H637 0.950 . S
C649 C645 1.393 . S
C649 C648 1.391 . S
C650 H640 0.950 . S
C650 C651 1.386 . S
C650 C652 1.391 . S
C651 C650 1.386 . S
C651 C655 1.393 . S
C652 H641 0.950 . S
C652 C650 1.391 . S
C652 C653 1.400 . S
C653 C647 1.491 . S
C653 C652 1.400 . S
C653 C654 1.398 . S
C654 H642 0.950 . S
C654 C653 1.398 . S
C654 C655 1.391 . S
C655 H643 0.950 . S
C655 C651 1.393 . S
C655 C654 1.391 . S
H656 C664 0.950 . S
H657 C669 0.950 . S
H658 C666 0.950 . S
H659 C668 0.950 . S
H660 C670 0.950 . S
H661 C672 0.950 . S
H662 C674 0.950 . S
H663 C675 0.950 . S
C664 H656 0.950 . S
C664 C665 1.386 . S
C664 C666 1.391 . S
C665 C664 1.386 . S
C665 C669 1.393 . S
C666 H658 0.950 . S
C666 C664 1.391 . S
C666 C667 1.400 . S
C667 C666 1.400 . S
C667 C668 1.398 . S
C667 C673 1.491 . S
C668 H659 0.950 . S
C668 C667 1.398 . S
C668 C669 1.391 . S
C669 H657 0.950 . S
C669 C665 1.393 . S
C669 C668 1.391 . S
C670 H660 0.950 . S
C670 C671 1.386 . S
C670 C672 1.391 . S
C671 C670 1.386 . S
C671 C675 1.393 . S
C672 H661 0.950 . S
C672 C670 1.391 . S
C672 C673 1.400 . S
C673 C667 1.491 . S
C673 C672 1.400 . S
C673 C674 1.398 . S
C674 H662 0.950 . S
C674 C673 1.398 . S
C674 C675 1.391 . S
C675 H663 0.950 . S
C675 C671 1.393 . S
C675 C674 1.391 . S
H676 C684 0.950 . S
H677 C689 0.950 . S
H678 C686 0.950 . S
H679 C688 0.950 . S
H680 C690 0.950 . S
H681 C692 0.950 . S
H682 C694 0.950 . S
H683 C695 0.950 . S
C684 H676 0.950 . S
C684 C685 1.386 . S
C684 C686 1.391 . S
C685 C684 1.386 . S
C685 C689 1.393 . S
C686 H678 0.950 . S
C686 C684 1.391 . S
C686 C687 1.400 . S
C687 C686 1.400 . S
C687 C688 1.398 . S
C687 C693 1.491 . S
C688 H679 0.950 . S
C688 C687 1.398 . S
C688 C689 1.391 . S
C689 H677 0.950 . S
C689 C685 1.393 . S
C689 C688 1.391 . S
C690 H680 0.950 . S
C690 C691 1.386 . S
C690 C692 1.391 . S
C691 C690 1.386 . S
C691 C695 1.393 . S
C692 H681 0.950 . S
C692 C690 1.391 . S
C692 C693 1.400 . S
C693 C687 1.491 . S
C693 C692 1.400 . S
C693 C694 1.398 . S
C694 H682 0.950 . S
C694 C693 1.398 . S
C694 C695 1.391 . S
C695 H683 0.950 . S
C695 C691 1.393 . S
C695 C694 1.391 . S
H696 C704 0.950 . S
H697 C709 0.950 . S
H698 C706 0.950 . S
H699 C708 0.950 . S
H700 C710 0.950 . S
H701 C712 0.950 . S
H702 C714 0.950 . S
H703 C715 0.950 . S
C704 H696 0.950 . S
C704 C705 1.386 . S
C704 C706 1.391 . S
C705 C704 1.386 . S
C705 C709 1.393 . S
C706 H698 0.950 . S
C706 C704 1.391 . S
C706 C707 1.400 . S
C707 C706 1.400 . S
C707 C708 1.398 . S
C707 C713 1.491 . S
C708 H699 0.950 . S
C708 C707 1.398 . S
C708 C709 1.391 . S
C709 H697 0.950 . S
C709 C705 1.393 . S
C709 C708 1.391 . S
C710 H700 0.950 . S
C710 C711 1.386 . S
C710 C712 1.391 . S
C711 C710 1.386 . S
C711 C715 1.393 . S
C712 H701 0.950 . S
C712 C710 1.391 . S
C712 C713 1.400 . S
C713 C707 1.491 . S
C713 C712 1.400 . S
C713 C714 1.398 . S
C714 H702 0.950 . S
C714 C713 1.398 . S
C714 C715 1.391 . S
C715 H703 0.950 . S
C715 C711 1.393 . S
C715 C714 1.391 . S
H716 C724 0.950 . S
H717 C729 0.950 . S
H718 C726 0.950 . S
H719 C728 0.950 . S
H720 C730 0.950 . S
H721 C732 0.950 . S
H722 C734 0.950 . S
H723 C735 0.950 . S
C724 H716 0.950 . S
C724 C725 1.386 . S
C724 C726 1.391 . S
C725 C724 1.386 . S
C725 C729 1.393 . S
C726 H718 0.950 . S
C726 C724 1.391 . S
C726 C727 1.400 . S
C727 C726 1.400 . S
C727 C728 1.398 . S
C727 C733 1.491 . S
C728 H719 0.950 . S
C728 C727 1.398 . S
C728 C729 1.391 . S
C729 H717 0.950 . S
C729 C725 1.393 . S
C729 C728 1.391 . S
C730 H720 0.950 . S
C730 C731 1.386 . S
C730 C732 1.391 . S
C731 C730 1.386 . S
C731 C735 1.393 . S
C732 H721 0.950 . S
C732 C730 1.391 . S
C732 C733 1.400 . S
C733 C727 1.491 . S
C733 C732 1.400 . S
C733 C734 1.398 . S
C734 H722 0.950 . S
C734 C733 1.398 . S
C734 C735 1.391 . S
C735 H723 0.950 . S
C735 C731 1.393 . S
C735 C734 1.391 . S
H736 C744 0.950 . S
H737 C749 0.950 . S
H738 C746 0.950 . S
H739 C748 0.950 . S
H740 C750 0.950 . S
H741 C752 0.950 . S
H742 C754 0.950 . S
H743 C755 0.950 . S
C744 H736 0.950 . S
C744 C745 1.386 . S
C744 C746 1.391 . S
C745 C744 1.386 . S
C745 C749 1.393 . S
C746 H738 0.950 . S
C746 C744 1.391 . S
C746 C747 1.400 . S
C747 C746 1.400 . S
C747 C748 1.398 . S
C747 C753 1.491 . S
C748 H739 0.950 . S
C748 C747 1.398 . S
C748 C749 1.391 . S
C749 H737 0.950 . S
C749 C745 1.393 . S
C749 C748 1.391 . S
C750 H740 0.950 . S
C750 C751 1.386 . S
C750 C752 1.391 . S
C751 C750 1.386 . S
C751 C755 1.393 . S
C752 H741 0.950 . S
C752 C750 1.391 . S
C752 C753 1.400 . S
C753 C747 1.491 . S
C753 C752 1.400 . S
C753 C754 1.398 . S
C754 H742 0.950 . S
C754 C753 1.398 . S
C754 C755 1.391 . S
C755 H743 0.950 . S
C755 C751 1.393 . S
C755 C754 1.391 . S
H756 C764 0.950 . S
H757 C769 0.950 . S
H758 C766 0.950 . S
H759 C768 0.950 . S
H760 C770 0.950 . S
H761 C772 0.950 . S
H762 C774 0.950 . S
H763 C775 0.950 . S
C764 H756 0.950 . S
C764 C765 1.386 . S
C764 C766 1.391 . S
C765 C764 1.386 . S
C765 C769 1.393 . S
C766 H758 0.950 . S
C766 C764 1.391 . S
C766 C767 1.400 . S
C767 C766 1.400 . S
C767 C768 1.398 . S
C767 C773 1.491 . S
C768 H759 0.950 . S
C768 C767 1.398 . S
C768 C769 1.391 . S
C769 H757 0.950 . S
C769 C765 1.393 . S
C769 C768 1.391 . S
C770 H760 0.950 . S
C770 C771 1.386 . S
C770 C772 1.391 . S
C771 C770 1.386 . S
C771 C775 1.393 . S
C772 H761 0.950 . S
C772 C770 1.391 . S
C772 C773 1.400 . S
C773 C767 1.491 . S
C773 C772 1.400 . S
C773 C774 1.398 . S
C774 H762 0.950 . S
C774 C773 1.398 . S
C774 C775 1.391 . S
C775 H763 0.950 . S
C775 C771 1.393 . S
C775 C774 1.391 . S
H776 C784 0.950 . S
H777 C789 0.950 . S
H778 C786 0.950 . S
H779 C788 0.950 . S
H780 C790 0.950 . S
H781 C792 0.950 . S
H782 C794 0.950 . S
H783 C795 0.950 . S
C784 H776 0.950 . S
C784 C785 1.386 . S
C784 C786 1.391 . S
C785 C784 1.386 . S
C785 C789 1.393 . S
C786 H778 0.950 . S
C786 C784 1.391 . S
C786 C787 1.400 . S
C787 C786 1.400 . S
C787 C788 1.398 . S
C787 C793 1.491 . S
C788 H779 0.950 . S
C788 C787 1.398 . S
C788 C789 1.391 . S
C789 H777 0.950 . S
C789 C785 1.393 . S
C789 C788 1.391 . S
C790 H780 0.950 . S
C790 C791 1.386 . S
C790 C792 1.391 . S
C791 C790 1.386 . S
C791 C795 1.393 . S
C792 H781 0.950 . S
C792 C790 1.391 . S
C792 C793 1.400 . S
C793 C787 1.491 . S
C793 C792 1.400 . S
C793 C794 1.398 . S
C794 H782 0.950 . S
C794 C793 1.398 . S
C794 C795 1.391 . S
C795 H783 0.950 . S
C795 C791 1.393 . S
C795 C794 1.391 . S
H796 C804 0.950 . S
H797 C809 0.950 . S
H798 C806 0.950 . S
H799 C808 0.950 . S
H800 C810 0.950 . S
H801 C812 0.950 . S
H802 C814 0.950 . S
H803 C815 0.950 . S
C804 H796 0.950 . S
C804 C805 1.386 . S
C804 C806 1.391 . S
C805 C804 1.386 . S
C805 C809 1.393 . S
C806 H798 0.950 . S
C806 C804 1.391 . S
C806 C807 1.400 . S
C807 C806 1.400 . S
C807 C808 1.398 . S
C807 C813 1.491 . S
C808 H799 0.950 . S
C808 C807 1.398 . S
C808 C809 1.391 . S
C809 H797 0.950 . S
C809 C805 1.393 . S
C809 C808 1.391 . S
C810 H800 0.950 . S
C810 C811 1.386 . S
C810 C812 1.391 . S
C811 C810 1.386 . S
C811 C815 1.393 . S
C812 H801 0.950 . S
C812 C810 1.391 . S
C812 C813 1.400 . S
C813 C807 1.491 . S
C813 C812 1.400 . S
C813 C814 1.398 . S
C814 H802 0.950 . S
C814 C813 1.398 . S
C814 C815 1.391 . S
C815 H803 0.950 . S
C815 C811 1.393 . S
C815 C814 1.391 . S
C345 C29 1.538 . S
C351 C258 1.519 . S
C365 C49 1.306 . S
C371 C277 1.281 . S
C391 C314 1.764 . S
C385 C93 1.749 . S
C405 C119 1.612 . S
C411 C324 1.614 . S
C431 C294 1.905 . S
C425 C17 1.905 . S
C451 C264 1.441 . S
C445 C61 1.499 . S
C471 C335 1.484 . S
C465 C81 1.501 . S
C491 C305 1.437 . S
C485 C125 1.408 . S
C505 C23 1.690 . S
C511 C318 1.675 . S
C531 C285 1.681 . S
C525 C87 1.688 . S
C545 C113 1.723 . S
C551 C275 1.759 . S
C565 C55 1.221 . S
C571 C297 1.236 . S
C591 C257 1.485 . S
C585 C157 1.390 . S
C605 C189 1.305 . S
C611 C278 1.342 . S
C625 C221 1.745 . S
C631 C315 1.733 . S
C645 C253 1.672 . S
C651 C325 1.693 . S
C665 C145 1.845 . S
C671 C295 1.964 . S
C691 C265 1.363 . S
C685 C183 1.375 . S
C711 C334 1.541 . S
C705 C209 1.539 . S
C731 C304 1.407 . S
C725 C247 1.374 . S
C745 C151 1.602 . S
C751 C317 1.685 . S
C771 C284 1.664 . S
C765 C215 1.704 . S
C791 C274 1.729 . S
C785 C241 1.678 . S
C805 C177 1.212 . S
C811 C298 1.237 . S
