# Generated by pormake.
# Topology tsx, (6,3)-cn, num edge types: 1
# Building blocks:
#     Node 0, Type 0, BuildingBlock: LEVNOQ01_clean_sbu_1, # of connection points: 6
#     Node 1, Type 0, BuildingBlock: LEVNOQ01_clean_sbu_1, # of connection points: 6
#     Node 2, Type 1, BuildingBlock: KAKCAD_clean_linker_0, # of connection points: 3
#     Node 3, Type 1, BuildingBlock: KAKCAD_clean_linker_0, # of connection points: 3
#     Node 4, Type 1, BuildingBlock: KAKCAD_clean_linker_0, # of connection points: 3
#     Node 5, Type 1, BuildingBlock: KAKCAD_clean_linker_0, # of connection points: 3
#     Edge 6, Type (0, 1), BuildingBlock: TEMPAE_clean_linker_10, # of connection points: 2
#     Edge 7, Type (0, 1), BuildingBlock: TEMPAE_clean_linker_10, # of connection points: 2
#     Edge 8, Type (0, 1), BuildingBlock: TEMPAE_clean_linker_10, # of connection points: 2
#     Edge 9, Type (0, 1), BuildingBlock: TEMPAE_clean_linker_10, # of connection points: 2
#     Edge 10, Type (0, 1), BuildingBlock: TEMPAE_clean_linker_10, # of connection points: 2
#     Edge 11, Type (0, 1), BuildingBlock: TEMPAE_clean_linker_10, # of connection points: 2
#     Edge 12, Type (0, 1), BuildingBlock: TEMPAE_clean_linker_10, # of connection points: 2
#     Edge 13, Type (0, 1), BuildingBlock: TEMPAE_clean_linker_10, # of connection points: 2
#     Edge 14, Type (0, 1), BuildingBlock: TEMPAE_clean_linker_10, # of connection points: 2
#     Edge 15, Type (0, 1), BuildingBlock: TEMPAE_clean_linker_10, # of connection points: 2
#     Edge 16, Type (0, 1), BuildingBlock: TEMPAE_clean_linker_10, # of connection points: 2
#     Edge 17, Type (0, 1), BuildingBlock: TEMPAE_clean_linker_10, # of connection points: 2
# Relax obj value: 0.130
# Max RMSD: 0.158
# Mean RMSD: 0.120
data_MOF--net-tsx--node1-LEVNOQ01_clean_sbu_1--node2-KAKCAD_clean_linker_0--edge1-TEMPAE_clean_linker_10
_symmetry_space_group_name_H-M    P1
_symmetry_Int_Tables_number       1
_symmetry_cell_setting            triclinic
loop_
_symmetry_equiv_pos_as_xyz
'x, y, z'
_cell_length_a     23.051932
_cell_length_b     28.046098
_cell_length_c     45.715368
_cell_angle_alpha  98.266394
_cell_angle_beta   91.61694
_cell_angle_gamma 90.12063
loop_
_atom_site_label
_atom_site_type_symbol
_atom_site_fract_x
_atom_site_fract_y
_atom_site_fract_z
_atom_type_partial_charge
O0 O 0.10308 0.00837 0.07024 0.0
Mg1 Mg 0.13452 0.03086 0.03139 0.0
O2 O 0.0147 0.02704 0.05719 0.0
Mg3 Mg 0.03244 0.02893 0.00722 0.0
O4 O 0.10433 0.09224 0.01638 0.0
O5 O 0.18638 0.08789 0.04371 0.0
O6 O 0.05723 0.03478 0.95745 0.0
O7 O 0.96825 0.09396 0.00823 0.0
Mg8 Mg 0.96056 -0.00105 0.96398 0.0
O9 O 0.95607 0.97036 0.00226 0.0
O10 O 0.02152 0.96785 0.93384 0.0
O11 O 0.93184 0.07099 0.96343 0.0
O12 O 0.8912 0.95542 0.96428 0.0
C13 C 0.14231 0.9464 -0.00179 0.0
C14 C 0.05018 0.01396 0.07635 0.0
C15 C 0.15169 0.11217 0.02899 0.0
C16 C 0.0555 0.00311 0.93445 0.0
C17 C 0.93665 0.10252 0.9862 0.0
C18 C 0.91014 0.94777 0.98999 0.0
O19 O 0.17914 0.98002 0.00262 0.0
O20 O 0.08903 0.95649 0.00281 0.0
O21 O 0.59851 0.54891 0.58725 0.0
Mg22 Mg 0.64623 0.54282 0.54897 0.0
O23 O 0.52386 0.51746 0.55995 0.0
Mg24 Mg 0.54511 0.52031 0.50947 0.0
O25 O 0.61633 0.58201 0.51701 0.0
O26 O 0.69667 0.60013 0.54559 0.0
O27 O 0.57108 0.52928 0.46001 0.0
O28 O 0.47883 0.58303 0.50991 0.0
Mg29 Mg 0.48122 0.48848 0.4672 0.0
O30 O 0.47072 0.4574 0.50418 0.0
O31 O 0.54344 0.45992 0.4367 0.0
O32 O 0.44194 0.55689 0.46568 0.0
O33 O 0.41646 0.44062 0.46232 0.0
C34 C 0.65962 0.44511 0.51789 0.0
C35 C 0.5477 0.53157 0.58535 0.0
C36 C 0.66065 0.61026 0.52528 0.0
C37 C 0.57264 0.49781 0.43701 0.0
C38 C 0.44523 0.58911 0.48815 0.0
C39 C 0.42906 0.43286 0.48883 0.0
O40 O 0.68628 0.47672 0.5358 0.0
O41 O 0.61017 0.45465 0.50685 0.0
C42 C -0.00143 0.94575 0.30072 0.0
C43 C 0.9894 -0.00978 0.2905 0.0
C44 C 0.00184 0.94301 0.33106 0.0
C45 C -0.00394 -0.01533 0.3519 0.0
C46 C 0.98649 0.02902 0.34162 0.0
C47 C 0.98294 0.03171 0.31136 0.0
C48 C 0.00024 -0.01769 0.38425 0.0
C49 C 0.042 0.95343 0.39607 0.0
C50 C 0.04769 0.95258 0.42684 0.0
C51 C 0.0118 -0.01711 0.44589 0.0
C52 C 0.96991 0.01186 0.43425 0.0
C53 C 0.96377 0.01064 0.40359 0.0
C54 C 0.93497 0.04707 0.45339 0.0
C55 C 0.87411 0.04522 0.45078 0.0
C56 C 0.96207 0.08802 0.46928 0.0
C57 C 0.92907 0.12819 0.48011 0.0
C58 C 0.86845 0.12762 0.47564 0.0
C59 C 0.09158 0.92034 0.4386 0.0
C60 C 0.10467 0.87545 0.42212 0.0
C61 C 0.12165 0.9341 0.46583 0.0
C62 C 0.16419 0.90411 0.47591 0.0
C63 C 0.17824 0.86028 0.45873 0.0
C64 C 0.14783 0.84615 0.43189 0.0
C65 C 0.84103 0.08504 0.46209 0.0
H66 H 0.00442 0.91315 0.28527 0.0
H67 H 0.00869 0.90821 0.33819 0.0
H68 H 0.98264 0.06199 0.35696 0.0
H69 H 0.97521 0.06646 0.30432 0.0
H70 H 0.07149 0.93277 0.38123 0.0
H71 H 0.9312 0.03305 0.39483 0.0
H72 H 0.01559 -0.01634 0.46962 0.0
H73 H 0.85246 0.01408 0.43836 0.0
H74 H 0.00898 0.0904 0.47125 0.0
H75 H 0.9511 0.16055 0.49071 0.0
H76 H 0.08147 0.86263 0.40157 0.0
H77 H 0.11342 0.96847 0.47908 0.0
H78 H 0.79441 0.08376 0.45832 0.0
H79 H 0.15719 0.81207 0.41851 0.0
H80 H 0.18712 0.91568 0.49674 0.0
C81 C 0.06006 0.08654 0.71291 0.0
C82 C 0.05954 0.04181 0.72311 0.0
C83 C 0.04835 0.08945 0.68306 0.0
C84 C 0.03708 0.0475 0.6627 0.0
C85 C 0.03738 0.00263 0.67315 0.0
C86 C 0.04789 -8e-05 0.70313 0.0
C87 C 0.02579 0.05056 0.63071 0.0
C88 C 0.05458 0.08511 0.61708 0.0
C89 C 0.04456 0.08875 0.58703 0.0
C90 C 0.00628 0.05596 0.56996 0.0
C91 C 0.97783 0.02035 0.58312 0.0
C92 C 0.98706 0.01865 0.61353 0.0
C93 C 0.93934 -0.01648 0.5657 0.0
C94 C 0.89311 -0.0037 0.54765 0.0
C95 C 0.94586 0.93502 0.5695 0.0
C96 C 0.90492 0.90064 0.55748 0.0
C97 C 0.85626 0.91375 0.54132 0.0
C98 C 0.07668 0.12619 0.57409 0.0
C99 C 0.08157 0.17302 0.58977 0.0
C100 C 0.10821 0.11435 0.54824 0.0
C101 C 0.14656 0.14794 0.5393 0.0
C102 C 0.15383 0.19397 0.556 0.0
C103 C 0.11977 0.20642 0.58091 0.0
C104 C 0.85174 0.96154 0.5355 0.0
H105 H 0.06825 0.11931 0.72816 0.0
H106 H 0.04735 0.12474 0.67609 0.0
H107 H 0.0301 0.96945 0.65819 0.0
H108 H 0.04735 0.96505 0.71071 0.0
H109 H 0.08644 0.10868 0.62971 0.0
H110 H 0.96339 -0.00758 0.62385 0.0
H111 H -0.00078 0.05778 0.5466 0.0
H112 H 0.88728 0.03345 0.54426 0.0
H113 H 0.98177 0.92392 0.58272 0.0
H114 H 0.91036 0.86382 0.56166 0.0
H115 H 0.05733 0.18327 0.60964 0.0
H116 H 0.10538 0.07849 0.53578 0.0
H117 H 0.81485 0.97247 0.5229 0.0
H118 H 0.12435 0.24136 0.59438 0.0
H119 H 0.17138 0.13756 0.51966 0.0
C120 C 0.4628 0.42572 0.79968 0.0
C121 C 0.45734 0.46985 0.78856 0.0
C122 C 0.46546 0.4245 0.83026 0.0
C123 C 0.46266 0.46736 0.85034 0.0
C124 C 0.45795 0.51139 0.83914 0.0
C125 C 0.45528 0.51261 0.80873 0.0
C126 C 0.4637 0.46686 0.8829 0.0
C127 C 0.5029 0.43801 0.8965 0.0
C128 C 0.50635 0.44054 0.92757 0.0
C129 C 0.46992 0.47273 0.94506 0.0
C130 C 0.42918 0.50053 0.93157 0.0
C131 C 0.42642 0.49714 0.90065 0.0
C132 C 0.3904 0.53532 0.94888 0.0
C133 C 0.33081 0.53486 0.9415 0.0
C134 C 0.41359 0.57407 0.96864 0.0
C135 C 0.37881 0.61375 0.97862 0.0
C136 C 0.32028 0.61514 0.96904 0.0
C137 C 0.54855 0.4096 0.94131 0.0
C138 C 0.55415 0.36078 0.92948 0.0
C139 C 0.5852 0.42872 0.9653 0.0
C140 C 0.62783 0.39996 0.97648 0.0
C141 C 0.63403 0.35132 0.96421 0.0
C142 C 0.59615 0.33202 0.94082 0.0
C143 C 0.29611 0.57424 0.95152 0.0
H144 H 0.46434 0.3921 0.78475 0.0
H145 H 0.46869 0.38999 0.83818 0.0
H146 H 0.45703 0.54519 0.85394 0.0
H147 H 0.45271 0.54732 0.80101 0.0
H148 H 0.53228 0.41481 0.88296 0.0
H149 H 0.39549 0.51909 0.89033 0.0
H150 H 0.47222 0.47531 0.96895 0.0
H151 H 0.31181 0.50516 0.92648 0.0
H152 H 0.45949 0.57537 0.97452 0.0
H153 H 0.39883 0.64466 0.9921 0.0
H154 H 0.52624 0.34485 0.91119 0.0
H155 H 0.58209 0.46626 0.97481 0.0
H156 H 0.25089 0.57364 0.94434 0.0
H157 H 0.60006 0.29487 0.93065 0.0
H158 H 0.65613 0.41581 -0.00538 0.0
C159 C 0.56738 0.58303 0.21421 0.0
C160 C 0.56524 0.53878 0.22499 0.0
C161 C 0.5574 0.58514 0.18412 0.0
C162 C 0.54644 0.54283 0.164 0.0
C163 C 0.54462 0.49848 0.17505 0.0
C164 C 0.5533 0.49659 0.20526 0.0
C165 C 0.53832 0.54491 0.13165 0.0
C166 C 0.56888 0.57906 0.11834 0.0
C167 C 0.56245 0.58105 0.08798 0.0
C168 C 0.52542 0.54831 0.07033 0.0
C169 C 0.49466 0.51366 0.08312 0.0
C170 C 0.50103 0.51243 0.11374 0.0
C171 C 0.45659 0.47775 0.06481 0.0
C172 C 0.41117 0.49211 0.04689 0.0
C173 C 0.46353 0.42862 0.06677 0.0
C174 C 0.42466 0.39459 0.05206 0.0
C175 C 0.37745 0.40892 0.03531 0.0
C176 C 0.59631 0.61717 0.0752 0.0
C177 C 0.585 0.66627 0.08335 0.0
C178 C 0.64435 0.60317 0.05796 0.0
C179 C 0.68197 0.63797 0.04991 0.0
C180 C 0.67176 0.68741 0.05871 0.0
C181 C 0.62193 0.70105 0.07493 0.0
C182 C 0.37144 0.45797 0.03249 0.0
H183 H 0.57581 0.61607 0.22917 0.0
H184 H 0.55783 0.62013 0.17675 0.0
H185 H 0.53749 0.465 0.16037 0.0
H186 H 0.55166 0.46203 0.21319 0.0
H187 H 0.59925 0.60359 0.13137 0.0
H188 H 0.47603 0.48641 0.12357 0.0
H189 H 0.52109 0.54947 0.04676 0.0
H190 H 0.405 0.52985 0.04504 0.0
H191 H 0.49844 0.41663 0.08027 0.0
H192 H 0.43007 0.35716 0.05492 0.0
H193 H 0.54816 0.67766 0.09678 0.0
H194 H 0.65417 0.56534 0.05188 0.0
H195 H 0.33547 0.46992 0.01967 0.0
H196 H 0.61169 0.73867 0.08144 0.0
H197 H 0.72011 0.626 0.03771 0.0
C198 C 0.15478 0.18359 0.0013 0.0
C199 C 0.16807 0.16251 0.02667 0.0
C200 C 0.17948 0.22833 -0.00244 0.0
C201 C 0.21782 0.25222 0.01979 0.0
C202 C 0.22792 0.23234 0.04623 0.0
C203 C 0.20311 0.18785 0.04926 0.0
C204 C 0.16717 0.24846 0.96917 0.0
C205 C 0.26771 0.25669 0.07079 0.0
C206 C 0.3489 0.3275 0.00909 0.0
C207 C 0.33239 0.37271 0.02353 0.0
C208 C 0.30952 0.28876 0.00459 0.0
C209 C 0.25238 0.29532 0.01502 0.0
C210 C 0.2338 0.34215 0.02669 0.0
C211 C 0.27413 0.38041 0.03082 0.0
C212 C 0.33102 0.23972 0.9915 0.0
C213 C 0.17309 0.35094 0.03764 0.0
H214 H 0.12774 0.16406 0.98377 0.0
H215 H 0.21279 0.17201 0.06912 0.0
H216 H 0.16124 0.28808 0.97348 0.0
H217 H 0.20467 0.24126 0.95453 0.0
H218 H 0.12792 0.2317 0.95723 0.0
H219 H 0.2678 0.23812 0.09068 0.0
H220 H 0.31277 0.25718 0.06289 0.0
H221 H 0.25446 0.29462 0.07737 0.0
H222 H 0.39372 0.32169 0.00297 0.0
H223 H 0.2611 0.41534 0.04196 0.0
H224 H 0.29847 0.22107 0.97549 0.0
H225 H 0.33782 0.21728 0.00942 0.0
H226 H 0.37271 0.24202 0.98016 0.0
H227 H 0.1408 0.32995 0.02251 0.0
H228 H 0.16165 0.38973 0.03991 0.0
H229 H 0.16991 0.33898 0.05965 0.0
C230 C 0.1268 0.8574 -0.00312 0.0
C231 C 0.16227 0.89583 0.99163 0.0
C232 C 0.14804 0.80996 0.99378 0.0
C233 C 0.20582 0.80072 0.98486 0.0
C234 C 0.2411 0.83922 0.97864 0.0
C235 C 0.21903 0.88621 0.98224 0.0
C236 C 0.10915 0.76994 0.00072 0.0
C237 C 0.30261 0.83091 0.96861 0.0
C238 C 0.28949 0.69044 0.00175 0.0
C239 C 0.28648 0.66068 0.97432 0.0
C240 C 0.26135 0.73529 0.00588 0.0
C241 C 0.22995 0.75098 0.98194 0.0
C242 C 0.2255 0.72053 0.95446 0.0
C243 C 0.25372 0.67587 0.95101 0.0
C244 C 0.26672 0.76655 0.03561 0.0
C245 C 0.19304 0.73601 0.92828 0.0
H246 H 0.08302 0.86456 0.00433 0.0
H247 H 0.24664 0.91566 0.978 0.0
H248 H 0.10528 0.74119 0.98137 0.0
H249 H 0.12859 0.7534 0.01931 0.0
H250 H 0.06497 0.78287 0.0068 0.0
H251 H 0.32376 0.86447 0.96385 0.0
H252 H 0.3289 0.81627 0.98594 0.0
H253 H 0.30308 0.80384 0.94838 0.0
H254 H 0.3143 0.67883 0.01992 0.0
H255 H 0.25196 0.65358 0.92956 0.0
H256 H 0.22317 0.77824 0.04342 0.0
H257 H 0.29205 0.79953 0.03355 0.0
H258 H 0.28858 0.74764 0.05258 0.0
H259 H 0.14857 0.74775 0.93446 0.0
H260 H 0.18987 0.70672 0.90915 0.0
H261 H 0.21552 0.76729 0.92123 0.0
C262 C 0.90868 0.88242 0.02195 0.0
C263 C 0.87887 0.91269 0.00492 0.0
C264 C 0.87932 0.84506 0.03301 0.0
C265 C 0.81874 0.83893 0.02743 0.0
C266 C 0.78824 0.87107 0.01146 0.0
C267 C 0.81881 0.90714 0.00011 0.0
C268 C 0.91343 0.81096 0.04949 0.0
C269 C 0.72346 0.8666 0.00565 0.0
C270 C 0.74088 0.71903 0.02433 0.0
C271 C 0.71317 0.72469 0.05155 0.0
C272 C 0.77808 0.75485 0.01693 0.0
C273 C 0.78697 0.79786 0.03695 0.0
C274 C 0.76057 0.80331 0.06477 0.0
C275 C 0.7245 0.7665 0.07185 0.0
C276 C 0.8061 0.74744 0.98716 0.0
C277 C 0.76842 0.84886 0.08658 0.0
H278 H 0.95525 0.88654 0.02546 0.0
H279 H 0.79567 0.93088 0.98714 0.0
H280 H 0.89361 0.80837 0.07103 0.0
H281 H 0.91219 0.77433 0.03653 0.0
H282 H 0.9595 0.82235 0.05352 0.0
H283 H 0.70578 0.8966 -0.00528 0.0
H284 H 0.71323 0.83213 0.99126 0.0
H285 H 0.70081 0.86608 0.0267 0.0
H286 H 0.73223 0.6872 0.00836 0.0
H287 H 0.70468 0.77079 0.09327 0.0
H288 H 0.85324 0.75563 0.98973 0.0
H289 H 0.7868 0.77252 0.97296 0.0
H290 H 0.80022 0.71002 0.97562 0.0
H291 H 0.8152 0.8575 0.09058 0.0
H292 H 0.74843 0.84605 0.1081 0.0
H293 H 0.74827 0.87949 0.07725 0.0
C294 C 0.88479 0.17362 0.0138 0.0
C295 C 0.90188 0.14724 0.98702 0.0
C296 C 0.84453 0.21151 0.0141 0.0
C297 C 0.8213 0.22338 0.98701 0.0
C298 C 0.84115 0.19861 0.95999 0.0
C299 C 0.88089 0.16092 0.96035 0.0
C300 C 0.82469 0.23715 0.04336 0.0
C301 C 0.81829 0.21031 0.93056 0.0
C302 C 0.66966 0.27304 0.97836 0.0
C303 C 0.68116 0.32088 0.97458 0.0
C304 C 0.71465 0.2418 0.98429 0.0
C305 C 0.77285 0.25861 0.9864 0.0
C306 C 0.78445 0.30762 0.98426 0.0
C307 C 0.73846 0.33819 0.97843 0.0
C308 C 0.70011 0.19 0.98668 0.0
C309 C 0.84575 0.32707 0.98636 0.0
H310 H 0.90071 0.16323 0.0345 0.0
H311 H 0.89439 0.14115 0.93953 0.0
H312 H 0.82577 0.27675 0.04359 0.0
H313 H 0.7791 0.22683 0.04665 0.0
H314 H 0.85187 0.22804 0.06222 0.0
H315 H 0.84136 0.19028 0.91164 0.0
H316 H 0.77143 0.20105 0.92787 0.0
H317 H 0.82262 0.24947 0.92965 0.0
H318 H 0.62539 0.25963 0.97592 0.0
H319 H 0.7478 0.37504 0.97541 0.0
H320 H 0.72146 0.1791 0.00671 0.0
H321 H 0.71675 0.16622 0.96724 0.0
H322 H 0.65261 0.18385 0.98761 0.0
H323 H 0.86971 0.31568 0.00555 0.0
H324 H 0.84694 0.36702 0.98848 0.0
H325 H 0.86902 0.3122 0.96618 0.0
C326 C 0.63216 0.69146 0.51337 0.0
C327 C 0.67251 0.65401 0.51202 0.0
C328 C 0.65042 0.73872 0.51092 0.0
C329 C 0.71015 0.74811 0.50732 0.0
C330 C 0.74901 0.70898 0.50198 0.0
C331 C 0.72968 0.66247 0.50454 0.0
C332 C 0.60697 0.77901 0.51538 0.0
C333 C 0.81279 0.71679 0.49745 0.0
C334 C 0.78772 0.86694 0.50359 0.0
C335 C 0.80934 0.87759 0.5328 0.0
C336 C 0.75042 0.82709 0.49512 0.0
C337 C 0.73511 0.79735 0.51635 0.0
C338 C 0.75297 0.81076 0.54633 0.0
C339 C 0.78955 0.8507 0.55412 0.0
C340 C 0.73076 0.81519 0.46317 0.0
C341 C 0.73746 0.78069 0.56993 0.0
H342 H 0.58781 0.68488 0.51909 0.0
H343 H 0.76068 0.63323 0.50322 0.0
H344 H 0.60704 0.79447 0.53912 0.0
H345 H 0.61808 0.80829 0.50253 0.0
H346 H 0.56239 0.76566 0.50881 0.0
H347 H 0.8353 0.68251 0.48965 0.0
H348 H 0.81896 0.74192 0.48116 0.0
H349 H 0.83382 0.73317 0.51869 0.0
H350 H 0.80237 0.88804 0.48709 0.0
H351 H 0.80495 0.85971 0.57689 0.0
H352 H 0.68691 0.79844 0.46104 0.0
H353 H 0.76139 0.7892 0.4514 0.0
H354 H 0.73015 0.8479 0.45204 0.0
H355 H 0.68998 0.77414 0.56954 0.0
H356 H 0.75107 0.79812 0.59246 0.0
H357 H 0.759 0.74512 0.56558 0.0
C358 C 0.66535 0.36301 0.48728 0.0
C359 C 0.68599 0.39666 0.51101 0.0
C360 C 0.69166 0.31756 0.48076 0.0
C361 C 0.7391 0.30537 0.49864 0.0
C362 C 0.75916 0.33885 0.52295 0.0
C363 C 0.73269 0.38401 0.5287 0.0
C364 C 0.66953 0.28298 0.45444 0.0
C365 C 0.80919 0.32722 0.54276 0.0
C366 C 0.78479 0.17488 0.49862 0.0
C367 C 0.8348 0.17277 0.48178 0.0
C368 C 0.75242 0.21758 0.5039 0.0
C369 C 0.76985 0.25862 0.49144 0.0
C370 C 0.81951 0.25608 0.47375 0.0
C371 C 0.85167 0.21337 0.46939 0.0
C372 C 0.70047 0.21916 0.52337 0.0
C373 C 0.83909 0.29869 0.45967 0.0
H374 H 0.62932 0.37248 0.47353 0.0
H375 H 0.74868 0.40947 0.54729 0.0
H376 H 0.70438 0.27562 0.43817 0.0
H377 H 0.65751 0.24808 0.46141 0.0
H378 H 0.63119 0.29723 0.4433 0.0
H379 H 0.81756 0.35623 0.56167 0.0
H380 H 0.80025 0.29317 0.55158 0.0
H381 H 0.84925 0.32175 0.52984 0.0
H382 H 0.77166 0.14338 0.50808 0.0
H383 H 0.88971 0.21141 0.45586 0.0
H384 H 0.66148 0.23084 0.51158 0.0
H385 H 0.70817 0.24602 0.54343 0.0
H386 H 0.69121 0.18365 0.53037 0.0
H387 H 0.80266 0.31195 0.44671 0.0
H388 H 0.87605 0.28973 0.44482 0.0
H389 H 0.85259 0.32866 0.4771 0.0
C390 C 0.40085 0.38843 0.53063 0.0
C391 C 0.39486 0.39575 0.50099 0.0
C392 C 0.36582 0.35438 0.54183 0.0
C393 C 0.32384 0.32749 0.52296 0.0
C394 C 0.31886 0.33393 0.4929 0.0
C395 C 0.35431 0.36779 0.48235 0.0
C396 C 0.37268 0.34818 0.57397 0.0
C397 C 0.27507 0.30577 0.47192 0.0
C398 C 0.25347 0.21217 0.5395 0.0
C399 C 0.19822 0.22839 0.54833 0.0
C400 C 0.29592 0.24438 0.5325 0.0
C401 C 0.28287 0.29401 0.53442 0.0
C402 C 0.22778 0.31079 0.54408 0.0
C403 C 0.18608 0.2778 0.55077 0.0
C404 C 0.3542 0.22514 0.5223 0.0
C405 C 0.21216 0.36344 0.5464 0.0
H406 H 0.43213 0.40973 0.54515 0.0
H407 H 0.34955 0.37264 0.45931 0.0
H408 H 0.33539 0.36511 0.58623 0.0
H409 H 0.37267 0.30946 0.57657 0.0
H410 H 0.41339 0.36509 0.58419 0.0
H411 H 0.27836 0.31369 0.4489 0.0
H412 H 0.28127 0.26654 0.47182 0.0
H413 H 0.23048 0.3145 0.47943 0.0
H414 H 0.26369 0.17424 0.53819 0.0
H415 H 0.14342 0.29065 0.55736 0.0
H416 H 0.38967 0.24589 0.53528 0.0
H417 H 0.35941 0.22959 0.49878 0.0
H418 H 0.3593 0.18639 0.5244 0.0
H419 H 0.24582 0.38591 0.55972 0.0
H420 H 0.16943 0.37125 0.55662 0.0
H421 H 0.21061 0.37444 0.52402 0.0
C422 C 0.42649 0.67734 0.50383 0.0
C423 C 0.40837 0.63241 0.48881 0.0
C424 C 0.39276 0.71886 0.50239 0.0
C425 C 0.33923 0.71494 0.4861 0.0
C426 C 0.31995 0.66921 0.47192 0.0
C427 C 0.355 0.62876 0.47317 0.0
C428 C 0.41547 0.76705 0.51727 0.0
C429 C 0.26272 0.66306 0.45481 0.0
C430 C 0.22027 0.8094 0.49478 0.0
C431 C 0.22449 0.82877 0.46832 0.0
C432 C 0.25943 0.77402 0.50181 0.0
C433 C 0.30431 0.75844 0.48213 0.0
C434 C 0.31088 0.78046 0.4564 0.0
C435 C 0.27047 0.81491 0.44963 0.0
C436 C 0.25044 0.75112 0.52926 0.0
C437 C 0.35869 0.76571 0.43511 0.0
H438 H 0.46793 0.68032 0.51579 0.0
H439 H 0.34051 0.59399 0.46179 0.0
H440 H 0.42785 0.78923 0.50017 0.0
H441 H 0.38134 0.78692 0.53056 0.0
H442 H 0.45407 0.76335 0.53187 0.0
H443 H 0.25212 0.62461 0.44693 0.0
H444 H 0.22709 0.67893 0.4688 0.0
H445 H 0.26417 0.68245 0.43533 0.0
H446 H 0.18452 0.82004 0.50916 0.0
H447 H 0.27394 0.83025 0.42929 0.0
H448 H 0.292 0.7495 0.5419 0.0
H449 H 0.23478 0.71353 0.52281 0.0
H450 H 0.21822 0.77094 0.54395 0.0
H451 H 0.40095 0.76471 0.44723 0.0
H452 H 0.36256 0.79054 0.41838 0.0
H453 H 0.34975 0.72888 0.42335 0.0
C454 C 0.97974 0.0257 0.11784 0.0
C455 C 0.03147 0.00615 0.10605 0.0
C456 C 0.96558 0.02206 0.1472 0.0
C457 C 0.0038 -0.00205 0.16493 0.0
C458 C 0.05452 0.97615 0.15259 0.0
C459 C 0.06778 0.98067 0.12341 0.0
C460 C 0.9111 0.04574 0.15964 0.0
C461 C 0.09617 0.94963 0.17056 0.0
C462 C 0.01711 0.03236 0.24811 0.0
C463 C 0.98888 -0.00623 0.25829 0.0
C464 C 0.01973 0.03527 0.21781 0.0
C465 C -0.00609 -0.0015 0.19703 0.0
C466 C 0.9639 0.96015 0.20709 0.0
C467 C 0.96171 0.95824 0.23761 0.0
C468 C 0.05233 0.07674 0.20802 0.0
C469 C 0.93587 0.92026 0.18561 0.0
H470 H 0.95145 0.04532 0.10451 0.0
H471 H 0.10743 0.96481 0.11435 0.0
H472 H 0.88565 0.02018 0.17066 0.0
H473 H 0.92293 0.07683 0.17664 0.0
H474 H 0.88316 0.05884 0.14229 0.0
H475 H 0.13139 0.93173 0.15703 0.0
H476 H 0.11621 0.97529 0.18881 0.0
H477 H 0.07265 0.92194 0.18074 0.0
H478 H 0.03894 0.05964 0.26382 0.0
H479 H 0.93903 0.9287 0.24527 0.0
H480 H 0.02521 0.0941 0.19216 0.0
H481 H 0.09192 0.06307 0.19643 0.0
H482 H 0.06552 0.10448 0.22691 0.0
H483 H 0.90754 0.93552 0.1693 0.0
H484 H 0.90962 0.89554 0.19693 0.0
H485 H 0.96991 0.89895 0.17305 0.0
C486 C 0.07602 0.05965 0.89875 0.0
C487 C 0.07905 0.01303 0.9063 0.0
C488 C 0.08199 0.06744 0.86932 0.0
C489 C 0.09263 0.02776 0.84726 0.0
C490 C 0.10196 0.98153 0.85547 0.0
C491 C 0.09419 0.97458 0.88487 0.0
C492 C 0.07102 0.11718 0.86148 0.0
C493 C 0.11521 0.93856 0.83281 0.0
C494 C 0.02227 0.02596 0.77117 0.0
C495 C 0.06858 0.03901 0.75485 0.0
C496 C 0.02945 0.02331 0.80142 0.0
C497 C 0.08475 0.0328 0.81545 0.0
C498 C 0.13185 0.04579 0.79893 0.0
C499 C 0.12297 0.04933 0.76876 0.0
C500 C 0.9778 0.01019 0.81833 0.0
C501 C 0.19161 0.05504 0.81295 0.0
H502 H 0.06387 0.08937 0.91528 0.0
H503 H 0.09688 0.93855 0.89079 0.0
H504 H 0.10311 0.12653 0.84558 0.0
H505 H 0.02736 0.11793 0.85069 0.0
H506 H 0.07267 0.14518 0.88134 0.0
H507 H 0.1313 0.90758 0.84332 0.0
H508 H 0.0752 0.92704 0.8196 0.0
H509 H 0.14811 0.94802 0.81732 0.0
H510 H 0.98022 0.01832 0.76023 0.0
H511 H 0.15868 0.05929 0.75589 0.0
H512 H 0.97115 0.03811 0.83773 0.0
H513 H 0.98589 0.9756 0.8268 0.0
H514 H 0.93722 0.00648 0.80447 0.0
H515 H 0.18992 0.08387 0.83224 0.0
H516 H 0.22331 0.06573 0.79719 0.0
H517 H 0.20757 0.02205 0.82129 0.0
C518 C 0.47412 0.4912 0.61365 0.0
C519 C 0.51934 0.52464 0.61321 0.0
C520 C 0.45397 0.47978 0.64067 0.0
C521 C 0.48007 0.50204 0.66768 0.0
C522 C 0.52341 0.53771 0.66726 0.0
C523 C 0.54228 0.54859 0.64014 0.0
C524 C 0.40694 0.44216 0.64001 0.0
C525 C 0.5519 0.56299 0.69548 0.0
C526 C 0.41952 0.50471 0.74413 0.0
C527 C 0.45619 0.47214 0.75618 0.0
C528 C 0.4237 0.51229 0.71455 0.0
C529 C 0.46556 0.48673 0.69654 0.0
C530 C 0.49966 0.45123 0.70791 0.0
C531 C 0.49468 0.44443 0.7376 0.0
C532 C 0.38563 0.54962 0.70308 0.0
C533 C 0.54408 0.42259 0.68925 0.0
H534 H 0.45611 0.47248 0.59298 0.0
H535 H 0.57668 0.575 0.64008 0.0
H536 H 0.42732 0.40637 0.6401 0.0
H537 H 0.37914 0.44918 0.65956 0.0
H538 H 0.379 0.44056 0.6197 0.0
H539 H 0.58269 0.59166 0.69138 0.0
H540 H 0.51852 0.57944 0.71074 0.0
H541 H 0.57601 0.53644 0.70688 0.0
H542 H 0.38857 0.52538 0.75812 0.0
H543 H 0.5232 0.4192 0.74665 0.0
H544 H 0.36592 0.53502 0.68118 0.0
H545 H 0.41239 0.58138 0.70003 0.0
H546 H 0.35042 0.56186 0.71844 0.0
H547 H 0.5243 0.40706 0.66755 0.0
H548 H 0.56258 0.3929 0.70018 0.0
H549 H 0.58004 0.44678 0.68491 0.0
C550 C 0.61158 0.4732 0.38696 0.0
C551 C 0.59279 0.50992 0.40862 0.0
C552 C 0.61653 0.481 0.3575 0.0
C553 C 0.60055 0.52617 0.34943 0.0
C554 C 0.5856 0.56442 0.37165 0.0
C555 C 0.58264 0.55597 0.40113 0.0
C556 C 0.63449 0.43972 0.33468 0.0
C557 C 0.56736 0.61288 0.36398 0.0
C558 C 0.62707 0.55185 0.27131 0.0
C559 C 0.57437 0.53666 0.2569 0.0
C560 C 0.63654 0.54867 0.30148 0.0
C561 C 0.59162 0.53107 0.31762 0.0
C562 C 0.53783 0.51676 0.30316 0.0
C563 C 0.53018 0.51912 0.27286 0.0
C564 C 0.69485 0.56312 0.31593 0.0
C565 C 0.48833 0.49875 0.31966 0.0
H566 H 0.61958 0.4376 0.3928 0.0
H567 H 0.56748 0.58429 0.4178 0.0
H568 H 0.59582 0.42513 0.32133 0.0
H569 H 0.6657 0.45223 0.31934 0.0
H570 H 0.6546 0.41004 0.34503 0.0
H571 H 0.56516 0.64055 0.38391 0.0
H572 H 0.59771 0.62563 0.34834 0.0
H573 H 0.52378 0.60947 0.35289 0.0
H574 H 0.66126 0.5652 0.25877 0.0
H575 H 0.48933 0.50776 0.26164 0.0
H576 H 0.71525 0.5316 0.32416 0.0
H577 H 0.68947 0.59124 0.33533 0.0
H578 H 0.72479 0.57704 0.30046 0.0
H579 H 0.50097 0.46489 0.32799 0.0
H580 H 0.44832 0.4917 0.30555 0.0
H581 H 0.47827 0.52556 0.33914 0.0
loop_
_geom_bond_atom_site_label_1
_geom_bond_atom_site_label_2
_geom_bond_distance
_geom_bond_site_symmetry_2
_ccdc_geom_bond_type
O0 Mg1 1.990 . S
O0 C14 1.253 . S
Mg1 O0 1.990 . S
Mg1 O4 2.180 . S
Mg1 O5 2.117 . S
Mg1 O19 2.030 1_545 S
O2 Mg3 2.072 . S
O2 C14 1.260 . S
Mg3 O2 2.072 . S
Mg3 O4 2.099 . S
Mg3 O6 2.079 1_554 S
Mg3 O7 2.072 . S
Mg3 O9 2.099 1_444 S
Mg3 O20 2.079 1_545 S
O4 Mg1 2.180 . S
O4 Mg3 2.099 . S
O4 C15 1.279 . S
O5 Mg1 2.117 . S
O5 C15 1.250 . S
O6 Mg3 2.079 1_556 S
O6 C16 1.264 . S
O7 Mg3 2.072 . S
O7 C17 1.260 1_455 S
Mg8 O9 2.180 1_545 S
Mg8 O10 2.030 . S
Mg8 O11 1.990 . S
Mg8 O12 2.090 1_546 S
O9 Mg3 2.099 1_666 S
O9 Mg8 2.180 1_565 S
O9 C18 1.279 1_556 S
O10 Mg8 2.030 . S
O10 C16 1.248 1_655 S
O11 Mg8 1.990 . S
O11 C17 1.253 1_556 S
O12 Mg8 2.090 1_564 S
O12 C18 1.261 . S
C13 O19 1.248 . S
C13 O20 1.264 . S
C14 O0 1.253 . S
C14 O2 1.260 . S
C15 O4 1.279 . S
C15 O5 1.250 . S
C16 O6 1.264 . S
C16 O10 1.248 1_455 S
C17 O7 1.260 1_655 S
C17 O11 1.253 1_554 S
C18 O9 1.279 1_554 S
C18 O12 1.261 . S
O19 Mg1 2.030 1_565 S
O19 C13 1.248 . S
O20 Mg3 2.079 1_565 S
O20 C13 1.264 . S
O21 Mg22 1.990 . S
O21 C35 1.253 . S
Mg22 O21 1.990 . S
Mg22 O25 2.180 . S
Mg22 O26 2.117 . S
Mg22 O40 2.030 . S
O23 Mg24 2.072 . S
O23 C35 1.260 . S
Mg24 O23 2.072 . S
Mg24 O25 2.099 . S
Mg24 O27 2.079 . S
Mg24 O28 2.072 . S
Mg24 O30 2.099 . S
Mg24 O41 2.079 . S
O25 Mg22 2.180 . S
O25 Mg24 2.099 . S
O25 C36 1.279 . S
O26 Mg22 2.117 . S
O26 C36 1.250 . S
O27 Mg24 2.079 . S
O27 C37 1.264 . S
O28 Mg24 2.072 . S
O28 C38 1.260 . S
Mg29 O30 2.180 . S
Mg29 O31 2.030 . S
Mg29 O32 1.990 . S
Mg29 O33 2.117 . S
O30 Mg24 2.099 . S
O30 Mg29 2.180 . S
O30 C39 1.279 . S
O31 Mg29 2.030 . S
O31 C37 1.248 . S
O32 Mg29 1.990 . S
O32 C38 1.253 . S
O33 Mg29 2.117 . S
O33 C39 1.250 . S
C34 O40 1.248 . S
C34 O41 1.264 . S
C35 O21 1.253 . S
C35 O23 1.260 . S
C36 O25 1.279 . S
C36 O26 1.250 . S
C37 O27 1.264 . S
C37 O31 1.248 . S
C38 O28 1.260 . S
C38 O32 1.253 . S
C39 O30 1.279 . S
C39 O33 1.250 . S
O40 Mg22 2.030 . S
O40 C34 1.248 . S
O41 Mg24 2.079 . S
O41 C34 1.264 . S
C42 C43 1.386 . S
C42 C44 1.397 . S
C42 H66 0.931 . S
C43 C42 1.386 . S
C43 C47 1.397 1_565 S
C44 C42 1.397 . S
C44 C45 1.384 . S
C44 H67 0.930 . S
C45 C44 1.384 . S
C45 C46 1.377 1_565 S
C45 C48 1.481 . S
C46 C45 1.377 1_545 S
C46 C47 1.389 . S
C46 H68 0.929 . S
C47 C43 1.397 1_545 S
C47 C46 1.389 . S
C47 H69 0.931 . S
C48 C45 1.481 . S
C48 C49 1.387 . S
C48 C53 1.390 1_565 S
C49 C48 1.387 . S
C49 C50 1.401 . S
C49 H70 0.930 . S
C50 C49 1.401 . S
C50 C51 1.376 1_565 S
C50 C59 1.511 . S
C51 C50 1.376 1_545 S
C51 C52 1.392 . S
C51 H72 0.931 . S
C52 C51 1.392 . S
C52 C53 1.361 . S
C52 C54 1.500 1_455 S
C53 C48 1.390 1_545 S
C53 C52 1.361 . S
C53 H71 0.931 1_455 S
C54 C52 1.500 1_655 S
C54 C55 1.371 . S
C54 C56 1.365 . S
C55 C54 1.371 . S
C55 C65 1.386 . S
C55 H73 0.931 . S
C56 C54 1.365 . S
C56 C57 1.409 . S
C56 H74 0.929 . S
C57 C56 1.409 . S
C57 C58 1.380 . S
C57 H75 0.930 . S
C58 C57 1.380 . S
C58 C65 1.357 . S
C59 C50 1.511 . S
C59 C60 1.341 . S
C59 C61 1.371 . S
C60 C59 1.341 . S
C60 C64 1.394 . S
C60 H76 0.930 . S
C61 C59 1.371 . S
C61 C62 1.392 . S
C61 H77 0.931 . S
C62 C61 1.392 . S
C62 C63 1.331 . S
C62 H80 0.932 . S
C63 C62 1.331 . S
C63 C64 1.336 . S
C64 C60 1.394 . S
C64 C63 1.336 . S
C64 H79 0.929 . S
C65 C55 1.386 . S
C65 C58 1.357 . S
C65 H78 0.928 . S
H66 C42 0.931 . S
H67 C44 0.930 . S
H68 C46 0.929 . S
H69 C47 0.931 . S
H70 C49 0.930 . S
H71 C53 0.931 1_655 S
H72 C51 0.931 . S
H73 C55 0.931 . S
H74 C56 0.929 . S
H75 C57 0.930 . S
H76 C60 0.930 . S
H77 C61 0.931 . S
H78 C65 0.928 . S
H79 C64 0.929 . S
H80 C62 0.932 . S
C81 C82 1.386 . S
C81 C83 1.397 . S
C81 H105 0.931 . S
C82 C81 1.386 . S
C82 C86 1.397 . S
C83 C81 1.397 . S
C83 C84 1.384 . S
C83 H106 0.930 . S
C84 C83 1.384 . S
C84 C85 1.377 . S
C84 C87 1.481 . S
C85 C84 1.377 . S
C85 C86 1.389 . S
C85 H107 0.929 . S
C86 C82 1.397 . S
C86 C85 1.389 . S
C86 H108 0.931 . S
C87 C84 1.481 . S
C87 C88 1.387 . S
C87 C92 1.390 1_455 S
C88 C87 1.387 . S
C88 C89 1.401 . S
C88 H109 0.930 . S
C89 C88 1.401 . S
C89 C90 1.376 1_455 S
C89 C98 1.511 . S
C90 C89 1.376 1_655 S
C90 C91 1.392 . S
C90 H111 0.931 . S
C91 C90 1.392 . S
C91 C92 1.361 . S
C91 C93 1.500 . S
C92 C87 1.390 1_655 S
C92 C91 1.361 . S
C92 H110 0.931 . S
C93 C91 1.500 . S
C93 C94 1.371 . S
C93 C95 1.365 1_545 S
C94 C93 1.371 . S
C94 C104 1.386 1_545 S
C94 H112 0.931 . S
C95 C93 1.365 1_565 S
C95 C96 1.409 . S
C95 H113 0.929 . S
C96 C95 1.409 . S
C96 C97 1.380 . S
C96 H114 0.930 . S
C97 C96 1.380 . S
C97 C104 1.357 . S
C98 C89 1.511 . S
C98 C99 1.341 . S
C98 C100 1.371 . S
C99 C98 1.341 . S
C99 C103 1.394 . S
C99 H115 0.930 . S
C100 C98 1.371 . S
C100 C101 1.392 . S
C100 H116 0.931 . S
C101 C100 1.392 . S
C101 C102 1.331 . S
C101 H119 0.932 . S
C102 C101 1.331 . S
C102 C103 1.336 . S
C103 C99 1.394 . S
C103 C102 1.336 . S
C103 H118 0.929 . S
C104 C94 1.386 1_565 S
C104 C97 1.357 . S
C104 H117 0.928 . S
H105 C81 0.931 . S
H106 C83 0.930 . S
H107 C85 0.929 . S
H108 C86 0.931 . S
H109 C88 0.930 . S
H110 C92 0.931 . S
H111 C90 0.931 . S
H112 C94 0.931 . S
H113 C95 0.929 . S
H114 C96 0.930 . S
H115 C99 0.930 . S
H116 C100 0.931 . S
H117 C104 0.928 . S
H118 C103 0.929 . S
H119 C101 0.932 . S
C120 C121 1.386 . S
C120 C122 1.397 . S
C120 H144 0.931 . S
C121 C120 1.386 . S
C121 C125 1.397 . S
C122 C120 1.397 . S
C122 C123 1.384 . S
C122 H145 0.930 . S
C123 C122 1.384 . S
C123 C124 1.377 . S
C123 C126 1.481 . S
C124 C123 1.377 . S
C124 C125 1.389 . S
C124 H146 0.929 . S
C125 C121 1.397 . S
C125 C124 1.389 . S
C125 H147 0.931 . S
C126 C123 1.481 . S
C126 C127 1.387 . S
C126 C131 1.390 . S
C127 C126 1.387 . S
C127 C128 1.401 . S
C127 H148 0.930 . S
C128 C127 1.401 . S
C128 C129 1.376 . S
C128 C137 1.511 . S
C129 C128 1.376 . S
C129 C130 1.392 . S
C129 H150 0.931 . S
C130 C129 1.392 . S
C130 C131 1.361 . S
C130 C132 1.500 . S
C131 C126 1.390 . S
C131 C130 1.361 . S
C131 H149 0.931 . S
C132 C130 1.500 . S
C132 C133 1.371 . S
C132 C134 1.365 . S
C133 C132 1.371 . S
C133 C143 1.386 . S
C133 H151 0.931 . S
C134 C132 1.365 . S
C134 C135 1.409 . S
C134 H152 0.929 . S
C135 C134 1.409 . S
C135 C136 1.380 . S
C135 H153 0.930 . S
C136 C135 1.380 . S
C136 C143 1.357 . S
C137 C128 1.511 . S
C137 C138 1.341 . S
C137 C139 1.371 . S
C138 C137 1.341 . S
C138 C142 1.394 . S
C138 H154 0.930 . S
C139 C137 1.371 . S
C139 C140 1.392 . S
C139 H155 0.931 . S
C140 C139 1.392 . S
C140 C141 1.331 . S
C140 H158 0.932 1_556 S
C141 C140 1.331 . S
C141 C142 1.336 . S
C142 C138 1.394 . S
C142 C141 1.336 . S
C142 H157 0.929 . S
C143 C133 1.386 . S
C143 C136 1.357 . S
C143 H156 0.928 1_556 S
H144 C120 0.931 . S
H145 C122 0.930 . S
H146 C124 0.929 . S
H147 C125 0.931 . S
H148 C127 0.930 . S
H149 C131 0.931 . S
H150 C129 0.931 . S
H151 C133 0.931 . S
H152 C134 0.929 . S
H153 C135 0.930 . S
H154 C138 0.930 . S
H155 C139 0.931 . S
H156 C143 0.928 1_554 S
H157 C142 0.929 . S
H158 C140 0.932 1_554 S
C159 C160 1.386 . S
C159 C161 1.397 . S
C159 H183 0.931 . S
C160 C159 1.386 . S
C160 C164 1.397 . S
C161 C159 1.397 . S
C161 C162 1.384 . S
C161 H184 0.930 . S
C162 C161 1.384 . S
C162 C163 1.377 . S
C162 C165 1.481 . S
C163 C162 1.377 . S
C163 C164 1.389 . S
C163 H185 0.929 . S
C164 C160 1.397 . S
C164 C163 1.389 . S
C164 H186 0.931 . S
C165 C162 1.481 . S
C165 C166 1.387 . S
C165 C170 1.390 . S
C166 C165 1.387 . S
C166 C167 1.401 . S
C166 H187 0.930 . S
C167 C166 1.401 . S
C167 C168 1.376 . S
C167 C176 1.511 . S
C168 C167 1.376 . S
C168 C169 1.392 . S
C168 H189 0.931 . S
C169 C168 1.392 . S
C169 C170 1.361 . S
C169 C171 1.500 . S
C170 C165 1.390 . S
C170 C169 1.361 . S
C170 H188 0.931 . S
C171 C169 1.500 . S
C171 C172 1.371 . S
C171 C173 1.365 . S
C172 C171 1.371 . S
C172 C182 1.386 . S
C172 H190 0.931 . S
C173 C171 1.365 . S
C173 C174 1.409 . S
C173 H191 0.929 . S
C174 C173 1.409 . S
C174 C175 1.380 . S
C174 H192 0.930 . S
C175 C174 1.380 . S
C175 C182 1.357 . S
C176 C167 1.511 . S
C176 C177 1.341 . S
C176 C178 1.371 . S
C177 C176 1.341 . S
C177 C181 1.394 . S
C177 H193 0.930 . S
C178 C176 1.371 . S
C178 C179 1.392 . S
C178 H194 0.931 . S
C179 C178 1.392 . S
C179 C180 1.331 . S
C179 H197 0.932 . S
C180 C179 1.331 . S
C180 C181 1.336 . S
C181 C177 1.394 . S
C181 C180 1.336 . S
C181 H196 0.929 . S
C182 C172 1.386 . S
C182 C175 1.357 . S
C182 H195 0.928 . S
H183 C159 0.931 . S
H184 C161 0.930 . S
H185 C163 0.929 . S
H186 C164 0.931 . S
H187 C166 0.930 . S
H188 C170 0.931 . S
H189 C168 0.931 . S
H190 C172 0.931 . S
H191 C173 0.929 . S
H192 C174 0.930 . S
H193 C177 0.930 . S
H194 C178 0.931 . S
H195 C182 0.928 . S
H196 C181 0.929 . S
H197 C179 0.932 . S
C198 C199 1.391 1_556 S
C198 C200 1.394 . S
C198 H214 0.931 . S
C199 C198 1.391 1_554 S
C199 C203 1.376 . S
C200 C198 1.394 . S
C200 C201 1.344 1_556 S
C200 C204 1.556 . S
C201 C200 1.344 1_554 S
C201 C202 1.410 . S
C201 C209 1.503 . S
C202 C201 1.410 . S
C202 C203 1.392 . S
C202 C205 1.511 . S
C203 C199 1.376 . S
C203 C202 1.392 . S
C203 H215 0.929 . S
C204 C200 1.556 . S
C204 H216 0.960 . S
C204 H217 0.962 . S
C204 H218 0.960 . S
C205 C202 1.511 . S
C205 H219 0.961 . S
C205 H220 0.961 . S
C205 H221 0.961 . S
C206 C207 1.370 . S
C206 C208 1.363 . S
C206 H222 0.931 . S
C207 C206 1.370 . S
C207 C211 1.408 . S
C208 C206 1.363 . S
C208 C209 1.370 . S
C208 C212 1.524 1_554 S
C209 C201 1.503 . S
C209 C208 1.370 . S
C209 C210 1.403 . S
C210 C209 1.403 . S
C210 C211 1.404 . S
C210 C213 1.539 . S
C211 C207 1.408 . S
C211 C210 1.404 . S
C211 H223 0.930 . S
C212 C208 1.524 1_556 S
C212 H224 0.956 . S
C212 H225 0.961 1_556 S
C212 H226 0.961 . S
C213 C210 1.539 . S
C213 H227 0.958 . S
C213 H228 0.961 . S
C213 H229 0.960 . S
H214 C198 0.931 . S
H215 C203 0.929 . S
H216 C204 0.960 . S
H217 C204 0.962 . S
H218 C204 0.960 . S
H219 C205 0.961 . S
H220 C205 0.961 . S
H221 C205 0.961 . S
H222 C206 0.931 . S
H223 C211 0.930 . S
H224 C212 0.956 . S
H225 C212 0.961 1_554 S
H226 C212 0.961 . S
H227 C213 0.958 . S
H228 C213 0.961 . S
H229 C213 0.960 . S
C230 C231 1.391 . S
C230 C232 1.394 . S
C230 H246 0.931 . S
C231 C230 1.391 . S
C231 C235 1.376 1_554 S
C232 C230 1.394 . S
C232 C233 1.369 . S
C232 C236 1.531 . S
C233 C232 1.369 . S
C233 C234 1.410 1_554 S
C233 C241 1.503 . S
C234 C233 1.410 1_556 S
C234 C235 1.392 . S
C234 C237 1.511 . S
C235 C231 1.376 1_556 S
C235 C234 1.392 . S
C235 H247 0.929 . S
C236 C232 1.531 . S
C236 H248 0.960 . S
C236 H249 0.962 . S
C236 H250 0.960 . S
C237 C234 1.511 . S
C237 H251 0.961 . S
C237 H252 0.961 . S
C237 H253 0.961 . S
C238 C239 1.370 . S
C238 C240 1.363 . S
C238 H254 0.931 . S
C239 C238 1.370 . S
C239 C243 1.408 1_556 S
C240 C238 1.363 . S
C240 C241 1.370 1_556 S
C240 C244 1.524 . S
C241 C233 1.503 . S
C241 C240 1.370 1_554 S
C241 C242 1.403 . S
C242 C241 1.403 . S
C242 C243 1.404 . S
C242 C245 1.539 . S
C243 C239 1.408 1_554 S
C243 C242 1.404 . S
C243 H255 0.930 . S
C244 C240 1.524 . S
C244 H256 0.956 . S
C244 H257 0.961 . S
C244 H258 0.961 . S
C245 C242 1.539 . S
C245 H259 0.958 . S
C245 H260 0.961 . S
C245 H261 0.960 . S
H246 C230 0.931 . S
H247 C235 0.929 . S
H248 C236 0.960 . S
H249 C236 0.962 . S
H250 C236 0.960 . S
H251 C237 0.961 . S
H252 C237 0.961 . S
H253 C237 0.961 . S
H254 C238 0.931 . S
H255 C243 0.930 . S
H256 C244 0.956 . S
H257 C244 0.961 . S
H258 C244 0.961 . S
H259 C245 0.958 . S
H260 C245 0.961 . S
H261 C245 0.960 . S
C262 C263 1.391 . S
C262 C264 1.394 . S
C262 H278 0.931 . S
C263 C262 1.391 . S
C263 C267 1.376 . S
C264 C262 1.394 . S
C264 C265 1.369 . S
C264 C268 1.531 . S
C265 C264 1.369 . S
C265 C266 1.410 . S
C265 C273 1.503 . S
C266 C265 1.410 . S
C266 C267 1.392 . S
C266 C269 1.511 . S
C267 C263 1.376 . S
C267 C266 1.392 . S
C267 H279 0.929 . S
C268 C264 1.531 . S
C268 H280 0.960 . S
C268 H281 0.962 . S
C268 H282 0.960 . S
C269 C266 1.511 . S
C269 H283 0.961 . S
C269 H284 0.961 . S
C269 H285 0.961 . S
C270 C271 1.370 . S
C270 C272 1.363 . S
C270 H286 0.931 1_554 S
C271 C270 1.370 . S
C271 C275 1.408 . S
C272 C270 1.363 . S
C272 C273 1.370 . S
C272 C276 1.524 1_554 S
C273 C265 1.503 . S
C273 C272 1.370 . S
C273 C274 1.403 . S
C274 C273 1.403 . S
C274 C275 1.404 . S
C274 C277 1.539 . S
C275 C271 1.408 . S
C275 C274 1.404 . S
C275 H287 0.930 . S
C276 C272 1.524 1_556 S
C276 H288 0.956 . S
C276 H289 0.961 . S
C276 H290 0.961 . S
C277 C274 1.539 . S
C277 H291 0.958 . S
C277 H292 0.961 . S
C277 H293 0.960 . S
H278 C262 0.931 . S
H279 C267 0.929 . S
H280 C268 0.960 . S
H281 C268 0.962 . S
H282 C268 0.960 . S
H283 C269 0.961 . S
H284 C269 0.961 . S
H285 C269 0.961 . S
H286 C270 0.931 1_556 S
H287 C275 0.930 . S
H288 C276 0.956 . S
H289 C276 0.961 . S
H290 C276 0.961 . S
H291 C277 0.958 . S
H292 C277 0.961 . S
H293 C277 0.960 . S
C294 C295 1.391 . S
C294 C296 1.394 . S
C294 H310 0.931 . S
C295 C294 1.391 . S
C295 C299 1.376 1_554 S
C296 C294 1.394 . S
C296 C297 1.369 1_554 S
C296 C300 1.531 . S
C297 C296 1.369 1_556 S
C297 C298 1.410 . S
C297 C305 1.503 . S
C298 C297 1.410 . S
C298 C299 1.392 . S
C298 C301 1.511 . S
C299 C295 1.376 1_556 S
C299 C298 1.392 . S
C299 H311 0.929 . S
C300 C296 1.531 . S
C300 H312 0.960 . S
C300 H313 0.962 . S
C300 H314 0.960 . S
C301 C298 1.511 . S
C301 H315 0.961 . S
C301 H316 0.961 . S
C301 H317 0.961 . S
C302 C303 1.370 . S
C302 C304 1.363 . S
C302 H318 0.931 . S
C303 C302 1.370 . S
C303 C307 1.408 . S
C304 C302 1.363 . S
C304 C305 1.370 . S
C304 C308 1.530 . S
C305 C297 1.503 . S
C305 C304 1.370 . S
C305 C306 1.403 . S
C306 C305 1.403 . S
C306 C307 1.404 . S
C306 C309 1.539 . S
C307 C303 1.408 . S
C307 C306 1.404 . S
C307 H319 0.930 . S
C308 C304 1.530 . S
C308 H320 0.933 1_556 S
C308 H321 0.976 . S
C308 H322 0.963 . S
C309 C306 1.539 . S
C309 H323 0.958 1_556 S
C309 H324 0.961 . S
C309 H325 0.960 . S
H310 C294 0.931 . S
H311 C299 0.929 . S
H312 C300 0.960 . S
H313 C300 0.962 . S
H314 C300 0.960 . S
H315 C301 0.961 . S
H316 C301 0.961 . S
H317 C301 0.961 . S
H318 C302 0.931 . S
H319 C307 0.930 . S
H320 C308 0.933 1_554 S
H321 C308 0.976 . S
H322 C308 0.963 . S
H323 C309 0.958 1_554 S
H324 C309 0.961 . S
H325 C309 0.960 . S
C326 C327 1.391 . S
C326 C328 1.394 . S
C326 H342 0.931 . S
C327 C326 1.391 . S
C327 C331 1.376 . S
C328 C326 1.394 . S
C328 C329 1.369 . S
C328 C332 1.531 . S
C329 C328 1.369 . S
C329 C330 1.410 . S
C329 C337 1.503 . S
C330 C329 1.410 . S
C330 C331 1.392 . S
C330 C333 1.511 . S
C331 C327 1.376 . S
C331 C330 1.392 . S
C331 H343 0.929 . S
C332 C328 1.531 . S
C332 H344 0.960 . S
C332 H345 0.962 . S
C332 H346 0.960 . S
C333 C330 1.511 . S
C333 H347 0.961 . S
C333 H348 0.961 . S
C333 H349 0.961 . S
C334 C335 1.370 . S
C334 C336 1.363 . S
C334 H350 0.931 . S
C335 C334 1.370 . S
C335 C339 1.408 . S
C336 C334 1.363 . S
C336 C337 1.370 . S
C336 C340 1.524 . S
C337 C329 1.503 . S
C337 C336 1.370 . S
C337 C338 1.403 . S
C338 C337 1.403 . S
C338 C339 1.404 . S
C338 C341 1.539 . S
C339 C335 1.408 . S
C339 C338 1.404 . S
C339 H351 0.930 . S
C340 C336 1.524 . S
C340 H352 0.956 . S
C340 H353 0.961 . S
C340 H354 0.961 . S
C341 C338 1.539 . S
C341 H355 0.958 . S
C341 H356 0.961 . S
C341 H357 0.960 . S
H342 C326 0.931 . S
H343 C331 0.929 . S
H344 C332 0.960 . S
H345 C332 0.962 . S
H346 C332 0.960 . S
H347 C333 0.961 . S
H348 C333 0.961 . S
H349 C333 0.961 . S
H350 C334 0.931 . S
H351 C339 0.930 . S
H352 C340 0.956 . S
H353 C340 0.961 . S
H354 C340 0.961 . S
H355 C341 0.958 . S
H356 C341 0.961 . S
H357 C341 0.960 . S
C358 C359 1.391 . S
C358 C360 1.394 . S
C358 H374 0.931 . S
C359 C358 1.391 . S
C359 C363 1.376 . S
C360 C358 1.394 . S
C360 C361 1.369 . S
C360 C364 1.531 . S
C361 C360 1.369 . S
C361 C362 1.410 . S
C361 C369 1.503 . S
C362 C361 1.410 . S
C362 C363 1.392 . S
C362 C365 1.511 . S
C363 C359 1.376 . S
C363 C362 1.392 . S
C363 H375 0.929 . S
C364 C360 1.531 . S
C364 H376 0.960 . S
C364 H377 0.962 . S
C364 H378 0.960 . S
C365 C362 1.511 . S
C365 H379 0.961 . S
C365 H380 0.961 . S
C365 H381 0.961 . S
C366 C367 1.370 . S
C366 C368 1.363 . S
C366 H382 0.931 . S
C367 C366 1.370 . S
C367 C371 1.408 . S
C368 C366 1.363 . S
C368 C369 1.370 . S
C368 C372 1.524 . S
C369 C361 1.503 . S
C369 C368 1.370 . S
C369 C370 1.403 . S
C370 C369 1.403 . S
C370 C371 1.404 . S
C370 C373 1.539 . S
C371 C367 1.408 . S
C371 C370 1.404 . S
C371 H383 0.930 . S
C372 C368 1.524 . S
C372 H384 0.956 . S
C372 H385 0.961 . S
C372 H386 0.961 . S
C373 C370 1.539 . S
C373 H387 0.958 . S
C373 H388 0.961 . S
C373 H389 0.960 . S
H374 C358 0.931 . S
H375 C363 0.929 . S
H376 C364 0.960 . S
H377 C364 0.962 . S
H378 C364 0.960 . S
H379 C365 0.961 . S
H380 C365 0.961 . S
H381 C365 0.961 . S
H382 C366 0.931 . S
H383 C371 0.930 . S
H384 C372 0.956 . S
H385 C372 0.961 . S
H386 C372 0.961 . S
H387 C373 0.958 . S
H388 C373 0.961 . S
H389 C373 0.960 . S
C390 C391 1.391 . S
C390 C392 1.394 . S
C390 H406 0.931 . S
C391 C390 1.391 . S
C391 C395 1.376 . S
C392 C390 1.394 . S
C392 C393 1.369 . S
C392 C396 1.531 . S
C393 C392 1.369 . S
C393 C394 1.410 . S
C393 C401 1.503 . S
C394 C393 1.410 . S
C394 C395 1.392 . S
C394 C397 1.511 . S
C395 C391 1.376 . S
C395 C394 1.392 . S
C395 H407 0.929 . S
C396 C392 1.531 . S
C396 H408 0.960 . S
C396 H409 0.962 . S
C396 H410 0.960 . S
C397 C394 1.511 . S
C397 H411 0.961 . S
C397 H412 0.961 . S
C397 H413 0.961 . S
C398 C399 1.370 . S
C398 C400 1.363 . S
C398 H414 0.931 . S
C399 C398 1.370 . S
C399 C403 1.408 . S
C400 C398 1.363 . S
C400 C401 1.370 . S
C400 C404 1.524 . S
C401 C393 1.503 . S
C401 C400 1.370 . S
C401 C402 1.403 . S
C402 C401 1.403 . S
C402 C403 1.404 . S
C402 C405 1.539 . S
C403 C399 1.408 . S
C403 C402 1.404 . S
C403 H415 0.930 . S
C404 C400 1.524 . S
C404 H416 0.956 . S
C404 H417 0.961 . S
C404 H418 0.961 . S
C405 C402 1.539 . S
C405 H419 0.958 . S
C405 H420 0.961 . S
C405 H421 0.960 . S
H406 C390 0.931 . S
H407 C395 0.929 . S
H408 C396 0.960 . S
H409 C396 0.962 . S
H410 C396 0.960 . S
H411 C397 0.961 . S
H412 C397 0.961 . S
H413 C397 0.961 . S
H414 C398 0.931 . S
H415 C403 0.930 . S
H416 C404 0.956 . S
H417 C404 0.961 . S
H418 C404 0.961 . S
H419 C405 0.958 . S
H420 C405 0.961 . S
H421 C405 0.960 . S
C422 C423 1.391 . S
C422 C424 1.394 . S
C422 H438 0.931 . S
C423 C422 1.391 . S
C423 C427 1.376 . S
C424 C422 1.394 . S
C424 C425 1.369 . S
C424 C428 1.531 . S
C425 C424 1.369 . S
C425 C426 1.410 . S
C425 C433 1.503 . S
C426 C425 1.410 . S
C426 C427 1.392 . S
C426 C429 1.511 . S
C427 C423 1.376 . S
C427 C426 1.392 . S
C427 H439 0.929 . S
C428 C424 1.531 . S
C428 H440 0.960 . S
C428 H441 0.962 . S
C428 H442 0.960 . S
C429 C426 1.511 . S
C429 H443 0.961 . S
C429 H444 0.961 . S
C429 H445 0.961 . S
C430 C431 1.370 . S
C430 C432 1.363 . S
C430 H446 0.931 . S
C431 C430 1.370 . S
C431 C435 1.408 . S
C432 C430 1.363 . S
C432 C433 1.370 . S
C432 C436 1.524 . S
C433 C425 1.503 . S
C433 C432 1.370 . S
C433 C434 1.403 . S
C434 C433 1.403 . S
C434 C435 1.404 . S
C434 C437 1.539 . S
C435 C431 1.408 . S
C435 C434 1.404 . S
C435 H447 0.930 . S
C436 C432 1.524 . S
C436 H448 0.956 . S
C436 H449 0.961 . S
C436 H450 0.961 . S
C437 C434 1.539 . S
C437 H451 0.958 . S
C437 H452 0.961 . S
C437 H453 0.960 . S
H438 C422 0.931 . S
H439 C427 0.929 . S
H440 C428 0.960 . S
H441 C428 0.962 . S
H442 C428 0.960 . S
H443 C429 0.961 . S
H444 C429 0.961 . S
H445 C429 0.961 . S
H446 C430 0.931 . S
H447 C435 0.930 . S
H448 C436 0.956 . S
H449 C436 0.961 . S
H450 C436 0.961 . S
H451 C437 0.958 . S
H452 C437 0.961 . S
H453 C437 0.960 . S
C454 C455 1.391 . S
C454 C456 1.394 . S
C454 H470 0.931 1_455 S
C455 C454 1.391 . S
C455 C459 1.376 1_545 S
C456 C454 1.394 . S
C456 C457 1.370 . S
C456 C460 1.531 1_455 S
C457 C456 1.370 . S
C457 C458 1.409 1_545 S
C457 C465 1.503 1_545 S
C458 C457 1.409 1_565 S
C458 C459 1.392 . S
C458 C461 1.511 . S
C459 C455 1.376 1_565 S
C459 C458 1.392 . S
C459 H471 0.929 . S
C460 C456 1.531 1_655 S
C460 H472 0.960 . S
C460 H473 0.962 . S
C460 H474 0.960 . S
C461 C458 1.511 . S
C461 H475 0.961 . S
C461 H476 0.961 . S
C461 H477 0.961 . S
C462 C463 1.370 1_545 S
C462 C464 1.363 . S
C462 H478 0.931 . S
C463 C462 1.370 1_565 S
C463 C467 1.408 . S
C464 C462 1.363 . S
C464 C465 1.370 1_545 S
C464 C468 1.524 . S
C465 C457 1.503 1_565 S
C465 C464 1.370 1_565 S
C465 C466 1.403 . S
C466 C465 1.403 . S
C466 C467 1.404 . S
C466 C469 1.539 1_455 S
C467 C463 1.408 . S
C467 C466 1.404 . S
C467 H479 0.930 1_455 S
C468 C464 1.524 . S
C468 H480 0.956 . S
C468 H481 0.961 . S
C468 H482 0.961 . S
C469 C466 1.539 1_655 S
C469 H483 0.958 . S
C469 H484 0.961 . S
C469 H485 0.960 . S
H470 C454 0.931 1_655 S
H471 C459 0.929 . S
H472 C460 0.960 . S
H473 C460 0.962 . S
H474 C460 0.960 . S
H475 C461 0.961 . S
H476 C461 0.961 . S
H477 C461 0.961 . S
H478 C462 0.931 . S
H479 C467 0.930 1_655 S
H480 C468 0.956 . S
H481 C468 0.961 . S
H482 C468 0.961 . S
H483 C469 0.958 . S
H484 C469 0.961 . S
H485 C469 0.960 . S
C486 C487 1.391 1_655 S
C486 C488 1.394 . S
C486 H502 0.931 . S
C487 C486 1.391 1_455 S
C487 C491 1.376 . S
C488 C486 1.394 . S
C488 C489 1.369 1_655 S
C488 C492 1.531 . S
C489 C488 1.369 1_455 S
C489 C490 1.410 . S
C489 C497 1.503 . S
C490 C489 1.410 . S
C490 C491 1.392 . S
C490 C493 1.511 . S
C491 C487 1.376 . S
C491 C490 1.392 . S
C491 H503 0.929 . S
C492 C488 1.531 . S
C492 H504 0.960 . S
C492 H505 0.962 . S
C492 H506 0.960 . S
C493 C490 1.511 . S
C493 H507 0.961 . S
C493 H508 0.961 . S
C493 H509 0.961 . S
C494 C495 1.367 1_655 S
C494 C496 1.361 1_655 S
C494 H510 0.937 . S
C495 C494 1.367 1_455 S
C495 C499 1.408 . S
C496 C494 1.361 1_455 S
C496 C497 1.370 . S
C496 C500 1.524 1_445 S
C497 C489 1.503 . S
C497 C496 1.370 . S
C497 C498 1.403 . S
C498 C497 1.403 . S
C498 C499 1.404 . S
C498 C501 1.539 . S
C499 C495 1.408 . S
C499 C498 1.404 . S
C499 H511 0.930 . S
C500 C496 1.524 1_665 S
C500 H512 0.956 . S
C500 H513 0.961 1_655 S
C500 H514 0.961 . S
C501 C498 1.539 . S
C501 H515 0.958 . S
C501 H516 0.961 . S
C501 H517 0.960 . S
H502 C486 0.931 . S
H503 C491 0.929 . S
H504 C492 0.960 . S
H505 C492 0.962 . S
H506 C492 0.960 . S
H507 C493 0.961 . S
H508 C493 0.961 . S
H509 C493 0.961 . S
H510 C494 0.937 . S
H511 C499 0.930 . S
H512 C500 0.956 . S
H513 C500 0.961 1_455 S
H514 C500 0.961 . S
H515 C501 0.958 . S
H516 C501 0.961 . S
H517 C501 0.960 . S
C518 C519 1.391 . S
C518 C520 1.394 . S
C518 H534 0.931 . S
C519 C518 1.391 . S
C519 C523 1.376 . S
C520 C518 1.394 . S
C520 C521 1.369 . S
C520 C524 1.531 . S
C521 C520 1.369 . S
C521 C522 1.410 . S
C521 C529 1.503 . S
C522 C521 1.410 . S
C522 C523 1.392 . S
C522 C525 1.511 . S
C523 C519 1.376 . S
C523 C522 1.392 . S
C523 H535 0.929 . S
C524 C520 1.531 . S
C524 H536 0.960 . S
C524 H537 0.962 . S
C524 H538 0.960 . S
C525 C522 1.511 . S
C525 H539 0.961 . S
C525 H540 0.961 . S
C525 H541 0.961 . S
C526 C527 1.370 . S
C526 C528 1.363 . S
C526 H542 0.931 . S
C527 C526 1.370 . S
C527 C531 1.408 . S
C528 C526 1.363 . S
C528 C529 1.370 . S
C528 C532 1.524 . S
C529 C521 1.503 . S
C529 C528 1.370 . S
C529 C530 1.403 . S
C530 C529 1.403 . S
C530 C531 1.404 . S
C530 C533 1.539 . S
C531 C527 1.408 . S
C531 C530 1.404 . S
C531 H543 0.930 . S
C532 C528 1.524 . S
C532 H544 0.956 . S
C532 H545 0.961 . S
C532 H546 0.961 . S
C533 C530 1.539 . S
C533 H547 0.958 . S
C533 H548 0.961 . S
C533 H549 0.960 . S
H534 C518 0.931 . S
H535 C523 0.929 . S
H536 C524 0.960 . S
H537 C524 0.962 . S
H538 C524 0.960 . S
H539 C525 0.961 . S
H540 C525 0.961 . S
H541 C525 0.961 . S
H542 C526 0.931 . S
H543 C531 0.930 . S
H544 C532 0.956 . S
H545 C532 0.961 . S
H546 C532 0.961 . S
H547 C533 0.958 . S
H548 C533 0.961 . S
H549 C533 0.960 . S
C550 C551 1.391 . S
C550 C552 1.394 . S
C550 H566 0.931 . S
C551 C550 1.391 . S
C551 C555 1.376 . S
C552 C550 1.394 . S
C552 C553 1.369 . S
C552 C556 1.531 . S
C553 C552 1.369 . S
C553 C554 1.410 . S
C553 C561 1.503 . S
C554 C553 1.410 . S
C554 C555 1.392 . S
C554 C557 1.511 . S
C555 C551 1.376 . S
C555 C554 1.392 . S
C555 H567 0.929 . S
C556 C552 1.531 . S
C556 H568 0.960 . S
C556 H569 0.962 . S
C556 H570 0.960 . S
C557 C554 1.511 . S
C557 H571 0.961 . S
C557 H572 0.961 . S
C557 H573 0.961 . S
C558 C559 1.370 . S
C558 C560 1.363 . S
C558 H574 0.931 . S
C559 C558 1.370 . S
C559 C563 1.408 . S
C560 C558 1.363 . S
C560 C561 1.370 . S
C560 C564 1.524 . S
C561 C553 1.503 . S
C561 C560 1.370 . S
C561 C562 1.403 . S
C562 C561 1.403 . S
C562 C563 1.404 . S
C562 C565 1.539 . S
C563 C559 1.408 . S
C563 C562 1.404 . S
C563 H575 0.930 . S
C564 C560 1.524 . S
C564 H576 0.956 . S
C564 H577 0.961 . S
C564 H578 0.961 . S
C565 C562 1.539 . S
C565 H579 0.958 . S
C565 H580 0.961 . S
C565 H581 0.960 . S
H566 C550 0.931 . S
H567 C555 0.929 . S
H568 C556 0.960 . S
H569 C556 0.962 . S
H570 C556 0.960 . S
H571 C557 0.961 . S
H572 C557 0.961 . S
H573 C557 0.961 . S
H574 C558 0.931 . S
H575 C563 0.930 . S
H576 C564 0.956 . S
H577 C564 0.961 . S
H578 C564 0.961 . S
H579 C565 0.958 . S
H580 C565 0.961 . S
H581 C565 0.960 . S
C207 C175 1.466 . S
C199 C15 1.353 . S
C231 C13 1.529 . S
C239 C136 1.523 . S
C263 C18 1.319 . S
C271 C180 1.487 . S
C295 C17 1.374 . S
C303 C141 1.386 . S
C327 C36 1.294 . S
C335 C97 1.458 . S
C359 C34 1.534 . S
C367 C58 1.502 . S
C399 C102 1.490 . S
C391 C39 1.292 . S
C431 C63 1.381 . S
C423 C38 1.319 . S
C455 C14 1.537 . S
C463 C43 1.564 . S
C487 C16 1.388 . S
C495 C82 1.436 . S
C527 C121 1.564 . S
C519 C35 1.507 . S
C551 C37 1.355 . S
C559 C160 1.432 . S
