# Generated by pormake.
# Topology ptr, (4,4)-cn, num edge types: 1
# Building blocks:
#     Node 0, Type 0, BuildingBlock: NAHDIM_clean_sbu_0, # of connection points: 4
#     Node 1, Type 0, BuildingBlock: NAHDIM_clean_sbu_0, # of connection points: 4
#     Node 2, Type 0, BuildingBlock: NAHDIM_clean_sbu_0, # of connection points: 4
#     Node 3, Type 0, BuildingBlock: NAHDIM_clean_sbu_0, # of connection points: 4
#     Node 4, Type 0, BuildingBlock: NAHDIM_clean_sbu_0, # of connection points: 4
#     Node 5, Type 0, BuildingBlock: NAHDIM_clean_sbu_0, # of connection points: 4
#     Node 6, Type 0, BuildingBlock: NAHDIM_clean_sbu_0, # of connection points: 4
#     Node 7, Type 0, BuildingBlock: NAHDIM_clean_sbu_0, # of connection points: 4
#     Node 8, Type 0, BuildingBlock: NAHDIM_clean_sbu_0, # of connection points: 4
#     Node 9, Type 0, BuildingBlock: NAHDIM_clean_sbu_0, # of connection points: 4
#     Node 10, Type 0, BuildingBlock: NAHDIM_clean_sbu_0, # of connection points: 4
#     Node 11, Type 0, BuildingBlock: NAHDIM_clean_sbu_0, # of connection points: 4
#     Node 12, Type 0, BuildingBlock: NAHDIM_clean_sbu_0, # of connection points: 4
#     Node 13, Type 0, BuildingBlock: NAHDIM_clean_sbu_0, # of connection points: 4
#     Node 14, Type 0, BuildingBlock: NAHDIM_clean_sbu_0, # of connection points: 4
#     Node 15, Type 0, BuildingBlock: NAHDIM_clean_sbu_0, # of connection points: 4
#     Node 16, Type 0, BuildingBlock: NAHDIM_clean_sbu_0, # of connection points: 4
#     Node 17, Type 0, BuildingBlock: NAHDIM_clean_sbu_0, # of connection points: 4
#     Node 18, Type 1, BuildingBlock: GIZVER_clean_linker_0, # of connection points: 4
#     Node 19, Type 1, BuildingBlock: GIZVER_clean_linker_0, # of connection points: 4
#     Node 20, Type 1, BuildingBlock: GIZVER_clean_linker_0, # of connection points: 4
#     Node 21, Type 1, BuildingBlock: GIZVER_clean_linker_0, # of connection points: 4
#     Node 22, Type 1, BuildingBlock: GIZVER_clean_linker_0, # of connection points: 4
#     Node 23, Type 1, BuildingBlock: GIZVER_clean_linker_0, # of connection points: 4
#     Node 24, Type 1, BuildingBlock: GIZVER_clean_linker_0, # of connection points: 4
#     Node 25, Type 1, BuildingBlock: GIZVER_clean_linker_0, # of connection points: 4
#     Node 26, Type 1, BuildingBlock: GIZVER_clean_linker_0, # of connection points: 4
#     Node 27, Type 1, BuildingBlock: GIZVER_clean_linker_0, # of connection points: 4
#     Node 28, Type 1, BuildingBlock: GIZVER_clean_linker_0, # of connection points: 4
#     Node 29, Type 1, BuildingBlock: GIZVER_clean_linker_0, # of connection points: 4
#     Node 30, Type 1, BuildingBlock: GIZVER_clean_linker_0, # of connection points: 4
#     Node 31, Type 1, BuildingBlock: GIZVER_clean_linker_0, # of connection points: 4
#     Node 32, Type 1, BuildingBlock: GIZVER_clean_linker_0, # of connection points: 4
#     Node 33, Type 1, BuildingBlock: GIZVER_clean_linker_0, # of connection points: 4
#     Node 34, Type 1, BuildingBlock: GIZVER_clean_linker_0, # of connection points: 4
#     Node 35, Type 1, BuildingBlock: GIZVER_clean_linker_0, # of connection points: 4
#     Edge 36, Type (0, 1), None
#     Edge 37, Type (0, 1), None
#     Edge 38, Type (0, 1), None
#     Edge 39, Type (0, 1), None
#     Edge 40, Type (0, 1), None
#     Edge 41, Type (0, 1), None
#     Edge 42, Type (0, 1), None
#     Edge 43, Type (0, 1), None
#     Edge 44, Type (0, 1), None
#     Edge 45, Type (0, 1), None
#     Edge 46, Type (0, 1), None
#     Edge 47, Type (0, 1), None
#     Edge 48, Type (0, 1), None
#     Edge 49, Type (0, 1), None
#     Edge 50, Type (0, 1), None
#     Edge 51, Type (0, 1), None
#     Edge 52, Type (0, 1), None
#     Edge 53, Type (0, 1), None
#     Edge 54, Type (0, 1), None
#     Edge 55, Type (0, 1), None
#     Edge 56, Type (0, 1), None
#     Edge 57, Type (0, 1), None
#     Edge 58, Type (0, 1), None
#     Edge 59, Type (0, 1), None
#     Edge 60, Type (0, 1), None
#     Edge 61, Type (0, 1), None
#     Edge 62, Type (0, 1), None
#     Edge 63, Type (0, 1), None
#     Edge 64, Type (0, 1), None
#     Edge 65, Type (0, 1), None
#     Edge 66, Type (0, 1), None
#     Edge 67, Type (0, 1), None
#     Edge 68, Type (0, 1), None
#     Edge 69, Type (0, 1), None
#     Edge 70, Type (0, 1), None
#     Edge 71, Type (0, 1), None
#     Edge 72, Type (0, 1), None
#     Edge 73, Type (0, 1), None
#     Edge 74, Type (0, 1), None
#     Edge 75, Type (0, 1), None
#     Edge 76, Type (0, 1), None
#     Edge 77, Type (0, 1), None
#     Edge 78, Type (0, 1), None
#     Edge 79, Type (0, 1), None
#     Edge 80, Type (0, 1), None
#     Edge 81, Type (0, 1), None
#     Edge 82, Type (0, 1), None
#     Edge 83, Type (0, 1), None
#     Edge 84, Type (0, 1), None
#     Edge 85, Type (0, 1), None
#     Edge 86, Type (0, 1), None
#     Edge 87, Type (0, 1), None
#     Edge 88, Type (0, 1), None
#     Edge 89, Type (0, 1), None
#     Edge 90, Type (0, 1), None
#     Edge 91, Type (0, 1), None
#     Edge 92, Type (0, 1), None
#     Edge 93, Type (0, 1), None
#     Edge 94, Type (0, 1), None
#     Edge 95, Type (0, 1), None
#     Edge 96, Type (0, 1), None
#     Edge 97, Type (0, 1), None
#     Edge 98, Type (0, 1), None
#     Edge 99, Type (0, 1), None
#     Edge 100, Type (0, 1), None
#     Edge 101, Type (0, 1), None
#     Edge 102, Type (0, 1), None
#     Edge 103, Type (0, 1), None
#     Edge 104, Type (0, 1), None
#     Edge 105, Type (0, 1), None
#     Edge 106, Type (0, 1), None
#     Edge 107, Type (0, 1), None
# Relax obj value: 0.075
# Max RMSD: 0.219
# Mean RMSD: 0.117
data_MOF--net-ptr--node1-NAHDIM_clean_sbu_0--node2-GIZVER_clean_linker_0--edge1-none
_symmetry_space_group_name_H-M    P1
_symmetry_Int_Tables_number       1
_symmetry_cell_setting            triclinic
loop_
_symmetry_equiv_pos_as_xyz
'x, y, z'
_cell_length_a     38.300355
_cell_length_b     37.462591
_cell_length_c     22.089802
_cell_angle_alpha  92.438232
_cell_angle_beta   89.415488
_cell_angle_gamma 122.05673
loop_
_atom_site_label
_atom_site_type_symbol
_atom_site_fract_x
_atom_site_fract_y
_atom_site_fract_z
_atom_type_partial_charge
C0 C 0.03594 0.31546 0.04005 0.0
O1 O 0.03324 0.30364 0.98257 0.0
O2 O 0.93851 0.31959 0.98824 0.0
Zn3 Zn 0.99406 0.36434 0.02046 0.0
O4 O 0.99229 0.40013 0.08773 0.0
C5 C 0.03043 0.43326 0.93521 0.0
O6 O 0.01969 0.45348 0.97341 0.0
O7 O 0.02226 0.33843 0.05773 0.0
C8 C 0.02732 0.43153 0.10395 0.0
O9 O 0.05997 0.44019 0.07244 0.0
C10 C 0.92193 0.28046 -0.00374 0.0
O11 O 0.93477 0.26857 0.04164 0.0
O12 O 0.02447 0.39772 0.94841 0.0
C13 C 0.72888 0.65606 0.97685 0.0
O14 O 0.73248 0.69295 0.97963 0.0
O15 O 0.67371 0.68959 0.06666 0.0
Zn16 Zn 0.65215 0.63322 0.02488 0.0
O17 O 0.62235 0.62483 0.94632 0.0
C18 C 0.58912 0.59663 0.1103 0.0
O19 O 0.5869 0.62896 0.09542 0.0
O20 O 0.69855 0.62557 0.00255 0.0
C21 C 0.60035 0.58626 0.92884 0.0
O22 O 0.59617 0.55751 0.9654 0.0
C23 C 0.68467 0.72624 0.05053 0.0
O24 O 0.68318 0.73317 -0.0069 0.0
O25 O 0.61497 0.59017 0.0839 0.0
C26 C 0.35716 0.0826 0.98871 0.0
O27 O 0.31922 0.05239 -0.0002 0.0
O28 O 0.31817 0.98559 0.05916 0.0
Zn29 Zn 0.37301 0.01858 0.0186 0.0
O30 O 0.37529 0.99047 0.93933 0.0
C31 C 0.40355 0.98217 0.09039 0.0
O32 O 0.37746 0.95 0.05481 0.0
O33 O 0.38625 0.0767 -0.0006 0.0
C34 C 0.4027 0.98271 0.92276 0.0
O35 O 0.43319 0.99179 0.9598 0.0
C36 C 0.28989 0.94813 0.04377 0.0
O37 O 0.29259 0.93139 -0.00817 0.0
O38 O 0.41054 0.01863 0.08078 0.0
C39 C 0.92357 0.6406 0.94617 0.0
O40 O 0.96055 0.67395 0.93894 0.0
O41 O 0.00762 0.68312 0.04337 0.0
Zn42 Zn 0.97471 0.62466 0.00635 0.0
O43 O -0.00075 0.61723 0.92844 0.0
C44 C 0.0076 0.59335 0.08871 0.0
O45 O 0.03913 0.6126 0.05243 0.0
O46 O 0.91941 0.61294 0.98189 0.0
C47 C -0.00027 0.58431 0.91381 0.0
O48 O 0.9867 0.55405 0.95214 0.0
C49 C 0.04312 0.71204 0.02733 0.0
O50 O 0.05845 0.70631 0.97701 0.0
O51 O 0.97383 0.59005 0.07448 0.0
C52 C 0.24743 0.32814 0.01107 0.0
O53 O 0.24369 0.30273 0.96534 0.0
O54 O 0.32604 0.31734 0.95377 0.0
Zn55 Zn 0.33556 0.37139 -0.00881 0.0
O56 O 0.3699 0.38632 0.06747 0.0
C57 C 0.39881 0.4177 0.91026 0.0
O58 O 0.41522 0.40282 0.94536 0.0
O59 O 0.2818 0.36249 0.02069 0.0
C60 C 0.40326 0.41935 0.0857 0.0
O61 O 0.42273 0.45167 0.05085 0.0
C62 C 0.34221 0.29738 0.97122 0.0
O63 O 0.36268 0.30886 0.02299 0.0
O64 O 0.36377 0.41181 0.92388 0.0
C65 C 0.66397 0.92825 0.02283 0.0
O66 O 0.68909 0.94561 0.97745 0.0
O67 O 0.66842 0.01501 0.94589 0.0
Zn68 Zn 0.61786 0.96692 0.98243 0.0
O69 O 0.59404 0.98434 0.04943 0.0
C70 C 0.56756 0.96707 0.89504 0.0
O71 O 0.58508 0.00467 0.92209 0.0
O72 O 0.63168 0.92983 0.02667 0.0
C73 C 0.55718 0.95638 0.06232 0.0
O74 O 0.53598 0.92365 0.02466 0.0
C75 C 0.70576 0.03868 0.96329 0.0
O76 O 0.71694 0.03521 0.01767 0.0
O77 O 0.57617 0.94083 0.91349 0.0
C78 C 0.70173 0.64907 0.37372 0.0
O79 O 0.69902 0.63723 0.31625 0.0
O80 O 0.60408 0.65284 0.32198 0.0
Zn81 Zn 0.65963 0.69773 0.35407 0.0
O82 O 0.65789 0.73358 0.42126 0.0
C83 C 0.69617 0.76665 0.2687 0.0
O84 O 0.68562 0.78704 0.30689 0.0
O85 O 0.68797 0.67197 0.39141 0.0
C86 C 0.69296 0.76493 0.43742 0.0
O87 O 0.72556 0.77346 0.40587 0.0
C88 C 0.5877 0.61374 0.32998 0.0
O89 O 0.60065 0.60198 0.37537 0.0
O90 O 0.68999 0.73102 0.28193 0.0
C91 C 0.39532 0.98845 0.31001 0.0
O92 O 0.39897 0.02536 0.31286 0.0
O93 O 0.3402 0.02205 0.39972 0.0
Zn94 Zn 0.31856 0.96567 0.35794 0.0
O95 O 0.28875 0.9573 0.27939 0.0
C96 C 0.25548 0.9291 0.44327 0.0
O97 O 0.25327 0.96142 0.42829 0.0
O98 O 0.36492 0.95794 0.33558 0.0
C99 C 0.26656 0.91873 0.262 0.0
O100 O 0.26223 0.88995 0.29863 0.0
C101 C 0.35119 0.05871 0.38359 0.0
O102 O 0.34969 0.06564 0.32616 0.0
O103 O 0.28137 0.92264 0.41698 0.0
C104 C 0.02496 0.4169 0.32225 0.0
O105 O 0.98702 0.38698 0.33401 0.0
O106 O 0.98574 0.31973 0.39244 0.0
Zn107 Zn 0.04057 0.35257 0.35179 0.0
O108 O 0.04273 0.32432 0.27259 0.0
C109 C 0.07102 0.31612 0.42366 0.0
O110 O 0.04486 0.28395 0.38816 0.0
O111 O 0.05392 0.41069 0.33239 0.0
C112 C 0.07005 0.31643 0.25602 0.0
O113 O 0.10054 0.32546 0.29304 0.0
C114 C 0.95738 0.2823 0.37707 0.0
O115 O 0.96 0.26552 0.32511 0.0
O116 O 0.07809 0.35261 0.41398 0.0
C117 C 0.5908 0.97468 0.27946 0.0
O118 O 0.62773 0.00811 0.27219 0.0
O119 O 0.67493 0.0175 0.37673 0.0
Zn120 Zn 0.64213 0.95903 0.33972 0.0
O121 O 0.66672 0.95164 0.26185 0.0
C122 C 0.67505 0.92769 0.42207 0.0
O123 O 0.70659 0.94692 0.38582 0.0
O124 O 0.58677 0.94711 0.31525 0.0
C125 C 0.66713 0.91868 0.24727 0.0
O126 O 0.65401 0.88841 0.28562 0.0
C127 C 0.71041 0.04645 0.36066 0.0
O128 O 0.72574 0.04073 0.31034 0.0
O129 O 0.64131 0.92445 0.40784 0.0
C130 C 0.91327 0.66133 0.34453 0.0
O131 O 0.90949 0.63586 0.29886 0.0
O132 O 0.99179 0.65036 0.28718 0.0
Zn133 Zn 0.00139 0.70445 0.32458 0.0
O134 O 0.03574 0.71937 0.40085 0.0
C135 C 0.06467 0.75061 0.24362 0.0
O136 O 0.08099 0.73565 0.27871 0.0
O137 O 0.94767 0.69565 0.35409 0.0
C138 C 0.06916 0.75235 0.41903 0.0
O139 O 0.08872 0.78463 0.3841 0.0
C140 C 0.00804 0.63047 0.30462 0.0
O141 O 0.02854 0.64203 0.35637 0.0
O142 O 0.02967 0.74484 0.25724 0.0
C143 C 0.33074 0.26095 0.35605 0.0
O144 O 0.35588 0.27836 0.31072 0.0
O145 O 0.33521 0.34768 0.2791 0.0
Zn146 Zn 0.28465 0.29962 0.31568 0.0
O147 O 0.26092 0.31713 0.3827 0.0
C148 C 0.23428 0.29979 0.2284 0.0
O149 O 0.25175 0.33735 0.25552 0.0
O150 O 0.29843 0.26249 0.35989 0.0
C151 C 0.22404 0.28927 0.39565 0.0
O152 O 0.20274 0.25654 0.35804 0.0
C153 C 0.37254 0.37143 0.29655 0.0
O154 O 0.3837 0.36806 0.35099 0.0
O155 O 0.24294 0.27356 0.24676 0.0
C156 C 0.36856 0.98168 0.70677 0.0
O157 O 0.3661 0.97006 0.64923 0.0
O158 O 0.27087 0.98547 0.65494 0.0
Zn159 Zn 0.32641 0.03029 0.68709 0.0
O160 O 0.32465 0.06612 0.75428 0.0
C161 C 0.36298 0.0992 0.60176 0.0
O162 O 0.3524 0.11957 0.63995 0.0
O163 O 0.35466 0.00445 0.72447 0.0
C164 C 0.3597 0.09748 0.77051 0.0
O165 O 0.39234 0.10605 0.73902 0.0
C166 C 0.25438 0.94636 0.66295 0.0
O167 O 0.26729 0.93452 0.70831 0.0
O168 O 0.35682 0.06358 0.61499 0.0
C169 C 0.0627 0.32251 0.64324 0.0
O170 O 0.0663 0.3594 0.64594 0.0
O171 O 0.00766 0.35615 0.73314 0.0
Zn172 Zn 0.98601 0.29978 0.6913 0.0
O173 O 0.95623 0.29149 0.61274 0.0
C174 C 0.92289 0.26319 0.77658 0.0
O175 O 0.92069 0.29552 0.76161 0.0
O176 O 0.03236 0.29204 0.66894 0.0
C177 C 0.93401 0.25293 0.59532 0.0
O178 O 0.92963 0.22412 0.63192 0.0
C179 C 0.01854 0.39277 0.71702 0.0
O180 O 0.01688 0.39966 0.65962 0.0
O181 O 0.94879 0.25673 0.75029 0.0
C182 C 0.69073 0.75026 0.65565 0.0
O183 O 0.65281 0.71997 0.66671 0.0
O184 O 0.65188 0.65332 0.72616 0.0
Zn185 Zn 0.70671 0.68637 0.68557 0.0
O186 O 0.70893 0.65827 0.60626 0.0
C187 C 0.73722 0.6499 0.75726 0.0
O188 O 0.71109 0.61778 0.72166 0.0
O189 O 0.71988 0.74448 0.66642 0.0
C190 C 0.73626 0.6504 0.58962 0.0
O191 O 0.76675 0.65939 0.6266 0.0
C192 C 0.62361 0.61588 0.71067 0.0
O193 O 0.62631 0.59925 0.65863 0.0
O194 O 0.74426 0.68639 0.7477 0.0
C195 C 0.25777 0.30754 0.61274 0.0
O196 O 0.29473 0.34091 0.60547 0.0
O197 O 0.34185 0.35011 0.70998 0.0
Zn198 Zn 0.30897 0.29166 0.67293 0.0
O199 O 0.33351 0.28422 0.59505 0.0
C200 C 0.34176 0.26023 0.75532 0.0
O201 O 0.37333 0.27945 0.7191 0.0
O202 O 0.25366 0.27991 0.64847 0.0
C203 C 0.33394 0.25126 0.58046 0.0
O204 O 0.32084 0.22101 0.61882 0.0
C205 C 0.37733 0.37908 0.69397 0.0
O206 O 0.39272 0.37338 0.64367 0.0
O207 O 0.30804 0.25702 0.74105 0.0
C208 C 0.58058 -0.00458 0.67772 0.0
O209 O 0.57688 0.97003 0.63199 0.0
O210 O 0.65921 0.98465 0.62058 0.0
Zn211 Zn 0.66871 0.0387 0.65795 0.0
O212 O 0.70302 0.05364 0.73426 0.0
C213 C 0.73198 0.08491 0.57698 0.0
O214 O 0.74832 0.06996 0.61207 0.0
O215 O 0.61493 0.02979 0.68733 0.0
C216 C 0.73645 0.08661 0.75245 0.0
O217 O 0.75603 0.11887 0.71752 0.0
C218 C 0.67547 0.96476 0.63799 0.0
O219 O 0.696 0.97632 0.68971 0.0
O220 O 0.69698 0.07911 0.59061 0.0
C221 C -0.00337 0.59415 0.6894 0.0
O222 O 0.02176 0.61158 0.64407 0.0
O223 O 0.00112 0.68086 0.6125 0.0
Zn224 Zn 0.95054 0.63282 0.64908 0.0
O225 O 0.92683 0.65033 0.71612 0.0
C226 C 0.90011 0.63302 0.56189 0.0
O227 O 0.91751 0.67055 0.58912 0.0
O228 O 0.9643 0.59566 0.69325 0.0
C229 C 0.88994 0.62249 0.72905 0.0
O230 O 0.86862 0.58978 0.69141 0.0
C231 C 0.03845 0.70457 0.62993 0.0
O232 O 0.04961 0.70117 0.68436 0.0
O233 O 0.90884 0.60682 0.58014 0.0
H234 H 0.10035 0.26903 0.21225 0.0
H235 H 0.07221 0.26903 0.02367 0.0
H236 H 0.0395 0.33154 0.15989 0.0
H237 H 0.09285 0.21221 0.13061 0.0
H238 H 0.09671 0.22509 0.05285 0.0
H239 H 0.15238 0.2518 0.20121 0.0
H240 H 0.2713 0.33361 0.12612 0.0
H241 H 0.16294 0.28121 0.01236 0.0
C242 C 0.08771 0.27836 0.17702 0.0
C243 C 0.06995 0.3019 0.19279 0.0
C244 C 0.08843 0.26609 0.11603 0.0
C245 C 0.07157 0.27818 0.07068 0.0
C246 C 0.05379 0.30183 0.08614 0.0
C247 C 0.05289 0.31308 0.14733 0.0
C248 C 0.10585 0.23899 0.09982 0.0
C249 C 0.15223 0.26412 0.10622 0.0
C250 C 0.17104 0.26786 0.16261 0.0
C251 C 0.21391 0.29302 0.16951 0.0
C252 C 0.23806 0.31448 0.12028 0.0
C253 C 0.22007 0.30994 0.06321 0.0
C254 C 0.17705 0.28476 0.05629 0.0
H255 H 0.73684 0.84635 0.22848 0.0
H256 H 0.72075 0.81155 0.03746 0.0
H257 H 0.67879 0.71664 0.17003 0.0
H258 H 0.77708 0.89984 0.14885 0.0
H259 H 0.76392 0.88535 0.07033 0.0
H260 H 0.72046 0.89502 0.22043 0.0
H261 H 0.64441 0.93261 0.13996 0.0
H262 H 0.71512 0.89829 0.02607 0.0
C263 C 0.72579 0.82255 0.19196 0.0
C264 C 0.70657 0.78014 0.20591 0.0
C265 C 0.73078 0.8342 0.13119 0.0
C266 C 0.717 0.80279 0.08429 0.0
C267 C 0.69891 0.76028 0.09804 0.0
C268 C 0.69397 0.74948 0.15892 0.0
C269 C 0.75095 0.88003 0.11671 0.0
C270 C 0.7206 0.89408 0.12245 0.0
C271 C 0.70802 0.89989 0.18011 0.0
C272 C 0.68045 0.91344 0.18648 0.0
C273 C 0.66535 0.92153 0.13467 0.0
C274 C 0.67759 0.91604 0.07639 0.0
C275 C 0.70523 0.90224 0.07066 0.0
H276 H 0.14415 0.79434 0.2132 0.0
H277 H 0.12558 0.76695 0.02139 0.0
H278 H 0.02193 0.72593 0.13917 0.0
H279 H 0.19419 0.78558 0.1379 0.0
H280 H 0.19179 0.79551 0.06059 0.0
H281 H 0.21108 0.84107 0.21861 0.0
H282 H 0.29365 0.96721 0.16424 0.0
H283 H 0.22572 0.8667 0.02964 0.0
C284 C 0.12409 0.78335 0.17376 0.0
C285 C 0.08145 0.76273 0.18228 0.0
C286 C 0.14041 0.78655 0.11544 0.0
C287 C 0.11328 0.76736 0.06565 0.0
C288 C 0.07049 0.74426 0.07397 0.0
C289 C 0.05488 0.74452 0.13189 0.0
C290 C 0.18561 0.80271 0.10744 0.0
C291 C 0.2129 0.84933 0.12268 0.0
C292 C 0.22329 0.86361 0.1833 0.0
C293 C 0.25158 0.90616 0.19867 0.0
C294 C 0.27002 0.93477 0.15239 0.0
C295 C 0.26186 0.92064 0.09101 0.0
C296 C 0.23203 0.8781 0.0766 0.0
H297 H 0.39092 0.23404 0.79396 0.0
H298 H 0.38425 0.25784 0.98461 0.0
H299 H 0.31414 0.27884 0.85547 0.0
H300 H 0.44425 0.24212 0.87321 0.0
H301 H 0.43135 0.23829 0.95178 0.0
H302 H 0.40011 0.18021 0.79983 0.0
H303 H 0.33632 0.05816 0.87431 0.0
H304 H 0.39336 0.16887 -0.00623 0.0
C305 C 0.37716 0.24179 0.83112 0.0
C306 C 0.34913 0.25378 0.81824 0.0
C307 C 0.38829 0.241 0.89145 0.0
C308 C 0.37362 0.25575 0.93856 0.0
C309 C 0.34788 0.27075 0.92578 0.0
C310 C 0.33376 0.26708 0.86596 0.0
C311 C 0.41811 0.22745 0.90519 0.0
C312 C 0.39689 0.18017 0.89771 0.0
C313 C 0.38856 0.16112 0.83914 0.0
C314 C 0.36543 0.11734 0.83087 0.0
C315 C 0.35232 0.09219 0.88107 0.0
C316 C 0.3636 0.11055 0.93966 0.0
C317 C 0.38515 0.15462 0.94832 0.0
H318 H 0.88414 0.17997 0.79883 0.0
H319 H 0.87543 0.19394 -0.00803 0.0
H320 H 0.92616 0.30182 0.88072 0.0
H321 H 0.86723 0.12182 0.86698 0.0
H322 H 0.85926 0.12678 0.94612 0.0
H323 H 0.81552 0.12721 0.79252 0.0
H324 H 0.69075 0.04858 0.84844 0.0
H325 H 0.78983 0.08879 0.97719 0.0
C326 C 0.88723 0.19933 0.83874 0.0
C327 C 0.90476 0.24265 0.83352 0.0
C328 C 0.8741 0.18109 0.89539 0.0
C329 C 0.88253 0.20738 0.9477 0.0
C330 C 0.9022 0.25122 0.94299 0.0
C331 C 0.91055 0.26802 0.88524 0.0
C332 C 0.85367 0.13408 0.90024 0.0
C333 C 0.80795 0.1117 0.88699 0.0
C334 C 0.7938 0.11127 0.8282 0.0
C335 C 0.75162 0.08868 0.8144 0.0
C336 C 0.72338 0.06629 0.85965 0.0
C337 C 0.73665 0.06595 0.91857 0.0
C338 C 0.77912 0.08918 0.93215 0.0
H339 H 0.8113 0.58033 0.7679 0.0
H340 H 0.83999 0.59764 0.95894 0.0
H341 H 0.937 0.65628 0.82932 0.0
H342 H 0.75738 0.53896 0.84407 0.0
H343 H 0.76879 0.55134 0.92372 0.0
H344 H 0.75865 0.59353 0.77741 0.0
H345 H 0.73665 0.68362 0.86557 0.0
H346 H 0.75707 0.60276 0.97228 0.0
C347 C 0.83368 0.59486 0.8047 0.0
C348 C 0.87561 0.6203 0.79163 0.0
C349 C 0.82046 0.58797 0.86502 0.0
C350 C 0.84982 0.60422 0.91239 0.0
C351 C 0.89188 0.62892 0.89947 0.0
C352 C 0.9044 0.63826 0.83935 0.0
C353 C 0.77516 0.56516 0.87833 0.0
C354 C 0.76168 0.59619 0.87531 0.0
C355 C 0.75676 0.60897 0.81877 0.0
C356 C 0.74909 0.64141 0.81527 0.0
C357 C 0.74538 0.66052 0.86854 0.0
C358 C 0.74648 0.64548 0.92508 0.0
C359 C 0.7557 0.61406 0.92853 0.0
H360 H 0.76647 0.60293 0.54583 0.0
H361 H 0.73796 0.60261 0.35733 0.0
H362 H 0.70561 0.66544 0.49353 0.0
H363 H 0.75861 0.54586 0.46425 0.0
H364 H 0.76249 0.55871 0.38648 0.0
H365 H 0.81819 0.58531 0.53479 0.0
H366 H 0.93717 0.66669 0.45954 0.0
H367 H 0.82878 0.61468 0.34592 0.0
C368 C 0.75379 0.61223 0.51061 0.0
C369 C 0.73609 0.63583 0.52639 0.0
C370 C 0.75438 0.59984 0.44964 0.0
C371 C 0.73745 0.61187 0.40432 0.0
C372 C 0.71971 0.63557 0.41978 0.0
C373 C 0.71896 0.64695 0.48095 0.0
C374 C 0.77168 0.57263 0.43344 0.0
C375 C 0.81806 0.59763 0.4398 0.0
C376 C 0.83686 0.6013 0.49617 0.0
C377 C 0.87974 0.6263 0.50301 0.0
C378 C 0.90391 0.64767 0.45375 0.0
C379 C 0.88593 0.6432 0.3967 0.0
C380 C 0.84289 0.61818 0.38983 0.0
H381 H 0.40363 0.17889 0.56149 0.0
H382 H 0.3873 0.14402 0.37049 0.0
H383 H 0.34549 0.04915 0.50311 0.0
H384 H 0.44378 0.23234 0.48181 0.0
H385 H 0.43055 0.21783 0.40331 0.0
H386 H 0.38717 0.2275 0.55351 0.0
H387 H 0.31122 0.26528 0.4732 0.0
H388 H 0.38181 0.23089 0.35916 0.0
C389 C 0.39254 0.15508 0.52498 0.0
C390 C 0.37332 0.11267 0.53896 0.0
C391 C 0.39745 0.16671 0.46421 0.0
C392 C 0.3836 0.13528 0.41732 0.0
C393 C 0.36552 0.09277 0.43109 0.0
C394 C 0.36065 0.08199 0.49197 0.0
C395 C 0.41762 0.21254 0.44971 0.0
C396 C 0.38729 0.22661 0.45553 0.0
C397 C 0.37474 0.23241 0.51321 0.0
C398 C 0.34721 0.24601 0.51964 0.0
C399 C 0.33213 0.25416 0.46786 0.0
C400 C 0.34435 0.24868 0.40957 0.0
C401 C 0.37195 0.23483 0.40377 0.0
H402 H 0.81146 0.1286 0.54654 0.0
H403 H 0.79286 0.10133 0.35473 0.0
H404 H 0.68924 0.06031 0.47254 0.0
H405 H 0.86144 0.1198 0.47122 0.0
H406 H 0.85905 0.12974 0.39392 0.0
H407 H 0.8784 0.17532 0.55193 0.0
H408 H 0.9612 0.3014 0.49755 0.0
H409 H 0.89309 0.20093 0.36296 0.0
C410 C 0.7914 0.11765 0.50711 0.0
C411 C 0.74876 0.09706 0.51565 0.0
C412 C 0.80771 0.12087 0.44878 0.0
C413 C 0.78057 0.10174 0.39899 0.0
C414 C 0.73779 0.07865 0.40732 0.0
C415 C 0.72219 0.07889 0.46526 0.0
C416 C 0.8529 0.13697 0.44076 0.0
C417 C 0.88024 0.18358 0.456 0.0
C418 C 0.89065 0.19785 0.51662 0.0
C419 C 0.91902 0.24039 0.53199 0.0
C420 C 0.93752 0.26899 0.4857 0.0
C421 C 0.92932 0.25485 0.42432 0.0
C422 C 0.89942 0.21233 0.40992 0.0
H423 H 0.05714 0.56761 0.12727 0.0
H424 H 0.05052 0.59141 0.31791 0.0
H425 H 0.97981 0.61169 0.18894 0.0
H426 H 0.11083 0.57635 0.20637 0.0
H427 H 0.09803 0.57247 0.28498 0.0
H428 H 0.06711 0.51425 0.13314 0.0
H429 H 0.00441 0.39227 0.20785 0.0
H430 H 0.06046 0.50307 0.32712 0.0
C431 C 0.04331 0.57524 0.16445 0.0
C432 C 0.01506 0.58697 0.15163 0.0
C433 C 0.05459 0.57461 0.22475 0.0
C434 C 0.03979 0.5892 0.27189 0.0
C435 C 0.01381 0.60392 0.25918 0.0
C436 C -0.00041 0.60012 0.19938 0.0
C437 C 0.08475 0.56149 0.23842 0.0
C438 C 0.06392 0.51426 0.23103 0.0
C439 C 0.05575 0.49518 0.17249 0.0
C440 C 0.03299 0.45139 0.16429 0.0
C441 C 0.02014 0.42629 0.21453 0.0
C442 C 0.03125 0.44472 0.27311 0.0
C443 C 0.0524 0.48877 0.28169 0.0
H444 H 0.5508 0.51344 0.13252 0.0
H445 H 0.54167 0.52721 0.3256 0.0
H446 H 0.59194 0.6351 0.21443 0.0
H447 H 0.53419 0.45538 0.20067 0.0
H448 H 0.52604 0.46023 0.27978 0.0
H449 H 0.48232 0.46031 0.12598 0.0
H450 H 0.35755 0.38111 0.18158 0.0
H451 H 0.45657 0.42189 0.31064 0.0
C452 C 0.5537 0.53273 0.17241 0.0
C453 C 0.57098 0.57602 0.16721 0.0
C454 C 0.54058 0.51445 0.22903 0.0
C455 C 0.54876 0.54067 0.28134 0.0
C456 C 0.56818 0.58449 0.27666 0.0
C457 C 0.57652 0.60131 0.21892 0.0
C458 C 0.52043 0.46747 0.23386 0.0
C459 C 0.47471 0.44481 0.22045 0.0
C460 C 0.46059 0.44427 0.1616 0.0
C461 C 0.41842 0.42147 0.14768 0.0
C462 C 0.39017 0.39897 0.19287 0.0
C463 C 0.40342 0.39875 0.25185 0.0
C464 C 0.44587 0.42218 0.26556 0.0
H465 H 0.47854 0.91366 0.10114 0.0
H466 H 0.50722 0.93115 0.29219 0.0
H467 H 0.60417 0.9905 0.16262 0.0
H468 H 0.42476 0.87191 0.1773 0.0
H469 H 0.43609 0.88435 0.25695 0.0
H470 H 0.42539 0.92611 0.1106 0.0
H471 H 0.40276 0.01578 0.19866 0.0
H472 H 0.4239 0.93548 0.30548 0.0
C473 C 0.5009 0.92835 0.13796 0.0
C474 C 0.5428 0.95408 0.1249 0.0
C475 C 0.48767 0.92135 0.19826 0.0
C476 C 0.51703 0.93781 0.24564 0.0
C477 C 0.55908 0.96281 0.23275 0.0
C478 C 0.57157 0.97225 0.17264 0.0
C479 C 0.44236 0.89816 0.21156 0.0
C480 C 0.42848 0.92887 0.20851 0.0
C481 C 0.4234 0.9415 0.15195 0.0
C482 C 0.41548 0.97376 0.14841 0.0
C483 C 0.41166 0.99282 0.20166 0.0
C484 C 0.41292 0.9779 0.25822 0.0
C485 C 0.42239 0.94666 0.26171 0.0
H486 H 0.43336 0.93564 0.87893 0.0
H487 H 0.40519 0.9356 0.69036 0.0
H488 H 0.37197 -0.00237 0.82664 0.0
H489 H 0.42618 0.879 0.79724 0.0
H490 H 0.42998 0.89189 0.7195 0.0
H491 H 0.48567 0.91881 0.86785 0.0
H492 H 0.6045 0.00106 0.79279 0.0
H493 H 0.49609 0.94821 0.67902 0.0
C494 C 0.42063 0.94488 0.84372 0.0
C495 C 0.40268 0.96825 0.85951 0.0
C496 C 0.42143 0.93269 0.78272 0.0
C497 C 0.40448 0.94468 0.73738 0.0
C498 C 0.3865 0.96814 0.75285 0.0
C499 C 0.38551 0.97931 0.81405 0.0
C500 C 0.43907 0.90579 0.76647 0.0
C501 C 0.48545 0.93112 0.77288 0.0
C502 C 0.5043 0.93493 0.82927 0.0
C503 C 0.54715 0.96026 0.83617 0.0
C504 C 0.57126 0.98181 0.78696 0.0
C505 C 0.55324 0.97718 0.72988 0.0
C506 C 0.51023 0.95184 0.72296 0.0
H507 H 0.07056 0.51293 0.8949 0.0
H508 H 0.05412 0.47802 0.70392 0.0
H509 H 0.01321 0.38327 0.83656 0.0
H510 H 0.11024 0.56648 0.81521 0.0
H511 H 0.09706 0.55188 0.73671 0.0
H512 H 0.05328 0.56096 0.88688 0.0
H513 H 0.97688 0.59816 0.80655 0.0
H514 H 0.04807 0.56454 0.69256 0.0
C515 C 0.05958 0.48912 0.8584 0.0
C516 C 0.04067 0.44674 0.8724 0.0
C517 C 0.06431 0.50072 0.79763 0.0
C518 C 0.05059 0.4693 0.75075 0.0
C519 C 0.03282 0.42683 0.76453 0.0
C520 C 0.02815 0.41609 0.82541 0.0
C521 C 0.08413 0.5465 0.78312 0.0
C522 C 0.05351 0.5602 0.78891 0.0
C523 C 0.0408 0.5658 0.84658 0.0
C524 C 0.01307 0.57915 0.85299 0.0
C525 C -0.00208 0.58721 0.80121 0.0
C526 C 0.01027 0.58191 0.74293 0.0
C527 C 0.03808 0.56832 0.73715 0.0
H528 H 0.47829 0.4617 0.87983 0.0
H529 H 0.45976 0.43422 0.68803 0.0
H530 H 0.35607 0.39283 0.80583 0.0
H531 H 0.52849 0.45318 0.80448 0.0
H532 H 0.52604 0.46315 0.7272 0.0
H533 H 0.54517 0.50854 0.8853 0.0
H534 H 0.62726 0.63484 0.83118 0.0
H535 H 0.55967 0.53436 0.6964 0.0
C536 C 0.45822 0.45062 0.84039 0.0
C537 C 0.41557 0.42985 0.84892 0.0
C538 C 0.47455 0.45388 0.78207 0.0
C539 C 0.44743 0.43458 0.73229 0.0
C540 C 0.40465 0.41133 0.74062 0.0
C541 C 0.38901 0.41154 0.79854 0.0
C542 C 0.5198 0.47025 0.77407 0.0
C543 C 0.54692 0.51687 0.7894 0.0
C544 C 0.55728 0.53111 0.85004 0.0
C545 C 0.58541 0.57369 0.8655 0.0
C546 C 0.60374 0.60237 0.81927 0.0
C547 C 0.59563 0.58829 0.75787 0.0
C548 C 0.56593 0.54571 0.74339 0.0
H549 H 0.72432 0.90161 0.46066 0.0
H550 H 0.71762 0.92533 0.65133 0.0
H551 H 0.64739 0.94621 0.52225 0.0
H552 H 0.77764 0.90967 0.53982 0.0
H553 H 0.76482 0.90591 0.61843 0.0
H554 H 0.73337 0.84768 0.46658 0.0
H555 H 0.66971 0.72571 0.54132 0.0
H556 H 0.72695 0.83654 0.66055 0.0
C557 C 0.71054 0.90932 0.49783 0.0
C558 C 0.68246 0.92126 0.48498 0.0
C559 C 0.72168 0.90854 0.55815 0.0
C560 C 0.70698 0.92324 0.60528 0.0
C561 C 0.68119 0.93818 0.59254 0.0
C562 C 0.66705 0.9345 0.53272 0.0
C563 C 0.75153 0.89502 0.57186 0.0
C564 C 0.73031 0.84774 0.56447 0.0
C565 C 0.72189 0.82863 0.50594 0.0
C566 C 0.69875 0.78485 0.49775 0.0
C567 C 0.68572 0.75975 0.54801 0.0
C568 C 0.6971 0.77816 0.60656 0.0
C569 C 0.71867 0.82224 0.61513 0.0
H570 H 0.21682 0.84589 0.46553 0.0
H571 H 0.208 0.85983 0.65865 0.0
H572 H 0.25863 0.96771 0.54739 0.0
H573 H 0.19997 0.78776 0.5337 0.0
H574 H 0.19196 0.79271 0.61283 0.0
H575 H 0.14824 0.79301 0.45914 0.0
H576 H 0.02346 0.71435 0.51502 0.0
H577 H 0.12252 0.75472 0.64386 0.0
C578 C 0.21987 0.86524 0.50543 0.0
C579 C 0.23734 0.90855 0.5002 0.0
C580 C 0.20674 0.847 0.56208 0.0
C581 C 0.21511 0.87328 0.61438 0.0
C582 C 0.23471 0.91711 0.60967 0.0
C583 C 0.24307 0.93391 0.55191 0.0
C584 C 0.18637 0.79999 0.56693 0.0
C585 C 0.14065 0.77756 0.55363 0.0
C586 C 0.12652 0.77707 0.49481 0.0
C587 C 0.08434 0.75445 0.48099 0.0
C588 C 0.05609 0.73208 0.52624 0.0
C589 C 0.06935 0.7318 0.58519 0.0
C590 C 0.11181 0.75506 0.5988 0.0
H591 H 0.14542 0.24698 0.43457 0.0
H592 H 0.1742 0.26447 0.6256 0.0
H593 H 0.27113 0.3232 0.49588 0.0
H594 H 0.09158 0.20553 0.51085 0.0
H595 H 0.103 0.21803 0.59047 0.0
H596 H 0.09262 0.2599 0.44401 0.0
H597 H 0.07035 0.34989 0.53187 0.0
H598 H 0.09107 0.26936 0.63887 0.0
C599 C 0.16781 0.26158 0.47136 0.0
C600 C 0.20973 0.28709 0.45825 0.0
C601 C 0.15461 0.25471 0.53169 0.0
C602 C 0.18399 0.27104 0.57903 0.0
C603 C 0.22605 0.2958 0.56607 0.0
C604 C 0.23853 0.30514 0.50594 0.0
C605 C 0.10932 0.23179 0.54504 0.0
C606 C 0.09568 0.2627 0.54192 0.0
C607 C 0.09069 0.27536 0.48532 0.0
C608 C 0.08292 0.30771 0.48171 0.0
C609 C 0.07916 0.32685 0.53492 0.0
C610 C 0.08031 0.31191 0.59151 0.0
C611 C 0.08964 0.28057 0.59507 0.0
loop_
_geom_bond_atom_site_label_1
_geom_bond_atom_site_label_2
_geom_bond_distance
_geom_bond_site_symmetry_2
_ccdc_geom_bond_type
C0 O1 1.160 . S
C0 O7 1.185 . S
O1 C0 1.160 . S
O2 Zn3 1.899 1_656 S
O2 C10 1.284 . S
Zn3 O2 1.899 1_454 S
Zn3 O4 2.032 . S
Zn3 O7 2.086 . S
Zn3 O12 1.977 1_554 S
O4 Zn3 2.032 . S
O4 C8 1.278 1_455 S
C5 O6 1.203 1_455 S
C5 O12 1.267 . S
O6 C5 1.203 1_655 S
O7 C0 1.185 . S
O7 Zn3 2.086 . S
C8 O4 1.278 1_655 S
C8 O9 1.211 . S
O9 C8 1.211 . S
C10 O2 1.284 . S
C10 O11 1.273 1_556 S
O11 C10 1.273 1_554 S
O12 Zn3 1.977 1_556 S
O12 C5 1.267 . S
C13 O14 1.160 . S
C13 O20 1.185 1_556 S
O14 C13 1.160 . S
O15 Zn16 1.899 . S
O15 C23 1.284 . S
Zn16 O15 1.899 . S
Zn16 O17 2.032 1_554 S
Zn16 O20 2.086 . S
Zn16 O25 1.977 . S
O17 Zn16 2.032 1_556 S
O17 C21 1.278 . S
C18 O19 1.203 . S
C18 O25 1.267 . S
O19 C18 1.203 . S
O20 C13 1.185 1_554 S
O20 Zn16 2.086 . S
C21 O17 1.278 . S
C21 O22 1.211 . S
O22 C21 1.211 . S
C23 O15 1.284 . S
C23 O24 1.273 . S
O24 C23 1.273 . S
O25 Zn16 1.977 . S
O25 C18 1.267 . S
C26 O27 1.160 . S
C26 O33 1.185 1_556 S
O27 C26 1.160 . S
O28 Zn29 1.899 1_565 S
O28 C36 1.284 . S
Zn29 O28 1.899 1_545 S
Zn29 O30 2.032 1_554 S
Zn29 O33 2.086 . S
Zn29 O38 1.977 . S
O30 Zn29 2.032 1_556 S
O30 C34 1.278 1_545 S
C31 O32 1.203 1_545 S
C31 O38 1.267 . S
O32 C31 1.203 1_565 S
O33 C26 1.185 1_554 S
O33 Zn29 2.086 . S
C34 O30 1.278 1_565 S
C34 O35 1.211 . S
O35 C34 1.211 . S
C36 O28 1.284 . S
C36 O37 1.273 . S
O37 C36 1.273 . S
O38 Zn29 1.977 . S
O38 C31 1.267 . S
C39 O40 1.160 . S
C39 O46 1.185 1_556 S
O40 C39 1.160 . S
O41 Zn42 1.899 1_455 S
O41 C49 1.284 . S
Zn42 O41 1.899 1_655 S
Zn42 O43 2.032 1_554 S
Zn42 O46 2.086 . S
Zn42 O51 1.977 . S
O43 Zn42 2.032 1_556 S
O43 C47 1.278 1_655 S
C44 O45 1.193 1_655 S
C44 O51 1.276 . S
O45 C44 1.193 1_455 S
O46 C39 1.185 1_554 S
O46 Zn42 2.086 . S
C47 O43 1.278 1_455 S
C47 O48 1.211 . S
O48 C47 1.211 . S
C49 O41 1.284 . S
C49 O50 1.273 . S
O50 C49 1.273 . S
O51 Zn42 1.977 . S
O51 C44 1.276 . S
C52 O53 1.160 . S
C52 O59 1.185 . S
O53 C52 1.160 . S
O54 Zn55 1.894 1_556 S
O54 C62 1.284 . S
Zn55 O54 1.894 1_554 S
Zn55 O56 2.046 . S
Zn55 O59 2.088 . S
Zn55 O64 1.967 1_554 S
O56 Zn55 2.046 . S
O56 C60 1.278 . S
C57 O58 1.203 . S
C57 O64 1.267 . S
O58 C57 1.203 . S
O59 C52 1.185 . S
O59 Zn55 2.088 . S
C60 O56 1.278 . S
C60 O61 1.211 . S
O61 C60 1.211 . S
C62 O54 1.284 . S
C62 O63 1.273 1_556 S
O63 C62 1.273 1_554 S
O64 Zn55 1.967 1_556 S
O64 C57 1.267 . S
C65 O66 1.160 . S
C65 O72 1.185 . S
O66 C65 1.160 . S
O67 Zn68 1.905 1_545 S
O67 C75 1.284 . S
Zn68 O67 1.905 1_565 S
Zn68 O69 2.019 1_556 S
Zn68 O72 2.083 1_556 S
Zn68 O77 1.987 . S
O69 Zn68 2.019 1_554 S
O69 C73 1.278 1_565 S
C70 O71 1.203 1_565 S
C70 O77 1.267 . S
O71 C70 1.203 1_545 S
O72 C65 1.185 . S
O72 Zn68 2.083 1_554 S
C73 O69 1.278 1_545 S
C73 O74 1.211 . S
O74 C73 1.211 . S
C75 O67 1.284 . S
C75 O76 1.273 1_556 S
O76 C75 1.273 1_554 S
O77 Zn68 1.987 . S
O77 C70 1.267 . S
C78 O79 1.160 . S
C78 O85 1.185 . S
O79 C78 1.160 . S
O80 Zn81 1.899 . S
O80 C88 1.284 . S
Zn81 O80 1.899 . S
Zn81 O82 2.032 . S
Zn81 O85 2.086 . S
Zn81 O90 1.977 . S
O82 Zn81 2.032 . S
O82 C86 1.278 . S
C83 O84 1.203 . S
C83 O90 1.267 . S
O84 C83 1.203 . S
O85 C78 1.185 . S
O85 Zn81 2.086 . S
C86 O82 1.278 . S
C86 O87 1.211 . S
O87 C86 1.211 . S
C88 O80 1.284 . S
C88 O89 1.273 . S
O89 C88 1.273 . S
O90 Zn81 1.977 . S
O90 C83 1.267 . S
C91 O92 1.168 . S
C91 O98 1.182 1_545 S
O92 C91 1.168 . S
O93 Zn94 1.899 1_545 S
O93 C101 1.284 . S
Zn94 O93 1.899 1_565 S
Zn94 O95 2.032 . S
Zn94 O98 2.086 . S
Zn94 O103 1.977 . S
O95 Zn94 2.032 . S
O95 C99 1.278 . S
C96 O97 1.203 . S
C96 O103 1.267 . S
O97 C96 1.203 . S
O98 C91 1.182 1_565 S
O98 Zn94 2.086 . S
C99 O95 1.278 . S
C99 O100 1.211 . S
O100 C99 1.211 . S
C101 O93 1.284 . S
C101 O102 1.273 . S
O102 C101 1.273 . S
O103 Zn94 1.977 . S
O103 C96 1.267 . S
C104 O105 1.160 1_455 S
C104 O111 1.185 . S
O105 C104 1.160 1_655 S
O106 Zn107 1.899 1_655 S
O106 C114 1.284 . S
Zn107 O106 1.899 1_455 S
Zn107 O108 2.032 . S
Zn107 O111 2.086 . S
Zn107 O116 1.977 . S
O108 Zn107 2.032 . S
O108 C112 1.278 . S
C109 O110 1.203 . S
C109 O116 1.267 . S
O110 C109 1.203 . S
O111 C104 1.185 . S
O111 Zn107 2.086 . S
C112 O108 1.278 . S
C112 O113 1.211 . S
O113 C112 1.211 . S
C114 O106 1.284 . S
C114 O115 1.273 . S
O115 C114 1.273 . S
O116 Zn107 1.977 . S
O116 C109 1.267 . S
C117 O118 1.161 1_565 S
C117 O124 1.183 . S
O118 C117 1.161 1_545 S
O119 Zn120 1.899 1_545 S
O119 C127 1.284 . S
Zn120 O119 1.899 1_565 S
Zn120 O121 2.032 . S
Zn120 O124 2.086 . S
Zn120 O129 1.977 . S
O121 Zn120 2.032 . S
O121 C125 1.278 . S
C122 O123 1.203 . S
C122 O129 1.267 . S
O123 C122 1.203 . S
O124 C117 1.183 . S
O124 Zn120 2.086 . S
C125 O121 1.278 . S
C125 O126 1.211 . S
O126 C125 1.211 . S
C127 O119 1.284 . S
C127 O128 1.273 . S
O128 C127 1.273 . S
O129 Zn120 1.977 . S
O129 C122 1.267 . S
C130 O131 1.160 . S
C130 O137 1.185 . S
O131 C130 1.160 . S
O132 Zn133 1.899 1_655 S
O132 C140 1.284 1_655 S
Zn133 O132 1.899 1_455 S
Zn133 O134 2.032 . S
Zn133 O137 2.086 1_455 S
Zn133 O142 1.977 . S
O134 Zn133 2.032 . S
O134 C138 1.278 . S
C135 O136 1.203 . S
C135 O142 1.267 . S
O136 C135 1.203 . S
O137 C130 1.185 . S
O137 Zn133 2.086 1_655 S
C138 O134 1.278 . S
C138 O139 1.211 . S
O139 C138 1.211 . S
C140 O132 1.284 1_455 S
C140 O141 1.273 . S
O141 C140 1.273 . S
O142 Zn133 1.977 . S
O142 C135 1.267 . S
C143 O144 1.160 . S
C143 O150 1.185 . S
O144 C143 1.160 . S
O145 Zn146 1.899 . S
O145 C153 1.284 . S
Zn146 O145 1.899 . S
Zn146 O147 2.032 . S
Zn146 O150 2.086 . S
Zn146 O155 1.977 . S
O147 Zn146 2.032 . S
O147 C151 1.278 . S
C148 O149 1.203 . S
C148 O155 1.267 . S
O149 C148 1.203 . S
O150 C143 1.185 . S
O150 Zn146 2.086 . S
C151 O147 1.278 . S
C151 O152 1.211 . S
O152 C151 1.211 . S
C153 O145 1.284 . S
C153 O154 1.273 . S
O154 C153 1.273 . S
O155 Zn146 1.977 . S
O155 C148 1.267 . S
C156 O157 1.160 1_545 S
C156 O163 1.185 . S
O157 C156 1.160 1_565 S
O158 Zn159 1.899 1_565 S
O158 C166 1.284 . S
Zn159 O158 1.899 1_545 S
Zn159 O160 2.032 . S
Zn159 O163 2.086 . S
Zn159 O168 1.977 . S
O160 Zn159 2.032 . S
O160 C164 1.278 . S
C161 O162 1.203 . S
C161 O168 1.267 . S
O162 C161 1.203 . S
O163 C156 1.185 . S
O163 Zn159 2.086 . S
C164 O160 1.278 . S
C164 O165 1.211 . S
O165 C164 1.211 . S
C166 O158 1.284 . S
C166 O167 1.273 . S
O167 C166 1.273 . S
O168 Zn159 1.977 . S
O168 C161 1.267 . S
C169 O170 1.160 . S
C169 O176 1.185 . S
O170 C169 1.160 . S
O171 Zn172 1.899 1_455 S
O171 C179 1.284 1_455 S
Zn172 O171 1.899 1_655 S
Zn172 O173 2.032 . S
Zn172 O176 2.086 1_655 S
Zn172 O181 1.977 . S
O173 Zn172 2.032 . S
O173 C177 1.278 . S
C174 O175 1.203 . S
C174 O181 1.267 . S
O175 C174 1.203 . S
O176 C169 1.185 . S
O176 Zn172 2.086 1_455 S
C177 O173 1.278 . S
C177 O178 1.211 . S
O178 C177 1.211 . S
C179 O171 1.284 1_655 S
C179 O180 1.273 . S
O180 C179 1.273 . S
O181 Zn172 1.977 . S
O181 C174 1.267 . S
C182 O183 1.160 . S
C182 O189 1.185 . S
O183 C182 1.160 . S
O184 Zn185 1.899 . S
O184 C192 1.284 . S
Zn185 O184 1.899 . S
Zn185 O186 2.032 . S
Zn185 O189 2.086 . S
Zn185 O194 1.977 . S
O186 Zn185 2.032 . S
O186 C190 1.278 . S
C187 O188 1.203 . S
C187 O194 1.267 . S
O188 C187 1.203 . S
O189 C182 1.185 . S
O189 Zn185 2.086 . S
C190 O186 1.278 . S
C190 O191 1.211 . S
O191 C190 1.211 . S
C192 O184 1.284 . S
C192 O193 1.273 . S
O193 C192 1.273 . S
O194 Zn185 1.977 . S
O194 C187 1.267 . S
C195 O196 1.160 . S
C195 O202 1.185 . S
O196 C195 1.160 . S
O197 Zn198 1.899 . S
O197 C205 1.284 . S
Zn198 O197 1.899 . S
Zn198 O199 2.032 . S
Zn198 O202 2.086 . S
Zn198 O207 1.977 . S
O199 Zn198 2.032 . S
O199 C203 1.278 . S
C200 O201 1.203 . S
C200 O207 1.267 . S
O201 C200 1.203 . S
O202 C195 1.185 . S
O202 Zn198 2.086 . S
C203 O199 1.278 . S
C203 O204 1.211 . S
O204 C203 1.211 . S
C205 O197 1.284 . S
C205 O206 1.273 . S
O206 C205 1.273 . S
O207 Zn198 1.977 . S
O207 C200 1.267 . S
C208 O209 1.160 1_545 S
C208 O215 1.185 . S
O209 C208 1.160 1_565 S
O210 Zn211 1.899 1_565 S
O210 C218 1.284 . S
Zn211 O210 1.899 1_545 S
Zn211 O212 2.032 . S
Zn211 O215 2.086 . S
Zn211 O220 1.977 . S
O212 Zn211 2.032 . S
O212 C216 1.278 . S
C213 O214 1.203 . S
C213 O220 1.267 . S
O214 C213 1.203 . S
O215 C208 1.185 . S
O215 Zn211 2.086 . S
C216 O212 1.278 . S
C216 O217 1.211 . S
O217 C216 1.211 . S
C218 O210 1.284 . S
C218 O219 1.273 . S
O219 C218 1.273 . S
O220 Zn211 1.977 . S
O220 C213 1.267 . S
C221 O222 1.160 1_655 S
C221 O228 1.185 . S
O222 C221 1.160 1_455 S
O223 Zn224 1.899 1_455 S
O223 C231 1.284 . S
Zn224 O223 1.899 1_655 S
Zn224 O225 2.032 . S
Zn224 O228 2.086 . S
Zn224 O233 1.977 . S
O225 Zn224 2.032 . S
O225 C229 1.278 . S
C226 O227 1.203 . S
C226 O233 1.267 . S
O227 C226 1.203 . S
O228 C221 1.185 . S
O228 Zn224 2.086 . S
C229 O225 1.278 . S
C229 O230 1.211 . S
O230 C229 1.211 . S
C231 O223 1.284 . S
C231 O232 1.273 . S
O232 C231 1.273 . S
O233 Zn224 1.977 . S
O233 C226 1.267 . S
H234 C242 0.930 . S
H235 C245 0.930 . S
H236 C247 0.930 . S
H237 C248 0.970 . S
H238 C248 0.970 . S
H239 C250 0.930 . S
H240 C252 0.930 . S
H241 C254 0.930 . S
C242 H234 0.930 . S
C242 C243 1.382 . S
C242 C244 1.426 . S
C243 C242 1.382 . S
C243 C247 1.389 . S
C244 C242 1.426 . S
C244 C245 1.375 . S
C244 C248 1.532 . S
C245 H235 0.930 . S
C245 C244 1.375 . S
C245 C246 1.416 . S
C246 C245 1.416 . S
C246 C247 1.371 . S
C247 H236 0.930 . S
C247 C243 1.389 . S
C247 C246 1.371 . S
C248 H237 0.970 . S
C248 H238 0.970 . S
C248 C244 1.532 . S
C248 C249 1.499 . S
C249 C248 1.499 . S
C249 C250 1.370 . S
C249 C254 1.415 . S
C250 H239 0.930 . S
C250 C249 1.370 . S
C250 C251 1.407 . S
C251 C250 1.407 . S
C251 C252 1.365 . S
C252 H240 0.930 . S
C252 C251 1.365 . S
C252 C253 1.393 . S
C253 C252 1.393 . S
C253 C254 1.387 . S
C254 H241 0.930 . S
C254 C249 1.415 . S
C254 C253 1.387 . S
H255 C263 0.930 . S
H256 C266 0.930 . S
H257 C268 0.930 . S
H258 C269 0.970 . S
H259 C269 0.970 . S
H260 C271 0.930 . S
H261 C273 0.930 . S
H262 C275 0.930 . S
C263 H255 0.930 . S
C263 C264 1.382 . S
C263 C265 1.426 . S
C264 C263 1.382 . S
C264 C268 1.389 . S
C265 C263 1.426 . S
C265 C266 1.375 . S
C265 C269 1.532 . S
C266 H256 0.930 . S
C266 C265 1.375 . S
C266 C267 1.416 . S
C267 C266 1.416 . S
C267 C268 1.371 . S
C268 H257 0.930 . S
C268 C264 1.389 . S
C268 C267 1.371 . S
C269 H258 0.970 . S
C269 H259 0.970 . S
C269 C265 1.532 . S
C269 C270 1.499 . S
C270 C269 1.499 . S
C270 C271 1.370 . S
C270 C275 1.415 . S
C271 H260 0.930 . S
C271 C270 1.370 . S
C271 C272 1.407 . S
C272 C271 1.407 . S
C272 C273 1.365 . S
C273 H261 0.930 . S
C273 C272 1.365 . S
C273 C274 1.393 . S
C274 C273 1.393 . S
C274 C275 1.387 . S
C275 H262 0.930 . S
C275 C270 1.415 . S
C275 C274 1.387 . S
H276 C284 0.930 . S
H277 C287 0.930 . S
H278 C289 0.930 . S
H279 C290 0.970 . S
H280 C290 0.970 . S
H281 C292 0.930 . S
H282 C294 0.930 . S
H283 C296 0.930 . S
C284 H276 0.930 . S
C284 C285 1.382 . S
C284 C286 1.426 . S
C285 C284 1.382 . S
C285 C289 1.389 . S
C286 C284 1.426 . S
C286 C287 1.375 . S
C286 C290 1.532 . S
C287 H277 0.930 . S
C287 C286 1.375 . S
C287 C288 1.416 . S
C288 C287 1.416 . S
C288 C289 1.371 . S
C289 H278 0.930 . S
C289 C285 1.389 . S
C289 C288 1.371 . S
C290 H279 0.970 . S
C290 H280 0.970 . S
C290 C286 1.532 . S
C290 C291 1.499 . S
C291 C290 1.499 . S
C291 C292 1.370 . S
C291 C296 1.415 . S
C292 H281 0.930 . S
C292 C291 1.370 . S
C292 C293 1.407 . S
C293 C292 1.407 . S
C293 C294 1.365 . S
C294 H282 0.930 . S
C294 C293 1.365 . S
C294 C295 1.393 . S
C295 C294 1.393 . S
C295 C296 1.387 . S
C296 H283 0.930 . S
C296 C291 1.415 . S
C296 C295 1.387 . S
H297 C305 0.930 . S
H298 C308 0.930 . S
H299 C310 0.930 . S
H300 C311 0.970 . S
H301 C311 0.970 . S
H302 C313 0.930 . S
H303 C315 0.930 . S
H304 C317 0.930 . S
C305 H297 0.930 . S
C305 C306 1.382 . S
C305 C307 1.426 . S
C306 C305 1.382 . S
C306 C310 1.389 . S
C307 C305 1.426 . S
C307 C308 1.375 . S
C307 C311 1.532 . S
C308 H298 0.930 . S
C308 C307 1.375 . S
C308 C309 1.416 . S
C309 C308 1.416 . S
C309 C310 1.371 . S
C310 H299 0.930 . S
C310 C306 1.389 . S
C310 C309 1.371 . S
C311 H300 0.970 . S
C311 H301 0.970 . S
C311 C307 1.532 . S
C311 C312 1.499 . S
C312 C311 1.499 . S
C312 C313 1.370 . S
C312 C317 1.415 . S
C313 H302 0.930 . S
C313 C312 1.370 . S
C313 C314 1.407 . S
C314 C313 1.407 . S
C314 C315 1.365 . S
C315 H303 0.930 . S
C315 C314 1.365 . S
C315 C316 1.393 . S
C316 C315 1.393 . S
C316 C317 1.387 . S
C317 H304 0.930 . S
C317 C312 1.415 . S
C317 C316 1.387 . S
H318 C326 0.930 . S
H319 C329 0.930 . S
H320 C331 0.930 . S
H321 C332 0.970 . S
H322 C332 0.970 . S
H323 C334 0.930 . S
H324 C336 0.930 . S
H325 C338 0.930 . S
C326 H318 0.930 . S
C326 C327 1.382 . S
C326 C328 1.426 . S
C327 C326 1.382 . S
C327 C331 1.389 . S
C328 C326 1.426 . S
C328 C329 1.375 . S
C328 C332 1.532 . S
C329 H319 0.930 . S
C329 C328 1.375 . S
C329 C330 1.416 . S
C330 C329 1.416 . S
C330 C331 1.371 . S
C331 H320 0.930 . S
C331 C327 1.389 . S
C331 C330 1.371 . S
C332 H321 0.970 . S
C332 H322 0.970 . S
C332 C328 1.532 . S
C332 C333 1.499 . S
C333 C332 1.499 . S
C333 C334 1.370 . S
C333 C338 1.415 . S
C334 H323 0.930 . S
C334 C333 1.370 . S
C334 C335 1.407 . S
C335 C334 1.407 . S
C335 C336 1.365 . S
C336 H324 0.930 . S
C336 C335 1.365 . S
C336 C337 1.393 . S
C337 C336 1.393 . S
C337 C338 1.387 . S
C338 H325 0.930 . S
C338 C333 1.415 . S
C338 C337 1.387 . S
H339 C347 0.930 . S
H340 C350 0.930 . S
H341 C352 0.930 . S
H342 C353 0.970 . S
H343 C353 0.970 . S
H344 C355 0.930 . S
H345 C357 0.930 . S
H346 C359 0.930 . S
C347 H339 0.930 . S
C347 C348 1.382 . S
C347 C349 1.426 . S
C348 C347 1.382 . S
C348 C352 1.389 . S
C349 C347 1.426 . S
C349 C350 1.375 . S
C349 C353 1.532 . S
C350 H340 0.930 . S
C350 C349 1.375 . S
C350 C351 1.416 . S
C351 C350 1.416 . S
C351 C352 1.371 . S
C352 H341 0.930 . S
C352 C348 1.389 . S
C352 C351 1.371 . S
C353 H342 0.970 . S
C353 H343 0.970 . S
C353 C349 1.532 . S
C353 C354 1.499 . S
C354 C353 1.499 . S
C354 C355 1.370 . S
C354 C359 1.415 . S
C355 H344 0.930 . S
C355 C354 1.370 . S
C355 C356 1.407 . S
C356 C355 1.407 . S
C356 C357 1.365 . S
C357 H345 0.930 . S
C357 C356 1.365 . S
C357 C358 1.393 . S
C358 C357 1.393 . S
C358 C359 1.387 . S
C359 H346 0.930 . S
C359 C354 1.415 . S
C359 C358 1.387 . S
H360 C368 0.930 . S
H361 C371 0.930 . S
H362 C373 0.930 . S
H363 C374 0.970 . S
H364 C374 0.970 . S
H365 C376 0.930 . S
H366 C378 0.930 . S
H367 C380 0.930 . S
C368 H360 0.930 . S
C368 C369 1.382 . S
C368 C370 1.426 . S
C369 C368 1.382 . S
C369 C373 1.389 . S
C370 C368 1.426 . S
C370 C371 1.375 . S
C370 C374 1.532 . S
C371 H361 0.930 . S
C371 C370 1.375 . S
C371 C372 1.416 . S
C372 C371 1.416 . S
C372 C373 1.371 . S
C373 H362 0.930 . S
C373 C369 1.389 . S
C373 C372 1.371 . S
C374 H363 0.970 . S
C374 H364 0.970 . S
C374 C370 1.532 . S
C374 C375 1.499 . S
C375 C374 1.499 . S
C375 C376 1.370 . S
C375 C380 1.415 . S
C376 H365 0.930 . S
C376 C375 1.370 . S
C376 C377 1.407 . S
C377 C376 1.407 . S
C377 C378 1.365 . S
C378 H366 0.930 . S
C378 C377 1.365 . S
C378 C379 1.393 . S
C379 C378 1.393 . S
C379 C380 1.387 . S
C380 H367 0.930 . S
C380 C375 1.415 . S
C380 C379 1.387 . S
H381 C389 0.930 . S
H382 C392 0.930 . S
H383 C394 0.930 . S
H384 C395 0.970 . S
H385 C395 0.970 . S
H386 C397 0.930 . S
H387 C399 0.930 . S
H388 C401 0.930 . S
C389 H381 0.930 . S
C389 C390 1.382 . S
C389 C391 1.426 . S
C390 C389 1.382 . S
C390 C394 1.389 . S
C391 C389 1.426 . S
C391 C392 1.375 . S
C391 C395 1.532 . S
C392 H382 0.930 . S
C392 C391 1.375 . S
C392 C393 1.416 . S
C393 C392 1.416 . S
C393 C394 1.371 . S
C394 H383 0.930 . S
C394 C390 1.389 . S
C394 C393 1.371 . S
C395 H384 0.970 . S
C395 H385 0.970 . S
C395 C391 1.532 . S
C395 C396 1.499 . S
C396 C395 1.499 . S
C396 C397 1.370 . S
C396 C401 1.415 . S
C397 H386 0.930 . S
C397 C396 1.370 . S
C397 C398 1.407 . S
C398 C397 1.407 . S
C398 C399 1.365 . S
C399 H387 0.930 . S
C399 C398 1.365 . S
C399 C400 1.393 . S
C400 C399 1.393 . S
C400 C401 1.387 . S
C401 H388 0.930 . S
C401 C396 1.415 . S
C401 C400 1.387 . S
H402 C410 0.930 . S
H403 C413 0.930 . S
H404 C415 0.930 . S
H405 C416 0.970 . S
H406 C416 0.970 . S
H407 C418 0.930 . S
H408 C420 0.930 . S
H409 C422 0.930 . S
C410 H402 0.930 . S
C410 C411 1.382 . S
C410 C412 1.426 . S
C411 C410 1.382 . S
C411 C415 1.389 . S
C412 C410 1.426 . S
C412 C413 1.375 . S
C412 C416 1.532 . S
C413 H403 0.930 . S
C413 C412 1.375 . S
C413 C414 1.416 . S
C414 C413 1.416 . S
C414 C415 1.371 . S
C415 H404 0.930 . S
C415 C411 1.389 . S
C415 C414 1.371 . S
C416 H405 0.970 . S
C416 H406 0.970 . S
C416 C412 1.532 . S
C416 C417 1.499 . S
C417 C416 1.499 . S
C417 C418 1.370 . S
C417 C422 1.415 . S
C418 H407 0.930 . S
C418 C417 1.370 . S
C418 C419 1.407 . S
C419 C418 1.407 . S
C419 C420 1.365 . S
C420 H408 0.930 . S
C420 C419 1.365 . S
C420 C421 1.393 . S
C421 C420 1.393 . S
C421 C422 1.387 . S
C422 H409 0.930 . S
C422 C417 1.415 . S
C422 C421 1.387 . S
H423 C431 0.930 . S
H424 C434 0.930 . S
H425 C436 0.930 . S
H426 C437 0.970 . S
H427 C437 0.970 . S
H428 C439 0.930 . S
H429 C441 0.930 . S
H430 C443 0.930 . S
C431 H423 0.930 . S
C431 C432 1.382 . S
C431 C433 1.426 . S
C432 C431 1.382 . S
C432 C436 1.389 1_455 S
C433 C431 1.426 . S
C433 C434 1.375 . S
C433 C437 1.532 . S
C434 H424 0.930 . S
C434 C433 1.375 . S
C434 C435 1.416 . S
C435 C434 1.416 . S
C435 C436 1.371 1_455 S
C436 H425 0.930 . S
C436 C432 1.389 1_655 S
C436 C435 1.371 1_655 S
C437 H426 0.970 . S
C437 H427 0.970 . S
C437 C433 1.532 . S
C437 C438 1.499 . S
C438 C437 1.499 . S
C438 C439 1.370 . S
C438 C443 1.415 . S
C439 H428 0.930 . S
C439 C438 1.370 . S
C439 C440 1.407 . S
C440 C439 1.407 . S
C440 C441 1.365 1_455 S
C441 H429 0.930 . S
C441 C440 1.365 1_655 S
C441 C442 1.393 1_655 S
C442 C441 1.393 1_455 S
C442 C443 1.387 . S
C443 H430 0.930 . S
C443 C438 1.415 . S
C443 C442 1.387 . S
H444 C452 0.930 . S
H445 C455 0.930 . S
H446 C457 0.930 . S
H447 C458 0.970 . S
H448 C458 0.970 . S
H449 C460 0.930 . S
H450 C462 0.930 . S
H451 C464 0.930 . S
C452 H444 0.930 . S
C452 C453 1.382 . S
C452 C454 1.426 . S
C453 C452 1.382 . S
C453 C457 1.389 . S
C454 C452 1.426 . S
C454 C455 1.375 . S
C454 C458 1.532 . S
C455 H445 0.930 . S
C455 C454 1.375 . S
C455 C456 1.416 . S
C456 C455 1.416 . S
C456 C457 1.371 . S
C457 H446 0.930 . S
C457 C453 1.389 . S
C457 C456 1.371 . S
C458 H447 0.970 . S
C458 H448 0.970 . S
C458 C454 1.532 . S
C458 C459 1.499 . S
C459 C458 1.499 . S
C459 C460 1.370 . S
C459 C464 1.415 . S
C460 H449 0.930 . S
C460 C459 1.370 . S
C460 C461 1.407 . S
C461 C460 1.407 . S
C461 C462 1.365 . S
C462 H450 0.930 . S
C462 C461 1.365 . S
C462 C463 1.393 . S
C463 C462 1.393 . S
C463 C464 1.387 . S
C464 H451 0.930 . S
C464 C459 1.415 . S
C464 C463 1.387 . S
H465 C473 0.930 . S
H466 C476 0.930 . S
H467 C478 0.930 . S
H468 C479 0.970 . S
H469 C479 0.970 . S
H470 C481 0.930 . S
H471 C483 0.930 . S
H472 C485 0.930 . S
C473 H465 0.930 . S
C473 C474 1.382 . S
C473 C475 1.426 . S
C474 C473 1.382 . S
C474 C478 1.389 1_565 S
C475 C473 1.426 . S
C475 C476 1.375 . S
C475 C479 1.532 . S
C476 H466 0.930 . S
C476 C475 1.375 . S
C476 C477 1.416 . S
C477 C476 1.416 . S
C477 C478 1.371 1_565 S
C478 H467 0.930 . S
C478 C474 1.389 1_545 S
C478 C477 1.371 1_545 S
C479 H468 0.970 . S
C479 H469 0.970 . S
C479 C475 1.532 . S
C479 C480 1.499 . S
C480 C479 1.499 . S
C480 C481 1.370 . S
C480 C485 1.415 . S
C481 H470 0.930 . S
C481 C480 1.370 . S
C481 C482 1.425 . S
C482 C481 1.425 . S
C482 C483 1.358 1_565 S
C483 H471 0.930 . S
C483 C482 1.358 1_545 S
C483 C484 1.393 1_545 S
C484 C483 1.393 1_565 S
C484 C485 1.387 . S
C485 H472 0.930 . S
C485 C480 1.415 . S
C485 C484 1.387 . S
H486 C494 0.930 . S
H487 C497 0.930 . S
H488 C499 0.930 . S
H489 C500 0.970 . S
H490 C500 0.970 . S
H491 C502 0.930 . S
H492 C504 0.930 . S
H493 C506 0.930 . S
C494 H486 0.930 . S
C494 C495 1.382 . S
C494 C496 1.426 . S
C495 C494 1.382 . S
C495 C499 1.389 1_565 S
C496 C494 1.426 . S
C496 C497 1.375 . S
C496 C500 1.532 . S
C497 H487 0.930 . S
C497 C496 1.375 . S
C497 C498 1.416 . S
C498 C497 1.416 . S
C498 C499 1.371 1_565 S
C499 H488 0.930 . S
C499 C495 1.389 1_545 S
C499 C498 1.371 1_545 S
C500 H489 0.970 . S
C500 H490 0.970 . S
C500 C496 1.532 . S
C500 C501 1.499 . S
C501 C500 1.499 . S
C501 C502 1.370 . S
C501 C506 1.415 . S
C502 H491 0.930 . S
C502 C501 1.370 . S
C502 C503 1.407 . S
C503 C502 1.407 . S
C503 C504 1.365 1_565 S
C504 H492 0.930 . S
C504 C503 1.365 1_545 S
C504 C505 1.393 1_545 S
C505 C504 1.393 1_565 S
C505 C506 1.387 . S
C506 H493 0.930 . S
C506 C501 1.415 . S
C506 C505 1.387 . S
H507 C515 0.930 . S
H508 C518 0.930 . S
H509 C520 0.930 . S
H510 C521 0.970 . S
H511 C521 0.970 . S
H512 C523 0.930 . S
H513 C525 0.930 . S
H514 C527 0.930 . S
C515 H507 0.930 . S
C515 C516 1.382 . S
C515 C517 1.426 . S
C516 C515 1.382 . S
C516 C520 1.389 1_455 S
C517 C515 1.426 . S
C517 C518 1.375 . S
C517 C521 1.532 . S
C518 H508 0.930 . S
C518 C517 1.375 . S
C518 C519 1.416 . S
C519 C518 1.416 . S
C519 C520 1.371 1_455 S
C520 H509 0.930 . S
C520 C516 1.389 1_655 S
C520 C519 1.371 1_655 S
C521 H510 0.970 . S
C521 H511 0.970 . S
C521 C517 1.532 . S
C521 C522 1.499 . S
C522 C521 1.499 . S
C522 C523 1.370 . S
C522 C527 1.415 . S
C523 H512 0.930 . S
C523 C522 1.370 . S
C523 C524 1.407 . S
C524 C523 1.407 . S
C524 C525 1.365 1_455 S
C525 H513 0.930 . S
C525 C524 1.365 1_655 S
C525 C526 1.393 1_655 S
C526 C525 1.393 1_455 S
C526 C527 1.387 . S
C527 H514 0.930 . S
C527 C522 1.415 . S
C527 C526 1.387 . S
H528 C536 0.930 . S
H529 C539 0.930 . S
H530 C541 0.930 . S
H531 C542 0.970 . S
H532 C542 0.970 . S
H533 C544 0.930 . S
H534 C546 0.930 . S
H535 C548 0.930 . S
C536 H528 0.930 . S
C536 C537 1.382 . S
C536 C538 1.426 . S
C537 C536 1.382 . S
C537 C541 1.389 . S
C538 C536 1.426 . S
C538 C539 1.375 . S
C538 C542 1.532 . S
C539 H529 0.930 . S
C539 C538 1.375 . S
C539 C540 1.416 . S
C540 C539 1.416 . S
C540 C541 1.371 . S
C541 H530 0.930 . S
C541 C537 1.389 . S
C541 C540 1.371 . S
C542 H531 0.970 . S
C542 H532 0.970 . S
C542 C538 1.532 . S
C542 C543 1.499 . S
C543 C542 1.499 . S
C543 C544 1.370 . S
C543 C548 1.415 . S
C544 H533 0.930 . S
C544 C543 1.370 . S
C544 C545 1.407 . S
C545 C544 1.407 . S
C545 C546 1.365 . S
C546 H534 0.930 . S
C546 C545 1.365 . S
C546 C547 1.393 . S
C547 C546 1.393 . S
C547 C548 1.387 . S
C548 H535 0.930 . S
C548 C543 1.415 . S
C548 C547 1.387 . S
H549 C557 0.930 . S
H550 C560 0.930 . S
H551 C562 0.930 . S
H552 C563 0.970 . S
H553 C563 0.970 . S
H554 C565 0.930 . S
H555 C567 0.930 . S
H556 C569 0.930 . S
C557 H549 0.930 . S
C557 C558 1.382 . S
C557 C559 1.426 . S
C558 C557 1.382 . S
C558 C562 1.389 . S
C559 C557 1.426 . S
C559 C560 1.375 . S
C559 C563 1.532 . S
C560 H550 0.930 . S
C560 C559 1.375 . S
C560 C561 1.416 . S
C561 C560 1.416 . S
C561 C562 1.371 . S
C562 H551 0.930 . S
C562 C558 1.389 . S
C562 C561 1.371 . S
C563 H552 0.970 . S
C563 H553 0.970 . S
C563 C559 1.532 . S
C563 C564 1.499 . S
C564 C563 1.499 . S
C564 C565 1.370 . S
C564 C569 1.415 . S
C565 H554 0.930 . S
C565 C564 1.370 . S
C565 C566 1.407 . S
C566 C565 1.407 . S
C566 C567 1.365 . S
C567 H555 0.930 . S
C567 C566 1.365 . S
C567 C568 1.393 . S
C568 C567 1.393 . S
C568 C569 1.387 . S
C569 H556 0.930 . S
C569 C564 1.415 . S
C569 C568 1.387 . S
H570 C578 0.930 . S
H571 C581 0.930 . S
H572 C583 0.930 . S
H573 C584 0.970 . S
H574 C584 0.970 . S
H575 C586 0.930 . S
H576 C588 0.930 . S
H577 C590 0.930 . S
C578 H570 0.930 . S
C578 C579 1.382 . S
C578 C580 1.426 . S
C579 C578 1.382 . S
C579 C583 1.389 . S
C580 C578 1.426 . S
C580 C581 1.375 . S
C580 C584 1.532 . S
C581 H571 0.930 . S
C581 C580 1.375 . S
C581 C582 1.416 . S
C582 C581 1.416 . S
C582 C583 1.371 . S
C583 H572 0.930 . S
C583 C579 1.389 . S
C583 C582 1.371 . S
C584 H573 0.970 . S
C584 H574 0.970 . S
C584 C580 1.532 . S
C584 C585 1.499 . S
C585 C584 1.499 . S
C585 C586 1.370 . S
C585 C590 1.415 . S
C586 H575 0.930 . S
C586 C585 1.370 . S
C586 C587 1.407 . S
C587 C586 1.407 . S
C587 C588 1.365 . S
C588 H576 0.930 . S
C588 C587 1.365 . S
C588 C589 1.393 . S
C589 C588 1.393 . S
C589 C590 1.387 . S
C590 H577 0.930 . S
C590 C585 1.415 . S
C590 C589 1.387 . S
H591 C599 0.930 . S
H592 C602 0.930 . S
H593 C604 0.930 . S
H594 C605 0.970 . S
H595 C605 0.970 . S
H596 C607 0.930 . S
H597 C609 0.930 . S
H598 C611 0.930 . S
C599 H591 0.930 . S
C599 C600 1.382 . S
C599 C601 1.426 . S
C600 C599 1.382 . S
C600 C604 1.389 . S
C601 C599 1.426 . S
C601 C602 1.375 . S
C601 C605 1.532 . S
C602 H592 0.930 . S
C602 C601 1.375 . S
C602 C603 1.416 . S
C603 C602 1.416 . S
C603 C604 1.371 . S
C604 H593 0.930 . S
C604 C600 1.389 . S
C604 C603 1.371 . S
C605 H594 0.970 . S
C605 H595 0.970 . S
C605 C601 1.532 . S
C605 C606 1.499 . S
C606 C605 1.499 . S
C606 C607 1.370 . S
C606 C611 1.415 . S
C607 H596 0.930 . S
C607 C606 1.370 . S
C607 C608 1.407 . S
C608 C607 1.407 . S
C608 C609 1.365 . S
C609 H597 0.930 . S
C609 C608 1.365 . S
C609 C610 1.393 . S
C610 C609 1.393 . S
C610 C611 1.387 . S
C611 H598 0.930 . S
C611 C606 1.415 . S
C611 C610 1.387 . S
C8 C440 1.626 1_655 S
C18 C453 1.583 . S
C482 C31 1.440 1_565 S
C34 C495 1.611 . S
C5 C516 1.564 . S
C21 C545 1.655 . S
C47 C524 1.601 . S
C537 C57 1.483 . S
C503 C70 1.458 . S
C73 C474 1.720 1_545 S
C432 C44 1.496 1_455 S
C60 C461 1.645 . S
C86 C566 1.639 . S
C96 C579 1.657 . S
C608 C109 1.510 . S
C112 C243 1.773 . S
C83 C264 1.733 . S
C99 C293 1.698 . S
C125 C272 1.640 . S
C135 C285 1.507 . S
C251 C148 1.584 . S
C600 C151 1.656 . S
C558 C122 1.514 . S
C587 C138 1.709 . S
C164 C314 1.628 . S
C174 C327 1.637 . S
C187 C356 1.495 . S
C190 C369 1.795 . S
C390 C161 1.750 . S
C419 C177 1.693 . S
C398 C203 1.664 . S
C411 C213 1.506 . S
C226 C377 1.602 . S
C348 C229 1.645 . S
C200 C306 1.521 . S
C335 C216 1.708 . S
C246 C0 1.321 . S
C23 C267 1.425 . S
C295 C36 1.369 . S
C316 C26 1.265 . S
C330 C10 1.469 . S
C358 C13 1.149 . S
C39 C351 1.184 . S
C62 C309 1.226 . S
C75 C337 1.642 . S
C65 C274 1.431 . S
C288 C49 1.295 . S
C52 C253 1.360 . S
C372 C78 1.288 . S
C101 C393 1.430 . S
C114 C421 1.305 . S
C442 C104 1.215 . S
C88 C456 1.382 . S
C91 C484 1.221 1_545 S
C117 C477 1.186 . S
C140 C435 1.148 . S
C463 C153 1.503 . S
C143 C400 1.360 . S
C127 C414 1.261 . S
C379 C130 1.374 . S
C498 C156 1.136 1_565 S
C179 C519 1.232 1_655 S
C192 C547 1.276 . S
C568 C182 1.191 . S
C582 C166 1.426 . S
C169 C610 1.188 . S
C195 C603 1.167 . S
C218 C561 1.257 . S
C589 C231 1.536 . S
C526 C221 1.217 1_455 S
C540 C205 1.228 . S
C208 C505 1.159 1_545 S
