# Generated by pormake.
# Topology ant, (3,6)-cn, num edge types: 1
# Building blocks:
#     Node 0, Type 0, BuildingBlock: CUQRIR_clean_linker_1, # of connection points: 3
#     Node 1, Type 0, BuildingBlock: CUQRIR_clean_linker_1, # of connection points: 3
#     Node 2, Type 0, BuildingBlock: CUQRIR_clean_linker_1, # of connection points: 3
#     Node 3, Type 0, BuildingBlock: CUQRIR_clean_linker_1, # of connection points: 3
#     Node 4, Type 0, BuildingBlock: CUQRIR_clean_linker_1, # of connection points: 3
#     Node 5, Type 0, BuildingBlock: CUQRIR_clean_linker_1, # of connection points: 3
#     Node 6, Type 0, BuildingBlock: CUQRIR_clean_linker_1, # of connection points: 3
#     Node 7, Type 0, BuildingBlock: CUQRIR_clean_linker_1, # of connection points: 3
#     Node 8, Type 1, BuildingBlock: MIDCAF_clean_sbu_0, # of connection points: 6
#     Node 9, Type 1, BuildingBlock: MIDCAF_clean_sbu_0, # of connection points: 6
#     Node 10, Type 1, BuildingBlock: MIDCAF_clean_sbu_0, # of connection points: 6
#     Node 11, Type 1, BuildingBlock: MIDCAF_clean_sbu_0, # of connection points: 6
#     Edge 12, Type (0, 1), BuildingBlock: XIVTED_clean_linker_0, # of connection points: 2
#     Edge 13, Type (0, 1), BuildingBlock: XIVTED_clean_linker_0, # of connection points: 2
#     Edge 14, Type (0, 1), BuildingBlock: XIVTED_clean_linker_0, # of connection points: 2
#     Edge 15, Type (0, 1), BuildingBlock: XIVTED_clean_linker_0, # of connection points: 2
#     Edge 16, Type (0, 1), BuildingBlock: XIVTED_clean_linker_0, # of connection points: 2
#     Edge 17, Type (0, 1), BuildingBlock: XIVTED_clean_linker_0, # of connection points: 2
#     Edge 18, Type (0, 1), BuildingBlock: XIVTED_clean_linker_0, # of connection points: 2
#     Edge 19, Type (0, 1), BuildingBlock: XIVTED_clean_linker_0, # of connection points: 2
#     Edge 20, Type (0, 1), BuildingBlock: XIVTED_clean_linker_0, # of connection points: 2
#     Edge 21, Type (0, 1), BuildingBlock: XIVTED_clean_linker_0, # of connection points: 2
#     Edge 22, Type (0, 1), BuildingBlock: XIVTED_clean_linker_0, # of connection points: 2
#     Edge 23, Type (0, 1), BuildingBlock: XIVTED_clean_linker_0, # of connection points: 2
#     Edge 24, Type (0, 1), BuildingBlock: XIVTED_clean_linker_0, # of connection points: 2
#     Edge 25, Type (0, 1), BuildingBlock: XIVTED_clean_linker_0, # of connection points: 2
#     Edge 26, Type (0, 1), BuildingBlock: XIVTED_clean_linker_0, # of connection points: 2
#     Edge 27, Type (0, 1), BuildingBlock: XIVTED_clean_linker_0, # of connection points: 2
#     Edge 28, Type (0, 1), BuildingBlock: XIVTED_clean_linker_0, # of connection points: 2
#     Edge 29, Type (0, 1), BuildingBlock: XIVTED_clean_linker_0, # of connection points: 2
#     Edge 30, Type (0, 1), BuildingBlock: XIVTED_clean_linker_0, # of connection points: 2
#     Edge 31, Type (0, 1), BuildingBlock: XIVTED_clean_linker_0, # of connection points: 2
#     Edge 32, Type (0, 1), BuildingBlock: XIVTED_clean_linker_0, # of connection points: 2
#     Edge 33, Type (0, 1), BuildingBlock: XIVTED_clean_linker_0, # of connection points: 2
#     Edge 34, Type (0, 1), BuildingBlock: XIVTED_clean_linker_0, # of connection points: 2
#     Edge 35, Type (0, 1), BuildingBlock: XIVTED_clean_linker_0, # of connection points: 2
# Relax obj value: 0.110
# Max RMSD: 0.219
# Mean RMSD: 0.147
data_MOF--net-ant--node1-MIDCAF_clean_sbu_0--node2-CUQRIR_clean_linker_1--edge1-XIVTED_clean_linker_0
_symmetry_space_group_name_H-M    P1
_symmetry_Int_Tables_number       1
_symmetry_cell_setting            triclinic
loop_
_symmetry_equiv_pos_as_xyz
'x, y, z'
_cell_length_a     26.905104
_cell_length_b     26.695386
_cell_length_c     66.695239
_cell_angle_alpha  84.821414
_cell_angle_beta   94.889113
_cell_angle_gamma 89.67863
loop_
_atom_site_label
_atom_site_type_symbol
_atom_site_fract_x
_atom_site_fract_y
_atom_site_fract_z
_atom_type_partial_charge
C0 C 0.1921 0.2729 0.07596 0.0
N1 N 0.19371 0.22994 0.06653 0.0
N2 N 0.17598 0.31244 0.06269 0.0
C3 C 0.20894 0.27706 0.09781 0.0
C4 C 0.16762 0.29191 0.04488 0.0
N5 N 0.17844 0.24201 0.0472 0.0
C6 C 0.14693 0.32024 0.02542 0.0
H7 H 0.17655 0.27106 0.10695 0.0
H8 H 0.22385 0.31504 0.1 0.0
H9 H 0.238 0.24826 0.10333 0.0
H10 H 0.12113 0.35075 0.02839 0.0
H11 H 0.12706 0.29491 0.01522 0.0
H12 H 0.17826 0.33755 0.01761 0.0
C13 C 0.06783 0.7972 0.33866 0.0
N14 N 0.10015 0.79516 0.32419 0.0
N15 N 0.02009 0.79911 0.33025 0.0
C16 C 0.08255 0.79184 0.361 0.0
C17 C 0.02447 0.79838 0.31028 0.0
N18 N 0.0728 0.79576 0.30658 0.0
C19 C 0.98126 0.79694 0.29444 0.0
H20 H 0.05067 0.77991 0.36973 0.0
H21 H 0.09563 0.8287 0.36569 0.0
H22 H 0.11375 0.76425 0.36464 0.0
H23 H 0.94748 0.81486 0.29927 0.0
H24 H 0.97288 0.75715 0.29205 0.0
H25 H 0.99074 0.81628 0.27985 0.0
C26 C 0.70355 0.76645 0.57832 0.0
N27 N 0.70368 0.72317 0.56907 0.0
N28 N 0.68682 0.80578 0.56509 0.0
C29 C 0.72202 0.77109 0.59998 0.0
C30 C 0.67669 0.78486 0.54747 0.0
N31 N 0.6871 0.73486 0.54986 0.0
C32 C 0.65378 0.8128 0.52827 0.0
H33 H 0.69033 0.76592 0.60955 0.0
H34 H 0.73764 0.80896 0.60179 0.0
H35 H 0.75096 0.74202 0.60531 0.0
H36 H 0.68378 0.83206 0.52025 0.0
H37 H 0.62692 0.84188 0.5317 0.0
H38 H 0.63454 0.78706 0.51809 0.0
C39 C 0.56378 0.31066 0.83747 0.0
N40 N 0.59946 0.30987 0.82422 0.0
N41 N 0.51771 0.3132 0.82752 0.0
C42 C 0.57316 0.31035 0.86001 0.0
C43 C 0.52617 0.314 0.80786 0.0
N44 N 0.57567 0.31251 0.80579 0.0
C45 C 0.48604 0.31178 0.79076 0.0
H46 H 0.57448 0.27086 0.86685 0.0
H47 H 0.54241 0.33015 0.86627 0.0
H48 H 0.60906 0.32854 0.8642 0.0
H49 H 0.44877 0.30441 0.79623 0.0
H50 H 0.49528 0.28204 0.78103 0.0
H51 H 0.48432 0.34824 0.78132 0.0
C52 C 0.00238 0.69868 0.90228 0.0
N53 N 0.01932 0.72762 0.9171 0.0
N54 N 0.00665 0.64921 0.9089 0.0
C55 C 0.98017 0.71852 0.88163 0.0
C56 C 0.02752 0.64905 0.92811 0.0
N57 N 0.03546 0.69657 0.93308 0.0
C58 C 0.03682 0.60254 0.94255 0.0
H59 H 0.93953 0.72476 0.88219 0.0
H60 H 0.98531 0.69126 0.87036 0.0
H61 H -0.00278 0.75483 0.8767 0.0
H62 H 0.07362 0.60434 0.95124 0.0
H63 H 0.036 0.56785 0.93456 0.0
H64 H 0.00782 0.60035 0.95346 0.0
C65 C 0.66762 0.80728 0.16717 0.0
N66 N 0.70315 0.80119 0.18301 0.0
N67 N 0.62176 0.81446 0.17366 0.0
C68 C 0.678 0.80871 0.14535 0.0
C69 C 0.63081 0.81228 0.19404 0.0
N70 N 0.68018 0.80517 0.19968 0.0
C71 C 0.59075 0.81135 0.20856 0.0
H72 H 0.64848 0.83026 0.13549 0.0
H73 H 0.679 0.76968 0.14091 0.0
H74 H 0.71475 0.82591 0.14301 0.0
H75 H 0.55542 0.79627 0.20186 0.0
H76 H 0.58369 0.8503 0.21227 0.0
H77 H 0.60226 0.788 0.22283 0.0
C78 C 0.50558 0.19396 0.40427 0.0
N79 N 0.52286 0.22169 0.41944 0.0
N80 N 0.50872 0.14418 0.41045 0.0
C81 C 0.48418 0.21531 0.38371 0.0
C82 C 0.52912 0.14257 0.42978 0.0
N83 N 0.538 0.18955 0.43521 0.0
C84 C 0.53703 0.09529 0.44386 0.0
H85 H 0.44366 0.22245 0.38419 0.0
H86 H 0.48889 0.18855 0.37221 0.0
H87 H 0.50217 0.25139 0.37917 0.0
H88 H 0.57435 0.09527 0.45228 0.0
H89 H 0.53411 0.06098 0.43565 0.0
H90 H 0.50871 0.09404 0.45505 0.0
C91 C 0.17468 0.30147 0.66518 0.0
N92 N 0.20958 0.29497 0.68121 0.0
N93 N 0.12878 0.30998 0.67137 0.0
C94 C 0.1857 0.30182 0.64346 0.0
C95 C 0.13714 0.30817 0.69176 0.0
N96 N 0.18621 0.29998 0.6977 0.0
C97 C 0.09655 0.30855 0.70602 0.0
H98 H 0.15694 0.32382 0.63337 0.0
H99 H 0.18584 0.26258 0.63922 0.0
H100 H 0.22298 0.31794 0.64125 0.0
H101 H 0.06141 0.29308 0.69932 0.0
H102 H 0.08934 0.34793 0.70915 0.0
H103 H 0.10747 0.28627 0.72059 0.0
Zn104 Zn 0.19924 0.69526 0.13983 0.0
Zn105 Zn 0.08775 0.83511 0.10592 0.0
Zn106 Zn 0.14961 0.76652 0.12125 0.0
C107 C 0.0926 0.76491 0.07729 0.0
C108 C 0.18041 0.88117 0.11117 0.0
O109 O 0.12374 0.75258 0.15168 0.0
O110 O 0.18102 0.70027 0.16758 0.0
C111 C 0.15352 0.65183 0.10823 0.0
O112 O 0.12241 0.74217 0.09143 0.0
O113 O 0.07242 0.80632 0.07994 0.0
O114 O 0.1348 0.89075 0.10638 0.0
O115 O 0.19552 0.83569 0.11673 0.0
O116 O 0.17265 0.63847 0.12581 0.0
O117 O 0.14555 0.69905 0.10261 0.0
O118 O 0.22825 0.79507 0.12507 0.0
O119 O 0.26541 0.72121 0.1332 0.0
C120 C 0.26851 0.76796 0.12863 0.0
O121 O 0.08249 0.7752 0.14012 0.0
O122 O 0.03408 0.83573 0.12401 0.0
C123 C 0.14347 0.72844 0.16807 0.0
C124 C 0.04203 0.80249 0.13859 0.0
Zn125 Zn 0.53957 0.6465 0.34732 0.0
Zn126 Zn 0.60438 0.76275 0.4005 0.0
Zn127 Zn 0.57019 0.70431 0.37459 0.0
C128 C 0.51958 0.81082 0.38391 0.0
C129 C 0.6784 0.75768 0.37492 0.0
O130 O 0.56095 0.6264 0.39004 0.0
O131 O 0.53435 0.58323 0.3645 0.0
C132 C 0.46425 0.71975 0.34841 0.0
O133 O 0.51802 0.77118 0.37411 0.0
O134 O 0.55471 0.81647 0.39719 0.0
O135 O 0.66982 0.77837 0.39056 0.0
O136 O 0.64505 0.7298 0.36658 0.0
O137 O 0.47576 0.68295 0.339 0.0
O138 O 0.49523 0.73462 0.36243 0.0
O139 O 0.6218 0.7081 0.34964 0.0
O140 O 0.59291 0.65342 0.3287 0.0
C141 C 0.62438 0.68629 0.33322 0.0
O142 O 0.58075 0.65787 0.40445 0.0
O143 O 0.60426 0.71632 0.42468 0.0
C144 C 0.54601 0.58482 0.38315 0.0
C145 C 0.59363 0.67127 0.42224 0.0
Zn146 Zn 0.59577 0.32668 0.60804 0.0
Zn147 Zn 0.70776 0.18934 0.64161 0.0
Zn148 Zn 0.6578 0.25878 0.62324 0.0
C149 C 0.77617 0.26005 0.62854 0.0
C150 C 0.65943 0.14386 0.61137 0.0
O151 O 0.59184 0.26664 0.64256 0.0
O152 O 0.54189 0.32536 0.62601 0.0
C153 C 0.68769 0.37359 0.61308 0.0
O154 O 0.73606 0.28748 0.62609 0.0
O155 O 0.77302 0.21318 0.63282 0.0
O156 O 0.6775 0.13155 0.62919 0.0
O157 O 0.65324 0.19089 0.60506 0.0
O158 O 0.64186 0.38314 0.60887 0.0
O159 O 0.70314 0.32802 0.61813 0.0
O160 O 0.62964 0.23354 0.59365 0.0
O161 O 0.58096 0.29848 0.58192 0.0
C162 C 0.60029 0.25656 0.57942 0.0
O163 O 0.63413 0.24659 0.65424 0.0
O164 O 0.69492 0.19809 0.66977 0.0
C165 C 0.5507 0.29285 0.64078 0.0
C166 C 0.65682 0.22524 0.67065 0.0
Zn167 Zn 0.02859 0.15756 0.84348 0.0
Zn168 Zn 0.10768 0.26442 0.8973 0.0
Zn169 Zn 0.06843 0.20886 0.87231 0.0
C170 C 0.10663 0.16998 0.91789 0.0
C171 C 0.01838 0.30974 0.8871 0.0
O172 O 0.11795 0.21058 0.84695 0.0
O173 O 0.08369 0.15968 0.82549 0.0
C174 C 0.03604 0.09267 0.87957 0.0
O175 O 0.08082 0.16022 0.90155 0.0
O176 O 0.1254 0.21276 0.91931 0.0
O177 O 0.05293 0.31038 0.90105 0.0
O178 O 0.01853 0.27573 0.87452 0.0
O179 O 0.01888 0.09538 0.86127 0.0
O180 O 0.05769 0.13098 0.88683 0.0
O181 O 0.99394 0.24271 0.86156 0.0
O182 O 0.9689 0.2015 0.83526 0.0
C183 C 0.96135 0.23517 0.84682 0.0
O184 O 0.14241 0.2353 0.86283 0.0
O185 O 0.16407 0.29319 0.88346 0.0
C186 C 0.11826 0.18913 0.83037 0.0
C187 C 0.17317 0.26898 0.8688 0.0
H188 H 0.11653 0.34381 0.08979 0.0
H189 H 0.19681 0.63181 0.074 0.0
H190 H 0.21342 0.39759 0.04468 0.0
H191 H 0.08841 0.57673 0.1142 0.0
H192 H 0.19688 0.54965 0.06 0.0
H193 H 0.10127 0.43076 0.09695 0.0
C194 C 0.13465 0.37416 0.08146 0.0
C195 C 0.16655 0.36372 0.06679 0.0
C196 C 0.17203 0.55595 0.07149 0.0
C197 C 0.14921 0.46358 0.0747 0.0
C198 C 0.17134 0.60318 0.0792 0.0
C199 C 0.14176 0.61132 0.09496 0.0
C200 C 0.1435 0.51653 0.07987 0.0
C201 C 0.11115 0.57217 0.10183 0.0
C202 C 0.12571 0.42382 0.08539 0.0
C203 C 0.18857 0.40431 0.05612 0.0
N204 N 0.11323 0.52646 0.09443 0.0
N205 N 0.17984 0.45244 0.06038 0.0
H206 H 0.97321 0.86394 0.35125 0.0
H207 H 0.72889 0.6934 0.35376 0.0
H208 H 0.96401 0.71649 0.33013 0.0
H209 H 0.74156 0.83577 0.37954 0.0
H210 H 0.81429 0.70224 0.34409 0.0
H211 H 0.88856 0.85428 0.36234 0.0
C212 C 0.95345 0.82921 0.34938 0.0
C213 C 0.9749 0.79088 0.33992 0.0
C214 C 0.7983 0.73168 0.35178 0.0
C215 C 0.87855 0.77973 0.3519 0.0
C216 C 0.74929 0.72695 0.35702 0.0
C217 C 0.72793 0.76421 0.3672 0.0
C218 C 0.82614 0.77388 0.35686 0.0
C219 C 0.75665 0.80618 0.37167 0.0
C220 C 0.9052 0.82376 0.35548 0.0
C221 C 0.94818 0.74667 0.33745 0.0
N222 N 0.80426 0.80987 0.36648 0.0
N223 N 0.90118 0.74239 0.34326 0.0
H224 H 0.6684 0.67832 0.60286 0.0
H225 H 0.74389 0.40568 0.58251 0.0
H226 H 0.76483 0.65346 0.55632 0.0
H227 H 0.69991 0.44273 0.63998 0.0
H228 H 0.76101 0.49479 0.57368 0.0
H229 H 0.68476 0.59202 0.61756 0.0
C230 C 0.69362 0.65479 0.59592 0.0
C231 C 0.71514 0.67292 0.57833 0.0
C232 C 0.74947 0.48323 0.58854 0.0
C233 C 0.73322 0.57346 0.59471 0.0
C234 C 0.74057 0.43222 0.59371 0.0
C235 C 0.72097 0.41696 0.61207 0.0
C236 C 0.73753 0.51896 0.6017 0.0
C237 C 0.71557 0.45304 0.62577 0.0
C238 C 0.70295 0.60547 0.60426 0.0
C239 C 0.74668 0.64049 0.56964 0.0
N240 N 0.72257 0.5025 0.62013 0.0
N241 N 0.75428 0.59207 0.57775 0.0
H242 H 0.65072 0.24655 0.85308 0.0
H243 H 0.91012 0.27258 0.81166 0.0
H244 H 0.67061 0.36271 0.80533 0.0
H245 H 0.90062 0.25435 0.87608 0.0
H246 H 0.82202 0.29903 0.80705 0.0
H247 H 0.74148 0.24002 0.8603 0.0
C248 C 0.6741 0.27128 0.84434 0.0
C249 C 0.65299 0.30575 0.82876 0.0
C250 C 0.83954 0.2902 0.8222 0.0
C251 C 0.75682 0.29683 0.83636 0.0
C252 C 0.88968 0.27526 0.82484 0.0
C253 C 0.91252 0.26152 0.84428 0.0
C254 C 0.81168 0.28954 0.83906 0.0
C255 C 0.88439 0.26509 0.86087 0.0
C256 C 0.72584 0.26734 0.8484 0.0
C257 C 0.68535 0.33535 0.81734 0.0
N258 N 0.83499 0.27761 0.85787 0.0
N259 N 0.7357 0.32977 0.82118 0.0
H260 H 0.04086 0.61264 0.87616 0.0
H261 H 0.00068 0.37142 0.85238 0.0
H262 H 0.93325 0.58721 0.91997 0.0
H263 H 0.96576 0.35163 0.91439 0.0
H264 H 0.98059 0.46144 0.85163 0.0
H265 H 0.02213 0.52996 0.86429 0.0
C266 C 0.01194 0.59017 0.88273 0.0
C267 C 0.9885 0.60632 0.89899 0.0
C268 C 0.97617 0.43719 0.86526 0.0
C269 C 0.96697 0.51166 0.8858 0.0
C270 C 0.98653 0.38563 0.86553 0.0
C271 C 0.98539 0.35441 0.88356 0.0
C272 C 0.9645 0.45711 0.88314 0.0
C273 C 0.96739 0.37469 0.90025 0.0
C274 C 0.00103 0.54303 0.87595 0.0
C275 C 0.95205 0.57568 0.90739 0.0
N276 N 0.95846 0.42493 0.89976 0.0
N277 N 0.94323 0.52932 0.90103 0.0
H278 H 0.77617 0.86091 0.19722 0.0
H279 H 0.99425 0.71508 0.14974 0.0
H280 H 0.75085 0.72761 0.16629 0.0
H281 H -0.00273 0.87319 0.15799 0.0
H282 H 0.91359 0.70923 0.16477 0.0
H283 H 0.86534 0.85601 0.19162 0.0
C284 C 0.78973 0.83015 0.18956 0.0
C285 C 0.75633 0.7949 0.18203 0.0
C286 C 0.93255 0.74493 0.16371 0.0
C287 C 0.85799 0.78869 0.17564 0.0
C288 C 0.97885 0.7481 0.1554 0.0
C289 C 0.00249 0.79464 0.15272 0.0
C290 C 0.91026 0.78848 0.16964 0.0
C291 C 0.98031 0.83656 0.15987 0.0
C292 C 0.84042 0.82744 0.18628 0.0
C293 C 0.77551 0.75577 0.17211 0.0
N294 N 0.93548 0.83258 0.16789 0.0
N295 N 0.825 0.75378 0.16912 0.0
H296 H 0.44524 0.28659 0.40999 0.0
H297 H 0.61676 0.5317 0.40917 0.0
H298 H 0.60241 0.27975 0.42852 0.0
H299 H 0.46285 0.52999 0.38548 0.0
H300 H 0.60996 0.44288 0.42248 0.0
H301 H 0.44863 0.37854 0.40661 0.0
C302 C 0.48048 0.30473 0.41332 0.0
C303 C 0.5238 0.27588 0.41907 0.0
C304 C 0.5774 0.46235 0.41477 0.0
C305 C 0.5283 0.38119 0.41545 0.0
C306 C 0.58117 0.51313 0.40741 0.0
C307 C 0.54023 0.538 0.39629 0.0
C308 C 0.53236 0.43676 0.41096 0.0
C309 C 0.49522 0.51208 0.39402 0.0
C310 C 0.4825 0.35717 0.41152 0.0
C311 C 0.56836 0.30098 0.42384 0.0
N312 N 0.49262 0.46296 0.4011 0.0
N313 N 0.56968 0.35226 0.42169 0.0
H314 H 0.09276 0.24534 0.6449 0.0
H315 H 0.81228 0.34948 0.64165 0.0
H316 H 0.05495 0.37956 0.6718 0.0
H317 H 0.85635 0.21682 0.61493 0.0
H318 H 0.90111 0.37021 0.6481 0.0
H319 H 0.00745 0.24293 0.62914 0.0
C320 C 0.06665 0.27494 0.6471 0.0
C321 C 0.08082 0.31258 0.65969 0.0
C322 C 0.89121 0.33711 0.64046 0.0
C323 C 0.98228 0.30951 0.64219 0.0
C324 C 0.84051 0.32558 0.63662 0.0
C325 C 0.827 0.28111 0.62793 0.0
C326 C 0.9283 0.30396 0.63548 0.0
C327 C 0.86512 0.25119 0.62187 0.0
C328 C 0.01773 0.27342 0.63826 0.0
C329 C 0.0452 0.34963 0.66233 0.0
N330 N 0.91376 0.26281 0.62595 0.0
N331 N -0.00258 0.34685 0.65389 0.0
H332 H 0.25492 0.21974 0.66468 0.0
H333 H 0.51154 0.36156 0.66276 0.0
H334 H 0.28449 0.35138 0.69624 0.0
H335 H 0.49755 0.20753 0.64904 0.0
H336 H 0.43107 0.35631 0.67735 0.0
H337 H 0.34438 0.21202 0.66028 0.0
C338 C 0.28054 0.2467 0.67083 0.0
C339 C 0.26255 0.28653 0.68064 0.0
C340 C 0.44599 0.32316 0.67164 0.0
C341 C 0.36475 0.27835 0.67562 0.0
C342 C 0.49216 0.32606 0.66346 0.0
C343 C 0.51144 0.28472 0.65494 0.0
C344 C 0.41794 0.27905 0.67069 0.0
C345 C 0.48434 0.23995 0.65579 0.0
C346 C 0.33155 0.24221 0.66843 0.0
C347 C 0.29709 0.32024 0.68857 0.0
N348 N 0.43848 0.23858 0.66313 0.0
N349 N 0.3464 0.31589 0.68563 0.0
H350 H 0.58544 0.7512 0.14663 0.0
H351 H 0.30461 0.85586 0.14331 0.0
H352 H 0.54741 0.88309 0.17502 0.0
H353 H 0.34911 0.72589 0.11496 0.0
H354 H 0.39349 0.87534 0.15081 0.0
H355 H 0.50011 0.7496 0.13078 0.0
C356 C 0.55927 0.78043 0.14918 0.0
C357 C 0.57345 0.81721 0.16217 0.0
C358 C 0.3837 0.84314 0.14258 0.0
C359 C 0.47484 0.81511 0.1445 0.0
C360 C 0.33297 0.83238 0.13812 0.0
C361 C 0.3195 0.78903 0.12861 0.0
C362 C 0.4209 0.81034 0.13741 0.0
C363 C 0.35781 0.75949 0.12247 0.0
C364 C 0.51033 0.77937 0.14027 0.0
C365 C 0.53771 0.8538 0.16523 0.0
N366 N 0.40645 0.77034 0.12713 0.0
N367 N 0.48995 0.85153 0.15668 0.0
H368 H 0.47422 0.22561 0.8378 0.0
H369 H 0.22436 0.35628 0.86539 0.0
H370 H 0.45319 0.38601 0.83397 0.0
H371 H 0.23177 0.20079 0.85295 0.0
H372 H 0.30938 0.36759 0.85571 0.0
H373 H 0.3875 0.21459 0.84632 0.0
C374 C 0.45129 0.25835 0.83924 0.0
C375 C 0.47036 0.30667 0.83565 0.0
C376 C 0.2923 0.33112 0.85487 0.0
C377 C 0.37165 0.29488 0.84478 0.0
C378 C 0.24376 0.32468 0.86034 0.0
C379 C 0.22106 0.27758 0.85989 0.0
C380 C 0.31876 0.28992 0.84926 0.0
C381 C 0.24781 0.23784 0.8533 0.0
C382 C 0.40188 0.25222 0.84379 0.0
C383 C 0.43954 0.34828 0.83706 0.0
N384 N 0.29555 0.24476 0.84843 0.0
N385 N 0.39157 0.34149 0.84156 0.0
H386 H 0.15461 0.71831 0.31321 0.0
H387 H 0.41126 0.78063 0.37089 0.0
H388 H 0.16695 0.85421 0.34333 0.0
H389 H 0.40034 0.70782 0.31548 0.0
H390 H 0.32245 0.80472 0.36443 0.0
H391 H 0.24501 0.70768 0.31773 0.0
C392 C 0.17652 0.74654 0.32037 0.0
C393 C 0.15356 0.7881 0.32726 0.0
C394 C 0.33999 0.78414 0.35361 0.0
C395 C 0.25707 0.77496 0.33348 0.0
C396 C 0.39072 0.77074 0.35719 0.0
C397 C 0.41344 0.74205 0.34375 0.0
C398 C 0.31193 0.76779 0.33672 0.0
C399 C 0.38451 0.72941 0.32642 0.0
C400 C 0.22811 0.74021 0.32318 0.0
C401 C 0.18359 0.82191 0.33765 0.0
N402 N 0.33532 0.7417 0.32359 0.0
N403 N 0.23399 0.81456 0.34056 0.0
H404 H 0.62802 0.83512 0.59274 0.0
H405 H 0.69985 0.12541 0.57633 0.0
H406 H 0.72115 0.89205 0.54675 0.0
H407 H 0.59826 0.06594 0.6187 0.0
H408 H 0.70057 0.04362 0.56207 0.0
H409 H 0.61118 0.92142 0.60022 0.0
C410 C 0.64502 0.86605 0.58429 0.0
C411 C 0.67641 0.85671 0.56932 0.0
C412 C 0.67706 0.04885 0.57412 0.0
C413 C 0.65718 0.95583 0.57756 0.0
C414 C 0.67595 0.09585 0.58199 0.0
C415 C 0.64819 0.10261 0.59843 0.0
C416 C 0.65071 0.00838 0.58299 0.0
C417 C 0.61967 0.06236 0.60585 0.0
C418 C 0.63516 0.91533 0.58841 0.0
C419 C 0.69682 0.89797 0.55845 0.0
N420 N 0.62207 0.01697 0.59825 0.0
N421 N 0.68723 0.94577 0.56289 0.0
H422 H 0.25985 0.16387 0.05448 0.0
H423 H 0.1928 0.94862 0.13874 0.0
H424 H 0.15717 0.18179 0.09949 0.0
H425 H 0.23603 0.9154 0.08067 0.0
H426 H 0.20878 0.03774 0.13 0.0
H427 H 0.27538 0.07627 0.06851 0.0
C428 C 0.24053 0.14931 0.06728 0.0
C429 C 0.20642 0.17974 0.0756 0.0
C430 C 0.21651 0.01077 0.11943 0.0
C431 C 0.22576 0.08067 0.0923 0.0
C432 C 0.20843 0.95979 0.12458 0.0
C433 C 0.21366 0.92465 0.11048 0.0
C434 C 0.22982 0.02668 0.1 0.0
C435 C 0.23236 0.94129 0.09207 0.0
C436 C 0.24991 0.09964 0.07543 0.0
C437 C 0.18388 0.15968 0.0927 0.0
N438 N 0.23893 0.99135 0.08717 0.0
N439 N 0.19382 0.11142 0.10044 0.0
H440 H 0.43231 0.08454 0.42002 0.0
H441 H 0.52098 0.87824 0.35121 0.0
H442 H 0.54401 0.10789 0.37782 0.0
H443 H 0.44836 0.84525 0.40582 0.0
H444 H 0.50143 0.96776 0.35218 0.0
H445 H 0.41225 0.00339 0.40679 0.0
C446 C 0.45158 0.07293 0.40756 0.0
C447 C 0.48997 0.10233 0.40001 0.0
C448 C 0.48798 0.94074 0.36351 0.0
C449 C 0.46769 0.00996 0.38487 0.0
C450 C 0.49827 0.88954 0.36273 0.0
C451 C 0.48613 0.85449 0.37845 0.0
C452 C 0.46529 0.95664 0.38011 0.0
C453 C 0.45804 0.87119 0.39336 0.0
C454 C 0.44028 0.02677 0.40005 0.0
C455 C 0.51414 0.08605 0.38394 0.0
N456 N 0.44942 0.92121 0.39407 0.0
N457 N 0.50309 0.04056 0.37706 0.0
H458 H 0.94054 0.79075 0.90684 0.0
H459 H 0.10521 0.04101 0.90704 0.0
H460 H 0.09744 0.78778 0.92591 0.0
H461 H 0.95558 0.03284 0.8789 0.0
H462 H 0.09984 0.95199 0.92034 0.0
H463 H 0.9422 0.88272 0.90254 0.0
C464 C 0.97536 0.80971 0.91008 0.0
C465 C 0.01914 0.78192 0.91623 0.0
C466 C 0.06793 0.97007 0.91155 0.0
C467 C 0.02158 0.88729 0.91161 0.0
C468 C 0.07084 0.02093 0.90415 0.0
C469 C 0.03086 0.04409 0.89177 0.0
C470 C 0.02457 0.94277 0.90665 0.0
C471 C 0.98739 0.01627 0.88826 0.0
C472 C 0.97637 0.86218 0.90775 0.0
C473 C 0.06307 0.80816 0.92092 0.0
N474 N 0.98555 0.96723 0.89551 0.0
N475 N 0.06339 0.85944 0.9183 0.0
H476 H 0.24325 0.21883 0.02095 0.0
H477 H 0.03471 0.14657 0.94315 0.0
H478 H 0.09508 0.18999 0.03817 0.0
H479 H 0.19018 0.12306 0.93591 0.0
H480 H 0.05431 0.14406 0.97971 0.0
H481 H 0.22562 0.17061 0.99165 0.0
C482 C 0.20735 0.20112 0.01868 0.0
C483 C 0.17067 0.20762 0.03186 0.0
C484 C 0.08398 0.13718 0.97026 0.0
C485 C 0.14914 0.15404 -0.00187 0.0
C486 C 0.07256 0.13754 0.94936 0.0
C487 C 0.11105 0.1359 0.93652 0.0
C488 C 0.13423 0.13561 0.97811 0.0
C489 C 0.15951 0.12496 0.94534 0.0
C490 C 0.19714 0.17356 0.00204 0.0
C491 C 0.12424 0.18511 0.02827 0.0
N492 N 0.17009 0.12712 0.96553 0.0
N493 N 0.11435 0.16006 0.01149 0.0
H494 H 0.07344 0.70537 0.29247 0.0
H495 H 0.10244 0.81429 0.17943 0.0
H496 H 0.10381 0.86148 0.27733 0.0
H497 H 0.1471 0.6625 0.20168 0.0
H498 H 0.08682 0.83124 0.21394 0.0
H499 H 0.08758 0.68768 0.25792 0.0
C500 C 0.08449 0.73553 0.28186 0.0
C501 C 0.08947 0.78443 0.28765 0.0
C502 C 0.09968 0.79418 0.21116 0.0
C503 C 0.10269 0.7655 0.24812 0.0
C504 C 0.10786 0.78427 0.1915 0.0
C505 C 0.12591 0.73688 0.18779 0.0
C506 C 0.10891 0.75616 0.22702 0.0
C507 C 0.13327 0.69954 0.20397 0.0
C508 C 0.09196 0.72569 0.26221 0.0
C509 C 0.10137 0.82309 0.27336 0.0
N510 N 0.12467 0.70995 0.22291 0.0
N511 N 0.10729 0.81292 0.25408 0.0
H512 H 0.60201 0.68335 0.54443 0.0
H513 H 0.67709 0.61935 0.43689 0.0
H514 H 0.74478 0.70945 0.5213 0.0
H515 H 0.52671 0.65028 0.44991 0.0
H516 H 0.70303 0.61277 0.47307 0.0
H517 H 0.5764 0.63675 0.51503 0.0
C518 C 0.62831 0.67777 0.53339 0.0
C519 C 0.67539 0.69982 0.53505 0.0
C520 C 0.6639 0.61877 0.4681 0.0
C521 C 0.64698 0.647 0.50173 0.0
C522 C 0.64885 0.62141 0.44745 0.0
C523 C 0.59983 0.63597 0.44046 0.0
C524 C 0.62944 0.63055 0.4817 0.0
C525 C 0.56493 0.63914 0.45476 0.0
C526 C 0.61384 0.65138 0.5167 0.0
C527 C 0.70826 0.6926 0.5204 0.0
N528 N 0.58063 0.63808 0.47474 0.0
N529 N 0.69335 0.66709 0.50424 0.0
H530 H 0.57062 0.37549 0.77191 0.0
H531 H 0.67776 0.16888 0.70656 0.0
H532 H 0.6259 0.23023 0.79764 0.0
H533 H 0.60494 0.30689 0.68047 0.0
H534 H 0.66342 0.19218 0.74018 0.0
H535 H 0.59022 0.35406 0.73845 0.0
C536 C 0.58792 0.33945 0.77043 0.0
C537 C 0.5969 0.30449 0.7873 0.0
C538 C 0.65017 0.21717 0.7271 0.0
C539 C 0.61844 0.27912 0.74933 0.0
C540 C 0.6581 0.20379 0.70789 0.0
C541 C 0.64199 0.23575 0.69066 0.0
C542 C 0.62637 0.26312 0.72913 0.0
C543 C 0.61701 0.28062 0.69328 0.0
C544 C 0.59866 0.32699 0.75141 0.0
C545 C 0.61905 0.25815 0.78487 0.0
N546 N 0.6102 0.29311 0.71217 0.0
N547 N 0.62878 0.24656 0.76616 0.0
H548 H 0.97252 0.74238 0.95481 0.0
H549 H 0.15503 0.70946 0.05696 0.0
H550 H 0.12099 0.6803 0.95728 0.0
H551 H 0.00912 0.77949 0.05174 0.0
H552 H 0.14233 0.69258 0.02124 0.0
H553 H 0.98544 0.7547 0.99081 0.0
C554 C 0.00815 0.73218 0.96301 0.0
C555 C 0.04577 0.71045 0.95332 0.0
C556 C 0.11295 0.71118 0.02801 0.0
C557 C 0.06078 0.72293 0.99448 0.0
C558 C 0.11994 0.7201 0.04844 0.0
C559 C 0.08306 0.74576 0.05727 0.0
C560 C 0.06879 0.72811 0.01649 0.0
C561 C 0.03866 0.75983 0.04547 0.0
C562 C 0.01546 0.7386 0.98355 0.0
C563 C 0.09116 0.69698 0.96445 0.0
N564 N 0.03292 0.75109 0.02572 0.0
N565 N 0.09741 0.70318 0.98453 0.0
H566 H 0.68614 0.86667 0.22963 0.0
H567 H 0.66782 0.62998 0.30731 0.0
H568 H 0.71753 0.71576 0.21634 0.0
H569 H 0.65752 0.78187 0.32378 0.0
H570 H 0.70447 0.66134 0.27645 0.0
H571 H 0.69426 0.83881 0.26585 0.0
C572 C 0.69677 0.82801 0.23451 0.0
C573 C 0.70114 0.79331 0.22017 0.0
C574 C 0.69534 0.68789 0.28697 0.0
C575 C 0.70867 0.76053 0.26137 0.0
C576 C 0.67452 0.66992 0.30465 0.0
C577 C 0.65902 0.70344 0.31798 0.0
C578 C 0.6996 0.73999 0.28228 0.0
C579 C 0.66877 0.75476 0.31386 0.0
C580 C 0.70096 0.81193 0.25513 0.0
C581 C 0.71416 0.7435 0.22704 0.0
N582 N 0.68734 0.77162 0.29612 0.0
N583 N 0.71638 0.72831 0.24714 0.0
H584 H 0.47672 0.23625 0.45738 0.0
H585 H 0.66232 0.20186 0.55865 0.0
H586 H 0.62324 0.16984 0.45929 0.0
H587 H 0.51565 0.2698 0.55453 0.0
H588 H 0.64818 0.18454 0.52301 0.0
H589 H 0.49085 0.24781 0.49342 0.0
C590 C 0.51217 0.22485 0.46547 0.0
C591 C 0.54891 0.20222 0.4556 0.0
C592 C 0.61892 0.2027 0.53001 0.0
C593 C 0.56531 0.21394 0.4968 0.0
C594 C 0.62674 0.21182 0.5504 0.0
C595 C 0.59004 0.23701 0.55951 0.0
C596 C 0.57415 0.21905 0.5188 0.0
C597 C 0.54504 0.25046 0.54804 0.0
C598 C 0.52017 0.23085 0.48603 0.0
C599 C 0.59408 0.18724 0.4666 0.0
N600 N 0.53851 0.2416 0.52831 0.0
N601 N 0.60105 0.19317 0.48669 0.0
H602 H 0.19506 0.36198 0.7274 0.0
H603 H 0.15936 0.1292 0.80509 0.0
H604 H 0.21826 0.20906 0.71469 0.0
H605 H 0.15621 0.28226 0.82071 0.0
H606 H 0.19962 0.15717 0.77465 0.0
H607 H 0.20045 0.33471 0.76364 0.0
C608 C 0.20338 0.3229 0.73243 0.0
C609 C 0.20618 0.28757 0.71825 0.0
C610 C 0.19138 0.18461 0.78494 0.0
C611 C 0.21038 0.25552 0.75943 0.0
C612 C 0.16848 0.16857 0.80237 0.0
C613 C 0.15425 0.2035 0.81537 0.0
C614 C 0.19895 0.23622 0.78018 0.0
C615 C 0.16684 0.25405 0.81114 0.0
C616 C 0.20598 0.30715 0.75306 0.0
C617 C 0.21617 0.23725 0.72529 0.0
N618 N 0.18748 0.26908 0.79367 0.0
N619 N 0.21676 0.22247 0.74537 0.0
loop_
_geom_bond_atom_site_label_1
_geom_bond_atom_site_label_2
_geom_bond_distance
_geom_bond_site_symmetry_2
_ccdc_geom_bond_type
C0 N1 1.317 . S
C0 N2 1.348 . S
C0 C3 1.485 . S
N1 C0 1.317 . S
N1 N5 1.370 . S
N2 C0 1.348 . S
N2 C4 1.346 . S
C3 C0 1.485 . S
C3 H7 0.960 . S
C3 H8 0.961 . S
C3 H9 0.960 . S
C4 N2 1.346 . S
C4 N5 1.307 . S
C4 C6 1.486 . S
N5 N1 1.370 . S
N5 C4 1.307 . S
C6 C4 1.486 . S
C6 H10 0.960 . S
C6 H11 0.960 . S
C6 H12 0.959 . S
H7 C3 0.960 . S
H8 C3 0.961 . S
H9 C3 0.960 . S
H10 C6 0.960 . S
H11 C6 0.960 . S
H12 C6 0.959 . S
C13 N14 1.317 . S
C13 N15 1.348 . S
C13 C16 1.485 . S
N14 C13 1.317 . S
N14 N18 1.370 . S
N15 C13 1.348 . S
N15 C17 1.346 . S
C16 C13 1.485 . S
C16 H20 0.960 . S
C16 H21 0.961 . S
C16 H22 0.960 . S
C17 N15 1.346 . S
C17 N18 1.307 . S
C17 C19 1.486 . S
N18 N14 1.370 . S
N18 C17 1.307 . S
C19 C17 1.486 . S
C19 H23 0.960 1_455 S
C19 H24 0.960 1_455 S
C19 H25 0.959 . S
H20 C16 0.960 . S
H21 C16 0.961 . S
H22 C16 0.960 . S
H23 C19 0.960 1_655 S
H24 C19 0.960 1_655 S
H25 C19 0.959 . S
C26 N27 1.317 . S
C26 N28 1.348 . S
C26 C29 1.485 . S
N27 C26 1.317 . S
N27 N31 1.370 . S
N28 C26 1.348 . S
N28 C30 1.346 . S
C29 C26 1.485 . S
C29 H33 0.960 . S
C29 H34 0.961 . S
C29 H35 0.960 . S
C30 N28 1.346 . S
C30 N31 1.307 . S
C30 C32 1.486 . S
N31 N27 1.370 . S
N31 C30 1.307 . S
C32 C30 1.486 . S
C32 H36 0.960 . S
C32 H37 0.960 . S
C32 H38 0.959 . S
H33 C29 0.960 . S
H34 C29 0.961 . S
H35 C29 0.960 . S
H36 C32 0.960 . S
H37 C32 0.960 . S
H38 C32 0.959 . S
C39 N40 1.317 . S
C39 N41 1.348 . S
C39 C42 1.485 . S
N40 C39 1.317 . S
N40 N44 1.370 . S
N41 C39 1.348 . S
N41 C43 1.346 . S
C42 C39 1.485 . S
C42 H46 0.960 . S
C42 H47 0.961 . S
C42 H48 0.960 . S
C43 N41 1.346 . S
C43 N44 1.307 . S
C43 C45 1.486 . S
N44 N40 1.370 . S
N44 C43 1.307 . S
C45 C43 1.486 . S
C45 H49 0.960 . S
C45 H50 0.960 . S
C45 H51 0.959 . S
H46 C42 0.960 . S
H47 C42 0.961 . S
H48 C42 0.960 . S
H49 C45 0.960 . S
H50 C45 0.960 . S
H51 C45 0.959 . S
C52 N53 1.317 . S
C52 N54 1.348 . S
C52 C55 1.485 . S
N53 C52 1.317 . S
N53 N57 1.370 . S
N54 C52 1.348 . S
N54 C56 1.346 . S
C55 C52 1.485 . S
C55 H59 0.960 . S
C55 H60 0.961 . S
C55 H61 0.960 . S
C56 N54 1.346 . S
C56 N57 1.307 . S
C56 C58 1.486 . S
N57 N53 1.370 . S
N57 C56 1.307 . S
C58 C56 1.486 . S
C58 H62 0.960 . S
C58 H63 0.960 . S
C58 H64 0.959 . S
H59 C55 0.960 . S
H60 C55 0.961 . S
H61 C55 0.960 . S
H62 C58 0.960 . S
H63 C58 0.960 . S
H64 C58 0.959 . S
C65 N66 1.317 . S
C65 N67 1.348 . S
C65 C68 1.485 . S
N66 C65 1.317 . S
N66 N70 1.370 . S
N67 C65 1.348 . S
N67 C69 1.346 . S
C68 C65 1.485 . S
C68 H72 0.960 . S
C68 H73 0.961 . S
C68 H74 0.960 . S
C69 N67 1.346 . S
C69 N70 1.307 . S
C69 C71 1.486 . S
N70 N66 1.370 . S
N70 C69 1.307 . S
C71 C69 1.486 . S
C71 H75 0.960 . S
C71 H76 0.960 . S
C71 H77 0.959 . S
H72 C68 0.960 . S
H73 C68 0.961 . S
H74 C68 0.960 . S
H75 C71 0.960 . S
H76 C71 0.960 . S
H77 C71 0.959 . S
C78 N79 1.317 . S
C78 N80 1.348 . S
C78 C81 1.485 . S
N79 C78 1.317 . S
N79 N83 1.370 . S
N80 C78 1.348 . S
N80 C82 1.346 . S
C81 C78 1.485 . S
C81 H85 0.960 . S
C81 H86 0.961 . S
C81 H87 0.960 . S
C82 N80 1.346 . S
C82 N83 1.307 . S
C82 C84 1.486 . S
N83 N79 1.370 . S
N83 C82 1.307 . S
C84 C82 1.486 . S
C84 H88 0.960 . S
C84 H89 0.960 . S
C84 H90 0.959 . S
H85 C81 0.960 . S
H86 C81 0.961 . S
H87 C81 0.960 . S
H88 C84 0.960 . S
H89 C84 0.960 . S
H90 C84 0.959 . S
C91 N92 1.317 . S
C91 N93 1.348 . S
C91 C94 1.485 . S
N92 C91 1.317 . S
N92 N96 1.370 . S
N93 C91 1.348 . S
N93 C95 1.346 . S
C94 C91 1.485 . S
C94 H98 0.960 . S
C94 H99 0.961 . S
C94 H100 0.960 . S
C95 N93 1.346 . S
C95 N96 1.307 . S
C95 C97 1.486 . S
N96 N92 1.370 . S
N96 C95 1.307 . S
C97 C95 1.486 . S
C97 H101 0.960 . S
C97 H102 0.960 . S
C97 H103 0.959 . S
H98 C94 0.960 . S
H99 C94 0.961 . S
H100 C94 0.960 . S
H101 C97 0.960 . S
H102 C97 0.960 . S
H103 C97 0.959 . S
Zn104 O110 1.920 . S
Zn104 O116 1.898 . S
Zn104 O119 1.905 . S
Zn105 O113 1.905 . S
Zn105 O114 1.898 . S
Zn105 O122 1.920 1_455 S
Zn106 O109 2.080 . S
Zn106 O112 2.114 . S
Zn106 O115 2.120 . S
Zn106 O117 2.120 . S
Zn106 O118 2.114 . S
Zn106 O121 2.080 . S
C107 O112 1.166 . S
C107 O113 1.182 . S
C108 O114 1.167 . S
C108 O115 1.299 . S
O109 Zn106 2.080 . S
O109 C123 1.305 . S
O110 Zn104 1.920 . S
O110 C123 1.234 . S
C111 O116 1.167 . S
C111 O117 1.299 . S
O112 Zn106 2.114 . S
O112 C107 1.166 . S
O113 Zn105 1.905 . S
O113 C107 1.182 . S
O114 Zn105 1.898 . S
O114 C108 1.167 . S
O115 Zn106 2.120 . S
O115 C108 1.299 . S
O116 Zn104 1.898 . S
O116 C111 1.167 . S
O117 Zn106 2.120 . S
O117 C111 1.299 . S
O118 Zn106 2.114 . S
O118 C120 1.166 . S
O119 Zn104 1.905 . S
O119 C120 1.182 . S
C120 O118 1.166 . S
C120 O119 1.182 . S
O121 Zn106 2.080 . S
O121 C124 1.305 . S
O122 Zn105 1.920 1_655 S
O122 C124 1.234 1_655 S
C123 O109 1.305 . S
C123 O110 1.234 . S
C124 O121 1.305 . S
C124 O122 1.234 1_455 S
Zn125 O131 1.920 . S
Zn125 O137 1.898 . S
Zn125 O140 1.905 . S
Zn126 O134 1.905 . S
Zn126 O135 1.898 . S
Zn126 O143 1.920 . S
Zn127 O130 2.080 . S
Zn127 O133 2.114 . S
Zn127 O136 2.120 . S
Zn127 O138 2.120 . S
Zn127 O139 2.114 . S
Zn127 O142 2.080 . S
C128 O133 1.166 . S
C128 O134 1.182 . S
C129 O135 1.167 . S
C129 O136 1.299 . S
O130 Zn127 2.080 . S
O130 C144 1.305 . S
O131 Zn125 1.920 . S
O131 C144 1.234 . S
C132 O137 1.167 . S
C132 O138 1.299 . S
O133 Zn127 2.114 . S
O133 C128 1.166 . S
O134 Zn126 1.905 . S
O134 C128 1.182 . S
O135 Zn126 1.898 . S
O135 C129 1.167 . S
O136 Zn127 2.120 . S
O136 C129 1.299 . S
O137 Zn125 1.898 . S
O137 C132 1.167 . S
O138 Zn127 2.120 . S
O138 C132 1.299 . S
O139 Zn127 2.114 . S
O139 C141 1.166 . S
O140 Zn125 1.905 . S
O140 C141 1.182 . S
C141 O139 1.166 . S
C141 O140 1.182 . S
O142 Zn127 2.080 . S
O142 C145 1.305 . S
O143 Zn126 1.920 . S
O143 C145 1.234 . S
C144 O130 1.305 . S
C144 O131 1.234 . S
C145 O142 1.305 . S
C145 O143 1.234 . S
Zn146 O152 1.920 . S
Zn146 O158 1.898 . S
Zn146 O161 1.905 . S
Zn147 O155 1.905 . S
Zn147 O156 1.898 . S
Zn147 O164 1.920 . S
Zn148 O151 2.080 . S
Zn148 O154 2.114 . S
Zn148 O157 2.120 . S
Zn148 O159 2.120 . S
Zn148 O160 2.114 . S
Zn148 O163 2.080 . S
C149 O154 1.166 . S
C149 O155 1.182 . S
C150 O156 1.167 . S
C150 O157 1.299 . S
O151 Zn148 2.080 . S
O151 C165 1.305 . S
O152 Zn146 1.920 . S
O152 C165 1.234 . S
C153 O158 1.167 . S
C153 O159 1.299 . S
O154 Zn148 2.114 . S
O154 C149 1.166 . S
O155 Zn147 1.905 . S
O155 C149 1.182 . S
O156 Zn147 1.898 . S
O156 C150 1.167 . S
O157 Zn148 2.120 . S
O157 C150 1.299 . S
O158 Zn146 1.898 . S
O158 C153 1.167 . S
O159 Zn148 2.120 . S
O159 C153 1.299 . S
O160 Zn148 2.114 . S
O160 C162 1.166 . S
O161 Zn146 1.905 . S
O161 C162 1.182 . S
C162 O160 1.166 . S
C162 O161 1.182 . S
O163 Zn148 2.080 . S
O163 C166 1.305 . S
O164 Zn147 1.920 . S
O164 C166 1.234 . S
C165 O151 1.305 . S
C165 O152 1.234 . S
C166 O163 1.305 . S
C166 O164 1.234 . S
Zn167 O173 1.920 . S
Zn167 O179 1.898 . S
Zn167 O182 1.905 1_455 S
Zn168 O176 1.905 . S
Zn168 O177 1.898 . S
Zn168 O185 1.920 . S
Zn169 O172 2.080 . S
Zn169 O175 2.114 . S
Zn169 O178 2.120 . S
Zn169 O180 2.120 . S
Zn169 O181 2.114 . S
Zn169 O184 2.080 . S
C170 O175 1.166 . S
C170 O176 1.182 . S
C171 O177 1.167 . S
C171 O178 1.299 . S
O172 Zn169 2.080 . S
O172 C186 1.305 . S
O173 Zn167 1.920 . S
O173 C186 1.234 . S
C174 O179 1.167 . S
C174 O180 1.299 . S
O175 Zn169 2.114 . S
O175 C170 1.166 . S
O176 Zn168 1.905 . S
O176 C170 1.182 . S
O177 Zn168 1.898 . S
O177 C171 1.167 . S
O178 Zn169 2.120 . S
O178 C171 1.299 . S
O179 Zn167 1.898 . S
O179 C174 1.167 . S
O180 Zn169 2.120 . S
O180 C174 1.299 . S
O181 Zn169 2.114 . S
O181 C183 1.176 . S
O182 Zn167 1.905 1_655 S
O182 C183 1.179 1_655 S
C183 O181 1.176 . S
C183 O182 1.179 1_455 S
O184 Zn169 2.080 . S
O184 C187 1.305 . S
O185 Zn168 1.920 . S
O185 C187 1.234 . S
C186 O172 1.305 . S
C186 O173 1.234 . S
C187 O184 1.305 . S
C187 O185 1.234 . S
H188 C194 0.930 . S
H189 C198 0.930 . S
H190 C203 0.929 . S
H191 C201 0.929 . S
H192 C196 0.929 . S
H193 C202 0.929 . S
C194 H188 0.930 . S
C194 C195 1.367 . S
C194 C202 1.378 . S
C195 C194 1.367 . S
C195 C203 1.433 . S
C196 H192 0.929 . S
C196 C198 1.378 . S
C196 C200 1.350 . S
C197 C200 1.463 . S
C197 C202 1.350 . S
C197 N205 1.427 . S
C198 H189 0.930 . S
C198 C196 1.378 . S
C198 C199 1.367 . S
C199 C198 1.367 . S
C199 C201 1.433 . S
C200 C196 1.350 . S
C200 C197 1.463 . S
C200 N204 1.427 . S
C201 H191 0.929 . S
C201 C199 1.433 . S
C201 N204 1.384 . S
C202 H193 0.929 . S
C202 C194 1.378 . S
C202 C197 1.350 . S
C203 H190 0.929 . S
C203 C195 1.433 . S
C203 N205 1.384 . S
N204 C200 1.427 . S
N204 C201 1.384 . S
N205 C197 1.427 . S
N205 C203 1.384 . S
H206 C212 0.930 1_455 S
H207 C216 0.930 . S
H208 C221 0.929 . S
H209 C219 0.929 . S
H210 C214 0.929 . S
H211 C220 0.929 . S
C212 H206 0.930 1_655 S
C212 C213 1.367 1_655 S
C212 C220 1.378 . S
C213 C212 1.367 1_455 S
C213 C221 1.433 1_455 S
C214 H210 0.929 . S
C214 C216 1.378 . S
C214 C218 1.350 . S
C215 C218 1.463 . S
C215 C220 1.350 . S
C215 N223 1.427 . S
C216 H207 0.930 . S
C216 C214 1.378 . S
C216 C217 1.367 . S
C217 C216 1.367 . S
C217 C219 1.433 . S
C218 C214 1.350 . S
C218 C215 1.463 . S
C218 N222 1.427 . S
C219 H209 0.929 . S
C219 C217 1.433 . S
C219 N222 1.384 . S
C220 H211 0.929 . S
C220 C212 1.378 . S
C220 C215 1.350 . S
C221 H208 0.929 . S
C221 C213 1.433 1_655 S
C221 N223 1.384 . S
N222 C218 1.427 . S
N222 C219 1.384 . S
N223 C215 1.427 . S
N223 C221 1.384 . S
H224 C230 0.930 . S
H225 C234 0.930 . S
H226 C239 0.929 . S
H227 C237 0.929 . S
H228 C232 0.929 . S
H229 C238 0.929 . S
C230 H224 0.930 . S
C230 C231 1.367 . S
C230 C238 1.378 . S
C231 C230 1.367 . S
C231 C239 1.433 . S
C232 H228 0.929 . S
C232 C234 1.378 . S
C232 C236 1.350 . S
C233 C236 1.463 . S
C233 C238 1.350 . S
C233 N241 1.427 . S
C234 H225 0.930 . S
C234 C232 1.378 . S
C234 C235 1.367 . S
C235 C234 1.367 . S
C235 C237 1.433 . S
C236 C232 1.350 . S
C236 C233 1.463 . S
C236 N240 1.427 . S
C237 H227 0.929 . S
C237 C235 1.433 . S
C237 N240 1.384 . S
C238 H229 0.929 . S
C238 C230 1.378 . S
C238 C233 1.350 . S
C239 H226 0.929 . S
C239 C231 1.433 . S
C239 N241 1.384 . S
N240 C236 1.427 . S
N240 C237 1.384 . S
N241 C233 1.427 . S
N241 C239 1.384 . S
H242 C248 0.930 . S
H243 C252 0.930 . S
H244 C257 0.929 . S
H245 C255 0.929 . S
H246 C250 0.929 . S
H247 C256 0.929 . S
C248 H242 0.930 . S
C248 C249 1.367 . S
C248 C256 1.378 . S
C249 C248 1.367 . S
C249 C257 1.433 . S
C250 H246 0.929 . S
C250 C252 1.378 . S
C250 C254 1.350 . S
C251 C254 1.463 . S
C251 C256 1.350 . S
C251 N259 1.427 . S
C252 H243 0.930 . S
C252 C250 1.378 . S
C252 C253 1.367 . S
C253 C252 1.367 . S
C253 C255 1.433 . S
C254 C250 1.350 . S
C254 C251 1.463 . S
C254 N258 1.427 . S
C255 H245 0.929 . S
C255 C253 1.433 . S
C255 N258 1.384 . S
C256 H247 0.929 . S
C256 C248 1.378 . S
C256 C251 1.350 . S
C257 H244 0.929 . S
C257 C249 1.433 . S
C257 N259 1.384 . S
N258 C254 1.427 . S
N258 C255 1.384 . S
N259 C251 1.427 . S
N259 C257 1.384 . S
H260 C266 0.930 . S
H261 C270 0.930 . S
H262 C275 0.929 . S
H263 C273 0.929 . S
H264 C268 0.929 . S
H265 C274 0.929 . S
C266 H260 0.930 . S
C266 C267 1.367 . S
C266 C274 1.378 . S
C267 C266 1.367 . S
C267 C275 1.433 . S
C268 H264 0.929 . S
C268 C270 1.378 . S
C268 C272 1.350 . S
C269 C272 1.463 . S
C269 C274 1.350 . S
C269 N277 1.427 . S
C270 H261 0.930 . S
C270 C268 1.378 . S
C270 C271 1.367 . S
C271 C270 1.367 . S
C271 C273 1.433 . S
C272 C268 1.350 . S
C272 C269 1.463 . S
C272 N276 1.427 . S
C273 H263 0.929 . S
C273 C271 1.433 . S
C273 N276 1.384 . S
C274 H265 0.929 . S
C274 C266 1.378 . S
C274 C269 1.350 . S
C275 H262 0.929 . S
C275 C267 1.433 . S
C275 N277 1.384 . S
N276 C272 1.427 . S
N276 C273 1.384 . S
N277 C269 1.427 . S
N277 C275 1.384 . S
H278 C284 0.930 . S
H279 C288 0.930 . S
H280 C293 0.929 . S
H281 C291 0.929 . S
H282 C286 0.929 . S
H283 C292 0.929 . S
C284 H278 0.930 . S
C284 C285 1.367 . S
C284 C292 1.378 . S
C285 C284 1.367 . S
C285 C293 1.433 . S
C286 H282 0.929 . S
C286 C288 1.378 . S
C286 C290 1.350 . S
C287 C290 1.463 . S
C287 C292 1.350 . S
C287 N295 1.427 . S
C288 H279 0.930 . S
C288 C286 1.378 . S
C288 C289 1.367 . S
C289 C288 1.367 . S
C289 C291 1.433 . S
C290 C286 1.350 . S
C290 C287 1.463 . S
C290 N294 1.427 . S
C291 H281 0.929 . S
C291 C289 1.433 . S
C291 N294 1.384 . S
C292 H283 0.929 . S
C292 C284 1.378 . S
C292 C287 1.350 . S
C293 H280 0.929 . S
C293 C285 1.433 . S
C293 N295 1.384 . S
N294 C290 1.427 . S
N294 C291 1.384 . S
N295 C287 1.427 . S
N295 C293 1.384 . S
H296 C302 0.930 . S
H297 C306 0.930 . S
H298 C311 0.929 . S
H299 C309 0.929 . S
H300 C304 0.929 . S
H301 C310 0.929 . S
C302 H296 0.930 . S
C302 C303 1.367 . S
C302 C310 1.378 . S
C303 C302 1.367 . S
C303 C311 1.433 . S
C304 H300 0.929 . S
C304 C306 1.378 . S
C304 C308 1.350 . S
C305 C308 1.463 . S
C305 C310 1.350 . S
C305 N313 1.427 . S
C306 H297 0.930 . S
C306 C304 1.378 . S
C306 C307 1.367 . S
C307 C306 1.367 . S
C307 C309 1.433 . S
C308 C304 1.350 . S
C308 C305 1.463 . S
C308 N312 1.427 . S
C309 H299 0.929 . S
C309 C307 1.433 . S
C309 N312 1.384 . S
C310 H301 0.929 . S
C310 C302 1.378 . S
C310 C305 1.350 . S
C311 H298 0.929 . S
C311 C303 1.433 . S
C311 N313 1.384 . S
N312 C308 1.427 . S
N312 C309 1.384 . S
N313 C305 1.427 . S
N313 C311 1.384 . S
H314 C320 0.930 . S
H315 C324 0.930 . S
H316 C329 0.929 . S
H317 C327 0.929 . S
H318 C322 0.929 . S
H319 C328 0.929 . S
C320 H314 0.930 . S
C320 C321 1.367 . S
C320 C328 1.378 1_455 S
C321 C320 1.367 . S
C321 C329 1.433 . S
C322 H318 0.929 . S
C322 C324 1.378 . S
C322 C326 1.350 . S
C323 C326 1.463 . S
C323 C328 1.350 . S
C323 N331 1.427 . S
C324 H315 0.930 . S
C324 C322 1.378 . S
C324 C325 1.367 . S
C325 C324 1.367 . S
C325 C327 1.433 . S
C326 C322 1.350 . S
C326 C323 1.463 . S
C326 N330 1.427 . S
C327 H317 0.929 . S
C327 C325 1.433 . S
C327 N330 1.384 . S
C328 H319 0.929 . S
C328 C320 1.378 1_655 S
C328 C323 1.350 . S
C329 H316 0.929 . S
C329 C321 1.433 . S
C329 N331 1.384 1_455 S
N330 C326 1.427 . S
N330 C327 1.384 . S
N331 C323 1.427 . S
N331 C329 1.384 1_655 S
H332 C338 0.930 . S
H333 C342 0.930 . S
H334 C347 0.929 . S
H335 C345 0.929 . S
H336 C340 0.929 . S
H337 C346 0.929 . S
C338 H332 0.930 . S
C338 C339 1.367 . S
C338 C346 1.378 . S
C339 C338 1.367 . S
C339 C347 1.433 . S
C340 H336 0.929 . S
C340 C342 1.378 . S
C340 C344 1.350 . S
C341 C344 1.463 . S
C341 C346 1.350 . S
C341 N349 1.427 . S
C342 H333 0.930 . S
C342 C340 1.378 . S
C342 C343 1.367 . S
C343 C342 1.367 . S
C343 C345 1.433 . S
C344 C340 1.350 . S
C344 C341 1.463 . S
C344 N348 1.427 . S
C345 H335 0.929 . S
C345 C343 1.433 . S
C345 N348 1.384 . S
C346 H337 0.929 . S
C346 C338 1.378 . S
C346 C341 1.350 . S
C347 H334 0.929 . S
C347 C339 1.433 . S
C347 N349 1.384 . S
N348 C344 1.427 . S
N348 C345 1.384 . S
N349 C341 1.427 . S
N349 C347 1.384 . S
H350 C356 0.930 . S
H351 C360 0.930 . S
H352 C365 0.929 . S
H353 C363 0.929 . S
H354 C358 0.929 . S
H355 C364 0.929 . S
C356 H350 0.930 . S
C356 C357 1.367 . S
C356 C364 1.378 . S
C357 C356 1.367 . S
C357 C365 1.433 . S
C358 H354 0.929 . S
C358 C360 1.378 . S
C358 C362 1.350 . S
C359 C362 1.463 . S
C359 C364 1.350 . S
C359 N367 1.427 . S
C360 H351 0.930 . S
C360 C358 1.378 . S
C360 C361 1.367 . S
C361 C360 1.367 . S
C361 C363 1.433 . S
C362 C358 1.350 . S
C362 C359 1.463 . S
C362 N366 1.427 . S
C363 H353 0.929 . S
C363 C361 1.433 . S
C363 N366 1.384 . S
C364 H355 0.929 . S
C364 C356 1.378 . S
C364 C359 1.350 . S
C365 H352 0.929 . S
C365 C357 1.433 . S
C365 N367 1.384 . S
N366 C362 1.427 . S
N366 C363 1.384 . S
N367 C359 1.427 . S
N367 C365 1.384 . S
H368 C374 0.930 . S
H369 C378 0.930 . S
H370 C383 0.929 . S
H371 C381 0.929 . S
H372 C376 0.929 . S
H373 C382 0.929 . S
C374 H368 0.930 . S
C374 C375 1.367 . S
C374 C382 1.378 . S
C375 C374 1.367 . S
C375 C383 1.433 . S
C376 H372 0.929 . S
C376 C378 1.378 . S
C376 C380 1.350 . S
C377 C380 1.463 . S
C377 C382 1.350 . S
C377 N385 1.427 . S
C378 H369 0.930 . S
C378 C376 1.378 . S
C378 C379 1.367 . S
C379 C378 1.367 . S
C379 C381 1.433 . S
C380 C376 1.350 . S
C380 C377 1.463 . S
C380 N384 1.427 . S
C381 H371 0.929 . S
C381 C379 1.433 . S
C381 N384 1.384 . S
C382 H373 0.929 . S
C382 C374 1.378 . S
C382 C377 1.350 . S
C383 H370 0.929 . S
C383 C375 1.433 . S
C383 N385 1.384 . S
N384 C380 1.427 . S
N384 C381 1.384 . S
N385 C377 1.427 . S
N385 C383 1.384 . S
H386 C392 0.930 . S
H387 C396 0.930 . S
H388 C401 0.929 . S
H389 C399 0.929 . S
H390 C394 0.929 . S
H391 C400 0.929 . S
C392 H386 0.930 . S
C392 C393 1.367 . S
C392 C400 1.378 . S
C393 C392 1.367 . S
C393 C401 1.433 . S
C394 H390 0.929 . S
C394 C396 1.378 . S
C394 C398 1.350 . S
C395 C398 1.463 . S
C395 C400 1.350 . S
C395 N403 1.427 . S
C396 H387 0.930 . S
C396 C394 1.378 . S
C396 C397 1.367 . S
C397 C396 1.367 . S
C397 C399 1.433 . S
C398 C394 1.350 . S
C398 C395 1.463 . S
C398 N402 1.427 . S
C399 H389 0.929 . S
C399 C397 1.433 . S
C399 N402 1.384 . S
C400 H391 0.929 . S
C400 C392 1.378 . S
C400 C395 1.350 . S
C401 H388 0.929 . S
C401 C393 1.433 . S
C401 N403 1.384 . S
N402 C398 1.427 . S
N402 C399 1.384 . S
N403 C395 1.427 . S
N403 C401 1.384 . S
H404 C410 0.930 . S
H405 C414 0.930 . S
H406 C419 0.929 . S
H407 C417 0.929 . S
H408 C412 0.929 . S
H409 C418 0.929 . S
C410 H404 0.930 . S
C410 C411 1.367 . S
C410 C418 1.378 . S
C411 C410 1.367 . S
C411 C419 1.433 . S
C412 H408 0.929 . S
C412 C414 1.378 . S
C412 C416 1.350 . S
C413 C416 1.463 1_565 S
C413 C418 1.350 . S
C413 N421 1.427 . S
C414 H405 0.930 . S
C414 C412 1.378 . S
C414 C415 1.367 . S
C415 C414 1.367 . S
C415 C417 1.433 . S
C416 C412 1.350 . S
C416 C413 1.463 1_545 S
C416 N420 1.427 . S
C417 H407 0.929 . S
C417 C415 1.433 . S
C417 N420 1.384 . S
C418 H409 0.929 . S
C418 C410 1.378 . S
C418 C413 1.350 . S
C419 H406 0.929 . S
C419 C411 1.433 . S
C419 N421 1.384 . S
N420 C416 1.427 . S
N420 C417 1.384 . S
N421 C413 1.427 . S
N421 C419 1.384 . S
H422 C428 0.930 . S
H423 C432 0.930 . S
H424 C437 0.929 . S
H425 C435 0.929 . S
H426 C430 0.929 . S
H427 C436 0.929 . S
C428 H422 0.930 . S
C428 C429 1.367 . S
C428 C436 1.378 . S
C429 C428 1.367 . S
C429 C437 1.433 . S
C430 H426 0.929 . S
C430 C432 1.378 1_545 S
C430 C434 1.350 . S
C431 C434 1.463 . S
C431 C436 1.350 . S
C431 N439 1.427 . S
C432 H423 0.930 . S
C432 C430 1.378 1_565 S
C432 C433 1.367 . S
C433 C432 1.367 . S
C433 C435 1.433 . S
C434 C430 1.350 . S
C434 C431 1.463 . S
C434 N438 1.427 1_545 S
C435 H425 0.929 . S
C435 C433 1.433 . S
C435 N438 1.384 . S
C436 H427 0.929 . S
C436 C428 1.378 . S
C436 C431 1.350 . S
C437 H424 0.929 . S
C437 C429 1.433 . S
C437 N439 1.384 . S
N438 C434 1.427 1_565 S
N438 C435 1.384 . S
N439 C431 1.427 . S
N439 C437 1.384 . S
H440 C446 0.930 . S
H441 C450 0.930 . S
H442 C455 0.929 . S
H443 C453 0.929 . S
H444 C448 0.929 . S
H445 C454 0.929 . S
C446 H440 0.930 . S
C446 C447 1.367 . S
C446 C454 1.378 . S
C447 C446 1.367 . S
C447 C455 1.433 . S
C448 H444 0.929 . S
C448 C450 1.378 . S
C448 C452 1.350 . S
C449 C452 1.463 1_545 S
C449 C454 1.350 . S
C449 N457 1.427 . S
C450 H441 0.930 . S
C450 C448 1.378 . S
C450 C451 1.367 . S
C451 C450 1.367 . S
C451 C453 1.433 . S
C452 C448 1.350 . S
C452 C449 1.463 1_565 S
C452 N456 1.427 . S
C453 H443 0.929 . S
C453 C451 1.433 . S
C453 N456 1.384 . S
C454 H445 0.929 . S
C454 C446 1.378 . S
C454 C449 1.350 . S
C455 H442 0.929 . S
C455 C447 1.433 . S
C455 N457 1.384 . S
N456 C452 1.427 . S
N456 C453 1.384 . S
N457 C449 1.427 . S
N457 C455 1.384 . S
H458 C464 0.930 . S
H459 C468 0.930 . S
H460 C473 0.929 . S
H461 C471 0.929 . S
H462 C466 0.929 . S
H463 C472 0.929 . S
C464 H458 0.930 . S
C464 C465 1.367 . S
C464 C472 1.378 . S
C465 C464 1.367 . S
C465 C473 1.433 . S
C466 H462 0.929 . S
C466 C468 1.378 1_565 S
C466 C470 1.350 . S
C467 C470 1.463 . S
C467 C472 1.350 . S
C467 N475 1.427 . S
C468 H459 0.930 . S
C468 C466 1.378 1_545 S
C468 C469 1.367 . S
C469 C468 1.367 . S
C469 C471 1.433 . S
C470 C466 1.350 . S
C470 C467 1.463 . S
C470 N474 1.427 . S
C471 H461 0.929 . S
C471 C469 1.433 . S
C471 N474 1.384 1_545 S
C472 H463 0.929 . S
C472 C464 1.378 . S
C472 C467 1.350 . S
C473 H460 0.929 . S
C473 C465 1.433 . S
C473 N475 1.384 . S
N474 C470 1.427 . S
N474 C471 1.384 1_565 S
N475 C467 1.427 . S
N475 C473 1.384 . S
H476 C482 0.930 . S
H477 C486 0.930 . S
H478 C491 0.929 . S
H479 C489 0.929 . S
H480 C484 0.929 . S
H481 C490 0.929 . S
C482 H476 0.930 . S
C482 C483 1.367 . S
C482 C490 1.378 . S
C483 C482 1.367 . S
C483 C491 1.433 . S
C484 H480 0.929 . S
C484 C486 1.378 . S
C484 C488 1.350 . S
C485 C488 1.463 1_554 S
C485 C490 1.350 . S
C485 N493 1.427 . S
C486 H477 0.930 . S
C486 C484 1.378 . S
C486 C487 1.367 . S
C487 C486 1.367 . S
C487 C489 1.433 . S
C488 C484 1.350 . S
C488 C485 1.463 1_556 S
C488 N492 1.427 . S
C489 H479 0.929 . S
C489 C487 1.433 . S
C489 N492 1.384 . S
C490 H481 0.929 . S
C490 C482 1.378 . S
C490 C485 1.350 . S
C491 H478 0.929 . S
C491 C483 1.433 . S
C491 N493 1.384 . S
N492 C488 1.427 . S
N492 C489 1.384 . S
N493 C485 1.427 . S
N493 C491 1.384 . S
H494 C500 0.930 . S
H495 C504 0.930 . S
H496 C509 0.929 . S
H497 C507 0.929 . S
H498 C502 0.929 . S
H499 C508 0.929 . S
C500 H494 0.930 . S
C500 C501 1.367 . S
C500 C508 1.378 . S
C501 C500 1.367 . S
C501 C509 1.433 . S
C502 H498 0.929 . S
C502 C504 1.378 . S
C502 C506 1.350 . S
C503 C506 1.463 . S
C503 C508 1.350 . S
C503 N511 1.427 . S
C504 H495 0.930 . S
C504 C502 1.378 . S
C504 C505 1.367 . S
C505 C504 1.367 . S
C505 C507 1.433 . S
C506 C502 1.350 . S
C506 C503 1.463 . S
C506 N510 1.427 . S
C507 H497 0.929 . S
C507 C505 1.433 . S
C507 N510 1.384 . S
C508 H499 0.929 . S
C508 C500 1.378 . S
C508 C503 1.350 . S
C509 H496 0.929 . S
C509 C501 1.433 . S
C509 N511 1.384 . S
N510 C506 1.427 . S
N510 C507 1.384 . S
N511 C503 1.427 . S
N511 C509 1.384 . S
H512 C518 0.930 . S
H513 C522 0.930 . S
H514 C527 0.929 . S
H515 C525 0.929 . S
H516 C520 0.929 . S
H517 C526 0.929 . S
C518 H512 0.930 . S
C518 C519 1.367 . S
C518 C526 1.378 . S
C519 C518 1.367 . S
C519 C527 1.433 . S
C520 H516 0.929 . S
C520 C522 1.378 . S
C520 C524 1.350 . S
C521 C524 1.463 . S
C521 C526 1.350 . S
C521 N529 1.427 . S
C522 H513 0.930 . S
C522 C520 1.378 . S
C522 C523 1.367 . S
C523 C522 1.367 . S
C523 C525 1.433 . S
C524 C520 1.350 . S
C524 C521 1.463 . S
C524 N528 1.427 . S
C525 H515 0.929 . S
C525 C523 1.433 . S
C525 N528 1.384 . S
C526 H517 0.929 . S
C526 C518 1.378 . S
C526 C521 1.350 . S
C527 H514 0.929 . S
C527 C519 1.433 . S
C527 N529 1.384 . S
N528 C524 1.427 . S
N528 C525 1.384 . S
N529 C521 1.427 . S
N529 C527 1.384 . S
H530 C536 0.930 . S
H531 C540 0.930 . S
H532 C545 0.929 . S
H533 C543 0.929 . S
H534 C538 0.929 . S
H535 C544 0.929 . S
C536 H530 0.930 . S
C536 C537 1.367 . S
C536 C544 1.378 . S
C537 C536 1.367 . S
C537 C545 1.433 . S
C538 H534 0.929 . S
C538 C540 1.378 . S
C538 C542 1.350 . S
C539 C542 1.463 . S
C539 C544 1.350 . S
C539 N547 1.427 . S
C540 H531 0.930 . S
C540 C538 1.378 . S
C540 C541 1.367 . S
C541 C540 1.367 . S
C541 C543 1.433 . S
C542 C538 1.350 . S
C542 C539 1.463 . S
C542 N546 1.427 . S
C543 H533 0.929 . S
C543 C541 1.433 . S
C543 N546 1.384 . S
C544 H535 0.929 . S
C544 C536 1.378 . S
C544 C539 1.350 . S
C545 H532 0.929 . S
C545 C537 1.433 . S
C545 N547 1.384 . S
N546 C542 1.427 . S
N546 C543 1.384 . S
N547 C539 1.427 . S
N547 C545 1.384 . S
H548 C554 0.930 . S
H549 C558 0.930 . S
H550 C563 0.929 . S
H551 C561 0.929 . S
H552 C556 0.929 . S
H553 C562 0.929 . S
C554 H548 0.930 . S
C554 C555 1.367 . S
C554 C562 1.378 . S
C555 C554 1.367 . S
C555 C563 1.433 . S
C556 H552 0.929 . S
C556 C558 1.378 . S
C556 C560 1.350 . S
C557 C560 1.463 1_556 S
C557 C562 1.350 . S
C557 N565 1.427 . S
C558 H549 0.930 . S
C558 C556 1.378 . S
C558 C559 1.367 . S
C559 C558 1.367 . S
C559 C561 1.433 . S
C560 C556 1.350 . S
C560 C557 1.463 1_554 S
C560 N564 1.427 . S
C561 H551 0.929 . S
C561 C559 1.433 . S
C561 N564 1.384 . S
C562 H553 0.929 . S
C562 C554 1.378 . S
C562 C557 1.350 . S
C563 H550 0.929 . S
C563 C555 1.433 . S
C563 N565 1.384 . S
N564 C560 1.427 . S
N564 C561 1.384 . S
N565 C557 1.427 . S
N565 C563 1.384 . S
H566 C572 0.930 . S
H567 C576 0.930 . S
H568 C581 0.929 . S
H569 C579 0.929 . S
H570 C574 0.929 . S
H571 C580 0.929 . S
C572 H566 0.930 . S
C572 C573 1.367 . S
C572 C580 1.378 . S
C573 C572 1.367 . S
C573 C581 1.433 . S
C574 H570 0.929 . S
C574 C576 1.378 . S
C574 C578 1.350 . S
C575 C578 1.463 . S
C575 C580 1.350 . S
C575 N583 1.427 . S
C576 H567 0.930 . S
C576 C574 1.378 . S
C576 C577 1.367 . S
C577 C576 1.367 . S
C577 C579 1.433 . S
C578 C574 1.350 . S
C578 C575 1.463 . S
C578 N582 1.427 . S
C579 H569 0.929 . S
C579 C577 1.433 . S
C579 N582 1.384 . S
C580 H571 0.929 . S
C580 C572 1.378 . S
C580 C575 1.350 . S
C581 H568 0.929 . S
C581 C573 1.433 . S
C581 N583 1.384 . S
N582 C578 1.427 . S
N582 C579 1.384 . S
N583 C575 1.427 . S
N583 C581 1.384 . S
H584 C590 0.930 . S
H585 C594 0.930 . S
H586 C599 0.929 . S
H587 C597 0.929 . S
H588 C592 0.929 . S
H589 C598 0.929 . S
C590 H584 0.930 . S
C590 C591 1.367 . S
C590 C598 1.378 . S
C591 C590 1.367 . S
C591 C599 1.433 . S
C592 H588 0.929 . S
C592 C594 1.378 . S
C592 C596 1.350 . S
C593 C596 1.463 . S
C593 C598 1.350 . S
C593 N601 1.427 . S
C594 H585 0.930 . S
C594 C592 1.378 . S
C594 C595 1.367 . S
C595 C594 1.367 . S
C595 C597 1.433 . S
C596 C592 1.350 . S
C596 C593 1.463 . S
C596 N600 1.427 . S
C597 H587 0.929 . S
C597 C595 1.433 . S
C597 N600 1.384 . S
C598 H589 0.929 . S
C598 C590 1.378 . S
C598 C593 1.350 . S
C599 H586 0.929 . S
C599 C591 1.433 . S
C599 N601 1.384 . S
N600 C596 1.427 . S
N600 C597 1.384 . S
N601 C593 1.427 . S
N601 C599 1.384 . S
H602 C608 0.930 . S
H603 C612 0.930 . S
H604 C617 0.929 . S
H605 C615 0.929 . S
H606 C610 0.929 . S
H607 C616 0.929 . S
C608 H602 0.930 . S
C608 C609 1.367 . S
C608 C616 1.378 . S
C609 C608 1.367 . S
C609 C617 1.433 . S
C610 H606 0.929 . S
C610 C612 1.378 . S
C610 C614 1.350 . S
C611 C614 1.463 . S
C611 C616 1.350 . S
C611 N619 1.427 . S
C612 H603 0.930 . S
C612 C610 1.378 . S
C612 C613 1.367 . S
C613 C612 1.367 . S
C613 C615 1.433 . S
C614 C610 1.350 . S
C614 C611 1.463 . S
C614 N618 1.427 . S
C615 H605 0.929 . S
C615 C613 1.433 . S
C615 N618 1.384 . S
C616 H607 0.929 . S
C616 C608 1.378 . S
C616 C611 1.350 . S
C617 H604 0.929 . S
C617 C609 1.433 . S
C617 N619 1.384 . S
N618 C614 1.427 . S
N618 C615 1.384 . S
N619 C611 1.427 . S
N619 C617 1.384 . S
C199 C111 1.477 . S
C195 N2 1.601 . S
C217 C129 1.111 . S
C213 N15 1.176 . S
C231 N27 1.345 . S
C235 C153 1.239 . S
C253 C183 1.529 1_655 S
C249 N40 1.726 . S
C271 C171 1.301 . S
C267 N54 1.419 . S
C285 N66 1.712 . S
C289 C124 1.626 1_655 S
C303 N79 1.547 . S
C307 C144 1.431 . S
C321 N93 1.195 . S
C325 C149 1.089 . S
C339 N92 1.701 . S
C343 C165 1.609 . S
C357 N67 1.199 . S
C361 C120 1.092 . S
C379 C187 1.113 . S
C375 N41 1.183 . S
C397 C132 1.530 . S
C393 N14 1.723 . S
C411 N28 1.599 . S
C415 C150 1.482 . S
C429 N1 1.356 . S
C433 C108 1.238 . S
C451 C128 1.289 . S
C447 N80 1.426 . S
C469 C174 1.427 . S
C465 N53 1.550 . S
C487 C170 1.324 . S
C483 N5 1.574 . S
C505 C123 1.344 . S
C501 N18 1.439 . S
C519 N31 1.561 . S
C523 C145 1.302 . S
C537 N44 1.470 . S
C541 C166 1.371 . S
C559 C107 1.383 . S
C555 N57 1.480 . S
C573 N70 1.546 . S
C577 C141 1.494 . S
C595 C162 1.401 . S
C591 N83 1.500 . S
C613 C186 1.474 . S
C609 N96 1.527 . S
