# Generated by pormake.
# Topology tsx, (6,3)-cn, num edge types: 1
# Building blocks:
#     Node 0, Type 0, BuildingBlock: FUNLAD_clean_sbu_0, # of connection points: 6
#     Node 1, Type 0, BuildingBlock: FUNLAD_clean_sbu_0, # of connection points: 6
#     Node 2, Type 1, BuildingBlock: BETDIP_clean_linker_0, # of connection points: 3
#     Node 3, Type 1, BuildingBlock: BETDIP_clean_linker_0, # of connection points: 3
#     Node 4, Type 1, BuildingBlock: BETDIP_clean_linker_0, # of connection points: 3
#     Node 5, Type 1, BuildingBlock: BETDIP_clean_linker_0, # of connection points: 3
#     Edge 6, Type (0, 1), BuildingBlock: KIFKEQ_clean_linker_1, # of connection points: 2
#     Edge 7, Type (0, 1), BuildingBlock: KIFKEQ_clean_linker_1, # of connection points: 2
#     Edge 8, Type (0, 1), BuildingBlock: KIFKEQ_clean_linker_1, # of connection points: 2
#     Edge 9, Type (0, 1), BuildingBlock: KIFKEQ_clean_linker_1, # of connection points: 2
#     Edge 10, Type (0, 1), BuildingBlock: KIFKEQ_clean_linker_1, # of connection points: 2
#     Edge 11, Type (0, 1), BuildingBlock: KIFKEQ_clean_linker_1, # of connection points: 2
#     Edge 12, Type (0, 1), BuildingBlock: KIFKEQ_clean_linker_1, # of connection points: 2
#     Edge 13, Type (0, 1), BuildingBlock: KIFKEQ_clean_linker_1, # of connection points: 2
#     Edge 14, Type (0, 1), BuildingBlock: KIFKEQ_clean_linker_1, # of connection points: 2
#     Edge 15, Type (0, 1), BuildingBlock: KIFKEQ_clean_linker_1, # of connection points: 2
#     Edge 16, Type (0, 1), BuildingBlock: KIFKEQ_clean_linker_1, # of connection points: 2
#     Edge 17, Type (0, 1), BuildingBlock: KIFKEQ_clean_linker_1, # of connection points: 2
# Relax obj value: 0.112
# Max RMSD: 0.116
# Mean RMSD: 0.112
data_MOF--net-tsx--node1-FUNLAD_clean_sbu_0--node2-BETDIP_clean_linker_0--edge1-KIFKEQ_clean_linker_1
_symmetry_space_group_name_H-M    P1
_symmetry_Int_Tables_number       1
_symmetry_cell_setting            triclinic
loop_
_symmetry_equiv_pos_as_xyz
'x, y, z'
_cell_length_a     19.822364
_cell_length_b     21.885183
_cell_length_c     40.305026
_cell_angle_alpha  90.805543
_cell_angle_beta   102.41876
_cell_angle_gamma 90.106146
loop_
_atom_site_label
_atom_site_type_symbol
_atom_site_fract_x
_atom_site_fract_y
_atom_site_fract_z
_atom_type_partial_charge
C0 C 0.91738 0.91468 0.00337 0.0
N1 N 0.05834 0.00828 0.07909 0.0
C2 C 0.00536 0.01517 0.09536 0.0
C3 C 0.01843 0.02093 0.13057 0.0
C4 C 0.08664 0.01896 0.14938 0.0
C5 C 0.14047 0.0104 0.13216 0.0
C6 C 0.12507 0.00555 0.09667 0.0
Zn7 Zn 0.03344 0.00458 0.02734 0.0
C8 C 0.11294 0.91385 -0.00286 0.0
N9 N 0.97211 -0.00046 0.91968 0.0
C10 C 0.90534 0.00075 0.90203 0.0
C11 C 0.02561 0.00305 0.90357 0.0
C12 C 0.0132 0.01036 0.86858 0.0
C13 C 0.94504 0.01393 0.84982 0.0
C14 C 0.89052 0.00764 0.86675 0.0
Zn15 Zn -0.00315 0.00041 0.97141 0.0
O16 O 0.9563 0.93944 0.02925 0.0
C17 C 0.91808 0.09227 0.00055 0.0
O18 O 0.9238 0.92981 0.97382 0.0
H19 H 0.07828 0.00194 0.91801 0.0
H20 H 0.95266 0.01661 0.08097 0.0
H21 H 0.86365 0.99815 0.91542 0.0
O22 O 0.96053 0.077 0.02748 0.0
O23 O 0.92066 0.06587 0.97264 0.0
H24 H 0.16636 0.00016 0.08318 0.0
O25 O 0.06982 0.07214 0.96993 0.0
O26 O 0.11008 0.06933 0.02499 0.0
O27 O 0.07378 0.9347 0.97061 0.0
O28 O 0.10634 0.93332 0.02616 0.0
C29 C 0.11233 0.09129 -0.00372 0.0
H30 H 0.97545 0.02635 0.14302 0.0
H31 H 0.19375 0.00865 0.14591 0.0
H32 H 0.05663 0.01384 0.85633 0.0
H33 H 0.83725 0.01015 0.85305 0.0
C34 C 0.4268 0.40144 0.49939 0.0
N35 N 0.55393 0.49718 0.57949 0.0
C36 C 0.49849 0.4991 0.59433 0.0
C37 C 0.5079 0.50444 0.62949 0.0
C38 C 0.57502 0.50729 0.64964 0.0
C39 C 0.63147 0.50386 0.63382 0.0
C40 C 0.61967 0.49917 0.59842 0.0
Zn41 Zn 0.53555 0.49416 0.52783 0.0
C42 C 0.62411 0.40583 0.50106 0.0
N43 N 0.49209 0.48976 0.41992 0.0
C44 C 0.42628 0.49039 0.40111 0.0
C45 C 0.54735 0.48916 0.40494 0.0
C46 C 0.53763 0.48909 0.36969 0.0
C47 C 0.47037 0.48979 0.34959 0.0
C48 C 0.41417 0.49058 0.36567 0.0
Zn49 Zn 0.51058 0.49174 0.47154 0.0
O50 O 0.464 0.42215 0.52692 0.0
C51 C 0.42152 0.58017 0.49724 0.0
O52 O 0.43398 0.42307 0.47122 0.0
H53 H 0.59921 0.48914 0.42039 0.0
H54 H 0.44671 0.49701 0.57883 0.0
H55 H 0.38315 0.4909 0.41361 0.0
O56 O 0.45489 0.56066 0.52562 0.0
O57 O 0.43539 0.55911 0.47 0.0
H58 H 0.66295 0.49782 0.58604 0.0
O59 O 0.58707 0.56202 0.47273 0.0
O60 O 0.60636 0.56538 0.52834 0.0
O61 O 0.5859 0.42325 0.4734 0.0
O62 O 0.61608 0.429 0.52906 0.0
C63 C 0.61871 0.58549 0.50085 0.0
H64 H 0.46309 0.50599 0.64083 0.0
H65 H 0.68399 0.50612 0.64859 0.0
H66 H 0.58238 0.48938 0.3583 0.0
H67 H 0.36151 0.49063 0.35103 0.0
H68 H 0.0749 0.97337 0.49065 0.0
H69 H 0.0383 0.08605 0.40194 0.0
H70 H 0.15657 0.92137 0.40383 0.0
H71 H 0.04084 0.16098 0.44565 0.0
C72 C 0.00372 0.13742 0.4573 0.0
C73 C 0.08231 0.98267 0.46533 0.0
C74 C 0.1202 0.942 0.44933 0.0
C75 C 0.05327 0.03513 0.44845 0.0
C76 C 0.06196 0.04639 0.41538 0.0
C77 C 0.0993 0.00567 0.39908 0.0
C78 C 0.12857 0.95375 0.41635 0.0
N79 N 0.012 0.07409 0.46423 0.0
H80 H 0.95074 0.98777 0.50836 0.0
H81 H 0.00452 0.09532 0.60051 0.0
H82 H 0.85381 0.95173 0.59196 0.0
H83 H 0.00757 0.1696 0.55739 0.0
C84 C 0.0428 0.14335 0.54555 0.0
C85 C 0.94395 0.99835 0.53378 0.0
C86 C 0.89572 0.96542 0.54751 0.0
C87 C 0.98187 0.04641 0.55251 0.0
C88 C 0.97378 0.05949 0.58565 0.0
C89 C 0.92775 0.02547 0.60011 0.0
C90 C 0.88828 0.97922 0.58067 0.0
N91 N 0.02936 0.08026 0.53815 0.0
H92 H 0.57988 0.49077 -0.00492 0.0
H93 H 0.52805 0.58895 0.90127 0.0
H94 H 0.65912 0.43134 0.90885 0.0
H95 H 0.5344 0.66942 0.94147 0.0
C96 C 0.50098 0.64869 0.95636 0.0
C97 C 0.58414 0.49678 0.96898 0.0
C98 C 0.62411 0.45623 0.95416 0.0
C99 C 0.55063 0.54566 0.95023 0.0
C100 C 0.55554 0.55241 0.9162 0.0
C101 C 0.59461 0.51144 0.90105 0.0
C102 C 0.6295 0.46386 0.92038 0.0
N103 N 0.51026 0.58637 0.96552 0.0
H104 H 0.45747 0.48978 0.00299 0.0
H105 H 0.50943 0.57367 0.10252 0.0
H106 H 0.36598 0.42326 0.08295 0.0
H107 H 0.51211 0.65957 0.06822 0.0
C108 C 0.54355 0.6402 0.05172 0.0
C109 C 0.45126 0.49284 0.02901 0.0
C110 C 0.40736 0.45189 0.04054 0.0
C111 C 0.48624 0.53841 0.05097 0.0
C112 C 0.47925 0.54098 0.08497 0.0
C113 C 0.43662 0.49908 0.09689 0.0
C114 C 0.39973 0.45554 0.07423 0.0
N115 N 0.53036 0.57965 0.03883 0.0
H116 H 0.10555 0.17555 0.94615 0.0
H117 H 0.23237 0.11692 0.04126 0.0
H118 H 0.18347 0.2627 0.94591 0.0
H119 H 0.31023 0.20293 0.0407 0.0
H120 H 0.46039 0.343 0.02704 0.0
H121 H 0.3936 0.25019 0.0071 0.0
H122 H 0.20588 0.35601 0.98778 0.0
H123 H 0.27287 0.44835 0.00806 0.0
C124 C 0.15069 0.18065 0.96662 0.0
C125 C 0.16264 0.13992 -0.00608 0.0
C126 C 0.19512 0.23039 0.96645 0.0
C127 C 0.25295 0.23924 -0.00684 0.0
C128 C 0.26658 0.19671 0.01952 0.0
C129 C 0.22163 0.14784 0.02003 0.0
C130 C 0.40523 0.34651 0.01713 0.0
C131 C 0.37138 0.40228 0.01877 0.0
C132 C 0.36705 0.29358 0.006 0.0
C133 C 0.29463 0.296 -0.0038 0.0
C134 C 0.26167 0.35298 -0.00511 0.0
C135 C 0.2998 0.40574 0.00642 0.0
H136 H 0.1979 0.84785 0.04693 0.0
H137 H 0.1541 0.88301 0.93911 0.0
H138 H 0.29439 0.78185 0.04015 0.0
H139 H 0.25006 0.81832 0.93272 0.0
H140 H 0.47603 0.76753 0.94272 0.0
H141 H 0.38263 0.8303 0.95533 0.0
H142 H 0.31175 0.67846 0.00619 0.0
H143 H 0.40454 0.61504 -0.00705 0.0
C144 C 0.20854 0.84128 0.02186 0.0
C145 C 0.16845 0.87075 -0.00641 0.0
C146 C 0.26353 0.80354 0.01802 0.0
C147 C 0.27985 0.7957 0.98599 0.0
C148 C 0.23904 0.82429 0.95776 0.0
C149 C 0.1838 0.86105 0.96146 0.0
C150 C 0.44075 0.74772 0.95678 0.0
C151 C 0.44728 0.68653 0.96673 0.0
C152 C 0.38741 0.78352 0.96395 0.0
C153 C 0.33993 0.75898 0.98154 0.0
C154 C 0.34798 0.69843 0.99274 0.0
C155 C 0.40096 0.66223 0.98512 0.0
H156 H 0.83262 0.84177 0.95558 0.0
H157 H 0.87919 0.88983 0.06254 0.0
H158 H 0.73978 0.77379 0.9648 0.0
H159 H 0.78712 0.82287 0.07141 0.0
H160 H 0.5667 0.75982 0.06655 0.0
H161 H 0.65595 0.82537 0.05232 0.0
H162 H 0.72747 0.67455 -0.00095 0.0
H163 H 0.63879 0.60854 0.01382 0.0
C164 C 0.82328 0.83771 0.98097 0.0
C165 C 0.86316 0.87129 0.00829 0.0
C166 C 0.7704 0.79879 0.98622 0.0
C167 C 0.75602 0.79369 0.01874 0.0
C168 C 0.79648 0.82664 0.046 0.0
C169 C 0.84955 0.86472 0.04089 0.0
C170 C 0.60137 0.74079 0.05171 0.0
C171 C 0.59592 0.67928 0.04131 0.0
C172 C 0.65234 0.77819 0.04359 0.0
C173 C 0.69867 0.75487 0.02471 0.0
C174 C 0.69203 0.69371 0.01341 0.0
C175 C 0.6414 0.656 0.02192 0.0
H176 H 0.91908 0.18013 0.04984 0.0
H177 H 0.80306 0.11592 0.95226 0.0
H178 H 0.84089 0.26746 0.04728 0.0
H179 H 0.72546 0.2024 0.94984 0.0
H180 H 0.57124 0.34345 0.95869 0.0
H181 H 0.63677 0.25078 0.9776 0.0
H182 H 0.82247 0.35943 0.00851 0.0
H183 H 0.75648 0.45177 0.9896 0.0
C184 C 0.87635 0.18414 0.02815 0.0
C185 C 0.86751 0.14155 0.0011 0.0
C186 C 0.8318 0.2341 0.02668 0.0
C187 C 0.77703 0.2416 -0.00158 0.0
C188 C 0.76658 0.19743 0.97217 0.0
C189 C 0.81148 0.14817 0.97341 0.0
C190 C 0.62558 0.34737 0.9706 0.0
C191 C 0.6592 0.40413 0.97296 0.0
C192 C 0.66311 0.29457 0.98118 0.0
C193 C 0.73479 0.29791 -0.00575 0.0
C194 C 0.76723 0.35553 -0.00115 0.0
C195 C 0.7297 0.40827 0.98805 0.0
H196 H 0.65745 0.64336 0.44748 0.0
H197 H 0.68632 0.64798 0.55698 0.0
H198 H 0.72679 0.73753 0.4504 0.0
H199 H 0.75397 0.7414 0.55944 0.0
H200 H 0.75744 0.94834 0.5383 0.0
H201 H 0.69328 0.85388 0.5205 0.0
H202 H 0.8756 0.77228 0.49705 0.0
H203 H 0.9408 0.86715 0.51537 0.0
C204 C 0.67912 0.66387 0.47208 0.0
C205 C 0.66592 0.63839 0.50198 0.0
C206 C 0.71874 0.71748 0.47367 0.0
C207 C 0.74507 0.74627 0.50512 0.0
C208 C 0.73388 0.71979 0.53493 0.0
C209 C 0.6951 0.66632 0.53343 0.0
C210 C 0.78341 0.91083 0.52852 0.0
C211 C 0.85424 0.9146 0.52865 0.0
C212 C 0.74669 0.85705 0.51826 0.0
C213 C 0.77986 0.80624 0.50763 0.0
C214 C 0.8491 0.81132 0.50496 0.0
C215 C 0.88618 0.86543 0.51536 0.0
H216 H 0.75004 0.39572 0.5445 0.0
H217 H 0.62077 0.31423 0.45472 0.0
H218 H 0.84462 0.32696 0.53816 0.0
H219 H 0.7142 0.24453 0.44922 0.0
H220 H 0.88745 0.09505 0.47632 0.0
H221 H 0.79515 0.1564 0.49182 0.0
H222 H 0.90645 0.32137 0.47988 0.0
H223 H -0.00235 0.26031 0.46325 0.0
C224 C 0.74146 0.36231 0.52391 0.0
C225 C 0.67838 0.36031 0.50001 0.0
C226 C 0.7954 0.32329 0.52027 0.0
C227 C 0.78615 0.28063 0.4933 0.0
C228 C 0.72214 0.27682 0.47034 0.0
C229 C 0.66899 0.31679 0.47343 0.0
C230 C 0.89237 0.14437 0.47723 0.0
C231 C 0.94943 0.17319 0.46852 0.0
C232 C 0.83976 0.17928 0.48614 0.0
C233 C 0.84433 0.24332 0.48721 0.0
C234 C 0.90235 0.27198 0.47954 0.0
C235 C 0.95406 0.23718 0.46983 0.0
H236 H 0.303 0.38448 0.45491 0.0
H237 H 0.42966 0.31484 0.54735 0.0
H238 H 0.20839 0.31642 0.46179 0.0
H239 H 0.33599 0.24562 0.55342 0.0
H240 H 0.15564 0.09496 0.52526 0.0
H241 H 0.25061 0.15193 0.50933 0.0
H242 H 0.14902 0.32167 0.52295 0.0
H243 H 0.05565 0.26524 0.54012 0.0
C244 C 0.31115 0.35362 0.47617 0.0
C245 C 0.3734 0.35501 0.50069 0.0
C246 C 0.25717 0.31493 0.48009 0.0
C247 C 0.26552 0.27592 0.50801 0.0
C248 C 0.32886 0.27504 0.53155 0.0
C249 C 0.38211 0.31475 0.52813 0.0
C250 C 0.15359 0.1444 0.5247 0.0
C251 C 0.09867 0.17596 0.53405 0.0
C252 C 0.20763 0.17678 0.51553 0.0
C253 C 0.20639 0.24089 0.51476 0.0
C254 C 0.15052 0.27219 0.5231 0.0
C255 C 0.09757 0.24001 0.53309 0.0
H256 H 0.32958 0.61665 0.44105 0.0
H257 H 0.39316 0.65215 0.54904 0.0
H258 H 0.24796 0.69996 0.4361 0.0
H259 H 0.30985 0.73606 0.54407 0.0
H260 H 0.23267 0.93221 0.50121 0.0
H261 H 0.2987 0.83896 0.51821 0.0
H262 H 0.14134 0.73267 0.45074 0.0
H263 H 0.07708 0.82613 0.43321 0.0
C264 C 0.32557 0.64185 0.46387 0.0
C265 C 0.36821 0.62798 0.49541 0.0
C266 C 0.27814 0.68937 0.46108 0.0
C267 C 0.272 0.72449 0.48974 0.0
C268 C 0.31357 0.70993 0.52152 0.0
C269 C 0.36102 0.66181 0.52437 0.0
C270 C 0.21155 0.88851 0.49094 0.0
C271 C 0.15029 0.88583 0.46593 0.0
C272 C 0.24914 0.83517 0.50063 0.0
C273 C 0.22578 0.77854 0.48538 0.0
C274 C 0.16138 0.77572 0.46243 0.0
C275 C 0.12429 0.82895 0.4526 0.0
H276 H 0.03613 0.10529 0.18649 0.0
H277 H 0.16753 0.9466 0.19645 0.0
H278 H 0.04678 0.10912 0.24786 0.0
H279 H 0.17707 0.9493 0.25795 0.0
H280 H 0.21309 0.9935 0.37121 0.0
H281 H 0.21864 0.00351 0.3115 0.0
H282 H 0.00125 0.0475 0.28678 0.0
H283 H 0.99607 0.03811 0.34617 0.0
C284 C 0.06757 0.07139 0.20193 0.0
C285 C 0.10037 0.02523 0.18681 0.0
C286 C 0.0735 0.07341 0.23702 0.0
C287 C 0.11188 0.02896 0.25775 0.0
C288 C 0.14751 0.98451 0.24274 0.0
C289 C 0.142 0.98281 0.20756 0.0
C290 C 0.16667 0.00554 0.35294 0.0
C291 C 0.10419 0.01521 0.36334 0.0
C292 C 0.16981 0.01118 0.31879 0.0
C293 C 0.11047 0.02648 0.29438 0.0
C294 C 0.0483 0.03694 0.30498 0.0
C295 C 0.04524 0.03149 0.33904 0.0
H296 H 0.00662 0.09932 0.81784 0.0
H297 H 0.85427 0.95458 0.79871 0.0
H298 H 0.99571 0.11145 0.75693 0.0
H299 H 0.84388 0.96605 0.73753 0.0
H300 H 0.81287 0.02748 0.6278 0.0
H301 H 0.8094 0.03268 0.68806 0.0
H302 H 0.03195 0.04837 0.71398 0.0
H303 H 0.0354 0.04301 0.65415 0.0
C304 C 0.97061 0.07023 0.80052 0.0
C305 C 0.93207 0.02535 0.81291 0.0
C306 C 0.96438 0.07715 0.76568 0.0
C307 C 0.91968 0.03915 0.74245 0.0
C308 C 0.87844 0.99631 0.75481 0.0
C309 C 0.88446 0.98959 0.78978 0.0
C310 C 0.86094 0.03236 0.64644 0.0
C311 C 0.92443 0.03482 0.63624 0.0
C312 C 0.85893 0.03528 0.68088 0.0
C313 C 0.92036 0.04092 0.70576 0.0
C314 C 0.98357 0.04512 0.69544 0.0
C315 C 0.98558 0.04211 0.6611 0.0
H316 H 0.51154 0.58744 0.68492 0.0
H317 H 0.66162 0.44222 0.69832 0.0
H318 H 0.5214 0.5939 0.74617 0.0
H319 H 0.67043 0.44741 0.7597 0.0
H320 H 0.70653 0.50329 0.87161 0.0
H321 H 0.70737 0.50755 0.81111 0.0
H322 H 0.486 0.53274 0.78806 0.0
H323 H 0.48559 0.52952 0.84828 0.0
C324 C 0.54658 0.55684 0.70106 0.0
C325 C 0.58532 0.51394 0.68695 0.0
C326 C 0.55212 0.56038 0.73611 0.0
C327 C 0.59606 0.52067 0.75782 0.0
C328 C 0.63659 0.47907 0.74374 0.0
C329 C 0.63146 0.47592 0.70862 0.0
C330 C 0.65821 0.50988 0.85351 0.0
C331 C 0.59604 0.51634 0.8646 0.0
C332 C 0.65862 0.51218 0.81891 0.0
C333 C 0.59679 0.52066 0.79474 0.0
C334 C 0.53478 0.52746 0.80599 0.0
C335 C 0.53445 0.52551 0.84051 0.0
H336 H 0.37952 0.5587 0.30452 0.0
H337 H 0.53696 0.4207 0.31004 0.0
H338 H 0.36505 0.56044 0.2427 0.0
H339 H 0.5241 0.42378 0.24868 0.0
H340 H 0.43977 0.399 0.13664 0.0
H341 H 0.44048 0.39601 0.19698 0.0
H342 H 0.4323 0.59319 0.20068 0.0
H343 H 0.42885 0.59615 0.1397 0.0
C344 C 0.41067 0.52853 0.29249 0.0
C345 C 0.45949 0.48967 0.31207 0.0
C346 C 0.40289 0.52998 0.2572 0.0
C347 C 0.44346 0.49228 0.24088 0.0
C348 C 0.49154 0.45289 0.26048 0.0
C349 C 0.49945 0.4516 0.29566 0.0
C350 C 0.43682 0.44172 0.15014 0.0
C351 C 0.43418 0.49785 0.13339 0.0
C352 C 0.43805 0.44001 0.1848 0.0
C353 C 0.43695 0.49436 0.2036 0.0
C354 C 0.43273 0.55053 0.18678 0.0
C355 C 0.43151 0.55226 0.15199 0.0
loop_
_geom_bond_atom_site_label_1
_geom_bond_atom_site_label_2
_geom_bond_distance
_geom_bond_site_symmetry_2
_ccdc_geom_bond_type
C0 O16 1.251 . S
C0 O18 1.254 1_554 S
N1 C2 1.333 1_445 S
N1 C6 1.307 . S
N1 Zn7 2.020 . S
C2 N1 1.333 1_665 S
C2 C3 1.379 . S
C2 H20 0.952 . S
C3 C2 1.379 . S
C3 C4 1.390 1_665 S
C3 H30 0.949 . S
C4 C3 1.390 1_445 S
C4 C5 1.357 . S
C5 C4 1.357 . S
C5 C6 1.370 . S
C5 H31 0.950 . S
C6 N1 1.307 . S
C6 C5 1.370 . S
C6 H24 0.948 . S
Zn7 N1 2.020 . S
Zn7 O16 2.039 1_445 S
Zn7 O22 2.034 1_455 S
Zn7 O26 2.025 . S
Zn7 O28 2.024 1_545 S
C8 O27 1.246 1_554 S
C8 O28 1.249 . S
N9 C10 1.304 1_445 S
N9 C11 1.336 . S
N9 Zn15 2.019 . S
C10 N9 1.304 1_665 S
C10 C14 1.370 . S
C10 H21 0.948 . S
C11 N9 1.336 . S
C11 C12 1.379 . S
C11 H19 0.952 . S
C12 C11 1.379 . S
C12 C13 1.390 1_455 S
C12 H32 0.949 . S
C13 C12 1.390 1_655 S
C13 C14 1.357 1_545 S
C14 C10 1.370 . S
C14 C13 1.357 1_565 S
C14 H33 0.950 . S
Zn15 N9 2.019 . S
Zn15 O18 2.025 1_445 S
Zn15 O23 2.024 1_455 S
Zn15 O25 2.039 . S
Zn15 O27 2.034 1_545 S
O16 C0 1.251 . S
O16 Zn7 2.039 1_665 S
C17 O22 1.246 . S
C17 O23 1.249 1_554 S
O18 C0 1.254 1_556 S
O18 Zn15 2.025 1_665 S
H19 C11 0.952 . S
H20 C2 0.952 . S
H21 C10 0.948 . S
O22 Zn7 2.034 1_655 S
O22 C17 1.246 . S
O23 Zn15 2.024 1_655 S
O23 C17 1.249 1_556 S
H24 C6 0.948 . S
O25 Zn15 2.039 . S
O25 C29 1.251 1_556 S
O26 Zn7 2.025 . S
O26 C29 1.254 . S
O27 C8 1.246 1_556 S
O27 Zn15 2.034 1_565 S
O28 Zn7 2.024 1_565 S
O28 C8 1.249 . S
C29 O25 1.251 1_554 S
C29 O26 1.254 . S
H30 C3 0.949 . S
H31 C5 0.950 . S
H32 C12 0.949 . S
H33 C14 0.950 . S
C34 O50 1.251 . S
C34 O52 1.254 . S
N35 C36 1.333 . S
N35 C40 1.307 . S
N35 Zn41 2.020 . S
C36 N35 1.333 . S
C36 C37 1.379 . S
C36 H54 0.952 . S
C37 C36 1.379 . S
C37 C38 1.390 . S
C37 H64 0.949 . S
C38 C37 1.390 . S
C38 C39 1.357 . S
C39 C38 1.357 . S
C39 C40 1.370 . S
C39 H65 0.950 . S
C40 N35 1.307 . S
C40 C39 1.370 . S
C40 H58 0.948 . S
Zn41 N35 2.020 . S
Zn41 O50 2.039 . S
Zn41 O56 2.034 . S
Zn41 O60 2.025 . S
Zn41 O62 2.024 . S
C42 O61 1.246 . S
C42 O62 1.249 . S
N43 C44 1.307 . S
N43 C45 1.333 . S
N43 Zn49 2.020 . S
C44 N43 1.307 . S
C44 C48 1.370 . S
C44 H55 0.948 . S
C45 N43 1.333 . S
C45 C46 1.379 . S
C45 H53 0.952 . S
C46 C45 1.379 . S
C46 C47 1.390 . S
C46 H66 0.949 . S
C47 C46 1.390 . S
C47 C48 1.357 . S
C48 C44 1.370 . S
C48 C47 1.357 . S
C48 H67 0.950 . S
Zn49 N43 2.020 . S
Zn49 O52 2.025 . S
Zn49 O57 2.024 . S
Zn49 O59 2.039 . S
Zn49 O61 2.034 . S
O50 C34 1.251 . S
O50 Zn41 2.039 . S
C51 O56 1.246 . S
C51 O57 1.249 . S
O52 C34 1.254 . S
O52 Zn49 2.025 . S
H53 C45 0.952 . S
H54 C36 0.952 . S
H55 C44 0.948 . S
O56 Zn41 2.034 . S
O56 C51 1.246 . S
O57 Zn49 2.024 . S
O57 C51 1.249 . S
H58 C40 0.948 . S
O59 Zn49 2.039 . S
O59 C63 1.251 . S
O60 Zn41 2.025 . S
O60 C63 1.254 . S
O61 C42 1.246 . S
O61 Zn49 2.034 . S
O62 Zn41 2.024 . S
O62 C42 1.249 . S
C63 O59 1.251 . S
C63 O60 1.254 . S
H64 C37 0.949 . S
H65 C39 0.950 . S
H66 C46 0.949 . S
H67 C48 0.950 . S
H68 C73 0.930 . S
H69 C76 0.930 1_655 S
H70 C78 0.930 . S
H71 C72 1.016 . S
C72 H71 1.016 . S
C72 N79 1.286 . S
C73 H68 0.930 . S
C73 C74 1.397 . S
C73 C75 1.361 1_565 S
C74 C73 1.397 . S
C74 C78 1.390 . S
C75 C73 1.361 1_545 S
C75 C76 1.393 . S
C75 N79 1.413 1_455 S
C76 H69 0.930 1_455 S
C76 C75 1.393 . S
C76 C77 1.399 . S
C77 C76 1.399 . S
C77 C78 1.381 1_545 S
C78 H70 0.930 . S
C78 C74 1.390 . S
C78 C77 1.381 1_565 S
N79 C72 1.286 . S
N79 C75 1.413 1_655 S
H80 C85 0.930 . S
H81 C88 0.930 . S
H82 C90 0.930 . S
H83 C84 1.016 . S
C84 H83 1.016 . S
C84 N91 1.286 . S
C85 H80 0.930 . S
C85 C86 1.397 . S
C85 C87 1.361 1_665 S
C86 C85 1.397 . S
C86 C90 1.390 . S
C87 C85 1.361 1_445 S
C87 C88 1.393 . S
C87 N91 1.413 . S
C88 H81 0.930 . S
C88 C87 1.393 . S
C88 C89 1.399 1_455 S
C89 C88 1.399 1_655 S
C89 C90 1.381 1_545 S
C90 H82 0.930 . S
C90 C86 1.390 . S
C90 C89 1.381 1_565 S
N91 C84 1.286 . S
N91 C87 1.413 . S
H92 C97 0.930 1_554 S
H93 C100 0.930 . S
H94 C102 0.930 . S
H95 C96 1.016 . S
C96 H95 1.016 . S
C96 N103 1.286 . S
C97 H92 0.930 1_556 S
C97 C98 1.397 . S
C97 C99 1.361 . S
C98 C97 1.397 . S
C98 C102 1.390 . S
C99 C97 1.361 . S
C99 C100 1.393 . S
C99 N103 1.413 . S
C100 H93 0.930 . S
C100 C99 1.393 . S
C100 C101 1.399 . S
C101 C100 1.399 . S
C101 C102 1.381 . S
C102 H94 0.930 . S
C102 C98 1.390 . S
C102 C101 1.381 . S
N103 C96 1.286 . S
N103 C99 1.413 . S
H104 C109 0.911 1_556 S
H105 C112 0.930 . S
H106 C114 0.930 . S
H107 C108 1.016 . S
C108 H107 1.016 . S
C108 N115 1.286 . S
C109 H104 0.911 1_554 S
C109 C110 1.397 . S
C109 C111 1.361 . S
C110 C109 1.397 . S
C110 C114 1.390 . S
C111 C109 1.361 . S
C111 C112 1.393 . S
C111 N115 1.413 . S
C112 H105 0.930 . S
C112 C111 1.393 . S
C112 C113 1.399 . S
C113 C112 1.399 . S
C113 C114 1.381 . S
C114 H106 0.930 . S
C114 C110 1.390 . S
C114 C113 1.381 . S
N115 C108 1.286 . S
N115 C111 1.413 . S
H116 C124 0.950 . S
H117 C129 0.950 . S
H118 C126 0.950 . S
H119 C128 0.950 . S
H120 C130 0.950 . S
H121 C132 0.950 . S
H122 C134 0.950 . S
H123 C135 0.950 . S
C124 H116 0.950 . S
C124 C125 1.386 1_556 S
C124 C126 1.391 . S
C125 C124 1.386 1_554 S
C125 C129 1.393 . S
C126 H118 0.950 . S
C126 C124 1.391 . S
C126 C127 1.400 1_556 S
C127 C126 1.400 1_554 S
C127 C128 1.398 . S
C127 C133 1.491 . S
C128 H119 0.950 . S
C128 C127 1.398 . S
C128 C129 1.391 . S
C129 H117 0.950 . S
C129 C125 1.393 . S
C129 C128 1.391 . S
C130 H120 0.950 . S
C130 C131 1.386 . S
C130 C132 1.391 . S
C131 C130 1.386 . S
C131 C135 1.393 1_554 S
C132 H121 0.950 . S
C132 C130 1.391 . S
C132 C133 1.400 . S
C133 C127 1.491 . S
C133 C132 1.400 . S
C133 C134 1.398 1_554 S
C134 H122 0.950 . S
C134 C133 1.398 1_556 S
C134 C135 1.391 . S
C135 H123 0.950 . S
C135 C131 1.393 1_556 S
C135 C134 1.391 . S
H136 C144 0.950 . S
H137 C149 0.950 . S
H138 C146 0.950 . S
H139 C148 0.950 . S
H140 C150 0.950 . S
H141 C152 0.950 . S
H142 C154 0.950 . S
H143 C155 0.950 . S
C144 H136 0.950 . S
C144 C145 1.386 . S
C144 C146 1.391 . S
C145 C144 1.386 . S
C145 C149 1.393 1_554 S
C146 H138 0.950 . S
C146 C144 1.391 . S
C146 C147 1.400 . S
C147 C146 1.400 . S
C147 C148 1.398 1_554 S
C147 C153 1.491 . S
C148 H139 0.950 . S
C148 C147 1.398 1_556 S
C148 C149 1.391 . S
C149 H137 0.950 . S
C149 C145 1.393 1_556 S
C149 C148 1.391 . S
C150 H140 0.950 . S
C150 C151 1.396 . S
C150 C152 1.391 . S
C151 C150 1.396 . S
C151 C155 1.379 1_556 S
C152 H141 0.950 . S
C152 C150 1.391 . S
C152 C153 1.400 1_556 S
C153 C147 1.491 . S
C153 C152 1.400 1_554 S
C153 C154 1.398 . S
C154 H142 0.950 . S
C154 C153 1.398 . S
C154 C155 1.391 . S
C155 H143 0.950 . S
C155 C151 1.379 1_554 S
C155 C154 1.391 . S
H156 C164 0.950 . S
H157 C169 0.950 . S
H158 C166 0.950 . S
H159 C168 0.950 . S
H160 C170 0.950 . S
H161 C172 0.950 . S
H162 C174 0.950 . S
H163 C175 0.950 . S
C164 H156 0.950 . S
C164 C165 1.386 1_556 S
C164 C166 1.391 . S
C165 C164 1.386 1_554 S
C165 C169 1.393 . S
C166 H158 0.950 . S
C166 C164 1.391 . S
C166 C167 1.400 1_556 S
C167 C166 1.400 1_554 S
C167 C168 1.398 . S
C167 C173 1.491 . S
C168 H159 0.950 . S
C168 C167 1.398 . S
C168 C169 1.391 . S
C169 H157 0.950 . S
C169 C165 1.393 . S
C169 C168 1.391 . S
C170 H160 0.950 . S
C170 C171 1.386 . S
C170 C172 1.391 . S
C171 C170 1.386 . S
C171 C175 1.393 1_554 S
C172 H161 0.950 . S
C172 C170 1.391 . S
C172 C173 1.400 . S
C173 C167 1.491 . S
C173 C172 1.400 . S
C173 C174 1.398 1_554 S
C174 H162 0.950 . S
C174 C173 1.398 1_556 S
C174 C175 1.391 . S
C175 H163 0.950 . S
C175 C171 1.393 1_556 S
C175 C174 1.391 . S
H176 C184 0.950 . S
H177 C189 0.950 . S
H178 C186 0.950 . S
H179 C188 0.950 . S
H180 C190 0.950 . S
H181 C192 0.950 . S
H182 C194 0.950 . S
H183 C195 0.950 . S
C184 H176 0.950 . S
C184 C185 1.388 1_554 S
C184 C186 1.391 . S
C185 C184 1.388 1_556 S
C185 C189 1.390 . S
C186 H178 0.950 . S
C186 C184 1.391 . S
C186 C187 1.400 1_554 S
C187 C186 1.400 1_556 S
C187 C188 1.398 . S
C187 C193 1.491 . S
C188 H179 0.950 . S
C188 C187 1.398 . S
C188 C189 1.391 . S
C189 H177 0.950 . S
C189 C185 1.390 . S
C189 C188 1.391 . S
C190 H180 0.950 . S
C190 C191 1.386 . S
C190 C192 1.391 . S
C191 C190 1.386 . S
C191 C195 1.393 1_556 S
C192 H181 0.950 . S
C192 C190 1.391 . S
C192 C193 1.400 . S
C193 C187 1.491 . S
C193 C192 1.400 . S
C193 C194 1.398 1_556 S
C194 H182 0.950 . S
C194 C193 1.398 1_554 S
C194 C195 1.391 . S
C195 H183 0.950 . S
C195 C191 1.393 1_554 S
C195 C194 1.391 . S
H196 C204 0.950 . S
H197 C209 0.950 . S
H198 C206 0.950 . S
H199 C208 0.950 . S
H200 C210 0.950 . S
H201 C212 0.950 . S
H202 C214 0.950 . S
H203 C215 0.950 . S
C204 H196 0.950 . S
C204 C205 1.386 . S
C204 C206 1.391 . S
C205 C204 1.386 . S
C205 C209 1.393 . S
C206 H198 0.950 . S
C206 C204 1.391 . S
C206 C207 1.400 . S
C207 C206 1.400 . S
C207 C208 1.398 . S
C207 C213 1.491 . S
C208 H199 0.950 . S
C208 C207 1.398 . S
C208 C209 1.391 . S
C209 H197 0.950 . S
C209 C205 1.393 . S
C209 C208 1.391 . S
C210 H200 0.950 . S
C210 C211 1.386 . S
C210 C212 1.391 . S
C211 C210 1.386 . S
C211 C215 1.393 . S
C212 H201 0.950 . S
C212 C210 1.391 . S
C212 C213 1.400 . S
C213 C207 1.491 . S
C213 C212 1.400 . S
C213 C214 1.398 . S
C214 H202 0.950 . S
C214 C213 1.398 . S
C214 C215 1.391 . S
C215 H203 0.950 . S
C215 C211 1.393 . S
C215 C214 1.391 . S
H216 C224 0.950 . S
H217 C229 0.950 . S
H218 C226 0.950 . S
H219 C228 0.950 . S
H220 C230 0.950 . S
H221 C232 0.950 . S
H222 C234 0.950 . S
H223 C235 0.950 . S
C224 H216 0.950 . S
C224 C225 1.386 . S
C224 C226 1.391 . S
C225 C224 1.386 . S
C225 C229 1.393 . S
C226 H218 0.950 . S
C226 C224 1.391 . S
C226 C227 1.400 . S
C227 C226 1.400 . S
C227 C228 1.398 . S
C227 C233 1.491 . S
C228 H219 0.950 . S
C228 C227 1.398 . S
C228 C229 1.391 . S
C229 H217 0.950 . S
C229 C225 1.393 . S
C229 C228 1.391 . S
C230 H220 0.950 . S
C230 C231 1.386 . S
C230 C232 1.391 . S
C231 C230 1.386 . S
C231 C235 1.393 . S
C232 H221 0.950 . S
C232 C230 1.391 . S
C232 C233 1.400 . S
C233 C227 1.491 . S
C233 C232 1.400 . S
C233 C234 1.398 . S
C234 H222 0.950 . S
C234 C233 1.398 . S
C234 C235 1.391 . S
C235 H223 0.950 . S
C235 C231 1.393 . S
C235 C234 1.391 . S
H236 C244 0.950 . S
H237 C249 0.950 . S
H238 C246 0.950 . S
H239 C248 0.950 . S
H240 C250 0.950 . S
H241 C252 0.950 . S
H242 C254 0.950 . S
H243 C255 0.950 . S
C244 H236 0.950 . S
C244 C245 1.386 . S
C244 C246 1.391 . S
C245 C244 1.386 . S
C245 C249 1.393 . S
C246 H238 0.950 . S
C246 C244 1.391 . S
C246 C247 1.400 . S
C247 C246 1.400 . S
C247 C248 1.398 . S
C247 C253 1.491 . S
C248 H239 0.950 . S
C248 C247 1.398 . S
C248 C249 1.391 . S
C249 H237 0.950 . S
C249 C245 1.393 . S
C249 C248 1.391 . S
C250 H240 0.950 . S
C250 C251 1.386 . S
C250 C252 1.391 . S
C251 C250 1.386 . S
C251 C255 1.393 . S
C252 H241 0.950 . S
C252 C250 1.391 . S
C252 C253 1.400 . S
C253 C247 1.491 . S
C253 C252 1.400 . S
C253 C254 1.398 . S
C254 H242 0.950 . S
C254 C253 1.398 . S
C254 C255 1.391 . S
C255 H243 0.950 . S
C255 C251 1.393 . S
C255 C254 1.391 . S
H256 C264 0.950 . S
H257 C269 0.950 . S
H258 C266 0.950 . S
H259 C268 0.950 . S
H260 C270 0.950 . S
H261 C272 0.950 . S
H262 C274 0.950 . S
H263 C275 0.950 . S
C264 H256 0.950 . S
C264 C265 1.386 . S
C264 C266 1.391 . S
C265 C264 1.386 . S
C265 C269 1.393 . S
C266 H258 0.950 . S
C266 C264 1.391 . S
C266 C267 1.400 . S
C267 C266 1.400 . S
C267 C268 1.398 . S
C267 C273 1.491 . S
C268 H259 0.950 . S
C268 C267 1.398 . S
C268 C269 1.391 . S
C269 H257 0.950 . S
C269 C265 1.393 . S
C269 C268 1.391 . S
C270 H260 0.950 . S
C270 C271 1.386 . S
C270 C272 1.391 . S
C271 C270 1.386 . S
C271 C275 1.393 . S
C272 H261 0.950 . S
C272 C270 1.391 . S
C272 C273 1.400 . S
C273 C267 1.491 . S
C273 C272 1.400 . S
C273 C274 1.398 . S
C274 H262 0.950 . S
C274 C273 1.398 . S
C274 C275 1.391 . S
C275 H263 0.950 . S
C275 C271 1.393 . S
C275 C274 1.391 . S
H276 C284 0.950 . S
H277 C289 0.950 . S
H278 C286 0.950 . S
H279 C288 0.950 . S
H280 C290 0.947 1_565 S
H281 C292 0.950 1_565 S
H282 C294 0.950 . S
H283 C295 0.950 . S
C284 H276 0.950 . S
C284 C285 1.386 1_655 S
C284 C286 1.391 . S
C285 C284 1.386 1_455 S
C285 C289 1.393 1_545 S
C286 H278 0.950 . S
C286 C284 1.391 . S
C286 C287 1.400 1_655 S
C287 C286 1.400 1_455 S
C287 C288 1.398 1_545 S
C287 C293 1.491 . S
C288 H279 0.950 . S
C288 C287 1.398 1_565 S
C288 C289 1.391 . S
C289 H277 0.950 . S
C289 C285 1.393 1_565 S
C289 C288 1.391 . S
C290 H280 0.947 1_545 S
C290 C291 1.386 . S
C290 C292 1.391 . S
C291 C290 1.386 . S
C291 C295 1.393 1_455 S
C292 H281 0.950 1_545 S
C292 C290 1.391 . S
C292 C293 1.400 . S
C293 C287 1.491 . S
C293 C292 1.400 . S
C293 C294 1.398 1_455 S
C294 H282 0.950 . S
C294 C293 1.398 1_655 S
C294 C295 1.391 . S
C295 H283 0.950 . S
C295 C291 1.393 1_655 S
C295 C294 1.391 . S
H296 C304 0.950 . S
H297 C309 0.950 . S
H298 C306 0.950 . S
H299 C308 0.950 . S
H300 C310 0.950 . S
H301 C312 0.950 . S
H302 C314 0.950 . S
H303 C315 0.950 . S
C304 H296 0.950 . S
C304 C305 1.386 1_455 S
C304 C306 1.391 . S
C305 C304 1.386 1_655 S
C305 C309 1.393 1_545 S
C306 H298 0.950 . S
C306 C304 1.391 . S
C306 C307 1.400 1_455 S
C307 C306 1.400 1_655 S
C307 C308 1.398 1_545 S
C307 C313 1.491 . S
C308 H299 0.950 . S
C308 C307 1.398 1_565 S
C308 C309 1.391 . S
C309 H297 0.950 . S
C309 C305 1.393 1_565 S
C309 C308 1.391 . S
C310 H300 0.950 . S
C310 C311 1.386 1_565 S
C310 C312 1.391 . S
C311 C310 1.386 1_545 S
C311 C315 1.393 1_655 S
C312 H301 0.950 . S
C312 C310 1.391 . S
C312 C313 1.400 1_565 S
C313 C307 1.491 . S
C313 C312 1.400 1_545 S
C313 C314 1.398 1_655 S
C314 H302 0.950 . S
C314 C313 1.398 1_455 S
C314 C315 1.391 . S
C315 H303 0.950 . S
C315 C311 1.393 1_455 S
C315 C314 1.391 . S
H316 C324 0.950 . S
H317 C329 0.950 . S
H318 C326 0.950 . S
H319 C328 0.950 . S
H320 C330 0.950 . S
H321 C332 0.950 . S
H322 C334 0.950 . S
H323 C335 0.950 . S
C324 H316 0.950 . S
C324 C325 1.386 . S
C324 C326 1.391 . S
C325 C324 1.386 . S
C325 C329 1.393 . S
C326 H318 0.950 . S
C326 C324 1.391 . S
C326 C327 1.400 . S
C327 C326 1.400 . S
C327 C328 1.398 . S
C327 C333 1.491 . S
C328 H319 0.950 . S
C328 C327 1.398 . S
C328 C329 1.391 . S
C329 H317 0.950 . S
C329 C325 1.393 . S
C329 C328 1.391 . S
C330 H320 0.950 . S
C330 C331 1.386 . S
C330 C332 1.391 . S
C331 C330 1.386 . S
C331 C335 1.393 . S
C332 H321 0.950 . S
C332 C330 1.391 . S
C332 C333 1.400 . S
C333 C327 1.491 . S
C333 C332 1.400 . S
C333 C334 1.398 . S
C334 H322 0.950 . S
C334 C333 1.398 . S
C334 C335 1.391 . S
C335 H323 0.950 . S
C335 C331 1.393 . S
C335 C334 1.391 . S
H336 C344 0.950 . S
H337 C349 0.950 . S
H338 C346 0.950 . S
H339 C348 0.950 . S
H340 C350 0.950 . S
H341 C352 0.950 . S
H342 C354 0.950 . S
H343 C355 0.950 . S
C344 H336 0.950 . S
C344 C345 1.386 . S
C344 C346 1.391 . S
C345 C344 1.386 . S
C345 C349 1.393 . S
C346 H338 0.950 . S
C346 C344 1.391 . S
C346 C347 1.400 . S
C347 C346 1.400 . S
C347 C348 1.398 . S
C347 C353 1.491 . S
C348 H339 0.950 . S
C348 C347 1.398 . S
C348 C349 1.391 . S
C349 H337 0.950 . S
C349 C345 1.393 . S
C349 C348 1.391 . S
C350 H340 0.950 . S
C350 C351 1.386 . S
C350 C352 1.391 . S
C351 C350 1.386 . S
C351 C355 1.393 . S
C352 H341 0.950 . S
C352 C350 1.391 . S
C352 C353 1.400 . S
C353 C347 1.491 . S
C353 C352 1.400 . S
C353 C354 1.398 . S
C354 H342 0.950 . S
C354 C353 1.398 . S
C354 C355 1.391 . S
C355 H343 0.950 . S
C355 C351 1.393 . S
C355 C354 1.391 . S
C131 C110 1.452 . S
C125 C29 1.487 . S
C145 C8 1.405 . S
C151 C96 1.352 . S
C165 C0 1.408 . S
C171 C108 1.357 . S
C185 C17 1.490 1_556 S
C191 C98 1.463 . S
C205 C63 1.488 . S
C211 C86 1.446 . S
C225 C42 1.403 . S
C231 C72 1.335 . S
C251 C84 1.349 . S
C245 C34 1.409 . S
C271 C74 1.450 . S
C265 C51 1.492 . S
C285 C4 1.522 . S
C291 C77 1.520 . S
C305 C13 1.511 . S
C311 C89 1.511 . S
C331 C101 1.519 . S
C325 C38 1.522 . S
C345 C47 1.515 . S
C351 C113 1.504 . S
