# Generated by pormake.
# Topology ptr, (4,4)-cn, num edge types: 1
# Building blocks:
#     Node 0, Type 0, BuildingBlock: TATPOV_clean_sbu_0, # of connection points: 4
#     Node 1, Type 0, BuildingBlock: TATPOV_clean_sbu_0, # of connection points: 4
#     Node 2, Type 0, BuildingBlock: TATPOV_clean_sbu_0, # of connection points: 4
#     Node 3, Type 0, BuildingBlock: TATPOV_clean_sbu_0, # of connection points: 4
#     Node 4, Type 0, BuildingBlock: TATPOV_clean_sbu_0, # of connection points: 4
#     Node 5, Type 0, BuildingBlock: TATPOV_clean_sbu_0, # of connection points: 4
#     Node 6, Type 0, BuildingBlock: TATPOV_clean_sbu_0, # of connection points: 4
#     Node 7, Type 0, BuildingBlock: TATPOV_clean_sbu_0, # of connection points: 4
#     Node 8, Type 0, BuildingBlock: TATPOV_clean_sbu_0, # of connection points: 4
#     Node 9, Type 0, BuildingBlock: TATPOV_clean_sbu_0, # of connection points: 4
#     Node 10, Type 0, BuildingBlock: TATPOV_clean_sbu_0, # of connection points: 4
#     Node 11, Type 0, BuildingBlock: TATPOV_clean_sbu_0, # of connection points: 4
#     Node 12, Type 0, BuildingBlock: TATPOV_clean_sbu_0, # of connection points: 4
#     Node 13, Type 0, BuildingBlock: TATPOV_clean_sbu_0, # of connection points: 4
#     Node 14, Type 0, BuildingBlock: TATPOV_clean_sbu_0, # of connection points: 4
#     Node 15, Type 0, BuildingBlock: TATPOV_clean_sbu_0, # of connection points: 4
#     Node 16, Type 0, BuildingBlock: TATPOV_clean_sbu_0, # of connection points: 4
#     Node 17, Type 0, BuildingBlock: TATPOV_clean_sbu_0, # of connection points: 4
#     Node 18, Type 1, BuildingBlock: MUDLON_clean_linker_0, # of connection points: 4
#     Node 19, Type 1, BuildingBlock: MUDLON_clean_linker_0, # of connection points: 4
#     Node 20, Type 1, BuildingBlock: MUDLON_clean_linker_0, # of connection points: 4
#     Node 21, Type 1, BuildingBlock: MUDLON_clean_linker_0, # of connection points: 4
#     Node 22, Type 1, BuildingBlock: MUDLON_clean_linker_0, # of connection points: 4
#     Node 23, Type 1, BuildingBlock: MUDLON_clean_linker_0, # of connection points: 4
#     Node 24, Type 1, BuildingBlock: MUDLON_clean_linker_0, # of connection points: 4
#     Node 25, Type 1, BuildingBlock: MUDLON_clean_linker_0, # of connection points: 4
#     Node 26, Type 1, BuildingBlock: MUDLON_clean_linker_0, # of connection points: 4
#     Node 27, Type 1, BuildingBlock: MUDLON_clean_linker_0, # of connection points: 4
#     Node 28, Type 1, BuildingBlock: MUDLON_clean_linker_0, # of connection points: 4
#     Node 29, Type 1, BuildingBlock: MUDLON_clean_linker_0, # of connection points: 4
#     Node 30, Type 1, BuildingBlock: MUDLON_clean_linker_0, # of connection points: 4
#     Node 31, Type 1, BuildingBlock: MUDLON_clean_linker_0, # of connection points: 4
#     Node 32, Type 1, BuildingBlock: MUDLON_clean_linker_0, # of connection points: 4
#     Node 33, Type 1, BuildingBlock: MUDLON_clean_linker_0, # of connection points: 4
#     Node 34, Type 1, BuildingBlock: MUDLON_clean_linker_0, # of connection points: 4
#     Node 35, Type 1, BuildingBlock: MUDLON_clean_linker_0, # of connection points: 4
#     Edge 36, Type (0, 1), BuildingBlock: AJUNOK_clean_linker_0, # of connection points: 2
#     Edge 37, Type (0, 1), BuildingBlock: AJUNOK_clean_linker_0, # of connection points: 2
#     Edge 38, Type (0, 1), BuildingBlock: AJUNOK_clean_linker_0, # of connection points: 2
#     Edge 39, Type (0, 1), BuildingBlock: AJUNOK_clean_linker_0, # of connection points: 2
#     Edge 40, Type (0, 1), BuildingBlock: AJUNOK_clean_linker_0, # of connection points: 2
#     Edge 41, Type (0, 1), BuildingBlock: AJUNOK_clean_linker_0, # of connection points: 2
#     Edge 42, Type (0, 1), BuildingBlock: AJUNOK_clean_linker_0, # of connection points: 2
#     Edge 43, Type (0, 1), BuildingBlock: AJUNOK_clean_linker_0, # of connection points: 2
#     Edge 44, Type (0, 1), BuildingBlock: AJUNOK_clean_linker_0, # of connection points: 2
#     Edge 45, Type (0, 1), BuildingBlock: AJUNOK_clean_linker_0, # of connection points: 2
#     Edge 46, Type (0, 1), BuildingBlock: AJUNOK_clean_linker_0, # of connection points: 2
#     Edge 47, Type (0, 1), BuildingBlock: AJUNOK_clean_linker_0, # of connection points: 2
#     Edge 48, Type (0, 1), BuildingBlock: AJUNOK_clean_linker_0, # of connection points: 2
#     Edge 49, Type (0, 1), BuildingBlock: AJUNOK_clean_linker_0, # of connection points: 2
#     Edge 50, Type (0, 1), BuildingBlock: AJUNOK_clean_linker_0, # of connection points: 2
#     Edge 51, Type (0, 1), BuildingBlock: AJUNOK_clean_linker_0, # of connection points: 2
#     Edge 52, Type (0, 1), BuildingBlock: AJUNOK_clean_linker_0, # of connection points: 2
#     Edge 53, Type (0, 1), BuildingBlock: AJUNOK_clean_linker_0, # of connection points: 2
#     Edge 54, Type (0, 1), BuildingBlock: AJUNOK_clean_linker_0, # of connection points: 2
#     Edge 55, Type (0, 1), BuildingBlock: AJUNOK_clean_linker_0, # of connection points: 2
#     Edge 56, Type (0, 1), BuildingBlock: AJUNOK_clean_linker_0, # of connection points: 2
#     Edge 57, Type (0, 1), BuildingBlock: AJUNOK_clean_linker_0, # of connection points: 2
#     Edge 58, Type (0, 1), BuildingBlock: AJUNOK_clean_linker_0, # of connection points: 2
#     Edge 59, Type (0, 1), BuildingBlock: AJUNOK_clean_linker_0, # of connection points: 2
#     Edge 60, Type (0, 1), BuildingBlock: AJUNOK_clean_linker_0, # of connection points: 2
#     Edge 61, Type (0, 1), BuildingBlock: AJUNOK_clean_linker_0, # of connection points: 2
#     Edge 62, Type (0, 1), BuildingBlock: AJUNOK_clean_linker_0, # of connection points: 2
#     Edge 63, Type (0, 1), BuildingBlock: AJUNOK_clean_linker_0, # of connection points: 2
#     Edge 64, Type (0, 1), BuildingBlock: AJUNOK_clean_linker_0, # of connection points: 2
#     Edge 65, Type (0, 1), BuildingBlock: AJUNOK_clean_linker_0, # of connection points: 2
#     Edge 66, Type (0, 1), BuildingBlock: AJUNOK_clean_linker_0, # of connection points: 2
#     Edge 67, Type (0, 1), BuildingBlock: AJUNOK_clean_linker_0, # of connection points: 2
#     Edge 68, Type (0, 1), BuildingBlock: AJUNOK_clean_linker_0, # of connection points: 2
#     Edge 69, Type (0, 1), BuildingBlock: AJUNOK_clean_linker_0, # of connection points: 2
#     Edge 70, Type (0, 1), BuildingBlock: AJUNOK_clean_linker_0, # of connection points: 2
#     Edge 71, Type (0, 1), BuildingBlock: AJUNOK_clean_linker_0, # of connection points: 2
#     Edge 72, Type (0, 1), BuildingBlock: AJUNOK_clean_linker_0, # of connection points: 2
#     Edge 73, Type (0, 1), BuildingBlock: AJUNOK_clean_linker_0, # of connection points: 2
#     Edge 74, Type (0, 1), BuildingBlock: AJUNOK_clean_linker_0, # of connection points: 2
#     Edge 75, Type (0, 1), BuildingBlock: AJUNOK_clean_linker_0, # of connection points: 2
#     Edge 76, Type (0, 1), BuildingBlock: AJUNOK_clean_linker_0, # of connection points: 2
#     Edge 77, Type (0, 1), BuildingBlock: AJUNOK_clean_linker_0, # of connection points: 2
#     Edge 78, Type (0, 1), BuildingBlock: AJUNOK_clean_linker_0, # of connection points: 2
#     Edge 79, Type (0, 1), BuildingBlock: AJUNOK_clean_linker_0, # of connection points: 2
#     Edge 80, Type (0, 1), BuildingBlock: AJUNOK_clean_linker_0, # of connection points: 2
#     Edge 81, Type (0, 1), BuildingBlock: AJUNOK_clean_linker_0, # of connection points: 2
#     Edge 82, Type (0, 1), BuildingBlock: AJUNOK_clean_linker_0, # of connection points: 2
#     Edge 83, Type (0, 1), BuildingBlock: AJUNOK_clean_linker_0, # of connection points: 2
#     Edge 84, Type (0, 1), BuildingBlock: AJUNOK_clean_linker_0, # of connection points: 2
#     Edge 85, Type (0, 1), BuildingBlock: AJUNOK_clean_linker_0, # of connection points: 2
#     Edge 86, Type (0, 1), BuildingBlock: AJUNOK_clean_linker_0, # of connection points: 2
#     Edge 87, Type (0, 1), BuildingBlock: AJUNOK_clean_linker_0, # of connection points: 2
#     Edge 88, Type (0, 1), BuildingBlock: AJUNOK_clean_linker_0, # of connection points: 2
#     Edge 89, Type (0, 1), BuildingBlock: AJUNOK_clean_linker_0, # of connection points: 2
#     Edge 90, Type (0, 1), BuildingBlock: AJUNOK_clean_linker_0, # of connection points: 2
#     Edge 91, Type (0, 1), BuildingBlock: AJUNOK_clean_linker_0, # of connection points: 2
#     Edge 92, Type (0, 1), BuildingBlock: AJUNOK_clean_linker_0, # of connection points: 2
#     Edge 93, Type (0, 1), BuildingBlock: AJUNOK_clean_linker_0, # of connection points: 2
#     Edge 94, Type (0, 1), BuildingBlock: AJUNOK_clean_linker_0, # of connection points: 2
#     Edge 95, Type (0, 1), BuildingBlock: AJUNOK_clean_linker_0, # of connection points: 2
#     Edge 96, Type (0, 1), BuildingBlock: AJUNOK_clean_linker_0, # of connection points: 2
#     Edge 97, Type (0, 1), BuildingBlock: AJUNOK_clean_linker_0, # of connection points: 2
#     Edge 98, Type (0, 1), BuildingBlock: AJUNOK_clean_linker_0, # of connection points: 2
#     Edge 99, Type (0, 1), BuildingBlock: AJUNOK_clean_linker_0, # of connection points: 2
#     Edge 100, Type (0, 1), BuildingBlock: AJUNOK_clean_linker_0, # of connection points: 2
#     Edge 101, Type (0, 1), BuildingBlock: AJUNOK_clean_linker_0, # of connection points: 2
#     Edge 102, Type (0, 1), BuildingBlock: AJUNOK_clean_linker_0, # of connection points: 2
#     Edge 103, Type (0, 1), BuildingBlock: AJUNOK_clean_linker_0, # of connection points: 2
#     Edge 104, Type (0, 1), BuildingBlock: AJUNOK_clean_linker_0, # of connection points: 2
#     Edge 105, Type (0, 1), BuildingBlock: AJUNOK_clean_linker_0, # of connection points: 2
#     Edge 106, Type (0, 1), BuildingBlock: AJUNOK_clean_linker_0, # of connection points: 2
#     Edge 107, Type (0, 1), BuildingBlock: AJUNOK_clean_linker_0, # of connection points: 2
# Relax obj value: 0.058
# Max RMSD: 0.191
# Mean RMSD: 0.103
data_MOF--net-ptr--node1-TATPOV_clean_sbu_0--node2-MUDLON_clean_linker_0--edge1-AJUNOK_clean_linker_0
_symmetry_space_group_name_H-M    P1
_symmetry_Int_Tables_number       1
_symmetry_cell_setting            triclinic
loop_
_symmetry_equiv_pos_as_xyz
'x, y, z'
_cell_length_a     84.64982
_cell_length_b     85.836528
_cell_length_c     49.24682
_cell_angle_alpha  89.491658
_cell_angle_beta   91.066885
_cell_angle_gamma 121.39662
loop_
_atom_site_label
_atom_site_type_symbol
_atom_site_fract_x
_atom_site_fract_y
_atom_site_fract_z
_atom_type_partial_charge
Zn0 Zn 0.95755 0.37196 0.02224 0.0
Zn1 Zn 0.99065 0.37405 0.02498 0.0
O2 O 0.97178 0.34693 0.01797 0.0
O3 O 0.94454 0.3444 0.01795 0.0
O4 O 0.01488 0.37495 0.0306 0.0
O5 O 0.96198 0.38357 0.05934 0.0
O6 O 0.98841 0.38444 0.06135 0.0
C7 C 0.9542 0.33713 0.01591 0.0
C8 C 0.98322 0.39378 0.97929 0.0
O9 O 0.99415 0.38979 0.99126 0.0
O10 O 0.96723 0.38794 0.98867 0.0
C11 C 0.01901 0.3644 0.0189 0.0
O12 O 0.00743 0.35269 0.00078 0.0
C13 C 0.97672 0.38751 0.07214 0.0
Zn14 Zn 0.64387 0.59971 0.01978 0.0
Zn15 Zn 0.64499 0.63139 0.02455 0.0
O16 O 0.67138 0.63844 0.01403 0.0
O17 O 0.67109 0.61276 0.01131 0.0
O18 O 0.64882 0.6563 0.03195 0.0
O19 O 0.63509 0.5926 0.05807 0.0
O20 O 0.63504 0.61809 0.06117 0.0
C21 C 0.67979 0.62999 0.00965 0.0
C22 C 0.61966 0.60434 0.98151 0.0
O23 O 0.62618 0.61989 0.99278 0.0
O24 O 0.62507 0.59376 0.98947 0.0
C25 C 0.63761 0.6618 0.02804 0.0
O26 O 0.62117 0.65055 0.01743 0.0
C27 C 0.63192 0.60311 0.07162 0.0
Zn28 Zn 0.36483 0.95996 0.02182 0.0
Zn29 Zn 0.36807 0.9927 0.01569 0.0
O30 O 0.34095 0.97551 0.02712 0.0
O31 O 0.33842 0.94893 0.03374 0.0
O32 O 0.36962 0.01676 0.00768 0.0
O33 O 0.37078 0.95955 0.98254 0.0
O34 O 0.3749 0.98693 0.97853 0.0
C35 C 0.33132 0.95876 0.03393 0.0
C36 C 0.39273 0.98802 0.0573 0.0
O37 O 0.38722 0.99805 0.04668 0.0
O38 O 0.38555 0.97161 0.04968 0.0
C39 C 0.35868 0.02131 0.01712 0.0
O40 O 0.34615 0.01048 0.03463 0.0
C41 C 0.37513 0.97348 0.96819 0.0
Zn42 Zn 0.04086 0.63235 0.00775 0.0
Zn43 Zn 0.00859 0.63143 0.01233 0.0
O44 O 0.02927 0.65849 0.01583 0.0
O45 O 0.0558 0.65964 0.01467 0.0
O46 O 0.98561 0.6332 0.01096 0.0
O47 O 0.03362 0.62198 0.96963 0.0
O48 O 0.00624 0.61834 0.9762 0.0
C49 C 0.04688 0.66762 0.01734 0.0
C50 C 0.01796 0.61112 0.05391 0.0
O51 O 0.00723 0.61667 0.04628 0.0
O52 O 0.03229 0.61537 0.04043 0.0
C53 C 0.98536 0.64609 0.02311 0.0
O54 O 0.99913 0.65672 0.03967 0.0
C55 C 0.01719 0.61618 0.96151 0.0
Zn56 Zn 0.36577 0.39959 0.01527 0.0
Zn57 Zn 0.36426 0.36733 0.01404 0.0
O58 O 0.33704 0.35968 0.01937 0.0
O59 O 0.33826 0.38583 0.02236 0.0
O60 O 0.36327 0.34365 0.00699 0.0
O61 O 0.37536 0.40609 0.97704 0.0
O62 O 0.37712 0.38142 0.97936 0.0
C63 C 0.32896 0.36854 0.02287 0.0
C64 C 0.38769 0.39472 0.05764 0.0
O65 O 0.38035 0.37856 0.04827 0.0
O66 O 0.38419 0.40605 0.04669 0.0
C67 C 0.35157 0.328 0.01632 0.0
O68 O 0.33927 0.32658 0.03366 0.0
C69 C 0.38026 0.3958 0.96688 0.0
Zn70 Zn 0.62323 0.02819 0.00996 0.0
Zn71 Zn 0.62641 0.99809 0.01069 0.0
O72 O 0.65282 0.01941 0.00388 0.0
O73 O 0.65062 0.04382 0.00122 0.0
O74 O 0.62924 0.97611 0.01499 0.0
O75 O 0.61433 0.02329 0.0487 0.0
O76 O 0.61573 0.99843 0.04767 0.0
C77 C 0.6603 0.03652 0.00015 0.0
C78 C 0.6009 1.00092 0.96883 0.0
O79 O 0.6087 0.99257 0.97796 0.0
O80 O 0.60442 0.01582 0.97942 0.0
C81 C 0.64305 0.97575 0.00603 0.0
O82 O 0.65524 0.98941 0.99121 0.0
C83 C 0.6119 0.00895 0.06017 0.0
Zn84 Zn 0.63115 0.7114 0.34826 0.0
Zn85 Zn 0.66341 0.71205 0.35444 0.0
O86 O 0.64371 0.68507 0.34691 0.0
O87 O 0.61723 0.68395 0.34244 0.0
O88 O 0.68671 0.71136 0.36213 0.0
O89 O 0.63424 0.72216 0.38556 0.0
O90 O 0.66069 0.72323 0.38986 0.0
C91 C 0.62628 0.67596 0.34236 0.0
C92 C 0.6589 0.73316 0.3079 0.0
O93 O 0.66862 0.72779 0.32019 0.0
O94 O 0.64291 0.72837 0.31621 0.0
C95 C 0.69052 0.7015 0.3479 0.0
O96 O 0.68002 0.69285 0.3267 0.0
C97 C 0.6487 0.72638 0.39935 0.0
Zn98 Zn 0.3056 0.93389 0.34747 0.0
Zn99 Zn 0.30857 0.96608 0.35625 0.0
O100 O 0.33488 0.97265 0.34582 0.0
O101 O 0.33294 0.94634 0.3402 0.0
O102 O 0.31282 0.99097 0.36545 0.0
O103 O 0.29566 0.92514 0.38471 0.0
O104 O 0.29839 0.95171 0.3922 0.0
C105 C 0.34252 0.96361 0.34031 0.0
C106 C 0.28308 0.94125 0.31066 0.0
O107 O 0.28995 0.95621 0.32381 0.0
O108 O 0.28766 0.92977 0.31697 0.0
C109 C 0.30133 0.99628 0.36377 0.0
O110 O 0.28449 0.98493 0.35452 0.0
C111 C 0.29377 0.93572 0.4002 0.0
Zn112 Zn 0.04053 0.30668 0.34852 0.0
Zn113 Zn 0.04357 0.33986 0.35035 0.0
O114 O 0.0161 0.32139 0.35749 0.0
O115 O 0.01299 0.29432 0.35536 0.0
O116 O 0.04412 0.3636 0.34612 0.0
O117 O 0.04961 0.31094 0.30997 0.0
O118 O 0.05399 0.33848 0.31356 0.0
C119 C 0.00599 0.30407 0.35878 0.0
C120 C 0.06511 0.33165 0.39177 0.0
O121 O 0.06007 0.34247 0.38305 0.0
O122 O 0.05915 0.31634 0.38033 0.0
C123 C 0.03417 0.36765 0.35985 0.0
O124 O 0.02423 0.35674 0.37961 0.0
C125 C 0.05517 0.32657 0.3 0.0
Zn126 Zn 0.71407 0.96631 0.34466 0.0
Zn127 Zn 0.68229 0.96661 0.341 0.0
O128 O 0.70225 0.99323 0.34937 0.0
O129 O 0.72853 0.99376 0.35042 0.0
O130 O 0.65971 0.96841 0.33316 0.0
O131 O 0.71038 0.95572 0.30712 0.0
O132 O 0.68437 0.95558 0.30499 0.0
C133 C 0.71979 0.00198 0.35244 0.0
C134 C 0.68678 0.94479 0.38624 0.0
O135 O 0.677 0.95038 0.37477 0.0
O136 O 0.70254 0.94942 0.37704 0.0
C137 C 0.6449 0.96214 0.34655 0.0
O138 O 0.64299 0.95306 0.36909 0.0
C139 C 0.69579 0.95212 0.29421 0.0
Zn140 Zn 0.03065 0.74096 0.35032 0.0
Zn141 Zn 0.03253 0.7109 0.34442 0.0
O142 O 0.00485 0.70059 0.35284 0.0
O143 O 0.00328 0.72532 0.35607 0.0
O144 O 0.03377 0.68859 0.33543 0.0
O145 O 0.03994 0.74972 0.31265 0.0
O146 O 0.04245 0.72556 0.30874 0.0
C147 C 0.99543 0.70811 0.35659 0.0
C148 C 0.05431 0.73743 0.39056 0.0
O149 O 0.04975 0.72276 0.37778 0.0
O150 O 0.04823 0.74744 0.38257 0.0
C151 C 0.0231 0.67235 0.34374 0.0
O152 O 0.01027 0.66912 0.36135 0.0
C153 C 0.04432 0.7402 0.2989 0.0
Zn154 Zn 0.29658 0.37063 0.34145 0.0
Zn155 Zn 0.29562 0.33881 0.34498 0.0
O156 O 0.32298 0.35828 0.33796 0.0
O157 O 0.32426 0.3845 0.33652 0.0
O158 O 0.29637 0.31568 0.35033 0.0
O159 O 0.28594 0.36699 0.37869 0.0
O160 O 0.28554 0.34121 0.38172 0.0
C161 C 0.33232 0.37558 0.33533 0.0
C162 C 0.27367 0.34437 0.29972 0.0
O163 O 0.2785 0.33416 0.31157 0.0
O164 O 0.27954 0.36029 0.30873 0.0
C165 C 0.30819 0.31348 0.33817 0.0
O166 O 0.31886 0.32554 0.32004 0.0
C167 C 0.28238 0.35289 0.39203 0.0
Zn168 Zn 0.29944 0.04546 0.68285 0.0
Zn169 Zn 0.33199 0.0461 0.68169 0.0
O170 O 0.31116 0.01909 0.67752 0.0
O171 O 0.28466 0.01796 0.67903 0.0
O172 O 0.35502 0.04457 0.68479 0.0
O173 O 0.30641 0.05706 0.72036 0.0
O174 O 0.33316 0.05865 0.71759 0.0
C175 C 0.29351 0.00988 0.67668 0.0
C176 C 0.32382 0.06565 0.63718 0.0
O177 O 0.33484 0.06127 0.64777 0.0
O178 O 0.30849 0.06073 0.64826 0.0
C179 C 0.35607 0.03203 0.67297 0.0
O180 O 0.34262 0.02087 0.65638 0.0
C181 C 0.32213 0.06169 0.73047 0.0
Zn182 Zn 0.97533 0.2661 0.68648 0.0
Zn183 Zn 0.97741 0.29758 0.69573 0.0
O184 O 0.00414 0.30503 0.68554 0.0
O185 O 0.00266 0.27888 0.68016 0.0
O186 O 0.98055 0.32173 0.70723 0.0
O187 O 0.96505 0.25602 0.72294 0.0
O188 O 0.96648 0.2819 0.73068 0.0
C189 C 0.01201 0.29614 0.68035 0.0
C190 C 0.95303 0.27347 0.64908 0.0
O191 O 0.95947 0.2883 0.66247 0.0
O192 O 0.95782 0.26217 0.65546 0.0
C193 C 0.97509 0.33133 0.69524 0.0
O194 O 0.96606 0.32565 0.67196 0.0
C195 C 0.96227 0.26597 0.73846 0.0
Zn196 Zn 0.70862 0.63764 0.69206 0.0
Zn197 Zn 0.70753 0.66811 0.6831 0.0
O198 O 0.68099 0.64872 0.69382 0.0
O199 O 0.6815 0.62378 0.70182 0.0
O200 O 0.70431 0.6892 0.67274 0.0
O201 O 0.71634 0.63772 0.65376 0.0
O202 O 0.71694 0.66339 0.64742 0.0
C203 C 0.67267 0.63198 0.70078 0.0
C204 C 0.73323 0.6682 0.72729 0.0
O205 O 0.7261 0.67643 0.71543 0.0
O206 O 0.72839 0.65208 0.72054 0.0
C207 C 0.71313 0.70573 0.68072 0.0
O208 O 0.72679 0.7111 0.69843 0.0
C209 C 0.71954 0.65097 0.63858 0.0
Zn210 Zn 0.37918 0.29625 0.67973 0.0
Zn211 Zn 0.34704 0.29494 0.67673 0.0
O212 O 0.36636 0.32214 0.68429 0.0
O213 O 0.39312 0.32369 0.68319 0.0
O214 O 0.32347 0.29514 0.67036 0.0
O215 O 0.37537 0.28483 0.64302 0.0
O216 O 0.34923 0.28438 0.64012 0.0
C217 C 0.38399 0.33148 0.68557 0.0
C218 C 0.3535 0.27461 0.72252 0.0
O219 O 0.3427 0.27878 0.71051 0.0
O220 O 0.36953 0.28047 0.71333 0.0
C221 C 0.31883 0.30416 0.68512 0.0
O222 O 0.3291 0.31272 0.70657 0.0
C223 C 0.36092 0.28114 0.62969 0.0
Zn224 Zn 0.69161 0.07025 0.67734 0.0
Zn225 Zn 0.69222 0.03899 0.67732 0.0
O226 O 0.66529 0.03153 0.6841 0.0
O227 O 0.66399 0.0564 0.68352 0.0
O228 O 0.68913 0.01424 0.67135 0.0
O229 O 0.70184 0.07656 0.63934 0.0
O230 O 0.70467 0.0525 0.64207 0.0
C231 C 0.65599 0.03926 0.68623 0.0
C232 C 0.71452 0.06677 0.72066 0.0
O233 O 0.70888 0.05099 0.71076 0.0
O234 O 0.70931 0.07691 0.70994 0.0
C235 C 0.70094 0.00941 0.67412 0.0
O236 O 0.71768 0.02131 0.68314 0.0
C237 C 0.70719 0.06658 0.62933 0.0
Zn238 Zn 0.97116 0.70775 0.6767 0.0
Zn239 Zn 0.96905 0.67534 0.68287 0.0
O240 O 0.99623 0.69267 0.67246 0.0
O241 O 0.99822 0.71912 0.66727 0.0
O242 O 0.96732 0.65137 0.69159 0.0
O243 O 0.96385 0.70755 0.71541 0.0
O244 O 0.96121 0.68079 0.71936 0.0
C245 C 0.00571 0.70962 0.66675 0.0
C246 C 0.94508 0.67946 0.6396 0.0
O247 O 0.95096 0.6699 0.6507 0.0
O248 O 0.95115 0.69566 0.64749 0.0
C249 C 0.9763 0.64524 0.68 0.0
O250 O 0.98704 0.65441 0.65966 0.0
C251 C 0.9599 0.69366 0.7296 0.0
H252 H 0.24018 0.34871 0.13626 0.0
N253 N 0.20915 0.31796 0.11705 0.0
H254 H 0.25385 0.35336 0.18169 0.0
H255 H 0.19645 0.29474 0.15885 0.0
H256 H 0.21031 0.29932 0.20469 0.0
H257 H 0.23015 0.30326 0.11362 0.0
H258 H 0.25722 0.31338 0.0857 0.0
H259 H 0.2187 0.3408 0.07138 0.0
H260 H 0.24537 0.35045 0.04329 0.0
H261 H 0.21812 0.35372 0.11695 0.0
H262 H 0.17257 0.29813 0.11003 0.0
H263 H 0.19683 0.36457 0.11378 0.0
H264 H 0.15082 0.30879 0.10848 0.0
H265 H 0.11209 0.38163 0.15143 0.0
H266 H 0.09511 0.37268 0.194 0.0
H267 H 0.09109 0.32043 0.19 0.0
H268 H 0.10664 0.32891 0.14648 0.0
H269 H 0.08735 0.33206 0.10282 0.0
H270 H 0.06448 0.33295 0.07287 0.0
H271 H 0.10276 0.3903 0.05838 0.0
H272 H 0.12551 0.38933 0.08881 0.0
H273 H 0.15378 0.37712 0.14162 0.0
H274 H 0.17561 0.36682 0.13925 0.0
H275 H 0.13805 0.32339 0.08476 0.0
N276 N 0.12008 0.36167 0.12014 0.0
H277 H 0.11584 0.33316 0.08872 0.0
C278 C 0.2171 0.32138 0.14421 0.0
C279 C 0.23333 0.33795 0.15112 0.0
C280 C 0.24122 0.34056 0.17706 0.0
C281 C 0.23318 0.32666 0.19662 0.0
C282 C 0.2169 0.31015 0.18985 0.0
C283 C 0.20892 0.30758 0.16385 0.0
C284 C 0.22274 0.32187 0.09618 0.0
C285 C 0.23321 0.31344 0.09812 0.0
C286 C 0.24862 0.31909 0.08187 0.0
C287 C 0.25361 0.33291 0.06248 0.0
C288 C 0.24212 0.34008 0.05855 0.0
C289 C 0.22682 0.3346 0.07505 0.0
C290 C 0.19697 0.325 0.11342 0.0
C291 C 0.2035 0.34379 0.11485 0.0
C292 C 0.19119 0.35 0.11322 0.0
C293 C 0.17196 0.33761 0.11107 0.0
C294 C 0.16549 0.31883 0.10959 0.0
C295 C 0.17789 0.31265 0.11064 0.0
C296 C 0.11084 0.35611 0.1459 0.0
C297 C 0.10745 0.36823 0.15977 0.0
C298 C 0.09781 0.3631 0.18412 0.0
C299 C 0.09155 0.34576 0.19536 0.0
C300 C 0.09519 0.33368 0.18159 0.0
C301 C 0.10442 0.33866 0.15687 0.0
C302 C 0.10821 0.36068 0.09796 0.0
C303 C 0.09107 0.34467 0.09249 0.0
C304 C 0.078 0.3452 0.07531 0.0
C305 C 0.08184 0.36171 0.06327 0.0
C306 C 0.09941 0.37741 0.06746 0.0
C307 C 0.11246 0.37685 0.08461 0.0
C308 C 0.13326 0.35614 0.11524 0.0
C309 C 0.15039 0.3655 0.12892 0.0
C310 C 0.16291 0.35961 0.12737 0.0
C311 C 0.15876 0.34426 0.11167 0.0
C312 C 0.14169 0.33509 0.09738 0.0
C313 C 0.129 0.34084 0.09934 0.0
H314 H 0.70512 0.78034 0.14864 0.0
N315 N 0.67976 0.7817 0.11774 0.0
H316 H 0.70272 0.77148 0.19662 0.0
H317 H 0.65049 0.77229 0.15066 0.0
H318 H 0.64747 0.76236 0.19779 0.0
H319 H 0.64382 0.75287 0.11337 0.0
H320 H 0.63325 0.72489 0.08781 0.0
H321 H 0.69846 0.77576 0.08081 0.0
H322 H 0.68775 0.74784 0.05431 0.0
H323 H 0.70652 0.81622 0.12233 0.0
H324 H 0.64893 0.78214 0.09977 0.0
H325 H 0.70439 0.84327 0.1171 0.0
H326 H 0.64681 0.8092 0.09291 0.0
H327 H 0.70478 0.92446 0.12729 0.0
H328 H 0.70984 0.93858 0.17232 0.0
H329 H 0.65541 0.89538 0.19591 0.0
H330 H 0.6504 0.88161 0.15089 0.0
H331 H 0.64309 0.89645 0.11284 0.0
H332 H 0.63477 0.91428 0.08375 0.0
H333 H 0.67825 0.92415 0.02874 0.0
H334 H 0.6876 0.90772 0.05949 0.0
H335 H 0.70143 0.89102 0.09064 0.0
H336 H 0.70201 0.86296 0.08755 0.0
H337 H 0.64578 0.83228 0.1164 0.0
N338 N 0.67425 0.89478 0.10869 0.0
H339 H 0.64503 0.8604 0.11719 0.0
C340 C 0.67801 0.77688 0.14609 0.0
C341 C 0.69262 0.77663 0.15948 0.0
C342 C 0.69118 0.77151 0.18678 0.0
C343 C 0.67499 0.76642 0.20116 0.0
C344 C 0.66035 0.7667 0.18761 0.0
C345 C 0.66192 0.77209 0.16047 0.0
C346 C 0.67207 0.76649 0.09911 0.0
C347 C 0.65346 0.75214 0.10016 0.0
C348 C 0.64735 0.7361 0.08531 0.0
C349 C 0.65965 0.73414 0.06898 0.0
C350 C 0.67797 0.7489 0.06684 0.0
C351 C 0.68408 0.76489 0.08178 0.0
C352 C 0.67805 0.79718 0.1112 0.0
C353 C 0.69351 0.81465 0.11556 0.0
C354 C 0.69224 0.83013 0.11236 0.0
C355 C 0.67543 0.82858 0.10432 0.0
C356 C 0.65994 0.81099 0.0994 0.0
C357 C 0.66119 0.79543 0.10302 0.0
C358 C 0.6773 0.90202 0.13582 0.0
C359 C 0.69404 0.91803 0.14231 0.0
C360 C 0.69688 0.92604 0.16793 0.0
C361 C 0.68291 0.91819 0.18746 0.0
C362 C 0.66627 0.90192 0.18108 0.0
C363 C 0.66347 0.89391 0.15546 0.0
C364 C 0.66635 0.90121 0.08871 0.0
C365 C 0.65079 0.90236 0.09447 0.0
C366 C 0.64595 0.91248 0.07763 0.0
C367 C 0.65627 0.92125 0.05434 0.0
C368 C 0.67055 0.91833 0.04715 0.0
C369 C 0.67572 0.90867 0.06443 0.0
C370 C 0.67336 0.87779 0.10459 0.0
C371 C 0.68916 0.87815 0.09581 0.0
C372 C 0.68949 0.86208 0.0944 0.0
C373 C 0.67409 0.84526 0.10237 0.0
C374 C 0.65791 0.84488 0.11002 0.0
C375 C 0.6575 0.86099 0.11086 0.0
H376 H 0.09563 0.75921 0.13958 0.0
N377 N 0.09486 0.78688 0.11232 0.0
H378 H 0.08282 0.74728 0.18432 0.0
H379 H 0.0817 0.80063 0.14724 0.0
H380 H 0.07047 0.7899 0.19301 0.0
H381 H 0.06078 0.7624 0.09574 0.0
H382 H 0.05071 0.73495 0.06894 0.0
H383 H 0.11779 0.77867 0.08405 0.0
H384 H 0.10784 0.75206 0.0557 0.0
H385 H 0.12804 0.79212 0.13015 0.0
H386 H 0.10194 0.81887 0.09323 0.0
H387 H 0.1575 0.82116 0.13238 0.0
H388 H 0.13093 0.84823 0.09693 0.0
H389 H 0.23558 0.89831 0.15553 0.0
H390 H 0.25103 0.90715 0.19981 0.0
H391 H 0.22342 0.93634 0.21684 0.0
H392 H 0.20823 0.92776 0.17175 0.0
H393 H 0.23421 0.94269 0.11674 0.0
H394 H 0.26185 0.95486 0.08918 0.0
H395 H 0.24975 0.90003 0.07522 0.0
H396 H 0.22303 0.88813 0.10453 0.0
H397 H 0.1994 0.87714 0.16522 0.0
H398 H 0.17191 0.84789 0.15729 0.0
H399 H 0.16096 0.86805 0.08294 0.0
N400 N 0.21243 0.90844 0.1333 0.0
H401 H 0.18825 0.89809 0.0919 0.0
C402 C 0.08904 0.7805 0.13969 0.0
C403 C 0.08992 0.76583 0.15097 0.0
C404 C 0.08273 0.75911 0.17669 0.0
C405 C 0.07502 0.76724 0.19198 0.0
C406 C 0.07541 0.78271 0.18134 0.0
C407 C 0.08207 0.78906 0.15534 0.0
C408 C 0.08997 0.7726 0.09252 0.0
C409 C 0.07114 0.7603 0.08687 0.0
C410 C 0.06541 0.74462 0.07142 0.0
C411 C 0.07844 0.74101 0.06065 0.0
C412 C 0.09739 0.75401 0.06458 0.0
C413 C 0.10312 0.76948 0.08068 0.0
C414 C 0.11288 0.80334 0.11107 0.0
C415 C 0.12875 0.80427 0.12222 0.0
C416 C 0.14554 0.82099 0.12384 0.0
C417 C 0.14672 0.83725 0.11507 0.0
C418 C 0.13081 0.8361 0.10346 0.0
C419 C 0.11415 0.81932 0.10138 0.0
C420 C 0.22072 0.91243 0.16027 0.0
C421 C 0.23285 0.90665 0.16867 0.0
C422 C 0.2416 0.91163 0.19408 0.0
C423 C 0.2385 0.92252 0.21172 0.0
C424 C 0.22626 0.92816 0.20349 0.0
C425 C 0.21745 0.92314 0.17794 0.0
C426 C 0.2264 0.91455 0.11264 0.0
C427 C 0.23732 0.93329 0.1072 0.0
C428 C 0.25305 0.9402 0.09123 0.0
C429 C 0.25799 0.92842 0.07972 0.0
C430 C 0.24644 0.90951 0.08393 0.0
C431 C 0.23097 0.90264 0.10047 0.0
C432 C 0.19625 0.89027 0.12906 0.0
C433 C 0.19135 0.8756 0.1471 0.0
C434 C 0.17546 0.85852 0.14238 0.0
C435 C 0.16409 0.85537 0.11935 0.0
C436 C 0.16912 0.86991 0.10115 0.0
C437 C 0.18485 0.88712 0.10613 0.0
H438 H 0.36001 0.24988 0.88942 0.0
N439 N 0.32945 0.2195 0.90981 0.0
H440 H 0.36392 0.26152 0.84318 0.0
H441 H 0.30475 0.20609 0.86882 0.0
H442 H 0.3087 0.2179 0.82203 0.0
H443 H 0.3056 0.22811 0.92774 0.0
H444 H 0.31209 0.25357 0.95744 0.0
H445 H 0.36186 0.24115 0.93833 0.0
H446 H 0.36835 0.26639 0.96863 0.0
H447 H 0.35946 0.21996 0.88717 0.0
H448 H 0.31556 0.19173 0.94478 0.0
H449 H 0.36779 0.19735 0.89273 0.0
H450 H 0.32507 0.16962 0.95261 0.0
H451 H 0.38116 0.1144 0.8814 0.0
H452 H 0.37118 0.09869 0.83753 0.0
H453 H 0.32117 0.10046 0.8407 0.0
H454 H 0.33033 0.11456 0.88499 0.0
H455 H 0.33134 0.09216 0.928 0.0
H456 H 0.33027 0.06837 0.95714 0.0
H457 H 0.38867 0.10334 0.97508 0.0
H458 H 0.38967 0.12689 0.94534 0.0
H459 H 0.38676 0.15952 0.91047 0.0
H460 H 0.38092 0.18425 0.91582 0.0
H461 H 0.32393 0.14466 0.93519 0.0
N462 N 0.36262 0.12392 0.91346 0.0
H463 H 0.33069 0.12043 0.9326 0.0
C464 C 0.33204 0.22695 0.88264 0.0
C465 C 0.34864 0.24281 0.87506 0.0
C466 C 0.35092 0.24942 0.84855 0.0
C467 C 0.33666 0.24048 0.82909 0.0
C468 C 0.31989 0.22498 0.83674 0.0
C469 C 0.31766 0.21822 0.8633 0.0
C470 C 0.33316 0.23272 0.93075 0.0
C471 C 0.31922 0.23622 0.93702 0.0
C472 C 0.32296 0.25075 0.95399 0.0
C473 C 0.3408 0.26215 0.96506 0.0
C474 C 0.35457 0.25807 0.95995 0.0
C475 C 0.35082 0.24353 0.94286 0.0
C476 C 0.3364 0.20744 0.91508 0.0
C477 C 0.35168 0.20908 0.90143 0.0
C478 C 0.35672 0.19607 0.90504 0.0
C479 C 0.34714 0.18134 0.92311 0.0
C480 C 0.33255 0.18036 0.93793 0.0
C481 C 0.32718 0.19314 0.93373 0.0
C482 C 0.35673 0.1159 0.88668 0.0
C483 C 0.36803 0.11135 0.87258 0.0
C484 C 0.36232 0.10243 0.84749 0.0
C485 C 0.34521 0.09803 0.83572 0.0
C486 C 0.33413 0.10305 0.84951 0.0
C487 C 0.33961 0.11153 0.87489 0.0
C488 C 0.36064 0.11132 0.93457 0.0
C489 C 0.34378 0.0949 0.93883 0.0
C490 C 0.34319 0.08132 0.95554 0.0
C491 C 0.35941 0.08398 0.96842 0.0
C492 C 0.37599 0.10084 0.9653 0.0
C493 C 0.37656 0.11435 0.94855 0.0
C494 C 0.35911 0.13814 0.92044 0.0
C495 C 0.37315 0.15632 0.91648 0.0
C496 C 0.36962 0.17042 0.91914 0.0
C497 C 0.3517 0.16663 0.92501 0.0
C498 C 0.33792 0.14838 0.93069 0.0
C499 C 0.3417 0.13434 0.92894 0.0
H500 H 0.75623 0.11054 0.88094 0.0
N501 N 0.78001 0.10096 0.90251 0.0
H502 H 0.74214 0.10309 0.83557 0.0
H503 H 0.78655 0.08434 0.8628 0.0
H504 H 0.77254 0.07694 0.81696 0.0
H505 H 0.76058 0.06623 0.91711 0.0
H506 H 0.73309 0.0514 0.94527 0.0
H507 H 0.76707 0.11854 0.93373 0.0
H508 H 0.74027 0.10394 0.96285 0.0
H509 H 0.78518 0.13523 0.8966 0.0
H510 H 0.81248 0.10626 0.91877 0.0
H511 H 0.81383 0.16417 0.9042 0.0
H512 H 0.84169 0.13521 0.92456 0.0
H513 H 0.89871 0.24201 0.88586 0.0
H514 H 0.91374 0.25337 0.84239 0.0
H515 H 0.94052 0.22242 0.85228 0.0
H516 H 0.92492 0.2106 0.89572 0.0
H517 H 0.92955 0.23114 0.95627 0.0
H518 H 0.94072 0.25785 0.98567 0.0
H519 H 0.89602 0.26429 0.95627 0.0
H520 H 0.88432 0.23691 0.92845 0.0
H521 H 0.87207 0.21202 0.8884 0.0
H522 H 0.84228 0.18384 0.88565 0.0
H523 H 0.85936 0.16117 0.9505 0.0
N524 N 0.90205 0.21833 0.92008 0.0
H525 H 0.88982 0.18916 0.95156 0.0
C526 C 0.77261 0.0981 0.87517 0.0
C527 C 0.76015 0.1035 0.86702 0.0
C528 C 0.75211 0.09925 0.84103 0.0
C529 C 0.7564 0.0896 0.82265 0.0
C530 C 0.769 0.08439 0.83073 0.0
C531 C 0.77707 0.08868 0.85674 0.0
C532 C 0.76607 0.09348 0.92323 0.0
C533 C 0.75646 0.07458 0.92758 0.0
C534 C 0.74082 0.06614 0.94385 0.0
C535 C 0.73456 0.07651 0.95656 0.0
C536 C 0.74469 0.09557 0.95324 0.0
C537 C 0.7602 0.10398 0.93663 0.0
C538 C 0.79659 0.11847 0.90756 0.0
C539 C 0.79733 0.13505 0.90322 0.0
C540 C 0.8139 0.15171 0.90725 0.0
C541 C 0.83028 0.15222 0.91499 0.0
C542 C 0.82941 0.13553 0.91923 0.0
C543 C 0.81274 0.11891 0.91573 0.0
C544 C 0.91052 0.2252 0.89404 0.0
C545 C 0.90769 0.23752 0.87877 0.0
C546 C 0.9164 0.24414 0.85391 0.0
C547 C 0.92816 0.23865 0.8438 0.0
C548 C 0.93121 0.22658 0.85927 0.0
C549 C 0.92239 0.21987 0.88408 0.0
C550 C 0.9063 0.23219 0.94003 0.0
C551 C 0.92191 0.23806 0.95686 0.0
C552 C 0.92832 0.25337 0.97344 0.0
C553 C 0.91933 0.26328 0.97326 0.0
C554 C 0.9031 0.25682 0.95735 0.0
C555 C 0.89651 0.24128 0.94112 0.0
C556 C 0.88346 0.2026 0.91984 0.0
C557 C 0.86955 0.20104 0.90196 0.0
C558 C 0.85227 0.18483 0.90065 0.0
C559 C 0.84829 0.16996 0.91764 0.0
C560 C 0.86197 0.17202 0.9365 0.0
C561 C 0.87936 0.18809 0.9374 0.0
H562 H 0.79131 0.71734 0.88159 0.0
N563 N 0.79825 0.694 0.90711 0.0
H564 H 0.77876 0.71474 0.83539 0.0
H565 H 0.79144 0.66774 0.86979 0.0
H566 H 0.77788 0.66438 0.82456 0.0
H567 H 0.77071 0.65779 0.90666 0.0
H568 H 0.74379 0.64323 0.93552 0.0
H569 H 0.79122 0.70868 0.94914 0.0
H570 H 0.7642 0.69388 0.97886 0.0
H571 H 0.83261 0.71874 0.89368 0.0
H572 H 0.80034 0.6652 0.92938 0.0
H573 H 0.86027 0.71688 0.89797 0.0
H574 H 0.828 0.66379 0.9355 0.0
H575 H 0.94551 0.71468 0.89807 0.0
H576 H 0.95737 0.71576 0.85248 0.0
H577 H 0.90736 0.66484 0.8325 0.0
H578 H 0.89577 0.66371 0.87789 0.0
H579 H 0.91132 0.65564 0.91429 0.0
H580 H 0.92659 0.64469 0.94427 0.0
H581 H 0.94001 0.68842 0.00054 0.0
H582 H 0.92627 0.70039 0.96889 0.0
H583 H 0.91048 0.71732 0.92738 0.0
H584 H 0.88222 0.71832 0.92769 0.0
H585 H 0.84995 0.65993 0.91433 0.0
N586 N 0.91365 0.6887 0.91872 0.0
H587 H 0.87838 0.65907 0.91649 0.0
C588 C 0.79227 0.69277 0.87914 0.0
C589 C 0.78873 0.70597 0.86893 0.0
C590 C 0.78148 0.7044 0.84265 0.0
C591 C 0.77749 0.68947 0.82612 0.0
C592 C 0.78129 0.67636 0.83634 0.0
C593 C 0.78881 0.67811 0.86241 0.0
C594 C 0.78311 0.68445 0.92572 0.0
C595 C 0.7696 0.66583 0.92242 0.0
C596 C 0.75424 0.65741 0.93919 0.0
C597 C 0.75201 0.66735 0.95969 0.0
C598 C 0.76562 0.68588 0.96327 0.0
C599 C 0.78105 0.69431 0.94645 0.0
C600 C 0.81429 0.69231 0.91124 0.0
C601 C 0.83153 0.7067 0.90283 0.0
C602 C 0.8474 0.70565 0.90558 0.0
C603 C 0.84657 0.69024 0.91742 0.0
C604 C 0.82926 0.67579 0.92598 0.0
C605 C 0.81329 0.6767 0.92269 0.0
C606 C 0.91979 0.68922 0.89142 0.0
C607 C 0.93713 0.70381 0.88377 0.0
C608 C 0.94386 0.70439 0.85783 0.0
C609 C 0.93336 0.69026 0.83914 0.0
C610 C 0.91588 0.67574 0.84669 0.0
C611 C 0.90915 0.6752 0.87258 0.0
C612 C 0.91829 0.67933 0.93884 0.0
C613 C 0.9175 0.66292 0.93302 0.0
C614 C 0.92613 0.65652 0.95044 0.0
C615 C 0.93522 0.66607 0.97439 0.0
C616 C 0.93399 0.68123 0.98163 0.0
C617 C 0.92587 0.68794 0.96381 0.0
C618 C 0.89653 0.68824 0.92142 0.0
C619 C 0.89724 0.70474 0.92497 0.0
C620 C 0.88103 0.70527 0.92474 0.0
C621 C 0.86366 0.68927 0.92033 0.0
C622 C 0.86297 0.67256 0.91785 0.0
C623 C 0.87924 0.67203 0.91872 0.0
H624 H 0.73592 0.63401 0.46905 0.0
N625 N 0.76649 0.66217 0.44864 0.0
H626 H 0.72432 0.63075 0.51548 0.0
H627 H 0.78329 0.68651 0.49027 0.0
H628 H 0.77164 0.68346 0.53633 0.0
H629 H 0.76568 0.69344 0.45727 0.0
H630 H 0.7495 0.70405 0.42891 0.0
H631 H 0.75643 0.6534 0.39673 0.0
H632 H 0.74195 0.66543 0.36671 0.0
H633 H 0.76833 0.63334 0.43537 0.0
H634 H 0.80217 0.69067 0.45337 0.0
H635 H 0.79584 0.63099 0.43443 0.0
H636 H 0.82981 0.68837 0.45453 0.0
H637 H 0.88256 0.62747 0.48952 0.0
H638 H 0.89571 0.63177 0.5356 0.0
H639 H 0.90281 0.6854 0.53812 0.0
H640 H 0.88843 0.68037 0.49322 0.0
H641 H 0.90686 0.68673 0.45506 0.0
H642 H 0.93287 0.6982 0.42476 0.0
H643 H 0.9103 0.64424 0.39128 0.0
H644 H 0.88379 0.63262 0.42194 0.0
H645 H 0.84324 0.62689 0.47053 0.0
H646 H 0.81642 0.63015 0.46534 0.0
H647 H 0.8514 0.68414 0.43195 0.0
N648 N 0.87827 0.65114 0.45996 0.0
H649 H 0.87814 0.68119 0.43867 0.0
C650 C 0.76039 0.66044 0.47621 0.0
C651 C 0.7438 0.64476 0.48374 0.0
C652 C 0.73724 0.64293 0.51012 0.0
C653 C 0.74713 0.65689 0.52927 0.0
C654 C 0.76378 0.67258 0.5218 0.0
C655 C 0.77047 0.67426 0.49556 0.0
C656 C 0.76168 0.67201 0.42963 0.0
C657 C 0.76061 0.68715 0.4376 0.0
C658 C 0.75145 0.69342 0.4211 0.0
C659 C 0.74367 0.6851 0.3959 0.0
C660 C 0.74686 0.67152 0.38658 0.0
C661 C 0.75546 0.66484 0.4035 0.0
C662 C 0.78322 0.66206 0.44479 0.0
C663 C 0.7818 0.64544 0.43901 0.0
C664 C 0.79755 0.64411 0.43888 0.0
C665 C 0.81513 0.65938 0.44505 0.0
C666 C 0.81658 0.6763 0.44962 0.0
C667 C 0.80077 0.67765 0.44925 0.0
C668 C 0.88461 0.65358 0.48788 0.0
C669 C 0.88662 0.63997 0.50037 0.0
C670 C 0.89424 0.64252 0.52657 0.0
C671 C 0.90022 0.65888 0.54072 0.0
C672 C 0.89791 0.67241 0.52826 0.0
C673 C 0.88994 0.66969 0.5023 0.0
C674 C 0.89307 0.65874 0.44056 0.0
C675 C 0.90714 0.6773 0.44099 0.0
C676 C 0.92207 0.68391 0.42354 0.0
C677 C 0.92343 0.67215 0.40543 0.0
C678 C 0.90946 0.6536 0.40493 0.0
C679 C 0.89433 0.647 0.42227 0.0
C680 C 0.86278 0.65357 0.45486 0.0
C681 C 0.84508 0.63939 0.46197 0.0
C682 C 0.82972 0.64126 0.45875 0.0
C683 C 0.8316 0.65738 0.44793 0.0
C684 C 0.84937 0.6716 0.44062 0.0
C685 C 0.8648 0.66982 0.44425 0.0
H686 H 0.36181 0.10666 0.47316 0.0
N687 N 0.34062 0.11697 0.44811 0.0
H688 H 0.35926 0.09552 0.51972 0.0
H689 H 0.31773 0.11665 0.48762 0.0
H690 H 0.31612 0.10698 0.53429 0.0
H691 H 0.30573 0.08687 0.44895 0.0
H692 H 0.29559 0.05804 0.42517 0.0
H693 H 0.35755 0.11217 0.40709 0.0
H694 H 0.34728 0.0837 0.38243 0.0
H695 H 0.36894 0.14922 0.43402 0.0
H696 H 0.30988 0.11978 0.44336 0.0
H697 H 0.36905 0.1772 0.42532 0.0
H698 H 0.3099 0.1481 0.43827 0.0
H699 H 0.37055 0.26573 0.45792 0.0
H700 H 0.37438 0.27685 0.50474 0.0
H701 H 0.32307 0.22808 0.52608 0.0
H702 H 0.31932 0.21707 0.47901 0.0
H703 H 0.31179 0.23563 0.44423 0.0
H704 H 0.30233 0.25285 0.416 0.0
H705 H 0.34344 0.26158 0.35716 0.0
H706 H 0.35411 0.24587 0.3871 0.0
H707 H 0.36993 0.22793 0.44895 0.0
H708 H 0.36849 0.19906 0.44839 0.0
H709 H 0.31223 0.17271 0.41679 0.0
N710 N 0.34323 0.2344 0.43765 0.0
H711 H 0.31346 0.20176 0.42018 0.0
C712 C 0.3402 0.11273 0.47668 0.0
C713 C 0.35199 0.10699 0.48658 0.0
C714 C 0.35063 0.10078 0.51329 0.0
C715 C 0.33763 0.10055 0.53094 0.0
C716 C 0.32621 0.10685 0.52122 0.0
C717 C 0.32728 0.11262 0.49436 0.0
C718 C 0.33253 0.10154 0.42999 0.0
C719 C 0.31467 0.08636 0.43402 0.0
C720 C 0.30891 0.06991 0.42043 0.0
C721 C 0.32087 0.06849 0.40253 0.0
C722 C 0.338 0.08423 0.39672 0.0
C723 C 0.3438 0.10055 0.41049 0.0
C724 C 0.33958 0.13265 0.44036 0.0
C725 C 0.35599 0.14892 0.43449 0.0
C726 C 0.356 0.165 0.42997 0.0
C727 C 0.3396 0.16538 0.43226 0.0
C728 C 0.32289 0.14865 0.43645 0.0
C729 C 0.32285 0.13238 0.43984 0.0
C730 C 0.34479 0.24062 0.46519 0.0
C731 C 0.36016 0.25749 0.47274 0.0
C732 C 0.36233 0.26375 0.49941 0.0
C733 C 0.34911 0.2532 0.51901 0.0
C734 C 0.33344 0.23644 0.51131 0.0
C735 C 0.33133 0.23013 0.48458 0.0
C736 C 0.33418 0.24003 0.41823 0.0
C737 C 0.31876 0.24116 0.42524 0.0
C738 C 0.31324 0.25094 0.40887 0.0
C739 C 0.32262 0.25931 0.38476 0.0
C740 C 0.33653 0.25617 0.37626 0.0
C741 C 0.34243 0.2469 0.39307 0.0
C742 C 0.34194 0.21708 0.43443 0.0
C743 C 0.35732 0.2159 0.44179 0.0
C744 C 0.35648 0.19927 0.44107 0.0
C745 C 0.34032 0.18325 0.43206 0.0
C746 C 0.3249 0.18454 0.42415 0.0
C747 C 0.3256 0.20123 0.42572 0.0
H748 H 0.77854 0.07926 0.49571 0.0
N749 N 0.7912 0.11006 0.468 0.0
H750 H 0.75636 0.06779 0.53248 0.0
H751 H 0.77452 0.12718 0.4894 0.0
H752 H 0.75365 0.1167 0.52799 0.0
H753 H 0.76331 0.10747 0.43596 0.0
H754 H 0.74665 0.08476 0.40009 0.0
H755 H 0.80135 0.08871 0.44575 0.0
H756 H 0.7842 0.06522 0.41141 0.0
H757 H 0.81984 0.12788 0.50168 0.0
H758 H 0.79361 0.13574 0.43147 0.0
H759 H 0.84359 0.16018 0.50159 0.0
H760 H 0.81803 0.16783 0.42993 0.0
H761 H 0.92122 0.24213 0.48715 0.0
H762 H 0.93401 0.25074 0.53286 0.0
H763 H 0.89453 0.2664 0.55096 0.0
H764 H 0.88129 0.25743 0.50462 0.0
H765 H 0.90241 0.27387 0.43955 0.0
H766 H 0.9275 0.28883 0.40674 0.0
H767 H 0.9349 0.24272 0.41108 0.0
H768 H 0.90957 0.22765 0.44205 0.0
H769 H 0.89394 0.21316 0.48087 0.0
H770 H 0.86965 0.18145 0.47925 0.0
H771 H 0.83109 0.19671 0.44985 0.0
N772 N 0.89123 0.24274 0.46592 0.0
H773 H 0.85622 0.22877 0.44962 0.0
C774 C 0.77834 0.10411 0.49004 0.0
C775 C 0.77298 0.08739 0.50253 0.0
C776 C 0.76038 0.08092 0.52364 0.0
C777 C 0.75312 0.09127 0.53328 0.0
C778 C 0.75852 0.1081 0.5207 0.0
C779 C 0.77074 0.11431 0.49891 0.0
C780 C 0.78363 0.09978 0.44329 0.0
C781 C 0.76832 0.09874 0.42985 0.0
C782 C 0.75864 0.08554 0.40973 0.0
C783 C 0.76378 0.07283 0.40336 0.0
C784 C 0.77987 0.0748 0.41565 0.0
C785 C 0.78971 0.0882 0.43531 0.0
C786 C 0.80508 0.12925 0.46649 0.0
C787 C 0.81939 0.13657 0.486 0.0
C788 C 0.83306 0.15506 0.48571 0.0
C789 C 0.83303 0.16672 0.46545 0.0
C790 C 0.81851 0.15938 0.44599 0.0
C791 C 0.80456 0.14088 0.44666 0.0
C792 C 0.90007 0.24898 0.49231 0.0
C793 C 0.91524 0.24748 0.50059 0.0
C794 C 0.92263 0.25244 0.52679 0.0
C795 C 0.91517 0.25914 0.54525 0.0
C796 C 0.90049 0.2613 0.53691 0.0
C797 C 0.89294 0.25615 0.51062 0.0
C798 C 0.90395 0.24965 0.44351 0.0
C799 C 0.9091 0.2668 0.43269 0.0
C800 C 0.92351 0.27536 0.41412 0.0
C801 C 0.93317 0.26695 0.40611 0.0
C802 C 0.92747 0.24943 0.41608 0.0
C803 C 0.91294 0.24079 0.43427 0.0
C804 C 0.87705 0.22355 0.46496 0.0
C805 C 0.88042 0.20986 0.47361 0.0
C806 C 0.86629 0.19153 0.47307 0.0
C807 C 0.84821 0.18633 0.46469 0.0
C808 C 0.84484 0.20006 0.45608 0.0
C809 C 0.85915 0.21843 0.45609 0.0
H810 H 0.04914 0.58651 0.20661 0.0
N811 N 0.023 0.57107 0.24368 0.0
H812 H 0.04574 0.59367 0.15939 0.0
H813 H 0.99068 0.56298 0.21804 0.0
H814 H 0.98709 0.56988 0.17073 0.0
H815 H 0.99297 0.57024 0.26465 0.0
H816 H 0.99372 0.59451 0.29167 0.0
H817 H 0.05251 0.59893 0.26731 0.0
H818 H 0.05342 0.6228 0.29543 0.0
H819 H 0.04753 0.56183 0.25711 0.0
H820 H 0.98904 0.54001 0.24729 0.0
H821 H 0.0417 0.53111 0.26514 0.0
H822 H 0.98298 0.50911 0.25392 0.0
H823 H 0.02304 0.4466 0.22557 0.0
H824 H 0.01895 0.43376 0.18028 0.0
H825 H 0.95983 0.40993 0.18566 0.0
H826 H 0.96421 0.42384 0.23058 0.0
H827 H 0.97582 0.41438 0.28903 0.0
H828 H 0.98698 0.3988 0.31821 0.0
H829 H 0.04338 0.44104 0.30179 0.0
H830 H 0.03207 0.45646 0.2724 0.0
H831 H 0.02671 0.47395 0.23877 0.0
H832 H 0.033 0.50494 0.23884 0.0
H833 H 0.98296 0.48709 0.2837 0.0
N834 N 0.9957 0.44351 0.25845 0.0
H835 H 0.97638 0.45572 0.28249 0.0
C836 C 0.02023 0.57418 0.21573 0.0
C837 C 0.03555 0.58269 0.19876 0.0
C838 C 0.03354 0.58665 0.17182 0.0
C839 C 0.01608 0.58208 0.16129 0.0
C840 C 1.00068 0.5735 0.17832 0.0
C841 C 0.00272 0.56951 0.20533 0.0
C842 C 0.02275 0.58305 0.26362 0.0
C843 C 0.00618 0.5816 0.27148 0.0
C844 C 0.00663 0.59543 0.28704 0.0
C845 C 0.02366 0.6108 0.29506 0.0
C846 C 0.04012 0.61142 0.28886 0.0
C847 C 0.03964 0.59773 0.2731 0.0
C848 C 0.01878 0.55314 0.25141 0.0
C849 C 0.0334 0.55035 0.25691 0.0
C850 C 0.03002 0.53276 0.2612 0.0
C851 C 0.01187 0.51751 0.25977 0.0
C852 C 0.99713 0.52048 0.25538 0.0
C853 C 1.00055 0.53815 0.25136 0.0
C854 C 0.99388 0.43636 0.23141 0.0
C855 C 0.00922 0.43888 0.21696 0.0
C856 C 0.00683 0.43123 0.19115 0.0
C857 C 0.98903 0.42056 0.17949 0.0
C858 C 0.97374 0.41814 0.19399 0.0
C859 C 0.97618 0.42602 0.21964 0.0
C860 C 0.00301 0.43654 0.27858 0.0
C861 C 0.99058 0.42049 0.29229 0.0
C862 C 0.997 0.41168 0.30905 0.0
C863 C 0.01608 0.41879 0.31251 0.0
C864 C 0.0286 0.43526 0.29951 0.0
C865 C 0.02214 0.44411 0.28274 0.0
C866 C 1.00091 0.46237 0.26049 0.0
C867 C 0.0171 0.4766 0.24877 0.0
C868 C 0.02078 0.49447 0.24903 0.0
C869 C 0.00847 0.49862 0.26123 0.0
C870 C 0.9926 0.48442 0.27372 0.0
C871 C 0.98889 0.46651 0.27328 0.0
H872 H 0.6021 0.5601 0.23678 0.0
N873 N 0.56989 0.55531 0.25168 0.0
H874 H 0.61815 0.57278 0.19382 0.0
H875 H 0.5566 0.5651 0.20761 0.0
H876 H 0.5724 0.57755 0.16486 0.0
H877 H 0.55803 0.57955 0.24899 0.0
H878 H 0.57011 0.60712 0.27643 0.0
H879 H 0.59018 0.56327 0.29682 0.0
H880 H 0.60205 0.59075 0.32487 0.0
H881 H 0.56518 0.52331 0.26539 0.0
H882 H 0.53513 0.54903 0.24041 0.0
H883 H 0.53641 0.49358 0.26507 0.0
H884 H 0.50655 0.5194 0.23818 0.0
H885 H 0.44472 0.40316 0.2124 0.0
H886 H 0.43169 0.39394 0.16633 0.0
H887 H 0.43191 0.44421 0.1576 0.0
H888 H 0.44605 0.45376 0.20258 0.0
H889 H 0.42565 0.44229 0.23944 0.0
H890 H 0.39874 0.42918 0.26813 0.0
H891 H 0.41745 0.39704 0.30968 0.0
H892 H 0.44465 0.41022 0.28028 0.0
H893 H 0.4868 0.44179 0.23063 0.0
H894 H 0.51519 0.4716 0.23473 0.0
H895 H 0.48341 0.49464 0.2622 0.0
N896 N 0.45237 0.43322 0.23896 0.0
H897 H 0.4552 0.46523 0.25653 0.0
C898 C 0.57818 0.56158 0.22548 0.0
C899 C 0.59553 0.56379 0.22105 0.0
C900 C 0.60466 0.57105 0.19662 0.0
C901 C 0.59662 0.57638 0.17622 0.0
C902 C 0.57909 0.57392 0.18048 0.0
C903 C 0.56995 0.56661 0.2049 0.0
C904 C 0.57339 0.56941 0.27074 0.0
C905 C 0.56724 0.58158 0.26587 0.0
C906 C 0.57414 0.59736 0.28163 0.0
C907 C 0.58726 0.6012 0.30242 0.0
C908 C 0.59219 0.58826 0.30863 0.0
C909 C 0.58535 0.57254 0.29282 0.0
C910 C 0.5524 0.53833 0.25263 0.0
C911 C 0.55234 0.52248 0.25973 0.0
C912 C 0.53589 0.50549 0.25924 0.0
C913 C 0.51907 0.50393 0.25122 0.0
C914 C 0.51913 0.51999 0.2447 0.0
C915 C 0.53559 0.53703 0.24562 0.0
C916 C 0.4463 0.42905 0.21097 0.0
C917 C 0.4423 0.41231 0.2002 0.0
C918 C 0.43475 0.40703 0.17401 0.0
C919 C 0.43086 0.41838 0.15815 0.0
C920 C 0.43519 0.43533 0.16886 0.0
C921 C 0.44306 0.44073 0.19482 0.0
C922 C 0.43737 0.42733 0.25775 0.0
C923 C 0.42429 0.4327 0.25491 0.0
C924 C 0.40889 0.42527 0.27154 0.0
C925 C 0.40614 0.41228 0.2914 0.0
C926 C 0.41932 0.40711 0.29461 0.0
C927 C 0.43484 0.41466 0.27797 0.0
C928 C 0.46879 0.451 0.24343 0.0
C929 C 0.48602 0.45329 0.23765 0.0
C930 C 0.50226 0.47036 0.24021 0.0
C931 C 0.50172 0.48564 0.24898 0.0
C932 C 0.48442 0.48331 0.25503 0.0
C933 C 0.46814 0.46626 0.25205 0.0
H934 H 0.5486 0.95159 0.20377 0.0
N935 N 0.54966 0.97379 0.24193 0.0
H936 H 0.5641 0.95998 0.15987 0.0
H937 H 0.57115 0.00843 0.22206 0.0
H938 H 0.58732 0.01698 0.17885 0.0
H939 H 0.5814 0.00276 0.2639 0.0
H940 H 0.60332 1.00065 0.29419 0.0
H941 H 0.54419 0.94451 0.2688 0.0
H942 H 0.56632 0.94226 0.29882 0.0
H943 H 0.51464 0.95567 0.22576 0.0
H944 H 0.55508 0.00468 0.26762 0.0
H945 H 0.4925 0.96569 0.22672 0.0
H946 H 0.53283 0.01455 0.26974 0.0
H947 H 0.43449 0.98383 0.21291 0.0
H948 H 0.42158 0.97907 0.16706 0.0
H949 H 0.45624 0.03672 0.15084 0.0
H950 H 0.46958 0.04143 0.19711 0.0
H951 H 0.42977 0.01977 0.23001 0.0
H952 H 0.40369 0.00884 0.25985 0.0
H953 H 0.43116 0.99355 0.31937 0.0
H954 H 0.45746 0.00438 0.28957 0.0
H955 H 0.45131 0.98137 0.24742 0.0
H956 H 0.47293 0.97095 0.25297 0.0
H957 H 0.51862 0.02611 0.24073 0.0
N958 N 0.45995 0.01646 0.23632 0.0
H959 H 0.49675 0.03653 0.23617 0.0
C960 C 0.5588 0.97932 0.21619 0.0
C961 C 0.55704 0.96587 0.19835 0.0
C962 C 0.56605 0.97071 0.17348 0.0
C963 C 0.57722 0.98917 0.16614 0.0
C964 C 0.57884 0.00265 0.18397 0.0
C965 C 0.56968 0.99778 0.20875 0.0
C966 C 0.56097 0.97372 0.26415 0.0
C967 C 0.57761 0.98957 0.27211 0.0
C968 C 0.59026 0.98834 0.2893 0.0
C969 C 0.58656 0.97129 0.29888 0.0
C970 C 0.56945 0.95562 0.29219 0.0
C971 C 0.5568 0.95687 0.27502 0.0
C972 C 0.53645 0.97924 0.24673 0.0
C973 C 0.51855 0.96839 0.2358 0.0
C974 C 0.5059 0.97416 0.23647 0.0
C975 C 0.5108 0.99099 0.24832 0.0
C976 C 0.52862 0.00165 0.26008 0.0
C977 C 0.54136 0.9959 0.25917 0.0
C978 C 0.45338 0.013 0.20835 0.0
C979 C 0.43986 0.99539 0.19935 0.0
C980 C 0.43236 0.9927 0.17313 0.0
C981 C 0.43807 0.00751 0.15534 0.0
C982 C 0.45167 0.02508 0.16417 0.0
C983 C 0.45935 0.02776 0.19042 0.0
C984 C 0.44512 0.01125 0.25577 0.0
C985 C 0.43026 0.01373 0.24915 0.0
C986 C 0.41535 0.00775 0.26649 0.0
C987 C 0.41507 0.99968 0.29148 0.0
C988 C 0.43067 0.99898 0.29965 0.0
C989 C 0.44568 0.00502 0.28227 0.0
C990 C 0.4724 0.00987 0.24145 0.0
C991 C 0.46595 0.99127 0.24597 0.0
C992 C 0.47841 0.9853 0.24911 0.0
C993 C 0.49761 0.99763 0.2472 0.0
C994 C 0.504 0.01622 0.24284 0.0
C995 C 0.49152 0.02222 0.24005 0.0
H996 H 0.38982 0.95841 0.79584 0.0
N997 N 0.42264 0.98457 0.77818 0.0
H998 H 0.37711 0.95517 0.84138 0.0
H999 H 0.43989 0.00741 0.82161 0.0
H1000 H 0.4275 0.00405 0.86703 0.0
H1001 H 0.42509 0.01742 0.78615 0.0
H1002 H 0.41204 0.0307 0.75644 0.0
H1003 H 0.41185 0.9756 0.72674 0.0
H1004 H 0.4003 0.9899 0.69553 0.0
H1005 H 0.42562 0.95612 0.76704 0.0
H1006 H 0.45798 0.01381 0.78317 0.0
H1007 H 0.45375 0.95489 0.76603 0.0
H1008 H 0.48623 0.01263 0.78463 0.0
H1009 H 0.54389 0.95445 0.81292 0.0
H1010 H 0.5566 0.95714 0.85902 0.0
H1011 H 0.55869 0.00815 0.8692 0.0
H1012 H 0.54503 0.00477 0.82402 0.0
H1013 H 0.56581 0.01374 0.78703 0.0
H1014 H 0.59251 0.02712 0.75772 0.0
H1015 H 0.56897 0.9763 0.71369 0.0
H1016 H 0.54232 0.96263 0.74406 0.0
H1017 H 0.50271 0.9528 0.79885 0.0
H1018 H 0.47523 0.95502 0.79539 0.0
H1019 H 0.50828 0.00944 0.76232 0.0
N1020 N 0.53725 0.97792 0.78721 0.0
H1021 H 0.53578 0.00757 0.76772 0.0
C1022 C 0.41583 0.98296 0.80533 0.0
C1023 C 0.39811 0.96835 0.81138 0.0
C1024 C 0.39093 0.9665 0.83734 0.0
C1025 C 0.40142 0.97927 0.85778 0.0
C1026 C 0.41912 0.99403 0.85164 0.0
C1027 C 0.42628 0.99585 0.8257 0.0
C1028 C 0.41896 0.99512 0.75896 0.0
C1029 C 0.41988 0.01137 0.76638 0.0
C1030 C 0.41265 0.0192 0.74902 0.0
C1031 C 0.40503 0.01138 0.72347 0.0
C1032 C 0.40574 0.9961 0.71522 0.0
C1033 C 0.41247 0.98799 0.73291 0.0
C1034 C 0.43971 0.98491 0.77569 0.0
C1035 C 0.43889 0.96851 0.77051 0.0
C1036 C 0.455 0.96784 0.77031 0.0
C1037 C 0.47238 0.98357 0.77591 0.0
C1038 C 0.4732 1.00022 0.78014 0.0
C1039 C 0.45703 1.00092 0.7797 0.0
C1040 C 0.54353 0.97935 0.81504 0.0
C1041 C 0.5468 0.96601 0.8254 0.0
C1042 C 0.55415 0.96763 0.85161 0.0
C1043 C 0.55849 0.98276 0.86793 0.0
C1044 C 0.55502 0.99605 0.85755 0.0
C1045 C 0.54742 0.99427 0.83152 0.0
C1046 C 0.55207 0.98699 0.768 0.0
C1047 C 0.56623 0.0054 0.7711 0.0
C1048 C 0.58149 0.01313 0.75412 0.0
C1049 C 0.58297 0.00269 0.73364 0.0
C1050 C 0.5684 0.98457 0.72968 0.0
C1051 C 0.55313 0.97679 0.7468 0.0
C1052 C 0.52134 0.9798 0.78334 0.0
C1053 C 0.50397 0.96518 0.7908 0.0
C1054 C 0.48823 0.96646 0.78854 0.0
C1055 C 0.48934 0.98236 0.77822 0.0
C1056 C 0.5068 0.99704 0.77063 0.0
C1057 C 0.52265 0.99588 0.77344 0.0
H1058 H 0.95306 0.55381 0.81846 0.0
N1059 N 0.97138 0.5437 0.78706 0.0
H1060 H 0.9641 0.57204 0.86013 0.0
H1061 H 0.00441 0.55472 0.81443 0.0
H1062 H 0.01482 0.5716 0.85665 0.0
H1063 H 0.00281 0.5741 0.76926 0.0
H1064 H 0.00394 0.59735 0.7388 0.0
H1065 H 0.94382 0.54072 0.75642 0.0
H1066 H 0.94485 0.56378 0.72552 0.0
H1067 H 0.94642 0.50833 0.79078 0.0
H1068 H 0.00299 0.54589 0.76907 0.0
H1069 H 0.95098 0.48279 0.78506 0.0
H1070 H 0.00849 0.52088 0.76628 0.0
H1071 H 0.97102 0.41602 0.8139 0.0
H1072 H 0.96898 0.40561 0.86051 0.0
H1073 H 0.0246 0.4503 0.87694 0.0
H1074 H 0.02669 0.46069 0.82963 0.0
H1075 H 0.02571 0.43848 0.77194 0.0
H1076 H 0.01987 0.41169 0.74609 0.0
H1077 H 0.96192 0.39382 0.73965 0.0
H1078 H 0.96797 0.42097 0.76506 0.0
H1079 H 0.97017 0.44452 0.81105 0.0
H1080 H 0.96262 0.46779 0.80623 0.0
H1081 H 0.00648 0.49592 0.74804 0.0
N1082 N 1.00084 0.44548 0.79038 0.0
H1083 H 0.01519 0.47321 0.7554 0.0
C1084 C 0.97769 0.55266 0.81317 0.0
C1085 C 0.96653 0.5576 0.82681 0.0
C1086 C 0.97287 0.56801 0.85062 0.0
C1087 C 0.99051 0.5736 0.86151 0.0
C1088 C 1.00142 0.56809 0.84837 0.0
C1089 C 0.99526 0.55803 0.82425 0.0
C1090 C 0.97317 0.55563 0.76501 0.0
C1091 C 0.99021 0.57148 0.7591 0.0
C1092 C 0.99083 0.58476 0.74166 0.0
C1093 C 0.97446 0.58238 0.72978 0.0
C1094 C 0.95765 0.56602 0.73449 0.0
C1095 C 0.95705 0.55279 0.75191 0.0
C1096 C 0.97442 0.52902 0.78115 0.0
C1097 C 0.9599 0.51103 0.78498 0.0
C1098 C 0.96268 0.49644 0.78204 0.0
C1099 C 0.98032 0.49952 0.77598 0.0
C1100 C 0.99465 0.51765 0.77082 0.0
C1101 C 0.99163 0.53217 0.77283 0.0
C1102 C 0.9991 0.43922 0.81816 0.0
C1103 C 0.98286 0.4236 0.82731 0.0
C1104 C 0.98165 0.4177 0.85407 0.0
C1105 C 0.99665 0.42712 0.87228 0.0
C1106 C 0.01291 0.44268 0.8632 0.0
C1107 C 0.01408 0.44868 0.83634 0.0
C1108 C 0.99733 0.43168 0.77059 0.0
C1109 C 0.01185 0.42903 0.76433 0.0
C1110 C 0.00845 0.41364 0.74985 0.0
C1111 C 0.99036 0.40046 0.74147 0.0
C1112 C 0.97597 0.40373 0.74601 0.0
C1113 C 0.97941 0.41922 0.76049 0.0
C1114 C 0.99374 0.45728 0.78416 0.0
C1115 C 0.97831 0.45563 0.79729 0.0
C1116 C 0.97376 0.46904 0.79412 0.0
C1117 C 0.98402 0.48419 0.77695 0.0
C1118 C 0.99855 0.48496 0.7622 0.0
C1119 C 0.00343 0.4718 0.76604 0.0
H1120 H 0.44576 0.4082 0.82383 0.0
N1121 N 0.45735 0.43955 0.7981 0.0
H1122 H 0.42575 0.39633 0.86313 0.0
H1123 H 0.44229 0.45655 0.82497 0.0
H1124 H 0.42372 0.44559 0.86594 0.0
H1125 H 0.42645 0.43485 0.77199 0.0
H1126 H 0.40863 0.41202 0.73661 0.0
H1127 H 0.46814 0.42049 0.77062 0.0
H1128 H 0.45028 0.39726 0.73637 0.0
H1129 H 0.49056 0.45634 0.82149 0.0
H1130 H 0.45451 0.46599 0.77079 0.0
H1131 H 0.51389 0.48886 0.82108 0.0
H1132 H 0.47811 0.49855 0.76911 0.0
H1133 H 0.58087 0.56785 0.82134 0.0
H1134 H 0.59385 0.57455 0.86724 0.0
H1135 H 0.55787 0.59409 0.8881 0.0
H1136 H 0.5443 0.58676 0.84181 0.0
H1137 H 0.58238 0.60788 0.80159 0.0
H1138 H 0.60929 0.62181 0.77262 0.0
H1139 H 0.58376 0.57378 0.72194 0.0
H1140 H 0.55685 0.55969 0.75071 0.0
H1141 H 0.55927 0.54436 0.79595 0.0
H1142 H 0.53567 0.51222 0.79311 0.0
H1143 H 0.49314 0.52571 0.79607 0.0
N1144 N 0.55368 0.57307 0.80078 0.0
H1145 H 0.51712 0.5582 0.79799 0.0
C1146 C 0.44587 0.43338 0.82177 0.0
C1147 C 0.44096 0.4164 0.83295 0.0
C1148 C 0.42971 0.40976 0.85563 0.0
C1149 C 0.4236 0.42026 0.86831 0.0
C1150 C 0.42823 0.43717 0.85676 0.0
C1151 C 0.43905 0.44357 0.83348 0.0
C1152 C 0.44871 0.4294 0.77362 0.0
C1153 C 0.43205 0.4272 0.76337 0.0
C1154 C 0.42182 0.41404 0.74339 0.0
C1155 C 0.42807 0.40288 0.73346 0.0
C1156 C 0.44526 0.40591 0.74283 0.0
C1157 C 0.45549 0.41913 0.76255 0.0
C1158 C 0.47097 0.45873 0.79596 0.0
C1159 C 0.48785 0.46552 0.8099 0.0
C1160 C 0.5012 0.48411 0.80947 0.0
C1161 C 0.49803 0.4964 0.79481 0.0
C1162 C 0.48101 0.48954 0.78077 0.0
C1163 C 0.46755 0.47087 0.78145 0.0
C1164 C 0.56122 0.57641 0.82822 0.0
C1165 C 0.5753 0.57305 0.83584 0.0
C1166 C 0.58286 0.57705 0.86204 0.0
C1167 C 0.57669 0.58463 0.88118 0.0
C1168 C 0.56277 0.58817 0.87365 0.0
C1169 C 0.555 0.58394 0.84739 0.0
C1170 C 0.56807 0.5819 0.78037 0.0
C1171 C 0.5825 0.60016 0.7844 0.0
C1172 C 0.59786 0.60826 0.76762 0.0
C1173 C 0.59896 0.59854 0.74574 0.0
C1174 C 0.58364 0.58121 0.73951 0.0
C1175 C 0.56823 0.57306 0.75636 0.0
C1176 C 0.54 0.55386 0.79708 0.0
C1177 C 0.54492 0.54052 0.79598 0.0
C1178 C 0.53132 0.52202 0.79442 0.0
C1179 C 0.51242 0.51626 0.79459 0.0
C1180 C 0.50752 0.5296 0.79549 0.0
C1181 C 0.52119 0.54818 0.79671 0.0
H1182 H 0.69572 0.90584 0.5441 0.0
N1183 N 0.66522 0.89383 0.57556 0.0
H1184 H 0.69922 0.91658 0.49736 0.0
H1185 H 0.63959 0.89394 0.54363 0.0
H1186 H 0.6426 0.90373 0.49604 0.0
H1187 H 0.64451 0.89769 0.61146 0.0
H1188 H 0.65344 0.92424 0.64035 0.0
H1189 H 0.7005 0.9232 0.58325 0.0
H1190 H 0.70934 0.94993 0.61111 0.0
H1191 H 0.69667 0.89354 0.58951 0.0
H1192 H 0.63788 0.85934 0.57555 0.0
H1193 H 0.69876 0.86644 0.59715 0.0
H1194 H 0.6398 0.8322 0.58236 0.0
H1195 H 0.69451 0.78713 0.55103 0.0
H1196 H 0.68999 0.77498 0.50492 0.0
H1197 H 0.63087 0.74408 0.51654 0.0
H1198 H 0.63552 0.75673 0.56245 0.0
H1199 H 0.64843 0.75058 0.61921 0.0
H1200 H 0.66032 0.73434 0.64536 0.0
H1201 H 0.71605 0.77546 0.62347 0.0
H1202 H 0.704 0.79192 0.59799 0.0
H1203 H 0.69616 0.81266 0.57163 0.0
H1204 H 0.69662 0.84137 0.57227 0.0
H1205 H 0.64475 0.8146 0.61481 0.0
N1206 N 0.66744 0.77933 0.58758 0.0
H1207 H 0.64407 0.7858 0.61283 0.0
C1208 C 0.66737 0.89919 0.54742 0.0
C1209 C 0.68406 0.90536 0.53385 0.0
C1210 C 0.68595 0.91126 0.50691 0.0
C1211 C 0.67107 0.91074 0.49276 0.0
C1212 C 0.65432 0.90434 0.50635 0.0
C1213 C 0.65254 0.89867 0.53342 0.0
C1214 C 0.67171 0.90841 0.59512 0.0
C1215 C 0.65878 0.90887 0.61189 0.0
C1216 C 0.66389 0.92408 0.62821 0.0
C1217 C 0.6821 0.93922 0.62803 0.0
C1218 C 0.69529 0.93839 0.61214 0.0
C1219 C 0.69018 0.92309 0.59595 0.0
C1220 C 0.66701 0.87842 0.58214 0.0
C1221 C 0.68418 0.88022 0.58829 0.0
C1222 C 0.68537 0.86467 0.59247 0.0
C1223 C 0.66945 0.84705 0.59051 0.0
C1224 C 0.65232 0.84546 0.58466 0.0
C1225 C 0.65116 0.86095 0.58059 0.0
C1226 C 0.66526 0.77297 0.56003 0.0
C1227 C 0.68057 0.77796 0.54356 0.0
C1228 C 0.67798 0.7709 0.51727 0.0
C1229 C 0.66007 0.75875 0.50701 0.0
C1230 C 0.64481 0.75374 0.52363 0.0
C1231 C 0.64742 0.76086 0.54985 0.0
C1232 C 0.67529 0.77234 0.60666 0.0
C1233 C 0.66324 0.75633 0.62075 0.0
C1234 C 0.67005 0.74703 0.63546 0.0
C1235 C 0.6891 0.75356 0.63631 0.0
C1236 C 0.70132 0.7702 0.62342 0.0
C1237 C 0.69445 0.77956 0.60873 0.0
C1238 C 0.66989 0.79702 0.59187 0.0
C1239 C 0.685 0.81302 0.58133 0.0
C1240 C 0.6853 0.8295 0.58189 0.0
C1241 C 0.67056 0.8303 0.59319 0.0
C1242 C 0.65611 0.81445 0.60532 0.0
C1243 C 0.65576 0.79801 0.6045 0.0
H1244 H 0.27717 0.90409 0.57047 0.0
N1245 N 0.2424 0.8898 0.58616 0.0
H1246 H 0.29001 0.91625 0.52543 0.0
H1247 H 0.22321 0.89079 0.54094 0.0
H1248 H 0.23587 0.90231 0.49617 0.0
H1249 H 0.23109 0.91427 0.57986 0.0
H1250 H 0.24127 0.94145 0.60738 0.0
H1251 H 0.26085 0.89795 0.63319 0.0
H1252 H 0.27092 0.92514 0.66129 0.0
H1253 H 0.23888 0.85745 0.59261 0.0
H1254 H 0.20693 0.88317 0.58346 0.0
H1255 H 0.21044 0.82745 0.59156 0.0
H1256 H 0.17862 0.85346 0.58043 0.0
H1257 H 0.11029 0.73643 0.53996 0.0
H1258 H 0.09443 0.72956 0.49562 0.0
H1259 H 0.11076 0.78612 0.48716 0.0
H1260 H 0.12565 0.79268 0.53189 0.0
H1261 H 0.0984 0.77617 0.56804 0.0
H1262 H 0.07107 0.76216 0.5962 0.0
H1263 H 0.09106 0.73125 0.63837 0.0
H1264 H 0.11826 0.7449 0.60906 0.0
H1265 H 0.15975 0.77756 0.55472 0.0
H1266 H 0.18804 0.80718 0.56124 0.0
H1267 H 0.15673 0.82686 0.60138 0.0
N1268 N 0.12543 0.76767 0.56745 0.0
H1269 H 0.12856 0.79786 0.59314 0.0
C1270 C 0.24919 0.89614 0.55913 0.0
C1271 C 0.26809 0.90362 0.5543 0.0
C1272 C 0.27541 0.91065 0.52876 0.0
C1273 C 0.26384 0.91008 0.50755 0.0
C1274 C 0.24497 0.90274 0.51229 0.0
C1275 C 0.23772 0.89601 0.53792 0.0
C1276 C 0.2452 0.90402 0.60456 0.0
C1277 C 0.23929 0.9162 0.59802 0.0
C1278 C 0.2451 0.93175 0.61386 0.0
C1279 C 0.25683 0.93538 0.63659 0.0
C1280 C 0.26191 0.92269 0.64386 0.0
C1281 C 0.2561 0.90715 0.62799 0.0
C1282 C 0.22514 0.87255 0.58792 0.0
C1283 C 0.22569 0.85659 0.59041 0.0
C1284 C 0.20939 0.83945 0.58945 0.0
C1285 C 0.19209 0.83786 0.58547 0.0
C1286 C 0.19156 0.85398 0.58383 0.0
C1287 C 0.20786 0.87112 0.58535 0.0
C1288 C 0.11916 0.76499 0.53938 0.0
C1289 C 0.11068 0.74738 0.52829 0.0
C1290 C 0.10165 0.74349 0.50298 0.0
C1291 C 0.10102 0.75722 0.48816 0.0
C1292 C 0.11057 0.77514 0.49845 0.0
C1293 C 0.11934 0.77897 0.52392 0.0
C1294 C 0.11034 0.7614 0.58622 0.0
C1295 C 0.09701 0.76645 0.58335 0.0
C1296 C 0.08141 0.7585 0.59964 0.0
C1297 C 0.07877 0.7454 0.61926 0.0
C1298 C 0.0925 0.74099 0.623 0.0
C1299 C 0.10811 0.74889 0.60651 0.0
C1300 C 0.14193 0.78519 0.57346 0.0
C1301 C 0.15905 0.78828 0.565 0.0
C1302 C 0.17526 0.80523 0.56899 0.0
C1303 C 0.17483 0.81956 0.58201 0.0
C1304 C 0.15767 0.81635 0.59089 0.0
C1305 C 0.14141 0.7995 0.58641 0.0
H1306 H 0.23342 0.31453 0.55246 0.0
N1307 N 0.24219 0.34336 0.58586 0.0
H1308 H 0.24242 0.3163 0.50508 0.0
H1309 H 0.26341 0.37325 0.55715 0.0
H1310 H 0.27289 0.37515 0.5099 0.0
H1311 H 0.27238 0.36262 0.61612 0.0
H1312 H 0.28797 0.35112 0.64486 0.0
H1313 H 0.22808 0.30758 0.59961 0.0
H1314 H 0.24371 0.29584 0.62827 0.0
H1315 H 0.20785 0.31529 0.57041 0.0
H1316 H 0.23688 0.36772 0.60992 0.0
H1317 H 0.17941 0.31601 0.56976 0.0
H1318 H 0.20828 0.36822 0.61081 0.0
H1319 H 0.11623 0.3207 0.53891 0.0
H1320 H 0.10244 0.31758 0.49396 0.0
H1321 H 0.11332 0.37257 0.49965 0.0
H1322 H 0.12583 0.37498 0.54575 0.0
H1323 H 0.12348 0.3678 0.61327 0.0
H1324 H 0.09739 0.35631 0.64459 0.0
H1325 H 0.07303 0.3028 0.60858 0.0
H1326 H 0.09881 0.31414 0.57788 0.0
H1327 H 0.12776 0.31791 0.5856 0.0
H1328 H 0.15473 0.31521 0.59305 0.0
H1329 H 0.19041 0.3731 0.57863 0.0
N1330 N 0.12795 0.34953 0.57378 0.0
H1331 H 0.16325 0.37576 0.57242 0.0
C1332 C 0.24765 0.34384 0.55822 0.0
C1333 C 0.24196 0.3278 0.54334 0.0
C1334 C 0.24718 0.32882 0.51629 0.0
C1335 C 0.25811 0.34585 0.50371 0.0
C1336 C 0.26409 0.36184 0.51887 0.0
C1337 C 0.25882 0.3608 0.54584 0.0
C1338 C 0.24919 0.336 0.60574 0.0
C1339 C 0.26583 0.34805 0.61928 0.0
C1340 C 0.27466 0.34145 0.63575 0.0
C1341 C 0.26698 0.32257 0.63896 0.0
C1342 C 0.2499 0.31045 0.62614 0.0
C1343 C 0.24098 0.31712 0.60978 0.0
C1344 C 0.22456 0.34163 0.58991 0.0
C1345 C 0.208 0.32678 0.57953 0.0
C1346 C 0.19167 0.32719 0.57932 0.0
C1347 C 0.19154 0.34235 0.5898 0.0
C1348 C 0.20792 0.35656 0.60186 0.0
C1349 C 0.22424 0.35622 0.60174 0.0
C1350 C 0.12186 0.34805 0.54587 0.0
C1351 C 0.11566 0.33208 0.53056 0.0
C1352 C 0.10802 0.33044 0.50456 0.0
C1353 C 0.10693 0.34492 0.49295 0.0
C1354 C 0.11379 0.36111 0.50801 0.0
C1355 C 0.12107 0.36258 0.53423 0.0
C1356 C 0.11331 0.34191 0.59338 0.0
C1357 C 0.11264 0.35353 0.61255 0.0
C1358 C 0.09774 0.34699 0.63028 0.0
C1359 C 0.08333 0.32861 0.62925 0.0
C1360 C 0.08417 0.31692 0.61032 0.0
C1361 C 0.09896 0.32347 0.59258 0.0
C1362 C 0.14346 0.34719 0.57873 0.0
C1363 C 0.14131 0.33009 0.58436 0.0
C1364 C 0.15685 0.32851 0.58843 0.0
C1365 C 0.17485 0.34394 0.58666 0.0
C1366 C 0.17685 0.36096 0.58086 0.0
C1367 C 0.16134 0.36253 0.57705 0.0
C1368 C 0.97126 0.40497 0.10732 0.0
C1369 C 0.98033 0.3959 0.09953 0.0
C1370 C 0.97426 0.41297 0.13306 0.0
C1371 C 0.98632 0.4121 0.1522 0.0
H1372 H 0.96187 0.40609 0.09333 0.0
H1373 H 0.96716 0.42004 0.13789 0.0
S1374 S 0.01252 0.38884 0.14262 0.0
N1375 N 1.00149 0.38603 0.11338 0.0
N1376 N 0.00671 0.40061 0.16203 0.0
C1377 C 0.99533 0.40288 0.14481 0.0
C1378 C 0.99243 0.3949 0.11845 0.0
C1379 C 0.62159 0.58126 0.11064 0.0
C1380 C 0.62383 0.59737 0.09908 0.0
C1381 C 0.61305 0.57478 0.13573 0.0
C1382 C 0.6063 0.58405 0.15026 0.0
H1383 H 0.62626 0.5734 0.10012 0.0
H1384 H 0.61136 0.56216 0.14353 0.0
S1385 S 0.60965 0.62742 0.13021 0.0
N1386 N 0.61922 0.62288 0.10498 0.0
N1387 N 0.60322 0.61062 0.15222 0.0
C1388 C 0.60876 0.60036 0.13938 0.0
C1389 C 0.61754 0.60705 0.11382 0.0
C1390 C 0.40922 0.00924 0.09663 0.0
C1391 C 0.40662 0.99484 0.07989 0.0
C1392 C 0.42022 0.01396 0.12041 0.0
C1393 C 0.42902 0.00446 0.12819 0.0
H1394 H 0.402 0.01633 0.09208 0.0
H1395 H 0.42112 0.02449 0.13346 0.0
S1396 S 0.42929 0.96789 0.08918 0.0
N1397 N 0.41571 0.9727 0.07121 0.0
N1398 N 0.43627 0.98162 0.11576 0.0
C1399 C 0.42754 0.99091 0.11075 0.0
C1400 C 0.41639 0.9861 0.08663 0.0
C1401 C 0.38809 0.99066 0.92474 0.0
C1402 C 0.38104 0.97433 0.93966 0.0
C1403 C 0.39453 0.9921 0.89826 0.0
C1404 C 0.39405 0.97725 0.88553 0.0
H1405 H 0.38887 0.00254 0.93366 0.0
H1406 H 0.39991 0.00495 0.88761 0.0
S1407 S 0.37705 0.93149 0.91537 0.0
N1408 N 0.37393 0.94291 0.93934 0.0
N1409 N 0.38616 0.9458 0.88971 0.0
C1410 C 0.3869 0.96082 0.89999 0.0
C1411 C 0.38039 0.95932 0.92699 0.0
C1412 C 0.97618 0.40894 0.94142 0.0
C1413 C 0.98838 0.40421 0.95336 0.0
C1414 C 0.97935 0.4169 0.91564 0.0
C1415 C 0.9949 0.42059 0.9007 0.0
H1416 H 0.96375 0.40606 0.95172 0.0
H1417 H 0.96933 0.41989 0.9071 0.0
S1418 S 0.0317 0.41186 0.92287 0.0
N1419 N 0.0172 0.40464 0.94845 0.0
N1420 N 0.02305 0.41962 0.89986 0.0
C1421 C 0.00765 0.41667 0.91266 0.0
C1422 C 0.00441 0.40848 0.939 0.0
C1423 C 0.60497 0.61186 0.94276 0.0
C1424 C 0.60653 0.59874 0.95803 0.0
C1425 C 0.59447 0.60707 0.91848 0.0
C1426 C 0.58522 0.58903 0.90872 0.0
H1427 H 0.61253 0.62605 0.94895 0.0
H1428 H 0.5943 0.61768 0.90665 0.0
S1429 S 0.58238 0.54907 0.94295 0.0
N1430 N 0.59602 0.56649 0.96297 0.0
N1431 N 0.57652 0.55772 0.9174 0.0
C1432 C 0.58573 0.57564 0.92454 0.0
C1433 C 0.59631 0.58044 0.94919 0.0
C1434 C 0.99206 0.59166 0.93258 0.0
C1435 C 0.01051 0.60616 0.93544 0.0
C1436 C 0.98571 0.58126 0.90866 0.0
C1437 C 0.99749 0.58513 0.88648 0.0
H1438 H 0.98257 0.58798 0.94925 0.0
H1439 H 0.97154 0.56987 0.90776 0.0
S1440 S 0.04643 0.62326 0.88259 0.0
N1441 N 0.04016 0.62468 0.91358 0.0
N1442 N 0.02807 0.60571 0.8682 0.0
C1443 C 0.0158 0.60008 0.88878 0.0
C1444 C 0.02234 0.61045 0.91332 0.0
C1445 C 0.38679 0.40991 0.92068 0.0
C1446 C 0.39087 0.40121 0.94153 0.0
C1447 C 0.39727 0.41582 0.89696 0.0
C1448 C 0.41249 0.41362 0.8935 0.0
H1449 H 0.37531 0.41203 0.92261 0.0
H1450 H 0.39335 0.4221 0.88118 0.0
S1451 S 0.42991 0.39324 0.94367 0.0
N1452 N 0.41145 0.39127 0.95789 0.0
N1453 N 0.43179 0.40323 0.91412 0.0
C1454 C 0.4169 0.40524 0.91459 0.0
C1455 C 0.40594 0.39884 0.9384 0.0
C1456 C 0.59268 0.98658 0.92272 0.0
C1457 C 0.58845 0.99399 0.94475 0.0
C1458 C 0.58254 0.98242 0.89821 0.0
C1459 C 0.56765 0.98529 0.89501 0.0
H1460 H 0.60446 0.98484 0.92394 0.0
H1461 H 0.5869 0.97764 0.88131 0.0
S1462 S 0.54914 0.00143 0.94844 0.0
N1463 N 0.56731 0.00225 0.96293 0.0
N1464 N 0.54779 0.99376 0.91734 0.0
C1465 C 0.56258 0.99157 0.91759 0.0
C1466 C 0.57309 0.99608 0.94233 0.0
C1467 C 0.59424 0.01212 0.09767 0.0
C1468 C 0.60387 0.00412 0.08769 0.0
C1469 C 0.58582 0.00731 0.12308 0.0
C1470 C 0.58676 0.99437 0.13963 0.0
H1471 H 0.59285 0.02195 0.08555 0.0
H1472 H 0.57819 0.01353 0.12958 0.0
S1473 S 0.61176 0.97066 0.12419 0.0
N1474 N 0.6147 0.9833 0.09708 0.0
N1475 N 0.59918 0.97456 0.1451 0.0
C1476 C 0.59674 0.9866 0.13026 0.0
C1477 C 0.60522 0.9914 0.10426 0.0
C1478 C 0.00582 0.60383 0.10132 0.0
C1479 C 0.01494 0.60115 0.07989 0.0
C1480 C 0.00553 0.59693 0.1274 0.0
C1481 C 0.01427 0.58706 0.13292 0.0
H1482 H 0.99969 0.6121 0.09831 0.0
H1483 H 0.99917 0.60009 0.14363 0.0
S1484 S 0.03711 0.57351 0.08281 0.0
N1485 N 0.03093 0.58602 0.06524 0.0
N1486 N 0.03015 0.57293 0.1141 0.0
C1487 C 0.0223 0.58323 0.11127 0.0
C1488 C 0.02268 0.59029 0.0848 0.0
C1489 C 0.39565 0.3883 0.10387 0.0
C1490 C 0.39994 0.40035 0.08192 0.0
C1491 C 0.40602 0.3941 0.12819 0.0
C1492 C 0.42124 0.41208 0.13128 0.0
H1493 H 0.38374 0.37454 0.10265 0.0
H1494 H 0.40164 0.3846 0.14501 0.0
S1495 S 0.43984 0.4479 0.078 0.0
N1496 N 0.42132 0.43045 0.06373 0.0
N1497 N 0.44131 0.44113 0.10893 0.0
C1498 C 0.42627 0.42389 0.10882 0.0
C1499 C 0.4155 0.41809 0.08428 0.0
C1500 C 0.66493 0.73568 0.44478 0.0
C1501 C 0.65162 0.73503 0.42647 0.0
C1502 C 0.6677 0.7435 0.47065 0.0
C1503 C 0.6573 0.75103 0.47921 0.0
H1504 H 0.67312 0.72987 0.43927 0.0
H1505 H 0.67784 0.74337 0.48424 0.0
S1506 S 0.62197 0.7544 0.43829 0.0
N1507 N 0.62866 0.74361 0.41836 0.0
N1508 N 0.63409 0.75847 0.46677 0.0
C1509 C 0.64427 0.75088 0.46094 0.0
C1510 C 0.64139 0.74286 0.43465 0.0
C1511 C 0.29143 0.94132 0.44945 0.0
C1512 C 0.2858 0.92916 0.42738 0.0
C1513 C 0.28443 0.93506 0.47554 0.0
C1514 C 0.27127 0.91655 0.48015 0.0
H1515 H 0.30156 0.95568 0.44666 0.0
H1516 H 0.28921 0.94475 0.49215 0.0
S1517 S 0.25145 0.87935 0.42921 0.0
N1518 N 0.26601 0.89777 0.41194 0.0
N1519 N 0.25265 0.88623 0.46079 0.0
C1520 C 0.26531 0.90434 0.45826 0.0
C1521 C 0.27263 0.9106 0.4319 0.0
C1522 C 0.07525 0.34586 0.43781 0.0
C1523 C 0.07716 0.33638 0.41625 0.0
C1524 C 0.08519 0.34886 0.46228 0.0
C1525 C 0.09766 0.34276 0.46599 0.0
H1526 H 0.06546 0.35037 0.43618 0.0
H1527 H 0.08261 0.35551 0.47872 0.0
S1528 S 0.10959 0.3196 0.41406 0.0
N1529 N 0.09347 0.32221 0.3992 0.0
N1530 N 0.11276 0.32854 0.44468 0.0
C1531 C 0.10036 0.33407 0.44399 0.0
C1532 C 0.08998 0.33073 0.41927 0.0
C1533 C 0.07894 0.34879 0.26811 0.0
C1534 C 0.06371 0.33122 0.27297 0.0
C1535 C 0.08784 0.35332 0.24305 0.0
C1536 C 0.08163 0.34055 0.22166 0.0
H1537 H 0.08433 0.359 0.28405 0.0
H1538 H 0.09988 0.36686 0.24061 0.0
S1539 S 0.04088 0.29325 0.22332 0.0
N1540 N 0.04212 0.30126 0.25415 0.0
N1541 N 0.05821 0.30997 0.20653 0.0
C1542 C 0.06599 0.32307 0.22606 0.0
C1543 C 0.05719 0.31836 0.25181 0.0
C1544 C 0.67461 0.73949 0.26323 0.0
C1545 C 0.66539 0.74376 0.28248 0.0
C1546 C 0.67822 0.74734 0.23724 0.0
C1547 C 0.67295 0.75991 0.22973 0.0
H1548 H 0.67819 0.72932 0.26775 0.0
H1549 H 0.68447 0.74292 0.22258 0.0
S1550 S 0.65138 0.77794 0.27466 0.0
N1551 N 0.65283 0.76269 0.29346 0.0
N1552 N 0.66029 0.77801 0.24508 0.0
C1553 C 0.66485 0.76517 0.24953 0.0
C1554 C 0.66092 0.75697 0.27578 0.0
C1555 C 0.25908 0.91876 0.27853 0.0
C1556 C 0.27012 0.93701 0.2873 0.0
C1557 C 0.24832 0.91421 0.25475 0.0
C1558 C 0.24813 0.92769 0.2386 0.0
H1559 H 0.25905 0.90785 0.28982 0.0
H1560 H 0.24038 0.90001 0.2486 0.0
S1561 S 0.27373 0.97739 0.25306 0.0
N1562 N 0.27944 0.96859 0.27861 0.0
N1563 N 0.25931 0.96 0.2335 0.0
C1564 C 0.25843 0.94591 0.24763 0.0
C1565 C 0.2694 0.95058 0.27207 0.0
C1566 C 0.70508 0.94017 0.25525 0.0
C1567 C 0.69209 0.94367 0.26676 0.0
C1568 C 0.70202 0.93203 0.22963 0.0
C1569 C 0.68582 0.92693 0.21446 0.0
H1570 H 0.71776 0.94369 0.26611 0.0
H1571 H 0.71235 0.92949 0.22177 0.0
S1572 S 0.64775 0.93369 0.23441 0.0
N1573 N 0.66251 0.94174 0.26035 0.0
N1574 N 0.6569 0.92651 0.21213 0.0
C1575 C 0.67277 0.93045 0.22547 0.0
C1576 C 0.67588 0.93881 0.25158 0.0
C1577 C 0.06752 0.74672 0.26307 0.0
C1578 C 0.05142 0.74613 0.27126 0.0
C1579 C 0.07506 0.75351 0.23741 0.0
C1580 C 0.06653 0.7596 0.21885 0.0
H1581 H 0.07465 0.74243 0.27689 0.0
H1582 H 0.08787 0.75433 0.23234 0.0
S1583 S 0.02248 0.75823 0.22958 0.0
N1584 N 0.02642 0.75087 0.25851 0.0
N1585 N 0.03983 0.76259 0.20977 0.0
C1586 C 0.04989 0.75823 0.22654 0.0
C1587 C 0.04252 0.75175 0.25286 0.0
C1588 C 0.25633 0.34988 0.26309 0.0
C1589 C 0.26188 0.33835 0.27464 0.0
C1590 C 0.24663 0.34569 0.23831 0.0
C1591 C 0.24193 0.32972 0.22401 0.0
H1592 H 0.25979 0.36253 0.27295 0.0
H1593 H 0.24298 0.35517 0.23007 0.0
S1594 S 0.25243 0.2945 0.24543 0.0
N1595 N 0.26132 0.30984 0.27001 0.0
N1596 N 0.24304 0.30201 0.22327 0.0
C1597 C 0.24679 0.31772 0.23557 0.0
C1598 C 0.25678 0.32202 0.26089 0.0
C1599 C 0.27668 0.33862 0.4383 0.0
C1600 C 0.27506 0.35039 0.41991 0.0
C1601 C 0.27091 0.33698 0.46526 0.0
C1602 C 0.26327 0.34702 0.47479 0.0
H1603 H 0.28287 0.33094 0.43204 0.0
H1604 H 0.27285 0.32813 0.47892 0.0
S1605 S 0.25389 0.37799 0.43412 0.0
N1606 N 0.26387 0.37115 0.41275 0.0
N1607 N 0.25288 0.36785 0.46322 0.0
C1608 C 0.26094 0.3583 0.4564 0.0
C1609 C 0.26686 0.36003 0.42903 0.0
C1610 C 0.67064 0.93744 0.43081 0.0
C1611 C 0.68068 0.93409 0.41172 0.0
C1612 C 0.66712 0.92943 0.4567 0.0
C1613 C 0.67333 0.91761 0.46434 0.0
H1614 H 0.66624 0.94699 0.42621 0.0
H1615 H 0.66011 0.93309 0.47118 0.0
S1616 S 0.69748 0.90209 0.42001 0.0
N1617 N 0.69511 0.91676 0.40114 0.0
N1618 N 0.68795 0.90124 0.44936 0.0
C1619 C 0.68237 0.9133 0.44477 0.0
C1620 C 0.68616 0.92163 0.41859 0.0
C1621 C 0.07851 0.73638 0.41957 0.0
C1622 C 0.06627 0.74267 0.41533 0.0
C1623 C 0.08988 0.7413 0.44295 0.0
C1624 C 0.08936 0.75259 0.46304 0.0
H1625 H 0.07944 0.72773 0.4046 0.0
H1626 H 0.09923 0.73629 0.44526 0.0
S1627 S 0.05834 0.77114 0.46303 0.0
N1628 N 0.05361 0.75999 0.434 0.0
N1629 N 0.07457 0.76878 0.47804 0.0
C1630 C 0.0769 0.75865 0.45929 0.0
C1631 C 0.06547 0.7538 0.43544 0.0
C1632 C 0.34616 0.08446 0.76255 0.0
C1633 C 0.32769 0.0706 0.7574 0.0
C1634 C 0.35168 0.09328 0.78784 0.0
C1635 C 0.33902 0.08832 0.80912 0.0
H1636 H 0.35635 0.08878 0.74675 0.0
H1637 H 0.36594 0.10423 0.79058 0.0
S1638 S 0.28948 0.05125 0.80669 0.0
N1639 N 0.29697 0.05159 0.77585 0.0
N1640 N 0.30745 0.06744 0.82379 0.0
C1641 C 0.3206 0.07404 0.80437 0.0
C1642 C 0.31492 0.06536 0.77844 0.0
C1643 C 0.95408 0.27066 0.78522 0.0
C1644 C 0.9537 0.25879 0.76531 0.0
C1645 C 0.94591 0.26408 0.81059 0.0
C1646 C 0.93701 0.24539 0.81701 0.0
H1647 H 0.96082 0.28517 0.78128 0.0
H1648 H 0.94667 0.27373 0.82538 0.0
S1649 S 0.93093 0.20839 0.7715 0.0
N1650 N 0.94295 0.22723 0.75356 0.0
N1651 N 0.92745 0.21499 0.80099 0.0
C1652 C 0.93633 0.23335 0.79724 0.0
C1653 C 0.94469 0.24001 0.77148 0.0
C1654 C 0.7424 0.68439 0.77195 0.0
C1655 C 0.7465 0.67672 0.75014 0.0
C1656 C 0.753 0.68924 0.79611 0.0
C1657 C 0.76818 0.6868 0.7991 0.0
H1658 H 0.73029 0.68561 0.77096 0.0
H1659 H 0.74866 0.69405 0.81301 0.0
S1660 S 0.78649 0.67043 0.74568 0.0
N1661 N 0.76781 0.66881 0.73168 0.0
N1662 N 0.78825 0.6787 0.77648 0.0
C1663 C 0.77319 0.68046 0.77653 0.0
C1664 C 0.76222 0.67523 0.7522 0.0
C1665 C 0.72951 0.66655 0.59336 0.0
C1666 C 0.72651 0.65213 0.61068 0.0
C1667 C 0.73627 0.66806 0.56707 0.0
C1668 C 0.7401 0.65512 0.55706 0.0
H1669 H 0.72665 0.6768 0.60009 0.0
H1670 H 0.73835 0.67933 0.55437 0.0
S1671 S 0.7356 0.61531 0.5941 0.0
N1672 N 0.72861 0.62495 0.61581 0.0
N1673 N 0.74112 0.62788 0.56633 0.0
C1674 C 0.7373 0.64073 0.57401 0.0
C1675 C 0.73056 0.63921 0.60083 0.0
C1676 C 0.31341 0.07251 0.59347 0.0
C1677 C 0.32807 0.07533 0.61079 0.0
C1678 C 0.31671 0.08076 0.5679 0.0
C1679 C 0.33483 0.09246 0.55864 0.0
H1680 H 0.29918 0.06346 0.5994 0.0
H1681 H 0.30488 0.07762 0.55507 0.0
S1682 S 0.37814 0.10555 0.59723 0.0
N1683 N 0.36144 0.09114 0.61744 0.0
N1684 N 0.36771 0.10728 0.56969 0.0
C1685 C 0.34968 0.09574 0.57603 0.0
C1686 C 0.34629 0.08705 0.602 0.0
C1687 C 0.94166 0.28386 0.6094 0.0
C1688 C 0.94082 0.26956 0.62489 0.0
C1689 C 0.93246 0.2804 0.58406 0.0
C1690 C 0.92215 0.26256 0.57361 0.0
H1691 H 0.95023 0.29787 0.61619 0.0
H1692 H 0.93416 0.29178 0.57202 0.0
S1693 S 0.91309 0.22017 0.60785 0.0
N1694 N 0.92689 0.23666 0.62914 0.0
N1695 N 0.90988 0.23037 0.58162 0.0
C1696 C 0.9202 0.24811 0.58962 0.0
C1697 C 0.92945 0.25156 0.61527 0.0
C1698 C 0.34126 0.26809 0.58741 0.0
C1699 C 0.35788 0.27342 0.6018 0.0
C1700 C 0.33833 0.26121 0.56082 0.0
C1701 C 0.35196 0.2596 0.54754 0.0
H1702 H 0.33045 0.26931 0.59665 0.0
H1703 H 0.32545 0.25749 0.55037 0.0
S1704 S 0.39741 0.27057 0.5763 0.0
N1705 N 0.38788 0.27582 0.60072 0.0
N1706 N 0.38222 0.26296 0.55091 0.0
C1707 C 0.36846 0.26454 0.56173 0.0
C1708 C 0.37144 0.27141 0.5888 0.0
C1709 C 0.73324 0.07014 0.60192 0.0
C1710 C 0.71792 0.0722 0.60408 0.0
C1711 C 0.74452 0.07645 0.5791 0.0
C1712 C 0.74068 0.08471 0.55716 0.0
H1713 H 0.73691 0.0641 0.6184 0.0
H1714 H 0.75654 0.07511 0.57894 0.0
S1715 S 0.70091 0.09163 0.55194 0.0
N1716 N 0.69891 0.08237 0.5822 0.0
N1717 N 0.71947 0.09335 0.53846 0.0
C1718 C 0.72501 0.08636 0.55879 0.0
C1719 C 0.71377 0.0803 0.58241 0.0
C1720 C 0.93423 0.66242 0.59568 0.0
C1721 C 0.93196 0.67227 0.61629 0.0
C1722 C 0.92354 0.65768 0.57165 0.0
C1723 C 0.90997 0.66235 0.56755 0.0
H1724 H 0.94495 0.65914 0.59755 0.0
H1725 H 0.92647 0.65096 0.55575 0.0
S1726 S 0.89665 0.68543 0.61761 0.0
N1727 N 0.91409 0.685 0.63239 0.0
N1728 N 0.89337 0.67534 0.58788 0.0
C1729 C 0.90682 0.67119 0.58886 0.0
C1730 C 0.91796 0.67632 0.61306 0.0
C1731 C 0.95328 0.70734 0.76925 0.0
C1732 C 0.95352 0.69244 0.7579 0.0
C1733 C 0.94696 0.70658 0.7956 0.0
C1734 C 0.9405 0.69085 0.81163 0.0
H1735 H 0.95793 0.71973 0.75769 0.0
H1736 H 0.94683 0.71829 0.8033 0.0
S1737 S 0.93895 0.64839 0.79244 0.0
N1738 N 0.94719 0.66161 0.76543 0.0
N1739 N 0.93536 0.6603 0.81498 0.0
C1740 C 0.94084 0.67593 0.80083 0.0
C1741 C 0.94736 0.6767 0.77401 0.0
C1742 C 0.3325 0.26111 0.76263 0.0
C1743 C 0.34804 0.26394 0.74825 0.0
C1744 C 0.3284 0.25285 0.78842 0.0
C1745 C 0.33974 0.24724 0.80073 0.0
H1746 H 0.32378 0.26583 0.75437 0.0
H1747 H 0.31671 0.25148 0.79922 0.0
S1748 S 0.3805 0.2492 0.77053 0.0
N1749 N 0.37369 0.25866 0.74751 0.0
N1750 N 0.36598 0.2434 0.79585 0.0
C1751 C 0.35472 0.24915 0.78612 0.0
C1752 C 0.35886 0.25742 0.75992 0.0
C1753 C 0.7282 0.06062 0.76207 0.0
C1754 C 0.72655 0.07315 0.74543 0.0
C1755 C 0.73829 0.06613 0.78667 0.0
C1756 C 0.74713 0.08437 0.79553 0.0
H1757 H 0.72122 0.04634 0.75649 0.0
H1758 H 0.73869 0.05592 0.79924 0.0
S1759 S 0.74914 0.12299 0.75806 0.0
N1760 N 0.73607 0.10502 0.73867 0.0
N1761 N 0.75504 0.11524 0.78472 0.0
C1762 C 0.74627 0.09716 0.77862 0.0
C1763 C 0.736 0.0916 0.75362 0.0
C1764 C 0.0482 0.37725 0.04683 0.0
C1765 C 0.03591 0.36433 0.02765 0.0
C1766 C 0.06335 0.37665 0.05739 0.0
C1767 C 0.06687 0.36307 0.04933 0.0
H1768 H 0.0459 0.38773 0.05431 0.0
H1769 H 0.07201 0.38654 0.07278 0.0
S1770 S 0.04004 0.32694 0.99804 0.0
N1771 N 0.02908 0.33815 0.99978 0.0
N1772 N 0.05764 0.33713 0.01974 0.0
C1773 C 0.05514 0.35044 0.02951 0.0
C1774 C 0.0397 0.35107 0.01861 0.0
C1775 C 0.6601 0.6915 0.05056 0.0
C1776 C 0.64305 0.68055 0.0368 0.0
C1777 C 0.66544 0.70889 0.06023 0.0
C1778 C 0.65402 0.71617 0.05657 0.0
H1779 H 0.66935 0.68653 0.05439 0.0
H1780 H 0.67845 0.7165 0.07134 0.0
S1781 S 0.60867 0.69386 0.02018 0.0
N1782 N 0.61514 0.67875 0.01889 0.0
N1783 N 0.62536 0.71157 0.03691 0.0
C1784 C 0.63715 0.70563 0.04231 0.0
C1785 C 0.63165 0.68783 0.03243 0.0
C1786 C 0.3047 0.93566 0.06113 0.0
C1787 C 0.3122 0.9509 0.04379 0.0
C1788 C 0.28711 0.92838 0.07213 0.0
C1789 C 0.27607 0.93583 0.06597 0.0
H1790 H 0.3127 0.92957 0.06697 0.0
H1791 H 0.28237 0.91711 0.08623 0.0
S1792 S 0.28855 0.97474 0.01944 0.0
N1793 N 0.3069 0.97269 0.0198 0.0
N1794 N 0.27347 0.95859 0.03972 0.0
C1795 C 0.28315 0.95074 0.04793 0.0
C1796 C 0.30126 0.95835 0.03702 0.0
C1797 C 0.37283 0.0494 0.98805 0.0
C1798 C 0.35919 0.03792 0.00668 0.0
C1799 C 0.373 0.06444 0.9764 0.0
C1800 C 0.35952 0.06867 0.98276 0.0
H1801 H 0.38335 0.0466 0.98198 0.0
H1802 H 0.38352 0.07253 0.96164 0.0
S1803 S 0.32144 0.04386 0.03159 0.0
N1804 N 0.33222 0.03243 0.03184 0.0
N1805 N 0.33271 0.0608 0.00995 0.0
C1806 C 0.34605 0.05764 0.00182 0.0
C1807 C 0.34588 0.0423 0.0138 0.0
C1808 C 0.9556 0.3115 0.99498 0.0
C1809 C 0.94524 0.3176 0.00829 0.0
C1810 C 0.94716 0.29378 0.98451 0.0
C1811 C 0.92804 0.2813 0.98718 0.0
H1812 H 0.97023 0.32071 0.99154 0.0
H1813 H 0.95563 0.29009 0.97329 0.0
S1814 S 0.89518 0.28965 0.02371 0.0
N1815 N 0.91511 0.30927 0.02568 0.0
N1816 N 0.89935 0.27572 0.00664 0.0
C1817 C 0.91768 0.2869 0.00168 0.0
C1818 C 0.92625 0.30507 0.01211 0.0
C1819 C 0.70695 0.65796 0.98994 0.0
C1820 C 0.69924 0.64014 0.00034 0.0
C1821 C 0.7244 0.667 0.97789 0.0
C1822 C 0.73484 0.65861 0.97585 0.0
H1823 H 0.69914 0.66472 0.99005 0.0
H1824 H 0.72938 0.68033 0.96902 0.0
S1825 S 0.72233 0.61335 0.0036 0.0
N1826 N 0.70438 0.61527 0.01032 0.0
N1827 N 0.73723 0.6324 0.98793 0.0
C1828 C 0.72782 0.64128 0.98757 0.0
C1829 C 0.71003 0.63203 0.99976 0.0
C1830 C 0.95396 0.63791 0.0056 0.0
C1831 C 0.9719 0.65129 0.01429 0.0
C1832 C 0.94182 0.64276 0.99402 0.0
C1833 C 0.9473 0.6612 0.99015 0.0
H1834 H 0.94937 0.62357 0.00735 0.0
H1835 H 0.92819 0.63196 0.98747 0.0
S1836 S 0.99334 0.70145 0.00848 0.0
N1837 N 0.99461 0.68372 0.01838 0.0
N1838 N 0.97231 0.69287 0.99549 0.0
C1839 C 0.9652 0.6747 0.99914 0.0
C1840 C 0.97737 0.66974 0.01145 0.0
C1841 C 0.33575 0.29391 0.01268 0.0
C1842 C 0.35044 0.31134 0.00527 0.0
C1843 C 0.33312 0.27804 0.00033 0.0
C1844 C 0.34513 0.2789 0.98019 0.0
H1845 H 0.32582 0.29249 0.02756 0.0
H1846 H 0.32136 0.26498 0.00622 0.0
S1847 S 0.38619 0.32097 0.95413 0.0
N1848 N 0.37768 0.32834 0.97716 0.0
N1849 N 0.37252 0.29855 0.95381 0.0
C1850 C 0.36024 0.29614 0.97324 0.0
C1851 C 0.36294 0.31233 0.98579 0.0
C1852 C 0.6858 0.06312 0.9757 0.0
C1853 C 0.67994 0.04759 0.99206 0.0
C1854 C 0.70367 0.07271 0.96512 0.0
C1855 C 0.71651 0.06731 0.97072 0.0
H1856 H 0.67627 0.06747 0.97002 0.0
H1857 H 0.70718 0.08402 0.95153 0.0
S1858 S 0.70895 0.02927 0.01593 0.0
N1859 N 0.68892 0.02825 0.0155 0.0
N1860 N 0.72273 0.04664 0.99625 0.0
C1861 C 0.71115 0.05241 0.98829 0.0
C1862 C 0.69284 0.04248 0.99881 0.0
C1863 C 0.63183 0.9441 0.02304 0.0
C1864 C 0.6466 0.96137 0.0154 0.0
C1865 C 0.63502 0.93091 0.03449 0.0
C1866 C 0.65312 0.93458 0.03919 0.0
H1867 H 0.61768 0.94081 0.02047 0.0
H1868 H 0.62318 0.91785 0.04015 0.0
S1869 S 0.69663 0.97812 0.02372 0.0
N1870 N 0.68 0.98144 0.0132 0.0
N1871 N 0.68605 0.95713 0.03583 0.0
C1872 C 0.66802 0.95179 0.03133 0.0
C1873 C 0.66475 0.96505 0.01919 0.0
C1874 C 0.04871 0.69767 0.01919 0.0
C1875 C 0.05661 0.68712 0.02537 0.0
C1876 C 0.05639 0.7154 0.02955 0.0
C1877 C 0.07207 0.72318 0.04697 0.0
H1878 H 0.03628 0.69205 0.00664 0.0
H1879 H 0.04969 0.7229 0.02435 0.0
S1880 S 0.09765 0.7009 0.06997 0.0
N1881 N 0.08112 0.68576 0.04967 0.0
N1882 N 0.09503 0.71865 0.07015 0.0
C1883 C 0.08029 0.71284 0.05288 0.0
C1884 C 0.07269 0.69493 0.04188 0.0
C1885 C 0.30149 0.36909 0.03931 0.0
C1886 C 0.30901 0.35892 0.02979 0.0
C1887 C 0.28336 0.36053 0.04874 0.0
C1888 C 0.27185 0.3414 0.04894 0.0
H1889 H 0.30986 0.38384 0.04046 0.0
H1890 H 0.27861 0.36901 0.05702 0.0
S1891 S 0.28385 0.30846 0.02295 0.0
N1892 N 0.30287 0.32861 0.01899 0.0
N1893 N 0.26862 0.31254 0.03638 0.0
C1894 C 0.27881 0.33104 0.03825 0.0
C1895 C 0.29738 0.33978 0.02873 0.0
C1896 C 0.72158 0.71136 0.36885 0.0
C1897 C 0.7047 0.69751 0.35762 0.0
C1898 C 0.73452 0.70742 0.38 0.0
C1899 C 0.73086 0.68939 0.38093 0.0
H1900 H 0.72477 0.72533 0.36916 0.0
H1901 H 0.74735 0.71856 0.38838 0.0
S1902 S 0.6878 0.64807 0.35585 0.0
N1903 N 0.68478 0.66514 0.34845 0.0
N1904 N 0.70843 0.65748 0.37057 0.0
C1905 C 0.71392 0.67544 0.36969 0.0
C1906 C 0.701 0.67956 0.3578 0.0
C1907 C 0.29421 0.02102 0.37064 0.0
C1908 C 0.30678 0.01495 0.37303 0.0
C1909 C 0.29884 0.03836 0.37996 0.0
C1910 C 0.31627 0.05038 0.39188 0.0
H1911 H 0.2806 0.01229 0.36162 0.0
H1912 H 0.28872 0.04242 0.37774 0.0
S1913 S 0.35396 0.04101 0.40416 0.0
N1914 N 0.3374 0.02246 0.38889 0.0
N1915 N 0.34589 0.05477 0.40658 0.0
C1916 C 0.32895 0.0445 0.39449 0.0
C1917 C 0.32427 0.02689 0.38504 0.0
C1918 C 0.98141 0.30429 0.38566 0.0
C1919 C 0.98647 0.29538 0.36706 0.0
C1920 C 0.96379 0.29529 0.39714 0.0
C1921 C 0.95045 0.27713 0.39014 0.0
H1922 H 0.99146 0.31796 0.39259 0.0
H1923 H 0.96098 0.30233 0.41269 0.0
S1924 S 0.95577 0.24908 0.33834 0.0
N1925 N 0.97616 0.26823 0.33967 0.0
N1926 N 0.94275 0.25156 0.36035 0.0
C1927 C 0.95492 0.2686 0.36994 0.0
C1928 C 0.97298 0.27765 0.35863 0.0
C1929 C 0.0395 0.39191 0.32612 0.0
C1930 C 0.03155 0.38273 0.3506 0.0
C1931 C 0.03515 0.40427 0.31469 0.0
C1932 C 0.02269 0.40799 0.32725 0.0
H1933 H 0.04859 0.38899 0.31499 0.0
H1934 H 0.0409 0.41025 0.29516 0.0
S1935 S 1.00023 0.38988 0.39355 0.0
N1936 N 0.01209 0.37985 0.38847 0.0
N1937 N 0.00408 0.40318 0.36696 0.0
C1938 C 0.01553 0.39983 0.35252 0.0
C1939 C 0.01994 0.38722 0.36421 0.0
C1940 C 0.59725 0.64539 0.33549 0.0
C1941 C 0.61673 0.65632 0.33482 0.0
C1942 C 0.58776 0.62735 0.32582 0.0
C1943 C 0.59738 0.61955 0.3152 0.0
H1944 H 0.58922 0.6509 0.34306 0.0
H1945 H 0.57277 0.61954 0.32625 0.0
S1946 S 0.64818 0.64242 0.30749 0.0
N1947 N 0.64516 0.65789 0.32208 0.0
N1948 N 0.6273 0.62418 0.30373 0.0
C1949 C 0.6168 0.63019 0.31472 0.0
C1950 C 0.62647 0.6485 0.32459 0.0
C1951 C 0.37128 0.9918 0.32445 0.0
C1952 C 0.36214 0.97321 0.33169 0.0
C1953 C 0.38881 1.00054 0.31264 0.0
C1954 C 0.39799 0.99111 0.30787 0.0
H1955 H 0.36454 0.9995 0.32683 0.0
H1956 H 0.39501 0.01466 0.30647 0.0
S1957 S 0.38096 0.94281 0.32525 0.0
N1958 N 0.36436 0.94607 0.33503 0.0
N1959 N 0.39717 0.9625 0.31263 0.0
C1960 C 0.3895 0.97284 0.3163 0.0
C1961 C 0.37161 0.96389 0.32823 0.0
C1962 C 0.63294 0.97559 0.31263 0.0
C1963 C 0.62988 0.96486 0.33603 0.0
C1964 C 0.61901 0.97795 0.30136 0.0
C1965 C 0.60136 0.96965 0.31287 0.0
H1966 H 0.64616 0.98211 0.30261 0.0
H1967 H 0.62197 0.98595 0.28296 0.0
S1968 S 0.58629 0.94106 0.37498 0.0
N1969 N 0.60788 0.94641 0.37097 0.0
N1970 N 0.58174 0.95094 0.34965 0.0
C1971 C 0.59814 0.95918 0.33654 0.0
C1972 C 0.61238 0.95681 0.34817 0.0
C1973 C 0.01277 0.63908 0.34177 0.0
C1974 C 0.02422 0.65701 0.33202 0.0
C1975 C 0.01279 0.62423 0.33001 0.0
C1976 C 0.02432 0.62672 0.30811 0.0
H1977 H 0.00354 0.63641 0.35846 0.0
H1978 H 0.00369 0.61069 0.33811 0.0
S1979 S 0.05649 0.67067 0.27424 0.0
N1980 N 0.04732 0.67624 0.29876 0.0
N1981 N 0.04707 0.64837 0.27657 0.0
C1982 C 0.03588 0.64454 0.29821 0.0
C1983 C 0.03591 0.65965 0.31018 0.0
C1984 C 0.3597 0.37513 0.31785 0.0
C1985 C 0.35221 0.3851 0.32834 0.0
C1986 C 0.37761 0.38401 0.30728 0.0
C1987 C 0.38871 0.40317 0.30693 0.0
H1988 H 0.35139 0.36039 0.31654 0.0
H1989 H 0.3824 0.37583 0.29805 0.0
S1990 S 0.37702 0.43547 0.33633 0.0
N1991 N 0.35829 0.41516 0.34077 0.0
N1992 N 0.39197 0.43174 0.32114 0.0
C1993 C 0.38193 0.41324 0.3191 0.0
C1994 C 0.3637 0.40424 0.32977 0.0
C1995 C 0.29732 0.28219 0.35658 0.0
C1996 C 0.31182 0.29913 0.34735 0.0
C1997 C 0.3008 0.26906 0.36747 0.0
C1998 C 0.31898 0.2725 0.3701 0.0
H1999 H 0.28318 0.27912 0.35558 0.0
H2000 H 0.28917 0.25622 0.37431 0.0
S2001 S 0.3619 0.31538 0.3503 0.0
N2002 N 0.345 0.31878 0.34166 0.0
N2003 N 0.35171 0.29466 0.36333 0.0
C2004 C 0.33359 0.28944 0.36078 0.0
C2005 C 0.32997 0.30261 0.34915 0.0
C2006 C 0.74885 0.03262 0.35608 0.0
C2007 C 0.72988 0.02129 0.36142 0.0
C2008 C 0.75946 0.04987 0.36818 0.0
C2009 C 0.75159 0.05636 0.38649 0.0
H2010 H 0.7557 0.02788 0.34312 0.0
H2011 H 0.77412 0.05789 0.36402 0.0
S2012 S 0.70225 0.03213 0.40651 0.0
N2013 N 0.70338 0.01815 0.38496 0.0
N2014 N 0.7234 0.05019 0.4086 0.0
C2015 C 0.73242 0.04549 0.39101 0.0
C2016 C 0.72155 0.02804 0.37828 0.0
C2017 C 0.96884 0.68049 0.37815 0.0
C2018 C 0.97568 0.69713 0.36419 0.0
C2019 C 0.95131 0.67176 0.3901 0.0
C2020 C 0.94006 0.67935 0.38836 0.0
H2021 H 0.97748 0.67475 0.38128 0.0
H2022 H 0.947 0.65958 0.40209 0.0
S2023 S 0.95002 0.72066 0.3497 0.0
N2024 N 0.9687 0.71942 0.34617 0.0
N2025 N 0.93584 0.70295 0.36852 0.0
C2026 C 0.94612 0.69514 0.37265 0.0
C2027 C 0.9639 0.70403 0.36057 0.0
C2028 C 0.36533 0.00938 0.68306 0.0
C2029 C 0.37008 0.02769 0.68222 0.0
C2030 C 0.37707 0.0044 0.69546 0.0
C2031 C 0.39423 0.01754 0.70713 0.0
H2032 H 0.35197 0.99865 0.67541 0.0
H2033 H 0.37216 0.98999 0.69703 0.0
S2034 S 0.41444 0.06771 0.70604 0.0
N2035 N 0.39379 0.05923 0.69162 0.0
N2036 N 0.41634 0.04999 0.71382 0.0
C2037 C 0.39968 0.03606 0.70477 0.0
C2038 C 0.38751 0.0411 0.69258 0.0
C2039 C 0.97287 0.35949 0.69429 0.0
C2040 C 0.97899 0.34886 0.70748 0.0
C2041 C 0.97644 0.37609 0.70539 0.0
C2042 C 0.98643 0.38279 0.72996 0.0
H2043 H 0.96526 0.355 0.6752 0.0
H2044 H 0.97157 0.38385 0.69449 0.0
S2045 S 0.00461 0.35994 0.77353 0.0
N2046 N 0.99499 0.34617 0.74723 0.0
N2047 N 1.00156 0.37718 0.76788 0.0
C2048 C 0.9924 0.37224 0.74354 0.0
C2049 C 0.98873 0.35535 0.73237 0.0
C2050 C 0.64405 0.63239 0.71164 0.0
C2051 C 0.65303 0.6225 0.70932 0.0
C2052 C 0.62624 0.62435 0.72235 0.0
C2053 C 0.61662 0.60606 0.73098 0.0
H2054 H 0.65102 0.64665 0.70592 0.0
H2055 H 0.62011 0.63264 0.72446 0.0
S2056 S 0.63332 0.57382 0.72803 0.0
N2057 N 0.65036 0.59302 0.71537 0.0
N2058 N 0.61705 0.57808 0.73577 0.0
C2059 C 0.62507 0.59579 0.72783 0.0
C2060 C 0.64322 0.60396 0.71696 0.0
C2061 C 0.6927 0.71206 0.65127 0.0
C2062 C 0.70763 0.71854 0.66994 0.0
C2063 C 0.6869 0.72349 0.64071 0.0
C2064 C 0.69576 0.74197 0.64825 0.0
H2065 H 0.68532 0.69796 0.64462 0.0
H2066 H 0.67545 0.71782 0.62623 0.0
S2067 S 0.73532 0.76592 0.69669 0.0
N2068 N 0.73111 0.74485 0.69569 0.0
N2069 N 0.72005 0.7663 0.67576 0.0
C2070 C 0.71073 0.74875 0.66681 0.0
C2071 C 0.71666 0.73706 0.6777 0.0
C2072 C 0.29361 0.98173 0.66398 0.0
C2073 C 0.2835 0.99003 0.6703 0.0
C2074 C 0.28476 0.96377 0.6543 0.0
C2075 C 0.26543 0.95331 0.65059 0.0
H2076 H 0.30857 0.98934 0.66552 0.0
H2077 H 0.29324 0.95833 0.6485 0.0
S2078 S 0.23224 0.96744 0.6678 0.0
N2079 N 0.25277 0.98556 0.67474 0.0
N2080 N 0.23624 0.95174 0.6567 0.0
C2081 C 0.25503 0.96098 0.6583 0.0
C2082 C 0.26402 0.97931 0.66817 0.0
C2083 C 0.03964 0.32296 0.65925 0.0
C2084 C 0.03159 0.30573 0.67179 0.0
C2085 C 0.05692 0.3308 0.64673 0.0
C2086 C 0.06676 0.32171 0.64645 0.0
H2087 H 0.03212 0.33 0.65775 0.0
H2088 H 0.06213 0.34358 0.63598 0.0
S2089 S 0.05337 0.278 0.68075 0.0
N2090 N 0.03593 0.28099 0.68614 0.0
N2091 N 0.06842 0.29583 0.6629 0.0
C2092 C 0.05951 0.30516 0.66064 0.0
C2093 C 0.04193 0.29715 0.67326 0.0
C2094 C 0.2942 0.29931 0.65116 0.0
C2095 C 0.30361 0.30694 0.67596 0.0
C2096 C 0.28157 0.30364 0.64009 0.0
C2097 C 0.27783 0.31579 0.65333 0.0
H2098 H 0.29712 0.29045 0.63958 0.0
H2099 H 0.27539 0.29813 0.62035 0.0
S2100 S 0.29657 0.3375 0.72044 0.0
N2101 N 0.3067 0.32583 0.71473 0.0
N2102 N 0.28294 0.33388 0.6938 0.0
C2103 C 0.28624 0.32266 0.67884 0.0
C2104 C 0.29909 0.31824 0.69019 0.0
C2105 C 0.67946 0.98013 0.64982 0.0
C2106 C 0.69609 0.99099 0.66458 0.0
C2107 C 0.67493 0.9633 0.63877 0.0
C2108 C 0.68676 0.95646 0.64205 0.0
H2109 H 0.66997 0.98484 0.64608 0.0
H2110 H 0.66227 0.95584 0.6268 0.0
S2111 S 0.73104 0.97845 0.68128 0.0
N2112 N 0.7239 0.993 0.68339 0.0
N2113 N 0.71518 0.96117 0.66288 0.0
C2114 C 0.70313 0.9668 0.65754 0.0
C2115 C 0.70782 0.98406 0.66876 0.0
C2116 C 0.0364 0.73741 0.65673 0.0
C2117 C 0.02518 0.71825 0.65783 0.0
C2118 C 0.05405 0.74606 0.64543 0.0
C2119 C 0.06122 0.73593 0.63463 0.0
H2120 H 0.03137 0.74587 0.66408 0.0
H2121 H 0.06198 0.76083 0.64454 0.0
S2122 S 0.03786 0.68541 0.63344 0.0
N2123 N 0.02298 0.6894 0.64826 0.0
N2124 N 0.05598 0.70567 0.62646 0.0
C2125 C 0.0505 0.71678 0.63653 0.0
C2126 C 0.03253 0.70794 0.64825 0.0
C2127 C 0.96255 0.61811 0.71088 0.0
C2128 C 0.97545 0.62855 0.69074 0.0
C2129 C 0.96208 0.60298 0.72275 0.0
C2130 C 0.97453 0.59766 0.71514 0.0
H2131 H 0.95286 0.62176 0.71791 0.0
H2132 H 0.95218 0.59569 0.73863 0.0
S2133 S 0.01039 0.61961 0.66243 0.0
N2134 N 1.00059 0.63195 0.66297 0.0
N2135 N 0.99958 0.60345 0.68538 0.0
C2136 C 0.98724 0.60767 0.69466 0.0
C2137 C 0.98769 0.62308 0.6824 0.0
C2138 C 0.38647 0.35722 0.7124 0.0
C2139 C 0.39393 0.35102 0.69301 0.0
C2140 C 0.39724 0.37461 0.7241 0.0
C2141 C 0.41577 0.3865 0.71654 0.0
H2142 H 0.37267 0.34814 0.71998 0.0
H2143 H 0.39137 0.37825 0.74044 0.0
S2144 S 0.44028 0.3781 0.66225 0.0
N2145 N 0.41995 0.35893 0.66396 0.0
N2146 N 0.43995 0.39188 0.68512 0.0
C2147 C 0.42273 0.38104 0.69529 0.0
C2148 C 0.41188 0.36324 0.68374 0.0
C2149 C 0.626 0.0372 0.69594 0.0
C2150 C 0.6363 0.02859 0.69454 0.0
C2151 C 0.60838 0.02839 0.70737 0.0
C2152 C 0.60029 0.0106 0.71786 0.0
H2153 H 0.63182 0.05112 0.68897 0.0
H2154 H 0.60123 0.03578 0.70872 0.0
S2155 S 0.62079 0.9815 0.71778 0.0
N2156 N 0.63647 1.00068 0.70325 0.0
N2157 N 0.60352 0.98434 0.72516 0.0
C2158 C 0.60999 0.00147 0.71547 0.0
C2159 C 0.62794 0.01041 0.70372 0.0
loop_
_geom_bond_atom_site_label_1
_geom_bond_atom_site_label_2
_geom_bond_distance
_geom_bond_site_symmetry_2
_ccdc_geom_bond_type
Zn0 O3 2.031 1_554 S
Zn0 O5 2.049 . S
Zn0 O10 2.067 1_554 S
Zn1 O2 1.962 1_455 S
Zn1 O4 1.986 . S
Zn1 O6 1.996 1_455 S
Zn1 O9 1.943 1_554 S
O2 Zn1 1.962 1_655 S
O2 C7 1.274 . S
O3 Zn0 2.031 1_556 S
O3 C7 1.259 1_556 S
O4 Zn1 1.986 . S
O4 C11 1.262 . S
O5 Zn0 2.049 . S
O5 C13 1.260 . S
O6 Zn1 1.996 1_655 S
O6 C13 1.257 . S
C7 O2 1.274 . S
C7 O3 1.259 1_554 S
C8 O9 1.249 . S
C8 O10 1.270 1_455 S
O9 Zn1 1.943 1_556 S
O9 C8 1.249 . S
O10 Zn0 2.067 1_556 S
O10 C8 1.270 1_655 S
C11 O4 1.262 . S
C11 O12 1.232 . S
O12 C11 1.232 . S
C13 O5 1.260 . S
C13 O6 1.257 . S
Zn14 O17 2.031 1_554 S
Zn14 O19 2.049 . S
Zn14 O24 2.067 1_554 S
Zn15 O16 1.962 . S
Zn15 O18 1.986 . S
Zn15 O20 1.996 . S
Zn15 O23 1.943 1_554 S
O16 Zn15 1.962 . S
O16 C21 1.254 . S
O17 Zn14 2.031 1_556 S
O17 C21 1.269 1_556 S
O18 Zn15 1.986 . S
O18 C25 1.262 . S
O19 Zn14 2.049 . S
O19 C27 1.260 . S
O20 Zn15 1.996 . S
O20 C27 1.257 . S
C21 O16 1.254 . S
C21 O17 1.269 1_554 S
C22 O23 1.249 . S
C22 O24 1.270 . S
O23 Zn15 1.943 1_556 S
O23 C22 1.249 . S
O24 Zn14 2.067 1_556 S
O24 C22 1.270 . S
C25 O18 1.262 . S
C25 O26 1.232 . S
O26 C25 1.232 . S
C27 O19 1.260 . S
C27 O20 1.257 . S
Zn28 O31 2.031 . S
Zn28 O33 2.049 1_554 S
Zn28 O38 2.067 . S
Zn29 O30 1.962 1_545 S
Zn29 O32 1.986 1_554 S
Zn29 O34 1.996 1_544 S
Zn29 O37 1.943 . S
O30 Zn29 1.962 1_565 S
O30 C35 1.254 . S
O31 Zn28 2.031 . S
O31 C35 1.269 . S
O32 Zn29 1.986 1_556 S
O32 C39 1.261 . S
O33 Zn28 2.049 1_556 S
O33 C41 1.260 . S
O34 Zn29 1.996 1_566 S
O34 C41 1.257 . S
C35 O30 1.254 . S
C35 O31 1.269 . S
C36 O37 1.249 . S
C36 O38 1.270 1_545 S
O37 Zn29 1.943 . S
O37 C36 1.249 . S
O38 Zn28 2.067 . S
O38 C36 1.270 1_565 S
C39 O32 1.261 . S
C39 O40 1.233 1_556 S
O40 C39 1.233 1_554 S
C41 O33 1.260 . S
C41 O34 1.257 . S
Zn42 O45 2.031 . S
Zn42 O47 2.049 1_554 S
Zn42 O52 2.067 . S
Zn43 O44 1.962 1_655 S
Zn43 O46 1.986 1_554 S
Zn43 O48 1.996 1_654 S
Zn43 O51 1.943 . S
O44 Zn43 1.962 1_455 S
O44 C49 1.254 . S
O45 Zn42 2.031 . S
O45 C49 1.269 . S
O46 Zn43 1.986 1_556 S
O46 C53 1.238 1_556 S
O47 Zn42 2.049 1_556 S
O47 C55 1.260 . S
O48 Zn43 1.996 1_456 S
O48 C55 1.257 . S
C49 O44 1.254 . S
C49 O45 1.269 . S
C50 O51 1.249 . S
C50 O52 1.270 1_655 S
O51 Zn43 1.943 . S
O51 C50 1.249 . S
O52 Zn42 2.067 . S
O52 C50 1.270 1_455 S
C53 O46 1.238 1_554 S
C53 O54 1.266 . S
O54 C53 1.266 . S
C55 O47 1.260 . S
C55 O48 1.257 . S
Zn56 O59 2.031 . S
Zn56 O61 2.049 1_554 S
Zn56 O66 2.067 . S
Zn57 O58 1.962 . S
Zn57 O60 1.986 1_554 S
Zn57 O62 1.996 1_554 S
Zn57 O65 1.943 . S
O58 Zn57 1.962 . S
O58 C63 1.254 . S
O59 Zn56 2.031 . S
O59 C63 1.269 . S
O60 Zn57 1.986 1_556 S
O60 C67 1.262 1_556 S
O61 Zn56 2.049 1_556 S
O61 C69 1.260 . S
O62 Zn57 1.996 1_556 S
O62 C69 1.257 . S
C63 O58 1.254 . S
C63 O59 1.269 . S
C64 O65 1.249 . S
C64 O66 1.270 . S
O65 Zn57 1.943 . S
O65 C64 1.249 . S
O66 Zn56 2.067 . S
O66 C64 1.270 . S
C67 O60 1.262 1_554 S
C67 O68 1.232 . S
O68 C67 1.232 . S
C69 O61 1.260 . S
C69 O62 1.257 . S
Zn70 O73 2.031 1_554 S
Zn70 O75 2.049 . S
Zn70 O80 2.067 1_554 S
Zn71 O72 1.962 1_565 S
Zn71 O74 1.986 . S
Zn71 O76 1.996 1_565 S
Zn71 O79 1.943 1_554 S
O72 Zn71 1.962 1_545 S
O72 C77 1.254 . S
O73 Zn70 2.031 1_556 S
O73 C77 1.269 1_556 S
O74 Zn71 1.986 . S
O74 C81 1.262 . S
O75 Zn70 2.049 . S
O75 C83 1.260 . S
O76 Zn71 1.996 1_545 S
O76 C83 1.257 . S
C77 O72 1.254 . S
C77 O73 1.269 1_554 S
C78 O79 1.249 . S
C78 O80 1.270 1_565 S
O79 Zn71 1.943 1_556 S
O79 C78 1.249 . S
O80 Zn70 2.067 1_556 S
O80 C78 1.270 1_545 S
C81 O74 1.262 . S
C81 O82 1.232 . S
O82 C81 1.232 . S
C83 O75 1.260 . S
C83 O76 1.257 . S
Zn84 O87 2.031 . S
Zn84 O89 2.049 . S
Zn84 O94 2.067 . S
Zn85 O86 1.962 . S
Zn85 O88 1.986 . S
Zn85 O90 1.996 . S
Zn85 O93 1.943 . S
O86 Zn85 1.962 . S
O86 C91 1.254 . S
O87 Zn84 2.031 . S
O87 C91 1.269 . S
O88 Zn85 1.986 . S
O88 C95 1.262 . S
O89 Zn84 2.049 . S
O89 C97 1.260 . S
O90 Zn85 1.996 . S
O90 C97 1.257 . S
C91 O86 1.254 . S
C91 O87 1.269 . S
C92 O93 1.249 . S
C92 O94 1.270 . S
O93 Zn85 1.943 . S
O93 C92 1.249 . S
O94 Zn84 2.067 . S
O94 C92 1.270 . S
C95 O88 1.262 . S
C95 O96 1.232 . S
O96 C95 1.232 . S
C97 O89 1.260 . S
C97 O90 1.257 . S
Zn98 O101 2.031 . S
Zn98 O103 2.049 . S
Zn98 O108 2.067 . S
Zn99 O100 1.962 . S
Zn99 O102 1.986 . S
Zn99 O104 1.996 . S
Zn99 O107 1.943 . S
O100 Zn99 1.962 . S
O100 C105 1.254 . S
O101 Zn98 2.031 . S
O101 C105 1.269 . S
O102 Zn99 1.986 . S
O102 C109 1.262 1_565 S
O103 Zn98 2.049 . S
O103 C111 1.260 . S
O104 Zn99 1.996 . S
O104 C111 1.257 . S
C105 O100 1.254 . S
C105 O101 1.269 . S
C106 O107 1.249 . S
C106 O108 1.270 . S
O107 Zn99 1.943 . S
O107 C106 1.249 . S
O108 Zn98 2.067 . S
O108 C106 1.270 . S
C109 O102 1.262 1_545 S
C109 O110 1.232 . S
O110 C109 1.232 . S
C111 O103 1.260 . S
C111 O104 1.257 . S
Zn112 O115 2.031 . S
Zn112 O117 2.049 . S
Zn112 O122 2.067 . S
Zn113 O114 1.962 . S
Zn113 O116 1.986 . S
Zn113 O118 1.996 . S
Zn113 O121 1.943 . S
O114 Zn113 1.962 . S
O114 C119 1.256 . S
O115 Zn112 2.031 . S
O115 C119 1.262 . S
O116 Zn113 1.986 . S
O116 C123 1.262 . S
O117 Zn112 2.049 . S
O117 C125 1.260 . S
O118 Zn113 1.996 . S
O118 C125 1.257 . S
C119 O114 1.256 . S
C119 O115 1.262 . S
C120 O121 1.249 . S
C120 O122 1.270 . S
O121 Zn113 1.943 . S
O121 C120 1.249 . S
O122 Zn112 2.067 . S
O122 C120 1.270 . S
C123 O116 1.262 . S
C123 O124 1.232 . S
O124 C123 1.232 . S
C125 O117 1.260 . S
C125 O118 1.257 . S
Zn126 O129 2.031 . S
Zn126 O131 2.049 . S
Zn126 O136 2.067 . S
Zn127 O128 1.935 1_565 S
Zn127 O130 1.986 . S
Zn127 O132 1.996 . S
Zn127 O135 1.943 . S
O128 Zn127 1.935 1_545 S
O128 C133 1.241 . S
O129 Zn126 2.031 . S
O129 C133 1.269 1_565 S
O130 Zn127 1.986 . S
O130 C137 1.262 . S
O131 Zn126 2.049 . S
O131 C139 1.260 . S
O132 Zn127 1.996 . S
O132 C139 1.257 . S
C133 O128 1.241 . S
C133 O129 1.269 1_545 S
C134 O135 1.249 . S
C134 O136 1.270 . S
O135 Zn127 1.943 . S
O135 C134 1.249 . S
O136 Zn126 2.067 . S
O136 C134 1.270 . S
C137 O130 1.262 . S
C137 O138 1.232 . S
O138 C137 1.232 . S
C139 O131 1.260 . S
C139 O132 1.257 . S
Zn140 O143 2.031 . S
Zn140 O145 2.049 . S
Zn140 O150 2.067 . S
Zn141 O142 1.962 1_455 S
Zn141 O144 1.986 . S
Zn141 O146 1.996 . S
Zn141 O149 1.943 . S
O142 Zn141 1.962 1_655 S
O142 C147 1.254 . S
O143 Zn140 2.031 . S
O143 C147 1.269 1_455 S
O144 Zn141 1.986 . S
O144 C151 1.262 . S
O145 Zn140 2.049 . S
O145 C153 1.260 . S
O146 Zn141 1.996 . S
O146 C153 1.257 . S
C147 O142 1.254 . S
C147 O143 1.269 1_655 S
C148 O149 1.249 . S
C148 O150 1.270 . S
O149 Zn141 1.943 . S
O149 C148 1.249 . S
O150 Zn140 2.067 . S
O150 C148 1.270 . S
C151 O144 1.262 . S
C151 O152 1.232 . S
O152 C151 1.232 . S
C153 O145 1.260 . S
C153 O146 1.257 . S
Zn154 O157 2.031 . S
Zn154 O159 2.049 . S
Zn154 O164 2.067 . S
Zn155 O156 1.962 . S
Zn155 O158 1.986 . S
Zn155 O160 1.996 . S
Zn155 O163 1.943 . S
O156 Zn155 1.962 . S
O156 C161 1.254 . S
O157 Zn154 2.031 . S
O157 C161 1.269 . S
O158 Zn155 1.986 . S
O158 C165 1.262 . S
O159 Zn154 2.049 . S
O159 C167 1.260 . S
O160 Zn155 1.996 . S
O160 C167 1.257 . S
C161 O156 1.254 . S
C161 O157 1.269 . S
C162 O163 1.249 . S
C162 O164 1.270 . S
O163 Zn155 1.943 . S
O163 C162 1.249 . S
O164 Zn154 2.067 . S
O164 C162 1.270 . S
C165 O158 1.262 . S
C165 O166 1.232 . S
O166 C165 1.232 . S
C167 O159 1.260 . S
C167 O160 1.257 . S
Zn168 O171 2.031 . S
Zn168 O173 2.049 . S
Zn168 O178 2.067 . S
Zn169 O170 1.962 . S
Zn169 O172 1.986 . S
Zn169 O174 1.996 . S
Zn169 O177 1.943 . S
O170 Zn169 1.962 . S
O170 C175 1.254 . S
O171 Zn168 2.031 . S
O171 C175 1.269 . S
O172 Zn169 1.986 . S
O172 C179 1.262 . S
O173 Zn168 2.049 . S
O173 C181 1.260 . S
O174 Zn169 1.996 . S
O174 C181 1.257 . S
C175 O170 1.254 . S
C175 O171 1.269 . S
C176 O177 1.249 . S
C176 O178 1.270 . S
O177 Zn169 1.943 . S
O177 C176 1.249 . S
O178 Zn168 2.067 . S
O178 C176 1.270 . S
C179 O172 1.262 . S
C179 O180 1.232 . S
O180 C179 1.232 . S
C181 O173 1.260 . S
C181 O174 1.257 . S
Zn182 O185 2.031 . S
Zn182 O187 2.049 . S
Zn182 O192 2.067 . S
Zn183 O184 1.962 1_655 S
Zn183 O186 1.986 . S
Zn183 O188 1.996 . S
Zn183 O191 1.943 . S
O184 Zn183 1.962 1_455 S
O184 C189 1.254 . S
O185 Zn182 2.031 . S
O185 C189 1.269 1_655 S
O186 Zn183 1.986 . S
O186 C193 1.262 . S
O187 Zn182 2.049 . S
O187 C195 1.260 . S
O188 Zn183 1.996 . S
O188 C195 1.257 . S
C189 O184 1.254 . S
C189 O185 1.269 1_455 S
C190 O191 1.249 . S
C190 O192 1.270 . S
O191 Zn183 1.943 . S
O191 C190 1.249 . S
O192 Zn182 2.067 . S
O192 C190 1.270 . S
C193 O186 1.262 . S
C193 O194 1.232 . S
O194 C193 1.232 . S
C195 O187 1.260 . S
C195 O188 1.257 . S
Zn196 O199 2.031 . S
Zn196 O201 2.049 . S
Zn196 O206 2.067 . S
Zn197 O198 1.962 . S
Zn197 O200 1.986 . S
Zn197 O202 1.996 . S
Zn197 O205 1.943 . S
O198 Zn197 1.962 . S
O198 C203 1.254 . S
O199 Zn196 2.031 . S
O199 C203 1.269 . S
O200 Zn197 1.986 . S
O200 C207 1.262 . S
O201 Zn196 2.049 . S
O201 C209 1.260 . S
O202 Zn197 1.996 . S
O202 C209 1.257 . S
C203 O198 1.254 . S
C203 O199 1.269 . S
C204 O205 1.249 . S
C204 O206 1.270 . S
O205 Zn197 1.943 . S
O205 C204 1.249 . S
O206 Zn196 2.067 . S
O206 C204 1.270 . S
C207 O200 1.262 . S
C207 O208 1.232 . S
O208 C207 1.232 . S
C209 O201 1.260 . S
C209 O202 1.257 . S
Zn210 O213 2.031 . S
Zn210 O215 2.049 . S
Zn210 O220 2.067 . S
Zn211 O212 1.962 . S
Zn211 O214 1.986 . S
Zn211 O216 1.996 . S
Zn211 O219 1.943 . S
O212 Zn211 1.962 . S
O212 C217 1.254 . S
O213 Zn210 2.031 . S
O213 C217 1.269 . S
O214 Zn211 1.986 . S
O214 C221 1.262 . S
O215 Zn210 2.049 . S
O215 C223 1.260 . S
O216 Zn211 1.996 . S
O216 C223 1.257 . S
C217 O212 1.254 . S
C217 O213 1.269 . S
C218 O219 1.249 . S
C218 O220 1.270 . S
O219 Zn211 1.943 . S
O219 C218 1.249 . S
O220 Zn210 2.067 . S
O220 C218 1.270 . S
C221 O214 1.262 . S
C221 O222 1.232 . S
O222 C221 1.232 . S
C223 O215 1.260 . S
C223 O216 1.257 . S
Zn224 O227 2.031 . S
Zn224 O229 2.049 . S
Zn224 O234 2.067 . S
Zn225 O226 1.962 . S
Zn225 O228 1.986 . S
Zn225 O230 1.996 . S
Zn225 O233 1.943 . S
O226 Zn225 1.962 . S
O226 C231 1.254 . S
O227 Zn224 2.031 . S
O227 C231 1.269 . S
O228 Zn225 1.986 . S
O228 C235 1.262 1_545 S
O229 Zn224 2.049 . S
O229 C237 1.260 . S
O230 Zn225 1.996 . S
O230 C237 1.257 . S
C231 O226 1.254 . S
C231 O227 1.269 . S
C232 O233 1.249 . S
C232 O234 1.270 . S
O233 Zn225 1.943 . S
O233 C232 1.249 . S
O234 Zn224 2.067 . S
O234 C232 1.270 . S
C235 O228 1.262 1_565 S
C235 O236 1.232 . S
O236 C235 1.232 . S
C237 O229 1.260 . S
C237 O230 1.257 . S
Zn238 O241 2.031 . S
Zn238 O243 2.049 . S
Zn238 O248 2.067 . S
Zn239 O240 1.991 . S
Zn239 O242 1.986 . S
Zn239 O244 1.996 . S
Zn239 O247 1.943 . S
O240 Zn239 1.991 . S
O240 C245 1.289 1_655 S
O241 Zn238 2.031 . S
O241 C245 1.220 1_655 S
O242 Zn239 1.986 . S
O242 C249 1.262 . S
O243 Zn238 2.049 . S
O243 C251 1.260 . S
O244 Zn239 1.996 . S
O244 C251 1.257 . S
C245 O240 1.289 1_455 S
C245 O241 1.220 1_455 S
C246 O247 1.249 . S
C246 O248 1.270 . S
O247 Zn239 1.943 . S
O247 C246 1.249 . S
O248 Zn238 2.067 . S
O248 C246 1.270 . S
C249 O242 1.262 . S
C249 O250 1.232 . S
O250 C249 1.232 . S
C251 O243 1.260 . S
C251 O244 1.257 . S
H252 C279 0.929 . S
N253 C278 1.433 . S
N253 C284 1.435 . S
N253 C290 1.423 . S
H254 C280 0.930 . S
H255 C283 0.931 . S
H256 C282 0.929 . S
H257 C285 0.930 . S
H258 C286 0.932 . S
H259 C289 0.929 . S
H260 C288 0.931 . S
H261 C291 0.929 . S
H262 C295 0.932 . S
H263 C292 0.931 . S
H264 C294 0.929 . S
H265 C297 0.929 . S
H266 C298 0.930 . S
H267 C300 0.929 . S
H268 C301 0.931 . S
H269 C303 0.930 . S
H270 C304 0.932 . S
H271 C306 0.931 . S
H272 C307 0.929 . S
H273 C309 0.929 . S
H274 C310 0.931 . S
H275 C312 0.929 . S
N276 C296 1.433 . S
N276 C302 1.435 . S
N276 C308 1.423 . S
H277 C313 0.932 . S
C278 N253 1.433 . S
C278 C279 1.363 . S
C278 C283 1.370 . S
C279 H252 0.929 . S
C279 C278 1.363 . S
C279 C280 1.385 . S
C280 H254 0.930 . S
C280 C279 1.385 . S
C280 C281 1.357 . S
C281 C280 1.357 . S
C281 C282 1.406 . S
C282 H256 0.929 . S
C282 C281 1.406 . S
C282 C283 1.391 . S
C283 H255 0.931 . S
C283 C278 1.370 . S
C283 C282 1.391 . S
C284 N253 1.435 . S
C284 C285 1.358 . S
C284 C289 1.371 . S
C285 H257 0.930 . S
C285 C284 1.358 . S
C285 C286 1.405 . S
C286 H258 0.932 . S
C286 C285 1.405 . S
C286 C287 1.383 . S
C287 C286 1.383 . S
C287 C288 1.393 . S
C288 H260 0.931 . S
C288 C287 1.393 . S
C288 C289 1.382 . S
C289 H259 0.929 . S
C289 C284 1.371 . S
C289 C288 1.382 . S
C290 N253 1.423 . S
C290 C291 1.362 . S
C290 C295 1.388 . S
C291 H261 0.929 . S
C291 C290 1.362 . S
C291 C292 1.376 . S
C292 H263 0.931 . S
C292 C291 1.376 . S
C292 C293 1.396 . S
C293 C292 1.396 . S
C293 C294 1.348 . S
C293 C311 1.472 . S
C294 H264 0.929 . S
C294 C293 1.348 . S
C294 C295 1.443 . S
C295 H262 0.932 . S
C295 C290 1.388 . S
C295 C294 1.443 . S
C296 N276 1.433 . S
C296 C297 1.363 . S
C296 C301 1.370 . S
C297 H265 0.929 . S
C297 C296 1.363 . S
C297 C298 1.385 . S
C298 H266 0.930 . S
C298 C297 1.385 . S
C298 C299 1.357 . S
C299 C298 1.357 . S
C299 C300 1.406 . S
C300 H267 0.929 . S
C300 C299 1.406 . S
C300 C301 1.391 . S
C301 H268 0.931 . S
C301 C296 1.370 . S
C301 C300 1.391 . S
C302 N276 1.435 . S
C302 C303 1.358 . S
C302 C307 1.371 . S
C303 H269 0.930 . S
C303 C302 1.358 . S
C303 C304 1.405 . S
C304 H270 0.932 . S
C304 C303 1.405 . S
C304 C305 1.383 . S
C305 C304 1.383 . S
C305 C306 1.393 . S
C306 H271 0.931 . S
C306 C305 1.393 . S
C306 C307 1.382 . S
C307 H272 0.929 . S
C307 C302 1.371 . S
C307 C306 1.382 . S
C308 N276 1.423 . S
C308 C309 1.362 . S
C308 C313 1.388 . S
C309 H273 0.929 . S
C309 C308 1.362 . S
C309 C310 1.376 . S
C310 H274 0.931 . S
C310 C309 1.376 . S
C310 C311 1.396 . S
C311 C293 1.472 . S
C311 C310 1.396 . S
C311 C312 1.348 . S
C312 H275 0.929 . S
C312 C311 1.348 . S
C312 C313 1.443 . S
C313 H277 0.932 . S
C313 C308 1.388 . S
C313 C312 1.443 . S
H314 C341 0.929 . S
N315 C340 1.433 . S
N315 C346 1.435 . S
N315 C352 1.423 . S
H316 C342 0.930 . S
H317 C345 0.931 . S
H318 C344 0.929 . S
H319 C347 0.930 . S
H320 C348 0.932 . S
H321 C351 0.929 . S
H322 C350 0.931 . S
H323 C353 0.929 . S
H324 C357 0.932 . S
H325 C354 0.931 . S
H326 C356 0.929 . S
H327 C359 0.929 . S
H328 C360 0.930 . S
H329 C362 0.929 . S
H330 C363 0.931 . S
H331 C365 0.930 . S
H332 C366 0.932 . S
H333 C368 0.931 . S
H334 C369 0.929 . S
H335 C371 0.929 . S
H336 C372 0.931 . S
H337 C374 0.929 . S
N338 C358 1.433 . S
N338 C364 1.435 . S
N338 C370 1.423 . S
H339 C375 0.932 . S
C340 N315 1.433 . S
C340 C341 1.363 . S
C340 C345 1.370 . S
C341 H314 0.929 . S
C341 C340 1.363 . S
C341 C342 1.385 . S
C342 H316 0.930 . S
C342 C341 1.385 . S
C342 C343 1.357 . S
C343 C342 1.357 . S
C343 C344 1.406 . S
C344 H318 0.929 . S
C344 C343 1.406 . S
C344 C345 1.391 . S
C345 H317 0.931 . S
C345 C340 1.370 . S
C345 C344 1.391 . S
C346 N315 1.435 . S
C346 C347 1.358 . S
C346 C351 1.371 . S
C347 H319 0.930 . S
C347 C346 1.358 . S
C347 C348 1.405 . S
C348 H320 0.932 . S
C348 C347 1.405 . S
C348 C349 1.383 . S
C349 C348 1.383 . S
C349 C350 1.393 . S
C350 H322 0.931 . S
C350 C349 1.393 . S
C350 C351 1.382 . S
C351 H321 0.929 . S
C351 C346 1.371 . S
C351 C350 1.382 . S
C352 N315 1.423 . S
C352 C353 1.362 . S
C352 C357 1.388 . S
C353 H323 0.929 . S
C353 C352 1.362 . S
C353 C354 1.376 . S
C354 H325 0.931 . S
C354 C353 1.376 . S
C354 C355 1.396 . S
C355 C354 1.396 . S
C355 C356 1.348 . S
C355 C373 1.472 . S
C356 H326 0.929 . S
C356 C355 1.348 . S
C356 C357 1.443 . S
C357 H324 0.932 . S
C357 C352 1.388 . S
C357 C356 1.443 . S
C358 N338 1.433 . S
C358 C359 1.363 . S
C358 C363 1.370 . S
C359 H327 0.929 . S
C359 C358 1.363 . S
C359 C360 1.385 . S
C360 H328 0.930 . S
C360 C359 1.385 . S
C360 C361 1.357 . S
C361 C360 1.357 . S
C361 C362 1.406 . S
C362 H329 0.929 . S
C362 C361 1.406 . S
C362 C363 1.391 . S
C363 H330 0.931 . S
C363 C358 1.370 . S
C363 C362 1.391 . S
C364 N338 1.435 . S
C364 C365 1.358 . S
C364 C369 1.371 . S
C365 H331 0.930 . S
C365 C364 1.358 . S
C365 C366 1.405 . S
C366 H332 0.932 . S
C366 C365 1.405 . S
C366 C367 1.383 . S
C367 C366 1.383 . S
C367 C368 1.393 . S
C368 H333 0.931 . S
C368 C367 1.393 . S
C368 C369 1.382 . S
C369 H334 0.929 . S
C369 C364 1.371 . S
C369 C368 1.382 . S
C370 N338 1.423 . S
C370 C371 1.362 . S
C370 C375 1.388 . S
C371 H335 0.929 . S
C371 C370 1.362 . S
C371 C372 1.376 . S
C372 H336 0.931 . S
C372 C371 1.376 . S
C372 C373 1.396 . S
C373 C355 1.472 . S
C373 C372 1.396 . S
C373 C374 1.348 . S
C374 H337 0.929 . S
C374 C373 1.348 . S
C374 C375 1.443 . S
C375 H339 0.932 . S
C375 C370 1.388 . S
C375 C374 1.443 . S
H376 C403 0.929 . S
N377 C402 1.433 . S
N377 C408 1.435 . S
N377 C414 1.423 . S
H378 C404 0.930 . S
H379 C407 0.931 . S
H380 C406 0.929 . S
H381 C409 0.930 . S
H382 C410 0.932 . S
H383 C413 0.929 . S
H384 C412 0.931 . S
H385 C415 0.929 . S
H386 C419 0.932 . S
H387 C416 0.931 . S
H388 C418 0.929 . S
H389 C421 0.929 . S
H390 C422 0.930 . S
H391 C424 0.929 . S
H392 C425 0.931 . S
H393 C427 0.930 . S
H394 C428 0.932 . S
H395 C430 0.931 . S
H396 C431 0.929 . S
H397 C433 0.929 . S
H398 C434 0.931 . S
H399 C436 0.929 . S
N400 C420 1.433 . S
N400 C426 1.435 . S
N400 C432 1.423 . S
H401 C437 0.932 . S
C402 N377 1.433 . S
C402 C403 1.363 . S
C402 C407 1.370 . S
C403 H376 0.929 . S
C403 C402 1.363 . S
C403 C404 1.385 . S
C404 H378 0.930 . S
C404 C403 1.385 . S
C404 C405 1.357 . S
C405 C404 1.357 . S
C405 C406 1.406 . S
C406 H380 0.929 . S
C406 C405 1.406 . S
C406 C407 1.391 . S
C407 H379 0.931 . S
C407 C402 1.370 . S
C407 C406 1.391 . S
C408 N377 1.435 . S
C408 C409 1.358 . S
C408 C413 1.371 . S
C409 H381 0.930 . S
C409 C408 1.358 . S
C409 C410 1.405 . S
C410 H382 0.932 . S
C410 C409 1.405 . S
C410 C411 1.383 . S
C411 C410 1.383 . S
C411 C412 1.393 . S
C412 H384 0.931 . S
C412 C411 1.393 . S
C412 C413 1.382 . S
C413 H383 0.929 . S
C413 C408 1.371 . S
C413 C412 1.382 . S
C414 N377 1.423 . S
C414 C415 1.362 . S
C414 C419 1.388 . S
C415 H385 0.929 . S
C415 C414 1.362 . S
C415 C416 1.376 . S
C416 H387 0.931 . S
C416 C415 1.376 . S
C416 C417 1.396 . S
C417 C416 1.396 . S
C417 C418 1.348 . S
C417 C435 1.472 . S
C418 H388 0.929 . S
C418 C417 1.348 . S
C418 C419 1.443 . S
C419 H386 0.932 . S
C419 C414 1.388 . S
C419 C418 1.443 . S
C420 N400 1.433 . S
C420 C421 1.363 . S
C420 C425 1.370 . S
C421 H389 0.929 . S
C421 C420 1.363 . S
C421 C422 1.385 . S
C422 H390 0.930 . S
C422 C421 1.385 . S
C422 C423 1.357 . S
C423 C422 1.357 . S
C423 C424 1.406 . S
C424 H391 0.929 . S
C424 C423 1.406 . S
C424 C425 1.391 . S
C425 H392 0.931 . S
C425 C420 1.370 . S
C425 C424 1.391 . S
C426 N400 1.435 . S
C426 C427 1.358 . S
C426 C431 1.371 . S
C427 H393 0.930 . S
C427 C426 1.358 . S
C427 C428 1.405 . S
C428 H394 0.932 . S
C428 C427 1.405 . S
C428 C429 1.383 . S
C429 C428 1.383 . S
C429 C430 1.393 . S
C430 H395 0.931 . S
C430 C429 1.393 . S
C430 C431 1.382 . S
C431 H396 0.929 . S
C431 C426 1.371 . S
C431 C430 1.382 . S
C432 N400 1.423 . S
C432 C433 1.362 . S
C432 C437 1.388 . S
C433 H397 0.929 . S
C433 C432 1.362 . S
C433 C434 1.376 . S
C434 H398 0.931 . S
C434 C433 1.376 . S
C434 C435 1.396 . S
C435 C417 1.472 . S
C435 C434 1.396 . S
C435 C436 1.348 . S
C436 H399 0.929 . S
C436 C435 1.348 . S
C436 C437 1.443 . S
C437 H401 0.932 . S
C437 C432 1.388 . S
C437 C436 1.443 . S
H438 C465 0.929 . S
N439 C464 1.433 . S
N439 C470 1.435 . S
N439 C476 1.423 . S
H440 C466 0.930 . S
H441 C469 0.931 . S
H442 C468 0.929 . S
H443 C471 0.930 . S
H444 C472 0.932 . S
H445 C475 0.929 . S
H446 C474 0.931 . S
H447 C477 0.929 . S
H448 C481 0.932 . S
H449 C478 0.931 . S
H450 C480 0.929 . S
H451 C483 0.929 . S
H452 C484 0.930 . S
H453 C486 0.929 . S
H454 C487 0.931 . S
H455 C489 0.930 . S
H456 C490 0.932 . S
H457 C492 0.931 . S
H458 C493 0.929 . S
H459 C495 0.929 . S
H460 C496 0.931 . S
H461 C498 0.929 . S
N462 C482 1.433 . S
N462 C488 1.435 . S
N462 C494 1.423 . S
H463 C499 0.932 . S
C464 N439 1.433 . S
C464 C465 1.363 . S
C464 C469 1.370 . S
C465 H438 0.929 . S
C465 C464 1.363 . S
C465 C466 1.385 . S
C466 H440 0.930 . S
C466 C465 1.385 . S
C466 C467 1.357 . S
C467 C466 1.357 . S
C467 C468 1.406 . S
C468 H442 0.929 . S
C468 C467 1.406 . S
C468 C469 1.391 . S
C469 H441 0.931 . S
C469 C464 1.370 . S
C469 C468 1.391 . S
C470 N439 1.435 . S
C470 C471 1.358 . S
C470 C475 1.371 . S
C471 H443 0.930 . S
C471 C470 1.358 . S
C471 C472 1.405 . S
C472 H444 0.932 . S
C472 C471 1.405 . S
C472 C473 1.383 . S
C473 C472 1.383 . S
C473 C474 1.393 . S
C474 H446 0.931 . S
C474 C473 1.393 . S
C474 C475 1.382 . S
C475 H445 0.929 . S
C475 C470 1.371 . S
C475 C474 1.382 . S
C476 N439 1.423 . S
C476 C477 1.362 . S
C476 C481 1.388 . S
C477 H447 0.929 . S
C477 C476 1.362 . S
C477 C478 1.376 . S
C478 H449 0.931 . S
C478 C477 1.376 . S
C478 C479 1.396 . S
C479 C478 1.396 . S
C479 C480 1.348 . S
C479 C497 1.472 . S
C480 H450 0.929 . S
C480 C479 1.348 . S
C480 C481 1.443 . S
C481 H448 0.932 . S
C481 C476 1.388 . S
C481 C480 1.443 . S
C482 N462 1.433 . S
C482 C483 1.363 . S
C482 C487 1.370 . S
C483 H451 0.929 . S
C483 C482 1.363 . S
C483 C484 1.385 . S
C484 H452 0.930 . S
C484 C483 1.385 . S
C484 C485 1.357 . S
C485 C484 1.357 . S
C485 C486 1.406 . S
C486 H453 0.929 . S
C486 C485 1.406 . S
C486 C487 1.391 . S
C487 H454 0.931 . S
C487 C482 1.370 . S
C487 C486 1.391 . S
C488 N462 1.435 . S
C488 C489 1.358 . S
C488 C493 1.371 . S
C489 H455 0.930 . S
C489 C488 1.358 . S
C489 C490 1.405 . S
C490 H456 0.932 . S
C490 C489 1.405 . S
C490 C491 1.383 . S
C491 C490 1.383 . S
C491 C492 1.393 . S
C492 H457 0.931 . S
C492 C491 1.393 . S
C492 C493 1.382 . S
C493 H458 0.929 . S
C493 C488 1.371 . S
C493 C492 1.382 . S
C494 N462 1.423 . S
C494 C495 1.362 . S
C494 C499 1.388 . S
C495 H459 0.929 . S
C495 C494 1.362 . S
C495 C496 1.376 . S
C496 H460 0.931 . S
C496 C495 1.376 . S
C496 C497 1.396 . S
C497 C479 1.472 . S
C497 C496 1.396 . S
C497 C498 1.348 . S
C498 H461 0.929 . S
C498 C497 1.348 . S
C498 C499 1.443 . S
C499 H463 0.932 . S
C499 C494 1.388 . S
C499 C498 1.443 . S
H500 C527 0.929 . S
N501 C526 1.433 . S
N501 C532 1.435 . S
N501 C538 1.423 . S
H502 C528 0.930 . S
H503 C531 0.931 . S
H504 C530 0.929 . S
H505 C533 0.930 . S
H506 C534 0.932 . S
H507 C537 0.929 . S
H508 C536 0.931 . S
H509 C539 0.929 . S
H510 C543 0.932 . S
H511 C540 0.931 . S
H512 C542 0.929 . S
H513 C545 0.929 . S
H514 C546 0.930 . S
H515 C548 0.929 . S
H516 C549 0.931 . S
H517 C551 0.930 . S
H518 C552 0.932 . S
H519 C554 0.931 . S
H520 C555 0.929 . S
H521 C557 0.929 . S
H522 C558 0.931 . S
H523 C560 0.929 . S
N524 C544 1.433 . S
N524 C550 1.435 . S
N524 C556 1.423 . S
H525 C561 0.932 . S
C526 N501 1.433 . S
C526 C527 1.363 . S
C526 C531 1.370 . S
C527 H500 0.929 . S
C527 C526 1.363 . S
C527 C528 1.385 . S
C528 H502 0.930 . S
C528 C527 1.385 . S
C528 C529 1.357 . S
C529 C528 1.357 . S
C529 C530 1.406 . S
C530 H504 0.929 . S
C530 C529 1.406 . S
C530 C531 1.391 . S
C531 H503 0.931 . S
C531 C526 1.370 . S
C531 C530 1.391 . S
C532 N501 1.435 . S
C532 C533 1.358 . S
C532 C537 1.371 . S
C533 H505 0.930 . S
C533 C532 1.358 . S
C533 C534 1.405 . S
C534 H506 0.932 . S
C534 C533 1.405 . S
C534 C535 1.383 . S
C535 C534 1.383 . S
C535 C536 1.393 . S
C536 H508 0.931 . S
C536 C535 1.393 . S
C536 C537 1.382 . S
C537 H507 0.929 . S
C537 C532 1.371 . S
C537 C536 1.382 . S
C538 N501 1.423 . S
C538 C539 1.362 . S
C538 C543 1.388 . S
C539 H509 0.929 . S
C539 C538 1.362 . S
C539 C540 1.376 . S
C540 H511 0.931 . S
C540 C539 1.376 . S
C540 C541 1.396 . S
C541 C540 1.396 . S
C541 C542 1.348 . S
C541 C559 1.472 . S
C542 H512 0.929 . S
C542 C541 1.348 . S
C542 C543 1.443 . S
C543 H510 0.932 . S
C543 C538 1.388 . S
C543 C542 1.443 . S
C544 N524 1.433 . S
C544 C545 1.363 . S
C544 C549 1.370 . S
C545 H513 0.929 . S
C545 C544 1.363 . S
C545 C546 1.385 . S
C546 H514 0.930 . S
C546 C545 1.385 . S
C546 C547 1.357 . S
C547 C546 1.357 . S
C547 C548 1.406 . S
C548 H515 0.929 . S
C548 C547 1.406 . S
C548 C549 1.391 . S
C549 H516 0.931 . S
C549 C544 1.370 . S
C549 C548 1.391 . S
C550 N524 1.435 . S
C550 C551 1.358 . S
C550 C555 1.371 . S
C551 H517 0.930 . S
C551 C550 1.358 . S
C551 C552 1.405 . S
C552 H518 0.932 . S
C552 C551 1.405 . S
C552 C553 1.383 . S
C553 C552 1.383 . S
C553 C554 1.393 . S
C554 H519 0.931 . S
C554 C553 1.393 . S
C554 C555 1.382 . S
C555 H520 0.929 . S
C555 C550 1.371 . S
C555 C554 1.382 . S
C556 N524 1.423 . S
C556 C557 1.362 . S
C556 C561 1.388 . S
C557 H521 0.929 . S
C557 C556 1.362 . S
C557 C558 1.376 . S
C558 H522 0.931 . S
C558 C557 1.376 . S
C558 C559 1.396 . S
C559 C541 1.472 . S
C559 C558 1.396 . S
C559 C560 1.348 . S
C560 H523 0.929 . S
C560 C559 1.348 . S
C560 C561 1.443 . S
C561 H525 0.932 . S
C561 C556 1.388 . S
C561 C560 1.443 . S
H562 C589 0.929 . S
N563 C588 1.433 . S
N563 C594 1.435 . S
N563 C600 1.423 . S
H564 C590 0.930 . S
H565 C593 0.931 . S
H566 C592 0.929 . S
H567 C595 0.930 . S
H568 C596 0.932 . S
H569 C599 0.929 . S
H570 C598 0.931 . S
H571 C601 0.929 . S
H572 C605 0.932 . S
H573 C602 0.931 . S
H574 C604 0.929 . S
H575 C607 0.929 . S
H576 C608 0.930 . S
H577 C610 0.929 . S
H578 C611 0.931 . S
H579 C613 0.930 . S
H580 C614 0.932 . S
H581 C616 0.931 . S
H582 C617 0.929 . S
H583 C619 0.929 . S
H584 C620 0.931 . S
H585 C622 0.929 . S
N586 C606 1.433 . S
N586 C612 1.435 . S
N586 C618 1.423 . S
H587 C623 0.932 . S
C588 N563 1.433 . S
C588 C589 1.363 . S
C588 C593 1.370 . S
C589 H562 0.929 . S
C589 C588 1.363 . S
C589 C590 1.385 . S
C590 H564 0.930 . S
C590 C589 1.385 . S
C590 C591 1.357 . S
C591 C590 1.357 . S
C591 C592 1.406 . S
C592 H566 0.929 . S
C592 C591 1.406 . S
C592 C593 1.391 . S
C593 H565 0.931 . S
C593 C588 1.370 . S
C593 C592 1.391 . S
C594 N563 1.435 . S
C594 C595 1.358 . S
C594 C599 1.371 . S
C595 H567 0.930 . S
C595 C594 1.358 . S
C595 C596 1.405 . S
C596 H568 0.932 . S
C596 C595 1.405 . S
C596 C597 1.383 . S
C597 C596 1.383 . S
C597 C598 1.393 . S
C598 H570 0.931 . S
C598 C597 1.393 . S
C598 C599 1.382 . S
C599 H569 0.929 . S
C599 C594 1.371 . S
C599 C598 1.382 . S
C600 N563 1.423 . S
C600 C601 1.362 . S
C600 C605 1.388 . S
C601 H571 0.929 . S
C601 C600 1.362 . S
C601 C602 1.376 . S
C602 H573 0.931 . S
C602 C601 1.376 . S
C602 C603 1.396 . S
C603 C602 1.396 . S
C603 C604 1.348 . S
C603 C621 1.472 . S
C604 H574 0.929 . S
C604 C603 1.348 . S
C604 C605 1.443 . S
C605 H572 0.932 . S
C605 C600 1.388 . S
C605 C604 1.443 . S
C606 N586 1.433 . S
C606 C607 1.363 . S
C606 C611 1.370 . S
C607 H575 0.929 . S
C607 C606 1.363 . S
C607 C608 1.385 . S
C608 H576 0.930 . S
C608 C607 1.385 . S
C608 C609 1.357 . S
C609 C608 1.357 . S
C609 C610 1.406 . S
C610 H577 0.929 . S
C610 C609 1.406 . S
C610 C611 1.391 . S
C611 H578 0.931 . S
C611 C606 1.370 . S
C611 C610 1.391 . S
C612 N586 1.435 . S
C612 C613 1.358 . S
C612 C617 1.371 . S
C613 H579 0.930 . S
C613 C612 1.358 . S
C613 C614 1.405 . S
C614 H580 0.932 . S
C614 C613 1.405 . S
C614 C615 1.383 . S
C615 C614 1.383 . S
C615 C616 1.393 . S
C616 H581 0.931 . S
C616 C615 1.393 . S
C616 C617 1.382 . S
C617 H582 0.929 . S
C617 C612 1.371 . S
C617 C616 1.382 . S
C618 N586 1.423 . S
C618 C619 1.362 . S
C618 C623 1.388 . S
C619 H583 0.929 . S
C619 C618 1.362 . S
C619 C620 1.376 . S
C620 H584 0.931 . S
C620 C619 1.376 . S
C620 C621 1.396 . S
C621 C603 1.472 . S
C621 C620 1.396 . S
C621 C622 1.348 . S
C622 H585 0.929 . S
C622 C621 1.348 . S
C622 C623 1.443 . S
C623 H587 0.932 . S
C623 C618 1.388 . S
C623 C622 1.443 . S
H624 C651 0.929 . S
N625 C650 1.433 . S
N625 C656 1.435 . S
N625 C662 1.423 . S
H626 C652 0.930 . S
H627 C655 0.931 . S
H628 C654 0.929 . S
H629 C657 0.930 . S
H630 C658 0.932 . S
H631 C661 0.929 . S
H632 C660 0.931 . S
H633 C663 0.929 . S
H634 C667 0.932 . S
H635 C664 0.931 . S
H636 C666 0.929 . S
H637 C669 0.929 . S
H638 C670 0.930 . S
H639 C672 0.929 . S
H640 C673 0.931 . S
H641 C675 0.930 . S
H642 C676 0.932 . S
H643 C678 0.931 . S
H644 C679 0.929 . S
H645 C681 0.929 . S
H646 C682 0.931 . S
H647 C684 0.929 . S
N648 C668 1.433 . S
N648 C674 1.435 . S
N648 C680 1.423 . S
H649 C685 0.932 . S
C650 N625 1.433 . S
C650 C651 1.363 . S
C650 C655 1.370 . S
C651 H624 0.929 . S
C651 C650 1.363 . S
C651 C652 1.385 . S
C652 H626 0.930 . S
C652 C651 1.385 . S
C652 C653 1.357 . S
C653 C652 1.357 . S
C653 C654 1.406 . S
C654 H628 0.929 . S
C654 C653 1.406 . S
C654 C655 1.391 . S
C655 H627 0.931 . S
C655 C650 1.370 . S
C655 C654 1.391 . S
C656 N625 1.435 . S
C656 C657 1.358 . S
C656 C661 1.371 . S
C657 H629 0.930 . S
C657 C656 1.358 . S
C657 C658 1.405 . S
C658 H630 0.932 . S
C658 C657 1.405 . S
C658 C659 1.383 . S
C659 C658 1.383 . S
C659 C660 1.393 . S
C660 H632 0.931 . S
C660 C659 1.393 . S
C660 C661 1.382 . S
C661 H631 0.929 . S
C661 C656 1.371 . S
C661 C660 1.382 . S
C662 N625 1.423 . S
C662 C663 1.362 . S
C662 C667 1.388 . S
C663 H633 0.929 . S
C663 C662 1.362 . S
C663 C664 1.376 . S
C664 H635 0.931 . S
C664 C663 1.376 . S
C664 C665 1.396 . S
C665 C664 1.396 . S
C665 C666 1.348 . S
C665 C683 1.472 . S
C666 H636 0.929 . S
C666 C665 1.348 . S
C666 C667 1.443 . S
C667 H634 0.932 . S
C667 C662 1.388 . S
C667 C666 1.443 . S
C668 N648 1.433 . S
C668 C669 1.363 . S
C668 C673 1.370 . S
C669 H637 0.929 . S
C669 C668 1.363 . S
C669 C670 1.385 . S
C670 H638 0.930 . S
C670 C669 1.385 . S
C670 C671 1.357 . S
C671 C670 1.357 . S
C671 C672 1.406 . S
C672 H639 0.929 . S
C672 C671 1.406 . S
C672 C673 1.391 . S
C673 H640 0.931 . S
C673 C668 1.370 . S
C673 C672 1.391 . S
C674 N648 1.435 . S
C674 C675 1.358 . S
C674 C679 1.371 . S
C675 H641 0.930 . S
C675 C674 1.358 . S
C675 C676 1.405 . S
C676 H642 0.932 . S
C676 C675 1.405 . S
C676 C677 1.383 . S
C677 C676 1.383 . S
C677 C678 1.393 . S
C678 H643 0.931 . S
C678 C677 1.393 . S
C678 C679 1.382 . S
C679 H644 0.929 . S
C679 C674 1.371 . S
C679 C678 1.382 . S
C680 N648 1.423 . S
C680 C681 1.362 . S
C680 C685 1.388 . S
C681 H645 0.929 . S
C681 C680 1.362 . S
C681 C682 1.376 . S
C682 H646 0.931 . S
C682 C681 1.376 . S
C682 C683 1.396 . S
C683 C665 1.472 . S
C683 C682 1.396 . S
C683 C684 1.348 . S
C684 H647 0.929 . S
C684 C683 1.348 . S
C684 C685 1.443 . S
C685 H649 0.932 . S
C685 C680 1.388 . S
C685 C684 1.443 . S
H686 C713 0.929 . S
N687 C712 1.433 . S
N687 C718 1.435 . S
N687 C724 1.423 . S
H688 C714 0.930 . S
H689 C717 0.931 . S
H690 C716 0.929 . S
H691 C719 0.930 . S
H692 C720 0.932 . S
H693 C723 0.929 . S
H694 C722 0.931 . S
H695 C725 0.929 . S
H696 C729 0.932 . S
H697 C726 0.931 . S
H698 C728 0.929 . S
H699 C731 0.929 . S
H700 C732 0.930 . S
H701 C734 0.929 . S
H702 C735 0.931 . S
H703 C737 0.930 . S
H704 C738 0.932 . S
H705 C740 0.931 . S
H706 C741 0.929 . S
H707 C743 0.929 . S
H708 C744 0.931 . S
H709 C746 0.929 . S
N710 C730 1.433 . S
N710 C736 1.435 . S
N710 C742 1.423 . S
H711 C747 0.932 . S
C712 N687 1.433 . S
C712 C713 1.363 . S
C712 C717 1.370 . S
C713 H686 0.929 . S
C713 C712 1.363 . S
C713 C714 1.385 . S
C714 H688 0.930 . S
C714 C713 1.385 . S
C714 C715 1.357 . S
C715 C714 1.357 . S
C715 C716 1.406 . S
C716 H690 0.929 . S
C716 C715 1.406 . S
C716 C717 1.391 . S
C717 H689 0.931 . S
C717 C712 1.370 . S
C717 C716 1.391 . S
C718 N687 1.435 . S
C718 C719 1.358 . S
C718 C723 1.371 . S
C719 H691 0.930 . S
C719 C718 1.358 . S
C719 C720 1.405 . S
C720 H692 0.932 . S
C720 C719 1.405 . S
C720 C721 1.383 . S
C721 C720 1.383 . S
C721 C722 1.393 . S
C722 H694 0.931 . S
C722 C721 1.393 . S
C722 C723 1.382 . S
C723 H693 0.929 . S
C723 C718 1.371 . S
C723 C722 1.382 . S
C724 N687 1.423 . S
C724 C725 1.362 . S
C724 C729 1.388 . S
C725 H695 0.929 . S
C725 C724 1.362 . S
C725 C726 1.376 . S
C726 H697 0.931 . S
C726 C725 1.376 . S
C726 C727 1.396 . S
C727 C726 1.396 . S
C727 C728 1.348 . S
C727 C745 1.472 . S
C728 H698 0.929 . S
C728 C727 1.348 . S
C728 C729 1.443 . S
C729 H696 0.932 . S
C729 C724 1.388 . S
C729 C728 1.443 . S
C730 N710 1.433 . S
C730 C731 1.363 . S
C730 C735 1.370 . S
C731 H699 0.929 . S
C731 C730 1.363 . S
C731 C732 1.385 . S
C732 H700 0.930 . S
C732 C731 1.385 . S
C732 C733 1.357 . S
C733 C732 1.357 . S
C733 C734 1.406 . S
C734 H701 0.929 . S
C734 C733 1.406 . S
C734 C735 1.391 . S
C735 H702 0.931 . S
C735 C730 1.370 . S
C735 C734 1.391 . S
C736 N710 1.435 . S
C736 C737 1.358 . S
C736 C741 1.371 . S
C737 H703 0.930 . S
C737 C736 1.358 . S
C737 C738 1.405 . S
C738 H704 0.932 . S
C738 C737 1.405 . S
C738 C739 1.383 . S
C739 C738 1.383 . S
C739 C740 1.393 . S
C740 H705 0.931 . S
C740 C739 1.393 . S
C740 C741 1.382 . S
C741 H706 0.929 . S
C741 C736 1.371 . S
C741 C740 1.382 . S
C742 N710 1.423 . S
C742 C743 1.362 . S
C742 C747 1.388 . S
C743 H707 0.929 . S
C743 C742 1.362 . S
C743 C744 1.376 . S
C744 H708 0.931 . S
C744 C743 1.376 . S
C744 C745 1.396 . S
C745 C727 1.472 . S
C745 C744 1.396 . S
C745 C746 1.348 . S
C746 H709 0.929 . S
C746 C745 1.348 . S
C746 C747 1.443 . S
C747 H711 0.932 . S
C747 C742 1.388 . S
C747 C746 1.443 . S
H748 C775 0.929 . S
N749 C774 1.433 . S
N749 C780 1.435 . S
N749 C786 1.423 . S
H750 C776 0.930 . S
H751 C779 0.931 . S
H752 C778 0.929 . S
H753 C781 0.930 . S
H754 C782 0.932 . S
H755 C785 0.929 . S
H756 C784 0.931 . S
H757 C787 0.929 . S
H758 C791 0.932 . S
H759 C788 0.931 . S
H760 C790 0.929 . S
H761 C793 0.929 . S
H762 C794 0.930 . S
H763 C796 0.929 . S
H764 C797 0.931 . S
H765 C799 0.930 . S
H766 C800 0.932 . S
H767 C802 0.931 . S
H768 C803 0.929 . S
H769 C805 0.929 . S
H770 C806 0.931 . S
H771 C808 0.929 . S
N772 C792 1.433 . S
N772 C798 1.435 . S
N772 C804 1.423 . S
H773 C809 0.932 . S
C774 N749 1.433 . S
C774 C775 1.363 . S
C774 C779 1.370 . S
C775 H748 0.929 . S
C775 C774 1.363 . S
C775 C776 1.385 . S
C776 H750 0.930 . S
C776 C775 1.385 . S
C776 C777 1.357 . S
C777 C776 1.357 . S
C777 C778 1.406 . S
C778 H752 0.929 . S
C778 C777 1.406 . S
C778 C779 1.391 . S
C779 H751 0.931 . S
C779 C774 1.370 . S
C779 C778 1.391 . S
C780 N749 1.435 . S
C780 C781 1.358 . S
C780 C785 1.371 . S
C781 H753 0.930 . S
C781 C780 1.358 . S
C781 C782 1.405 . S
C782 H754 0.932 . S
C782 C781 1.405 . S
C782 C783 1.383 . S
C783 C782 1.383 . S
C783 C784 1.393 . S
C784 H756 0.931 . S
C784 C783 1.393 . S
C784 C785 1.382 . S
C785 H755 0.929 . S
C785 C780 1.371 . S
C785 C784 1.382 . S
C786 N749 1.423 . S
C786 C787 1.362 . S
C786 C791 1.388 . S
C787 H757 0.929 . S
C787 C786 1.362 . S
C787 C788 1.376 . S
C788 H759 0.931 . S
C788 C787 1.376 . S
C788 C789 1.396 . S
C789 C788 1.396 . S
C789 C790 1.348 . S
C789 C807 1.472 . S
C790 H760 0.929 . S
C790 C789 1.348 . S
C790 C791 1.443 . S
C791 H758 0.932 . S
C791 C786 1.388 . S
C791 C790 1.443 . S
C792 N772 1.433 . S
C792 C793 1.363 . S
C792 C797 1.370 . S
C793 H761 0.929 . S
C793 C792 1.363 . S
C793 C794 1.385 . S
C794 H762 0.930 . S
C794 C793 1.385 . S
C794 C795 1.357 . S
C795 C794 1.357 . S
C795 C796 1.406 . S
C796 H763 0.929 . S
C796 C795 1.406 . S
C796 C797 1.391 . S
C797 H764 0.931 . S
C797 C792 1.370 . S
C797 C796 1.391 . S
C798 N772 1.435 . S
C798 C799 1.358 . S
C798 C803 1.371 . S
C799 H765 0.930 . S
C799 C798 1.358 . S
C799 C800 1.405 . S
C800 H766 0.932 . S
C800 C799 1.405 . S
C800 C801 1.383 . S
C801 C800 1.383 . S
C801 C802 1.393 . S
C802 H767 0.931 . S
C802 C801 1.393 . S
C802 C803 1.382 . S
C803 H768 0.929 . S
C803 C798 1.371 . S
C803 C802 1.382 . S
C804 N772 1.423 . S
C804 C805 1.362 . S
C804 C809 1.388 . S
C805 H769 0.929 . S
C805 C804 1.362 . S
C805 C806 1.376 . S
C806 H770 0.931 . S
C806 C805 1.376 . S
C806 C807 1.396 . S
C807 C789 1.472 . S
C807 C806 1.396 . S
C807 C808 1.348 . S
C808 H771 0.929 . S
C808 C807 1.348 . S
C808 C809 1.443 . S
C809 H773 0.932 . S
C809 C804 1.388 . S
C809 C808 1.443 . S
H810 C837 0.929 . S
N811 C836 1.433 . S
N811 C842 1.435 . S
N811 C848 1.423 . S
H812 C838 0.930 . S
H813 C841 0.931 . S
H814 C840 0.929 . S
H815 C843 0.930 . S
H816 C844 0.932 . S
H817 C847 0.929 . S
H818 C846 0.931 . S
H819 C849 0.929 . S
H820 C853 0.932 1_655 S
H821 C850 0.931 . S
H822 C852 0.929 . S
H823 C855 0.929 . S
H824 C856 0.930 . S
H825 C858 0.929 . S
H826 C859 0.931 . S
H827 C861 0.930 . S
H828 C862 0.932 . S
H829 C864 0.931 . S
H830 C865 0.929 . S
H831 C867 0.929 . S
H832 C868 0.931 . S
H833 C870 0.929 . S
N834 C854 1.433 . S
N834 C860 1.435 . S
N834 C866 1.423 . S
H835 C871 0.932 1_655 S
C836 N811 1.433 . S
C836 C837 1.363 . S
C836 C841 1.370 1_455 S
C837 H810 0.929 . S
C837 C836 1.363 . S
C837 C838 1.385 . S
C838 H812 0.930 . S
C838 C837 1.385 . S
C838 C839 1.357 1_455 S
C839 C838 1.357 1_655 S
C839 C840 1.406 . S
C840 H814 0.929 . S
C840 C839 1.406 . S
C840 C841 1.391 . S
C841 H813 0.931 . S
C841 C836 1.370 1_655 S
C841 C840 1.391 . S
C842 N811 1.435 . S
C842 C843 1.358 1_455 S
C842 C847 1.371 . S
C843 H815 0.930 . S
C843 C842 1.358 1_655 S
C843 C844 1.405 . S
C844 H816 0.932 . S
C844 C843 1.405 . S
C844 C845 1.383 1_655 S
C845 C844 1.383 1_455 S
C845 C846 1.393 . S
C846 H818 0.931 . S
C846 C845 1.393 . S
C846 C847 1.382 . S
C847 H817 0.929 . S
C847 C842 1.371 . S
C847 C846 1.382 . S
C848 N811 1.423 . S
C848 C849 1.362 . S
C848 C853 1.388 . S
C849 H819 0.929 . S
C849 C848 1.362 . S
C849 C850 1.376 . S
C850 H821 0.931 . S
C850 C849 1.376 . S
C850 C851 1.396 . S
C851 C850 1.396 . S
C851 C852 1.348 . S
C851 C869 1.472 . S
C852 H822 0.929 . S
C852 C851 1.348 . S
C852 C853 1.443 . S
C853 H820 0.932 1_455 S
C853 C848 1.388 . S
C853 C852 1.443 . S
C854 N834 1.433 . S
C854 C855 1.363 . S
C854 C859 1.370 1_455 S
C855 H823 0.929 . S
C855 C854 1.363 . S
C855 C856 1.385 . S
C856 H824 0.930 . S
C856 C855 1.385 . S
C856 C857 1.357 1_455 S
C857 C856 1.357 1_655 S
C857 C858 1.406 . S
C858 H825 0.929 . S
C858 C857 1.406 . S
C858 C859 1.391 . S
C859 H826 0.931 . S
C859 C854 1.370 1_655 S
C859 C858 1.391 . S
C860 N834 1.435 . S
C860 C861 1.358 1_455 S
C860 C865 1.371 . S
C861 H827 0.930 . S
C861 C860 1.358 1_655 S
C861 C862 1.405 . S
C862 H828 0.932 . S
C862 C861 1.405 . S
C862 C863 1.383 1_655 S
C863 C862 1.383 1_455 S
C863 C864 1.393 . S
C864 H829 0.931 . S
C864 C863 1.393 . S
C864 C865 1.382 . S
C865 H830 0.929 . S
C865 C860 1.371 . S
C865 C864 1.382 . S
C866 N834 1.423 . S
C866 C867 1.362 . S
C866 C871 1.388 . S
C867 H831 0.929 . S
C867 C866 1.362 . S
C867 C868 1.376 . S
C868 H832 0.931 . S
C868 C867 1.376 . S
C868 C869 1.396 . S
C869 C851 1.472 . S
C869 C868 1.396 . S
C869 C870 1.348 . S
C870 H833 0.929 . S
C870 C869 1.348 . S
C870 C871 1.443 . S
C871 H835 0.932 1_455 S
C871 C866 1.388 . S
C871 C870 1.443 . S
H872 C899 0.929 . S
N873 C898 1.433 . S
N873 C904 1.435 . S
N873 C910 1.423 . S
H874 C900 0.930 . S
H875 C903 0.931 . S
H876 C902 0.929 . S
H877 C905 0.930 . S
H878 C906 0.932 . S
H879 C909 0.929 . S
H880 C908 0.931 . S
H881 C911 0.929 . S
H882 C915 0.932 . S
H883 C912 0.931 . S
H884 C914 0.929 . S
H885 C917 0.929 . S
H886 C918 0.930 . S
H887 C920 0.929 . S
H888 C921 0.931 . S
H889 C923 0.930 . S
H890 C924 0.932 . S
H891 C926 0.931 . S
H892 C927 0.929 . S
H893 C929 0.929 . S
H894 C930 0.931 . S
H895 C932 0.929 . S
N896 C916 1.433 . S
N896 C922 1.435 . S
N896 C928 1.423 . S
H897 C933 0.932 . S
C898 N873 1.433 . S
C898 C899 1.363 . S
C898 C903 1.370 . S
C899 H872 0.929 . S
C899 C898 1.363 . S
C899 C900 1.385 . S
C900 H874 0.930 . S
C900 C899 1.385 . S
C900 C901 1.357 . S
C901 C900 1.357 . S
C901 C902 1.406 . S
C902 H876 0.929 . S
C902 C901 1.406 . S
C902 C903 1.391 . S
C903 H875 0.931 . S
C903 C898 1.370 . S
C903 C902 1.391 . S
C904 N873 1.435 . S
C904 C905 1.358 . S
C904 C909 1.371 . S
C905 H877 0.930 . S
C905 C904 1.358 . S
C905 C906 1.405 . S
C906 H878 0.932 . S
C906 C905 1.405 . S
C906 C907 1.383 . S
C907 C906 1.383 . S
C907 C908 1.393 . S
C908 H880 0.931 . S
C908 C907 1.393 . S
C908 C909 1.382 . S
C909 H879 0.929 . S
C909 C904 1.371 . S
C909 C908 1.382 . S
C910 N873 1.423 . S
C910 C911 1.362 . S
C910 C915 1.388 . S
C911 H881 0.929 . S
C911 C910 1.362 . S
C911 C912 1.376 . S
C912 H883 0.931 . S
C912 C911 1.376 . S
C912 C913 1.396 . S
C913 C912 1.396 . S
C913 C914 1.348 . S
C913 C931 1.472 . S
C914 H884 0.929 . S
C914 C913 1.348 . S
C914 C915 1.443 . S
C915 H882 0.932 . S
C915 C910 1.388 . S
C915 C914 1.443 . S
C916 N896 1.433 . S
C916 C917 1.363 . S
C916 C921 1.370 . S
C917 H885 0.929 . S
C917 C916 1.363 . S
C917 C918 1.385 . S
C918 H886 0.930 . S
C918 C917 1.385 . S
C918 C919 1.357 . S
C919 C918 1.357 . S
C919 C920 1.406 . S
C920 H887 0.929 . S
C920 C919 1.406 . S
C920 C921 1.391 . S
C921 H888 0.931 . S
C921 C916 1.370 . S
C921 C920 1.391 . S
C922 N896 1.435 . S
C922 C923 1.358 . S
C922 C927 1.371 . S
C923 H889 0.930 . S
C923 C922 1.358 . S
C923 C924 1.405 . S
C924 H890 0.932 . S
C924 C923 1.405 . S
C924 C925 1.383 . S
C925 C924 1.383 . S
C925 C926 1.393 . S
C926 H891 0.931 . S
C926 C925 1.393 . S
C926 C927 1.382 . S
C927 H892 0.929 . S
C927 C922 1.371 . S
C927 C926 1.382 . S
C928 N896 1.423 . S
C928 C929 1.362 . S
C928 C933 1.388 . S
C929 H893 0.929 . S
C929 C928 1.362 . S
C929 C930 1.376 . S
C930 H894 0.931 . S
C930 C929 1.376 . S
C930 C931 1.396 . S
C931 C913 1.472 . S
C931 C930 1.396 . S
C931 C932 1.348 . S
C932 H895 0.929 . S
C932 C931 1.348 . S
C932 C933 1.443 . S
C933 H897 0.932 . S
C933 C928 1.388 . S
C933 C932 1.443 . S
H934 C961 0.929 . S
N935 C960 1.433 . S
N935 C966 1.435 . S
N935 C972 1.423 . S
H936 C962 0.930 . S
H937 C965 0.931 . S
H938 C964 0.929 . S
H939 C967 0.930 . S
H940 C968 0.932 . S
H941 C971 0.929 . S
H942 C970 0.931 . S
H943 C973 0.929 . S
H944 C977 0.932 1_545 S
H945 C974 0.931 . S
H946 C976 0.929 . S
H947 C979 0.929 . S
H948 C980 0.930 . S
H949 C982 0.929 . S
H950 C983 0.931 . S
H951 C985 0.930 . S
H952 C986 0.932 . S
H953 C988 0.931 . S
H954 C989 0.929 . S
H955 C991 0.929 . S
H956 C992 0.931 . S
H957 C994 0.929 . S
N958 C978 1.433 . S
N958 C984 1.435 . S
N958 C990 1.423 . S
H959 C995 0.932 1_545 S
C960 N935 1.433 . S
C960 C961 1.363 . S
C960 C965 1.370 1_565 S
C961 H934 0.929 . S
C961 C960 1.363 . S
C961 C962 1.385 . S
C962 H936 0.930 . S
C962 C961 1.385 . S
C962 C963 1.357 1_565 S
C963 C962 1.357 1_545 S
C963 C964 1.406 . S
C964 H938 0.929 . S
C964 C963 1.406 . S
C964 C965 1.391 . S
C965 H937 0.931 . S
C965 C960 1.370 1_545 S
C965 C964 1.391 . S
C966 N935 1.435 . S
C966 C967 1.358 1_565 S
C966 C971 1.371 . S
C967 H939 0.930 . S
C967 C966 1.358 1_545 S
C967 C968 1.405 . S
C968 H940 0.932 . S
C968 C967 1.405 . S
C968 C969 1.383 1_545 S
C969 C968 1.383 1_565 S
C969 C970 1.393 . S
C970 H942 0.931 . S
C970 C969 1.393 . S
C970 C971 1.382 . S
C971 H941 0.929 . S
C971 C966 1.371 . S
C971 C970 1.382 . S
C972 N935 1.423 . S
C972 C973 1.362 . S
C972 C977 1.388 . S
C973 H943 0.929 . S
C973 C972 1.362 . S
C973 C974 1.376 . S
C974 H945 0.931 . S
C974 C973 1.376 . S
C974 C975 1.396 . S
C975 C974 1.396 . S
C975 C976 1.348 . S
C975 C993 1.472 . S
C976 H946 0.929 . S
C976 C975 1.348 . S
C976 C977 1.443 . S
C977 H944 0.932 1_565 S
C977 C972 1.388 . S
C977 C976 1.443 . S
C978 N958 1.433 . S
C978 C979 1.363 . S
C978 C983 1.370 1_565 S
C979 H947 0.929 . S
C979 C978 1.363 . S
C979 C980 1.385 . S
C980 H948 0.930 . S
C980 C979 1.385 . S
C980 C981 1.357 1_565 S
C981 C980 1.357 1_545 S
C981 C982 1.406 . S
C982 H949 0.929 . S
C982 C981 1.406 . S
C982 C983 1.391 . S
C983 H950 0.931 . S
C983 C978 1.370 1_545 S
C983 C982 1.391 . S
C984 N958 1.435 . S
C984 C985 1.358 1_565 S
C984 C989 1.371 . S
C985 H951 0.930 . S
C985 C984 1.358 1_545 S
C985 C986 1.405 . S
C986 H952 0.932 . S
C986 C985 1.405 . S
C986 C987 1.383 1_545 S
C987 C986 1.383 1_565 S
C987 C988 1.393 . S
C988 H953 0.931 . S
C988 C987 1.393 . S
C988 C989 1.382 . S
C989 H954 0.929 . S
C989 C984 1.371 . S
C989 C988 1.382 . S
C990 N958 1.423 . S
C990 C991 1.362 . S
C990 C995 1.388 . S
C991 H955 0.929 . S
C991 C990 1.362 . S
C991 C992 1.376 . S
C992 H956 0.931 . S
C992 C991 1.376 . S
C992 C993 1.396 . S
C993 C975 1.472 . S
C993 C992 1.396 . S
C993 C994 1.348 . S
C994 H957 0.929 . S
C994 C993 1.348 . S
C994 C995 1.443 . S
C995 H959 0.932 1_565 S
C995 C990 1.388 . S
C995 C994 1.443 . S
H996 C1023 0.929 . S
N997 C1022 1.433 . S
N997 C1028 1.435 . S
N997 C1034 1.423 . S
H998 C1024 0.930 . S
H999 C1027 0.931 . S
H1000 C1026 0.929 . S
H1001 C1029 0.930 . S
H1002 C1030 0.932 . S
H1003 C1033 0.929 . S
H1004 C1032 0.931 . S
H1005 C1035 0.929 . S
H1006 C1039 0.932 . S
H1007 C1036 0.931 . S
H1008 C1038 0.924 1_545 S
H1009 C1041 0.929 . S
H1010 C1042 0.930 . S
H1011 C1044 0.943 . S
H1012 C1045 0.932 . S
H1013 C1047 0.930 . S
H1014 C1048 0.932 . S
H1015 C1050 0.931 . S
H1016 C1051 0.929 . S
H1017 C1053 0.929 . S
H1018 C1054 0.931 . S
H1019 C1056 0.883 1_545 S
N1020 C1040 1.433 . S
N1020 C1046 1.435 . S
N1020 C1052 1.423 . S
H1021 C1057 0.957 . S
C1022 N997 1.433 . S
C1022 C1023 1.363 . S
C1022 C1027 1.370 1_565 S
C1023 H996 0.929 . S
C1023 C1022 1.363 . S
C1023 C1024 1.385 . S
C1024 H998 0.930 . S
C1024 C1023 1.385 . S
C1024 C1025 1.357 . S
C1025 C1024 1.357 . S
C1025 C1026 1.406 1_565 S
C1026 H1000 0.929 . S
C1026 C1025 1.406 1_545 S
C1026 C1027 1.391 . S
C1027 H999 0.931 . S
C1027 C1022 1.370 1_545 S
C1027 C1026 1.391 . S
C1028 N997 1.435 . S
C1028 C1029 1.358 1_565 S
C1028 C1033 1.371 . S
C1029 H1001 0.930 . S
C1029 C1028 1.358 1_545 S
C1029 C1030 1.405 . S
C1030 H1002 0.932 . S
C1030 C1029 1.405 . S
C1030 C1031 1.383 . S
C1031 C1030 1.383 . S
C1031 C1032 1.393 1_545 S
C1032 H1004 0.931 . S
C1032 C1031 1.393 1_565 S
C1032 C1033 1.382 . S
C1033 H1003 0.929 . S
C1033 C1028 1.371 . S
C1033 C1032 1.382 . S
C1034 N997 1.423 . S
C1034 C1035 1.362 . S
C1034 C1039 1.388 1_565 S
C1035 H1005 0.929 . S
C1035 C1034 1.362 . S
C1035 C1036 1.376 . S
C1036 H1007 0.931 . S
C1036 C1035 1.376 . S
C1036 C1037 1.396 . S
C1037 C1036 1.396 . S
C1037 C1038 1.370 . S
C1037 C1055 1.472 . S
C1038 H1008 0.924 1_565 S
C1038 C1037 1.370 . S
C1038 C1039 1.426 1_565 S
C1039 H1006 0.932 . S
C1039 C1034 1.388 1_545 S
C1039 C1038 1.426 1_545 S
C1040 N1020 1.433 . S
C1040 C1041 1.363 . S
C1040 C1045 1.369 1_565 S
C1041 H1009 0.929 . S
C1041 C1040 1.363 . S
C1041 C1042 1.385 . S
C1042 H1010 0.930 . S
C1042 C1041 1.385 . S
C1042 C1043 1.357 . S
C1043 C1042 1.357 . S
C1043 C1044 1.390 1_565 S
C1044 H1011 0.943 . S
C1044 C1043 1.390 1_545 S
C1044 C1045 1.395 . S
C1045 H1012 0.932 . S
C1045 C1040 1.369 1_545 S
C1045 C1044 1.395 . S
C1046 N1020 1.435 . S
C1046 C1047 1.358 1_565 S
C1046 C1051 1.371 . S
C1047 H1013 0.930 . S
C1047 C1046 1.358 1_545 S
C1047 C1048 1.405 . S
C1048 H1014 0.932 . S
C1048 C1047 1.405 . S
C1048 C1049 1.383 . S
C1049 C1048 1.383 . S
C1049 C1050 1.393 1_545 S
C1050 H1015 0.931 . S
C1050 C1049 1.393 1_565 S
C1050 C1051 1.382 . S
C1051 H1016 0.929 . S
C1051 C1046 1.371 . S
C1051 C1050 1.382 . S
C1052 N1020 1.423 . S
C1052 C1053 1.362 . S
C1052 C1057 1.335 1_565 S
C1053 H1017 0.929 . S
C1053 C1052 1.362 . S
C1053 C1054 1.376 . S
C1054 H1018 0.931 . S
C1054 C1053 1.376 . S
C1054 C1055 1.396 . S
C1055 C1037 1.472 . S
C1055 C1054 1.396 . S
C1055 C1056 1.365 . S
C1056 H1019 0.883 1_565 S
C1056 C1055 1.365 . S
C1056 C1057 1.508 1_565 S
C1057 H1021 0.957 . S
C1057 C1052 1.335 1_545 S
C1057 C1056 1.508 1_545 S
H1058 C1085 0.929 . S
N1059 C1084 1.433 . S
N1059 C1090 1.435 . S
N1059 C1096 1.423 . S
H1060 C1086 0.930 . S
H1061 C1089 0.931 . S
H1062 C1088 0.929 . S
H1063 C1091 0.930 . S
H1064 C1092 0.932 . S
H1065 C1095 0.929 . S
H1066 C1094 0.931 . S
H1067 C1097 0.929 . S
H1068 C1101 0.932 1_455 S
H1069 C1098 0.931 . S
H1070 C1100 0.929 . S
H1071 C1103 0.929 . S
H1072 C1104 0.930 . S
H1073 C1106 0.929 . S
H1074 C1107 0.931 . S
H1075 C1109 0.930 . S
H1076 C1110 0.932 . S
H1077 C1112 0.931 . S
H1078 C1113 0.929 . S
H1079 C1115 0.929 . S
H1080 C1116 0.931 . S
H1081 C1118 0.929 . S
N1082 C1102 1.433 . S
N1082 C1108 1.435 . S
N1082 C1114 1.423 . S
H1083 C1119 0.932 1_455 S
C1084 N1059 1.433 . S
C1084 C1085 1.363 . S
C1084 C1089 1.370 1_655 S
C1085 H1058 0.929 . S
C1085 C1084 1.363 . S
C1085 C1086 1.385 . S
C1086 H1060 0.930 . S
C1086 C1085 1.385 . S
C1086 C1087 1.357 1_655 S
C1087 C1086 1.357 1_455 S
C1087 C1088 1.406 . S
C1088 H1062 0.929 . S
C1088 C1087 1.406 . S
C1088 C1089 1.391 . S
C1089 H1061 0.931 . S
C1089 C1084 1.370 1_455 S
C1089 C1088 1.391 . S
C1090 N1059 1.435 . S
C1090 C1091 1.358 1_655 S
C1090 C1095 1.371 . S
C1091 H1063 0.930 . S
C1091 C1090 1.358 1_455 S
C1091 C1092 1.405 . S
C1092 H1064 0.932 . S
C1092 C1091 1.405 . S
C1092 C1093 1.383 1_455 S
C1093 C1092 1.383 1_655 S
C1093 C1094 1.393 . S
C1094 H1066 0.931 . S
C1094 C1093 1.393 . S
C1094 C1095 1.382 . S
C1095 H1065 0.929 . S
C1095 C1090 1.371 . S
C1095 C1094 1.382 . S
C1096 N1059 1.423 . S
C1096 C1097 1.362 . S
C1096 C1101 1.388 . S
C1097 H1067 0.929 . S
C1097 C1096 1.362 . S
C1097 C1098 1.376 . S
C1098 H1069 0.931 . S
C1098 C1097 1.376 . S
C1098 C1099 1.396 . S
C1099 C1098 1.396 . S
C1099 C1100 1.348 . S
C1099 C1117 1.472 . S
C1100 H1070 0.929 . S
C1100 C1099 1.348 . S
C1100 C1101 1.443 . S
C1101 H1068 0.932 1_655 S
C1101 C1096 1.388 . S
C1101 C1100 1.443 . S
C1102 N1082 1.433 . S
C1102 C1103 1.363 . S
C1102 C1107 1.370 1_655 S
C1103 H1071 0.929 . S
C1103 C1102 1.363 . S
C1103 C1104 1.385 . S
C1104 H1072 0.930 . S
C1104 C1103 1.385 . S
C1104 C1105 1.357 1_655 S
C1105 C1104 1.357 1_455 S
C1105 C1106 1.406 . S
C1106 H1073 0.929 . S
C1106 C1105 1.406 . S
C1106 C1107 1.391 . S
C1107 H1074 0.931 . S
C1107 C1102 1.370 1_455 S
C1107 C1106 1.391 . S
C1108 N1082 1.435 . S
C1108 C1109 1.358 1_655 S
C1108 C1113 1.371 . S
C1109 H1075 0.930 . S
C1109 C1108 1.358 1_455 S
C1109 C1110 1.405 . S
C1110 H1076 0.932 . S
C1110 C1109 1.405 . S
C1110 C1111 1.383 1_455 S
C1111 C1110 1.383 1_655 S
C1111 C1112 1.393 . S
C1112 H1077 0.931 . S
C1112 C1111 1.393 . S
C1112 C1113 1.382 . S
C1113 H1078 0.929 . S
C1113 C1108 1.371 . S
C1113 C1112 1.382 . S
C1114 N1082 1.423 . S
C1114 C1115 1.362 . S
C1114 C1119 1.388 . S
C1115 H1079 0.929 . S
C1115 C1114 1.362 . S
C1115 C1116 1.376 . S
C1116 H1080 0.931 . S
C1116 C1115 1.376 . S
C1116 C1117 1.396 . S
C1117 C1099 1.472 . S
C1117 C1116 1.396 . S
C1117 C1118 1.348 . S
C1118 H1081 0.929 . S
C1118 C1117 1.348 . S
C1118 C1119 1.443 . S
C1119 H1083 0.932 1_655 S
C1119 C1114 1.388 . S
C1119 C1118 1.443 . S
H1120 C1147 0.929 . S
N1121 C1146 1.433 . S
N1121 C1152 1.435 . S
N1121 C1158 1.423 . S
H1122 C1148 0.930 . S
H1123 C1151 0.931 . S
H1124 C1150 0.929 . S
H1125 C1153 0.930 . S
H1126 C1154 0.932 . S
H1127 C1157 0.929 . S
H1128 C1156 0.931 . S
H1129 C1159 0.929 . S
H1130 C1163 0.932 . S
H1131 C1160 0.931 . S
H1132 C1162 0.929 . S
H1133 C1165 0.929 . S
H1134 C1166 0.930 . S
H1135 C1168 0.929 . S
H1136 C1169 0.931 . S
H1137 C1171 0.930 . S
H1138 C1172 0.932 . S
H1139 C1174 0.931 . S
H1140 C1175 0.929 . S
H1141 C1177 0.929 . S
H1142 C1178 0.931 . S
H1143 C1180 0.929 . S
N1144 C1164 1.433 . S
N1144 C1170 1.435 . S
N1144 C1176 1.423 . S
H1145 C1181 0.932 . S
C1146 N1121 1.433 . S
C1146 C1147 1.363 . S
C1146 C1151 1.370 . S
C1147 H1120 0.929 . S
C1147 C1146 1.363 . S
C1147 C1148 1.385 . S
C1148 H1122 0.930 . S
C1148 C1147 1.385 . S
C1148 C1149 1.357 . S
C1149 C1148 1.357 . S
C1149 C1150 1.406 . S
C1150 H1124 0.929 . S
C1150 C1149 1.406 . S
C1150 C1151 1.391 . S
C1151 H1123 0.931 . S
C1151 C1146 1.370 . S
C1151 C1150 1.391 . S
C1152 N1121 1.435 . S
C1152 C1153 1.358 . S
C1152 C1157 1.371 . S
C1153 H1125 0.930 . S
C1153 C1152 1.358 . S
C1153 C1154 1.405 . S
C1154 H1126 0.932 . S
C1154 C1153 1.405 . S
C1154 C1155 1.383 . S
C1155 C1154 1.383 . S
C1155 C1156 1.393 . S
C1156 H1128 0.931 . S
C1156 C1155 1.393 . S
C1156 C1157 1.382 . S
C1157 H1127 0.929 . S
C1157 C1152 1.371 . S
C1157 C1156 1.382 . S
C1158 N1121 1.423 . S
C1158 C1159 1.362 . S
C1158 C1163 1.388 . S
C1159 H1129 0.929 . S
C1159 C1158 1.362 . S
C1159 C1160 1.376 . S
C1160 H1131 0.931 . S
C1160 C1159 1.376 . S
C1160 C1161 1.396 . S
C1161 C1160 1.396 . S
C1161 C1162 1.348 . S
C1161 C1179 1.472 . S
C1162 H1132 0.929 . S
C1162 C1161 1.348 . S
C1162 C1163 1.443 . S
C1163 H1130 0.932 . S
C1163 C1158 1.388 . S
C1163 C1162 1.443 . S
C1164 N1144 1.433 . S
C1164 C1165 1.363 . S
C1164 C1169 1.370 . S
C1165 H1133 0.929 . S
C1165 C1164 1.363 . S
C1165 C1166 1.385 . S
C1166 H1134 0.930 . S
C1166 C1165 1.385 . S
C1166 C1167 1.357 . S
C1167 C1166 1.357 . S
C1167 C1168 1.406 . S
C1168 H1135 0.929 . S
C1168 C1167 1.406 . S
C1168 C1169 1.391 . S
C1169 H1136 0.931 . S
C1169 C1164 1.370 . S
C1169 C1168 1.391 . S
C1170 N1144 1.435 . S
C1170 C1171 1.358 . S
C1170 C1175 1.371 . S
C1171 H1137 0.930 . S
C1171 C1170 1.358 . S
C1171 C1172 1.405 . S
C1172 H1138 0.932 . S
C1172 C1171 1.405 . S
C1172 C1173 1.383 . S
C1173 C1172 1.383 . S
C1173 C1174 1.393 . S
C1174 H1139 0.931 . S
C1174 C1173 1.393 . S
C1174 C1175 1.382 . S
C1175 H1140 0.929 . S
C1175 C1170 1.371 . S
C1175 C1174 1.382 . S
C1176 N1144 1.423 . S
C1176 C1177 1.362 . S
C1176 C1181 1.388 . S
C1177 H1141 0.929 . S
C1177 C1176 1.362 . S
C1177 C1178 1.376 . S
C1178 H1142 0.931 . S
C1178 C1177 1.376 . S
C1178 C1179 1.396 . S
C1179 C1161 1.472 . S
C1179 C1178 1.396 . S
C1179 C1180 1.348 . S
C1180 H1143 0.929 . S
C1180 C1179 1.348 . S
C1180 C1181 1.443 . S
C1181 H1145 0.932 . S
C1181 C1176 1.388 . S
C1181 C1180 1.443 . S
H1182 C1209 0.929 . S
N1183 C1208 1.433 . S
N1183 C1214 1.435 . S
N1183 C1220 1.423 . S
H1184 C1210 0.930 . S
H1185 C1213 0.931 . S
H1186 C1212 0.929 . S
H1187 C1215 0.930 . S
H1188 C1216 0.932 . S
H1189 C1219 0.929 . S
H1190 C1218 0.931 . S
H1191 C1221 0.929 . S
H1192 C1225 0.932 . S
H1193 C1222 0.931 . S
H1194 C1224 0.929 . S
H1195 C1227 0.929 . S
H1196 C1228 0.930 . S
H1197 C1230 0.929 . S
H1198 C1231 0.931 . S
H1199 C1233 0.930 . S
H1200 C1234 0.932 . S
H1201 C1236 0.931 . S
H1202 C1237 0.929 . S
H1203 C1239 0.929 . S
H1204 C1240 0.931 . S
H1205 C1242 0.929 . S
N1206 C1226 1.433 . S
N1206 C1232 1.435 . S
N1206 C1238 1.423 . S
H1207 C1243 0.932 . S
C1208 N1183 1.433 . S
C1208 C1209 1.363 . S
C1208 C1213 1.370 . S
C1209 H1182 0.929 . S
C1209 C1208 1.363 . S
C1209 C1210 1.385 . S
C1210 H1184 0.930 . S
C1210 C1209 1.385 . S
C1210 C1211 1.357 . S
C1211 C1210 1.357 . S
C1211 C1212 1.406 . S
C1212 H1186 0.929 . S
C1212 C1211 1.406 . S
C1212 C1213 1.391 . S
C1213 H1185 0.931 . S
C1213 C1208 1.370 . S
C1213 C1212 1.391 . S
C1214 N1183 1.435 . S
C1214 C1215 1.358 . S
C1214 C1219 1.371 . S
C1215 H1187 0.930 . S
C1215 C1214 1.358 . S
C1215 C1216 1.405 . S
C1216 H1188 0.932 . S
C1216 C1215 1.405 . S
C1216 C1217 1.383 . S
C1217 C1216 1.383 . S
C1217 C1218 1.393 . S
C1218 H1190 0.931 . S
C1218 C1217 1.393 . S
C1218 C1219 1.382 . S
C1219 H1189 0.929 . S
C1219 C1214 1.371 . S
C1219 C1218 1.382 . S
C1220 N1183 1.423 . S
C1220 C1221 1.362 . S
C1220 C1225 1.388 . S
C1221 H1191 0.929 . S
C1221 C1220 1.362 . S
C1221 C1222 1.376 . S
C1222 H1193 0.931 . S
C1222 C1221 1.376 . S
C1222 C1223 1.396 . S
C1223 C1222 1.396 . S
C1223 C1224 1.348 . S
C1223 C1241 1.472 . S
C1224 H1194 0.929 . S
C1224 C1223 1.348 . S
C1224 C1225 1.443 . S
C1225 H1192 0.932 . S
C1225 C1220 1.388 . S
C1225 C1224 1.443 . S
C1226 N1206 1.433 . S
C1226 C1227 1.363 . S
C1226 C1231 1.370 . S
C1227 H1195 0.929 . S
C1227 C1226 1.363 . S
C1227 C1228 1.385 . S
C1228 H1196 0.930 . S
C1228 C1227 1.385 . S
C1228 C1229 1.357 . S
C1229 C1228 1.357 . S
C1229 C1230 1.406 . S
C1230 H1197 0.929 . S
C1230 C1229 1.406 . S
C1230 C1231 1.391 . S
C1231 H1198 0.931 . S
C1231 C1226 1.370 . S
C1231 C1230 1.391 . S
C1232 N1206 1.435 . S
C1232 C1233 1.358 . S
C1232 C1237 1.371 . S
C1233 H1199 0.930 . S
C1233 C1232 1.358 . S
C1233 C1234 1.405 . S
C1234 H1200 0.932 . S
C1234 C1233 1.405 . S
C1234 C1235 1.383 . S
C1235 C1234 1.383 . S
C1235 C1236 1.393 . S
C1236 H1201 0.931 . S
C1236 C1235 1.393 . S
C1236 C1237 1.382 . S
C1237 H1202 0.929 . S
C1237 C1232 1.371 . S
C1237 C1236 1.382 . S
C1238 N1206 1.423 . S
C1238 C1239 1.362 . S
C1238 C1243 1.388 . S
C1239 H1203 0.929 . S
C1239 C1238 1.362 . S
C1239 C1240 1.376 . S
C1240 H1204 0.931 . S
C1240 C1239 1.376 . S
C1240 C1241 1.396 . S
C1241 C1223 1.472 . S
C1241 C1240 1.396 . S
C1241 C1242 1.348 . S
C1242 H1205 0.929 . S
C1242 C1241 1.348 . S
C1242 C1243 1.443 . S
C1243 H1207 0.932 . S
C1243 C1238 1.388 . S
C1243 C1242 1.443 . S
H1244 C1271 0.929 . S
N1245 C1270 1.433 . S
N1245 C1276 1.435 . S
N1245 C1282 1.423 . S
H1246 C1272 0.930 . S
H1247 C1275 0.931 . S
H1248 C1274 0.929 . S
H1249 C1277 0.930 . S
H1250 C1278 0.932 . S
H1251 C1281 0.929 . S
H1252 C1280 0.931 . S
H1253 C1283 0.929 . S
H1254 C1287 0.932 . S
H1255 C1284 0.931 . S
H1256 C1286 0.929 . S
H1257 C1289 0.929 . S
H1258 C1290 0.930 . S
H1259 C1292 0.929 . S
H1260 C1293 0.931 . S
H1261 C1295 0.930 . S
H1262 C1296 0.932 . S
H1263 C1298 0.931 . S
H1264 C1299 0.929 . S
H1265 C1301 0.929 . S
H1266 C1302 0.931 . S
H1267 C1304 0.929 . S
N1268 C1288 1.433 . S
N1268 C1294 1.435 . S
N1268 C1300 1.423 . S
H1269 C1305 0.932 . S
C1270 N1245 1.433 . S
C1270 C1271 1.363 . S
C1270 C1275 1.370 . S
C1271 H1244 0.929 . S
C1271 C1270 1.363 . S
C1271 C1272 1.385 . S
C1272 H1246 0.930 . S
C1272 C1271 1.385 . S
C1272 C1273 1.357 . S
C1273 C1272 1.357 . S
C1273 C1274 1.406 . S
C1274 H1248 0.929 . S
C1274 C1273 1.406 . S
C1274 C1275 1.391 . S
C1275 H1247 0.931 . S
C1275 C1270 1.370 . S
C1275 C1274 1.391 . S
C1276 N1245 1.435 . S
C1276 C1277 1.358 . S
C1276 C1281 1.371 . S
C1277 H1249 0.930 . S
C1277 C1276 1.358 . S
C1277 C1278 1.405 . S
C1278 H1250 0.932 . S
C1278 C1277 1.405 . S
C1278 C1279 1.383 . S
C1279 C1278 1.383 . S
C1279 C1280 1.393 . S
C1280 H1252 0.931 . S
C1280 C1279 1.393 . S
C1280 C1281 1.382 . S
C1281 H1251 0.929 . S
C1281 C1276 1.371 . S
C1281 C1280 1.382 . S
C1282 N1245 1.423 . S
C1282 C1283 1.362 . S
C1282 C1287 1.388 . S
C1283 H1253 0.929 . S
C1283 C1282 1.362 . S
C1283 C1284 1.376 . S
C1284 H1255 0.931 . S
C1284 C1283 1.376 . S
C1284 C1285 1.396 . S
C1285 C1284 1.396 . S
C1285 C1286 1.348 . S
C1285 C1303 1.472 . S
C1286 H1256 0.929 . S
C1286 C1285 1.348 . S
C1286 C1287 1.443 . S
C1287 H1254 0.932 . S
C1287 C1282 1.388 . S
C1287 C1286 1.443 . S
C1288 N1268 1.433 . S
C1288 C1289 1.363 . S
C1288 C1293 1.370 . S
C1289 H1257 0.929 . S
C1289 C1288 1.363 . S
C1289 C1290 1.385 . S
C1290 H1258 0.930 . S
C1290 C1289 1.385 . S
C1290 C1291 1.357 . S
C1291 C1290 1.357 . S
C1291 C1292 1.406 . S
C1292 H1259 0.929 . S
C1292 C1291 1.406 . S
C1292 C1293 1.391 . S
C1293 H1260 0.931 . S
C1293 C1288 1.370 . S
C1293 C1292 1.391 . S
C1294 N1268 1.435 . S
C1294 C1295 1.358 . S
C1294 C1299 1.371 . S
C1295 H1261 0.930 . S
C1295 C1294 1.358 . S
C1295 C1296 1.405 . S
C1296 H1262 0.932 . S
C1296 C1295 1.405 . S
C1296 C1297 1.383 . S
C1297 C1296 1.383 . S
C1297 C1298 1.393 . S
C1298 H1263 0.931 . S
C1298 C1297 1.393 . S
C1298 C1299 1.382 . S
C1299 H1264 0.929 . S
C1299 C1294 1.371 . S
C1299 C1298 1.382 . S
C1300 N1268 1.423 . S
C1300 C1301 1.362 . S
C1300 C1305 1.388 . S
C1301 H1265 0.929 . S
C1301 C1300 1.362 . S
C1301 C1302 1.376 . S
C1302 H1266 0.931 . S
C1302 C1301 1.376 . S
C1302 C1303 1.396 . S
C1303 C1285 1.472 . S
C1303 C1302 1.396 . S
C1303 C1304 1.348 . S
C1304 H1267 0.929 . S
C1304 C1303 1.348 . S
C1304 C1305 1.443 . S
C1305 H1269 0.932 . S
C1305 C1300 1.388 . S
C1305 C1304 1.443 . S
H1306 C1333 0.929 . S
N1307 C1332 1.433 . S
N1307 C1338 1.435 . S
N1307 C1344 1.423 . S
H1308 C1334 0.930 . S
H1309 C1337 0.931 . S
H1310 C1336 0.929 . S
H1311 C1339 0.930 . S
H1312 C1340 0.932 . S
H1313 C1343 0.929 . S
H1314 C1342 0.931 . S
H1315 C1345 0.929 . S
H1316 C1349 0.932 . S
H1317 C1346 0.931 . S
H1318 C1348 0.929 . S
H1319 C1351 0.929 . S
H1320 C1352 0.930 . S
H1321 C1354 0.929 . S
H1322 C1355 0.931 . S
H1323 C1357 0.930 . S
H1324 C1358 0.932 . S
H1325 C1360 0.931 . S
H1326 C1361 0.929 . S
H1327 C1363 0.929 . S
H1328 C1364 0.931 . S
H1329 C1366 0.929 . S
N1330 C1350 1.433 . S
N1330 C1356 1.435 . S
N1330 C1362 1.423 . S
H1331 C1367 0.932 . S
C1332 N1307 1.433 . S
C1332 C1333 1.363 . S
C1332 C1337 1.370 . S
C1333 H1306 0.929 . S
C1333 C1332 1.363 . S
C1333 C1334 1.385 . S
C1334 H1308 0.930 . S
C1334 C1333 1.385 . S
C1334 C1335 1.357 . S
C1335 C1334 1.357 . S
C1335 C1336 1.406 . S
C1336 H1310 0.929 . S
C1336 C1335 1.406 . S
C1336 C1337 1.391 . S
C1337 H1309 0.931 . S
C1337 C1332 1.370 . S
C1337 C1336 1.391 . S
C1338 N1307 1.435 . S
C1338 C1339 1.358 . S
C1338 C1343 1.371 . S
C1339 H1311 0.930 . S
C1339 C1338 1.358 . S
C1339 C1340 1.405 . S
C1340 H1312 0.932 . S
C1340 C1339 1.405 . S
C1340 C1341 1.383 . S
C1341 C1340 1.383 . S
C1341 C1342 1.393 . S
C1342 H1314 0.931 . S
C1342 C1341 1.393 . S
C1342 C1343 1.382 . S
C1343 H1313 0.929 . S
C1343 C1338 1.371 . S
C1343 C1342 1.382 . S
C1344 N1307 1.423 . S
C1344 C1345 1.362 . S
C1344 C1349 1.388 . S
C1345 H1315 0.929 . S
C1345 C1344 1.362 . S
C1345 C1346 1.376 . S
C1346 H1317 0.931 . S
C1346 C1345 1.376 . S
C1346 C1347 1.396 . S
C1347 C1346 1.396 . S
C1347 C1348 1.348 . S
C1347 C1365 1.472 . S
C1348 H1318 0.929 . S
C1348 C1347 1.348 . S
C1348 C1349 1.443 . S
C1349 H1316 0.932 . S
C1349 C1344 1.388 . S
C1349 C1348 1.443 . S
C1350 N1330 1.433 . S
C1350 C1351 1.363 . S
C1350 C1355 1.370 . S
C1351 H1319 0.929 . S
C1351 C1350 1.363 . S
C1351 C1352 1.385 . S
C1352 H1320 0.930 . S
C1352 C1351 1.385 . S
C1352 C1353 1.357 . S
C1353 C1352 1.357 . S
C1353 C1354 1.406 . S
C1354 H1321 0.929 . S
C1354 C1353 1.406 . S
C1354 C1355 1.391 . S
C1355 H1322 0.931 . S
C1355 C1350 1.370 . S
C1355 C1354 1.391 . S
C1356 N1330 1.435 . S
C1356 C1357 1.358 . S
C1356 C1361 1.371 . S
C1357 H1323 0.930 . S
C1357 C1356 1.358 . S
C1357 C1358 1.405 . S
C1358 H1324 0.932 . S
C1358 C1357 1.405 . S
C1358 C1359 1.383 . S
C1359 C1358 1.383 . S
C1359 C1360 1.393 . S
C1360 H1325 0.931 . S
C1360 C1359 1.393 . S
C1360 C1361 1.382 . S
C1361 H1326 0.929 . S
C1361 C1356 1.371 . S
C1361 C1360 1.382 . S
C1362 N1330 1.423 . S
C1362 C1363 1.362 . S
C1362 C1367 1.388 . S
C1363 H1327 0.929 . S
C1363 C1362 1.362 . S
C1363 C1364 1.376 . S
C1364 H1328 0.931 . S
C1364 C1363 1.376 . S
C1364 C1365 1.396 . S
C1365 C1347 1.472 . S
C1365 C1364 1.396 . S
C1365 C1366 1.348 . S
C1366 H1329 0.929 . S
C1366 C1365 1.348 . S
C1366 C1367 1.443 . S
C1367 H1331 0.932 . S
C1367 C1362 1.388 . S
C1367 C1366 1.443 . S
C1368 C1369 1.369 . S
C1368 C1370 1.419 . S
C1368 H1372 0.930 . S
C1369 C1368 1.369 . S
C1369 C1378 1.429 1_655 S
C1370 C1368 1.419 . S
C1370 C1371 1.363 . S
C1370 H1373 0.929 . S
C1371 C1370 1.363 . S
C1371 C1377 1.428 1_655 S
H1372 C1368 0.930 . S
H1373 C1370 0.929 . S
S1374 N1375 1.613 . S
S1374 N1376 1.610 . S
N1375 S1374 1.613 . S
N1375 C1378 1.350 . S
N1376 S1374 1.610 . S
N1376 C1377 1.351 . S
C1377 C1371 1.428 1_455 S
C1377 N1376 1.351 . S
C1377 C1378 1.434 . S
C1378 C1369 1.429 1_455 S
C1378 N1375 1.350 . S
C1378 C1377 1.434 . S
C1379 C1380 1.369 . S
C1379 C1381 1.419 . S
C1379 H1383 0.930 . S
C1380 C1379 1.369 . S
C1380 C1389 1.429 . S
C1381 C1379 1.419 . S
C1381 C1382 1.363 . S
C1381 H1384 0.929 . S
C1382 C1381 1.363 . S
C1382 C1388 1.428 . S
H1383 C1379 0.930 . S
H1384 C1381 0.929 . S
S1385 N1386 1.613 . S
S1385 N1387 1.610 . S
N1386 S1385 1.613 . S
N1386 C1389 1.350 . S
N1387 S1385 1.610 . S
N1387 C1388 1.351 . S
C1388 C1382 1.428 . S
C1388 N1387 1.351 . S
C1388 C1389 1.434 . S
C1389 C1380 1.429 . S
C1389 N1386 1.350 . S
C1389 C1388 1.434 . S
C1390 C1391 1.369 . S
C1390 C1392 1.419 . S
C1390 H1394 0.930 . S
C1391 C1390 1.369 . S
C1391 C1400 1.429 1_545 S
C1392 C1390 1.419 . S
C1392 C1393 1.363 . S
C1392 H1395 0.929 . S
C1393 C1392 1.363 . S
C1393 C1399 1.428 1_545 S
H1394 C1390 0.930 . S
H1395 C1392 0.929 . S
S1396 N1397 1.613 . S
S1396 N1398 1.610 . S
N1397 S1396 1.613 . S
N1397 C1400 1.350 . S
N1398 S1396 1.610 . S
N1398 C1399 1.351 . S
C1399 C1393 1.428 1_565 S
C1399 N1398 1.351 . S
C1399 C1400 1.434 . S
C1400 C1391 1.429 1_565 S
C1400 N1397 1.350 . S
C1400 C1399 1.434 . S
C1401 C1402 1.369 1_545 S
C1401 C1403 1.419 . S
C1401 H1405 0.930 . S
C1402 C1401 1.369 1_565 S
C1402 C1411 1.429 . S
C1403 C1401 1.419 . S
C1403 C1404 1.363 1_545 S
C1403 H1406 0.929 . S
C1404 C1403 1.363 1_565 S
C1404 C1410 1.428 . S
H1405 C1401 0.930 . S
H1406 C1403 0.929 . S
S1407 N1408 1.613 . S
S1407 N1409 1.610 . S
N1408 S1407 1.613 . S
N1408 C1411 1.350 . S
N1409 S1407 1.610 . S
N1409 C1410 1.351 . S
C1410 C1404 1.428 . S
C1410 N1409 1.351 . S
C1410 C1411 1.434 . S
C1411 C1402 1.429 . S
C1411 N1408 1.350 . S
C1411 C1410 1.434 . S
C1412 C1413 1.369 1_655 S
C1412 C1414 1.419 . S
C1412 H1416 0.930 . S
C1413 C1412 1.369 1_455 S
C1413 C1422 1.429 . S
C1414 C1412 1.419 . S
C1414 C1415 1.363 1_655 S
C1414 H1417 0.929 . S
C1415 C1414 1.363 1_455 S
C1415 C1421 1.428 . S
H1416 C1412 0.930 . S
H1417 C1414 0.929 . S
S1418 N1419 1.613 . S
S1418 N1420 1.610 . S
N1419 S1418 1.613 . S
N1419 C1422 1.350 . S
N1420 S1418 1.610 . S
N1420 C1421 1.351 . S
C1421 C1415 1.428 . S
C1421 N1420 1.351 . S
C1421 C1422 1.434 . S
C1422 C1413 1.429 . S
C1422 N1419 1.350 . S
C1422 C1421 1.434 . S
C1423 C1424 1.369 . S
C1423 C1425 1.419 . S
C1423 H1427 0.930 . S
C1424 C1423 1.369 . S
C1424 C1433 1.429 . S
C1425 C1423 1.419 . S
C1425 C1426 1.363 . S
C1425 H1428 0.929 . S
C1426 C1425 1.363 . S
C1426 C1432 1.428 . S
H1427 C1423 0.930 . S
H1428 C1425 0.929 . S
S1429 N1430 1.613 . S
S1429 N1431 1.610 . S
N1430 S1429 1.613 . S
N1430 C1433 1.350 . S
N1431 S1429 1.610 . S
N1431 C1432 1.351 . S
C1432 C1426 1.428 . S
C1432 N1431 1.351 . S
C1432 C1433 1.434 . S
C1433 C1424 1.429 . S
C1433 N1430 1.350 . S
C1433 C1432 1.434 . S
C1434 C1435 1.369 1_655 S
C1434 C1436 1.419 . S
C1434 H1438 0.930 . S
C1435 C1434 1.369 1_455 S
C1435 C1444 1.429 . S
C1436 C1434 1.419 . S
C1436 C1437 1.363 1_655 S
C1436 H1439 0.929 . S
C1437 C1436 1.363 1_455 S
C1437 C1443 1.428 . S
H1438 C1434 0.930 . S
H1439 C1436 0.929 . S
S1440 N1441 1.613 . S
S1440 N1442 1.610 . S
N1441 S1440 1.613 . S
N1441 C1444 1.350 . S
N1442 S1440 1.610 . S
N1442 C1443 1.351 . S
C1443 C1437 1.428 . S
C1443 N1442 1.351 . S
C1443 C1444 1.434 . S
C1444 C1435 1.429 . S
C1444 N1441 1.350 . S
C1444 C1443 1.434 . S
C1445 C1446 1.369 . S
C1445 C1447 1.419 . S
C1445 H1449 0.930 . S
C1446 C1445 1.369 . S
C1446 C1455 1.429 . S
C1447 C1445 1.419 . S
C1447 C1448 1.363 . S
C1447 H1450 0.929 . S
C1448 C1447 1.363 . S
C1448 C1454 1.428 . S
H1449 C1445 0.930 . S
H1450 C1447 0.929 . S
S1451 N1452 1.613 . S
S1451 N1453 1.610 . S
N1452 S1451 1.613 . S
N1452 C1455 1.350 . S
N1453 S1451 1.610 . S
N1453 C1454 1.351 . S
C1454 C1448 1.428 . S
C1454 N1453 1.351 . S
C1454 C1455 1.434 . S
C1455 C1446 1.429 . S
C1455 N1452 1.350 . S
C1455 C1454 1.434 . S
C1456 C1457 1.369 . S
C1456 C1458 1.419 . S
C1456 H1460 0.930 . S
C1457 C1456 1.369 . S
C1457 C1466 1.429 . S
C1458 C1456 1.419 . S
C1458 C1459 1.363 . S
C1458 H1461 0.929 . S
C1459 C1458 1.363 . S
C1459 C1465 1.428 . S
H1460 C1456 0.930 . S
H1461 C1458 0.929 . S
S1462 N1463 1.613 . S
S1462 N1464 1.610 . S
N1463 S1462 1.613 . S
N1463 C1466 1.350 . S
N1464 S1462 1.610 . S
N1464 C1465 1.351 . S
C1465 C1459 1.428 . S
C1465 N1464 1.351 . S
C1465 C1466 1.434 . S
C1466 C1457 1.429 . S
C1466 N1463 1.350 . S
C1466 C1465 1.434 . S
C1467 C1468 1.369 . S
C1467 C1469 1.419 . S
C1467 H1471 0.930 1_545 S
C1468 C1467 1.369 . S
C1468 C1477 1.429 . S
C1469 C1467 1.419 . S
C1469 C1470 1.363 . S
C1469 H1472 0.929 1_545 S
C1470 C1469 1.363 . S
C1470 C1476 1.428 . S
H1471 C1467 0.930 1_565 S
H1472 C1469 0.929 1_565 S
S1473 N1474 1.613 . S
S1473 N1475 1.610 . S
N1474 S1473 1.613 . S
N1474 C1477 1.350 . S
N1475 S1473 1.610 . S
N1475 C1476 1.351 . S
C1476 C1470 1.428 . S
C1476 N1475 1.351 . S
C1476 C1477 1.434 . S
C1477 C1468 1.429 . S
C1477 N1474 1.350 . S
C1477 C1476 1.434 . S
C1478 C1479 1.369 . S
C1478 C1480 1.419 . S
C1478 H1482 0.930 . S
C1479 C1478 1.369 . S
C1479 C1488 1.429 . S
C1480 C1478 1.419 . S
C1480 C1481 1.363 . S
C1480 H1483 0.929 . S
C1481 C1480 1.363 . S
C1481 C1487 1.428 . S
H1482 C1478 0.930 . S
H1483 C1480 0.929 . S
S1484 N1485 1.613 . S
S1484 N1486 1.610 . S
N1485 S1484 1.613 . S
N1485 C1488 1.350 . S
N1486 S1484 1.610 . S
N1486 C1487 1.351 . S
C1487 C1481 1.428 . S
C1487 N1486 1.351 . S
C1487 C1488 1.434 . S
C1488 C1479 1.429 . S
C1488 N1485 1.350 . S
C1488 C1487 1.434 . S
C1489 C1490 1.369 . S
C1489 C1491 1.419 . S
C1489 H1493 0.930 . S
C1490 C1489 1.369 . S
C1490 C1499 1.429 . S
C1491 C1489 1.419 . S
C1491 C1492 1.363 . S
C1491 H1494 0.929 . S
C1492 C1491 1.363 . S
C1492 C1498 1.428 . S
H1493 C1489 0.930 . S
H1494 C1491 0.929 . S
S1495 N1496 1.613 . S
S1495 N1497 1.610 . S
N1496 S1495 1.613 . S
N1496 C1499 1.350 . S
N1497 S1495 1.610 . S
N1497 C1498 1.351 . S
C1498 C1492 1.428 . S
C1498 N1497 1.351 . S
C1498 C1499 1.434 . S
C1499 C1490 1.429 . S
C1499 N1496 1.350 . S
C1499 C1498 1.434 . S
C1500 C1501 1.369 . S
C1500 C1502 1.419 . S
C1500 H1504 0.930 . S
C1501 C1500 1.369 . S
C1501 C1510 1.429 . S
C1502 C1500 1.419 . S
C1502 C1503 1.363 . S
C1502 H1505 0.929 . S
C1503 C1502 1.363 . S
C1503 C1509 1.428 . S
H1504 C1500 0.930 . S
H1505 C1502 0.929 . S
S1506 N1507 1.613 . S
S1506 N1508 1.610 . S
N1507 S1506 1.613 . S
N1507 C1510 1.350 . S
N1508 S1506 1.610 . S
N1508 C1509 1.351 . S
C1509 C1503 1.428 . S
C1509 N1508 1.351 . S
C1509 C1510 1.434 . S
C1510 C1501 1.429 . S
C1510 N1507 1.350 . S
C1510 C1509 1.434 . S
C1511 C1512 1.369 . S
C1511 C1513 1.419 . S
C1511 H1515 0.930 . S
C1512 C1511 1.369 . S
C1512 C1521 1.429 . S
C1513 C1511 1.419 . S
C1513 C1514 1.363 . S
C1513 H1516 0.929 . S
C1514 C1513 1.363 . S
C1514 C1520 1.428 . S
H1515 C1511 0.930 . S
H1516 C1513 0.929 . S
S1517 N1518 1.613 . S
S1517 N1519 1.610 . S
N1518 S1517 1.613 . S
N1518 C1521 1.350 . S
N1519 S1517 1.610 . S
N1519 C1520 1.351 . S
C1520 C1514 1.428 . S
C1520 N1519 1.351 . S
C1520 C1521 1.434 . S
C1521 C1512 1.429 . S
C1521 N1518 1.350 . S
C1521 C1520 1.434 . S
C1522 C1523 1.369 . S
C1522 C1524 1.419 . S
C1522 H1526 0.930 . S
C1523 C1522 1.369 . S
C1523 C1532 1.429 . S
C1524 C1522 1.419 . S
C1524 C1525 1.363 . S
C1524 H1527 0.929 . S
C1525 C1524 1.363 . S
C1525 C1531 1.428 . S
H1526 C1522 0.930 . S
H1527 C1524 0.929 . S
S1528 N1529 1.613 . S
S1528 N1530 1.610 . S
N1529 S1528 1.613 . S
N1529 C1532 1.350 . S
N1530 S1528 1.610 . S
N1530 C1531 1.351 . S
C1531 C1525 1.428 . S
C1531 N1530 1.351 . S
C1531 C1532 1.434 . S
C1532 C1523 1.429 . S
C1532 N1529 1.350 . S
C1532 C1531 1.434 . S
C1533 C1534 1.369 . S
C1533 C1535 1.419 . S
C1533 H1537 0.930 . S
C1534 C1533 1.369 . S
C1534 C1543 1.429 . S
C1535 C1533 1.419 . S
C1535 C1536 1.363 . S
C1535 H1538 0.929 . S
C1536 C1535 1.363 . S
C1536 C1542 1.428 . S
H1537 C1533 0.930 . S
H1538 C1535 0.929 . S
S1539 N1540 1.613 . S
S1539 N1541 1.610 . S
N1540 S1539 1.613 . S
N1540 C1543 1.350 . S
N1541 S1539 1.610 . S
N1541 C1542 1.351 . S
C1542 C1536 1.428 . S
C1542 N1541 1.351 . S
C1542 C1543 1.434 . S
C1543 C1534 1.429 . S
C1543 N1540 1.350 . S
C1543 C1542 1.434 . S
C1544 C1545 1.369 . S
C1544 C1546 1.419 . S
C1544 H1548 0.930 . S
C1545 C1544 1.369 . S
C1545 C1554 1.429 . S
C1546 C1544 1.419 . S
C1546 C1547 1.363 . S
C1546 H1549 0.929 . S
C1547 C1546 1.363 . S
C1547 C1553 1.428 . S
H1548 C1544 0.930 . S
H1549 C1546 0.929 . S
S1550 N1551 1.613 . S
S1550 N1552 1.610 . S
N1551 S1550 1.613 . S
N1551 C1554 1.350 . S
N1552 S1550 1.610 . S
N1552 C1553 1.351 . S
C1553 C1547 1.428 . S
C1553 N1552 1.351 . S
C1553 C1554 1.434 . S
C1554 C1545 1.429 . S
C1554 N1551 1.350 . S
C1554 C1553 1.434 . S
C1555 C1556 1.369 . S
C1555 C1557 1.419 . S
C1555 H1559 0.930 . S
C1556 C1555 1.369 . S
C1556 C1565 1.429 . S
C1557 C1555 1.419 . S
C1557 C1558 1.363 . S
C1557 H1560 0.929 . S
C1558 C1557 1.363 . S
C1558 C1564 1.428 . S
H1559 C1555 0.930 . S
H1560 C1557 0.929 . S
S1561 N1562 1.613 . S
S1561 N1563 1.610 . S
N1562 S1561 1.613 . S
N1562 C1565 1.350 . S
N1563 S1561 1.610 . S
N1563 C1564 1.351 . S
C1564 C1558 1.428 . S
C1564 N1563 1.351 . S
C1564 C1565 1.434 . S
C1565 C1556 1.429 . S
C1565 N1562 1.350 . S
C1565 C1564 1.434 . S
C1566 C1567 1.369 . S
C1566 C1568 1.419 . S
C1566 H1570 0.930 . S
C1567 C1566 1.369 . S
C1567 C1576 1.429 . S
C1568 C1566 1.419 . S
C1568 C1569 1.363 . S
C1568 H1571 0.929 . S
C1569 C1568 1.363 . S
C1569 C1575 1.428 . S
H1570 C1566 0.930 . S
H1571 C1568 0.929 . S
S1572 N1573 1.613 . S
S1572 N1574 1.610 . S
N1573 S1572 1.613 . S
N1573 C1576 1.350 . S
N1574 S1572 1.610 . S
N1574 C1575 1.351 . S
C1575 C1569 1.428 . S
C1575 N1574 1.351 . S
C1575 C1576 1.434 . S
C1576 C1567 1.429 . S
C1576 N1573 1.350 . S
C1576 C1575 1.434 . S
C1577 C1578 1.369 . S
C1577 C1579 1.419 . S
C1577 H1581 0.930 . S
C1578 C1577 1.369 . S
C1578 C1587 1.429 . S
C1579 C1577 1.419 . S
C1579 C1580 1.363 . S
C1579 H1582 0.929 . S
C1580 C1579 1.363 . S
C1580 C1586 1.428 . S
H1581 C1577 0.930 . S
H1582 C1579 0.929 . S
S1583 N1584 1.613 . S
S1583 N1585 1.610 . S
N1584 S1583 1.613 . S
N1584 C1587 1.350 . S
N1585 S1583 1.610 . S
N1585 C1586 1.351 . S
C1586 C1580 1.428 . S
C1586 N1585 1.351 . S
C1586 C1587 1.434 . S
C1587 C1578 1.429 . S
C1587 N1584 1.350 . S
C1587 C1586 1.434 . S
C1588 C1589 1.369 . S
C1588 C1590 1.419 . S
C1588 H1592 0.930 . S
C1589 C1588 1.369 . S
C1589 C1598 1.429 . S
C1590 C1588 1.419 . S
C1590 C1591 1.363 . S
C1590 H1593 0.929 . S
C1591 C1590 1.363 . S
C1591 C1597 1.428 . S
H1592 C1588 0.930 . S
H1593 C1590 0.929 . S
S1594 N1595 1.613 . S
S1594 N1596 1.610 . S
N1595 S1594 1.613 . S
N1595 C1598 1.350 . S
N1596 S1594 1.610 . S
N1596 C1597 1.351 . S
C1597 C1591 1.428 . S
C1597 N1596 1.351 . S
C1597 C1598 1.434 . S
C1598 C1589 1.429 . S
C1598 N1595 1.350 . S
C1598 C1597 1.434 . S
C1599 C1600 1.369 . S
C1599 C1601 1.419 . S
C1599 H1603 0.930 . S
C1600 C1599 1.369 . S
C1600 C1609 1.429 . S
C1601 C1599 1.419 . S
C1601 C1602 1.363 . S
C1601 H1604 0.929 . S
C1602 C1601 1.363 . S
C1602 C1608 1.428 . S
H1603 C1599 0.930 . S
H1604 C1601 0.929 . S
S1605 N1606 1.613 . S
S1605 N1607 1.610 . S
N1606 S1605 1.613 . S
N1606 C1609 1.350 . S
N1607 S1605 1.610 . S
N1607 C1608 1.351 . S
C1608 C1602 1.428 . S
C1608 N1607 1.351 . S
C1608 C1609 1.434 . S
C1609 C1600 1.429 . S
C1609 N1606 1.350 . S
C1609 C1608 1.434 . S
C1610 C1611 1.369 . S
C1610 C1612 1.419 . S
C1610 H1614 0.930 . S
C1611 C1610 1.369 . S
C1611 C1620 1.429 . S
C1612 C1610 1.419 . S
C1612 C1613 1.363 . S
C1612 H1615 0.929 . S
C1613 C1612 1.363 . S
C1613 C1619 1.428 . S
H1614 C1610 0.930 . S
H1615 C1612 0.929 . S
S1616 N1617 1.613 . S
S1616 N1618 1.610 . S
N1617 S1616 1.613 . S
N1617 C1620 1.350 . S
N1618 S1616 1.610 . S
N1618 C1619 1.351 . S
C1619 C1613 1.428 . S
C1619 N1618 1.351 . S
C1619 C1620 1.434 . S
C1620 C1611 1.429 . S
C1620 N1617 1.350 . S
C1620 C1619 1.434 . S
C1621 C1622 1.369 . S
C1621 C1623 1.419 . S
C1621 H1625 0.930 . S
C1622 C1621 1.369 . S
C1622 C1631 1.429 . S
C1623 C1621 1.419 . S
C1623 C1624 1.363 . S
C1623 H1626 0.929 . S
C1624 C1623 1.363 . S
C1624 C1630 1.428 . S
H1625 C1621 0.930 . S
H1626 C1623 0.929 . S
S1627 N1628 1.613 . S
S1627 N1629 1.610 . S
N1628 S1627 1.613 . S
N1628 C1631 1.350 . S
N1629 S1627 1.610 . S
N1629 C1630 1.351 . S
C1630 C1624 1.428 . S
C1630 N1629 1.351 . S
C1630 C1631 1.434 . S
C1631 C1622 1.429 . S
C1631 N1628 1.350 . S
C1631 C1630 1.434 . S
C1632 C1633 1.369 . S
C1632 C1634 1.419 . S
C1632 H1636 0.930 . S
C1633 C1632 1.369 . S
C1633 C1642 1.429 . S
C1634 C1632 1.419 . S
C1634 C1635 1.363 . S
C1634 H1637 0.929 . S
C1635 C1634 1.363 . S
C1635 C1641 1.428 . S
H1636 C1632 0.930 . S
H1637 C1634 0.929 . S
S1638 N1639 1.613 . S
S1638 N1640 1.610 . S
N1639 S1638 1.613 . S
N1639 C1642 1.350 . S
N1640 S1638 1.610 . S
N1640 C1641 1.351 . S
C1641 C1635 1.428 . S
C1641 N1640 1.351 . S
C1641 C1642 1.434 . S
C1642 C1633 1.429 . S
C1642 N1639 1.350 . S
C1642 C1641 1.434 . S
C1643 C1644 1.369 . S
C1643 C1645 1.419 . S
C1643 H1647 0.930 . S
C1644 C1643 1.369 . S
C1644 C1653 1.429 . S
C1645 C1643 1.419 . S
C1645 C1646 1.363 . S
C1645 H1648 0.929 . S
C1646 C1645 1.363 . S
C1646 C1652 1.428 . S
H1647 C1643 0.930 . S
H1648 C1645 0.929 . S
S1649 N1650 1.613 . S
S1649 N1651 1.610 . S
N1650 S1649 1.613 . S
N1650 C1653 1.350 . S
N1651 S1649 1.610 . S
N1651 C1652 1.351 . S
C1652 C1646 1.428 . S
C1652 N1651 1.351 . S
C1652 C1653 1.434 . S
C1653 C1644 1.429 . S
C1653 N1650 1.350 . S
C1653 C1652 1.434 . S
C1654 C1655 1.369 . S
C1654 C1656 1.419 . S
C1654 H1658 0.930 . S
C1655 C1654 1.369 . S
C1655 C1664 1.429 . S
C1656 C1654 1.419 . S
C1656 C1657 1.363 . S
C1656 H1659 0.929 . S
C1657 C1656 1.363 . S
C1657 C1663 1.428 . S
H1658 C1654 0.930 . S
H1659 C1656 0.929 . S
S1660 N1661 1.613 . S
S1660 N1662 1.610 . S
N1661 S1660 1.613 . S
N1661 C1664 1.350 . S
N1662 S1660 1.610 . S
N1662 C1663 1.351 . S
C1663 C1657 1.428 . S
C1663 N1662 1.351 . S
C1663 C1664 1.434 . S
C1664 C1655 1.429 . S
C1664 N1661 1.350 . S
C1664 C1663 1.434 . S
C1665 C1666 1.369 . S
C1665 C1667 1.419 . S
C1665 H1669 0.930 . S
C1666 C1665 1.369 . S
C1666 C1675 1.429 . S
C1667 C1665 1.419 . S
C1667 C1668 1.363 . S
C1667 H1670 0.929 . S
C1668 C1667 1.363 . S
C1668 C1674 1.428 . S
H1669 C1665 0.930 . S
H1670 C1667 0.929 . S
S1671 N1672 1.613 . S
S1671 N1673 1.610 . S
N1672 S1671 1.613 . S
N1672 C1675 1.350 . S
N1673 S1671 1.610 . S
N1673 C1674 1.351 . S
C1674 C1668 1.428 . S
C1674 N1673 1.351 . S
C1674 C1675 1.434 . S
C1675 C1666 1.429 . S
C1675 N1672 1.350 . S
C1675 C1674 1.434 . S
C1676 C1677 1.369 . S
C1676 C1678 1.419 . S
C1676 H1680 0.930 . S
C1677 C1676 1.369 . S
C1677 C1686 1.429 . S
C1678 C1676 1.419 . S
C1678 C1679 1.363 . S
C1678 H1681 0.929 . S
C1679 C1678 1.363 . S
C1679 C1685 1.428 . S
H1680 C1676 0.930 . S
H1681 C1678 0.929 . S
S1682 N1683 1.613 . S
S1682 N1684 1.610 . S
N1683 S1682 1.613 . S
N1683 C1686 1.350 . S
N1684 S1682 1.610 . S
N1684 C1685 1.351 . S
C1685 C1679 1.428 . S
C1685 N1684 1.351 . S
C1685 C1686 1.434 . S
C1686 C1677 1.429 . S
C1686 N1683 1.350 . S
C1686 C1685 1.434 . S
C1687 C1688 1.369 . S
C1687 C1689 1.419 . S
C1687 H1691 0.930 . S
C1688 C1687 1.369 . S
C1688 C1697 1.429 . S
C1689 C1687 1.419 . S
C1689 C1690 1.363 . S
C1689 H1692 0.929 . S
C1690 C1689 1.363 . S
C1690 C1696 1.428 . S
H1691 C1687 0.930 . S
H1692 C1689 0.929 . S
S1693 N1694 1.613 . S
S1693 N1695 1.610 . S
N1694 S1693 1.613 . S
N1694 C1697 1.350 . S
N1695 S1693 1.610 . S
N1695 C1696 1.351 . S
C1696 C1690 1.428 . S
C1696 N1695 1.351 . S
C1696 C1697 1.434 . S
C1697 C1688 1.429 . S
C1697 N1694 1.350 . S
C1697 C1696 1.434 . S
C1698 C1699 1.369 . S
C1698 C1700 1.419 . S
C1698 H1702 0.930 . S
C1699 C1698 1.369 . S
C1699 C1708 1.429 . S
C1700 C1698 1.419 . S
C1700 C1701 1.363 . S
C1700 H1703 0.929 . S
C1701 C1700 1.363 . S
C1701 C1707 1.428 . S
H1702 C1698 0.930 . S
H1703 C1700 0.929 . S
S1704 N1705 1.613 . S
S1704 N1706 1.610 . S
N1705 S1704 1.613 . S
N1705 C1708 1.350 . S
N1706 S1704 1.610 . S
N1706 C1707 1.351 . S
C1707 C1701 1.428 . S
C1707 N1706 1.351 . S
C1707 C1708 1.434 . S
C1708 C1699 1.429 . S
C1708 N1705 1.350 . S
C1708 C1707 1.434 . S
C1709 C1710 1.369 . S
C1709 C1711 1.419 . S
C1709 H1713 0.930 . S
C1710 C1709 1.369 . S
C1710 C1719 1.429 . S
C1711 C1709 1.419 . S
C1711 C1712 1.363 . S
C1711 H1714 0.929 . S
C1712 C1711 1.363 . S
C1712 C1718 1.428 . S
H1713 C1709 0.930 . S
H1714 C1711 0.929 . S
S1715 N1716 1.613 . S
S1715 N1717 1.610 . S
N1716 S1715 1.613 . S
N1716 C1719 1.350 . S
N1717 S1715 1.610 . S
N1717 C1718 1.351 . S
C1718 C1712 1.428 . S
C1718 N1717 1.351 . S
C1718 C1719 1.434 . S
C1719 C1710 1.429 . S
C1719 N1716 1.350 . S
C1719 C1718 1.434 . S
C1720 C1721 1.369 . S
C1720 C1722 1.419 . S
C1720 H1724 0.930 . S
C1721 C1720 1.369 . S
C1721 C1730 1.429 . S
C1722 C1720 1.419 . S
C1722 C1723 1.363 . S
C1722 H1725 0.929 . S
C1723 C1722 1.363 . S
C1723 C1729 1.428 . S
H1724 C1720 0.930 . S
H1725 C1722 0.929 . S
S1726 N1727 1.613 . S
S1726 N1728 1.610 . S
N1727 S1726 1.613 . S
N1727 C1730 1.350 . S
N1728 S1726 1.610 . S
N1728 C1729 1.351 . S
C1729 C1723 1.428 . S
C1729 N1728 1.351 . S
C1729 C1730 1.434 . S
C1730 C1721 1.429 . S
C1730 N1727 1.350 . S
C1730 C1729 1.434 . S
C1731 C1732 1.369 . S
C1731 C1733 1.419 . S
C1731 H1735 0.930 . S
C1732 C1731 1.369 . S
C1732 C1741 1.429 . S
C1733 C1731 1.419 . S
C1733 C1734 1.363 . S
C1733 H1736 0.929 . S
C1734 C1733 1.363 . S
C1734 C1740 1.428 . S
H1735 C1731 0.930 . S
H1736 C1733 0.929 . S
S1737 N1738 1.613 . S
S1737 N1739 1.610 . S
N1738 S1737 1.613 . S
N1738 C1741 1.350 . S
N1739 S1737 1.610 . S
N1739 C1740 1.351 . S
C1740 C1734 1.428 . S
C1740 N1739 1.351 . S
C1740 C1741 1.434 . S
C1741 C1732 1.429 . S
C1741 N1738 1.350 . S
C1741 C1740 1.434 . S
C1742 C1743 1.369 . S
C1742 C1744 1.419 . S
C1742 H1746 0.930 . S
C1743 C1742 1.369 . S
C1743 C1752 1.429 . S
C1744 C1742 1.419 . S
C1744 C1745 1.363 . S
C1744 H1747 0.929 . S
C1745 C1744 1.363 . S
C1745 C1751 1.428 . S
H1746 C1742 0.930 . S
H1747 C1744 0.929 . S
S1748 N1749 1.613 . S
S1748 N1750 1.610 . S
N1749 S1748 1.613 . S
N1749 C1752 1.350 . S
N1750 S1748 1.610 . S
N1750 C1751 1.351 . S
C1751 C1745 1.428 . S
C1751 N1750 1.351 . S
C1751 C1752 1.434 . S
C1752 C1743 1.429 . S
C1752 N1749 1.350 . S
C1752 C1751 1.434 . S
C1753 C1754 1.369 . S
C1753 C1755 1.419 . S
C1753 H1757 0.930 . S
C1754 C1753 1.369 . S
C1754 C1763 1.429 . S
C1755 C1753 1.419 . S
C1755 C1756 1.363 . S
C1755 H1758 0.929 . S
C1756 C1755 1.363 . S
C1756 C1762 1.428 . S
H1757 C1753 0.930 . S
H1758 C1755 0.929 . S
S1759 N1760 1.613 . S
S1759 N1761 1.610 . S
N1760 S1759 1.613 . S
N1760 C1763 1.350 . S
N1761 S1759 1.610 . S
N1761 C1762 1.351 . S
C1762 C1756 1.428 . S
C1762 N1761 1.351 . S
C1762 C1763 1.434 . S
C1763 C1754 1.429 . S
C1763 N1760 1.350 . S
C1763 C1762 1.434 . S
C1764 C1765 1.369 . S
C1764 C1766 1.419 . S
C1764 H1768 0.930 . S
C1765 C1764 1.369 . S
C1765 C1774 1.429 . S
C1766 C1764 1.419 . S
C1766 C1767 1.363 . S
C1766 H1769 0.929 . S
C1767 C1766 1.363 . S
C1767 C1773 1.428 . S
H1768 C1764 0.930 . S
H1769 C1766 0.929 . S
S1770 N1771 1.613 . S
S1770 N1772 1.610 1_556 S
N1771 S1770 1.613 . S
N1771 C1774 1.350 1_556 S
N1772 S1770 1.610 1_554 S
N1772 C1773 1.351 . S
C1773 C1767 1.428 . S
C1773 N1772 1.351 . S
C1773 C1774 1.434 . S
C1774 C1765 1.429 . S
C1774 N1771 1.350 1_554 S
C1774 C1773 1.434 . S
C1775 C1776 1.369 . S
C1775 C1777 1.419 . S
C1775 H1779 0.930 . S
C1776 C1775 1.369 . S
C1776 C1785 1.429 . S
C1777 C1775 1.419 . S
C1777 C1778 1.363 . S
C1777 H1780 0.929 . S
C1778 C1777 1.363 . S
C1778 C1784 1.428 . S
H1779 C1775 0.930 . S
H1780 C1777 0.929 . S
S1781 N1782 1.613 . S
S1781 N1783 1.610 . S
N1782 S1781 1.613 . S
N1782 C1785 1.350 . S
N1783 S1781 1.610 . S
N1783 C1784 1.351 . S
C1784 C1778 1.428 . S
C1784 N1783 1.351 . S
C1784 C1785 1.434 . S
C1785 C1776 1.429 . S
C1785 N1782 1.350 . S
C1785 C1784 1.434 . S
C1786 C1787 1.369 . S
C1786 C1788 1.419 . S
C1786 H1790 0.930 . S
C1787 C1786 1.369 . S
C1787 C1796 1.429 . S
C1788 C1786 1.419 . S
C1788 C1789 1.363 . S
C1788 H1791 0.929 . S
C1789 C1788 1.363 . S
C1789 C1795 1.428 . S
H1790 C1786 0.930 . S
H1791 C1788 0.929 . S
S1792 N1793 1.613 . S
S1792 N1794 1.610 . S
N1793 S1792 1.613 . S
N1793 C1796 1.350 . S
N1794 S1792 1.610 . S
N1794 C1795 1.351 . S
C1795 C1789 1.428 . S
C1795 N1794 1.351 . S
C1795 C1796 1.434 . S
C1796 C1787 1.429 . S
C1796 N1793 1.350 . S
C1796 C1795 1.434 . S
C1797 C1798 1.369 . S
C1797 C1799 1.419 . S
C1797 H1801 0.930 . S
C1798 C1797 1.369 . S
C1798 C1807 1.432 . S
C1799 C1797 1.419 . S
C1799 C1800 1.363 . S
C1799 H1802 0.929 . S
C1800 C1799 1.363 . S
C1800 C1806 1.428 . S
H1801 C1797 0.930 . S
H1802 C1799 0.929 . S
S1803 N1804 1.613 . S
S1803 N1805 1.610 . S
N1804 S1803 1.613 . S
N1804 C1807 1.344 1_554 S
N1805 S1803 1.610 . S
N1805 C1806 1.351 1_554 S
C1806 C1800 1.428 . S
C1806 N1805 1.351 1_556 S
C1806 C1807 1.437 . S
C1807 C1798 1.432 . S
C1807 N1804 1.344 1_556 S
C1807 C1806 1.437 . S
C1808 C1809 1.369 . S
C1808 C1810 1.419 . S
C1808 H1812 0.930 . S
C1809 C1808 1.369 . S
C1809 C1818 1.429 1_556 S
C1810 C1808 1.419 . S
C1810 C1811 1.363 . S
C1810 H1813 0.929 . S
C1811 C1810 1.363 . S
C1811 C1817 1.444 . S
H1812 C1808 0.930 . S
H1813 C1810 0.929 . S
S1814 N1815 1.613 . S
S1814 N1816 1.610 . S
N1815 S1814 1.613 . S
N1815 C1818 1.350 . S
N1816 S1814 1.610 . S
N1816 C1817 1.338 1_554 S
C1817 C1811 1.444 . S
C1817 N1816 1.338 1_556 S
C1817 C1818 1.429 1_556 S
C1818 C1809 1.429 1_554 S
C1818 N1815 1.350 . S
C1818 C1817 1.429 1_554 S
C1819 C1820 1.369 . S
C1819 C1821 1.419 . S
C1819 H1823 0.928 1_556 S
C1820 C1819 1.369 . S
C1820 C1829 1.429 . S
C1821 C1819 1.419 . S
C1821 C1822 1.363 . S
C1821 H1824 0.929 . S
C1822 C1821 1.363 . S
C1822 C1828 1.428 . S
H1823 C1819 0.928 1_554 S
H1824 C1821 0.929 . S
S1825 N1826 1.613 . S
S1825 N1827 1.610 . S
N1826 S1825 1.613 . S
N1826 C1829 1.350 . S
N1827 S1825 1.610 . S
N1827 C1828 1.351 . S
C1828 C1822 1.428 . S
C1828 N1827 1.351 . S
C1828 C1829 1.434 . S
C1829 C1820 1.429 . S
C1829 N1826 1.350 . S
C1829 C1828 1.434 . S
C1830 C1831 1.369 . S
C1830 C1832 1.419 . S
C1830 H1834 0.930 . S
C1831 C1830 1.369 . S
C1831 C1840 1.429 . S
C1832 C1830 1.419 . S
C1832 C1833 1.363 . S
C1832 H1835 0.929 . S
C1833 C1832 1.363 . S
C1833 C1839 1.428 . S
H1834 C1830 0.930 . S
H1835 C1832 0.929 . S
S1836 N1837 1.613 . S
S1836 N1838 1.610 . S
N1837 S1836 1.613 . S
N1837 C1840 1.350 . S
N1838 S1836 1.610 . S
N1838 C1839 1.351 . S
C1839 C1833 1.428 . S
C1839 N1838 1.351 . S
C1839 C1840 1.434 . S
C1840 C1831 1.429 . S
C1840 N1837 1.350 . S
C1840 C1839 1.434 . S
C1841 C1842 1.369 1_554 S
C1841 C1843 1.419 . S
C1841 H1845 0.930 . S
C1842 C1841 1.369 1_556 S
C1842 C1851 1.429 . S
C1843 C1841 1.419 . S
C1843 C1844 1.363 1_554 S
C1843 H1846 0.929 . S
C1844 C1843 1.363 1_556 S
C1844 C1850 1.428 . S
H1845 C1841 0.930 . S
H1846 C1843 0.929 . S
S1847 N1848 1.613 . S
S1847 N1849 1.610 . S
N1848 S1847 1.613 . S
N1848 C1851 1.350 . S
N1849 S1847 1.610 . S
N1849 C1850 1.351 . S
C1850 C1844 1.428 . S
C1850 N1849 1.351 . S
C1850 C1851 1.434 . S
C1851 C1842 1.429 . S
C1851 N1848 1.350 . S
C1851 C1850 1.434 . S
C1852 C1853 1.369 . S
C1852 C1854 1.419 . S
C1852 H1856 0.918 1_556 S
C1853 C1852 1.369 . S
C1853 C1862 1.429 . S
C1854 C1852 1.419 . S
C1854 C1855 1.363 . S
C1854 H1857 0.929 . S
C1855 C1854 1.363 . S
C1855 C1861 1.428 . S
H1856 C1852 0.918 1_554 S
H1857 C1854 0.929 . S
S1858 N1859 1.613 . S
S1858 N1860 1.610 . S
N1859 S1858 1.613 . S
N1859 C1862 1.350 . S
N1860 S1858 1.610 . S
N1860 C1861 1.351 . S
C1861 C1855 1.428 . S
C1861 N1860 1.351 . S
C1861 C1862 1.434 . S
C1862 C1853 1.429 . S
C1862 N1859 1.350 . S
C1862 C1861 1.434 . S
C1863 C1864 1.369 . S
C1863 C1865 1.419 . S
C1863 H1867 0.930 . S
C1864 C1863 1.369 . S
C1864 C1873 1.429 . S
C1865 C1863 1.419 . S
C1865 C1866 1.363 . S
C1865 H1868 0.929 . S
C1866 C1865 1.363 . S
C1866 C1872 1.428 . S
H1867 C1863 0.930 . S
H1868 C1865 0.929 . S
S1869 N1870 1.613 . S
S1869 N1871 1.610 . S
N1870 S1869 1.613 . S
N1870 C1873 1.350 . S
N1871 S1869 1.610 . S
N1871 C1872 1.351 . S
C1872 C1866 1.428 . S
C1872 N1871 1.351 . S
C1872 C1873 1.434 . S
C1873 C1864 1.429 . S
C1873 N1870 1.350 . S
C1873 C1872 1.434 . S
C1874 C1875 1.369 . S
C1874 C1876 1.419 . S
C1874 H1878 0.930 . S
C1875 C1874 1.369 . S
C1875 C1884 1.429 . S
C1876 C1874 1.419 . S
C1876 C1877 1.363 . S
C1876 H1879 0.929 . S
C1877 C1876 1.363 . S
C1877 C1883 1.428 . S
H1878 C1874 0.930 . S
H1879 C1876 0.929 . S
S1880 N1881 1.613 . S
S1880 N1882 1.610 . S
N1881 S1880 1.613 . S
N1881 C1884 1.350 . S
N1882 S1880 1.610 . S
N1882 C1883 1.351 . S
C1883 C1877 1.428 . S
C1883 N1882 1.351 . S
C1883 C1884 1.434 . S
C1884 C1875 1.429 . S
C1884 N1881 1.350 . S
C1884 C1883 1.434 . S
C1885 C1886 1.369 . S
C1885 C1887 1.419 . S
C1885 H1889 0.930 . S
C1886 C1885 1.369 . S
C1886 C1895 1.429 . S
C1887 C1885 1.419 . S
C1887 C1888 1.363 . S
C1887 H1890 0.929 . S
C1888 C1887 1.363 . S
C1888 C1894 1.428 . S
H1889 C1885 0.930 . S
H1890 C1887 0.929 . S
S1891 N1892 1.613 1_556 S
S1891 N1893 1.610 1_556 S
N1892 S1891 1.613 1_554 S
N1892 C1895 1.350 . S
N1893 S1891 1.610 1_554 S
N1893 C1894 1.351 . S
C1894 C1888 1.428 . S
C1894 N1893 1.351 . S
C1894 C1895 1.434 . S
C1895 C1886 1.429 . S
C1895 N1892 1.350 . S
C1895 C1894 1.434 . S
C1896 C1897 1.369 . S
C1896 C1898 1.419 . S
C1896 H1900 0.930 . S
C1897 C1896 1.369 . S
C1897 C1906 1.429 . S
C1898 C1896 1.419 . S
C1898 C1899 1.363 . S
C1898 H1901 0.929 . S
C1899 C1898 1.363 . S
C1899 C1905 1.428 . S
H1900 C1896 0.930 . S
H1901 C1898 0.929 . S
S1902 N1903 1.613 . S
S1902 N1904 1.610 . S
N1903 S1902 1.613 . S
N1903 C1906 1.350 . S
N1904 S1902 1.610 . S
N1904 C1905 1.351 . S
C1905 C1899 1.428 . S
C1905 N1904 1.351 . S
C1905 C1906 1.434 . S
C1906 C1897 1.429 . S
C1906 N1903 1.350 . S
C1906 C1905 1.434 . S
C1907 C1908 1.369 . S
C1907 C1909 1.419 . S
C1907 H1911 0.930 . S
C1908 C1907 1.369 . S
C1908 C1917 1.429 . S
C1909 C1907 1.419 . S
C1909 C1910 1.363 . S
C1909 H1912 0.929 . S
C1910 C1909 1.363 . S
C1910 C1916 1.428 . S
H1911 C1907 0.930 . S
H1912 C1909 0.929 . S
S1913 N1914 1.613 . S
S1913 N1915 1.610 . S
N1914 S1913 1.613 . S
N1914 C1917 1.350 . S
N1915 S1913 1.610 . S
N1915 C1916 1.351 . S
C1916 C1910 1.428 . S
C1916 N1915 1.351 . S
C1916 C1917 1.434 . S
C1917 C1908 1.429 . S
C1917 N1914 1.350 . S
C1917 C1916 1.434 . S
C1918 C1919 1.369 . S
C1918 C1920 1.419 . S
C1918 H1922 0.930 . S
C1919 C1918 1.369 . S
C1919 C1928 1.429 . S
C1920 C1918 1.419 . S
C1920 C1921 1.363 . S
C1920 H1923 0.929 . S
C1921 C1920 1.363 . S
C1921 C1927 1.428 . S
H1922 C1918 0.930 . S
H1923 C1920 0.929 . S
S1924 N1925 1.613 . S
S1924 N1926 1.610 . S
N1925 S1924 1.613 . S
N1925 C1928 1.350 . S
N1926 S1924 1.610 . S
N1926 C1927 1.351 . S
C1927 C1921 1.428 . S
C1927 N1926 1.351 . S
C1927 C1928 1.434 . S
C1928 C1919 1.429 . S
C1928 N1925 1.350 . S
C1928 C1927 1.434 . S
C1929 C1930 1.369 . S
C1929 C1931 1.419 . S
C1929 H1933 0.930 . S
C1930 C1929 1.369 . S
C1930 C1939 1.429 . S
C1931 C1929 1.419 . S
C1931 C1932 1.363 . S
C1931 H1934 0.929 . S
C1932 C1931 1.363 . S
C1932 C1938 1.428 1_455 S
H1933 C1929 0.930 . S
H1934 C1931 0.929 . S
S1935 N1936 1.613 . S
S1935 N1937 1.610 . S
N1936 S1935 1.613 . S
N1936 C1939 1.350 1_655 S
N1937 S1935 1.610 . S
N1937 C1938 1.351 . S
C1938 C1932 1.428 1_655 S
C1938 N1937 1.351 . S
C1938 C1939 1.434 1_655 S
C1939 C1930 1.429 . S
C1939 N1936 1.350 1_455 S
C1939 C1938 1.434 1_455 S
C1940 C1941 1.369 . S
C1940 C1942 1.419 . S
C1940 H1944 0.930 . S
C1941 C1940 1.369 . S
C1941 C1950 1.429 . S
C1942 C1940 1.419 . S
C1942 C1943 1.363 . S
C1942 H1945 0.929 . S
C1943 C1942 1.363 . S
C1943 C1949 1.428 . S
H1944 C1940 0.930 . S
H1945 C1942 0.929 . S
S1946 N1947 1.613 . S
S1946 N1948 1.610 . S
N1947 S1946 1.613 . S
N1947 C1950 1.350 . S
N1948 S1946 1.610 . S
N1948 C1949 1.351 . S
C1949 C1943 1.428 . S
C1949 N1948 1.351 . S
C1949 C1950 1.434 . S
C1950 C1941 1.429 . S
C1950 N1947 1.350 . S
C1950 C1949 1.434 . S
C1951 C1952 1.369 . S
C1951 C1953 1.419 1_565 S
C1951 H1955 0.930 1_565 S
C1952 C1951 1.369 . S
C1952 C1961 1.429 . S
C1953 C1951 1.419 1_545 S
C1953 C1954 1.363 1_545 S
C1953 H1956 0.929 . S
C1954 C1953 1.363 1_565 S
C1954 C1960 1.428 . S
H1955 C1951 0.930 1_545 S
H1956 C1953 0.929 . S
S1957 N1958 1.613 . S
S1957 N1959 1.610 . S
N1958 S1957 1.613 . S
N1958 C1961 1.350 . S
N1959 S1957 1.610 . S
N1959 C1960 1.351 . S
C1960 C1954 1.428 . S
C1960 N1959 1.351 . S
C1960 C1961 1.434 . S
C1961 C1952 1.429 . S
C1961 N1958 1.350 . S
C1961 C1960 1.434 . S
C1962 C1963 1.369 . S
C1962 C1964 1.419 . S
C1962 H1966 0.930 . S
C1963 C1962 1.369 . S
C1963 C1972 1.429 . S
C1964 C1962 1.419 . S
C1964 C1965 1.363 . S
C1964 H1967 0.929 . S
C1965 C1964 1.363 . S
C1965 C1971 1.428 . S
H1966 C1962 0.930 . S
H1967 C1964 0.929 . S
S1968 N1969 1.613 . S
S1968 N1970 1.610 . S
N1969 S1968 1.613 . S
N1969 C1972 1.350 . S
N1970 S1968 1.610 . S
N1970 C1971 1.351 . S
C1971 C1965 1.428 . S
C1971 N1970 1.351 . S
C1971 C1972 1.434 . S
C1972 C1963 1.429 . S
C1972 N1969 1.350 . S
C1972 C1971 1.434 . S
C1973 C1974 1.369 . S
C1973 C1975 1.419 1_455 S
C1973 H1977 0.930 1_455 S
C1974 C1973 1.369 . S
C1974 C1983 1.429 . S
C1975 C1973 1.419 1_655 S
C1975 C1976 1.363 1_655 S
C1975 H1978 0.929 . S
C1976 C1975 1.363 1_455 S
C1976 C1982 1.428 . S
H1977 C1973 0.930 1_655 S
H1978 C1975 0.929 . S
S1979 N1980 1.613 . S
S1979 N1981 1.610 . S
N1980 S1979 1.613 . S
N1980 C1983 1.350 . S
N1981 S1979 1.610 . S
N1981 C1982 1.351 . S
C1982 C1976 1.428 . S
C1982 N1981 1.351 . S
C1982 C1983 1.434 . S
C1983 C1974 1.429 . S
C1983 N1980 1.350 . S
C1983 C1982 1.434 . S
C1984 C1985 1.369 . S
C1984 C1986 1.419 . S
C1984 H1988 0.930 . S
C1985 C1984 1.369 . S
C1985 C1994 1.429 . S
C1986 C1984 1.419 . S
C1986 C1987 1.363 . S
C1986 H1989 0.929 . S
C1987 C1986 1.363 . S
C1987 C1993 1.428 . S
H1988 C1984 0.930 . S
H1989 C1986 0.929 . S
S1990 N1991 1.613 . S
S1990 N1992 1.610 . S
N1991 S1990 1.613 . S
N1991 C1994 1.350 . S
N1992 S1990 1.610 . S
N1992 C1993 1.351 . S
C1993 C1987 1.428 . S
C1993 N1992 1.351 . S
C1993 C1994 1.434 . S
C1994 C1985 1.429 . S
C1994 N1991 1.350 . S
C1994 C1993 1.434 . S
C1995 C1996 1.369 . S
C1995 C1997 1.419 . S
C1995 H1999 0.930 . S
C1996 C1995 1.369 . S
C1996 C2005 1.429 . S
C1997 C1995 1.419 . S
C1997 C1998 1.363 . S
C1997 H2000 0.929 . S
C1998 C1997 1.363 . S
C1998 C2004 1.428 . S
H1999 C1995 0.930 . S
H2000 C1997 0.929 . S
S2001 N2002 1.613 . S
S2001 N2003 1.610 . S
N2002 S2001 1.613 . S
N2002 C2005 1.350 . S
N2003 S2001 1.610 . S
N2003 C2004 1.351 . S
C2004 C1998 1.428 . S
C2004 N2003 1.351 . S
C2004 C2005 1.434 . S
C2005 C1996 1.429 . S
C2005 N2002 1.350 . S
C2005 C2004 1.434 . S
C2006 C2007 1.369 . S
C2006 C2008 1.419 . S
C2006 H2010 0.930 . S
C2007 C2006 1.369 . S
C2007 C2016 1.429 . S
C2008 C2006 1.419 . S
C2008 C2009 1.363 . S
C2008 H2011 0.929 . S
C2009 C2008 1.363 . S
C2009 C2015 1.428 . S
H2010 C2006 0.930 . S
H2011 C2008 0.929 . S
S2012 N2013 1.613 . S
S2012 N2014 1.610 . S
N2013 S2012 1.613 . S
N2013 C2016 1.350 . S
N2014 S2012 1.610 . S
N2014 C2015 1.351 . S
C2015 C2009 1.428 . S
C2015 N2014 1.351 . S
C2015 C2016 1.434 . S
C2016 C2007 1.429 . S
C2016 N2013 1.350 . S
C2016 C2015 1.434 . S
C2017 C2018 1.369 . S
C2017 C2019 1.419 . S
C2017 H2021 0.930 . S
C2018 C2017 1.369 . S
C2018 C2027 1.429 . S
C2019 C2017 1.419 . S
C2019 C2020 1.363 . S
C2019 H2022 0.929 . S
C2020 C2019 1.363 . S
C2020 C2026 1.428 . S
H2021 C2017 0.930 . S
H2022 C2019 0.929 . S
S2023 N2024 1.613 . S
S2023 N2025 1.610 . S
N2024 S2023 1.613 . S
N2024 C2027 1.350 . S
N2025 S2023 1.610 . S
N2025 C2026 1.351 . S
C2026 C2020 1.428 . S
C2026 N2025 1.351 . S
C2026 C2027 1.434 . S
C2027 C2018 1.429 . S
C2027 N2024 1.350 . S
C2027 C2026 1.434 . S
C2028 C2029 1.369 . S
C2028 C2030 1.419 . S
C2028 H2032 0.930 . S
C2029 C2028 1.369 . S
C2029 C2038 1.429 . S
C2030 C2028 1.419 . S
C2030 C2031 1.363 . S
C2030 H2033 0.929 1_545 S
C2031 C2030 1.363 . S
C2031 C2037 1.428 . S
H2032 C2028 0.930 . S
H2033 C2030 0.929 1_565 S
S2034 N2035 1.613 . S
S2034 N2036 1.610 . S
N2035 S2034 1.613 . S
N2035 C2038 1.350 . S
N2036 S2034 1.610 . S
N2036 C2037 1.351 . S
C2037 C2031 1.428 . S
C2037 N2036 1.351 . S
C2037 C2038 1.434 . S
C2038 C2029 1.429 . S
C2038 N2035 1.350 . S
C2038 C2037 1.434 . S
C2039 C2040 1.369 . S
C2039 C2041 1.419 . S
C2039 H2043 0.930 . S
C2040 C2039 1.369 . S
C2040 C2049 1.429 . S
C2041 C2039 1.419 . S
C2041 C2042 1.363 . S
C2041 H2044 0.929 . S
C2042 C2041 1.363 . S
C2042 C2048 1.428 . S
H2043 C2039 0.930 . S
H2044 C2041 0.929 . S
S2045 N2046 1.614 1_455 S
S2045 N2047 1.610 . S
N2046 S2045 1.614 1_655 S
N2046 C2049 1.346 . S
N2047 S2045 1.610 . S
N2047 C2048 1.351 1_455 S
C2048 C2042 1.428 . S
C2048 N2047 1.351 1_655 S
C2048 C2049 1.434 . S
C2049 C2040 1.429 . S
C2049 N2046 1.346 . S
C2049 C2048 1.434 . S
C2050 C2051 1.369 . S
C2050 C2052 1.419 . S
C2050 H2054 0.930 . S
C2051 C2050 1.369 . S
C2051 C2060 1.429 . S
C2052 C2050 1.419 . S
C2052 C2053 1.363 . S
C2052 H2055 0.929 . S
C2053 C2052 1.363 . S
C2053 C2059 1.428 . S
H2054 C2050 0.930 . S
H2055 C2052 0.929 . S
S2056 N2057 1.613 . S
S2056 N2058 1.610 . S
N2057 S2056 1.613 . S
N2057 C2060 1.350 . S
N2058 S2056 1.610 . S
N2058 C2059 1.351 . S
C2059 C2053 1.428 . S
C2059 N2058 1.351 . S
C2059 C2060 1.434 . S
C2060 C2051 1.429 . S
C2060 N2057 1.350 . S
C2060 C2059 1.434 . S
C2061 C2062 1.369 . S
C2061 C2063 1.419 . S
C2061 H2065 0.930 . S
C2062 C2061 1.369 . S
C2062 C2071 1.429 . S
C2063 C2061 1.419 . S
C2063 C2064 1.363 . S
C2063 H2066 0.929 . S
C2064 C2063 1.363 . S
C2064 C2070 1.428 . S
H2065 C2061 0.930 . S
H2066 C2063 0.929 . S
S2067 N2068 1.613 . S
S2067 N2069 1.610 . S
N2068 S2067 1.613 . S
N2068 C2071 1.350 . S
N2069 S2067 1.610 . S
N2069 C2070 1.351 . S
C2070 C2064 1.428 . S
C2070 N2069 1.351 . S
C2070 C2071 1.434 . S
C2071 C2062 1.429 . S
C2071 N2068 1.350 . S
C2071 C2070 1.434 . S
C2072 C2073 1.369 . S
C2072 C2074 1.419 . S
C2072 H2076 0.930 . S
C2073 C2072 1.369 . S
C2073 C2082 1.429 . S
C2074 C2072 1.419 . S
C2074 C2075 1.363 . S
C2074 H2077 0.929 . S
C2075 C2074 1.363 . S
C2075 C2081 1.428 . S
H2076 C2072 0.930 . S
H2077 C2074 0.929 . S
S2078 N2079 1.613 . S
S2078 N2080 1.610 . S
N2079 S2078 1.613 . S
N2079 C2082 1.350 . S
N2080 S2078 1.610 . S
N2080 C2081 1.351 . S
C2081 C2075 1.428 . S
C2081 N2080 1.351 . S
C2081 C2082 1.434 . S
C2082 C2073 1.429 . S
C2082 N2079 1.350 . S
C2082 C2081 1.434 . S
C2083 C2084 1.369 . S
C2083 C2085 1.419 . S
C2083 H2087 0.930 . S
C2084 C2083 1.369 . S
C2084 C2093 1.429 . S
C2085 C2083 1.419 . S
C2085 C2086 1.363 . S
C2085 H2088 0.929 . S
C2086 C2085 1.363 . S
C2086 C2092 1.428 . S
H2087 C2083 0.930 . S
H2088 C2085 0.929 . S
S2089 N2090 1.613 . S
S2089 N2091 1.610 . S
N2090 S2089 1.613 . S
N2090 C2093 1.350 . S
N2091 S2089 1.610 . S
N2091 C2092 1.351 . S
C2092 C2086 1.428 . S
C2092 N2091 1.351 . S
C2092 C2093 1.434 . S
C2093 C2084 1.429 . S
C2093 N2090 1.350 . S
C2093 C2092 1.434 . S
C2094 C2095 1.369 . S
C2094 C2096 1.419 . S
C2094 H2098 0.930 . S
C2095 C2094 1.369 . S
C2095 C2104 1.429 . S
C2096 C2094 1.419 . S
C2096 C2097 1.363 . S
C2096 H2099 0.929 . S
C2097 C2096 1.363 . S
C2097 C2103 1.428 . S
H2098 C2094 0.930 . S
H2099 C2096 0.929 . S
S2100 N2101 1.613 . S
S2100 N2102 1.610 . S
N2101 S2100 1.613 . S
N2101 C2104 1.350 . S
N2102 S2100 1.610 . S
N2102 C2103 1.351 . S
C2103 C2097 1.428 . S
C2103 N2102 1.351 . S
C2103 C2104 1.434 . S
C2104 C2095 1.429 . S
C2104 N2101 1.350 . S
C2104 C2103 1.434 . S
C2105 C2106 1.369 . S
C2105 C2107 1.419 . S
C2105 H2109 0.930 . S
C2106 C2105 1.369 . S
C2106 C2115 1.429 . S
C2107 C2105 1.419 . S
C2107 C2108 1.363 . S
C2107 H2110 0.929 . S
C2108 C2107 1.363 . S
C2108 C2114 1.428 . S
H2109 C2105 0.930 . S
H2110 C2107 0.929 . S
S2111 N2112 1.613 . S
S2111 N2113 1.610 . S
N2112 S2111 1.613 . S
N2112 C2115 1.350 . S
N2113 S2111 1.610 . S
N2113 C2114 1.351 . S
C2114 C2108 1.428 . S
C2114 N2113 1.351 . S
C2114 C2115 1.434 . S
C2115 C2106 1.429 . S
C2115 N2112 1.350 . S
C2115 C2114 1.434 . S
C2116 C2117 1.369 . S
C2116 C2118 1.419 . S
C2116 H2120 0.930 . S
C2117 C2116 1.369 . S
C2117 C2126 1.429 . S
C2118 C2116 1.419 . S
C2118 C2119 1.363 . S
C2118 H2121 0.929 . S
C2119 C2118 1.363 . S
C2119 C2125 1.428 . S
H2120 C2116 0.930 . S
H2121 C2118 0.929 . S
S2122 N2123 1.613 . S
S2122 N2124 1.610 . S
N2123 S2122 1.613 . S
N2123 C2126 1.350 . S
N2124 S2122 1.610 . S
N2124 C2125 1.351 . S
C2125 C2119 1.428 . S
C2125 N2124 1.351 . S
C2125 C2126 1.434 . S
C2126 C2117 1.429 . S
C2126 N2123 1.350 . S
C2126 C2125 1.434 . S
C2127 C2128 1.369 . S
C2127 C2129 1.419 . S
C2127 H2131 0.930 . S
C2128 C2127 1.369 . S
C2128 C2137 1.429 . S
C2129 C2127 1.419 . S
C2129 C2130 1.363 . S
C2129 H2132 0.929 . S
C2130 C2129 1.363 . S
C2130 C2136 1.428 1_655 S
H2131 C2127 0.930 . S
H2132 C2129 0.929 . S
S2133 N2134 1.613 . S
S2133 N2135 1.610 . S
N2134 S2133 1.613 . S
N2134 C2137 1.350 1_455 S
N2135 S2133 1.610 . S
N2135 C2136 1.351 . S
C2136 C2130 1.428 1_455 S
C2136 N2135 1.351 . S
C2136 C2137 1.434 1_455 S
C2137 C2128 1.429 . S
C2137 N2134 1.350 1_655 S
C2137 C2136 1.434 1_655 S
C2138 C2139 1.369 . S
C2138 C2140 1.419 . S
C2138 H2142 0.930 . S
C2139 C2138 1.369 . S
C2139 C2148 1.429 . S
C2140 C2138 1.419 . S
C2140 C2141 1.363 . S
C2140 H2143 0.929 . S
C2141 C2140 1.363 . S
C2141 C2147 1.428 . S
H2142 C2138 0.930 . S
H2143 C2140 0.929 . S
S2144 N2145 1.613 . S
S2144 N2146 1.610 . S
N2145 S2144 1.613 . S
N2145 C2148 1.350 . S
N2146 S2144 1.610 . S
N2146 C2147 1.351 . S
C2147 C2141 1.428 . S
C2147 N2146 1.351 . S
C2147 C2148 1.434 . S
C2148 C2139 1.429 . S
C2148 N2145 1.350 . S
C2148 C2147 1.434 . S
C2149 C2150 1.369 . S
C2149 C2151 1.419 . S
C2149 H2153 0.930 . S
C2150 C2149 1.369 . S
C2150 C2159 1.429 . S
C2151 C2149 1.419 . S
C2151 C2152 1.363 . S
C2151 H2154 0.929 . S
C2152 C2151 1.363 . S
C2152 C2158 1.428 . S
H2153 C2149 0.930 . S
H2154 C2151 0.929 . S
S2155 N2156 1.613 . S
S2155 N2157 1.610 . S
N2156 S2155 1.613 . S
N2156 C2159 1.350 . S
N2157 S2155 1.610 . S
N2157 C2158 1.351 . S
C2158 C2152 1.428 . S
C2158 N2157 1.351 . S
C2158 C2159 1.434 . S
C2159 C2150 1.429 . S
C2159 N2156 1.350 . S
C2159 C2158 1.434 . S
C1369 C13 1.535 . S
C1371 C857 1.554 . S
C1380 C27 1.430 . S
C1382 C901 1.452 . S
C1393 C981 1.567 . S
C1391 C36 1.542 . S
C1402 C41 1.491 . S
C1404 C1025 1.539 . S
C1413 C8 1.630 . S
C1415 C1105 1.653 . S
C1424 C22 1.508 . S
C1426 C1167 1.536 . S
C1435 C55 1.528 . S
C1437 C1087 1.552 . S
C1448 C1149 1.443 . S
C1446 C69 1.429 . S
C1459 C1043 1.605 . S
C1457 C78 1.570 . S
C1468 C83 1.493 . S
C1470 C963 1.509 . S
C1481 C839 1.658 . S
C1479 C50 1.644 . S
C1490 C64 1.507 . S
C1492 C919 1.549 . S
C1501 C97 1.564 . S
C1503 C1229 1.598 . S
C1512 C111 1.438 . S
C1514 C1273 1.483 . S
C1525 C1353 1.592 . S
C1523 C120 1.601 . S
C1534 C125 1.511 . S
C1536 C299 1.549 . S
C1545 C92 1.723 . S
C1547 C343 1.743 . S
C1556 C106 1.546 . S
C1558 C423 1.552 . S
C1567 C139 1.556 . S
C1569 C361 1.618 . S
C1578 C153 1.434 . S
C1580 C405 1.464 . S
C1591 C281 1.598 . S
C1589 C162 1.605 . S
C1602 C1335 1.565 . S
C1600 C167 1.521 . S
C1613 C1211 1.695 . S
C1611 C134 1.721 . S
C1624 C1291 1.570 . S
C1622 C148 1.543 . S
C1633 C181 1.551 . S
C1635 C485 1.587 . S
C1644 C195 1.431 . S
C1646 C547 1.458 . S
C1655 C204 1.597 . S
C1657 C591 1.629 . S
C1666 C209 1.520 . S
C1668 C653 1.592 . S
C1679 C715 1.746 . S
C1677 C176 1.737 . S
C1690 C795 1.552 . S
C1688 C190 1.541 . S
C1701 C733 1.642 . S
C1699 C223 1.566 . S
C1712 C777 1.473 . S
C1710 C237 1.445 . S
C1721 C246 1.593 . S
C1723 C671 1.623 . S
C1734 C609 1.566 . S
C1732 C251 1.515 . S
C1743 C218 1.721 . S
C1745 C467 1.689 . S
C1756 C529 1.562 . S
C1754 C232 1.541 . S
C1767 C305 1.396 . S
C1765 C11 1.464 . S
C1776 C25 1.396 . S
C1778 C349 1.357 . S
C1789 C429 1.348 . S
C1787 C35 1.438 . S
C1800 C491 1.407 . S
C1798 C39 1.483 . S
C1811 C553 1.442 . S
C1809 C7 1.533 1_556 S
C1822 C597 1.392 . S
C1820 C21 1.472 1_556 S
C1831 C53 1.462 1_556 S
C1833 C615 1.427 . S
C1842 C67 1.388 1_556 S
C1844 C473 1.314 . S
C1853 C77 1.419 1_556 S
C1855 C535 1.334 . S
C1864 C81 1.503 . S
C1866 C367 1.459 . S
C1877 C411 1.431 . S
C1875 C49 1.539 . S
C1886 C63 1.471 . S
C1888 C287 1.372 . S
C1899 C659 1.401 . S
C1897 C95 1.458 . S
C1908 C109 1.408 . S
C1910 C721 1.367 . S
C1919 C119 1.482 1_655 S
C1921 C801 1.388 . S
C1932 C863 1.317 . S
C1930 C123 1.394 . S
C1941 C91 1.526 . S
C1943 C907 1.439 . S
C1952 C105 1.394 . S
C1954 C987 1.311 . S
C1963 C137 1.413 . S
C1965 C969 1.333 . S
C1974 C151 1.298 . S
C1976 C845 1.231 . S
C1987 C925 1.367 . S
C1985 C161 1.429 . S
C1996 C165 1.497 . S
C1998 C739 1.448 . S
C2007 C133 1.555 . S
C2009 C783 1.446 . S
C2020 C677 1.423 . S
C2018 C147 1.499 . S
C2031 C1031 1.370 . S
C2029 C179 1.433 . S
C2040 C193 1.287 . S
C2042 C1111 1.224 . S
C2051 C203 1.427 . S
C2053 C1173 1.344 . S
C2064 C1235 1.404 . S
C2062 C207 1.486 . S
C2075 C1279 1.469 . S
C2073 C175 1.556 1_565 S
C2084 C189 1.500 . S
C2086 C1359 1.399 . S
C2095 C221 1.467 . S
C2097 C1341 1.389 . S
C2106 C235 1.408 . S
C2108 C1217 1.337 . S
C2119 C1297 1.394 . S
C2117 C245 1.503 . S
C2130 C1093 1.309 . S
C2128 C249 1.379 . S
C2141 C1155 1.433 . S
C2139 C217 1.528 . S
C2150 C231 1.425 . S
C2152 C1049 1.350 . S
