# Generated by pormake.
# Topology csq, (4,8)-cn, num edge types: 1
# Building blocks:
#     Node 0, Type 0, BuildingBlock: MUDLON_clean_linker_0, # of connection points: 4
#     Node 1, Type 0, BuildingBlock: MUDLON_clean_linker_0, # of connection points: 4
#     Node 2, Type 0, BuildingBlock: MUDLON_clean_linker_0, # of connection points: 4
#     Node 3, Type 0, BuildingBlock: MUDLON_clean_linker_0, # of connection points: 4
#     Node 4, Type 0, BuildingBlock: MUDLON_clean_linker_0, # of connection points: 4
#     Node 5, Type 0, BuildingBlock: MUDLON_clean_linker_0, # of connection points: 4
#     Node 6, Type 1, BuildingBlock: TAGTUT_clean_sbu_1, # of connection points: 8
#     Node 7, Type 1, BuildingBlock: TAGTUT_clean_sbu_1, # of connection points: 8
#     Node 8, Type 1, BuildingBlock: TAGTUT_clean_sbu_1, # of connection points: 8
#     Edge 9, Type (0, 1), BuildingBlock: XUDNAN_clean_linker_2, # of connection points: 2
#     Edge 10, Type (0, 1), BuildingBlock: XUDNAN_clean_linker_2, # of connection points: 2
#     Edge 11, Type (0, 1), BuildingBlock: XUDNAN_clean_linker_2, # of connection points: 2
#     Edge 12, Type (0, 1), BuildingBlock: XUDNAN_clean_linker_2, # of connection points: 2
#     Edge 13, Type (0, 1), BuildingBlock: XUDNAN_clean_linker_2, # of connection points: 2
#     Edge 14, Type (0, 1), BuildingBlock: XUDNAN_clean_linker_2, # of connection points: 2
#     Edge 15, Type (0, 1), BuildingBlock: XUDNAN_clean_linker_2, # of connection points: 2
#     Edge 16, Type (0, 1), BuildingBlock: XUDNAN_clean_linker_2, # of connection points: 2
#     Edge 17, Type (0, 1), BuildingBlock: XUDNAN_clean_linker_2, # of connection points: 2
#     Edge 18, Type (0, 1), BuildingBlock: XUDNAN_clean_linker_2, # of connection points: 2
#     Edge 19, Type (0, 1), BuildingBlock: XUDNAN_clean_linker_2, # of connection points: 2
#     Edge 20, Type (0, 1), BuildingBlock: XUDNAN_clean_linker_2, # of connection points: 2
#     Edge 21, Type (0, 1), BuildingBlock: XUDNAN_clean_linker_2, # of connection points: 2
#     Edge 22, Type (0, 1), BuildingBlock: XUDNAN_clean_linker_2, # of connection points: 2
#     Edge 23, Type (0, 1), BuildingBlock: XUDNAN_clean_linker_2, # of connection points: 2
#     Edge 24, Type (0, 1), BuildingBlock: XUDNAN_clean_linker_2, # of connection points: 2
#     Edge 25, Type (0, 1), BuildingBlock: XUDNAN_clean_linker_2, # of connection points: 2
#     Edge 26, Type (0, 1), BuildingBlock: XUDNAN_clean_linker_2, # of connection points: 2
#     Edge 27, Type (0, 1), BuildingBlock: XUDNAN_clean_linker_2, # of connection points: 2
#     Edge 28, Type (0, 1), BuildingBlock: XUDNAN_clean_linker_2, # of connection points: 2
#     Edge 29, Type (0, 1), BuildingBlock: XUDNAN_clean_linker_2, # of connection points: 2
#     Edge 30, Type (0, 1), BuildingBlock: XUDNAN_clean_linker_2, # of connection points: 2
#     Edge 31, Type (0, 1), BuildingBlock: XUDNAN_clean_linker_2, # of connection points: 2
#     Edge 32, Type (0, 1), BuildingBlock: XUDNAN_clean_linker_2, # of connection points: 2
# Relax obj value: 0.046
# Max RMSD: 0.134
# Mean RMSD: 0.093
data_MOF--net-csq--node1-TAGTUT_clean_sbu_1--node2-MUDLON_clean_linker_0--edge1-XUDNAN_clean_linker_2
_symmetry_space_group_name_H-M    P1
_symmetry_Int_Tables_number       1
_symmetry_cell_setting            triclinic
loop_
_symmetry_equiv_pos_as_xyz
'x, y, z'
_cell_length_a     70.41908
_cell_length_b     69.549122
_cell_length_c     23.672068
_cell_angle_alpha  92.629613
_cell_angle_beta   92.45063
_cell_angle_gamma 119.90693
loop_
_atom_site_label
_atom_site_type_symbol
_atom_site_fract_x
_atom_site_fract_y
_atom_site_fract_z
_atom_type_partial_charge
H0 H 0.34971 0.50983 0.15683 0.0
N1 N 0.3133 0.47086 0.11582 0.0
H2 H 0.37244 0.51595 0.24373 0.0
H3 H 0.30838 0.4411 0.18903 0.0
H4 H 0.33144 0.44686 0.27584 0.0
H5 H 0.31348 0.44011 0.04588 0.0
H6 H 0.33092 0.44525 0.95612 0.0
H7 H 0.33523 0.51008 0.06557 0.0
H8 H 0.3535 0.51556 0.97645 0.0
H9 H 0.31226 0.5043 0.1804 0.0
H10 H 0.27361 0.44714 0.06212 0.0
H11 H 0.27996 0.50701 0.19725 0.0
H12 H 0.24149 0.45098 0.07438 0.0
H13 H 0.18864 0.52325 0.21095 0.0
H14 H 0.17496 0.53183 0.29649 0.0
H15 H 0.14247 0.46247 0.33043 0.0
H16 H 0.15604 0.45407 0.24461 0.0
H17 H 0.14081 0.45635 0.10602 0.0
H18 H 0.12768 0.46499 0.01878 0.0
H19 H 0.18756 0.52881 0.02685 0.0
H20 H 0.19982 0.52051 0.11507 0.0
H21 H 0.22053 0.51669 0.18652 0.0
H22 H 0.25395 0.51573 0.16933 0.0
H23 H 0.21524 0.44415 0.13582 0.0
N24 N 0.17847 0.48169 0.16789 0.0
H25 H 0.18191 0.44588 0.14745 0.0
C26 C 0.32744 0.47488 0.16616 0.0
C27 C 0.34567 0.49596 0.18224 0.0
C28 C 0.35866 0.49944 0.23215 0.0
C29 C 0.35381 0.48189 0.26686 0.0
C30 C 0.33548 0.46083 0.25066 0.0
C31 C 0.32243 0.45742 0.20084 0.0
C32 C 0.32332 0.47468 0.06259 0.0
C33 C 0.32205 0.45658 0.03067 0.0
C34 C 0.33192 0.45954 0.97941 0.0
C35 C 0.34354 0.48081 0.95933 0.0
C36 C 0.34473 0.49902 0.99117 0.0
C37 C 0.33443 0.49594 0.04212 0.0
C38 C 0.29532 0.47509 0.12071 0.0
C39 C 0.29692 0.49248 0.15723 0.0
C40 C 0.27829 0.49417 0.16646 0.0
C41 C 0.25776 0.47897 0.13812 0.0
C42 C 0.25667 0.46252 0.09885 0.0
C43 C 0.27513 0.46047 0.09092 0.0
C44 C 0.17309 0.4879 0.22116 0.0
C45 C 0.17879 0.50996 0.23709 0.0
C46 C 0.17093 0.51483 0.28597 0.0
C47 C 0.15757 0.49781 0.32016 0.0
C48 C 0.1529 0.47599 0.30546 0.0
C49 C 0.16054 0.47113 0.25637 0.0
C50 C 0.17126 0.48762 0.11704 0.0
C51 C 0.15098 0.47222 0.08888 0.0
C52 C 0.14367 0.47712 0.03867 0.0
C53 C 0.15664 0.49756 0.01526 0.0
C54 C 0.17701 0.51301 0.04377 0.0
C55 C 0.18416 0.50817 0.0943 0.0
C56 C 0.19871 0.48136 0.16673 0.0
C57 C 0.2193 0.50087 0.17474 0.0
C58 C 0.23848 0.5002 0.16557 0.0
C59 C 0.2375 0.47988 0.14995 0.0
C60 C 0.21681 0.46026 0.14551 0.0
C61 C 0.19769 0.46109 0.15311 0.0
H62 H 0.71845 0.15465 0.24533 0.0
N63 N 0.7081 0.16791 0.15139 0.0
H64 H 0.69994 0.14679 0.33329 0.0
H65 H 0.67355 0.17392 0.17505 0.0
H66 H 0.65387 0.16467 0.26107 0.0
H67 H 0.71738 0.18019 0.0424 0.0
H68 H 0.69496 0.1615 0.95545 0.0
H69 H 0.66807 0.12968 0.13799 0.0
H70 H 0.64548 0.11163 0.051 0.0
H71 H 0.70363 0.20384 0.13024 0.0
H72 H 0.75084 0.18342 0.17065 0.0
H73 H 0.73346 0.2419 0.12251 0.0
H74 H 0.78083 0.22154 0.16533 0.0
H75 H 0.84607 0.30686 0.19402 0.0
H76 H 0.87607 0.32932 0.26544 0.0
H77 H 0.87835 0.38877 0.20966 0.0
H78 H 0.84744 0.36597 0.14081 0.0
H79 H 0.82754 0.34219 0.01934 0.0
H80 H 0.85423 0.35643 0.94686 0.0
H81 H 0.88928 0.32692 0.02389 0.0
H82 H 0.86308 0.31321 0.09607 0.0
H83 H 0.79283 0.31219 0.15706 0.0
H84 H 0.76268 0.27501 0.17226 0.0
H85 H 0.79796 0.24607 0.09416 0.0
N86 N 0.83033 0.32297 0.11146 0.0
H87 H 0.82793 0.28265 0.08129 0.0
C88 C 0.69712 0.16436 0.20334 0.0
C89 C 0.70448 0.15706 0.24897 0.0
C90 C 0.69374 0.15244 0.29904 0.0
C91 C 0.67506 0.15465 0.30432 0.0
C92 C 0.66828 0.16293 0.25918 0.0
C93 C 0.67939 0.16805 0.20953 0.0
C94 C 0.69405 0.15761 0.09894 0.0
C95 C 0.70146 0.16565 0.04569 0.0
C96 C 0.68862 0.15482 0.99526 0.0
C97 C 0.66824 0.13525 0.99607 0.0
C98 C 0.6611 0.1267 0.0486 0.0
C99 C 0.67396 0.13742 0.09896 0.0
C100 C 0.72516 0.19082 0.15038 0.0
C101 C 0.72045 0.20769 0.13836 0.0
C102 C 0.73754 0.22945 0.13416 0.0
C103 C 0.7596 0.23477 0.14268 0.0
C104 C 0.76409 0.21796 0.15709 0.0
C105 C 0.74703 0.19621 0.16062 0.0
C106 C 0.84438 0.33477 0.16205 0.0
C107 C 0.85246 0.32463 0.19851 0.0
C108 C 0.86997 0.3376 0.23874 0.0
C109 C 0.88003 0.36097 0.24266 0.0
C110 C 0.871 0.37087 0.20845 0.0
C111 C 0.85327 0.35787 0.169 0.0
C112 C 0.84301 0.32638 0.06268 0.0
C113 C 0.84057 0.3382 0.01932 0.0
C114 C 0.8559 0.34646 0.97842 0.0
C115 C 0.87381 0.34279 0.98002 0.0
C116 C 0.87548 0.32975 0.02122 0.0
C117 C 0.86039 0.32181 0.06247 0.0
C118 C 0.81276 0.30057 0.11791 0.0
C119 C 0.794 0.29777 0.14333 0.0
C120 C 0.77676 0.27651 0.15172 0.0
C121 C 0.7779 0.25751 0.1346 0.0
C122 C 0.79667 0.26031 0.10894 0.0
C123 C 0.81394 0.28152 0.10102 0.0
H124 H 0.58786 0.89304 0.02648 0.0
N125 N 0.55907 0.85413 0.06228 0.0
H126 H 0.58351 0.90918 0.94035 0.0
H127 H 0.5296 0.83078 0.97082 0.0
H128 H 0.52569 0.84668 0.88397 0.0
H129 H 0.52004 0.85377 0.04748 0.0
H130 H 0.51007 0.87773 0.09953 0.0
H131 H 0.5777 0.87677 0.16195 0.0
H132 H 0.56662 0.89921 0.21869 0.0
H133 H 0.5807 0.83372 0.03074 0.0
H134 H 0.52094 0.82148 0.1041 0.0
H135 H 0.57017 0.79484 0.03733 0.0
H136 H 0.51128 0.78339 0.11523 0.0
H137 H 0.55467 0.69446 0.09448 0.0
H138 H 0.56306 0.67198 0.0292 0.0
H139 H 0.50328 0.6525 0.92655 0.0
H140 H 0.4944 0.67448 0.99335 0.0
H141 H 0.4886 0.65276 0.11907 0.0
H142 H 0.49641 0.63275 0.1893 0.0
H143 H 0.55183 0.69473 0.2612 0.0
H144 H 0.5446 0.71438 0.18938 0.0
H145 H 0.55732 0.7301 0.10242 0.0
H146 H 0.56733 0.76879 0.09744 0.0
H147 H 0.49851 0.74872 0.07099 0.0
N148 N 0.51548 0.69397 0.09372 0.0
H149 H 0.48874 0.71017 0.08094 0.0
C150 C 0.5592 0.86075 0.00523 0.0
C151 C 0.57466 0.88263 0.99472 0.0
C152 C 0.57203 0.89187 0.94601 0.0
C153 C 0.55414 0.87917 0.90625 0.0
C154 C 0.53963 0.85672 0.9142 0.0
C155 C 0.54198 0.84759 0.96359 0.0
C156 C 0.55009 0.86401 0.09992 0.0
C157 C 0.53033 0.86364 0.08477 0.0
C158 C 0.52448 0.87726 0.11528 0.0
C159 C 0.53776 0.891 0.16293 0.0
C160 C 0.5564 0.88966 0.18096 0.0
C161 C 0.56261 0.87652 0.14928 0.0
C162 C 0.55188 0.83083 0.06699 0.0
C163 C 0.56543 0.82271 0.04879 0.0
C164 C 0.55946 0.80047 0.05329 0.0
C165 C 0.53991 0.78579 0.07744 0.0
C166 C 0.52628 0.79394 0.09557 0.0
C167 C 0.53199 0.81606 0.08974 0.0
C168 C 0.52365 0.68589 0.04908 0.0
C169 C 0.54362 0.68593 0.0572 0.0
C170 C 0.54841 0.67303 0.02007 0.0
C171 C 0.5337 0.66051 0.97348 0.0
C172 C 0.51485 0.66215 0.96229 0.0
C173 C 0.50981 0.67468 0.00014 0.0
C174 C 0.5162 0.68499 0.14728 0.0
C175 C 0.50199 0.66214 0.1512 0.0
C176 C 0.50657 0.65069 0.19152 0.0
C177 C 0.52525 0.66199 0.22995 0.0
C178 C 0.53783 0.68533 0.23074 0.0
C179 C 0.5335 0.69673 0.18963 0.0
C180 C 0.52215 0.71722 0.09344 0.0
C181 C 0.54436 0.73405 0.09685 0.0
C182 C 0.55008 0.75626 0.09298 0.0
C183 C 0.53379 0.76213 0.0836 0.0
C184 C 0.51159 0.74512 0.07957 0.0
C185 C 0.50591 0.723 0.08492 0.0
H186 H 0.86837 0.56092 0.14703 0.0
N187 N 0.84369 0.53 0.06482 0.0
H188 H 0.88053 0.55548 0.24041 0.0
H189 H 0.83601 0.49034 0.10267 0.0
H190 H 0.84789 0.48468 0.19581 0.0
H191 H 0.82794 0.48949 0.00616 0.0
H192 H 0.84288 0.48189 0.92135 0.0
H193 H 0.8752 0.55932 0.00634 0.0
H194 H 0.88964 0.55204 0.92056 0.0
H195 H 0.83675 0.56339 0.04665 0.0
H196 H 0.80378 0.49439 0.08166 0.0
H197 H 0.80299 0.56448 0.05832 0.0
H198 H 0.77022 0.49549 0.09687 0.0
H199 H 0.69579 0.56352 0.17769 0.0
H200 H 0.6754 0.55488 0.26226 0.0
H201 H 0.67676 0.49341 0.26569 0.0
H202 H 0.69585 0.50165 0.17862 0.0
H203 H 0.67366 0.49931 0.07578 0.0
H204 H 0.65117 0.49325 0.98739 0.0
H205 H 0.68914 0.56333 0.96307 0.0
H206 H 0.71206 0.56913 0.05045 0.0
H207 H 0.75021 0.56861 0.14939 0.0
H208 H 0.78253 0.56532 0.13319 0.0
H209 H 0.74034 0.49824 0.05817 0.0
N210 N 0.70847 0.53888 0.12014 0.0
H211 H 0.70826 0.50133 0.07767 0.0
C212 C 0.85158 0.52616 0.11774 0.0
C213 C 0.86402 0.54428 0.15746 0.0
C214 C 0.87068 0.54108 0.21091 0.0
C215 C 0.86501 0.51961 0.22565 0.0
C216 C 0.85262 0.50143 0.18557 0.0
C217 C 0.84588 0.50466 0.13215 0.0
C218 C 0.85081 0.52497 0.01298 0.0
C219 C 0.84151 0.50316 0.98798 0.0
C220 C 0.84996 0.49886 0.93942 0.0
C221 C 0.86738 0.5164 0.9144 0.0
C222 C 0.87608 0.53824 0.93858 0.0
C223 C 0.86794 0.54242 0.98757 0.0
C224 C 0.82278 0.52895 0.06367 0.0
C225 C 0.82209 0.54843 0.05638 0.0
C226 C 0.80286 0.54906 0.064 0.0
C227 C 0.78393 0.53022 0.07994 0.0
C228 C 0.7844 0.51032 0.08453 0.0
C229 C 0.80362 0.50965 0.07605 0.0
C230 C 0.69752 0.53342 0.17204 0.0
C231 C 0.69173 0.54823 0.19699 0.0
C232 C 0.68025 0.54332 0.24586 0.0
C233 C 0.67449 0.52348 0.27174 0.0
C234 C 0.68061 0.50872 0.2469 0.0
C235 C 0.69177 0.5135 0.19721 0.0
C236 C 0.69465 0.5347 0.06919 0.0
C237 C 0.67734 0.51328 0.05096 0.0
C238 C 0.66456 0.50983 0.00054 0.0
C239 C 0.6686 0.52782 0.96843 0.0
C240 C 0.68577 0.54921 0.98708 0.0
C241 C 0.69878 0.55255 0.0368 0.0
C242 C 0.72688 0.53543 0.11434 0.0
C243 C 0.74802 0.55313 0.13015 0.0
C244 C 0.76645 0.55128 0.12007 0.0
C245 C 0.76414 0.53164 0.09321 0.0
C246 C 0.74282 0.51359 0.07903 0.0
C247 C 0.72437 0.5154 0.08983 0.0
H248 H 0.16071 0.67979 0.13678 0.0
N249 N 0.16692 0.72048 0.11062 0.0
H250 H 0.13686 0.657 0.20583 0.0
H251 H 0.15285 0.73468 0.19675 0.0
H252 H 0.13041 0.71257 0.27049 0.0
H253 H 0.12825 0.71095 0.06222 0.0
H254 H 0.10498 0.67989 0.9927 0.0
H255 H 0.18138 0.69765 0.04238 0.0
H256 H 0.15848 0.66712 0.97281 0.0
H257 H 0.19869 0.70969 0.13675 0.0
H258 H 0.18822 0.76335 0.09351 0.0
H259 H 0.23814 0.73403 0.13623 0.0
H260 H 0.22784 0.78855 0.09753 0.0
H261 H 0.3616 0.82112 0.1809 0.0
H262 H 0.37889 0.84379 0.27053 0.0
H263 H 0.33894 0.87445 0.25111 0.0
H264 H 0.32116 0.85115 0.16259 0.0
H265 H 0.3332 0.85814 0.07173 0.0
H266 H 0.34759 0.87344 0.98243 0.0
H267 H 0.36282 0.82132 0.94831 0.0
H268 H 0.34784 0.80563 0.03792 0.0
H269 H 0.30916 0.78672 0.17696 0.0
H270 H 0.26965 0.76295 0.18137 0.0
H271 H 0.25851 0.79808 0.04954 0.0
N272 N 0.33027 0.82056 0.11323 0.0
H273 H 0.29753 0.82266 0.04881 0.0
C274 C 0.15806 0.70885 0.16048 0.0
C275 C 0.15444 0.68724 0.16616 0.0
C276 C 0.1408 0.67417 0.20643 0.0
C277 C 0.13105 0.68262 0.24324 0.0
C278 C 0.13682 0.70511 0.2415 0.0
C279 C 0.14996 0.71797 0.20004 0.0
C280 C 0.15651 0.7067 0.05847 0.0
C281 C 0.13517 0.70192 0.0414 0.0
C282 C 0.12188 0.6841 0.00185 0.0
C283 C 0.12977 0.67075 0.97835 0.0
C284 C 0.15178 0.67677 0.9914 0.0
C285 C 0.16504 0.69454 0.03103 0.0
C286 C 0.19046 0.73465 0.11394 0.0
C287 C 0.2049 0.72681 0.12761 0.0
C288 C 0.2276 0.74093 0.12799 0.0
C289 C 0.23643 0.76339 0.11647 0.0
C290 C 0.22183 0.77129 0.10498 0.0
C291 C 0.19914 0.75699 0.1032 0.0
C292 C 0.34046 0.83473 0.16467 0.0
C293 C 0.35663 0.83276 0.19607 0.0
C294 C 0.36632 0.84555 0.24728 0.0
C295 C 0.36018 0.8608 0.26763 0.0
C296 C 0.34402 0.86289 0.23608 0.0
C297 C 0.33403 0.84976 0.18532 0.0
C298 C 0.33931 0.83056 0.06154 0.0
C299 C 0.33962 0.84994 0.04542 0.0
C300 C 0.34769 0.8586 0.99403 0.0
C301 C 0.35609 0.8484 0.95832 0.0
C302 C 0.35634 0.82942 0.97505 0.0
C303 C 0.34784 0.82049 0.02603 0.0
C304 C 0.30666 0.80651 0.1126 0.0
C305 C 0.29813 0.78932 0.14925 0.0
C306 C 0.27547 0.7756 0.15129 0.0
C307 C 0.26066 0.7784 0.11562 0.0
C308 C 0.26924 0.79558 0.0786 0.0
C309 C 0.29188 0.80965 0.07763 0.0
H310 H 0.49505 0.31726 0.09425 0.0
N311 N 0.45607 0.28908 0.13979 0.0
H312 H 0.50029 0.34628 0.03283 0.0
H313 H 0.42489 0.29005 0.07473 0.0
H314 H 0.43016 0.31913 0.0118 0.0
H315 H 0.42908 0.29491 0.20499 0.0
H316 H 0.43906 0.32292 0.28345 0.0
H317 H 0.49745 0.3168 0.18921 0.0
H318 H 0.5079 0.34684 0.26046 0.0
H319 H 0.47935 0.27854 0.06285 0.0
H320 H 0.44876 0.26167 0.22154 0.0
H321 H 0.4938 0.25383 0.07696 0.0
H322 H 0.46258 0.23621 0.23429 0.0
H323 H 0.54287 0.17625 0.15238 0.0
H324 H 0.5353 0.14216 0.09859 0.0
H325 H 0.46561 0.1188 0.09544 0.0
H326 H 0.47346 0.15228 0.15288 0.0
H327 H 0.47572 0.16776 0.25415 0.0
H328 H 0.46684 0.14479 0.3337 0.0
H329 H 0.53192 0.15246 0.33851 0.0
H330 H 0.5413 0.17775 0.26446 0.0
H331 H 0.49801 0.19069 0.09653 0.0
H332 H 0.48333 0.21501 0.08002 0.0
H333 H 0.49825 0.23927 0.25656 0.0
N334 N 0.5139 0.18457 0.19942 0.0
H335 H 0.5125 0.21449 0.27392 0.0
C336 C 0.45943 0.30136 0.08984 0.0
C337 C 0.48067 0.31701 0.07552 0.0
C338 C 0.48371 0.33372 0.0404 0.0
C339 C 0.46566 0.33515 0.01854 0.0
C340 C 0.44436 0.31836 0.02813 0.0
C341 C 0.44132 0.30167 0.06372 0.0
C342 C 0.46244 0.30414 0.19014 0.0
C343 C 0.44628 0.30597 0.21825 0.0
C344 C 0.45215 0.32238 0.26252 0.0
C345 C 0.47444 0.33797 0.27823 0.0
C346 C 0.49056 0.33535 0.25107 0.0
C347 C 0.48462 0.31832 0.2088 0.0
C348 C 0.46389 0.27332 0.14309 0.0
C349 C 0.47594 0.27001 0.10131 0.0
C350 C 0.48397 0.25541 0.10882 0.0
C351 C 0.47981 0.24344 0.15746 0.0
C352 C 0.46672 0.24572 0.19726 0.0
C353 C 0.45874 0.26025 0.18985 0.0
C354 C 0.50885 0.16694 0.15629 0.0
C355 C 0.52601 0.16395 0.13888 0.0
C356 C 0.52159 0.14438 0.10809 0.0
C357 C 0.49978 0.12745 0.09304 0.0
C358 C 0.48258 0.13111 0.10755 0.0
C359 C 0.48703 0.15046 0.13953 0.0
C360 C 0.50938 0.17476 0.25347 0.0
C361 C 0.48837 0.16527 0.27412 0.0
C362 C 0.48313 0.15155 0.31905 0.0
C363 C 0.49831 0.1459 0.34248 0.0
C364 C 0.51963 0.15634 0.3232 0.0
C365 C 0.52514 0.17088 0.28021 0.0
C366 C 0.50486 0.19901 0.188 0.0
C367 C 0.49759 0.20055 0.13261 0.0
C368 C 0.48949 0.21491 0.12264 0.0
C369 C 0.48905 0.22866 0.16723 0.0
C370 C 0.49758 0.22827 0.22164 0.0
C371 C 0.50568 0.21395 0.23162 0.0
C372 C 0.99407 0.44672 0.76646 0.0
C373 C 0.05907 0.49476 0.71908 0.0
C374 C 0.0285 0.55047 0.70143 0.0
Mg375 Mg 0.01519 0.46228 0.65299 0.0
O376 O 0.00467 0.48206 0.66717 0.0
Mg377 Mg 0.01508 0.50082 0.74082 0.0
Mg378 Mg 0.01073 0.50565 0.6146 0.0
O379 O 0.01695 0.5293 0.56226 0.0
Mg380 Mg 0.00695 0.54926 0.57861 0.0
Mg381 Mg 0.00567 0.51045 0.48882 0.0
C382 C 0.9947 0.46163 0.52811 0.0
C383 C 0.04995 0.5109 0.53541 0.0
O384 O 0.99984 0.46698 0.78225 0.0
O385 O 0.998 0.44103 0.71798 0.0
O386 O 0.04863 0.50307 0.74304 0.0
O387 O 0.04983 0.47892 0.6801 0.0
O388 O 0.00254 0.45332 0.56349 0.0
O389 O 0.9938 0.47932 0.54114 0.0
C390 C 0.97108 0.50039 0.69278 0.0
O391 O 0.97819 0.50346 0.64289 0.0
O392 O 0.98206 0.49872 0.73476 0.0
O393 O 0.02044 0.54425 0.44664 0.0
O394 O 0.02204 0.57002 0.51133 0.0
O395 O 0.9721 0.50884 0.48807 0.0
C396 C 0.02547 0.56431 0.4623 0.0
O397 O 0.97224 0.53235 0.55558 0.0
O398 O 0.02126 0.55943 0.66652 0.0
C399 C 0.96231 0.51735 0.51488 0.0
O400 O 0.02752 0.53184 0.68828 0.0
O401 O 0.04326 0.50799 0.58579 0.0
O402 O 0.03858 0.51233 0.49393 0.0
C403 C 0.48367 0.00891 0.83028 0.0
C404 C 0.45166 0.95194 0.71013 0.0
C405 C 0.53173 0.97348 0.64895 0.0
Mg406 Mg 0.46988 0.00183 0.70114 0.0
O407 O 0.49882 0.00721 0.70147 0.0
Mg408 Mg 0.50621 0.98711 0.74388 0.0
Mg409 Mg 0.50973 0.00481 0.6273 0.0
O410 O 0.52019 0.00223 0.55244 0.0
Mg411 Mg 0.54818 0.00587 0.54808 0.0
Mg412 Mg 0.51264 0.02215 0.51033 0.0
C413 C 0.48592 0.03368 0.59928 0.0
C414 C 0.46737 0.97768 0.53548 0.0
O415 O 0.49605 0.00042 0.82272 0.0
O416 O 0.47252 0.0113 0.78979 0.0
O417 O 0.47089 0.95716 0.73052 0.0
O418 O 0.44771 0.96644 0.69012 0.0
O419 O 0.47147 0.02385 0.63517 0.0
O420 O 0.5026 0.03103 0.59522 0.0
C421 C 0.55176 0.03146 0.71993 0.0
O422 O 0.54413 0.0311 0.66934 0.0
O423 O 0.54046 0.01678 0.75378 0.0
O424 O 0.52154 0.00863 0.42969 0.0
O425 O 0.54447 0.99666 0.45923 0.0
O426 O 0.54842 0.05184 0.52368 0.0
C427 C 0.53317 0.99945 0.42 0.0
O428 O 0.57112 0.04095 0.55961 0.0
O429 O 0.54492 0.982 0.60963 0.0
C430 C 0.56757 0.05611 0.54248 0.0
O431 O 0.51689 0.97852 0.65917 0.0
O432 O 0.4755 0.97849 0.58574 0.0
O433 O 0.47814 0.99236 0.50104 0.0
C434 C 0.54769 0.55911 0.45367 0.0
C435 C 0.57318 0.52049 0.532 0.0
C436 C 0.49042 0.45816 0.5449 0.0
Mg437 Mg 0.55626 0.55094 0.57744 0.0
O438 O 0.52691 0.528 0.56119 0.0
Mg439 Mg 0.52066 0.50653 0.49425 0.0
Mg440 Mg 0.51199 0.50629 0.61881 0.0
O441 O 0.49751 0.48463 0.67638 0.0
Mg442 Mg 0.46897 0.46029 0.66014 0.0
Mg443 Mg 0.50332 0.50594 0.74345 0.0
C444 C 0.53508 0.55398 0.69329 0.0
C445 C 0.55 0.51134 0.71142 0.0
O446 O 0.53481 0.53804 0.4424 0.0
O447 O 0.55751 0.56772 0.50275 0.0
O448 O 0.5544 0.50926 0.50465 0.0
O449 O 0.57782 0.53716 0.5666 0.0
O450 O 0.55072 0.56279 0.65984 0.0
O451 O 0.51824 0.53442 0.68265 0.0
C452 C 0.47467 0.50284 0.52568 0.0
O453 O 0.47936 0.50277 0.57874 0.0
O454 O 0.48768 0.50404 0.48823 0.0
O455 O 0.48966 0.47468 0.79559 0.0
O456 O 0.46888 0.4442 0.73604 0.0
O457 O 0.46843 0.50124 0.73321 0.0
C458 C 0.47795 0.45342 0.78547 0.0
O459 O 0.44656 0.4728 0.67048 0.0
O460 O 0.47464 0.44849 0.57756 0.0
C461 C 0.44979 0.48887 0.70559 0.0
O462 O 0.50602 0.4783 0.55577 0.0
O463 O 0.54439 0.50979 0.65836 0.0
O464 O 0.53732 0.51028 0.74977 0.0
H465 H 0.13678 0.52208 0.32034 0.0
H466 H 0.15319 0.48256 0.42673 0.0
H467 H 0.13109 0.48594 0.501 0.0
H468 H 0.1348 0.55922 0.43665 0.0
H469 H 0.11173 0.55911 0.40024 0.0
H470 H 0.13172 0.55665 0.36022 0.0
H471 H 0.10065 0.52011 0.30772 0.0
H472 H 0.08068 0.52245 0.34766 0.0
H473 H 0.08263 0.49759 0.3484 0.0
H474 H 0.10362 0.49024 0.5592 0.0
H475 H 0.0724 0.49354 0.59243 0.0
H476 H 0.07424 0.52988 0.44684 0.0
C477 C 0.13638 0.51481 0.36008 0.0
C478 C 0.14691 0.50227 0.36801 0.0
C479 C 0.14528 0.49229 0.41981 0.0
C480 C 0.13288 0.49423 0.46236 0.0
C481 C 0.12223 0.50628 0.45258 0.0
C482 C 0.12397 0.51647 0.40267 0.0
C483 C 0.10914 0.52639 0.3996 0.0
C484 C 0.12266 0.55186 0.39918 0.0
C485 C 0.09228 0.516 0.34781 0.0
C486 C 0.09823 0.51955 0.45458 0.0
C487 C 0.10622 0.50834 0.48527 0.0
C488 C 0.09747 0.49928 0.53583 0.0
C489 C 0.07977 0.50127 0.55459 0.0
C490 C 0.07083 0.51191 0.52234 0.0
C491 C 0.08068 0.52163 0.4726 0.0
H492 H 0.66781 0.11919 0.365 0.0
H493 H 0.65156 0.17164 0.35693 0.0
H494 H 0.62599 0.15521 0.43173 0.0
H495 H 0.61686 0.0766 0.37878 0.0
H496 H 0.62479 0.06225 0.42759 0.0
H497 H 0.64401 0.08004 0.38005 0.0
H498 H 0.67206 0.10267 0.4654 0.0
H499 H 0.65278 0.08488 0.51342 0.0
H500 H 0.6641 0.11458 0.52248 0.0
H501 H 0.59763 0.12931 0.49508 0.0
H502 H 0.56986 0.09667 0.54094 0.0
H503 H 0.60725 0.06349 0.51334 0.0
C504 C 0.65964 0.12787 0.38029 0.0
C505 C 0.66184 0.14679 0.35466 0.0
C506 C 0.65003 0.15696 0.37503 0.0
C507 C 0.63563 0.1479 0.41812 0.0
C508 C 0.63356 0.12895 0.44145 0.0
C509 C 0.64553 0.11929 0.42371 0.0
C510 C 0.639 0.09792 0.45153 0.0
C511 C 0.63066 0.07805 0.40683 0.0
C512 C 0.65813 0.10016 0.49054 0.0
C513 C 0.62067 0.09641 0.48552 0.0
C514 C 0.61788 0.11458 0.47981 0.0
C515 C 0.60006 0.11533 0.50117 0.0
C516 C 0.58433 0.09674 0.52704 0.0
C517 C 0.58658 0.07772 0.53129 0.0
C518 C 0.60549 0.07808 0.51248 0.0
H519 H 0.50028 0.6225 0.27964 0.0
H520 H 0.56779 0.67226 0.25576 0.0
H521 H 0.58077 0.65031 0.30587 0.0
H522 H 0.51062 0.60946 0.41694 0.0
H523 H 0.49163 0.58004 0.40612 0.0
H524 H 0.48658 0.59914 0.36835 0.0
H525 H 0.48461 0.57919 0.2723 0.0
H526 H 0.48913 0.5593 0.30783 0.0
H527 H 0.50699 0.57496 0.25466 0.0
H528 H 0.58667 0.62368 0.36137 0.0
H529 H 0.58468 0.59401 0.41923 0.0
H530 H 0.51359 0.55984 0.39834 0.0
C531 C 0.51779 0.62879 0.28456 0.0
C532 C 0.53295 0.64933 0.26403 0.0
C533 C 0.55577 0.65694 0.27227 0.0
C534 C 0.56335 0.64442 0.30004 0.0
C535 C 0.54796 0.62415 0.31878 0.0
C536 C 0.52566 0.61634 0.31142 0.0
C537 C 0.5126 0.59406 0.33606 0.0
C538 C 0.49958 0.59578 0.38471 0.0
C539 C 0.49744 0.57581 0.28995 0.0
C540 C 0.53106 0.59051 0.35799 0.0
C541 C 0.55135 0.60817 0.34807 0.0
C542 C 0.5709 0.60956 0.36849 0.0
C543 C 0.56964 0.59265 0.40097 0.0
C544 C 0.54903 0.57447 0.41148 0.0
C545 C 0.52954 0.57319 0.38889 0.0
H546 H 0.88282 0.4935 0.24805 0.0
H547 H 0.86558 0.5392 0.32961 0.0
H548 H 0.88283 0.53737 0.42079 0.0
H549 H 0.87676 0.46021 0.37374 0.0
H550 H 0.90019 0.45752 0.35912 0.0
H551 H 0.88328 0.45864 0.30144 0.0
H552 H 0.91653 0.49192 0.26357 0.0
H553 H 0.93434 0.49116 0.31871 0.0
H554 H 0.93374 0.51644 0.31032 0.0
H555 H 0.90693 0.53524 0.49845 0.0
H556 H 0.93747 0.53507 0.55293 0.0
H557 H 0.9384 0.49018 0.42104 0.0
C558 C 0.88194 0.50246 0.28554 0.0
C559 C 0.87278 0.5164 0.28182 0.0
C560 C 0.87261 0.52848 0.33147 0.0
C561 C 0.88216 0.52735 0.38357 0.0
C562 C 0.8916 0.51388 0.38547 0.0
C563 C 0.89143 0.50155 0.33772 0.0
C564 C 0.90507 0.49068 0.34893 0.0
C565 C 0.89044 0.46525 0.34554 0.0
C566 C 0.9235 0.49799 0.308 0.0
C567 C 0.9141 0.49993 0.40929 0.0
C568 C 0.90566 0.51277 0.43027 0.0
C569 C 0.91331 0.52487 0.48291 0.0
C570 C 0.9307 0.52466 0.51363 0.0
C571 C 0.94044 0.51266 0.49121 0.0
C572 C 0.93122 0.49933 0.43968 0.0
H573 H 0.3801 0.90595 0.28263 0.0
H574 H 0.36603 0.84762 0.37098 0.0
H575 H 0.38759 0.87175 0.45686 0.0
H576 H 0.43451 0.93676 0.33255 0.0
H577 H 0.43564 0.96325 0.33783 0.0
H578 H 0.41605 0.94139 0.28769 0.0
H579 H 0.38442 0.9443 0.33198 0.0
H580 H 0.40401 0.96618 0.38255 0.0
H581 H 0.38127 0.94167 0.40689 0.0
H582 H 0.41392 0.90247 0.52951 0.0
H583 H 0.445 0.93663 0.57842 0.0
H584 H 0.44227 0.97455 0.44089 0.0
C585 C 0.38102 0.89829 0.32069 0.0
C586 C 0.37122 0.87499 0.32068 0.0
C587 C 0.37338 0.86549 0.37046 0.0
C588 C 0.38544 0.87904 0.41944 0.0
C589 C 0.39528 0.90205 0.41782 0.0
C590 C 0.39324 0.91158 0.36956 0.0
C591 C 0.40754 0.93664 0.3761 0.0
C592 C 0.42443 0.94498 0.33089 0.0
C593 C 0.39346 0.94786 0.37429 0.0
C594 C 0.41849 0.9397 0.43479 0.0
C595 C 0.41089 0.91966 0.45884 0.0
C596 C 0.41978 0.91829 0.51137 0.0
C597 C 0.43739 0.9378 0.53898 0.0
C598 C 0.4461 0.95825 0.51344 0.0
C599 C 0.43595 0.9592 0.46166 0.0
H600 H 0.45018 0.35797 0.30903 0.0
H601 H 0.51339 0.36225 0.34638 0.0
H602 H 0.52529 0.39612 0.40769 0.0
H603 H 0.4674 0.4157 0.31644 0.0
H604 H 0.44457 0.41276 0.35445 0.0
H605 H 0.44141 0.39008 0.30736 0.0
H606 H 0.42871 0.36379 0.38901 0.0
H607 H 0.43143 0.38626 0.43602 0.0
H608 H 0.44577 0.37175 0.45447 0.0
H609 H 0.53114 0.43047 0.46227 0.0
H610 H 0.52757 0.45774 0.52466 0.0
H611 H 0.45874 0.42726 0.46637 0.0
C612 C 0.46644 0.36558 0.33033 0.0
C613 C 0.48094 0.35736 0.32044 0.0
C614 C 0.50211 0.36844 0.35007 0.0
C615 C 0.50908 0.38775 0.38571 0.0
C616 C 0.49451 0.39549 0.39315 0.0
C617 C 0.47339 0.38435 0.36793 0.0
C618 C 0.46019 0.39479 0.38807 0.0
C619 C 0.45297 0.40387 0.33862 0.0
C620 C 0.44036 0.37816 0.41873 0.0
C621 C 0.47724 0.4135 0.42879 0.0
C622 C 0.49713 0.41401 0.42954 0.0
C623 C 0.51561 0.43012 0.46252 0.0
C624 C 0.51348 0.44563 0.49736 0.0
C625 C 0.4929 0.44448 0.50004 0.0
C626 C 0.47462 0.42841 0.46485 0.0
H627 H 0.54864 0.91525 0.91393 0.0
H628 H 0.54923 0.86681 0.79314 0.0
H629 H 0.54201 0.88506 0.71416 0.0
H630 H 0.50419 0.91842 0.838 0.0
H631 H 0.51596 0.94778 0.85658 0.0
H632 H 0.52099 0.93085 0.9035 0.0
H633 H 0.56299 0.95699 0.90068 0.0
H634 H 0.55808 0.97401 0.85388 0.0
H635 H 0.57488 0.96244 0.83319 0.0
H636 H 0.5376 0.91 0.64927 0.0
H637 H 0.5337 0.93873 0.60122 0.0
H638 H 0.53306 0.96952 0.76405 0.0
C639 C 0.54727 0.90858 0.87074 0.0
C640 C 0.54969 0.88984 0.85908 0.0
C641 C 0.54747 0.88121 0.80246 0.0
C642 C 0.54338 0.89145 0.7576 0.0
C643 C 0.54116 0.90997 0.77045 0.0
C644 C 0.54277 0.91832 0.82561 0.0
C645 C 0.53953 0.93833 0.82775 0.0
C646 C 0.51894 0.93355 0.85827 0.0
C647 C 0.56009 0.95917 0.85551 0.0
C648 C 0.53633 0.94023 0.76503 0.0
C649 C 0.53744 0.92373 0.73285 0.0
C650 C 0.53637 0.92277 0.67392 0.0
C651 C 0.53423 0.93917 0.6471 0.0
C652 C 0.53286 0.95606 0.67912 0.0
C653 C 0.53364 0.95647 0.73879 0.0
H654 H 0.64612 0.54939 0.94829 0.0
H655 H 0.65792 0.49839 0.87528 0.0
H656 H 0.63228 0.49221 0.7921 0.0
H657 H 0.58982 0.52047 0.91351 0.0
H658 H 0.58787 0.54475 0.90005 0.0
H659 H 0.60947 0.54721 0.94843 0.0
H660 H 0.63843 0.5774 0.88982 0.0
H661 H 0.61682 0.57486 0.84091 0.0
H662 H 0.63865 0.57126 0.8151 0.0
H663 H 0.60339 0.49034 0.71939 0.0
H664 H 0.57082 0.4895 0.6716 0.0
H665 H 0.57715 0.54017 0.79677 0.0
C666 C 0.64367 0.5373 0.91408 0.0
C667 C 0.65415 0.52459 0.91742 0.0
C668 C 0.65007 0.50837 0.87299 0.0
C669 C 0.6357 0.50489 0.82556 0.0
C670 C 0.62548 0.51766 0.82365 0.0
C671 C 0.62917 0.53339 0.86718 0.0
C672 C 0.61439 0.54313 0.85869 0.0
C673 C 0.59951 0.5386 0.90807 0.0
C674 C 0.62788 0.56815 0.85064 0.0
C675 C 0.60138 0.53008 0.80435 0.0
C676 C 0.60831 0.51586 0.78373 0.0
C677 C 0.59795 0.50152 0.73498 0.0
C678 C 0.57959 0.50121 0.70794 0.0
C679 C 0.57165 0.51476 0.73079 0.0
C680 C 0.58304 0.52972 0.77851 0.0
H681 H 0.09791 0.66309 0.8948 0.0
H682 H 0.12723 0.63046 0.98628 0.0
H683 H 0.10173 0.59493 0.9317 0.0
H684 H 0.04138 0.61632 0.88517 0.0
H685 H 0.03529 0.62162 0.81478 0.0
H686 H 0.05506 0.64429 0.86322 0.0
H687 H 0.08442 0.6553 0.78986 0.0
H688 H 0.06469 0.63284 0.74111 0.0
H689 H 0.09058 0.63473 0.76121 0.0
H690 H 0.07432 0.56341 0.86417 0.0
H691 H 0.04869 0.53894 0.7844 0.0
H692 H 0.0367 0.59194 0.73874 0.0
C693 C 0.0988 0.64842 0.90376 0.0
C694 C 0.11463 0.64958 0.94453 0.0
C695 C 0.11547 0.63006 0.95451 0.0
C696 C 0.10089 0.60973 0.92425 0.0
C697 C 0.08546 0.60916 0.88443 0.0
C698 C 0.08435 0.62799 0.87399 0.0
C699 C 0.06702 0.62313 0.82683 0.0
C700 C 0.0486 0.62654 0.84884 0.0
C701 C 0.0773 0.63734 0.7768 0.0
C702 C 0.05893 0.59877 0.81151 0.0
C703 C 0.06956 0.59094 0.84569 0.0
C704 C 0.0657 0.56928 0.83749 0.0
C705 C 0.05105 0.55546 0.79205 0.0
C706 C 0.04059 0.56342 0.75518 0.0
C707 C 0.0442 0.58519 0.76631 0.0
H708 H 0.52378 0.11991 0.01503 0.0
H709 H 0.46501 0.08563 0.10642 0.0
H710 H 0.45662 0.05006 0.05697 0.0
H711 H 0.50289 0.0895 0.88589 0.0
H712 H 0.52745 0.08893 0.8703 0.0
H713 H 0.52939 0.11138 0.91565 0.0
H714 H 0.55026 0.10287 0.99449 0.0
H715 H 0.54819 0.0802 0.94935 0.0
H716 H 0.53799 0.07529 0.01888 0.0
H717 H 0.45225 0.01906 0.98881 0.0
H718 H 0.45302 0.99535 0.90834 0.0
H719 H 0.51655 0.04891 0.87062 0.0
C720 C 0.50941 0.10494 0.02592 0.0
C721 C 0.49501 0.10579 0.06447 0.0
C722 C 0.4761 0.08567 0.07609 0.0
C723 C 0.47133 0.06526 0.04885 0.0
C724 C 0.48587 0.0651 0.01108 0.0
C725 C 0.50466 0.08439 0.00013 0.0
C726 C 0.51713 0.07991 0.95588 0.0
C727 C 0.51932 0.09321 0.90387 0.0
C728 C 0.53973 0.08486 0.98118 0.0
C729 C 0.50196 0.05523 0.94198 0.0
C730 C 0.48405 0.0469 0.97448 0.0
C731 C 0.46651 0.02515 0.96438 0.0
C732 C 0.46709 0.01178 0.91897 0.0
C733 C 0.48522 0.0202 0.88531 0.0
C734 C 0.50303 0.04192 0.89775 0.0
H735 H 0.38658 0.51026 0.94406 0.0
H736 H 0.32659 0.45717 0.85656 0.0
H737 H 0.34683 0.4585 0.77264 0.0
H738 H 0.41246 0.54056 0.81521 0.0
H739 H 0.43937 0.54671 0.84232 0.0
H740 H 0.41946 0.54473 0.89064 0.0
H741 H 0.42379 0.51493 0.94239 0.0
H742 H 0.44367 0.51689 0.89448 0.0
H743 H 0.41966 0.49031 0.90217 0.0
H744 H 0.37436 0.46175 0.70433 0.0
H745 H 0.40691 0.46502 0.66041 0.0
H746 H 0.44917 0.51595 0.79246 0.0
C747 C 0.37761 0.49952 0.90639 0.0
C748 C 0.355 0.48381 0.90641 0.0
C749 C 0.3439 0.46941 0.85719 0.0
C750 C 0.35524 0.47015 0.80924 0.0
C751 C 0.37769 0.48542 0.81104 0.0
C752 C 0.38875 0.49991 0.85836 0.0
C753 C 0.4133 0.51267 0.85246 0.0
C754 C 0.42163 0.53765 0.85 0.0
C755 C 0.42582 0.50843 0.90071 0.0
C756 C 0.4144 0.50237 0.79574 0.0
C757 C 0.39367 0.48707 0.77186 0.0
C758 C 0.39066 0.47398 0.72212 0.0
C759 C 0.40929 0.47597 0.69739 0.0
C760 C 0.43068 0.49076 0.72277 0.0
C761 C 0.43313 0.5047 0.77133 0.0
H762 H 0.89472 0.38679 0.96088 0.0
H763 H 0.89448 0.32533 0.91838 0.0
H764 H 0.92713 0.34583 0.86393 0.0
H765 H 0.91099 0.41067 0.82736 0.0
H766 H 0.92813 0.43856 0.85943 0.0
H767 H 0.90465 0.4189 0.89405 0.0
H768 H 0.92984 0.42568 0.98464 0.0
H769 H 0.95342 0.4452 0.94996 0.0
H770 H 0.95321 0.42177 0.98014 0.0
H771 H 0.95918 0.37295 0.81264 0.0
H772 H 0.98754 0.40447 0.7652 0.0
H773 H 0.96748 0.44829 0.84498 0.0
C774 C 0.90134 0.37759 0.93932 0.0
C775 C 0.89203 0.35447 0.94321 0.0
C776 C 0.90142 0.34306 0.91568 0.0
C777 C 0.91994 0.35456 0.88488 0.0
C778 C 0.92894 0.37744 0.88267 0.0
C779 C 0.91991 0.38883 0.909 0.0
C780 C 0.93273 0.41341 0.90036 0.0
C781 C 0.91826 0.4208 0.86838 0.0
C782 C 0.9429 0.42733 0.95717 0.0
C783 C 0.95022 0.41405 0.86427 0.0
C784 C 0.9478 0.39316 0.85468 0.0
C785 C 0.96136 0.38942 0.82022 0.0
C786 C 0.97744 0.40741 0.79359 0.0
C787 C 0.97985 0.42885 0.8019 0.0
C788 C 0.96636 0.43222 0.83878 0.0
H789 H 0.88229 0.48699 0.90344 0.0
H790 H 0.8761 0.5371 0.81553 0.0
H791 H 0.89729 0.53365 0.73892 0.0
H792 H 0.93614 0.50616 0.88112 0.0
H793 H 0.9343 0.47941 0.87137 0.0
H794 H 0.91509 0.48248 0.91291 0.0
H795 H 0.88293 0.45099 0.84914 0.0
H796 H 0.90184 0.44792 0.8058 0.0
H797 H 0.8814 0.45318 0.77368 0.0
H798 H 0.92323 0.52844 0.67882 0.0
H799 H 0.95337 0.52369 0.64458 0.0
H800 H 0.94315 0.4774 0.77199 0.0
C801 C 0.88476 0.49663 0.86701 0.0
C802 C 0.87736 0.5121 0.8649 0.0
C803 C 0.88155 0.52505 0.81765 0.0
C804 C 0.89345 0.52311 0.77384 0.0
C805 C 0.90105 0.50811 0.77785 0.0
C806 C 0.89682 0.49505 0.82326 0.0
C807 C 0.90902 0.48224 0.82107 0.0
C808 C 0.92456 0.48793 0.87478 0.0
C809 C 0.89283 0.45709 0.81189 0.0
C810 C 0.92164 0.49102 0.76914 0.0
C811 C 0.91637 0.50543 0.74379 0.0
C812 C 0.92714 0.51682 0.6976 0.0
C813 C 0.94416 0.51389 0.67795 0.0
C814 C 0.95041 0.49995 0.70486 0.0
C815 C 0.93856 0.48799 0.75008 0.0
H816 H 0.39662 0.86038 0.92274 0.0
H817 H 0.33596 0.85914 0.87453 0.0
H818 H 0.35236 0.87927 0.79024 0.0
H819 H 0.43049 0.91405 0.89516 0.0
H820 H 0.4522 0.91028 0.86915 0.0
H821 H 0.43421 0.89163 0.91751 0.0
H822 H 0.42437 0.85814 0.84558 0.0
H823 H 0.44229 0.87689 0.79672 0.0
H824 H 0.41388 0.85763 0.77437 0.0
H825 H 0.37681 0.90428 0.7207 0.0
H826 H 0.40788 0.93477 0.6778 0.0
H827 H 0.45297 0.92017 0.77144 0.0
C828 C 0.38659 0.86367 0.89318 0.0
C829 C 0.36498 0.85801 0.90447 0.0
C830 C 0.35253 0.86326 0.86623 0.0
C831 C 0.36165 0.87451 0.81807 0.0
C832 C 0.38324 0.88037 0.80872 0.0
C833 C 0.39557 0.87513 0.84528 0.0
C834 C 0.41928 0.88614 0.83061 0.0
C835 C 0.43495 0.90143 0.88108 0.0
C836 C 0.4253 0.86865 0.81062 0.0
C837 C 0.41863 0.89933 0.78212 0.0
C838 C 0.39757 0.89528 0.76902 0.0
C839 C 0.3933 0.90728 0.72983 0.0
C840 C 0.41109 0.9246 0.70558 0.0
C841 C 0.43293 0.92997 0.72128 0.0
C842 C 0.4365 0.91636 0.75783 0.0
H843 H 0.44701 0.33843 0.91733 0.0
H844 H 0.49225 0.37777 0.06159 0.0
H845 H 0.49824 0.4122 0.0207 0.0
H846 H 0.47777 0.37522 0.81349 0.0
H847 H 0.45395 0.3709 0.77081 0.0
H848 H 0.45223 0.34928 0.81299 0.0
H849 H 0.41963 0.34836 0.86218 0.0
H850 H 0.42136 0.37011 0.82033 0.0
H851 H 0.42294 0.37362 0.89663 0.0
H852 H 0.49983 0.44227 0.96419 0.0
H853 H 0.49919 0.46635 0.89187 0.0
H854 H 0.45364 0.40772 0.78254 0.0
C855 C 0.45807 0.35432 0.94026 0.0
C856 C 0.46926 0.35553 0.9924 0.0
C857 C 0.48375 0.37656 0.02119 0.0
C858 C 0.48711 0.39618 0.99859 0.0
C859 C 0.47592 0.39448 0.94704 0.0
C860 C 0.46183 0.37414 0.91792 0.0
C861 C 0.45279 0.37713 0.86183 0.0
C862 C 0.4596 0.36757 0.81183 0.0
C863 C 0.42769 0.36668 0.86018 0.0
C864 C 0.46416 0.40229 0.86388 0.0
C865 C 0.47719 0.41194 0.91373 0.0
C866 C 0.48964 0.43493 0.92498 0.0
C867 C 0.48912 0.44848 0.88361 0.0
C868 C 0.47639 0.43899 0.83136 0.0
C869 C 0.4635 0.41555 0.822 0.0
H870 H 0.13266 0.46939 0.9214 0.0
H871 H 0.1617 0.53796 0.99033 0.0
H872 H 0.1459 0.54638 0.90696 0.0
H873 H 0.13575 0.4805 0.76704 0.0
H874 H 0.10932 0.4561 0.74847 0.0
H875 H 0.12671 0.45637 0.80705 0.0
H876 H 0.09533 0.44614 0.87387 0.0
H877 H 0.07788 0.44559 0.81551 0.0
H878 H 0.0828 0.46324 0.87903 0.0
H879 H 0.12203 0.54607 0.82697 0.0
H880 H 0.09036 0.53641 0.7595 0.0
H881 H 0.07628 0.4682 0.74089 0.0
C882 C 0.136 0.48628 0.91862 0.0
C883 C 0.14863 0.50303 0.96248 0.0
C884 C 0.15255 0.5249 0.95693 0.0
C885 C 0.14361 0.52987 0.9096 0.0
C886 C 0.13087 0.51287 0.86781 0.0
C887 C 0.12708 0.49149 0.87178 0.0
C888 C 0.1105 0.47563 0.82503 0.0
C889 C 0.12122 0.46662 0.78449 0.0
C890 C 0.09045 0.45654 0.84986 0.0
C891 C 0.10461 0.49116 0.79616 0.0
C892 C 0.11698 0.5127 0.82069 0.0
C893 C 0.11267 0.52944 0.80632 0.0
C894 C 0.09469 0.52383 0.76789 0.0
C895 C 0.08124 0.50169 0.74427 0.0
C896 C 0.08684 0.48541 0.75672 0.0
H897 H 0.64414 0.09025 0.96903 0.0
H898 H 0.66127 0.15347 0.90189 0.0
H899 H 0.63695 0.13351 0.81543 0.0
H900 H 0.63803 0.05886 0.83397 0.0
H901 H 0.6148 0.034 0.85524 0.0
H902 H 0.63582 0.0533 0.90777 0.0
H903 H 0.60639 0.05659 0.96305 0.0
H904 H 0.58536 0.03719 0.91104 0.0
H905 H 0.58838 0.06422 0.92669 0.0
H906 H 0.6076 0.10609 0.73979 0.0
H907 H 0.57492 0.07434 0.68702 0.0
H908 H 0.57726 0.02998 0.8065 0.0
C909 C 0.64292 0.09998 0.93615 0.0
C910 C 0.65465 0.12346 0.94243 0.0
C911 C 0.65269 0.13546 0.89784 0.0
C912 C 0.63889 0.12426 0.84855 0.0
C913 C 0.62726 0.10106 0.84429 0.0
C914 C 0.62919 0.08912 0.88708 0.0
C915 C 0.61365 0.06444 0.87501 0.0
C916 C 0.62634 0.05192 0.86754 0.0
C917 C 0.59749 0.05508 0.9217 0.0
C918 C 0.60215 0.06434 0.81956 0.0
C919 C 0.61038 0.08551 0.80171 0.0
C920 C 0.60121 0.08942 0.7531 0.0
C921 C 0.58273 0.07131 0.72323 0.0
C922 C 0.57355 0.04975 0.74281 0.0
C923 C 0.58391 0.04627 0.79045 0.0
H924 H 0.53965 0.65805 0.86049 0.0
H925 H 0.53305 0.62458 0.01451 0.0
H926 H 0.5339 0.59377 0.96021 0.0
H927 H 0.50647 0.61053 0.76783 0.0
H928 H 0.52349 0.62013 0.70905 0.0
H929 H 0.52329 0.63993 0.76037 0.0
H930 H 0.56557 0.65884 0.77932 0.0
H931 H 0.56592 0.63916 0.72774 0.0
H932 H 0.57766 0.64234 0.79909 0.0
H933 H 0.5315 0.56499 0.88751 0.0
H934 H 0.53031 0.54211 0.80259 0.0
H935 H 0.54173 0.59579 0.69769 0.0
C936 C 0.53871 0.64434 0.8826 0.0
C937 C 0.53637 0.64351 0.94136 0.0
C938 C 0.53506 0.62541 0.9694 0.0
C939 C 0.53545 0.60788 0.93897 0.0
C940 C 0.53754 0.60899 0.88081 0.0
C941 C 0.53956 0.62694 0.85306 0.0
C942 C 0.54162 0.62403 0.79033 0.0
C943 C 0.52258 0.62362 0.75482 0.0
C944 C 0.56403 0.64217 0.77313 0.0
C945 C 0.53993 0.60145 0.78698 0.0
C946 C 0.53738 0.59294 0.83952 0.0
C947 C 0.53389 0.57162 0.84629 0.0
C948 C 0.53311 0.55871 0.79798 0.0
C949 C 0.53618 0.56741 0.74422 0.0
C950 C 0.53979 0.58904 0.73877 0.0
H951 H 0.52457 0.13952 0.42211 0.0
H952 H 0.45655 0.11047 0.35447 0.0
H953 H 0.44589 0.08008 0.41652 0.0
H954 H 0.52226 0.08726 0.41532 0.0
H955 H 0.54061 0.09366 0.47746 0.0
H956 H 0.54334 0.11563 0.43513 0.0
H957 H 0.53933 0.13688 0.52192 0.0
H958 H 0.53739 0.11557 0.56574 0.0
H959 H 0.51608 0.12277 0.56378 0.0
H960 H 0.44244 0.0522 0.48583 0.0
H961 H 0.44726 0.02782 0.551 0.0
H962 H 0.51787 0.07189 0.56038 0.0
C963 C 0.5074 0.12687 0.41945 0.0
C964 C 0.49153 0.12804 0.38309 0.0
C965 C 0.4692 0.11087 0.38287 0.0
C966 C 0.46289 0.0932 0.41766 0.0
C967 C 0.47908 0.09245 0.45162 0.0
C968 C 0.50091 0.10867 0.45213 0.0
C969 C 0.51539 0.10291 0.48818 0.0
C970 C 0.53134 0.09969 0.45185 0.0
C971 C 0.52777 0.12059 0.53786 0.0
C972 C 0.49821 0.0811 0.50867 0.0
C973 C 0.47732 0.07547 0.48771 0.0
C974 C 0.45873 0.05636 0.50221 0.0
C975 C 0.4616 0.04266 0.53922 0.0
C976 C 0.48291 0.04797 0.56017 0.0
C977 C 0.50141 0.06734 0.54433 0.0
H978 H 0.39864 0.50627 0.27855 0.0
H979 H 0.34211 0.46486 0.37101 0.0
H980 H 0.36697 0.46899 0.45368 0.0
H981 H 0.4312 0.48505 0.3242 0.0
H982 H 0.45661 0.51126 0.32861 0.0
H983 H 0.43422 0.50668 0.27993 0.0
H984 H 0.43557 0.54199 0.32547 0.0
H985 H 0.45784 0.54645 0.37473 0.0
H986 H 0.43331 0.54447 0.40074 0.0
H987 H 0.39886 0.47554 0.52398 0.0
H988 H 0.43412 0.4823 0.57094 0.0
H989 H 0.46855 0.52009 0.43156 0.0
C990 C 0.39138 0.49854 0.31662 0.0
C991 C 0.3684 0.48535 0.31828 0.0
C992 C 0.35969 0.47494 0.36853 0.0
C993 C 0.37368 0.47736 0.4159 0.0
C994 C 0.39631 0.49038 0.41253 0.0
C995 C 0.40503 0.50083 0.36404 0.0
C996 C 0.4298 0.51262 0.36902 0.0
C997 C 0.43844 0.50333 0.32273 0.0
C998 C 0.43969 0.53789 0.36741 0.0
C999 C 0.43373 0.50662 0.42716 0.0
C1000 C 0.41434 0.49407 0.4523 0.0
C1001 C 0.41414 0.48559 0.50489 0.0
C1002 C 0.43421 0.48957 0.53146 0.0
C1003 C 0.454 0.50163 0.50483 0.0
C1004 C 0.45366 0.51074 0.45296 0.0
H1005 H 0.89311 0.40105 0.30278 0.0
H1006 H 0.91403 0.353 0.26511 0.0
H1007 H 0.94815 0.37619 0.32568 0.0
H1008 H 0.94924 0.45022 0.30227 0.0
H1009 H 0.9442 0.46537 0.35755 0.0
H1010 H 0.92191 0.44561 0.30813 0.0
H1011 H 0.89973 0.42417 0.3928 0.0
H1012 H 0.9218 0.44471 0.4408 0.0
H1013 H 0.91291 0.41562 0.4447 0.0
H1014 H 0.97851 0.40299 0.39599 0.0
H1015 H 0.00189 0.43051 0.4743 0.0
H1016 H 0.96244 0.46235 0.46114 0.0
C1017 C 0.90496 0.39551 0.30636 0.0
C1018 C 0.90064 0.375 0.27941 0.0
C1019 C 0.91659 0.36833 0.28626 0.0
C1020 C 0.93623 0.38156 0.31992 0.0
C1021 C 0.93992 0.40166 0.34565 0.0
C1022 C 0.92479 0.40866 0.33905 0.0
C1023 C 0.93244 0.43061 0.37273 0.0
C1024 C 0.93719 0.44905 0.3328 0.0
C1025 C 0.91574 0.42866 0.41528 0.0
C1026 C 0.95352 0.43412 0.40233 0.0
C1027 C 0.95781 0.4175 0.38506 0.0
C1028 C 0.97551 0.41628 0.40925 0.0
C1029 C 0.9887 0.43199 0.4537 0.0
C1030 C 0.98403 0.44861 0.47362 0.0
C1031 C 0.96669 0.45012 0.44612 0.0
H1032 H 0.5672 0.93204 0.21667 0.0
H1033 H 0.49724 0.88748 0.17536 0.0
H1034 H 0.48971 0.91534 0.22007 0.0
H1035 H 0.5608 0.94677 0.35421 0.0
H1036 H 0.58347 0.9749 0.35593 0.0
H1037 H 0.58347 0.95334 0.31115 0.0
H1038 H 0.58832 0.97651 0.22451 0.0
H1039 H 0.58782 0.99795 0.26915 0.0
H1040 H 0.56869 0.98524 0.20754 0.0
H1041 H 0.48935 0.94672 0.27563 0.0
H1042 H 0.49552 0.97507 0.35212 0.0
H1043 H 0.56502 0.99686 0.36528 0.0
C1044 C 0.55023 0.92792 0.21691 0.0
C1045 C 0.5329 0.90747 0.1915 0.0
C1046 C 0.51099 0.90318 0.19281 0.0
C1047 C 0.50649 0.91895 0.21819 0.0
C1048 C 0.524 0.93888 0.2427 0.0
C1049 C 0.5454 0.94318 0.2432 0.0
C1050 C 0.56096 0.9643 0.27925 0.0
C1051 C 0.57285 0.95953 0.32802 0.0
C1052 C 0.57742 0.98205 0.24292 0.0
C1053 C 0.54484 0.97076 0.30077 0.0
C1054 C 0.52371 0.95637 0.27753 0.0
C1055 C 0.50585 0.95824 0.29361 0.0
C1056 C 0.50952 0.97451 0.3367 0.0
C1057 C 0.53076 0.98816 0.36397 0.0
C1058 C 0.5487 0.9868 0.3443 0.0
H1059 H 0.67537 0.5521 0.35846 0.0
H1060 H 0.64262 0.48211 0.29923 0.0
H1061 H 0.61802 0.47324 0.37648 0.0
H1062 H 0.66758 0.54483 0.51344 0.0
H1063 H 0.66207 0.56744 0.52137 0.0
H1064 H 0.68045 0.56797 0.46993 0.0
H1065 H 0.657 0.57277 0.39045 0.0
H1066 H 0.63877 0.57248 0.44162 0.0
H1067 H 0.628 0.55292 0.37997 0.0
H1068 H 0.59302 0.47235 0.44831 0.0
H1069 H 0.56838 0.4799 0.50414 0.0
H1070 H 0.61595 0.55042 0.51588 0.0
C1071 C 0.66325 0.53483 0.36197 0.0
C1072 C 0.66121 0.51784 0.32244 0.0
C1073 C 0.64507 0.49548 0.32934 0.0
C1074 C 0.6309 0.49023 0.37323 0.0
C1075 C 0.63298 0.50746 0.41025 0.0
C1076 C 0.64876 0.52934 0.40508 0.0
C1077 C 0.64563 0.54502 0.4452 0.0
C1078 C 0.6651 0.55702 0.49016 0.0
C1079 C 0.64213 0.56176 0.41234 0.0
C1080 C 0.62493 0.52864 0.47159 0.0
C1081 C 0.61826 0.507 0.45189 0.0
C1082 C 0.59835 0.48915 0.46507 0.0
C1083 C 0.58446 0.49358 0.49694 0.0
C1084 C 0.59045 0.51569 0.51516 0.0
C1085 C 0.61134 0.53332 0.50429 0.0
H1086 H 0.1265 0.64533 0.29301 0.0
H1087 H 0.09475 0.68484 0.27254 0.0
H1088 H 0.06422 0.65856 0.32486 0.0
H1089 H 0.07665 0.59261 0.26675 0.0
H1090 H 0.08487 0.57887 0.31685 0.0
H1091 H 0.10535 0.60174 0.28158 0.0
H1092 H 0.12483 0.62253 0.37885 0.0
H1093 H 0.1045 0.5996 0.4142 0.0
H1094 H 0.10934 0.62731 0.43079 0.0
H1095 H 0.03727 0.62844 0.38049 0.0
H1096 H 0.01541 0.59575 0.43464 0.0
H1097 H 0.0621 0.57341 0.40844 0.0
C1098 C 0.11315 0.64852 0.29907 0.0
C1099 C 0.1134 0.6675 0.27882 0.0
C1100 C 0.09553 0.67094 0.28882 0.0
C1101 C 0.07786 0.6559 0.31792 0.0
C1102 C 0.07799 0.63723 0.336 0.0
C1103 C 0.09509 0.63339 0.32679 0.0
C1104 C 0.09081 0.61159 0.34898 0.0
C1105 C 0.08933 0.59524 0.30064 0.0
C1106 C 0.10841 0.6155 0.39601 0.0
C1107 C 0.06868 0.60388 0.3724 0.0
C1108 C 0.06168 0.61903 0.36487 0.0
C1109 C 0.04238 0.61628 0.38596 0.0
C1110 C 0.03008 0.59771 0.41642 0.0
C1111 C 0.03693 0.582 0.4243 0.0
C1112 C 0.05626 0.58493 0.40135 0.0
loop_
_geom_bond_atom_site_label_1
_geom_bond_atom_site_label_2
_geom_bond_distance
_geom_bond_site_symmetry_2
_ccdc_geom_bond_type
H0 C27 0.929 . S
N1 C26 1.433 . S
N1 C32 1.435 . S
N1 C38 1.423 . S
H2 C28 0.930 . S
H3 C31 0.931 . S
H4 C30 0.929 . S
H5 C33 0.930 . S
H6 C34 0.932 . S
H7 C37 0.929 . S
H8 C36 0.931 . S
H9 C39 0.929 . S
H10 C43 0.932 . S
H11 C40 0.931 . S
H12 C42 0.929 . S
H13 C45 0.929 . S
H14 C46 0.930 . S
H15 C48 0.929 . S
H16 C49 0.931 . S
H17 C51 0.930 . S
H18 C52 0.932 . S
H19 C54 0.931 1_556 S
H20 C55 0.929 . S
H21 C57 0.929 . S
H22 C58 0.931 . S
H23 C60 0.929 . S
N24 C44 1.433 . S
N24 C50 1.435 . S
N24 C56 1.423 . S
H25 C61 0.932 . S
C26 N1 1.433 . S
C26 C27 1.363 . S
C26 C31 1.370 . S
C27 H0 0.929 . S
C27 C26 1.363 . S
C27 C28 1.385 . S
C28 H2 0.930 . S
C28 C27 1.385 . S
C28 C29 1.357 . S
C29 C28 1.357 . S
C29 C30 1.406 . S
C30 H4 0.929 . S
C30 C29 1.406 . S
C30 C31 1.391 . S
C31 H3 0.931 . S
C31 C26 1.370 . S
C31 C30 1.391 . S
C32 N1 1.435 . S
C32 C33 1.358 . S
C32 C37 1.371 . S
C33 H5 0.930 . S
C33 C32 1.358 . S
C33 C34 1.405 . S
C34 H6 0.932 . S
C34 C33 1.405 . S
C34 C35 1.383 . S
C35 C34 1.383 . S
C35 C36 1.393 . S
C36 H8 0.931 . S
C36 C35 1.393 . S
C36 C37 1.382 . S
C37 H7 0.929 . S
C37 C32 1.371 . S
C37 C36 1.382 . S
C38 N1 1.423 . S
C38 C39 1.362 . S
C38 C43 1.388 . S
C39 H9 0.929 . S
C39 C38 1.362 . S
C39 C40 1.376 . S
C40 H11 0.931 . S
C40 C39 1.376 . S
C40 C41 1.396 . S
C41 C40 1.396 . S
C41 C42 1.348 . S
C41 C59 1.472 . S
C42 H12 0.929 . S
C42 C41 1.348 . S
C42 C43 1.443 . S
C43 H10 0.932 . S
C43 C38 1.388 . S
C43 C42 1.443 . S
C44 N24 1.433 . S
C44 C45 1.363 . S
C44 C49 1.370 . S
C45 H13 0.929 . S
C45 C44 1.363 . S
C45 C46 1.385 . S
C46 H14 0.930 . S
C46 C45 1.385 . S
C46 C47 1.357 . S
C47 C46 1.357 . S
C47 C48 1.406 . S
C48 H15 0.929 . S
C48 C47 1.406 . S
C48 C49 1.391 . S
C49 H16 0.931 . S
C49 C44 1.370 . S
C49 C48 1.391 . S
C50 N24 1.435 . S
C50 C51 1.358 . S
C50 C55 1.371 . S
C51 H17 0.930 . S
C51 C50 1.358 . S
C51 C52 1.405 . S
C52 H18 0.932 . S
C52 C51 1.405 . S
C52 C53 1.383 . S
C53 C52 1.383 . S
C53 C54 1.393 . S
C54 H19 0.931 1_554 S
C54 C53 1.393 . S
C54 C55 1.382 . S
C55 H20 0.929 . S
C55 C50 1.371 . S
C55 C54 1.382 . S
C56 N24 1.423 . S
C56 C57 1.362 . S
C56 C61 1.388 . S
C57 H21 0.929 . S
C57 C56 1.362 . S
C57 C58 1.376 . S
C58 H22 0.931 . S
C58 C57 1.376 . S
C58 C59 1.396 . S
C59 C41 1.472 . S
C59 C58 1.396 . S
C59 C60 1.348 . S
C60 H23 0.929 . S
C60 C59 1.348 . S
C60 C61 1.443 . S
C61 H25 0.932 . S
C61 C56 1.388 . S
C61 C60 1.443 . S
H62 C89 0.929 . S
N63 C88 1.433 . S
N63 C94 1.435 . S
N63 C100 1.423 . S
H64 C90 0.930 . S
H65 C93 0.931 . S
H66 C92 0.929 . S
H67 C95 0.930 . S
H68 C96 0.932 . S
H69 C99 0.929 . S
H70 C98 0.931 . S
H71 C101 0.929 . S
H72 C105 0.932 . S
H73 C102 0.931 . S
H74 C104 0.929 . S
H75 C107 0.929 . S
H76 C108 0.930 . S
H77 C110 0.929 . S
H78 C111 0.931 . S
H79 C113 0.930 . S
H80 C114 0.932 . S
H81 C116 0.931 1_556 S
H82 C117 0.929 . S
H83 C119 0.929 . S
H84 C120 0.931 . S
H85 C122 0.929 . S
N86 C106 1.433 . S
N86 C112 1.435 . S
N86 C118 1.423 . S
H87 C123 0.932 . S
C88 N63 1.433 . S
C88 C89 1.363 . S
C88 C93 1.370 . S
C89 H62 0.929 . S
C89 C88 1.363 . S
C89 C90 1.385 . S
C90 H64 0.930 . S
C90 C89 1.385 . S
C90 C91 1.357 . S
C91 C90 1.357 . S
C91 C92 1.406 . S
C92 H66 0.929 . S
C92 C91 1.406 . S
C92 C93 1.391 . S
C93 H65 0.931 . S
C93 C88 1.370 . S
C93 C92 1.391 . S
C94 N63 1.435 . S
C94 C95 1.358 . S
C94 C99 1.371 . S
C95 H67 0.930 . S
C95 C94 1.358 . S
C95 C96 1.405 . S
C96 H68 0.932 . S
C96 C95 1.405 . S
C96 C97 1.383 1_554 S
C97 C96 1.383 1_556 S
C97 C98 1.393 . S
C98 H70 0.931 . S
C98 C97 1.393 . S
C98 C99 1.382 1_556 S
C99 H69 0.929 . S
C99 C94 1.371 . S
C99 C98 1.382 1_554 S
C100 N63 1.423 . S
C100 C101 1.362 . S
C100 C105 1.388 . S
C101 H71 0.929 . S
C101 C100 1.362 . S
C101 C102 1.376 . S
C102 H73 0.931 . S
C102 C101 1.376 . S
C102 C103 1.396 . S
C103 C102 1.396 . S
C103 C104 1.348 . S
C103 C121 1.472 . S
C104 H74 0.929 . S
C104 C103 1.348 . S
C104 C105 1.443 . S
C105 H72 0.932 . S
C105 C100 1.388 . S
C105 C104 1.443 . S
C106 N86 1.433 . S
C106 C107 1.363 . S
C106 C111 1.370 . S
C107 H75 0.929 . S
C107 C106 1.363 . S
C107 C108 1.385 . S
C108 H76 0.930 . S
C108 C107 1.385 . S
C108 C109 1.357 . S
C109 C108 1.357 . S
C109 C110 1.406 . S
C110 H77 0.929 . S
C110 C109 1.406 . S
C110 C111 1.391 . S
C111 H78 0.931 . S
C111 C106 1.370 . S
C111 C110 1.391 . S
C112 N86 1.435 . S
C112 C113 1.358 . S
C112 C117 1.371 . S
C113 H79 0.930 . S
C113 C112 1.358 . S
C113 C114 1.405 . S
C114 H80 0.932 . S
C114 C113 1.405 . S
C114 C115 1.383 . S
C115 C114 1.383 . S
C115 C116 1.393 . S
C116 H81 0.931 1_554 S
C116 C115 1.393 . S
C116 C117 1.382 . S
C117 H82 0.929 . S
C117 C112 1.371 . S
C117 C116 1.382 . S
C118 N86 1.423 . S
C118 C119 1.362 . S
C118 C123 1.388 . S
C119 H83 0.929 . S
C119 C118 1.362 . S
C119 C120 1.376 . S
C120 H84 0.931 . S
C120 C119 1.376 . S
C120 C121 1.396 . S
C121 C103 1.472 . S
C121 C120 1.396 . S
C121 C122 1.348 . S
C122 H85 0.929 . S
C122 C121 1.348 . S
C122 C123 1.443 . S
C123 H87 0.932 . S
C123 C118 1.388 . S
C123 C122 1.443 . S
H124 C151 0.929 . S
N125 C150 1.433 1_554 S
N125 C156 1.435 . S
N125 C162 1.423 . S
H126 C152 0.930 . S
H127 C155 0.931 . S
H128 C154 0.929 . S
H129 C157 0.930 . S
H130 C158 0.932 . S
H131 C161 0.929 . S
H132 C160 0.931 . S
H133 C163 0.929 1_556 S
H134 C167 0.932 . S
H135 C164 0.931 1_556 S
H136 C166 0.929 . S
H137 C169 0.929 . S
H138 C170 0.930 . S
H139 C172 0.929 . S
H140 C173 0.931 . S
H141 C175 0.930 . S
H142 C176 0.932 . S
H143 C178 0.931 . S
H144 C179 0.929 . S
H145 C181 0.929 1_556 S
H146 C182 0.931 1_556 S
H147 C184 0.929 . S
N148 C168 1.433 1_554 S
N148 C174 1.435 . S
N148 C180 1.423 . S
H149 C185 0.932 . S
C150 N125 1.433 1_556 S
C150 C151 1.363 . S
C150 C155 1.370 . S
C151 H124 0.929 . S
C151 C150 1.363 . S
C151 C152 1.385 . S
C152 H126 0.930 . S
C152 C151 1.385 . S
C152 C153 1.357 . S
C153 C152 1.357 . S
C153 C154 1.406 . S
C154 H128 0.929 . S
C154 C153 1.406 . S
C154 C155 1.391 . S
C155 H127 0.931 . S
C155 C150 1.370 . S
C155 C154 1.391 . S
C156 N125 1.435 . S
C156 C157 1.358 . S
C156 C161 1.371 . S
C157 H129 0.930 . S
C157 C156 1.358 . S
C157 C158 1.405 . S
C158 H130 0.932 . S
C158 C157 1.405 . S
C158 C159 1.383 . S
C159 C158 1.383 . S
C159 C160 1.393 . S
C160 H132 0.931 . S
C160 C159 1.393 . S
C160 C161 1.382 . S
C161 H131 0.929 . S
C161 C156 1.371 . S
C161 C160 1.382 . S
C162 N125 1.423 . S
C162 C163 1.362 . S
C162 C167 1.388 . S
C163 H133 0.929 1_554 S
C163 C162 1.362 . S
C163 C164 1.376 . S
C164 H135 0.931 1_554 S
C164 C163 1.376 . S
C164 C165 1.396 . S
C165 C164 1.396 . S
C165 C166 1.348 . S
C165 C183 1.472 . S
C166 H136 0.929 . S
C166 C165 1.348 . S
C166 C167 1.443 . S
C167 H134 0.932 . S
C167 C162 1.388 . S
C167 C166 1.443 . S
C168 N148 1.433 1_556 S
C168 C169 1.363 . S
C168 C173 1.370 . S
C169 H137 0.929 . S
C169 C168 1.363 . S
C169 C170 1.385 . S
C170 H138 0.930 . S
C170 C169 1.385 . S
C170 C171 1.357 . S
C171 C170 1.357 . S
C171 C172 1.406 . S
C172 H139 0.929 . S
C172 C171 1.406 . S
C172 C173 1.391 . S
C173 H140 0.931 . S
C173 C168 1.370 . S
C173 C172 1.391 . S
C174 N148 1.435 . S
C174 C175 1.358 . S
C174 C179 1.371 . S
C175 H141 0.930 . S
C175 C174 1.358 . S
C175 C176 1.405 . S
C176 H142 0.932 . S
C176 C175 1.405 . S
C176 C177 1.383 . S
C177 C176 1.383 . S
C177 C178 1.393 . S
C178 H143 0.931 . S
C178 C177 1.393 . S
C178 C179 1.382 . S
C179 H144 0.929 . S
C179 C174 1.371 . S
C179 C178 1.382 . S
C180 N148 1.423 . S
C180 C181 1.362 . S
C180 C185 1.388 . S
C181 H145 0.929 1_554 S
C181 C180 1.362 . S
C181 C182 1.376 . S
C182 H146 0.931 1_554 S
C182 C181 1.376 . S
C182 C183 1.396 . S
C183 C165 1.472 . S
C183 C182 1.396 . S
C183 C184 1.348 . S
C184 H147 0.929 . S
C184 C183 1.348 . S
C184 C185 1.443 . S
C185 H149 0.932 . S
C185 C180 1.388 . S
C185 C184 1.443 . S
H186 C213 0.929 . S
N187 C212 1.433 . S
N187 C218 1.435 . S
N187 C224 1.423 . S
H188 C214 0.930 . S
H189 C217 0.931 . S
H190 C216 0.929 . S
H191 C219 0.930 . S
H192 C220 0.932 . S
H193 C223 0.929 . S
H194 C222 0.931 . S
H195 C225 0.929 . S
H196 C229 0.932 1_556 S
H197 C226 0.931 . S
H198 C228 0.929 1_556 S
H199 C231 0.929 . S
H200 C232 0.930 . S
H201 C234 0.929 . S
H202 C235 0.931 . S
H203 C237 0.930 . S
H204 C238 0.932 . S
H205 C240 0.931 . S
H206 C241 0.929 . S
H207 C243 0.929 . S
H208 C244 0.931 . S
H209 C246 0.929 1_556 S
N210 C230 1.433 . S
N210 C236 1.435 . S
N210 C242 1.423 . S
H211 C247 0.932 1_556 S
C212 N187 1.433 . S
C212 C213 1.363 . S
C212 C217 1.370 . S
C213 H186 0.929 . S
C213 C212 1.363 . S
C213 C214 1.385 . S
C214 H188 0.930 . S
C214 C213 1.385 . S
C214 C215 1.357 . S
C215 C214 1.357 . S
C215 C216 1.406 . S
C216 H190 0.929 . S
C216 C215 1.406 . S
C216 C217 1.391 . S
C217 H189 0.931 . S
C217 C212 1.370 . S
C217 C216 1.391 . S
C218 N187 1.435 . S
C218 C219 1.358 . S
C218 C223 1.371 1_554 S
C219 H191 0.930 . S
C219 C218 1.358 . S
C219 C220 1.405 1_554 S
C220 H192 0.932 . S
C220 C219 1.405 1_556 S
C220 C221 1.383 . S
C221 C220 1.383 . S
C221 C222 1.393 . S
C222 H194 0.931 . S
C222 C221 1.393 . S
C222 C223 1.382 . S
C223 H193 0.929 . S
C223 C218 1.371 1_556 S
C223 C222 1.382 . S
C224 N187 1.423 . S
C224 C225 1.362 . S
C224 C229 1.388 . S
C225 H195 0.929 . S
C225 C224 1.362 . S
C225 C226 1.376 . S
C226 H197 0.931 . S
C226 C225 1.376 . S
C226 C227 1.396 . S
C227 C226 1.396 . S
C227 C228 1.348 . S
C227 C245 1.472 . S
C228 H198 0.929 1_554 S
C228 C227 1.348 . S
C228 C229 1.443 . S
C229 H196 0.932 1_554 S
C229 C224 1.388 . S
C229 C228 1.443 . S
C230 N210 1.433 . S
C230 C231 1.363 . S
C230 C235 1.370 . S
C231 H199 0.929 . S
C231 C230 1.363 . S
C231 C232 1.385 . S
C232 H200 0.930 . S
C232 C231 1.385 . S
C232 C233 1.357 . S
C233 C232 1.357 . S
C233 C234 1.406 . S
C234 H201 0.929 . S
C234 C233 1.406 . S
C234 C235 1.391 . S
C235 H202 0.931 . S
C235 C230 1.370 . S
C235 C234 1.391 . S
C236 N210 1.435 . S
C236 C237 1.358 . S
C236 C241 1.371 1_554 S
C237 H203 0.930 . S
C237 C236 1.358 . S
C237 C238 1.405 1_554 S
C238 H204 0.932 . S
C238 C237 1.405 1_556 S
C238 C239 1.383 . S
C239 C238 1.383 . S
C239 C240 1.393 . S
C240 H205 0.931 . S
C240 C239 1.393 . S
C240 C241 1.382 . S
C241 H206 0.929 . S
C241 C236 1.371 1_556 S
C241 C240 1.382 . S
C242 N210 1.423 . S
C242 C243 1.362 . S
C242 C247 1.388 . S
C243 H207 0.929 . S
C243 C242 1.362 . S
C243 C244 1.376 . S
C244 H208 0.931 . S
C244 C243 1.376 . S
C244 C245 1.396 . S
C245 C227 1.472 . S
C245 C244 1.396 . S
C245 C246 1.348 . S
C246 H209 0.929 1_554 S
C246 C245 1.348 . S
C246 C247 1.443 . S
C247 H211 0.932 1_554 S
C247 C242 1.388 . S
C247 C246 1.443 . S
H248 C275 0.929 . S
N249 C274 1.433 . S
N249 C280 1.435 . S
N249 C286 1.423 . S
H250 C276 0.930 . S
H251 C279 0.931 . S
H252 C278 0.929 . S
H253 C281 0.930 . S
H254 C282 0.932 . S
H255 C285 0.929 . S
H256 C284 0.931 . S
H257 C287 0.929 . S
H258 C291 0.932 . S
H259 C288 0.931 . S
H260 C290 0.929 . S
H261 C293 0.929 . S
H262 C294 0.930 . S
H263 C296 0.929 . S
H264 C297 0.931 . S
H265 C299 0.930 . S
H266 C300 0.932 . S
H267 C302 0.931 . S
H268 C303 0.929 . S
H269 C305 0.929 . S
H270 C306 0.931 . S
H271 C308 0.929 . S
N272 C292 1.433 . S
N272 C298 1.435 . S
N272 C304 1.423 . S
H273 C309 0.932 . S
C274 N249 1.433 . S
C274 C275 1.363 . S
C274 C279 1.370 . S
C275 H248 0.929 . S
C275 C274 1.363 . S
C275 C276 1.385 . S
C276 H250 0.930 . S
C276 C275 1.385 . S
C276 C277 1.357 . S
C277 C276 1.357 . S
C277 C278 1.406 . S
C278 H252 0.929 . S
C278 C277 1.406 . S
C278 C279 1.391 . S
C279 H251 0.931 . S
C279 C274 1.370 . S
C279 C278 1.391 . S
C280 N249 1.435 . S
C280 C281 1.358 . S
C280 C285 1.371 1_554 S
C281 H253 0.930 . S
C281 C280 1.358 . S
C281 C282 1.405 1_554 S
C282 H254 0.932 . S
C282 C281 1.405 1_556 S
C282 C283 1.383 . S
C283 C282 1.383 . S
C283 C284 1.393 . S
C284 H256 0.931 . S
C284 C283 1.393 . S
C284 C285 1.382 . S
C285 H255 0.929 . S
C285 C280 1.371 1_556 S
C285 C284 1.382 . S
C286 N249 1.423 . S
C286 C287 1.362 . S
C286 C291 1.388 . S
C287 H257 0.929 . S
C287 C286 1.362 . S
C287 C288 1.376 . S
C288 H259 0.931 . S
C288 C287 1.376 . S
C288 C289 1.396 . S
C289 C288 1.396 . S
C289 C290 1.348 . S
C289 C307 1.472 . S
C290 H260 0.929 . S
C290 C289 1.348 . S
C290 C291 1.443 . S
C291 H258 0.932 . S
C291 C286 1.388 . S
C291 C290 1.443 . S
C292 N272 1.433 . S
C292 C293 1.363 . S
C292 C297 1.370 . S
C293 H261 0.929 . S
C293 C292 1.363 . S
C293 C294 1.385 . S
C294 H262 0.930 . S
C294 C293 1.385 . S
C294 C295 1.357 . S
C295 C294 1.357 . S
C295 C296 1.406 . S
C296 H263 0.929 . S
C296 C295 1.406 . S
C296 C297 1.391 . S
C297 H264 0.931 . S
C297 C292 1.370 . S
C297 C296 1.391 . S
C298 N272 1.435 . S
C298 C299 1.358 . S
C298 C303 1.371 . S
C299 H265 0.930 . S
C299 C298 1.358 . S
C299 C300 1.405 . S
C300 H266 0.932 . S
C300 C299 1.405 . S
C300 C301 1.383 1_554 S
C301 C300 1.383 1_556 S
C301 C302 1.393 . S
C302 H267 0.931 . S
C302 C301 1.393 . S
C302 C303 1.382 1_556 S
C303 H268 0.929 . S
C303 C298 1.371 . S
C303 C302 1.382 1_554 S
C304 N272 1.423 . S
C304 C305 1.362 . S
C304 C309 1.388 . S
C305 H269 0.929 . S
C305 C304 1.362 . S
C305 C306 1.376 . S
C306 H270 0.931 . S
C306 C305 1.376 . S
C306 C307 1.396 . S
C307 C289 1.472 . S
C307 C306 1.396 . S
C307 C308 1.348 . S
C308 H271 0.929 . S
C308 C307 1.348 . S
C308 C309 1.443 . S
C309 H273 0.932 . S
C309 C304 1.388 . S
C309 C308 1.443 . S
H310 C337 0.929 . S
N311 C336 1.433 . S
N311 C342 1.435 . S
N311 C348 1.423 . S
H312 C338 0.930 . S
H313 C341 0.931 . S
H314 C340 0.929 . S
H315 C343 0.930 . S
H316 C344 0.932 . S
H317 C347 0.929 . S
H318 C346 0.931 . S
H319 C349 0.929 . S
H320 C353 0.932 . S
H321 C350 0.931 . S
H322 C352 0.929 . S
H323 C355 0.929 . S
H324 C356 0.930 . S
H325 C358 0.929 . S
H326 C359 0.931 . S
H327 C361 0.930 . S
H328 C362 0.932 . S
H329 C364 0.931 . S
H330 C365 0.929 . S
H331 C367 0.929 . S
H332 C368 0.931 . S
H333 C370 0.929 . S
N334 C354 1.433 . S
N334 C360 1.435 . S
N334 C366 1.423 . S
H335 C371 0.932 . S
C336 N311 1.433 . S
C336 C337 1.363 . S
C336 C341 1.370 . S
C337 H310 0.929 . S
C337 C336 1.363 . S
C337 C338 1.385 . S
C338 H312 0.930 . S
C338 C337 1.385 . S
C338 C339 1.357 . S
C339 C338 1.357 . S
C339 C340 1.406 . S
C340 H314 0.929 . S
C340 C339 1.406 . S
C340 C341 1.391 . S
C341 H313 0.931 . S
C341 C336 1.370 . S
C341 C340 1.391 . S
C342 N311 1.435 . S
C342 C343 1.358 . S
C342 C347 1.371 . S
C343 H315 0.930 . S
C343 C342 1.358 . S
C343 C344 1.405 . S
C344 H316 0.932 . S
C344 C343 1.405 . S
C344 C345 1.383 . S
C345 C344 1.383 . S
C345 C346 1.393 . S
C346 H318 0.931 . S
C346 C345 1.393 . S
C346 C347 1.382 . S
C347 H317 0.929 . S
C347 C342 1.371 . S
C347 C346 1.382 . S
C348 N311 1.423 . S
C348 C349 1.362 . S
C348 C353 1.388 . S
C349 H319 0.929 . S
C349 C348 1.362 . S
C349 C350 1.376 . S
C350 H321 0.931 . S
C350 C349 1.376 . S
C350 C351 1.396 . S
C351 C350 1.396 . S
C351 C352 1.348 . S
C351 C369 1.472 . S
C352 H322 0.929 . S
C352 C351 1.348 . S
C352 C353 1.443 . S
C353 H320 0.932 . S
C353 C348 1.388 . S
C353 C352 1.443 . S
C354 N334 1.433 . S
C354 C355 1.363 . S
C354 C359 1.370 . S
C355 H323 0.929 . S
C355 C354 1.363 . S
C355 C356 1.385 . S
C356 H324 0.930 . S
C356 C355 1.385 . S
C356 C357 1.357 . S
C357 C356 1.357 . S
C357 C358 1.406 . S
C358 H325 0.929 . S
C358 C357 1.406 . S
C358 C359 1.391 . S
C359 H326 0.931 . S
C359 C354 1.370 . S
C359 C358 1.391 . S
C360 N334 1.435 . S
C360 C361 1.358 . S
C360 C365 1.371 . S
C361 H327 0.930 . S
C361 C360 1.358 . S
C361 C362 1.405 . S
C362 H328 0.932 . S
C362 C361 1.405 . S
C362 C363 1.383 . S
C363 C362 1.383 . S
C363 C364 1.393 . S
C364 H329 0.931 . S
C364 C363 1.393 . S
C364 C365 1.382 . S
C365 H330 0.929 . S
C365 C360 1.371 . S
C365 C364 1.382 . S
C366 N334 1.423 . S
C366 C367 1.362 . S
C366 C371 1.388 . S
C367 H331 0.929 . S
C367 C366 1.362 . S
C367 C368 1.376 . S
C368 H332 0.931 . S
C368 C367 1.376 . S
C368 C369 1.396 . S
C369 C351 1.472 . S
C369 C368 1.396 . S
C369 C370 1.348 . S
C370 H333 0.929 . S
C370 C369 1.348 . S
C370 C371 1.443 . S
C371 H335 0.932 . S
C371 C366 1.388 . S
C371 C370 1.443 . S
C372 O384 1.241 . S
C372 O385 1.280 . S
C373 O386 1.277 . S
C373 O387 1.245 . S
C374 O398 1.247 . S
C374 O400 1.289 . S
Mg375 O376 1.948 1_655 S
Mg375 O385 1.984 . S
Mg375 O387 1.988 1_655 S
Mg375 O388 2.061 . S
O376 Mg375 1.948 1_455 S
O376 Mg377 1.984 . S
O376 Mg378 1.913 . S
Mg377 O376 1.984 . S
Mg377 O384 2.042 1_455 S
Mg377 O386 2.041 . S
Mg377 O392 2.038 1_455 S
Mg377 O400 2.238 . S
Mg378 O376 1.913 . S
Mg378 O379 1.917 . S
Mg378 O389 2.106 1_455 S
Mg378 O391 2.079 1_455 S
Mg378 O400 2.106 . S
Mg378 O401 2.079 . S
O379 Mg378 1.917 . S
O379 Mg380 1.926 . S
O379 Mg381 1.986 . S
Mg380 O379 1.926 . S
Mg380 O394 1.984 . S
Mg380 O397 1.988 1_455 S
Mg380 O398 2.061 . S
Mg381 O379 1.986 . S
Mg381 O389 2.238 1_455 S
Mg381 O393 2.042 . S
Mg381 O395 2.041 1_455 S
Mg381 O402 2.038 . S
C382 O388 1.247 . S
C382 O389 1.289 . S
C383 O401 1.245 . S
C383 O402 1.274 . S
O384 C372 1.241 . S
O384 Mg377 2.042 1_655 S
O385 C372 1.280 . S
O385 Mg375 1.984 . S
O386 C373 1.277 . S
O386 Mg377 2.041 . S
O387 C373 1.245 . S
O387 Mg375 1.988 1_455 S
O388 Mg375 2.061 . S
O388 C382 1.247 . S
O389 Mg378 2.106 1_655 S
O389 Mg381 2.238 1_655 S
O389 C382 1.289 . S
C390 O391 1.245 . S
C390 O392 1.274 . S
O391 Mg378 2.079 1_655 S
O391 C390 1.245 . S
O392 Mg377 2.038 1_655 S
O392 C390 1.274 . S
O393 Mg381 2.042 . S
O393 C396 1.241 . S
O394 Mg380 1.984 . S
O394 C396 1.280 . S
O395 Mg381 2.041 1_655 S
O395 C399 1.277 . S
C396 O393 1.241 . S
C396 O394 1.280 . S
O397 Mg380 1.988 1_655 S
O397 C399 1.245 . S
O398 C374 1.247 . S
O398 Mg380 2.061 . S
C399 O395 1.277 . S
C399 O397 1.245 . S
O400 C374 1.289 . S
O400 Mg377 2.238 . S
O400 Mg378 2.106 . S
O401 Mg378 2.079 . S
O401 C383 1.245 . S
O402 Mg381 2.038 . S
O402 C383 1.274 . S
C403 O415 1.241 . S
C403 O416 1.280 . S
C404 O417 1.277 . S
C404 O418 1.245 . S
C405 O429 1.247 . S
C405 O431 1.289 . S
Mg406 O407 1.926 . S
Mg406 O416 1.984 . S
Mg406 O418 1.988 1_545 S
Mg406 O419 2.061 . S
O407 Mg406 1.926 . S
O407 Mg408 1.986 . S
O407 Mg409 1.917 . S
Mg408 O407 1.986 . S
Mg408 O415 2.042 . S
Mg408 O417 2.041 1_545 S
Mg408 O423 2.038 . S
Mg408 O431 2.238 1_545 S
Mg409 O407 1.917 . S
Mg409 O410 1.917 1_545 S
Mg409 O420 2.106 . S
Mg409 O422 2.079 . S
Mg409 O431 2.106 1_545 S
Mg409 O432 2.079 1_545 S
O410 Mg409 1.917 1_565 S
O410 Mg411 1.926 . S
O410 Mg412 1.986 1_565 S
Mg411 O410 1.926 . S
Mg411 O425 1.984 . S
Mg411 O428 1.988 1_565 S
Mg411 O429 2.061 . S
Mg412 O410 1.986 1_545 S
Mg412 O420 2.238 . S
Mg412 O424 2.042 1_545 S
Mg412 O426 2.041 . S
Mg412 O433 2.038 1_545 S
C413 O419 1.247 . S
C413 O420 1.289 . S
C414 O432 1.245 . S
C414 O433 1.274 . S
O415 C403 1.241 . S
O415 Mg408 2.042 . S
O416 C403 1.280 . S
O416 Mg406 1.984 . S
O417 C404 1.277 . S
O417 Mg408 2.041 1_565 S
O418 C404 1.245 . S
O418 Mg406 1.988 1_565 S
O419 Mg406 2.061 . S
O419 C413 1.247 . S
O420 Mg409 2.106 . S
O420 Mg412 2.238 . S
O420 C413 1.289 . S
C421 O422 1.245 . S
C421 O423 1.274 . S
O422 Mg409 2.079 . S
O422 C421 1.245 . S
O423 Mg408 2.038 . S
O423 C421 1.274 . S
O424 Mg412 2.042 1_565 S
O424 C427 1.241 . S
O425 Mg411 1.984 . S
O425 C427 1.280 . S
O426 Mg412 2.041 . S
O426 C430 1.277 . S
C427 O424 1.241 . S
C427 O425 1.280 . S
O428 Mg411 1.988 1_545 S
O428 C430 1.245 . S
O429 C405 1.247 . S
O429 Mg411 2.061 . S
C430 O426 1.277 . S
C430 O428 1.245 . S
O431 C405 1.289 . S
O431 Mg408 2.238 1_565 S
O431 Mg409 2.106 1_565 S
O432 Mg409 2.079 1_565 S
O432 C414 1.245 . S
O433 Mg412 2.038 1_565 S
O433 C414 1.274 . S
C434 O446 1.241 . S
C434 O447 1.280 . S
C435 O448 1.277 . S
C435 O449 1.245 . S
C436 O460 1.247 . S
C436 O462 1.289 . S
Mg437 O438 1.926 . S
Mg437 O447 1.984 . S
Mg437 O449 1.988 . S
Mg437 O450 2.061 . S
O438 Mg437 1.926 . S
O438 Mg439 1.986 . S
O438 Mg440 1.917 . S
Mg439 O438 1.986 . S
Mg439 O446 2.042 . S
Mg439 O448 2.041 . S
Mg439 O454 2.038 . S
Mg439 O462 2.238 . S
Mg440 O438 1.917 . S
Mg440 O441 1.917 . S
Mg440 O451 2.106 . S
Mg440 O453 2.079 . S
Mg440 O462 2.106 . S
Mg440 O463 2.079 . S
O441 Mg440 1.917 . S
O441 Mg442 1.926 . S
O441 Mg443 1.986 . S
Mg442 O441 1.926 . S
Mg442 O456 1.984 . S
Mg442 O459 1.988 . S
Mg442 O460 2.061 . S
Mg443 O441 1.986 . S
Mg443 O451 2.238 . S
Mg443 O455 2.042 . S
Mg443 O457 2.041 . S
Mg443 O464 2.038 . S
C444 O450 1.247 . S
C444 O451 1.289 . S
C445 O463 1.245 . S
C445 O464 1.274 . S
O446 C434 1.241 . S
O446 Mg439 2.042 . S
O447 C434 1.280 . S
O447 Mg437 1.984 . S
O448 C435 1.277 . S
O448 Mg439 2.041 . S
O449 C435 1.245 . S
O449 Mg437 1.988 . S
O450 Mg437 2.061 . S
O450 C444 1.247 . S
O451 Mg440 2.106 . S
O451 Mg443 2.238 . S
O451 C444 1.289 . S
C452 O453 1.245 . S
C452 O454 1.274 . S
O453 Mg440 2.079 . S
O453 C452 1.245 . S
O454 Mg439 2.038 . S
O454 C452 1.274 . S
O455 Mg443 2.042 . S
O455 C458 1.241 . S
O456 Mg442 1.984 . S
O456 C458 1.280 . S
O457 Mg443 2.041 . S
O457 C461 1.277 . S
C458 O455 1.241 . S
C458 O456 1.280 . S
O459 Mg442 1.988 . S
O459 C461 1.245 . S
O460 C436 1.247 . S
O460 Mg442 2.061 . S
C461 O457 1.277 . S
C461 O459 1.245 . S
O462 C436 1.289 . S
O462 Mg439 2.238 . S
O462 Mg440 2.106 . S
O463 Mg440 2.079 . S
O463 C445 1.245 . S
O464 Mg443 2.038 . S
O464 C445 1.274 . S
H465 C477 0.930 . S
H466 C479 0.930 . S
H467 C480 0.930 . S
H468 C484 0.959 . S
H469 C484 0.959 . S
H470 C484 0.961 . S
H471 C485 0.960 . S
H472 C485 0.961 . S
H473 C485 0.959 . S
H474 C488 0.929 . S
H475 C489 0.931 . S
H476 C491 0.930 . S
C477 H465 0.930 . S
C477 C478 1.399 . S
C477 C482 1.399 . S
C478 C477 1.399 . S
C478 C479 1.376 . S
C479 H466 0.930 . S
C479 C478 1.376 . S
C479 C480 1.388 . S
C480 H467 0.930 . S
C480 C479 1.388 . S
C480 C481 1.390 . S
C481 C480 1.390 . S
C481 C482 1.394 . S
C481 C487 1.465 . S
C482 C477 1.399 . S
C482 C481 1.394 . S
C482 C483 1.516 . S
C483 C482 1.516 . S
C483 C484 1.502 . S
C483 C485 1.561 . S
C483 C486 1.526 . S
C484 H468 0.959 . S
C484 H469 0.959 . S
C484 H470 0.961 . S
C484 C483 1.502 . S
C485 H471 0.960 . S
C485 H472 0.961 . S
C485 H473 0.959 . S
C485 C483 1.561 . S
C486 C483 1.526 . S
C486 C487 1.396 . S
C486 C491 1.390 . S
C487 C481 1.465 . S
C487 C486 1.396 . S
C487 C488 1.399 . S
C488 H474 0.929 . S
C488 C487 1.399 . S
C488 C489 1.385 . S
C489 H475 0.931 . S
C489 C488 1.385 . S
C489 C490 1.389 . S
C490 C489 1.389 . S
C490 C491 1.387 . S
C491 H476 0.930 . S
C491 C486 1.390 . S
C491 C490 1.387 . S
H492 C504 0.930 . S
H493 C506 0.930 . S
H494 C507 0.930 . S
H495 C511 0.959 . S
H496 C511 0.959 . S
H497 C511 0.961 . S
H498 C512 0.960 . S
H499 C512 0.961 . S
H500 C512 0.959 . S
H501 C515 0.929 . S
H502 C516 0.931 . S
H503 C518 0.930 . S
C504 H492 0.930 . S
C504 C505 1.399 . S
C504 C509 1.399 . S
C505 C504 1.399 . S
C505 C506 1.376 . S
C506 H493 0.930 . S
C506 C505 1.376 . S
C506 C507 1.388 . S
C507 H494 0.930 . S
C507 C506 1.388 . S
C507 C508 1.390 . S
C508 C507 1.390 . S
C508 C509 1.394 . S
C508 C514 1.465 . S
C509 C504 1.399 . S
C509 C508 1.394 . S
C509 C510 1.516 . S
C510 C509 1.516 . S
C510 C511 1.502 . S
C510 C512 1.561 . S
C510 C513 1.526 . S
C511 H495 0.959 . S
C511 H496 0.959 . S
C511 H497 0.961 . S
C511 C510 1.502 . S
C512 H498 0.960 . S
C512 H499 0.961 . S
C512 H500 0.959 . S
C512 C510 1.561 . S
C513 C510 1.526 . S
C513 C514 1.396 . S
C513 C518 1.390 . S
C514 C508 1.465 . S
C514 C513 1.396 . S
C514 C515 1.399 . S
C515 H501 0.929 . S
C515 C514 1.399 . S
C515 C516 1.385 . S
C516 H502 0.931 . S
C516 C515 1.385 . S
C516 C517 1.389 . S
C517 C516 1.389 . S
C517 C518 1.387 . S
C518 H503 0.930 . S
C518 C513 1.390 . S
C518 C517 1.387 . S
H519 C531 0.930 . S
H520 C533 0.930 . S
H521 C534 0.930 . S
H522 C538 0.959 . S
H523 C538 0.959 . S
H524 C538 0.961 . S
H525 C539 0.960 . S
H526 C539 0.961 . S
H527 C539 0.959 . S
H528 C542 0.929 . S
H529 C543 0.931 . S
H530 C545 0.930 . S
C531 H519 0.930 . S
C531 C532 1.399 . S
C531 C536 1.399 . S
C532 C531 1.399 . S
C532 C533 1.376 . S
C533 H520 0.930 . S
C533 C532 1.376 . S
C533 C534 1.388 . S
C534 H521 0.930 . S
C534 C533 1.388 . S
C534 C535 1.390 . S
C535 C534 1.390 . S
C535 C536 1.394 . S
C535 C541 1.465 . S
C536 C531 1.399 . S
C536 C535 1.394 . S
C536 C537 1.516 . S
C537 C536 1.516 . S
C537 C538 1.502 . S
C537 C539 1.561 . S
C537 C540 1.526 . S
C538 H522 0.959 . S
C538 H523 0.959 . S
C538 H524 0.961 . S
C538 C537 1.502 . S
C539 H525 0.960 . S
C539 H526 0.961 . S
C539 H527 0.959 . S
C539 C537 1.561 . S
C540 C537 1.526 . S
C540 C541 1.396 . S
C540 C545 1.390 . S
C541 C535 1.465 . S
C541 C540 1.396 . S
C541 C542 1.399 . S
C542 H528 0.929 . S
C542 C541 1.399 . S
C542 C543 1.385 . S
C543 H529 0.931 . S
C543 C542 1.385 . S
C543 C544 1.389 . S
C544 C543 1.389 . S
C544 C545 1.387 . S
C545 H530 0.930 . S
C545 C540 1.390 . S
C545 C544 1.387 . S
H546 C558 0.930 . S
H547 C560 0.930 . S
H548 C561 0.930 . S
H549 C565 0.959 . S
H550 C565 0.959 . S
H551 C565 0.961 . S
H552 C566 0.960 . S
H553 C566 0.961 . S
H554 C566 0.959 . S
H555 C569 0.929 . S
H556 C570 0.931 . S
H557 C572 0.930 . S
C558 H546 0.930 . S
C558 C559 1.399 . S
C558 C563 1.399 . S
C559 C558 1.399 . S
C559 C560 1.376 . S
C560 H547 0.930 . S
C560 C559 1.376 . S
C560 C561 1.388 . S
C561 H548 0.930 . S
C561 C560 1.388 . S
C561 C562 1.390 . S
C562 C561 1.390 . S
C562 C563 1.394 . S
C562 C568 1.465 . S
C563 C558 1.399 . S
C563 C562 1.394 . S
C563 C564 1.516 . S
C564 C563 1.516 . S
C564 C565 1.502 . S
C564 C566 1.561 . S
C564 C567 1.526 . S
C565 H549 0.959 . S
C565 H550 0.959 . S
C565 H551 0.961 . S
C565 C564 1.502 . S
C566 H552 0.960 . S
C566 H553 0.961 . S
C566 H554 0.959 . S
C566 C564 1.561 . S
C567 C564 1.526 . S
C567 C568 1.396 . S
C567 C572 1.390 . S
C568 C562 1.465 . S
C568 C567 1.396 . S
C568 C569 1.399 . S
C569 H555 0.929 . S
C569 C568 1.399 . S
C569 C570 1.385 . S
C570 H556 0.931 . S
C570 C569 1.385 . S
C570 C571 1.389 . S
C571 C570 1.389 . S
C571 C572 1.387 . S
C572 H557 0.930 . S
C572 C567 1.390 . S
C572 C571 1.387 . S
H573 C585 0.930 . S
H574 C587 0.930 . S
H575 C588 0.930 . S
H576 C592 0.959 . S
H577 C592 0.959 . S
H578 C592 0.961 . S
H579 C593 0.960 . S
H580 C593 0.961 . S
H581 C593 0.959 . S
H582 C596 0.929 . S
H583 C597 0.931 . S
H584 C599 0.930 . S
C585 H573 0.930 . S
C585 C586 1.399 . S
C585 C590 1.399 . S
C586 C585 1.399 . S
C586 C587 1.376 . S
C587 H574 0.930 . S
C587 C586 1.376 . S
C587 C588 1.388 . S
C588 H575 0.930 . S
C588 C587 1.388 . S
C588 C589 1.390 . S
C589 C588 1.390 . S
C589 C590 1.394 . S
C589 C595 1.465 . S
C590 C585 1.399 . S
C590 C589 1.394 . S
C590 C591 1.516 . S
C591 C590 1.516 . S
C591 C592 1.502 . S
C591 C593 1.561 . S
C591 C594 1.526 . S
C592 H576 0.959 . S
C592 H577 0.959 . S
C592 H578 0.961 . S
C592 C591 1.502 . S
C593 H579 0.960 . S
C593 H580 0.961 . S
C593 H581 0.959 . S
C593 C591 1.561 . S
C594 C591 1.526 . S
C594 C595 1.396 . S
C594 C599 1.390 . S
C595 C589 1.465 . S
C595 C594 1.396 . S
C595 C596 1.399 . S
C596 H582 0.929 . S
C596 C595 1.399 . S
C596 C597 1.385 . S
C597 H583 0.931 . S
C597 C596 1.385 . S
C597 C598 1.389 . S
C598 C597 1.389 . S
C598 C599 1.387 . S
C599 H584 0.930 . S
C599 C594 1.390 . S
C599 C598 1.387 . S
H600 C612 0.930 . S
H601 C614 0.930 . S
H602 C615 0.930 . S
H603 C619 0.959 . S
H604 C619 0.959 . S
H605 C619 0.961 . S
H606 C620 0.960 . S
H607 C620 0.961 . S
H608 C620 0.959 . S
H609 C623 0.929 . S
H610 C624 0.931 . S
H611 C626 0.930 . S
C612 H600 0.930 . S
C612 C613 1.399 . S
C612 C617 1.399 . S
C613 C612 1.399 . S
C613 C614 1.376 . S
C614 H601 0.930 . S
C614 C613 1.376 . S
C614 C615 1.388 . S
C615 H602 0.930 . S
C615 C614 1.388 . S
C615 C616 1.390 . S
C616 C615 1.390 . S
C616 C617 1.394 . S
C616 C622 1.465 . S
C617 C612 1.399 . S
C617 C616 1.394 . S
C617 C618 1.516 . S
C618 C617 1.516 . S
C618 C619 1.502 . S
C618 C620 1.561 . S
C618 C621 1.526 . S
C619 H603 0.959 . S
C619 H604 0.959 . S
C619 H605 0.961 . S
C619 C618 1.502 . S
C620 H606 0.960 . S
C620 H607 0.961 . S
C620 H608 0.959 . S
C620 C618 1.561 . S
C621 C618 1.526 . S
C621 C622 1.396 . S
C621 C626 1.390 . S
C622 C616 1.465 . S
C622 C621 1.396 . S
C622 C623 1.399 . S
C623 H609 0.929 . S
C623 C622 1.399 . S
C623 C624 1.385 . S
C624 H610 0.931 . S
C624 C623 1.385 . S
C624 C625 1.389 . S
C625 C624 1.389 . S
C625 C626 1.387 . S
C626 H611 0.930 . S
C626 C621 1.390 . S
C626 C625 1.387 . S
H627 C639 0.930 . S
H628 C641 0.930 . S
H629 C642 0.930 . S
H630 C646 0.959 . S
H631 C646 0.959 . S
H632 C646 0.961 . S
H633 C647 0.960 . S
H634 C647 0.961 . S
H635 C647 0.959 . S
H636 C650 0.929 . S
H637 C651 0.931 . S
H638 C653 0.930 . S
C639 H627 0.930 . S
C639 C640 1.399 . S
C639 C644 1.399 . S
C640 C639 1.399 . S
C640 C641 1.376 . S
C641 H628 0.930 . S
C641 C640 1.376 . S
C641 C642 1.388 . S
C642 H629 0.930 . S
C642 C641 1.388 . S
C642 C643 1.390 . S
C643 C642 1.390 . S
C643 C644 1.394 . S
C643 C649 1.465 . S
C644 C639 1.399 . S
C644 C643 1.394 . S
C644 C645 1.516 . S
C645 C644 1.516 . S
C645 C646 1.502 . S
C645 C647 1.561 . S
C645 C648 1.526 . S
C646 H630 0.959 . S
C646 H631 0.959 . S
C646 H632 0.961 . S
C646 C645 1.502 . S
C647 H633 0.960 . S
C647 H634 0.961 . S
C647 H635 0.959 . S
C647 C645 1.561 . S
C648 C645 1.526 . S
C648 C649 1.396 . S
C648 C653 1.390 . S
C649 C643 1.465 . S
C649 C648 1.396 . S
C649 C650 1.399 . S
C650 H636 0.929 . S
C650 C649 1.399 . S
C650 C651 1.385 . S
C651 H637 0.931 . S
C651 C650 1.385 . S
C651 C652 1.389 . S
C652 C651 1.389 . S
C652 C653 1.387 . S
C653 H638 0.930 . S
C653 C648 1.390 . S
C653 C652 1.387 . S
H654 C666 0.930 . S
H655 C668 0.930 . S
H656 C669 0.930 . S
H657 C673 0.959 . S
H658 C673 0.959 . S
H659 C673 0.961 . S
H660 C674 0.960 . S
H661 C674 0.961 . S
H662 C674 0.959 . S
H663 C677 0.929 . S
H664 C678 0.931 . S
H665 C680 0.930 . S
C666 H654 0.930 . S
C666 C667 1.399 . S
C666 C671 1.399 . S
C667 C666 1.399 . S
C667 C668 1.376 . S
C668 H655 0.930 . S
C668 C667 1.376 . S
C668 C669 1.388 . S
C669 H656 0.930 . S
C669 C668 1.388 . S
C669 C670 1.390 . S
C670 C669 1.390 . S
C670 C671 1.394 . S
C670 C676 1.465 . S
C671 C666 1.399 . S
C671 C670 1.394 . S
C671 C672 1.516 . S
C672 C671 1.516 . S
C672 C673 1.502 . S
C672 C674 1.561 . S
C672 C675 1.526 . S
C673 H657 0.959 . S
C673 H658 0.959 . S
C673 H659 0.961 . S
C673 C672 1.502 . S
C674 H660 0.960 . S
C674 H661 0.961 . S
C674 H662 0.959 . S
C674 C672 1.561 . S
C675 C672 1.526 . S
C675 C676 1.396 . S
C675 C680 1.390 . S
C676 C670 1.465 . S
C676 C675 1.396 . S
C676 C677 1.399 . S
C677 H663 0.929 . S
C677 C676 1.399 . S
C677 C678 1.385 . S
C678 H664 0.931 . S
C678 C677 1.385 . S
C678 C679 1.389 . S
C679 C678 1.389 . S
C679 C680 1.387 . S
C680 H665 0.930 . S
C680 C675 1.390 . S
C680 C679 1.387 . S
H681 C693 0.930 . S
H682 C695 0.930 . S
H683 C696 0.930 . S
H684 C700 0.959 . S
H685 C700 0.959 . S
H686 C700 0.961 . S
H687 C701 0.960 . S
H688 C701 0.961 . S
H689 C701 0.959 . S
H690 C704 0.929 . S
H691 C705 0.931 . S
H692 C707 0.930 . S
C693 H681 0.930 . S
C693 C694 1.399 . S
C693 C698 1.399 . S
C694 C693 1.399 . S
C694 C695 1.376 . S
C695 H682 0.930 . S
C695 C694 1.376 . S
C695 C696 1.388 . S
C696 H683 0.930 . S
C696 C695 1.388 . S
C696 C697 1.390 . S
C697 C696 1.390 . S
C697 C698 1.394 . S
C697 C703 1.465 . S
C698 C693 1.399 . S
C698 C697 1.394 . S
C698 C699 1.516 . S
C699 C698 1.516 . S
C699 C700 1.502 . S
C699 C701 1.561 . S
C699 C702 1.526 . S
C700 H684 0.959 . S
C700 H685 0.959 . S
C700 H686 0.961 . S
C700 C699 1.502 . S
C701 H687 0.960 . S
C701 H688 0.961 . S
C701 H689 0.959 . S
C701 C699 1.561 . S
C702 C699 1.526 . S
C702 C703 1.396 . S
C702 C707 1.390 . S
C703 C697 1.465 . S
C703 C702 1.396 . S
C703 C704 1.399 . S
C704 H690 0.929 . S
C704 C703 1.399 . S
C704 C705 1.385 . S
C705 H691 0.931 . S
C705 C704 1.385 . S
C705 C706 1.389 . S
C706 C705 1.389 . S
C706 C707 1.387 . S
C707 H692 0.930 . S
C707 C702 1.390 . S
C707 C706 1.387 . S
H708 C720 0.930 . S
H709 C722 0.930 . S
H710 C723 0.930 . S
H711 C727 0.959 . S
H712 C727 0.959 . S
H713 C727 0.961 . S
H714 C728 0.960 . S
H715 C728 0.961 . S
H716 C728 0.959 . S
H717 C731 0.929 . S
H718 C732 0.931 . S
H719 C734 0.930 . S
C720 H708 0.930 . S
C720 C721 1.399 . S
C720 C725 1.399 . S
C721 C720 1.399 . S
C721 C722 1.376 . S
C722 H709 0.930 . S
C722 C721 1.376 . S
C722 C723 1.388 . S
C723 H710 0.930 . S
C723 C722 1.388 . S
C723 C724 1.390 . S
C724 C723 1.390 . S
C724 C725 1.394 . S
C724 C730 1.465 . S
C725 C720 1.399 . S
C725 C724 1.394 . S
C725 C726 1.516 . S
C726 C725 1.516 . S
C726 C727 1.502 . S
C726 C728 1.561 . S
C726 C729 1.526 . S
C727 H711 0.959 . S
C727 H712 0.959 . S
C727 H713 0.961 . S
C727 C726 1.502 . S
C728 H714 0.960 . S
C728 H715 0.961 . S
C728 H716 0.959 . S
C728 C726 1.561 . S
C729 C726 1.526 . S
C729 C730 1.396 . S
C729 C734 1.390 . S
C730 C724 1.465 . S
C730 C729 1.396 . S
C730 C731 1.399 . S
C731 H717 0.929 . S
C731 C730 1.399 . S
C731 C732 1.385 . S
C732 H718 0.931 . S
C732 C731 1.385 . S
C732 C733 1.389 . S
C733 C732 1.389 . S
C733 C734 1.387 . S
C734 H719 0.930 . S
C734 C729 1.390 . S
C734 C733 1.387 . S
H735 C747 0.930 . S
H736 C749 0.930 . S
H737 C750 0.930 . S
H738 C754 0.959 . S
H739 C754 0.959 . S
H740 C754 0.961 . S
H741 C755 0.960 . S
H742 C755 0.961 . S
H743 C755 0.959 . S
H744 C758 0.929 . S
H745 C759 0.931 . S
H746 C761 0.930 . S
C747 H735 0.930 . S
C747 C748 1.399 . S
C747 C752 1.399 . S
C748 C747 1.399 . S
C748 C749 1.376 . S
C749 H736 0.930 . S
C749 C748 1.376 . S
C749 C750 1.388 . S
C750 H737 0.930 . S
C750 C749 1.388 . S
C750 C751 1.390 . S
C751 C750 1.390 . S
C751 C752 1.394 . S
C751 C757 1.465 . S
C752 C747 1.399 . S
C752 C751 1.394 . S
C752 C753 1.516 . S
C753 C752 1.516 . S
C753 C754 1.502 . S
C753 C755 1.561 . S
C753 C756 1.526 . S
C754 H738 0.959 . S
C754 H739 0.959 . S
C754 H740 0.961 . S
C754 C753 1.502 . S
C755 H741 0.960 . S
C755 H742 0.961 . S
C755 H743 0.959 . S
C755 C753 1.561 . S
C756 C753 1.526 . S
C756 C757 1.396 . S
C756 C761 1.390 . S
C757 C751 1.465 . S
C757 C756 1.396 . S
C757 C758 1.399 . S
C758 H744 0.929 . S
C758 C757 1.399 . S
C758 C759 1.385 . S
C759 H745 0.931 . S
C759 C758 1.385 . S
C759 C760 1.389 . S
C760 C759 1.389 . S
C760 C761 1.387 . S
C761 H746 0.930 . S
C761 C756 1.390 . S
C761 C760 1.387 . S
H762 C774 0.930 1_554 S
H763 C776 0.930 . S
H764 C777 0.930 . S
H765 C781 0.959 . S
H766 C781 0.959 . S
H767 C781 0.961 . S
H768 C782 0.960 1_554 S
H769 C782 0.961 . S
H770 C782 0.959 . S
H771 C785 0.929 . S
H772 C786 0.931 . S
H773 C788 0.930 . S
C774 H762 0.930 1_556 S
C774 C775 1.399 . S
C774 C779 1.399 . S
C775 C774 1.399 . S
C775 C776 1.376 . S
C776 H763 0.930 . S
C776 C775 1.376 . S
C776 C777 1.388 . S
C777 H764 0.930 . S
C777 C776 1.388 . S
C777 C778 1.390 . S
C778 C777 1.390 . S
C778 C779 1.394 . S
C778 C784 1.465 . S
C779 C774 1.399 . S
C779 C778 1.394 . S
C779 C780 1.516 . S
C780 C779 1.516 . S
C780 C781 1.502 . S
C780 C782 1.561 . S
C780 C783 1.526 . S
C781 H765 0.959 . S
C781 H766 0.959 . S
C781 H767 0.961 . S
C781 C780 1.502 . S
C782 H768 0.960 1_556 S
C782 H769 0.961 . S
C782 H770 0.959 . S
C782 C780 1.561 . S
C783 C780 1.526 . S
C783 C784 1.396 . S
C783 C788 1.390 . S
C784 C778 1.465 . S
C784 C783 1.396 . S
C784 C785 1.399 . S
C785 H771 0.929 . S
C785 C784 1.399 . S
C785 C786 1.385 . S
C786 H772 0.931 . S
C786 C785 1.385 . S
C786 C787 1.389 . S
C787 C786 1.389 . S
C787 C788 1.387 . S
C788 H773 0.930 . S
C788 C783 1.390 . S
C788 C787 1.387 . S
H789 C801 0.930 . S
H790 C803 0.930 . S
H791 C804 0.930 . S
H792 C808 0.959 . S
H793 C808 0.959 . S
H794 C808 0.961 . S
H795 C809 0.960 . S
H796 C809 0.961 . S
H797 C809 0.959 . S
H798 C812 0.929 . S
H799 C813 0.931 . S
H800 C815 0.930 . S
C801 H789 0.930 . S
C801 C802 1.399 . S
C801 C806 1.399 . S
C802 C801 1.399 . S
C802 C803 1.376 . S
C803 H790 0.930 . S
C803 C802 1.376 . S
C803 C804 1.388 . S
C804 H791 0.930 . S
C804 C803 1.388 . S
C804 C805 1.390 . S
C805 C804 1.390 . S
C805 C806 1.394 . S
C805 C811 1.465 . S
C806 C801 1.399 . S
C806 C805 1.394 . S
C806 C807 1.516 . S
C807 C806 1.516 . S
C807 C808 1.502 . S
C807 C809 1.561 . S
C807 C810 1.526 . S
C808 H792 0.959 . S
C808 H793 0.959 . S
C808 H794 0.961 . S
C808 C807 1.502 . S
C809 H795 0.960 . S
C809 H796 0.961 . S
C809 H797 0.959 . S
C809 C807 1.561 . S
C810 C807 1.526 . S
C810 C811 1.396 . S
C810 C815 1.390 . S
C811 C805 1.465 . S
C811 C810 1.396 . S
C811 C812 1.399 . S
C812 H798 0.929 . S
C812 C811 1.399 . S
C812 C813 1.385 . S
C813 H799 0.931 . S
C813 C812 1.385 . S
C813 C814 1.389 . S
C814 C813 1.389 . S
C814 C815 1.387 . S
C815 H800 0.930 . S
C815 C810 1.390 . S
C815 C814 1.387 . S
H816 C828 0.930 . S
H817 C830 0.930 . S
H818 C831 0.930 . S
H819 C835 0.959 . S
H820 C835 0.959 . S
H821 C835 0.961 . S
H822 C836 0.960 . S
H823 C836 0.961 . S
H824 C836 0.959 . S
H825 C839 0.929 . S
H826 C840 0.931 . S
H827 C842 0.930 . S
C828 H816 0.930 . S
C828 C829 1.399 . S
C828 C833 1.399 . S
C829 C828 1.399 . S
C829 C830 1.376 . S
C830 H817 0.930 . S
C830 C829 1.376 . S
C830 C831 1.388 . S
C831 H818 0.930 . S
C831 C830 1.388 . S
C831 C832 1.390 . S
C832 C831 1.390 . S
C832 C833 1.394 . S
C832 C838 1.465 . S
C833 C828 1.399 . S
C833 C832 1.394 . S
C833 C834 1.516 . S
C834 C833 1.516 . S
C834 C835 1.502 . S
C834 C836 1.561 . S
C834 C837 1.526 . S
C835 H819 0.959 . S
C835 H820 0.959 . S
C835 H821 0.961 . S
C835 C834 1.502 . S
C836 H822 0.960 . S
C836 H823 0.961 . S
C836 H824 0.959 . S
C836 C834 1.561 . S
C837 C834 1.526 . S
C837 C838 1.396 . S
C837 C842 1.390 . S
C838 C832 1.465 . S
C838 C837 1.396 . S
C838 C839 1.399 . S
C839 H825 0.929 . S
C839 C838 1.399 . S
C839 C840 1.385 . S
C840 H826 0.931 . S
C840 C839 1.385 . S
C840 C841 1.389 . S
C841 C840 1.389 . S
C841 C842 1.387 . S
C842 H827 0.930 . S
C842 C837 1.390 . S
C842 C841 1.387 . S
H843 C855 0.930 . S
H844 C857 0.930 . S
H845 C858 0.930 . S
H846 C862 0.959 . S
H847 C862 0.959 . S
H848 C862 0.961 . S
H849 C863 0.960 . S
H850 C863 0.961 . S
H851 C863 0.959 . S
H852 C866 0.929 . S
H853 C867 0.931 . S
H854 C869 0.930 . S
C855 H843 0.930 . S
C855 C856 1.399 . S
C855 C860 1.399 . S
C856 C855 1.399 . S
C856 C857 1.376 1_556 S
C857 H844 0.930 . S
C857 C856 1.376 1_554 S
C857 C858 1.388 . S
C858 H845 0.930 . S
C858 C857 1.388 . S
C858 C859 1.390 1_554 S
C859 C858 1.390 1_556 S
C859 C860 1.394 . S
C859 C865 1.465 . S
C860 C855 1.399 . S
C860 C859 1.394 . S
C860 C861 1.516 . S
C861 C860 1.516 . S
C861 C862 1.502 . S
C861 C863 1.561 . S
C861 C864 1.526 . S
C862 H846 0.959 . S
C862 H847 0.959 . S
C862 H848 0.961 . S
C862 C861 1.502 . S
C863 H849 0.960 . S
C863 H850 0.961 . S
C863 H851 0.959 . S
C863 C861 1.561 . S
C864 C861 1.526 . S
C864 C865 1.396 . S
C864 C869 1.390 . S
C865 C859 1.465 . S
C865 C864 1.396 . S
C865 C866 1.399 . S
C866 H852 0.929 . S
C866 C865 1.399 . S
C866 C867 1.385 . S
C867 H853 0.931 . S
C867 C866 1.385 . S
C867 C868 1.389 . S
C868 C867 1.389 . S
C868 C869 1.387 . S
C869 H854 0.930 . S
C869 C864 1.390 . S
C869 C868 1.387 . S
H870 C882 0.930 . S
H871 C884 0.930 . S
H872 C885 0.930 . S
H873 C889 0.959 . S
H874 C889 0.959 . S
H875 C889 0.961 . S
H876 C890 0.960 . S
H877 C890 0.961 . S
H878 C890 0.959 . S
H879 C893 0.929 . S
H880 C894 0.931 . S
H881 C896 0.930 . S
C882 H870 0.930 . S
C882 C883 1.399 . S
C882 C887 1.399 . S
C883 C882 1.399 . S
C883 C884 1.376 . S
C884 H871 0.930 . S
C884 C883 1.376 . S
C884 C885 1.388 . S
C885 H872 0.930 . S
C885 C884 1.388 . S
C885 C886 1.390 . S
C886 C885 1.390 . S
C886 C887 1.394 . S
C886 C892 1.465 . S
C887 C882 1.399 . S
C887 C886 1.394 . S
C887 C888 1.516 . S
C888 C887 1.516 . S
C888 C889 1.502 . S
C888 C890 1.561 . S
C888 C891 1.526 . S
C889 H873 0.959 . S
C889 H874 0.959 . S
C889 H875 0.961 . S
C889 C888 1.502 . S
C890 H876 0.960 . S
C890 H877 0.961 . S
C890 H878 0.959 . S
C890 C888 1.561 . S
C891 C888 1.526 . S
C891 C892 1.396 . S
C891 C896 1.390 . S
C892 C886 1.465 . S
C892 C891 1.396 . S
C892 C893 1.399 . S
C893 H879 0.929 . S
C893 C892 1.399 . S
C893 C894 1.385 . S
C894 H880 0.931 . S
C894 C893 1.385 . S
C894 C895 1.389 . S
C895 C894 1.389 . S
C895 C896 1.387 . S
C896 H881 0.930 . S
C896 C891 1.390 . S
C896 C895 1.387 . S
H897 C909 0.930 . S
H898 C911 0.930 1_554 S
H899 C912 0.930 . S
H900 C916 0.959 . S
H901 C916 0.959 . S
H902 C916 0.961 . S
H903 C917 0.960 . S
H904 C917 0.961 . S
H905 C917 0.959 . S
H906 C920 0.929 . S
H907 C921 0.931 . S
H908 C923 0.930 . S
C909 H897 0.930 . S
C909 C910 1.399 . S
C909 C914 1.399 . S
C910 C909 1.399 . S
C910 C911 1.376 . S
C911 H898 0.930 1_556 S
C911 C910 1.376 . S
C911 C912 1.388 . S
C912 H899 0.930 . S
C912 C911 1.388 . S
C912 C913 1.390 . S
C913 C912 1.390 . S
C913 C914 1.394 . S
C913 C919 1.465 . S
C914 C909 1.399 . S
C914 C913 1.394 . S
C914 C915 1.516 . S
C915 C914 1.516 . S
C915 C916 1.502 . S
C915 C917 1.561 . S
C915 C918 1.526 . S
C916 H900 0.959 . S
C916 H901 0.959 . S
C916 H902 0.961 . S
C916 C915 1.502 . S
C917 H903 0.960 . S
C917 H904 0.961 . S
C917 H905 0.959 . S
C917 C915 1.561 . S
C918 C915 1.526 . S
C918 C919 1.396 . S
C918 C923 1.390 . S
C919 C913 1.465 . S
C919 C918 1.396 . S
C919 C920 1.399 . S
C920 H906 0.929 . S
C920 C919 1.399 . S
C920 C921 1.385 . S
C921 H907 0.931 . S
C921 C920 1.385 . S
C921 C922 1.389 . S
C922 C921 1.389 . S
C922 C923 1.387 . S
C923 H908 0.930 . S
C923 C918 1.390 . S
C923 C922 1.387 . S
H924 C936 0.930 . S
H925 C938 0.930 . S
H926 C939 0.930 . S
H927 C943 0.959 . S
H928 C943 0.959 . S
H929 C943 0.961 . S
H930 C944 0.960 . S
H931 C944 0.961 . S
H932 C944 0.959 . S
H933 C947 0.929 . S
H934 C948 0.931 . S
H935 C950 0.930 . S
C936 H924 0.930 . S
C936 C937 1.399 . S
C936 C941 1.399 . S
C937 C936 1.399 . S
C937 C938 1.376 . S
C938 H925 0.930 . S
C938 C937 1.376 . S
C938 C939 1.388 . S
C939 H926 0.930 . S
C939 C938 1.388 . S
C939 C940 1.390 . S
C940 C939 1.390 . S
C940 C941 1.394 . S
C940 C946 1.465 . S
C941 C936 1.399 . S
C941 C940 1.394 . S
C941 C942 1.516 . S
C942 C941 1.516 . S
C942 C943 1.502 . S
C942 C944 1.561 . S
C942 C945 1.526 . S
C943 H927 0.959 . S
C943 H928 0.959 . S
C943 H929 0.961 . S
C943 C942 1.502 . S
C944 H930 0.960 . S
C944 H931 0.961 . S
C944 H932 0.959 . S
C944 C942 1.561 . S
C945 C942 1.526 . S
C945 C946 1.396 . S
C945 C950 1.390 . S
C946 C940 1.465 . S
C946 C945 1.396 . S
C946 C947 1.399 . S
C947 H933 0.929 . S
C947 C946 1.399 . S
C947 C948 1.385 . S
C948 H934 0.931 . S
C948 C947 1.385 . S
C948 C949 1.389 . S
C949 C948 1.389 . S
C949 C950 1.387 . S
C950 H935 0.930 . S
C950 C945 1.390 . S
C950 C949 1.387 . S
H951 C963 0.930 . S
H952 C965 0.930 . S
H953 C966 0.930 . S
H954 C970 0.959 . S
H955 C970 0.959 . S
H956 C970 0.961 . S
H957 C971 0.960 . S
H958 C971 0.961 . S
H959 C971 0.959 . S
H960 C974 0.929 . S
H961 C975 0.931 . S
H962 C977 0.930 . S
C963 H951 0.930 . S
C963 C964 1.399 . S
C963 C968 1.399 . S
C964 C963 1.399 . S
C964 C965 1.376 . S
C965 H952 0.930 . S
C965 C964 1.376 . S
C965 C966 1.388 . S
C966 H953 0.930 . S
C966 C965 1.388 . S
C966 C967 1.390 . S
C967 C966 1.390 . S
C967 C968 1.394 . S
C967 C973 1.465 . S
C968 C963 1.399 . S
C968 C967 1.394 . S
C968 C969 1.516 . S
C969 C968 1.516 . S
C969 C970 1.502 . S
C969 C971 1.561 . S
C969 C972 1.526 . S
C970 H954 0.959 . S
C970 H955 0.959 . S
C970 H956 0.961 . S
C970 C969 1.502 . S
C971 H957 0.960 . S
C971 H958 0.961 . S
C971 H959 0.959 . S
C971 C969 1.561 . S
C972 C969 1.526 . S
C972 C973 1.396 . S
C972 C977 1.390 . S
C973 C967 1.465 . S
C973 C972 1.396 . S
C973 C974 1.399 . S
C974 H960 0.929 . S
C974 C973 1.399 . S
C974 C975 1.385 . S
C975 H961 0.931 . S
C975 C974 1.385 . S
C975 C976 1.389 . S
C976 C975 1.389 . S
C976 C977 1.387 . S
C977 H962 0.930 . S
C977 C972 1.390 . S
C977 C976 1.387 . S
H978 C990 0.930 . S
H979 C992 0.930 . S
H980 C993 0.930 . S
H981 C997 0.959 . S
H982 C997 0.959 . S
H983 C997 0.961 . S
H984 C998 0.960 . S
H985 C998 0.961 . S
H986 C998 0.959 . S
H987 C1001 0.929 . S
H988 C1002 0.931 . S
H989 C1004 0.930 . S
C990 H978 0.930 . S
C990 C991 1.399 . S
C990 C995 1.399 . S
C991 C990 1.399 . S
C991 C992 1.376 . S
C992 H979 0.930 . S
C992 C991 1.376 . S
C992 C993 1.388 . S
C993 H980 0.930 . S
C993 C992 1.388 . S
C993 C994 1.390 . S
C994 C993 1.390 . S
C994 C995 1.394 . S
C994 C1000 1.465 . S
C995 C990 1.399 . S
C995 C994 1.394 . S
C995 C996 1.516 . S
C996 C995 1.516 . S
C996 C997 1.502 . S
C996 C998 1.561 . S
C996 C999 1.526 . S
C997 H981 0.959 . S
C997 H982 0.959 . S
C997 H983 0.961 . S
C997 C996 1.502 . S
C998 H984 0.960 . S
C998 H985 0.961 . S
C998 H986 0.959 . S
C998 C996 1.561 . S
C999 C996 1.526 . S
C999 C1000 1.396 . S
C999 C1004 1.390 . S
C1000 C994 1.465 . S
C1000 C999 1.396 . S
C1000 C1001 1.399 . S
C1001 H987 0.929 . S
C1001 C1000 1.399 . S
C1001 C1002 1.385 . S
C1002 H988 0.931 . S
C1002 C1001 1.385 . S
C1002 C1003 1.389 . S
C1003 C1002 1.389 . S
C1003 C1004 1.387 . S
C1004 H989 0.930 . S
C1004 C999 1.390 . S
C1004 C1003 1.387 . S
H1005 C1017 0.930 . S
H1006 C1019 0.930 . S
H1007 C1020 0.930 . S
H1008 C1024 0.959 . S
H1009 C1024 0.959 . S
H1010 C1024 0.961 . S
H1011 C1025 0.960 . S
H1012 C1025 0.961 . S
H1013 C1025 0.959 . S
H1014 C1028 0.929 . S
H1015 C1029 0.931 . S
H1016 C1031 0.930 . S
C1017 H1005 0.930 . S
C1017 C1018 1.399 . S
C1017 C1022 1.399 . S
C1018 C1017 1.399 . S
C1018 C1019 1.376 . S
C1019 H1006 0.930 . S
C1019 C1018 1.376 . S
C1019 C1020 1.388 . S
C1020 H1007 0.930 . S
C1020 C1019 1.388 . S
C1020 C1021 1.390 . S
C1021 C1020 1.390 . S
C1021 C1022 1.394 . S
C1021 C1027 1.465 . S
C1022 C1017 1.399 . S
C1022 C1021 1.394 . S
C1022 C1023 1.516 . S
C1023 C1022 1.516 . S
C1023 C1024 1.502 . S
C1023 C1025 1.561 . S
C1023 C1026 1.526 . S
C1024 H1008 0.959 . S
C1024 H1009 0.959 . S
C1024 H1010 0.961 . S
C1024 C1023 1.502 . S
C1025 H1011 0.960 . S
C1025 H1012 0.961 . S
C1025 H1013 0.959 . S
C1025 C1023 1.561 . S
C1026 C1023 1.526 . S
C1026 C1027 1.396 . S
C1026 C1031 1.390 . S
C1027 C1021 1.465 . S
C1027 C1026 1.396 . S
C1027 C1028 1.399 . S
C1028 H1014 0.929 . S
C1028 C1027 1.399 . S
C1028 C1029 1.385 . S
C1029 H1015 0.931 . S
C1029 C1028 1.385 . S
C1029 C1030 1.389 . S
C1030 C1029 1.389 . S
C1030 C1031 1.387 . S
C1031 H1016 0.930 . S
C1031 C1026 1.390 . S
C1031 C1030 1.387 . S
H1032 C1044 0.930 . S
H1033 C1046 0.930 . S
H1034 C1047 0.930 . S
H1035 C1051 0.959 . S
H1036 C1051 0.959 . S
H1037 C1051 0.961 . S
H1038 C1052 0.960 . S
H1039 C1052 0.961 . S
H1040 C1052 0.959 . S
H1041 C1055 0.929 . S
H1042 C1056 0.931 . S
H1043 C1058 0.930 . S
C1044 H1032 0.930 . S
C1044 C1045 1.399 . S
C1044 C1049 1.399 . S
C1045 C1044 1.399 . S
C1045 C1046 1.376 . S
C1046 H1033 0.930 . S
C1046 C1045 1.376 . S
C1046 C1047 1.388 . S
C1047 H1034 0.930 . S
C1047 C1046 1.388 . S
C1047 C1048 1.390 . S
C1048 C1047 1.390 . S
C1048 C1049 1.394 . S
C1048 C1054 1.465 . S
C1049 C1044 1.399 . S
C1049 C1048 1.394 . S
C1049 C1050 1.516 . S
C1050 C1049 1.516 . S
C1050 C1051 1.502 . S
C1050 C1052 1.561 . S
C1050 C1053 1.526 . S
C1051 H1035 0.959 . S
C1051 H1036 0.959 . S
C1051 H1037 0.961 . S
C1051 C1050 1.502 . S
C1052 H1038 0.960 . S
C1052 H1039 0.961 . S
C1052 H1040 0.959 . S
C1052 C1050 1.561 . S
C1053 C1050 1.526 . S
C1053 C1054 1.396 . S
C1053 C1058 1.390 . S
C1054 C1048 1.465 . S
C1054 C1053 1.396 . S
C1054 C1055 1.399 . S
C1055 H1041 0.929 . S
C1055 C1054 1.399 . S
C1055 C1056 1.385 . S
C1056 H1042 0.931 . S
C1056 C1055 1.385 . S
C1056 C1057 1.389 . S
C1057 C1056 1.389 . S
C1057 C1058 1.387 . S
C1058 H1043 0.930 . S
C1058 C1053 1.390 . S
C1058 C1057 1.387 . S
H1059 C1071 0.930 . S
H1060 C1073 0.930 . S
H1061 C1074 0.930 . S
H1062 C1078 0.959 . S
H1063 C1078 0.959 . S
H1064 C1078 0.961 . S
H1065 C1079 0.960 . S
H1066 C1079 0.961 . S
H1067 C1079 0.959 . S
H1068 C1082 0.929 . S
H1069 C1083 0.931 . S
H1070 C1085 0.930 . S
C1071 H1059 0.930 . S
C1071 C1072 1.399 . S
C1071 C1076 1.399 . S
C1072 C1071 1.399 . S
C1072 C1073 1.376 . S
C1073 H1060 0.930 . S
C1073 C1072 1.376 . S
C1073 C1074 1.388 . S
C1074 H1061 0.930 . S
C1074 C1073 1.388 . S
C1074 C1075 1.390 . S
C1075 C1074 1.390 . S
C1075 C1076 1.394 . S
C1075 C1081 1.465 . S
C1076 C1071 1.399 . S
C1076 C1075 1.394 . S
C1076 C1077 1.516 . S
C1077 C1076 1.516 . S
C1077 C1078 1.502 . S
C1077 C1079 1.561 . S
C1077 C1080 1.526 . S
C1078 H1062 0.959 . S
C1078 H1063 0.959 . S
C1078 H1064 0.961 . S
C1078 C1077 1.502 . S
C1079 H1065 0.960 . S
C1079 H1066 0.961 . S
C1079 H1067 0.959 . S
C1079 C1077 1.561 . S
C1080 C1077 1.526 . S
C1080 C1081 1.396 . S
C1080 C1085 1.390 . S
C1081 C1075 1.465 . S
C1081 C1080 1.396 . S
C1081 C1082 1.399 . S
C1082 H1068 0.929 . S
C1082 C1081 1.399 . S
C1082 C1083 1.385 . S
C1083 H1069 0.931 . S
C1083 C1082 1.385 . S
C1083 C1084 1.389 . S
C1084 C1083 1.389 . S
C1084 C1085 1.387 . S
C1085 H1070 0.930 . S
C1085 C1080 1.390 . S
C1085 C1084 1.387 . S
H1086 C1098 0.930 . S
H1087 C1100 0.930 . S
H1088 C1101 0.930 . S
H1089 C1105 0.959 . S
H1090 C1105 0.959 . S
H1091 C1105 0.961 . S
H1092 C1106 0.960 . S
H1093 C1106 0.961 . S
H1094 C1106 0.959 . S
H1095 C1109 0.929 . S
H1096 C1110 0.931 . S
H1097 C1112 0.930 . S
C1098 H1086 0.930 . S
C1098 C1099 1.399 . S
C1098 C1103 1.399 . S
C1099 C1098 1.399 . S
C1099 C1100 1.376 . S
C1100 H1087 0.930 . S
C1100 C1099 1.376 . S
C1100 C1101 1.388 . S
C1101 H1088 0.930 . S
C1101 C1100 1.388 . S
C1101 C1102 1.390 . S
C1102 C1101 1.390 . S
C1102 C1103 1.394 . S
C1102 C1108 1.465 . S
C1103 C1098 1.399 . S
C1103 C1102 1.394 . S
C1103 C1104 1.516 . S
C1104 C1103 1.516 . S
C1104 C1105 1.502 . S
C1104 C1106 1.561 . S
C1104 C1107 1.526 . S
C1105 H1089 0.959 . S
C1105 H1090 0.959 . S
C1105 H1091 0.961 . S
C1105 C1104 1.502 . S
C1106 H1092 0.960 . S
C1106 H1093 0.961 . S
C1106 H1094 0.959 . S
C1106 C1104 1.561 . S
C1107 C1104 1.526 . S
C1107 C1108 1.396 . S
C1107 C1112 1.390 . S
C1108 C1102 1.465 . S
C1108 C1107 1.396 . S
C1108 C1109 1.399 . S
C1109 H1095 0.929 . S
C1109 C1108 1.399 . S
C1109 C1110 1.385 . S
C1110 H1096 0.931 . S
C1110 C1109 1.385 . S
C1110 C1111 1.389 . S
C1111 C1110 1.389 . S
C1111 C1112 1.387 . S
C1112 H1097 0.930 . S
C1112 C1107 1.390 . S
C1112 C1111 1.387 . S
C478 C47 2.044 . S
C490 C383 2.140 . S
C505 C91 1.789 . S
C517 C430 1.896 . S
C544 C434 1.781 . S
C532 C177 1.905 . S
C571 C399 1.802 . S
C559 C215 1.783 . S
C586 C295 1.966 . S
C598 C414 2.013 . S
C625 C436 0.838 . S
C613 C345 0.961 . S
C652 C405 1.664 . S
C640 C153 1.673 . S
C667 C239 1.318 . S
C679 C445 1.310 . S
C706 C374 1.276 . S
C694 C283 1.241 . S
C721 C357 1.645 1_556 S
C733 C403 1.657 . S
C748 C35 1.959 1_556 S
C760 C461 1.862 . S
C787 C372 1.450 . S
C775 C115 1.541 1_556 S
C814 C390 1.751 . S
C802 C221 1.780 . S
C841 C404 1.558 . S
C829 C301 1.565 . S
C868 C458 2.082 . S
C856 C339 2.029 1_556 S
C895 C373 1.540 . S
C883 C53 1.529 1_556 S
C922 C421 1.636 . S
C910 C97 1.782 . S
C937 C171 1.173 . S
C949 C444 1.250 . S
C976 C413 1.296 . S
C964 C363 1.298 . S
C1003 C452 1.715 . S
C991 C29 1.606 . S
C1030 C382 1.522 . S
C1018 C109 1.502 . S
C1057 C427 1.470 . S
C1045 C159 1.480 . S
C1072 C233 2.130 . S
C1084 C435 2.173 . S
C1099 C277 1.763 . S
C1111 C396 1.785 . S
