# Generated by pormake.
# Topology ptr, (4,4)-cn, num edge types: 1
# Building blocks:
#     Node 0, Type 0, BuildingBlock: QUQFOY_clean_sbu_1, # of connection points: 4
#     Node 1, Type 0, BuildingBlock: QUQFOY_clean_sbu_1, # of connection points: 4
#     Node 2, Type 0, BuildingBlock: QUQFOY_clean_sbu_1, # of connection points: 4
#     Node 3, Type 0, BuildingBlock: QUQFOY_clean_sbu_1, # of connection points: 4
#     Node 4, Type 0, BuildingBlock: QUQFOY_clean_sbu_1, # of connection points: 4
#     Node 5, Type 0, BuildingBlock: QUQFOY_clean_sbu_1, # of connection points: 4
#     Node 6, Type 0, BuildingBlock: QUQFOY_clean_sbu_1, # of connection points: 4
#     Node 7, Type 0, BuildingBlock: QUQFOY_clean_sbu_1, # of connection points: 4
#     Node 8, Type 0, BuildingBlock: QUQFOY_clean_sbu_1, # of connection points: 4
#     Node 9, Type 0, BuildingBlock: QUQFOY_clean_sbu_1, # of connection points: 4
#     Node 10, Type 0, BuildingBlock: QUQFOY_clean_sbu_1, # of connection points: 4
#     Node 11, Type 0, BuildingBlock: QUQFOY_clean_sbu_1, # of connection points: 4
#     Node 12, Type 0, BuildingBlock: QUQFOY_clean_sbu_1, # of connection points: 4
#     Node 13, Type 0, BuildingBlock: QUQFOY_clean_sbu_1, # of connection points: 4
#     Node 14, Type 0, BuildingBlock: QUQFOY_clean_sbu_1, # of connection points: 4
#     Node 15, Type 0, BuildingBlock: QUQFOY_clean_sbu_1, # of connection points: 4
#     Node 16, Type 0, BuildingBlock: QUQFOY_clean_sbu_1, # of connection points: 4
#     Node 17, Type 0, BuildingBlock: QUQFOY_clean_sbu_1, # of connection points: 4
#     Node 18, Type 1, BuildingBlock: NAHDIM_clean_linker_0, # of connection points: 4
#     Node 19, Type 1, BuildingBlock: NAHDIM_clean_linker_0, # of connection points: 4
#     Node 20, Type 1, BuildingBlock: NAHDIM_clean_linker_0, # of connection points: 4
#     Node 21, Type 1, BuildingBlock: NAHDIM_clean_linker_0, # of connection points: 4
#     Node 22, Type 1, BuildingBlock: NAHDIM_clean_linker_0, # of connection points: 4
#     Node 23, Type 1, BuildingBlock: NAHDIM_clean_linker_0, # of connection points: 4
#     Node 24, Type 1, BuildingBlock: NAHDIM_clean_linker_0, # of connection points: 4
#     Node 25, Type 1, BuildingBlock: NAHDIM_clean_linker_0, # of connection points: 4
#     Node 26, Type 1, BuildingBlock: NAHDIM_clean_linker_0, # of connection points: 4
#     Node 27, Type 1, BuildingBlock: NAHDIM_clean_linker_0, # of connection points: 4
#     Node 28, Type 1, BuildingBlock: NAHDIM_clean_linker_0, # of connection points: 4
#     Node 29, Type 1, BuildingBlock: NAHDIM_clean_linker_0, # of connection points: 4
#     Node 30, Type 1, BuildingBlock: NAHDIM_clean_linker_0, # of connection points: 4
#     Node 31, Type 1, BuildingBlock: NAHDIM_clean_linker_0, # of connection points: 4
#     Node 32, Type 1, BuildingBlock: NAHDIM_clean_linker_0, # of connection points: 4
#     Node 33, Type 1, BuildingBlock: NAHDIM_clean_linker_0, # of connection points: 4
#     Node 34, Type 1, BuildingBlock: NAHDIM_clean_linker_0, # of connection points: 4
#     Node 35, Type 1, BuildingBlock: NAHDIM_clean_linker_0, # of connection points: 4
#     Edge 36, Type (0, 1), BuildingBlock: CIFDUS_clean_linker_0, # of connection points: 2
#     Edge 37, Type (0, 1), BuildingBlock: CIFDUS_clean_linker_0, # of connection points: 2
#     Edge 38, Type (0, 1), BuildingBlock: CIFDUS_clean_linker_0, # of connection points: 2
#     Edge 39, Type (0, 1), BuildingBlock: CIFDUS_clean_linker_0, # of connection points: 2
#     Edge 40, Type (0, 1), BuildingBlock: CIFDUS_clean_linker_0, # of connection points: 2
#     Edge 41, Type (0, 1), BuildingBlock: CIFDUS_clean_linker_0, # of connection points: 2
#     Edge 42, Type (0, 1), BuildingBlock: CIFDUS_clean_linker_0, # of connection points: 2
#     Edge 43, Type (0, 1), BuildingBlock: CIFDUS_clean_linker_0, # of connection points: 2
#     Edge 44, Type (0, 1), BuildingBlock: CIFDUS_clean_linker_0, # of connection points: 2
#     Edge 45, Type (0, 1), BuildingBlock: CIFDUS_clean_linker_0, # of connection points: 2
#     Edge 46, Type (0, 1), BuildingBlock: CIFDUS_clean_linker_0, # of connection points: 2
#     Edge 47, Type (0, 1), BuildingBlock: CIFDUS_clean_linker_0, # of connection points: 2
#     Edge 48, Type (0, 1), BuildingBlock: CIFDUS_clean_linker_0, # of connection points: 2
#     Edge 49, Type (0, 1), BuildingBlock: CIFDUS_clean_linker_0, # of connection points: 2
#     Edge 50, Type (0, 1), BuildingBlock: CIFDUS_clean_linker_0, # of connection points: 2
#     Edge 51, Type (0, 1), BuildingBlock: CIFDUS_clean_linker_0, # of connection points: 2
#     Edge 52, Type (0, 1), BuildingBlock: CIFDUS_clean_linker_0, # of connection points: 2
#     Edge 53, Type (0, 1), BuildingBlock: CIFDUS_clean_linker_0, # of connection points: 2
#     Edge 54, Type (0, 1), BuildingBlock: CIFDUS_clean_linker_0, # of connection points: 2
#     Edge 55, Type (0, 1), BuildingBlock: CIFDUS_clean_linker_0, # of connection points: 2
#     Edge 56, Type (0, 1), BuildingBlock: CIFDUS_clean_linker_0, # of connection points: 2
#     Edge 57, Type (0, 1), BuildingBlock: CIFDUS_clean_linker_0, # of connection points: 2
#     Edge 58, Type (0, 1), BuildingBlock: CIFDUS_clean_linker_0, # of connection points: 2
#     Edge 59, Type (0, 1), BuildingBlock: CIFDUS_clean_linker_0, # of connection points: 2
#     Edge 60, Type (0, 1), BuildingBlock: CIFDUS_clean_linker_0, # of connection points: 2
#     Edge 61, Type (0, 1), BuildingBlock: CIFDUS_clean_linker_0, # of connection points: 2
#     Edge 62, Type (0, 1), BuildingBlock: CIFDUS_clean_linker_0, # of connection points: 2
#     Edge 63, Type (0, 1), BuildingBlock: CIFDUS_clean_linker_0, # of connection points: 2
#     Edge 64, Type (0, 1), BuildingBlock: CIFDUS_clean_linker_0, # of connection points: 2
#     Edge 65, Type (0, 1), BuildingBlock: CIFDUS_clean_linker_0, # of connection points: 2
#     Edge 66, Type (0, 1), BuildingBlock: CIFDUS_clean_linker_0, # of connection points: 2
#     Edge 67, Type (0, 1), BuildingBlock: CIFDUS_clean_linker_0, # of connection points: 2
#     Edge 68, Type (0, 1), BuildingBlock: CIFDUS_clean_linker_0, # of connection points: 2
#     Edge 69, Type (0, 1), BuildingBlock: CIFDUS_clean_linker_0, # of connection points: 2
#     Edge 70, Type (0, 1), BuildingBlock: CIFDUS_clean_linker_0, # of connection points: 2
#     Edge 71, Type (0, 1), BuildingBlock: CIFDUS_clean_linker_0, # of connection points: 2
#     Edge 72, Type (0, 1), BuildingBlock: CIFDUS_clean_linker_0, # of connection points: 2
#     Edge 73, Type (0, 1), BuildingBlock: CIFDUS_clean_linker_0, # of connection points: 2
#     Edge 74, Type (0, 1), BuildingBlock: CIFDUS_clean_linker_0, # of connection points: 2
#     Edge 75, Type (0, 1), BuildingBlock: CIFDUS_clean_linker_0, # of connection points: 2
#     Edge 76, Type (0, 1), BuildingBlock: CIFDUS_clean_linker_0, # of connection points: 2
#     Edge 77, Type (0, 1), BuildingBlock: CIFDUS_clean_linker_0, # of connection points: 2
#     Edge 78, Type (0, 1), BuildingBlock: CIFDUS_clean_linker_0, # of connection points: 2
#     Edge 79, Type (0, 1), BuildingBlock: CIFDUS_clean_linker_0, # of connection points: 2
#     Edge 80, Type (0, 1), BuildingBlock: CIFDUS_clean_linker_0, # of connection points: 2
#     Edge 81, Type (0, 1), BuildingBlock: CIFDUS_clean_linker_0, # of connection points: 2
#     Edge 82, Type (0, 1), BuildingBlock: CIFDUS_clean_linker_0, # of connection points: 2
#     Edge 83, Type (0, 1), BuildingBlock: CIFDUS_clean_linker_0, # of connection points: 2
#     Edge 84, Type (0, 1), BuildingBlock: CIFDUS_clean_linker_0, # of connection points: 2
#     Edge 85, Type (0, 1), BuildingBlock: CIFDUS_clean_linker_0, # of connection points: 2
#     Edge 86, Type (0, 1), BuildingBlock: CIFDUS_clean_linker_0, # of connection points: 2
#     Edge 87, Type (0, 1), BuildingBlock: CIFDUS_clean_linker_0, # of connection points: 2
#     Edge 88, Type (0, 1), BuildingBlock: CIFDUS_clean_linker_0, # of connection points: 2
#     Edge 89, Type (0, 1), BuildingBlock: CIFDUS_clean_linker_0, # of connection points: 2
#     Edge 90, Type (0, 1), BuildingBlock: CIFDUS_clean_linker_0, # of connection points: 2
#     Edge 91, Type (0, 1), BuildingBlock: CIFDUS_clean_linker_0, # of connection points: 2
#     Edge 92, Type (0, 1), BuildingBlock: CIFDUS_clean_linker_0, # of connection points: 2
#     Edge 93, Type (0, 1), BuildingBlock: CIFDUS_clean_linker_0, # of connection points: 2
#     Edge 94, Type (0, 1), BuildingBlock: CIFDUS_clean_linker_0, # of connection points: 2
#     Edge 95, Type (0, 1), BuildingBlock: CIFDUS_clean_linker_0, # of connection points: 2
#     Edge 96, Type (0, 1), BuildingBlock: CIFDUS_clean_linker_0, # of connection points: 2
#     Edge 97, Type (0, 1), BuildingBlock: CIFDUS_clean_linker_0, # of connection points: 2
#     Edge 98, Type (0, 1), BuildingBlock: CIFDUS_clean_linker_0, # of connection points: 2
#     Edge 99, Type (0, 1), BuildingBlock: CIFDUS_clean_linker_0, # of connection points: 2
#     Edge 100, Type (0, 1), BuildingBlock: CIFDUS_clean_linker_0, # of connection points: 2
#     Edge 101, Type (0, 1), BuildingBlock: CIFDUS_clean_linker_0, # of connection points: 2
#     Edge 102, Type (0, 1), BuildingBlock: CIFDUS_clean_linker_0, # of connection points: 2
#     Edge 103, Type (0, 1), BuildingBlock: CIFDUS_clean_linker_0, # of connection points: 2
#     Edge 104, Type (0, 1), BuildingBlock: CIFDUS_clean_linker_0, # of connection points: 2
#     Edge 105, Type (0, 1), BuildingBlock: CIFDUS_clean_linker_0, # of connection points: 2
#     Edge 106, Type (0, 1), BuildingBlock: CIFDUS_clean_linker_0, # of connection points: 2
#     Edge 107, Type (0, 1), BuildingBlock: CIFDUS_clean_linker_0, # of connection points: 2
# Relax obj value: 0.010
# Max RMSD: 0.099
# Mean RMSD: 0.054
data_MOF--net-ptr--node1-QUQFOY_clean_sbu_1--node2-NAHDIM_clean_linker_0--edge1-CIFDUS_clean_linker_0
_symmetry_space_group_name_H-M    P1
_symmetry_Int_Tables_number       1
_symmetry_cell_setting            triclinic
loop_
_symmetry_equiv_pos_as_xyz
'x, y, z'
_cell_length_a     88.19986
_cell_length_b     87.773597
_cell_length_c     75.233219
_cell_angle_alpha  90.933758
_cell_angle_beta   90.369846
_cell_angle_gamma 119.9118
loop_
_atom_site_label
_atom_site_type_symbol
_atom_site_fract_x
_atom_site_fract_y
_atom_site_fract_z
_atom_type_partial_charge
O0 O 0.00051 0.35857 0.03308 0.0
Cd1 Cd 0.01345 0.35394 0.01294 0.0
Cd2 Cd 0.9808 0.33495 0.99987 0.0
O3 O 0.97338 0.34026 0.02424 0.0
O4 O 0.03533 0.357 0.02422 0.0
O5 O 0.01442 0.33161 0.0129 0.0
C6 C 0.02914 0.34036 0.02149 0.0
C7 C 0.96653 0.30702 0.98619 0.0
C8 C 0.98416 0.3514 0.03557 0.0
C9 C 0.00662 0.36789 0.98047 0.0
O10 O 0.99106 0.35534 0.98232 0.0
O11 O 0.01875 0.36957 0.99097 0.0
O12 O 0.95931 0.31666 0.98709 0.0
O13 O 0.98158 0.31286 0.99399 0.0
O14 O 0.63653 0.63631 0.04353 0.0
Cd15 Cd 0.64421 0.65612 0.02545 0.0
Cd16 Cd 0.65537 0.6366 0.00794 0.0
O17 O 0.64717 0.62118 0.03022 0.0
O18 O 0.6443 0.67585 0.03903 0.0
O19 O 0.66813 0.6775 0.02771 0.0
C20 C 0.66098 0.68476 0.03686 0.0
C21 C 0.68391 0.64861 0.9979 0.0
C22 C 0.63919 0.62335 0.04317 0.0
C23 C 0.62737 0.6411 0.98995 0.0
O24 O 0.63661 0.63368 0.98958 0.0
O25 O 0.62875 0.65117 0.00297 0.0
O26 O 0.67267 0.63216 0.9953 0.0
O27 O 0.67901 0.65815 0.00666 0.0
O28 O 0.36301 0.00926 0.98667 0.0
Cd29 Cd 0.35763 0.02129 0.00742 0.0
Cd30 Cd 0.33698 0.98794 0.01682 0.0
O31 O 0.34359 0.98176 0.99247 0.0
O32 O 0.3626 0.04482 0.99917 0.0
O33 O 0.33604 0.0233 0.00537 0.0
C34 C 0.34598 0.039 0.9997 0.0
C35 C 0.30828 0.97506 0.02677 0.0
C36 C 0.35553 0.99295 0.98266 0.0
C37 C 0.36833 0.01124 0.04052 0.0
O38 O 0.35571 0.99597 0.03669 0.0
O39 O 0.37115 0.0242 0.03097 0.0
O40 O 0.31666 0.9665 0.02654 0.0
O41 O 0.31591 0.99069 0.02042 0.0
O42 O 0.98951 0.6336 0.98343 0.0
Cd43 Cd 0.97621 0.63779 0.00361 0.0
Cd44 Cd 0.00893 0.65859 0.01704 0.0
O45 O 0.01625 0.65204 0.99339 0.0
O46 O 0.95259 0.63181 0.99412 0.0
O47 O 0.973 0.65876 0.00218 0.0
C48 C 0.95752 0.6483 0.99577 0.0
C49 C 0.01954 0.68788 0.02565 0.0
C50 C 0.006 0.64103 0.98167 0.0
C51 C 0.98467 0.62738 0.03849 0.0
O52 O 1.0001 0.64022 0.03676 0.0
O53 O 0.97283 0.62443 0.02699 0.0
O54 O 0.02915 0.68067 0.02715 0.0
O55 O 0.00402 0.67849 0.01886 0.0
O56 O 0.37214 0.37221 0.97924 0.0
Cd57 Cd 0.36547 0.35333 0.99824 0.0
Cd58 Cd 0.35437 0.37384 0.0149 0.0
O59 O 0.36256 0.38852 0.99207 0.0
O60 O 0.36573 0.33331 0.98543 0.0
O61 O 0.34185 0.33149 0.9968 0.0
C62 C 0.3491 0.32421 0.98794 0.0
C63 C 0.3251 0.35956 0.02303 0.0
C64 C 0.36977 0.38536 0.97904 0.0
C65 C 0.38212 0.36962 0.03379 0.0
O66 O 0.37281 0.37697 0.0338 0.0
O67 O 0.38096 0.35944 0.02095 0.0
O68 O 0.33517 0.37615 0.02641 0.0
O69 O 0.33168 0.35126 0.01477 0.0
O70 O 0.63609 0.99602 0.03729 0.0
Cd71 Cd 0.64347 0.98602 0.0162 0.0
Cd72 Cd 0.66144 0.01999 0.00701 0.0
O73 O 0.65319 0.02403 0.03142 0.0
O74 O 0.63847 0.96216 0.02318 0.0
O75 O 0.66526 0.98427 0.01911 0.0
C76 C 0.65511 0.96811 0.02341 0.0
C77 C 0.69077 0.03658 0.99913 0.0
C78 C 0.64209 0.01216 0.04133 0.0
C79 C 0.63242 0.99528 0.9822 0.0
O80 O 0.64356 0.01115 0.98623 0.0
O81 O 0.63084 0.98291 0.992 0.0
O82 O 0.68077 0.04339 0.99985 0.0
O83 O 0.68421 0.0203 0.00337 0.0
O84 O 0.67643 0.706 0.37072 0.0
Cd85 Cd 0.68812 0.70008 0.35002 0.0
Cd86 Cd 0.65619 0.68799 0.33469 0.0
O87 O 0.64982 0.69414 0.35904 0.0
O88 O 0.70974 0.70126 0.36019 0.0
O89 O 0.68723 0.67676 0.3495 0.0
C90 C 0.70258 0.6846 0.3569 0.0
C91 C 0.64198 0.6592 0.32343 0.0
C92 C 0.66052 0.70217 0.37184 0.0
C93 C 0.68608 0.71828 0.31723 0.0
O94 O 0.66955 0.70855 0.31775 0.0
O95 O 0.69592 0.71635 0.32831 0.0
O96 O 0.63475 0.66885 0.32241 0.0
O97 O 0.65724 0.66596 0.33096 0.0
O98 O 0.29891 0.9661 0.38095 0.0
Cd99 Cd 0.30524 0.98471 0.36159 0.0
Cd100 Cd 0.31462 0.96337 0.34463 0.0
O101 O 0.30858 0.9499 0.36809 0.0
O102 O 0.3053 0.00484 0.37446 0.0
O103 O 0.32886 0.00667 0.36229 0.0
C104 C 0.32181 0.01402 0.37141 0.0
C105 C 0.34277 0.97665 0.33337 0.0
C106 C 0.3016 0.95316 0.38125 0.0
C107 C 0.28543 0.96652 0.32795 0.0
O108 O 0.29407 0.95847 0.32783 0.0
O109 O 0.28849 0.97825 0.33981 0.0
O110 O 0.33229 0.95993 0.33137 0.0
O111 O 0.33724 0.98573 0.342 0.0
O112 O 0.03602 0.33157 0.31886 0.0
Cd113 Cd 0.02985 0.34439 0.3382 0.0
Cd114 Cd 0.01263 0.31208 0.35238 0.0
O115 O 0.02057 0.30492 0.32947 0.0
O116 O 0.03368 0.36668 0.32761 0.0
O117 O 0.00767 0.34534 0.33556 0.0
C118 C 0.01707 0.36063 0.32873 0.0
C119 C 0.98333 0.29605 0.36045 0.0
C120 C 0.03056 0.31518 0.31769 0.0
C121 C 0.04243 0.34048 0.37402 0.0
O122 O 0.03086 0.32431 0.37267 0.0
O123 O 0.04393 0.35101 0.36185 0.0
O124 O 0.99369 0.28976 0.36219 0.0
O125 O 0.98958 0.31151 0.35388 0.0
O126 O 0.66766 0.95897 0.31988 0.0
Cd127 Cd 0.65231 0.96379 0.33703 0.0
Cd128 Cd 0.68341 0.98137 0.35594 0.0
O129 O 0.69271 0.97345 0.33466 0.0
O130 O 0.63076 0.95679 0.32259 0.0
O131 O 0.64843 0.98411 0.33206 0.0
C132 C 0.63469 0.97304 0.323 0.0
C133 C 0.69882 0.01115 0.36401 0.0
C134 C 0.68391 0.96425 0.32123 0.0
C135 C 0.65311 0.95156 0.37411 0.0
O136 O 0.66918 0.96333 0.37504 0.0
O137 O 0.64402 0.9498 0.36022 0.0
O138 O 0.70465 0.00074 0.36794 0.0
O139 O 0.68396 0.00457 0.35563 0.0
O140 O 0.04258 0.71601 0.31736 0.0
Cd141 Cd 0.03774 0.69537 0.33358 0.0
Cd142 Cd 0.02079 0.71027 0.35328 0.0
O143 O 0.02866 0.72712 0.33209 0.0
O144 O 0.04587 0.68185 0.31887 0.0
O145 O 0.01833 0.67093 0.32667 0.0
C146 C 0.02997 0.66905 0.31811 0.0
C147 C 0.99214 0.6994 0.36304 0.0
C148 C 0.03765 0.72731 0.31888 0.0
C149 C 0.05041 0.70814 0.37129 0.0
O150 O 0.0392 0.7132 0.37216 0.0
O151 O 0.05159 0.7005 0.35729 0.0
O152 O 0.00415 0.71546 0.36614 0.0
O153 O 0.99638 0.68931 0.3543 0.0
O154 O 0.29737 0.33656 0.36546 0.0
Cd155 Cd 0.30536 0.32699 0.34454 0.0
Cd156 Cd 0.3199 0.36071 0.33409 0.0
O157 O 0.31093 0.36447 0.35826 0.0
O158 O 0.30361 0.30501 0.35367 0.0
O159 O 0.32872 0.3283 0.34661 0.0
C160 C 0.32043 0.31267 0.35294 0.0
C161 C 0.34913 0.37863 0.3266 0.0
C162 C 0.30147 0.35239 0.36891 0.0
C163 C 0.29249 0.3327 0.30978 0.0
O164 O 0.30244 0.34904 0.31307 0.0
O165 O 0.29192 0.32137 0.3205 0.0
O166 O 0.33817 0.3843 0.32607 0.0
O167 O 0.34355 0.36277 0.3318 0.0
O168 O 0.3286 0.03769 0.69148 0.0
Cd169 Cd 0.34546 0.03323 0.67638 0.0
Cd170 Cd 0.31517 0.01256 0.65721 0.0
O171 O 0.30379 0.01847 0.6782 0.0
O172 O 0.36649 0.04096 0.69193 0.0
O173 O 0.34983 0.01347 0.68237 0.0
C174 C 0.36314 0.02489 0.69172 0.0
C175 C 0.30128 0.98394 0.64511 0.0
C176 C 0.312 0.02994 0.69042 0.0
C177 C 0.34454 0.04451 0.63958 0.0
O178 O 0.3288 0.03193 0.63898 0.0
O179 O 0.3541 0.04702 0.65325 0.0
O180 O 0.29529 0.99445 0.64251 0.0
O181 O 0.315 0.98949 0.65523 0.0
O182 O 0.96444 0.29631 0.70422 0.0
Cd183 Cd 0.97048 0.31472 0.68486 0.0
Cd184 Cd 0.98426 0.2964 0.66941 0.0
O185 O 0.97693 0.28217 0.69255 0.0
O186 O 0.96679 0.33328 0.69623 0.0
O187 O 0.99264 0.33806 0.68747 0.0
C188 C 0.98334 0.34394 0.69487 0.0
C189 C 0.01338 0.31202 0.66087 0.0
C190 C 0.96843 0.28428 0.70502 0.0
C191 C 0.95495 0.29677 0.64956 0.0
O192 O 0.96521 0.29053 0.6502 0.0
O193 O 0.95541 0.30715 0.66181 0.0
O194 O 0.00417 0.29521 0.6583 0.0
O195 O 0.00607 0.31987 0.66867 0.0
O196 O 0.70208 0.6634 0.65106 0.0
Cd197 Cd 0.69428 0.67625 0.66871 0.0
Cd198 Cd 0.67647 0.64451 0.68342 0.0
O199 O 0.68456 0.63677 0.66093 0.0
O200 O 0.69646 0.6975 0.65709 0.0
O201 O 0.67115 0.67502 0.66513 0.0
C202 C 0.67966 0.69028 0.65801 0.0
C203 C 0.64731 0.62834 0.69214 0.0
C204 C 0.69591 0.64687 0.64996 0.0
C205 C 0.70598 0.67351 0.7051 0.0
O206 O 0.69469 0.65724 0.7037 0.0
O207 O 0.70749 0.68388 0.69277 0.0
O208 O 0.65791 0.62233 0.69394 0.0
O209 O 0.65318 0.64348 0.68496 0.0
O210 O 0.33069 0.29327 0.64587 0.0
Cd211 Cd 0.31535 0.29603 0.66482 0.0
Cd212 Cd 0.34652 0.31739 0.68097 0.0
O213 O 0.35622 0.31155 0.65854 0.0
O214 O 0.29262 0.29048 0.65345 0.0
O215 O 0.3121 0.31703 0.66367 0.0
C216 C 0.29718 0.30681 0.65596 0.0
C217 C 0.35847 0.34648 0.69106 0.0
C218 C 0.34731 0.30104 0.64584 0.0
C219 C 0.32068 0.28529 0.70075 0.0
O220 O 0.33583 0.2988 0.70038 0.0
O221 O 0.31 0.28168 0.6878 0.0
O222 O 0.36652 0.33778 0.69344 0.0
O223 O 0.34378 0.33882 0.68234 0.0
O224 O 0.70488 0.0401 0.64493 0.0
Cd225 Cd 0.6997 0.0224 0.66494 0.0
Cd226 Cd 0.6837 0.03921 0.67986 0.0
O227 O 0.69041 0.05241 0.65615 0.0
O228 O 0.70077 0.00192 0.65457 0.0
O229 O 0.6764 1.00014 0.66456 0.0
C230 C 0.68419 0.99253 0.65728 0.0
C231 C 0.65596 0.02956 0.69154 0.0
C232 C 0.69949 0.05106 0.64381 0.0
C233 C 0.71403 0.04032 0.70016 0.0
O234 O 0.70279 0.04531 0.69901 0.0
O235 O 0.715 0.03068 0.68794 0.0
O236 O 0.66775 0.04596 0.69176 0.0
O237 O 0.65968 0.01855 0.68393 0.0
O238 O 0.95415 0.66561 0.70931 0.0
Cd239 Cd 0.95665 0.64924 0.69104 0.0
Cd240 Cd 0.97536 0.67985 0.67344 0.0
O241 O 0.96966 0.69053 0.69533 0.0
O242 O 0.94989 0.62691 0.70341 0.0
O243 O 0.97661 0.64445 0.69373 0.0
C244 C 0.96574 0.63016 0.70154 0.0
C245 C 0.00416 0.69214 0.66398 0.0
C246 C 0.96057 0.68217 0.70856 0.0
C247 C 0.94364 0.65099 0.65449 0.0
O248 O 0.9563 0.66669 0.65412 0.0
O249 O 0.94149 0.64168 0.66803 0.0
O250 O 0.99492 0.69948 0.66079 0.0
O251 O 0.99716 0.67793 0.67307 0.0
C252 C 0.21526 0.31376 0.0367 0.0
C253 C 0.22614 0.3239 0.05318 0.0
C254 C 0.21134 0.31087 0.08048 0.0
C255 C 0.21349 0.32567 0.09006 0.0
C256 C 0.20113 0.32415 0.10259 0.0
C257 C 0.18632 0.30748 0.10553 0.0
C258 C 0.18471 0.29238 0.09666 0.0
C259 C 0.19741 0.29426 0.08435 0.0
C260 C 0.20352 0.34046 0.11216 0.0
C261 C 0.16919 0.2744 0.09963 0.0
C262 C 0.07989 0.32529 0.0575 0.0
C263 C 0.08889 0.31618 0.06483 0.0
C264 C 0.11301 0.32229 0.08551 0.0
C265 C 0.10885 0.30468 0.08709 0.0
C266 C 0.11921 0.3003 0.09774 0.0
C267 C 0.13399 0.31377 0.10695 0.0
C268 C 0.13801 0.33145 0.10563 0.0
C269 C 0.12743 0.33545 0.09493 0.0
C270 C 0.11453 0.28131 0.09896 0.0
C271 C 0.15366 0.34614 0.11527 0.0
C272 C 0.10212 0.30251 0.22173 0.0
C273 C 0.09863 0.28599 0.21502 0.0
C274 C 0.11124 0.28429 0.20523 0.0
C275 C 0.12763 0.29936 0.20212 0.0
C276 C 0.13129 0.31591 0.20915 0.0
C277 C 0.11846 0.31724 0.21886 0.0
C278 C 0.10701 0.26645 0.19797 0.0
C279 C 0.14868 0.33223 0.20621 0.0
C280 C 0.23676 0.27438 0.2149 0.0
C281 C 0.23123 0.28662 0.22378 0.0
C282 C 0.20193 0.282 0.2177 0.0
C283 C 0.18553 0.26843 0.21203 0.0
C284 C 0.17365 0.27203 0.20318 0.0
C285 C 0.17822 0.28968 0.20026 0.0
C286 C 0.19449 0.30352 0.20672 0.0
C287 C 0.20619 0.29953 0.2154 0.0
C288 C 0.15631 0.25696 0.1967 0.0
C289 C 0.19952 0.32249 0.20434 0.0
C290 C 0.17173 0.30622 0.11633 0.0
C291 C 0.15951 0.30939 0.10775 0.0
C292 C 0.14592 0.30954 0.11704 0.0
C293 C 0.14435 0.30636 0.13548 0.0
C294 C 0.13098 0.30662 0.1453 0.0
C295 C 0.12977 0.30383 0.16352 0.0
C296 C 0.14182 0.30056 0.1726 0.0
C297 C 0.14083 0.29795 0.19116 0.0
C298 C 0.15284 0.29445 0.19973 0.0
C299 C 0.16603 0.29364 0.1903 0.0
C300 C 0.16744 0.29654 0.17177 0.0
C301 C 0.18075 0.29616 0.1619 0.0
C302 C 0.18222 0.29936 0.14374 0.0
C303 C 0.17028 0.30279 0.13472 0.0
C304 C 0.15658 0.30296 0.14434 0.0
C305 C 0.15525 0.29997 0.16291 0.0
C306 C 0.06146 0.28906 0.21769 0.0
C307 C 0.07298 0.29275 0.23436 0.0
O308 O 0.22223 0.31242 0.0671 0.0
O309 O 0.21319 0.27768 0.22546 0.0
O310 O 0.09023 0.30499 0.23084 0.0
O311 O 0.10362 0.3272 0.07505 0.0
H312 H 0.22233 0.33397 0.05634 0.0
H313 H 0.20115 0.30838 0.03939 0.0
H314 H 0.21731 0.30259 0.03317 0.0
H315 H 0.21877 0.32263 0.0252 0.0
H316 H 0.22466 0.33844 0.08747 0.0
H317 H 0.19606 0.28289 0.07705 0.0
H318 H 0.19352 0.3436 0.10726 0.0
H319 H 0.21668 0.352 0.11005 0.0
H320 H 0.20158 0.33816 0.12665 0.0
H321 H 0.17022 0.26388 0.09228 0.0
H322 H 0.15703 0.27416 0.09522 0.0
H323 H 0.16798 0.27151 0.11402 0.0
H324 H 0.09106 0.30774 0.05514 0.0
H325 H 0.05558 0.31342 0.07047 0.0
H326 H 0.08097 0.32452 0.04264 0.0
H327 H 0.08951 0.33984 0.05855 0.0
H328 H 0.09765 0.29434 0.07994 0.0
H329 H 0.13049 0.34897 0.0937 0.0
H330 H 0.12517 0.2796 0.09323 0.0
H331 H 0.10208 0.27226 0.09181 0.0
H332 H 0.11331 0.27755 0.11313 0.0
H333 H 0.15473 0.35915 0.11326 0.0
H334 H 0.16579 0.34667 0.1105 0.0
H335 H 0.1528 0.34358 0.12974 0.0
H336 H 0.07214 0.28032 0.23877 0.0
H337 H 0.08612 0.27439 0.21721 0.0
H338 H 0.12107 0.3299 0.22414 0.0
H339 H 0.10792 0.2668 0.18326 0.0
H340 H 0.0937 0.25596 0.20161 0.0
H341 H 0.11673 0.26302 0.20312 0.0
H342 H 0.14969 0.34403 0.21302 0.0
H343 H 0.15058 0.33473 0.19175 0.0
H344 H 0.15945 0.33024 0.21114 0.0
H345 H 0.23557 0.29796 0.2148 0.0
H346 H 0.25121 0.2812 0.21361 0.0
H347 H 0.23075 0.27044 0.20138 0.0
H348 H 0.23242 0.2623 0.22271 0.0
H349 H 0.18225 0.25495 0.21417 0.0
H350 H 0.21856 0.31011 0.22051 0.0
H351 H 0.15487 0.25784 0.18214 0.0
H352 H 0.1455 0.25785 0.20318 0.0
H353 H 0.15494 0.24396 0.19957 0.0
H354 H 0.21219 0.33172 0.21102 0.0
H355 H 0.1892 0.32489 0.20976 0.0
H356 H 0.20056 0.3254 0.18995 0.0
H357 H 0.16077 0.31211 0.09365 0.0
H358 H 0.12136 0.30909 0.13901 0.0
H359 H 0.11925 0.30429 0.1704 0.0
H360 H 0.15197 0.29243 0.21397 0.0
H361 H 0.19028 0.29352 0.16812 0.0
H362 H 0.19281 0.29907 0.13684 0.0
H363 H 0.0476 0.27947 0.22063 0.0
H364 H 0.06568 0.28339 0.20682 0.0
H365 H 0.06231 0.30139 0.21295 0.0
C366 C 0.71855 0.91973 0.04442 0.0
C367 C 0.7053 0.91882 0.05801 0.0
C368 C 0.71132 0.91166 0.0872 0.0
C369 C 0.69472 0.89869 0.09256 0.0
C370 C 0.69286 0.88581 0.10456 0.0
C371 C 0.70796 0.88584 0.11116 0.0
C372 C 0.72476 0.89936 0.10628 0.0
C373 C 0.72621 0.9123 0.09454 0.0
C374 C 0.67475 0.87187 0.10976 0.0
C375 C 0.74113 0.89977 0.11295 0.0
C376 C 0.68122 0.75422 0.06739 0.0
C377 C 0.69119 0.77291 0.07353 0.0
C378 C 0.68578 0.79381 0.0905 0.0
C379 C 0.70349 0.80611 0.09398 0.0
C380 C 0.70824 0.82138 0.10428 0.0
C381 C 0.69505 0.82439 0.11118 0.0
C382 C 0.67724 0.812 0.10771 0.0
C383 C 0.67286 0.79687 0.09739 0.0
C384 C 0.72735 0.83433 0.10781 0.0
C385 C 0.66283 0.81476 0.1149 0.0
C386 C 0.69539 0.79813 0.22731 0.0
C387 C 0.71253 0.81112 0.22324 0.0
C388 C 0.71562 0.82581 0.21336 0.0
C389 C 0.7013 0.8276 0.20756 0.0
C390 C 0.68405 0.81457 0.21169 0.0
C391 C 0.68134 0.79993 0.22141 0.0
C392 C 0.73416 0.83942 0.20908 0.0
C393 C 0.66849 0.81613 0.20583 0.0
C394 C 0.73518 0.96608 0.22616 0.0
C395 C 0.72093 0.94743 0.23059 0.0
C396 C 0.72374 0.92136 0.22581 0.0
C397 C 0.73662 0.91692 0.22251 0.0
C398 C 0.73259 0.90123 0.21339 0.0
C399 C 0.71512 0.88956 0.20783 0.0
C400 C 0.70183 0.89353 0.21202 0.0
C401 C 0.70628 0.90943 0.22094 0.0
C402 C 0.74705 0.8973 0.20939 0.0
C403 C 0.68297 0.88108 0.20683 0.0
C404 C 0.70606 0.87094 0.12191 0.0
C405 C 0.70235 0.85543 0.11276 0.0
C406 C 0.69982 0.8406 0.12182 0.0
C407 C 0.70119 0.84118 0.14058 0.0
C408 C 0.69881 0.82651 0.15009 0.0
C409 C 0.69993 0.82711 0.16857 0.0
C410 C 0.70343 0.84239 0.17825 0.0
C411 C 0.70435 0.84304 0.19705 0.0
C412 C 0.70807 0.85852 0.20626 0.0
C413 C 0.71087 0.87347 0.19721 0.0
C414 C 0.70979 0.87301 0.1784 0.0
C415 C 0.71232 0.88774 0.16885 0.0
C416 C 0.711 0.88707 0.15037 0.0
C417 C 0.7074 0.87176 0.14069 0.0
C418 C 0.70495 0.85681 0.15005 0.0
C419 C 0.70607 0.85741 0.16891 0.0
C420 C 0.69599 0.76703 0.25948 0.0
C421 C 0.70398 0.78103 0.24605 0.0
O422 O 0.71322 0.92347 0.07473 0.0
O423 O 0.72862 0.93724 0.23363 0.0
O424 O 0.69185 0.78378 0.23695 0.0
O425 O 0.68055 0.77885 0.08065 0.0
H426 H 0.69433 0.90495 0.05774 0.0
H427 H 0.72293 0.91026 0.04789 0.0
H428 H 0.73021 0.93313 0.04429 0.0
H429 H 0.71248 0.91623 0.03089 0.0
H430 H 0.68322 0.89858 0.08722 0.0
H431 H 0.73898 0.92253 0.09044 0.0
H432 H 0.6716 0.85918 0.10323 0.0
H433 H 0.66462 0.87519 0.10573 0.0
H434 H 0.67418 0.87003 0.12436 0.0
H435 H 0.75318 0.91083 0.10743 0.0
H436 H 0.74065 0.88722 0.10931 0.0
H437 H 0.74191 0.90106 0.12767 0.0
H438 H 0.70091 0.78221 0.06401 0.0
H439 H 0.68317 0.75462 0.05258 0.0
H440 H 0.66706 0.75062 0.06623 0.0
H441 H 0.68997 0.7413 0.08463 0.0
H442 H 0.71363 0.8039 0.08869 0.0
H443 H 0.65925 0.78729 0.09466 0.0
H444 H 0.73067 0.8473 0.10237 0.0
H445 H 0.73605 0.82995 0.10179 0.0
H446 H 0.72996 0.8362 0.12237 0.0
H447 H 0.64961 0.80388 0.11098 0.0
H448 H 0.66435 0.82729 0.10996 0.0
H449 H 0.66382 0.81584 0.12964 0.0
H450 H 0.71368 0.78027 0.23719 0.0
H451 H 0.72354 0.80984 0.22764 0.0
H452 H 0.66818 0.78986 0.22462 0.0
H453 H 0.73546 0.84136 0.19451 0.0
H454 H 0.74381 0.83566 0.21373 0.0
H455 H 0.7374 0.85219 0.21548 0.0
H456 H 0.656 0.8054 0.21099 0.0
H457 H 0.66764 0.81574 0.19109 0.0
H458 H 0.67015 0.82895 0.21048 0.0
H459 H 0.71212 0.94242 0.21865 0.0
H460 H 0.72934 0.97457 0.22396 0.0
H461 H 0.74184 0.96574 0.2138 0.0
H462 H 0.74516 0.97196 0.23703 0.0
H463 H 0.75 0.92608 0.2266 0.0
H464 H 0.69612 0.91249 0.22412 0.0
H465 H 0.74744 0.89511 0.19486 0.0
H466 H 0.74439 0.88503 0.21604 0.0
H467 H 0.76008 0.90809 0.21395 0.0
H468 H 0.674 0.88532 0.21244 0.0
H469 H 0.67894 0.86766 0.21147 0.0
H470 H 0.68154 0.88032 0.19213 0.0
H471 H 0.70118 0.85482 0.09837 0.0
H472 H 0.69603 0.81437 0.14335 0.0
H473 H 0.69797 0.81541 0.17516 0.0
H474 H 0.70881 0.85894 0.22068 0.0
H475 H 0.71525 0.89992 0.17556 0.0
H476 H 0.71291 0.89874 0.14374 0.0
H477 H 0.70574 0.78073 0.28403 0.0
H478 H 0.69882 0.75648 0.25469 0.0
H479 H 0.68157 0.75914 0.25612 0.0
C480 C 0.2419 0.92755 0.06193 0.0
C481 C 0.22425 0.91987 0.06988 0.0
C482 C 0.20526 0.89534 0.0889 0.0
C483 C 0.19358 0.90141 0.09283 0.0
C484 C 0.17943 0.892 0.10415 0.0
C485 C 0.17696 0.87629 0.11174 0.0
C486 C 0.18882 0.87029 0.10797 0.0
C487 C 0.2028 0.8799 0.09656 0.0
C488 C 0.16697 0.89871 0.10789 0.0
C489 C 0.18661 0.85362 0.11587 0.0
C490 C 0.04813 0.78404 0.08252 0.0
C491 C 0.06359 0.78227 0.07569 0.0
C492 C 0.08783 0.7976 0.09749 0.0
C493 C 0.09916 0.79499 0.10839 0.0
C494 C 0.11375 0.80919 0.11669 0.0
C495 C 0.11662 0.82644 0.11464 0.0
C496 C 0.1052 0.82922 0.10359 0.0
C497 C 0.09103 0.81478 0.09493 0.0
C498 C 0.12598 0.80564 0.12771 0.0
C499 C 0.10782 0.8474 0.10113 0.0
C500 C 0.08742 0.81491 0.22866 0.0
C501 C 0.09898 0.80933 0.22284 0.0
C502 C 0.11417 0.82073 0.21365 0.0
C503 C 0.11778 0.83802 0.21014 0.0
C504 C 0.10653 0.84389 0.21671 0.0
C505 C 0.09157 0.83228 0.22609 0.0
C506 C 0.12621 0.81421 0.20742 0.0
C507 C 0.11008 0.86229 0.21343 0.0
C508 C 0.23914 0.93587 0.26514 0.0
C509 C 0.22608 0.93197 0.25062 0.0
C510 C 0.20936 0.90807 0.22897 0.0
C511 C 0.20723 0.89227 0.22199 0.0
C512 C 0.19235 0.88081 0.2118 0.0
C513 C 0.17947 0.88551 0.20818 0.0
C514 C 0.18174 0.90171 0.21482 0.0
C515 C 0.19664 0.91282 0.22521 0.0
C516 C 0.19026 0.86353 0.20515 0.0
C517 C 0.16834 0.9072 0.21106 0.0
C518 C 0.16153 0.86568 0.12294 0.0
C519 C 0.14644 0.85234 0.11452 0.0
C520 C 0.13152 0.84147 0.12418 0.0
C521 C 0.13146 0.84416 0.14276 0.0
C522 C 0.11645 0.83396 0.15279 0.0
C523 C 0.11681 0.83595 0.17119 0.0
C524 C 0.13221 0.84821 0.18029 0.0
C525 C 0.13295 0.84971 0.19907 0.0
C526 C 0.14844 0.8621 0.20766 0.0
C527 C 0.16333 0.87318 0.19801 0.0
C528 C 0.16283 0.87189 0.17922 0.0
C529 C 0.17751 0.88287 0.16907 0.0
C530 C 0.17708 0.88102 0.15062 0.0
C531 C 0.16194 0.86814 0.14161 0.0
C532 C 0.14686 0.85725 0.15155 0.0
C533 C 0.14727 0.85919 0.17036 0.0
C534 C 0.04339 0.78368 0.2262 0.0
C535 C 0.06121 0.78634 0.23209 0.0
O536 O 0.21898 0.90387 0.07783 0.0
O537 O 0.22364 0.91814 0.23948 0.0
O538 O 0.07218 0.80389 0.23675 0.0
O539 O 0.07384 0.78313 0.09016 0.0
H540 H 0.21392 0.91985 0.06124 0.0
H541 H 0.24499 0.91657 0.06061 0.0
H542 H 0.25732 0.95051 0.07759 0.0
H543 H 0.23958 0.92792 0.04724 0.0
H544 H 0.19534 0.91337 0.08699 0.0
H545 H 0.2119 0.87536 0.0935 0.0
H546 H 0.15357 0.88876 0.10332 0.0
H547 H 0.17081 0.91129 0.10121 0.0
H548 H 0.16649 0.90072 0.12244 0.0
H549 H 0.19737 0.85111 0.11222 0.0
H550 H 0.174 0.84227 0.11118 0.0
H551 H 0.18616 0.85442 0.13059 0.0
H552 H 0.07136 0.79313 0.06646 0.0
H553 H 0.04141 0.78653 0.07136 0.0
H554 H 0.05277 0.79533 0.09204 0.0
H555 H 0.03867 0.77199 0.0895 0.0
H556 H 0.09662 0.7817 0.11022 0.0
H557 H 0.08234 0.81699 0.08654 0.0
H558 H 0.12358 0.80662 0.14203 0.0
H559 H 0.13984 0.81549 0.12513 0.0
H560 H 0.12401 0.79229 0.12495 0.0
H561 H 0.09673 0.84714 0.09377 0.0
H562 H 0.11998 0.8554 0.09362 0.0
H563 H 0.1094 0.85405 0.11426 0.0
H564 H 0.06627 0.78246 0.22035 0.0
H565 H 0.09617 0.79608 0.22548 0.0
H566 H 0.08271 0.83654 0.23094 0.0
H567 H 0.12547 0.81286 0.1927 0.0
H568 H 0.12273 0.80126 0.21303 0.0
H569 H 0.13997 0.82385 0.21122 0.0
H570 H 0.09964 0.86459 0.21872 0.0
H571 H 0.11123 0.86478 0.19894 0.0
H572 H 0.12273 0.87194 0.21984 0.0
H573 H 0.22757 0.94357 0.24331 0.0
H574 H 0.25008 0.94958 0.26254 0.0
H575 H 0.2469 0.92938 0.26114 0.0
H576 H 0.22416 0.92941 0.28853 0.0
H577 H 0.21712 0.88875 0.22495 0.0
H578 H 0.19826 0.92513 0.23037 0.0
H579 H 0.19025 0.86324 0.1904 0.0
H580 H 0.17752 0.8525 0.20943 0.0
H581 H 0.20091 0.86135 0.21008 0.0
H582 H 0.17277 0.92086 0.21576 0.0
H583 H 0.15597 0.89819 0.2178 0.0
H584 H 0.16544 0.90616 0.19656 0.0
H585 H 0.14645 0.85013 0.10029 0.0
H586 H 0.10427 0.82419 0.14653 0.0
H587 H 0.10489 0.8276 0.17821 0.0
H588 H 0.14899 0.86302 0.22208 0.0
H589 H 0.18956 0.89291 0.17531 0.0
H590 H 0.18882 0.8897 0.14351 0.0
H591 H 0.0376 0.78804 0.23679 0.0
H592 H 0.03426 0.7696 0.22281 0.0
H593 H 0.04496 0.79151 0.21419 0.0
C594 C 0.28977 0.09212 0.97044 0.0
C595 C 0.29267 0.08135 0.95598 0.0
C596 C 0.30102 0.10149 0.93075 0.0
C597 C 0.28429 0.09909 0.9271 0.0
C598 C 0.28195 0.10948 0.91459 0.0
C599 C 0.29658 0.12251 0.90555 0.0
C600 C 0.31333 0.1246 0.9088 0.0
C601 C 0.3153 0.11398 0.9213 0.0
C602 C 0.26388 0.10682 0.91128 0.0
C603 C 0.32923 0.13834 0.89938 0.0
C604 C 0.29124 0.23725 0.91619 0.0
C605 C 0.30209 0.23435 0.93035 0.0
C606 C 0.30744 0.21218 0.91542 0.0
C607 C 0.32015 0.21003 0.90663 0.0
C608 C 0.31617 0.19387 0.89873 0.0
C609 C 0.29894 0.17945 0.89964 0.0
C610 C 0.28599 0.18142 0.90869 0.0
C611 C 0.29036 0.19778 0.91656 0.0
C612 C 0.33039 0.19225 0.88932 0.0
C613 C 0.26753 0.16626 0.9099 0.0
C614 C 0.2758 0.18662 0.78449 0.0
C615 C 0.29276 0.1907 0.78964 0.0
C616 C 0.29548 0.17898 0.79983 0.0
C617 C 0.28092 0.16295 0.80506 0.0
C618 C 0.26387 0.15859 0.79934 0.0
C619 C 0.26158 0.17043 0.78891 0.0
C620 C 0.3139 0.18377 0.80511 0.0
C621 C 0.24807 0.14154 0.80447 0.0
C622 C 0.29492 0.05906 0.75287 0.0
C623 C 0.28563 0.06296 0.76711 0.0
C624 C 0.29378 0.08663 0.78939 0.0
C625 C 0.30804 0.10146 0.79709 0.0
C626 C 0.3058 0.11393 0.80682 0.0
C627 C 0.28872 0.11119 0.80928 0.0
C628 C 0.27414 0.09592 0.80194 0.0
C629 C 0.27681 0.08381 0.79198 0.0
C630 C 0.32174 0.13022 0.81411 0.0
C631 C 0.25576 0.09252 0.80446 0.0
C632 C 0.29454 0.13473 0.89365 0.0
C633 C 0.29612 0.15007 0.90134 0.0
C634 C 0.29467 0.1624 0.89105 0.0
C635 C 0.29098 0.15916 0.87263 0.0
C636 C 0.28859 0.17088 0.86205 0.0
C637 C 0.28565 0.16795 0.8438 0.0
C638 C 0.28547 0.15344 0.83536 0.0
C639 C 0.28344 0.15085 0.8167 0.0
C640 C 0.28409 0.1367 0.8087 0.0
C641 C 0.28632 0.12474 0.81888 0.0
C642 C 0.28754 0.12664 0.83763 0.0
C643 C 0.28898 0.11442 0.84834 0.0
C644 C 0.29092 0.11683 0.86673 0.0
C645 C 0.29175 0.13168 0.87507 0.0
C646 C 0.28993 0.14395 0.86455 0.0
C647 C 0.28752 0.14128 0.84584 0.0
C648 C 0.26638 0.21867 0.78857 0.0
C649 C 0.27995 0.2157 0.77896 0.0
O650 O 0.30412 0.09235 0.94334 0.0
O651 O 0.29703 0.07565 0.77927 0.0
O652 O 0.27282 0.19791 0.77501 0.0
O653 O 0.31237 0.22838 0.92244 0.0
H654 H 0.27992 0.07199 0.94947 0.0
H655 H 0.28361 0.09933 0.9647 0.0
H656 H 0.30241 0.10185 0.97685 0.0
H657 H 0.28093 0.0833 0.98076 0.0
H658 H 0.27302 0.08932 0.93405 0.0
H659 H 0.32813 0.11567 0.92409 0.0
H660 H 0.26358 0.11883 0.91554 0.0
H661 H 0.25366 0.09545 0.91855 0.0
H662 H 0.26066 0.10469 0.89683 0.0
H663 H 0.34125 0.13792 0.90294 0.0
H664 H 0.33133 0.15161 0.90287 0.0
H665 H 0.32707 0.13643 0.88477 0.0
H666 H 0.29325 0.2246 0.94007 0.0
H667 H 0.28313 0.2422 0.9225 0.0
H668 H 0.28232 0.22475 0.909 0.0
H669 H 0.29994 0.24693 0.90635 0.0
H670 H 0.33328 0.22119 0.90589 0.0
H671 H 0.28039 0.19917 0.92346 0.0
H672 H 0.32698 0.18939 0.87495 0.0
H673 H 0.33145 0.18112 0.89473 0.0
H674 H 0.34334 0.20442 0.89069 0.0
H675 H 0.25881 0.17 0.91696 0.0
H676 H 0.26759 0.1553 0.91701 0.0
H677 H 0.26208 0.16129 0.89633 0.0
H678 H 0.29144 0.22044 0.78816 0.0
H679 H 0.30386 0.20294 0.78556 0.0
H680 H 0.24858 0.1673 0.78457 0.0
H681 H 0.31568 0.18609 0.81971 0.0
H682 H 0.32387 0.19579 0.79846 0.0
H683 H 0.31622 0.17274 0.80174 0.0
H684 H 0.23563 0.14052 0.79974 0.0
H685 H 0.2477 0.14034 0.81916 0.0
H686 H 0.24902 0.13032 0.79873 0.0
H687 H 0.2747 0.05133 0.77349 0.0
H688 H 0.29111 0.04489 0.75475 0.0
H689 H 0.30881 0.06437 0.75773 0.0
H690 H 0.28858 0.06792 0.72946 0.0
H691 H 0.32106 0.10348 0.79501 0.0
H692 H 0.26565 0.07221 0.78624 0.0
H693 H 0.32176 0.13001 0.82885 0.0
H694 H 0.32141 0.14217 0.8101 0.0
H695 H 0.33413 0.13122 0.80945 0.0
H696 H 0.24574 0.07912 0.79977 0.0
H697 H 0.25394 0.10228 0.79693 0.0
H698 H 0.25357 0.09416 0.81872 0.0
H699 H 0.29896 0.15267 0.91548 0.0
H700 H 0.28894 0.18245 0.86779 0.0
H701 H 0.28387 0.1774 0.83636 0.0
H702 H 0.28313 0.13515 0.79433 0.0
H703 H 0.28868 0.10288 0.84258 0.0
H704 H 0.29208 0.10707 0.87432 0.0
H705 H 0.25436 0.21393 0.78021 0.0
H706 H 0.27183 0.23287 0.79181 0.0
H707 H 0.26275 0.21136 0.80119 0.0
C708 C 0.80044 0.07977 0.97338 0.0
C709 C 0.78779 0.08104 0.96028 0.0
C710 C 0.80049 0.087 0.93108 0.0
C711 C 0.7984 0.10098 0.92545 0.0
C712 C 0.81025 0.11339 0.91368 0.0
C713 C 0.8246 0.11183 0.90761 0.0
C714 C 0.82629 0.09728 0.91272 0.0
C715 C 0.814 0.08486 0.92421 0.0
C716 C 0.80775 0.12845 0.90819 0.0
C717 C 0.84143 0.09521 0.90658 0.0
C718 C 0.93508 0.23311 0.96143 0.0
C719 C 0.92624 0.21614 0.95118 0.0
C720 C 0.89964 0.19841 0.93311 0.0
C721 C 0.90419 0.18594 0.92724 0.0
C722 C 0.89303 0.172 0.91568 0.0
C723 C 0.87716 0.17065 0.90966 0.0
C724 C 0.87278 0.18344 0.91521 0.0
C725 C 0.88404 0.19708 0.92696 0.0
C726 C 0.89806 0.15854 0.91009 0.0
C727 C 0.85607 0.18255 0.90893 0.0
C728 C 0.91046 0.19453 0.79387 0.0
C729 C 0.91254 0.18074 0.80039 0.0
C730 C 0.89927 0.1672 0.81014 0.0
C731 C 0.88359 0.1674 0.8134 0.0
C732 C 0.88144 0.18124 0.80686 0.0
C733 C 0.89494 0.19463 0.79721 0.0
C734 C 0.90197 0.15264 0.81696 0.0
C735 C 0.86488 0.18183 0.81007 0.0
C736 C 0.77304 0.0366 0.7901 0.0
C737 C 0.77806 0.05464 0.78276 0.0
C738 C 0.80723 0.07888 0.79048 0.0
C739 C 0.82344 0.08103 0.7956 0.0
C740 C 0.83528 0.09558 0.80608 0.0
C741 C 0.8309 0.10849 0.81118 0.0
C742 C 0.81479 0.10675 0.8054 0.0
C743 C 0.8031 0.09193 0.7951 0.0
C744 C 0.85243 0.09712 0.81179 0.0
C745 C 0.80998 0.12056 0.81008 0.0
C746 C 0.83862 0.12625 0.89734 0.0
C747 C 0.85114 0.14105 0.90693 0.0
C748 C 0.86465 0.15535 0.8984 0.0
C749 C 0.86587 0.15493 0.87968 0.0
C750 C 0.87925 0.16909 0.87063 0.0
C751 C 0.88043 0.16849 0.85221 0.0
C752 C 0.86819 0.15375 0.84212 0.0
C753 C 0.86933 0.15299 0.82341 0.0
C754 C 0.85692 0.13818 0.81379 0.0
C755 C 0.84332 0.12393 0.82232 0.0
C756 C 0.84196 0.12442 0.84103 0.0
C757 C 0.82847 0.11033 0.85008 0.0
C758 C 0.82725 0.11095 0.8685 0.0
C759 C 0.83961 0.12557 0.87861 0.0
C760 C 0.85332 0.13996 0.86976 0.0
C761 C 0.85448 0.13939 0.85096 0.0
C762 C 0.95235 0.21841 0.79472 0.0
C763 C 0.93908 0.21048 0.77926 0.0
O764 O 0.78987 0.07572 0.94345 0.0
O765 O 0.79605 0.06423 0.78085 0.0
O766 O 0.92295 0.208 0.78442 0.0
O767 O 0.90975 0.21178 0.94476 0.0
H768 H 0.79116 0.09509 0.9603 0.0
H769 H 0.81414 0.08866 0.96931 0.0
H770 H 0.79817 0.06613 0.97365 0.0
H771 H 0.7988 0.08381 0.98698 0.0
H772 H 0.78759 0.10228 0.93045 0.0
H773 H 0.81534 0.07387 0.92852 0.0
H774 H 0.81774 0.1407 0.91507 0.0
H775 H 0.79459 0.12626 0.91164 0.0
H776 H 0.80957 0.13045 0.89366 0.0
H777 H 0.84113 0.08341 0.91214 0.0
H778 H 0.85398 0.10703 0.91062 0.0
H779 H 0.84117 0.09411 0.89186 0.0
H780 H 0.92668 0.20501 0.9576 0.0
H781 H 0.93672 0.22947 0.97532 0.0
H782 H 0.92458 0.23628 0.96515 0.0
H783 H 0.95655 0.24958 0.94555 0.0
H784 H 0.91628 0.18686 0.93181 0.0
H785 H 0.88068 0.20679 0.93147 0.0
H786 H 0.88766 0.14522 0.91387 0.0
H787 H 0.91065 0.1612 0.91624 0.0
H788 H 0.89921 0.15844 0.89541 0.0
H789 H 0.85548 0.19449 0.91288 0.0
H790 H 0.84474 0.17093 0.91471 0.0
H791 H 0.85477 0.1809 0.89424 0.0
H792 H 0.93777 0.19767 0.77501 0.0
H793 H 0.92445 0.18041 0.79803 0.0
H794 H 0.89342 0.2053 0.79216 0.0
H795 H 0.90055 0.15192 0.83163 0.0
H796 H 0.91504 0.15452 0.81362 0.0
H797 H 0.89177 0.13984 0.81117 0.0
H798 H 0.86525 0.19352 0.80414 0.0
H799 H 0.86279 0.18207 0.82459 0.0
H800 H 0.8535 0.16978 0.80433 0.0
H801 H 0.77361 0.06104 0.79271 0.0
H802 H 0.75862 0.02858 0.79153 0.0
H803 H 0.77926 0.03825 0.80341 0.0
H804 H 0.77751 0.02944 0.78121 0.0
H805 H 0.82661 0.07103 0.79169 0.0
H806 H 0.79087 0.0907 0.79048 0.0
H807 H 0.85412 0.09897 0.82645 0.0
H808 H 0.86338 0.10886 0.80571 0.0
H809 H 0.85333 0.08536 0.80779 0.0
H810 H 0.79741 0.11778 0.80374 0.0
H811 H 0.82047 0.13366 0.80586 0.0
H812 H 0.80883 0.12126 0.82472 0.0
H813 H 0.85029 0.14148 0.92131 0.0
H814 H 0.88901 0.18078 0.8777 0.0
H815 H 0.89105 0.17975 0.84597 0.0
H816 H 0.85792 0.13768 0.79944 0.0
H817 H 0.81866 0.09867 0.84301 0.0
H818 H 0.81654 0.09977 0.87475 0.0
H819 H 0.96532 0.2206 0.79049 0.0
H820 H 0.94807 0.20939 0.8061 0.0
H821 H 0.95375 0.23115 0.79932 0.0
C822 C 0.79285 0.70705 0.97175 0.0
C823 C 0.77968 0.70457 0.95698 0.0
C824 C 0.79303 0.69741 0.93187 0.0
C825 C 0.807 0.71453 0.92933 0.0
C826 C 0.82084 0.7175 0.91813 0.0
C827 C 0.82076 0.70309 0.90934 0.0
C828 C 0.80642 0.68593 0.91136 0.0
C829 C 0.79266 0.68336 0.92249 0.0
C830 C 0.83579 0.73601 0.91603 0.0
C831 C 0.80593 0.67025 0.90222 0.0
C832 C 0.90611 0.71003 0.98174 0.0
C833 C 0.90716 0.69896 0.96637 0.0
C834 C 0.90243 0.70883 0.93799 0.0
C835 C 0.88945 0.69298 0.9302 0.0
C836 C 0.87776 0.69288 0.91739 0.0
C837 C 0.87913 0.70897 0.91232 0.0
C838 C 0.89279 0.72502 0.9195 0.0
C839 C 0.90445 0.72474 0.93212 0.0
C840 C 0.86362 0.67555 0.90966 0.0
C841 C 0.89467 0.74241 0.91434 0.0
C842 C 0.91843 0.72615 0.80086 0.0
C843 C 0.90534 0.70889 0.80439 0.0
C844 C 0.88954 0.70554 0.8121 0.0
C845 C 0.88688 0.71977 0.8165 0.0
C846 C 0.89976 0.7371 0.81224 0.0
C847 C 0.9153 0.74002 0.80425 0.0
C848 C 0.87582 0.68684 0.81584 0.0
C849 C 0.89728 0.75257 0.81651 0.0
C850 C 0.77371 0.72625 0.79574 0.0
C851 C 0.78149 0.72176 0.77969 0.0
C852 C 0.7995 0.7106 0.79333 0.0
C853 C 0.8004 0.69542 0.79646 0.0
C854 C 0.81425 0.69611 0.8064 0.0
C855 C 0.82755 0.71245 0.81339 0.0
C856 C 0.82692 0.72793 0.81007 0.0
C857 C 0.8129 0.72688 0.80008 0.0
C858 C 0.81456 0.67935 0.80966 0.0
C859 C 0.84095 0.74557 0.8173 0.0
C860 C 0.83635 0.7058 0.89935 0.0
C861 C 0.85014 0.70636 0.9091 0.0
C862 C 0.86532 0.70885 0.90083 0.0
C863 C 0.8669 0.7109 0.88222 0.0
C864 C 0.88202 0.71351 0.87347 0.0
C865 C 0.88345 0.71556 0.85514 0.0
C866 C 0.86971 0.7148 0.84481 0.0
C867 C 0.87096 0.71665 0.82613 0.0
C868 C 0.85703 0.71578 0.81631 0.0
C869 C 0.84184 0.71325 0.82463 0.0
C870 C 0.84039 0.71148 0.8433 0.0
C871 C 0.82534 0.70905 0.85211 0.0
C872 C 0.82401 0.70729 0.87047 0.0
C873 C 0.83763 0.70777 0.88071 0.0
C874 C 0.85297 0.71029 0.87212 0.0
C875 C 0.85435 0.71219 0.85339 0.0
C876 C 0.96169 0.73462 0.80484 0.0
C877 C 0.9432 0.72118 0.79835 0.0
O878 O 0.77987 0.69377 0.94341 0.0
O879 O 0.78543 0.70879 0.78394 0.0
O880 O 0.93419 0.7299 0.79427 0.0
O881 O 0.91301 0.7091 0.95131 0.0
H882 H 0.78306 0.71759 0.95156 0.0
H883 H 0.80638 0.71374 0.96665 0.0
H884 H 0.78993 0.69413 0.97703 0.0
H885 H 0.79234 0.71533 0.98281 0.0
H886 H 0.80736 0.72563 0.93619 0.0
H887 H 0.78177 0.67022 0.92437 0.0
H888 H 0.84778 0.73729 0.92239 0.0
H889 H 0.83307 0.74597 0.92218 0.0
H890 H 0.83853 0.73889 0.90171 0.0
H891 H 0.79383 0.65775 0.90516 0.0
H892 H 0.81743 0.6692 0.90653 0.0
H893 H 0.80673 0.67203 0.88762 0.0
H894 H 0.89368 0.68767 0.96418 0.0
H895 H 0.90176 0.70219 0.99401 0.0
H896 H 0.89649 0.71423 0.97833 0.0
H897 H 0.91901 0.72198 0.98437 0.0
H898 H 0.88837 0.68069 0.93423 0.0
H899 H 0.91472 0.73691 0.93803 0.0
H900 H 0.8634 0.67609 0.89492 0.0
H901 H 0.85069 0.673 0.91441 0.0
H902 H 0.86546 0.6644 0.91349 0.0
H903 H 0.90612 0.75374 0.92097 0.0
H904 H 0.88266 0.74278 0.91793 0.0
H905 H 0.89611 0.74388 0.89972 0.0
H906 H 0.937 0.71219 0.80965 0.0
H907 H 0.90744 0.69803 0.80112 0.0
H908 H 0.92536 0.75326 0.80118 0.0
H909 H 0.87468 0.68496 0.83042 0.0
H910 H 0.87901 0.67715 0.80984 0.0
H911 H 0.86287 0.68409 0.81062 0.0
H912 H 0.9089 0.7653 0.81313 0.0
H913 H 0.89461 0.75283 0.83088 0.0
H914 H 0.88577 0.75116 0.80896 0.0
H915 H 0.79357 0.73378 0.77558 0.0
H916 H 0.77026 0.73641 0.7922 0.0
H917 H 0.78329 0.73153 0.80697 0.0
H918 H 0.76176 0.71436 0.80028 0.0
H919 H 0.79006 0.68294 0.79118 0.0
H920 H 0.81251 0.7388 0.79779 0.0
H921 H 0.81407 0.67704 0.82416 0.0
H922 H 0.82698 0.68062 0.80476 0.0
H923 H 0.80342 0.66773 0.80299 0.0
H924 H 0.8388 0.75647 0.81326 0.0
H925 H 0.85394 0.74828 0.81254 0.0
H926 H 0.84132 0.74534 0.83205 0.0
H927 H 0.84903 0.70478 0.9234 0.0
H928 H 0.89293 0.71407 0.88072 0.0
H929 H 0.89546 0.71766 0.84916 0.0
H930 H 0.85805 0.71717 0.80199 0.0
H931 H 0.8144 0.7085 0.84491 0.0
H932 H 0.81215 0.70549 0.87655 0.0
H933 H 0.96872 0.74473 0.79469 0.0
H934 H 0.96927 0.72795 0.80789 0.0
H935 H 0.96098 0.74136 0.81716 0.0
C936 C 0.87944 0.64171 0.37629 0.0
C937 C 0.89162 0.65196 0.392 0.0
C938 C 0.8753 0.64126 0.41912 0.0
C939 C 0.87775 0.65681 0.42732 0.0
C940 C 0.8653 0.65652 0.43904 0.0
C941 C 0.85008 0.64035 0.44259 0.0
C942 C 0.84797 0.62456 0.43491 0.0
C943 C 0.86078 0.62521 0.42342 0.0
C944 C 0.8682 0.67356 0.44734 0.0
C945 C 0.83195 0.60709 0.43843 0.0
C946 C 0.74557 0.6639 0.39722 0.0
C947 C 0.75267 0.65367 0.40601 0.0
C948 C 0.77706 0.65872 0.42576 0.0
C949 C 0.77375 0.6413 0.42501 0.0
C950 C 0.78466 0.63655 0.43415 0.0
C951 C 0.79927 0.6495 0.44402 0.0
C952 C 0.80279 0.66709 0.44451 0.0
C953 C 0.79153 0.67141 0.43549 0.0
C954 C 0.78053 0.61767 0.4334 0.0
C955 C 0.81843 0.68133 0.45461 0.0
C956 C 0.76854 0.64103 0.55942 0.0
C957 C 0.76516 0.62409 0.55445 0.0
C958 C 0.77722 0.62177 0.54432 0.0
C959 C 0.79301 0.63666 0.5392 0.0
C960 C 0.79649 0.6537 0.54433 0.0
C961 C 0.78411 0.65564 0.55424 0.0
C962 C 0.77307 0.60343 0.53899 0.0
C963 C 0.81328 0.66988 0.53933 0.0
C964 C 0.89985 0.60663 0.55356 0.0
C965 C 0.89478 0.62018 0.55964 0.0
C966 C 0.86573 0.61651 0.55465 0.0
C967 C 0.8488 0.60331 0.55002 0.0
C968 C 0.83709 0.60729 0.5414 0.0
C969 C 0.84239 0.62501 0.53773 0.0
C970 C 0.85921 0.63854 0.54328 0.0
C971 C 0.87075 0.63415 0.55165 0.0
C972 C 0.81918 0.59255 0.53589 0.0
C973 C 0.86505 0.65761 0.54013 0.0
C974 C 0.83592 0.64017 0.45335 0.0
C975 C 0.82408 0.64386 0.44469 0.0
C976 C 0.81081 0.64466 0.45396 0.0
C977 C 0.80914 0.6416 0.47243 0.0
C978 C 0.79587 0.64218 0.48215 0.0
C979 C 0.79467 0.63973 0.50041 0.0
C980 C 0.80666 0.63651 0.50967 0.0
C981 C 0.80583 0.63448 0.52832 0.0
C982 C 0.81767 0.63083 0.53704 0.0
C983 C 0.83049 0.62928 0.52767 0.0
C984 C 0.83179 0.63169 0.50906 0.0
C985 C 0.84475 0.63059 0.49924 0.0
C986 C 0.84617 0.6334 0.48101 0.0
C987 C 0.8345 0.63712 0.47184 0.0
C988 C 0.82111 0.63794 0.48142 0.0
C989 C 0.81983 0.63534 0.50006 0.0
C990 C 0.73601 0.6388 0.59157 0.0
C991 C 0.74259 0.63124 0.57783 0.0
O992 O 0.88665 0.64149 0.40687 0.0
O993 O 0.87684 0.61175 0.56196 0.0
O994 O 0.75725 0.64388 0.56923 0.0
O995 O 0.76668 0.66386 0.41742 0.0
H996 H 0.89019 0.66373 0.39434 0.0
H997 H 0.86585 0.63843 0.37936 0.0
H998 H 0.87948 0.62925 0.37359 0.0
H999 H 0.88354 0.64978 0.36416 0.0
H1000 H 0.88935 0.66917 0.42448 0.0
H1001 H 0.85915 0.61326 0.41719 0.0
H1002 H 0.85835 0.67668 0.4419 0.0
H1003 H 0.88146 0.68473 0.4447 0.0
H1004 H 0.8664 0.67223 0.46194 0.0
H1005 H 0.8322 0.59601 0.43135 0.0
H1006 H 0.82003 0.6074 0.43416 0.0
H1007 H 0.83094 0.6046 0.45291 0.0
H1008 H 0.74265 0.64106 0.41184 0.0
H1009 H 0.75118 0.66303 0.37008 0.0
H1010 H 0.75065 0.67661 0.40509 0.0
H1011 H 0.73182 0.65815 0.40221 0.0
H1012 H 0.76263 0.63134 0.41745 0.0
H1013 H 0.79401 0.68482 0.43592 0.0
H1014 H 0.79139 0.61686 0.42691 0.0
H1015 H 0.76818 0.60897 0.42592 0.0
H1016 H 0.77941 0.6127 0.44709 0.0
H1017 H 0.82025 0.69461 0.45232 0.0
H1018 H 0.83049 0.68124 0.45064 0.0
H1019 H 0.81675 0.67877 0.46907 0.0
H1020 H 0.73245 0.62125 0.56858 0.0
H1021 H 0.75311 0.61266 0.55832 0.0
H1022 H 0.78661 0.66864 0.55816 0.0
H1023 H 0.77414 0.60246 0.52436 0.0
H1024 H 0.75974 0.59329 0.54299 0.0
H1025 H 0.78274 0.60054 0.54532 0.0
H1026 H 0.81468 0.68205 0.54567 0.0
H1027 H 0.8136 0.67131 0.52469 0.0
H1028 H 0.82468 0.6685 0.54329 0.0
H1029 H 0.89874 0.62985 0.54877 0.0
H1030 H 0.91422 0.61306 0.5517 0.0
H1031 H 0.89323 0.60052 0.54065 0.0
H1032 H 0.89586 0.59606 0.56342 0.0
H1033 H 0.84497 0.58977 0.55269 0.0
H1034 H 0.88363 0.64448 0.55588 0.0
H1035 H 0.81711 0.59299 0.52138 0.0
H1036 H 0.80903 0.59426 0.5428 0.0
H1037 H 0.81733 0.57941 0.53905 0.0
H1038 H 0.87785 0.66663 0.5467 0.0
H1039 H 0.85512 0.66079 0.54515 0.0
H1040 H 0.86626 0.66002 0.52564 0.0
H1041 H 0.82537 0.64641 0.43056 0.0
H1042 H 0.7863 0.64467 0.47575 0.0
H1043 H 0.78425 0.64044 0.50719 0.0
H1044 H 0.81693 0.62922 0.55134 0.0
H1045 H 0.85407 0.6277 0.50556 0.0
H1046 H 0.85653 0.6326 0.47418 0.0
H1047 H 0.72256 0.63538 0.58668 0.0
H1048 H 0.74202 0.65324 0.58878 0.0
H1049 H 0.74033 0.62946 0.61573 0.0
C1050 C 0.37113 0.27796 0.42438 0.0
C1051 C 0.3604 0.26422 0.40982 0.0
C1052 C 0.35323 0.23692 0.42551 0.0
C1053 C 0.33999 0.22323 0.43491 0.0
C1054 C 0.34307 0.21122 0.44404 0.0
C1055 C 0.35986 0.21288 0.44358 0.0
C1056 C 0.37332 0.22656 0.43388 0.0
C1057 C 0.36988 0.23848 0.42491 0.0
C1058 C 0.3284 0.19682 0.45428 0.0
C1059 C 0.39133 0.22863 0.43314 0.0
C1060 C 0.34164 0.08396 0.40058 0.0
C1061 C 0.35145 0.10288 0.40599 0.0
C1062 C 0.34648 0.12372 0.42363 0.0
C1063 C 0.36413 0.13705 0.42477 0.0
C1064 C 0.36912 0.15269 0.4345 0.0
C1065 C 0.35624 0.15497 0.44332 0.0
C1066 C 0.33851 0.14149 0.44231 0.0
C1067 C 0.33388 0.12608 0.43239 0.0
C1068 C 0.38812 0.16683 0.43534 0.0
C1069 C 0.32442 0.14341 0.4516 0.0
C1070 C 0.37839 0.13858 0.55621 0.0
C1071 C 0.39412 0.15271 0.55017 0.0
C1072 C 0.39413 0.16642 0.5408 0.0
C1073 C 0.37815 0.16609 0.53755 0.0
C1074 C 0.36237 0.1521 0.54395 0.0
C1075 C 0.36272 0.13849 0.55312 0.0
C1076 C 0.41117 0.18117 0.53414 0.0
C1077 C 0.34511 0.15143 0.54092 0.0
C1078 C 0.39486 0.29887 0.54868 0.0
C1079 C 0.38256 0.28053 0.55573 0.0
C1080 C 0.3889 0.25655 0.5533 0.0
C1081 C 0.40305 0.2542 0.54928 0.0
C1082 C 0.40044 0.23857 0.54109 0.0
C1083 C 0.3832 0.22483 0.53727 0.0
C1084 C 0.36879 0.22669 0.54247 0.0
C1085 C 0.37179 0.24258 0.55036 0.0
C1086 C 0.4161 0.23694 0.536 0.0
C1087 C 0.35022 0.21204 0.5393 0.0
C1088 C 0.36322 0.20026 0.45337 0.0
C1089 C 0.35995 0.18478 0.44448 0.0
C1090 C 0.36117 0.17156 0.45335 0.0
C1091 C 0.36587 0.17379 0.47162 0.0
C1092 C 0.36697 0.16066 0.48103 0.0
C1093 C 0.37109 0.16277 0.49912 0.0
C1094 C 0.37418 0.17807 0.50854 0.0
C1095 C 0.37784 0.18011 0.52704 0.0
C1096 C 0.3808 0.19547 0.536 0.0
C1097 C 0.38025 0.20897 0.52696 0.0
C1098 C 0.37661 0.20717 0.50844 0.0
C1099 C 0.37597 0.22051 0.49891 0.0
C1100 C 0.37172 0.21834 0.48086 0.0
C1101 C 0.36816 0.20284 0.47157 0.0
C1102 C 0.3693 0.18948 0.48077 0.0
C1103 C 0.37345 0.19161 0.49924 0.0
C1104 C 0.39697 0.11513 0.55375 0.0
C1105 C 0.39123 0.12201 0.56972 0.0
O1106 O 0.34922 0.2482 0.41736 0.0
O1107 O 0.39219 0.27245 0.55981 0.0
O1108 O 0.37757 0.1247 0.56486 0.0
O1109 O 0.34099 0.10844 0.41427 0.0
H1110 H 0.36932 0.26268 0.40051 0.0
H1111 H 0.37932 0.27393 0.43199 0.0
H1112 H 0.36233 0.27956 0.43379 0.0
H1113 H 0.38001 0.29086 0.41841 0.0
H1114 H 0.32719 0.2221 0.43524 0.0
H1115 H 0.38023 0.24891 0.41752 0.0
H1116 H 0.32581 0.18381 0.44913 0.0
H1117 H 0.3161 0.19736 0.45333 0.0
H1118 H 0.33229 0.19789 0.46851 0.0
H1119 H 0.40042 0.23996 0.42504 0.0
H1120 H 0.39044 0.21646 0.42742 0.0
H1121 H 0.39688 0.23051 0.44682 0.0
H1122 H 0.36001 0.11201 0.39564 0.0
H1123 H 0.3527 0.0724 0.41671 0.0
H1124 H 0.34228 0.08389 0.38562 0.0
H1125 H 0.3273 0.07978 0.40077 0.0
H1126 H 0.37402 0.13537 0.41803 0.0
H1127 H 0.32032 0.11571 0.43145 0.0
H1128 H 0.3896 0.17924 0.43008 0.0
H1129 H 0.39656 0.16315 0.42762 0.0
H1130 H 0.3928 0.16946 0.44939 0.0
H1131 H 0.31146 0.13122 0.45057 0.0
H1132 H 0.32331 0.15429 0.44561 0.0
H1133 H 0.32796 0.14685 0.46587 0.0
H1134 H 0.40253 0.13458 0.57475 0.0
H1135 H 0.40641 0.15309 0.5525 0.0
H1136 H 0.35066 0.12759 0.55787 0.0
H1137 H 0.41033 0.18209 0.51949 0.0
H1138 H 0.42246 0.17934 0.53737 0.0
H1139 H 0.41362 0.19386 0.54014 0.0
H1140 H 0.33419 0.1403 0.54779 0.0
H1141 H 0.342 0.15005 0.52646 0.0
H1142 H 0.34603 0.16391 0.5457 0.0
H1143 H 0.37301 0.27327 0.54471 0.0
H1144 H 0.38746 0.30573 0.54565 0.0
H1145 H 0.40095 0.2977 0.53623 0.0
H1146 H 0.40548 0.30692 0.55848 0.0
H1147 H 0.41619 0.26496 0.55192 0.0
H1148 H 0.36079 0.24411 0.55415 0.0
H1149 H 0.41563 0.23412 0.5215 0.0
H1150 H 0.41576 0.22575 0.54303 0.0
H1151 H 0.42866 0.24906 0.53935 0.0
H1152 H 0.34061 0.21458 0.54627 0.0
H1153 H 0.34869 0.19937 0.54383 0.0
H1154 H 0.34712 0.2106 0.52484 0.0
H1155 H 0.3559 0.18279 0.43059 0.0
H1156 H 0.36456 0.14854 0.47452 0.0
H1157 H 0.37168 0.15218 0.50566 0.0
H1158 H 0.38344 0.19687 0.55022 0.0
H1159 H 0.37857 0.23272 0.50532 0.0
H1160 H 0.37122 0.22896 0.47428 0.0
H1161 H 0.40764 0.11261 0.55781 0.0
H1162 H 0.40194 0.12493 0.54306 0.0
H1163 H 0.38582 0.10275 0.54824 0.0
C1164 C 0.87238 0.24736 0.37737 0.0
C1165 C 0.88446 0.25433 0.39384 0.0
C1166 C 0.86839 0.22992 0.41442 0.0
C1167 C 0.85484 0.23345 0.41825 0.0
C1168 C 0.84052 0.22185 0.42844 0.0
C1169 C 0.83969 0.20639 0.43486 0.0
C1170 C 0.85341 0.20293 0.43123 0.0
C1171 C 0.86764 0.21483 0.42117 0.0
C1172 C 0.82619 0.22602 0.43226 0.0
C1173 C 0.85294 0.18655 0.43781 0.0
C1174 C 0.74161 0.12481 0.36481 0.0
C1175 C 0.74441 0.11542 0.3804 0.0
C1176 C 0.75345 0.13191 0.40847 0.0
C1177 C 0.76688 0.12869 0.41371 0.0
C1178 C 0.78014 0.14021 0.42562 0.0
C1179 C 0.77992 0.15523 0.43243 0.0
C1180 C 0.766 0.15811 0.4277 0.0
C1181 C 0.75279 0.14623 0.41594 0.0
C1182 C 0.79454 0.13651 0.43073 0.0
C1183 C 0.76534 0.17396 0.43474 0.0
C1184 C 0.74771 0.12955 0.546 0.0
C1185 C 0.76099 0.12583 0.54155 0.0
C1186 C 0.77614 0.13834 0.53302 0.0
C1187 C 0.77808 0.15491 0.52903 0.0
C1188 C 0.76507 0.15895 0.53423 0.0
C1189 C 0.7501 0.14622 0.54279 0.0
C1190 C 0.79 0.13381 0.52809 0.0
C1191 C 0.76685 0.17659 0.53042 0.0
C1192 C 0.89756 0.2698 0.54926 0.0
C1193 C 0.88935 0.25807 0.56531 0.0
C1194 C 0.86838 0.22944 0.5513 0.0
C1195 C 0.86563 0.21272 0.54691 0.0
C1196 C 0.85087 0.20061 0.53695 0.0
C1197 C 0.83847 0.20534 0.53135 0.0
C1198 C 0.84094 0.22211 0.53603 0.0
C1199 C 0.8559 0.23404 0.54589 0.0
C1200 C 0.84864 0.18282 0.53221 0.0
C1201 C 0.82784 0.22748 0.5304 0.0
C1202 C 0.82423 0.19359 0.44494 0.0
C1203 C 0.80962 0.18103 0.43524 0.0
C1204 C 0.79471 0.16834 0.44376 0.0
C1205 C 0.79424 0.16816 0.46255 0.0
C1206 C 0.77949 0.15558 0.47158 0.0
C1207 C 0.77916 0.15552 0.49007 0.0
C1208 C 0.79365 0.16793 0.50027 0.0
C1209 C 0.79351 0.16788 0.51908 0.0
C1210 C 0.80821 0.18029 0.52879 0.0
C1211 C 0.82315 0.19287 0.52022 0.0
C1212 C 0.82349 0.19324 0.50143 0.0
C1213 C 0.83828 0.2058 0.4924 0.0
C1214 C 0.8385 0.20603 0.47391 0.0
C1215 C 0.82403 0.19362 0.46373 0.0
C1216 C 0.80897 0.18084 0.47256 0.0
C1217 C 0.80869 0.18069 0.49143 0.0
C1218 C 0.70584 0.09404 0.5418 0.0
C1219 C 0.72374 0.09951 0.55019 0.0
O1220 O 0.88231 0.24049 0.40423 0.0
O1221 O 0.88324 0.2406 0.5606 0.0
O1222 O 0.73256 0.11751 0.55356 0.0
O1223 O 0.74107 0.12149 0.3962 0.0
H1224 H 0.88139 0.26323 0.40178 0.0
H1225 H 0.85846 0.24014 0.38129 0.0
H1226 H 0.87515 0.23828 0.36941 0.0
H1227 H 0.87429 0.25844 0.36893 0.0
H1228 H 0.85525 0.24515 0.41333 0.0
H1229 H 0.87818 0.21224 0.41824 0.0
H1230 H 0.81376 0.2158 0.42591 0.0
H1231 H 0.82923 0.23907 0.42725 0.0
H1232 H 0.82405 0.2258 0.4468 0.0
H1233 H 0.86437 0.18549 0.43337 0.0
H1234 H 0.84077 0.17473 0.43295 0.0
H1235 H 0.85274 0.18655 0.45256 0.0
H1236 H 0.75838 0.11889 0.37978 0.0
H1237 H 0.74345 0.11954 0.35197 0.0
H1238 H 0.75132 0.13908 0.36576 0.0
H1239 H 0.72833 0.12327 0.36496 0.0
H1240 H 0.76701 0.11719 0.40848 0.0
H1241 H 0.74221 0.14843 0.412 0.0
H1242 H 0.80714 0.14688 0.4254 0.0
H1243 H 0.79205 0.12353 0.42553 0.0
H1244 H 0.796 0.13688 0.44543 0.0
H1245 H 0.7538 0.17449 0.42953 0.0
H1246 H 0.7774 0.18615 0.43104 0.0
H1247 H 0.76485 0.17372 0.44947 0.0
H1248 H 0.7307 0.09582 0.54024 0.0
H1249 H 0.75964 0.11324 0.5448 0.0
H1250 H 0.73992 0.14908 0.54659 0.0
H1251 H 0.79143 0.13413 0.51343 0.0
H1252 H 0.78685 0.12059 0.53267 0.0
H1253 H 0.80281 0.14376 0.53399 0.0
H1254 H 0.75561 0.17772 0.53538 0.0
H1255 H 0.76786 0.17872 0.51587 0.0
H1256 H 0.77907 0.18721 0.53674 0.0
H1257 H 0.87835 0.25969 0.57022 0.0
H1258 H 0.90265 0.28381 0.55311 0.0
H1259 H 0.88769 0.26626 0.53844 0.0
H1260 H 0.90849 0.26824 0.54405 0.0
H1261 H 0.87526 0.20926 0.55118 0.0
H1262 H 0.85773 0.24689 0.54917 0.0
H1263 H 0.84765 0.18084 0.51754 0.0
H1264 H 0.83627 0.17235 0.53784 0.0
H1265 H 0.85965 0.18128 0.53728 0.0
H1266 H 0.83111 0.24059 0.53594 0.0
H1267 H 0.81457 0.2176 0.5348 0.0
H1268 H 0.82739 0.22785 0.51567 0.0
H1269 H 0.80991 0.18105 0.42082 0.0
H1270 H 0.768 0.14565 0.46443 0.0
H1271 H 0.76742 0.14555 0.49628 0.0
H1272 H 0.80804 0.18011 0.54321 0.0
H1273 H 0.84985 0.21562 0.49951 0.0
H1274 H 0.85021 0.21604 0.46769 0.0
H1275 H 0.6984 0.0796 0.53926 0.0
H1276 H 0.70761 0.10069 0.52891 0.0
H1277 H 0.69811 0.0978 0.55059 0.0
C1278 C 0.98636 0.43685 0.30358 0.0
C1279 C 0.98907 0.42709 0.28792 0.0
C1280 C 0.99607 0.4487 0.26426 0.0
C1281 C 0.97902 0.44577 0.26151 0.0
C1282 C 0.9759 0.45656 0.25025 0.0
C1283 C 0.99009 0.47059 0.24165 0.0
C1284 C 0.00721 0.47339 0.24415 0.0
C1285 C 0.00993 0.46229 0.25533 0.0
C1286 C 0.95746 0.4531 0.24766 0.0
C1287 C 0.02266 0.48825 0.23522 0.0
C1288 C 0.97618 0.58281 0.24228 0.0
C1289 C 0.98953 0.58263 0.25528 0.0
C1290 C 0.98354 0.55242 0.25555 0.0
C1291 C 0.99929 0.55434 0.2491 0.0
C1292 C 0.9998 0.54013 0.24091 0.0
C1293 C 0.98425 0.52366 0.23919 0.0
C1294 C 0.96852 0.52149 0.24638 0.0
C1295 C 0.96842 0.53591 0.25464 0.0
C1296 C 0.01689 0.54275 0.23383 0.0
C1297 C 0.95175 0.50406 0.24495 0.0
C1298 C 0.9729 0.54135 0.12586 0.0
C1299 C 0.98943 0.54378 0.13039 0.0
C1300 C 0.99105 0.53061 0.13906 0.0
C1301 C 0.9758 0.51471 0.14326 0.0
C1302 C 0.95918 0.51189 0.13787 0.0
C1303 C 0.95797 0.52523 0.12904 0.0
C1304 C 0.00901 0.53382 0.1441 0.0
C1305 C 0.94268 0.49502 0.14193 0.0
C1306 C 0.9651 0.39128 0.13481 0.0
C1307 C 0.96828 0.40114 0.11737 0.0
C1308 C 0.97998 0.43187 0.12798 0.0
C1309 C 0.99531 0.44809 0.13019 0.0
C1310 C 0.99525 0.46231 0.13892 0.0
C1311 C 0.97938 0.46023 0.14554 0.0
C1312 C 0.96371 0.44398 0.14304 0.0
C1313 C 0.96415 0.42993 0.13432 0.0
C1314 C 0.01218 0.47948 0.1413 0.0
C1315 C 0.94653 0.44142 0.14979 0.0
C1316 C 0.98712 0.48269 0.23047 0.0
C1317 C 0.98675 0.49679 0.23899 0.0
C1318 C 0.98431 0.50888 0.22934 0.0
C1319 C 0.98224 0.50698 0.21063 0.0
C1320 C 0.97981 0.51895 0.20051 0.0
C1321 C 0.97808 0.51716 0.18209 0.0
C1322 C 0.97865 0.5033 0.17305 0.0
C1323 C 0.9772 0.50157 0.1543 0.0
C1324 C 0.97743 0.48742 0.14575 0.0
C1325 C 0.97924 0.47494 0.15546 0.0
C1326 C 0.98105 0.47665 0.17421 0.0
C1327 C 0.98322 0.46453 0.18437 0.0
C1328 C 0.98513 0.46642 0.20279 0.0
C1329 C 0.98497 0.48051 0.21178 0.0
C1330 C 0.98262 0.49278 0.20182 0.0
C1331 C 0.98074 0.49089 0.18302 0.0
C1332 C 0.96759 0.57425 0.13739 0.0
C1333 C 0.97926 0.57165 0.12416 0.0
O1334 O 0.99986 0.43896 0.27544 0.0
O1335 O 0.98122 0.41859 0.11981 0.0
O1336 O 0.97097 0.55423 0.1183 0.0
O1337 O 0.98256 0.56619 0.26277 0.0
H1338 H 0.97622 0.41774 0.2816 0.0
H1339 H 0.97981 0.44412 0.29904 0.0
H1340 H 0.99913 0.4464 0.30989 0.0
H1341 H 0.97795 0.42736 0.3137 0.0
H1342 H 0.96808 0.43517 0.26811 0.0
H1343 H 0.02301 0.4644 0.25743 0.0
H1344 H 0.95648 0.46437 0.25318 0.0
H1345 H 0.94768 0.44093 0.25425 0.0
H1346 H 0.95415 0.45191 0.23325 0.0
H1347 H 0.03522 0.48901 0.239 0.0
H1348 H 0.02345 0.50095 0.23881 0.0
H1349 H 0.0209 0.48646 0.22057 0.0
H1350 H 0.00129 0.58563 0.2474 0.0
H1351 H 0.98141 0.59608 0.23661 0.0
H1352 H 0.96365 0.57907 0.24897 0.0
H1353 H 0.97349 0.57326 0.23116 0.0
H1354 H 0.01122 0.56689 0.25055 0.0
H1355 H 0.9564 0.53449 0.25994 0.0
H1356 H 0.01965 0.53267 0.23923 0.0
H1357 H 0.02805 0.55601 0.23727 0.0
H1358 H 0.01591 0.54105 0.21913 0.0
H1359 H 0.94058 0.50456 0.25107 0.0
H1360 H 0.95351 0.49383 0.2516 0.0
H1361 H 0.94851 0.5 0.23074 0.0
H1362 H 0.99171 0.57525 0.13134 0.0
H1363 H 0.00109 0.55593 0.12714 0.0
H1364 H 0.9453 0.52337 0.12514 0.0
H1365 H 0.01063 0.53495 0.15879 0.0
H1366 H 0.01959 0.54603 0.13828 0.0
H1367 H 0.0105 0.52253 0.1396 0.0
H1368 H 0.93075 0.49486 0.13686 0.0
H1369 H 0.94162 0.49317 0.15653 0.0
H1370 H 0.94326 0.4837 0.13588 0.0
H1371 H 0.95594 0.40044 0.11274 0.0
H1372 H 0.95494 0.37724 0.13277 0.0
H1373 H 0.96046 0.39705 0.14518 0.0
H1374 H 0.97737 0.39202 0.13974 0.0
H1375 H 0.00743 0.44951 0.12519 0.0
H1376 H 0.95212 0.41753 0.13264 0.0
H1377 H 0.01487 0.48298 0.15567 0.0
H1378 H 0.01102 0.49013 0.13483 0.0
H1379 H 0.02347 0.47891 0.13555 0.0
H1380 H 0.93535 0.42827 0.14604 0.0
H1381 H 0.94404 0.45168 0.1444 0.0
H1382 H 0.94722 0.44291 0.1645 0.0
H1383 H 0.98848 0.49841 0.25332 0.0
H1384 H 0.97928 0.5299 0.20669 0.0
H1385 H 0.9763 0.52683 0.17504 0.0
H1386 H 0.97628 0.48616 0.13137 0.0
H1387 H 0.98353 0.45347 0.17818 0.0
H1388 H 0.98678 0.4567 0.20991 0.0
H1389 H 0.97392 0.58822 0.14198 0.0
H1390 H 0.96547 0.56599 0.14918 0.0
H1391 H 0.95464 0.5704 0.13125 0.0
C1392 C 0.46086 0.42824 0.30831 0.0
C1393 C 0.44836 0.42727 0.29354 0.0
C1394 C 0.46277 0.43175 0.26522 0.0
C1395 C 0.46058 0.44514 0.25793 0.0
C1396 C 0.47253 0.4567 0.24565 0.0
C1397 C 0.48699 0.45485 0.24067 0.0
C1398 C 0.4888 0.44089 0.24749 0.0
C1399 C 0.47647 0.42933 0.25951 0.0
C1400 C 0.46992 0.47115 0.23831 0.0
C1401 C 0.50408 0.43854 0.24254 0.0
C1402 C 0.57172 0.55029 0.29867 0.0
C1403 C 0.58121 0.56179 0.2828 0.0
C1404 C 0.56012 0.54447 0.25875 0.0
C1405 C 0.56383 0.53064 0.25791 0.0
C1406 C 0.55332 0.51539 0.24757 0.0
C1407 C 0.53883 0.51395 0.2379 0.0
C1408 C 0.53537 0.52805 0.23833 0.0
C1409 C 0.54616 0.54317 0.24865 0.0
C1410 C 0.55751 0.50069 0.24718 0.0
C1411 C 0.52002 0.52696 0.22819 0.0
C1412 C 0.57276 0.52764 0.12388 0.0
C1413 C 0.57391 0.51323 0.13018 0.0
C1414 C 0.56023 0.50004 0.13986 0.0
C1415 C 0.54503 0.50115 0.14313 0.0
C1416 C 0.54363 0.51536 0.13641 0.0
C1417 C 0.55757 0.52845 0.12694 0.0
C1418 C 0.5621 0.48503 0.14683 0.0
C1419 C 0.52752 0.51684 0.13946 0.0
C1420 C 0.42862 0.36873 0.13246 0.0
C1421 C 0.43505 0.38736 0.12593 0.0
C1422 C 0.46529 0.41117 0.12933 0.0
C1423 C 0.48181 0.41353 0.13337 0.0
C1424 C 0.49481 0.42918 0.1415 0.0
C1425 C 0.49126 0.44294 0.14525 0.0
C1426 C 0.4749 0.44102 0.14019 0.0
C1427 C 0.46204 0.42511 0.13233 0.0
C1428 C 0.51219 0.43086 0.14647 0.0
C1429 C 0.4709 0.45566 0.14338 0.0
C1430 C 0.50084 0.46827 0.2294 0.0
C1431 C 0.51331 0.48397 0.23773 0.0
C1432 C 0.52672 0.49735 0.22814 0.0
C1433 C 0.528 0.49496 0.2097 0.0
C1434 C 0.54159 0.50794 0.19973 0.0
C1435 C 0.54262 0.50556 0.18154 0.0
C1436 C 0.53001 0.49015 0.17258 0.0
C1437 C 0.53081 0.48771 0.15404 0.0
C1438 C 0.518 0.47229 0.14554 0.0
C1439 C 0.5044 0.45904 0.15509 0.0
C1440 C 0.50346 0.46117 0.17367 0.0
C1441 C 0.49006 0.44803 0.18375 0.0
C1442 C 0.48914 0.45033 0.20198 0.0
C1443 C 0.50166 0.46578 0.21088 0.0
C1444 C 0.51533 0.47917 0.20102 0.0
C1445 C 0.51627 0.47683 0.18241 0.0
C1446 C 0.61433 0.54979 0.1274 0.0
C1447 C 0.60221 0.54339 0.11092 0.0
O1448 O 0.45194 0.42116 0.2779 0.0
O1449 O 0.45281 0.39529 0.12265 0.0
O1450 O 0.58591 0.5411 0.11503 0.0
O1451 O 0.56938 0.55914 0.2692 0.0
H1452 H 0.45067 0.44086 0.29195 0.0
H1453 H 0.47457 0.43765 0.30469 0.0
H1454 H 0.45965 0.41517 0.31029 0.0
H1455 H 0.45801 0.4329 0.321 0.0
H1456 H 0.44958 0.44659 0.26192 0.0
H1457 H 0.47786 0.41877 0.26507 0.0
H1458 H 0.4802 0.48402 0.24388 0.0
H1459 H 0.45692 0.46944 0.24165 0.0
H1460 H 0.47125 0.47154 0.22363 0.0
H1461 H 0.50395 0.42742 0.24952 0.0
H1462 H 0.51655 0.45076 0.24584 0.0
H1463 H 0.50379 0.4361 0.22799 0.0
H1464 H 0.59111 0.55849 0.27785 0.0
H1465 H 0.58117 0.55274 0.30969 0.0
H1466 H 0.56531 0.53614 0.29487 0.0
H1467 H 0.56153 0.55319 0.30355 0.0
H1468 H 0.57478 0.53153 0.26537 0.0
H1469 H 0.54347 0.55395 0.24925 0.0
H1470 H 0.54678 0.48893 0.25348 0.0
H1471 H 0.56998 0.50434 0.25429 0.0
H1472 H 0.55839 0.49698 0.2332 0.0
H1473 H 0.51894 0.53895 0.23014 0.0
H1474 H 0.5077 0.5154 0.23254 0.0
H1475 H 0.52137 0.52509 0.21378 0.0
H1476 H 0.60078 0.53072 0.10595 0.0
H1477 H 0.58546 0.51223 0.1278 0.0
H1478 H 0.55674 0.53954 0.12196 0.0
H1479 H 0.56061 0.48442 0.16149 0.0
H1480 H 0.57495 0.4863 0.14359 0.0
H1481 H 0.55157 0.47242 0.14104 0.0
H1482 H 0.52798 0.52806 0.13237 0.0
H1483 H 0.5262 0.5186 0.1539 0.0
H1484 H 0.51567 0.50452 0.13494 0.0
H1485 H 0.43252 0.39439 0.13697 0.0
H1486 H 0.41433 0.362 0.13492 0.0
H1487 H 0.43546 0.36934 0.14513 0.0
H1488 H 0.4313 0.36085 0.1226 0.0
H1489 H 0.48427 0.40279 0.13069 0.0
H1490 H 0.44948 0.42358 0.12854 0.0
H1491 H 0.51499 0.43415 0.16087 0.0
H1492 H 0.52275 0.44177 0.13903 0.0
H1493 H 0.51257 0.41862 0.14347 0.0
H1494 H 0.4584 0.45288 0.1369 0.0
H1495 H 0.48165 0.46821 0.13831 0.0
H1496 H 0.47 0.45751 0.15789 0.0
H1497 H 0.51245 0.48589 0.2519 0.0
H1498 H 0.55161 0.5201 0.2059 0.0
H1499 H 0.55339 0.51601 0.17457 0.0
H1500 H 0.51866 0.47055 0.13131 0.0
H1501 H 0.48009 0.43582 0.17764 0.0
H1502 H 0.47847 0.43983 0.20902 0.0
H1503 H 0.6275 0.55204 0.12391 0.0
H1504 H 0.60909 0.53986 0.13796 0.0
H1505 H 0.61565 0.56224 0.13286 0.0
C1506 C 0.44872 0.01122 0.30469 0.0
C1507 C 0.43618 0.00867 0.28921 0.0
C1508 C 0.45155 0.00321 0.26483 0.0
C1509 C 0.4651 0.02069 0.26307 0.0
C1510 C 0.47953 0.02469 0.25233 0.0
C1511 C 0.4805 0.01096 0.24326 0.0
C1512 C 0.46669 0.99341 0.24468 0.0
C1513 C 0.45231 0.98982 0.25531 0.0
C1514 C 0.49389 0.04357 0.25086 0.0
C1515 C 0.46731 0.97841 0.23529 0.0
C1516 C 0.61044 0.03474 0.2518 0.0
C1517 C 0.59584 0.02002 0.26237 0.0
C1518 C 0.57045 0.02389 0.26225 0.0
C1519 C 0.55748 0.00752 0.25537 0.0
C1520 C 0.54262 0.00582 0.24655 0.0
C1521 C 0.54073 0.0208 0.24462 0.0
C1522 C 0.55337 0.03712 0.25232 0.0
C1523 C 0.56803 0.0384 0.26122 0.0
C1524 C 0.52914 0.98811 0.23893 0.0
C1525 C 0.55163 0.05329 0.2507 0.0
C1526 C 0.5741 0.02942 0.13243 0.0
C1527 C 0.56012 0.01269 0.13625 0.0
C1528 C 0.54503 0.0108 0.14441 0.0
C1529 C 0.54386 0.02594 0.14869 0.0
C1530 C 0.55755 0.04273 0.14402 0.0
C1531 C 0.57246 0.04422 0.13579 0.0
C1532 C 0.53043 0.99265 0.14873 0.0
C1533 C 0.55658 0.0591 0.14814 0.0
C1534 C 0.43961 0.99071 0.08913 0.0
C1535 C 0.43088 0.99534 0.10425 0.0
C1536 C 0.45599 0.01224 0.12458 0.0
C1537 C 0.45731 0.99777 0.13042 0.0
C1538 C 0.47125 1.00018 0.14145 0.0
C1539 C 0.48409 0.01737 0.14693 0.0
C1540 C 0.48263 0.03193 0.14145 0.0
C1541 C 0.46856 0.02915 0.13036 0.0
C1542 C 0.47239 0.98435 0.1471 0.0
C1543 C 0.49605 0.05042 0.14718 0.0
C1544 C 0.49634 0.01483 0.23305 0.0
C1545 C 0.51076 0.01637 0.24251 0.0
C1546 C 0.52599 0.01956 0.23382 0.0
C1547 C 0.52692 0.02118 0.21513 0.0
C1548 C 0.542 0.02424 0.20596 0.0
C1549 C 0.54265 0.02536 0.18754 0.0
C1550 C 0.52829 0.02356 0.17756 0.0
C1551 C 0.52868 0.02423 0.15879 0.0
C1552 C 0.51425 0.02255 0.14928 0.0
C1553 C 0.49925 0.02006 0.15802 0.0
C1554 C 0.49855 0.01922 0.17678 0.0
C1555 C 0.48363 0.01659 0.18599 0.0
C1556 C 0.48291 0.0153 0.20443 0.0
C1557 C 0.49708 0.01657 0.21436 0.0
C1558 C 0.51239 0.01961 0.20537 0.0
C1559 C 0.51311 0.02089 0.18657 0.0
C1560 C 0.61302 0.03443 0.14291 0.0
C1561 C 0.59787 0.02282 0.13012 0.0
O1562 O 0.43768 0.99861 0.27565 0.0
O1563 O 0.44307 0.01054 0.11325 0.0
O1564 O 0.5892 0.03171 0.1253 0.0
O1565 O 0.58541 0.02603 0.26985 0.0
H1566 H 0.43928 0.02169 0.28405 0.0
H1567 H 0.4625 0.01845 0.30034 0.0
H1568 H 0.44595 0.99829 0.30981 0.0
H1569 H 0.44729 0.01901 0.31568 0.0
H1570 H 0.46462 0.03128 0.27009 0.0
H1571 H 0.44176 0.97641 0.25663 0.0
H1572 H 0.50599 0.04531 0.2574 0.0
H1573 H 0.49039 0.0529 0.25721 0.0
H1574 H 0.49685 0.04696 0.23667 0.0
H1575 H 0.45592 0.96543 0.23843 0.0
H1576 H 0.47951 0.97843 0.23911 0.0
H1577 H 0.46752 0.98015 0.22069 0.0
H1578 H 0.58823 0.00908 0.25262 0.0
H1579 H 0.61813 0.04675 0.26023 0.0
H1580 H 0.60465 0.03819 0.24048 0.0
H1581 H 0.61936 0.03036 0.24635 0.0
H1582 H 0.55896 0.99608 0.25687 0.0
H1583 H 0.57799 0.05091 0.26685 0.0
H1584 H 0.51591 0.98474 0.24354 0.0
H1585 H 0.53181 0.97748 0.24276 0.0
H1586 H 0.52899 0.98865 0.2242 0.0
H1587 H 0.56259 0.06501 0.25743 0.0
H1588 H 0.53913 0.05085 0.25659 0.0
H1589 H 0.55125 0.05617 0.23644 0.0
H1590 H 0.58915 0.01071 0.13747 0.0
H1591 H 0.56088 0.00107 0.13278 0.0
H1592 H 0.58317 0.05704 0.13244 0.0
H1593 H 0.52891 0.99148 0.16337 0.0
H1594 H 0.53288 0.98214 0.14363 0.0
H1595 H 0.51789 0.99052 0.14295 0.0
H1596 H 0.56821 0.07117 0.14342 0.0
H1597 H 0.55553 0.06043 0.16272 0.0
H1598 H 0.54466 0.05799 0.1418 0.0
H1599 H 0.425 0.98429 0.11366 0.0
H1600 H 0.44592 0.00174 0.07975 0.0
H1601 H 0.42973 0.97875 0.08171 0.0
H1602 H 0.44976 0.98799 0.09443 0.0
H1603 H 0.44768 0.98453 0.12634 0.0
H1604 H 0.46744 0.04024 0.12592 0.0
H1605 H 0.47239 0.98378 0.16183 0.0
H1606 H 0.48488 0.98554 0.14252 0.0
H1607 H 0.46138 0.97182 0.14168 0.0
H1608 H 0.49275 0.06031 0.14228 0.0
H1609 H 0.50907 0.0536 0.14206 0.0
H1610 H 0.49712 0.05143 0.16191 0.0
H1611 H 0.51009 0.01495 0.25683 0.0
H1612 H 0.55345 0.02569 0.2129 0.0
H1613 H 0.55456 0.0276 0.18123 0.0
H1614 H 0.51457 0.02288 0.13487 0.0
H1615 H 0.47229 0.01541 0.17903 0.0
H1616 H 0.47107 0.01321 0.2108 0.0
H1617 H 0.62207 0.04726 0.13691 0.0
H1618 H 0.62043 0.02771 0.1465 0.0
H1619 H 0.60779 0.03701 0.15529 0.0
C1620 C 0.57206 0.97633 0.76272 0.0
C1621 C 0.56667 0.98198 0.74572 0.0
C1622 C 0.54887 0.99374 0.75878 0.0
C1623 C 0.54946 0.00928 0.76437 0.0
C1624 C 0.53594 0.00896 0.77437 0.0
C1625 C 0.52135 0.99262 0.77871 0.0
C1626 C 0.52043 0.9768 0.77277 0.0
C1627 C 0.53421 0.9775 0.76286 0.0
C1628 C 0.53732 0.02608 0.78048 0.0
C1629 C 0.50495 0.95917 0.77704 0.0
C1630 C 0.39756 0.97717 0.76741 0.0
C1631 C 0.40777 0.98164 0.75003 0.0
C1632 C 0.43796 0.99374 0.76159 0.0
C1633 C 0.43638 0.97764 0.76664 0.0
C1634 C 0.45005 0.97717 0.77582 0.0
C1635 C 0.46557 0.99308 0.78011 0.0
C1636 C 0.46732 0.00926 0.77482 0.0
C1637 C 0.4535 0.00934 0.76555 0.0
C1638 C 0.44785 0.95967 0.78108 0.0
C1639 C 0.4837 0.02645 0.77917 0.0
C1640 C 0.43802 0.98955 0.89432 0.0
C1641 C 0.43583 0.97363 0.88724 0.0
C1642 C 0.44952 0.97315 0.8783 0.0
C1643 C 0.46563 0.98888 0.87627 0.0
C1644 C 0.46802 0.00481 0.8838 0.0
C1645 C 0.45418 0.00489 0.89282 0.0
C1646 C 0.44667 0.95588 0.8707 0.0
C1647 C 0.48505 0.02182 0.88196 0.0
C1648 C 0.58146 0.97953 0.88056 0.0
C1649 C 0.57791 0.99038 0.8943 0.0
C1650 C 0.54747 0.98322 0.89149 0.0
C1651 C 0.5315 0.96818 0.88737 0.0
C1652 C 0.51792 0.9694 0.87889 0.0
C1653 C 0.52035 0.98614 0.8748 0.0
C1654 C 0.53616 0.00147 0.87981 0.0
C1655 C 0.54957 0.99985 0.88814 0.0
C1656 C 0.50114 0.9528 0.87397 0.0
C1657 C 0.53895 0.01953 0.87614 0.0
C1658 C 0.50714 0.99211 0.78962 0.0
C1659 C 0.4935 0.99285 0.78085 0.0
C1660 C 0.47988 0.99276 0.79032 0.0
C1661 C 0.47986 0.99206 0.8091 0.0
C1662 C 0.46657 0.99236 0.81906 0.0
C1663 C 0.46654 0.99145 0.8375 0.0
C1664 C 0.47974 0.99009 0.84672 0.0
C1665 C 0.47965 0.98887 0.86545 0.0
C1666 C 0.49302 0.98763 0.8742 0.0
C1667 C 0.50659 0.98759 0.86472 0.0
C1668 C 0.50689 0.98879 0.84597 0.0
C1669 C 0.52034 0.9888 0.83601 0.0
C1670 C 0.52053 0.99 0.81758 0.0
C1671 C 0.50717 0.99105 0.80836 0.0
C1672 C 0.49347 0.99105 0.81813 0.0
C1673 C 0.49337 0.98999 0.83695 0.0
C1674 C 0.39836 0.97612 0.88522 0.0
C1675 C 0.4074 0.97827 0.90331 0.0
O1676 O 0.56275 0.99512 0.74964 0.0
O1677 O 0.56044 0.98125 0.89895 0.0
O1678 O 0.42499 0.99086 0.90252 0.0
O1679 O 0.42493 0.9949 0.75304 0.0
H1680 H 0.55506 0.97049 0.73944 0.0
H1681 H 0.5612 0.97082 0.7723 0.0
H1682 H 0.58356 0.98774 0.76922 0.0
H1683 H 0.57546 0.96599 0.75956 0.0
H1684 H 0.56076 0.02173 0.76108 0.0
H1685 H 0.5334 0.96533 0.75844 0.0
H1686 H 0.52608 0.02701 0.77504 0.0
H1687 H 0.54965 0.03769 0.77623 0.0
H1688 H 0.53668 0.02647 0.79521 0.0
H1689 H 0.50589 0.94806 0.77094 0.0
H1690 H 0.49269 0.95849 0.77224 0.0
H1691 H 0.50402 0.95759 0.79167 0.0
H1692 H 0.40763 0.96972 0.74454 0.0
H1693 H 0.38376 0.96674 0.76494 0.0
H1694 H 0.39776 0.98901 0.77318 0.0
H1695 H 0.40337 0.97226 0.77732 0.0
H1696 H 0.42455 0.96539 0.76357 0.0
H1697 H 0.45466 0.02168 0.76155 0.0
H1698 H 0.45901 0.95835 0.7762 0.0
H1699 H 0.43548 0.94841 0.77575 0.0
H1700 H 0.44788 0.95895 0.7958 0.0
H1701 H 0.48276 0.03797 0.77473 0.0
H1702 H 0.49505 0.02665 0.77266 0.0
H1703 H 0.48629 0.02774 0.79374 0.0
H1704 H 0.40603 0.96548 0.90722 0.0
H1705 H 0.4235 0.96157 0.88847 0.0
H1706 H 0.4558 0.01707 0.89844 0.0
H1707 H 0.44673 0.95629 0.85596 0.0
H1708 H 0.43406 0.94456 0.87486 0.0
H1709 H 0.45751 0.95369 0.87497 0.0
H1710 H 0.48474 0.03315 0.88838 0.0
H1711 H 0.48802 0.02459 0.86766 0.0
H1712 H 0.49587 0.02058 0.88807 0.0
H1713 H 0.58121 0.00298 0.88791 0.0
H1714 H 0.59551 0.98649 0.87699 0.0
H1715 H 0.57355 0.97759 0.8683 0.0
H1716 H 0.57789 0.9664 0.88575 0.0
H1717 H 0.52989 0.95542 0.89035 0.0
H1718 H 0.56158 0.01159 0.89214 0.0
H1719 H 0.49884 0.95214 0.85937 0.0
H1720 H 0.48996 0.95299 0.88047 0.0
H1721 H 0.50134 0.94078 0.87797 0.0
H1722 H 0.55151 0.03016 0.88188 0.0
H1723 H 0.52805 0.0209 0.8817 0.0
H1724 H 0.53892 0.02128 0.86156 0.0
H1725 H 0.49348 0.99347 0.76646 0.0
H1726 H 0.45603 0.99332 0.81271 0.0
H1727 H 0.45597 0.99175 0.84443 0.0
H1728 H 0.49286 0.98668 0.88857 0.0
H1729 H 0.53092 0.9879 0.84235 0.0
H1730 H 0.53124 0.98999 0.81065 0.0
H1731 H 0.39985 0.98886 0.88098 0.0
H1732 H 0.38421 0.96629 0.88598 0.0
H1733 H 0.40414 0.97143 0.87493 0.0
C1734 C 0.01754 0.56877 0.71509 0.0
C1735 C 0.00783 0.57154 0.73049 0.0
C1736 C 0.01779 0.56533 0.75818 0.0
C1737 C 0.00194 0.55244 0.76524 0.0
C1738 C 0.00159 0.54024 0.77729 0.0
C1739 C 0.01744 0.54103 0.78241 0.0
C1740 C 0.03351 0.55452 0.77592 0.0
C1741 C 0.03347 0.56666 0.76401 0.0
C1742 C 0.98427 0.52631 0.78433 0.0
C1743 C 0.05064 0.55581 0.78122 0.0
C1744 C 0.01424 0.45096 0.72361 0.0
C1745 C 0.01166 0.43844 0.73877 0.0
C1746 C 0.0047 0.45318 0.76293 0.0
C1747 C 0.02178 0.46722 0.76601 0.0
C1748 C 0.02485 0.48156 0.77704 0.0
C1749 C 0.01056 0.48192 0.78507 0.0
C1750 C 0.99342 0.46758 0.78241 0.0
C1751 C 0.99076 0.45331 0.77151 0.0
C1752 C 0.04332 0.49654 0.77983 0.0
C1753 C 0.97788 0.46756 0.7907 0.0
C1754 C 0.01242 0.46168 0.90342 0.0
C1755 C 0.02919 0.47381 0.89776 0.0
C1756 C 0.03201 0.48786 0.88694 0.0
C1757 C 0.01764 0.48975 0.88159 0.0
C1758 C 0.00062 0.47748 0.88711 0.0
C1759 C 0.99816 0.46358 0.89792 0.0
C1760 C 0.05032 0.50071 0.88121 0.0
C1761 C 0.98499 0.47909 0.88161 0.0
C1762 C 0.0425 0.62557 0.88177 0.0
C1763 C 0.03035 0.60868 0.8915 0.0
C1764 C 0.03558 0.58384 0.89142 0.0
C1765 C 0.04925 0.58047 0.88845 0.0
C1766 C 0.04595 0.56405 0.88177 0.0
C1767 C 0.02848 0.55065 0.87831 0.0
C1768 C 0.01452 0.55357 0.88257 0.0
C1769 C 0.01821 0.57016 0.88912 0.0
C1770 C 0.06112 0.56125 0.8777 0.0
C1771 C 0.99574 0.53935 0.87961 0.0
C1772 C 0.01707 0.52718 0.79378 0.0
C1773 C 0.01429 0.51167 0.78539 0.0
C1774 C 0.01345 0.49786 0.79514 0.0
C1775 C 0.01533 0.49943 0.81387 0.0
C1776 C 0.01439 0.48575 0.82411 0.0
C1777 C 0.016 0.48736 0.84257 0.0
C1778 C 0.01881 0.50281 0.85146 0.0
C1779 C 0.02029 0.50453 0.87022 0.0
C1780 C 0.02345 0.52021 0.87861 0.0
C1781 C 0.02494 0.53424 0.86874 0.0
C1782 C 0.0231 0.53263 0.85 0.0
C1783 C 0.02417 0.54637 0.83971 0.0
C1784 C 0.02211 0.54459 0.82131 0.0
C1785 C 0.01916 0.5291 0.81247 0.0
C1786 C 0.01821 0.51514 0.82255 0.0
C1787 C 0.02008 0.51687 0.84135 0.0
C1788 C 0.99127 0.44456 0.93822 0.0
C1789 C 0.99545 0.4362 0.92229 0.0
O1790 O 0.0183 0.57659 0.74572 0.0
O1791 O 0.03963 0.60043 0.89632 0.0
O1792 O 0.01065 0.44856 0.91421 0.0
O1793 O 0.00098 0.43942 0.75167 0.0
H1794 H 0.99569 0.5587 0.73228 0.0
H1795 H 0.02003 0.55786 0.71815 0.0
H1796 H 0.03033 0.58081 0.71292 0.0
H1797 H 0.00952 0.56522 0.70265 0.0
H1798 H 0.98983 0.5519 0.76134 0.0
H1799 H 0.04566 0.57686 0.75869 0.0
H1800 H 0.98155 0.51316 0.77946 0.0
H1801 H 0.97327 0.52825 0.78012 0.0
H1802 H 0.98485 0.52636 0.79908 0.0
H1803 H 0.06201 0.56706 0.77499 0.0
H1804 H 0.05048 0.54348 0.77728 0.0
H1805 H 0.05239 0.55734 0.79589 0.0
H1806 H 0.02457 0.44196 0.74483 0.0
H1807 H 0.02247 0.44987 0.71311 0.0
H1808 H 0.02093 0.4648 0.72858 0.0
H1809 H 0.00141 0.4478 0.71764 0.0
H1810 H 0.03277 0.46721 0.75975 0.0
H1811 H 0.97765 0.44236 0.76918 0.0
H1812 H 0.04472 0.50848 0.77345 0.0
H1813 H 0.05315 0.49353 0.77414 0.0
H1814 H 0.0462 0.49963 0.79425 0.0
H1815 H 0.96535 0.45549 0.78716 0.0
H1816 H 0.97713 0.47919 0.78629 0.0
H1817 H 0.97948 0.4686 0.8054 0.0
H1818 H 0.98437 0.43099 0.91254 0.0
H1819 H 0.04012 0.47229 0.90198 0.0
H1820 H 0.98503 0.4544 0.90201 0.0
H1821 H 0.05083 0.50095 0.86647 0.0
H1822 H 0.06011 0.49735 0.88635 0.0
H1823 H 0.05398 0.51415 0.88604 0.0
H1824 H 0.97258 0.46856 0.88713 0.0
H1825 H 0.98374 0.47848 0.86689 0.0
H1826 H 0.98689 0.49204 0.88617 0.0
H1827 H 0.01966 0.60042 0.8818 0.0
H1828 H 0.03543 0.63263 0.87819 0.0
H1829 H 0.04706 0.62226 0.86933 0.0
H1830 H 0.05417 0.63442 0.8901 0.0
H1831 H 0.06259 0.591 0.89066 0.0
H1832 H 0.00754 0.57246 0.89225 0.0
H1833 H 0.06127 0.55871 0.86321 0.0
H1834 H 0.05953 0.5495 0.88468 0.0
H1835 H 0.0739 0.57277 0.88174 0.0
H1836 H 0.98639 0.54309 0.8852 0.0
H1837 H 0.99344 0.52698 0.88577 0.0
H1838 H 0.99301 0.53665 0.86513 0.0
H1839 H 0.01273 0.5103 0.77103 0.0
H1840 H 0.0123 0.47359 0.81798 0.0
H1841 H 0.01506 0.47636 0.84979 0.0
H1842 H 0.02458 0.52145 0.89299 0.0
H1843 H 0.0265 0.55864 0.84574 0.0
H1844 H 0.02292 0.55554 0.8141 0.0
H1845 H 0.00231 0.45026 0.94802 0.0
H1846 H 0.97928 0.43455 0.94486 0.0
H1847 H 0.98892 0.45523 0.93385 0.0
C1848 C 0.53746 0.57838 0.71479 0.0
C1849 C 0.55027 0.58811 0.73029 0.0
C1850 C 0.5363 0.56686 0.75427 0.0
C1851 C 0.52224 0.56988 0.757 0.0
C1852 C 0.50864 0.55932 0.76848 0.0
C1853 C 0.50909 0.5455 0.77742 0.0
C1854 C 0.52341 0.54269 0.77503 0.0
C1855 C 0.53686 0.55348 0.76355 0.0
C1856 C 0.49363 0.56277 0.7709 0.0
C1857 C 0.52434 0.52808 0.78437 0.0
C1858 C 0.38752 0.43409 0.76205 0.0
C1859 C 0.40142 0.43649 0.7485 0.0
C1860 C 0.42869 0.45782 0.7645 0.0
C1861 C 0.44294 0.45918 0.77406 0.0
C1862 C 0.45519 0.47502 0.78242 0.0
C1863 C 0.4531 0.48994 0.78117 0.0
C1864 C 0.43882 0.48877 0.77134 0.0
C1865 C 0.42673 0.4727 0.76303 0.0
C1866 C 0.47035 0.47578 0.79264 0.0
C1867 C 0.4363 0.50448 0.76976 0.0
C1868 C 0.41997 0.48327 0.89545 0.0
C1869 C 0.43225 0.47824 0.89074 0.0
C1870 C 0.44704 0.48943 0.88089 0.0
C1871 C 0.44945 0.50588 0.87552 0.0
C1872 C 0.43734 0.51116 0.88075 0.0
C1873 C 0.42286 0.49984 0.89086 0.0
C1874 C 0.46004 0.48366 0.87617 0.0
C1875 C 0.4396 0.52867 0.87545 0.0
C1876 C 0.56878 0.62212 0.89057 0.0
C1877 C 0.56143 0.60932 0.90596 0.0
C1878 C 0.54069 0.5808 0.89154 0.0
C1879 C 0.53815 0.56419 0.88705 0.0
C1880 C 0.52293 0.5516 0.87808 0.0
C1881 C 0.50992 0.55582 0.8734 0.0
C1882 C 0.51226 0.57255 0.87804 0.0
C1883 C 0.52763 0.58491 0.88709 0.0
C1884 C 0.52081 0.53383 0.87347 0.0
C1885 C 0.49859 0.5774 0.87323 0.0
C1886 C 0.49423 0.53354 0.78867 0.0
C1887 C 0.48032 0.5187 0.78045 0.0
C1888 C 0.46601 0.50667 0.79019 0.0
C1889 C 0.46517 0.50977 0.80856 0.0
C1890 C 0.45056 0.4984 0.81857 0.0
C1891 C 0.45014 0.50117 0.83679 0.0
C1892 C 0.46451 0.51514 0.84577 0.0
C1893 C 0.46461 0.51757 0.86443 0.0
C1894 C 0.4794 0.53121 0.87297 0.0
C1895 C 0.49407 0.54276 0.86334 0.0
C1896 C 0.49395 0.54099 0.84462 0.0
C1897 C 0.50825 0.55278 0.83448 0.0
C1898 C 0.50823 0.5506 0.81611 0.0
C1899 C 0.49407 0.53635 0.80723 0.0
C1900 C 0.47943 0.52444 0.81717 0.0
C1901 C 0.47924 0.52693 0.83585 0.0
C1902 C 0.37743 0.45205 0.89248 0.0
C1903 C 0.39441 0.45477 0.90102 0.0
O1904 O 0.54945 0.57627 0.74279 0.0
O1905 O 0.55596 0.59232 0.89995 0.0
O1906 O 0.4054 0.47255 0.90465 0.0
O1907 O 0.41731 0.44187 0.75708 0.0
H1908 H 0.54697 0.5976 0.73666 0.0
H1909 H 0.52379 0.57134 0.7195 0.0
H1910 H 0.54038 0.56862 0.70847 0.0
H1911 H 0.5384 0.58786 0.70464 0.0
H1912 H 0.52165 0.58031 0.75015 0.0
H1913 H 0.54779 0.5513 0.76148 0.0
H1914 H 0.48129 0.55116 0.76606 0.0
H1915 H 0.49554 0.5745 0.76363 0.0
H1916 H 0.49209 0.56474 0.78525 0.0
H1917 H 0.53651 0.52781 0.78134 0.0
H1918 H 0.51292 0.51523 0.78029 0.0
H1919 H 0.52368 0.52966 0.79897 0.0
H1920 H 0.40292 0.44642 0.73861 0.0
H1921 H 0.37473 0.42963 0.75522 0.0
H1922 H 0.39129 0.44669 0.76915 0.0
H1923 H 0.38595 0.42422 0.77202 0.0
H1924 H 0.44436 0.44765 0.77504 0.0
H1925 H 0.41585 0.4719 0.75552 0.0
H1926 H 0.48289 0.48665 0.78776 0.0
H1927 H 0.47065 0.4633 0.79145 0.0
H1928 H 0.46943 0.47853 0.80692 0.0
H1929 H 0.42424 0.50134 0.76211 0.0
H1930 H 0.44774 0.51523 0.76307 0.0
H1931 H 0.4356 0.50945 0.78322 0.0
H1932 H 0.40038 0.44977 0.8912 0.0
H1933 H 0.43039 0.46568 0.89494 0.0
H1934 H 0.41344 0.50369 0.89485 0.0
H1935 H 0.45973 0.48144 0.86158 0.0
H1936 H 0.45722 0.47133 0.88283 0.0
H1937 H 0.4735 0.49413 0.87996 0.0
H1938 H 0.42846 0.53036 0.87963 0.0
H1939 H 0.4409 0.53 0.86081 0.0
H1940 H 0.45181 0.53944 0.88163 0.0
H1941 H 0.55025 0.61 0.91187 0.0
H1942 H 0.57336 0.63577 0.89544 0.0
H1943 H 0.55853 0.61877 0.88019 0.0
H1944 H 0.5799 0.62153 0.88439 0.0
H1945 H 0.54826 0.56113 0.89057 0.0
H1946 H 0.52936 0.59771 0.89044 0.0
H1947 H 0.52011 0.53192 0.8588 0.0
H1948 H 0.50836 0.52328 0.87889 0.0
H1949 H 0.53178 0.53234 0.87875 0.0
H1950 H 0.50239 0.59099 0.87765 0.0
H1951 H 0.48598 0.56809 0.8794 0.0
H1952 H 0.49641 0.57622 0.85859 0.0
H1953 H 0.48087 0.51623 0.76635 0.0
H1954 H 0.43926 0.48725 0.81241 0.0
H1955 H 0.43853 0.49202 0.84379 0.0
H1956 H 0.4796 0.53269 0.88733 0.0
H1957 H 0.51963 0.56384 0.84064 0.0
H1958 H 0.5196 0.56006 0.80899 0.0
H1959 H 0.36839 0.43786 0.8895 0.0
H1960 H 0.38035 0.45924 0.87981 0.0
H1961 H 0.37084 0.45706 0.90142 0.0
C1962 C 0.64165 0.76095 0.63582 0.0
C1963 C 0.64482 0.75222 0.61952 0.0
C1964 C 0.65021 0.77448 0.59701 0.0
C1965 C 0.63284 0.77084 0.59505 0.0
C1966 C 0.62885 0.78174 0.58493 0.0
C1967 C 0.64246 0.79652 0.57659 0.0
C1968 C 0.65989 0.79997 0.5782 0.0
C1969 C 0.66349 0.78882 0.5883 0.0
C1970 C 0.6101 0.77757 0.58324 0.0
C1971 C 0.67474 0.81559 0.56946 0.0
C1972 C 0.63577 0.88105 0.64705 0.0
C1973 C 0.64734 0.89081 0.63135 0.0
C1974 C 0.63702 0.87456 0.60335 0.0
C1975 C 0.65257 0.87637 0.5965 0.0
C1976 C 0.65221 0.86382 0.58443 0.0
C1977 C 0.63596 0.84914 0.57918 0.0
C1978 C 0.62022 0.84768 0.58555 0.0
C1979 C 0.62097 0.8606 0.59739 0.0
C1980 C 0.66923 0.86604 0.57758 0.0
C1981 C 0.60267 0.83222 0.58027 0.0
C1982 C 0.61651 0.86865 0.46743 0.0
C1983 C 0.63367 0.87236 0.47105 0.0
C1984 C 0.63683 0.85976 0.47888 0.0
C1985 C 0.62252 0.84321 0.48326 0.0
C1986 C 0.60527 0.83919 0.47886 0.0
C1987 C 0.60252 0.85194 0.47079 0.0
C1988 C 0.65542 0.86425 0.48277 0.0
C1989 C 0.58973 0.82159 0.48309 0.0
C1990 C 0.61323 0.72128 0.46326 0.0
C1991 C 0.61718 0.73325 0.44728 0.0
C1992 C 0.62925 0.7629 0.46095 0.0
C1993 C 0.64458 0.77896 0.46396 0.0
C1994 C 0.6445 0.79263 0.47383 0.0
C1995 C 0.62862 0.79014 0.48087 0.0
C1996 C 0.61297 0.77402 0.47771 0.0
C1997 C 0.61342 0.76054 0.4678 0.0
C1998 C 0.66143 0.80967 0.47693 0.0
C1999 C 0.5958 0.77097 0.48499 0.0
C2000 C 0.63862 0.80876 0.56671 0.0
C2001 C 0.63833 0.82235 0.57636 0.0
C2002 C 0.63553 0.83484 0.56793 0.0
C2003 C 0.63289 0.83377 0.54927 0.0
C2004 C 0.63017 0.84616 0.54032 0.0
C2005 C 0.6276 0.84499 0.52196 0.0
C2006 C 0.62788 0.83153 0.5118 0.0
C2007 C 0.62552 0.83038 0.49309 0.0
C2008 C 0.62586 0.8168 0.48343 0.0
C2009 C 0.62845 0.80422 0.49194 0.0
C2010 C 0.63085 0.80516 0.51063 0.0
C2011 C 0.63352 0.79274 0.5196 0.0
C2012 C 0.63597 0.79383 0.53797 0.0
C2013 C 0.63588 0.8074 0.54807 0.0
C2014 C 0.63307 0.81999 0.53933 0.0
C2015 C 0.63059 0.81889 0.52057 0.0
C2016 C 0.60914 0.90399 0.47239 0.0
C2017 C 0.62199 0.89868 0.46497 0.0
O2018 O 0.65487 0.76476 0.60721 0.0
O2019 O 0.63046 0.75016 0.45157 0.0
O2020 O 0.61299 0.88085 0.46072 0.0
O2021 O 0.63721 0.88597 0.61588 0.0
H2022 H 0.63208 0.74247 0.61328 0.0
H2023 H 0.6342 0.76753 0.63202 0.0
H2024 H 0.6543 0.77094 0.64202 0.0
H2025 H 0.63392 0.75092 0.64581 0.0
H2026 H 0.62234 0.75962 0.60144 0.0
H2027 H 0.67682 0.79145 0.58976 0.0
H2028 H 0.60877 0.7884 0.58945 0.0
H2029 H 0.60087 0.76507 0.5897 0.0
H2030 H 0.60633 0.77663 0.56898 0.0
H2031 H 0.6876 0.81661 0.57222 0.0
H2032 H 0.67525 0.82788 0.57424 0.0
H2033 H 0.67245 0.81457 0.55485 0.0
H2034 H 0.65733 0.88659 0.63067 0.0
H2035 H 0.64346 0.88552 0.65971 0.0
H2036 H 0.6307 0.86671 0.64527 0.0
H2037 H 0.62438 0.88315 0.64796 0.0
H2038 H 0.66498 0.88754 0.60068 0.0
H2039 H 0.60903 0.85948 0.6026 0.0
H2040 H 0.66853 0.86436 0.56288 0.0
H2041 H 0.67153 0.85574 0.5832 0.0
H2042 H 0.68055 0.87912 0.58125 0.0
H2043 H 0.59167 0.83274 0.58681 0.0
H2044 H 0.60224 0.81978 0.58383 0.0
H2045 H 0.60076 0.8319 0.56564 0.0
H2046 H 0.63185 0.90167 0.47577 0.0
H2047 H 0.64459 0.88505 0.46775 0.0
H2048 H 0.58936 0.84912 0.46762 0.0
H2049 H 0.65773 0.86529 0.49738 0.0
H2050 H 0.66511 0.87687 0.47683 0.0
H2051 H 0.65765 0.85361 0.47759 0.0
H2052 H 0.57711 0.82076 0.47942 0.0
H2053 H 0.58974 0.81913 0.49753 0.0
H2054 H 0.59067 0.81101 0.4758 0.0
H2055 H 0.60513 0.73351 0.44334 0.0
H2056 H 0.60282 0.70768 0.45968 0.0
H2057 H 0.60859 0.72605 0.47458 0.0
H2058 H 0.62515 0.72103 0.46767 0.0
H2059 H 0.65672 0.78071 0.45863 0.0
H2060 H 0.60138 0.74825 0.46565 0.0
H2061 H 0.66429 0.81205 0.49143 0.0
H2062 H 0.66013 0.82076 0.47182 0.0
H2063 H 0.67265 0.80963 0.47037 0.0
H2064 H 0.58468 0.75787 0.48102 0.0
H2065 H 0.59305 0.78128 0.48022 0.0
H2066 H 0.59666 0.77203 0.49973 0.0
H2067 H 0.64052 0.82334 0.59065 0.0
H2068 H 0.62996 0.85688 0.54741 0.0
H2069 H 0.62546 0.85485 0.51583 0.0
H2070 H 0.62404 0.816 0.4691 0.0
H2071 H 0.63377 0.78203 0.51253 0.0
H2072 H 0.63798 0.7839 0.54416 0.0
H2073 H 0.59842 0.90092 0.46264 0.0
H2074 H 0.61604 0.91829 0.47573 0.0
H2075 H 0.60325 0.89667 0.48471 0.0
C2076 C 0.09123 0.72376 0.5954 0.0
C2077 C 0.094 0.73701 0.6104 0.0
C2078 C 0.11567 0.7647 0.59651 0.0
C2079 C 0.11735 0.77935 0.58777 0.0
C2080 C 0.133 0.79122 0.57964 0.0
C2081 C 0.14743 0.78837 0.58035 0.0
C2082 C 0.14599 0.77375 0.58948 0.0
C2083 C 0.13012 0.76205 0.59754 0.0
C2084 C 0.13405 0.8067 0.57008 0.0
C2085 C 0.16116 0.7704 0.59049 0.0
C2086 C 0.26453 0.9078 0.63159 0.0
C2087 C 0.2542 0.88961 0.62403 0.0
C2088 C 0.22779 0.87216 0.60557 0.0
C2089 C 0.23074 0.85804 0.60228 0.0
C2090 C 0.2191 0.84363 0.59147 0.0
C2091 C 0.20434 0.84342 0.58369 0.0
C2092 C 0.20147 0.85772 0.58684 0.0
C2093 C 0.21322 0.87186 0.5978 0.0
C2094 C 0.22248 0.82856 0.58842 0.0
C2095 C 0.18592 0.85799 0.57873 0.0
C2096 C 0.24135 0.86363 0.46932 0.0
C2097 C 0.24258 0.84927 0.47564 0.0
C2098 C 0.22883 0.83592 0.48512 0.0
C2099 C 0.21355 0.83691 0.48831 0.0
C2100 C 0.21225 0.85128 0.48192 0.0
C2101 C 0.2262 0.86447 0.47256 0.0
C2102 C 0.23063 0.82077 0.49181 0.0
C2103 C 0.19611 0.85271 0.48503 0.0
C2104 C 0.09608 0.7072 0.47073 0.0
C2105 C 0.10238 0.72577 0.46411 0.0
C2106 C 0.13271 0.74905 0.46835 0.0
C2107 C 0.14882 0.75058 0.47272 0.0
C2108 C 0.16184 0.76555 0.48181 0.0
C2109 C 0.15875 0.7795 0.48621 0.0
C2110 C 0.14286 0.77849 0.48078 0.0
C2111 C 0.12995 0.76321 0.47197 0.0
C2112 C 0.17872 0.76628 0.48714 0.0
C2113 C 0.13939 0.7934 0.4846 0.0
C2114 C 0.16384 0.80059 0.57121 0.0
C2115 C 0.17671 0.81506 0.58088 0.0
C2116 C 0.19162 0.82808 0.57263 0.0
C2117 C 0.19377 0.82675 0.55414 0.0
C2118 C 0.20828 0.83989 0.54527 0.0
C2119 C 0.21005 0.83863 0.527 0.0
C2120 C 0.19739 0.82416 0.51691 0.0
C2121 C 0.1989 0.82289 0.4983 0.0
C2122 C 0.18614 0.80825 0.4887 0.0
C2123 C 0.17178 0.79474 0.49717 0.0
C2124 C 0.16996 0.79585 0.51575 0.0
C2125 C 0.15561 0.78256 0.52469 0.0
C2126 C 0.15361 0.78405 0.54285 0.0
C2127 C 0.16604 0.79873 0.55285 0.0
C2128 C 0.18093 0.81198 0.54424 0.0
C2129 C 0.18279 0.81063 0.52563 0.0
C2130 C 0.28344 0.88594 0.47049 0.0
C2131 C 0.27017 0.87872 0.45499 0.0
O2132 O 0.09986 0.75358 0.60358 0.0
O2133 O 0.12012 0.73376 0.46072 0.0
O2134 O 0.25434 0.87698 0.46021 0.0
O2135 O 0.23856 0.88627 0.6161 0.0
H2136 H 0.10371 0.73757 0.62028 0.0
H2137 H 0.10372 0.72746 0.58869 0.0
H2138 H 0.08171 0.72326 0.58532 0.0
H2139 H 0.08621 0.71042 0.60085 0.0
H2140 H 0.10617 0.78133 0.58714 0.0
H2141 H 0.12911 0.7509 0.60449 0.0
H2142 H 0.14526 0.81911 0.57542 0.0
H2143 H 0.12192 0.80748 0.5714 0.0
H2144 H 0.13636 0.80566 0.55573 0.0
H2145 H 0.15797 0.7584 0.598 0.0
H2146 H 0.17258 0.78185 0.59701 0.0
H2147 H 0.16508 0.76894 0.57685 0.0
H2148 H 0.25277 0.87897 0.63296 0.0
H2149 H 0.26514 0.90608 0.64633 0.0
H2150 H 0.25526 0.91311 0.63274 0.0
H2151 H 0.28708 0.91953 0.61577 0.0
H2152 H 0.24199 0.85812 0.6082 0.0
H2153 H 0.21108 0.88282 0.60038 0.0
H2154 H 0.21101 0.8161 0.59268 0.0
H2155 H 0.2343 0.83047 0.59576 0.0
H2156 H 0.22422 0.8271 0.57401 0.0
H2157 H 0.18637 0.87072 0.58122 0.0
H2158 H 0.17372 0.84734 0.58443 0.0
H2159 H 0.18531 0.85549 0.56415 0.0
H2160 H 0.26824 0.86571 0.45055 0.0
H2161 H 0.2542 0.84837 0.47335 0.0
H2162 H 0.22535 0.87557 0.46766 0.0
H2163 H 0.22898 0.81991 0.50645 0.0
H2164 H 0.2435 0.8221 0.48862 0.0
H2165 H 0.22013 0.80826 0.4858 0.0
H2166 H 0.19697 0.86452 0.47885 0.0
H2167 H 0.19418 0.85334 0.49954 0.0
H2168 H 0.18441 0.84082 0.47951 0.0
H2169 H 0.09982 0.73286 0.47506 0.0
H2170 H 0.08183 0.70046 0.4734 0.0
H2171 H 0.10311 0.70791 0.48329 0.0
H2172 H 0.09864 0.69928 0.46079 0.0
H2173 H 0.15092 0.73969 0.46955 0.0
H2174 H 0.11773 0.76234 0.46793 0.0
H2175 H 0.18087 0.76852 0.50174 0.0
H2176 H 0.18984 0.7775 0.48061 0.0
H2177 H 0.17879 0.75402 0.4834 0.0
H2178 H 0.12745 0.79154 0.47757 0.0
H2179 H 0.15073 0.80607 0.48059 0.0
H2180 H 0.13769 0.79434 0.4991 0.0
H2181 H 0.17488 0.81643 0.59495 0.0
H2182 H 0.21838 0.85137 0.55233 0.0
H2183 H 0.22144 0.84919 0.52088 0.0
H2184 H 0.18737 0.80739 0.47442 0.0
H2185 H 0.14563 0.77094 0.51773 0.0
H2186 H 0.14219 0.77351 0.54896 0.0
H2187 H 0.28543 0.89885 0.47533 0.0
H2188 H 0.29619 0.88758 0.46621 0.0
H2189 H 0.27876 0.87674 0.48172 0.0
C2190 C 0.12216 0.35453 0.63704 0.0
C2191 C 0.10994 0.35237 0.62139 0.0
C2192 C 0.12682 0.34962 0.59671 0.0
C2193 C 0.14008 0.36737 0.59646 0.0
C2194 C 0.15498 0.37268 0.58602 0.0
C2195 C 0.15666 0.36003 0.57565 0.0
C2196 C 0.14313 0.34225 0.57552 0.0
C2197 C 0.12832 0.33733 0.58595 0.0
C2198 C 0.16906 0.39179 0.58624 0.0
C2199 C 0.14448 0.32838 0.56467 0.0
C2200 C 0.24401 0.367 0.64477 0.0
C2201 C 0.24554 0.35685 0.62879 0.0
C2202 C 0.24037 0.36805 0.60156 0.0
C2203 C 0.22754 0.35261 0.59299 0.0
C2204 C 0.21558 0.35304 0.58092 0.0
C2205 C 0.2165 0.36927 0.57738 0.0
C2206 C 0.22997 0.38498 0.58538 0.0
C2207 C 0.24192 0.38417 0.59722 0.0
C2208 C 0.20166 0.3361 0.57229 0.0
C2209 C 0.23135 0.4025 0.5819 0.0
C2210 C 0.255 0.3947 0.46396 0.0
C2211 C 0.24198 0.37716 0.46646 0.0
C2212 C 0.22671 0.37316 0.47574 0.0
C2213 C 0.22441 0.38698 0.48259 0.0
C2214 C 0.23728 0.40465 0.47961 0.0
C2215 C 0.25234 0.40826 0.47016 0.0
C2216 C 0.213 0.35417 0.47821 0.0
C2217 C 0.23516 0.4197 0.48654 0.0
C2218 C 0.11022 0.39182 0.46484 0.0
C2219 C 0.11812 0.38769 0.44864 0.0
C2220 C 0.13625 0.37642 0.46175 0.0
C2221 C 0.13739 0.36127 0.46418 0.0
C2222 C 0.15136 0.36185 0.4738 0.0
C2223 C 0.1645 0.37805 0.48124 0.0
C2224 C 0.16359 0.3935 0.47868 0.0
C2225 C 0.1495 0.39256 0.46894 0.0
C2226 C 0.15199 0.34514 0.47618 0.0
C2227 C 0.17744 0.41098 0.48642 0.0
C2228 C 0.17298 0.36516 0.56573 0.0
C2229 C 0.187 0.36567 0.57502 0.0
C2230 C 0.20253 0.36957 0.5665 0.0
C2231 C 0.20422 0.3731 0.54813 0.0
C2232 C 0.21956 0.37686 0.53907 0.0
C2233 C 0.22104 0.38022 0.52094 0.0
C2234 C 0.20719 0.3798 0.51116 0.0
C2235 C 0.20846 0.38297 0.49268 0.0
C2236 C 0.19439 0.38237 0.48338 0.0
C2237 C 0.179 0.37873 0.49201 0.0
C2238 C 0.17749 0.3756 0.51047 0.0
C2239 C 0.1622 0.37197 0.51957 0.0
C2240 C 0.16073 0.36867 0.53768 0.0
C2241 C 0.17448 0.36885 0.5474 0.0
C2242 C 0.19013 0.37273 0.53855 0.0
C2243 C 0.19162 0.37608 0.52005 0.0
C2244 C 0.29687 0.40256 0.46668 0.0
C2245 C 0.27968 0.39051 0.45671 0.0
O2246 O 0.11252 0.34366 0.60719 0.0
O2247 O 0.12212 0.3747 0.45256 0.0
O2248 O 0.27006 0.39902 0.45534 0.0
O2249 O 0.25122 0.36767 0.6142 0.0
H2250 H 0.11253 0.36553 0.61714 0.0
H2251 H 0.13605 0.3627 0.6333 0.0
H2252 H 0.11995 0.34149 0.64121 0.0
H2253 H 0.1198 0.36116 0.64852 0.0
H2254 H 0.139 0.37712 0.60445 0.0
H2255 H 0.11798 0.32371 0.5861 0.0
H2256 H 0.18119 0.39321 0.59238 0.0
H2257 H 0.16519 0.40025 0.59381 0.0
H2258 H 0.17215 0.39655 0.57242 0.0
H2259 H 0.13301 0.31505 0.56634 0.0
H2260 H 0.15652 0.32813 0.56861 0.0
H2261 H 0.14555 0.33164 0.55037 0.0
H2262 H 0.23223 0.3454 0.62623 0.0
H2263 H 0.23984 0.35863 0.65668 0.0
H2264 H 0.23406 0.37088 0.64183 0.0
H2265 H 0.25669 0.37912 0.64776 0.0
H2266 H 0.22679 0.3402 0.59587 0.0
H2267 H 0.25206 0.39605 0.60373 0.0
H2268 H 0.20117 0.33767 0.55772 0.0
H2269 H 0.18869 0.33279 0.57763 0.0
H2270 H 0.20395 0.32496 0.57477 0.0
H2271 H 0.24254 0.4135 0.58922 0.0
H2272 H 0.21909 0.40216 0.58591 0.0
H2273 H 0.23295 0.40514 0.56745 0.0
H2274 H 0.27272 0.37846 0.46474 0.0
H2275 H 0.24359 0.36659 0.46096 0.0
H2276 H 0.26232 0.42174 0.46788 0.0
H2277 H 0.2115 0.35127 0.49261 0.0
H2278 H 0.21637 0.34495 0.4714 0.0
H2279 H 0.20016 0.35175 0.47299 0.0
H2280 H 0.24674 0.4327 0.48386 0.0
H2281 H 0.23301 0.41856 0.5011 0.0
H2282 H 0.22346 0.41907 0.4802 0.0
H2283 H 0.13018 0.39984 0.44473 0.0
H2284 H 0.10673 0.402 0.46155 0.0
H2285 H 0.11975 0.39692 0.47613 0.0
H2286 H 0.09828 0.37981 0.46918 0.0
H2287 H 0.12717 0.34889 0.45857 0.0
H2288 H 0.14892 0.40446 0.46718 0.0
H2289 H 0.15128 0.34217 0.49054 0.0
H2290 H 0.1646 0.3469 0.47128 0.0
H2291 H 0.14109 0.33372 0.46902 0.0
H2292 H 0.17482 0.42181 0.48336 0.0
H2293 H 0.19041 0.41428 0.4811 0.0
H2294 H 0.17816 0.4101 0.50108 0.0
H2295 H 0.18572 0.36276 0.58908 0.0
H2296 H 0.23059 0.37724 0.5459 0.0
H2297 H 0.23317 0.38308 0.51468 0.0
H2298 H 0.19543 0.38473 0.46921 0.0
H2299 H 0.15115 0.3716 0.51278 0.0
H2300 H 0.14865 0.36592 0.54398 0.0
H2301 H 0.30451 0.4152 0.45974 0.0
H2302 H 0.30489 0.39606 0.46779 0.0
H2303 H 0.29408 0.40545 0.48031 0.0
H2304 H 0.00376 0.37333 0.06266 0.0
H2305 H 0.95047 0.34297 0.04312 0.0
H2306 H 0.94086 0.35543 0.06686 0.0
H2307 H 0.94791 0.37618 0.09229 0.0
H2308 H 0.00124 0.4062 0.11162 0.0
H2309 H 0.01052 0.39267 0.08876 0.0
C2310 C 0.99 0.3693 0.06361 0.0
C2311 C 0.97788 0.35731 0.05101 0.0
C2312 C 0.98461 0.37664 0.07714 0.0
C2313 C 0.9601 0.35218 0.05261 0.0
C2314 C 0.9546 0.35937 0.06614 0.0
C2315 C 0.96156 0.37978 0.0914 0.0
C2316 C 0.97395 0.39258 0.10326 0.0
C2317 C 0.96679 0.37183 0.07829 0.0
C2318 C 0.99153 0.39676 0.10234 0.0
C2319 C 0.99683 0.38895 0.08934 0.0
H2320 H 0.63906 0.59224 0.04524 0.0
H2321 H 0.62363 0.62539 0.07363 0.0
H2322 H 0.61094 0.60372 0.09685 0.0
H2323 H 0.60373 0.57516 0.10896 0.0
H2324 H 0.61899 0.54187 0.08083 0.0
H2325 H 0.63223 0.56378 0.05767 0.0
C2326 C 0.633 0.59478 0.05655 0.0
C2327 C 0.6323 0.61044 0.05762 0.0
C2328 C 0.62559 0.58218 0.06986 0.0
C2329 C 0.62436 0.61346 0.07239 0.0
C2330 C 0.61706 0.60106 0.08569 0.0
C2331 C 0.60987 0.57269 0.09769 0.0
C2332 C 0.61012 0.55681 0.09644 0.0
C2333 C 0.61748 0.58533 0.08451 0.0
C2334 C 0.61841 0.55389 0.08195 0.0
C2335 C 0.62602 0.56643 0.06875 0.0
H2336 H 0.36375 0.9876 0.06559 0.0
H2337 H 0.40123 0.03915 0.04735 0.0
H2338 H 0.42362 0.03967 0.06713 0.0
H2339 H 0.4334 0.02377 0.08672 0.0
H2340 H 0.39585 0.97178 0.10375 0.0
H2341 H 0.37264 0.97316 0.08735 0.0
C2342 C 0.37674 0.9991 0.06611 0.0
C2343 C 0.38086 0.01321 0.05481 0.0
C2344 C 0.3896 0.99915 0.0772 0.0
C2345 C 0.3977 0.02808 0.05586 0.0
C2346 C 0.41055 0.02833 0.06709 0.0
C2347 C 0.42005 0.01295 0.08715 0.0
C2348 C 0.41632 0.99774 0.09655 0.0
C2349 C 0.40679 0.0137 0.07739 0.0
C2350 C 0.39902 0.98368 0.09677 0.0
C2351 C 0.38576 0.98442 0.08732 0.0
H2352 H 0.37942 0.01345 0.95846 0.0
H2353 H 0.34614 0.9592 0.97238 0.0
H2354 H 0.35906 0.94993 0.94894 0.0
H2355 H 0.3809 0.9574 0.92541 0.0
H2356 H 0.41377 0.01166 0.91155 0.0
H2357 H 0.39995 0.02075 0.93411 0.0
C2358 C 0.37487 0.99957 0.95633 0.0
C2359 C 0.36189 0.98707 0.96728 0.0
C2360 C 0.38244 0.99435 0.94297 0.0
C2361 C 0.35611 0.96913 0.96418 0.0
C2362 C 0.36355 0.96381 0.95082 0.0
C2363 C 0.38506 0.97121 0.92744 0.0
C2364 C 0.39873 0.98388 0.91724 0.0
C2365 C 0.37693 0.97633 0.94033 0.0
C2366 C 0.40364 0.0017 0.91958 0.0
C2367 C 0.39567 0.00689 0.9324 0.0
H2368 H 0.98513 0.36557 0.95348 0.0
H2369 H 0.03503 0.40115 0.97835 0.0
H2370 H 0.03705 0.42529 0.96075 0.0
H2371 H 0.02263 0.43696 0.94127 0.0
H2372 H 0.97204 0.40115 0.91788 0.0
H2373 H 0.97234 0.37645 0.93186 0.0
C2374 C 0.9966 0.37854 0.95488 0.0
C2375 C 0.00978 0.38159 0.96741 0.0
C2376 C 0.99746 0.39238 0.94508 0.0
C2377 C 0.02466 0.39843 0.96885 0.0
C2378 C 0.02576 0.41228 0.95887 0.0
C2379 C 0.01188 0.42368 0.93896 0.0
C2380 C 0.99735 0.42089 0.92852 0.0
C2381 C 0.01195 0.40952 0.94739 0.0
C2382 C 0.98341 0.40365 0.92577 0.0
C2383 C 0.98353 0.38952 0.93382 0.0
H2384 H 0.62343 0.62314 0.95892 0.0
H2385 H 0.60251 0.65104 0.98821 0.0
H2386 H 0.58051 0.64389 0.9648 0.0
H2387 H 0.56669 0.62898 0.93631 0.0
H2388 H 0.5881 0.60166 0.90694 0.0
H2389 H 0.61045 0.60934 0.93007 0.0
C2390 C 0.61409 0.6277 0.9602 0.0
C2391 C 0.61458 0.63753 0.97537 0.0
C2392 C 0.60149 0.62355 0.94671 0.0
C2393 C 0.60244 0.64344 0.9767 0.0
C2394 C 0.58982 0.63932 0.96333 0.0
C2395 C 0.57622 0.62467 0.93506 0.0
C2396 C 0.57544 0.61436 0.9202 0.0
C2397 C 0.58913 0.62926 0.94835 0.0
C2398 C 0.58816 0.60925 0.91847 0.0
C2399 C 0.60098 0.61369 0.93164 0.0
H2400 H 0.98821 0.62084 0.95273 0.0
H2401 H 0.04022 0.651 0.9756 0.0
H2402 H 0.05216 0.64307 0.95021 0.0
H2403 H 0.04788 0.62768 0.92141 0.0
H2404 H 0.99607 0.59842 0.89811 0.0
H2405 H 0.98396 0.60567 0.92392 0.0
C2406 C 0.00216 0.62569 0.95219 0.0
C2407 C 0.01328 0.63651 0.96608 0.0
C2408 C 0.00897 0.62117 0.9375 0.0
C2409 C 0.03134 0.64271 0.96509 0.0
C2410 C 0.0382 0.63814 0.95059 0.0
C2411 C 0.03395 0.62294 0.922 0.0
C2412 C 0.02289 0.61263 0.90784 0.0
C2413 C 0.02714 0.62741 0.93672 0.0
C2414 C 0.00484 0.60642 0.90882 0.0
C2415 C 0.99793 0.61059 0.92354 0.0
H2416 H 0.37138 0.4171 0.97536 0.0
H2417 H 0.38085 0.37938 0.94733 0.0
H2418 H 0.3898 0.39771 0.92123 0.0
H2419 H 0.39433 0.42407 0.90598 0.0
H2420 H 0.38518 0.46204 0.93366 0.0
H2421 H 0.37679 0.44406 0.96027 0.0
C2422 C 0.37541 0.41289 0.96355 0.0
C2423 C 0.37537 0.39683 0.96335 0.0
C2424 C 0.38066 0.42358 0.94852 0.0
C2425 C 0.38074 0.39166 0.94793 0.0
C2426 C 0.38587 0.40214 0.93295 0.0
C2427 C 0.39068 0.42849 0.91791 0.0
C2428 C 0.39055 0.44443 0.91793 0.0
C2429 C 0.38583 0.41808 0.93307 0.0
C2430 C 0.38557 0.44989 0.93341 0.0
C2431 C 0.3807 0.43959 0.94858 0.0
H2432 H 0.63329 0.01835 0.95798 0.0
H2433 H 0.60552 0.96329 0.97072 0.0
H2434 H 0.58602 0.95701 0.94506 0.0
H2435 H 0.57675 0.9672 0.919 0.0
H2436 H 0.60498 0.02214 0.9061 0.0
H2437 H 0.62429 0.02843 0.93194 0.0
C2438 C 0.623 0.00495 0.95516 0.0
C2439 C 0.62091 0.99133 0.96631 0.0
C2440 C 0.61184 0.00142 0.9404 0.0
C2441 C 0.60749 0.97405 0.96238 0.0
C2442 C 0.59628 0.97044 0.94772 0.0
C2443 C 0.58713 0.98054 0.9219 0.0
C2444 C 0.5894 0.99419 0.91069 0.0
C2445 C 0.59831 0.98403 0.93666 0.0
C2446 C 0.60292 0.01142 0.91456 0.0
C2447 C 0.61398 0.01502 0.9293 0.0
H2448 H 0.62025 0.99043 0.0664 0.0
H2449 H 0.64927 0.04505 0.05218 0.0
H2450 H 0.63779 0.05305 0.07792 0.0
H2451 H 0.61935 0.04453 0.10445 0.0
H2452 H 0.59105 0.99005 0.11902 0.0
H2453 H 0.60222 0.98199 0.09303 0.0
C2454 C 0.62411 0.0041 0.06892 0.0
C2455 C 0.63562 0.0171 0.05733 0.0
C2456 C 0.6175 0.00863 0.08377 0.0
C2457 C 0.64048 0.03475 0.06087 0.0
C2458 C 0.63388 0.03935 0.07558 0.0
C2459 C 0.61568 0.03091 0.10192 0.0
C2460 C 0.60445 0.01792 0.11367 0.0
C2461 C 0.62236 0.0264 0.0871 0.0
C2462 C 0.5997 0.00029 0.11019 0.0
C2463 C 0.60611 0.99568 0.09536 0.0
H2464 H 0.00692 0.62959 0.06492 0.0
H2465 H 0.95344 0.59826 0.04619 0.0
H2466 H 0.94717 0.57815 0.07068 0.0
H2467 H 0.95693 0.56935 0.09742 0.0
H2468 H 0.01027 0.60095 0.11619 0.0
H2469 H 0.01656 0.62098 0.09161 0.0
C2470 C 0.99386 0.61839 0.06618 0.0
C2471 C 0.98068 0.61548 0.05369 0.0
C2472 C 0.99035 0.60685 0.08026 0.0
C2473 C 0.96385 0.60087 0.05559 0.0
C2474 C 0.96025 0.58932 0.06958 0.0
C2475 C 0.96993 0.58059 0.09604 0.0
C2476 C 0.98315 0.58359 0.1085 0.0
C2477 C 0.97341 0.59215 0.08196 0.0
C2478 C 0.99992 0.59828 0.10669 0.0
C2479 C 0.00351 0.60977 0.09267 0.0
H2480 H 0.38447 0.3865 0.06523 0.0
H2481 H 0.4068 0.35954 0.03661 0.0
H2482 H 0.4259 0.36368 0.06206 0.0
H2483 H 0.43551 0.37398 0.0929 0.0
H2484 H 0.41223 0.39973 0.12185 0.0
H2485 H 0.39444 0.39726 0.09574 0.0
C2486 C 0.39358 0.3816 0.06449 0.0
C2487 C 0.39414 0.37268 0.04902 0.0
C2488 C 0.40438 0.38383 0.07925 0.0
C2489 C 0.40601 0.36639 0.04836 0.0
C2490 C 0.41696 0.36876 0.06291 0.0
C2491 C 0.42658 0.3791 0.09342 0.0
C2492 C 0.42512 0.38696 0.10928 0.0
C2493 C 0.41614 0.37731 0.07848 0.0
C2494 C 0.41357 0.39361 0.1098 0.0
C2495 C 0.40337 0.39216 0.0949 0.0
H2496 H 0.6286 0.69906 0.37734 0.0
H2497 H 0.67945 0.71848 0.4021 0.0
H2498 H 0.67055 0.72965 0.42749 0.0
H2499 H 0.64857 0.73459 0.44239 0.0
H2500 H 0.59784 0.71528 0.41762 0.0
H2501 H 0.60646 0.70339 0.39252 0.0
C2502 C 0.63772 0.70564 0.38832 0.0
C2503 C 0.65469 0.70794 0.38775 0.0
C2504 C 0.63258 0.71218 0.40284 0.0
C2505 C 0.66632 0.71653 0.40213 0.0
C2506 C 0.66125 0.72297 0.41667 0.0
C2507 C 0.63946 0.72785 0.43144 0.0
C2508 C 0.62271 0.7261 0.43169 0.0
C2509 C 0.64448 0.72101 0.41709 0.0
C2510 C 0.61089 0.71704 0.41759 0.0
C2511 C 0.61579 0.71019 0.40327 0.0
H2512 H 0.30197 0.92248 0.38515 0.0
H2513 H 0.28821 0.95752 0.4123 0.0
H2514 H 0.27745 0.93777 0.43733 0.0
H2515 H 0.27141 0.91029 0.45137 0.0
H2516 H 0.28496 0.87514 0.42434 0.0
H2517 H 0.29637 0.8952 0.39944 0.0
C2518 C 0.29671 0.92586 0.39657 0.0
C2519 C 0.2959 0.94148 0.39677 0.0
C2520 C 0.2904 0.91437 0.41092 0.0
C2521 C 0.28898 0.94559 0.41171 0.0
C2522 C 0.2828 0.93429 0.42606 0.0
C2523 C 0.27678 0.90701 0.43997 0.0
C2524 C 0.27705 0.89111 0.43953 0.0
C2525 C 0.28332 0.91859 0.42575 0.0
C2526 C 0.28436 0.88717 0.42485 0.0
C2527 C 0.29093 0.89865 0.41065 0.0
H2528 H 0.07064 0.37317 0.37964 0.0
H2529 H 0.04167 0.32219 0.40337 0.0
H2530 H 0.06234 0.33229 0.4284 0.0
H2531 H 0.08892 0.35542 0.44339 0.0
H2532 H 0.11803 0.40628 0.41968 0.0
H2533 H 0.097 0.39642 0.39483 0.0
C2534 C 0.06878 0.36428 0.39031 0.0
C2535 C 0.05461 0.34693 0.38957 0.0
C2536 C 0.0808 0.37011 0.40464 0.0
C2537 C 0.05246 0.3356 0.40354 0.0
C2538 C 0.06429 0.34135 0.41788 0.0
C2539 C 0.09069 0.36428 0.43271 0.0
C2540 C 0.10518 0.38144 0.43318 0.0
C2541 C 0.07857 0.35853 0.41851 0.0
C2542 C 0.10713 0.39292 0.41946 0.0
C2543 C 0.09509 0.38731 0.40529 0.0
H2544 H 0.05158 0.33325 0.29035 0.0
H2545 H 0.02271 0.28114 0.31168 0.0
H2546 H 0.0333 0.26973 0.28795 0.0
H2547 H 0.05112 0.27461 0.26132 0.0
H2548 H 0.0796 0.32661 0.2399 0.0
H2549 H 0.06879 0.33799 0.26349 0.0
C2550 C 0.04755 0.31938 0.28982 0.0
C2551 C 0.03639 0.3081 0.30285 0.0
C2552 C 0.05371 0.31289 0.27617 0.0
C2553 C 0.03128 0.29015 0.30186 0.0
C2554 C 0.03736 0.2836 0.2883 0.0
C2555 C 0.05504 0.28845 0.26193 0.0
C2556 C 0.0665 0.29983 0.24917 0.0
C2557 C 0.04866 0.29487 0.27545 0.0
C2558 C 0.07112 0.31767 0.24982 0.0
C2559 C 0.06488 0.32416 0.26325 0.0
H2560 H 0.67116 0.73638 0.30489 0.0
H2561 H 0.71787 0.73193 0.30284 0.0
H2562 H 0.73379 0.75719 0.28408 0.0
H2563 H 0.73732 0.7864 0.26392 0.0
H2564 H 0.68335 0.79429 0.26892 0.0
H2565 H 0.66739 0.76341 0.29079 0.0
C2566 C 0.68419 0.74108 0.29984 0.0
C2567 C 0.6939 0.73291 0.3046 0.0
C2568 C 0.69146 0.75592 0.2896 0.0
C2569 C 0.71121 0.73888 0.29872 0.0
C2570 C 0.72059 0.75344 0.28791 0.0
C2571 C 0.72471 0.78268 0.26954 0.0
C2572 C 0.71083 0.7917 0.26139 0.0
C2573 C 0.71322 0.76326 0.2825 0.0
C2574 C 0.6904 0.78765 0.27268 0.0
C2575 C 0.68027 0.76798 0.28547 0.0
H2576 H 0.26673 0.93496 0.31139 0.0
H2577 H 0.27292 0.98702 0.31644 0.0
H2578 H 0.24874 0.98075 0.29635 0.0
H2579 H 0.22058 0.95838 0.2721 0.0
H2580 H 0.21084 0.89541 0.26816 0.0
H2581 H 0.24014 0.90657 0.29266 0.0
C2582 C 0.26262 0.9442 0.30756 0.0
C2583 C 0.27106 0.9615 0.31478 0.0
C2584 C 0.24838 0.93837 0.29615 0.0
C2585 C 0.26582 0.97394 0.31048 0.0
C2586 C 0.2519 0.97055 0.29891 0.0
C2587 C 0.2236 0.94852 0.27654 0.0
C2588 C 0.21465 0.92668 0.26501 0.0
C2589 C 0.24204 0.95415 0.29099 0.0
C2590 C 0.21748 0.90854 0.27398 0.0
C2591 C 0.2362 0.91583 0.28849 0.0
H2592 H 0.67055 0.9503 0.28847 0.0
H2593 H 0.71724 0.96956 0.32112 0.0
H2594 H 0.73236 0.9648 0.29642 0.0
H2595 H 0.73278 0.9566 0.26503 0.0
H2596 H 0.68654 0.93882 0.23212 0.0
H2597 H 0.6707 0.94134 0.2575 0.0
C2598 C 0.68399 0.95333 0.29026 0.0
C2599 C 0.69275 0.96033 0.30664 0.0
C2600 C 0.69269 0.95084 0.27593 0.0
C2601 C 0.71019 0.96423 0.30866 0.0
C2602 C 0.71886 0.96151 0.29453 0.0
C2603 C 0.71921 0.9532 0.26349 0.0
C2604 C 0.71086 0.94763 0.24672 0.0
C2605 C 0.71031 0.95505 0.27804 0.0
C2606 C 0.69326 0.94318 0.24488 0.0
C2607 C 0.68422 0.94466 0.25937 0.0
H2608 H 0.05261 0.72866 0.287 0.0
H2609 H 0.03277 0.75578 0.31929 0.0
H2610 H 0.03938 0.77705 0.29586 0.0
H2611 H 0.04986 0.78737 0.26574 0.0
H2612 H 0.0684 0.75938 0.23311 0.0
H2613 H 0.06351 0.73922 0.25725 0.0
C2614 C 0.0498 0.73927 0.28899 0.0
C2615 C 0.04216 0.74056 0.3049 0.0
C2616 C 0.05343 0.75133 0.27539 0.0
C2617 C 0.03858 0.75439 0.30717 0.0
C2618 C 0.04237 0.76659 0.29378 0.0
C2619 C 0.05285 0.77686 0.26396 0.0
C2620 C 0.05934 0.77477 0.24761 0.0
C2621 C 0.04965 0.76509 0.27778 0.0
C2622 C 0.06332 0.76121 0.24553 0.0
C2623 C 0.06048 0.74966 0.25931 0.0
H2624 H 0.26516 0.30013 0.30121 0.0
H2625 H 0.29596 0.35243 0.28085 0.0
H2626 H 0.27936 0.34298 0.2529 0.0
H2627 H 0.25682 0.31965 0.23377 0.0
H2628 H 0.2255 0.26754 0.25413 0.0
H2629 H 0.24151 0.27713 0.28257 0.0
C2630 C 0.26822 0.30947 0.29067 0.0
C2631 C 0.28187 0.32694 0.29311 0.0
C2632 C 0.25852 0.30399 0.27463 0.0
C2633 C 0.28553 0.33891 0.27936 0.0
C2634 C 0.27606 0.33351 0.26334 0.0
C2635 C 0.25341 0.31045 0.2445 0.0
C2636 C 0.24005 0.29292 0.24186 0.0
C2637 C 0.26262 0.31607 0.26078 0.0
C2638 C 0.23576 0.28111 0.25588 0.0
C2639 C 0.24492 0.28658 0.2721 0.0
H2640 H 0.30369 0.38351 0.37902 0.0
H2641 H 0.28586 0.33074 0.39668 0.0
H2642 H 0.277 0.33767 0.42486 0.0
H2643 H 0.27523 0.35893 0.44503 0.0
H2644 H 0.29258 0.41156 0.42758 0.0
H2645 H 0.30064 0.40447 0.39879 0.0
C2646 C 0.29782 0.37352 0.38901 0.0
C2647 C 0.29554 0.35666 0.38571 0.0
C2648 C 0.29265 0.37755 0.40525 0.0
C2649 C 0.28779 0.34383 0.3988 0.0
C2650 C 0.28272 0.34778 0.41497 0.0
C2651 C 0.28061 0.36878 0.43484 0.0
C2652 C 0.28326 0.38572 0.43839 0.0
C2653 C 0.2852 0.36461 0.41839 0.0
C2654 C 0.29035 0.3984 0.42511 0.0
C2655 C 0.295 0.39437 0.40869 0.0
H2656 H 0.66827 0.95209 0.40595 0.0
H2657 H 0.61947 0.92436 0.37638 0.0
H2658 H 0.60588 0.90507 0.40139 0.0
H2659 H 0.6076 0.89649 0.432 0.0
H2660 H 0.65614 0.92468 0.46175 0.0
H2661 H 0.67012 0.94323 0.43627 0.0
C2662 C 0.65467 0.94181 0.40493 0.0
C2663 C 0.64492 0.93975 0.38928 0.0
C2664 C 0.64689 0.93079 0.41939 0.0
C2665 C 0.6273 0.92632 0.38825 0.0
C2666 C 0.6195 0.91525 0.40255 0.0
C2667 C 0.62127 0.90663 0.43281 0.0
C2668 C 0.63085 0.90919 0.44869 0.0
C2669 C 0.62914 0.91741 0.41821 0.0
C2670 C 0.64853 0.92241 0.44964 0.0
C2671 C 0.6565 0.93306 0.4351 0.0
H2672 H 0.0507 0.72287 0.40352 0.0
H2673 H 0.07658 0.70008 0.37388 0.0
H2674 H 0.09551 0.70442 0.39953 0.0
H2675 H 0.10414 0.71385 0.43074 0.0
H2676 H 0.07774 0.73587 0.4605 0.0
H2677 H 0.05972 0.73283 0.43439 0.0
C2678 C 0.06051 0.71889 0.40262 0.0
C2679 C 0.06213 0.7111 0.38677 0.0
C2680 C 0.0713 0.72133 0.41744 0.0
C2681 C 0.07496 0.70605 0.3859 0.0
C2682 C 0.08582 0.70854 0.40057 0.0
C2683 C 0.09453 0.7181 0.43142 0.0
C2684 C 0.0923 0.72513 0.44748 0.0
C2685 C 0.08403 0.71606 0.41644 0.0
C2686 C 0.07974 0.7305 0.44826 0.0
C2687 C 0.0694 0.72871 0.43336 0.0
H2688 H 0.32516 0.06079 0.70843 0.0
H2689 H 0.27808 0.01052 0.69911 0.0
H2690 H 0.25999 0.01721 0.71826 0.0
H2691 H 0.25445 0.03935 0.74309 0.0
H2692 H 0.30955 0.10026 0.75219 0.0
H2693 H 0.32762 0.08884 0.72818 0.0
C2694 C 0.31148 0.05197 0.71113 0.0
C2695 C 0.30235 0.0351 0.70294 0.0
C2696 C 0.30307 0.05795 0.72221 0.0
C2697 C 0.28428 0.02329 0.70577 0.0
C2698 C 0.27364 0.02694 0.71679 0.0
C2699 C 0.26772 0.04888 0.73966 0.0
C2700 C 0.28091 0.06978 0.75271 0.0
C2701 C 0.28049 0.04298 0.72561 0.0
C2702 C 0.30277 0.08752 0.74553 0.0
C2703 C 0.31408 0.08 0.7313 0.0
H2704 H 0.9706 0.25459 0.7095 0.0
H2705 H 0.95315 0.28735 0.73523 0.0
H2706 H 0.94262 0.26757 0.76022 0.0
H2707 H 0.93805 0.24082 0.77476 0.0
H2708 H 0.95518 0.20784 0.74919 0.0
H2709 H 0.96619 0.22786 0.72421 0.0
C2710 C 0.96456 0.25745 0.7206 0.0
C2711 C 0.96267 0.27245 0.72043 0.0
C2712 C 0.95838 0.24592 0.73494 0.0
C2713 C 0.95476 0.2759 0.73494 0.0
C2714 C 0.94871 0.26458 0.74927 0.0
C2715 C 0.94407 0.23797 0.76364 0.0
C2716 C 0.94549 0.2227 0.76364 0.0
C2717 C 0.95036 0.24952 0.74937 0.0
C2718 C 0.95368 0.21936 0.74934 0.0
C2719 C 0.96002 0.23082 0.7351 0.0
H2720 H 0.73401 0.70632 0.71054 0.0
H2721 H 0.70497 0.65568 0.73494 0.0
H2722 H 0.72557 0.66614 0.76006 0.0
H2723 H 0.7522 0.68945 0.77486 0.0
H2724 H 0.78137 0.73993 0.7504 0.0
H2725 H 0.76031 0.72975 0.72557 0.0
C2726 C 0.7321 0.69758 0.72139 0.0
C2727 C 0.71795 0.68022 0.7208 0.0
C2728 C 0.74409 0.70361 0.73575 0.0
C2729 C 0.71575 0.66909 0.73499 0.0
C2730 C 0.72754 0.67505 0.74938 0.0
C2731 C 0.75397 0.69816 0.76402 0.0
C2732 C 0.7685 0.71529 0.76427 0.0
C2733 C 0.74183 0.69223 0.74982 0.0
C2734 C 0.77045 0.72659 0.75035 0.0
C2735 C 0.7584 0.7208 0.73619 0.0
H2736 H 0.72882 0.663 0.63796 0.0
H2737 H 0.67882 0.61481 0.63436 0.0
H2738 H 0.68906 0.59957 0.61489 0.0
H2739 H 0.71545 0.59724 0.59448 0.0
H2740 H 0.77601 0.65306 0.60144 0.0
H2741 H 0.76003 0.66807 0.62394 0.0
C2742 C 0.72093 0.64983 0.63243 0.0
C2743 C 0.70314 0.63948 0.63691 0.0
C2744 C 0.72897 0.64301 0.62187 0.0
C2745 C 0.69238 0.62196 0.63041 0.0
C2746 C 0.69808 0.61297 0.61918 0.0
C2747 C 0.7239 0.61004 0.60055 0.0
C2748 C 0.74665 0.6247 0.5929 0.0
C2749 C 0.71528 0.62099 0.61398 0.0
C2750 C 0.76236 0.64552 0.60495 0.0
C2751 C 0.75215 0.65504 0.61814 0.0
H2752 H 0.37611 0.07465 0.63752 0.0
H2753 H 0.32824 0.04189 0.60778 0.0
H2754 H 0.33854 0.06273 0.58366 0.0
H2755 H 0.36073 0.09065 0.57128 0.0
H2756 H 0.40852 0.12357 0.60084 0.0
H2757 H 0.39868 0.10226 0.62473 0.0
C2758 C 0.36797 0.072 0.62572 0.0
C2759 C 0.35139 0.05672 0.62454 0.0
C2760 C 0.37391 0.08412 0.6119 0.0
C2761 C 0.34103 0.05355 0.60912 0.0
C2762 C 0.34689 0.06547 0.5953 0.0
C2763 C 0.36895 0.09315 0.58299 0.0
C2764 C 0.38519 0.10878 0.58445 0.0
C2765 C 0.36322 0.08087 0.59662 0.0
C2766 C 0.39586 0.11174 0.59954 0.0
C2767 C 0.39026 0.09955 0.61317 0.0
H2768 H 0.95035 0.27512 0.62115 0.0
H2769 H 0.93042 0.30674 0.64462 0.0
H2770 H 0.90851 0.29752 0.62082 0.0
H2771 H 0.89473 0.28022 0.59347 0.0
H2772 H 0.91486 0.24898 0.56976 0.0
H2773 H 0.93696 0.25831 0.59351 0.0
C2774 C 0.94125 0.28003 0.62107 0.0
C2775 C 0.94204 0.29158 0.63472 0.0
C2776 C 0.92863 0.27466 0.60734 0.0
C2777 C 0.93014 0.29783 0.63432 0.0
C2778 C 0.91757 0.29255 0.62071 0.0
C2779 C 0.90388 0.27537 0.59362 0.0
C2780 C 0.90286 0.26357 0.58017 0.0
C2781 C 0.91663 0.2809 0.60721 0.0
C2782 C 0.91511 0.25774 0.58021 0.0
C2783 C 0.92779 0.26314 0.59373 0.0
H2784 H 0.33289 0.28319 0.61472 0.0
H2785 H 0.38214 0.31182 0.64337 0.0
H2786 H 0.39715 0.30707 0.61859 0.0
H2787 H 0.39644 0.29549 0.58839 0.0
H2788 H 0.34743 0.26803 0.55934 0.0
H2789 H 0.33213 0.27137 0.58477 0.0
C2790 C 0.3469 0.28835 0.6156 0.0
C2791 C 0.35635 0.29789 0.6309 0.0
C2792 C 0.35549 0.28574 0.60123 0.0
C2793 C 0.37452 0.3045 0.63174 0.0
C2794 C 0.38313 0.30177 0.61758 0.0
C2795 C 0.38241 0.29022 0.58769 0.0
C2796 C 0.37309 0.28162 0.57199 0.0
C2797 C 0.37377 0.29251 0.60222 0.0
C2798 C 0.35489 0.27474 0.57126 0.0
C2799 C 0.34615 0.27669 0.58577 0.0
H2800 H 0.71573 0.04953 0.6137 0.0
H2801 H 0.69261 0.07776 0.63826 0.0
H2802 H 0.69891 0.09577 0.612 0.0
H2803 H 0.71023 0.10299 0.58166 0.0
H2804 H 0.73243 0.07415 0.55677 0.0
H2805 H 0.72743 0.05704 0.58362 0.0
C2806 C 0.71212 0.05966 0.61337 0.0
C2807 C 0.70367 0.06222 0.62796 0.0
C2808 C 0.71565 0.0699 0.59815 0.0
C2809 C 0.69907 0.07542 0.62723 0.0
C2810 C 0.70268 0.08576 0.6122 0.0
C2811 C 0.71404 0.09301 0.58219 0.0
C2812 C 0.72168 0.08983 0.56727 0.0
C2813 C 0.71085 0.08304 0.59755 0.0
C2814 C 0.72655 0.07685 0.56809 0.0
C2815 C 0.72365 0.06704 0.58341 0.0
H2816 H 0.94607 0.6662 0.62261 0.0
H2817 H 0.9145 0.61839 0.65103 0.0
H2818 H 0.89594 0.60512 0.62464 0.0
H2819 H 0.88956 0.60654 0.59298 0.0
H2820 H 0.92172 0.65397 0.56443 0.0
H2821 H 0.93907 0.668 0.59141 0.0
C2822 C 0.93506 0.65292 0.62311 0.0
C2823 C 0.93177 0.64331 0.6388 0.0
C2824 C 0.92454 0.64529 0.60783 0.0
C2825 C 0.91742 0.6261 0.63914 0.0
C2826 C 0.90678 0.61848 0.62404 0.0
C2827 C 0.90026 0.62001 0.59277 0.0
C2828 C 0.90434 0.62924 0.57678 0.0
C2829 C 0.91035 0.62787 0.60826 0.0
C2830 C 0.9183 0.64664 0.5766 0.0
C2831 C 0.92824 0.65463 0.592 0.0
H2832 H 0.9454 0.66921 0.74031 0.0
H2833 H 0.96912 0.71674 0.70999 0.0
H2834 H 0.96486 0.73267 0.73456 0.0
H2835 H 0.95521 0.73334 0.76508 0.0
H2836 H 0.93265 0.68611 0.79569 0.0
H2837 H 0.9354 0.66977 0.77049 0.0
C2838 C 0.94958 0.68304 0.73901 0.0
C2839 C 0.95761 0.69175 0.72331 0.0
C2840 C 0.94726 0.69217 0.75325 0.0
C2841 C 0.96297 0.7097 0.72193 0.0
C2842 C 0.96052 0.71883 0.73597 0.0
C2843 C 0.95085 0.71945 0.76617 0.0
C2844 C 0.94381 0.71095 0.78223 0.0
C2845 C 0.9528 0.71023 0.75175 0.0
C2846 C 0.93814 0.69294 0.78347 0.0
C2847 C 0.93975 0.68361 0.76909 0.0
H2848 H 0.29102 0.25356 0.70503 0.0
H2849 H 0.33899 0.29137 0.73189 0.0
H2850 H 0.33087 0.27302 0.75796 0.0
H2851 H 0.30997 0.24655 0.77349 0.0
H2852 H 0.26203 0.2086 0.74699 0.0
H2853 H 0.27033 0.22664 0.72044 0.0
C2854 C 0.2997 0.25778 0.71658 0.0
C2855 C 0.31558 0.27387 0.71646 0.0
C2856 C 0.29499 0.24711 0.73159 0.0
C2857 C 0.32669 0.27907 0.73155 0.0
C2858 C 0.32207 0.26858 0.74651 0.0
C2859 C 0.30144 0.24216 0.76182 0.0
C2860 C 0.28554 0.22617 0.7621 0.0
C2861 C 0.30625 0.25261 0.7467 0.0
C2862 C 0.27446 0.22075 0.74699 0.0
C2863 C 0.27916 0.23109 0.73185 0.0
H2864 H 0.74247 0.03624 0.70584 0.0
H2865 H 0.71117 0.05555 0.73083 0.0
H2866 H 0.72862 0.06236 0.75805 0.0
H2867 H 0.75187 0.06163 0.77535 0.0
H2868 H 0.78366 0.04293 0.75062 0.0
H2869 H 0.767 0.03717 0.72273 0.0
C2870 C 0.73951 0.042 0.71721 0.0
C2871 C 0.72543 0.04526 0.71627 0.0
C2872 C 0.74968 0.04598 0.73291 0.0
C2873 C 0.7219 0.05287 0.73112 0.0
C2874 C 0.73186 0.05676 0.74675 0.0
C2875 C 0.75525 0.05646 0.7638 0.0
C2876 C 0.76892 0.05265 0.76504 0.0
C2877 C 0.74565 0.05321 0.74786 0.0
C2878 C 0.77316 0.04594 0.74996 0.0
C2879 C 0.76363 0.04262 0.73405 0.0
H2880 H 0.05057 0.35148 0.0502 0.0
H2881 H 0.02607 0.30964 0.01039 0.0
H2882 H 0.03692 0.29164 0.02335 0.0
H2883 H 0.0562 0.28428 0.04975 0.0
H2884 H 0.08251 0.33215 0.0993 0.0
H2885 H 0.06837 0.35102 0.08055 0.0
C2886 C 0.0484 0.339 0.04485 0.0
C2887 C 0.03785 0.33132 0.02946 0.0
C2888 C 0.05521 0.33029 0.05417 0.0
C2889 C 0.03424 0.31474 0.02226 0.0
C2890 C 0.04037 0.30417 0.02959 0.0
C2891 C 0.0578 0.29623 0.05591 0.0
C2892 C 0.07356 0.30771 0.07473 0.0
C2893 C 0.05038 0.30947 0.04503 0.0
C2894 C 0.07455 0.32667 0.08737 0.0
C2895 C 0.06649 0.33869 0.07516 0.0
H2896 H 0.65082 0.6986 0.06325 0.0
H2897 H 0.69404 0.70891 0.02889 0.0
H2898 H 0.7136 0.73788 0.04169 0.0
H2899 H 0.72175 0.76739 0.06522 0.0
H2900 H 0.67146 0.75464 0.10789 0.0
H2901 H 0.65148 0.72028 0.09083 0.0
C2902 C 0.66404 0.70743 0.05903 0.0
C2903 C 0.6716 0.70246 0.04524 0.0
C2904 C 0.67345 0.72343 0.06787 0.0
C2905 C 0.68904 0.71351 0.03956 0.0
C2906 C 0.70052 0.73028 0.04681 0.0
C2907 C 0.70912 0.75838 0.07064 0.0
C2908 C 0.69762 0.76587 0.08615 0.0
C2909 C 0.69523 0.73708 0.06052 0.0
C2910 C 0.67712 0.75031 0.09766 0.0
C2911 C 0.66454 0.72936 0.08642 0.0
H2912 H 0.29669 0.9515 0.05283 0.0
H2913 H 0.28331 0.98331 0.02 0.0
H2914 H 0.2558 0.97478 0.03465 0.0
H2915 H 0.22941 0.95575 0.06072 0.0
H2916 H 0.24669 0.9206 0.10234 0.0
H2917 H 0.27834 0.93262 0.0821 0.0
C2918 C 0.28746 0.95572 0.04928 0.0
C2919 C 0.29114 0.96778 0.03552 0.0
C2920 C 0.27259 0.9499 0.0593 0.0
C2921 C 0.27967 0.97409 0.03072 0.0
C2922 C 0.26376 0.96932 0.03905 0.0
C2923 C 0.23881 0.95209 0.06523 0.0
C2924 C 0.23312 0.93435 0.08157 0.0
C2925 C 0.25845 0.95804 0.05315 0.0
C2926 C 0.24977 0.92972 0.09164 0.0
C2927 C 0.26892 0.93654 0.07844 0.0
H2928 H 0.31184 0.02802 0.99192 0.0
H2929 H 0.36343 0.07385 0.99192 0.0
H2930 H 0.35155 0.09096 0.9786 0.0
H2931 H 0.32663 0.09274 0.9662 0.0
H2932 H 0.2752 0.04679 0.96548 0.0
H2933 H 0.28687 0.0299 0.97985 0.0
C2934 C 0.32046 0.04179 0.98916 0.0
C2935 C 0.3385 0.04964 0.99294 0.0
C2936 C 0.3136 0.05149 0.9812 0.0
C2937 C 0.3495 0.06747 0.98914 0.0
C2938 C 0.34273 0.07727 0.98148 0.0
C2939 C 0.31803 0.07898 0.96905 0.0
C2940 C 0.30015 0.07089 0.9644 0.0
C2941 C 0.32484 0.06936 0.97727 0.0
C2942 C 0.28907 0.05319 0.96861 0.0
C2943 C 0.29572 0.04356 0.97689 0.0
H2944 H 0.9737 0.2804 0.988 0.0
H2945 H 0.94215 0.29822 0.96063 0.0
H2946 H 0.92961 0.27403 0.93923 0.0
H2947 H 0.92465 0.24161 0.92395 0.0
H2948 H 0.9621 0.21975 0.95547 0.0
H2949 H 0.97577 0.25053 0.97879 0.0
C2950 C 0.96418 0.27827 0.97768 0.0
C2951 C 0.95847 0.29056 0.97524 0.0
C2952 C 0.9581 0.26352 0.96666 0.0
C2953 C 0.94604 0.28835 0.96182 0.0
C2954 C 0.93874 0.27452 0.94923 0.0
C2955 C 0.93472 0.24364 0.93354 0.0
C2956 C 0.93957 0.22585 0.93917 0.0
C2957 C 0.94328 0.26163 0.94941 0.0
C2958 C 0.95855 0.22977 0.95351 0.0
C2959 C 0.9662 0.2484 0.96855 0.0
H2960 H 0.70743 0.68326 0.99385 0.0
H2961 H 0.70012 0.63129 0.985 0.0
H2962 H 0.72893 0.64389 0.97159 0.0
H2963 H 0.75615 0.66967 0.96219 0.0
H2964 H 0.76311 0.72155 0.97012 0.0
H2965 H 0.73452 0.70901 0.98412 0.0
C2966 C 0.71218 0.6747 0.98907 0.0
C2967 C 0.70167 0.65637 0.99047 0.0
C2968 C 0.72864 0.68201 0.98109 0.0
C2969 C 0.70795 0.64545 0.98408 0.0
C2970 C 0.72442 0.65263 0.97639 0.0
C2971 C 0.75129 0.67819 0.96676 0.0
C2972 C 0.76153 0.69649 0.96472 0.0
C2973 C 0.73483 0.67089 0.97472 0.0
C2974 C 0.75528 0.70741 0.9712 0.0
C2975 C 0.73899 0.70026 0.97928 0.0
H2976 H 0.96653 0.68221 0.98972 0.0
H2977 H 0.9224 0.62942 0.98912 0.0
H2978 H 0.90309 0.64039 0.97975 0.0
H2979 H 0.89867 0.66499 0.97203 0.0
H2980 H 0.94286 0.71763 0.9715 0.0
H2981 H 0.96227 0.70672 0.98094 0.0
C2982 C 0.95268 0.67312 0.98759 0.0
C2983 C 0.94589 0.65504 0.99022 0.0
C2984 C 0.94169 0.67948 0.98194 0.0
C2985 C 0.92795 0.6434 0.9872 0.0
C2986 C 0.9169 0.64966 0.98184 0.0
C2987 C 0.91256 0.67404 0.97389 0.0
C2988 C 0.91932 0.69209 0.97114 0.0
C2989 C 0.92362 0.66766 0.97918 0.0
C2990 C 0.93737 0.70369 0.97358 0.0
C2991 C 0.94844 0.69746 0.97899 0.0
H2992 H 0.3583 0.30957 0.96123 0.0
H2993 H 0.31608 0.29892 0.99673 0.0
H2994 H 0.29816 0.26991 0.98258 0.0
H2995 H 0.29419 0.24794 0.95938 0.0
H2996 H 0.33586 0.2599 0.92266 0.0
H2997 H 0.35425 0.28797 0.938 0.0
C2998 C 0.34524 0.30083 0.966 0.0
C2999 C 0.33857 0.30632 0.98008 0.0
C3000 C 0.33489 0.2844 0.95754 0.0
C3001 C 0.32152 0.29497 0.98592 0.0
C3002 C 0.31127 0.2784 0.97783 0.0
C3003 C 0.30737 0.25665 0.9549 0.0
C3004 C 0.31379 0.25156 0.94024 0.0
C3005 C 0.31777 0.27303 0.96353 0.0
C3006 C 0.33072 0.26321 0.93421 0.0
C3007 C 0.34124 0.27933 0.94291 0.0
H3008 H 0.7118 0.02473 0.98581 0.0
H3009 H 0.71051 0.07218 0.99857 0.0
H3010 H 0.74011 0.08994 0.9875 0.0
H3011 H 0.76634 0.0921 0.97412 0.0
H3012 H 0.76758 0.04491 0.9602 0.0
H3013 H 0.73801 0.02692 0.97168 0.0
C3014 C 0.71807 0.03896 0.98627 0.0
C3015 C 0.70901 0.04712 0.99309 0.0
C3016 C 0.73501 0.04913 0.97954 0.0
C3017 C 0.7172 0.06557 0.99339 0.0
C3018 C 0.73412 0.07575 0.98704 0.0
C3019 C 0.76008 0.07787 0.97347 0.0
C3020 C 0.76908 0.06983 0.96623 0.0
C3021 C 0.74311 0.06768 0.98001 0.0
C3022 C 0.76085 0.05138 0.96561 0.0
C3023 C 0.74399 0.04112 0.97223 0.0
H3024 H 0.68809 0.97817 0.03547 0.0
H3025 H 0.63779 0.93242 0.02401 0.0
H3026 H 0.64875 0.91332 0.03394 0.0
H3027 H 0.67257 0.90951 0.04581 0.0
H3028 H 0.72259 0.95504 0.05847 0.0
H3029 H 0.71181 0.97434 0.04826 0.0
C3030 C 0.67958 0.96402 0.03506 0.0
C3031 C 0.66218 0.95672 0.02891 0.0
C3032 C 0.68588 0.95308 0.04112 0.0
C3033 C 0.65124 0.93837 0.02867 0.0
C3034 C 0.65748 0.92742 0.03436 0.0
C3035 C 0.68106 0.92367 0.04646 0.0
C3036 C 0.69833 0.93085 0.05292 0.0
C3037 C 0.67475 0.93463 0.04066 0.0
C3038 C 0.70922 0.94922 0.0536 0.0
C3039 C 0.70308 0.96024 0.04772 0.0
H3040 H 0.05133 0.71062 0.04043 0.0
H3041 H 0.00174 0.70596 0.02592 0.0
H3042 H 0.01115 0.73498 0.03912 0.0
H3043 H 0.03278 0.76088 0.05597 0.0
H3044 H 0.08242 0.7655 0.07058 0.0
H3045 H 0.07368 0.7374 0.0558 0.0
C3046 C 0.0426 0.71598 0.04005 0.0
C3047 C 0.0258 0.70605 0.03233 0.0
C3048 C 0.04803 0.73262 0.04779 0.0
C3049 C 0.01472 0.71328 0.03184 0.0
C3050 C 0.02008 0.72987 0.03942 0.0
C3051 C 0.0417 0.75579 0.05623 0.0
C3052 C 0.05794 0.76505 0.06541 0.0
C3053 C 0.0366 0.73953 0.04771 0.0
C3054 C 0.06953 0.7584 0.06442 0.0
C3055 C 0.06459 0.74233 0.05587 0.0
H3056 H 0.30649 0.3739 0.03684 0.0
H3057 H 0.30219 0.32422 0.02173 0.0
H3058 H 0.27167 0.30875 0.03076 0.0
H3059 H 0.24595 0.30935 0.04236 0.0
H3060 H 0.2499 0.35912 0.05608 0.0
H3061 H 0.28085 0.37448 0.04854 0.0
C3062 C 0.29889 0.35969 0.03555 0.0
C3063 C 0.30661 0.35026 0.02857 0.0
C3064 C 0.28127 0.35087 0.04058 0.0
C3065 C 0.29656 0.33183 0.02697 0.0
C3066 C 0.2791 0.32295 0.03217 0.0
C3067 C 0.25359 0.32356 0.04363 0.0
C3068 C 0.24556 0.3331 0.04949 0.0
C3069 C 0.27129 0.33234 0.03889 0.0
C3070 C 0.25572 0.35149 0.05142 0.0
C3071 C 0.27341 0.36028 0.04708 0.0
H3072 H 0.73666 0.6986 0.36628 0.0
H3073 H 0.6881 0.64945 0.35777 0.0
H3074 H 0.7002 0.63107 0.36606 0.0
H3075 H 0.72751 0.62552 0.38002 0.0
H3076 H 0.78607 0.68341 0.38855 0.0
H3077 H 0.76871 0.70198 0.37607 0.0
C3078 C 0.72953 0.68437 0.36653 0.0
C3079 C 0.71159 0.67476 0.36174 0.0
C3080 C 0.73846 0.67589 0.37158 0.0
C3081 C 0.70182 0.65606 0.36158 0.0
C3082 C 0.70858 0.64521 0.36636 0.0
C3083 C 0.73544 0.63957 0.37837 0.0
C3084 C 0.75773 0.65265 0.3886 0.0
C3085 C 0.72587 0.65251 0.3716 0.0
C3086 C 0.7726 0.67637 0.38391 0.0
C3087 C 0.7615 0.68781 0.37693 0.0
H3088 H 0.31301 0.02814 0.3987 0.0
H3089 H 0.3535 0.03877 0.36048 0.0
H3090 H 0.37309 0.06847 0.37159 0.0
H3091 H 0.38207 0.09853 0.39459 0.0
H3092 H 0.33536 0.08546 0.44194 0.0
H3093 H 0.31512 0.05041 0.42642 0.0
C3094 C 0.32566 0.03721 0.39331 0.0
C3095 C 0.3324 0.03214 0.37883 0.0
C3096 C 0.33525 0.0536 0.40139 0.0
C3097 C 0.34911 0.04348 0.37161 0.0
C3098 C 0.3606 0.06067 0.37786 0.0
C3099 C 0.37013 0.08939 0.40111 0.0
C3100 C 0.35947 0.09678 0.41782 0.0
C3101 C 0.35609 0.06761 0.3921 0.0
C3102 C 0.34039 0.0811 0.43112 0.0
C3103 C 0.32757 0.05969 0.42085 0.0
H3104 H 0.96074 0.30809 0.36706 0.0
H3105 H 0.96471 0.26103 0.36684 0.0
H3106 H 0.93467 0.24403 0.37702 0.0
H3107 H 0.90728 0.24246 0.38605 0.0
H3108 H 0.90346 0.28956 0.3875 0.0
H3109 H 0.93338 0.3066 0.37669 0.0
C3110 C 0.95499 0.29411 0.36917 0.0
C3111 C 0.96494 0.28584 0.36615 0.0
C3112 C 0.93777 0.28443 0.37534 0.0
C3113 C 0.95736 0.26773 0.3691 0.0
C3114 C 0.94017 0.25798 0.37492 0.0
C3115 C 0.91307 0.2565 0.38424 0.0
C3116 C 0.90331 0.26483 0.388 0.0
C3117 C 0.93029 0.2662 0.37817 0.0
C3118 C 0.91085 0.28294 0.38506 0.0
C3119 C 0.92791 0.29265 0.37881 0.0
H3120 H 0.03389 0.39402 0.31676 0.0
H3121 H 0.98227 0.35009 0.3254 0.0
H3122 H 0.96918 0.36661 0.31319 0.0
H3123 H 0.97243 0.39355 0.29988 0.0
H3124 H 0.02411 0.43771 0.29235 0.0
H3125 H 0.03713 0.42106 0.30424 0.0
C3126 C 0.01977 0.38804 0.316 0.0
C3127 C 0.00909 0.37082 0.32194 0.0
C3128 C 0.01234 0.39762 0.30903 0.0
C3129 C 0.99081 0.36333 0.32094 0.0
C3130 C 0.98331 0.37275 0.31392 0.0
C3131 C 0.98654 0.39942 0.30069 0.0
C3132 C 0.99726 0.41663 0.29472 0.0
C3133 C 0.99395 0.38988 0.30785 0.0
C3134 C 0.01555 0.42432 0.29637 0.0
C3135 C 0.02301 0.41485 0.30328 0.0
H3136 H 0.60906 0.64057 0.30926 0.0
H3137 H 0.65501 0.63682 0.32121 0.0
H3138 H 0.64053 0.60677 0.30915 0.0
H3139 H 0.61462 0.58133 0.29557 0.0
H3140 H 0.56837 0.58474 0.28464 0.0
H3141 H 0.58315 0.61511 0.29587 0.0
C3142 C 0.61593 0.6332 0.3092 0.0
C3143 C 0.63311 0.64096 0.31611 0.0
C3144 C 0.60749 0.61587 0.30233 0.0
C3145 C 0.64178 0.63118 0.31599 0.0
C3146 C 0.63351 0.61398 0.30908 0.0
C3147 C 0.60789 0.58883 0.29546 0.0
C3148 C 0.59062 0.58095 0.28881 0.0
C3149 C 0.61637 0.60619 0.30223 0.0
C3150 C 0.58183 0.59063 0.28923 0.0
C3151 C 0.59023 0.60797 0.29577 0.0
H3152 H 0.35918 0.96081 0.31764 0.0
H3153 H 0.36622 0.01179 0.33201 0.0
H3154 H 0.3953 0.02603 0.31907 0.0
H3155 H 0.41888 0.02403 0.30387 0.0
H3156 H 0.41231 0.97306 0.29067 0.0
H3157 H 0.38291 0.95882 0.30287 0.0
C3158 C 0.36707 0.97504 0.31793 0.0
C3159 C 0.36051 0.98521 0.32576 0.0
C3160 C 0.38383 0.98316 0.31057 0.0
C3161 C 0.37095 0.00363 0.3261 0.0
C3162 C 0.38757 0.0118 0.31867 0.0
C3163 C 0.4109 0.00981 0.30349 0.0
C3164 C 0.41758 0.99967 0.29589 0.0
C3165 C 0.39414 0.0017 0.31086 0.0
C3166 C 0.40732 0.98121 0.29599 0.0
C3167 C 0.39055 0.97305 0.30307 0.0
H3168 H 0.63756 0.00554 0.32266 0.0
H3169 H 0.60862 0.95337 0.29909 0.0
H3170 H 0.59355 0.9631 0.27903 0.0
H3171 H 0.58996 0.98676 0.26672 0.0
H3172 H 0.61788 0.03875 0.29061 0.0
H3173 H 0.63188 0.02875 0.31202 0.0
C3174 C 0.62784 0.99628 0.31324 0.0
C3175 C 0.62437 0.9788 0.31229 0.0
C3176 C 0.61913 0.00195 0.30168 0.0
C3177 C 0.61162 0.96692 0.30011 0.0
C3178 C 0.603 0.97247 0.28856 0.0
C3179 C 0.59904 0.99588 0.27668 0.0
C3180 C 0.60324 0.01358 0.27676 0.0
C3181 C 0.60688 0.99001 0.28901 0.0
C3182 C 0.61474 0.02515 0.29 0.0
C3183 C 0.62271 0.01943 0.30227 0.0
H3184 H 0.99836 0.63862 0.3151 0.0
H3185 H 0.05122 0.66401 0.29575 0.0
H3186 H 0.04355 0.63934 0.27536 0.0
H3187 H 0.02161 0.61135 0.26177 0.0
H3188 H 0.9689 0.58521 0.28124 0.0
H3189 H 0.97673 0.60929 0.30284 0.0
C3190 C 0.00821 0.63868 0.30651 0.0
C3191 C 0.0253 0.65323 0.30689 0.0
C3192 C 0.00374 0.62435 0.29475 0.0
C3193 C 0.03795 0.65303 0.29574 0.0
C3194 C 0.03359 0.63893 0.28402 0.0
C3195 C 0.01187 0.61086 0.27083 0.0
C3196 C 0.99465 0.59665 0.26974 0.0
C3197 C 0.01648 0.62465 0.28323 0.0
C3198 C 0.9822 0.59612 0.2817 0.0
C3199 C 0.98668 0.60987 0.29404 0.0
H3200 H 0.37279 0.36859 0.31751 0.0
H3201 H 0.3664 0.41409 0.32285 0.0
H3202 H 0.39624 0.43294 0.31287 0.0
H3203 H 0.4242 0.43661 0.30272 0.0
H3204 H 0.43057 0.39123 0.29634 0.0
H3205 H 0.40069 0.3722 0.30654 0.0
C3206 C 0.37798 0.38264 0.31657 0.0
C3207 C 0.36742 0.38993 0.32101 0.0
C3208 C 0.3951 0.39341 0.31053 0.0
C3209 C 0.37425 0.40814 0.31952 0.0
C3210 C 0.39131 0.41894 0.3138 0.0
C3211 C 0.41899 0.42253 0.30344 0.0
C3212 C 0.42953 0.41532 0.29872 0.0
C3213 C 0.40184 0.41172 0.30923 0.0
C3214 C 0.42265 0.39706 0.29983 0.0
C3215 C 0.40561 0.38621 0.3057 0.0
H3216 H 0.30811 0.28624 0.37628 0.0
H3217 H 0.35417 0.32061 0.34688 0.0
H3218 H 0.37022 0.30783 0.36109 0.0
H3219 H 0.37143 0.28771 0.38296 0.0
H3220 H 0.3258 0.25547 0.41401 0.0
H3221 H 0.30935 0.26654 0.39805 0.0
C3222 C 0.3216 0.2908 0.3728 0.0
C3223 C 0.3299 0.30425 0.36045 0.0
C3224 C 0.33085 0.28378 0.38137 0.0
C3225 C 0.34748 0.31023 0.35632 0.0
C3226 C 0.35666 0.30295 0.36447 0.0
C3227 C 0.35782 0.283 0.38605 0.0
C3228 C 0.3498 0.27043 0.39933 0.0
C3229 C 0.34852 0.28984 0.37716 0.0
C3230 C 0.33227 0.26478 0.40357 0.0
C3231 C 0.32283 0.27118 0.3945 0.0
H3232 H 0.68758 0.03499 0.36649 0.0
H3233 H 0.73361 0.02992 0.37174 0.0
H3234 H 0.75153 0.06143 0.37781 0.0
H3235 H 0.7544 0.09063 0.38046 0.0
H3236 H 0.70835 0.09578 0.37704 0.0
H3237 H 0.69017 0.06409 0.37157 0.0
C3238 C 0.70153 0.04081 0.369 0.0
C3239 C 0.70927 0.03015 0.3685 0.0
C3240 C 0.71176 0.05896 0.37276 0.0
C3241 C 0.72732 0.03782 0.37203 0.0
C3242 C 0.73759 0.05585 0.37547 0.0
C3243 C 0.74038 0.0848 0.37856 0.0
C3244 C 0.73283 0.09562 0.3786 0.0
C3245 C 0.72999 0.06657 0.3757 0.0
C3246 C 0.71456 0.08781 0.37659 0.0
C3247 C 0.70415 0.06968 0.37351 0.0
H3248 H 0.96616 0.66544 0.36747 0.0
H3249 H 0.97769 0.71924 0.37261 0.0
H3250 H 0.948 0.70936 0.38246 0.0
H3251 H 0.91855 0.68555 0.38893 0.0
H3252 H 0.90695 0.63171 0.38521 0.0
H3253 H 0.93686 0.64146 0.37563 0.0
C3254 C 0.96214 0.67497 0.37073 0.0
C3255 C 0.97409 0.69304 0.36918 0.0
C3256 C 0.94505 0.6692 0.37668 0.0
C3257 C 0.96876 0.70525 0.37368 0.0
C3258 C 0.95177 0.69963 0.37931 0.0
C3259 C 0.9226 0.67595 0.38614 0.0
C3260 C 0.9105 0.65793 0.38759 0.0
C3261 C 0.9398 0.68165 0.38079 0.0
C3262 C 0.91599 0.64566 0.38404 0.0
C3263 C 0.93307 0.65123 0.37855 0.0
H3264 H 0.36036 0.99255 0.69358 0.0
H3265 H 0.39012 0.04579 0.71435 0.0
H3266 H 0.40686 0.03734 0.73365 0.0
H3267 H 0.41222 0.01463 0.74568 0.0
H3268 H 0.38282 0.96144 0.72496 0.0
H3269 H 0.36673 0.97004 0.70469 0.0
C3270 C 0.37059 0.00232 0.70224 0.0
C3271 C 0.37391 0.01975 0.70254 0.0
C3272 C 0.38022 0.99738 0.71336 0.0
C3273 C 0.38724 0.03226 0.71383 0.0
C3274 C 0.39683 0.02745 0.72492 0.0
C3275 C 0.40251 0.005 0.7365 0.0
C3276 C 0.39898 0.98749 0.73655 0.0
C3277 C 0.39333 0.01003 0.72492 0.0
C3278 C 0.386 0.97506 0.72492 0.0
C3279 C 0.37675 0.97995 0.71339 0.0
H3280 H 0.96662 0.3605 0.70785 0.0
H3281 H 0.01815 0.3683 0.69805 0.0
H3282 H 0.03135 0.39798 0.71107 0.0
H3283 H 0.02821 0.42164 0.72553 0.0
H3284 H 0.97659 0.414 0.73422 0.0
H3285 H 0.96348 0.38431 0.7214 0.0
C3286 C 0.98074 0.36868 0.70853 0.0
C3287 C 0.99138 0.36216 0.70204 0.0
C3288 C 0.98823 0.38572 0.71597 0.0
C3289 C 0.00966 0.373 0.70293 0.0
C3290 C 0.01722 0.38995 0.71042 0.0
C3291 C 0.01409 0.41337 0.72475 0.0
C3292 C 0.00342 0.41981 0.73134 0.0
C3293 C 0.00663 0.39641 0.71707 0.0
C3294 C 0.98512 0.40919 0.72974 0.0
C3295 C 0.97761 0.39225 0.7223 0.0
H3296 H 0.62445 0.6402 0.69785 0.0
H3297 H 0.62961 0.59395 0.70136 0.0
H3298 H 0.60025 0.5775 0.71339 0.0
H3299 H 0.57316 0.57625 0.72317 0.0
H3300 H 0.56816 0.62259 0.72059 0.0
H3301 H 0.59735 0.63898 0.7079 0.0
C3302 C 0.6191 0.62649 0.70116 0.0
C3303 C 0.6292 0.61831 0.69867 0.0
C3304 C 0.60228 0.61716 0.70836 0.0
C3305 C 0.62213 0.60058 0.70315 0.0
C3306 C 0.60534 0.59115 0.71005 0.0
C3307 C 0.57856 0.59 0.72004 0.0
C3308 C 0.56869 0.59833 0.72323 0.0
C3309 C 0.59534 0.59934 0.71283 0.0
C3310 C 0.57567 0.61601 0.71861 0.0
C3311 C 0.5923 0.62535 0.71128 0.0
H3312 H 0.69432 0.72359 0.64595 0.0
H3313 H 0.64439 0.67716 0.65442 0.0
H3314 H 0.62934 0.69199 0.64271 0.0
H3315 H 0.63038 0.71835 0.63033 0.0
H3316 H 0.68037 0.76504 0.62316 0.0
H3317 H 0.69536 0.7499 0.63402 0.0
C3318 C 0.68014 0.71668 0.64521 0.0
C3319 C 0.67051 0.69928 0.65102 0.0
C3320 C 0.67158 0.72532 0.63859 0.0
C3321 C 0.65214 0.69057 0.65005 0.0
C3322 C 0.64351 0.69904 0.64333 0.0
C3323 C 0.64456 0.7251 0.63097 0.0
C3324 C 0.65423 0.74261 0.62543 0.0
C3325 C 0.6531 0.71641 0.63757 0.0
C3326 C 0.6726 0.75141 0.62685 0.0
C3327 C 0.68119 0.7428 0.63317 0.0
H3328 H 0.30547 0.95625 0.65343 0.0
H3329 H 0.27954 0.97401 0.61693 0.0
H3330 H 0.26583 0.94719 0.59912 0.0
H3331 H 0.25712 0.91168 0.59104 0.0
H3332 H 0.28763 0.88949 0.63354 0.0
H3333 H 0.30394 0.92362 0.65146 0.0
C3334 C 0.29691 0.95359 0.642 0.0
C3335 C 0.29307 0.96648 0.63596 0.0
C3336 C 0.28989 0.93734 0.6334 0.0
C3337 C 0.28196 0.96361 0.62096 0.0
C3338 C 0.27398 0.94822 0.61041 0.0
C3339 C 0.26644 0.91412 0.60166 0.0
C3340 C 0.2682 0.89597 0.61225 0.0
C3341 C 0.27645 0.93436 0.61439 0.0
C3342 C 0.28587 0.90003 0.62861 0.0
C3343 C 0.29517 0.92094 0.64024 0.0
H3344 H 0.03267 0.29901 0.64581 0.0
H3345 H 0.03509 0.34765 0.66177 0.0
H3346 H 0.06481 0.36428 0.65055 0.0
H3347 H 0.09017 0.36504 0.63613 0.0
H3348 H 0.088 0.31635 0.62114 0.0
H3349 H 0.05815 0.29974 0.63197 0.0
C3350 C 0.03969 0.31325 0.64686 0.0
C3351 C 0.03163 0.32205 0.6546 0.0
C3352 C 0.0568 0.32274 0.64042 0.0
C3353 C 0.04097 0.34052 0.6559 0.0
C3354 C 0.05796 0.35006 0.64945 0.0
C3355 C 0.08305 0.3508 0.63507 0.0
C3356 C 0.09111 0.342 0.62734 0.0
C3357 C 0.06598 0.34131 0.64162 0.0
C3358 C 0.08195 0.3235 0.62656 0.0
C3359 C 0.06491 0.31398 0.63287 0.0
H3360 H 0.30567 0.3409 0.65157 0.0
H3361 H 0.26256 0.28764 0.64719 0.0
H3362 H 0.24304 0.29838 0.638 0.0
H3363 H 0.238 0.32286 0.63187 0.0
H3364 H 0.28112 0.3761 0.63505 0.0
H3365 H 0.30089 0.36543 0.64396 0.0
C3366 C 0.292 0.33166 0.64862 0.0
C3367 C 0.28555 0.3135 0.65018 0.0
C3368 C 0.28087 0.33792 0.6431 0.0
C3369 C 0.26786 0.30168 0.64611 0.0
C3370 C 0.25667 0.3078 0.64086 0.0
C3371 C 0.25175 0.33212 0.6344 0.0
C3372 C 0.25807 0.35025 0.63293 0.0
C3373 C 0.26302 0.32588 0.63938 0.0
C3374 C 0.27595 0.36209 0.63618 0.0
C3375 C 0.28723 0.35599 0.64129 0.0
H3376 H 0.69779 0.9725 0.64554 0.0
H3377 H 0.64881 0.97 0.65747 0.0
H3378 H 0.63297 0.9387 0.64931 0.0
H3379 H 0.63313 0.91185 0.63949 0.0
H3380 H 0.68233 0.91429 0.62908 0.0
H3381 H 0.69793 0.94589 0.6355 0.0
C3382 C 0.68364 0.96514 0.64633 0.0
C3383 C 0.67452 0.97359 0.65217 0.0
C3384 C 0.67465 0.94713 0.64182 0.0
C3385 C 0.65618 0.96382 0.65311 0.0
C3386 C 0.6471 0.94592 0.6484 0.0
C3387 C 0.64727 0.91927 0.63875 0.0
C3388 C 0.65659 0.91061 0.63425 0.0
C3389 C 0.65621 0.9374 0.64288 0.0
C3390 C 0.67487 0.92056 0.63281 0.0
C3391 C 0.68381 0.93863 0.6365 0.0
H3392 H 0.01867 0.7165 0.63853 0.0
H3393 H 0.02948 0.68403 0.67284 0.0
H3394 H 0.05848 0.69563 0.65985 0.0
H3395 H 0.08047 0.71451 0.63806 0.0
H3396 H 0.06835 0.7453 0.60264 0.0
H3397 H 0.04021 0.73487 0.61676 0.0
C3398 C 0.0274 0.71204 0.64329 0.0
C3399 C 0.02196 0.69949 0.6567 0.0
C3400 C 0.04386 0.71849 0.63555 0.0
C3401 C 0.03336 0.6937 0.66254 0.0
C3402 C 0.04994 0.70032 0.65511 0.0
C3403 C 0.07172 0.71906 0.63362 0.0
C3404 C 0.07678 0.73108 0.61969 0.0
C3405 C 0.05529 0.71266 0.64153 0.0
C3406 C 0.06507 0.73646 0.61366 0.0
C3407 C 0.04889 0.73041 0.62165 0.0
H3408 H 0.99883 0.63583 0.70686 0.0
H3409 H 0.94437 0.5962 0.71059 0.0
H3410 H 0.95258 0.57489 0.72027 0.0
H3411 H 0.97511 0.56717 0.72684 0.0
H3412 H 0.0296 0.6068 0.72443 0.0
H3413 H 0.02152 0.62847 0.71517 0.0
C3414 C 0.98878 0.62254 0.70981 0.0
C3415 C 0.97102 0.61759 0.70788 0.0
C3416 C 0.99359 0.61034 0.71559 0.0
C3417 C 0.95814 0.60036 0.71195 0.0
C3418 C 0.96281 0.58814 0.71747 0.0
C3419 C 0.98522 0.58058 0.72437 0.0
C3420 C 0.00292 0.58532 0.72607 0.0
C3421 C 0.98047 0.59295 0.71923 0.0
C3422 C 0.01587 0.6028 0.72301 0.0
C3423 C 0.01126 0.61517 0.71772 0.0
H3424 H 0.38217 0.36107 0.7179 0.0
H3425 H 0.3502 0.37167 0.68228 0.0
H3426 H 0.36125 0.40074 0.6964 0.0
H3427 H 0.37957 0.42286 0.71951 0.0
H3428 H 0.40949 0.41065 0.7564 0.0
H3429 H 0.3997 0.38256 0.74115 0.0
C3430 C 0.37773 0.3698 0.71311 0.0
C3431 C 0.36551 0.3643 0.69898 0.0
C3432 C 0.38379 0.38623 0.72154 0.0
C3433 C 0.35964 0.37563 0.69312 0.0
C3434 C 0.36595 0.39224 0.7012 0.0
C3435 C 0.38405 0.41408 0.72405 0.0
C3436 C 0.39568 0.41915 0.73872 0.0
C3437 C 0.37796 0.39764 0.7155 0.0
C3438 C 0.40096 0.4074 0.74484 0.0
C3439 C 0.39528 0.39125 0.73619 0.0
H3440 H 0.62761 0.99641 0.69223 0.0
H3441 H 0.64694 0.04945 0.71213 0.0
H3442 H 0.62093 0.03964 0.73004 0.0
H3443 H 0.59366 0.01584 0.74155 0.0
H3444 H 0.57361 0.96284 0.72142 0.0
H3445 H 0.599 0.97277 0.70221 0.0
C3446 C 0.62603 0.00584 0.70035 0.0
C3447 C 0.63927 0.02362 0.70089 0.0
C3448 C 0.61097 1.00012 0.71066 0.0
C3449 C 0.63699 0.03568 0.71144 0.0
C3450 C 0.62213 0.03008 0.72176 0.0
C3451 C 0.59463 0.0065 0.73271 0.0
C3452 C 0.58158 0.98865 0.73268 0.0
C3453 C 0.60917 0.01231 0.72167 0.0
C3454 C 0.58335 0.97668 0.72145 0.0
C3455 C 0.59788 0.98235 0.71053 0.0
loop_
_geom_bond_atom_site_label_1
_geom_bond_atom_site_label_2
_geom_bond_distance
_geom_bond_site_symmetry_2
_ccdc_geom_bond_type
O0 Cd1 2.223 . S
O0 C8 1.315 . S
Cd1 O0 2.223 . S
Cd1 O4 2.297 . S
Cd1 O5 2.439 . S
Cd1 O11 2.240 1_554 S
Cd2 O3 2.240 . S
Cd2 O10 2.223 1_554 S
Cd2 O12 2.297 1_554 S
Cd2 O13 2.439 1_554 S
O3 Cd2 2.240 . S
O3 C8 1.279 1_655 S
O4 Cd1 2.297 . S
O4 C6 1.247 . S
O5 Cd1 2.439 . S
O5 C6 1.208 . S
C6 O4 1.247 . S
C6 O5 1.208 . S
C7 O12 1.247 . S
C7 O13 1.208 . S
C8 O0 1.315 . S
C8 O3 1.279 1_455 S
C9 O10 1.315 1_455 S
C9 O11 1.279 . S
O10 Cd2 2.223 1_556 S
O10 C9 1.315 1_655 S
O11 Cd1 2.240 1_556 S
O11 C9 1.279 . S
O12 Cd2 2.297 1_556 S
O12 C7 1.247 . S
O13 Cd2 2.439 1_556 S
O13 C7 1.208 . S
O14 Cd15 2.223 . S
O14 C22 1.315 . S
Cd15 O14 2.223 . S
Cd15 O18 2.297 . S
Cd15 O19 2.439 . S
Cd15 O25 2.240 1_554 S
Cd16 O17 2.240 . S
Cd16 O24 2.223 1_554 S
Cd16 O26 2.297 1_554 S
Cd16 O27 2.418 1_554 S
O17 Cd16 2.240 . S
O17 C22 1.279 . S
O18 Cd15 2.297 . S
O18 C20 1.247 . S
O19 Cd15 2.439 . S
O19 C20 1.208 . S
C20 O18 1.247 . S
C20 O19 1.208 . S
C21 O26 1.247 . S
C21 O27 1.250 . S
C22 O14 1.315 . S
C22 O17 1.279 . S
C23 O24 1.315 . S
C23 O25 1.279 . S
O24 Cd16 2.223 1_556 S
O24 C23 1.315 . S
O25 Cd15 2.240 1_556 S
O25 C23 1.279 . S
O26 Cd16 2.297 1_556 S
O26 C21 1.247 . S
O27 Cd16 2.418 1_556 S
O27 C21 1.250 . S
O28 Cd29 2.223 1_556 S
O28 C36 1.315 . S
Cd29 O28 2.223 1_554 S
Cd29 O32 2.297 1_554 S
Cd29 O33 2.439 1_554 S
Cd29 O39 2.240 . S
Cd30 O31 2.240 1_554 S
Cd30 O38 2.223 . S
Cd30 O40 2.297 . S
Cd30 O41 2.439 . S
O31 Cd30 2.240 1_556 S
O31 C36 1.279 1_565 S
O32 Cd29 2.297 1_556 S
O32 C34 1.247 . S
O33 Cd29 2.439 1_556 S
O33 C34 1.208 . S
C34 O32 1.247 . S
C34 O33 1.208 . S
C35 O40 1.247 . S
C35 O41 1.208 . S
C36 O28 1.315 . S
C36 O31 1.279 1_545 S
C37 O38 1.315 1_545 S
C37 O39 1.279 . S
O38 Cd30 2.223 . S
O38 C37 1.315 1_565 S
O39 Cd29 2.240 . S
O39 C37 1.279 . S
O40 Cd30 2.297 . S
O40 C35 1.247 . S
O41 Cd30 2.439 . S
O41 C35 1.208 . S
O42 Cd43 2.223 1_556 S
O42 C50 1.347 . S
Cd43 O42 2.223 1_554 S
Cd43 O46 2.297 1_554 S
Cd43 O47 2.439 1_554 S
Cd43 O53 2.240 . S
Cd44 O45 2.240 1_554 S
Cd44 O52 2.223 . S
Cd44 O54 2.297 . S
Cd44 O55 2.439 . S
O45 Cd44 2.240 1_556 S
O45 C50 1.280 1_455 S
O46 Cd43 2.297 1_556 S
O46 C48 1.247 . S
O47 Cd43 2.439 1_556 S
O47 C48 1.208 . S
C48 O46 1.247 . S
C48 O47 1.208 . S
C49 O54 1.247 . S
C49 O55 1.208 . S
C50 O42 1.347 . S
C50 O45 1.280 1_655 S
C51 O52 1.370 . S
C51 O53 1.229 1_455 S
O52 Cd44 2.223 . S
O52 C51 1.370 . S
O53 Cd43 2.240 . S
O53 C51 1.229 1_655 S
O54 Cd44 2.297 . S
O54 C49 1.247 . S
O55 Cd44 2.439 . S
O55 C49 1.208 . S
O56 Cd57 2.223 . S
O56 C64 1.315 . S
Cd57 O56 2.223 . S
Cd57 O60 2.297 . S
Cd57 O61 2.439 . S
Cd57 O67 2.240 1_556 S
Cd58 O59 2.240 1_554 S
Cd58 O66 2.223 . S
Cd58 O68 2.297 . S
Cd58 O69 2.439 . S
O59 Cd58 2.240 1_556 S
O59 C64 1.279 . S
O60 Cd57 2.297 . S
O60 C62 1.247 . S
O61 Cd57 2.439 . S
O61 C62 1.208 . S
C62 O60 1.247 . S
C62 O61 1.208 . S
C63 O68 1.247 . S
C63 O69 1.208 . S
C64 O56 1.315 . S
C64 O59 1.279 . S
C65 O66 1.315 . S
C65 O67 1.279 . S
O66 Cd58 2.223 . S
O66 C65 1.315 . S
O67 Cd57 2.240 1_554 S
O67 C65 1.279 . S
O68 Cd58 2.297 . S
O68 C63 1.247 . S
O69 Cd58 2.439 . S
O69 C63 1.208 . S
O70 Cd71 2.223 . S
O70 C78 1.309 . S
Cd71 O70 2.223 . S
Cd71 O74 2.297 . S
Cd71 O75 2.439 . S
Cd71 O81 2.240 1_554 S
Cd72 O73 2.240 . S
Cd72 O80 2.223 1_554 S
Cd72 O82 2.297 1_554 S
Cd72 O83 2.439 1_554 S
O73 Cd72 2.240 . S
O73 C78 1.279 1_545 S
O74 Cd71 2.297 . S
O74 C76 1.247 . S
O75 Cd71 2.439 . S
O75 C76 1.208 . S
C76 O74 1.247 . S
C76 O75 1.208 . S
C77 O82 1.247 . S
C77 O83 1.208 . S
C78 O70 1.309 . S
C78 O73 1.279 1_565 S
C79 O80 1.353 . S
C79 O81 1.244 1_545 S
O80 Cd72 2.223 1_556 S
O80 C79 1.353 . S
O81 Cd71 2.240 1_556 S
O81 C79 1.244 1_565 S
O82 Cd72 2.297 1_556 S
O82 C77 1.247 . S
O83 Cd72 2.439 1_556 S
O83 C77 1.208 . S
O84 Cd85 2.223 . S
O84 C92 1.315 . S
Cd85 O84 2.223 . S
Cd85 O88 2.297 . S
Cd85 O89 2.439 . S
Cd85 O95 2.240 . S
Cd86 O87 2.240 . S
Cd86 O94 2.223 . S
Cd86 O96 2.297 . S
Cd86 O97 2.439 . S
O87 Cd86 2.240 . S
O87 C92 1.279 . S
O88 Cd85 2.297 . S
O88 C90 1.247 . S
O89 Cd85 2.439 . S
O89 C90 1.208 . S
C90 O88 1.247 . S
C90 O89 1.208 . S
C91 O96 1.247 . S
C91 O97 1.208 . S
C92 O84 1.315 . S
C92 O87 1.279 . S
C93 O94 1.315 . S
C93 O95 1.279 . S
O94 Cd86 2.223 . S
O94 C93 1.315 . S
O95 Cd85 2.240 . S
O95 C93 1.279 . S
O96 Cd86 2.297 . S
O96 C91 1.247 . S
O97 Cd86 2.439 . S
O97 C91 1.208 . S
O98 Cd99 2.223 . S
O98 C106 1.315 . S
Cd99 O98 2.223 . S
Cd99 O102 2.297 1_565 S
Cd99 O103 2.439 1_565 S
Cd99 O109 2.240 . S
Cd100 O101 2.240 . S
Cd100 O108 2.223 . S
Cd100 O110 2.297 . S
Cd100 O111 2.439 . S
O101 Cd100 2.240 . S
O101 C106 1.279 . S
O102 Cd99 2.297 1_545 S
O102 C104 1.247 . S
O103 Cd99 2.439 1_545 S
O103 C104 1.208 . S
C104 O102 1.247 . S
C104 O103 1.208 . S
C105 O110 1.247 . S
C105 O111 1.208 . S
C106 O98 1.315 . S
C106 O101 1.279 . S
C107 O108 1.315 . S
C107 O109 1.279 . S
O108 Cd100 2.223 . S
O108 C107 1.315 . S
O109 Cd99 2.240 . S
O109 C107 1.279 . S
O110 Cd100 2.297 . S
O110 C105 1.247 . S
O111 Cd100 2.439 . S
O111 C105 1.208 . S
O112 Cd113 2.223 . S
O112 C120 1.315 . S
Cd113 O112 2.223 . S
Cd113 O116 2.297 . S
Cd113 O117 2.439 . S
Cd113 O123 2.240 . S
Cd114 O115 2.240 . S
Cd114 O122 2.223 . S
Cd114 O124 2.297 1_455 S
Cd114 O125 2.439 1_455 S
O115 Cd114 2.240 . S
O115 C120 1.279 . S
O116 Cd113 2.297 . S
O116 C118 1.247 . S
O117 Cd113 2.439 . S
O117 C118 1.208 . S
C118 O116 1.247 . S
C118 O117 1.208 . S
C119 O124 1.247 . S
C119 O125 1.208 . S
C120 O112 1.315 . S
C120 O115 1.279 . S
C121 O122 1.315 . S
C121 O123 1.279 . S
O122 Cd114 2.223 . S
O122 C121 1.315 . S
O123 Cd113 2.240 . S
O123 C121 1.279 . S
O124 Cd114 2.297 1_655 S
O124 C119 1.247 . S
O125 Cd114 2.439 1_655 S
O125 C119 1.208 . S
O126 Cd127 2.223 . S
O126 C134 1.315 . S
Cd127 O126 2.223 . S
Cd127 O130 2.297 . S
Cd127 O131 2.439 . S
Cd127 O137 2.240 . S
Cd128 O129 2.240 . S
Cd128 O136 2.223 . S
Cd128 O138 2.297 1_565 S
Cd128 O139 2.439 1_565 S
O129 Cd128 2.240 . S
O129 C134 1.279 . S
O130 Cd127 2.297 . S
O130 C132 1.247 . S
O131 Cd127 2.439 . S
O131 C132 1.208 . S
C132 O130 1.247 . S
C132 O131 1.208 . S
C133 O138 1.247 . S
C133 O139 1.208 . S
C134 O126 1.315 . S
C134 O129 1.279 . S
C135 O136 1.315 . S
C135 O137 1.279 . S
O136 Cd128 2.223 . S
O136 C135 1.315 . S
O137 Cd127 2.240 . S
O137 C135 1.279 . S
O138 Cd128 2.297 1_545 S
O138 C133 1.247 . S
O139 Cd128 2.439 1_545 S
O139 C133 1.208 . S
O140 Cd141 2.223 . S
O140 C148 1.315 . S
Cd141 O140 2.223 . S
Cd141 O144 2.297 . S
Cd141 O145 2.439 . S
Cd141 O151 2.240 . S
Cd142 O143 2.240 . S
Cd142 O150 2.223 . S
Cd142 O152 2.297 1_455 S
Cd142 O153 2.439 1_455 S
O143 Cd142 2.240 . S
O143 C148 1.279 . S
O144 Cd141 2.297 . S
O144 C146 1.247 . S
O145 Cd141 2.439 . S
O145 C146 1.208 . S
C146 O144 1.247 . S
C146 O145 1.208 . S
C147 O152 1.247 . S
C147 O153 1.208 . S
C148 O140 1.315 . S
C148 O143 1.279 . S
C149 O150 1.315 . S
C149 O151 1.279 . S
O150 Cd142 2.223 . S
O150 C149 1.315 . S
O151 Cd141 2.240 . S
O151 C149 1.279 . S
O152 Cd142 2.297 1_655 S
O152 C147 1.247 . S
O153 Cd142 2.439 1_655 S
O153 C147 1.208 . S
O154 Cd155 2.223 . S
O154 C162 1.315 . S
Cd155 O154 2.223 . S
Cd155 O158 2.297 . S
Cd155 O159 2.439 . S
Cd155 O165 2.240 . S
Cd156 O157 2.240 . S
Cd156 O164 2.223 . S
Cd156 O166 2.297 . S
Cd156 O167 2.439 . S
O157 Cd156 2.240 . S
O157 C162 1.279 . S
O158 Cd155 2.297 . S
O158 C160 1.247 . S
O159 Cd155 2.439 . S
O159 C160 1.208 . S
C160 O158 1.247 . S
C160 O159 1.208 . S
C161 O166 1.247 . S
C161 O167 1.208 . S
C162 O154 1.315 . S
C162 O157 1.279 . S
C163 O164 1.315 . S
C163 O165 1.279 . S
O164 Cd156 2.223 . S
O164 C163 1.315 . S
O165 Cd155 2.240 . S
O165 C163 1.279 . S
O166 Cd156 2.297 . S
O166 C161 1.247 . S
O167 Cd156 2.439 . S
O167 C161 1.208 . S
O168 Cd169 2.223 . S
O168 C176 1.315 . S
Cd169 O168 2.223 . S
Cd169 O172 2.297 . S
Cd169 O173 2.439 . S
Cd169 O179 2.240 . S
Cd170 O171 2.240 . S
Cd170 O178 2.223 . S
Cd170 O180 2.297 1_545 S
Cd170 O181 2.439 1_545 S
O171 Cd170 2.240 . S
O171 C176 1.279 . S
O172 Cd169 2.297 . S
O172 C174 1.247 . S
O173 Cd169 2.439 . S
O173 C174 1.208 . S
C174 O172 1.247 . S
C174 O173 1.208 . S
C175 O180 1.247 . S
C175 O181 1.208 . S
C176 O168 1.315 . S
C176 O171 1.279 . S
C177 O178 1.315 . S
C177 O179 1.279 . S
O178 Cd170 2.223 . S
O178 C177 1.315 . S
O179 Cd169 2.240 . S
O179 C177 1.279 . S
O180 Cd170 2.297 1_565 S
O180 C175 1.247 . S
O181 Cd170 2.439 1_565 S
O181 C175 1.208 . S
O182 Cd183 2.223 . S
O182 C190 1.315 . S
Cd183 O182 2.223 . S
Cd183 O186 2.297 . S
Cd183 O187 2.439 . S
Cd183 O193 2.240 . S
Cd184 O185 2.240 . S
Cd184 O192 2.223 . S
Cd184 O194 2.297 1_655 S
Cd184 O195 2.439 1_655 S
O185 Cd184 2.240 . S
O185 C190 1.279 . S
O186 Cd183 2.297 . S
O186 C188 1.247 . S
O187 Cd183 2.439 . S
O187 C188 1.208 . S
C188 O186 1.247 . S
C188 O187 1.208 . S
C189 O194 1.247 . S
C189 O195 1.208 . S
C190 O182 1.315 . S
C190 O185 1.279 . S
C191 O192 1.315 . S
C191 O193 1.279 . S
O192 Cd184 2.223 . S
O192 C191 1.315 . S
O193 Cd183 2.240 . S
O193 C191 1.279 . S
O194 Cd184 2.297 1_455 S
O194 C189 1.247 . S
O195 Cd184 2.439 1_455 S
O195 C189 1.208 . S
O196 Cd197 2.223 . S
O196 C204 1.315 . S
Cd197 O196 2.223 . S
Cd197 O200 2.297 . S
Cd197 O201 2.439 . S
Cd197 O207 2.240 . S
Cd198 O199 2.240 . S
Cd198 O206 2.223 . S
Cd198 O208 2.297 . S
Cd198 O209 2.439 . S
O199 Cd198 2.240 . S
O199 C204 1.279 . S
O200 Cd197 2.297 . S
O200 C202 1.247 . S
O201 Cd197 2.439 . S
O201 C202 1.208 . S
C202 O200 1.247 . S
C202 O201 1.208 . S
C203 O208 1.247 . S
C203 O209 1.208 . S
C204 O196 1.315 . S
C204 O199 1.279 . S
C205 O206 1.315 . S
C205 O207 1.279 . S
O206 Cd198 2.223 . S
O206 C205 1.315 . S
O207 Cd197 2.240 . S
O207 C205 1.279 . S
O208 Cd198 2.297 . S
O208 C203 1.247 . S
O209 Cd198 2.439 . S
O209 C203 1.208 . S
O210 Cd211 2.223 . S
O210 C218 1.315 . S
Cd211 O210 2.223 . S
Cd211 O214 2.297 . S
Cd211 O215 2.439 . S
Cd211 O221 2.240 . S
Cd212 O213 2.240 . S
Cd212 O220 2.223 . S
Cd212 O222 2.297 . S
Cd212 O223 2.439 . S
O213 Cd212 2.240 . S
O213 C218 1.279 . S
O214 Cd211 2.297 . S
O214 C216 1.247 . S
O215 Cd211 2.439 . S
O215 C216 1.208 . S
C216 O214 1.247 . S
C216 O215 1.208 . S
C217 O222 1.247 . S
C217 O223 1.208 . S
C218 O210 1.315 . S
C218 O213 1.279 . S
C219 O220 1.315 . S
C219 O221 1.279 . S
O220 Cd212 2.223 . S
O220 C219 1.315 . S
O221 Cd211 2.240 . S
O221 C219 1.279 . S
O222 Cd212 2.297 . S
O222 C217 1.247 . S
O223 Cd212 2.439 . S
O223 C217 1.208 . S
O224 Cd225 2.223 . S
O224 C232 1.315 . S
Cd225 O224 2.223 . S
Cd225 O228 2.297 1_545 S
Cd225 O229 2.439 1_545 S
Cd225 O235 2.240 . S
Cd226 O227 2.240 . S
Cd226 O234 2.223 . S
Cd226 O236 2.297 . S
Cd226 O237 2.439 . S
O227 Cd226 2.240 . S
O227 C232 1.279 . S
O228 Cd225 2.297 1_565 S
O228 C230 1.247 . S
O229 Cd225 2.439 1_565 S
O229 C230 1.208 . S
C230 O228 1.247 . S
C230 O229 1.208 . S
C231 O236 1.247 . S
C231 O237 1.208 . S
C232 O224 1.315 . S
C232 O227 1.279 . S
C233 O234 1.315 . S
C233 O235 1.279 . S
O234 Cd226 2.223 . S
O234 C233 1.315 . S
O235 Cd225 2.240 . S
O235 C233 1.279 . S
O236 Cd226 2.297 . S
O236 C231 1.247 . S
O237 Cd226 2.439 . S
O237 C231 1.208 . S
O238 Cd239 2.223 . S
O238 C246 1.315 . S
Cd239 O238 2.223 . S
Cd239 O242 2.297 . S
Cd239 O243 2.439 . S
Cd239 O249 2.240 . S
Cd240 O241 2.240 . S
Cd240 O248 2.223 . S
Cd240 O250 2.297 1_655 S
Cd240 O251 2.439 1_655 S
O241 Cd240 2.240 . S
O241 C246 1.279 . S
O242 Cd239 2.297 . S
O242 C244 1.247 . S
O243 Cd239 2.439 . S
O243 C244 1.208 . S
C244 O242 1.247 . S
C244 O243 1.208 . S
C245 O250 1.247 . S
C245 O251 1.208 . S
C246 O238 1.315 . S
C246 O241 1.279 . S
C247 O248 1.315 . S
C247 O249 1.279 . S
O248 Cd240 2.223 . S
O248 C247 1.315 . S
O249 Cd239 2.240 . S
O249 C247 1.279 . S
O250 Cd240 2.297 1_455 S
O250 C245 1.247 . S
O251 Cd240 2.439 1_455 S
O251 C245 1.208 . S
C252 C253 1.560 . S
C252 H313 0.959 . S
C252 H314 0.959 . S
C252 H315 0.960 . S
C253 C252 1.560 . S
C253 O308 1.426 . S
C253 H312 0.980 . S
C254 C255 1.407 . S
C254 C259 1.418 . S
C254 O308 1.334 . S
C255 C254 1.407 . S
C255 C256 1.360 . S
C255 H316 0.929 . S
C256 C255 1.360 . S
C256 C257 1.401 . S
C256 C260 1.527 . S
C257 C256 1.401 . S
C257 C258 1.405 . S
C257 C290 1.587 . S
C258 C257 1.405 . S
C258 C259 1.332 . S
C258 C261 1.496 . S
C259 C254 1.418 . S
C259 C258 1.332 . S
C259 H317 0.929 . S
C260 C256 1.527 . S
C260 H318 0.959 . S
C260 H319 0.961 . S
C260 H320 0.961 . S
C261 C258 1.496 . S
C261 H321 0.960 . S
C261 H322 0.960 . S
C261 H323 0.961 . S
C262 C263 1.517 . S
C262 H325 0.961 . S
C262 H326 0.960 . S
C262 H327 0.959 . S
C263 C262 1.517 . S
C263 O311 1.468 . S
C263 H324 0.980 . S
C264 C265 1.349 . S
C264 C269 1.367 . S
C264 O311 1.408 . S
C265 C264 1.349 . S
C265 C266 1.407 . S
C265 H328 0.930 . S
C266 C265 1.407 . S
C266 C267 1.449 . S
C266 C270 1.535 . S
C267 C266 1.449 . S
C267 C268 1.384 . S
C267 C292 1.553 . S
C268 C267 1.384 . S
C268 C269 1.364 . S
C268 C271 1.450 . S
C269 C264 1.367 . S
C269 C268 1.364 . S
C269 H329 0.931 . S
C270 C266 1.535 . S
C270 H330 0.959 . S
C270 H331 0.961 . S
C270 H332 0.959 . S
C271 C268 1.450 . S
C271 H333 0.960 . S
C271 H334 0.960 . S
C271 H335 0.960 . S
C272 C273 1.309 . S
C272 C277 1.304 . S
C272 O310 1.435 . S
C273 C272 1.309 . S
C273 C274 1.476 . S
C273 H337 0.930 . S
C274 C273 1.476 . S
C274 C275 1.400 . S
C274 C278 1.567 . S
C275 C274 1.400 . S
C275 C276 1.373 . S
C275 C297 1.432 . S
C276 C275 1.373 . S
C276 C277 1.339 . S
C276 C279 1.530 . S
C277 C272 1.304 . S
C277 C276 1.339 . S
C277 H338 0.930 . S
C278 C274 1.567 . S
C278 H339 0.961 . S
C278 H340 0.960 . S
C278 H341 0.958 . S
C279 C276 1.530 . S
C279 H342 0.961 . S
C279 H343 0.960 . S
C279 H344 0.960 . S
C280 C281 1.530 . S
C280 H346 0.961 . S
C280 H347 0.961 . S
C280 H348 0.959 . S
C281 C280 1.530 . S
C281 O309 1.412 . S
C281 H345 0.980 . S
C282 C283 1.288 . S
C282 C287 1.377 . S
C282 O309 1.393 . S
C283 C282 1.288 . S
C283 C284 1.369 . S
C283 H349 0.932 . S
C284 C283 1.369 . S
C284 C285 1.398 . S
C284 C288 1.527 . S
C285 C284 1.398 . S
C285 C286 1.380 . S
C285 C299 1.497 . S
C286 C285 1.380 . S
C286 C287 1.383 . S
C286 C289 1.603 . S
C287 C282 1.377 . S
C287 C286 1.383 . S
C287 H350 0.929 . S
C288 C284 1.527 . S
C288 H351 0.961 . S
C288 H352 0.959 . S
C288 H353 0.959 . S
C289 C286 1.603 . S
C289 H354 0.960 . S
C289 H355 0.962 . S
C289 H356 0.961 . S
C290 C257 1.587 . S
C290 C291 1.360 . S
C290 C303 1.412 . S
C291 C290 1.360 . S
C291 C292 1.365 . S
C291 H357 0.929 . S
C292 C267 1.553 . S
C292 C291 1.365 . S
C292 C293 1.404 . S
C293 C292 1.404 . S
C293 C294 1.395 . S
C293 C304 1.451 . S
C294 C293 1.395 . S
C294 C295 1.322 . S
C294 H358 0.930 . S
C295 C294 1.322 . S
C295 C296 1.459 . S
C295 H359 0.929 . S
C296 C295 1.459 . S
C296 C297 1.445 . S
C296 C305 1.395 . S
C297 C275 1.432 . S
C297 C296 1.445 . S
C297 C298 1.370 . S
C298 C297 1.370 . S
C298 C299 1.438 . S
C298 H360 0.930 . S
C299 C285 1.497 . S
C299 C298 1.438 . S
C299 C300 1.360 . S
C300 C299 1.360 . S
C300 C301 1.401 . S
C300 C305 1.446 . S
C301 C300 1.401 . S
C301 C302 1.347 . S
C301 H361 0.929 . S
C302 C301 1.347 . S
C302 C303 1.455 . S
C302 H362 0.930 . S
C303 C290 1.412 . S
C303 C302 1.455 . S
C303 C304 1.331 . S
C304 C293 1.451 . S
C304 C303 1.331 . S
C304 C305 1.497 . S
C305 C296 1.395 . S
C305 C300 1.446 . S
C305 C304 1.497 . S
C306 C307 1.582 . S
C306 H363 0.962 . S
C306 H364 0.959 . S
C306 H365 0.958 . S
C307 C306 1.582 . S
C307 O310 1.458 . S
C307 H336 0.980 . S
O308 C253 1.426 . S
O308 C254 1.334 . S
O309 C281 1.412 . S
O309 C282 1.393 . S
O310 C272 1.435 . S
O310 C307 1.458 . S
O311 C263 1.468 . S
O311 C264 1.408 . S
H312 C253 0.980 . S
H313 C252 0.959 . S
H314 C252 0.959 . S
H315 C252 0.960 . S
H316 C255 0.929 . S
H317 C259 0.929 . S
H318 C260 0.959 . S
H319 C260 0.961 . S
H320 C260 0.961 . S
H321 C261 0.960 . S
H322 C261 0.960 . S
H323 C261 0.961 . S
H324 C263 0.980 . S
H325 C262 0.961 . S
H326 C262 0.960 . S
H327 C262 0.959 . S
H328 C265 0.930 . S
H329 C269 0.931 . S
H330 C270 0.959 . S
H331 C270 0.961 . S
H332 C270 0.959 . S
H333 C271 0.960 . S
H334 C271 0.960 . S
H335 C271 0.960 . S
H336 C307 0.980 . S
H337 C273 0.930 . S
H338 C277 0.930 . S
H339 C278 0.961 . S
H340 C278 0.960 . S
H341 C278 0.958 . S
H342 C279 0.961 . S
H343 C279 0.960 . S
H344 C279 0.960 . S
H345 C281 0.980 . S
H346 C280 0.961 . S
H347 C280 0.961 . S
H348 C280 0.959 . S
H349 C283 0.932 . S
H350 C287 0.929 . S
H351 C288 0.961 . S
H352 C288 0.959 . S
H353 C288 0.959 . S
H354 C289 0.960 . S
H355 C289 0.962 . S
H356 C289 0.961 . S
H357 C291 0.929 . S
H358 C294 0.930 . S
H359 C295 0.929 . S
H360 C298 0.930 . S
H361 C301 0.929 . S
H362 C302 0.930 . S
H363 C306 0.962 . S
H364 C306 0.959 . S
H365 C306 0.958 . S
C366 C367 1.560 . S
C366 H427 0.959 . S
C366 H428 0.959 . S
C366 H429 0.960 . S
C367 C366 1.560 . S
C367 O422 1.426 . S
C367 H426 0.980 . S
C368 C369 1.407 . S
C368 C373 1.418 . S
C368 O422 1.334 . S
C369 C368 1.407 . S
C369 C370 1.360 . S
C369 H430 0.929 . S
C370 C369 1.360 . S
C370 C371 1.401 . S
C370 C374 1.527 . S
C371 C370 1.401 . S
C371 C372 1.405 . S
C371 C404 1.587 . S
C372 C371 1.405 . S
C372 C373 1.332 . S
C372 C375 1.496 . S
C373 C368 1.418 . S
C373 C372 1.332 . S
C373 H431 0.929 . S
C374 C370 1.527 . S
C374 H432 0.959 . S
C374 H433 0.961 . S
C374 H434 0.961 . S
C375 C372 1.496 . S
C375 H435 0.960 . S
C375 H436 0.960 . S
C375 H437 0.961 . S
C376 C377 1.517 . S
C376 H439 0.961 . S
C376 H440 0.960 . S
C376 H441 0.959 . S
C377 C376 1.517 . S
C377 O425 1.468 . S
C377 H438 0.980 . S
C378 C379 1.349 . S
C378 C383 1.367 . S
C378 O425 1.408 . S
C379 C378 1.349 . S
C379 C380 1.407 . S
C379 H442 0.930 . S
C380 C379 1.407 . S
C380 C381 1.449 . S
C380 C384 1.535 . S
C381 C380 1.449 . S
C381 C382 1.384 . S
C381 C406 1.553 . S
C382 C381 1.384 . S
C382 C383 1.364 . S
C382 C385 1.450 . S
C383 C378 1.367 . S
C383 C382 1.364 . S
C383 H443 0.931 . S
C384 C380 1.535 . S
C384 H444 0.959 . S
C384 H445 0.961 . S
C384 H446 0.959 . S
C385 C382 1.450 . S
C385 H447 0.960 . S
C385 H448 0.960 . S
C385 H449 0.960 . S
C386 C387 1.309 . S
C386 C391 1.304 . S
C386 O424 1.435 . S
C387 C386 1.309 . S
C387 C388 1.476 . S
C387 H451 0.930 . S
C388 C387 1.476 . S
C388 C389 1.400 . S
C388 C392 1.567 . S
C389 C388 1.400 . S
C389 C390 1.373 . S
C389 C411 1.432 . S
C390 C389 1.373 . S
C390 C391 1.339 . S
C390 C393 1.530 . S
C391 C386 1.304 . S
C391 C390 1.339 . S
C391 H452 0.930 . S
C392 C388 1.567 . S
C392 H453 0.961 . S
C392 H454 0.960 . S
C392 H455 0.958 . S
C393 C390 1.530 . S
C393 H456 0.961 . S
C393 H457 0.960 . S
C393 H458 0.960 . S
C394 C395 1.530 . S
C394 H460 0.961 . S
C394 H461 0.961 . S
C394 H462 0.959 . S
C395 C394 1.530 . S
C395 O423 1.412 . S
C395 H459 0.980 . S
C396 C397 1.288 . S
C396 C401 1.377 . S
C396 O423 1.393 . S
C397 C396 1.288 . S
C397 C398 1.369 . S
C397 H463 0.932 . S
C398 C397 1.369 . S
C398 C399 1.398 . S
C398 C402 1.527 . S
C399 C398 1.398 . S
C399 C400 1.380 . S
C399 C413 1.497 . S
C400 C399 1.380 . S
C400 C401 1.383 . S
C400 C403 1.603 . S
C401 C396 1.377 . S
C401 C400 1.383 . S
C401 H464 0.929 . S
C402 C398 1.527 . S
C402 H465 0.961 . S
C402 H466 0.959 . S
C402 H467 0.959 . S
C403 C400 1.603 . S
C403 H468 0.960 . S
C403 H469 0.962 . S
C403 H470 0.961 . S
C404 C371 1.587 . S
C404 C405 1.360 . S
C404 C417 1.412 . S
C405 C404 1.360 . S
C405 C406 1.365 . S
C405 H471 0.929 . S
C406 C381 1.553 . S
C406 C405 1.365 . S
C406 C407 1.404 . S
C407 C406 1.404 . S
C407 C408 1.395 . S
C407 C418 1.451 . S
C408 C407 1.395 . S
C408 C409 1.322 . S
C408 H472 0.930 . S
C409 C408 1.322 . S
C409 C410 1.459 . S
C409 H473 0.929 . S
C410 C409 1.459 . S
C410 C411 1.445 . S
C410 C419 1.395 . S
C411 C389 1.432 . S
C411 C410 1.445 . S
C411 C412 1.370 . S
C412 C411 1.370 . S
C412 C413 1.438 . S
C412 H474 0.930 . S
C413 C399 1.497 . S
C413 C412 1.438 . S
C413 C414 1.360 . S
C414 C413 1.360 . S
C414 C415 1.401 . S
C414 C419 1.446 . S
C415 C414 1.401 . S
C415 C416 1.347 . S
C415 H475 0.929 . S
C416 C415 1.347 . S
C416 C417 1.455 . S
C416 H476 0.930 . S
C417 C404 1.412 . S
C417 C416 1.455 . S
C417 C418 1.331 . S
C418 C407 1.451 . S
C418 C417 1.331 . S
C418 C419 1.497 . S
C419 C410 1.395 . S
C419 C414 1.446 . S
C419 C418 1.497 . S
C420 C421 1.582 . S
C420 H477 0.962 . S
C420 H478 0.959 . S
C420 H479 0.958 . S
C421 C420 1.582 . S
C421 O424 1.458 . S
C421 H450 0.980 . S
O422 C367 1.426 . S
O422 C368 1.334 . S
O423 C395 1.412 . S
O423 C396 1.393 . S
O424 C386 1.435 . S
O424 C421 1.458 . S
O425 C377 1.468 . S
O425 C378 1.408 . S
H426 C367 0.980 . S
H427 C366 0.959 . S
H428 C366 0.959 . S
H429 C366 0.960 . S
H430 C369 0.929 . S
H431 C373 0.929 . S
H432 C374 0.959 . S
H433 C374 0.961 . S
H434 C374 0.961 . S
H435 C375 0.960 . S
H436 C375 0.960 . S
H437 C375 0.961 . S
H438 C377 0.980 . S
H439 C376 0.961 . S
H440 C376 0.960 . S
H441 C376 0.959 . S
H442 C379 0.930 . S
H443 C383 0.931 . S
H444 C384 0.959 . S
H445 C384 0.961 . S
H446 C384 0.959 . S
H447 C385 0.960 . S
H448 C385 0.960 . S
H449 C385 0.960 . S
H450 C421 0.980 . S
H451 C387 0.930 . S
H452 C391 0.930 . S
H453 C392 0.961 . S
H454 C392 0.960 . S
H455 C392 0.958 . S
H456 C393 0.961 . S
H457 C393 0.960 . S
H458 C393 0.960 . S
H459 C395 0.980 . S
H460 C394 0.961 . S
H461 C394 0.961 . S
H462 C394 0.959 . S
H463 C397 0.932 . S
H464 C401 0.929 . S
H465 C402 0.961 . S
H466 C402 0.959 . S
H467 C402 0.959 . S
H468 C403 0.960 . S
H469 C403 0.962 . S
H470 C403 0.961 . S
H471 C405 0.929 . S
H472 C408 0.930 . S
H473 C409 0.929 . S
H474 C412 0.930 . S
H475 C415 0.929 . S
H476 C416 0.930 . S
H477 C420 0.962 . S
H478 C420 0.959 . S
H479 C420 0.958 . S
C480 C481 1.560 . S
C480 H541 0.959 . S
C480 H542 0.959 . S
C480 H543 0.960 . S
C481 C480 1.560 . S
C481 O536 1.426 . S
C481 H540 0.980 . S
C482 C483 1.407 . S
C482 C487 1.418 . S
C482 O536 1.334 . S
C483 C482 1.407 . S
C483 C484 1.360 . S
C483 H544 0.929 . S
C484 C483 1.360 . S
C484 C485 1.401 . S
C484 C488 1.527 . S
C485 C484 1.401 . S
C485 C486 1.405 . S
C485 C518 1.587 . S
C486 C485 1.405 . S
C486 C487 1.332 . S
C486 C489 1.496 . S
C487 C482 1.418 . S
C487 C486 1.332 . S
C487 H545 0.929 . S
C488 C484 1.527 . S
C488 H546 0.959 . S
C488 H547 0.961 . S
C488 H548 0.961 . S
C489 C486 1.496 . S
C489 H549 0.960 . S
C489 H550 0.960 . S
C489 H551 0.961 . S
C490 C491 1.517 . S
C490 H553 0.961 . S
C490 H554 0.960 . S
C490 H555 0.959 . S
C491 C490 1.517 . S
C491 O539 1.468 . S
C491 H552 0.980 . S
C492 C493 1.349 . S
C492 C497 1.367 . S
C492 O539 1.408 . S
C493 C492 1.349 . S
C493 C494 1.407 . S
C493 H556 0.930 . S
C494 C493 1.407 . S
C494 C495 1.449 . S
C494 C498 1.535 . S
C495 C494 1.449 . S
C495 C496 1.384 . S
C495 C520 1.553 . S
C496 C495 1.384 . S
C496 C497 1.364 . S
C496 C499 1.450 . S
C497 C492 1.367 . S
C497 C496 1.364 . S
C497 H557 0.931 . S
C498 C494 1.535 . S
C498 H558 0.959 . S
C498 H559 0.961 . S
C498 H560 0.959 . S
C499 C496 1.450 . S
C499 H561 0.960 . S
C499 H562 0.960 . S
C499 H563 0.960 . S
C500 C501 1.309 . S
C500 C505 1.304 . S
C500 O538 1.435 . S
C501 C500 1.309 . S
C501 C502 1.476 . S
C501 H565 0.930 . S
C502 C501 1.476 . S
C502 C503 1.400 . S
C502 C506 1.567 . S
C503 C502 1.400 . S
C503 C504 1.373 . S
C503 C525 1.432 . S
C504 C503 1.373 . S
C504 C505 1.339 . S
C504 C507 1.530 . S
C505 C500 1.304 . S
C505 C504 1.339 . S
C505 H566 0.930 . S
C506 C502 1.567 . S
C506 H567 0.961 . S
C506 H568 0.960 . S
C506 H569 0.958 . S
C507 C504 1.530 . S
C507 H570 0.961 . S
C507 H571 0.960 . S
C507 H572 0.960 . S
C508 C509 1.530 . S
C508 H574 0.961 . S
C508 H575 0.961 . S
C508 H576 0.959 . S
C509 C508 1.530 . S
C509 O537 1.412 . S
C509 H573 0.980 . S
C510 C511 1.288 . S
C510 C515 1.377 . S
C510 O537 1.393 . S
C511 C510 1.288 . S
C511 C512 1.369 . S
C511 H577 0.932 . S
C512 C511 1.369 . S
C512 C513 1.398 . S
C512 C516 1.527 . S
C513 C512 1.398 . S
C513 C514 1.380 . S
C513 C527 1.497 . S
C514 C513 1.380 . S
C514 C515 1.383 . S
C514 C517 1.603 . S
C515 C510 1.377 . S
C515 C514 1.383 . S
C515 H578 0.929 . S
C516 C512 1.527 . S
C516 H579 0.961 . S
C516 H580 0.959 . S
C516 H581 0.959 . S
C517 C514 1.603 . S
C517 H582 0.960 . S
C517 H583 0.962 . S
C517 H584 0.961 . S
C518 C485 1.587 . S
C518 C519 1.360 . S
C518 C531 1.412 . S
C519 C518 1.360 . S
C519 C520 1.365 . S
C519 H585 0.929 . S
C520 C495 1.553 . S
C520 C519 1.365 . S
C520 C521 1.404 . S
C521 C520 1.404 . S
C521 C522 1.395 . S
C521 C532 1.451 . S
C522 C521 1.395 . S
C522 C523 1.322 . S
C522 H586 0.930 . S
C523 C522 1.322 . S
C523 C524 1.459 . S
C523 H587 0.929 . S
C524 C523 1.459 . S
C524 C525 1.445 . S
C524 C533 1.395 . S
C525 C503 1.432 . S
C525 C524 1.445 . S
C525 C526 1.370 . S
C526 C525 1.370 . S
C526 C527 1.438 . S
C526 H588 0.930 . S
C527 C513 1.497 . S
C527 C526 1.438 . S
C527 C528 1.360 . S
C528 C527 1.360 . S
C528 C529 1.401 . S
C528 C533 1.446 . S
C529 C528 1.401 . S
C529 C530 1.347 . S
C529 H589 0.929 . S
C530 C529 1.347 . S
C530 C531 1.455 . S
C530 H590 0.930 . S
C531 C518 1.412 . S
C531 C530 1.455 . S
C531 C532 1.331 . S
C532 C521 1.451 . S
C532 C531 1.331 . S
C532 C533 1.497 . S
C533 C524 1.395 . S
C533 C528 1.446 . S
C533 C532 1.497 . S
C534 C535 1.582 . S
C534 H591 0.962 . S
C534 H592 0.959 . S
C534 H593 0.958 . S
C535 C534 1.582 . S
C535 O538 1.458 . S
C535 H564 0.980 . S
O536 C481 1.426 . S
O536 C482 1.334 . S
O537 C509 1.412 . S
O537 C510 1.393 . S
O538 C500 1.435 . S
O538 C535 1.458 . S
O539 C491 1.468 . S
O539 C492 1.408 . S
H540 C481 0.980 . S
H541 C480 0.959 . S
H542 C480 0.959 . S
H543 C480 0.960 . S
H544 C483 0.929 . S
H545 C487 0.929 . S
H546 C488 0.959 . S
H547 C488 0.961 . S
H548 C488 0.961 . S
H549 C489 0.960 . S
H550 C489 0.960 . S
H551 C489 0.961 . S
H552 C491 0.980 . S
H553 C490 0.961 . S
H554 C490 0.960 . S
H555 C490 0.959 . S
H556 C493 0.930 . S
H557 C497 0.931 . S
H558 C498 0.959 . S
H559 C498 0.961 . S
H560 C498 0.959 . S
H561 C499 0.960 . S
H562 C499 0.960 . S
H563 C499 0.960 . S
H564 C535 0.980 . S
H565 C501 0.930 . S
H566 C505 0.930 . S
H567 C506 0.961 . S
H568 C506 0.960 . S
H569 C506 0.958 . S
H570 C507 0.961 . S
H571 C507 0.960 . S
H572 C507 0.960 . S
H573 C509 0.980 . S
H574 C508 0.961 . S
H575 C508 0.961 . S
H576 C508 0.959 . S
H577 C511 0.932 . S
H578 C515 0.929 . S
H579 C516 0.961 . S
H580 C516 0.959 . S
H581 C516 0.959 . S
H582 C517 0.960 . S
H583 C517 0.962 . S
H584 C517 0.961 . S
H585 C519 0.929 . S
H586 C522 0.930 . S
H587 C523 0.929 . S
H588 C526 0.930 . S
H589 C529 0.929 . S
H590 C530 0.930 . S
H591 C534 0.962 . S
H592 C534 0.959 . S
H593 C534 0.958 . S
C594 C595 1.560 . S
C594 H655 0.959 . S
C594 H656 0.959 . S
C594 H657 0.960 . S
C595 C594 1.560 . S
C595 O650 1.426 . S
C595 H654 0.980 . S
C596 C597 1.407 . S
C596 C601 1.418 . S
C596 O650 1.334 . S
C597 C596 1.407 . S
C597 C598 1.360 . S
C597 H658 0.929 . S
C598 C597 1.360 . S
C598 C599 1.401 . S
C598 C602 1.527 . S
C599 C598 1.401 . S
C599 C600 1.405 . S
C599 C632 1.587 . S
C600 C599 1.405 . S
C600 C601 1.332 . S
C600 C603 1.496 . S
C601 C596 1.418 . S
C601 C600 1.332 . S
C601 H659 0.929 . S
C602 C598 1.527 . S
C602 H660 0.959 . S
C602 H661 0.961 . S
C602 H662 0.961 . S
C603 C600 1.496 . S
C603 H663 0.960 . S
C603 H664 0.960 . S
C603 H665 0.961 . S
C604 C605 1.517 . S
C604 H667 0.961 . S
C604 H668 0.960 . S
C604 H669 0.959 . S
C605 C604 1.517 . S
C605 O653 1.468 . S
C605 H666 0.980 . S
C606 C607 1.349 . S
C606 C611 1.367 . S
C606 O653 1.408 . S
C607 C606 1.349 . S
C607 C608 1.407 . S
C607 H670 0.930 . S
C608 C607 1.407 . S
C608 C609 1.449 . S
C608 C612 1.535 . S
C609 C608 1.449 . S
C609 C610 1.384 . S
C609 C634 1.553 . S
C610 C609 1.384 . S
C610 C611 1.364 . S
C610 C613 1.450 . S
C611 C606 1.367 . S
C611 C610 1.364 . S
C611 H671 0.931 . S
C612 C608 1.535 . S
C612 H672 0.959 . S
C612 H673 0.961 . S
C612 H674 0.959 . S
C613 C610 1.450 . S
C613 H675 0.960 . S
C613 H676 0.960 . S
C613 H677 0.960 . S
C614 C615 1.309 . S
C614 C619 1.304 . S
C614 O652 1.435 . S
C615 C614 1.309 . S
C615 C616 1.476 . S
C615 H679 0.930 . S
C616 C615 1.476 . S
C616 C617 1.400 . S
C616 C620 1.567 . S
C617 C616 1.400 . S
C617 C618 1.373 . S
C617 C639 1.432 . S
C618 C617 1.373 . S
C618 C619 1.339 . S
C618 C621 1.530 . S
C619 C614 1.304 . S
C619 C618 1.339 . S
C619 H680 0.930 . S
C620 C616 1.567 . S
C620 H681 0.961 . S
C620 H682 0.960 . S
C620 H683 0.958 . S
C621 C618 1.530 . S
C621 H684 0.961 . S
C621 H685 0.960 . S
C621 H686 0.960 . S
C622 C623 1.530 . S
C622 H688 0.961 . S
C622 H689 0.961 . S
C622 H690 0.959 . S
C623 C622 1.530 . S
C623 O651 1.412 . S
C623 H687 0.980 . S
C624 C625 1.288 . S
C624 C629 1.377 . S
C624 O651 1.393 . S
C625 C624 1.288 . S
C625 C626 1.369 . S
C625 H691 0.932 . S
C626 C625 1.369 . S
C626 C627 1.398 . S
C626 C630 1.527 . S
C627 C626 1.398 . S
C627 C628 1.380 . S
C627 C641 1.497 . S
C628 C627 1.380 . S
C628 C629 1.383 . S
C628 C631 1.603 . S
C629 C624 1.377 . S
C629 C628 1.383 . S
C629 H692 0.929 . S
C630 C626 1.527 . S
C630 H693 0.961 . S
C630 H694 0.959 . S
C630 H695 0.959 . S
C631 C628 1.603 . S
C631 H696 0.960 . S
C631 H697 0.962 . S
C631 H698 0.961 . S
C632 C599 1.587 . S
C632 C633 1.360 . S
C632 C645 1.412 . S
C633 C632 1.360 . S
C633 C634 1.365 . S
C633 H699 0.929 . S
C634 C609 1.553 . S
C634 C633 1.365 . S
C634 C635 1.404 . S
C635 C634 1.404 . S
C635 C636 1.395 . S
C635 C646 1.451 . S
C636 C635 1.395 . S
C636 C637 1.322 . S
C636 H700 0.930 . S
C637 C636 1.322 . S
C637 C638 1.459 . S
C637 H701 0.929 . S
C638 C637 1.459 . S
C638 C639 1.445 . S
C638 C647 1.395 . S
C639 C617 1.432 . S
C639 C638 1.445 . S
C639 C640 1.370 . S
C640 C639 1.370 . S
C640 C641 1.438 . S
C640 H702 0.930 . S
C641 C627 1.497 . S
C641 C640 1.438 . S
C641 C642 1.360 . S
C642 C641 1.360 . S
C642 C643 1.401 . S
C642 C647 1.446 . S
C643 C642 1.401 . S
C643 C644 1.347 . S
C643 H703 0.929 . S
C644 C643 1.347 . S
C644 C645 1.455 . S
C644 H704 0.930 . S
C645 C632 1.412 . S
C645 C644 1.455 . S
C645 C646 1.331 . S
C646 C635 1.451 . S
C646 C645 1.331 . S
C646 C647 1.497 . S
C647 C638 1.395 . S
C647 C642 1.446 . S
C647 C646 1.497 . S
C648 C649 1.582 . S
C648 H705 0.962 . S
C648 H706 0.959 . S
C648 H707 0.958 . S
C649 C648 1.582 . S
C649 O652 1.458 . S
C649 H678 0.980 . S
O650 C595 1.426 . S
O650 C596 1.334 . S
O651 C623 1.412 . S
O651 C624 1.393 . S
O652 C614 1.435 . S
O652 C649 1.458 . S
O653 C605 1.468 . S
O653 C606 1.408 . S
H654 C595 0.980 . S
H655 C594 0.959 . S
H656 C594 0.959 . S
H657 C594 0.960 . S
H658 C597 0.929 . S
H659 C601 0.929 . S
H660 C602 0.959 . S
H661 C602 0.961 . S
H662 C602 0.961 . S
H663 C603 0.960 . S
H664 C603 0.960 . S
H665 C603 0.961 . S
H666 C605 0.980 . S
H667 C604 0.961 . S
H668 C604 0.960 . S
H669 C604 0.959 . S
H670 C607 0.930 . S
H671 C611 0.931 . S
H672 C612 0.959 . S
H673 C612 0.961 . S
H674 C612 0.959 . S
H675 C613 0.960 . S
H676 C613 0.960 . S
H677 C613 0.960 . S
H678 C649 0.980 . S
H679 C615 0.930 . S
H680 C619 0.930 . S
H681 C620 0.961 . S
H682 C620 0.960 . S
H683 C620 0.958 . S
H684 C621 0.961 . S
H685 C621 0.960 . S
H686 C621 0.960 . S
H687 C623 0.980 . S
H688 C622 0.961 . S
H689 C622 0.961 . S
H690 C622 0.959 . S
H691 C625 0.932 . S
H692 C629 0.929 . S
H693 C630 0.961 . S
H694 C630 0.959 . S
H695 C630 0.959 . S
H696 C631 0.960 . S
H697 C631 0.962 . S
H698 C631 0.961 . S
H699 C633 0.929 . S
H700 C636 0.930 . S
H701 C637 0.929 . S
H702 C640 0.930 . S
H703 C643 0.929 . S
H704 C644 0.930 . S
H705 C648 0.962 . S
H706 C648 0.959 . S
H707 C648 0.958 . S
C708 C709 1.560 . S
C708 H769 0.959 . S
C708 H770 0.959 . S
C708 H771 0.960 . S
C709 C708 1.560 . S
C709 O764 1.426 . S
C709 H768 0.980 . S
C710 C711 1.407 . S
C710 C715 1.418 . S
C710 O764 1.334 . S
C711 C710 1.407 . S
C711 C712 1.360 . S
C711 H772 0.929 . S
C712 C711 1.360 . S
C712 C713 1.401 . S
C712 C716 1.527 . S
C713 C712 1.401 . S
C713 C714 1.405 . S
C713 C746 1.587 . S
C714 C713 1.405 . S
C714 C715 1.332 . S
C714 C717 1.496 . S
C715 C710 1.418 . S
C715 C714 1.332 . S
C715 H773 0.929 . S
C716 C712 1.527 . S
C716 H774 0.959 . S
C716 H775 0.961 . S
C716 H776 0.961 . S
C717 C714 1.496 . S
C717 H777 0.960 . S
C717 H778 0.960 . S
C717 H779 0.961 . S
C718 C719 1.517 . S
C718 H781 0.961 . S
C718 H782 0.960 . S
C718 H783 0.959 . S
C719 C718 1.517 . S
C719 O767 1.468 . S
C719 H780 0.980 . S
C720 C721 1.349 . S
C720 C725 1.367 . S
C720 O767 1.408 . S
C721 C720 1.349 . S
C721 C722 1.407 . S
C721 H784 0.930 . S
C722 C721 1.407 . S
C722 C723 1.449 . S
C722 C726 1.535 . S
C723 C722 1.449 . S
C723 C724 1.384 . S
C723 C748 1.553 . S
C724 C723 1.384 . S
C724 C725 1.364 . S
C724 C727 1.450 . S
C725 C720 1.367 . S
C725 C724 1.364 . S
C725 H785 0.931 . S
C726 C722 1.535 . S
C726 H786 0.959 . S
C726 H787 0.961 . S
C726 H788 0.959 . S
C727 C724 1.450 . S
C727 H789 0.960 . S
C727 H790 0.960 . S
C727 H791 0.960 . S
C728 C729 1.309 . S
C728 C733 1.304 . S
C728 O766 1.435 . S
C729 C728 1.309 . S
C729 C730 1.476 . S
C729 H793 0.930 . S
C730 C729 1.476 . S
C730 C731 1.400 . S
C730 C734 1.567 . S
C731 C730 1.400 . S
C731 C732 1.373 . S
C731 C753 1.432 . S
C732 C731 1.373 . S
C732 C733 1.339 . S
C732 C735 1.530 . S
C733 C728 1.304 . S
C733 C732 1.339 . S
C733 H794 0.930 . S
C734 C730 1.567 . S
C734 H795 0.961 . S
C734 H796 0.960 . S
C734 H797 0.958 . S
C735 C732 1.530 . S
C735 H798 0.961 . S
C735 H799 0.960 . S
C735 H800 0.960 . S
C736 C737 1.530 . S
C736 H802 0.961 . S
C736 H803 0.961 . S
C736 H804 0.959 . S
C737 C736 1.530 . S
C737 O765 1.412 . S
C737 H801 0.980 . S
C738 C739 1.288 . S
C738 C743 1.377 . S
C738 O765 1.393 . S
C739 C738 1.288 . S
C739 C740 1.369 . S
C739 H805 0.932 . S
C740 C739 1.369 . S
C740 C741 1.398 . S
C740 C744 1.527 . S
C741 C740 1.398 . S
C741 C742 1.380 . S
C741 C755 1.497 . S
C742 C741 1.380 . S
C742 C743 1.383 . S
C742 C745 1.603 . S
C743 C738 1.377 . S
C743 C742 1.383 . S
C743 H806 0.929 . S
C744 C740 1.527 . S
C744 H807 0.961 . S
C744 H808 0.959 . S
C744 H809 0.959 . S
C745 C742 1.603 . S
C745 H810 0.960 . S
C745 H811 0.962 . S
C745 H812 0.961 . S
C746 C713 1.587 . S
C746 C747 1.360 . S
C746 C759 1.412 . S
C747 C746 1.360 . S
C747 C748 1.365 . S
C747 H813 0.929 . S
C748 C723 1.553 . S
C748 C747 1.365 . S
C748 C749 1.404 . S
C749 C748 1.404 . S
C749 C750 1.395 . S
C749 C760 1.451 . S
C750 C749 1.395 . S
C750 C751 1.322 . S
C750 H814 0.930 . S
C751 C750 1.322 . S
C751 C752 1.459 . S
C751 H815 0.929 . S
C752 C751 1.459 . S
C752 C753 1.445 . S
C752 C761 1.395 . S
C753 C731 1.432 . S
C753 C752 1.445 . S
C753 C754 1.370 . S
C754 C753 1.370 . S
C754 C755 1.438 . S
C754 H816 0.930 . S
C755 C741 1.497 . S
C755 C754 1.438 . S
C755 C756 1.360 . S
C756 C755 1.360 . S
C756 C757 1.401 . S
C756 C761 1.446 . S
C757 C756 1.401 . S
C757 C758 1.347 . S
C757 H817 0.929 . S
C758 C757 1.347 . S
C758 C759 1.455 . S
C758 H818 0.930 . S
C759 C746 1.412 . S
C759 C758 1.455 . S
C759 C760 1.331 . S
C760 C749 1.451 . S
C760 C759 1.331 . S
C760 C761 1.497 . S
C761 C752 1.395 . S
C761 C756 1.446 . S
C761 C760 1.497 . S
C762 C763 1.582 . S
C762 H819 0.962 . S
C762 H820 0.959 . S
C762 H821 0.958 . S
C763 C762 1.582 . S
C763 O766 1.458 . S
C763 H792 0.980 . S
O764 C709 1.426 . S
O764 C710 1.334 . S
O765 C737 1.412 . S
O765 C738 1.393 . S
O766 C728 1.435 . S
O766 C763 1.458 . S
O767 C719 1.468 . S
O767 C720 1.408 . S
H768 C709 0.980 . S
H769 C708 0.959 . S
H770 C708 0.959 . S
H771 C708 0.960 . S
H772 C711 0.929 . S
H773 C715 0.929 . S
H774 C716 0.959 . S
H775 C716 0.961 . S
H776 C716 0.961 . S
H777 C717 0.960 . S
H778 C717 0.960 . S
H779 C717 0.961 . S
H780 C719 0.980 . S
H781 C718 0.961 . S
H782 C718 0.960 . S
H783 C718 0.959 . S
H784 C721 0.930 . S
H785 C725 0.931 . S
H786 C726 0.959 . S
H787 C726 0.961 . S
H788 C726 0.959 . S
H789 C727 0.960 . S
H790 C727 0.960 . S
H791 C727 0.960 . S
H792 C763 0.980 . S
H793 C729 0.930 . S
H794 C733 0.930 . S
H795 C734 0.961 . S
H796 C734 0.960 . S
H797 C734 0.958 . S
H798 C735 0.961 . S
H799 C735 0.960 . S
H800 C735 0.960 . S
H801 C737 0.980 . S
H802 C736 0.961 . S
H803 C736 0.961 . S
H804 C736 0.959 . S
H805 C739 0.932 . S
H806 C743 0.929 . S
H807 C744 0.961 . S
H808 C744 0.959 . S
H809 C744 0.959 . S
H810 C745 0.960 . S
H811 C745 0.962 . S
H812 C745 0.961 . S
H813 C747 0.929 . S
H814 C750 0.930 . S
H815 C751 0.929 . S
H816 C754 0.930 . S
H817 C757 0.929 . S
H818 C758 0.930 . S
H819 C762 0.962 . S
H820 C762 0.959 . S
H821 C762 0.958 . S
C822 C823 1.560 . S
C822 H883 0.959 . S
C822 H884 0.959 . S
C822 H885 0.960 . S
C823 C822 1.560 . S
C823 O878 1.426 . S
C823 H882 0.980 . S
C824 C825 1.407 . S
C824 C829 1.418 . S
C824 O878 1.334 . S
C825 C824 1.407 . S
C825 C826 1.360 . S
C825 H886 0.929 . S
C826 C825 1.360 . S
C826 C827 1.401 . S
C826 C830 1.527 . S
C827 C826 1.401 . S
C827 C828 1.405 . S
C827 C860 1.587 . S
C828 C827 1.405 . S
C828 C829 1.332 . S
C828 C831 1.496 . S
C829 C824 1.418 . S
C829 C828 1.332 . S
C829 H887 0.929 . S
C830 C826 1.527 . S
C830 H888 0.959 . S
C830 H889 0.961 . S
C830 H890 0.961 . S
C831 C828 1.496 . S
C831 H891 0.960 . S
C831 H892 0.960 . S
C831 H893 0.961 . S
C832 C833 1.517 . S
C832 H895 0.961 . S
C832 H896 0.960 . S
C832 H897 0.959 . S
C833 C832 1.517 . S
C833 O881 1.468 . S
C833 H894 0.980 . S
C834 C835 1.349 . S
C834 C839 1.367 . S
C834 O881 1.408 . S
C835 C834 1.349 . S
C835 C836 1.407 . S
C835 H898 0.930 . S
C836 C835 1.407 . S
C836 C837 1.449 . S
C836 C840 1.535 . S
C837 C836 1.449 . S
C837 C838 1.384 . S
C837 C862 1.553 . S
C838 C837 1.384 . S
C838 C839 1.364 . S
C838 C841 1.450 . S
C839 C834 1.367 . S
C839 C838 1.364 . S
C839 H899 0.931 . S
C840 C836 1.535 . S
C840 H900 0.959 . S
C840 H901 0.961 . S
C840 H902 0.959 . S
C841 C838 1.450 . S
C841 H903 0.960 . S
C841 H904 0.960 . S
C841 H905 0.960 . S
C842 C843 1.309 . S
C842 C847 1.304 . S
C842 O880 1.435 . S
C843 C842 1.309 . S
C843 C844 1.476 . S
C843 H907 0.930 . S
C844 C843 1.476 . S
C844 C845 1.400 . S
C844 C848 1.567 . S
C845 C844 1.400 . S
C845 C846 1.373 . S
C845 C867 1.432 . S
C846 C845 1.373 . S
C846 C847 1.339 . S
C846 C849 1.530 . S
C847 C842 1.304 . S
C847 C846 1.339 . S
C847 H908 0.930 . S
C848 C844 1.567 . S
C848 H909 0.961 . S
C848 H910 0.960 . S
C848 H911 0.958 . S
C849 C846 1.530 . S
C849 H912 0.961 . S
C849 H913 0.960 . S
C849 H914 0.960 . S
C850 C851 1.530 . S
C850 H916 0.961 . S
C850 H917 0.961 . S
C850 H918 0.959 . S
C851 C850 1.530 . S
C851 O879 1.412 . S
C851 H915 0.980 . S
C852 C853 1.288 . S
C852 C857 1.377 . S
C852 O879 1.393 . S
C853 C852 1.288 . S
C853 C854 1.369 . S
C853 H919 0.932 . S
C854 C853 1.369 . S
C854 C855 1.398 . S
C854 C858 1.527 . S
C855 C854 1.398 . S
C855 C856 1.380 . S
C855 C869 1.497 . S
C856 C855 1.380 . S
C856 C857 1.383 . S
C856 C859 1.603 . S
C857 C852 1.377 . S
C857 C856 1.383 . S
C857 H920 0.929 . S
C858 C854 1.527 . S
C858 H921 0.961 . S
C858 H922 0.959 . S
C858 H923 0.959 . S
C859 C856 1.603 . S
C859 H924 0.960 . S
C859 H925 0.962 . S
C859 H926 0.961 . S
C860 C827 1.587 . S
C860 C861 1.360 . S
C860 C873 1.412 . S
C861 C860 1.360 . S
C861 C862 1.365 . S
C861 H927 0.929 . S
C862 C837 1.553 . S
C862 C861 1.365 . S
C862 C863 1.404 . S
C863 C862 1.404 . S
C863 C864 1.395 . S
C863 C874 1.451 . S
C864 C863 1.395 . S
C864 C865 1.322 . S
C864 H928 0.930 . S
C865 C864 1.322 . S
C865 C866 1.459 . S
C865 H929 0.929 . S
C866 C865 1.459 . S
C866 C867 1.445 . S
C866 C875 1.395 . S
C867 C845 1.432 . S
C867 C866 1.445 . S
C867 C868 1.370 . S
C868 C867 1.370 . S
C868 C869 1.438 . S
C868 H930 0.930 . S
C869 C855 1.497 . S
C869 C868 1.438 . S
C869 C870 1.360 . S
C870 C869 1.360 . S
C870 C871 1.401 . S
C870 C875 1.446 . S
C871 C870 1.401 . S
C871 C872 1.347 . S
C871 H931 0.929 . S
C872 C871 1.347 . S
C872 C873 1.455 . S
C872 H932 0.930 . S
C873 C860 1.412 . S
C873 C872 1.455 . S
C873 C874 1.331 . S
C874 C863 1.451 . S
C874 C873 1.331 . S
C874 C875 1.497 . S
C875 C866 1.395 . S
C875 C870 1.446 . S
C875 C874 1.497 . S
C876 C877 1.582 . S
C876 H933 0.962 . S
C876 H934 0.959 . S
C876 H935 0.958 . S
C877 C876 1.582 . S
C877 O880 1.458 . S
C877 H906 0.980 . S
O878 C823 1.426 . S
O878 C824 1.334 . S
O879 C851 1.412 . S
O879 C852 1.393 . S
O880 C842 1.435 . S
O880 C877 1.458 . S
O881 C833 1.468 . S
O881 C834 1.408 . S
H882 C823 0.980 . S
H883 C822 0.959 . S
H884 C822 0.959 . S
H885 C822 0.960 . S
H886 C825 0.929 . S
H887 C829 0.929 . S
H888 C830 0.959 . S
H889 C830 0.961 . S
H890 C830 0.961 . S
H891 C831 0.960 . S
H892 C831 0.960 . S
H893 C831 0.961 . S
H894 C833 0.980 . S
H895 C832 0.961 . S
H896 C832 0.960 . S
H897 C832 0.959 . S
H898 C835 0.930 . S
H899 C839 0.931 . S
H900 C840 0.959 . S
H901 C840 0.961 . S
H902 C840 0.959 . S
H903 C841 0.960 . S
H904 C841 0.960 . S
H905 C841 0.960 . S
H906 C877 0.980 . S
H907 C843 0.930 . S
H908 C847 0.930 . S
H909 C848 0.961 . S
H910 C848 0.960 . S
H911 C848 0.958 . S
H912 C849 0.961 . S
H913 C849 0.960 . S
H914 C849 0.960 . S
H915 C851 0.980 . S
H916 C850 0.961 . S
H917 C850 0.961 . S
H918 C850 0.959 . S
H919 C853 0.932 . S
H920 C857 0.929 . S
H921 C858 0.961 . S
H922 C858 0.959 . S
H923 C858 0.959 . S
H924 C859 0.960 . S
H925 C859 0.962 . S
H926 C859 0.961 . S
H927 C861 0.929 . S
H928 C864 0.930 . S
H929 C865 0.929 . S
H930 C868 0.930 . S
H931 C871 0.929 . S
H932 C872 0.930 . S
H933 C876 0.962 . S
H934 C876 0.959 . S
H935 C876 0.958 . S
C936 C937 1.560 . S
C936 H997 0.959 . S
C936 H998 0.959 . S
C936 H999 0.960 . S
C937 C936 1.560 . S
C937 O992 1.426 . S
C937 H996 0.980 . S
C938 C939 1.407 . S
C938 C943 1.418 . S
C938 O992 1.334 . S
C939 C938 1.407 . S
C939 C940 1.360 . S
C939 H1000 0.929 . S
C940 C939 1.360 . S
C940 C941 1.401 . S
C940 C944 1.527 . S
C941 C940 1.401 . S
C941 C942 1.405 . S
C941 C974 1.587 . S
C942 C941 1.405 . S
C942 C943 1.332 . S
C942 C945 1.496 . S
C943 C938 1.418 . S
C943 C942 1.332 . S
C943 H1001 0.929 . S
C944 C940 1.527 . S
C944 H1002 0.959 . S
C944 H1003 0.961 . S
C944 H1004 0.961 . S
C945 C942 1.496 . S
C945 H1005 0.960 . S
C945 H1006 0.960 . S
C945 H1007 0.961 . S
C946 C947 1.517 . S
C946 H1009 0.961 . S
C946 H1010 0.960 . S
C946 H1011 0.959 . S
C947 C946 1.517 . S
C947 O995 1.468 . S
C947 H1008 0.980 . S
C948 C949 1.349 . S
C948 C953 1.367 . S
C948 O995 1.408 . S
C949 C948 1.349 . S
C949 C950 1.407 . S
C949 H1012 0.930 . S
C950 C949 1.407 . S
C950 C951 1.449 . S
C950 C954 1.535 . S
C951 C950 1.449 . S
C951 C952 1.384 . S
C951 C976 1.553 . S
C952 C951 1.384 . S
C952 C953 1.364 . S
C952 C955 1.450 . S
C953 C948 1.367 . S
C953 C952 1.364 . S
C953 H1013 0.931 . S
C954 C950 1.535 . S
C954 H1014 0.959 . S
C954 H1015 0.961 . S
C954 H1016 0.959 . S
C955 C952 1.450 . S
C955 H1017 0.960 . S
C955 H1018 0.960 . S
C955 H1019 0.960 . S
C956 C957 1.309 . S
C956 C961 1.304 . S
C956 O994 1.435 . S
C957 C956 1.309 . S
C957 C958 1.476 . S
C957 H1021 0.930 . S
C958 C957 1.476 . S
C958 C959 1.400 . S
C958 C962 1.567 . S
C959 C958 1.400 . S
C959 C960 1.373 . S
C959 C981 1.432 . S
C960 C959 1.373 . S
C960 C961 1.339 . S
C960 C963 1.530 . S
C961 C956 1.304 . S
C961 C960 1.339 . S
C961 H1022 0.930 . S
C962 C958 1.567 . S
C962 H1023 0.961 . S
C962 H1024 0.960 . S
C962 H1025 0.958 . S
C963 C960 1.530 . S
C963 H1026 0.961 . S
C963 H1027 0.960 . S
C963 H1028 0.960 . S
C964 C965 1.530 . S
C964 H1030 0.961 . S
C964 H1031 0.961 . S
C964 H1032 0.959 . S
C965 C964 1.530 . S
C965 O993 1.412 . S
C965 H1029 0.980 . S
C966 C967 1.288 . S
C966 C971 1.377 . S
C966 O993 1.393 . S
C967 C966 1.288 . S
C967 C968 1.369 . S
C967 H1033 0.932 . S
C968 C967 1.369 . S
C968 C969 1.398 . S
C968 C972 1.527 . S
C969 C968 1.398 . S
C969 C970 1.380 . S
C969 C983 1.497 . S
C970 C969 1.380 . S
C970 C971 1.383 . S
C970 C973 1.603 . S
C971 C966 1.377 . S
C971 C970 1.383 . S
C971 H1034 0.929 . S
C972 C968 1.527 . S
C972 H1035 0.961 . S
C972 H1036 0.959 . S
C972 H1037 0.959 . S
C973 C970 1.603 . S
C973 H1038 0.960 . S
C973 H1039 0.962 . S
C973 H1040 0.961 . S
C974 C941 1.587 . S
C974 C975 1.360 . S
C974 C987 1.412 . S
C975 C974 1.360 . S
C975 C976 1.365 . S
C975 H1041 0.929 . S
C976 C951 1.553 . S
C976 C975 1.365 . S
C976 C977 1.404 . S
C977 C976 1.404 . S
C977 C978 1.395 . S
C977 C988 1.451 . S
C978 C977 1.395 . S
C978 C979 1.322 . S
C978 H1042 0.930 . S
C979 C978 1.322 . S
C979 C980 1.459 . S
C979 H1043 0.929 . S
C980 C979 1.459 . S
C980 C981 1.445 . S
C980 C989 1.395 . S
C981 C959 1.432 . S
C981 C980 1.445 . S
C981 C982 1.370 . S
C982 C981 1.370 . S
C982 C983 1.438 . S
C982 H1044 0.930 . S
C983 C969 1.497 . S
C983 C982 1.438 . S
C983 C984 1.360 . S
C984 C983 1.360 . S
C984 C985 1.401 . S
C984 C989 1.446 . S
C985 C984 1.401 . S
C985 C986 1.347 . S
C985 H1045 0.929 . S
C986 C985 1.347 . S
C986 C987 1.455 . S
C986 H1046 0.930 . S
C987 C974 1.412 . S
C987 C986 1.455 . S
C987 C988 1.331 . S
C988 C977 1.451 . S
C988 C987 1.331 . S
C988 C989 1.497 . S
C989 C980 1.395 . S
C989 C984 1.446 . S
C989 C988 1.497 . S
C990 C991 1.582 . S
C990 H1047 0.962 . S
C990 H1048 0.959 . S
C990 H1049 0.958 . S
C991 C990 1.582 . S
C991 O994 1.458 . S
C991 H1020 0.980 . S
O992 C937 1.426 . S
O992 C938 1.334 . S
O993 C965 1.412 . S
O993 C966 1.393 . S
O994 C956 1.435 . S
O994 C991 1.458 . S
O995 C947 1.468 . S
O995 C948 1.408 . S
H996 C937 0.980 . S
H997 C936 0.959 . S
H998 C936 0.959 . S
H999 C936 0.960 . S
H1000 C939 0.929 . S
H1001 C943 0.929 . S
H1002 C944 0.959 . S
H1003 C944 0.961 . S
H1004 C944 0.961 . S
H1005 C945 0.960 . S
H1006 C945 0.960 . S
H1007 C945 0.961 . S
H1008 C947 0.980 . S
H1009 C946 0.961 . S
H1010 C946 0.960 . S
H1011 C946 0.959 . S
H1012 C949 0.930 . S
H1013 C953 0.931 . S
H1014 C954 0.959 . S
H1015 C954 0.961 . S
H1016 C954 0.959 . S
H1017 C955 0.960 . S
H1018 C955 0.960 . S
H1019 C955 0.960 . S
H1020 C991 0.980 . S
H1021 C957 0.930 . S
H1022 C961 0.930 . S
H1023 C962 0.961 . S
H1024 C962 0.960 . S
H1025 C962 0.958 . S
H1026 C963 0.961 . S
H1027 C963 0.960 . S
H1028 C963 0.960 . S
H1029 C965 0.980 . S
H1030 C964 0.961 . S
H1031 C964 0.961 . S
H1032 C964 0.959 . S
H1033 C967 0.932 . S
H1034 C971 0.929 . S
H1035 C972 0.961 . S
H1036 C972 0.959 . S
H1037 C972 0.959 . S
H1038 C973 0.960 . S
H1039 C973 0.962 . S
H1040 C973 0.961 . S
H1041 C975 0.929 . S
H1042 C978 0.930 . S
H1043 C979 0.929 . S
H1044 C982 0.930 . S
H1045 C985 0.929 . S
H1046 C986 0.930 . S
H1047 C990 0.962 . S
H1048 C990 0.959 . S
H1049 C990 0.958 . S
C1050 C1051 1.560 . S
C1050 H1111 0.959 . S
C1050 H1112 0.959 . S
C1050 H1113 0.960 . S
C1051 C1050 1.560 . S
C1051 O1106 1.426 . S
C1051 H1110 0.980 . S
C1052 C1053 1.407 . S
C1052 C1057 1.418 . S
C1052 O1106 1.334 . S
C1053 C1052 1.407 . S
C1053 C1054 1.360 . S
C1053 H1114 0.929 . S
C1054 C1053 1.360 . S
C1054 C1055 1.401 . S
C1054 C1058 1.527 . S
C1055 C1054 1.401 . S
C1055 C1056 1.405 . S
C1055 C1088 1.587 . S
C1056 C1055 1.405 . S
C1056 C1057 1.332 . S
C1056 C1059 1.496 . S
C1057 C1052 1.418 . S
C1057 C1056 1.332 . S
C1057 H1115 0.929 . S
C1058 C1054 1.527 . S
C1058 H1116 0.959 . S
C1058 H1117 0.961 . S
C1058 H1118 0.961 . S
C1059 C1056 1.496 . S
C1059 H1119 0.960 . S
C1059 H1120 0.960 . S
C1059 H1121 0.961 . S
C1060 C1061 1.517 . S
C1060 H1123 0.961 . S
C1060 H1124 0.960 . S
C1060 H1125 0.959 . S
C1061 C1060 1.517 . S
C1061 O1109 1.468 . S
C1061 H1122 0.980 . S
C1062 C1063 1.349 . S
C1062 C1067 1.367 . S
C1062 O1109 1.408 . S
C1063 C1062 1.349 . S
C1063 C1064 1.407 . S
C1063 H1126 0.930 . S
C1064 C1063 1.407 . S
C1064 C1065 1.449 . S
C1064 C1068 1.535 . S
C1065 C1064 1.449 . S
C1065 C1066 1.384 . S
C1065 C1090 1.553 . S
C1066 C1065 1.384 . S
C1066 C1067 1.364 . S
C1066 C1069 1.450 . S
C1067 C1062 1.367 . S
C1067 C1066 1.364 . S
C1067 H1127 0.931 . S
C1068 C1064 1.535 . S
C1068 H1128 0.959 . S
C1068 H1129 0.961 . S
C1068 H1130 0.959 . S
C1069 C1066 1.450 . S
C1069 H1131 0.960 . S
C1069 H1132 0.960 . S
C1069 H1133 0.960 . S
C1070 C1071 1.309 . S
C1070 C1075 1.304 . S
C1070 O1108 1.435 . S
C1071 C1070 1.309 . S
C1071 C1072 1.476 . S
C1071 H1135 0.930 . S
C1072 C1071 1.476 . S
C1072 C1073 1.400 . S
C1072 C1076 1.567 . S
C1073 C1072 1.400 . S
C1073 C1074 1.373 . S
C1073 C1095 1.432 . S
C1074 C1073 1.373 . S
C1074 C1075 1.339 . S
C1074 C1077 1.530 . S
C1075 C1070 1.304 . S
C1075 C1074 1.339 . S
C1075 H1136 0.930 . S
C1076 C1072 1.567 . S
C1076 H1137 0.961 . S
C1076 H1138 0.960 . S
C1076 H1139 0.958 . S
C1077 C1074 1.530 . S
C1077 H1140 0.961 . S
C1077 H1141 0.960 . S
C1077 H1142 0.960 . S
C1078 C1079 1.530 . S
C1078 H1144 0.961 . S
C1078 H1145 0.961 . S
C1078 H1146 0.959 . S
C1079 C1078 1.530 . S
C1079 O1107 1.412 . S
C1079 H1143 0.980 . S
C1080 C1081 1.288 . S
C1080 C1085 1.377 . S
C1080 O1107 1.393 . S
C1081 C1080 1.288 . S
C1081 C1082 1.369 . S
C1081 H1147 0.932 . S
C1082 C1081 1.369 . S
C1082 C1083 1.398 . S
C1082 C1086 1.527 . S
C1083 C1082 1.398 . S
C1083 C1084 1.380 . S
C1083 C1097 1.497 . S
C1084 C1083 1.380 . S
C1084 C1085 1.383 . S
C1084 C1087 1.603 . S
C1085 C1080 1.377 . S
C1085 C1084 1.383 . S
C1085 H1148 0.929 . S
C1086 C1082 1.527 . S
C1086 H1149 0.961 . S
C1086 H1150 0.959 . S
C1086 H1151 0.959 . S
C1087 C1084 1.603 . S
C1087 H1152 0.960 . S
C1087 H1153 0.962 . S
C1087 H1154 0.961 . S
C1088 C1055 1.587 . S
C1088 C1089 1.360 . S
C1088 C1101 1.412 . S
C1089 C1088 1.360 . S
C1089 C1090 1.365 . S
C1089 H1155 0.929 . S
C1090 C1065 1.553 . S
C1090 C1089 1.365 . S
C1090 C1091 1.404 . S
C1091 C1090 1.404 . S
C1091 C1092 1.395 . S
C1091 C1102 1.451 . S
C1092 C1091 1.395 . S
C1092 C1093 1.322 . S
C1092 H1156 0.930 . S
C1093 C1092 1.322 . S
C1093 C1094 1.459 . S
C1093 H1157 0.929 . S
C1094 C1093 1.459 . S
C1094 C1095 1.445 . S
C1094 C1103 1.395 . S
C1095 C1073 1.432 . S
C1095 C1094 1.445 . S
C1095 C1096 1.370 . S
C1096 C1095 1.370 . S
C1096 C1097 1.438 . S
C1096 H1158 0.930 . S
C1097 C1083 1.497 . S
C1097 C1096 1.438 . S
C1097 C1098 1.360 . S
C1098 C1097 1.360 . S
C1098 C1099 1.401 . S
C1098 C1103 1.446 . S
C1099 C1098 1.401 . S
C1099 C1100 1.347 . S
C1099 H1159 0.929 . S
C1100 C1099 1.347 . S
C1100 C1101 1.455 . S
C1100 H1160 0.930 . S
C1101 C1088 1.412 . S
C1101 C1100 1.455 . S
C1101 C1102 1.331 . S
C1102 C1091 1.451 . S
C1102 C1101 1.331 . S
C1102 C1103 1.497 . S
C1103 C1094 1.395 . S
C1103 C1098 1.446 . S
C1103 C1102 1.497 . S
C1104 C1105 1.582 . S
C1104 H1161 0.962 . S
C1104 H1162 0.959 . S
C1104 H1163 0.958 . S
C1105 C1104 1.582 . S
C1105 O1108 1.458 . S
C1105 H1134 0.980 . S
O1106 C1051 1.426 . S
O1106 C1052 1.334 . S
O1107 C1079 1.412 . S
O1107 C1080 1.393 . S
O1108 C1070 1.435 . S
O1108 C1105 1.458 . S
O1109 C1061 1.468 . S
O1109 C1062 1.408 . S
H1110 C1051 0.980 . S
H1111 C1050 0.959 . S
H1112 C1050 0.959 . S
H1113 C1050 0.960 . S
H1114 C1053 0.929 . S
H1115 C1057 0.929 . S
H1116 C1058 0.959 . S
H1117 C1058 0.961 . S
H1118 C1058 0.961 . S
H1119 C1059 0.960 . S
H1120 C1059 0.960 . S
H1121 C1059 0.961 . S
H1122 C1061 0.980 . S
H1123 C1060 0.961 . S
H1124 C1060 0.960 . S
H1125 C1060 0.959 . S
H1126 C1063 0.930 . S
H1127 C1067 0.931 . S
H1128 C1068 0.959 . S
H1129 C1068 0.961 . S
H1130 C1068 0.959 . S
H1131 C1069 0.960 . S
H1132 C1069 0.960 . S
H1133 C1069 0.960 . S
H1134 C1105 0.980 . S
H1135 C1071 0.930 . S
H1136 C1075 0.930 . S
H1137 C1076 0.961 . S
H1138 C1076 0.960 . S
H1139 C1076 0.958 . S
H1140 C1077 0.961 . S
H1141 C1077 0.960 . S
H1142 C1077 0.960 . S
H1143 C1079 0.980 . S
H1144 C1078 0.961 . S
H1145 C1078 0.961 . S
H1146 C1078 0.959 . S
H1147 C1081 0.932 . S
H1148 C1085 0.929 . S
H1149 C1086 0.961 . S
H1150 C1086 0.959 . S
H1151 C1086 0.959 . S
H1152 C1087 0.960 . S
H1153 C1087 0.962 . S
H1154 C1087 0.961 . S
H1155 C1089 0.929 . S
H1156 C1092 0.930 . S
H1157 C1093 0.929 . S
H1158 C1096 0.930 . S
H1159 C1099 0.929 . S
H1160 C1100 0.930 . S
H1161 C1104 0.962 . S
H1162 C1104 0.959 . S
H1163 C1104 0.958 . S
C1164 C1165 1.560 . S
C1164 H1225 0.959 . S
C1164 H1226 0.959 . S
C1164 H1227 0.960 . S
C1165 C1164 1.560 . S
C1165 O1220 1.426 . S
C1165 H1224 0.980 . S
C1166 C1167 1.407 . S
C1166 C1171 1.418 . S
C1166 O1220 1.334 . S
C1167 C1166 1.407 . S
C1167 C1168 1.360 . S
C1167 H1228 0.929 . S
C1168 C1167 1.360 . S
C1168 C1169 1.401 . S
C1168 C1172 1.527 . S
C1169 C1168 1.401 . S
C1169 C1170 1.405 . S
C1169 C1202 1.587 . S
C1170 C1169 1.405 . S
C1170 C1171 1.332 . S
C1170 C1173 1.496 . S
C1171 C1166 1.418 . S
C1171 C1170 1.332 . S
C1171 H1229 0.929 . S
C1172 C1168 1.527 . S
C1172 H1230 0.959 . S
C1172 H1231 0.961 . S
C1172 H1232 0.961 . S
C1173 C1170 1.496 . S
C1173 H1233 0.960 . S
C1173 H1234 0.960 . S
C1173 H1235 0.961 . S
C1174 C1175 1.517 . S
C1174 H1237 0.961 . S
C1174 H1238 0.960 . S
C1174 H1239 0.959 . S
C1175 C1174 1.517 . S
C1175 O1223 1.468 . S
C1175 H1236 0.980 . S
C1176 C1177 1.349 . S
C1176 C1181 1.367 . S
C1176 O1223 1.408 . S
C1177 C1176 1.349 . S
C1177 C1178 1.407 . S
C1177 H1240 0.930 . S
C1178 C1177 1.407 . S
C1178 C1179 1.449 . S
C1178 C1182 1.535 . S
C1179 C1178 1.449 . S
C1179 C1180 1.384 . S
C1179 C1204 1.553 . S
C1180 C1179 1.384 . S
C1180 C1181 1.364 . S
C1180 C1183 1.450 . S
C1181 C1176 1.367 . S
C1181 C1180 1.364 . S
C1181 H1241 0.931 . S
C1182 C1178 1.535 . S
C1182 H1242 0.959 . S
C1182 H1243 0.961 . S
C1182 H1244 0.959 . S
C1183 C1180 1.450 . S
C1183 H1245 0.960 . S
C1183 H1246 0.960 . S
C1183 H1247 0.960 . S
C1184 C1185 1.309 . S
C1184 C1189 1.304 . S
C1184 O1222 1.435 . S
C1185 C1184 1.309 . S
C1185 C1186 1.476 . S
C1185 H1249 0.930 . S
C1186 C1185 1.476 . S
C1186 C1187 1.400 . S
C1186 C1190 1.567 . S
C1187 C1186 1.400 . S
C1187 C1188 1.373 . S
C1187 C1209 1.432 . S
C1188 C1187 1.373 . S
C1188 C1189 1.339 . S
C1188 C1191 1.530 . S
C1189 C1184 1.304 . S
C1189 C1188 1.339 . S
C1189 H1250 0.930 . S
C1190 C1186 1.567 . S
C1190 H1251 0.961 . S
C1190 H1252 0.960 . S
C1190 H1253 0.958 . S
C1191 C1188 1.530 . S
C1191 H1254 0.961 . S
C1191 H1255 0.960 . S
C1191 H1256 0.960 . S
C1192 C1193 1.530 . S
C1192 H1258 0.961 . S
C1192 H1259 0.961 . S
C1192 H1260 0.959 . S
C1193 C1192 1.530 . S
C1193 O1221 1.412 . S
C1193 H1257 0.980 . S
C1194 C1195 1.288 . S
C1194 C1199 1.377 . S
C1194 O1221 1.393 . S
C1195 C1194 1.288 . S
C1195 C1196 1.369 . S
C1195 H1261 0.932 . S
C1196 C1195 1.369 . S
C1196 C1197 1.398 . S
C1196 C1200 1.527 . S
C1197 C1196 1.398 . S
C1197 C1198 1.380 . S
C1197 C1211 1.497 . S
C1198 C1197 1.380 . S
C1198 C1199 1.383 . S
C1198 C1201 1.603 . S
C1199 C1194 1.377 . S
C1199 C1198 1.383 . S
C1199 H1262 0.929 . S
C1200 C1196 1.527 . S
C1200 H1263 0.961 . S
C1200 H1264 0.959 . S
C1200 H1265 0.959 . S
C1201 C1198 1.603 . S
C1201 H1266 0.960 . S
C1201 H1267 0.962 . S
C1201 H1268 0.961 . S
C1202 C1169 1.587 . S
C1202 C1203 1.360 . S
C1202 C1215 1.412 . S
C1203 C1202 1.360 . S
C1203 C1204 1.365 . S
C1203 H1269 0.929 . S
C1204 C1179 1.553 . S
C1204 C1203 1.365 . S
C1204 C1205 1.404 . S
C1205 C1204 1.404 . S
C1205 C1206 1.395 . S
C1205 C1216 1.451 . S
C1206 C1205 1.395 . S
C1206 C1207 1.322 . S
C1206 H1270 0.930 . S
C1207 C1206 1.322 . S
C1207 C1208 1.459 . S
C1207 H1271 0.929 . S
C1208 C1207 1.459 . S
C1208 C1209 1.445 . S
C1208 C1217 1.395 . S
C1209 C1187 1.432 . S
C1209 C1208 1.445 . S
C1209 C1210 1.370 . S
C1210 C1209 1.370 . S
C1210 C1211 1.438 . S
C1210 H1272 0.930 . S
C1211 C1197 1.497 . S
C1211 C1210 1.438 . S
C1211 C1212 1.360 . S
C1212 C1211 1.360 . S
C1212 C1213 1.401 . S
C1212 C1217 1.446 . S
C1213 C1212 1.401 . S
C1213 C1214 1.347 . S
C1213 H1273 0.929 . S
C1214 C1213 1.347 . S
C1214 C1215 1.455 . S
C1214 H1274 0.930 . S
C1215 C1202 1.412 . S
C1215 C1214 1.455 . S
C1215 C1216 1.331 . S
C1216 C1205 1.451 . S
C1216 C1215 1.331 . S
C1216 C1217 1.497 . S
C1217 C1208 1.395 . S
C1217 C1212 1.446 . S
C1217 C1216 1.497 . S
C1218 C1219 1.582 . S
C1218 H1275 0.962 . S
C1218 H1276 0.959 . S
C1218 H1277 0.958 . S
C1219 C1218 1.582 . S
C1219 O1222 1.458 . S
C1219 H1248 0.980 . S
O1220 C1165 1.426 . S
O1220 C1166 1.334 . S
O1221 C1193 1.412 . S
O1221 C1194 1.393 . S
O1222 C1184 1.435 . S
O1222 C1219 1.458 . S
O1223 C1175 1.468 . S
O1223 C1176 1.408 . S
H1224 C1165 0.980 . S
H1225 C1164 0.959 . S
H1226 C1164 0.959 . S
H1227 C1164 0.960 . S
H1228 C1167 0.929 . S
H1229 C1171 0.929 . S
H1230 C1172 0.959 . S
H1231 C1172 0.961 . S
H1232 C1172 0.961 . S
H1233 C1173 0.960 . S
H1234 C1173 0.960 . S
H1235 C1173 0.961 . S
H1236 C1175 0.980 . S
H1237 C1174 0.961 . S
H1238 C1174 0.960 . S
H1239 C1174 0.959 . S
H1240 C1177 0.930 . S
H1241 C1181 0.931 . S
H1242 C1182 0.959 . S
H1243 C1182 0.961 . S
H1244 C1182 0.959 . S
H1245 C1183 0.960 . S
H1246 C1183 0.960 . S
H1247 C1183 0.960 . S
H1248 C1219 0.980 . S
H1249 C1185 0.930 . S
H1250 C1189 0.930 . S
H1251 C1190 0.961 . S
H1252 C1190 0.960 . S
H1253 C1190 0.958 . S
H1254 C1191 0.961 . S
H1255 C1191 0.960 . S
H1256 C1191 0.960 . S
H1257 C1193 0.980 . S
H1258 C1192 0.961 . S
H1259 C1192 0.961 . S
H1260 C1192 0.959 . S
H1261 C1195 0.932 . S
H1262 C1199 0.929 . S
H1263 C1200 0.961 . S
H1264 C1200 0.959 . S
H1265 C1200 0.959 . S
H1266 C1201 0.960 . S
H1267 C1201 0.962 . S
H1268 C1201 0.961 . S
H1269 C1203 0.929 . S
H1270 C1206 0.930 . S
H1271 C1207 0.929 . S
H1272 C1210 0.930 . S
H1273 C1213 0.929 . S
H1274 C1214 0.930 . S
H1275 C1218 0.962 . S
H1276 C1218 0.959 . S
H1277 C1218 0.958 . S
C1278 C1279 1.560 . S
C1278 H1339 0.959 . S
C1278 H1340 0.959 . S
C1278 H1341 0.960 . S
C1279 C1278 1.560 . S
C1279 O1334 1.426 . S
C1279 H1338 0.980 . S
C1280 C1281 1.407 1_455 S
C1280 C1285 1.418 . S
C1280 O1334 1.334 . S
C1281 C1280 1.407 1_655 S
C1281 C1282 1.360 . S
C1281 H1342 0.929 . S
C1282 C1281 1.360 . S
C1282 C1283 1.401 1_655 S
C1282 C1286 1.527 . S
C1283 C1282 1.401 1_455 S
C1283 C1284 1.405 . S
C1283 C1316 1.587 1_455 S
C1284 C1283 1.405 . S
C1284 C1285 1.332 . S
C1284 C1287 1.496 . S
C1285 C1280 1.418 . S
C1285 C1284 1.332 . S
C1285 H1343 0.929 . S
C1286 C1282 1.527 . S
C1286 H1344 0.959 . S
C1286 H1345 0.961 . S
C1286 H1346 0.961 . S
C1287 C1284 1.496 . S
C1287 H1347 0.960 . S
C1287 H1348 0.960 . S
C1287 H1349 0.961 . S
C1288 C1289 1.517 . S
C1288 H1351 0.961 . S
C1288 H1352 0.960 . S
C1288 H1353 0.959 . S
C1289 C1288 1.517 . S
C1289 O1337 1.468 . S
C1289 H1350 0.980 1_655 S
C1290 C1291 1.349 . S
C1290 C1295 1.367 . S
C1290 O1337 1.408 . S
C1291 C1290 1.349 . S
C1291 C1292 1.384 1_655 S
C1291 H1354 0.930 1_655 S
C1292 C1291 1.384 1_455 S
C1292 C1293 1.428 1_455 S
C1292 C1296 1.576 . S
C1293 C1292 1.428 1_655 S
C1293 C1294 1.384 . S
C1293 C1318 1.553 . S
C1294 C1293 1.384 . S
C1294 C1295 1.364 . S
C1294 C1297 1.450 . S
C1295 C1290 1.367 . S
C1295 C1294 1.364 . S
C1295 H1355 0.931 . S
C1296 C1292 1.576 . S
C1296 H1356 0.959 . S
C1296 H1357 0.961 . S
C1296 H1358 0.959 . S
C1297 C1294 1.450 . S
C1297 H1359 0.960 . S
C1297 H1360 0.960 . S
C1297 H1361 0.960 . S
C1298 C1299 1.309 . S
C1298 C1303 1.304 . S
C1298 O1336 1.435 . S
C1299 C1298 1.309 . S
C1299 C1300 1.444 1_655 S
C1299 H1363 0.930 1_655 S
C1300 C1299 1.444 1_455 S
C1300 C1301 1.380 1_455 S
C1300 C1304 1.620 . S
C1301 C1300 1.380 1_655 S
C1301 C1302 1.373 . S
C1301 C1323 1.432 . S
C1302 C1301 1.373 . S
C1302 C1303 1.339 . S
C1302 C1305 1.530 . S
C1303 C1298 1.304 . S
C1303 C1302 1.339 . S
C1303 H1364 0.930 . S
C1304 C1300 1.620 . S
C1304 H1365 0.961 . S
C1304 H1366 0.960 . S
C1304 H1367 0.958 . S
C1305 C1302 1.530 . S
C1305 H1368 0.961 . S
C1305 H1369 0.960 . S
C1305 H1370 0.960 . S
C1306 C1307 1.535 . S
C1306 H1372 0.961 . S
C1306 H1373 0.961 . S
C1306 H1374 0.959 . S
C1307 C1306 1.535 . S
C1307 O1335 1.413 . S
C1307 H1371 0.979 1_455 S
C1308 C1309 1.288 . S
C1308 C1313 1.377 1_455 S
C1308 O1335 1.393 . S
C1309 C1308 1.288 . S
C1309 C1310 1.369 . S
C1309 H1375 0.932 . S
C1310 C1309 1.369 . S
C1310 C1311 1.398 1_455 S
C1310 C1314 1.527 . S
C1311 C1310 1.398 1_655 S
C1311 C1312 1.380 . S
C1311 C1325 1.497 . S
C1312 C1311 1.380 . S
C1312 C1313 1.383 . S
C1312 C1315 1.603 . S
C1313 C1308 1.377 1_655 S
C1313 C1312 1.383 . S
C1313 H1376 0.929 . S
C1314 C1310 1.527 . S
C1314 H1377 0.961 . S
C1314 H1378 0.959 . S
C1314 H1379 0.959 . S
C1315 C1312 1.603 . S
C1315 H1380 0.960 . S
C1315 H1381 0.962 . S
C1315 H1382 0.961 . S
C1316 C1283 1.587 1_655 S
C1316 C1317 1.360 . S
C1316 C1329 1.412 . S
C1317 C1316 1.360 . S
C1317 C1318 1.365 . S
C1317 H1383 0.929 . S
C1318 C1293 1.553 . S
C1318 C1317 1.365 . S
C1318 C1319 1.404 . S
C1319 C1318 1.404 . S
C1319 C1320 1.395 . S
C1319 C1330 1.451 . S
C1320 C1319 1.395 . S
C1320 C1321 1.322 . S
C1320 H1384 0.930 . S
C1321 C1320 1.322 . S
C1321 C1322 1.459 . S
C1321 H1385 0.929 . S
C1322 C1321 1.459 . S
C1322 C1323 1.445 . S
C1322 C1331 1.395 . S
C1323 C1301 1.432 . S
C1323 C1322 1.445 . S
C1323 C1324 1.370 . S
C1324 C1323 1.370 . S
C1324 C1325 1.438 . S
C1324 H1386 0.930 . S
C1325 C1311 1.497 . S
C1325 C1324 1.438 . S
C1325 C1326 1.360 . S
C1326 C1325 1.360 . S
C1326 C1327 1.401 . S
C1326 C1331 1.446 . S
C1327 C1326 1.401 . S
C1327 C1328 1.347 . S
C1327 H1387 0.929 . S
C1328 C1327 1.347 . S
C1328 C1329 1.455 . S
C1328 H1388 0.930 . S
C1329 C1316 1.412 . S
C1329 C1328 1.455 . S
C1329 C1330 1.331 . S
C1330 C1319 1.451 . S
C1330 C1329 1.331 . S
C1330 C1331 1.497 . S
C1331 C1322 1.395 . S
C1331 C1326 1.446 . S
C1331 C1330 1.497 . S
C1332 C1333 1.582 . S
C1332 H1389 0.962 . S
C1332 H1390 0.959 . S
C1332 H1391 0.958 . S
C1333 C1332 1.582 . S
C1333 O1336 1.458 . S
C1333 H1362 0.980 . S
O1334 C1279 1.426 . S
O1334 C1280 1.334 . S
O1335 C1307 1.413 . S
O1335 C1308 1.393 . S
O1336 C1298 1.435 . S
O1336 C1333 1.458 . S
O1337 C1289 1.468 . S
O1337 C1290 1.408 . S
H1338 C1279 0.980 . S
H1339 C1278 0.959 . S
H1340 C1278 0.959 . S
H1341 C1278 0.960 . S
H1342 C1281 0.929 . S
H1343 C1285 0.929 . S
H1344 C1286 0.959 . S
H1345 C1286 0.961 . S
H1346 C1286 0.961 . S
H1347 C1287 0.960 . S
H1348 C1287 0.960 . S
H1349 C1287 0.961 . S
H1350 C1289 0.980 1_455 S
H1351 C1288 0.961 . S
H1352 C1288 0.960 . S
H1353 C1288 0.959 . S
H1354 C1291 0.930 1_455 S
H1355 C1295 0.931 . S
H1356 C1296 0.959 . S
H1357 C1296 0.961 . S
H1358 C1296 0.959 . S
H1359 C1297 0.960 . S
H1360 C1297 0.960 . S
H1361 C1297 0.960 . S
H1362 C1333 0.980 . S
H1363 C1299 0.930 1_455 S
H1364 C1303 0.930 . S
H1365 C1304 0.961 . S
H1366 C1304 0.960 . S
H1367 C1304 0.958 . S
H1368 C1305 0.961 . S
H1369 C1305 0.960 . S
H1370 C1305 0.960 . S
H1371 C1307 0.979 1_655 S
H1372 C1306 0.961 . S
H1373 C1306 0.961 . S
H1374 C1306 0.959 . S
H1375 C1309 0.932 . S
H1376 C1313 0.929 . S
H1377 C1314 0.961 . S
H1378 C1314 0.959 . S
H1379 C1314 0.959 . S
H1380 C1315 0.960 . S
H1381 C1315 0.962 . S
H1382 C1315 0.961 . S
H1383 C1317 0.929 . S
H1384 C1320 0.930 . S
H1385 C1321 0.929 . S
H1386 C1324 0.930 . S
H1387 C1327 0.929 . S
H1388 C1328 0.930 . S
H1389 C1332 0.962 . S
H1390 C1332 0.959 . S
H1391 C1332 0.958 . S
C1392 C1393 1.560 . S
C1392 H1453 0.959 . S
C1392 H1454 0.959 . S
C1392 H1455 0.960 . S
C1393 C1392 1.560 . S
C1393 O1448 1.426 . S
C1393 H1452 0.980 . S
C1394 C1395 1.407 . S
C1394 C1399 1.418 . S
C1394 O1448 1.334 . S
C1395 C1394 1.407 . S
C1395 C1396 1.360 . S
C1395 H1456 0.929 . S
C1396 C1395 1.360 . S
C1396 C1397 1.401 . S
C1396 C1400 1.527 . S
C1397 C1396 1.401 . S
C1397 C1398 1.405 . S
C1397 C1430 1.587 . S
C1398 C1397 1.405 . S
C1398 C1399 1.332 . S
C1398 C1401 1.496 . S
C1399 C1394 1.418 . S
C1399 C1398 1.332 . S
C1399 H1457 0.929 . S
C1400 C1396 1.527 . S
C1400 H1458 0.959 . S
C1400 H1459 0.961 . S
C1400 H1460 0.961 . S
C1401 C1398 1.496 . S
C1401 H1461 0.960 . S
C1401 H1462 0.960 . S
C1401 H1463 0.961 . S
C1402 C1403 1.517 . S
C1402 H1465 0.961 . S
C1402 H1466 0.960 . S
C1402 H1467 0.959 . S
C1403 C1402 1.517 . S
C1403 O1451 1.468 . S
C1403 H1464 0.980 . S
C1404 C1405 1.349 . S
C1404 C1409 1.367 . S
C1404 O1451 1.408 . S
C1405 C1404 1.349 . S
C1405 C1406 1.407 . S
C1405 H1468 0.930 . S
C1406 C1405 1.407 . S
C1406 C1407 1.449 . S
C1406 C1410 1.535 . S
C1407 C1406 1.449 . S
C1407 C1408 1.384 . S
C1407 C1432 1.553 . S
C1408 C1407 1.384 . S
C1408 C1409 1.364 . S
C1408 C1411 1.450 . S
C1409 C1404 1.367 . S
C1409 C1408 1.364 . S
C1409 H1469 0.931 . S
C1410 C1406 1.535 . S
C1410 H1470 0.959 . S
C1410 H1471 0.961 . S
C1410 H1472 0.959 . S
C1411 C1408 1.450 . S
C1411 H1473 0.960 . S
C1411 H1474 0.960 . S
C1411 H1475 0.960 . S
C1412 C1413 1.309 . S
C1412 C1417 1.304 . S
C1412 O1450 1.435 . S
C1413 C1412 1.309 . S
C1413 C1414 1.476 . S
C1413 H1477 0.930 . S
C1414 C1413 1.476 . S
C1414 C1415 1.400 . S
C1414 C1418 1.567 . S
C1415 C1414 1.400 . S
C1415 C1416 1.373 . S
C1415 C1437 1.432 . S
C1416 C1415 1.373 . S
C1416 C1417 1.339 . S
C1416 C1419 1.530 . S
C1417 C1412 1.304 . S
C1417 C1416 1.339 . S
C1417 H1478 0.930 . S
C1418 C1414 1.567 . S
C1418 H1479 0.961 . S
C1418 H1480 0.960 . S
C1418 H1481 0.958 . S
C1419 C1416 1.530 . S
C1419 H1482 0.961 . S
C1419 H1483 0.960 . S
C1419 H1484 0.960 . S
C1420 C1421 1.530 . S
C1420 H1486 0.961 . S
C1420 H1487 0.961 . S
C1420 H1488 0.959 . S
C1421 C1420 1.530 . S
C1421 O1449 1.412 . S
C1421 H1485 0.980 . S
C1422 C1423 1.288 . S
C1422 C1427 1.377 . S
C1422 O1449 1.393 . S
C1423 C1422 1.288 . S
C1423 C1424 1.369 . S
C1423 H1489 0.932 . S
C1424 C1423 1.369 . S
C1424 C1425 1.398 . S
C1424 C1428 1.527 . S
C1425 C1424 1.398 . S
C1425 C1426 1.380 . S
C1425 C1439 1.497 . S
C1426 C1425 1.380 . S
C1426 C1427 1.383 . S
C1426 C1429 1.603 . S
C1427 C1422 1.377 . S
C1427 C1426 1.383 . S
C1427 H1490 0.929 . S
C1428 C1424 1.527 . S
C1428 H1491 0.961 . S
C1428 H1492 0.959 . S
C1428 H1493 0.959 . S
C1429 C1426 1.603 . S
C1429 H1494 0.960 . S
C1429 H1495 0.962 . S
C1429 H1496 0.961 . S
C1430 C1397 1.587 . S
C1430 C1431 1.360 . S
C1430 C1443 1.412 . S
C1431 C1430 1.360 . S
C1431 C1432 1.365 . S
C1431 H1497 0.929 . S
C1432 C1407 1.553 . S
C1432 C1431 1.365 . S
C1432 C1433 1.404 . S
C1433 C1432 1.404 . S
C1433 C1434 1.395 . S
C1433 C1444 1.451 . S
C1434 C1433 1.395 . S
C1434 C1435 1.322 . S
C1434 H1498 0.930 . S
C1435 C1434 1.322 . S
C1435 C1436 1.459 . S
C1435 H1499 0.929 . S
C1436 C1435 1.459 . S
C1436 C1437 1.445 . S
C1436 C1445 1.395 . S
C1437 C1415 1.432 . S
C1437 C1436 1.445 . S
C1437 C1438 1.370 . S
C1438 C1437 1.370 . S
C1438 C1439 1.438 . S
C1438 H1500 0.930 . S
C1439 C1425 1.497 . S
C1439 C1438 1.438 . S
C1439 C1440 1.360 . S
C1440 C1439 1.360 . S
C1440 C1441 1.401 . S
C1440 C1445 1.446 . S
C1441 C1440 1.401 . S
C1441 C1442 1.347 . S
C1441 H1501 0.929 . S
C1442 C1441 1.347 . S
C1442 C1443 1.455 . S
C1442 H1502 0.930 . S
C1443 C1430 1.412 . S
C1443 C1442 1.455 . S
C1443 C1444 1.331 . S
C1444 C1433 1.451 . S
C1444 C1443 1.331 . S
C1444 C1445 1.497 . S
C1445 C1436 1.395 . S
C1445 C1440 1.446 . S
C1445 C1444 1.497 . S
C1446 C1447 1.582 . S
C1446 H1503 0.962 . S
C1446 H1504 0.959 . S
C1446 H1505 0.958 . S
C1447 C1446 1.582 . S
C1447 O1450 1.458 . S
C1447 H1476 0.980 . S
O1448 C1393 1.426 . S
O1448 C1394 1.334 . S
O1449 C1421 1.412 . S
O1449 C1422 1.393 . S
O1450 C1412 1.435 . S
O1450 C1447 1.458 . S
O1451 C1403 1.468 . S
O1451 C1404 1.408 . S
H1452 C1393 0.980 . S
H1453 C1392 0.959 . S
H1454 C1392 0.959 . S
H1455 C1392 0.960 . S
H1456 C1395 0.929 . S
H1457 C1399 0.929 . S
H1458 C1400 0.959 . S
H1459 C1400 0.961 . S
H1460 C1400 0.961 . S
H1461 C1401 0.960 . S
H1462 C1401 0.960 . S
H1463 C1401 0.961 . S
H1464 C1403 0.980 . S
H1465 C1402 0.961 . S
H1466 C1402 0.960 . S
H1467 C1402 0.959 . S
H1468 C1405 0.930 . S
H1469 C1409 0.931 . S
H1470 C1410 0.959 . S
H1471 C1410 0.961 . S
H1472 C1410 0.959 . S
H1473 C1411 0.960 . S
H1474 C1411 0.960 . S
H1475 C1411 0.960 . S
H1476 C1447 0.980 . S
H1477 C1413 0.930 . S
H1478 C1417 0.930 . S
H1479 C1418 0.961 . S
H1480 C1418 0.960 . S
H1481 C1418 0.958 . S
H1482 C1419 0.961 . S
H1483 C1419 0.960 . S
H1484 C1419 0.960 . S
H1485 C1421 0.980 . S
H1486 C1420 0.961 . S
H1487 C1420 0.961 . S
H1488 C1420 0.959 . S
H1489 C1423 0.932 . S
H1490 C1427 0.929 . S
H1491 C1428 0.961 . S
H1492 C1428 0.959 . S
H1493 C1428 0.959 . S
H1494 C1429 0.960 . S
H1495 C1429 0.962 . S
H1496 C1429 0.961 . S
H1497 C1431 0.929 . S
H1498 C1434 0.930 . S
H1499 C1435 0.929 . S
H1500 C1438 0.930 . S
H1501 C1441 0.929 . S
H1502 C1442 0.930 . S
H1503 C1446 0.962 . S
H1504 C1446 0.959 . S
H1505 C1446 0.958 . S
C1506 C1507 1.560 . S
C1506 H1567 0.959 . S
C1506 H1568 0.959 . S
C1506 H1569 0.960 . S
C1507 C1506 1.560 . S
C1507 O1562 1.426 . S
C1507 H1566 0.980 . S
C1508 C1509 1.407 1_565 S
C1508 C1513 1.418 . S
C1508 O1562 1.334 . S
C1509 C1508 1.407 1_545 S
C1509 C1510 1.360 . S
C1509 H1570 0.929 . S
C1510 C1509 1.360 . S
C1510 C1511 1.335 1_545 S
C1510 C1514 1.527 . S
C1511 C1510 1.335 1_565 S
C1511 C1512 1.469 . S
C1511 C1544 1.597 1_565 S
C1512 C1511 1.469 . S
C1512 C1513 1.332 . S
C1512 C1515 1.496 . S
C1513 C1508 1.418 . S
C1513 C1512 1.332 . S
C1513 H1571 0.929 . S
C1514 C1510 1.527 . S
C1514 H1572 0.959 . S
C1514 H1573 0.961 . S
C1514 H1574 0.961 . S
C1515 C1512 1.496 . S
C1515 H1575 0.960 . S
C1515 H1576 0.960 . S
C1515 H1577 0.961 . S
C1516 C1517 1.517 . S
C1516 H1579 0.962 . S
C1516 H1580 0.960 . S
C1516 H1581 0.959 . S
C1517 C1516 1.517 . S
C1517 O1565 1.468 . S
C1517 H1578 0.980 1_545 S
C1518 C1519 1.349 . S
C1518 C1523 1.367 . S
C1518 O1565 1.408 . S
C1519 C1518 1.349 . S
C1519 C1520 1.434 1_545 S
C1519 H1582 0.930 1_545 S
C1520 C1519 1.434 1_565 S
C1520 C1521 1.378 1_565 S
C1520 C1524 1.582 . S
C1521 C1520 1.378 1_545 S
C1521 C1522 1.384 . S
C1521 C1546 1.553 . S
C1522 C1521 1.384 . S
C1522 C1523 1.364 . S
C1522 C1525 1.450 . S
C1523 C1518 1.367 . S
C1523 C1522 1.364 . S
C1523 H1583 0.931 . S
C1524 C1520 1.582 . S
C1524 H1584 0.959 . S
C1524 H1585 0.961 . S
C1524 H1586 0.959 . S
C1525 C1522 1.450 . S
C1525 H1587 0.960 . S
C1525 H1588 0.960 . S
C1525 H1589 0.960 . S
C1526 C1527 1.309 . S
C1526 C1531 1.304 . S
C1526 O1564 1.435 . S
C1527 C1526 1.309 . S
C1527 C1528 1.500 1_545 S
C1527 H1591 0.930 1_545 S
C1528 C1527 1.500 1_565 S
C1528 C1529 1.324 1_565 S
C1528 C1532 1.620 . S
C1529 C1528 1.324 1_545 S
C1529 C1530 1.373 . S
C1529 C1551 1.432 . S
C1530 C1529 1.373 . S
C1530 C1531 1.339 . S
C1530 C1533 1.530 . S
C1531 C1526 1.304 . S
C1531 C1530 1.339 . S
C1531 H1592 0.930 . S
C1532 C1528 1.620 . S
C1532 H1593 0.961 . S
C1532 H1594 0.960 . S
C1532 H1595 0.958 . S
C1533 C1530 1.530 . S
C1533 H1596 0.961 . S
C1533 H1597 0.960 . S
C1533 H1598 0.960 . S
C1534 C1535 1.525 1_565 S
C1534 H1600 0.961 . S
C1534 H1601 0.961 . S
C1534 H1602 0.959 . S
C1535 C1534 1.525 1_545 S
C1535 O1563 1.370 1_545 S
C1535 H1599 1.002 . S
C1536 C1537 1.288 . S
C1536 C1541 1.377 1_565 S
C1536 O1563 1.393 . S
C1537 C1536 1.288 . S
C1537 C1538 1.369 . S
C1537 H1603 0.932 . S
C1538 C1537 1.369 . S
C1538 C1539 1.398 1_565 S
C1538 C1542 1.527 . S
C1539 C1538 1.398 1_545 S
C1539 C1540 1.380 . S
C1539 C1553 1.497 . S
C1540 C1539 1.380 . S
C1540 C1541 1.383 . S
C1540 C1543 1.603 . S
C1541 C1536 1.377 1_545 S
C1541 C1540 1.383 . S
C1541 H1604 0.929 . S
C1542 C1538 1.527 . S
C1542 H1605 0.961 . S
C1542 H1606 0.959 . S
C1542 H1607 0.959 . S
C1543 C1540 1.603 . S
C1543 H1608 0.960 . S
C1543 H1609 0.962 . S
C1543 H1610 0.961 . S
C1544 C1511 1.597 1_545 S
C1544 C1545 1.360 . S
C1544 C1557 1.412 . S
C1545 C1544 1.360 . S
C1545 C1546 1.365 . S
C1545 H1611 0.929 . S
C1546 C1521 1.553 . S
C1546 C1545 1.365 . S
C1546 C1547 1.404 . S
C1547 C1546 1.404 . S
C1547 C1548 1.395 . S
C1547 C1558 1.451 . S
C1548 C1547 1.395 . S
C1548 C1549 1.322 . S
C1548 H1612 0.930 . S
C1549 C1548 1.322 . S
C1549 C1550 1.459 . S
C1549 H1613 0.929 . S
C1550 C1549 1.459 . S
C1550 C1551 1.445 . S
C1550 C1559 1.395 . S
C1551 C1529 1.432 . S
C1551 C1550 1.445 . S
C1551 C1552 1.370 . S
C1552 C1551 1.370 . S
C1552 C1553 1.438 . S
C1552 H1614 0.930 . S
C1553 C1539 1.497 . S
C1553 C1552 1.438 . S
C1553 C1554 1.360 . S
C1554 C1553 1.360 . S
C1554 C1555 1.401 . S
C1554 C1559 1.446 . S
C1555 C1554 1.401 . S
C1555 C1556 1.347 . S
C1555 H1615 0.929 . S
C1556 C1555 1.347 . S
C1556 C1557 1.455 . S
C1556 H1616 0.930 . S
C1557 C1544 1.412 . S
C1557 C1556 1.455 . S
C1557 C1558 1.331 . S
C1558 C1547 1.451 . S
C1558 C1557 1.331 . S
C1558 C1559 1.497 . S
C1559 C1550 1.395 . S
C1559 C1554 1.446 . S
C1559 C1558 1.497 . S
C1560 C1561 1.582 . S
C1560 H1617 0.962 . S
C1560 H1618 0.959 . S
C1560 H1619 0.958 . S
C1561 C1560 1.582 . S
C1561 O1564 1.458 . S
C1561 H1590 0.980 . S
O1562 C1507 1.426 . S
O1562 C1508 1.334 . S
O1563 C1535 1.370 1_565 S
O1563 C1536 1.393 . S
O1564 C1526 1.435 . S
O1564 C1561 1.458 . S
O1565 C1517 1.468 . S
O1565 C1518 1.408 . S
H1566 C1507 0.980 . S
H1567 C1506 0.959 . S
H1568 C1506 0.959 . S
H1569 C1506 0.960 . S
H1570 C1509 0.929 . S
H1571 C1513 0.929 . S
H1572 C1514 0.959 . S
H1573 C1514 0.961 . S
H1574 C1514 0.961 . S
H1575 C1515 0.960 . S
H1576 C1515 0.960 . S
H1577 C1515 0.961 . S
H1578 C1517 0.980 1_565 S
H1579 C1516 0.962 . S
H1580 C1516 0.960 . S
H1581 C1516 0.959 . S
H1582 C1519 0.930 1_565 S
H1583 C1523 0.931 . S
H1584 C1524 0.959 . S
H1585 C1524 0.961 . S
H1586 C1524 0.959 . S
H1587 C1525 0.960 . S
H1588 C1525 0.960 . S
H1589 C1525 0.960 . S
H1590 C1561 0.980 . S
H1591 C1527 0.930 1_565 S
H1592 C1531 0.930 . S
H1593 C1532 0.961 . S
H1594 C1532 0.960 . S
H1595 C1532 0.958 . S
H1596 C1533 0.961 . S
H1597 C1533 0.960 . S
H1598 C1533 0.960 . S
H1599 C1535 1.002 . S
H1600 C1534 0.961 . S
H1601 C1534 0.961 . S
H1602 C1534 0.959 . S
H1603 C1537 0.932 . S
H1604 C1541 0.929 . S
H1605 C1542 0.961 . S
H1606 C1542 0.959 . S
H1607 C1542 0.959 . S
H1608 C1543 0.960 . S
H1609 C1543 0.962 . S
H1610 C1543 0.961 . S
H1611 C1545 0.929 . S
H1612 C1548 0.930 . S
H1613 C1549 0.929 . S
H1614 C1552 0.930 . S
H1615 C1555 0.929 . S
H1616 C1556 0.930 . S
H1617 C1560 0.962 . S
H1618 C1560 0.959 . S
H1619 C1560 0.958 . S
C1620 C1621 1.560 . S
C1620 H1681 0.959 . S
C1620 H1682 0.959 . S
C1620 H1683 0.960 . S
C1621 C1620 1.560 . S
C1621 O1676 1.426 . S
C1621 H1680 0.980 1_565 S
C1622 C1623 1.407 1_565 S
C1622 C1627 1.418 . S
C1622 O1676 1.334 . S
C1623 C1622 1.407 1_545 S
C1623 C1624 1.360 . S
C1623 H1684 0.929 . S
C1624 C1623 1.360 . S
C1624 C1625 1.401 . S
C1624 C1628 1.527 . S
C1625 C1624 1.401 . S
C1625 C1626 1.405 1_545 S
C1625 C1658 1.587 . S
C1626 C1625 1.405 1_565 S
C1626 C1627 1.332 . S
C1626 C1629 1.496 . S
C1627 C1622 1.418 . S
C1627 C1626 1.332 . S
C1627 H1685 0.929 . S
C1628 C1624 1.527 . S
C1628 H1686 0.959 . S
C1628 H1687 0.961 . S
C1628 H1688 0.961 . S
C1629 C1626 1.496 . S
C1629 H1689 0.960 . S
C1629 H1690 0.960 . S
C1629 H1691 0.961 . S
C1630 C1631 1.517 . S
C1630 H1693 0.961 . S
C1630 H1694 0.960 . S
C1630 H1695 0.959 . S
C1631 C1630 1.517 . S
C1631 O1679 1.468 . S
C1631 H1692 0.980 . S
C1632 C1633 1.349 . S
C1632 C1637 1.367 . S
C1632 O1679 1.408 . S
C1633 C1632 1.349 . S
C1633 C1634 1.407 . S
C1633 H1696 0.907 1_545 S
C1634 C1633 1.407 . S
C1634 C1635 1.449 . S
C1634 C1638 1.535 1_545 S
C1635 C1634 1.449 . S
C1635 C1636 1.384 . S
C1635 C1660 1.553 . S
C1636 C1635 1.384 . S
C1636 C1637 1.364 . S
C1636 C1639 1.450 . S
C1637 C1632 1.367 . S
C1637 C1636 1.364 . S
C1637 H1697 0.931 . S
C1638 C1634 1.535 1_565 S
C1638 H1698 0.959 . S
C1638 H1699 0.961 . S
C1638 H1700 0.959 . S
C1639 C1636 1.450 . S
C1639 H1701 0.960 . S
C1639 H1702 0.960 . S
C1639 H1703 0.960 . S
C1640 C1641 1.309 1_545 S
C1640 C1645 1.304 . S
C1640 O1678 1.435 . S
C1641 C1640 1.309 1_565 S
C1641 C1642 1.476 . S
C1641 H1705 0.930 . S
C1642 C1641 1.476 . S
C1642 C1643 1.400 1_565 S
C1642 C1646 1.567 . S
C1643 C1642 1.400 1_545 S
C1643 C1644 1.373 . S
C1643 C1665 1.432 . S
C1644 C1643 1.373 . S
C1644 C1645 1.339 . S
C1644 C1647 1.530 . S
C1645 C1640 1.304 . S
C1645 C1644 1.339 . S
C1645 H1706 0.930 . S
C1646 C1642 1.567 . S
C1646 H1707 0.961 . S
C1646 H1708 0.960 . S
C1646 H1709 0.958 . S
C1647 C1644 1.530 . S
C1647 H1710 0.961 . S
C1647 H1711 0.960 . S
C1647 H1712 0.960 . S
C1648 C1649 1.530 . S
C1648 H1714 0.961 . S
C1648 H1715 0.961 . S
C1648 H1716 0.959 . S
C1649 C1648 1.530 . S
C1649 O1677 1.412 . S
C1649 H1713 0.982 1_565 S
C1650 C1651 1.288 . S
C1650 C1655 1.377 1_565 S
C1650 O1677 1.393 . S
C1651 C1650 1.288 . S
C1651 C1652 1.369 . S
C1651 H1717 0.932 . S
C1652 C1651 1.369 . S
C1652 C1653 1.398 . S
C1652 C1656 1.527 . S
C1653 C1652 1.398 . S
C1653 C1654 1.380 1_565 S
C1653 C1667 1.497 1_565 S
C1654 C1653 1.380 1_545 S
C1654 C1655 1.383 . S
C1654 C1657 1.603 . S
C1655 C1650 1.377 1_545 S
C1655 C1654 1.383 . S
C1655 H1718 0.929 . S
C1656 C1652 1.527 . S
C1656 H1719 0.961 . S
C1656 H1720 0.959 . S
C1656 H1721 0.959 . S
C1657 C1654 1.603 . S
C1657 H1722 0.960 . S
C1657 H1723 0.962 . S
C1657 H1724 0.961 . S
C1658 C1625 1.587 . S
C1658 C1659 1.360 . S
C1658 C1671 1.412 . S
C1659 C1658 1.360 . S
C1659 C1660 1.365 . S
C1659 H1725 0.929 . S
C1660 C1635 1.553 . S
C1660 C1659 1.365 . S
C1660 C1661 1.404 . S
C1661 C1660 1.404 . S
C1661 C1662 1.395 . S
C1661 C1672 1.451 . S
C1662 C1661 1.395 . S
C1662 C1663 1.322 . S
C1662 H1726 0.930 . S
C1663 C1662 1.322 . S
C1663 C1664 1.459 . S
C1663 H1727 0.929 . S
C1664 C1663 1.459 . S
C1664 C1665 1.445 . S
C1664 C1673 1.395 . S
C1665 C1643 1.432 . S
C1665 C1664 1.445 . S
C1665 C1666 1.370 . S
C1666 C1665 1.370 . S
C1666 C1667 1.438 . S
C1666 H1728 0.930 . S
C1667 C1653 1.497 1_545 S
C1667 C1666 1.438 . S
C1667 C1668 1.360 . S
C1668 C1667 1.360 . S
C1668 C1669 1.401 . S
C1668 C1673 1.446 . S
C1669 C1668 1.401 . S
C1669 C1670 1.347 . S
C1669 H1729 0.975 . S
C1670 C1669 1.347 . S
C1670 C1671 1.455 . S
C1670 H1730 0.930 . S
C1671 C1658 1.412 . S
C1671 C1670 1.455 . S
C1671 C1672 1.331 . S
C1672 C1661 1.451 . S
C1672 C1671 1.331 . S
C1672 C1673 1.497 . S
C1673 C1664 1.395 . S
C1673 C1668 1.446 . S
C1673 C1672 1.497 . S
C1674 C1675 1.582 . S
C1674 H1731 0.962 . S
C1674 H1732 0.959 . S
C1674 H1733 0.958 . S
C1675 C1674 1.582 . S
C1675 O1678 1.458 . S
C1675 H1704 0.980 1_545 S
O1676 C1621 1.426 . S
O1676 C1622 1.334 . S
O1677 C1649 1.412 . S
O1677 C1650 1.393 . S
O1678 C1640 1.435 . S
O1678 C1675 1.458 . S
O1679 C1631 1.468 . S
O1679 C1632 1.408 . S
H1680 C1621 0.980 1_545 S
H1681 C1620 0.959 . S
H1682 C1620 0.959 . S
H1683 C1620 0.960 . S
H1684 C1623 0.929 . S
H1685 C1627 0.929 . S
H1686 C1628 0.959 . S
H1687 C1628 0.961 . S
H1688 C1628 0.961 . S
H1689 C1629 0.960 . S
H1690 C1629 0.960 . S
H1691 C1629 0.961 . S
H1692 C1631 0.980 . S
H1693 C1630 0.961 . S
H1694 C1630 0.960 . S
H1695 C1630 0.959 . S
H1696 C1633 0.907 1_565 S
H1697 C1637 0.931 . S
H1698 C1638 0.959 . S
H1699 C1638 0.961 . S
H1700 C1638 0.959 . S
H1701 C1639 0.960 . S
H1702 C1639 0.960 . S
H1703 C1639 0.960 . S
H1704 C1675 0.980 1_565 S
H1705 C1641 0.930 . S
H1706 C1645 0.930 . S
H1707 C1646 0.961 . S
H1708 C1646 0.960 . S
H1709 C1646 0.958 . S
H1710 C1647 0.961 . S
H1711 C1647 0.960 . S
H1712 C1647 0.960 . S
H1713 C1649 0.982 1_545 S
H1714 C1648 0.961 . S
H1715 C1648 0.961 . S
H1716 C1648 0.959 . S
H1717 C1651 0.932 . S
H1718 C1655 0.929 . S
H1719 C1656 0.961 . S
H1720 C1656 0.959 . S
H1721 C1656 0.959 . S
H1722 C1657 0.960 . S
H1723 C1657 0.962 . S
H1724 C1657 0.961 . S
H1725 C1659 0.929 . S
H1726 C1662 0.930 . S
H1727 C1663 0.929 . S
H1728 C1666 0.930 . S
H1729 C1669 0.975 . S
H1730 C1670 0.930 . S
H1731 C1674 0.962 . S
H1732 C1674 0.959 . S
H1733 C1674 0.958 . S
C1734 C1735 1.560 . S
C1734 H1795 0.959 . S
C1734 H1796 0.959 . S
C1734 H1797 0.960 . S
C1735 C1734 1.560 . S
C1735 O1790 1.426 . S
C1735 H1794 0.980 1_455 S
C1736 C1737 1.407 1_455 S
C1736 C1741 1.418 . S
C1736 O1790 1.334 . S
C1737 C1736 1.407 1_655 S
C1737 C1738 1.360 . S
C1737 H1798 0.929 . S
C1738 C1737 1.360 . S
C1738 C1739 1.401 . S
C1738 C1742 1.527 . S
C1739 C1738 1.401 . S
C1739 C1740 1.405 1_655 S
C1739 C1772 1.587 . S
C1740 C1739 1.405 1_455 S
C1740 C1741 1.332 . S
C1740 C1743 1.496 . S
C1741 C1736 1.418 . S
C1741 C1740 1.332 . S
C1741 H1799 0.929 . S
C1742 C1738 1.527 . S
C1742 H1800 0.959 . S
C1742 H1801 0.961 . S
C1742 H1802 0.961 . S
C1743 C1740 1.496 . S
C1743 H1803 0.960 . S
C1743 H1804 0.960 . S
C1743 H1805 0.961 . S
C1744 C1745 1.517 . S
C1744 H1807 0.961 . S
C1744 H1808 0.960 . S
C1744 H1809 0.959 . S
C1745 C1744 1.517 . S
C1745 O1793 1.468 . S
C1745 H1806 0.980 . S
C1746 C1747 1.349 . S
C1746 C1751 1.367 . S
C1746 O1793 1.408 . S
C1747 C1746 1.349 . S
C1747 C1748 1.407 . S
C1747 H1810 0.871 1_655 S
C1748 C1747 1.407 . S
C1748 C1749 1.449 . S
C1748 C1752 1.535 1_655 S
C1749 C1748 1.449 . S
C1749 C1750 1.384 . S
C1749 C1774 1.553 . S
C1750 C1749 1.384 . S
C1750 C1751 1.364 . S
C1750 C1753 1.450 . S
C1751 C1746 1.367 . S
C1751 C1750 1.364 . S
C1751 H1811 0.931 . S
C1752 C1748 1.535 1_455 S
C1752 H1812 0.959 . S
C1752 H1813 0.961 . S
C1752 H1814 0.959 . S
C1753 C1750 1.450 . S
C1753 H1815 0.960 . S
C1753 H1816 0.960 . S
C1753 H1817 0.960 . S
C1754 C1755 1.309 1_655 S
C1754 C1759 1.304 . S
C1754 O1792 1.435 . S
C1755 C1754 1.309 1_455 S
C1755 C1756 1.476 . S
C1755 H1819 0.930 . S
C1756 C1755 1.476 . S
C1756 C1757 1.400 1_455 S
C1756 C1760 1.567 . S
C1757 C1756 1.400 1_655 S
C1757 C1758 1.373 . S
C1757 C1779 1.432 . S
C1758 C1757 1.373 . S
C1758 C1759 1.339 . S
C1758 C1761 1.530 . S
C1759 C1754 1.304 . S
C1759 C1758 1.339 . S
C1759 H1820 0.930 . S
C1760 C1756 1.567 . S
C1760 H1821 0.961 . S
C1760 H1822 0.960 . S
C1760 H1823 0.958 . S
C1761 C1758 1.530 . S
C1761 H1824 0.961 . S
C1761 H1825 0.960 . S
C1761 H1826 0.960 . S
C1762 C1763 1.530 . S
C1762 H1828 0.961 . S
C1762 H1829 0.961 . S
C1762 H1830 0.959 . S
C1763 C1762 1.530 . S
C1763 O1791 1.412 . S
C1763 H1827 0.970 1_455 S
C1764 C1765 1.288 . S
C1764 C1769 1.377 1_455 S
C1764 O1791 1.393 . S
C1765 C1764 1.288 . S
C1765 C1766 1.369 . S
C1765 H1831 0.932 . S
C1766 C1765 1.369 . S
C1766 C1767 1.398 . S
C1766 C1770 1.527 . S
C1767 C1766 1.398 . S
C1767 C1768 1.380 1_455 S
C1767 C1781 1.497 1_455 S
C1768 C1767 1.380 1_655 S
C1768 C1769 1.383 . S
C1768 C1771 1.603 . S
C1769 C1764 1.377 1_655 S
C1769 C1768 1.383 . S
C1769 H1832 0.929 . S
C1770 C1766 1.527 . S
C1770 H1833 0.961 . S
C1770 H1834 0.959 . S
C1770 H1835 0.959 . S
C1771 C1768 1.603 . S
C1771 H1836 0.960 . S
C1771 H1837 0.962 . S
C1771 H1838 0.961 . S
C1772 C1739 1.587 . S
C1772 C1773 1.360 . S
C1772 C1785 1.412 . S
C1773 C1772 1.360 . S
C1773 C1774 1.365 . S
C1773 H1839 0.929 . S
C1774 C1749 1.553 . S
C1774 C1773 1.365 . S
C1774 C1775 1.404 . S
C1775 C1774 1.404 . S
C1775 C1776 1.395 . S
C1775 C1786 1.451 . S
C1776 C1775 1.395 . S
C1776 C1777 1.322 . S
C1776 H1840 0.930 . S
C1777 C1776 1.322 . S
C1777 C1778 1.459 . S
C1777 H1841 0.929 . S
C1778 C1777 1.459 . S
C1778 C1779 1.445 . S
C1778 C1787 1.395 . S
C1779 C1757 1.432 . S
C1779 C1778 1.445 . S
C1779 C1780 1.370 . S
C1780 C1779 1.370 . S
C1780 C1781 1.438 . S
C1780 H1842 0.930 . S
C1781 C1767 1.497 1_655 S
C1781 C1780 1.438 . S
C1781 C1782 1.360 . S
C1782 C1781 1.360 . S
C1782 C1783 1.401 . S
C1782 C1787 1.446 . S
C1783 C1782 1.401 . S
C1783 C1784 1.347 . S
C1783 H1843 0.929 . S
C1784 C1783 1.347 . S
C1784 C1785 1.455 . S
C1784 H1844 0.930 . S
C1785 C1772 1.412 . S
C1785 C1784 1.455 . S
C1785 C1786 1.331 . S
C1786 C1775 1.451 . S
C1786 C1785 1.331 . S
C1786 C1787 1.497 . S
C1787 C1778 1.395 . S
C1787 C1782 1.446 . S
C1787 C1786 1.497 . S
C1788 C1789 1.582 . S
C1788 H1845 0.962 . S
C1788 H1846 0.959 . S
C1788 H1847 0.958 . S
C1789 C1788 1.582 . S
C1789 O1792 1.474 . S
C1789 H1818 0.974 1_655 S
O1790 C1735 1.426 . S
O1790 C1736 1.334 . S
O1791 C1763 1.412 . S
O1791 C1764 1.393 . S
O1792 C1754 1.435 . S
O1792 C1789 1.474 . S
O1793 C1745 1.468 . S
O1793 C1746 1.408 . S
H1794 C1735 0.980 1_655 S
H1795 C1734 0.959 . S
H1796 C1734 0.959 . S
H1797 C1734 0.960 . S
H1798 C1737 0.929 . S
H1799 C1741 0.929 . S
H1800 C1742 0.959 . S
H1801 C1742 0.961 . S
H1802 C1742 0.961 . S
H1803 C1743 0.960 . S
H1804 C1743 0.960 . S
H1805 C1743 0.961 . S
H1806 C1745 0.980 . S
H1807 C1744 0.961 . S
H1808 C1744 0.960 . S
H1809 C1744 0.959 . S
H1810 C1747 0.871 1_455 S
H1811 C1751 0.931 . S
H1812 C1752 0.959 . S
H1813 C1752 0.961 . S
H1814 C1752 0.959 . S
H1815 C1753 0.960 . S
H1816 C1753 0.960 . S
H1817 C1753 0.960 . S
H1818 C1789 0.974 1_455 S
H1819 C1755 0.930 . S
H1820 C1759 0.930 . S
H1821 C1760 0.961 . S
H1822 C1760 0.960 . S
H1823 C1760 0.958 . S
H1824 C1761 0.961 . S
H1825 C1761 0.960 . S
H1826 C1761 0.960 . S
H1827 C1763 0.970 1_655 S
H1828 C1762 0.961 . S
H1829 C1762 0.961 . S
H1830 C1762 0.959 . S
H1831 C1765 0.932 . S
H1832 C1769 0.929 . S
H1833 C1770 0.961 . S
H1834 C1770 0.959 . S
H1835 C1770 0.959 . S
H1836 C1771 0.960 . S
H1837 C1771 0.962 . S
H1838 C1771 0.961 . S
H1839 C1773 0.929 . S
H1840 C1776 0.930 . S
H1841 C1777 0.929 . S
H1842 C1780 0.930 . S
H1843 C1783 0.929 . S
H1844 C1784 0.930 . S
H1845 C1788 0.962 . S
H1846 C1788 0.959 . S
H1847 C1788 0.958 . S
C1848 C1849 1.560 . S
C1848 H1909 0.959 . S
C1848 H1910 0.959 . S
C1848 H1911 0.960 . S
C1849 C1848 1.560 . S
C1849 O1904 1.426 . S
C1849 H1908 0.980 . S
C1850 C1851 1.407 . S
C1850 C1855 1.418 . S
C1850 O1904 1.334 . S
C1851 C1850 1.407 . S
C1851 C1852 1.360 . S
C1851 H1912 0.929 . S
C1852 C1851 1.360 . S
C1852 C1853 1.401 . S
C1852 C1856 1.527 . S
C1853 C1852 1.401 . S
C1853 C1854 1.405 . S
C1853 C1886 1.587 . S
C1854 C1853 1.405 . S
C1854 C1855 1.332 . S
C1854 C1857 1.496 . S
C1855 C1850 1.418 . S
C1855 C1854 1.332 . S
C1855 H1913 0.929 . S
C1856 C1852 1.527 . S
C1856 H1914 0.959 . S
C1856 H1915 0.961 . S
C1856 H1916 0.961 . S
C1857 C1854 1.496 . S
C1857 H1917 0.960 . S
C1857 H1918 0.960 . S
C1857 H1919 0.961 . S
C1858 C1859 1.517 . S
C1858 H1921 0.961 . S
C1858 H1922 0.960 . S
C1858 H1923 0.959 . S
C1859 C1858 1.517 . S
C1859 O1907 1.468 . S
C1859 H1920 0.980 . S
C1860 C1861 1.349 . S
C1860 C1865 1.367 . S
C1860 O1907 1.408 . S
C1861 C1860 1.349 . S
C1861 C1862 1.407 . S
C1861 H1924 0.930 . S
C1862 C1861 1.407 . S
C1862 C1863 1.449 . S
C1862 C1866 1.535 . S
C1863 C1862 1.449 . S
C1863 C1864 1.384 . S
C1863 C1888 1.553 . S
C1864 C1863 1.384 . S
C1864 C1865 1.364 . S
C1864 C1867 1.450 . S
C1865 C1860 1.367 . S
C1865 C1864 1.364 . S
C1865 H1925 0.931 . S
C1866 C1862 1.535 . S
C1866 H1926 0.959 . S
C1866 H1927 0.961 . S
C1866 H1928 0.959 . S
C1867 C1864 1.450 . S
C1867 H1929 0.960 . S
C1867 H1930 0.960 . S
C1867 H1931 0.960 . S
C1868 C1869 1.309 . S
C1868 C1873 1.304 . S
C1868 O1906 1.435 . S
C1869 C1868 1.309 . S
C1869 C1870 1.476 . S
C1869 H1933 0.930 . S
C1870 C1869 1.476 . S
C1870 C1871 1.400 . S
C1870 C1874 1.567 . S
C1871 C1870 1.400 . S
C1871 C1872 1.373 . S
C1871 C1893 1.432 . S
C1872 C1871 1.373 . S
C1872 C1873 1.339 . S
C1872 C1875 1.530 . S
C1873 C1868 1.304 . S
C1873 C1872 1.339 . S
C1873 H1934 0.930 . S
C1874 C1870 1.567 . S
C1874 H1935 0.961 . S
C1874 H1936 0.960 . S
C1874 H1937 0.958 . S
C1875 C1872 1.530 . S
C1875 H1938 0.961 . S
C1875 H1939 0.960 . S
C1875 H1940 0.960 . S
C1876 C1877 1.530 . S
C1876 H1942 0.961 . S
C1876 H1943 0.961 . S
C1876 H1944 0.959 . S
C1877 C1876 1.530 . S
C1877 O1905 1.412 . S
C1877 H1941 0.980 . S
C1878 C1879 1.288 . S
C1878 C1883 1.377 . S
C1878 O1905 1.393 . S
C1879 C1878 1.288 . S
C1879 C1880 1.369 . S
C1879 H1945 0.932 . S
C1880 C1879 1.369 . S
C1880 C1881 1.398 . S
C1880 C1884 1.527 . S
C1881 C1880 1.398 . S
C1881 C1882 1.380 . S
C1881 C1895 1.497 . S
C1882 C1881 1.380 . S
C1882 C1883 1.383 . S
C1882 C1885 1.603 . S
C1883 C1878 1.377 . S
C1883 C1882 1.383 . S
C1883 H1946 0.929 . S
C1884 C1880 1.527 . S
C1884 H1947 0.961 . S
C1884 H1948 0.959 . S
C1884 H1949 0.959 . S
C1885 C1882 1.603 . S
C1885 H1950 0.960 . S
C1885 H1951 0.962 . S
C1885 H1952 0.961 . S
C1886 C1853 1.587 . S
C1886 C1887 1.360 . S
C1886 C1899 1.412 . S
C1887 C1886 1.360 . S
C1887 C1888 1.365 . S
C1887 H1953 0.929 . S
C1888 C1863 1.553 . S
C1888 C1887 1.365 . S
C1888 C1889 1.404 . S
C1889 C1888 1.404 . S
C1889 C1890 1.395 . S
C1889 C1900 1.451 . S
C1890 C1889 1.395 . S
C1890 C1891 1.322 . S
C1890 H1954 0.930 . S
C1891 C1890 1.322 . S
C1891 C1892 1.459 . S
C1891 H1955 0.929 . S
C1892 C1891 1.459 . S
C1892 C1893 1.445 . S
C1892 C1901 1.395 . S
C1893 C1871 1.432 . S
C1893 C1892 1.445 . S
C1893 C1894 1.370 . S
C1894 C1893 1.370 . S
C1894 C1895 1.438 . S
C1894 H1956 0.930 . S
C1895 C1881 1.497 . S
C1895 C1894 1.438 . S
C1895 C1896 1.360 . S
C1896 C1895 1.360 . S
C1896 C1897 1.401 . S
C1896 C1901 1.446 . S
C1897 C1896 1.401 . S
C1897 C1898 1.347 . S
C1897 H1957 0.929 . S
C1898 C1897 1.347 . S
C1898 C1899 1.455 . S
C1898 H1958 0.930 . S
C1899 C1886 1.412 . S
C1899 C1898 1.455 . S
C1899 C1900 1.331 . S
C1900 C1889 1.451 . S
C1900 C1899 1.331 . S
C1900 C1901 1.497 . S
C1901 C1892 1.395 . S
C1901 C1896 1.446 . S
C1901 C1900 1.497 . S
C1902 C1903 1.582 . S
C1902 H1959 0.962 . S
C1902 H1960 0.959 . S
C1902 H1961 0.958 . S
C1903 C1902 1.582 . S
C1903 O1906 1.458 . S
C1903 H1932 0.980 . S
O1904 C1849 1.426 . S
O1904 C1850 1.334 . S
O1905 C1877 1.412 . S
O1905 C1878 1.393 . S
O1906 C1868 1.435 . S
O1906 C1903 1.458 . S
O1907 C1859 1.468 . S
O1907 C1860 1.408 . S
H1908 C1849 0.980 . S
H1909 C1848 0.959 . S
H1910 C1848 0.959 . S
H1911 C1848 0.960 . S
H1912 C1851 0.929 . S
H1913 C1855 0.929 . S
H1914 C1856 0.959 . S
H1915 C1856 0.961 . S
H1916 C1856 0.961 . S
H1917 C1857 0.960 . S
H1918 C1857 0.960 . S
H1919 C1857 0.961 . S
H1920 C1859 0.980 . S
H1921 C1858 0.961 . S
H1922 C1858 0.960 . S
H1923 C1858 0.959 . S
H1924 C1861 0.930 . S
H1925 C1865 0.931 . S
H1926 C1866 0.959 . S
H1927 C1866 0.961 . S
H1928 C1866 0.959 . S
H1929 C1867 0.960 . S
H1930 C1867 0.960 . S
H1931 C1867 0.960 . S
H1932 C1903 0.980 . S
H1933 C1869 0.930 . S
H1934 C1873 0.930 . S
H1935 C1874 0.961 . S
H1936 C1874 0.960 . S
H1937 C1874 0.958 . S
H1938 C1875 0.961 . S
H1939 C1875 0.960 . S
H1940 C1875 0.960 . S
H1941 C1877 0.980 . S
H1942 C1876 0.961 . S
H1943 C1876 0.961 . S
H1944 C1876 0.959 . S
H1945 C1879 0.932 . S
H1946 C1883 0.929 . S
H1947 C1884 0.961 . S
H1948 C1884 0.959 . S
H1949 C1884 0.959 . S
H1950 C1885 0.960 . S
H1951 C1885 0.962 . S
H1952 C1885 0.961 . S
H1953 C1887 0.929 . S
H1954 C1890 0.930 . S
H1955 C1891 0.929 . S
H1956 C1894 0.930 . S
H1957 C1897 0.929 . S
H1958 C1898 0.930 . S
H1959 C1902 0.962 . S
H1960 C1902 0.959 . S
H1961 C1902 0.958 . S
C1962 C1963 1.560 . S
C1962 H2023 0.959 . S
C1962 H2024 0.959 . S
C1962 H2025 0.960 . S
C1963 C1962 1.560 . S
C1963 O2018 1.426 . S
C1963 H2022 0.980 . S
C1964 C1965 1.407 . S
C1964 C1969 1.418 . S
C1964 O2018 1.334 . S
C1965 C1964 1.407 . S
C1965 C1966 1.360 . S
C1965 H2026 0.929 . S
C1966 C1965 1.360 . S
C1966 C1967 1.401 . S
C1966 C1970 1.527 . S
C1967 C1966 1.401 . S
C1967 C1968 1.405 . S
C1967 C2000 1.587 . S
C1968 C1967 1.405 . S
C1968 C1969 1.332 . S
C1968 C1971 1.496 . S
C1969 C1964 1.418 . S
C1969 C1968 1.332 . S
C1969 H2027 0.929 . S
C1970 C1966 1.527 . S
C1970 H2028 0.959 . S
C1970 H2029 0.961 . S
C1970 H2030 0.961 . S
C1971 C1968 1.496 . S
C1971 H2031 0.960 . S
C1971 H2032 0.960 . S
C1971 H2033 0.961 . S
C1972 C1973 1.517 . S
C1972 H2035 0.961 . S
C1972 H2036 0.960 . S
C1972 H2037 0.959 . S
C1973 C1972 1.517 . S
C1973 O2021 1.468 . S
C1973 H2034 0.980 . S
C1974 C1975 1.349 . S
C1974 C1979 1.367 . S
C1974 O2021 1.408 . S
C1975 C1974 1.349 . S
C1975 C1976 1.407 . S
C1975 H2038 0.930 . S
C1976 C1975 1.407 . S
C1976 C1977 1.449 . S
C1976 C1980 1.535 . S
C1977 C1976 1.449 . S
C1977 C1978 1.384 . S
C1977 C2002 1.553 . S
C1978 C1977 1.384 . S
C1978 C1979 1.364 . S
C1978 C1981 1.450 . S
C1979 C1974 1.367 . S
C1979 C1978 1.364 . S
C1979 H2039 0.931 . S
C1980 C1976 1.535 . S
C1980 H2040 0.959 . S
C1980 H2041 0.961 . S
C1980 H2042 0.959 . S
C1981 C1978 1.450 . S
C1981 H2043 0.960 . S
C1981 H2044 0.960 . S
C1981 H2045 0.960 . S
C1982 C1983 1.309 . S
C1982 C1987 1.304 . S
C1982 O2020 1.435 . S
C1983 C1982 1.309 . S
C1983 C1984 1.476 . S
C1983 H2047 0.930 . S
C1984 C1983 1.476 . S
C1984 C1985 1.400 . S
C1984 C1988 1.567 . S
C1985 C1984 1.400 . S
C1985 C1986 1.373 . S
C1985 C2007 1.432 . S
C1986 C1985 1.373 . S
C1986 C1987 1.339 . S
C1986 C1989 1.530 . S
C1987 C1982 1.304 . S
C1987 C1986 1.339 . S
C1987 H2048 0.930 . S
C1988 C1984 1.567 . S
C1988 H2049 0.961 . S
C1988 H2050 0.960 . S
C1988 H2051 0.958 . S
C1989 C1986 1.530 . S
C1989 H2052 0.961 . S
C1989 H2053 0.960 . S
C1989 H2054 0.960 . S
C1990 C1991 1.530 . S
C1990 H2056 0.961 . S
C1990 H2057 0.961 . S
C1990 H2058 0.959 . S
C1991 C1990 1.530 . S
C1991 O2019 1.412 . S
C1991 H2055 0.980 . S
C1992 C1993 1.288 . S
C1992 C1997 1.377 . S
C1992 O2019 1.393 . S
C1993 C1992 1.288 . S
C1993 C1994 1.369 . S
C1993 H2059 0.932 . S
C1994 C1993 1.369 . S
C1994 C1995 1.398 . S
C1994 C1998 1.527 . S
C1995 C1994 1.398 . S
C1995 C1996 1.380 . S
C1995 C2009 1.497 . S
C1996 C1995 1.380 . S
C1996 C1997 1.383 . S
C1996 C1999 1.603 . S
C1997 C1992 1.377 . S
C1997 C1996 1.383 . S
C1997 H2060 0.929 . S
C1998 C1994 1.527 . S
C1998 H2061 0.961 . S
C1998 H2062 0.959 . S
C1998 H2063 0.959 . S
C1999 C1996 1.603 . S
C1999 H2064 0.960 . S
C1999 H2065 0.962 . S
C1999 H2066 0.961 . S
C2000 C1967 1.587 . S
C2000 C2001 1.360 . S
C2000 C2013 1.412 . S
C2001 C2000 1.360 . S
C2001 C2002 1.365 . S
C2001 H2067 0.929 . S
C2002 C1977 1.553 . S
C2002 C2001 1.365 . S
C2002 C2003 1.404 . S
C2003 C2002 1.404 . S
C2003 C2004 1.395 . S
C2003 C2014 1.451 . S
C2004 C2003 1.395 . S
C2004 C2005 1.322 . S
C2004 H2068 0.930 . S
C2005 C2004 1.322 . S
C2005 C2006 1.459 . S
C2005 H2069 0.929 . S
C2006 C2005 1.459 . S
C2006 C2007 1.445 . S
C2006 C2015 1.395 . S
C2007 C1985 1.432 . S
C2007 C2006 1.445 . S
C2007 C2008 1.370 . S
C2008 C2007 1.370 . S
C2008 C2009 1.438 . S
C2008 H2070 0.930 . S
C2009 C1995 1.497 . S
C2009 C2008 1.438 . S
C2009 C2010 1.360 . S
C2010 C2009 1.360 . S
C2010 C2011 1.401 . S
C2010 C2015 1.446 . S
C2011 C2010 1.401 . S
C2011 C2012 1.347 . S
C2011 H2071 0.929 . S
C2012 C2011 1.347 . S
C2012 C2013 1.455 . S
C2012 H2072 0.930 . S
C2013 C2000 1.412 . S
C2013 C2012 1.455 . S
C2013 C2014 1.331 . S
C2014 C2003 1.451 . S
C2014 C2013 1.331 . S
C2014 C2015 1.497 . S
C2015 C2006 1.395 . S
C2015 C2010 1.446 . S
C2015 C2014 1.497 . S
C2016 C2017 1.582 . S
C2016 H2073 0.962 . S
C2016 H2074 0.959 . S
C2016 H2075 0.958 . S
C2017 C2016 1.582 . S
C2017 O2020 1.458 . S
C2017 H2046 0.980 . S
O2018 C1963 1.426 . S
O2018 C1964 1.334 . S
O2019 C1991 1.412 . S
O2019 C1992 1.393 . S
O2020 C1982 1.435 . S
O2020 C2017 1.458 . S
O2021 C1973 1.468 . S
O2021 C1974 1.408 . S
H2022 C1963 0.980 . S
H2023 C1962 0.959 . S
H2024 C1962 0.959 . S
H2025 C1962 0.960 . S
H2026 C1965 0.929 . S
H2027 C1969 0.929 . S
H2028 C1970 0.959 . S
H2029 C1970 0.961 . S
H2030 C1970 0.961 . S
H2031 C1971 0.960 . S
H2032 C1971 0.960 . S
H2033 C1971 0.961 . S
H2034 C1973 0.980 . S
H2035 C1972 0.961 . S
H2036 C1972 0.960 . S
H2037 C1972 0.959 . S
H2038 C1975 0.930 . S
H2039 C1979 0.931 . S
H2040 C1980 0.959 . S
H2041 C1980 0.961 . S
H2042 C1980 0.959 . S
H2043 C1981 0.960 . S
H2044 C1981 0.960 . S
H2045 C1981 0.960 . S
H2046 C2017 0.980 . S
H2047 C1983 0.930 . S
H2048 C1987 0.930 . S
H2049 C1988 0.961 . S
H2050 C1988 0.960 . S
H2051 C1988 0.958 . S
H2052 C1989 0.961 . S
H2053 C1989 0.960 . S
H2054 C1989 0.960 . S
H2055 C1991 0.980 . S
H2056 C1990 0.961 . S
H2057 C1990 0.961 . S
H2058 C1990 0.959 . S
H2059 C1993 0.932 . S
H2060 C1997 0.929 . S
H2061 C1998 0.961 . S
H2062 C1998 0.959 . S
H2063 C1998 0.959 . S
H2064 C1999 0.960 . S
H2065 C1999 0.962 . S
H2066 C1999 0.961 . S
H2067 C2001 0.929 . S
H2068 C2004 0.930 . S
H2069 C2005 0.929 . S
H2070 C2008 0.930 . S
H2071 C2011 0.929 . S
H2072 C2012 0.930 . S
H2073 C2016 0.962 . S
H2074 C2016 0.959 . S
H2075 C2016 0.958 . S
C2076 C2077 1.560 . S
C2076 H2137 0.959 . S
C2076 H2138 0.959 . S
C2076 H2139 0.960 . S
C2077 C2076 1.560 . S
C2077 O2132 1.426 . S
C2077 H2136 0.980 . S
C2078 C2079 1.407 . S
C2078 C2083 1.418 . S
C2078 O2132 1.334 . S
C2079 C2078 1.407 . S
C2079 C2080 1.360 . S
C2079 H2140 0.929 . S
C2080 C2079 1.360 . S
C2080 C2081 1.401 . S
C2080 C2084 1.527 . S
C2081 C2080 1.401 . S
C2081 C2082 1.405 . S
C2081 C2114 1.587 . S
C2082 C2081 1.405 . S
C2082 C2083 1.332 . S
C2082 C2085 1.496 . S
C2083 C2078 1.418 . S
C2083 C2082 1.332 . S
C2083 H2141 0.929 . S
C2084 C2080 1.527 . S
C2084 H2142 0.959 . S
C2084 H2143 0.961 . S
C2084 H2144 0.961 . S
C2085 C2082 1.496 . S
C2085 H2145 0.960 . S
C2085 H2146 0.960 . S
C2085 H2147 0.961 . S
C2086 C2087 1.517 . S
C2086 H2149 0.961 . S
C2086 H2150 0.960 . S
C2086 H2151 0.959 . S
C2087 C2086 1.517 . S
C2087 O2135 1.468 . S
C2087 H2148 0.980 . S
C2088 C2089 1.349 . S
C2088 C2093 1.367 . S
C2088 O2135 1.408 . S
C2089 C2088 1.349 . S
C2089 C2090 1.407 . S
C2089 H2152 0.930 . S
C2090 C2089 1.407 . S
C2090 C2091 1.449 . S
C2090 C2094 1.535 . S
C2091 C2090 1.449 . S
C2091 C2092 1.384 . S
C2091 C2116 1.553 . S
C2092 C2091 1.384 . S
C2092 C2093 1.364 . S
C2092 C2095 1.450 . S
C2093 C2088 1.367 . S
C2093 C2092 1.364 . S
C2093 H2153 0.931 . S
C2094 C2090 1.535 . S
C2094 H2154 0.959 . S
C2094 H2155 0.961 . S
C2094 H2156 0.959 . S
C2095 C2092 1.450 . S
C2095 H2157 0.960 . S
C2095 H2158 0.960 . S
C2095 H2159 0.960 . S
C2096 C2097 1.309 . S
C2096 C2101 1.304 . S
C2096 O2134 1.435 . S
C2097 C2096 1.309 . S
C2097 C2098 1.476 . S
C2097 H2161 0.930 . S
C2098 C2097 1.476 . S
C2098 C2099 1.400 . S
C2098 C2102 1.567 . S
C2099 C2098 1.400 . S
C2099 C2100 1.373 . S
C2099 C2121 1.432 . S
C2100 C2099 1.373 . S
C2100 C2101 1.339 . S
C2100 C2103 1.530 . S
C2101 C2096 1.304 . S
C2101 C2100 1.339 . S
C2101 H2162 0.930 . S
C2102 C2098 1.567 . S
C2102 H2163 0.961 . S
C2102 H2164 0.960 . S
C2102 H2165 0.958 . S
C2103 C2100 1.530 . S
C2103 H2166 0.961 . S
C2103 H2167 0.960 . S
C2103 H2168 0.960 . S
C2104 C2105 1.530 . S
C2104 H2170 0.961 . S
C2104 H2171 0.961 . S
C2104 H2172 0.959 . S
C2105 C2104 1.530 . S
C2105 O2133 1.412 . S
C2105 H2169 0.980 . S
C2106 C2107 1.288 . S
C2106 C2111 1.377 . S
C2106 O2133 1.393 . S
C2107 C2106 1.288 . S
C2107 C2108 1.369 . S
C2107 H2173 0.932 . S
C2108 C2107 1.369 . S
C2108 C2109 1.398 . S
C2108 C2112 1.527 . S
C2109 C2108 1.398 . S
C2109 C2110 1.380 . S
C2109 C2123 1.497 . S
C2110 C2109 1.380 . S
C2110 C2111 1.383 . S
C2110 C2113 1.603 . S
C2111 C2106 1.377 . S
C2111 C2110 1.383 . S
C2111 H2174 0.929 . S
C2112 C2108 1.527 . S
C2112 H2175 0.961 . S
C2112 H2176 0.959 . S
C2112 H2177 0.959 . S
C2113 C2110 1.603 . S
C2113 H2178 0.960 . S
C2113 H2179 0.962 . S
C2113 H2180 0.961 . S
C2114 C2081 1.587 . S
C2114 C2115 1.360 . S
C2114 C2127 1.412 . S
C2115 C2114 1.360 . S
C2115 C2116 1.365 . S
C2115 H2181 0.929 . S
C2116 C2091 1.553 . S
C2116 C2115 1.365 . S
C2116 C2117 1.404 . S
C2117 C2116 1.404 . S
C2117 C2118 1.395 . S
C2117 C2128 1.451 . S
C2118 C2117 1.395 . S
C2118 C2119 1.322 . S
C2118 H2182 0.930 . S
C2119 C2118 1.322 . S
C2119 C2120 1.459 . S
C2119 H2183 0.929 . S
C2120 C2119 1.459 . S
C2120 C2121 1.445 . S
C2120 C2129 1.395 . S
C2121 C2099 1.432 . S
C2121 C2120 1.445 . S
C2121 C2122 1.370 . S
C2122 C2121 1.370 . S
C2122 C2123 1.438 . S
C2122 H2184 0.930 . S
C2123 C2109 1.497 . S
C2123 C2122 1.438 . S
C2123 C2124 1.360 . S
C2124 C2123 1.360 . S
C2124 C2125 1.401 . S
C2124 C2129 1.446 . S
C2125 C2124 1.401 . S
C2125 C2126 1.347 . S
C2125 H2185 0.929 . S
C2126 C2125 1.347 . S
C2126 C2127 1.455 . S
C2126 H2186 0.930 . S
C2127 C2114 1.412 . S
C2127 C2126 1.455 . S
C2127 C2128 1.331 . S
C2128 C2117 1.451 . S
C2128 C2127 1.331 . S
C2128 C2129 1.497 . S
C2129 C2120 1.395 . S
C2129 C2124 1.446 . S
C2129 C2128 1.497 . S
C2130 C2131 1.582 . S
C2130 H2187 0.962 . S
C2130 H2188 0.959 . S
C2130 H2189 0.958 . S
C2131 C2130 1.582 . S
C2131 O2134 1.458 . S
C2131 H2160 0.980 . S
O2132 C2077 1.426 . S
O2132 C2078 1.334 . S
O2133 C2105 1.412 . S
O2133 C2106 1.393 . S
O2134 C2096 1.435 . S
O2134 C2131 1.458 . S
O2135 C2087 1.468 . S
O2135 C2088 1.408 . S
H2136 C2077 0.980 . S
H2137 C2076 0.959 . S
H2138 C2076 0.959 . S
H2139 C2076 0.960 . S
H2140 C2079 0.929 . S
H2141 C2083 0.929 . S
H2142 C2084 0.959 . S
H2143 C2084 0.961 . S
H2144 C2084 0.961 . S
H2145 C2085 0.960 . S
H2146 C2085 0.960 . S
H2147 C2085 0.961 . S
H2148 C2087 0.980 . S
H2149 C2086 0.961 . S
H2150 C2086 0.960 . S
H2151 C2086 0.959 . S
H2152 C2089 0.930 . S
H2153 C2093 0.931 . S
H2154 C2094 0.959 . S
H2155 C2094 0.961 . S
H2156 C2094 0.959 . S
H2157 C2095 0.960 . S
H2158 C2095 0.960 . S
H2159 C2095 0.960 . S
H2160 C2131 0.980 . S
H2161 C2097 0.930 . S
H2162 C2101 0.930 . S
H2163 C2102 0.961 . S
H2164 C2102 0.960 . S
H2165 C2102 0.958 . S
H2166 C2103 0.961 . S
H2167 C2103 0.960 . S
H2168 C2103 0.960 . S
H2169 C2105 0.980 . S
H2170 C2104 0.961 . S
H2171 C2104 0.961 . S
H2172 C2104 0.959 . S
H2173 C2107 0.932 . S
H2174 C2111 0.929 . S
H2175 C2112 0.961 . S
H2176 C2112 0.959 . S
H2177 C2112 0.959 . S
H2178 C2113 0.960 . S
H2179 C2113 0.962 . S
H2180 C2113 0.961 . S
H2181 C2115 0.929 . S
H2182 C2118 0.930 . S
H2183 C2119 0.929 . S
H2184 C2122 0.930 . S
H2185 C2125 0.929 . S
H2186 C2126 0.930 . S
H2187 C2130 0.962 . S
H2188 C2130 0.959 . S
H2189 C2130 0.958 . S
C2190 C2191 1.560 . S
C2190 H2251 0.959 . S
C2190 H2252 0.959 . S
C2190 H2253 0.960 . S
C2191 C2190 1.560 . S
C2191 O2246 1.426 . S
C2191 H2250 0.980 . S
C2192 C2193 1.407 . S
C2192 C2197 1.418 . S
C2192 O2246 1.334 . S
C2193 C2192 1.407 . S
C2193 C2194 1.360 . S
C2193 H2254 0.929 . S
C2194 C2193 1.360 . S
C2194 C2195 1.401 . S
C2194 C2198 1.527 . S
C2195 C2194 1.401 . S
C2195 C2196 1.405 . S
C2195 C2228 1.587 . S
C2196 C2195 1.405 . S
C2196 C2197 1.332 . S
C2196 C2199 1.496 . S
C2197 C2192 1.418 . S
C2197 C2196 1.332 . S
C2197 H2255 0.929 . S
C2198 C2194 1.527 . S
C2198 H2256 0.959 . S
C2198 H2257 0.961 . S
C2198 H2258 0.961 . S
C2199 C2196 1.496 . S
C2199 H2259 0.960 . S
C2199 H2260 0.960 . S
C2199 H2261 0.961 . S
C2200 C2201 1.517 . S
C2200 H2263 0.961 . S
C2200 H2264 0.960 . S
C2200 H2265 0.959 . S
C2201 C2200 1.517 . S
C2201 O2249 1.468 . S
C2201 H2262 0.980 . S
C2202 C2203 1.349 . S
C2202 C2207 1.367 . S
C2202 O2249 1.408 . S
C2203 C2202 1.349 . S
C2203 C2204 1.407 . S
C2203 H2266 0.930 . S
C2204 C2203 1.407 . S
C2204 C2205 1.449 . S
C2204 C2208 1.535 . S
C2205 C2204 1.449 . S
C2205 C2206 1.384 . S
C2205 C2230 1.553 . S
C2206 C2205 1.384 . S
C2206 C2207 1.364 . S
C2206 C2209 1.450 . S
C2207 C2202 1.367 . S
C2207 C2206 1.364 . S
C2207 H2267 0.931 . S
C2208 C2204 1.535 . S
C2208 H2268 0.959 . S
C2208 H2269 0.961 . S
C2208 H2270 0.959 . S
C2209 C2206 1.450 . S
C2209 H2271 0.960 . S
C2209 H2272 0.960 . S
C2209 H2273 0.960 . S
C2210 C2211 1.309 . S
C2210 C2215 1.304 . S
C2210 O2248 1.435 . S
C2211 C2210 1.309 . S
C2211 C2212 1.476 . S
C2211 H2275 0.930 . S
C2212 C2211 1.476 . S
C2212 C2213 1.400 . S
C2212 C2216 1.567 . S
C2213 C2212 1.400 . S
C2213 C2214 1.373 . S
C2213 C2235 1.432 . S
C2214 C2213 1.373 . S
C2214 C2215 1.339 . S
C2214 C2217 1.530 . S
C2215 C2210 1.304 . S
C2215 C2214 1.339 . S
C2215 H2276 0.930 . S
C2216 C2212 1.567 . S
C2216 H2277 0.961 . S
C2216 H2278 0.960 . S
C2216 H2279 0.958 . S
C2217 C2214 1.530 . S
C2217 H2280 0.961 . S
C2217 H2281 0.960 . S
C2217 H2282 0.960 . S
C2218 C2219 1.530 . S
C2218 H2284 0.961 . S
C2218 H2285 0.961 . S
C2218 H2286 0.959 . S
C2219 C2218 1.530 . S
C2219 O2247 1.412 . S
C2219 H2283 0.980 . S
C2220 C2221 1.288 . S
C2220 C2225 1.377 . S
C2220 O2247 1.393 . S
C2221 C2220 1.288 . S
C2221 C2222 1.369 . S
C2221 H2287 0.932 . S
C2222 C2221 1.369 . S
C2222 C2223 1.398 . S
C2222 C2226 1.527 . S
C2223 C2222 1.398 . S
C2223 C2224 1.380 . S
C2223 C2237 1.497 . S
C2224 C2223 1.380 . S
C2224 C2225 1.383 . S
C2224 C2227 1.603 . S
C2225 C2220 1.377 . S
C2225 C2224 1.383 . S
C2225 H2288 0.929 . S
C2226 C2222 1.527 . S
C2226 H2289 0.961 . S
C2226 H2290 0.959 . S
C2226 H2291 0.959 . S
C2227 C2224 1.603 . S
C2227 H2292 0.960 . S
C2227 H2293 0.962 . S
C2227 H2294 0.961 . S
C2228 C2195 1.587 . S
C2228 C2229 1.360 . S
C2228 C2241 1.412 . S
C2229 C2228 1.360 . S
C2229 C2230 1.365 . S
C2229 H2295 0.929 . S
C2230 C2205 1.553 . S
C2230 C2229 1.365 . S
C2230 C2231 1.404 . S
C2231 C2230 1.404 . S
C2231 C2232 1.395 . S
C2231 C2242 1.451 . S
C2232 C2231 1.395 . S
C2232 C2233 1.322 . S
C2232 H2296 0.930 . S
C2233 C2232 1.322 . S
C2233 C2234 1.459 . S
C2233 H2297 0.929 . S
C2234 C2233 1.459 . S
C2234 C2235 1.445 . S
C2234 C2243 1.395 . S
C2235 C2213 1.432 . S
C2235 C2234 1.445 . S
C2235 C2236 1.370 . S
C2236 C2235 1.370 . S
C2236 C2237 1.438 . S
C2236 H2298 0.930 . S
C2237 C2223 1.497 . S
C2237 C2236 1.438 . S
C2237 C2238 1.360 . S
C2238 C2237 1.360 . S
C2238 C2239 1.401 . S
C2238 C2243 1.446 . S
C2239 C2238 1.401 . S
C2239 C2240 1.347 . S
C2239 H2299 0.929 . S
C2240 C2239 1.347 . S
C2240 C2241 1.455 . S
C2240 H2300 0.930 . S
C2241 C2228 1.412 . S
C2241 C2240 1.455 . S
C2241 C2242 1.331 . S
C2242 C2231 1.451 . S
C2242 C2241 1.331 . S
C2242 C2243 1.497 . S
C2243 C2234 1.395 . S
C2243 C2238 1.446 . S
C2243 C2242 1.497 . S
C2244 C2245 1.582 . S
C2244 H2301 0.962 . S
C2244 H2302 0.959 . S
C2244 H2303 0.958 . S
C2245 C2244 1.582 . S
C2245 O2248 1.458 . S
C2245 H2274 0.980 . S
O2246 C2191 1.426 . S
O2246 C2192 1.334 . S
O2247 C2219 1.412 . S
O2247 C2220 1.393 . S
O2248 C2210 1.435 . S
O2248 C2245 1.458 . S
O2249 C2201 1.468 . S
O2249 C2202 1.408 . S
H2250 C2191 0.980 . S
H2251 C2190 0.959 . S
H2252 C2190 0.959 . S
H2253 C2190 0.960 . S
H2254 C2193 0.929 . S
H2255 C2197 0.929 . S
H2256 C2198 0.959 . S
H2257 C2198 0.961 . S
H2258 C2198 0.961 . S
H2259 C2199 0.960 . S
H2260 C2199 0.960 . S
H2261 C2199 0.961 . S
H2262 C2201 0.980 . S
H2263 C2200 0.961 . S
H2264 C2200 0.960 . S
H2265 C2200 0.959 . S
H2266 C2203 0.930 . S
H2267 C2207 0.931 . S
H2268 C2208 0.959 . S
H2269 C2208 0.961 . S
H2270 C2208 0.959 . S
H2271 C2209 0.960 . S
H2272 C2209 0.960 . S
H2273 C2209 0.960 . S
H2274 C2245 0.980 . S
H2275 C2211 0.930 . S
H2276 C2215 0.930 . S
H2277 C2216 0.961 . S
H2278 C2216 0.960 . S
H2279 C2216 0.958 . S
H2280 C2217 0.961 . S
H2281 C2217 0.960 . S
H2282 C2217 0.960 . S
H2283 C2219 0.980 . S
H2284 C2218 0.961 . S
H2285 C2218 0.961 . S
H2286 C2218 0.959 . S
H2287 C2221 0.932 . S
H2288 C2225 0.929 . S
H2289 C2226 0.961 . S
H2290 C2226 0.959 . S
H2291 C2226 0.959 . S
H2292 C2227 0.960 . S
H2293 C2227 0.962 . S
H2294 C2227 0.961 . S
H2295 C2229 0.929 . S
H2296 C2232 0.930 . S
H2297 C2233 0.929 . S
H2298 C2236 0.930 . S
H2299 C2239 0.929 . S
H2300 C2240 0.930 . S
H2301 C2244 0.962 . S
H2302 C2244 0.959 . S
H2303 C2244 0.958 . S
H2304 C2310 0.930 . S
H2305 C2313 0.954 . S
H2306 C2314 0.930 . S
H2307 C2315 0.930 . S
H2308 C2318 0.930 . S
H2309 C2319 0.930 . S
C2310 H2304 0.930 . S
C2310 C2311 1.390 . S
C2310 C2312 1.415 . S
C2311 C2310 1.390 . S
C2311 C2313 1.413 . S
C2312 C2310 1.415 . S
C2312 C2317 1.425 . S
C2312 C2319 1.409 . S
C2313 H2305 0.954 . S
C2313 C2311 1.413 . S
C2313 C2314 1.362 . S
C2314 H2306 0.930 . S
C2314 C2313 1.362 . S
C2314 C2317 1.409 . S
C2315 H2307 0.930 . S
C2315 C2316 1.355 . S
C2315 C2317 1.415 . S
C2316 C2315 1.355 . S
C2316 C2318 1.419 . S
C2317 C2312 1.425 . S
C2317 C2314 1.409 . S
C2317 C2315 1.415 . S
C2318 H2308 0.930 . S
C2318 C2316 1.419 . S
C2318 C2319 1.362 . S
C2319 H2309 0.930 . S
C2319 C2312 1.409 . S
C2319 C2318 1.362 . S
H2320 C2326 0.930 . S
H2321 C2329 0.930 . S
H2322 C2330 0.930 . S
H2323 C2331 0.930 . S
H2324 C2334 0.930 . S
H2325 C2335 0.930 . S
C2326 H2320 0.930 . S
C2326 C2327 1.355 . S
C2326 C2328 1.415 . S
C2327 C2326 1.355 . S
C2327 C2329 1.419 . S
C2328 C2326 1.415 . S
C2328 C2333 1.425 . S
C2328 C2335 1.409 . S
C2329 H2321 0.930 . S
C2329 C2327 1.419 . S
C2329 C2330 1.362 . S
C2330 H2322 0.930 . S
C2330 C2329 1.362 . S
C2330 C2333 1.409 . S
C2331 H2323 0.930 . S
C2331 C2332 1.355 . S
C2331 C2333 1.415 . S
C2332 C2331 1.355 . S
C2332 C2334 1.419 . S
C2333 C2328 1.425 . S
C2333 C2330 1.409 . S
C2333 C2331 1.415 . S
C2334 H2324 0.930 . S
C2334 C2332 1.419 . S
C2334 C2335 1.362 . S
C2335 H2325 0.930 . S
C2335 C2328 1.409 . S
C2335 C2334 1.362 . S
H2336 C2342 0.930 1_565 S
H2337 C2345 0.930 . S
H2338 C2346 0.930 . S
H2339 C2347 0.930 . S
H2340 C2350 0.930 . S
H2341 C2351 0.930 . S
C2342 H2336 0.930 1_545 S
C2342 C2343 1.355 . S
C2342 C2344 1.415 . S
C2343 C2342 1.355 . S
C2343 C2345 1.419 . S
C2344 C2342 1.415 . S
C2344 C2349 1.425 . S
C2344 C2351 1.409 1_545 S
C2345 H2337 0.930 . S
C2345 C2343 1.419 . S
C2345 C2346 1.362 . S
C2346 H2338 0.930 . S
C2346 C2345 1.362 . S
C2346 C2349 1.409 . S
C2347 H2339 0.930 . S
C2347 C2348 1.355 . S
C2347 C2349 1.415 . S
C2348 C2347 1.355 . S
C2348 C2350 1.419 1_545 S
C2349 C2344 1.425 . S
C2349 C2346 1.409 . S
C2349 C2347 1.415 . S
C2350 H2340 0.930 . S
C2350 C2348 1.419 1_565 S
C2350 C2351 1.362 . S
C2351 H2341 0.930 . S
C2351 C2344 1.409 1_565 S
C2351 C2350 1.362 . S
H2352 C2358 0.930 . S
H2353 C2361 0.930 . S
H2354 C2362 0.930 . S
H2355 C2363 0.930 1_545 S
H2356 C2366 0.930 . S
H2357 C2367 0.930 . S
C2358 H2352 0.930 . S
C2358 C2359 1.355 . S
C2358 C2360 1.415 . S
C2359 C2358 1.355 . S
C2359 C2361 1.419 1_565 S
C2360 C2358 1.415 . S
C2360 C2365 1.425 . S
C2360 C2367 1.409 . S
C2361 H2353 0.930 . S
C2361 C2359 1.419 1_545 S
C2361 C2362 1.362 . S
C2362 H2354 0.930 . S
C2362 C2361 1.362 . S
C2362 C2365 1.409 1_545 S
C2363 H2355 0.930 1_565 S
C2363 C2364 1.355 . S
C2363 C2365 1.415 . S
C2364 C2363 1.355 . S
C2364 C2366 1.419 . S
C2365 C2360 1.425 . S
C2365 C2362 1.409 1_565 S
C2365 C2363 1.415 . S
C2366 H2356 0.930 . S
C2366 C2364 1.419 . S
C2366 C2367 1.362 . S
C2367 H2357 0.930 . S
C2367 C2360 1.409 . S
C2367 C2366 1.362 . S
H2368 C2374 0.930 . S
H2369 C2377 0.930 . S
H2370 C2378 0.930 . S
H2371 C2379 0.930 . S
H2372 C2382 0.930 . S
H2373 C2383 0.930 . S
C2374 H2368 0.930 . S
C2374 C2375 1.355 1_655 S
C2374 C2376 1.432 1_655 S
C2375 C2374 1.355 1_455 S
C2375 C2377 1.419 . S
C2376 C2374 1.432 1_455 S
C2376 C2381 1.439 . S
C2376 C2383 1.380 1_455 S
C2377 H2369 0.930 . S
C2377 C2375 1.419 . S
C2377 C2378 1.362 . S
C2378 H2370 0.930 . S
C2378 C2377 1.362 . S
C2378 C2381 1.409 . S
C2379 H2371 0.930 . S
C2379 C2380 1.355 . S
C2379 C2381 1.415 . S
C2380 C2379 1.355 . S
C2380 C2382 1.419 1_455 S
C2381 C2376 1.439 . S
C2381 C2378 1.409 . S
C2381 C2379 1.415 . S
C2382 H2372 0.930 . S
C2382 C2380 1.419 1_655 S
C2382 C2383 1.362 . S
C2383 H2373 0.930 . S
C2383 C2376 1.380 1_655 S
C2383 C2382 1.362 . S
H2384 C2390 0.930 . S
H2385 C2393 0.930 . S
H2386 C2394 0.930 . S
H2387 C2395 0.930 . S
H2388 C2398 0.930 . S
H2389 C2399 0.930 . S
C2390 H2384 0.930 . S
C2390 C2391 1.355 . S
C2390 C2392 1.415 . S
C2391 C2390 1.355 . S
C2391 C2393 1.419 . S
C2392 C2390 1.415 . S
C2392 C2397 1.425 . S
C2392 C2399 1.409 . S
C2393 H2385 0.930 . S
C2393 C2391 1.419 . S
C2393 C2394 1.362 . S
C2394 H2386 0.930 . S
C2394 C2393 1.362 . S
C2394 C2397 1.409 . S
C2395 H2387 0.930 . S
C2395 C2396 1.355 . S
C2395 C2397 1.415 . S
C2396 C2395 1.355 . S
C2396 C2398 1.419 . S
C2397 C2392 1.425 . S
C2397 C2394 1.409 . S
C2397 C2395 1.415 . S
C2398 H2388 0.930 . S
C2398 C2396 1.419 . S
C2398 C2399 1.362 . S
C2399 H2389 0.930 . S
C2399 C2392 1.409 . S
C2399 C2398 1.362 . S
H2400 C2406 0.930 . S
H2401 C2409 0.930 . S
H2402 C2410 0.930 . S
H2403 C2411 0.930 . S
H2404 C2414 0.930 . S
H2405 C2415 0.930 . S
C2406 H2400 0.930 . S
C2406 C2407 1.355 1_655 S
C2406 C2408 1.415 . S
C2407 C2406 1.355 1_455 S
C2407 C2409 1.419 . S
C2408 C2406 1.415 . S
C2408 C2413 1.425 1_655 S
C2408 C2415 1.409 . S
C2409 H2401 0.930 . S
C2409 C2407 1.419 . S
C2409 C2410 1.362 . S
C2410 H2402 0.930 . S
C2410 C2409 1.362 . S
C2410 C2413 1.409 . S
C2411 H2403 0.930 . S
C2411 C2412 1.365 . S
C2411 C2413 1.415 . S
C2412 C2411 1.365 . S
C2412 C2414 1.392 1_455 S
C2413 C2408 1.425 1_455 S
C2413 C2410 1.409 . S
C2413 C2411 1.415 . S
C2414 H2404 0.930 . S
C2414 C2412 1.392 1_655 S
C2414 C2415 1.362 . S
C2415 H2405 0.930 . S
C2415 C2408 1.409 . S
C2415 C2414 1.362 . S
H2416 C2422 0.930 . S
H2417 C2425 0.930 . S
H2418 C2426 0.930 . S
H2419 C2427 0.930 . S
H2420 C2430 0.930 . S
H2421 C2431 0.930 . S
C2422 H2416 0.930 . S
C2422 C2423 1.355 . S
C2422 C2424 1.415 . S
C2423 C2422 1.355 . S
C2423 C2425 1.419 . S
C2424 C2422 1.415 . S
C2424 C2429 1.425 . S
C2424 C2431 1.409 . S
C2425 H2417 0.930 . S
C2425 C2423 1.419 . S
C2425 C2426 1.362 . S
C2426 H2418 0.930 . S
C2426 C2425 1.362 . S
C2426 C2429 1.409 . S
C2427 H2419 0.930 . S
C2427 C2428 1.355 . S
C2427 C2429 1.415 . S
C2428 C2427 1.355 . S
C2428 C2430 1.419 . S
C2429 C2424 1.425 . S
C2429 C2426 1.409 . S
C2429 C2427 1.415 . S
C2430 H2420 0.930 . S
C2430 C2428 1.419 . S
C2430 C2431 1.362 . S
C2431 H2421 0.930 . S
C2431 C2424 1.409 . S
C2431 C2430 1.362 . S
H2432 C2438 0.916 1_545 S
H2433 C2441 0.930 . S
H2434 C2442 0.930 . S
H2435 C2443 0.930 . S
H2436 C2446 0.930 . S
H2437 C2447 0.930 . S
C2438 H2432 0.916 1_565 S
C2438 C2439 1.388 . S
C2438 C2440 1.397 . S
C2439 C2438 1.388 . S
C2439 C2441 1.419 . S
C2440 C2438 1.397 . S
C2440 C2445 1.425 . S
C2440 C2447 1.409 1_565 S
C2441 H2433 0.930 . S
C2441 C2439 1.419 . S
C2441 C2442 1.362 . S
C2442 H2434 0.930 . S
C2442 C2441 1.362 . S
C2442 C2445 1.409 . S
C2443 H2435 0.930 . S
C2443 C2444 1.350 1_565 S
C2443 C2445 1.415 . S
C2444 C2443 1.350 1_545 S
C2444 C2446 1.422 . S
C2445 C2440 1.425 . S
C2445 C2442 1.409 . S
C2445 C2443 1.415 . S
C2446 H2436 0.930 . S
C2446 C2444 1.422 . S
C2446 C2447 1.362 . S
C2447 H2437 0.930 . S
C2447 C2440 1.409 1_545 S
C2447 C2446 1.362 . S
H2448 C2454 0.934 . S
H2449 C2457 0.930 . S
H2450 C2458 0.930 . S
H2451 C2459 0.930 . S
H2452 C2462 0.930 . S
H2453 C2463 0.930 . S
C2454 H2448 0.934 . S
C2454 C2455 1.363 1_565 S
C2454 C2456 1.420 . S
C2455 C2454 1.363 1_545 S
C2455 C2457 1.419 . S
C2456 C2454 1.420 . S
C2456 C2461 1.420 1_565 S
C2456 C2463 1.400 . S
C2457 H2449 0.930 . S
C2457 C2455 1.419 . S
C2457 C2458 1.362 . S
C2458 H2450 0.930 . S
C2458 C2457 1.362 . S
C2458 C2461 1.409 . S
C2459 H2451 0.930 . S
C2459 C2460 1.357 1_545 S
C2459 C2461 1.415 . S
C2460 C2459 1.357 1_565 S
C2460 C2462 1.420 . S
C2461 C2456 1.420 1_545 S
C2461 C2458 1.409 . S
C2461 C2459 1.415 . S
C2462 H2452 0.930 . S
C2462 C2460 1.420 . S
C2462 C2463 1.362 . S
C2463 H2453 0.930 . S
C2463 C2456 1.400 . S
C2463 C2462 1.362 . S
H2464 C2470 0.930 . S
H2465 C2473 0.930 . S
H2466 C2474 0.930 . S
H2467 C2475 0.930 . S
H2468 C2478 0.930 . S
H2469 C2479 0.930 . S
C2470 H2464 0.930 . S
C2470 C2471 1.355 1_455 S
C2470 C2472 1.415 . S
C2471 C2470 1.355 1_655 S
C2471 C2473 1.419 . S
C2472 C2470 1.415 . S
C2472 C2477 1.425 1_455 S
C2472 C2479 1.409 . S
C2473 H2465 0.930 . S
C2473 C2471 1.419 . S
C2473 C2474 1.362 . S
C2474 H2466 0.930 . S
C2474 C2473 1.362 . S
C2474 C2477 1.409 . S
C2475 H2467 0.930 . S
C2475 C2476 1.310 1_655 S
C2475 C2477 1.415 . S
C2476 C2475 1.310 1_455 S
C2476 C2478 1.454 . S
C2477 C2472 1.425 1_655 S
C2477 C2474 1.409 . S
C2477 C2475 1.415 . S
C2478 H2468 0.930 . S
C2478 C2476 1.454 . S
C2478 C2479 1.362 . S
C2479 H2469 0.930 . S
C2479 C2472 1.409 . S
C2479 C2478 1.362 . S
H2480 C2486 0.930 . S
H2481 C2489 0.930 . S
H2482 C2490 0.930 . S
H2483 C2491 0.930 . S
H2484 C2494 0.930 . S
H2485 C2495 0.930 . S
C2486 H2480 0.930 . S
C2486 C2487 1.355 . S
C2486 C2488 1.415 . S
C2487 C2486 1.355 . S
C2487 C2489 1.419 . S
C2488 C2486 1.415 . S
C2488 C2493 1.425 . S
C2488 C2495 1.409 . S
C2489 H2481 0.930 . S
C2489 C2487 1.419 . S
C2489 C2490 1.362 . S
C2490 H2482 0.930 . S
C2490 C2489 1.362 . S
C2490 C2493 1.409 . S
C2491 H2483 0.930 . S
C2491 C2492 1.355 . S
C2491 C2493 1.415 . S
C2492 C2491 1.355 . S
C2492 C2494 1.419 . S
C2493 C2488 1.425 . S
C2493 C2490 1.409 . S
C2493 C2491 1.415 . S
C2494 H2484 0.930 . S
C2494 C2492 1.419 . S
C2494 C2495 1.362 . S
C2495 H2485 0.930 . S
C2495 C2488 1.409 . S
C2495 C2494 1.362 . S
H2496 C2502 0.930 . S
H2497 C2505 0.930 . S
H2498 C2506 0.930 . S
H2499 C2507 0.930 . S
H2500 C2510 0.930 . S
H2501 C2511 0.930 . S
C2502 H2496 0.930 . S
C2502 C2503 1.355 . S
C2502 C2504 1.415 . S
C2503 C2502 1.355 . S
C2503 C2505 1.419 . S
C2504 C2502 1.415 . S
C2504 C2509 1.425 . S
C2504 C2511 1.409 . S
C2505 H2497 0.930 . S
C2505 C2503 1.419 . S
C2505 C2506 1.362 . S
C2506 H2498 0.930 . S
C2506 C2505 1.362 . S
C2506 C2509 1.409 . S
C2507 H2499 0.930 . S
C2507 C2508 1.355 . S
C2507 C2509 1.415 . S
C2508 C2507 1.355 . S
C2508 C2510 1.419 . S
C2509 C2504 1.425 . S
C2509 C2506 1.409 . S
C2509 C2507 1.415 . S
C2510 H2500 0.930 . S
C2510 C2508 1.419 . S
C2510 C2511 1.362 . S
C2511 H2501 0.930 . S
C2511 C2504 1.409 . S
C2511 C2510 1.362 . S
H2512 C2518 0.930 . S
H2513 C2521 0.930 . S
H2514 C2522 0.930 . S
H2515 C2523 0.930 . S
H2516 C2526 0.930 . S
H2517 C2527 0.930 . S
C2518 H2512 0.930 . S
C2518 C2519 1.355 . S
C2518 C2520 1.415 . S
C2519 C2518 1.355 . S
C2519 C2521 1.419 . S
C2520 C2518 1.415 . S
C2520 C2525 1.425 . S
C2520 C2527 1.409 . S
C2521 H2513 0.930 . S
C2521 C2519 1.419 . S
C2521 C2522 1.362 . S
C2522 H2514 0.930 . S
C2522 C2521 1.362 . S
C2522 C2525 1.409 . S
C2523 H2515 0.930 . S
C2523 C2524 1.355 . S
C2523 C2525 1.415 . S
C2524 C2523 1.355 . S
C2524 C2526 1.419 . S
C2525 C2520 1.425 . S
C2525 C2522 1.409 . S
C2525 C2523 1.415 . S
C2526 H2516 0.930 . S
C2526 C2524 1.419 . S
C2526 C2527 1.362 . S
C2527 H2517 0.930 . S
C2527 C2520 1.409 . S
C2527 C2526 1.362 . S
H2528 C2534 0.930 . S
H2529 C2537 0.930 . S
H2530 C2538 0.930 . S
H2531 C2539 0.930 . S
H2532 C2542 0.930 . S
H2533 C2543 0.930 . S
C2534 H2528 0.930 . S
C2534 C2535 1.355 . S
C2534 C2536 1.415 . S
C2535 C2534 1.355 . S
C2535 C2537 1.419 . S
C2536 C2534 1.415 . S
C2536 C2541 1.425 . S
C2536 C2543 1.409 . S
C2537 H2529 0.930 . S
C2537 C2535 1.419 . S
C2537 C2538 1.362 . S
C2538 H2530 0.930 . S
C2538 C2537 1.362 . S
C2538 C2541 1.409 . S
C2539 H2531 0.930 . S
C2539 C2540 1.355 . S
C2539 C2541 1.415 . S
C2540 C2539 1.355 . S
C2540 C2542 1.419 . S
C2541 C2536 1.425 . S
C2541 C2538 1.409 . S
C2541 C2539 1.415 . S
C2542 H2532 0.930 . S
C2542 C2540 1.419 . S
C2542 C2543 1.362 . S
C2543 H2533 0.930 . S
C2543 C2536 1.409 . S
C2543 C2542 1.362 . S
H2544 C2550 0.930 . S
H2545 C2553 0.930 . S
H2546 C2554 0.930 . S
H2547 C2555 0.930 . S
H2548 C2558 0.930 . S
H2549 C2559 0.930 . S
C2550 H2544 0.930 . S
C2550 C2551 1.355 . S
C2550 C2552 1.415 . S
C2551 C2550 1.355 . S
C2551 C2553 1.419 . S
C2552 C2550 1.415 . S
C2552 C2557 1.425 . S
C2552 C2559 1.409 . S
C2553 H2545 0.930 . S
C2553 C2551 1.419 . S
C2553 C2554 1.362 . S
C2554 H2546 0.930 . S
C2554 C2553 1.362 . S
C2554 C2557 1.409 . S
C2555 H2547 0.930 . S
C2555 C2556 1.355 . S
C2555 C2557 1.415 . S
C2556 C2555 1.355 . S
C2556 C2558 1.419 . S
C2557 C2552 1.425 . S
C2557 C2554 1.409 . S
C2557 C2555 1.415 . S
C2558 H2548 0.930 . S
C2558 C2556 1.419 . S
C2558 C2559 1.362 . S
C2559 H2549 0.930 . S
C2559 C2552 1.409 . S
C2559 C2558 1.362 . S
H2560 C2566 0.930 . S
H2561 C2569 0.930 . S
H2562 C2570 0.930 . S
H2563 C2571 0.930 . S
H2564 C2574 0.930 . S
H2565 C2575 0.930 . S
C2566 H2560 0.930 . S
C2566 C2567 1.355 . S
C2566 C2568 1.415 . S
C2567 C2566 1.355 . S
C2567 C2569 1.419 . S
C2568 C2566 1.415 . S
C2568 C2573 1.425 . S
C2568 C2575 1.409 . S
C2569 H2561 0.930 . S
C2569 C2567 1.419 . S
C2569 C2570 1.362 . S
C2570 H2562 0.930 . S
C2570 C2569 1.362 . S
C2570 C2573 1.409 . S
C2571 H2563 0.930 . S
C2571 C2572 1.355 . S
C2571 C2573 1.415 . S
C2572 C2571 1.355 . S
C2572 C2574 1.419 . S
C2573 C2568 1.425 . S
C2573 C2570 1.409 . S
C2573 C2571 1.415 . S
C2574 H2564 0.930 . S
C2574 C2572 1.419 . S
C2574 C2575 1.362 . S
C2575 H2565 0.930 . S
C2575 C2568 1.409 . S
C2575 C2574 1.362 . S
H2576 C2582 0.930 . S
H2577 C2585 0.930 . S
H2578 C2586 0.930 . S
H2579 C2587 0.930 . S
H2580 C2590 0.930 . S
H2581 C2591 0.930 . S
C2582 H2576 0.930 . S
C2582 C2583 1.355 . S
C2582 C2584 1.415 . S
C2583 C2582 1.355 . S
C2583 C2585 1.419 . S
C2584 C2582 1.415 . S
C2584 C2589 1.425 . S
C2584 C2591 1.409 . S
C2585 H2577 0.930 . S
C2585 C2583 1.419 . S
C2585 C2586 1.362 . S
C2586 H2578 0.930 . S
C2586 C2585 1.362 . S
C2586 C2589 1.409 . S
C2587 H2579 0.930 . S
C2587 C2588 1.355 . S
C2587 C2589 1.415 . S
C2588 C2587 1.355 . S
C2588 C2590 1.419 . S
C2589 C2584 1.425 . S
C2589 C2586 1.409 . S
C2589 C2587 1.415 . S
C2590 H2580 0.930 . S
C2590 C2588 1.419 . S
C2590 C2591 1.362 . S
C2591 H2581 0.930 . S
C2591 C2584 1.409 . S
C2591 C2590 1.362 . S
H2592 C2598 0.930 . S
H2593 C2601 0.930 . S
H2594 C2602 0.930 . S
H2595 C2603 0.930 . S
H2596 C2606 0.930 . S
H2597 C2607 0.930 . S
C2598 H2592 0.930 . S
C2598 C2599 1.355 . S
C2598 C2600 1.415 . S
C2599 C2598 1.355 . S
C2599 C2601 1.419 . S
C2600 C2598 1.415 . S
C2600 C2605 1.425 . S
C2600 C2607 1.409 . S
C2601 H2593 0.930 . S
C2601 C2599 1.419 . S
C2601 C2602 1.362 . S
C2602 H2594 0.930 . S
C2602 C2601 1.362 . S
C2602 C2605 1.409 . S
C2603 H2595 0.930 . S
C2603 C2604 1.355 . S
C2603 C2605 1.415 . S
C2604 C2603 1.355 . S
C2604 C2606 1.419 . S
C2605 C2600 1.425 . S
C2605 C2602 1.409 . S
C2605 C2603 1.415 . S
C2606 H2596 0.930 . S
C2606 C2604 1.419 . S
C2606 C2607 1.362 . S
C2607 H2597 0.930 . S
C2607 C2600 1.409 . S
C2607 C2606 1.362 . S
H2608 C2614 0.930 . S
H2609 C2617 0.930 . S
H2610 C2618 0.930 . S
H2611 C2619 0.930 . S
H2612 C2622 0.930 . S
H2613 C2623 0.930 . S
C2614 H2608 0.930 . S
C2614 C2615 1.355 . S
C2614 C2616 1.415 . S
C2615 C2614 1.355 . S
C2615 C2617 1.419 . S
C2616 C2614 1.415 . S
C2616 C2621 1.425 . S
C2616 C2623 1.409 . S
C2617 H2609 0.930 . S
C2617 C2615 1.419 . S
C2617 C2618 1.362 . S
C2618 H2610 0.930 . S
C2618 C2617 1.362 . S
C2618 C2621 1.409 . S
C2619 H2611 0.930 . S
C2619 C2620 1.355 . S
C2619 C2621 1.415 . S
C2620 C2619 1.355 . S
C2620 C2622 1.419 . S
C2621 C2616 1.425 . S
C2621 C2618 1.409 . S
C2621 C2619 1.415 . S
C2622 H2612 0.930 . S
C2622 C2620 1.419 . S
C2622 C2623 1.362 . S
C2623 H2613 0.930 . S
C2623 C2616 1.409 . S
C2623 C2622 1.362 . S
H2624 C2630 0.930 . S
H2625 C2633 0.930 . S
H2626 C2634 0.930 . S
H2627 C2635 0.930 . S
H2628 C2638 0.930 . S
H2629 C2639 0.930 . S
C2630 H2624 0.930 . S
C2630 C2631 1.355 . S
C2630 C2632 1.415 . S
C2631 C2630 1.355 . S
C2631 C2633 1.419 . S
C2632 C2630 1.415 . S
C2632 C2637 1.425 . S
C2632 C2639 1.409 . S
C2633 H2625 0.930 . S
C2633 C2631 1.419 . S
C2633 C2634 1.362 . S
C2634 H2626 0.930 . S
C2634 C2633 1.362 . S
C2634 C2637 1.409 . S
C2635 H2627 0.930 . S
C2635 C2636 1.355 . S
C2635 C2637 1.415 . S
C2636 C2635 1.355 . S
C2636 C2638 1.419 . S
C2637 C2632 1.425 . S
C2637 C2634 1.409 . S
C2637 C2635 1.415 . S
C2638 H2628 0.930 . S
C2638 C2636 1.419 . S
C2638 C2639 1.362 . S
C2639 H2629 0.930 . S
C2639 C2632 1.409 . S
C2639 C2638 1.362 . S
H2640 C2646 0.930 . S
H2641 C2649 0.930 . S
H2642 C2650 0.930 . S
H2643 C2651 0.930 . S
H2644 C2654 0.930 . S
H2645 C2655 0.930 . S
C2646 H2640 0.930 . S
C2646 C2647 1.355 . S
C2646 C2648 1.415 . S
C2647 C2646 1.355 . S
C2647 C2649 1.419 . S
C2648 C2646 1.415 . S
C2648 C2653 1.425 . S
C2648 C2655 1.409 . S
C2649 H2641 0.930 . S
C2649 C2647 1.419 . S
C2649 C2650 1.362 . S
C2650 H2642 0.930 . S
C2650 C2649 1.362 . S
C2650 C2653 1.409 . S
C2651 H2643 0.930 . S
C2651 C2652 1.355 . S
C2651 C2653 1.415 . S
C2652 C2651 1.355 . S
C2652 C2654 1.419 . S
C2653 C2648 1.425 . S
C2653 C2650 1.409 . S
C2653 C2651 1.415 . S
C2654 H2644 0.930 . S
C2654 C2652 1.419 . S
C2654 C2655 1.362 . S
C2655 H2645 0.930 . S
C2655 C2648 1.409 . S
C2655 C2654 1.362 . S
H2656 C2662 0.930 . S
H2657 C2665 0.930 . S
H2658 C2666 0.930 . S
H2659 C2667 0.930 . S
H2660 C2670 0.930 . S
H2661 C2671 0.930 . S
C2662 H2656 0.930 . S
C2662 C2663 1.355 . S
C2662 C2664 1.415 . S
C2663 C2662 1.355 . S
C2663 C2665 1.419 . S
C2664 C2662 1.415 . S
C2664 C2669 1.425 . S
C2664 C2671 1.409 . S
C2665 H2657 0.930 . S
C2665 C2663 1.419 . S
C2665 C2666 1.362 . S
C2666 H2658 0.930 . S
C2666 C2665 1.362 . S
C2666 C2669 1.409 . S
C2667 H2659 0.930 . S
C2667 C2668 1.355 . S
C2667 C2669 1.415 . S
C2668 C2667 1.355 . S
C2668 C2670 1.419 . S
C2669 C2664 1.425 . S
C2669 C2666 1.409 . S
C2669 C2667 1.415 . S
C2670 H2660 0.930 . S
C2670 C2668 1.419 . S
C2670 C2671 1.362 . S
C2671 H2661 0.930 . S
C2671 C2664 1.409 . S
C2671 C2670 1.362 . S
H2672 C2678 0.930 . S
H2673 C2681 0.930 . S
H2674 C2682 0.930 . S
H2675 C2683 0.930 . S
H2676 C2686 0.930 . S
H2677 C2687 0.930 . S
C2678 H2672 0.930 . S
C2678 C2679 1.355 . S
C2678 C2680 1.415 . S
C2679 C2678 1.355 . S
C2679 C2681 1.419 . S
C2680 C2678 1.415 . S
C2680 C2685 1.425 . S
C2680 C2687 1.409 . S
C2681 H2673 0.930 . S
C2681 C2679 1.419 . S
C2681 C2682 1.362 . S
C2682 H2674 0.930 . S
C2682 C2681 1.362 . S
C2682 C2685 1.409 . S
C2683 H2675 0.930 . S
C2683 C2684 1.355 . S
C2683 C2685 1.415 . S
C2684 C2683 1.355 . S
C2684 C2686 1.419 . S
C2685 C2680 1.425 . S
C2685 C2682 1.409 . S
C2685 C2683 1.415 . S
C2686 H2676 0.930 . S
C2686 C2684 1.419 . S
C2686 C2687 1.362 . S
C2687 H2677 0.930 . S
C2687 C2680 1.409 . S
C2687 C2686 1.362 . S
H2688 C2694 0.930 . S
H2689 C2697 0.930 . S
H2690 C2698 0.930 . S
H2691 C2699 0.930 . S
H2692 C2702 0.930 . S
H2693 C2703 0.930 . S
C2694 H2688 0.930 . S
C2694 C2695 1.355 . S
C2694 C2696 1.415 . S
C2695 C2694 1.355 . S
C2695 C2697 1.419 . S
C2696 C2694 1.415 . S
C2696 C2701 1.425 . S
C2696 C2703 1.409 . S
C2697 H2689 0.930 . S
C2697 C2695 1.419 . S
C2697 C2698 1.362 . S
C2698 H2690 0.930 . S
C2698 C2697 1.362 . S
C2698 C2701 1.409 . S
C2699 H2691 0.930 . S
C2699 C2700 1.355 . S
C2699 C2701 1.415 . S
C2700 C2699 1.355 . S
C2700 C2702 1.419 . S
C2701 C2696 1.425 . S
C2701 C2698 1.409 . S
C2701 C2699 1.415 . S
C2702 H2692 0.930 . S
C2702 C2700 1.419 . S
C2702 C2703 1.362 . S
C2703 H2693 0.930 . S
C2703 C2696 1.409 . S
C2703 C2702 1.362 . S
H2704 C2710 0.930 . S
H2705 C2713 0.930 . S
H2706 C2714 0.930 . S
H2707 C2715 0.930 . S
H2708 C2718 0.930 . S
H2709 C2719 0.930 . S
C2710 H2704 0.930 . S
C2710 C2711 1.355 . S
C2710 C2712 1.415 . S
C2711 C2710 1.355 . S
C2711 C2713 1.419 . S
C2712 C2710 1.415 . S
C2712 C2717 1.425 . S
C2712 C2719 1.409 . S
C2713 H2705 0.930 . S
C2713 C2711 1.419 . S
C2713 C2714 1.362 . S
C2714 H2706 0.930 . S
C2714 C2713 1.362 . S
C2714 C2717 1.409 . S
C2715 H2707 0.930 . S
C2715 C2716 1.355 . S
C2715 C2717 1.415 . S
C2716 C2715 1.355 . S
C2716 C2718 1.419 . S
C2717 C2712 1.425 . S
C2717 C2714 1.409 . S
C2717 C2715 1.415 . S
C2718 H2708 0.930 . S
C2718 C2716 1.419 . S
C2718 C2719 1.362 . S
C2719 H2709 0.930 . S
C2719 C2712 1.409 . S
C2719 C2718 1.362 . S
H2720 C2726 0.930 . S
H2721 C2729 0.930 . S
H2722 C2730 0.930 . S
H2723 C2731 0.930 . S
H2724 C2734 0.930 . S
H2725 C2735 0.930 . S
C2726 H2720 0.930 . S
C2726 C2727 1.355 . S
C2726 C2728 1.415 . S
C2727 C2726 1.355 . S
C2727 C2729 1.419 . S
C2728 C2726 1.415 . S
C2728 C2733 1.425 . S
C2728 C2735 1.409 . S
C2729 H2721 0.930 . S
C2729 C2727 1.419 . S
C2729 C2730 1.362 . S
C2730 H2722 0.930 . S
C2730 C2729 1.362 . S
C2730 C2733 1.409 . S
C2731 H2723 0.930 . S
C2731 C2732 1.355 . S
C2731 C2733 1.415 . S
C2732 C2731 1.355 . S
C2732 C2734 1.419 . S
C2733 C2728 1.425 . S
C2733 C2730 1.409 . S
C2733 C2731 1.415 . S
C2734 H2724 0.930 . S
C2734 C2732 1.419 . S
C2734 C2735 1.362 . S
C2735 H2725 0.930 . S
C2735 C2728 1.409 . S
C2735 C2734 1.362 . S
H2736 C2742 0.930 . S
H2737 C2745 0.930 . S
H2738 C2746 0.930 . S
H2739 C2747 0.930 . S
H2740 C2750 0.930 . S
H2741 C2751 0.930 . S
C2742 H2736 0.930 . S
C2742 C2743 1.355 . S
C2742 C2744 1.415 . S
C2743 C2742 1.355 . S
C2743 C2745 1.419 . S
C2744 C2742 1.415 . S
C2744 C2749 1.425 . S
C2744 C2751 1.409 . S
C2745 H2737 0.930 . S
C2745 C2743 1.419 . S
C2745 C2746 1.362 . S
C2746 H2738 0.930 . S
C2746 C2745 1.362 . S
C2746 C2749 1.409 . S
C2747 H2739 0.930 . S
C2747 C2748 1.355 . S
C2747 C2749 1.415 . S
C2748 C2747 1.355 . S
C2748 C2750 1.419 . S
C2749 C2744 1.425 . S
C2749 C2746 1.409 . S
C2749 C2747 1.415 . S
C2750 H2740 0.930 . S
C2750 C2748 1.419 . S
C2750 C2751 1.362 . S
C2751 H2741 0.930 . S
C2751 C2744 1.409 . S
C2751 C2750 1.362 . S
H2752 C2758 0.930 . S
H2753 C2761 0.930 . S
H2754 C2762 0.930 . S
H2755 C2763 0.930 . S
H2756 C2766 0.930 . S
H2757 C2767 0.930 . S
C2758 H2752 0.930 . S
C2758 C2759 1.355 . S
C2758 C2760 1.415 . S
C2759 C2758 1.355 . S
C2759 C2761 1.419 . S
C2760 C2758 1.415 . S
C2760 C2765 1.425 . S
C2760 C2767 1.409 . S
C2761 H2753 0.930 . S
C2761 C2759 1.419 . S
C2761 C2762 1.362 . S
C2762 H2754 0.930 . S
C2762 C2761 1.362 . S
C2762 C2765 1.409 . S
C2763 H2755 0.930 . S
C2763 C2764 1.355 . S
C2763 C2765 1.415 . S
C2764 C2763 1.355 . S
C2764 C2766 1.419 . S
C2765 C2760 1.425 . S
C2765 C2762 1.409 . S
C2765 C2763 1.415 . S
C2766 H2756 0.930 . S
C2766 C2764 1.419 . S
C2766 C2767 1.362 . S
C2767 H2757 0.930 . S
C2767 C2760 1.409 . S
C2767 C2766 1.362 . S
H2768 C2774 0.930 . S
H2769 C2777 0.930 . S
H2770 C2778 0.930 . S
H2771 C2779 0.930 . S
H2772 C2782 0.930 . S
H2773 C2783 0.930 . S
C2774 H2768 0.930 . S
C2774 C2775 1.355 . S
C2774 C2776 1.415 . S
C2775 C2774 1.355 . S
C2775 C2777 1.419 . S
C2776 C2774 1.415 . S
C2776 C2781 1.425 . S
C2776 C2783 1.409 . S
C2777 H2769 0.930 . S
C2777 C2775 1.419 . S
C2777 C2778 1.362 . S
C2778 H2770 0.930 . S
C2778 C2777 1.362 . S
C2778 C2781 1.409 . S
C2779 H2771 0.930 . S
C2779 C2780 1.355 . S
C2779 C2781 1.415 . S
C2780 C2779 1.355 . S
C2780 C2782 1.419 . S
C2781 C2776 1.425 . S
C2781 C2778 1.409 . S
C2781 C2779 1.415 . S
C2782 H2772 0.930 . S
C2782 C2780 1.419 . S
C2782 C2783 1.362 . S
C2783 H2773 0.930 . S
C2783 C2776 1.409 . S
C2783 C2782 1.362 . S
H2784 C2790 0.930 . S
H2785 C2793 0.930 . S
H2786 C2794 0.930 . S
H2787 C2795 0.930 . S
H2788 C2798 0.930 . S
H2789 C2799 0.930 . S
C2790 H2784 0.930 . S
C2790 C2791 1.355 . S
C2790 C2792 1.415 . S
C2791 C2790 1.355 . S
C2791 C2793 1.419 . S
C2792 C2790 1.415 . S
C2792 C2797 1.425 . S
C2792 C2799 1.409 . S
C2793 H2785 0.930 . S
C2793 C2791 1.419 . S
C2793 C2794 1.362 . S
C2794 H2786 0.930 . S
C2794 C2793 1.362 . S
C2794 C2797 1.409 . S
C2795 H2787 0.930 . S
C2795 C2796 1.355 . S
C2795 C2797 1.415 . S
C2796 C2795 1.355 . S
C2796 C2798 1.419 . S
C2797 C2792 1.425 . S
C2797 C2794 1.409 . S
C2797 C2795 1.415 . S
C2798 H2788 0.930 . S
C2798 C2796 1.419 . S
C2798 C2799 1.362 . S
C2799 H2789 0.930 . S
C2799 C2792 1.409 . S
C2799 C2798 1.362 . S
H2800 C2806 0.930 . S
H2801 C2809 0.930 . S
H2802 C2810 0.930 . S
H2803 C2811 0.930 . S
H2804 C2814 0.930 . S
H2805 C2815 0.930 . S
C2806 H2800 0.930 . S
C2806 C2807 1.355 . S
C2806 C2808 1.415 . S
C2807 C2806 1.355 . S
C2807 C2809 1.419 . S
C2808 C2806 1.415 . S
C2808 C2813 1.425 . S
C2808 C2815 1.409 . S
C2809 H2801 0.930 . S
C2809 C2807 1.419 . S
C2809 C2810 1.362 . S
C2810 H2802 0.930 . S
C2810 C2809 1.362 . S
C2810 C2813 1.409 . S
C2811 H2803 0.930 . S
C2811 C2812 1.355 . S
C2811 C2813 1.415 . S
C2812 C2811 1.355 . S
C2812 C2814 1.419 . S
C2813 C2808 1.425 . S
C2813 C2810 1.409 . S
C2813 C2811 1.415 . S
C2814 H2804 0.930 . S
C2814 C2812 1.419 . S
C2814 C2815 1.362 . S
C2815 H2805 0.930 . S
C2815 C2808 1.409 . S
C2815 C2814 1.362 . S
H2816 C2822 0.930 . S
H2817 C2825 0.930 . S
H2818 C2826 0.930 . S
H2819 C2827 0.930 . S
H2820 C2830 0.930 . S
H2821 C2831 0.930 . S
C2822 H2816 0.930 . S
C2822 C2823 1.355 . S
C2822 C2824 1.415 . S
C2823 C2822 1.355 . S
C2823 C2825 1.419 . S
C2824 C2822 1.415 . S
C2824 C2829 1.425 . S
C2824 C2831 1.409 . S
C2825 H2817 0.930 . S
C2825 C2823 1.419 . S
C2825 C2826 1.362 . S
C2826 H2818 0.930 . S
C2826 C2825 1.362 . S
C2826 C2829 1.409 . S
C2827 H2819 0.930 . S
C2827 C2828 1.355 . S
C2827 C2829 1.415 . S
C2828 C2827 1.355 . S
C2828 C2830 1.419 . S
C2829 C2824 1.425 . S
C2829 C2826 1.409 . S
C2829 C2827 1.415 . S
C2830 H2820 0.930 . S
C2830 C2828 1.419 . S
C2830 C2831 1.362 . S
C2831 H2821 0.930 . S
C2831 C2824 1.409 . S
C2831 C2830 1.362 . S
H2832 C2838 0.930 . S
H2833 C2841 0.930 . S
H2834 C2842 0.930 . S
H2835 C2843 0.930 . S
H2836 C2846 0.930 . S
H2837 C2847 0.930 . S
C2838 H2832 0.930 . S
C2838 C2839 1.355 . S
C2838 C2840 1.415 . S
C2839 C2838 1.355 . S
C2839 C2841 1.419 . S
C2840 C2838 1.415 . S
C2840 C2845 1.425 . S
C2840 C2847 1.409 . S
C2841 H2833 0.930 . S
C2841 C2839 1.419 . S
C2841 C2842 1.362 . S
C2842 H2834 0.930 . S
C2842 C2841 1.362 . S
C2842 C2845 1.409 . S
C2843 H2835 0.930 . S
C2843 C2844 1.355 . S
C2843 C2845 1.415 . S
C2844 C2843 1.355 . S
C2844 C2846 1.419 . S
C2845 C2840 1.425 . S
C2845 C2842 1.409 . S
C2845 C2843 1.415 . S
C2846 H2836 0.930 . S
C2846 C2844 1.419 . S
C2846 C2847 1.362 . S
C2847 H2837 0.930 . S
C2847 C2840 1.409 . S
C2847 C2846 1.362 . S
H2848 C2854 0.930 . S
H2849 C2857 0.930 . S
H2850 C2858 0.930 . S
H2851 C2859 0.930 . S
H2852 C2862 0.930 . S
H2853 C2863 0.930 . S
C2854 H2848 0.930 . S
C2854 C2855 1.355 . S
C2854 C2856 1.415 . S
C2855 C2854 1.355 . S
C2855 C2857 1.419 . S
C2856 C2854 1.415 . S
C2856 C2861 1.425 . S
C2856 C2863 1.409 . S
C2857 H2849 0.930 . S
C2857 C2855 1.419 . S
C2857 C2858 1.362 . S
C2858 H2850 0.930 . S
C2858 C2857 1.362 . S
C2858 C2861 1.409 . S
C2859 H2851 0.930 . S
C2859 C2860 1.355 . S
C2859 C2861 1.415 . S
C2860 C2859 1.355 . S
C2860 C2862 1.419 . S
C2861 C2856 1.425 . S
C2861 C2858 1.409 . S
C2861 C2859 1.415 . S
C2862 H2852 0.930 . S
C2862 C2860 1.419 . S
C2862 C2863 1.362 . S
C2863 H2853 0.930 . S
C2863 C2856 1.409 . S
C2863 C2862 1.362 . S
H2864 C2870 0.930 . S
H2865 C2873 0.930 . S
H2866 C2874 0.930 . S
H2867 C2875 0.930 . S
H2868 C2878 0.930 . S
H2869 C2879 0.930 . S
C2870 H2864 0.930 . S
C2870 C2871 1.355 . S
C2870 C2872 1.415 . S
C2871 C2870 1.355 . S
C2871 C2873 1.419 . S
C2872 C2870 1.415 . S
C2872 C2877 1.425 . S
C2872 C2879 1.409 . S
C2873 H2865 0.930 . S
C2873 C2871 1.419 . S
C2873 C2874 1.362 . S
C2874 H2866 0.930 . S
C2874 C2873 1.362 . S
C2874 C2877 1.409 . S
C2875 H2867 0.930 . S
C2875 C2876 1.355 . S
C2875 C2877 1.415 . S
C2876 C2875 1.355 . S
C2876 C2878 1.419 . S
C2877 C2872 1.425 . S
C2877 C2874 1.409 . S
C2877 C2875 1.415 . S
C2878 H2868 0.930 . S
C2878 C2876 1.419 . S
C2878 C2879 1.362 . S
C2879 H2869 0.930 . S
C2879 C2872 1.409 . S
C2879 C2878 1.362 . S
H2880 C2886 0.930 . S
H2881 C2889 0.930 . S
H2882 C2890 0.930 . S
H2883 C2891 0.930 . S
H2884 C2894 0.930 . S
H2885 C2895 0.930 . S
C2886 H2880 0.930 . S
C2886 C2887 1.355 . S
C2886 C2888 1.415 . S
C2887 C2886 1.355 . S
C2887 C2889 1.419 . S
C2888 C2886 1.415 . S
C2888 C2893 1.425 . S
C2888 C2895 1.409 . S
C2889 H2881 0.930 . S
C2889 C2887 1.419 . S
C2889 C2890 1.362 . S
C2890 H2882 0.930 . S
C2890 C2889 1.362 . S
C2890 C2893 1.409 . S
C2891 H2883 0.930 . S
C2891 C2892 1.355 . S
C2891 C2893 1.415 . S
C2892 C2891 1.355 . S
C2892 C2894 1.419 . S
C2893 C2888 1.425 . S
C2893 C2890 1.409 . S
C2893 C2891 1.415 . S
C2894 H2884 0.930 . S
C2894 C2892 1.419 . S
C2894 C2895 1.362 . S
C2895 H2885 0.930 . S
C2895 C2888 1.409 . S
C2895 C2894 1.362 . S
H2896 C2902 0.930 . S
H2897 C2905 0.930 . S
H2898 C2906 0.930 . S
H2899 C2907 0.930 . S
H2900 C2910 0.930 . S
H2901 C2911 0.930 . S
C2902 H2896 0.930 . S
C2902 C2903 1.355 . S
C2902 C2904 1.415 . S
C2903 C2902 1.355 . S
C2903 C2905 1.419 . S
C2904 C2902 1.415 . S
C2904 C2909 1.425 . S
C2904 C2911 1.409 . S
C2905 H2897 0.930 . S
C2905 C2903 1.419 . S
C2905 C2906 1.362 . S
C2906 H2898 0.930 . S
C2906 C2905 1.362 . S
C2906 C2909 1.409 . S
C2907 H2899 0.930 . S
C2907 C2908 1.355 . S
C2907 C2909 1.415 . S
C2908 C2907 1.355 . S
C2908 C2910 1.419 . S
C2909 C2904 1.425 . S
C2909 C2906 1.409 . S
C2909 C2907 1.415 . S
C2910 H2900 0.930 . S
C2910 C2908 1.419 . S
C2910 C2911 1.362 . S
C2911 H2901 0.930 . S
C2911 C2904 1.409 . S
C2911 C2910 1.362 . S
H2912 C2918 0.930 . S
H2913 C2921 0.930 . S
H2914 C2922 0.930 . S
H2915 C2923 0.930 . S
H2916 C2926 0.930 . S
H2917 C2927 0.930 . S
C2918 H2912 0.930 . S
C2918 C2919 1.355 . S
C2918 C2920 1.415 . S
C2919 C2918 1.355 . S
C2919 C2921 1.419 . S
C2920 C2918 1.415 . S
C2920 C2925 1.425 . S
C2920 C2927 1.409 . S
C2921 H2913 0.930 . S
C2921 C2919 1.419 . S
C2921 C2922 1.362 . S
C2922 H2914 0.930 . S
C2922 C2921 1.362 . S
C2922 C2925 1.409 . S
C2923 H2915 0.930 . S
C2923 C2924 1.355 . S
C2923 C2925 1.415 . S
C2924 C2923 1.355 . S
C2924 C2926 1.419 . S
C2925 C2920 1.425 . S
C2925 C2922 1.409 . S
C2925 C2923 1.415 . S
C2926 H2916 0.930 . S
C2926 C2924 1.419 . S
C2926 C2927 1.362 . S
C2927 H2917 0.930 . S
C2927 C2920 1.409 . S
C2927 C2926 1.362 . S
H2928 C2934 0.930 . S
H2929 C2937 0.930 . S
H2930 C2938 0.930 . S
H2931 C2939 0.930 . S
H2932 C2942 0.930 . S
H2933 C2943 0.930 . S
C2934 H2928 0.930 . S
C2934 C2935 1.355 . S
C2934 C2936 1.415 . S
C2935 C2934 1.355 . S
C2935 C2937 1.419 . S
C2936 C2934 1.415 . S
C2936 C2941 1.425 . S
C2936 C2943 1.409 . S
C2937 H2929 0.930 . S
C2937 C2935 1.419 . S
C2937 C2938 1.362 . S
C2938 H2930 0.930 . S
C2938 C2937 1.362 . S
C2938 C2941 1.409 . S
C2939 H2931 0.930 . S
C2939 C2940 1.355 . S
C2939 C2941 1.415 . S
C2940 C2939 1.355 . S
C2940 C2942 1.419 . S
C2941 C2936 1.425 . S
C2941 C2938 1.409 . S
C2941 C2939 1.415 . S
C2942 H2932 0.930 . S
C2942 C2940 1.419 . S
C2942 C2943 1.362 . S
C2943 H2933 0.930 . S
C2943 C2936 1.409 . S
C2943 C2942 1.362 . S
H2944 C2950 0.930 . S
H2945 C2953 0.930 . S
H2946 C2954 0.930 . S
H2947 C2955 0.930 . S
H2948 C2958 0.930 . S
H2949 C2959 0.930 . S
C2950 H2944 0.930 . S
C2950 C2951 1.355 . S
C2950 C2952 1.415 . S
C2951 C2950 1.355 . S
C2951 C2953 1.419 . S
C2952 C2950 1.415 . S
C2952 C2957 1.425 . S
C2952 C2959 1.409 . S
C2953 H2945 0.930 . S
C2953 C2951 1.419 . S
C2953 C2954 1.362 . S
C2954 H2946 0.930 . S
C2954 C2953 1.362 . S
C2954 C2957 1.409 . S
C2955 H2947 0.930 . S
C2955 C2956 1.355 . S
C2955 C2957 1.415 . S
C2956 C2955 1.355 . S
C2956 C2958 1.419 . S
C2957 C2952 1.425 . S
C2957 C2954 1.409 . S
C2957 C2955 1.415 . S
C2958 H2948 0.930 . S
C2958 C2956 1.419 . S
C2958 C2959 1.362 . S
C2959 H2949 0.930 . S
C2959 C2952 1.409 . S
C2959 C2958 1.362 . S
H2960 C2966 0.930 . S
H2961 C2969 0.930 . S
H2962 C2970 0.930 . S
H2963 C2971 0.930 . S
H2964 C2974 0.930 . S
H2965 C2975 0.930 . S
C2966 H2960 0.930 . S
C2966 C2967 1.355 . S
C2966 C2968 1.415 . S
C2967 C2966 1.355 . S
C2967 C2969 1.419 . S
C2968 C2966 1.415 . S
C2968 C2973 1.425 . S
C2968 C2975 1.409 . S
C2969 H2961 0.930 . S
C2969 C2967 1.419 . S
C2969 C2970 1.362 . S
C2970 H2962 0.930 . S
C2970 C2969 1.362 . S
C2970 C2973 1.409 . S
C2971 H2963 0.930 . S
C2971 C2972 1.355 . S
C2971 C2973 1.415 . S
C2972 C2971 1.355 . S
C2972 C2974 1.419 . S
C2973 C2968 1.425 . S
C2973 C2970 1.409 . S
C2973 C2971 1.415 . S
C2974 H2964 0.930 . S
C2974 C2972 1.419 . S
C2974 C2975 1.362 . S
C2975 H2965 0.930 . S
C2975 C2968 1.409 . S
C2975 C2974 1.362 . S
H2976 C2982 0.930 . S
H2977 C2985 0.930 . S
H2978 C2986 0.930 . S
H2979 C2987 0.930 . S
H2980 C2990 0.930 . S
H2981 C2991 0.930 . S
C2982 H2976 0.930 . S
C2982 C2983 1.355 . S
C2982 C2984 1.415 . S
C2983 C2982 1.355 . S
C2983 C2985 1.419 . S
C2984 C2982 1.415 . S
C2984 C2989 1.425 . S
C2984 C2991 1.409 . S
C2985 H2977 0.930 . S
C2985 C2983 1.419 . S
C2985 C2986 1.362 . S
C2986 H2978 0.930 . S
C2986 C2985 1.362 . S
C2986 C2989 1.409 . S
C2987 H2979 0.930 . S
C2987 C2988 1.355 . S
C2987 C2989 1.415 . S
C2988 C2987 1.355 . S
C2988 C2990 1.419 . S
C2989 C2984 1.425 . S
C2989 C2986 1.409 . S
C2989 C2987 1.415 . S
C2990 H2980 0.930 . S
C2990 C2988 1.419 . S
C2990 C2991 1.362 . S
C2991 H2981 0.930 . S
C2991 C2984 1.409 . S
C2991 C2990 1.362 . S
H2992 C2998 0.930 . S
H2993 C3001 0.930 . S
H2994 C3002 0.930 . S
H2995 C3003 0.930 . S
H2996 C3006 0.930 . S
H2997 C3007 0.930 . S
C2998 H2992 0.930 . S
C2998 C2999 1.355 . S
C2998 C3000 1.415 . S
C2999 C2998 1.355 . S
C2999 C3001 1.419 . S
C3000 C2998 1.415 . S
C3000 C3005 1.425 . S
C3000 C3007 1.409 . S
C3001 H2993 0.930 . S
C3001 C2999 1.419 . S
C3001 C3002 1.362 . S
C3002 H2994 0.930 . S
C3002 C3001 1.362 . S
C3002 C3005 1.409 . S
C3003 H2995 0.930 . S
C3003 C3004 1.355 . S
C3003 C3005 1.415 . S
C3004 C3003 1.355 . S
C3004 C3006 1.419 . S
C3005 C3000 1.425 . S
C3005 C3002 1.409 . S
C3005 C3003 1.415 . S
C3006 H2996 0.930 . S
C3006 C3004 1.419 . S
C3006 C3007 1.362 . S
C3007 H2997 0.930 . S
C3007 C3000 1.409 . S
C3007 C3006 1.362 . S
H3008 C3014 0.930 . S
H3009 C3017 0.930 . S
H3010 C3018 0.930 . S
H3011 C3019 0.930 . S
H3012 C3022 0.930 . S
H3013 C3023 0.930 . S
C3014 H3008 0.930 . S
C3014 C3015 1.355 . S
C3014 C3016 1.415 . S
C3015 C3014 1.355 . S
C3015 C3017 1.419 . S
C3016 C3014 1.415 . S
C3016 C3021 1.425 . S
C3016 C3023 1.409 . S
C3017 H3009 0.930 . S
C3017 C3015 1.419 . S
C3017 C3018 1.362 . S
C3018 H3010 0.930 . S
C3018 C3017 1.362 . S
C3018 C3021 1.409 . S
C3019 H3011 0.930 . S
C3019 C3020 1.355 . S
C3019 C3021 1.415 . S
C3020 C3019 1.355 . S
C3020 C3022 1.419 . S
C3021 C3016 1.425 . S
C3021 C3018 1.409 . S
C3021 C3019 1.415 . S
C3022 H3012 0.930 . S
C3022 C3020 1.419 . S
C3022 C3023 1.362 . S
C3023 H3013 0.930 . S
C3023 C3016 1.409 . S
C3023 C3022 1.362 . S
H3024 C3030 0.930 . S
H3025 C3033 0.930 . S
H3026 C3034 0.930 . S
H3027 C3035 0.930 . S
H3028 C3038 0.930 . S
H3029 C3039 0.930 . S
C3030 H3024 0.930 . S
C3030 C3031 1.355 . S
C3030 C3032 1.415 . S
C3031 C3030 1.355 . S
C3031 C3033 1.419 . S
C3032 C3030 1.415 . S
C3032 C3037 1.425 . S
C3032 C3039 1.409 . S
C3033 H3025 0.930 . S
C3033 C3031 1.419 . S
C3033 C3034 1.362 . S
C3034 H3026 0.930 . S
C3034 C3033 1.362 . S
C3034 C3037 1.409 . S
C3035 H3027 0.930 . S
C3035 C3036 1.355 . S
C3035 C3037 1.415 . S
C3036 C3035 1.355 . S
C3036 C3038 1.419 . S
C3037 C3032 1.425 . S
C3037 C3034 1.409 . S
C3037 C3035 1.415 . S
C3038 H3028 0.930 . S
C3038 C3036 1.419 . S
C3038 C3039 1.362 . S
C3039 H3029 0.930 . S
C3039 C3032 1.409 . S
C3039 C3038 1.362 . S
H3040 C3046 0.930 . S
H3041 C3049 0.930 . S
H3042 C3050 0.930 . S
H3043 C3051 0.930 . S
H3044 C3054 0.930 . S
H3045 C3055 0.930 . S
C3046 H3040 0.930 . S
C3046 C3047 1.355 . S
C3046 C3048 1.415 . S
C3047 C3046 1.355 . S
C3047 C3049 1.419 . S
C3048 C3046 1.415 . S
C3048 C3053 1.425 . S
C3048 C3055 1.409 . S
C3049 H3041 0.930 . S
C3049 C3047 1.419 . S
C3049 C3050 1.362 . S
C3050 H3042 0.930 . S
C3050 C3049 1.362 . S
C3050 C3053 1.409 . S
C3051 H3043 0.930 . S
C3051 C3052 1.355 . S
C3051 C3053 1.415 . S
C3052 C3051 1.355 . S
C3052 C3054 1.419 . S
C3053 C3048 1.425 . S
C3053 C3050 1.409 . S
C3053 C3051 1.415 . S
C3054 H3044 0.930 . S
C3054 C3052 1.419 . S
C3054 C3055 1.362 . S
C3055 H3045 0.930 . S
C3055 C3048 1.409 . S
C3055 C3054 1.362 . S
H3056 C3062 0.930 . S
H3057 C3065 0.930 . S
H3058 C3066 0.930 . S
H3059 C3067 0.930 . S
H3060 C3070 0.930 . S
H3061 C3071 0.930 . S
C3062 H3056 0.930 . S
C3062 C3063 1.355 . S
C3062 C3064 1.415 . S
C3063 C3062 1.355 . S
C3063 C3065 1.419 . S
C3064 C3062 1.415 . S
C3064 C3069 1.425 . S
C3064 C3071 1.409 . S
C3065 H3057 0.930 . S
C3065 C3063 1.419 . S
C3065 C3066 1.362 . S
C3066 H3058 0.930 . S
C3066 C3065 1.362 . S
C3066 C3069 1.409 . S
C3067 H3059 0.930 . S
C3067 C3068 1.355 . S
C3067 C3069 1.415 . S
C3068 C3067 1.355 . S
C3068 C3070 1.419 . S
C3069 C3064 1.425 . S
C3069 C3066 1.409 . S
C3069 C3067 1.415 . S
C3070 H3060 0.930 . S
C3070 C3068 1.419 . S
C3070 C3071 1.362 . S
C3071 H3061 0.930 . S
C3071 C3064 1.409 . S
C3071 C3070 1.362 . S
H3072 C3078 0.930 . S
H3073 C3081 0.930 . S
H3074 C3082 0.930 . S
H3075 C3083 0.930 . S
H3076 C3086 0.930 . S
H3077 C3087 0.930 . S
C3078 H3072 0.930 . S
C3078 C3079 1.355 . S
C3078 C3080 1.415 . S
C3079 C3078 1.355 . S
C3079 C3081 1.419 . S
C3080 C3078 1.415 . S
C3080 C3085 1.425 . S
C3080 C3087 1.409 . S
C3081 H3073 0.930 . S
C3081 C3079 1.419 . S
C3081 C3082 1.362 . S
C3082 H3074 0.930 . S
C3082 C3081 1.362 . S
C3082 C3085 1.409 . S
C3083 H3075 0.930 . S
C3083 C3084 1.355 . S
C3083 C3085 1.415 . S
C3084 C3083 1.355 . S
C3084 C3086 1.419 . S
C3085 C3080 1.425 . S
C3085 C3082 1.409 . S
C3085 C3083 1.415 . S
C3086 H3076 0.930 . S
C3086 C3084 1.419 . S
C3086 C3087 1.362 . S
C3087 H3077 0.930 . S
C3087 C3080 1.409 . S
C3087 C3086 1.362 . S
H3088 C3094 0.930 . S
H3089 C3097 0.930 . S
H3090 C3098 0.930 . S
H3091 C3099 0.930 . S
H3092 C3102 0.930 . S
H3093 C3103 0.930 . S
C3094 H3088 0.930 . S
C3094 C3095 1.355 . S
C3094 C3096 1.415 . S
C3095 C3094 1.355 . S
C3095 C3097 1.419 . S
C3096 C3094 1.415 . S
C3096 C3101 1.425 . S
C3096 C3103 1.409 . S
C3097 H3089 0.930 . S
C3097 C3095 1.419 . S
C3097 C3098 1.362 . S
C3098 H3090 0.930 . S
C3098 C3097 1.362 . S
C3098 C3101 1.409 . S
C3099 H3091 0.930 . S
C3099 C3100 1.355 . S
C3099 C3101 1.415 . S
C3100 C3099 1.355 . S
C3100 C3102 1.419 . S
C3101 C3096 1.425 . S
C3101 C3098 1.409 . S
C3101 C3099 1.415 . S
C3102 H3092 0.930 . S
C3102 C3100 1.419 . S
C3102 C3103 1.362 . S
C3103 H3093 0.930 . S
C3103 C3096 1.409 . S
C3103 C3102 1.362 . S
H3104 C3110 0.930 . S
H3105 C3113 0.930 . S
H3106 C3114 0.930 . S
H3107 C3115 0.930 . S
H3108 C3118 0.930 . S
H3109 C3119 0.930 . S
C3110 H3104 0.930 . S
C3110 C3111 1.355 . S
C3110 C3112 1.415 . S
C3111 C3110 1.355 . S
C3111 C3113 1.419 . S
C3112 C3110 1.415 . S
C3112 C3117 1.425 . S
C3112 C3119 1.409 . S
C3113 H3105 0.930 . S
C3113 C3111 1.419 . S
C3113 C3114 1.362 . S
C3114 H3106 0.930 . S
C3114 C3113 1.362 . S
C3114 C3117 1.409 . S
C3115 H3107 0.930 . S
C3115 C3116 1.355 . S
C3115 C3117 1.415 . S
C3116 C3115 1.355 . S
C3116 C3118 1.419 . S
C3117 C3112 1.425 . S
C3117 C3114 1.409 . S
C3117 C3115 1.415 . S
C3118 H3108 0.930 . S
C3118 C3116 1.419 . S
C3118 C3119 1.362 . S
C3119 H3109 0.930 . S
C3119 C3112 1.409 . S
C3119 C3118 1.362 . S
H3120 C3126 0.930 . S
H3121 C3129 0.930 . S
H3122 C3130 0.930 . S
H3123 C3131 0.930 . S
H3124 C3134 0.930 . S
H3125 C3135 0.930 . S
C3126 H3120 0.930 . S
C3126 C3127 1.355 . S
C3126 C3128 1.415 . S
C3127 C3126 1.355 . S
C3127 C3129 1.419 1_455 S
C3128 C3126 1.415 . S
C3128 C3133 1.425 . S
C3128 C3135 1.409 . S
C3129 H3121 0.930 . S
C3129 C3127 1.419 1_655 S
C3129 C3130 1.362 . S
C3130 H3122 0.930 . S
C3130 C3129 1.362 . S
C3130 C3133 1.409 1_655 S
C3131 H3123 0.930 . S
C3131 C3132 1.355 1_655 S
C3131 C3133 1.415 1_655 S
C3132 C3131 1.355 1_455 S
C3132 C3134 1.419 . S
C3133 C3128 1.425 . S
C3133 C3130 1.409 1_455 S
C3133 C3131 1.415 1_455 S
C3134 H3124 0.930 . S
C3134 C3132 1.419 . S
C3134 C3135 1.362 . S
C3135 H3125 0.930 . S
C3135 C3128 1.409 . S
C3135 C3134 1.362 . S
H3136 C3142 0.930 . S
H3137 C3145 0.930 . S
H3138 C3146 0.930 . S
H3139 C3147 0.930 . S
H3140 C3150 0.930 . S
H3141 C3151 0.930 . S
C3142 H3136 0.930 . S
C3142 C3143 1.355 . S
C3142 C3144 1.415 . S
C3143 C3142 1.355 . S
C3143 C3145 1.419 . S
C3144 C3142 1.415 . S
C3144 C3149 1.425 . S
C3144 C3151 1.409 . S
C3145 H3137 0.930 . S
C3145 C3143 1.419 . S
C3145 C3146 1.362 . S
C3146 H3138 0.930 . S
C3146 C3145 1.362 . S
C3146 C3149 1.409 . S
C3147 H3139 0.930 . S
C3147 C3148 1.355 . S
C3147 C3149 1.415 . S
C3148 C3147 1.355 . S
C3148 C3150 1.419 . S
C3149 C3144 1.425 . S
C3149 C3146 1.409 . S
C3149 C3147 1.415 . S
C3150 H3140 0.930 . S
C3150 C3148 1.419 . S
C3150 C3151 1.362 . S
C3151 H3141 0.930 . S
C3151 C3144 1.409 . S
C3151 C3150 1.362 . S
H3152 C3158 0.930 . S
H3153 C3161 0.930 . S
H3154 C3162 0.930 . S
H3155 C3163 0.930 . S
H3156 C3166 0.930 . S
H3157 C3167 0.930 . S
C3158 H3152 0.930 . S
C3158 C3159 1.355 . S
C3158 C3160 1.415 . S
C3159 C3158 1.355 . S
C3159 C3161 1.419 1_565 S
C3160 C3158 1.415 . S
C3160 C3165 1.425 . S
C3160 C3167 1.409 . S
C3161 H3153 0.930 . S
C3161 C3159 1.419 1_545 S
C3161 C3162 1.362 . S
C3162 H3154 0.930 . S
C3162 C3161 1.362 . S
C3162 C3165 1.409 1_545 S
C3163 H3155 0.930 . S
C3163 C3164 1.355 1_545 S
C3163 C3165 1.415 1_545 S
C3164 C3163 1.355 1_565 S
C3164 C3166 1.419 . S
C3165 C3160 1.425 . S
C3165 C3162 1.409 1_565 S
C3165 C3163 1.415 1_565 S
C3166 H3156 0.930 . S
C3166 C3164 1.419 . S
C3166 C3167 1.362 . S
C3167 H3157 0.930 . S
C3167 C3160 1.409 . S
C3167 C3166 1.362 . S
H3168 C3174 0.930 . S
H3169 C3177 0.930 . S
H3170 C3178 0.930 . S
H3171 C3179 0.930 . S
H3172 C3182 0.941 . S
H3173 C3183 0.917 1_545 S
C3174 H3168 0.930 . S
C3174 C3175 1.355 . S
C3174 C3176 1.415 . S
C3175 C3174 1.355 . S
C3175 C3177 1.419 . S
C3176 C3174 1.415 . S
C3176 C3181 1.425 . S
C3176 C3183 1.439 . S
C3177 H3169 0.930 . S
C3177 C3175 1.419 . S
C3177 C3178 1.362 . S
C3178 H3170 0.930 . S
C3178 C3177 1.362 . S
C3178 C3181 1.409 . S
C3179 H3171 0.930 . S
C3179 C3180 1.378 . S
C3179 C3181 1.415 . S
C3180 C3179 1.378 . S
C3180 C3182 1.408 1_565 S
C3181 C3176 1.425 . S
C3181 C3178 1.409 . S
C3181 C3179 1.415 . S
C3182 H3172 0.941 . S
C3182 C3180 1.408 1_545 S
C3182 C3183 1.339 1_545 S
C3183 H3173 0.917 1_565 S
C3183 C3176 1.439 . S
C3183 C3182 1.339 1_565 S
H3184 C3190 0.921 1_655 S
H3185 C3193 0.930 . S
H3186 C3194 0.930 . S
H3187 C3195 0.930 . S
H3188 C3198 0.930 . S
H3189 C3199 0.930 . S
C3190 H3184 0.921 1_455 S
C3190 C3191 1.352 . S
C3190 C3192 1.431 1_455 S
C3191 C3190 1.352 . S
C3191 C3193 1.419 . S
C3192 C3190 1.431 1_655 S
C3192 C3197 1.423 1_655 S
C3192 C3199 1.409 . S
C3193 H3185 0.930 . S
C3193 C3191 1.419 . S
C3193 C3194 1.362 . S
C3194 H3186 0.930 . S
C3194 C3193 1.362 . S
C3194 C3197 1.409 . S
C3195 H3187 0.930 . S
C3195 C3196 1.360 1_455 S
C3195 C3197 1.415 . S
C3196 C3195 1.360 1_655 S
C3196 C3198 1.433 . S
C3197 C3192 1.423 1_455 S
C3197 C3194 1.409 . S
C3197 C3195 1.415 . S
C3198 H3188 0.930 . S
C3198 C3196 1.433 . S
C3198 C3199 1.362 . S
C3199 H3189 0.930 . S
C3199 C3192 1.409 . S
C3199 C3198 1.362 . S
H3200 C3206 0.930 . S
H3201 C3209 0.930 . S
H3202 C3210 0.930 . S
H3203 C3211 0.930 . S
H3204 C3214 0.930 . S
H3205 C3215 0.930 . S
C3206 H3200 0.930 . S
C3206 C3207 1.355 . S
C3206 C3208 1.415 . S
C3207 C3206 1.355 . S
C3207 C3209 1.419 . S
C3208 C3206 1.415 . S
C3208 C3213 1.425 . S
C3208 C3215 1.409 . S
C3209 H3201 0.930 . S
C3209 C3207 1.419 . S
C3209 C3210 1.362 . S
C3210 H3202 0.930 . S
C3210 C3209 1.362 . S
C3210 C3213 1.409 . S
C3211 H3203 0.930 . S
C3211 C3212 1.355 . S
C3211 C3213 1.415 . S
C3212 C3211 1.355 . S
C3212 C3214 1.419 . S
C3213 C3208 1.425 . S
C3213 C3210 1.409 . S
C3213 C3211 1.415 . S
C3214 H3204 0.930 . S
C3214 C3212 1.419 . S
C3214 C3215 1.362 . S
C3215 H3205 0.930 . S
C3215 C3208 1.409 . S
C3215 C3214 1.362 . S
H3216 C3222 0.930 . S
H3217 C3225 0.930 . S
H3218 C3226 0.930 . S
H3219 C3227 0.930 . S
H3220 C3230 0.930 . S
H3221 C3231 0.930 . S
C3222 H3216 0.930 . S
C3222 C3223 1.355 . S
C3222 C3224 1.415 . S
C3223 C3222 1.355 . S
C3223 C3225 1.419 . S
C3224 C3222 1.415 . S
C3224 C3229 1.425 . S
C3224 C3231 1.409 . S
C3225 H3217 0.930 . S
C3225 C3223 1.419 . S
C3225 C3226 1.362 . S
C3226 H3218 0.930 . S
C3226 C3225 1.362 . S
C3226 C3229 1.409 . S
C3227 H3219 0.930 . S
C3227 C3228 1.355 . S
C3227 C3229 1.415 . S
C3228 C3227 1.355 . S
C3228 C3230 1.419 . S
C3229 C3224 1.425 . S
C3229 C3226 1.409 . S
C3229 C3227 1.415 . S
C3230 H3220 0.930 . S
C3230 C3228 1.419 . S
C3230 C3231 1.362 . S
C3231 H3221 0.930 . S
C3231 C3224 1.409 . S
C3231 C3230 1.362 . S
H3232 C3238 0.930 . S
H3233 C3241 0.930 . S
H3234 C3242 0.930 . S
H3235 C3243 0.930 . S
H3236 C3246 0.930 . S
H3237 C3247 0.930 . S
C3238 H3232 0.930 . S
C3238 C3239 1.355 . S
C3238 C3240 1.415 . S
C3239 C3238 1.355 . S
C3239 C3241 1.419 . S
C3240 C3238 1.415 . S
C3240 C3245 1.425 . S
C3240 C3247 1.409 . S
C3241 H3233 0.930 . S
C3241 C3239 1.419 . S
C3241 C3242 1.362 . S
C3242 H3234 0.930 . S
C3242 C3241 1.362 . S
C3242 C3245 1.409 . S
C3243 H3235 0.930 . S
C3243 C3244 1.355 . S
C3243 C3245 1.415 . S
C3244 C3243 1.355 . S
C3244 C3246 1.419 . S
C3245 C3240 1.425 . S
C3245 C3242 1.409 . S
C3245 C3243 1.415 . S
C3246 H3236 0.930 . S
C3246 C3244 1.419 . S
C3246 C3247 1.362 . S
C3247 H3237 0.930 . S
C3247 C3240 1.409 . S
C3247 C3246 1.362 . S
H3248 C3254 0.930 . S
H3249 C3257 0.930 . S
H3250 C3258 0.930 . S
H3251 C3259 0.930 . S
H3252 C3262 0.930 . S
H3253 C3263 0.930 . S
C3254 H3248 0.930 . S
C3254 C3255 1.355 . S
C3254 C3256 1.415 . S
C3255 C3254 1.355 . S
C3255 C3257 1.419 . S
C3256 C3254 1.415 . S
C3256 C3261 1.425 . S
C3256 C3263 1.409 . S
C3257 H3249 0.930 . S
C3257 C3255 1.419 . S
C3257 C3258 1.362 . S
C3258 H3250 0.930 . S
C3258 C3257 1.362 . S
C3258 C3261 1.409 . S
C3259 H3251 0.930 . S
C3259 C3260 1.355 . S
C3259 C3261 1.415 . S
C3260 C3259 1.355 . S
C3260 C3262 1.419 . S
C3261 C3256 1.425 . S
C3261 C3258 1.409 . S
C3261 C3259 1.415 . S
C3262 H3252 0.930 . S
C3262 C3260 1.419 . S
C3262 C3263 1.362 . S
C3263 H3253 0.930 . S
C3263 C3256 1.409 . S
C3263 C3262 1.362 . S
H3264 C3270 0.929 1_565 S
H3265 C3273 0.930 . S
H3266 C3274 0.930 . S
H3267 C3275 0.930 . S
H3268 C3278 0.930 . S
H3269 C3279 0.930 . S
C3270 H3264 0.929 1_545 S
C3270 C3271 1.357 . S
C3270 C3272 1.413 . S
C3271 C3270 1.357 . S
C3271 C3273 1.419 . S
C3272 C3270 1.413 . S
C3272 C3277 1.425 . S
C3272 C3279 1.409 1_545 S
C3273 H3265 0.930 . S
C3273 C3271 1.419 . S
C3273 C3274 1.362 . S
C3274 H3266 0.930 . S
C3274 C3273 1.362 . S
C3274 C3277 1.409 . S
C3275 H3267 0.930 . S
C3275 C3276 1.355 . S
C3275 C3277 1.415 . S
C3276 C3275 1.355 . S
C3276 C3278 1.419 1_545 S
C3277 C3272 1.425 . S
C3277 C3274 1.409 . S
C3277 C3275 1.415 . S
C3278 H3268 0.930 . S
C3278 C3276 1.419 1_565 S
C3278 C3279 1.362 . S
C3279 H3269 0.930 . S
C3279 C3272 1.409 1_565 S
C3279 C3278 1.362 . S
H3280 C3286 0.930 . S
H3281 C3289 0.930 . S
H3282 C3290 0.930 . S
H3283 C3291 0.930 . S
H3284 C3294 0.930 . S
H3285 C3295 0.930 . S
C3286 H3280 0.930 . S
C3286 C3287 1.355 . S
C3286 C3288 1.415 . S
C3287 C3286 1.355 . S
C3287 C3289 1.419 1_655 S
C3288 C3286 1.415 . S
C3288 C3293 1.436 . S
C3288 C3295 1.409 . S
C3289 H3281 0.930 . S
C3289 C3287 1.419 1_455 S
C3289 C3290 1.362 . S
C3290 H3282 0.930 . S
C3290 C3289 1.362 . S
C3290 C3293 1.380 1_455 S
C3291 H3283 0.930 . S
C3291 C3292 1.355 1_455 S
C3291 C3293 1.437 1_455 S
C3292 C3291 1.355 1_655 S
C3292 C3294 1.419 . S
C3293 C3288 1.436 . S
C3293 C3290 1.380 1_655 S
C3293 C3291 1.437 1_655 S
C3294 H3284 0.930 . S
C3294 C3292 1.419 . S
C3294 C3295 1.362 . S
C3295 H3285 0.930 . S
C3295 C3288 1.409 . S
C3295 C3294 1.362 . S
H3296 C3302 0.930 . S
H3297 C3305 0.930 . S
H3298 C3306 0.930 . S
H3299 C3307 0.930 . S
H3300 C3310 0.930 . S
H3301 C3311 0.930 . S
C3302 H3296 0.930 . S
C3302 C3303 1.355 . S
C3302 C3304 1.415 . S
C3303 C3302 1.355 . S
C3303 C3305 1.419 . S
C3304 C3302 1.415 . S
C3304 C3309 1.425 . S
C3304 C3311 1.409 . S
C3305 H3297 0.930 . S
C3305 C3303 1.419 . S
C3305 C3306 1.362 . S
C3306 H3298 0.930 . S
C3306 C3305 1.362 . S
C3306 C3309 1.409 . S
C3307 H3299 0.930 . S
C3307 C3308 1.355 . S
C3307 C3309 1.415 . S
C3308 C3307 1.355 . S
C3308 C3310 1.419 . S
C3309 C3304 1.425 . S
C3309 C3306 1.409 . S
C3309 C3307 1.415 . S
C3310 H3300 0.930 . S
C3310 C3308 1.419 . S
C3310 C3311 1.362 . S
C3311 H3301 0.930 . S
C3311 C3304 1.409 . S
C3311 C3310 1.362 . S
H3312 C3318 0.930 . S
H3313 C3321 0.930 . S
H3314 C3322 0.930 . S
H3315 C3323 0.930 . S
H3316 C3326 0.930 . S
H3317 C3327 0.930 . S
C3318 H3312 0.930 . S
C3318 C3319 1.355 . S
C3318 C3320 1.415 . S
C3319 C3318 1.355 . S
C3319 C3321 1.419 . S
C3320 C3318 1.415 . S
C3320 C3325 1.425 . S
C3320 C3327 1.409 . S
C3321 H3313 0.930 . S
C3321 C3319 1.419 . S
C3321 C3322 1.362 . S
C3322 H3314 0.930 . S
C3322 C3321 1.362 . S
C3322 C3325 1.409 . S
C3323 H3315 0.930 . S
C3323 C3324 1.355 . S
C3323 C3325 1.415 . S
C3324 C3323 1.355 . S
C3324 C3326 1.419 . S
C3325 C3320 1.425 . S
C3325 C3322 1.409 . S
C3325 C3323 1.415 . S
C3326 H3316 0.930 . S
C3326 C3324 1.419 . S
C3326 C3327 1.362 . S
C3327 H3317 0.930 . S
C3327 C3320 1.409 . S
C3327 C3326 1.362 . S
H3328 C3334 0.930 . S
H3329 C3337 0.930 . S
H3330 C3338 0.930 . S
H3331 C3339 0.930 . S
H3332 C3342 0.930 . S
H3333 C3343 0.930 . S
C3334 H3328 0.930 . S
C3334 C3335 1.355 . S
C3334 C3336 1.415 . S
C3335 C3334 1.355 . S
C3335 C3337 1.419 . S
C3336 C3334 1.415 . S
C3336 C3341 1.425 . S
C3336 C3343 1.409 . S
C3337 H3329 0.930 . S
C3337 C3335 1.419 . S
C3337 C3338 1.362 . S
C3338 H3330 0.930 . S
C3338 C3337 1.362 . S
C3338 C3341 1.409 . S
C3339 H3331 0.930 . S
C3339 C3340 1.355 . S
C3339 C3341 1.415 . S
C3340 C3339 1.355 . S
C3340 C3342 1.419 . S
C3341 C3336 1.425 . S
C3341 C3338 1.409 . S
C3341 C3339 1.415 . S
C3342 H3332 0.930 . S
C3342 C3340 1.419 . S
C3342 C3343 1.362 . S
C3343 H3333 0.930 . S
C3343 C3336 1.409 . S
C3343 C3342 1.362 . S
H3344 C3350 0.930 . S
H3345 C3353 0.930 . S
H3346 C3354 0.930 . S
H3347 C3355 0.930 . S
H3348 C3358 0.930 . S
H3349 C3359 0.930 . S
C3350 H3344 0.930 . S
C3350 C3351 1.355 . S
C3350 C3352 1.415 . S
C3351 C3350 1.355 . S
C3351 C3353 1.419 . S
C3352 C3350 1.415 . S
C3352 C3357 1.425 . S
C3352 C3359 1.409 . S
C3353 H3345 0.930 . S
C3353 C3351 1.419 . S
C3353 C3354 1.362 . S
C3354 H3346 0.930 . S
C3354 C3353 1.362 . S
C3354 C3357 1.409 . S
C3355 H3347 0.930 . S
C3355 C3356 1.355 . S
C3355 C3357 1.415 . S
C3356 C3355 1.355 . S
C3356 C3358 1.419 . S
C3357 C3352 1.425 . S
C3357 C3354 1.409 . S
C3357 C3355 1.415 . S
C3358 H3348 0.930 . S
C3358 C3356 1.419 . S
C3358 C3359 1.362 . S
C3359 H3349 0.930 . S
C3359 C3352 1.409 . S
C3359 C3358 1.362 . S
H3360 C3366 0.930 . S
H3361 C3369 0.930 . S
H3362 C3370 0.930 . S
H3363 C3371 0.930 . S
H3364 C3374 0.930 . S
H3365 C3375 0.930 . S
C3366 H3360 0.930 . S
C3366 C3367 1.355 . S
C3366 C3368 1.415 . S
C3367 C3366 1.355 . S
C3367 C3369 1.419 . S
C3368 C3366 1.415 . S
C3368 C3373 1.425 . S
C3368 C3375 1.409 . S
C3369 H3361 0.930 . S
C3369 C3367 1.419 . S
C3369 C3370 1.362 . S
C3370 H3362 0.930 . S
C3370 C3369 1.362 . S
C3370 C3373 1.409 . S
C3371 H3363 0.930 . S
C3371 C3372 1.355 . S
C3371 C3373 1.415 . S
C3372 C3371 1.355 . S
C3372 C3374 1.419 . S
C3373 C3368 1.425 . S
C3373 C3370 1.409 . S
C3373 C3371 1.415 . S
C3374 H3364 0.930 . S
C3374 C3372 1.419 . S
C3374 C3375 1.362 . S
C3375 H3365 0.930 . S
C3375 C3368 1.409 . S
C3375 C3374 1.362 . S
H3376 C3382 0.930 . S
H3377 C3385 0.930 . S
H3378 C3386 0.930 . S
H3379 C3387 0.930 . S
H3380 C3390 0.930 . S
H3381 C3391 0.930 . S
C3382 H3376 0.930 . S
C3382 C3383 1.355 . S
C3382 C3384 1.415 . S
C3383 C3382 1.355 . S
C3383 C3385 1.419 . S
C3384 C3382 1.415 . S
C3384 C3389 1.425 . S
C3384 C3391 1.409 . S
C3385 H3377 0.930 . S
C3385 C3383 1.419 . S
C3385 C3386 1.362 . S
C3386 H3378 0.930 . S
C3386 C3385 1.362 . S
C3386 C3389 1.409 . S
C3387 H3379 0.930 . S
C3387 C3388 1.355 . S
C3387 C3389 1.415 . S
C3388 C3387 1.355 . S
C3388 C3390 1.419 . S
C3389 C3384 1.425 . S
C3389 C3386 1.409 . S
C3389 C3387 1.415 . S
C3390 H3380 0.930 . S
C3390 C3388 1.419 . S
C3390 C3391 1.362 . S
C3391 H3381 0.930 . S
C3391 C3384 1.409 . S
C3391 C3390 1.362 . S
H3392 C3398 0.930 . S
H3393 C3401 0.930 . S
H3394 C3402 0.930 . S
H3395 C3403 0.930 . S
H3396 C3406 0.930 . S
H3397 C3407 0.930 . S
C3398 H3392 0.930 . S
C3398 C3399 1.355 . S
C3398 C3400 1.415 . S
C3399 C3398 1.355 . S
C3399 C3401 1.419 . S
C3400 C3398 1.415 . S
C3400 C3405 1.425 . S
C3400 C3407 1.409 . S
C3401 H3393 0.930 . S
C3401 C3399 1.419 . S
C3401 C3402 1.362 . S
C3402 H3394 0.930 . S
C3402 C3401 1.362 . S
C3402 C3405 1.409 . S
C3403 H3395 0.930 . S
C3403 C3404 1.355 . S
C3403 C3405 1.415 . S
C3404 C3403 1.355 . S
C3404 C3406 1.419 . S
C3405 C3400 1.425 . S
C3405 C3402 1.409 . S
C3405 C3403 1.415 . S
C3406 H3396 0.930 . S
C3406 C3404 1.419 . S
C3406 C3407 1.362 . S
C3407 H3397 0.930 . S
C3407 C3400 1.409 . S
C3407 C3406 1.362 . S
H3408 C3414 0.929 1_455 S
H3409 C3417 0.930 . S
H3410 C3418 0.930 . S
H3411 C3419 0.930 . S
H3412 C3422 0.930 . S
H3413 C3423 0.930 . S
C3414 H3408 0.929 1_655 S
C3414 C3415 1.359 . S
C3414 C3416 1.436 . S
C3415 C3414 1.359 . S
C3415 C3417 1.419 . S
C3416 C3414 1.436 . S
C3416 C3421 1.427 . S
C3416 C3423 1.385 1_655 S
C3417 H3409 0.930 . S
C3417 C3415 1.419 . S
C3417 C3418 1.362 . S
C3418 H3410 0.930 . S
C3418 C3417 1.362 . S
C3418 C3421 1.409 . S
C3419 H3411 0.930 . S
C3419 C3420 1.355 . S
C3419 C3421 1.415 . S
C3420 C3419 1.355 . S
C3420 C3422 1.419 1_655 S
C3421 C3416 1.427 . S
C3421 C3418 1.409 . S
C3421 C3419 1.415 . S
C3422 H3412 0.930 . S
C3422 C3420 1.419 1_455 S
C3422 C3423 1.362 . S
C3423 H3413 0.930 . S
C3423 C3416 1.385 1_455 S
C3423 C3422 1.362 . S
H3424 C3430 0.930 . S
H3425 C3433 0.930 . S
H3426 C3434 0.930 . S
H3427 C3435 0.930 . S
H3428 C3438 0.930 . S
H3429 C3439 0.930 . S
C3430 H3424 0.930 . S
C3430 C3431 1.355 . S
C3430 C3432 1.415 . S
C3431 C3430 1.355 . S
C3431 C3433 1.419 . S
C3432 C3430 1.415 . S
C3432 C3437 1.425 . S
C3432 C3439 1.409 . S
C3433 H3425 0.930 . S
C3433 C3431 1.419 . S
C3433 C3434 1.362 . S
C3434 H3426 0.930 . S
C3434 C3433 1.362 . S
C3434 C3437 1.409 . S
C3435 H3427 0.930 . S
C3435 C3436 1.355 . S
C3435 C3437 1.415 . S
C3436 C3435 1.355 . S
C3436 C3438 1.419 . S
C3437 C3432 1.425 . S
C3437 C3434 1.409 . S
C3437 C3435 1.415 . S
C3438 H3428 0.930 . S
C3438 C3436 1.419 . S
C3438 C3439 1.362 . S
C3439 H3429 0.930 . S
C3439 C3432 1.409 . S
C3439 C3438 1.362 . S
H3440 C3446 0.926 1_565 S
H3441 C3449 0.930 . S
H3442 C3450 0.930 . S
H3443 C3451 0.930 . S
H3444 C3454 0.930 . S
H3445 C3455 0.930 . S
C3446 H3440 0.926 1_545 S
C3446 C3447 1.355 . S
C3446 C3448 1.422 1_545 S
C3447 C3446 1.355 . S
C3447 C3449 1.419 . S
C3448 C3446 1.422 1_565 S
C3448 C3453 1.420 1_565 S
C3448 C3455 1.410 . S
C3449 H3441 0.930 . S
C3449 C3447 1.419 . S
C3449 C3450 1.362 . S
C3450 H3442 0.930 . S
C3450 C3449 1.362 . S
C3450 C3453 1.409 . S
C3451 H3443 0.930 . S
C3451 C3452 1.355 1_545 S
C3451 C3453 1.415 . S
C3452 C3451 1.355 1_565 S
C3452 C3454 1.416 . S
C3453 C3448 1.420 1_545 S
C3453 C3450 1.409 . S
C3453 C3451 1.415 . S
C3454 H3444 0.930 . S
C3454 C3452 1.416 . S
C3454 C3455 1.362 . S
C3455 H3445 0.930 . S
C3455 C3448 1.410 . S
C3455 C3454 1.362 . S
C2311 C8 1.323 1_655 S
C2316 C1307 1.166 1_655 S
C2327 C22 1.714 . S
C2332 C1447 1.134 . S
C2348 C1535 1.087 . S
C2343 C37 1.424 . S
C2359 C36 1.459 1_565 S
C2364 C1675 1.010 1_565 S
C2375 C9 1.432 . S
C2380 C1789 0.934 1_455 S
C2391 C23 1.733 . S
C2396 C1877 1.291 . S
C2407 C50 1.304 1_455 S
C2412 C1763 1.048 . S
C2428 C1903 1.304 . S
C2423 C64 1.603 . S
C2444 C1649 1.244 1_545 S
C2439 C79 1.420 1_565 S
C2455 C78 1.445 1_545 S
C2460 C1561 1.160 1_565 S
C2476 C1333 1.119 1_455 S
C2471 C51 1.441 1_655 S
C2487 C65 1.634 . S
C2492 C1421 1.403 . S
C2503 C92 1.772 . S
C2508 C1991 1.324 . S
C2519 C106 1.817 . S
C2524 C2131 1.099 . S
C2540 C2219 1.348 . S
C2535 C121 1.746 . S
C2551 C120 1.758 . S
C2556 C307 1.128 . S
C2567 C93 1.761 . S
C2572 C421 1.199 . S
C2583 C107 1.797 . S
C2588 C509 1.228 . S
C2599 C134 1.551 . S
C2604 C395 1.373 . S
C2615 C148 1.665 . S
C2620 C535 1.366 . S
C2636 C281 1.429 . S
C2631 C163 1.627 . S
C2652 C2245 1.574 . S
C2647 C162 1.777 . S
C2668 C2017 1.470 . S
C2663 C135 1.669 . S
C2684 C2105 1.532 . S
C2679 C149 1.725 . S
C2695 C176 1.661 . S
C2700 C623 1.097 . S
C2711 C190 1.785 . S
C2716 C763 1.108 . S
C2727 C205 1.738 . S
C2732 C851 1.347 . S
C2743 C204 1.885 . S
C2748 C991 1.155 . S
C2764 C1105 1.109 . S
C2759 C177 1.782 . S
C2780 C1193 1.334 . S
C2775 C191 1.821 . S
C2796 C1079 1.472 . S
C2791 C218 1.677 . S
C2812 C1219 1.492 . S
C2807 C232 1.709 . S
C2823 C247 1.634 . S
C2828 C965 1.405 . S
C2844 C877 1.369 . S
C2839 C246 1.662 . S
C2855 C219 1.659 . S
C2860 C649 1.451 . S
C2876 C737 1.505 . S
C2871 C233 1.669 . S
C2892 C263 1.017 . S
C2887 C6 1.753 . S
C2903 C20 1.580 . S
C2908 C377 0.827 . S
C2924 C481 1.120 . S
C2919 C35 1.671 . S
C2940 C595 1.207 . S
C2935 C34 1.570 . S
C2956 C719 0.990 . S
C2951 C7 1.701 . S
C2972 C823 1.053 . S
C2967 C21 1.597 . S
C2983 C48 1.852 . S
C2988 C833 1.395 . S
C2999 C62 1.663 . S
C3004 C605 1.312 . S
C3015 C77 1.772 . S
C3020 C709 1.574 . S
C3031 C76 1.684 . S
C3036 C367 1.466 . S
C3052 C491 1.273 . S
C3047 C49 1.815 . S
C3063 C63 1.694 . S
C3068 C253 1.407 . S
C3084 C947 0.842 . S
C3079 C90 1.693 . S
C3095 C104 1.673 . S
C3100 C1061 1.054 . S
C3111 C119 1.660 . S
C3116 C1165 1.213 . S
C3132 C1279 1.119 . S
C3127 C118 1.319 . S
C3143 C91 1.628 . S
C3148 C1403 0.982 . S
C3159 C105 1.410 . S
C3164 C1507 1.189 . S
C3175 C132 1.494 . S
C3180 C1517 0.816 1_565 S
C3191 C146 1.404 . S
C3196 C1289 0.829 . S
C3212 C1393 1.411 . S
C3207 C161 1.688 . S
C3223 C160 1.630 . S
C3228 C1051 1.488 . S
C3239 C133 1.770 . S
C3244 C1175 1.367 . S
C3260 C937 1.566 . S
C3255 C147 1.769 . S
C3276 C1631 1.054 . S
C3271 C174 1.459 . S
C3287 C188 1.404 . S
C3292 C1745 0.985 . S
C3303 C203 1.599 . S
C3308 C1849 1.116 . S
C3324 C1963 1.230 . S
C3319 C202 1.509 . S
C3340 C2087 1.070 . S
C3335 C175 1.679 . S
C3351 C189 1.673 . S
C3356 C2191 1.338 . S
C3367 C216 1.770 . S
C3372 C2201 1.251 . S
C3383 C230 1.787 . S
C3388 C1973 1.308 . S
C3404 C2077 1.566 . S
C3399 C245 1.754 . S
C3420 C1735 1.165 1_655 S
C3415 C244 1.294 . S
C3436 C1859 1.343 . S
C3431 C217 1.725 . S
C3447 C231 1.403 . S
C3452 C1621 1.092 . S
