# Generated by pormake.
# Topology zzz, (3,6)-cn, num edge types: 1
# Building blocks:
#     Node 0, Type 0, BuildingBlock: ESEHIV_clean_linker_0, # of connection points: 3
#     Node 1, Type 0, BuildingBlock: ESEHIV_clean_linker_0, # of connection points: 3
#     Node 2, Type 0, BuildingBlock: ESEHIV_clean_linker_0, # of connection points: 3
#     Node 3, Type 0, BuildingBlock: ESEHIV_clean_linker_0, # of connection points: 3
#     Node 4, Type 0, BuildingBlock: ESEHIV_clean_linker_0, # of connection points: 3
#     Node 5, Type 0, BuildingBlock: ESEHIV_clean_linker_0, # of connection points: 3
#     Node 6, Type 0, BuildingBlock: ESEHIV_clean_linker_0, # of connection points: 3
#     Node 7, Type 0, BuildingBlock: ESEHIV_clean_linker_0, # of connection points: 3
#     Node 8, Type 1, BuildingBlock: BETDIP_clean_sbu_0, # of connection points: 6
#     Node 9, Type 1, BuildingBlock: BETDIP_clean_sbu_0, # of connection points: 6
#     Node 10, Type 1, BuildingBlock: BETDIP_clean_sbu_0, # of connection points: 6
#     Node 11, Type 1, BuildingBlock: BETDIP_clean_sbu_0, # of connection points: 6
#     Edge 12, Type (0, 1), BuildingBlock: XUDNAN_clean_linker_2, # of connection points: 2
#     Edge 13, Type (0, 1), BuildingBlock: XUDNAN_clean_linker_2, # of connection points: 2
#     Edge 14, Type (0, 1), BuildingBlock: XUDNAN_clean_linker_2, # of connection points: 2
#     Edge 15, Type (0, 1), BuildingBlock: XUDNAN_clean_linker_2, # of connection points: 2
#     Edge 16, Type (0, 1), BuildingBlock: XUDNAN_clean_linker_2, # of connection points: 2
#     Edge 17, Type (0, 1), BuildingBlock: XUDNAN_clean_linker_2, # of connection points: 2
#     Edge 18, Type (0, 1), BuildingBlock: XUDNAN_clean_linker_2, # of connection points: 2
#     Edge 19, Type (0, 1), BuildingBlock: XUDNAN_clean_linker_2, # of connection points: 2
#     Edge 20, Type (0, 1), BuildingBlock: XUDNAN_clean_linker_2, # of connection points: 2
#     Edge 21, Type (0, 1), BuildingBlock: XUDNAN_clean_linker_2, # of connection points: 2
#     Edge 22, Type (0, 1), BuildingBlock: XUDNAN_clean_linker_2, # of connection points: 2
#     Edge 23, Type (0, 1), BuildingBlock: XUDNAN_clean_linker_2, # of connection points: 2
#     Edge 24, Type (0, 1), BuildingBlock: XUDNAN_clean_linker_2, # of connection points: 2
#     Edge 25, Type (0, 1), BuildingBlock: XUDNAN_clean_linker_2, # of connection points: 2
#     Edge 26, Type (0, 1), BuildingBlock: XUDNAN_clean_linker_2, # of connection points: 2
#     Edge 27, Type (0, 1), BuildingBlock: XUDNAN_clean_linker_2, # of connection points: 2
#     Edge 28, Type (0, 1), BuildingBlock: XUDNAN_clean_linker_2, # of connection points: 2
#     Edge 29, Type (0, 1), BuildingBlock: XUDNAN_clean_linker_2, # of connection points: 2
#     Edge 30, Type (0, 1), BuildingBlock: XUDNAN_clean_linker_2, # of connection points: 2
#     Edge 31, Type (0, 1), BuildingBlock: XUDNAN_clean_linker_2, # of connection points: 2
#     Edge 32, Type (0, 1), BuildingBlock: XUDNAN_clean_linker_2, # of connection points: 2
#     Edge 33, Type (0, 1), BuildingBlock: XUDNAN_clean_linker_2, # of connection points: 2
#     Edge 34, Type (0, 1), BuildingBlock: XUDNAN_clean_linker_2, # of connection points: 2
#     Edge 35, Type (0, 1), BuildingBlock: XUDNAN_clean_linker_2, # of connection points: 2
# Relax obj value: 0.501
# Max RMSD: 0.257
# Mean RMSD: 0.242
data_MOF--net-zzz--node1-BETDIP_clean_sbu_0--node2-ESEHIV_clean_linker_0--edge1-XUDNAN_clean_linker_2
_symmetry_space_group_name_H-M    P1
_symmetry_Int_Tables_number       1
_symmetry_cell_setting            triclinic
loop_
_symmetry_equiv_pos_as_xyz
'x, y, z'
_cell_length_a     45.267662
_cell_length_b     45.164616
_cell_length_c     14.282186
_cell_angle_alpha  89.572213
_cell_angle_beta   89.849203
_cell_angle_gamma 89.926773
loop_
_atom_site_label
_atom_site_type_symbol
_atom_site_fract_x
_atom_site_fract_y
_atom_site_fract_z
_atom_type_partial_charge
H0 H 0.77677 0.43341 0.36474 0.0
H1 H 0.70236 0.43593 0.1807 0.0
H2 H 0.7217 0.51098 0.35631 0.0
C3 C 0.75695 0.4445 0.3401 0.0
C4 C 0.75091 0.47321 0.37118 0.0
C5 C 0.73959 0.43106 0.2715 0.0
C6 C 0.71482 0.44605 0.23669 0.0
C7 C 0.70771 0.47487 0.26649 0.0
C8 C 0.7261 0.4885 0.3344 0.0
H9 H 0.05472 0.80162 0.30566 0.0
H10 H 0.05845 0.71645 0.17391 0.0
H11 H 0.98618 0.73789 0.35893 0.0
C12 C 0.04583 0.77961 0.29571 0.0
C13 C 0.01944 0.77218 0.3416 0.0
C14 C 0.06038 0.75975 0.23593 0.0
C15 C 0.0477 0.73192 0.22066 0.0
C16 C 0.02081 0.72392 0.26301 0.0
C17 C 1.00685 0.7439 0.32554 0.0
H18 H 0.73829 0.10431 0.40798 0.0
H19 H 0.81272 0.10345 0.22345 0.0
H20 H 0.79375 0.02716 0.39732 0.0
C21 C 0.75846 0.09364 0.38499 0.0
C22 C 0.76444 0.06468 0.41566 0.0
C23 C 0.7756 0.10764 0.31579 0.0
C24 C 0.8003 0.09289 0.27935 0.0
C25 C 0.80729 0.06375 0.30744 0.0
C26 C 0.78908 0.04973 0.37606 0.0
H27 H 0.57961 0.72894 0.39062 0.0
H28 H 0.51708 0.80009 0.40158 0.0
H29 H 0.5896 0.80215 0.20309 0.0
C30 C 0.57322 0.75117 0.36956 0.0
C31 C 0.58827 0.76496 0.29558 0.0
C32 C 0.54722 0.76304 0.40655 0.0
C33 C 0.53731 0.79102 0.37323 0.0
C34 C 0.55346 0.80671 0.30263 0.0
C35 C 0.57852 0.79267 0.26344 0.0
H36 H 0.21682 0.57278 0.16228 0.0
H37 H 0.29379 0.57193 0.33669 0.0
H38 H 0.27571 0.49793 0.15551 0.0
C39 C 0.23716 0.56215 0.18466 0.0
C40 C 0.24401 0.53405 0.15003 0.0
C41 C 0.25498 0.576 0.25125 0.0
C42 C 0.28029 0.56144 0.28379 0.0
C43 C 0.28822 0.53337 0.24983 0.0
C44 C 0.27013 0.51972 0.18132 0.0
H45 H 0.9201 0.23693 0.13956 0.0
H46 H 0.91615 0.31773 0.29488 0.0
H47 H 0.99295 0.29692 0.12842 0.0
C48 C 0.92892 0.25852 0.15565 0.0
C49 C 0.9569 0.26563 0.11992 0.0
C50 C 0.91377 0.27699 0.21858 0.0
C51 C 0.92738 0.30355 0.24563 0.0
C52 C 0.95631 0.31076 0.21656 0.0
C53 C 0.97082 0.2917 0.15224 0.0
H54 H 0.29409 0.9692 0.22697 0.0
H55 H 0.20852 0.97215 0.35577 0.0
H56 H 0.22829 0.03002 0.12207 0.0
C57 C 0.27184 0.97811 0.22902 0.0
C58 C 0.26388 1.00048 0.16509 0.0
C59 C 0.25204 0.96777 0.29744 0.0
C60 C 0.2237 0.97987 0.30199 0.0
C61 C 0.2148 1.00233 0.23992 0.0
C62 C 0.23483 1.01249 0.16987 0.0
H63 H 0.58783 0.29024 0.1243 0.0
H64 H 0.51218 0.23288 0.1261 0.0
H65 H 0.58776 0.2133 0.30086 0.0
C66 C 0.57733 0.26981 0.14691 0.0
C67 C 0.59144 0.25179 0.2133 0.0
C68 C 0.54876 0.26357 0.11557 0.0
C69 C 0.53447 0.23762 0.14886 0.0
C70 C 0.54869 0.21861 0.2149 0.0
C71 C 0.57724 0.22617 0.24591 0.0
Tb72 Tb 0.02149 1.01423 0.79505 0.0
Tb73 Tb 0.97596 0.0267 0.66775 0.0
C74 C 0.05657 0.99346 0.9158 0.0
C75 C 0.07647 0.96777 0.91982 0.0
C76 C 0.07026 0.94228 0.86831 0.0
C77 C 0.08819 0.91735 0.87654 0.0
C78 C 0.11302 0.9174 0.93583 0.0
C79 C 0.12017 0.94369 0.98312 0.0
C80 C 0.10194 0.96865 0.97537 0.0
C81 C 0.04241 0.0318 0.6285 0.0
C82 C 0.99719 0.96186 0.66852 0.0
C83 C 0.94138 0.04626 0.54376 0.0
C84 C 0.91923 0.06999 0.53656 0.0
C85 C 0.92273 0.09653 0.58542 0.0
C86 C 0.9025 0.11955 0.57356 0.0
C87 C 0.8781 0.11642 0.5133 0.0
C88 C 0.87386 0.08915 0.46843 0.0
C89 C 0.89435 0.06618 0.47959 0.0
C90 C 0.95546 1.00926 0.83497 0.0
C91 C 1.00007 0.07909 0.7978 0.0
O92 O 0.02824 0.98779 0.91456 0.0
O93 O 0.06379 1.01382 0.85495 0.0
O94 O 0.02109 1.01433 0.64299 0.0
O95 O 0.05216 0.04001 0.70889 0.0
O96 O 1.00846 0.96912 0.75053 0.0
O97 O 0.98714 0.983 0.61306 0.0
O98 O 0.969 0.05446 0.55148 0.0
O99 O 0.93479 0.02462 0.60095 0.0
O100 O 0.97643 0.02698 0.81962 0.0
O101 O 0.94563 1.00065 0.75497 0.0
O102 O 0.98605 0.07213 0.71945 0.0
O103 O 1.01255 0.05812 0.84855 0.0
H104 H 0.05099 0.94116 0.82406 0.0
H105 H 0.0814 0.89751 0.84042 0.0
H106 H 0.13924 0.94466 0.02862 0.0
H107 H 0.10736 0.98837 1.01446 0.0
H108 H 0.9416 0.09989 0.63046 0.0
H109 H 0.90698 0.14034 0.60801 0.0
H110 H 0.85516 0.08589 0.42274 0.0
H111 H 0.89108 0.04566 0.44218 0.0
Tb112 Tb 0.52013 0.04618 0.84952 0.0
Tb113 Tb 0.51126 1.00028 0.7224 0.0
C114 C 0.53781 0.08093 0.97476 0.0
C115 C 0.56346 0.10046 0.98842 0.0
C116 C 0.59219 0.09044 0.97018 0.0
C117 C 0.61636 0.10863 0.9875 0.0
C118 C 0.61246 0.13759 0.02192 0.0
C119 C 0.58349 0.14788 0.03731 0.0
C120 C 0.55924 0.1294 0.0211 0.0
C121 C 0.50273 0.06612 0.6826 0.0
C122 C 0.57478 0.02393 0.72353 0.0
C123 C 0.49283 0.96454 0.60198 0.0
C124 C 0.46723 0.94478 0.60031 0.0
C125 C 0.45459 0.93419 0.684 0.0
C126 C 0.42767 0.91913 0.68245 0.0
C127 C 0.41274 0.91491 0.59734 0.0
C128 C 0.42649 0.92422 0.51338 0.0
C129 C 0.45352 0.93892 0.515 0.0
C130 C 0.52803 0.98049 0.89095 0.0
C131 C 0.45608 0.02228 0.84356 0.0
O132 O 0.54287 0.05238 0.97549 0.0
O133 O 0.51968 0.08871 0.90818 0.0
O134 O 0.52161 0.04605 0.69781 0.0
O135 O 0.49283 0.07514 0.76232 0.0
O136 O 0.56649 0.03742 0.80169 0.0
O137 O 0.55483 1.01111 0.6709 0.0
O138 O 0.48656 0.9928 0.60076 0.0
O139 O 0.51313 0.958 0.66339 0.0
O140 O 0.50932 1.0005 0.87364 0.0
O141 O 0.53822 0.97143 0.81181 0.0
O142 O 0.46504 1.01002 0.76448 0.0
O143 O 0.47574 0.03472 0.89875 0.0
H144 H 0.59613 0.06825 0.94466 0.0
H145 H 0.63815 0.0993 0.97731 0.0
H146 H 0.5795 0.17001 0.06315 0.0
H147 H 0.53718 0.1376 0.03517 0.0
H148 H 0.46488 0.93867 0.75085 0.0
H149 H 0.41788 0.91209 0.74819 0.0
H150 H 0.41552 0.92212 0.44649 0.0
H151 H 0.46292 0.94713 0.44995 0.0
Tb152 Tb 0.49127 0.51791 0.80583 0.0
Tb153 Tb 0.52692 0.50415 0.64478 0.0
C154 C 0.47799 0.54167 0.95743 0.0
C155 C 0.49856 0.56031 1.01119 0.0
C156 C 0.52619 0.54895 0.03955 0.0
C157 C 0.54909 0.56802 0.06409 0.0
C158 C 0.54486 0.59877 0.06053 0.0
C159 C 0.51645 0.60992 0.04069 0.0
C160 C 0.49356 0.59087 1.01611 0.0
C161 C 0.45829 0.50144 0.66103 0.0
C162 C 0.50942 0.56861 0.66527 0.0
C163 C 0.55292 0.48474 0.50258 0.0
C164 C 0.57732 0.46367 0.49252 0.0
C165 C 0.58803 0.45696 0.40348 0.0
C166 C 0.60979 0.43533 0.39246 0.0
C167 C 0.62121 0.42005 0.4707 0.0
C168 C 0.61153 0.42816 0.56067 0.0
C169 C 0.58971 0.44981 0.57147 0.0
C170 C 0.55807 0.52113 0.79377 0.0
C171 C 0.50884 0.45148 0.78523 0.0
O172 O 0.48508 0.51374 0.95107 0.0
O173 O 0.47 0.55268 0.87646 0.0
O174 O 0.48152 0.51678 0.65785 0.0
O175 O 0.45127 0.49762 0.74836 0.0
O176 O 0.50868 0.56123 0.75507 0.0
O177 O 0.51008 0.54736 0.60264 0.0
O178 O 0.52809 0.47372 0.53456 0.0
O179 O 0.55991 0.50953 0.54321 0.0
O180 O 0.53609 0.50433 0.7921 0.0
O181 O 0.56432 0.528 0.70831 0.0
O182 O 0.51821 0.45904 0.70031 0.0
O183 O 0.49939 0.47182 0.84398 0.0
H184 H 0.53084 0.52545 0.03707 0.0
H185 H 0.57048 0.5587 0.08088 0.0
H186 H 0.51211 0.6335 0.04119 0.0
H187 H 0.47251 0.60019 0.99499 0.0
H188 H 0.57871 0.46775 0.34256 0.0
H189 H 0.61627 0.42921 0.32225 0.0
H190 H 0.61994 0.41689 0.6223 0.0
H191 H 0.58187 0.45512 0.64113 0.0
Tb192 Tb 0.99152 0.4871 0.83413 0.0
Tb193 Tb 1.00104 0.53077 0.69651 0.0
C194 C 0.97444 0.45348 0.96464 0.0
C195 C 0.95209 0.43025 0.97397 0.0
C196 C 0.93628 0.42028 0.89597 0.0
C197 C 0.91322 0.39999 0.90776 0.0
C198 C 0.90546 0.38972 0.99786 0.0
C199 C 0.92252 0.39879 0.07474 0.0
C200 C 0.94574 0.41871 0.06267 0.0
C201 C 1.00775 0.46429 0.66997 0.0
C202 C 0.937 0.50748 0.70693 0.0
C203 C 0.01976 0.56372 0.56654 0.0
C204 C 0.04595 0.58273 0.55527 0.0
C205 C 0.07429 0.57154 0.57302 0.0
C206 C 0.09899 0.58945 0.56099 0.0
C207 C 0.09605 0.61921 0.53207 0.0
C208 C 0.06753 0.63062 0.51652 0.0
C209 C 0.04269 0.61248 0.52784 0.0
C210 C 0.98511 0.55392 0.86104 0.0
C211 C 0.05535 0.51008 0.82347 0.0
O212 O 0.96441 0.48038 0.95183 0.0
O213 O 0.99646 0.44741 0.90899 0.0
O214 O 0.98956 0.48499 0.68282 0.0
O215 O 0.01733 0.45585 0.7507 0.0
O216 O 0.94538 0.49671 0.78934 0.0
O217 O 0.95701 0.51855 0.6494 0.0
O218 O 0.02441 0.53513 0.57036 0.0
O219 O 1.00067 0.57229 0.62925 0.0
O220 O 1.00289 0.53281 0.84807 0.0
O221 O 0.97575 0.56251 0.77997 0.0
O222 O 0.04707 0.51989 0.73985 0.0
O223 O 0.035 0.50068 0.88267 0.0
H224 H 0.94118 0.42887 0.8266 0.0
H225 H 0.90063 0.39338 0.84704 0.0
H226 H 0.9167 0.39217 0.14525 0.0
H227 H 0.95799 0.42606 0.12311 0.0
H228 H 0.07755 0.54873 0.5944 0.0
H229 H 0.12049 0.57938 0.57073 0.0
H230 H 0.06442 0.65338 0.49422 0.0
H231 H 0.02095 0.62159 0.51436 0.0
H232 H 0.19906 0.04044 0.37703 0.0
H233 H 0.16307 0.98863 0.15119 0.0
H234 H 0.1127 0.99529 0.21667 0.0
H235 H 0.15788 1.00961 0.54943 0.0
H236 H 0.15253 0.04249 0.61823 0.0
H237 H 0.18431 0.0394 0.54329 0.0
H238 H 0.17018 0.08816 0.45804 0.0
H239 H 0.13857 0.09182 0.53412 0.0
H240 H 0.13375 0.09224 0.40887 0.0
H241 H 0.06732 1.00029 0.32507 0.0
H242 H 0.03201 1.00587 0.45717 0.0
H243 H 0.09814 0.05472 0.61101 0.0
C244 C 0.18033 0.03204 0.33843 0.0
C245 C 0.18486 1.01504 0.2568 0.0
C246 C 0.16 1.00276 0.21141 0.0
C247 C 0.13132 1.00616 0.24902 0.0
C248 C 0.12778 0.02197 0.33222 0.0
C249 C 0.15168 0.03519 0.37529 0.0
C250 C 0.14283 0.04833 0.46882 0.0
C251 C 0.16043 0.0341 0.54965 0.0
C252 C 0.14655 0.08215 0.46734 0.0
C253 C 0.11047 0.03974 0.47347 0.0
C254 C 0.10201 0.0247 0.39397 0.0
C255 C 0.07366 1.01261 0.38651 0.0
C256 C 0.0537 0.01585 0.46198 0.0
C257 C 0.06208 0.031 0.54427 0.0
C258 C 0.09077 0.04342 0.5487 0.0
H259 H 0.57179 0.16421 0.26849 0.0
H260 H 0.49092 0.21584 0.27504 0.0
H261 H 0.46845 0.17856 0.38042 0.0
H262 H 0.53654 0.08941 0.28796 0.0
H263 H 0.56566 0.07554 0.36218 0.0
H264 H 0.57353 0.10359 0.2751 0.0
H265 H 0.5953 0.13713 0.40384 0.0
H266 H 0.58728 0.10939 0.49124 0.0
H267 H 0.57296 0.1464 0.50414 0.0
H268 H 0.45745 0.1401 0.50444 0.0
H269 H 0.45795 0.10247 0.63086 0.0
H270 H 0.54577 0.07508 0.54624 0.0
C271 C 0.54911 0.16743 0.29036 0.0
C272 C 0.53316 0.19318 0.26253 0.0
C273 C 0.50353 0.19626 0.29327 0.0
C274 C 0.49062 0.17521 0.35401 0.0
C275 C 0.50742 0.15088 0.38316 0.0
C276 C 0.53594 0.14667 0.35135 0.0
C277 C 0.55005 0.11987 0.39877 0.0
C278 C 0.55684 0.09566 0.32672 0.0
C279 C 0.57804 0.12874 0.45269 0.0
C280 C 0.52543 0.11032 0.46514 0.0
C281 C 0.50093 0.12837 0.4541 0.0
C282 C 0.47628 0.12551 0.51223 0.0
C283 C 0.47676 0.10405 0.58403 0.0
C284 C 0.50163 0.08549 0.59765 0.0
C285 C 0.52611 0.08838 0.53609 0.0
H286 H 0.2981 0.5183 0.43259 0.0
H287 H 0.33996 0.51933 0.15979 0.0
H288 H 0.38815 0.5075 0.23407 0.0
H289 H 0.35358 0.55339 0.55336 0.0
H290 H 0.35034 0.53195 0.65983 0.0
H291 H 0.31884 0.53645 0.58452 0.0
H292 H 0.31324 0.47955 0.57303 0.0
H293 H 0.34452 0.47482 0.64954 0.0
H294 H 0.34431 0.45745 0.53632 0.0
H295 H 0.43312 0.50334 0.34276 0.0
H296 H 0.46941 0.50174 0.47259 0.0
H297 H 0.39759 0.50058 0.6737 0.0
C298 C 0.31725 0.51493 0.38828 0.0
C299 C 0.31522 0.51921 0.29012 0.0
C300 C 0.34088 0.51546 0.23466 0.0
C301 C 0.36838 0.509 0.27655 0.0
C302 C 0.36981 0.50593 0.37401 0.0
C303 C 0.3447 0.50814 0.42889 0.0
C304 C 0.35219 0.50534 0.5322 0.0
C305 C 0.3432 0.53346 0.58556 0.0
C306 C 0.33771 0.47764 0.5753 0.0
C307 C 0.38553 0.50205 0.52754 0.0
C308 C 0.39536 0.50252 0.43572 0.0
C309 C 0.42552 0.50226 0.41461 0.0
C310 C 0.44602 0.50143 0.48879 0.0
C311 C 0.4364 0.50052 0.58322 0.0
C312 C 0.40568 0.50056 0.60229 0.0
H313 H 0.93352 0.3649 0.27503 0.0
H314 H 0.01442 0.31319 0.2724 0.0
H315 H 0.0379 0.35001 0.37453 0.0
H316 H 0.96952 0.43897 0.28491 0.0
H317 H 0.94266 0.45412 0.36412 0.0
H318 H 0.93164 0.42646 0.28096 0.0
H319 H 0.91153 0.39249 0.41126 0.0
H320 H 0.92075 0.42023 0.49601 0.0
H321 H 0.93476 0.38305 0.50946 0.0
H322 H 0.05039 0.3884 0.49572 0.0
H323 H 0.05159 0.42678 0.61835 0.0
H324 H 0.9632 0.45458 0.5416 0.0
C325 C 0.95641 0.36158 0.29368 0.0
C326 C 0.97205 0.33594 0.26393 0.0
C327 C 1.00196 0.3327 0.29167 0.0
C328 C 0.01549 0.35348 0.35063 0.0
C329 C 0.99907 0.3778 0.38101 0.0
C330 C 0.97029 0.38221 0.3523 0.0
C331 C 0.9569 0.40918 0.39991 0.0
C332 C 0.94974 0.43359 0.32804 0.0
C333 C 0.92937 0.40071 0.45759 0.0
C334 C 0.98223 0.41851 0.46259 0.0
C335 C 1.00645 0.40025 0.44997 0.0
C336 C 0.03177 0.40317 0.5046 0.0
C337 C 0.03227 0.42504 0.57415 0.0
C338 C 1.00777 0.444 0.58844 0.0
C339 C 0.98258 0.44092 0.53073 0.0
H340 H 0.86113 0.08533 0.24244 0.0
H341 H 0.80751 1.00571 0.24922 0.0
H342 H 0.84285 0.9815 0.14245 0.0
H343 H 0.87742 0.08399 1.00427 0.0
H344 H 0.91484 0.09717 1.01431 0.0
H345 H 0.88782 0.10701 0.10129 0.0
H346 H 0.92109 0.08538 0.23194 0.0
H347 H 0.94847 0.07571 0.14539 0.0
H348 H 0.93405 0.04774 0.22371 0.0
H349 H 0.88006 0.96829 1.01734 0.0
H350 H 0.91745 0.96628 0.891 0.0
H351 H 0.94798 0.05388 0.9655 0.0
C352 C 0.85697 0.06261 0.22301 0.0
C353 C 0.83131 0.0475 0.25553 0.0
C354 C 0.82707 0.01774 0.22759 0.0
C355 C 0.847 1.00382 0.16605 0.0
C356 C 0.87142 0.01972 0.13319 0.0
C357 C 0.87668 0.04837 0.16162 0.0
C358 C 0.90364 0.06118 0.11187 0.0
C359 C 0.89542 0.08897 0.05455 0.0
C360 C 0.92828 0.06789 0.18243 0.0
C361 C 0.91216 0.0356 0.04847 0.0
C362 C 0.89334 1.01183 0.06244 0.0
C363 C 0.89525 0.98653 1.0073 0.0
C364 C 0.91657 0.98557 0.93558 0.0
C365 C 0.93601 1.0096 0.91938 0.0
C366 C 0.934 0.03479 0.97781 0.0
H367 H 0.58781 0.85063 0.21911 0.0
H368 H 0.49657 0.83072 0.29139 0.0
H369 H 0.48094 0.87662 0.21084 0.0
H370 H 0.58436 0.93089 0.22247 0.0
H371 H 0.60749 0.93475 0.12018 0.0
H372 H 0.61198 0.90327 0.19714 0.0
H373 H 0.60437 0.86783 0.05744 0.0
H374 H 0.60003 0.89914 0.9801 0.0
H375 H 0.57156 0.87134 0.98691 0.0
H376 H 0.47504 0.92446 0.1116 0.0
H377 H 0.47902 0.9649 0.99372 0.0
H378 H 0.57297 0.94838 0.96902 0.0
C379 C 0.5644 0.85542 0.21819 0.0
C380 C 0.54359 0.83625 0.26238 0.0
C381 C 0.51335 0.84474 0.26039 0.0
C382 C 0.50413 0.87088 0.21386 0.0
C383 C 0.52525 0.8884 0.16825 0.0
C384 C 0.55476 0.88072 0.16952 0.0
C385 C 0.5729 0.90121 0.1073 0.0
C386 C 0.59552 0.91855 0.16526 0.0
C387 C 0.5881 0.88384 0.02827 0.0
C388 C 0.54899 0.92149 0.06933 0.0
C389 C 0.52171 0.91433 0.1071 0.0
C390 C 0.49633 0.93014 0.08198 0.0
C391 C 0.49882 0.95323 1.01531 0.0
C392 C 0.52635 0.95989 0.97265 0.0
C393 C 0.5517 0.94392 1.00102 0.0
H394 H 0.65347 0.45331 0.21161 0.0
H395 H 0.70774 0.53233 0.20026 0.0
H396 H 0.67287 0.55485 0.08719 0.0
H397 H 0.63967 0.45041 0.97317 0.0
H398 H 0.60229 0.43696 0.98306 0.0
H399 H 0.62852 0.429 0.07425 0.0
H400 H 0.59238 0.45099 0.19119 0.0
H401 H 0.56638 0.4622 0.10322 0.0
H402 H 0.5812 0.48938 0.18183 0.0
H403 H 0.63582 0.56566 0.95607 0.0
H404 H 0.59786 0.565 0.83084 0.0
H405 H 0.56789 0.4792 0.92919 0.0
C406 C 0.65767 0.47568 0.18738 0.0
C407 C 0.68347 0.49105 0.21571 0.0
C408 C 0.68803 0.52023 0.18142 0.0
C409 C 0.66841 0.53311 0.11629 0.0
C410 C 0.64408 0.51671 0.0864 0.0
C411 C 0.63838 0.48876 0.12219 0.0
C412 C 0.61213 0.47474 0.0733 0.0
C413 C 0.62122 0.4461 0.02294 0.0
C414 C 0.58652 0.46905 0.14167 0.0
C415 C 0.60417 0.49892 1.00394 0.0
C416 C 0.62282 0.52298 1.01206 0.0
C417 C 0.62085 0.54709 0.95049 0.0
C418 C 0.5993 0.54654 0.87947 0.0
C419 C 0.57976 0.52226 0.87128 0.0
C420 C 0.58215 0.49833 0.935 0.0
H421 H 0.98974 0.71251 0.10452 0.0
H422 H 0.02643 0.67009 0.35061 0.0
H423 H 0.01731 0.62085 0.28041 0.0
H424 H 0.93247 0.65484 0.05134 0.0
H425 H 0.93812 0.65908 0.92699 0.0
H426 H 0.94337 0.69022 1.00337 0.0
H427 H 0.99632 0.697 0.93772 0.0
H428 H 0.99146 0.66568 0.86231 0.0
H429 H 0.02195 0.66646 0.94314 0.0
H430 H 1.01089 0.57639 0.17083 0.0
H431 H 1.00449 0.54142 0.0392 0.0
H432 H 0.97064 0.61303 0.86651 0.0
C433 C 0.99447 0.69277 0.14535 0.0
C434 C 1.00776 0.69506 0.23459 0.0
C435 C 0.01522 0.6688 0.28386 0.0
C436 C 1.01037 0.64074 0.24388 0.0
C437 C 0.99799 0.63925 0.15437 0.0
C438 C 0.98969 0.66466 0.10644 0.0
C439 C 0.97896 0.65738 1.00859 0.0
C440 C 0.94628 0.66588 0.99692 0.0
C441 C 0.99833 0.67253 0.93357 0.0
C442 C 0.98303 0.62401 1.00778 0.0
C443 C 0.99405 0.61388 0.09238 0.0
C444 C 1.00168 0.5841 0.10517 0.0
C445 C 0.99802 0.56435 0.02996 0.0
C446 C 0.98665 0.57428 0.94287 0.0
C447 C 0.9788 0.60452 0.93265 0.0
H448 H 0.87217 0.23748 0.15349 0.0
H449 H 0.89395 0.28919 0.39878 0.0
H450 H 0.86315 0.25709 0.49433 0.0
H451 H 0.80149 0.19501 0.25291 0.0
H452 H 0.81628 0.16206 0.19955 0.0
H453 H 0.82108 0.1975 0.14307 0.0
H454 H 0.87757 0.18655 0.1382 0.0
H455 H 0.87198 0.15222 0.19803 0.0
H456 H 0.89673 0.17931 0.24661 0.0
H457 H 0.84889 0.21229 0.57432 0.0
H458 H 0.85959 0.16163 0.62729 0.0
H459 H 0.85781 0.13185 0.33988 0.0
C460 C 0.87004 0.24245 0.22713 0.0
C461 C 0.88673 0.26546 0.26791 0.0
C462 C 0.88178 0.27198 0.36366 0.0
C463 C 0.8641 0.25353 0.41953 0.0
C464 C 0.8521 0.22807 0.38005 0.0
C465 C 0.85486 0.2225 0.28514 0.0
C466 C 0.84959 0.19002 0.26438 0.0
C467 C 0.82033 0.18594 0.21199 0.0
C468 C 0.87553 0.17627 0.2088 0.0
C469 C 0.84749 0.17766 0.36319 0.0
C470 C 0.8465 0.20023 0.42827 0.0
C471 C 0.84913 0.1945 0.52402 0.0
C472 C 0.85555 0.16561 0.55355 0.0
C473 C 0.86028 0.14294 0.48735 0.0
C474 C 0.85393 0.14863 0.39206 0.0
H475 H 0.28506 0.91793 0.27321 0.0
H476 H 0.24384 0.97178 0.48625 0.0
H477 H 0.27264 0.94613 0.60741 0.0
H478 H 0.3032 0.84909 0.44112 0.0
H479 H 0.33768 0.84434 0.3796 0.0
H480 H 0.30511 0.85607 0.31683 0.0
H481 H 0.33351 0.9018 0.25371 0.0
H482 H 0.36578 0.89041 0.31588 0.0
H483 H 0.35052 0.92676 0.33557 0.0
H484 H 0.31655 0.93144 0.69023 0.0
H485 H 0.36944 0.92985 0.72294 0.0
H486 H 0.38437 0.88175 0.46568 0.0
C487 C 0.28123 0.92317 0.34607 0.0
C488 C 0.26243 0.94679 0.37048 0.0
C489 C 0.25785 0.95345 0.46599 0.0
C490 C 0.27415 0.93887 0.53552 0.0
C491 C 0.29463 0.91741 0.50862 0.0
C492 C 0.29769 0.90897 0.41599 0.0
C493 C 0.32534 0.89059 0.40194 0.0
C494 C 0.31734 0.85809 0.38384 0.0
C495 C 0.34491 0.9032 0.32227 0.0
C496 C 0.33955 0.89394 0.49714 0.0
C497 C 0.32079 0.9081 0.55922 0.0
C498 C 0.33104 0.91928 0.64392 0.0
C499 C 0.36136 0.91818 0.66224 0.0
C500 C 0.38117 0.90594 0.59603 0.0
C501 C 0.36968 0.89142 0.51695 0.0
H502 H 0.59599 0.26 0.39865 0.0
H503 H 0.64269 0.27404 0.13814 0.0
H504 H 0.67217 0.31331 0.21109 0.0
H505 H 0.57871 0.32383 0.43535 0.0
H506 H 0.58295 0.32687 0.5605 0.0
H507 H 0.57764 0.29138 0.50988 0.0
H508 H 0.62601 0.27234 0.58514 0.0
H509 H 0.63139 0.30814 0.63769 0.0
H510 H 0.66007 0.29216 0.56629 0.0
H511 H 0.68027 0.3612 0.2832 0.0
H512 H 0.66613 0.41004 0.34417 0.0
H513 H 0.61342 0.36754 0.55951 0.0
C514 C 0.61401 0.26991 0.35961 0.0
C515 C 0.6172 0.26413 0.26335 0.0
C516 C 0.64014 0.27809 0.2124 0.0
C517 C 0.65702 0.30045 0.25364 0.0
C518 C 0.65087 0.30835 0.34606 0.0
C519 C 0.6304 0.2928 0.39967 0.0
C520 C 0.62226 0.30968 0.48742 0.0
C521 C 0.58844 0.31317 0.4986 0.0
C522 C 0.63576 0.29469 0.57426 0.0
C523 C 0.63738 0.33891 0.46708 0.0
C524 C 0.6553 0.33716 0.38848 0.0
C525 C 0.66711 0.36257 0.3464 0.0
C526 C 0.65879 0.39033 0.38106 0.0
C527 C 0.63849 0.39248 0.45622 0.0
C528 C 0.62949 0.36647 0.50346 0.0
H529 H 0.25039 0.58673 0.43676 0.0
H530 H 0.23311 0.62566 0.16509 0.0
H531 H 0.19739 0.65981 0.23589 0.0
H532 H 0.18835 0.57569 0.50272 0.0
H533 H 0.18893 0.58583 0.62464 0.0
H534 H 0.22258 0.57633 0.56737 0.0
H535 H 0.2454 0.62663 0.61225 0.0
H536 H 0.21154 0.63633 0.67158 0.0
H537 H 0.22654 0.66059 0.58276 0.0
H538 H 0.15115 0.67013 0.31156 0.0
H539 H 0.10377 0.65771 0.3842 0.0
H540 H 0.14953 0.61826 0.62003 0.0
C541 C 0.24059 0.60396 0.3939 0.0
C542 C 0.2441 0.60346 0.29586 0.0
C543 C 0.23048 0.62563 0.24051 0.0
C544 C 0.21026 0.64528 0.28051 0.0
C545 C 0.20438 0.64292 0.37625 0.0
C546 C 0.22014 0.6236 0.43342 0.0
C547 C 0.2055 0.62046 0.52859 0.0
C548 C 0.20104 0.58766 0.55716 0.0
C549 C 0.2233 0.63701 0.60319 0.0
C550 C 0.17651 0.63618 0.50948 0.0
C551 C 0.17693 0.65044 0.42322 0.0
C552 C 0.15087 0.66023 0.38079 0.0
C553 C 0.1238 0.65308 0.42289 0.0
C554 C 0.12299 0.63642 0.50711 0.0
C555 C 0.14967 0.6306 0.5548 0.0
H556 H 0.1042 0.79698 0.29423 0.0
H557 H 0.07558 0.74673 0.05372 0.0
H558 H 0.10848 0.77581 0.95318 0.0
H559 H 0.0882 0.8582 0.20341 0.0
H560 H 0.11721 0.88108 0.2502 0.0
H561 H 0.107 0.84786 0.30999 0.0
H562 H 0.16115 0.82936 0.30096 0.0
H563 H 0.17148 0.86293 0.23994 0.0
H564 H 0.17966 0.82741 0.18929 0.0
H565 H 0.12825 0.81865 0.87153 0.0
H566 H 0.12501 0.87044 0.8194 0.0
H567 H 0.13269 0.89913 0.10699 0.0
C568 C 0.10561 0.79153 0.22072 0.0
C569 C 0.08681 0.76993 0.18207 0.0
C570 C 0.08984 0.7629 0.0861 0.0
C571 C 0.10865 0.77947 0.02797 0.0
C572 C 0.124 0.80329 0.06618 0.0
C573 C 0.12274 0.80924 0.16119 0.0
C574 C 0.13301 0.84048 0.18145 0.0
C575 C 0.10996 0.85789 0.23939 0.0
C576 C 0.16312 0.84 0.2308 0.0
C577 C 0.13604 0.85243 0.08254 0.0
C578 C 0.13322 0.83004 1.01742 0.0
C579 C 0.13095 0.83621 0.92188 0.0
C580 C 0.1288 0.8658 0.8929 0.0
C581 C 0.12768 0.88881 0.95961 0.0
C582 C 0.13378 0.88209 0.05433 0.0
H583 H 0.77021 0.1165 0.12876 0.0
H584 H 0.75067 0.15698 0.39525 0.0
H585 H 0.71124 0.18637 0.32153 0.0
H586 H 0.73994 0.18628 0.9738 0.0
H587 H 0.72721 0.1599 0.88888 0.0
H588 H 0.76174 0.15385 0.94893 0.0
H589 H 0.74326 0.10219 1.00087 0.0
H590 H 0.70878 0.10819 0.94389 0.0
H591 H 0.70935 0.0992 0.06713 0.0
H592 H 0.66349 0.19109 0.24564 0.0
H593 H 0.61748 0.17549 0.17155 0.0
H594 H 0.66739 0.13854 0.94078 0.0
C595 C 0.75909 0.13319 0.16983 0.0
C596 C 0.76302 0.13409 0.26775 0.0
C597 C 0.7477 0.1557 0.32015 0.0
C598 C 0.72533 0.17265 0.2785 0.0
C599 C 0.71928 0.16849 0.18371 0.0
C600 C 0.73677 0.15033 0.12856 0.0
C601 C 0.72248 0.14501 0.03423 0.0
C602 C 0.73881 0.16231 0.9569 0.0
C603 C 0.72084 0.1117 1.01047 0.0
C604 C 0.69224 0.15825 0.05176 0.0
C605 C 0.6912 0.17293 0.13652 0.0
C606 C 0.66428 0.18089 0.17735 0.0
C607 C 0.63801 0.17187 0.1344 0.0
C608 C 0.63874 0.15518 0.05084 0.0
C609 C 0.66615 0.15073 1.00559 0.0
H610 H 0.58599 0.75702 0.10874 0.0
H611 H 0.63362 0.72921 0.35582 0.0
H612 H 0.6431 0.68087 0.2846 0.0
H613 H 0.54528 0.70787 0.08447 0.0
H614 H 0.54477 0.70001 0.96087 0.0
H615 H 0.55622 0.73559 0.99939 0.0
H616 H 0.60591 0.73037 0.91373 0.0
H617 H 0.595 0.6944 0.8721 0.0
H618 H 0.62911 0.69859 0.93506 0.0
H619 H 0.62486 0.63333 0.23271 0.0
H620 H 0.58974 0.59429 0.18958 0.0
H621 H 0.55607 0.65004 0.96609 0.0
C622 C 0.60054 0.7416 0.14414 0.0
C623 C 0.60835 0.74635 0.23835 0.0
C624 C 0.62711 0.72575 0.28378 0.0
C625 C 0.63256 0.69812 0.24358 0.0
C626 C 0.62015 0.69203 0.15647 0.0
C627 C 0.60596 0.71387 0.10429 0.0
C628 C 0.58927 0.70047 0.02293 0.0
C629 C 0.55701 0.71162 1.01692 0.0
C630 C 0.60581 0.7063 0.93051 0.0
C631 C 0.59105 0.66805 0.04951 0.0
C632 C 0.61028 0.66338 0.12339 0.0
C633 C 0.61086 0.63642 0.17213 0.0
C634 C 0.59061 0.61434 0.14763 0.0
C635 C 0.56987 0.61941 0.07538 0.0
C636 C 0.57146 0.64585 0.0225 0.0
H637 H 0.74808 0.42633 0.08598 0.0
H638 H 0.76102 0.37923 0.34706 0.0
H639 H 0.79813 0.34736 0.2715 0.0
H640 H 0.77464 0.36052 0.91761 0.0
H641 H 0.79197 0.38804 0.84383 0.0
H642 H 0.75721 0.39604 0.90042 0.0
H643 H 0.78021 0.44296 0.97284 0.0
H644 H 0.81465 0.43509 0.91788 0.0
H645 H 0.8131 0.43946 0.04329 0.0
H646 H 0.84426 0.33498 0.19258 0.0
H647 H 0.89323 0.34508 0.12468 0.0
H648 H 0.85296 0.4016 0.91479 0.0
C649 C 0.75726 0.40788 0.12501 0.0
C650 C 0.75173 0.40506 0.22177 0.0
C651 C 0.76488 0.38154 0.27247 0.0
C652 C 0.78592 0.36325 0.22972 0.0
C653 C 0.79341 0.36867 0.13615 0.0
C654 C 0.77886 0.39009 0.0835 0.0
C655 C 0.79545 0.397 0.99368 0.0
C656 C 0.77883 0.38465 0.90888 0.0
C657 C 0.80122 0.43056 0.98154 0.0
C658 C 0.82361 0.37973 1.01095 0.0
C659 C 0.82129 0.36201 0.09025 0.0
C660 C 0.84601 0.34808 0.12906 0.0
C661 C 0.87387 0.35412 0.09044 0.0
C662 C 0.87687 0.37445 1.01511 0.0
C663 C 0.85125 0.38553 0.97105 0.0
H664 H 0.93208 0.23229 0.97897 0.0
H665 H 0.01499 0.24676 0.12338 0.0
H666 H 0.03631 0.20327 0.04334 0.0
H667 H 0.93219 0.15545 1.00645 0.0
H668 H 0.91557 0.14745 0.89496 0.0
H669 H 0.90819 0.1822 0.9513 0.0
H670 H 0.92636 0.21057 0.8038 0.0
H671 H 0.93358 0.17585 0.74656 0.0
H672 H 0.9626 0.20291 0.75712 0.0
H673 H 0.04632 0.15417 0.96517 0.0
H674 H 0.04536 0.10534 0.88868 0.0
H675 H 0.95586 0.1219 0.79462 0.0
C676 C 0.95496 0.22675 0.99254 0.0
C677 C 0.97184 0.24329 0.05784 0.0
C678 C 1.00166 0.23503 0.07294 0.0
C679 C 1.01389 0.2101 0.02821 0.0
C680 C 0.99616 0.19362 0.96785 0.0
C681 C 0.96738 0.20181 0.94917 0.0
C682 C 0.95222 0.17908 0.88738 0.0
C683 C 0.92547 0.16523 0.93805 0.0
C684 C 0.94316 0.19294 0.79311 0.0
C685 C 0.97687 0.15657 0.87479 0.0
C686 C 1.00201 0.16544 0.9219 0.0
C687 C 0.02695 0.14737 0.92669 0.0
C688 C 0.02617 0.11959 0.88308 0.0
C689 C 1.00077 0.10996 0.83411 0.0
C690 C 0.9759 0.12896 0.82907 0.0
H691 H 0.31947 0.02084 0.20398 0.0
H692 H 0.26183 1.00002 0.97223 0.0
H693 H 0.30428 1.00507 0.86255 0.0
H694 H 0.36702 0.07489 0.07735 0.0
H695 H 0.39973 0.06267 0.13816 0.0
H696 H 0.36421 0.06041 0.19501 0.0
H697 H 0.37268 1.00445 0.22531 0.0
H698 H 0.40798 1.00639 0.16732 0.0
H699 H 0.38052 0.98047 0.12799 0.0
H700 H 0.35536 1.00623 0.78126 0.0
H701 H 0.40796 1.00913 0.73411 0.0
H702 H 0.4318 0.03088 0.01928 0.0
C703 C 0.31557 0.01827 0.12969 0.0
C704 C 0.2871 1.01044 0.09656 0.0
C705 C 0.28315 1.00665 0.99908 0.0
C706 C 0.30729 1.00918 0.93646 0.0
C707 C 0.33529 0.01584 0.97209 0.0
C708 C 0.33933 0.0209 0.06648 0.0
C709 C 0.37169 0.02666 0.0882 0.0
C710 C 0.37591 0.05803 0.12696 0.0
C711 C 0.38392 1.00309 0.15622 0.0
C712 C 0.38546 0.02372 0.99161 0.0
C713 C 0.36418 0.01726 0.92549 0.0
C714 C 0.37199 1.01184 0.83243 0.0
C715 C 0.40205 1.01344 0.80627 0.0
C716 C 0.42421 0.02065 0.87238 0.0
C717 C 0.41552 0.02584 0.96635 0.0
H718 H 0.537 0.32117 0.15846 0.0
H719 H 0.53051 0.25812 0.93271 0.0
H720 H 0.51757 0.29906 0.82287 0.0
H721 H 0.47639 0.37084 0.08089 0.0
H722 H 0.49583 0.40353 0.11783 0.0
H723 H 0.50154 0.36886 0.17843 0.0
H724 H 0.55785 0.37332 0.14861 0.0
H725 H 0.55222 0.40773 0.08695 0.0
H726 H 0.57125 0.37771 0.03033 0.0
H727 H 0.51174 0.34876 0.73404 0.0
H728 H 0.50771 0.40084 0.67912 0.0
H729 H 0.51594 0.43085 0.96543 0.0
C730 C 0.53188 0.31588 0.08646 0.0
C731 C 0.53424 0.28632 0.05438 0.0
C732 C 0.52816 0.2804 0.95921 0.0
C733 C 0.5211 0.30363 0.89626 0.0
C734 C 0.51994 0.33268 0.92967 0.0
C735 C 0.52464 0.33872 0.02319 0.0
C736 C 0.52323 0.3718 0.04144 0.0
C737 C 0.49772 0.37918 0.10862 0.0
C738 C 0.5529 0.38329 0.07903 0.0
C739 C 0.51726 0.38362 0.94356 0.0
C740 C 0.5157 0.36081 0.87967 0.0
C741 C 0.51234 0.36664 0.78401 0.0
C742 C 0.51018 0.39634 0.75328 0.0
C743 C 0.51095 0.42001 0.81787 0.0
C744 C 0.51453 0.41332 0.91429 0.0
H745 H 0.18819 0.51601 0.19257 0.0
H746 H 0.24898 0.52598 0.96031 0.0
H747 H 0.20761 0.51855 0.849 0.0
H748 H 0.13841 0.46003 0.0823 0.0
H749 H 0.10609 0.47632 0.13505 0.0
H750 H 0.14118 0.4781 0.19407 0.0
H751 H 0.13615 0.53512 0.20268 0.0
H752 H 0.10142 0.53364 0.14197 0.0
H753 H 0.13101 0.55621 0.0963 0.0
H754 H 0.15743 0.51715 0.76352 0.0
H755 H 0.1051 0.51623 0.71295 0.0
H756 H 0.07753 0.5063 1.00245 0.0
C757 C 0.19298 0.51522 0.11827 0.0
C758 C 0.22202 0.52065 0.08507 0.0
C759 C 0.22718 0.52085 0.98729 0.0
C760 C 0.20367 0.51702 0.92365 0.0
C761 C 0.17507 0.51287 0.95881 0.0
C762 C 0.16982 0.51136 0.05415 0.0
C763 C 0.13699 0.50852 0.07473 0.0
C764 C 0.13028 0.47898 0.12446 0.0
C765 C 0.12575 0.53494 0.13231 0.0
C766 C 0.1244 0.50914 0.97635 0.0
C767 C 0.14662 0.51178 0.91021 0.0
C768 C 0.14001 0.51455 0.81495 0.0
C769 C 0.11013 0.5142 0.78678 0.0
C770 C 0.08703 0.51095 0.85332 0.0
C771 C 0.09454 0.50838 0.94935 0.0
H772 H 1.00443 0.82938 0.29763 0.0
H773 H 1.00846 0.76766 0.53062 0.0
H774 H 1.00079 0.80924 0.64092 0.0
H775 H 0.04506 0.88523 0.40031 0.0
H776 H 0.02428 0.9157 0.35157 0.0
H777 H 0.0258 0.88093 0.29097 0.0
H778 H 0.96869 0.87783 0.29106 0.0
H779 H 0.9669 0.91291 0.35011 0.0
H780 H 0.94877 0.88095 0.40002 0.0
H781 H 1.00008 0.85929 0.72627 0.0
H782 H 1.00009 0.91156 0.77756 0.0
H783 H 0.99504 0.94047 0.48791 0.0
C784 C 1.00254 0.82446 0.37176 0.0
C785 C 1.00651 0.79507 0.40538 0.0
C786 C 1.00474 0.78975 0.50303 0.0
C787 C 1.00075 0.81336 0.56619 0.0
C788 C 0.99826 0.84225 0.53074 0.0
C789 C 0.99848 0.84773 0.43542 0.0
C790 C 0.99697 0.88079 0.41479 0.0
C791 C 0.02467 0.89126 0.36126 0.0
C792 C 0.96864 0.88857 0.36081 0.0
C793 C 0.99621 0.89323 0.51327 0.0
C794 C 0.99719 0.8707 0.57935 0.0
C795 C 0.99871 0.87697 0.67489 0.0
C796 C 0.99886 0.90681 0.70346 0.0
C797 C 0.99716 0.93027 0.63713 0.0
C798 C 0.99577 0.92315 0.54071 0.0
H799 H 0.73208 0.08873 0.5624 0.0
H800 H 0.7439 1.00732 0.40684 0.0
H801 H 0.69978 0.98647 0.4846 0.0
H802 H 0.70006 0.05546 0.7807 0.0
H803 H 0.67417 0.08546 0.79483 0.0
H804 H 0.70953 0.09217 0.7404 0.0
H805 H 0.68324 0.11414 0.59476 0.0
H806 H 0.64787 0.10737 0.64852 0.0
H807 H 0.65597 0.09232 0.53477 0.0
H808 H 0.65043 0.9772 0.55934 0.0
H809 H 0.60095 0.97898 0.63107 0.0
H810 H 0.61922 0.06664 0.7382 0.0
C811 C 0.72584 0.06624 0.5459 0.0
C812 C 0.74189 0.04971 0.47791 0.0
C813 C 0.73268 0.02037 0.45937 0.0
C814 C 0.70735 1.00839 0.50283 0.0
C815 C 0.69135 0.02585 0.56553 0.0
C816 C 0.7004 0.05407 0.58801 0.0
C817 C 0.6778 0.06917 0.65122 0.0
C818 C 0.69119 0.07596 0.74749 0.0
C819 C 0.6655 0.09741 0.6045 0.0
C820 C 0.65419 0.0453 0.65891 0.0
C821 C 0.66268 0.02046 0.60928 0.0
C822 C 0.64387 0.99631 0.59965 0.0
C823 C 0.61568 0.99761 0.64054 0.0
C824 C 0.60619 0.02278 0.69127 0.0
C825 C 0.62601 0.0468 0.70181 0.0
H826 H 0.56294 0.73456 0.5699 0.0
H827 H 0.49247 0.74176 0.36674 0.0
H828 H 0.47171 0.69438 0.42422 0.0
H829 H 0.57693 0.66221 0.54515 0.0
H830 H 0.58378 0.65273 0.66602 0.0
H831 H 0.58956 0.69006 0.62549 0.0
H832 H 0.55377 0.70991 0.7517 0.0
H833 H 0.54825 0.67262 0.7943 0.0
H834 H 0.51697 0.69494 0.76056 0.0
H835 H 0.46587 0.64129 0.47681 0.0
H836 H 0.47026 0.59019 0.53885 0.0
H837 H 0.5424 0.61746 0.71705 0.0
C838 C 0.54214 0.727 0.54147 0.0
C839 C 0.52894 0.74233 0.46498 0.0
C840 C 0.50246 0.73104 0.42695 0.0
C841 C 0.49075 0.70384 0.45851 0.0
C842 C 0.50538 0.68837 0.52978 0.0
C843 C 0.52999 0.7 0.57309 0.0
C844 C 0.54294 0.67784 0.64286 0.0
C845 C 0.5752 0.67027 0.61834 0.0
C846 C 0.54032 0.68953 0.74331 0.0
C847 C 0.52278 0.65137 0.62844 0.0
C848 C 0.50122 0.65798 0.56294 0.0
C849 C 0.48205 0.63622 0.53025 0.0
C850 C 0.48481 0.60719 0.56548 0.0
C851 C 0.50626 0.59999 0.63395 0.0
C852 C 0.52526 0.62253 0.66664 0.0
H853 H 0.80759 0.48886 0.33018 0.0
H854 H 0.7448 0.48477 0.55879 0.0
H855 H 0.78525 0.49489 0.67146 0.0
H856 H 0.86491 0.4517 0.44358 0.0
H857 H 0.89421 0.47359 0.39314 0.0
H858 H 0.86001 0.46935 0.33099 0.0
H859 H 0.85411 0.52641 0.32188 0.0
H860 H 0.88858 0.53065 0.38307 0.0
H861 H 0.85551 0.54778 0.42789 0.0
H862 H 0.83472 0.49896 0.76047 0.0
H863 H 0.88661 0.50259 0.81481 0.0
H864 H 0.9164 0.50581 0.52622 0.0
C865 C 0.80221 0.49128 0.40368 0.0
C866 C 0.7729 0.48682 0.43563 0.0
C867 C 0.76689 0.48898 0.53263 0.0
C868 C 0.78985 0.49439 0.59709 0.0
C869 C 0.81873 0.49775 0.56344 0.0
C870 C 0.8248 0.49682 0.46856 0.0
C871 C 0.85771 0.49973 0.45002 0.0
C872 C 0.86989 0.47193 0.40158 0.0
C873 C 0.86436 0.52782 0.39231 0.0
C874 C 0.86942 0.50225 0.54911 0.0
C875 C 0.8467 0.50077 0.61388 0.0
C876 C 0.85252 0.50071 0.71001 0.0
C877 C 0.88212 0.50264 0.74037 0.0
C878 C 0.90565 0.50499 0.67508 0.0
C879 C 0.89897 0.50472 0.57819 0.0
loop_
_geom_bond_atom_site_label_1
_geom_bond_atom_site_label_2
_geom_bond_distance
_geom_bond_site_symmetry_2
_ccdc_geom_bond_type
H0 C3 0.931 . S
H1 C6 0.928 . S
H2 C8 0.930 . S
C3 H0 0.931 . S
C3 C4 1.413 . S
C3 C5 1.360 . S
C4 C3 1.413 . S
C4 C8 1.429 . S
C5 C3 1.360 . S
C5 C6 1.372 . S
C6 H1 0.928 . S
C6 C5 1.372 . S
C6 C7 1.404 . S
C7 C6 1.404 . S
C7 C8 1.391 . S
C8 H2 0.930 . S
C8 C4 1.429 . S
C8 C7 1.391 . S
H9 C12 0.931 . S
H10 C15 0.928 . S
H11 C17 0.930 . S
C12 H9 0.931 . S
C12 C13 1.413 . S
C12 C14 1.360 . S
C13 C12 1.413 . S
C13 C17 1.429 1_655 S
C14 C12 1.360 . S
C14 C15 1.372 . S
C15 H10 0.928 . S
C15 C14 1.372 . S
C15 C16 1.404 . S
C16 C15 1.404 . S
C16 C17 1.390 1_655 S
C17 H11 0.930 . S
C17 C13 1.429 1_455 S
C17 C16 1.390 1_455 S
H18 C21 0.931 . S
H19 C24 0.928 . S
H20 C26 0.930 . S
C21 H18 0.931 . S
C21 C22 1.413 . S
C21 C23 1.360 . S
C22 C21 1.413 . S
C22 C26 1.429 1_565 S
C23 C21 1.360 . S
C23 C24 1.372 . S
C24 H19 0.928 . S
C24 C23 1.372 . S
C24 C25 1.404 . S
C25 C24 1.404 . S
C25 C26 1.390 1_565 S
C26 H20 0.930 . S
C26 C22 1.429 1_545 S
C26 C25 1.390 1_545 S
H27 C30 0.931 . S
H28 C33 0.928 . S
H29 C35 0.930 . S
C30 H27 0.931 . S
C30 C31 1.413 . S
C30 C32 1.360 . S
C31 C30 1.413 . S
C31 C35 1.429 . S
C32 C30 1.360 . S
C32 C33 1.372 . S
C33 H28 0.928 . S
C33 C32 1.372 . S
C33 C34 1.404 . S
C34 C33 1.404 . S
C34 C35 1.391 . S
C35 H29 0.930 . S
C35 C31 1.429 . S
C35 C34 1.391 . S
H36 C39 0.931 . S
H37 C42 0.928 . S
H38 C44 0.930 . S
C39 H36 0.931 . S
C39 C40 1.413 1_554 S
C39 C41 1.360 . S
C40 C39 1.413 1_556 S
C40 C44 1.429 . S
C41 C39 1.360 . S
C41 C42 1.372 . S
C42 H37 0.928 . S
C42 C41 1.372 . S
C42 C43 1.404 . S
C43 C42 1.404 . S
C43 C44 1.391 1_554 S
C44 H38 0.930 . S
C44 C40 1.429 . S
C44 C43 1.391 1_556 S
H45 C48 0.931 . S
H46 C51 0.928 . S
H47 C53 0.930 . S
C48 H45 0.931 . S
C48 C49 1.413 1_554 S
C48 C50 1.360 . S
C49 C48 1.413 1_556 S
C49 C53 1.429 1_655 S
C50 C48 1.360 . S
C50 C51 1.372 . S
C51 H46 0.928 . S
C51 C50 1.372 . S
C51 C52 1.404 . S
C52 C51 1.404 . S
C52 C53 1.391 1_654 S
C53 H47 0.930 . S
C53 C49 1.429 1_455 S
C53 C52 1.391 1_456 S
H54 C57 0.931 . S
H55 C60 0.928 . S
H56 C62 0.930 . S
C57 H54 0.931 . S
C57 C58 1.413 1_554 S
C57 C59 1.360 . S
C58 C57 1.413 1_556 S
C58 C62 1.429 1_565 S
C59 C57 1.360 . S
C59 C60 1.372 . S
C60 H55 0.928 . S
C60 C59 1.372 . S
C60 C61 1.404 . S
C61 C60 1.404 . S
C61 C62 1.391 1_564 S
C62 H56 0.930 . S
C62 C58 1.429 1_545 S
C62 C61 1.391 1_546 S
H63 C66 0.931 . S
H64 C69 0.928 . S
H65 C71 0.930 . S
C66 H63 0.931 . S
C66 C67 1.413 . S
C66 C68 1.360 1_554 S
C67 C66 1.413 . S
C67 C71 1.429 . S
C68 C66 1.360 1_556 S
C68 C69 1.372 . S
C69 H64 0.928 . S
C69 C68 1.372 . S
C69 C70 1.404 1_556 S
C70 C69 1.404 1_554 S
C70 C71 1.391 . S
C71 H65 0.930 . S
C71 C67 1.429 . S
C71 C70 1.391 . S
Tb72 C74 2.809 . S
Tb72 O92 2.484 . S
Tb72 O93 2.440 . S
Tb72 O94 2.658 1_565 S
Tb72 O95 2.409 . S
Tb72 O96 2.378 . S
Tb72 O100 2.325 1_455 S
Tb72 O103 2.341 1_565 S
Tb73 C83 2.809 . S
Tb73 O94 2.325 1_655 S
Tb73 O97 2.341 1_545 S
Tb73 O98 2.484 . S
Tb73 O99 2.440 . S
Tb73 O100 2.658 1_545 S
Tb73 O101 2.409 . S
Tb73 O102 2.378 . S
C74 Tb72 2.809 . S
C74 C75 1.514 . S
C74 O92 1.248 . S
C74 O93 1.266 . S
C75 C74 1.514 . S
C75 C76 1.359 1_556 S
C75 C80 1.348 . S
C76 C75 1.359 1_554 S
C76 C77 1.380 . S
C76 H104 0.929 1_455 S
C77 C76 1.380 . S
C77 C78 1.347 . S
C77 H105 0.931 . S
C78 C77 1.347 . S
C78 C79 1.369 . S
C79 C78 1.369 . S
C79 C80 1.408 1_554 S
C79 H106 0.930 . S
C80 C75 1.348 . S
C80 C79 1.408 1_556 S
C80 H107 0.930 . S
C81 O94 1.281 1_565 S
C81 O95 1.254 . S
C82 O96 1.236 1_655 S
C82 O97 1.266 . S
C83 Tb73 2.809 . S
C83 C84 1.514 . S
C83 O98 1.248 . S
C83 O99 1.266 . S
C84 C83 1.514 . S
C84 C85 1.359 . S
C84 C89 1.348 . S
C85 C84 1.359 . S
C85 C86 1.380 . S
C85 H108 0.929 1_655 S
C86 C85 1.380 . S
C86 C87 1.347 . S
C86 H109 0.931 . S
C87 C86 1.347 . S
C87 C88 1.369 . S
C88 C87 1.369 . S
C88 C89 1.408 . S
C88 H110 0.930 . S
C89 C84 1.348 . S
C89 C88 1.408 . S
C89 H111 0.930 . S
C90 O100 1.281 1_545 S
C90 O101 1.254 . S
C91 O102 1.236 1_455 S
C91 O103 1.266 . S
O92 Tb72 2.484 . S
O92 C74 1.248 . S
O93 Tb72 2.440 . S
O93 C74 1.266 . S
O94 Tb72 2.658 1_545 S
O94 Tb73 2.325 1_455 S
O94 C81 1.281 1_545 S
O95 Tb72 2.409 . S
O95 C81 1.254 . S
O96 Tb72 2.378 . S
O96 C82 1.236 1_455 S
O97 Tb73 2.341 1_565 S
O97 C82 1.266 . S
O98 Tb73 2.484 . S
O98 C83 1.248 . S
O99 Tb73 2.440 . S
O99 C83 1.266 . S
O100 Tb72 2.325 1_655 S
O100 Tb73 2.658 1_565 S
O100 C90 1.281 1_565 S
O101 Tb73 2.409 . S
O101 C90 1.254 . S
O102 Tb73 2.378 . S
O102 C91 1.236 1_655 S
O103 Tb72 2.341 1_545 S
O103 C91 1.266 . S
H104 C76 0.929 1_655 S
H105 C77 0.931 . S
H106 C79 0.930 . S
H107 C80 0.930 . S
H108 C85 0.929 1_455 S
H109 C86 0.931 . S
H110 C88 0.930 . S
H111 C89 0.930 . S
Tb112 C114 2.809 . S
Tb112 O132 2.484 . S
Tb112 O133 2.440 . S
Tb112 O134 2.658 . S
Tb112 O135 2.409 . S
Tb112 O136 2.378 . S
Tb112 O140 2.325 1_545 S
Tb112 O143 2.341 . S
Tb113 C123 2.809 . S
Tb113 O134 2.325 1_565 S
Tb113 O137 2.341 . S
Tb113 O138 2.484 . S
Tb113 O139 2.440 . S
Tb113 O140 2.658 . S
Tb113 O141 2.409 . S
Tb113 O142 2.378 . S
C114 Tb112 2.809 . S
C114 C115 1.514 . S
C114 O132 1.248 . S
C114 O133 1.266 . S
C115 C114 1.514 . S
C115 C116 1.359 1_556 S
C115 C120 1.348 . S
C116 C115 1.359 1_554 S
C116 C117 1.380 . S
C116 H144 0.929 1_545 S
C117 C116 1.380 . S
C117 C118 1.347 . S
C117 H145 0.899 1_545 S
C118 C117 1.347 . S
C118 C119 1.369 . S
C119 C118 1.369 . S
C119 C120 1.408 1_554 S
C119 H146 0.930 . S
C120 C115 1.348 . S
C120 C119 1.408 1_556 S
C120 H147 0.930 . S
C121 O134 1.281 . S
C121 O135 1.254 . S
C122 O136 1.236 1_565 S
C122 O137 1.266 . S
C123 Tb113 2.809 . S
C123 C124 1.514 . S
C123 O138 1.248 . S
C123 O139 1.266 . S
C124 C123 1.514 . S
C124 C125 1.359 . S
C124 C129 1.348 . S
C125 C124 1.359 . S
C125 C126 1.380 . S
C125 H148 0.929 1_565 S
C126 C125 1.380 . S
C126 C127 1.347 . S
C126 H149 0.931 1_565 S
C127 C126 1.347 . S
C127 C128 1.369 . S
C128 C127 1.369 . S
C128 C129 1.408 . S
C128 H150 0.930 . S
C129 C124 1.348 . S
C129 C128 1.408 . S
C129 H151 0.930 . S
C130 O140 1.281 . S
C130 O141 1.254 . S
C131 O142 1.236 1_545 S
C131 O143 1.266 . S
O132 Tb112 2.484 . S
O132 C114 1.248 . S
O133 Tb112 2.440 . S
O133 C114 1.266 . S
O134 Tb112 2.658 . S
O134 Tb113 2.325 1_545 S
O134 C121 1.281 . S
O135 Tb112 2.409 . S
O135 C121 1.254 . S
O136 Tb112 2.378 . S
O136 C122 1.236 1_545 S
O137 Tb113 2.341 . S
O137 C122 1.266 . S
O138 Tb113 2.484 . S
O138 C123 1.248 . S
O139 Tb113 2.440 . S
O139 C123 1.266 . S
O140 Tb112 2.325 1_565 S
O140 Tb113 2.658 . S
O140 C130 1.281 . S
O141 Tb113 2.409 . S
O141 C130 1.254 . S
O142 Tb113 2.378 . S
O142 C131 1.236 1_565 S
O143 Tb112 2.341 . S
O143 C131 1.266 . S
H144 C116 0.929 1_565 S
H145 C117 0.899 1_565 S
H146 C119 0.930 . S
H147 C120 0.930 . S
H148 C125 0.929 1_545 S
H149 C126 0.931 1_545 S
H150 C128 0.930 . S
H151 C129 0.930 . S
Tb152 C154 2.809 . S
Tb152 O172 2.484 . S
Tb152 O173 2.440 . S
Tb152 O174 2.658 . S
Tb152 O175 2.409 . S
Tb152 O176 2.378 . S
Tb152 O180 2.325 . S
Tb152 O183 2.341 . S
Tb153 C163 2.809 . S
Tb153 O174 2.325 . S
Tb153 O177 2.341 . S
Tb153 O178 2.484 . S
Tb153 O179 2.440 . S
Tb153 O180 2.658 . S
Tb153 O181 2.409 . S
Tb153 O182 2.378 . S
C154 Tb152 2.809 . S
C154 C155 1.514 . S
C154 O172 1.248 . S
C154 O173 1.266 . S
C155 C154 1.514 . S
C155 C156 1.359 1_556 S
C155 C160 1.348 . S
C156 C155 1.359 1_554 S
C156 C157 1.380 . S
C156 H184 0.929 . S
C157 C156 1.380 . S
C157 C158 1.347 . S
C157 H185 0.931 . S
C158 C157 1.347 . S
C158 C159 1.369 . S
C159 C158 1.369 . S
C159 C160 1.408 1_554 S
C159 H186 0.930 . S
C160 C155 1.348 . S
C160 C159 1.408 1_556 S
C160 H187 0.930 . S
C161 O174 1.281 . S
C161 O175 1.254 . S
C162 O176 1.236 . S
C162 O177 1.266 . S
C163 Tb153 2.809 . S
C163 C164 1.514 . S
C163 O178 1.248 . S
C163 O179 1.266 . S
C164 C163 1.514 . S
C164 C165 1.359 . S
C164 C169 1.348 . S
C165 C164 1.359 . S
C165 C166 1.380 . S
C165 H188 0.929 . S
C166 C165 1.380 . S
C166 C167 1.347 . S
C166 H189 0.931 . S
C167 C166 1.347 . S
C167 C168 1.369 . S
C168 C167 1.369 . S
C168 C169 1.408 . S
C168 H190 0.930 . S
C169 C164 1.348 . S
C169 C168 1.408 . S
C169 H191 0.930 . S
C170 O180 1.281 . S
C170 O181 1.254 . S
C171 O182 1.236 . S
C171 O183 1.266 . S
O172 Tb152 2.484 . S
O172 C154 1.248 . S
O173 Tb152 2.440 . S
O173 C154 1.266 . S
O174 Tb152 2.658 . S
O174 Tb153 2.325 . S
O174 C161 1.281 . S
O175 Tb152 2.409 . S
O175 C161 1.254 . S
O176 Tb152 2.378 . S
O176 C162 1.236 . S
O177 Tb153 2.341 . S
O177 C162 1.266 . S
O178 Tb153 2.484 . S
O178 C163 1.248 . S
O179 Tb153 2.440 . S
O179 C163 1.266 . S
O180 Tb152 2.325 . S
O180 Tb153 2.658 . S
O180 C170 1.281 . S
O181 Tb153 2.409 . S
O181 C170 1.254 . S
O182 Tb153 2.378 . S
O182 C171 1.236 . S
O183 Tb152 2.341 . S
O183 C171 1.266 . S
H184 C156 0.929 . S
H185 C157 0.931 . S
H186 C159 0.930 . S
H187 C160 0.930 . S
H188 C165 0.929 . S
H189 C166 0.931 . S
H190 C168 0.930 . S
H191 C169 0.930 . S
Tb192 C194 2.809 . S
Tb192 O212 2.484 . S
Tb192 O213 2.440 . S
Tb192 O214 2.658 1_655 S
Tb192 O215 2.409 . S
Tb192 O216 2.378 . S
Tb192 O220 2.325 . S
Tb192 O223 2.341 1_655 S
Tb193 C203 2.809 . S
Tb193 O214 2.325 . S
Tb193 O217 2.341 1_455 S
Tb193 O218 2.484 . S
Tb193 O219 2.440 . S
Tb193 O220 2.658 1_455 S
Tb193 O221 2.409 . S
Tb193 O222 2.378 . S
C194 Tb192 2.809 . S
C194 C195 1.514 . S
C194 O212 1.248 . S
C194 O213 1.266 . S
C195 C194 1.514 . S
C195 C196 1.359 1_556 S
C195 C200 1.348 . S
C196 C195 1.359 1_554 S
C196 C197 1.380 . S
C196 H224 0.929 . S
C197 C196 1.380 . S
C197 C198 1.347 . S
C197 H225 0.931 . S
C198 C197 1.347 . S
C198 C199 1.369 . S
C199 C198 1.369 . S
C199 C200 1.408 1_554 S
C199 H226 0.930 . S
C200 C195 1.348 . S
C200 C199 1.408 1_556 S
C200 H227 0.930 . S
C201 O214 1.280 1_655 S
C201 O215 1.255 . S
C202 O216 1.236 . S
C202 O217 1.266 . S
C203 Tb193 2.809 . S
C203 C204 1.514 . S
C203 O218 1.248 . S
C203 O219 1.266 . S
C204 C203 1.514 . S
C204 C205 1.359 . S
C204 C209 1.348 . S
C205 C204 1.359 . S
C205 C206 1.380 . S
C205 H228 0.929 . S
C206 C205 1.380 . S
C206 C207 1.347 . S
C206 H229 0.931 . S
C207 C206 1.347 . S
C207 C208 1.369 . S
C208 C207 1.369 . S
C208 C209 1.408 . S
C208 H230 0.930 . S
C209 C204 1.348 . S
C209 C208 1.408 . S
C209 H231 0.930 . S
C210 O220 1.277 1_455 S
C210 O221 1.259 . S
C211 O222 1.236 . S
C211 O223 1.266 . S
O212 Tb192 2.484 . S
O212 C194 1.248 . S
O213 Tb192 2.440 . S
O213 C194 1.266 . S
O214 Tb192 2.658 1_455 S
O214 Tb193 2.325 . S
O214 C201 1.280 1_455 S
O215 Tb192 2.409 . S
O215 C201 1.255 . S
O216 Tb192 2.378 . S
O216 C202 1.236 . S
O217 Tb193 2.341 1_655 S
O217 C202 1.266 . S
O218 Tb193 2.484 . S
O218 C203 1.248 . S
O219 Tb193 2.440 . S
O219 C203 1.266 . S
O220 Tb192 2.325 . S
O220 Tb193 2.658 1_655 S
O220 C210 1.277 1_655 S
O221 Tb193 2.409 . S
O221 C210 1.259 . S
O222 Tb193 2.378 . S
O222 C211 1.236 . S
O223 Tb192 2.341 1_455 S
O223 C211 1.266 . S
H224 C196 0.929 . S
H225 C197 0.931 . S
H226 C199 0.930 . S
H227 C200 0.930 . S
H228 C205 0.929 . S
H229 C206 0.931 . S
H230 C208 0.930 . S
H231 C209 0.930 . S
H232 C244 0.930 . S
H233 C246 0.930 . S
H234 C247 0.930 . S
H235 C251 0.959 . S
H236 C251 0.959 . S
H237 C251 0.961 . S
H238 C252 0.960 . S
H239 C252 0.961 . S
H240 C252 0.959 . S
H241 C255 0.929 . S
H242 C256 0.931 . S
H243 C258 0.930 . S
C244 H232 0.930 . S
C244 C245 1.379 1_545 S
C244 C249 1.399 . S
C245 C244 1.379 1_565 S
C245 C246 1.401 . S
C246 H233 0.930 . S
C246 C245 1.401 . S
C246 C247 1.388 . S
C247 H234 0.930 . S
C247 C246 1.388 . S
C247 C248 1.390 . S
C248 C247 1.390 . S
C248 C249 1.394 1_565 S
C248 C254 1.465 . S
C249 C244 1.399 . S
C249 C248 1.394 1_545 S
C249 C250 1.516 . S
C250 C249 1.516 . S
C250 C251 1.502 . S
C250 C252 1.561 . S
C250 C253 1.526 . S
C251 H235 0.959 . S
C251 H236 0.959 . S
C251 H237 0.961 . S
C251 C250 1.502 . S
C252 H238 0.960 . S
C252 H239 0.961 . S
C252 H240 0.959 . S
C252 C250 1.561 . S
C253 C250 1.526 . S
C253 C254 1.396 1_545 S
C253 C258 1.390 . S
C254 C248 1.465 . S
C254 C253 1.396 1_565 S
C254 C255 1.399 . S
C255 H241 0.929 . S
C255 C254 1.399 . S
C255 C256 1.385 . S
C256 H242 0.931 . S
C256 C255 1.385 . S
C256 C257 1.389 . S
C257 C256 1.389 . S
C257 C258 1.387 1_565 S
C258 H243 0.930 . S
C258 C253 1.390 . S
C258 C257 1.387 1_545 S
H259 C271 0.930 . S
H260 C273 0.930 . S
H261 C274 0.930 . S
H262 C278 0.959 . S
H263 C278 0.959 . S
H264 C278 0.961 . S
H265 C279 0.960 . S
H266 C279 0.961 . S
H267 C279 0.959 . S
H268 C282 0.929 . S
H269 C283 0.931 . S
H270 C285 0.930 . S
C271 H259 0.930 . S
C271 C272 1.399 . S
C271 C276 1.399 . S
C272 C271 1.399 . S
C272 C273 1.376 . S
C273 H260 0.930 . S
C273 C272 1.376 . S
C273 C274 1.388 . S
C274 H261 0.930 . S
C274 C273 1.388 . S
C274 C275 1.390 . S
C275 C274 1.390 . S
C275 C276 1.394 . S
C275 C281 1.465 . S
C276 C271 1.399 . S
C276 C275 1.394 . S
C276 C277 1.516 . S
C277 C276 1.516 . S
C277 C278 1.502 . S
C277 C279 1.561 . S
C277 C280 1.526 . S
C278 H262 0.959 . S
C278 H263 0.959 . S
C278 H264 0.961 . S
C278 C277 1.502 . S
C279 H265 0.960 . S
C279 H266 0.961 . S
C279 H267 0.959 . S
C279 C277 1.561 . S
C280 C277 1.526 . S
C280 C281 1.396 . S
C280 C285 1.390 . S
C281 C275 1.465 . S
C281 C280 1.396 . S
C281 C282 1.399 . S
C282 H268 0.929 . S
C282 C281 1.399 . S
C282 C283 1.385 . S
C283 H269 0.931 . S
C283 C282 1.385 . S
C283 C284 1.389 . S
C284 C283 1.389 . S
C284 C285 1.387 . S
C285 H270 0.930 . S
C285 C280 1.390 . S
C285 C284 1.387 . S
H286 C298 0.930 . S
H287 C300 0.930 . S
H288 C301 0.930 . S
H289 C305 0.959 . S
H290 C305 0.959 . S
H291 C305 0.961 . S
H292 C306 0.960 . S
H293 C306 0.961 . S
H294 C306 0.959 . S
H295 C309 0.929 . S
H296 C310 0.931 . S
H297 C312 0.930 . S
C298 H286 0.930 . S
C298 C299 1.399 . S
C298 C303 1.399 . S
C299 C298 1.399 . S
C299 C300 1.376 . S
C300 H287 0.930 . S
C300 C299 1.376 . S
C300 C301 1.388 . S
C301 H288 0.930 . S
C301 C300 1.388 . S
C301 C302 1.390 . S
C302 C301 1.390 . S
C302 C303 1.394 . S
C302 C308 1.465 . S
C303 C298 1.399 . S
C303 C302 1.394 . S
C303 C304 1.516 . S
C304 C303 1.516 . S
C304 C305 1.502 . S
C304 C306 1.561 . S
C304 C307 1.526 . S
C305 H289 0.959 . S
C305 H290 0.959 . S
C305 H291 0.961 . S
C305 C304 1.502 . S
C306 H292 0.960 . S
C306 H293 0.961 . S
C306 H294 0.959 . S
C306 C304 1.561 . S
C307 C304 1.526 . S
C307 C308 1.396 . S
C307 C312 1.390 . S
C308 C302 1.465 . S
C308 C307 1.396 . S
C308 C309 1.399 . S
C309 H295 0.929 . S
C309 C308 1.399 . S
C309 C310 1.385 . S
C310 H296 0.931 . S
C310 C309 1.385 . S
C310 C311 1.389 . S
C311 C310 1.389 . S
C311 C312 1.387 . S
C312 H297 0.930 . S
C312 C307 1.390 . S
C312 C311 1.387 . S
H313 C325 0.930 . S
H314 C327 0.930 . S
H315 C328 0.930 . S
H316 C332 0.959 . S
H317 C332 0.959 1_655 S
H318 C332 0.955 1_655 S
H319 C333 0.960 . S
H320 C333 0.961 . S
H321 C333 0.959 . S
H322 C336 0.929 . S
H323 C337 0.931 . S
H324 C339 0.930 . S
C325 H313 0.930 . S
C325 C326 1.400 . S
C325 C330 1.399 . S
C326 C325 1.400 . S
C326 C327 1.376 1_655 S
C327 H314 0.930 . S
C327 C326 1.376 1_455 S
C327 C328 1.388 . S
C328 H315 0.930 . S
C328 C327 1.388 . S
C328 C329 1.390 . S
C329 C328 1.390 . S
C329 C330 1.394 1_455 S
C329 C335 1.465 . S
C330 C325 1.399 . S
C330 C329 1.394 1_655 S
C330 C331 1.516 . S
C331 C330 1.516 . S
C331 C332 1.502 1_655 S
C331 C333 1.561 . S
C331 C334 1.526 . S
C332 H316 0.959 . S
C332 H317 0.959 1_455 S
C332 H318 0.955 1_455 S
C332 C331 1.502 1_455 S
C333 H319 0.960 . S
C333 H320 0.961 . S
C333 H321 0.959 . S
C333 C331 1.561 . S
C334 C331 1.526 . S
C334 C335 1.396 1_655 S
C334 C339 1.390 . S
C335 C329 1.465 . S
C335 C334 1.396 1_455 S
C335 C336 1.399 . S
C336 H322 0.929 . S
C336 C335 1.399 . S
C336 C337 1.385 . S
C337 H323 0.931 . S
C337 C336 1.385 . S
C337 C338 1.389 . S
C338 C337 1.389 . S
C338 C339 1.387 1_455 S
C339 H324 0.930 . S
C339 C334 1.390 . S
C339 C338 1.387 1_655 S
H340 C352 0.930 . S
H341 C354 0.930 . S
H342 C355 0.930 . S
H343 C359 0.959 . S
H344 C359 0.959 . S
H345 C359 0.961 . S
H346 C360 0.960 . S
H347 C360 0.961 . S
H348 C360 0.959 . S
H349 C363 0.929 . S
H350 C364 0.931 . S
H351 C366 0.930 . S
C352 H340 0.930 . S
C352 C353 1.399 1_545 S
C352 C357 1.399 . S
C353 C352 1.399 1_565 S
C353 C354 1.376 . S
C354 H341 0.930 . S
C354 C353 1.376 . S
C354 C355 1.388 . S
C355 H342 0.930 . S
C355 C354 1.388 . S
C355 C356 1.390 . S
C356 C355 1.390 . S
C356 C357 1.394 1_565 S
C356 C362 1.465 . S
C357 C352 1.399 . S
C357 C356 1.394 1_545 S
C357 C358 1.516 . S
C358 C357 1.516 . S
C358 C359 1.502 . S
C358 C360 1.561 . S
C358 C361 1.526 . S
C359 H343 0.959 . S
C359 H344 0.959 . S
C359 H345 0.961 . S
C359 C358 1.502 . S
C360 H346 0.960 . S
C360 H347 0.961 . S
C360 H348 0.959 . S
C360 C358 1.561 . S
C361 C358 1.526 . S
C361 C362 1.396 1_545 S
C361 C366 1.390 1_554 S
C362 C356 1.465 . S
C362 C361 1.396 1_565 S
C362 C363 1.399 . S
C363 H349 0.929 . S
C363 C362 1.399 . S
C363 C364 1.385 1_554 S
C364 H350 0.931 . S
C364 C363 1.385 1_556 S
C364 C365 1.389 . S
C365 C364 1.389 . S
C365 C366 1.387 1_565 S
C366 H351 0.930 . S
C366 C361 1.390 1_556 S
C366 C365 1.387 1_545 S
H367 C379 0.930 . S
H368 C381 0.930 . S
H369 C382 0.930 . S
H370 C386 0.959 . S
H371 C386 0.959 . S
H372 C386 0.961 . S
H373 C387 0.960 . S
H374 C387 0.961 1_556 S
H375 C387 0.959 . S
H376 C390 0.929 . S
H377 C391 0.931 1_556 S
H378 C393 0.930 . S
C379 H367 0.930 . S
C379 C380 1.399 . S
C379 C384 1.399 . S
C380 C379 1.399 . S
C380 C381 1.376 . S
C381 H368 0.930 . S
C381 C380 1.376 . S
C381 C382 1.388 . S
C382 H369 0.930 . S
C382 C381 1.388 . S
C382 C383 1.390 . S
C383 C382 1.390 . S
C383 C384 1.394 . S
C383 C389 1.465 . S
C384 C379 1.399 . S
C384 C383 1.394 . S
C384 C385 1.516 . S
C385 C384 1.516 . S
C385 C386 1.502 . S
C385 C387 1.561 . S
C385 C388 1.526 . S
C386 H370 0.959 . S
C386 H371 0.959 . S
C386 H372 0.961 . S
C386 C385 1.502 . S
C387 H373 0.960 . S
C387 H374 0.961 1_554 S
C387 H375 0.959 . S
C387 C385 1.561 . S
C388 C385 1.526 . S
C388 C389 1.396 . S
C388 C393 1.390 1_554 S
C389 C383 1.465 . S
C389 C388 1.396 . S
C389 C390 1.399 . S
C390 H376 0.929 . S
C390 C389 1.399 . S
C390 C391 1.385 . S
C391 H377 0.931 1_554 S
C391 C390 1.385 . S
C391 C392 1.389 1_554 S
C392 C391 1.389 1_556 S
C392 C393 1.387 . S
C393 H378 0.930 . S
C393 C388 1.390 1_556 S
C393 C392 1.387 . S
H394 C406 0.930 . S
H395 C408 0.930 . S
H396 C409 0.930 . S
H397 C413 0.959 . S
H398 C413 0.959 1_556 S
H399 C413 0.961 . S
H400 C414 0.960 . S
H401 C414 0.961 1_556 S
H402 C414 0.959 . S
H403 C417 0.929 . S
H404 C418 0.931 . S
H405 C420 0.930 . S
C406 H394 0.930 . S
C406 C407 1.399 . S
C406 C411 1.399 . S
C407 C406 1.399 . S
C407 C408 1.376 . S
C408 H395 0.930 . S
C408 C407 1.376 . S
C408 C409 1.388 . S
C409 H396 0.930 . S
C409 C408 1.388 . S
C409 C410 1.390 . S
C410 C409 1.390 . S
C410 C411 1.394 . S
C410 C416 1.465 . S
C411 C406 1.399 . S
C411 C410 1.394 . S
C411 C412 1.516 . S
C412 C411 1.516 . S
C412 C413 1.502 . S
C412 C414 1.561 . S
C412 C415 1.526 . S
C413 H397 0.959 . S
C413 H398 0.959 1_554 S
C413 H399 0.961 . S
C413 C412 1.502 . S
C414 H400 0.960 . S
C414 H401 0.961 1_554 S
C414 H402 0.959 . S
C414 C412 1.561 . S
C415 C412 1.526 . S
C415 C416 1.396 . S
C415 C420 1.390 1_554 S
C416 C410 1.465 . S
C416 C415 1.396 . S
C416 C417 1.399 . S
C417 H403 0.929 . S
C417 C416 1.399 . S
C417 C418 1.385 . S
C418 H404 0.931 . S
C418 C417 1.385 . S
C418 C419 1.389 1_554 S
C419 C418 1.389 1_556 S
C419 C420 1.387 . S
C420 H405 0.930 . S
C420 C415 1.390 1_556 S
C420 C419 1.387 . S
H421 C433 0.930 . S
H422 C435 0.930 . S
H423 C436 0.930 . S
H424 C440 0.959 . S
H425 C440 0.959 . S
H426 C440 0.961 . S
H427 C441 0.958 1_655 S
H428 C441 0.956 1_656 S
H429 C441 0.972 . S
H430 C444 0.929 . S
H431 C445 0.931 1_556 S
H432 C447 0.930 . S
C433 H421 0.930 . S
C433 C434 1.399 1_655 S
C433 C438 1.399 . S
C434 C433 1.399 1_455 S
C434 C435 1.376 . S
C435 H422 0.930 . S
C435 C434 1.376 . S
C435 C436 1.388 . S
C436 H423 0.930 . S
C436 C435 1.388 . S
C436 C437 1.390 . S
C437 C436 1.390 . S
C437 C438 1.394 1_455 S
C437 C443 1.465 . S
C438 C433 1.399 . S
C438 C437 1.394 1_655 S
C438 C439 1.516 . S
C439 C438 1.516 . S
C439 C440 1.502 . S
C439 C441 1.555 1_655 S
C439 C442 1.526 . S
C440 H424 0.959 . S
C440 H425 0.959 . S
C440 H426 0.961 . S
C440 C439 1.502 . S
C441 H427 0.958 1_455 S
C441 H428 0.956 1_454 S
C441 H429 0.972 . S
C441 C439 1.555 1_455 S
C442 C439 1.526 . S
C442 C443 1.396 1_655 S
C442 C447 1.390 1_554 S
C443 C437 1.465 . S
C443 C442 1.396 1_455 S
C443 C444 1.399 . S
C444 H430 0.929 . S
C444 C443 1.399 . S
C444 C445 1.385 . S
C445 H431 0.931 1_554 S
C445 C444 1.385 . S
C445 C446 1.399 1_554 S
C446 C445 1.399 1_556 S
C446 C447 1.380 1_455 S
C447 H432 0.930 . S
C447 C442 1.390 1_556 S
C447 C446 1.380 1_655 S
H448 C460 0.930 . S
H449 C462 0.930 . S
H450 C463 0.930 . S
H451 C467 0.959 . S
H452 C467 0.959 . S
H453 C467 0.961 . S
H454 C468 0.960 . S
H455 C468 0.961 . S
H456 C468 0.959 1_455 S
H457 C471 0.929 . S
H458 C472 0.931 . S
H459 C474 0.930 . S
C460 H448 0.930 . S
C460 C461 1.399 1_655 S
C460 C465 1.399 . S
C461 C460 1.399 1_455 S
C461 C462 1.376 . S
C462 H449 0.930 . S
C462 C461 1.376 . S
C462 C463 1.388 . S
C463 H450 0.930 . S
C463 C462 1.388 . S
C463 C464 1.390 1_455 S
C464 C463 1.390 1_655 S
C464 C465 1.394 . S
C464 C470 1.465 . S
C465 C460 1.399 . S
C465 C464 1.394 . S
C465 C466 1.516 . S
C466 C465 1.516 . S
C466 C467 1.502 . S
C466 C468 1.561 . S
C466 C469 1.526 . S
C467 H451 0.959 . S
C467 H452 0.959 . S
C467 H453 0.961 . S
C467 C466 1.502 . S
C468 H454 0.960 . S
C468 H455 0.961 . S
C468 H456 0.959 1_655 S
C468 C466 1.561 . S
C469 C466 1.526 . S
C469 C470 1.396 . S
C469 C474 1.390 . S
C470 C464 1.465 . S
C470 C469 1.396 . S
C470 C471 1.399 . S
C471 H457 0.929 . S
C471 C470 1.399 . S
C471 C472 1.385 . S
C472 H458 0.931 . S
C472 C471 1.385 . S
C472 C473 1.389 . S
C473 C472 1.389 . S
C473 C474 1.387 . S
C474 H459 0.930 . S
C474 C469 1.390 . S
C474 C473 1.387 . S
H475 C487 0.930 . S
H476 C489 0.930 . S
H477 C490 0.930 . S
H478 C494 0.959 . S
H479 C494 0.959 . S
H480 C494 0.961 . S
H481 C495 0.960 . S
H482 C495 0.961 . S
H483 C495 0.959 . S
H484 C498 0.929 . S
H485 C499 0.931 . S
H486 C501 0.930 . S
C487 H475 0.930 . S
C487 C488 1.399 1_565 S
C487 C492 1.399 . S
C488 C487 1.399 1_545 S
C488 C489 1.376 . S
C489 H476 0.930 . S
C489 C488 1.376 . S
C489 C490 1.388 . S
C490 H477 0.930 . S
C490 C489 1.388 . S
C490 C491 1.390 1_545 S
C491 C490 1.390 1_565 S
C491 C492 1.394 . S
C491 C497 1.465 . S
C492 C487 1.399 . S
C492 C491 1.394 . S
C492 C493 1.516 . S
C493 C492 1.516 . S
C493 C494 1.502 . S
C493 C495 1.561 . S
C493 C496 1.526 . S
C494 H478 0.959 . S
C494 H479 0.959 . S
C494 H480 0.961 . S
C494 C493 1.502 . S
C495 H481 0.960 . S
C495 H482 0.961 . S
C495 H483 0.959 . S
C495 C493 1.561 . S
C496 C493 1.526 . S
C496 C497 1.396 . S
C496 C501 1.390 . S
C497 C491 1.465 . S
C497 C496 1.396 . S
C497 C498 1.399 1_565 S
C498 H484 0.929 . S
C498 C497 1.399 1_545 S
C498 C499 1.385 1_545 S
C499 H485 0.931 . S
C499 C498 1.385 1_565 S
C499 C500 1.389 . S
C500 C499 1.389 . S
C500 C501 1.387 . S
C501 H486 0.930 . S
C501 C496 1.390 . S
C501 C500 1.387 . S
H502 C514 0.930 . S
H503 C516 0.930 . S
H504 C517 0.930 . S
H505 C521 0.959 . S
H506 C521 0.959 . S
H507 C521 0.961 . S
H508 C522 0.960 . S
H509 C522 0.961 . S
H510 C522 0.959 . S
H511 C525 0.929 . S
H512 C526 0.931 . S
H513 C528 0.930 . S
C514 H502 0.930 . S
C514 C515 1.399 . S
C514 C519 1.399 . S
C515 C514 1.399 . S
C515 C516 1.376 . S
C516 H503 0.930 . S
C516 C515 1.376 . S
C516 C517 1.388 . S
C517 H504 0.930 . S
C517 C516 1.388 . S
C517 C518 1.390 . S
C518 C517 1.390 . S
C518 C519 1.394 . S
C518 C524 1.465 . S
C519 C514 1.399 . S
C519 C518 1.394 . S
C519 C520 1.516 . S
C520 C519 1.516 . S
C520 C521 1.502 . S
C520 C522 1.561 . S
C520 C523 1.526 . S
C521 H505 0.959 . S
C521 H506 0.959 . S
C521 H507 0.961 . S
C521 C520 1.502 . S
C522 H508 0.960 . S
C522 H509 0.961 . S
C522 H510 0.959 . S
C522 C520 1.561 . S
C523 C520 1.526 . S
C523 C524 1.396 . S
C523 C528 1.390 . S
C524 C518 1.465 . S
C524 C523 1.396 . S
C524 C525 1.399 . S
C525 H511 0.929 . S
C525 C524 1.399 . S
C525 C526 1.385 . S
C526 H512 0.931 . S
C526 C525 1.385 . S
C526 C527 1.389 . S
C527 C526 1.389 . S
C527 C528 1.387 . S
C528 H513 0.930 . S
C528 C523 1.390 . S
C528 C527 1.387 . S
H529 C541 0.930 . S
H530 C543 0.930 . S
H531 C544 0.930 . S
H532 C548 0.959 . S
H533 C548 0.959 . S
H534 C548 0.961 . S
H535 C549 0.960 . S
H536 C549 0.961 . S
H537 C549 0.959 . S
H538 C552 0.929 . S
H539 C553 0.931 . S
H540 C555 0.930 . S
C541 H529 0.930 . S
C541 C542 1.399 . S
C541 C546 1.399 . S
C542 C541 1.399 . S
C542 C543 1.376 . S
C543 H530 0.930 . S
C543 C542 1.376 . S
C543 C544 1.388 . S
C544 H531 0.930 . S
C544 C543 1.388 . S
C544 C545 1.390 . S
C545 C544 1.390 . S
C545 C546 1.394 . S
C545 C551 1.465 . S
C546 C541 1.399 . S
C546 C545 1.394 . S
C546 C547 1.516 . S
C547 C546 1.516 . S
C547 C548 1.502 . S
C547 C549 1.561 . S
C547 C550 1.526 . S
C548 H532 0.959 . S
C548 H533 0.959 . S
C548 H534 0.961 . S
C548 C547 1.502 . S
C549 H535 0.960 . S
C549 H536 0.961 . S
C549 H537 0.959 . S
C549 C547 1.561 . S
C550 C547 1.526 . S
C550 C551 1.396 . S
C550 C555 1.390 . S
C551 C545 1.465 . S
C551 C550 1.396 . S
C551 C552 1.399 . S
C552 H538 0.929 . S
C552 C551 1.399 . S
C552 C553 1.385 . S
C553 H539 0.931 . S
C553 C552 1.385 . S
C553 C554 1.389 . S
C554 C553 1.389 . S
C554 C555 1.387 . S
C555 H540 0.930 . S
C555 C550 1.390 . S
C555 C554 1.387 . S
H556 C568 0.930 1_655 S
H557 C570 0.930 . S
H558 C571 0.930 . S
H559 C575 0.959 . S
H560 C575 0.949 1_455 S
H561 C575 0.961 . S
H562 C576 0.960 . S
H563 C576 0.961 . S
H564 C576 0.959 . S
H565 C579 0.929 . S
H566 C580 0.931 1_556 S
H567 C582 0.930 . S
C568 H556 0.930 1_455 S
C568 C569 1.396 1_455 S
C568 C573 1.399 . S
C569 C568 1.396 1_655 S
C569 C570 1.365 1_655 S
C570 H557 0.930 . S
C570 C569 1.365 1_455 S
C570 C571 1.388 . S
C571 H558 0.930 . S
C571 C570 1.388 . S
C571 C572 1.390 . S
C572 C571 1.390 . S
C572 C573 1.394 . S
C572 C578 1.465 . S
C573 C568 1.399 . S
C573 C572 1.394 . S
C573 C574 1.516 . S
C574 C573 1.516 . S
C574 C575 1.502 1_455 S
C574 C576 1.561 . S
C574 C577 1.526 . S
C575 H559 0.959 . S
C575 H560 0.949 1_655 S
C575 H561 0.961 . S
C575 C574 1.502 1_655 S
C576 H562 0.960 . S
C576 H563 0.961 . S
C576 H564 0.959 . S
C576 C574 1.561 . S
C577 C574 1.526 . S
C577 C578 1.396 . S
C577 C582 1.390 . S
C578 C572 1.465 . S
C578 C577 1.396 . S
C578 C579 1.399 . S
C579 H565 0.929 . S
C579 C578 1.399 . S
C579 C580 1.385 . S
C580 H566 0.931 1_554 S
C580 C579 1.385 . S
C580 C581 1.389 . S
C581 C580 1.389 . S
C581 C582 1.387 . S
C582 H567 0.930 . S
C582 C577 1.390 . S
C582 C581 1.387 . S
H583 C595 0.930 . S
H584 C597 0.930 . S
H585 C598 0.930 . S
H586 C602 0.959 1_545 S
H587 C602 0.959 . S
H588 C602 0.961 . S
H589 C603 0.960 . S
H590 C603 0.961 . S
H591 C603 0.959 . S
H592 C606 0.929 . S
H593 C607 0.931 . S
H594 C609 0.930 . S
C595 H583 0.930 . S
C595 C596 1.411 . S
C595 C600 1.399 1_565 S
C596 C595 1.411 . S
C596 C597 1.351 1_565 S
C597 H584 0.930 . S
C597 C596 1.351 1_545 S
C597 C598 1.388 . S
C598 H585 0.930 . S
C598 C597 1.388 . S
C598 C599 1.390 . S
C599 C598 1.390 . S
C599 C600 1.394 . S
C599 C605 1.465 . S
C600 C595 1.399 1_545 S
C600 C599 1.394 . S
C600 C601 1.516 1_545 S
C601 C600 1.516 1_565 S
C601 C602 1.502 . S
C601 C603 1.561 . S
C601 C604 1.526 1_565 S
C602 H586 0.959 1_565 S
C602 H587 0.959 . S
C602 H588 0.961 . S
C602 C601 1.502 . S
C603 H589 0.960 . S
C603 H590 0.961 . S
C603 H591 0.959 . S
C603 C601 1.561 . S
C604 C601 1.526 1_545 S
C604 C605 1.396 . S
C604 C609 1.390 . S
C605 C599 1.465 . S
C605 C604 1.396 . S
C605 C606 1.399 . S
C606 H592 0.929 . S
C606 C605 1.399 . S
C606 C607 1.385 . S
C607 H593 0.931 . S
C607 C606 1.385 . S
C607 C608 1.389 . S
C608 C607 1.389 . S
C608 C609 1.387 . S
C609 H594 0.930 . S
C609 C604 1.390 . S
C609 C608 1.387 . S
H610 C622 0.930 . S
H611 C624 0.930 . S
H612 C625 0.930 . S
H613 C629 0.959 . S
H614 C629 0.959 . S
H615 C629 0.961 . S
H616 C630 0.960 . S
H617 C630 0.961 1_556 S
H618 C630 0.959 . S
H619 C633 0.929 . S
H620 C634 0.931 . S
H621 C636 0.930 . S
C622 H610 0.930 . S
C622 C623 1.399 . S
C622 C627 1.399 . S
C623 C622 1.399 . S
C623 C624 1.376 . S
C624 H611 0.930 . S
C624 C623 1.376 . S
C624 C625 1.388 . S
C625 H612 0.930 . S
C625 C624 1.388 . S
C625 C626 1.390 . S
C626 C625 1.390 . S
C626 C627 1.394 . S
C626 C632 1.465 . S
C627 C622 1.399 . S
C627 C626 1.394 . S
C627 C628 1.516 . S
C628 C627 1.516 . S
C628 C629 1.502 . S
C628 C630 1.561 . S
C628 C631 1.526 . S
C629 H613 0.959 . S
C629 H614 0.959 . S
C629 H615 0.961 . S
C629 C628 1.502 . S
C630 H616 0.960 . S
C630 H617 0.961 1_554 S
C630 H618 0.959 . S
C630 C628 1.561 . S
C631 C628 1.526 . S
C631 C632 1.396 . S
C631 C636 1.390 . S
C632 C626 1.465 . S
C632 C631 1.396 . S
C632 C633 1.399 . S
C633 H619 0.929 . S
C633 C632 1.399 . S
C633 C634 1.385 . S
C634 H620 0.931 . S
C634 C633 1.385 . S
C634 C635 1.389 . S
C635 C634 1.389 . S
C635 C636 1.387 . S
C636 H621 0.930 . S
C636 C631 1.390 . S
C636 C635 1.387 . S
H637 C649 0.930 . S
H638 C651 0.930 . S
H639 C652 0.930 . S
H640 C656 0.959 . S
H641 C656 0.959 . S
H642 C656 0.961 . S
H643 C657 0.960 . S
H644 C657 0.961 . S
H645 C657 0.959 . S
H646 C660 0.929 . S
H647 C661 0.931 . S
H648 C663 0.930 . S
C649 H637 0.930 . S
C649 C650 1.399 . S
C649 C654 1.399 . S
C650 C649 1.399 . S
C650 C651 1.376 . S
C651 H638 0.930 . S
C651 C650 1.376 . S
C651 C652 1.388 . S
C652 H639 0.930 . S
C652 C651 1.388 . S
C652 C653 1.390 . S
C653 C652 1.390 . S
C653 C654 1.394 . S
C653 C659 1.465 . S
C654 C649 1.399 . S
C654 C653 1.394 . S
C654 C655 1.516 . S
C655 C654 1.516 . S
C655 C656 1.502 . S
C655 C657 1.561 . S
C655 C658 1.526 . S
C656 H640 0.959 . S
C656 H641 0.959 . S
C656 H642 0.961 . S
C656 C655 1.502 . S
C657 H643 0.960 . S
C657 H644 0.961 . S
C657 H645 0.959 . S
C657 C655 1.561 . S
C658 C655 1.526 . S
C658 C659 1.396 . S
C658 C663 1.390 . S
C659 C653 1.465 . S
C659 C658 1.396 . S
C659 C660 1.399 . S
C660 H646 0.929 . S
C660 C659 1.399 . S
C660 C661 1.385 . S
C661 H647 0.931 . S
C661 C660 1.385 . S
C661 C662 1.389 . S
C662 C661 1.389 . S
C662 C663 1.387 . S
C663 H648 0.930 . S
C663 C658 1.390 . S
C663 C662 1.387 . S
H664 C676 0.930 . S
H665 C678 0.930 1_554 S
H666 C679 0.930 1_554 S
H667 C683 0.959 . S
H668 C683 0.959 . S
H669 C683 0.961 . S
H670 C684 0.960 . S
H671 C684 0.961 . S
H672 C684 0.959 . S
H673 C687 0.929 . S
H674 C688 0.931 . S
H675 C690 0.930 1_655 S
C676 H664 0.930 . S
C676 C677 1.399 1_655 S
C676 C681 1.397 1_655 S
C677 C676 1.399 1_455 S
C677 C678 1.376 . S
C678 H665 0.930 1_556 S
C678 C677 1.376 . S
C678 C679 1.388 . S
C679 H666 0.930 1_556 S
C679 C678 1.388 . S
C679 C680 1.390 . S
C680 C679 1.390 . S
C680 C681 1.399 . S
C680 C686 1.465 . S
C681 C676 1.397 1_455 S
C681 C680 1.399 . S
C681 C682 1.514 1_455 S
C682 C681 1.514 1_655 S
C682 C683 1.502 . S
C682 C684 1.561 1_655 S
C682 C685 1.526 1_655 S
C683 H667 0.959 . S
C683 H668 0.959 . S
C683 H669 0.961 . S
C683 C682 1.502 . S
C684 H670 0.960 . S
C684 H671 0.961 . S
C684 H672 0.959 . S
C684 C682 1.561 1_455 S
C685 C682 1.526 1_455 S
C685 C686 1.396 . S
C685 C690 1.390 . S
C686 C680 1.465 . S
C686 C685 1.396 . S
C686 C687 1.399 . S
C687 H673 0.929 . S
C687 C686 1.399 . S
C687 C688 1.385 . S
C688 H674 0.931 . S
C688 C687 1.385 . S
C688 C689 1.389 . S
C689 C688 1.389 . S
C689 C690 1.387 . S
C690 H675 0.930 1_455 S
C690 C685 1.390 . S
C690 C689 1.387 . S
H691 C703 0.930 . S
H692 C705 0.930 . S
H693 C706 0.930 . S
H694 C710 0.959 . S
H695 C710 0.959 . S
H696 C710 0.961 . S
H697 C711 0.960 . S
H698 C711 0.961 . S
H699 C711 0.959 . S
H700 C714 0.929 . S
H701 C715 0.931 . S
H702 C717 0.930 . S
C703 H691 0.930 . S
C703 C704 1.400 1_545 S
C703 C708 1.399 . S
C704 C703 1.400 1_565 S
C704 C705 1.375 . S
C705 H692 0.930 . S
C705 C704 1.375 . S
C705 C706 1.388 . S
C706 H693 0.930 . S
C706 C705 1.388 . S
C706 C707 1.390 . S
C707 C706 1.390 . S
C707 C708 1.394 1_565 S
C707 C713 1.465 . S
C708 C703 1.399 . S
C708 C707 1.394 1_545 S
C708 C709 1.516 . S
C709 C708 1.516 . S
C709 C710 1.502 . S
C709 C711 1.561 . S
C709 C712 1.526 . S
C710 H694 0.959 . S
C710 H695 0.959 . S
C710 H696 0.961 . S
C710 C709 1.502 . S
C711 H697 0.960 . S
C711 H698 0.961 . S
C711 H699 0.959 . S
C711 C709 1.561 . S
C712 C709 1.526 . S
C712 C713 1.396 1_545 S
C712 C717 1.390 . S
C713 C707 1.465 . S
C713 C712 1.396 1_565 S
C713 C714 1.399 . S
C714 H700 0.929 . S
C714 C713 1.399 . S
C714 C715 1.385 . S
C715 H701 0.931 . S
C715 C714 1.385 . S
C715 C716 1.389 1_565 S
C716 C715 1.389 1_545 S
C716 C717 1.387 . S
C717 H702 0.930 . S
C717 C712 1.390 . S
C717 C716 1.387 . S
H718 C730 0.930 . S
H719 C732 0.930 . S
H720 C733 0.930 . S
H721 C737 0.959 . S
H722 C737 0.959 . S
H723 C737 0.961 . S
H724 C738 0.960 . S
H725 C738 0.961 . S
H726 C738 0.959 . S
H727 C741 0.929 . S
H728 C742 0.931 . S
H729 C744 0.930 . S
C730 H718 0.930 . S
C730 C731 1.399 . S
C730 C735 1.399 . S
C731 C730 1.399 . S
C731 C732 1.376 . S
C732 H719 0.930 . S
C732 C731 1.376 . S
C732 C733 1.388 . S
C733 H720 0.930 . S
C733 C732 1.388 . S
C733 C734 1.390 . S
C734 C733 1.390 . S
C734 C735 1.394 . S
C734 C740 1.465 . S
C735 C730 1.399 . S
C735 C734 1.394 . S
C735 C736 1.516 . S
C736 C735 1.516 . S
C736 C737 1.502 . S
C736 C738 1.561 1_556 S
C736 C739 1.526 . S
C737 H721 0.959 . S
C737 H722 0.959 . S
C737 H723 0.961 . S
C737 C736 1.502 . S
C738 H724 0.960 . S
C738 H725 0.961 . S
C738 H726 0.959 . S
C738 C736 1.561 1_554 S
C739 C736 1.526 . S
C739 C740 1.396 . S
C739 C744 1.390 . S
C740 C734 1.465 . S
C740 C739 1.396 . S
C740 C741 1.399 . S
C741 H727 0.929 . S
C741 C740 1.399 . S
C741 C742 1.385 . S
C742 H728 0.931 . S
C742 C741 1.385 . S
C742 C743 1.389 . S
C743 C742 1.389 . S
C743 C744 1.387 . S
C744 H729 0.930 . S
C744 C739 1.390 . S
C744 C743 1.387 . S
H745 C757 0.930 1_554 S
H746 C759 0.930 . S
H747 C760 0.930 . S
H748 C764 0.959 . S
H749 C764 0.959 . S
H750 C764 0.961 . S
H751 C765 0.952 1_554 S
H752 C765 0.955 1_554 S
H753 C765 0.969 . S
H754 C768 0.929 . S
H755 C769 0.931 . S
H756 C771 0.930 . S
C757 H745 0.930 1_556 S
C757 C758 1.399 . S
C757 C762 1.399 . S
C758 C757 1.399 . S
C758 C759 1.376 . S
C759 H746 0.930 . S
C759 C758 1.376 . S
C759 C760 1.388 . S
C760 H747 0.930 . S
C760 C759 1.388 . S
C760 C761 1.390 . S
C761 C760 1.390 . S
C761 C762 1.394 . S
C761 C767 1.465 . S
C762 C757 1.399 . S
C762 C761 1.394 . S
C762 C763 1.516 . S
C763 C762 1.516 . S
C763 C764 1.502 1_556 S
C763 C765 1.566 . S
C763 C766 1.526 . S
C764 H748 0.959 . S
C764 H749 0.959 . S
C764 H750 0.961 . S
C764 C763 1.502 1_554 S
C765 H751 0.952 1_556 S
C765 H752 0.955 1_556 S
C765 H753 0.969 . S
C765 C763 1.566 . S
C766 C763 1.526 . S
C766 C767 1.396 . S
C766 C771 1.390 . S
C767 C761 1.465 . S
C767 C766 1.396 . S
C767 C768 1.399 . S
C768 H754 0.929 . S
C768 C767 1.399 . S
C768 C769 1.385 . S
C769 H755 0.931 . S
C769 C768 1.385 . S
C769 C770 1.389 . S
C770 C769 1.389 . S
C770 C771 1.387 . S
C771 H756 0.930 . S
C771 C766 1.390 . S
C771 C770 1.387 . S
H772 C784 0.930 . S
H773 C786 0.930 . S
H774 C787 0.930 . S
H775 C791 0.959 . S
H776 C791 0.959 . S
H777 C791 0.961 . S
H778 C792 0.960 . S
H779 C792 0.961 . S
H780 C792 0.959 . S
H781 C795 0.929 . S
H782 C796 0.931 . S
H783 C798 0.930 . S
C784 H772 0.930 . S
C784 C785 1.399 . S
C784 C789 1.399 . S
C785 C784 1.399 . S
C785 C786 1.376 . S
C786 H773 0.930 . S
C786 C785 1.376 . S
C786 C787 1.388 . S
C787 H774 0.930 . S
C787 C786 1.388 . S
C787 C788 1.390 . S
C788 C787 1.390 . S
C788 C789 1.394 . S
C788 C794 1.465 . S
C789 C784 1.399 . S
C789 C788 1.394 . S
C789 C790 1.516 . S
C790 C789 1.516 . S
C790 C791 1.502 1_655 S
C790 C792 1.561 . S
C790 C793 1.526 . S
C791 H775 0.959 . S
C791 H776 0.959 . S
C791 H777 0.961 . S
C791 C790 1.502 1_455 S
C792 H778 0.960 . S
C792 H779 0.961 . S
C792 H780 0.959 . S
C792 C790 1.561 . S
C793 C790 1.526 . S
C793 C794 1.396 . S
C793 C798 1.390 . S
C794 C788 1.465 . S
C794 C793 1.396 . S
C794 C795 1.399 . S
C795 H781 0.929 . S
C795 C794 1.399 . S
C795 C796 1.385 . S
C796 H782 0.931 . S
C796 C795 1.385 . S
C796 C797 1.389 . S
C797 C796 1.389 . S
C797 C798 1.387 . S
C798 H783 0.930 . S
C798 C793 1.390 . S
C798 C797 1.387 . S
H799 C811 0.930 . S
H800 C813 0.930 . S
H801 C814 0.930 . S
H802 C818 0.959 1_565 S
H803 C818 0.959 . S
H804 C818 0.961 . S
H805 C819 0.960 . S
H806 C819 0.961 . S
H807 C819 0.959 . S
H808 C822 0.929 . S
H809 C823 0.931 . S
H810 C825 0.930 . S
C811 H799 0.930 . S
C811 C812 1.399 1_545 S
C811 C816 1.399 . S
C812 C811 1.399 1_565 S
C812 C813 1.376 . S
C813 H800 0.930 . S
C813 C812 1.376 . S
C813 C814 1.388 . S
C814 H801 0.930 . S
C814 C813 1.388 . S
C814 C815 1.390 . S
C815 C814 1.390 . S
C815 C816 1.394 1_565 S
C815 C821 1.465 . S
C816 C811 1.399 . S
C816 C815 1.394 1_545 S
C816 C817 1.516 . S
C817 C816 1.516 . S
C817 C818 1.502 . S
C817 C819 1.561 . S
C817 C820 1.526 . S
C818 H802 0.959 1_545 S
C818 H803 0.959 . S
C818 H804 0.961 . S
C818 C817 1.502 . S
C819 H805 0.960 . S
C819 H806 0.961 . S
C819 H807 0.959 . S
C819 C817 1.561 . S
C820 C817 1.526 . S
C820 C821 1.396 1_545 S
C820 C825 1.390 . S
C821 C815 1.465 . S
C821 C820 1.396 1_565 S
C821 C822 1.399 . S
C822 H808 0.929 . S
C822 C821 1.399 . S
C822 C823 1.385 . S
C823 H809 0.931 . S
C823 C822 1.385 . S
C823 C824 1.389 . S
C824 C823 1.389 . S
C824 C825 1.387 1_565 S
C825 H810 0.930 . S
C825 C820 1.390 . S
C825 C824 1.387 1_545 S
H826 C838 0.930 . S
H827 C840 0.930 . S
H828 C841 0.930 . S
H829 C845 0.959 . S
H830 C845 0.959 . S
H831 C845 0.961 . S
H832 C846 0.960 . S
H833 C846 0.961 . S
H834 C846 0.959 . S
H835 C849 0.929 . S
H836 C850 0.931 . S
H837 C852 0.930 . S
C838 H826 0.930 . S
C838 C839 1.399 . S
C838 C843 1.399 . S
C839 C838 1.399 . S
C839 C840 1.376 . S
C840 H827 0.930 . S
C840 C839 1.376 . S
C840 C841 1.388 . S
C841 H828 0.930 . S
C841 C840 1.388 . S
C841 C842 1.390 . S
C842 C841 1.390 . S
C842 C843 1.394 . S
C842 C848 1.465 . S
C843 C838 1.399 . S
C843 C842 1.394 . S
C843 C844 1.516 . S
C844 C843 1.516 . S
C844 C845 1.502 . S
C844 C846 1.561 . S
C844 C847 1.526 . S
C845 H829 0.959 . S
C845 H830 0.959 . S
C845 H831 0.961 . S
C845 C844 1.502 . S
C846 H832 0.960 . S
C846 H833 0.961 . S
C846 H834 0.959 . S
C846 C844 1.561 . S
C847 C844 1.526 . S
C847 C848 1.396 . S
C847 C852 1.390 . S
C848 C842 1.465 . S
C848 C847 1.396 . S
C848 C849 1.399 . S
C849 H835 0.929 . S
C849 C848 1.399 . S
C849 C850 1.385 . S
C850 H836 0.931 . S
C850 C849 1.385 . S
C850 C851 1.389 . S
C851 C850 1.389 . S
C851 C852 1.387 . S
C852 H837 0.930 . S
C852 C847 1.390 . S
C852 C851 1.387 . S
H853 C865 0.930 . S
H854 C867 0.930 . S
H855 C868 0.930 . S
H856 C872 0.959 . S
H857 C872 0.959 . S
H858 C872 0.961 . S
H859 C873 0.960 . S
H860 C873 0.961 . S
H861 C873 0.959 . S
H862 C876 0.929 . S
H863 C877 0.931 . S
H864 C879 0.930 . S
C865 H853 0.930 . S
C865 C866 1.399 . S
C865 C870 1.399 . S
C866 C865 1.399 . S
C866 C867 1.376 . S
C867 H854 0.930 . S
C867 C866 1.376 . S
C867 C868 1.388 . S
C868 H855 0.930 . S
C868 C867 1.388 . S
C868 C869 1.390 . S
C869 C868 1.390 . S
C869 C870 1.394 . S
C869 C875 1.465 . S
C870 C865 1.399 . S
C870 C869 1.394 . S
C870 C871 1.516 . S
C871 C870 1.516 . S
C871 C872 1.502 . S
C871 C873 1.561 . S
C871 C874 1.526 . S
C872 H856 0.959 . S
C872 H857 0.959 . S
C872 H858 0.961 . S
C872 C871 1.502 . S
C873 H859 0.960 . S
C873 H860 0.961 . S
C873 H861 0.959 . S
C873 C871 1.561 . S
C874 C871 1.526 . S
C874 C875 1.396 . S
C874 C879 1.390 . S
C875 C869 1.465 . S
C875 C874 1.396 . S
C875 C876 1.399 . S
C876 H862 0.929 . S
C876 C875 1.399 . S
C876 C877 1.385 . S
C877 H863 0.931 . S
C877 C876 1.385 . S
C877 C878 1.389 . S
C878 C877 1.389 . S
C878 C879 1.387 . S
C879 H864 0.930 . S
C879 C874 1.390 . S
C879 C878 1.387 . S
C245 C61 1.822 . S
C257 C81 1.924 . S
C284 C121 1.960 . S
C272 C70 1.838 . S
C311 C161 1.958 . S
C299 C43 1.855 . S
C338 C201 1.938 1_455 S
C326 C52 1.755 . S
C365 C90 1.933 1_565 S
C353 C25 1.804 . S
C380 C34 1.849 . S
C392 C130 1.954 . S
C407 C7 1.862 . S
C419 C170 1.969 . S
C434 C16 1.822 1_455 S
C446 C210 1.942 . S
C473 C87 0.479 . S
C461 C50 0.548 1_455 S
C500 C127 0.397 . S
C488 C59 0.517 1_545 S
C527 C167 0.553 . S
C515 C67 0.515 . S
C542 C41 0.523 . S
C554 C207 0.530 . S
C569 C14 0.449 . S
C581 C78 0.571 . S
C608 C118 0.562 . S
C596 C23 0.409 . S
C635 C158 0.454 . S
C623 C31 0.488 . S
C650 C5 0.411 . S
C662 C198 0.606 . S
C677 C49 2.027 1_455 S
C689 C91 2.289 . S
C704 C58 1.964 . S
C716 C131 2.200 . S
C743 C171 2.177 . S
C731 C68 1.977 . S
C770 C211 2.260 . S
C758 C40 2.068 . S
C785 C13 2.093 . S
C797 C82 2.298 . S
C824 C122 2.227 . S
C812 C22 1.944 . S
C851 C162 2.178 . S
C839 C32 1.942 . S
C866 C4 2.071 . S
C878 C202 2.255 . S
