# Generated by pormake.
# Topology cml, (3,6)-cn, num edge types: 1
# Building blocks:
#     Node 0, Type 0, BuildingBlock: PAMTOO_clean_linker_0, # of connection points: 3
#     Node 1, Type 0, BuildingBlock: PAMTOO_clean_linker_0, # of connection points: 3
#     Node 2, Type 0, BuildingBlock: PAMTOO_clean_linker_0, # of connection points: 3
#     Node 3, Type 0, BuildingBlock: PAMTOO_clean_linker_0, # of connection points: 3
#     Node 4, Type 0, BuildingBlock: PAMTOO_clean_linker_0, # of connection points: 3
#     Node 5, Type 0, BuildingBlock: PAMTOO_clean_linker_0, # of connection points: 3
#     Node 6, Type 0, BuildingBlock: PAMTOO_clean_linker_0, # of connection points: 3
#     Node 7, Type 0, BuildingBlock: PAMTOO_clean_linker_0, # of connection points: 3
#     Node 8, Type 1, BuildingBlock: OJICUG_clean_sbu_0, # of connection points: 6
#     Node 9, Type 1, BuildingBlock: OJICUG_clean_sbu_0, # of connection points: 6
#     Node 10, Type 1, BuildingBlock: OJICUG_clean_sbu_0, # of connection points: 6
#     Node 11, Type 1, BuildingBlock: OJICUG_clean_sbu_0, # of connection points: 6
#     Edge 12, Type (0, 1), BuildingBlock: XUDNAN_clean_linker_2, # of connection points: 2
#     Edge 13, Type (0, 1), BuildingBlock: XUDNAN_clean_linker_2, # of connection points: 2
#     Edge 14, Type (0, 1), BuildingBlock: XUDNAN_clean_linker_2, # of connection points: 2
#     Edge 15, Type (0, 1), BuildingBlock: XUDNAN_clean_linker_2, # of connection points: 2
#     Edge 16, Type (0, 1), BuildingBlock: XUDNAN_clean_linker_2, # of connection points: 2
#     Edge 17, Type (0, 1), BuildingBlock: XUDNAN_clean_linker_2, # of connection points: 2
#     Edge 18, Type (0, 1), BuildingBlock: XUDNAN_clean_linker_2, # of connection points: 2
#     Edge 19, Type (0, 1), BuildingBlock: XUDNAN_clean_linker_2, # of connection points: 2
#     Edge 20, Type (0, 1), BuildingBlock: XUDNAN_clean_linker_2, # of connection points: 2
#     Edge 21, Type (0, 1), BuildingBlock: XUDNAN_clean_linker_2, # of connection points: 2
#     Edge 22, Type (0, 1), BuildingBlock: XUDNAN_clean_linker_2, # of connection points: 2
#     Edge 23, Type (0, 1), BuildingBlock: XUDNAN_clean_linker_2, # of connection points: 2
#     Edge 24, Type (0, 1), BuildingBlock: XUDNAN_clean_linker_2, # of connection points: 2
#     Edge 25, Type (0, 1), BuildingBlock: XUDNAN_clean_linker_2, # of connection points: 2
#     Edge 26, Type (0, 1), BuildingBlock: XUDNAN_clean_linker_2, # of connection points: 2
#     Edge 27, Type (0, 1), BuildingBlock: XUDNAN_clean_linker_2, # of connection points: 2
#     Edge 28, Type (0, 1), BuildingBlock: XUDNAN_clean_linker_2, # of connection points: 2
#     Edge 29, Type (0, 1), BuildingBlock: XUDNAN_clean_linker_2, # of connection points: 2
#     Edge 30, Type (0, 1), BuildingBlock: XUDNAN_clean_linker_2, # of connection points: 2
#     Edge 31, Type (0, 1), BuildingBlock: XUDNAN_clean_linker_2, # of connection points: 2
#     Edge 32, Type (0, 1), BuildingBlock: XUDNAN_clean_linker_2, # of connection points: 2
#     Edge 33, Type (0, 1), BuildingBlock: XUDNAN_clean_linker_2, # of connection points: 2
#     Edge 34, Type (0, 1), BuildingBlock: XUDNAN_clean_linker_2, # of connection points: 2
#     Edge 35, Type (0, 1), BuildingBlock: XUDNAN_clean_linker_2, # of connection points: 2
# Relax obj value: 0.007
# Max RMSD: 0.054
# Mean RMSD: 0.044
data_MOF--net-cml--node1-OJICUG_clean_sbu_0--node2-PAMTOO_clean_linker_0--edge1-XUDNAN_clean_linker_2
_symmetry_space_group_name_H-M    P1
_symmetry_Int_Tables_number       1
_symmetry_cell_setting            triclinic
loop_
_symmetry_equiv_pos_as_xyz
'x, y, z'
_cell_length_a     40.63721
_cell_length_b     39.944614
_cell_length_c     34.829537
_cell_angle_alpha  89.867123
_cell_angle_beta   88.000883
_cell_angle_gamma 89.904787
loop_
_atom_site_label
_atom_site_type_symbol
_atom_site_fract_x
_atom_site_fract_y
_atom_site_fract_z
_atom_type_partial_charge
H0 H 0.3472 0.41261 0.041 0.0
H1 H 0.27859 0.40369 0.95051 0.0
H2 H 0.2798 0.32944 0.03995 0.0
H3 H 0.27399 0.30522 0.96057 0.0
C4 C 0.25484 0.3232 0.95133 0.0
O5 O 0.25102 0.34876 0.97764 0.0
H6 H 0.26293 0.33383 0.923 0.0
C7 C 0.32732 0.39915 0.02797 0.0
C8 C 0.31534 0.36939 0.04482 0.0
C9 C 0.31429 0.41167 0.99409 0.0
C10 C 0.28918 0.39403 0.97643 0.0
C11 C 0.27679 0.36443 0.99311 0.0
C12 C 0.28992 0.35208 0.0271 0.0
H13 H 0.66063 0.58568 0.5268 0.0
H14 H 0.74186 0.65264 0.54292 0.0
H15 H 0.73885 0.59332 0.44077 0.0
H16 H 0.80856 0.60717 0.46511 0.0
C17 C 0.80207 0.62883 0.48392 0.0
O18 O 0.77073 0.63967 0.47654 0.0
H19 H 0.80365 0.62058 0.51438 0.0
C20 C 0.68443 0.5955 0.51743 0.0
C21 C 0.69817 0.58573 0.48165 0.0
C22 C 0.69992 0.61946 0.54005 0.0
C23 C 0.72958 0.63382 0.52629 0.0
C24 C 0.74345 0.62422 0.49063 0.0
C25 C 0.72792 0.6002 0.46846 0.0
H26 H 0.66083 0.43215 0.03408 0.0
H27 H 0.72787 0.35054 0.05006 0.0
H28 H 0.72884 0.40241 0.94223 0.0
H29 H 0.72816 0.32795 0.94111 0.0
C30 C 0.74757 0.32397 0.96247 0.0
O31 O 0.75455 0.35357 0.98071 0.0
H32 H 0.73821 0.30535 0.98398 0.0
C33 C 0.68083 0.41665 0.02286 0.0
C34 C 0.69295 0.42083 0.9848 0.0
C35 C 0.69345 0.39156 0.04649 0.0
C36 C 0.71811 0.37011 0.03207 0.0
C37 C 0.73059 0.37412 0.99445 0.0
C38 C 0.71839 0.39955 0.97108 0.0
H39 H 0.32688 0.58068 0.54313 0.0
H40 H 0.24802 0.59345 0.46466 0.0
H41 H 0.25229 0.65574 0.56381 0.0
H42 H 0.18477 0.64602 0.5387 0.0
C43 C 0.19043 0.64039 0.5079 0.0
O44 O 0.22339 0.64582 0.49967 0.0
H45 H 0.18405 0.61379 0.50237 0.0
C46 C 0.30386 0.59224 0.53562 0.0
C47 C 0.29093 0.61837 0.55864 0.0
C48 C 0.28864 0.58252 0.50168 0.0
C49 C 0.2602 0.59984 0.49081 0.0
C50 C 0.24767 0.62642 0.51302 0.0
C51 C 0.26256 0.63518 0.54705 0.0
H52 H 0.84366 0.92408 0.02385 0.0
H53 H 0.76587 0.91103 0.94421 0.0
H54 H 0.76744 0.85097 0.04583 0.0
H55 H 0.75403 0.81225 0.98127 0.0
C56 C 0.7437 0.83134 0.9617 0.0
O57 O 0.73862 0.86091 0.98146 0.0
H58 H 0.76177 0.8352 0.93732 0.0
C59 C 0.82071 0.9125 0.01623 0.0
C60 C 0.80719 0.88691 0.0397 0.0
C61 C 0.80597 0.92185 0.9818 0.0
C62 C 0.77758 0.90476 0.97076 0.0
C63 C 0.76425 0.879 0.99367 0.0
C64 C 0.77846 0.87073 0.02837 0.0
H65 H 0.17012 0.07808 0.52597 0.0
H66 H 0.25486 0.14067 0.54156 0.0
H67 H 0.24961 0.08014 0.44087 0.0
H68 H 0.3214 0.09362 0.4644 0.0
C69 C 0.31408 0.11438 0.48415 0.0
O70 O 0.28312 0.12559 0.4756 0.0
H71 H 0.31452 0.10474 0.51417 0.0
C72 C 0.19443 0.08652 0.51659 0.0
C73 C 0.20792 0.07557 0.48106 0.0
C74 C 0.21112 0.10989 0.53896 0.0
C75 C 0.2416 0.12238 0.52519 0.0
C76 C 0.25519 0.11155 0.48994 0.0
C77 C 0.23866 0.08804 0.46818 0.0
H78 H 0.16097 0.92105 0.03425 0.0
H79 H 0.22569 0.8364 0.02096 0.0
H80 H 0.21556 0.90571 0.92744 0.0
H81 H 0.23265 0.82985 0.90106 0.0
C82 C 0.2391 0.82309 0.93086 0.0
O83 O 0.24585 0.8518 0.95095 0.0
H84 H 0.21779 0.80938 0.94432 0.0
C85 C 0.17823 0.90652 0.0166 0.0
C86 C 0.18658 0.91707 0.97908 0.0
C87 C 0.19187 0.87731 0.03159 0.0
C88 C 0.21445 0.85865 0.00925 0.0
C89 C 0.22276 0.86884 0.97163 0.0
C90 C 0.20853 0.89774 0.95633 0.0
H91 H 0.84711 0.09299 0.52368 0.0
H92 H 0.76532 0.10336 0.44895 0.0
H93 H 0.77479 0.17034 0.54363 0.0
H94 H 0.70806 0.14532 0.52682 0.0
C95 C 0.70942 0.14981 0.49523 0.0
O96 O 0.74137 0.15658 0.48308 0.0
H97 H 0.70079 0.12676 0.48085 0.0
C98 C 0.82408 0.10475 0.51651 0.0
C99 C 0.81249 0.13201 0.53859 0.0
C100 C 0.8074 0.09381 0.48414 0.0
C101 C 0.77876 0.11102 0.47374 0.0
C102 C 0.7674 0.13871 0.49499 0.0
C103 C 0.78406 0.14901 0.5274 0.0
Sc104 Sc -0.00047 0.8138 0.3096 0.0
Sc105 Sc 0.00162 0.90116 0.30048 0.0
Sc106 Sc 0.00157 0.86478 0.39262 0.0
O107 O 0.0008 0.85984 0.33438 0.0
C108 C 0.95167 0.80404 0.38377 0.0
C109 C 0.95232 0.85386 0.25558 0.0
C110 C 0.95135 0.92275 0.36769 0.0
C111 C 0.05144 0.85323 0.25539 0.0
C112 C 0.0495 0.80207 0.37694 0.0
C113 C 0.0503 0.92307 0.36609 0.0
O114 O 0.96243 0.79556 0.35042 0.0
O115 O 0.96583 0.88186 0.26202 0.0
O116 O 0.96403 0.90399 0.39302 0.0
O117 O 0.03723 0.82629 0.26627 0.0
O118 O 0.03874 0.82582 0.39839 0.0
O119 O 0.03749 0.92639 0.33361 0.0
O120 O 0.03793 0.7957 0.34438 0.0
O121 O 0.04203 0.8821 0.26625 0.0
O122 O 0.04074 0.90112 0.39043 0.0
O123 O 0.96081 0.82698 0.27203 0.0
O124 O 0.96292 0.82888 0.40184 0.0
O125 O 0.96178 0.92348 0.33288 0.0
Sc126 Sc 0.01031 0.19892 0.80649 0.0
Sc127 Sc 0.00651 0.11085 0.80199 0.0
Sc128 Sc 0.99554 0.15197 0.89106 0.0
O129 O 0.00409 0.15387 0.83315 0.0
C130 C 0.05015 0.20972 0.88241 0.0
C131 C 0.06248 0.15429 0.75892 0.0
C132 C 0.04696 0.09239 0.87616 0.0
C133 C 0.96463 0.15941 0.74913 0.0
C134 C 0.95188 0.21444 0.86815 0.0
C135 C 0.94916 0.09274 0.86356 0.0
O136 O 0.04536 0.21569 0.84719 0.0
O137 O 0.04885 0.12669 0.76804 0.0
O138 O 0.03287 0.11446 0.89728 0.0
O139 O 0.97604 0.18623 0.7631 0.0
O140 O 0.95752 0.18956 0.88982 0.0
O141 O 0.96446 0.08911 0.83145 0.0
O142 O 0.96964 0.22127 0.8384 0.0
O143 O 0.97336 0.13037 0.76012 0.0
O144 O 0.95743 0.11438 0.88813 0.0
O145 O 0.05146 0.18233 0.77078 0.0
O146 O 0.03308 0.18864 0.90192 0.0
O147 O 0.03986 0.08754 0.84126 0.0
Sc148 Sc 0.50386 0.3158 0.32456 0.0
Sc149 Sc 0.49141 0.40249 0.31285 0.0
Sc150 Sc 0.49508 0.36904 0.40574 0.0
O151 O 0.49665 0.36229 0.34778 0.0
C152 C 0.45429 0.30152 0.39628 0.0
C153 C 0.45138 0.34696 0.26818 0.0
C154 C 0.43893 0.42005 0.37949 0.0
C155 C 0.54947 0.36185 0.27018 0.0
C156 C 0.55111 0.31282 0.39603 0.0
C157 C 0.53734 0.4318 0.37715 0.0
O158 O 0.46732 0.2939 0.36361 0.0
O159 O 0.45802 0.37704 0.27664 0.0
O160 O 0.45314 0.40286 0.40494 0.0
O161 O 0.54181 0.33318 0.28378 0.0
O162 O 0.53647 0.3363 0.41441 0.0
O163 O 0.52463 0.43264 0.34439 0.0
O164 O 0.54237 0.30311 0.36318 0.0
O165 O 0.53323 0.38826 0.27795 0.0
O166 O 0.52945 0.41007 0.40255 0.0
O167 O 0.46594 0.32208 0.28292 0.0
O168 O 0.46145 0.32805 0.41435 0.0
O169 O 0.44945 0.42135 0.34479 0.0
Sc170 Sc 0.49553 0.69454 0.81211 0.0
Sc171 Sc 0.49636 0.60656 0.80884 0.0
Sc172 Sc 0.50383 0.64843 0.89748 0.0
O173 O 0.49866 0.64978 0.83951 0.0
C174 C 0.54846 0.71137 0.87506 0.0
C175 C 0.54362 0.65316 0.75603 0.0
C176 C 0.55117 0.58873 0.86958 0.0
C177 C 0.44471 0.65129 0.76508 0.0
C178 C 0.4496 0.70579 0.88661 0.0
C179 C 0.45272 0.58883 0.88394 0.0
O180 O 0.53331 0.71715 0.84453 0.0
O181 O 0.53223 0.62468 0.76635 0.0
O182 O 0.54272 0.61116 0.89394 0.0
O183 O 0.45706 0.67871 0.77575 0.0
O184 O 0.46471 0.68475 0.9072 0.0
O185 O 0.4606 0.58427 0.84864 0.0
O186 O 0.45784 0.7117 0.85173 0.0
O187 O 0.45586 0.62303 0.77521 0.0
O188 O 0.46662 0.61048 0.90462 0.0
O189 O 0.53298 0.68059 0.77022 0.0
O190 O 0.54155 0.68667 0.89698 0.0
O191 O 0.5364 0.58448 0.83842 0.0
H192 H 0.21521 0.31778 0.88882 0.0
H193 H 0.22254 0.28735 0.00774 0.0
H194 H 0.1696 0.25696 0.0042 0.0
H195 H 0.12683 0.32999 0.89045 0.0
H196 H 0.12224 0.31359 0.84276 0.0
H197 H 0.1601 0.33366 0.85507 0.0
H198 H 0.1929 0.28065 0.83418 0.0
H199 H 0.15517 0.2605 0.82168 0.0
H200 H 0.18194 0.24072 0.85516 0.0
H201 H 0.11664 0.22908 0.98708 0.0
H202 H 0.06817 0.20427 0.95746 0.0
H203 H 0.09569 0.25286 0.84931 0.0
C204 C 0.20556 0.30477 0.91408 0.0
C205 C 0.22275 0.3048 0.94862 0.0
C206 C 0.20955 0.28749 0.98111 0.0
C207 C 0.17957 0.27029 0.97934 0.0
C208 C 0.16318 0.27069 0.94484 0.0
C209 C 0.17573 0.2874 0.91277 0.0
C210 C 0.15369 0.2832 0.87893 0.0
C211 C 0.1399 0.31713 0.86606 0.0
C212 C 0.17202 0.26519 0.84552 0.0
C213 C 0.12689 0.26136 0.89691 0.0
C214 C 0.13273 0.25456 0.93498 0.0
C215 C 0.11173 0.23434 0.95733 0.0
C216 C 0.08421 0.22037 0.9402 0.0
C217 C 0.07793 0.22661 0.90101 0.0
C218 C 0.09954 0.2477 0.87936 0.0
H219 H 0.84036 0.64138 0.41883 0.0
H220 H 0.81391 0.68134 0.53131 0.0
H221 H 0.84798 0.73155 0.51719 0.0
H222 H 0.92497 0.67049 0.41531 0.0
H223 H 0.92494 0.67996 0.36469 0.0
H224 H 0.89894 0.64717 0.38418 0.0
H225 H 0.84811 0.67619 0.35573 0.0
H226 H 0.87391 0.70928 0.33656 0.0
H227 H 0.83907 0.71914 0.36798 0.0
H228 H 0.88382 0.77737 0.49039 0.0
H229 H 0.92171 0.81491 0.45437 0.0
H230 H 0.9251 0.74484 0.35899 0.0
C231 C 0.84224 0.66053 0.44061 0.0
C232 C 0.82525 0.65743 0.47646 0.0
C233 C 0.82743 0.6832 0.50403 0.0
C234 C 0.84648 0.71176 0.49615 0.0
C235 C 0.86294 0.71412 0.46048 0.0
C236 C 0.86121 0.68914 0.43324 0.0
C237 C 0.8813 0.6979 0.3972 0.0
C238 C 0.9092 0.67237 0.38993 0.0
C239 C 0.85928 0.7008 0.36231 0.0
C240 C 0.89464 0.73171 0.40846 0.0
C241 C 0.88359 0.74065 0.44498 0.0
C242 C 0.89271 0.77064 0.46178 0.0
C243 C 0.91422 0.79183 0.44099 0.0
C244 C 0.92651 0.78288 0.40377 0.0
C245 C 0.91613 0.75255 0.38725 0.0
H246 H 0.78841 0.27262 0.98394 0.0
H247 H 0.776 0.34805 0.89596 0.0
H248 H 0.8276 0.32904 0.86272 0.0
H249 H 0.87656 0.27862 0.98776 0.0
H250 H 0.88259 0.23434 0.99475 0.0
H251 H 0.84481 0.25391 0.01153 0.0
H252 H 0.81132 0.21193 0.97188 0.0
H253 H 0.84898 0.19216 0.95513 0.0
H254 H 0.8203 0.20783 0.92105 0.0
H255 H 0.88014 0.30184 0.83943 0.0
H256 H 0.92975 0.26768 0.82638 0.0
H257 H 0.90771 0.20948 0.92969 0.0
C258 C 0.79654 0.28492 0.95755 0.0
C259 C 0.77825 0.31145 0.94201 0.0
C260 C 0.78969 0.3274 0.90781 0.0
C261 C 0.8189 0.31685 0.88892 0.0
C262 C 0.83633 0.29044 0.90482 0.0
C263 C 0.82558 0.27463 0.93829 0.0
C264 C 0.84882 0.24678 0.94917 0.0
C265 C 0.8641 0.25385 0.98811 0.0
C266 C 0.83131 0.21266 0.9493 0.0
C267 C 0.87427 0.24933 0.91651 0.0
C268 C 0.86665 0.27476 0.89136 0.0
C269 C 0.88639 0.28187 0.85892 0.0
C270 C 0.91458 0.2623 0.85182 0.0
C271 C 0.92277 0.23583 0.87701 0.0
C272 C 0.90227 0.2295 0.90987 0.0
H273 H 0.14885 0.69312 0.52792 0.0
H274 H 0.18888 0.63767 0.43008 0.0
H275 H 0.1601 0.67565 0.38615 0.0
H276 H 0.06883 0.70769 0.48929 0.0
H277 H 0.06447 0.74908 0.50936 0.0
H278 H 0.08895 0.71814 0.53299 0.0
H279 H 0.13874 0.75862 0.53015 0.0
H280 H 0.11449 0.78954 0.5061 0.0
H281 H 0.15298 0.77543 0.48446 0.0
H282 H 0.12768 0.71883 0.35326 0.0
H283 H 0.08924 0.76215 0.33237 0.0
H284 H 0.06846 0.78989 0.45134 0.0
C285 C 0.15135 0.689 0.49724 0.0
C286 C 0.17095 0.66253 0.48213 0.0
C287 C 0.17381 0.65779 0.44194 0.0
C288 C 0.15776 0.6793 0.4169 0.0
C289 C 0.13887 0.70534 0.43259 0.0
C290 C 0.13526 0.71015 0.47177 0.0
C291 C 0.11249 0.73945 0.48093 0.0
C292 C 0.08187 0.72789 0.50453 0.0
C293 C 0.13078 0.76741 0.50164 0.0
C294 C 0.10372 0.75016 0.44074 0.0
C295 C 0.11956 0.73026 0.41341 0.0
C296 C 0.11508 0.73456 0.37435 0.0
C297 C 0.09313 0.75928 0.36281 0.0
C298 C 0.07568 0.77939 0.39021 0.0
C299 C 0.08163 0.77517 0.4297 0.0
H300 H 0.7082 0.77468 0.98166 0.0
H301 H 0.70816 0.86112 0.90617 0.0
H302 H 0.65694 0.84081 0.87755 0.0
H303 H 0.68092 0.71568 0.9135 0.0
H304 H 0.65558 0.69225 0.94746 0.0
H305 H 0.69109 0.71444 0.96346 0.0
H306 H 0.65439 0.74642 0.0135 0.0
H307 H 0.61875 0.72424 0.9977 0.0
H308 H 0.61904 0.76937 0.9978 0.0
H309 H 0.60793 0.81009 0.8554 0.0
H310 H 0.56307 0.77143 0.841 0.0
H311 H 0.59451 0.70434 0.93113 0.0
C312 C 0.69717 0.7894 0.95933 0.0
C313 C 0.71188 0.81944 0.94593 0.0
C314 C 0.69701 0.83807 0.91664 0.0
C315 C 0.66804 0.82674 0.90034 0.0
C316 C 0.65431 0.79682 0.91383 0.0
C317 C 0.66825 0.77842 0.94273 0.0
C318 C 0.64897 0.74661 0.95114 0.0
C319 C 0.67042 0.71541 0.94342 0.0
C320 C 0.63442 0.74668 0.99249 0.0
C321 C 0.62224 0.74982 0.92211 0.0
C322 C 0.6258 0.77903 0.90103 0.0
C323 C 0.60474 0.78724 0.87184 0.0
C324 C 0.57936 0.76497 0.86384 0.0
C325 C 0.57514 0.73475 0.88494 0.0
C326 C 0.59687 0.72728 0.91464 0.0
H327 H 0.35247 0.13139 0.42066 0.0
H328 H 0.32537 0.16354 0.53624 0.0
H329 H 0.35792 0.21539 0.52618 0.0
H330 H 0.43653 0.16419 0.41858 0.0
H331 H 0.43527 0.17658 0.36885 0.0
H332 H 0.41119 0.14148 0.38612 0.0
H333 H 0.35859 0.16955 0.36083 0.0
H334 H 0.38244 0.20494 0.34398 0.0
H335 H 0.3476 0.21116 0.37666 0.0
H336 H 0.39098 0.26445 0.50246 0.0
H337 H 0.42554 0.30633 0.46844 0.0
H338 H 0.43146 0.24191 0.36798 0.0
C339 C 0.35409 0.14906 0.44405 0.0
C340 C 0.33728 0.14333 0.47957 0.0
C341 C 0.33889 0.16734 0.50922 0.0
C342 C 0.35706 0.19683 0.50366 0.0
C343 C 0.37325 0.20188 0.46819 0.0
C344 C 0.37219 0.17856 0.43899 0.0
C345 C 0.39129 0.19039 0.40341 0.0
C346 C 0.4203 0.16676 0.39369 0.0
C347 C 0.36862 0.19424 0.36921 0.0
C348 C 0.40313 0.22407 0.41713 0.0
C349 C 0.39232 0.23024 0.45449 0.0
C350 C 0.39977 0.25984 0.47326 0.0
C351 C 0.41934 0.28354 0.45356 0.0
C352 C 0.43137 0.27747 0.41547 0.0
C353 C 0.42276 0.24739 0.39704 0.0
H354 H 0.28807 0.81782 0.875 0.0
H355 H 0.25815 0.78084 0.98789 0.0
H356 H 0.30993 0.74809 0.99057 0.0
H357 H 0.32629 0.74131 0.84056 0.0
H358 H 0.35892 0.76282 0.8143 0.0
H359 H 0.31941 0.78269 0.82166 0.0
H360 H 0.34778 0.83358 0.85261 0.0
H361 H 0.38733 0.81367 0.84575 0.0
H362 H 0.37357 0.82702 0.89304 0.0
H363 H 0.36535 0.71964 0.98048 0.0
H364 H 0.41866 0.6959 0.95742 0.0
H365 H 0.41168 0.75259 0.85137 0.0
C366 C 0.29231 0.80243 0.89999 0.0
C367 C 0.26904 0.8011 0.9309 0.0
C368 C 0.27558 0.78146 0.96365 0.0
C369 C 0.30491 0.76302 0.96548 0.0
C370 C 0.32743 0.76482 0.93443 0.0
C371 C 0.32136 0.7839 0.90224 0.0
C372 C 0.34943 0.7816 0.87274 0.0
C373 C 0.33781 0.76618 0.8351 0.0
C374 C 0.36547 0.81602 0.86564 0.0
C375 C 0.37223 0.75818 0.89328 0.0
C376 C 0.35925 0.74883 0.92886 0.0
C377 C 0.37579 0.72685 0.95267 0.0
C378 C 0.40613 0.7136 0.93939 0.0
C379 C 0.41951 0.72238 0.9026 0.0
C380 C 0.40236 0.74537 0.87969 0.0
H381 H 0.67195 0.15861 0.4316 0.0
H382 H 0.69949 0.20723 0.53679 0.0
H383 H 0.66423 0.25581 0.52137 0.0
H384 H 0.6692 0.23403 0.37293 0.0
H385 H 0.6342 0.22019 0.34685 0.0
H386 H 0.66245 0.18995 0.36557 0.0
H387 H 0.61415 0.16035 0.4024 0.0
H388 H 0.58578 0.1904 0.38368 0.0
H389 H 0.58782 0.18427 0.43483 0.0
H390 H 0.62412 0.29778 0.49567 0.0
H391 H 0.58208 0.3301 0.46197 0.0
H392 H 0.5812 0.2541 0.37298 0.0
C393 C 0.67046 0.17954 0.45131 0.0
C394 C 0.68787 0.17914 0.48569 0.0
C395 C 0.68586 0.20705 0.51061 0.0
C396 C 0.66605 0.2347 0.502 0.0
C397 C 0.64875 0.23414 0.46812 0.0
C398 C 0.65083 0.20732 0.44312 0.0
C399 C 0.62921 0.21264 0.40906 0.0
C400 C 0.65001 0.21431 0.37137 0.0
C401 C 0.60267 0.1853 0.40742 0.0
C402 C 0.61426 0.2464 0.41907 0.0
C403 C 0.62597 0.25846 0.45314 0.0
C404 C 0.61493 0.28868 0.46884 0.0
C405 C 0.59099 0.30685 0.44946 0.0
C406 C 0.57829 0.29478 0.41469 0.0
C407 C 0.59053 0.26429 0.39924 0.0
H408 H 0.3463 0.42367 0.92481 0.0
H409 H 0.31142 0.47154 0.03009 0.0
H410 H 0.33863 0.52421 0.00963 0.0
H411 H 0.42439 0.45842 0.92341 0.0
H412 H 0.42869 0.46408 0.87212 0.0
H413 H 0.40221 0.43175 0.89162 0.0
H414 H 0.35315 0.45612 0.85504 0.0
H415 H 0.37959 0.48842 0.83509 0.0
H416 H 0.34212 0.49955 0.86124 0.0
H417 H 0.37451 0.56872 0.9823 0.0
H418 H 0.41644 0.60361 0.949 0.0
H419 H 0.42927 0.52755 0.86078 0.0
C420 C 0.34361 0.44566 0.94279 0.0
C421 C 0.3265 0.44397 0.97871 0.0
C422 C 0.32422 0.47269 0.0023 0.0
C423 C 0.33953 0.50263 0.99089 0.0
C424 C 0.35703 0.50336 0.95581 0.0
C425 C 0.35904 0.47577 0.9319 0.0
C426 C 0.38197 0.4825 0.89742 0.0
C427 C 0.41103 0.45772 0.89609 0.0
C428 C 0.36307 0.4816 0.85998 0.0
C429 C 0.39325 0.51773 0.90637 0.0
C430 C 0.37823 0.52931 0.93999 0.0
C431 C 0.38611 0.56017 0.95565 0.0
C432 C 0.41014 0.57971 0.93661 0.0
C433 C 0.42614 0.56836 0.90223 0.0
C434 C 0.41717 0.53711 0.88671 0.0
H435 H 0.66558 0.52866 0.50423 0.0
H436 H 0.68835 0.59082 0.40445 0.0
H437 H 0.6519 0.55599 0.36582 0.0
H438 H 0.65786 0.44868 0.45273 0.0
H439 H 0.62403 0.435 0.4837 0.0
H440 H 0.65502 0.4623 0.50205 0.0
H441 H 0.60959 0.50465 0.52336 0.0
H442 H 0.57852 0.47771 0.50473 0.0
H443 H 0.58177 0.52047 0.4884 0.0
H444 H 0.60905 0.51816 0.33999 0.0
H445 H 0.56487 0.47797 0.32744 0.0
H446 H 0.56908 0.44126 0.44476 0.0
C447 C 0.66324 0.53467 0.47411 0.0
C448 C 0.67986 0.56237 0.45729 0.0
C449 C 0.67628 0.56939 0.41777 0.0
C450 C 0.65547 0.54989 0.39568 0.0
C451 C 0.63863 0.52344 0.41353 0.0
C452 C 0.64253 0.51559 0.45174 0.0
C453 C 0.62024 0.48709 0.46459 0.0
C454 C 0.6405 0.45645 0.47646 0.0
C455 C 0.5961 0.49816 0.49719 0.0
C456 C 0.60259 0.48064 0.42783 0.0
C457 C 0.61371 0.50173 0.39869 0.0
C458 C 0.60035 0.50127 0.36246 0.0
C459 C 0.5751 0.47844 0.35572 0.0
C460 C 0.56339 0.45641 0.38514 0.0
C461 C 0.57746 0.45764 0.42163 0.0
H462 H 0.66755 0.48315 0.00412 0.0
H463 H 0.68302 0.4157 0.90735 0.0
H464 H 0.6545 0.45538 0.86595 0.0
H465 H 0.58628 0.5029 0.98343 0.0
H466 H 0.58829 0.54591 0.99871 0.0
H467 H 0.61463 0.51506 0.01953 0.0
H468 H 0.66583 0.55052 -0.00027 0.0
H469 H 0.63959 0.58153 0.97877 0.0
H470 H 0.67245 0.56268 0.95019 0.0
H471 H 0.62002 0.49911 0.83635 0.0
H472 H 0.57986 0.54273 0.82097 0.0
H473 H 0.58327 0.58055 0.93767 0.0
C474 C 0.66519 0.47668 0.97419 0.0
C475 C 0.67796 0.44619 0.95914 0.0
C476 C 0.67436 0.43911 0.91961 0.0
C477 C 0.65798 0.46147 0.89579 0.0
C478 C 0.64515 0.49082 0.91181 0.0
C479 C 0.64847 0.49848 0.9501 0.0
C480 C 0.62969 0.53013 0.96092 0.0
C481 C 0.60315 0.52306 0.9925 0.0
C482 C 0.65331 0.55786 0.97312 0.0
C483 C 0.61448 0.53848 0.92295 0.0
C484 C 0.62426 0.51578 0.8949 0.0
C485 C 0.6124 0.51721 0.85796 0.0
C486 C 0.58945 0.5421 0.84959 0.0
C487 C 0.57822 0.56515 0.87813 0.0
C488 C 0.59149 0.56358 0.91511 0.0
H489 H 0.32298 0.526 0.52316 0.0
H490 H 0.29073 0.57994 0.42257 0.0
H491 H 0.32002 0.53938 0.38091 0.0
H492 H 0.40351 0.51366 0.48754 0.0
H493 H 0.4085 0.47282 0.50872 0.0
H494 H 0.38048 0.5025 0.53086 0.0
H495 H 0.33305 0.45944 0.52742 0.0
H496 H 0.36099 0.42957 0.50519 0.0
H497 H 0.32371 0.44108 0.48184 0.0
H498 H 0.35678 0.49673 0.35 0.0
H499 H 0.40045 0.45656 0.33188 0.0
H500 H 0.41242 0.43231 0.45231 0.0
C501 C 0.32179 0.52929 0.49238 0.0
C502 C 0.30406 0.55624 0.47641 0.0
C503 C 0.30321 0.55919 0.43585 0.0
C504 C 0.32001 0.53632 0.41179 0.0
C505 C 0.33778 0.51064 0.42857 0.0
C506 C 0.33889 0.50703 0.46792 0.0
C507 C 0.36242 0.47927 0.47862 0.0
C508 C 0.39038 0.49289 0.50285 0.0
C509 C 0.34393 0.45064 0.4995 0.0
C510 C 0.37506 0.4685 0.43909 0.0
C511 C 0.36002 0.48655 0.41067 0.0
C512 C 0.36854 0.48224 0.37197 0.0
C513 C 0.3935 0.45935 0.36201 0.0
C514 C 0.41006 0.44119 0.39064 0.0
C515 C 0.40016 0.4455 0.42968 0.0
H516 H 0.83612 0.98026 0.00342 0.0
H517 H 0.81195 0.9222 0.90297 0.0
H518 H 0.84083 0.96347 0.86143 0.0
H519 H 0.83155 0.06374 0.95877 0.0
H520 H 0.86638 0.07918 0.98402 0.0
H521 H 0.84023 0.04743 0.00566 0.0
H522 H 0.89094 0.00896 0.01379 0.0
H523 H 0.9172 0.04055 0.99229 0.0
H524 H 0.91693 0.99894 0.97238 0.0
H525 H 0.87651 0.00777 0.83125 0.0
H526 H 0.91735 0.05139 0.81456 0.0
H527 H 0.9199 0.08007 0.93465 0.0
C528 C 0.83665 0.9763 0.97266 0.0
C529 C 0.82145 0.948 0.95655 0.0
C530 C 0.8227 0.94395 0.91608 0.0
C531 C 0.83921 0.96722 0.8922 0.0
C532 C 0.85434 0.99447 0.90912 0.0
C533 C 0.85319 0.99916 0.94841 0.0
C534 C 0.87352 0.02918 0.95951 0.0
C535 C 0.8516 0.05651 0.97809 0.0
C536 C 0.90129 0.01877 0.98604 0.0
C537 C 0.88703 0.04008 0.92037 0.0
C538 C 0.87531 0.01995 0.89168 0.0
C539 C 0.88559 0.02393 0.8534 0.0
C540 C 0.9089 0.04876 0.84425 0.0
C541 C 0.92186 0.06927 0.87326 0.0
C542 C 0.9102 0.06516 0.91172 0.0
H543 H 0.17041 0.02109 0.50317 0.0
H544 H 0.20146 0.07973 0.40321 0.0
H545 H 0.16729 0.04454 0.36251 0.0
H546 H 0.16568 0.94021 0.45464 0.0
H547 H 0.12938 0.92746 0.48205 0.0
H548 H 0.15855 0.95539 0.50293 0.0
H549 H 0.11196 0.99852 0.5169 0.0
H550 H 0.08268 0.97078 0.49603 0.0
H551 H 0.08733 0.01293 0.47808 0.0
H552 H 0.12717 0.00595 0.33345 0.0
H553 H 0.08383 0.96587 0.31749 0.0
H554 H 0.07773 0.9327 0.43646 0.0
C555 C 0.17017 0.02642 0.47269 0.0
C556 C 0.18887 0.05303 0.45636 0.0
C557 C 0.18793 0.05909 0.41629 0.0
C558 C 0.16844 0.03936 0.39294 0.0
C559 C 0.15004 0.01365 0.41005 0.0
C560 C 0.15077 0.00704 0.44896 0.0
C561 C 0.12746 0.97889 0.46035 0.0
C562 C 0.14641 0.94869 0.47591 0.0
C563 C 0.10078 0.99102 0.48956 0.0
C564 C 0.11308 0.97114 0.42185 0.0
C565 C 0.12662 0.99137 0.39323 0.0
C566 C 0.11653 0.98977 0.35553 0.0
C567 C 0.09178 0.96698 0.34681 0.0
C568 C 0.07731 0.94608 0.37571 0.0
C569 C 0.08842 0.9481 0.41365 0.0
H570 H 0.15338 0.92774 0.91281 0.0
H571 H 0.18817 0.97756 0.01414 0.0
H572 H 0.16003 0.02951 0.99518 0.0
H573 H 0.15726 0.00238 0.84783 0.0
H574 H 0.11999 0.99085 0.82462 0.0
H575 H 0.14642 0.95886 0.8433 0.0
H576 H 0.09721 0.93506 0.88397 0.0
H577 H 0.07073 0.96707 0.86571 0.0
H578 H 0.07471 0.96223 0.91681 0.0
H579 H 0.12382 0.07337 0.96992 0.0
H580 H 0.08228 0.10791 0.93868 0.0
H581 H 0.0703 0.03052 0.85287 0.0
C582 C 0.15573 0.94992 0.9303 0.0
C583 C 0.17296 0.94888 0.96481 0.0
C584 C 0.17498 0.97801 0.98763 0.0
C585 C 0.15923 0.0076 0.97703 0.0
C586 C 0.14165 0.00764 0.94344 0.0
C587 C 0.13993 0.97973 0.9202 0.0
C588 C 0.11722 0.98589 0.88725 0.0
C589 C 0.13637 0.98441 0.84845 0.0
C590 C 0.08826 0.96109 0.88854 0.0
C591 C 0.10576 0.02123 0.89633 0.0
C592 C 0.12046 0.03331 0.92868 0.0
C593 C 0.11246 0.06443 0.94425 0.0
C594 C 0.08865 0.08376 0.92641 0.0
C595 C 0.07305 0.07194 0.8933 0.0
C596 C 0.08209 0.0404 0.87784 0.0
H597 H 0.84055 0.03742 0.50807 0.0
H598 H 0.80724 0.08752 0.40549 0.0
H599 H 0.83515 0.04474 0.36548 0.0
H600 H 0.9201 0.02213 0.47168 0.0
H601 H 0.92478 0.98208 0.49483 0.0
H602 H 0.89757 0.01303 0.51597 0.0
H603 H 0.84932 0.97073 0.51573 0.0
H604 H 0.87644 0.93954 0.49464 0.0
H605 H 0.839 0.9507 0.47142 0.0
H606 H 0.87102 0.00068 0.33628 0.0
H607 H 0.91347 0.95896 0.31938 0.0
H608 H 0.92695 0.93897 0.44056 0.0
C609 C 0.83882 0.03937 0.4772 0.0
C610 C 0.82136 0.06597 0.46012 0.0
C611 C 0.81966 0.06715 0.41955 0.0
C612 C 0.83565 0.043 0.39646 0.0
C613 C 0.85337 0.01782 0.41426 0.0
C614 C 0.85507 0.01578 0.4537 0.0
C615 C 0.87831 0.98809 0.46541 0.0
C616 C 0.90688 0.00219 0.48831 0.0
C617 C 0.85964 0.96063 0.48814 0.0
C618 C 0.89018 0.97555 0.42629 0.0
C619 C 0.875 0.99273 0.39727 0.0
C620 C 0.88286 0.98685 0.35872 0.0
C621 C 0.9072 0.96312 0.34947 0.0
C622 C 0.92377 0.94562 0.37863 0.0
C623 C 0.91465 0.95165 0.41758 0.0
H624 H 0.33094 0.4062 0.10757 0.0
H625 H 0.33284 0.30487 0.0631 0.0
H626 H 0.363 0.28616 0.11994 0.0
H627 H 0.41095 0.40663 0.1378 0.0
H628 H 0.4026 0.43167 0.18003 0.0
H629 H 0.37692 0.43567 0.13928 0.0
H630 H 0.3253 0.42243 0.18248 0.0
H631 H 0.35087 0.4185 0.2235 0.0
H632 H 0.32416 0.38459 0.21081 0.0
H633 H 0.39875 0.2803 0.17829 0.0
H634 H 0.43618 0.28777 0.23215 0.0
H635 H 0.41105 0.39343 0.23634 0.0
C636 C 0.33731 0.37996 0.10998 0.0
C637 C 0.32963 0.35699 0.08088 0.0
C638 C 0.33817 0.32283 0.08528 0.0
C639 C 0.35538 0.31202 0.11739 0.0
C640 C 0.36353 0.33564 0.14494 0.0
C641 C 0.35448 0.36887 0.1416 0.0
C642 C 0.36829 0.38994 0.1732 0.0
C643 C 0.39104 0.41758 0.15657 0.0
C644 C 0.34049 0.40473 0.19903 0.0
C645 C 0.38746 0.36363 0.19426 0.0
C646 C 0.38413 0.33236 0.17799 0.0
C647 C 0.40115 0.30461 0.19154 0.0
C648 C 0.42238 0.3091 0.22214 0.0
C649 C 0.42665 0.34119 0.23855 0.0
C650 C 0.40839 0.36853 0.22464 0.0
H651 H 0.66739 0.58098 0.5944 0.0
H652 H 0.69423 0.68372 0.56724 0.0
H653 H 0.6606 0.70313 0.62323 0.0
H654 H 0.58511 0.59727 0.61676 0.0
H655 H 0.58105 0.56708 0.65518 0.0
H656 H 0.61117 0.56069 0.61681 0.0
H657 H 0.65736 0.55644 0.66608 0.0
H658 H 0.6273 0.5625 0.70473 0.0
H659 H 0.66252 0.58978 0.70015 0.0
H660 H 0.61937 0.71177 0.67746 0.0
H661 H 0.57499 0.70909 0.72734 0.0
H662 H 0.5736 0.60065 0.71756 0.0
C663 C 0.66659 0.60755 0.60051 0.0
C664 C 0.68353 0.63083 0.57647 0.0
C665 C 0.68194 0.66535 0.58558 0.0
C666 C 0.66274 0.67664 0.61721 0.0
C667 C 0.64543 0.65307 0.63946 0.0
C668 C 0.6474 0.61922 0.63171 0.0
C669 C 0.62452 0.59926 0.65821 0.0
C670 C 0.59896 0.57995 0.63537 0.0
C671 C 0.6441 0.5756 0.68381 0.0
C672 C 0.60866 0.62729 0.6814 0.0
C673 C 0.62131 0.65808 0.67042 0.0
C674 C 0.60953 0.68777 0.68662 0.0
C675 C 0.58418 0.68595 0.71485 0.0
C676 C 0.57069 0.65463 0.72647 0.0
C677 C 0.58337 0.62498 0.70952 0.0
H678 H 0.6574 0.34 0.07767 0.0
H679 H 0.69953 0.43651 0.10368 0.0
H680 H 0.67354 0.4343 0.16888 0.0
H681 H 0.58116 0.35588 0.12014 0.0
H682 H 0.57373 0.31433 0.13875 0.0
H683 H 0.60047 0.32019 0.09708 0.0
H684 H 0.64739 0.28912 0.13099 0.0
H685 H 0.62069 0.28309 0.17288 0.0
H686 H 0.65998 0.30332 0.17732 0.0
H687 H 0.63798 0.42576 0.22634 0.0
H688 H 0.59286 0.41264 0.27287 0.0
H689 H 0.57208 0.32149 0.21081 0.0
C690 C 0.66184 0.36005 0.09771 0.0
C691 C 0.68072 0.38821 0.08635 0.0
C692 C 0.68535 0.41467 0.1124 0.0
C693 C 0.67085 0.4135 0.1494 0.0
C694 C 0.65178 0.38571 0.15968 0.0
C695 C 0.64717 0.35942 0.1347 0.0
C696 C 0.62228 0.33459 0.15137 0.0
C697 C 0.59266 0.33107 0.12529 0.0
C698 C 0.63857 0.3005 0.15857 0.0
C699 C 0.61264 0.35177 0.18887 0.0
C700 C 0.63052 0.38089 0.19327 0.0
C701 C 0.62425 0.40275 0.22366 0.0
C702 C 0.5985 0.39516 0.24979 0.0
C703 C 0.57927 0.36598 0.24541 0.0
C704 C 0.58696 0.34353 0.21518 0.0
H705 H 0.32324 0.5795 0.61083 0.0
H706 H 0.29958 0.68283 0.58368 0.0
H707 H 0.33168 0.70172 0.63812 0.0
H708 H 0.32492 0.58855 0.71577 0.0
H709 H 0.35976 0.56091 0.7196 0.0
H710 H 0.33123 0.55502 0.68173 0.0
H711 H 0.37934 0.55869 0.63104 0.0
H712 H 0.40797 0.56458 0.66868 0.0
H713 H 0.40585 0.59484 0.63037 0.0
H714 H 0.36981 0.70993 0.69164 0.0
H715 H 0.41281 0.70709 0.73955 0.0
H716 H 0.41412 0.59859 0.73011 0.0
C717 C 0.32457 0.6061 0.61643 0.0
C718 C 0.3085 0.62959 0.59307 0.0
C719 C 0.31089 0.66419 0.6016 0.0
C720 C 0.32925 0.67524 0.63239 0.0
C721 C 0.34518 0.65144 0.65435 0.0
C722 C 0.34309 0.6176 0.64678 0.0
C723 C 0.36473 0.59744 0.67281 0.0
C724 C 0.34391 0.5741 0.69904 0.0
C725 C 0.39103 0.57774 0.64932 0.0
C726 C 0.37994 0.62534 0.69553 0.0
C727 C 0.36795 0.65624 0.68478 0.0
C728 C 0.37922 0.68588 0.70055 0.0
C729 C 0.40376 0.68396 0.7277 0.0
C730 C 0.41699 0.6526 0.73863 0.0
C731 C 0.40446 0.62294 0.72261 0.0
H732 H 0.83945 0.92559 0.09182 0.0
H733 H 0.81453 0.82254 0.06589 0.0
H734 H 0.84505 0.80349 0.12173 0.0
H735 H 0.92144 0.90868 0.11561 0.0
H736 H 0.92254 0.93937 0.1534 0.0
H737 H 0.8956 0.94535 0.11404 0.0
H738 H 0.84569 0.95067 0.16206 0.0
H739 H 0.87252 0.94467 0.20163 0.0
H740 H 0.83744 0.9177 0.19648 0.0
H741 H 0.88109 0.79513 0.17768 0.0
H742 H 0.92144 0.79798 0.22878 0.0
H743 H 0.9249 0.90624 0.21651 0.0
C744 C 0.84025 0.89902 0.09792 0.0
C745 C 0.82422 0.87565 0.07457 0.0
C746 C 0.82587 0.84109 0.08377 0.0
C747 C 0.84333 0.82995 0.11534 0.0
C748 C 0.85913 0.85362 0.1374 0.0
C749 C 0.85782 0.88742 0.1291 0.0
C750 C 0.87869 0.90746 0.15588 0.0
C751 C 0.9062 0.92631 0.13338 0.0
C752 C 0.8573 0.93154 0.18047 0.0
C753 C 0.89247 0.87954 0.18003 0.0
C754 C 0.88056 0.84873 0.16921 0.0
C755 C 0.89045 0.81913 0.18661 0.0
C756 C 0.91341 0.82104 0.21561 0.0
C757 C 0.92645 0.85232 0.22672 0.0
C758 C 0.91544 0.88192 0.20882 0.0
H759 H 0.17637 0.07393 0.59392 0.0
H760 H 0.21017 0.17443 0.56609 0.0
H761 H 0.1808 0.19586 0.62417 0.0
H762 H 0.09656 0.09691 0.6222 0.0
H763 H 0.09217 0.06642 0.66026 0.0
H764 H 0.11964 0.05834 0.61974 0.0
H765 H 0.1678 0.04931 0.66559 0.0
H766 H 0.14041 0.0574 0.70634 0.0
H767 H 0.17756 0.08159 0.69943 0.0
H768 H 0.14309 0.20721 0.68139 0.0
H769 H 0.09955 0.20766 0.73258 0.0
H770 H 0.08958 0.09984 0.72182 0.0
C771 C 0.17789 0.10041 0.6002 0.0
C772 C 0.19575 0.12244 0.5755 0.0
C773 C 0.19719 0.15691 0.58491 0.0
C774 C 0.18048 0.16936 0.61778 0.0
C775 C 0.16256 0.14702 0.64105 0.0
C776 C 0.16127 0.11324 0.63273 0.0
C777 C 0.13824 0.09491 0.66057 0.0
C778 C 0.10999 0.07818 0.63943 0.0
C779 C 0.15715 0.06929 0.6844 0.0
C780 C 0.12597 0.12382 0.68514 0.0
C781 C 0.1406 0.1536 0.67379 0.0
C782 C 0.13176 0.18398 0.69086 0.0
C783 C 0.10694 0.18397 0.71988 0.0
C784 C 0.09108 0.15379 0.73134 0.0
C785 C 0.10132 0.12333 0.71408 0.0
H786 H 0.14351 0.83399 0.05387 0.0
H787 H 0.21733 0.90075 0.09695 0.0
H788 H 0.19394 0.89349 0.16297 0.0
H789 H 0.07949 0.8649 0.10627 0.0
H790 H 0.05823 0.82608 0.11611 0.0
H791 H 0.08497 0.82982 0.07417 0.0
H792 H 0.11868 0.77847 0.09585 0.0
H793 H 0.09172 0.77426 0.13781 0.0
H794 H 0.13554 0.77796 0.14304 0.0
H795 H 0.15659 0.88892 0.21988 0.0
H796 H 0.10899 0.885 0.26563 0.0
H797 H 0.0594 0.81944 0.18742 0.0
C798 C 0.1555 0.84572 0.07765 0.0
C799 C 0.18253 0.86724 0.07102 0.0
C800 C 0.19703 0.88358 0.10206 0.0
C801 C 0.18391 0.87957 0.13948 0.0
C802 C 0.15646 0.85901 0.14515 0.0
C803 C 0.14263 0.84192 0.1152 0.0
C804 C 0.11084 0.82487 0.12821 0.0
C805 C 0.08168 0.83718 0.10481 0.0
C806 C 0.11442 0.78661 0.12611 0.0
C807 C 0.10794 0.83666 0.16949 0.0
C808 C 0.13481 0.85592 0.17876 0.0
C809 C 0.13594 0.87307 0.21345 0.0
C810 C 0.10878 0.87087 0.23911 0.0
C811 C 0.08103 0.85149 0.23007 0.0
C812 C 0.08088 0.83355 0.19529 0.0
H813 H 0.84223 0.09294 0.59228 0.0
H814 H 0.82581 0.19659 0.56022 0.0
H815 H 0.86062 0.21495 0.6129 0.0
H816 H 0.84468 0.10577 0.69588 0.0
H817 H 0.87698 0.07536 0.70154 0.0
H818 H 0.8483 0.07061 0.66364 0.0
H819 H 0.8969 0.06824 0.6135 0.0
H820 H 0.92571 0.07312 0.65117 0.0
H821 H 0.92636 0.10195 0.61126 0.0
H822 H 0.90015 0.22182 0.66625 0.0
H823 H 0.94069 0.2169 0.71695 0.0
H824 H 0.93257 0.10851 0.71264 0.0
C825 C 0.8458 0.11953 0.59639 0.0
C826 C 0.83119 0.14332 0.5721 0.0
C827 C 0.83628 0.17789 0.57877 0.0
C828 C 0.85619 0.18856 0.60848 0.0
C829 C 0.87076 0.16438 0.63129 0.0
C830 C 0.8657 0.13058 0.62569 0.0
C831 C 0.88536 0.10962 0.65302 0.0
C832 C 0.86246 0.08914 0.68013 0.0
C833 C 0.91004 0.0869 0.63091 0.0
C834 C 0.90276 0.13691 0.67447 0.0
C835 C 0.89382 0.16831 0.6617 0.0
C836 C 0.90718 0.19737 0.67664 0.0
C837 C 0.93028 0.19427 0.70541 0.0
C838 C 0.93995 0.16229 0.71889 0.0
C839 C 0.92579 0.13332 0.70312 0.0
loop_
_geom_bond_atom_site_label_1
_geom_bond_atom_site_label_2
_geom_bond_distance
_geom_bond_site_symmetry_2
_ccdc_geom_bond_type
H0 C7 0.929 . S
H1 C10 0.930 . S
H2 C12 0.929 . S
H3 C4 0.969 . S
C4 H3 0.969 . S
C4 O5 1.550 1_556 S
C4 H6 0.973 . S
O5 C4 1.550 1_554 S
O5 C11 1.412 . S
H6 C4 0.973 . S
C7 H0 0.929 . S
C7 C8 1.400 . S
C7 C9 1.364 1_554 S
C8 C7 1.400 . S
C8 C12 1.377 . S
C9 C7 1.364 1_556 S
C9 C10 1.374 . S
C10 H1 0.930 . S
C10 C9 1.374 . S
C10 C11 1.383 1_556 S
C11 O5 1.412 . S
C11 C10 1.383 1_554 S
C11 C12 1.394 . S
C12 H2 0.929 . S
C12 C8 1.377 . S
C12 C11 1.394 . S
H13 C20 0.929 . S
H14 C23 0.930 . S
H15 C25 0.929 . S
H16 C17 0.969 . S
C17 H16 0.969 . S
C17 O18 1.550 . S
C17 H19 0.973 . S
O18 C17 1.550 . S
O18 C24 1.412 . S
H19 C17 0.973 . S
C20 H13 0.929 . S
C20 C21 1.400 . S
C20 C22 1.364 . S
C21 C20 1.400 . S
C21 C25 1.377 . S
C22 C20 1.364 . S
C22 C23 1.374 . S
C23 H14 0.930 . S
C23 C22 1.374 . S
C23 C24 1.383 . S
C24 O18 1.412 . S
C24 C23 1.383 . S
C24 C25 1.394 . S
C25 H15 0.929 . S
C25 C21 1.377 . S
C25 C24 1.394 . S
H26 C33 0.929 . S
H27 C36 0.930 . S
H28 C38 0.929 . S
H29 C30 0.969 . S
C30 H29 0.969 . S
C30 O31 1.550 . S
C30 H32 0.973 1_556 S
O31 C30 1.550 . S
O31 C37 1.412 . S
H32 C30 0.973 1_554 S
C33 H26 0.929 . S
C33 C34 1.400 1_554 S
C33 C35 1.364 . S
C34 C33 1.400 1_556 S
C34 C38 1.377 . S
C35 C33 1.364 . S
C35 C36 1.374 . S
C36 H27 0.930 . S
C36 C35 1.374 . S
C36 C37 1.383 1_554 S
C37 O31 1.412 . S
C37 C36 1.383 1_556 S
C37 C38 1.394 . S
C38 H28 0.929 . S
C38 C34 1.377 . S
C38 C37 1.394 . S
H39 C46 0.929 . S
H40 C49 0.930 . S
H41 C51 0.929 . S
H42 C43 0.969 . S
C43 H42 0.969 . S
C43 O44 1.550 . S
C43 H45 0.973 . S
O44 C43 1.550 . S
O44 C50 1.412 . S
H45 C43 0.973 . S
C46 H39 0.929 . S
C46 C47 1.400 . S
C46 C48 1.364 . S
C47 C46 1.400 . S
C47 C51 1.377 . S
C48 C46 1.364 . S
C48 C49 1.374 . S
C49 H40 0.930 . S
C49 C48 1.374 . S
C49 C50 1.383 . S
C50 O44 1.412 . S
C50 C49 1.383 . S
C50 C51 1.394 . S
C51 H41 0.929 . S
C51 C47 1.377 . S
C51 C50 1.394 . S
H52 C59 0.929 . S
H53 C62 0.930 . S
H54 C64 0.929 . S
H55 C56 0.969 . S
C56 H55 0.969 . S
C56 O57 1.550 1_556 S
C56 H58 0.973 . S
O57 C56 1.550 1_554 S
O57 C63 1.412 . S
H58 C56 0.973 . S
C59 H52 0.929 . S
C59 C60 1.400 . S
C59 C61 1.364 1_554 S
C60 C59 1.400 . S
C60 C64 1.377 . S
C61 C59 1.364 1_556 S
C61 C62 1.374 . S
C62 H53 0.930 . S
C62 C61 1.374 . S
C62 C63 1.383 1_556 S
C63 O57 1.412 . S
C63 C62 1.383 1_554 S
C63 C64 1.394 . S
C64 H54 0.929 . S
C64 C60 1.377 . S
C64 C63 1.394 . S
H65 C72 0.929 . S
H66 C75 0.930 . S
H67 C77 0.929 . S
H68 C69 0.969 . S
C69 H68 0.969 . S
C69 O70 1.550 . S
C69 H71 0.973 . S
O70 C69 1.550 . S
O70 C76 1.412 . S
H71 C69 0.973 . S
C72 H65 0.929 . S
C72 C73 1.400 . S
C72 C74 1.364 . S
C73 C72 1.400 . S
C73 C77 1.377 . S
C74 C72 1.364 . S
C74 C75 1.374 . S
C75 H66 0.930 . S
C75 C74 1.374 . S
C75 C76 1.383 . S
C76 O70 1.412 . S
C76 C75 1.383 . S
C76 C77 1.394 . S
C77 H67 0.929 . S
C77 C73 1.377 . S
C77 C76 1.394 . S
H78 C85 0.929 . S
H79 C88 0.930 . S
H80 C90 0.929 . S
H81 C82 0.969 . S
C82 H81 0.969 . S
C82 O83 1.550 . S
C82 H84 0.973 1_556 S
O83 C82 1.550 . S
O83 C89 1.412 . S
H84 C82 0.973 1_554 S
C85 H78 0.929 . S
C85 C86 1.400 1_554 S
C85 C87 1.364 . S
C86 C85 1.400 1_556 S
C86 C90 1.377 . S
C87 C85 1.364 . S
C87 C88 1.374 . S
C88 H79 0.930 . S
C88 C87 1.374 . S
C88 C89 1.383 1_554 S
C89 O83 1.412 . S
C89 C88 1.383 1_556 S
C89 C90 1.394 . S
C90 H80 0.929 . S
C90 C86 1.377 . S
C90 C89 1.394 . S
H91 C98 0.929 . S
H92 C101 0.930 . S
H93 C103 0.929 . S
H94 C95 0.969 . S
C95 H94 0.969 . S
C95 O96 1.550 . S
C95 H97 0.973 . S
O96 C95 1.550 . S
O96 C102 1.412 . S
H97 C95 0.973 . S
C98 H91 0.929 . S
C98 C99 1.400 . S
C98 C100 1.364 . S
C99 C98 1.400 . S
C99 C103 1.377 . S
C100 C98 1.364 . S
C100 C101 1.374 . S
C101 H92 0.930 . S
C101 C100 1.374 . S
C101 C102 1.383 . S
C102 O96 1.412 . S
C102 C101 1.383 . S
C102 C103 1.394 . S
C103 H93 0.929 . S
C103 C99 1.377 . S
C103 C102 1.394 . S
Sc104 O107 2.025 . S
Sc104 O114 2.105 1_455 S
Sc104 O117 2.105 . S
Sc104 O120 2.105 . S
Sc104 O123 2.105 1_455 S
Sc105 O107 2.025 . S
Sc105 O115 2.105 1_455 S
Sc105 O119 2.105 . S
Sc105 O121 2.105 . S
Sc105 O125 2.105 1_455 S
Sc106 O107 2.025 . S
Sc106 O116 2.093 1_455 S
Sc106 O118 2.117 . S
Sc106 O122 2.117 . S
Sc106 O124 2.093 1_455 S
O107 Sc104 2.025 . S
O107 Sc105 2.025 . S
O107 Sc106 2.025 . S
C108 O114 1.268 . S
C108 O124 1.268 . S
C109 O115 1.268 . S
C109 O123 1.268 . S
C110 O116 1.268 . S
C110 O125 1.268 . S
C111 O117 1.268 . S
C111 O121 1.268 . S
C112 O118 1.268 . S
C112 O120 1.268 . S
C113 O119 1.268 . S
C113 O122 1.268 . S
O114 Sc104 2.105 1_655 S
O114 C108 1.268 . S
O115 Sc105 2.105 1_655 S
O115 C109 1.268 . S
O116 Sc106 2.093 1_655 S
O116 C110 1.268 . S
O117 Sc104 2.105 . S
O117 C111 1.268 . S
O118 Sc106 2.117 . S
O118 C112 1.268 . S
O119 Sc105 2.105 . S
O119 C113 1.268 . S
O120 Sc104 2.105 . S
O120 C112 1.268 . S
O121 Sc105 2.105 . S
O121 C111 1.268 . S
O122 Sc106 2.117 . S
O122 C113 1.268 . S
O123 Sc104 2.105 1_655 S
O123 C109 1.268 . S
O124 Sc106 2.093 1_655 S
O124 C108 1.268 . S
O125 Sc105 2.105 1_655 S
O125 C110 1.268 . S
Sc126 O129 2.025 . S
Sc126 O136 2.105 . S
Sc126 O139 2.105 1_455 S
Sc126 O142 2.105 1_455 S
Sc126 O145 2.105 . S
Sc127 O129 2.025 . S
Sc127 O137 2.105 . S
Sc127 O141 2.105 1_455 S
Sc127 O143 2.105 1_455 S
Sc127 O147 2.105 . S
Sc128 O129 2.025 . S
Sc128 O138 2.117 . S
Sc128 O140 2.092 1_455 S
Sc128 O144 2.092 1_455 S
Sc128 O146 2.117 . S
O129 Sc126 2.025 . S
O129 Sc127 2.025 . S
O129 Sc128 2.025 . S
C130 O136 1.268 . S
C130 O146 1.268 . S
C131 O137 1.268 . S
C131 O145 1.268 . S
C132 O138 1.268 . S
C132 O147 1.268 . S
C133 O139 1.268 . S
C133 O143 1.268 . S
C134 O140 1.268 . S
C134 O142 1.268 . S
C135 O141 1.268 . S
C135 O144 1.268 . S
O136 Sc126 2.105 . S
O136 C130 1.268 . S
O137 Sc127 2.105 . S
O137 C131 1.268 . S
O138 Sc128 2.117 . S
O138 C132 1.268 . S
O139 Sc126 2.105 1_655 S
O139 C133 1.268 . S
O140 Sc128 2.092 1_655 S
O140 C134 1.268 . S
O141 Sc127 2.105 1_655 S
O141 C135 1.268 . S
O142 Sc126 2.105 1_655 S
O142 C134 1.268 . S
O143 Sc127 2.105 1_655 S
O143 C133 1.268 . S
O144 Sc128 2.092 1_655 S
O144 C135 1.268 . S
O145 Sc126 2.105 . S
O145 C131 1.268 . S
O146 Sc128 2.117 . S
O146 C130 1.268 . S
O147 Sc127 2.105 . S
O147 C132 1.268 . S
Sc148 O151 2.025 . S
Sc148 O158 2.105 . S
Sc148 O161 2.105 . S
Sc148 O164 2.105 . S
Sc148 O167 2.105 . S
Sc149 O151 2.025 . S
Sc149 O159 2.105 . S
Sc149 O163 2.105 . S
Sc149 O165 2.105 . S
Sc149 O169 2.105 . S
Sc150 O151 2.025 . S
Sc150 O160 2.105 . S
Sc150 O162 2.105 . S
Sc150 O166 2.105 . S
Sc150 O168 2.105 . S
O151 Sc148 2.025 . S
O151 Sc149 2.025 . S
O151 Sc150 2.025 . S
C152 O158 1.268 . S
C152 O168 1.268 . S
C153 O159 1.268 . S
C153 O167 1.268 . S
C154 O160 1.268 . S
C154 O169 1.268 . S
C155 O161 1.268 . S
C155 O165 1.268 . S
C156 O162 1.268 . S
C156 O164 1.268 . S
C157 O163 1.268 . S
C157 O166 1.268 . S
O158 Sc148 2.105 . S
O158 C152 1.268 . S
O159 Sc149 2.105 . S
O159 C153 1.268 . S
O160 Sc150 2.105 . S
O160 C154 1.268 . S
O161 Sc148 2.105 . S
O161 C155 1.268 . S
O162 Sc150 2.105 . S
O162 C156 1.268 . S
O163 Sc149 2.105 . S
O163 C157 1.268 . S
O164 Sc148 2.105 . S
O164 C156 1.268 . S
O165 Sc149 2.105 . S
O165 C155 1.268 . S
O166 Sc150 2.105 . S
O166 C157 1.268 . S
O167 Sc148 2.105 . S
O167 C153 1.268 . S
O168 Sc150 2.105 . S
O168 C152 1.268 . S
O169 Sc149 2.105 . S
O169 C154 1.268 . S
Sc170 O173 2.025 . S
Sc170 O180 2.105 . S
Sc170 O183 2.105 . S
Sc170 O186 2.105 . S
Sc170 O189 2.105 . S
Sc171 O173 2.025 . S
Sc171 O181 2.105 . S
Sc171 O185 2.105 . S
Sc171 O187 2.105 . S
Sc171 O191 2.105 . S
Sc172 O173 2.025 . S
Sc172 O182 2.105 . S
Sc172 O184 2.105 . S
Sc172 O188 2.105 . S
Sc172 O190 2.105 . S
O173 Sc170 2.025 . S
O173 Sc171 2.025 . S
O173 Sc172 2.025 . S
C174 O180 1.268 . S
C174 O190 1.268 . S
C175 O181 1.268 . S
C175 O189 1.268 . S
C176 O182 1.268 . S
C176 O191 1.268 . S
C177 O183 1.268 . S
C177 O187 1.268 . S
C178 O184 1.268 . S
C178 O186 1.268 . S
C179 O185 1.268 . S
C179 O188 1.268 . S
O180 Sc170 2.105 . S
O180 C174 1.268 . S
O181 Sc171 2.105 . S
O181 C175 1.268 . S
O182 Sc172 2.105 . S
O182 C176 1.268 . S
O183 Sc170 2.105 . S
O183 C177 1.268 . S
O184 Sc172 2.105 . S
O184 C178 1.268 . S
O185 Sc171 2.105 . S
O185 C179 1.268 . S
O186 Sc170 2.105 . S
O186 C178 1.268 . S
O187 Sc171 2.105 . S
O187 C177 1.268 . S
O188 Sc172 2.105 . S
O188 C179 1.268 . S
O189 Sc170 2.105 . S
O189 C175 1.268 . S
O190 Sc172 2.105 . S
O190 C174 1.268 . S
O191 Sc171 2.105 . S
O191 C176 1.268 . S
H192 C204 0.930 . S
H193 C206 0.930 1_554 S
H194 C207 0.930 1_554 S
H195 C211 0.959 . S
H196 C211 0.959 . S
H197 C211 0.961 . S
H198 C212 0.960 . S
H199 C212 0.961 . S
H200 C212 0.959 . S
H201 C215 0.929 . S
H202 C216 0.931 . S
H203 C218 0.930 . S
C204 H192 0.930 . S
C204 C205 1.399 . S
C204 C209 1.399 . S
C205 C204 1.399 . S
C205 C206 1.376 . S
C206 H193 0.930 1_556 S
C206 C205 1.376 . S
C206 C207 1.388 . S
C207 H194 0.930 1_556 S
C207 C206 1.388 . S
C207 C208 1.390 . S
C208 C207 1.390 . S
C208 C209 1.394 . S
C208 C214 1.465 . S
C209 C204 1.399 . S
C209 C208 1.394 . S
C209 C210 1.516 . S
C210 C209 1.516 . S
C210 C211 1.502 . S
C210 C212 1.561 . S
C210 C213 1.526 . S
C211 H195 0.959 . S
C211 H196 0.959 . S
C211 H197 0.961 . S
C211 C210 1.502 . S
C212 H198 0.960 . S
C212 H199 0.961 . S
C212 H200 0.959 . S
C212 C210 1.561 . S
C213 C210 1.526 . S
C213 C214 1.396 . S
C213 C218 1.390 . S
C214 C208 1.465 . S
C214 C213 1.396 . S
C214 C215 1.399 . S
C215 H201 0.929 . S
C215 C214 1.399 . S
C215 C216 1.385 . S
C216 H202 0.931 . S
C216 C215 1.385 . S
C216 C217 1.389 . S
C217 C216 1.389 . S
C217 C218 1.387 . S
C218 H203 0.930 . S
C218 C213 1.390 . S
C218 C217 1.387 . S
H219 C231 0.930 . S
H220 C233 0.930 . S
H221 C234 0.930 . S
H222 C238 0.959 . S
H223 C238 0.959 . S
H224 C238 0.961 . S
H225 C239 0.960 . S
H226 C239 0.961 . S
H227 C239 0.959 . S
H228 C242 0.929 . S
H229 C243 0.931 . S
H230 C245 0.930 . S
C231 H219 0.930 . S
C231 C232 1.399 . S
C231 C236 1.399 . S
C232 C231 1.399 . S
C232 C233 1.376 . S
C233 H220 0.930 . S
C233 C232 1.376 . S
C233 C234 1.388 . S
C234 H221 0.930 . S
C234 C233 1.388 . S
C234 C235 1.390 . S
C235 C234 1.390 . S
C235 C236 1.394 . S
C235 C241 1.465 . S
C236 C231 1.399 . S
C236 C235 1.394 . S
C236 C237 1.516 . S
C237 C236 1.516 . S
C237 C238 1.502 . S
C237 C239 1.561 . S
C237 C240 1.526 . S
C238 H222 0.959 . S
C238 H223 0.959 . S
C238 H224 0.961 . S
C238 C237 1.502 . S
C239 H225 0.960 . S
C239 H226 0.961 . S
C239 H227 0.959 . S
C239 C237 1.561 . S
C240 C237 1.526 . S
C240 C241 1.396 . S
C240 C245 1.390 . S
C241 C235 1.465 . S
C241 C240 1.396 . S
C241 C242 1.399 . S
C242 H228 0.929 . S
C242 C241 1.399 . S
C242 C243 1.385 . S
C243 H229 0.931 . S
C243 C242 1.385 . S
C243 C244 1.389 . S
C244 C243 1.389 . S
C244 C245 1.387 . S
C245 H230 0.930 . S
C245 C240 1.390 . S
C245 C244 1.387 . S
H246 C258 0.930 1_554 S
H247 C260 0.930 . S
H248 C261 0.930 . S
H249 C265 0.959 . S
H250 C265 0.959 . S
H251 C265 0.961 1_554 S
H252 C266 0.960 1_554 S
H253 C266 0.961 1_554 S
H254 C266 0.959 . S
H255 C269 0.929 . S
H256 C270 0.931 . S
H257 C272 0.930 . S
C258 H246 0.930 1_556 S
C258 C259 1.399 . S
C258 C263 1.399 . S
C259 C258 1.399 . S
C259 C260 1.376 . S
C260 H247 0.930 . S
C260 C259 1.376 . S
C260 C261 1.388 . S
C261 H248 0.930 . S
C261 C260 1.388 . S
C261 C262 1.390 . S
C262 C261 1.390 . S
C262 C263 1.394 . S
C262 C268 1.465 . S
C263 C258 1.399 . S
C263 C262 1.394 . S
C263 C264 1.516 . S
C264 C263 1.516 . S
C264 C265 1.502 . S
C264 C266 1.561 . S
C264 C267 1.526 . S
C265 H249 0.959 . S
C265 H250 0.959 . S
C265 H251 0.961 1_556 S
C265 C264 1.502 . S
C266 H252 0.960 1_556 S
C266 H253 0.961 1_556 S
C266 H254 0.959 . S
C266 C264 1.561 . S
C267 C264 1.526 . S
C267 C268 1.396 . S
C267 C272 1.390 . S
C268 C262 1.465 . S
C268 C267 1.396 . S
C268 C269 1.399 . S
C269 H255 0.929 . S
C269 C268 1.399 . S
C269 C270 1.385 . S
C270 H256 0.931 . S
C270 C269 1.385 . S
C270 C271 1.389 . S
C271 C270 1.389 . S
C271 C272 1.387 . S
C272 H257 0.930 . S
C272 C267 1.390 . S
C272 C271 1.387 . S
H273 C285 0.930 . S
H274 C287 0.930 . S
H275 C288 0.930 . S
H276 C292 0.959 . S
H277 C292 0.959 . S
H278 C292 0.961 . S
H279 C293 0.960 . S
H280 C293 0.961 . S
H281 C293 0.959 . S
H282 C296 0.929 . S
H283 C297 0.931 . S
H284 C299 0.930 . S
C285 H273 0.930 . S
C285 C286 1.399 . S
C285 C290 1.399 . S
C286 C285 1.399 . S
C286 C287 1.376 . S
C287 H274 0.930 . S
C287 C286 1.376 . S
C287 C288 1.388 . S
C288 H275 0.930 . S
C288 C287 1.388 . S
C288 C289 1.390 . S
C289 C288 1.390 . S
C289 C290 1.394 . S
C289 C295 1.465 . S
C290 C285 1.399 . S
C290 C289 1.394 . S
C290 C291 1.516 . S
C291 C290 1.516 . S
C291 C292 1.502 . S
C291 C293 1.561 . S
C291 C294 1.526 . S
C292 H276 0.959 . S
C292 H277 0.959 . S
C292 H278 0.961 . S
C292 C291 1.502 . S
C293 H279 0.960 . S
C293 H280 0.961 . S
C293 H281 0.959 . S
C293 C291 1.561 . S
C294 C291 1.526 . S
C294 C295 1.396 . S
C294 C299 1.390 . S
C295 C289 1.465 . S
C295 C294 1.396 . S
C295 C296 1.399 . S
C296 H282 0.929 . S
C296 C295 1.399 . S
C296 C297 1.385 . S
C297 H283 0.931 . S
C297 C296 1.385 . S
C297 C298 1.389 . S
C298 C297 1.389 . S
C298 C299 1.387 . S
C299 H284 0.930 . S
C299 C294 1.390 . S
C299 C298 1.387 . S
H300 C312 0.930 . S
H301 C314 0.930 . S
H302 C315 0.930 . S
H303 C319 0.959 . S
H304 C319 0.959 . S
H305 C319 0.961 . S
H306 C320 0.960 1_554 S
H307 C320 0.958 1_554 S
H308 C320 0.959 . S
H309 C323 0.929 . S
H310 C324 0.931 . S
H311 C326 0.930 . S
C312 H300 0.930 . S
C312 C313 1.399 . S
C312 C317 1.399 . S
C313 C312 1.399 . S
C313 C314 1.376 . S
C314 H301 0.930 . S
C314 C313 1.376 . S
C314 C315 1.388 . S
C315 H302 0.930 . S
C315 C314 1.388 . S
C315 C316 1.390 . S
C316 C315 1.390 . S
C316 C317 1.394 . S
C316 C322 1.465 . S
C317 C312 1.399 . S
C317 C316 1.394 . S
C317 C318 1.516 . S
C318 C317 1.516 . S
C318 C319 1.502 . S
C318 C320 1.561 . S
C318 C321 1.526 . S
C319 H303 0.959 . S
C319 H304 0.959 . S
C319 H305 0.961 . S
C319 C318 1.502 . S
C320 H306 0.960 1_556 S
C320 H307 0.958 1_556 S
C320 H308 0.959 . S
C320 C318 1.561 . S
C321 C318 1.526 . S
C321 C322 1.396 . S
C321 C326 1.390 . S
C322 C316 1.465 . S
C322 C321 1.396 . S
C322 C323 1.399 . S
C323 H309 0.929 . S
C323 C322 1.399 . S
C323 C324 1.385 . S
C324 H310 0.931 . S
C324 C323 1.385 . S
C324 C325 1.389 . S
C325 C324 1.389 . S
C325 C326 1.387 . S
C326 H311 0.930 . S
C326 C321 1.390 . S
C326 C325 1.387 . S
H327 C339 0.930 . S
H328 C341 0.930 . S
H329 C342 0.930 . S
H330 C346 0.959 . S
H331 C346 0.959 . S
H332 C346 0.961 . S
H333 C347 0.960 . S
H334 C347 0.961 . S
H335 C347 0.959 . S
H336 C350 0.929 . S
H337 C351 0.931 . S
H338 C353 0.930 . S
C339 H327 0.930 . S
C339 C340 1.399 . S
C339 C344 1.399 . S
C340 C339 1.399 . S
C340 C341 1.376 . S
C341 H328 0.930 . S
C341 C340 1.376 . S
C341 C342 1.388 . S
C342 H329 0.930 . S
C342 C341 1.388 . S
C342 C343 1.390 . S
C343 C342 1.390 . S
C343 C344 1.394 . S
C343 C349 1.465 . S
C344 C339 1.399 . S
C344 C343 1.394 . S
C344 C345 1.516 . S
C345 C344 1.516 . S
C345 C346 1.502 . S
C345 C347 1.561 . S
C345 C348 1.526 . S
C346 H330 0.959 . S
C346 H331 0.959 . S
C346 H332 0.961 . S
C346 C345 1.502 . S
C347 H333 0.960 . S
C347 H334 0.961 . S
C347 H335 0.959 . S
C347 C345 1.561 . S
C348 C345 1.526 . S
C348 C349 1.396 . S
C348 C353 1.390 . S
C349 C343 1.465 . S
C349 C348 1.396 . S
C349 C350 1.399 . S
C350 H336 0.929 . S
C350 C349 1.399 . S
C350 C351 1.385 . S
C351 H337 0.931 . S
C351 C350 1.385 . S
C351 C352 1.389 . S
C352 C351 1.389 . S
C352 C353 1.387 . S
C353 H338 0.930 . S
C353 C348 1.390 . S
C353 C352 1.387 . S
H354 C366 0.930 . S
H355 C368 0.930 1_554 S
H356 C369 0.930 1_554 S
H357 C373 0.959 . S
H358 C373 0.959 . S
H359 C373 0.961 . S
H360 C374 0.960 . S
H361 C374 0.961 . S
H362 C374 0.959 . S
H363 C377 0.929 . S
H364 C378 0.931 . S
H365 C380 0.930 . S
C366 H354 0.930 . S
C366 C367 1.399 . S
C366 C371 1.399 . S
C367 C366 1.399 . S
C367 C368 1.376 . S
C368 H355 0.930 1_556 S
C368 C367 1.376 . S
C368 C369 1.388 . S
C369 H356 0.930 1_556 S
C369 C368 1.388 . S
C369 C370 1.390 . S
C370 C369 1.390 . S
C370 C371 1.394 . S
C370 C376 1.465 . S
C371 C366 1.399 . S
C371 C370 1.394 . S
C371 C372 1.516 . S
C372 C371 1.516 . S
C372 C373 1.502 . S
C372 C374 1.561 . S
C372 C375 1.526 . S
C373 H357 0.959 . S
C373 H358 0.959 . S
C373 H359 0.961 . S
C373 C372 1.502 . S
C374 H360 0.960 . S
C374 H361 0.961 . S
C374 H362 0.959 . S
C374 C372 1.561 . S
C375 C372 1.526 . S
C375 C376 1.396 . S
C375 C380 1.390 . S
C376 C370 1.465 . S
C376 C375 1.396 . S
C376 C377 1.399 . S
C377 H363 0.929 . S
C377 C376 1.399 . S
C377 C378 1.385 . S
C378 H364 0.931 . S
C378 C377 1.385 . S
C378 C379 1.389 . S
C379 C378 1.389 . S
C379 C380 1.387 . S
C380 H365 0.930 . S
C380 C375 1.390 . S
C380 C379 1.387 . S
H381 C393 0.930 . S
H382 C395 0.930 . S
H383 C396 0.930 . S
H384 C400 0.959 . S
H385 C400 0.959 . S
H386 C400 0.961 . S
H387 C401 0.960 . S
H388 C401 0.961 . S
H389 C401 0.959 . S
H390 C404 0.929 . S
H391 C405 0.931 . S
H392 C407 0.930 . S
C393 H381 0.930 . S
C393 C394 1.399 . S
C393 C398 1.399 . S
C394 C393 1.399 . S
C394 C395 1.376 . S
C395 H382 0.930 . S
C395 C394 1.376 . S
C395 C396 1.388 . S
C396 H383 0.930 . S
C396 C395 1.388 . S
C396 C397 1.390 . S
C397 C396 1.390 . S
C397 C398 1.394 . S
C397 C403 1.465 . S
C398 C393 1.399 . S
C398 C397 1.394 . S
C398 C399 1.516 . S
C399 C398 1.516 . S
C399 C400 1.502 . S
C399 C401 1.561 . S
C399 C402 1.526 . S
C400 H384 0.959 . S
C400 H385 0.959 . S
C400 H386 0.961 . S
C400 C399 1.502 . S
C401 H387 0.960 . S
C401 H388 0.961 . S
C401 H389 0.959 . S
C401 C399 1.561 . S
C402 C399 1.526 . S
C402 C403 1.396 . S
C402 C407 1.390 . S
C403 C397 1.465 . S
C403 C402 1.396 . S
C403 C404 1.399 . S
C404 H390 0.929 . S
C404 C403 1.399 . S
C404 C405 1.385 . S
C405 H391 0.931 . S
C405 C404 1.385 . S
C405 C406 1.389 . S
C406 C405 1.389 . S
C406 C407 1.387 . S
C407 H392 0.930 . S
C407 C402 1.390 . S
C407 C406 1.387 . S
H408 C420 0.930 . S
H409 C422 0.930 1_554 S
H410 C423 0.930 . S
H411 C427 0.959 . S
H412 C427 0.959 . S
H413 C427 0.961 . S
H414 C428 0.960 . S
H415 C428 0.961 . S
H416 C428 0.959 . S
H417 C431 0.929 . S
H418 C432 0.931 . S
H419 C434 0.930 . S
C420 H408 0.930 . S
C420 C421 1.399 . S
C420 C425 1.399 . S
C421 C420 1.399 . S
C421 C422 1.376 . S
C422 H409 0.930 1_556 S
C422 C421 1.376 . S
C422 C423 1.388 . S
C423 H410 0.930 . S
C423 C422 1.388 . S
C423 C424 1.390 . S
C424 C423 1.390 . S
C424 C425 1.394 . S
C424 C430 1.465 . S
C425 C420 1.399 . S
C425 C424 1.394 . S
C425 C426 1.516 . S
C426 C425 1.516 . S
C426 C427 1.502 . S
C426 C428 1.561 . S
C426 C429 1.526 . S
C427 H411 0.959 . S
C427 H412 0.959 . S
C427 H413 0.961 . S
C427 C426 1.502 . S
C428 H414 0.960 . S
C428 H415 0.961 . S
C428 H416 0.959 . S
C428 C426 1.561 . S
C429 C426 1.526 . S
C429 C430 1.396 . S
C429 C434 1.390 . S
C430 C424 1.465 . S
C430 C429 1.396 . S
C430 C431 1.399 . S
C431 H417 0.929 . S
C431 C430 1.399 . S
C431 C432 1.385 . S
C432 H418 0.931 . S
C432 C431 1.385 . S
C432 C433 1.389 . S
C433 C432 1.389 . S
C433 C434 1.387 . S
C434 H419 0.930 . S
C434 C429 1.390 . S
C434 C433 1.387 . S
H435 C447 0.930 . S
H436 C449 0.930 . S
H437 C450 0.930 . S
H438 C454 0.959 . S
H439 C454 0.959 . S
H440 C454 0.961 . S
H441 C455 0.960 . S
H442 C455 0.961 . S
H443 C455 0.959 . S
H444 C458 0.929 . S
H445 C459 0.931 . S
H446 C461 0.930 . S
C447 H435 0.930 . S
C447 C448 1.399 . S
C447 C452 1.399 . S
C448 C447 1.399 . S
C448 C449 1.376 . S
C449 H436 0.930 . S
C449 C448 1.376 . S
C449 C450 1.388 . S
C450 H437 0.930 . S
C450 C449 1.388 . S
C450 C451 1.390 . S
C451 C450 1.390 . S
C451 C452 1.394 . S
C451 C457 1.465 . S
C452 C447 1.399 . S
C452 C451 1.394 . S
C452 C453 1.516 . S
C453 C452 1.516 . S
C453 C454 1.502 . S
C453 C455 1.561 . S
C453 C456 1.526 . S
C454 H438 0.959 . S
C454 H439 0.959 . S
C454 H440 0.961 . S
C454 C453 1.502 . S
C455 H441 0.960 . S
C455 H442 0.961 . S
C455 H443 0.959 . S
C455 C453 1.561 . S
C456 C453 1.526 . S
C456 C457 1.396 . S
C456 C461 1.390 . S
C457 C451 1.465 . S
C457 C456 1.396 . S
C457 C458 1.399 . S
C458 H444 0.929 . S
C458 C457 1.399 . S
C458 C459 1.385 . S
C459 H445 0.931 . S
C459 C458 1.385 . S
C459 C460 1.389 . S
C460 C459 1.389 . S
C460 C461 1.387 . S
C461 H446 0.930 . S
C461 C456 1.390 . S
C461 C460 1.387 . S
H462 C474 0.930 . S
H463 C476 0.930 . S
H464 C477 0.930 . S
H465 C481 0.961 . S
H466 C481 0.959 . S
H467 C481 0.961 1_554 S
H468 C482 0.960 . S
H469 C482 0.961 . S
H470 C482 0.959 . S
H471 C485 0.929 . S
H472 C486 0.931 . S
H473 C488 0.930 . S
C474 H462 0.930 . S
C474 C475 1.399 . S
C474 C479 1.399 . S
C475 C474 1.399 . S
C475 C476 1.376 . S
C476 H463 0.930 . S
C476 C475 1.376 . S
C476 C477 1.388 . S
C477 H464 0.930 . S
C477 C476 1.388 . S
C477 C478 1.390 . S
C478 C477 1.390 . S
C478 C479 1.394 . S
C478 C484 1.465 . S
C479 C474 1.399 . S
C479 C478 1.394 . S
C479 C480 1.516 . S
C480 C479 1.516 . S
C480 C481 1.502 . S
C480 C482 1.561 . S
C480 C483 1.526 . S
C481 H465 0.961 . S
C481 H466 0.959 . S
C481 H467 0.961 1_556 S
C481 C480 1.502 . S
C482 H468 0.960 . S
C482 H469 0.961 . S
C482 H470 0.959 . S
C482 C480 1.561 . S
C483 C480 1.526 . S
C483 C484 1.396 . S
C483 C488 1.390 . S
C484 C478 1.465 . S
C484 C483 1.396 . S
C484 C485 1.399 . S
C485 H471 0.929 . S
C485 C484 1.399 . S
C485 C486 1.385 . S
C486 H472 0.931 . S
C486 C485 1.385 . S
C486 C487 1.389 . S
C487 C486 1.389 . S
C487 C488 1.387 . S
C488 H473 0.930 . S
C488 C483 1.390 . S
C488 C487 1.387 . S
H489 C501 0.930 . S
H490 C503 0.930 . S
H491 C504 0.930 . S
H492 C508 0.959 . S
H493 C508 0.959 . S
H494 C508 0.961 . S
H495 C509 0.960 . S
H496 C509 0.961 . S
H497 C509 0.959 . S
H498 C512 0.929 . S
H499 C513 0.931 . S
H500 C515 0.930 . S
C501 H489 0.930 . S
C501 C502 1.399 . S
C501 C506 1.399 . S
C502 C501 1.399 . S
C502 C503 1.376 . S
C503 H490 0.930 . S
C503 C502 1.376 . S
C503 C504 1.388 . S
C504 H491 0.930 . S
C504 C503 1.388 . S
C504 C505 1.390 . S
C505 C504 1.390 . S
C505 C506 1.394 . S
C505 C511 1.465 . S
C506 C501 1.399 . S
C506 C505 1.394 . S
C506 C507 1.516 . S
C507 C506 1.516 . S
C507 C508 1.502 . S
C507 C509 1.561 . S
C507 C510 1.526 . S
C508 H492 0.959 . S
C508 H493 0.959 . S
C508 H494 0.961 . S
C508 C507 1.502 . S
C509 H495 0.960 . S
C509 H496 0.961 . S
C509 H497 0.959 . S
C509 C507 1.561 . S
C510 C507 1.526 . S
C510 C511 1.396 . S
C510 C515 1.390 . S
C511 C505 1.465 . S
C511 C510 1.396 . S
C511 C512 1.399 . S
C512 H498 0.929 . S
C512 C511 1.399 . S
C512 C513 1.385 . S
C513 H499 0.931 . S
C513 C512 1.385 . S
C513 C514 1.389 . S
C514 C513 1.389 . S
C514 C515 1.387 . S
C515 H500 0.930 . S
C515 C510 1.390 . S
C515 C514 1.387 . S
H516 C528 0.930 1_554 S
H517 C530 0.930 . S
H518 C531 0.930 . S
H519 C535 0.959 1_556 S
H520 C535 0.959 . S
H521 C535 0.961 . S
H522 C536 0.960 1_554 S
H523 C536 0.961 . S
H524 C536 0.959 . S
H525 C539 0.929 . S
H526 C540 0.931 . S
H527 C542 0.930 . S
C528 H516 0.930 1_556 S
C528 C529 1.399 . S
C528 C533 1.399 . S
C529 C528 1.399 . S
C529 C530 1.376 . S
C530 H517 0.930 . S
C530 C529 1.376 . S
C530 C531 1.388 . S
C531 H518 0.930 . S
C531 C530 1.388 . S
C531 C532 1.390 . S
C532 C531 1.390 . S
C532 C533 1.394 . S
C532 C538 1.465 1_565 S
C533 C528 1.399 . S
C533 C532 1.394 . S
C533 C534 1.516 1_565 S
C534 C533 1.516 1_545 S
C534 C535 1.502 1_556 S
C534 C536 1.561 1_545 S
C534 C537 1.526 . S
C535 H519 0.959 1_554 S
C535 H520 0.959 . S
C535 H521 0.961 . S
C535 C534 1.502 1_554 S
C536 H522 0.960 1_556 S
C536 H523 0.961 . S
C536 H524 0.959 . S
C536 C534 1.561 1_565 S
C537 C534 1.526 . S
C537 C538 1.396 . S
C537 C542 1.390 . S
C538 C532 1.465 1_545 S
C538 C537 1.396 . S
C538 C539 1.399 . S
C539 H525 0.929 . S
C539 C538 1.399 . S
C539 C540 1.385 . S
C540 H526 0.931 . S
C540 C539 1.385 . S
C540 C541 1.389 . S
C541 C540 1.389 . S
C541 C542 1.387 . S
C542 H527 0.930 . S
C542 C537 1.390 . S
C542 C541 1.387 . S
H543 C555 0.930 . S
H544 C557 0.930 . S
H545 C558 0.930 . S
H546 C562 0.959 . S
H547 C562 0.959 . S
H548 C562 0.961 . S
H549 C563 0.960 . S
H550 C563 0.961 . S
H551 C563 0.959 . S
H552 C566 0.929 . S
H553 C567 0.931 . S
H554 C569 0.930 . S
C555 H543 0.930 . S
C555 C556 1.399 . S
C555 C560 1.399 . S
C556 C555 1.399 . S
C556 C557 1.376 . S
C557 H544 0.930 . S
C557 C556 1.376 . S
C557 C558 1.388 . S
C558 H545 0.930 . S
C558 C557 1.388 . S
C558 C559 1.390 . S
C559 C558 1.390 . S
C559 C560 1.394 . S
C559 C565 1.465 1_545 S
C560 C555 1.399 . S
C560 C559 1.394 . S
C560 C561 1.516 1_545 S
C561 C560 1.516 1_565 S
C561 C562 1.502 . S
C561 C563 1.561 1_565 S
C561 C564 1.526 . S
C562 H546 0.959 . S
C562 H547 0.959 . S
C562 H548 0.961 . S
C562 C561 1.502 . S
C563 H549 0.960 . S
C563 H550 0.961 . S
C563 H551 0.959 . S
C563 C561 1.561 1_545 S
C564 C561 1.526 . S
C564 C565 1.396 . S
C564 C569 1.390 . S
C565 C559 1.465 1_565 S
C565 C564 1.396 . S
C565 C566 1.399 . S
C566 H552 0.929 . S
C566 C565 1.399 . S
C566 C567 1.385 . S
C567 H553 0.931 . S
C567 C566 1.385 . S
C567 C568 1.389 . S
C568 C567 1.389 . S
C568 C569 1.387 . S
C569 H554 0.930 . S
C569 C564 1.390 . S
C569 C568 1.387 . S
H570 C582 0.930 . S
H571 C584 0.927 . S
H572 C585 0.915 1_544 S
H573 C589 0.959 1_545 S
H574 C589 0.959 . S
H575 C589 0.961 . S
H576 C590 0.960 . S
H577 C590 0.961 . S
H578 C590 0.959 . S
H579 C593 0.929 . S
H580 C594 0.931 . S
H581 C596 0.930 . S
C582 H570 0.930 . S
C582 C583 1.399 . S
C582 C587 1.399 . S
C583 C582 1.399 . S
C583 C584 1.379 1_556 S
C584 H571 0.927 . S
C584 C583 1.379 1_554 S
C584 C585 1.405 1_554 S
C585 H572 0.915 1_566 S
C585 C584 1.405 1_556 S
C585 C586 1.390 . S
C586 C585 1.390 . S
C586 C587 1.401 . S
C586 C592 1.458 1_565 S
C587 C582 1.399 . S
C587 C586 1.401 . S
C587 C588 1.516 . S
C588 C587 1.516 . S
C588 C589 1.502 . S
C588 C590 1.561 . S
C588 C591 1.526 1_565 S
C589 H573 0.959 1_565 S
C589 H574 0.959 . S
C589 H575 0.961 . S
C589 C588 1.502 . S
C590 H576 0.960 . S
C590 H577 0.961 . S
C590 H578 0.959 . S
C590 C588 1.561 . S
C591 C588 1.526 1_545 S
C591 C592 1.396 . S
C591 C596 1.390 . S
C592 C586 1.458 1_545 S
C592 C591 1.396 . S
C592 C593 1.399 . S
C593 H579 0.929 . S
C593 C592 1.399 . S
C593 C594 1.385 . S
C594 H580 0.931 . S
C594 C593 1.385 . S
C594 C595 1.389 . S
C595 C594 1.389 . S
C595 C596 1.387 . S
C596 H581 0.930 . S
C596 C591 1.390 . S
C596 C595 1.387 . S
H597 C609 0.930 . S
H598 C611 0.930 . S
H599 C612 0.930 . S
H600 C616 0.959 . S
H601 C616 0.959 . S
H602 C616 0.961 . S
H603 C617 0.960 . S
H604 C617 0.961 . S
H605 C617 0.959 . S
H606 C620 0.929 1_545 S
H607 C621 0.931 . S
H608 C623 0.930 . S
C609 H597 0.930 . S
C609 C610 1.399 . S
C609 C614 1.399 . S
C610 C609 1.399 . S
C610 C611 1.376 . S
C611 H598 0.930 . S
C611 C610 1.376 . S
C611 C612 1.388 . S
C612 H599 0.930 . S
C612 C611 1.388 . S
C612 C613 1.390 . S
C613 C612 1.390 . S
C613 C614 1.394 . S
C613 C619 1.465 1_545 S
C614 C609 1.399 . S
C614 C613 1.394 . S
C614 C615 1.516 1_545 S
C615 C614 1.516 1_565 S
C615 C616 1.502 . S
C615 C617 1.561 . S
C615 C618 1.526 . S
C616 H600 0.959 . S
C616 H601 0.959 . S
C616 H602 0.961 . S
C616 C615 1.502 . S
C617 H603 0.960 . S
C617 H604 0.961 . S
C617 H605 0.959 . S
C617 C615 1.561 . S
C618 C615 1.526 . S
C618 C619 1.396 . S
C618 C623 1.390 . S
C619 C613 1.465 1_565 S
C619 C618 1.396 . S
C619 C620 1.399 . S
C620 H606 0.929 1_565 S
C620 C619 1.399 . S
C620 C621 1.385 . S
C621 H607 0.931 . S
C621 C620 1.385 . S
C621 C622 1.389 . S
C622 C621 1.389 . S
C622 C623 1.387 . S
C623 H608 0.930 . S
C623 C618 1.390 . S
C623 C622 1.387 . S
H624 C636 0.930 . S
H625 C638 0.930 . S
H626 C639 0.930 . S
H627 C643 0.959 . S
H628 C643 0.959 . S
H629 C643 0.961 . S
H630 C644 0.960 . S
H631 C644 0.961 . S
H632 C644 0.959 . S
H633 C647 0.929 . S
H634 C648 0.931 . S
H635 C650 0.930 . S
C636 H624 0.930 . S
C636 C637 1.399 . S
C636 C641 1.399 . S
C637 C636 1.399 . S
C637 C638 1.376 . S
C638 H625 0.930 . S
C638 C637 1.376 . S
C638 C639 1.388 . S
C639 H626 0.930 . S
C639 C638 1.388 . S
C639 C640 1.390 . S
C640 C639 1.390 . S
C640 C641 1.394 . S
C640 C646 1.465 . S
C641 C636 1.399 . S
C641 C640 1.394 . S
C641 C642 1.516 . S
C642 C641 1.516 . S
C642 C643 1.502 . S
C642 C644 1.561 . S
C642 C645 1.526 . S
C643 H627 0.959 . S
C643 H628 0.959 . S
C643 H629 0.961 . S
C643 C642 1.502 . S
C644 H630 0.960 . S
C644 H631 0.961 . S
C644 H632 0.959 . S
C644 C642 1.561 . S
C645 C642 1.526 . S
C645 C646 1.396 . S
C645 C650 1.390 . S
C646 C640 1.465 . S
C646 C645 1.396 . S
C646 C647 1.399 . S
C647 H633 0.929 . S
C647 C646 1.399 . S
C647 C648 1.385 . S
C648 H634 0.931 . S
C648 C647 1.385 . S
C648 C649 1.389 . S
C649 C648 1.389 . S
C649 C650 1.387 . S
C650 H635 0.930 . S
C650 C645 1.390 . S
C650 C649 1.387 . S
H651 C663 0.930 . S
H652 C665 0.930 . S
H653 C666 0.930 . S
H654 C670 0.959 . S
H655 C670 0.959 . S
H656 C670 0.961 . S
H657 C671 0.960 . S
H658 C671 0.961 . S
H659 C671 0.959 . S
H660 C674 0.929 . S
H661 C675 0.931 . S
H662 C677 0.930 . S
C663 H651 0.930 . S
C663 C664 1.399 . S
C663 C668 1.399 . S
C664 C663 1.399 . S
C664 C665 1.376 . S
C665 H652 0.930 . S
C665 C664 1.376 . S
C665 C666 1.388 . S
C666 H653 0.930 . S
C666 C665 1.388 . S
C666 C667 1.390 . S
C667 C666 1.390 . S
C667 C668 1.394 . S
C667 C673 1.465 . S
C668 C663 1.399 . S
C668 C667 1.394 . S
C668 C669 1.516 . S
C669 C668 1.516 . S
C669 C670 1.502 . S
C669 C671 1.561 . S
C669 C672 1.526 . S
C670 H654 0.959 . S
C670 H655 0.959 . S
C670 H656 0.961 . S
C670 C669 1.502 . S
C671 H657 0.960 . S
C671 H658 0.961 . S
C671 H659 0.959 . S
C671 C669 1.561 . S
C672 C669 1.526 . S
C672 C673 1.396 . S
C672 C677 1.390 . S
C673 C667 1.465 . S
C673 C672 1.396 . S
C673 C674 1.399 . S
C674 H660 0.929 . S
C674 C673 1.399 . S
C674 C675 1.385 . S
C675 H661 0.931 . S
C675 C674 1.385 . S
C675 C676 1.389 . S
C676 C675 1.389 . S
C676 C677 1.387 . S
C677 H662 0.930 . S
C677 C672 1.390 . S
C677 C676 1.387 . S
H678 C690 0.930 . S
H679 C692 0.930 . S
H680 C693 0.930 . S
H681 C697 0.959 . S
H682 C697 0.959 . S
H683 C697 0.961 . S
H684 C698 0.960 . S
H685 C698 0.961 . S
H686 C698 0.959 . S
H687 C701 0.929 . S
H688 C702 0.931 . S
H689 C704 0.930 . S
C690 H678 0.930 . S
C690 C691 1.399 . S
C690 C695 1.399 . S
C691 C690 1.399 . S
C691 C692 1.376 . S
C692 H679 0.930 . S
C692 C691 1.376 . S
C692 C693 1.388 . S
C693 H680 0.930 . S
C693 C692 1.388 . S
C693 C694 1.390 . S
C694 C693 1.390 . S
C694 C695 1.394 . S
C694 C700 1.465 . S
C695 C690 1.399 . S
C695 C694 1.394 . S
C695 C696 1.516 . S
C696 C695 1.516 . S
C696 C697 1.502 . S
C696 C698 1.561 . S
C696 C699 1.526 . S
C697 H681 0.959 . S
C697 H682 0.959 . S
C697 H683 0.961 . S
C697 C696 1.502 . S
C698 H684 0.960 . S
C698 H685 0.961 . S
C698 H686 0.959 . S
C698 C696 1.561 . S
C699 C696 1.526 . S
C699 C700 1.396 . S
C699 C704 1.390 . S
C700 C694 1.465 . S
C700 C699 1.396 . S
C700 C701 1.399 . S
C701 H687 0.929 . S
C701 C700 1.399 . S
C701 C702 1.385 . S
C702 H688 0.931 . S
C702 C701 1.385 . S
C702 C703 1.389 . S
C703 C702 1.389 . S
C703 C704 1.387 . S
C704 H689 0.930 . S
C704 C699 1.390 . S
C704 C703 1.387 . S
H705 C717 0.930 . S
H706 C719 0.930 . S
H707 C720 0.930 . S
H708 C724 0.959 . S
H709 C724 0.959 . S
H710 C724 0.961 . S
H711 C725 0.960 . S
H712 C725 0.961 . S
H713 C725 0.959 . S
H714 C728 0.929 . S
H715 C729 0.931 . S
H716 C731 0.930 . S
C717 H705 0.930 . S
C717 C718 1.399 . S
C717 C722 1.399 . S
C718 C717 1.399 . S
C718 C719 1.376 . S
C719 H706 0.930 . S
C719 C718 1.376 . S
C719 C720 1.388 . S
C720 H707 0.930 . S
C720 C719 1.388 . S
C720 C721 1.390 . S
C721 C720 1.390 . S
C721 C722 1.394 . S
C721 C727 1.465 . S
C722 C717 1.399 . S
C722 C721 1.394 . S
C722 C723 1.516 . S
C723 C722 1.516 . S
C723 C724 1.502 . S
C723 C725 1.561 . S
C723 C726 1.526 . S
C724 H708 0.959 . S
C724 H709 0.959 . S
C724 H710 0.961 . S
C724 C723 1.502 . S
C725 H711 0.960 . S
C725 H712 0.961 . S
C725 H713 0.959 . S
C725 C723 1.561 . S
C726 C723 1.526 . S
C726 C727 1.396 . S
C726 C731 1.390 . S
C727 C721 1.465 . S
C727 C726 1.396 . S
C727 C728 1.399 . S
C728 H714 0.929 . S
C728 C727 1.399 . S
C728 C729 1.385 . S
C729 H715 0.931 . S
C729 C728 1.385 . S
C729 C730 1.389 . S
C730 C729 1.389 . S
C730 C731 1.387 . S
C731 H716 0.930 . S
C731 C726 1.390 . S
C731 C730 1.387 . S
H732 C744 0.930 . S
H733 C746 0.930 . S
H734 C747 0.930 . S
H735 C751 0.959 . S
H736 C751 0.959 . S
H737 C751 0.961 . S
H738 C752 0.960 . S
H739 C752 0.961 . S
H740 C752 0.959 . S
H741 C755 0.929 . S
H742 C756 0.931 . S
H743 C758 0.930 . S
C744 H732 0.930 . S
C744 C745 1.399 . S
C744 C749 1.399 . S
C745 C744 1.399 . S
C745 C746 1.376 . S
C746 H733 0.930 . S
C746 C745 1.376 . S
C746 C747 1.388 . S
C747 H734 0.930 . S
C747 C746 1.388 . S
C747 C748 1.390 . S
C748 C747 1.390 . S
C748 C749 1.394 . S
C748 C754 1.465 . S
C749 C744 1.399 . S
C749 C748 1.394 . S
C749 C750 1.516 . S
C750 C749 1.516 . S
C750 C751 1.502 . S
C750 C752 1.561 . S
C750 C753 1.526 . S
C751 H735 0.959 . S
C751 H736 0.959 . S
C751 H737 0.961 . S
C751 C750 1.502 . S
C752 H738 0.960 . S
C752 H739 0.961 . S
C752 H740 0.959 . S
C752 C750 1.561 . S
C753 C750 1.526 . S
C753 C754 1.396 . S
C753 C758 1.390 . S
C754 C748 1.465 . S
C754 C753 1.396 . S
C754 C755 1.399 . S
C755 H741 0.929 . S
C755 C754 1.399 . S
C755 C756 1.385 . S
C756 H742 0.931 . S
C756 C755 1.385 . S
C756 C757 1.389 . S
C757 C756 1.389 . S
C757 C758 1.387 . S
C758 H743 0.930 . S
C758 C753 1.390 . S
C758 C757 1.387 . S
H759 C771 0.930 . S
H760 C773 0.930 . S
H761 C774 0.930 . S
H762 C778 0.959 . S
H763 C778 0.959 . S
H764 C778 0.961 . S
H765 C779 0.960 . S
H766 C779 0.961 . S
H767 C779 0.959 . S
H768 C782 0.929 . S
H769 C783 0.931 . S
H770 C785 0.930 . S
C771 H759 0.930 . S
C771 C772 1.399 . S
C771 C776 1.399 . S
C772 C771 1.399 . S
C772 C773 1.376 . S
C773 H760 0.930 . S
C773 C772 1.376 . S
C773 C774 1.388 . S
C774 H761 0.930 . S
C774 C773 1.388 . S
C774 C775 1.390 . S
C775 C774 1.390 . S
C775 C776 1.394 . S
C775 C781 1.465 . S
C776 C771 1.399 . S
C776 C775 1.394 . S
C776 C777 1.516 . S
C777 C776 1.516 . S
C777 C778 1.502 . S
C777 C779 1.561 . S
C777 C780 1.526 . S
C778 H762 0.959 . S
C778 H763 0.959 . S
C778 H764 0.961 . S
C778 C777 1.502 . S
C779 H765 0.960 . S
C779 H766 0.961 . S
C779 H767 0.959 . S
C779 C777 1.561 . S
C780 C777 1.526 . S
C780 C781 1.396 . S
C780 C785 1.390 . S
C781 C775 1.465 . S
C781 C780 1.396 . S
C781 C782 1.399 . S
C782 H768 0.929 . S
C782 C781 1.399 . S
C782 C783 1.385 . S
C783 H769 0.931 . S
C783 C782 1.385 . S
C783 C784 1.389 . S
C784 C783 1.389 . S
C784 C785 1.387 . S
C785 H770 0.930 . S
C785 C780 1.390 . S
C785 C784 1.387 . S
H786 C798 0.930 . S
H787 C800 0.930 . S
H788 C801 0.930 . S
H789 C805 0.959 . S
H790 C805 0.959 . S
H791 C805 0.961 . S
H792 C806 0.960 . S
H793 C806 0.961 . S
H794 C806 0.959 . S
H795 C809 0.929 . S
H796 C810 0.931 . S
H797 C812 0.930 . S
C798 H786 0.930 . S
C798 C799 1.399 . S
C798 C803 1.399 . S
C799 C798 1.399 . S
C799 C800 1.376 . S
C800 H787 0.930 . S
C800 C799 1.376 . S
C800 C801 1.388 . S
C801 H788 0.930 . S
C801 C800 1.388 . S
C801 C802 1.390 . S
C802 C801 1.390 . S
C802 C803 1.394 . S
C802 C808 1.465 . S
C803 C798 1.399 . S
C803 C802 1.394 . S
C803 C804 1.516 . S
C804 C803 1.516 . S
C804 C805 1.502 . S
C804 C806 1.561 . S
C804 C807 1.526 . S
C805 H789 0.959 . S
C805 H790 0.959 . S
C805 H791 0.961 . S
C805 C804 1.502 . S
C806 H792 0.960 . S
C806 H793 0.961 . S
C806 H794 0.959 . S
C806 C804 1.561 . S
C807 C804 1.526 . S
C807 C808 1.396 . S
C807 C812 1.390 . S
C808 C802 1.465 . S
C808 C807 1.396 . S
C808 C809 1.399 . S
C809 H795 0.929 . S
C809 C808 1.399 . S
C809 C810 1.385 . S
C810 H796 0.931 . S
C810 C809 1.385 . S
C810 C811 1.389 . S
C811 C810 1.389 . S
C811 C812 1.387 . S
C812 H797 0.930 . S
C812 C807 1.390 . S
C812 C811 1.387 . S
H813 C825 0.930 . S
H814 C827 0.930 . S
H815 C828 0.930 . S
H816 C832 0.959 . S
H817 C832 0.959 . S
H818 C832 0.961 . S
H819 C833 0.960 . S
H820 C833 0.961 . S
H821 C833 0.959 . S
H822 C836 0.929 . S
H823 C837 0.931 . S
H824 C839 0.930 . S
C825 H813 0.930 . S
C825 C826 1.399 . S
C825 C830 1.399 . S
C826 C825 1.399 . S
C826 C827 1.376 . S
C827 H814 0.930 . S
C827 C826 1.376 . S
C827 C828 1.388 . S
C828 H815 0.930 . S
C828 C827 1.388 . S
C828 C829 1.390 . S
C829 C828 1.390 . S
C829 C830 1.394 . S
C829 C835 1.465 . S
C830 C825 1.399 . S
C830 C829 1.394 . S
C830 C831 1.516 . S
C831 C830 1.516 . S
C831 C832 1.502 . S
C831 C833 1.561 . S
C831 C834 1.526 . S
C832 H816 0.959 . S
C832 H817 0.959 . S
C832 H818 0.961 . S
C832 C831 1.502 . S
C833 H819 0.960 . S
C833 H820 0.961 . S
C833 H821 0.959 . S
C833 C831 1.561 . S
C834 C831 1.526 . S
C834 C835 1.396 . S
C834 C839 1.390 . S
C835 C829 1.465 . S
C835 C834 1.396 . S
C835 C836 1.399 . S
C836 H822 0.929 . S
C836 C835 1.399 . S
C836 C837 1.385 . S
C837 H823 0.931 . S
C837 C836 1.385 . S
C837 C838 1.389 . S
C838 C837 1.389 . S
C838 C839 1.387 . S
C839 H824 0.930 . S
C839 C834 1.390 . S
C839 C838 1.387 . S
C205 C4 1.565 . S
C217 C130 1.561 . S
C244 C108 1.465 . S
C232 C17 1.432 . S
C271 C134 1.472 . S
C259 C30 1.386 . S
C298 C112 1.592 . S
C286 C43 1.554 . S
C325 C174 1.569 . S
C313 C56 1.528 . S
C352 C152 1.451 . S
C340 C69 1.420 . S
C367 C82 1.418 . S
C379 C178 1.430 . S
C406 C156 1.557 . S
C394 C95 1.572 . S
C421 C9 1.546 . S
C433 C179 1.562 . S
C460 C157 1.418 . S
C448 C21 1.418 . S
C475 C34 1.427 . S
C487 C176 1.424 . S
C502 C48 1.559 . S
C514 C154 1.555 . S
C541 C135 1.562 . S
C529 C61 1.549 . S
C556 C73 1.435 . S
C568 C113 1.438 . S
C595 C132 1.418 . S
C583 C86 1.415 . S
C622 C110 1.555 . S
C610 C100 1.559 . S
C649 C153 1.499 . S
C637 C8 1.501 . S
C676 C175 1.506 . S
C664 C22 1.505 . S
C691 C35 1.491 . S
C703 C155 1.497 . S
C730 C177 1.460 . S
C718 C47 1.469 . S
C757 C109 1.496 . S
C745 C60 1.499 . S
C772 C74 1.504 . S
C784 C131 1.503 . S
C799 C87 1.485 . S
C811 C111 1.492 . S
C826 C99 1.478 . S
C838 C133 1.478 . S
