# Generated by pormake.
# Topology ssa, (4,4)-cn, num edge types: 1
# Building blocks:
#     Node 0, Type 0, BuildingBlock: ESEHIV_clean_sbu_0, # of connection points: 4
#     Node 1, Type 0, BuildingBlock: ESEHIV_clean_sbu_0, # of connection points: 4
#     Node 2, Type 0, BuildingBlock: ESEHIV_clean_sbu_0, # of connection points: 4
#     Node 3, Type 0, BuildingBlock: ESEHIV_clean_sbu_0, # of connection points: 4
#     Node 4, Type 0, BuildingBlock: ESEHIV_clean_sbu_0, # of connection points: 4
#     Node 5, Type 0, BuildingBlock: ESEHIV_clean_sbu_0, # of connection points: 4
#     Node 6, Type 1, BuildingBlock: MIFKUJ_clean_linker_1, # of connection points: 4
#     Node 7, Type 1, BuildingBlock: MIFKUJ_clean_linker_1, # of connection points: 4
#     Node 8, Type 1, BuildingBlock: MIFKUJ_clean_linker_1, # of connection points: 4
#     Node 9, Type 1, BuildingBlock: MIFKUJ_clean_linker_1, # of connection points: 4
#     Node 10, Type 1, BuildingBlock: MIFKUJ_clean_linker_1, # of connection points: 4
#     Node 11, Type 1, BuildingBlock: MIFKUJ_clean_linker_1, # of connection points: 4
#     Edge 12, Type (0, 1), BuildingBlock: CIFDUS_clean_linker_0, # of connection points: 2
#     Edge 13, Type (0, 1), BuildingBlock: CIFDUS_clean_linker_0, # of connection points: 2
#     Edge 14, Type (0, 1), BuildingBlock: CIFDUS_clean_linker_0, # of connection points: 2
#     Edge 15, Type (0, 1), BuildingBlock: CIFDUS_clean_linker_0, # of connection points: 2
#     Edge 16, Type (0, 1), BuildingBlock: CIFDUS_clean_linker_0, # of connection points: 2
#     Edge 17, Type (0, 1), BuildingBlock: CIFDUS_clean_linker_0, # of connection points: 2
#     Edge 18, Type (0, 1), BuildingBlock: CIFDUS_clean_linker_0, # of connection points: 2
#     Edge 19, Type (0, 1), BuildingBlock: CIFDUS_clean_linker_0, # of connection points: 2
#     Edge 20, Type (0, 1), BuildingBlock: CIFDUS_clean_linker_0, # of connection points: 2
#     Edge 21, Type (0, 1), BuildingBlock: CIFDUS_clean_linker_0, # of connection points: 2
#     Edge 22, Type (0, 1), BuildingBlock: CIFDUS_clean_linker_0, # of connection points: 2
#     Edge 23, Type (0, 1), BuildingBlock: CIFDUS_clean_linker_0, # of connection points: 2
#     Edge 24, Type (0, 1), BuildingBlock: CIFDUS_clean_linker_0, # of connection points: 2
#     Edge 25, Type (0, 1), BuildingBlock: CIFDUS_clean_linker_0, # of connection points: 2
#     Edge 26, Type (0, 1), BuildingBlock: CIFDUS_clean_linker_0, # of connection points: 2
#     Edge 27, Type (0, 1), BuildingBlock: CIFDUS_clean_linker_0, # of connection points: 2
#     Edge 28, Type (0, 1), BuildingBlock: CIFDUS_clean_linker_0, # of connection points: 2
#     Edge 29, Type (0, 1), BuildingBlock: CIFDUS_clean_linker_0, # of connection points: 2
#     Edge 30, Type (0, 1), BuildingBlock: CIFDUS_clean_linker_0, # of connection points: 2
#     Edge 31, Type (0, 1), BuildingBlock: CIFDUS_clean_linker_0, # of connection points: 2
#     Edge 32, Type (0, 1), BuildingBlock: CIFDUS_clean_linker_0, # of connection points: 2
#     Edge 33, Type (0, 1), BuildingBlock: CIFDUS_clean_linker_0, # of connection points: 2
#     Edge 34, Type (0, 1), BuildingBlock: CIFDUS_clean_linker_0, # of connection points: 2
#     Edge 35, Type (0, 1), BuildingBlock: CIFDUS_clean_linker_0, # of connection points: 2
# Relax obj value: 0.008
# Max RMSD: 0.107
# Mean RMSD: 0.056
data_MOF--net-ssa--node1-ESEHIV_clean_sbu_0--node2-MIFKUJ_clean_linker_1--edge1-CIFDUS_clean_linker_0
_symmetry_space_group_name_H-M    P1
_symmetry_Int_Tables_number       1
_symmetry_cell_setting            triclinic
loop_
_symmetry_equiv_pos_as_xyz
'x, y, z'
_cell_length_a     54.08535
_cell_length_b     57.783506
_cell_length_c     35.664064
_cell_angle_alpha  88.23957
_cell_angle_beta   91.096526
_cell_angle_gamma 122.08184
loop_
_atom_site_label
_atom_site_type_symbol
_atom_site_fract_x
_atom_site_fract_y
_atom_site_fract_z
_atom_type_partial_charge
Cu0 Cu 1.00572 0.5167 0.02093 0.0
N1 N 0.97613 0.48088 0.03119 0.0
N2 N 0.9411 0.43815 0.01846 0.0
C3 C 0.9604 0.4632 1.00426 0.0
C4 C 0.94444 0.44024 0.05606 0.0
C5 C 0.96629 0.46678 0.06388 0.0
O6 O 0.99216 0.52687 0.97539 0.0
C7 C 0.04501 0.49743 0.0172 0.0
O8 O 0.0218 0.47414 0.00752 0.0
H9 H 0.96336 0.46868 0.97467 0.0
H10 H 0.9747 0.47506 0.09126 0.0
N11 N 0.00971 0.5381 0.06113 0.0
N12 N 0.03235 0.56536 0.1094 0.0
C13 C 0.03542 0.5549 0.07783 0.0
C14 C 0.98942 0.53792 0.08257 0.0
C15 C 1.0034 0.55493 0.11239 0.0
C16 C 0.99097 0.54826 0.97101 0.0
O17 O 1.00408 0.56784 0.99541 0.0
H18 H 0.05596 0.55886 0.06724 0.0
H19 H 0.96614 0.52552 0.07768 0.0
O20 O 0.04311 0.51844 0.01943 0.0
H21 H 0.93258 0.42366 0.07628 0.0
H22 H 0.99294 0.55838 0.13523 0.0
Cu23 Cu 0.53477 0.02395 0.50741 0.0
N24 N 0.55309 0.02196 0.46447 0.0
N25 N 0.56367 1.00229 0.41951 0.0
C26 C 0.55229 0.99933 0.45402 0.0
C27 C 0.57207 0.02792 0.4079 0.0
C28 C 0.56552 0.04 0.43568 0.0
O29 O 0.49578 0.99147 0.50667 0.0
C30 C 0.58405 0.03963 0.55124 0.0
O31 O 0.59704 0.05009 0.51891 0.0
H32 H 0.5421 0.98054 0.47066 0.0
H33 H 0.56861 0.0601 0.4344 0.0
N34 N 0.53219 0.05516 0.50836 0.0
N35 N 0.52875 0.08851 0.5331 0.0
C36 C 0.53581 0.06954 0.53934 0.0
C37 C 0.52293 0.06579 0.48151 0.0
C38 C 0.52055 0.0862 0.49681 0.0
C39 C 0.48181 0.9883 0.4762 0.0
O40 O 0.49394 0.00743 0.44988 0.0
H41 H 0.54219 0.06534 0.56642 0.0
H42 H 0.51752 0.05881 0.45305 0.0
O43 O 0.55631 0.02534 0.55221 0.0
H44 H 0.58179 0.03715 0.381 0.0
H45 H 0.5131 0.09822 0.48255 0.0
Cu46 Cu 0.54671 0.52303 0.03551 0.0
N47 N 0.54456 0.48951 0.03637 0.0
N48 N 0.54039 0.45201 0.01306 0.0
C49 C 0.54572 0.47729 1.00541 0.0
C50 C 0.53582 0.44815 0.05041 0.0
C51 C 0.53857 0.47138 0.06477 0.0
O52 O 0.56691 0.5414 0.98939 0.0
C53 C 0.49499 0.50681 0.06869 0.0
O54 O 0.50816 0.50065 0.0948 0.0
H55 H 0.54922 0.48636 0.97748 0.0
H56 H 0.53573 0.47451 0.09371 0.0
N57 N 0.56612 0.54499 0.07691 0.0
N58 N 0.57712 0.57636 0.1204 0.0
C59 C 0.56328 0.56564 0.08762 0.0
C60 C 0.58238 0.54245 0.10375 0.0
C61 C 0.58925 0.56179 0.13057 0.0
C62 C 0.59456 0.55322 0.98934 0.0
O63 O 0.60808 0.55556 0.0213 0.0
H64 H 0.5501 0.57177 0.07238 0.0
H65 H 0.5882 0.5272 0.10426 0.0
O66 O 0.50758 0.5162 0.03719 0.0
H67 H 0.5307 0.42982 0.06614 0.0
H68 H 0.60195 0.56465 0.15575 0.0
Cu69 Cu 0.99601 0.47601 0.50056 0.0
N70 N 1.00015 0.45992 0.45833 0.0
N71 N 0.02144 0.45203 0.41156 0.0
C72 C 0.02541 0.4649 0.44408 0.0
C73 C 0.99243 0.43814 0.40512 0.0
C74 C 0.97937 0.44319 0.43393 0.0
O75 O 0.02851 0.51422 0.50175 0.0
C76 C 0.96822 0.42818 0.54408 0.0
O77 O 0.956 0.41896 0.51129 0.0
H78 H 0.04638 0.4779 0.45701 0.0
H79 H 0.9564 0.43572 0.43641 0.0
N80 N 0.96297 0.47782 0.49468 0.0
N81 N 0.92609 0.48184 0.51202 0.0
C82 C 0.9472 0.47748 0.52347 0.0
C83 C 0.95149 0.48242 0.46367 0.0
C84 C 0.9285 0.48477 0.47431 0.0
C85 C 0.05572 0.52341 0.50431 0.0
O86 O 0.0645 0.50657 0.51237 0.0
H87 H 0.95164 0.47462 0.55239 0.0
H88 H 0.95986 0.48485 0.43558 0.0
O89 O 0.98864 0.45331 0.54621 0.0
H90 H 0.98157 0.42605 0.38074 0.0
H91 H 0.9155 0.48948 0.45597 0.0
Cu92 Cu 0.48513 0.98424 0.01001 0.0
N93 N 0.46229 0.98977 0.97509 0.0
N94 N 0.45099 0.01369 0.93571 0.0
C95 C 0.46847 0.01474 0.96395 0.0
C96 C 0.43274 0.98686 0.92905 0.0
C97 C 0.4397 0.97214 0.95348 0.0
O98 O 0.52431 0.01733 1.00647 0.0
C99 C 0.44056 0.95173 0.05918 0.0
O100 O 0.43027 0.93939 0.0272 0.0
H101 H 0.48658 0.03342 0.97508 0.0
H102 H 0.42941 0.9502 0.95458 0.0
N103 N 0.4893 0.95539 0.998 0.0
N104 N 0.49942 0.92322 0.00986 0.0
C105 C 0.50313 0.94692 0.02082 0.0
C106 C 0.47668 0.93656 0.97118 0.0
C107 C 0.48266 0.91641 0.97874 0.0
C108 C 0.53445 0.02261 0.9731 0.0
O109 O 0.51885 0.00545 0.9466 0.0
H110 H 0.51378 0.95687 0.04668 0.0
H111 H 0.46294 0.93663 0.94889 0.0
O112 O 0.46567 0.97387 0.05919 0.0
H113 H 0.4159 0.97849 0.9077 0.0
H114 H 0.47433 0.8977 0.96362 0.0
Cu115 Cu 0.49086 0.50308 0.52126 0.0
N116 N 0.48909 0.53414 0.52561 0.0
N117 N 0.49164 0.57191 0.50379 0.0
C118 C 0.49409 0.55065 0.4957 0.0
C119 C 0.485 0.56889 0.54062 0.0
C120 C 0.48314 0.54525 0.55404 0.0
O121 O 0.47258 0.48994 0.4718 0.0
C122 C 0.54291 0.52586 0.55931 0.0
O123 O 0.5272 0.53144 0.58043 0.0
H124 H 0.49987 0.54723 0.46842 0.0
H125 H 0.47793 0.53687 0.58236 0.0
N126 N 0.47126 0.47719 0.55951 0.0
N127 N 0.46643 0.44678 0.60359 0.0
C128 C 0.48087 0.46132 0.57264 0.0
C129 C 0.44962 0.47245 0.58272 0.0
C130 C 0.44642 0.45341 0.60992 0.0
C131 C 0.44575 0.47096 0.46859 0.0
O132 O 0.43194 0.45556 0.49809 0.0
H133 H 0.49884 0.46112 0.56017 0.0
H134 H 0.43785 0.48282 0.58088 0.0
O135 O 0.53181 0.51371 0.52847 0.0
H136 H 0.4814 0.58252 0.55645 0.0
H137 H 0.43153 0.44603 0.63342 0.0
H138 H 0.18272 0.46056 0.1908 0.0
H139 H 0.14746 0.46559 0.15289 0.0
H140 H 0.21497 0.54847 0.12341 0.0
H141 H 0.25013 0.5433 0.16132 0.0
H142 H 0.26914 0.5067 0.15712 0.0
H143 H 0.19446 0.44938 0.28239 0.0
H144 H 0.1533 0.44529 0.31628 0.0
H145 H 0.17969 0.52716 0.27926 0.0
H146 H 0.22107 0.53128 0.24607 0.0
H147 H 0.31216 0.52663 0.30713 0.0
H148 H 0.34938 0.52582 0.34627 0.0
H149 H 0.33886 0.4584 0.28356 0.0
H150 H 0.30149 0.45931 0.24436 0.0
H151 H 0.2536 0.48723 0.29406 0.0
H152 H 0.34344 0.5382 0.22437 0.0
H153 H 0.38666 0.54112 0.19873 0.0
H154 H 0.33187 0.47529 0.12428 0.0
H155 H 0.28851 0.47197 0.15066 0.0
C156 C 0.21913 0.50158 0.1791 0.0
C157 C 0.18997 0.47979 0.17608 0.0
C158 C 0.16985 0.48265 0.1542 0.0
C159 C 0.17834 0.50746 0.13508 0.0
C160 C 0.20761 0.52917 0.13797 0.0
C161 C 0.2278 0.52618 0.15945 0.0
C162 C 0.24045 0.49897 0.20331 0.0
C163 C 0.26563 0.50232 0.18702 0.0
C164 C 0.23612 0.49331 0.24237 0.0
C165 C 0.21068 0.49056 0.26161 0.0
C166 C 0.19128 0.46639 0.28153 0.0
C167 C 0.16768 0.46401 0.30061 0.0
C168 C 0.16328 0.48591 0.30037 0.0
C169 C 0.18267 0.51004 0.28017 0.0
C170 C 0.20618 0.51235 0.26099 0.0
C171 C 0.30399 0.49313 0.2726 0.0
C172 C 0.3177 0.51155 0.30188 0.0
C173 C 0.3392 0.51121 0.32407 0.0
C174 C 0.34732 0.49216 0.31797 0.0
C175 C 0.3331 0.47328 0.28915 0.0
C176 C 0.31179 0.47384 0.26662 0.0
C177 C 0.28221 0.49476 0.24789 0.0
C178 C 0.25695 0.49127 0.26408 0.0
C179 C 0.2865 0.50033 0.20874 0.0
C180 C 0.31277 0.50444 0.19001 0.0
C181 C 0.34072 0.52445 0.20246 0.0
C182 C 0.36536 0.52615 0.18776 0.0
C183 C 0.36247 0.50824 0.15984 0.0
C184 C 0.33462 0.48938 0.1457 0.0
C185 C 0.30991 0.48745 0.16077 0.0
H186 H 0.70247 0.21118 0.82767 0.0
H187 H 0.65814 0.17642 0.86082 0.0
H188 H 0.69176 0.12343 0.86875 0.0
H189 H 0.73585 0.15801 0.83455 0.0
H190 H 0.76382 0.23637 0.85156 0.0
H191 H 0.69696 0.18131 0.75348 0.0
H192 H 0.66605 0.14245 0.7138 0.0
H193 H 0.73643 0.12833 0.70283 0.0
H194 H 0.76736 0.1675 0.74231 0.0
H195 H 0.83813 0.24469 0.72662 0.0
H196 H 0.87507 0.27826 0.68325 0.0
H197 H 0.85141 0.33625 0.71067 0.0
H198 H 0.81411 0.30243 0.75384 0.0
H199 H 0.78287 0.22007 0.72265 0.0
H200 H 0.85129 0.27494 0.81429 0.0
H201 H 0.88516 0.31385 0.85234 0.0
H202 H 0.81547 0.32592 0.88028 0.0
H203 H 0.78169 0.28716 0.84176 0.0
C204 C 0.72235 0.1871 0.82841 0.0
C205 C 0.7004 0.19216 0.83674 0.0
C206 C 0.67515 0.17236 0.8557 0.0
C207 C 0.6717 0.14738 0.86756 0.0
C208 C 0.69408 0.14265 0.86027 0.0
C209 C 0.7191 0.16226 0.84054 0.0
C210 C 0.74849 0.20785 0.80682 0.0
C211 C 0.76791 0.23302 0.82317 0.0
C212 C 0.75442 0.20297 0.7705 0.0
C213 C 0.73443 0.17724 0.75092 0.0
C214 C 0.70547 0.16941 0.74336 0.0
C215 C 0.68779 0.14712 0.7207 0.0
C216 C 0.69882 0.13234 0.70501 0.0
C217 C 0.72742 0.1395 0.7141 0.0
C218 C 0.74508 0.16181 0.73672 0.0
C219 C 0.82311 0.27081 0.7437 0.0
C220 C 0.84094 0.26467 0.7236 0.0
C221 C 0.86213 0.28393 0.69876 0.0
C222 C 0.86614 0.30995 0.69326 0.0
C223 C 0.84914 0.31654 0.71449 0.0
C224 C 0.82775 0.29715 0.73924 0.0
C225 C 0.79848 0.2491 0.7671 0.0
C226 C 0.77918 0.22361 0.75112 0.0
C227 C 0.79303 0.2535 0.80413 0.0
C228 C 0.81401 0.27831 0.82485 0.0
C229 C 0.84341 0.28627 0.82799 0.0
C230 C 0.86271 0.30842 0.84985 0.0
C231 C 0.85287 0.32278 0.86935 0.0
C232 C 0.82352 0.31496 0.86592 0.0
C233 C 0.80427 0.29294 0.84382 0.0
H234 H 0.6082 0.84797 0.33173 0.0
H235 H 0.6078 0.88475 0.36312 0.0
H236 H 0.53036 0.86656 0.30127 0.0
H237 H 0.53032 0.82907 0.27051 0.0
H238 H 0.5677 0.79485 0.33679 0.0
H239 H 0.59875 0.86439 0.23462 0.0
H240 H 0.59034 0.89127 0.18813 0.0
H241 H 0.52488 0.81659 0.13496 0.0
H242 H 0.53037 0.79026 0.18425 0.0
H243 H 0.53042 0.73126 0.2016 0.0
H244 H 0.53089 0.69413 0.17165 0.0
H245 H 0.60297 0.70796 0.24252 0.0
H246 H 0.60215 0.74506 0.27282 0.0
H247 H 0.56939 0.78262 0.2003 0.0
H248 H 0.51787 0.71816 0.29604 0.0
H249 H 0.50345 0.68253 0.3442 0.0
H250 H 0.58497 0.73394 0.40262 0.0
H251 H 0.59866 0.77004 0.35476 0.0
C252 C 0.56949 0.8358 0.29836 0.0
C253 C 0.59115 0.85189 0.32473 0.0
C254 C 0.59088 0.87291 0.34274 0.0
C255 C 0.56904 0.87856 0.33472 0.0
C256 C 0.54765 0.86288 0.30776 0.0
C257 C 0.54766 0.84148 0.29009 0.0
C258 C 0.56907 0.81212 0.28187 0.0
C259 C 0.56852 0.79252 0.30685 0.0
C260 C 0.56817 0.80789 0.24268 0.0
C261 C 0.56476 0.82517 0.21375 0.0
C262 C 0.58199 0.85384 0.21358 0.0
C263 C 0.57754 0.86925 0.18628 0.0
C264 C 0.55659 0.85632 0.15757 0.0
C265 C 0.54042 0.82759 0.15707 0.0
C266 C 0.544 0.81233 0.1851 0.0
C267 C 0.56633 0.74117 0.23943 0.0
C268 C 0.54628 0.72627 0.21088 0.0
C269 C 0.54666 0.70506 0.19362 0.0
C270 C 0.56723 0.69819 0.20424 0.0
C271 C 0.58669 0.71251 0.23374 0.0
C272 C 0.58626 0.73378 0.25111 0.0
C273 C 0.56736 0.76537 0.25513 0.0
C274 C 0.56863 0.78521 0.23017 0.0
C275 C 0.56651 0.76881 0.29402 0.0
C276 C 0.55951 0.74654 0.32158 0.0
C277 C 0.5328 0.72159 0.31897 0.0
C278 C 0.5246 0.70122 0.34659 0.0
C279 C 0.54308 0.70525 0.37733 0.0
C280 C 0.57001 0.73026 0.37966 0.0
C281 C 0.57804 0.7508 0.35216 0.0
H282 H 0.69641 0.48345 0.70456 0.0
H283 H 0.65747 0.48031 0.66498 0.0
H284 H 0.69986 0.56827 0.66595 0.0
H285 H 0.73776 0.57086 0.70728 0.0
H286 H 0.75759 0.51473 0.68597 0.0
H287 H 0.69314 0.50795 0.785 0.0
H288 H 0.66562 0.51993 0.825 0.0
H289 H 0.74196 0.60113 0.83625 0.0
H290 H 0.76951 0.58866 0.79705 0.0
H291 H 0.83305 0.57127 0.81797 0.0
H292 H 0.87018 0.57006 0.85633 0.0
H293 H 0.84239 0.49061 0.81333 0.0
H294 H 0.80378 0.49091 0.77809 0.0
H295 H 0.77881 0.54662 0.81682 0.0
H296 H 0.84469 0.55642 0.72395 0.0
H297 H 0.87625 0.54846 0.68549 0.0
H298 H 0.80212 0.46976 0.65542 0.0
H299 H 0.77063 0.47771 0.69424 0.0
C300 C 0.71989 0.52735 0.70923 0.0
C301 C 0.69709 0.50202 0.69652 0.0
C302 C 0.67496 0.50033 0.67341 0.0
C303 C 0.6753 0.52404 0.66167 0.0
C304 C 0.69828 0.54943 0.67466 0.0
C305 C 0.72017 0.55103 0.69831 0.0
C306 C 0.74438 0.52906 0.73163 0.0
C307 C 0.762 0.5213 0.71482 0.0
C308 C 0.75114 0.53904 0.76849 0.0
C309 C 0.73337 0.54739 0.78821 0.0
C310 C 0.70374 0.52849 0.79547 0.0
C311 C 0.688 0.53544 0.81823 0.0
C312 C 0.70163 0.56146 0.83409 0.0
C313 C 0.73093 0.58078 0.82504 0.0
C314 C 0.74669 0.57374 0.80254 0.0
C315 C 0.81552 0.53135 0.7944 0.0
C316 C 0.83473 0.55344 0.81705 0.0
C317 C 0.85641 0.55287 0.83872 0.0
C318 C 0.85978 0.53027 0.83822 0.0
C319 C 0.84054 0.50827 0.81533 0.0
C320 C 0.81855 0.50863 0.79434 0.0
C321 C 0.79207 0.53176 0.77146 0.0
C322 C 0.77465 0.54005 0.78799 0.0
C323 C 0.78599 0.52305 0.73377 0.0
C324 C 0.80536 0.51755 0.71223 0.0
C325 C 0.83531 0.53727 0.70958 0.0
C326 C 0.8533 0.53271 0.68758 0.0
C327 C 0.84158 0.50851 0.66747 0.0
C328 C 0.81164 0.48872 0.67032 0.0
C329 C 0.79368 0.4932 0.69253 0.0
H330 H 0.25589 0.81487 0.24645 0.0
H331 H 0.28719 0.85016 0.20038 0.0
H332 H 0.36091 0.84656 0.24064 0.0
H333 H 0.32941 0.81124 0.28704 0.0
H334 H 0.24066 0.76436 0.25038 0.0
H335 H 0.27958 0.83449 0.33588 0.0
H336 H 0.31787 0.87658 0.36417 0.0
H337 H 0.36064 0.83517 0.4045 0.0
H338 H 0.32169 0.79274 0.37652 0.0
H339 H 0.24946 0.71031 0.38363 0.0
H340 H 0.21908 0.66836 0.42034 0.0
H341 H 0.14248 0.66975 0.38761 0.0
H342 H 0.17332 0.71273 0.35312 0.0
H343 H 0.26172 0.76163 0.38584 0.0
H344 H 0.2085 0.68674 0.29615 0.0
H345 H 0.16436 0.65068 0.26553 0.0
H346 H 0.14092 0.70946 0.23381 0.0
H347 H 0.1842 0.74493 0.26594 0.0
C348 C 0.29009 0.81012 0.27024 0.0
C349 C 0.27883 0.82178 0.24566 0.0
C350 C 0.29681 0.842 0.21925 0.0
C351 C 0.32658 0.85105 0.21641 0.0
C352 C 0.33819 0.84029 0.24216 0.0
C353 C 0.32012 0.81999 0.26871 0.0
C354 C 0.27006 0.78648 0.29557 0.0
C355 C 0.24516 0.76393 0.28009 0.0
C356 C 0.27549 0.78581 0.33445 0.0
C357 C 0.29814 0.81068 0.35352 0.0
C358 C 0.29718 0.83446 0.35086 0.0
C359 C 0.31909 0.85849 0.36702 0.0
C360 C 0.34247 0.85928 0.38618 0.0
C361 C 0.3428 0.83514 0.39012 0.0
C362 C 0.32071 0.81096 0.374 0.0
C363 C 0.21376 0.71455 0.36482 0.0
C364 C 0.22616 0.70181 0.38478 0.0
C365 C 0.20861 0.67753 0.40547 0.0
C366 C 0.17806 0.66514 0.40664 0.0
C367 C 0.16583 0.67855 0.38774 0.0
C368 C 0.18348 0.70306 0.36746 0.0
C369 C 0.23251 0.73923 0.34044 0.0
C370 C 0.25729 0.76198 0.35611 0.0
C371 C 0.22608 0.74063 0.30198 0.0
C372 C 0.19951 0.71846 0.28358 0.0
C373 C 0.19363 0.69172 0.28299 0.0
C374 C 0.1685 0.67119 0.26522 0.0
C375 C 0.14902 0.67715 0.24726 0.0
C376 C 0.1551 0.704 0.24792 0.0
C377 C 0.18004 0.7244 0.2659 0.0
H378 H 0.54962 0.3098 0.83914 0.0
H379 H 0.55366 0.34305 0.88397 0.0
H380 H 0.4616 0.31134 0.871 0.0
H381 H 0.45781 0.27841 0.82563 0.0
H382 H 0.50551 0.24758 0.84586 0.0
H383 H 0.53034 0.32919 0.76678 0.0
H384 H 0.51887 0.36241 0.74221 0.0
H385 H 0.43726 0.29658 0.69814 0.0
H386 H 0.44828 0.2635 0.72424 0.0
H387 H 0.46482 0.21086 0.68914 0.0
H388 H 0.46745 0.18223 0.64326 0.0
H389 H 0.53397 0.18013 0.70999 0.0
H390 H 0.53386 0.2117 0.75304 0.0
H391 H 0.49331 0.25664 0.70915 0.0
H392 H 0.45542 0.1771 0.78269 0.0
H393 H 0.44715 0.1359 0.8156 0.0
H394 H 0.52935 0.18407 0.8739 0.0
H395 H 0.53713 0.22529 0.84144 0.0
C396 C 0.50345 0.29171 0.82901 0.0
C397 C 0.53034 0.31009 0.84588 0.0
C398 C 0.53265 0.32915 0.87131 0.0
C399 C 0.50795 0.32981 0.88097 0.0
C400 C 0.48096 0.31121 0.86423 0.0
C401 C 0.47878 0.29246 0.83827 0.0
C402 C 0.50131 0.27161 0.80203 0.0
C403 C 0.50332 0.24969 0.81584 0.0
C404 C 0.49618 0.27326 0.76332 0.0
C405 C 0.49005 0.29382 0.74766 0.0
C406 C 0.50983 0.32191 0.75224 0.0
C407 C 0.50334 0.3409 0.73787 0.0
C408 C 0.47707 0.33217 0.71829 0.0
C409 C 0.45743 0.30401 0.71362 0.0
C410 C 0.46387 0.28508 0.72813 0.0
C411 C 0.49885 0.21346 0.72528 0.0
C412 C 0.48034 0.20463 0.69374 0.0
C413 C 0.48152 0.18763 0.6676 0.0
C414 C 0.50071 0.17821 0.67257 0.0
C415 C 0.51912 0.187 0.70435 0.0
C416 C 0.51859 0.20473 0.72981 0.0
C417 C 0.49819 0.23242 0.75261 0.0
C418 C 0.49562 0.25423 0.73903 0.0
C419 C 0.50052 0.22947 0.79196 0.0
C420 C 0.49696 0.20426 0.80949 0.0
C421 C 0.47185 0.17871 0.80218 0.0
C422 C 0.46717 0.15515 0.82099 0.0
C423 C 0.48752 0.15666 0.84755 0.0
C424 C 0.51299 0.18223 0.85413 0.0
C425 C 0.51757 0.2058 0.83545 0.0
H426 H 0.09067 0.53664 0.05894 0.0
H427 H 0.0577 0.45802 0.00995 0.0
H428 H 0.09601 0.45439 0.04125 0.0
H429 H 0.13733 0.47213 0.08546 0.0
H430 H 0.17048 0.55055 0.13482 0.0
H431 H 0.13392 0.55562 0.10058 0.0
C432 C 0.09215 0.51893 0.05456 0.0
C433 C 0.07115 0.49763 0.03199 0.0
C434 C 0.11419 0.51675 0.07313 0.0
C435 C 0.07341 0.47474 0.02709 0.0
C436 C 0.0953 0.47256 0.04516 0.0
C437 C 0.13655 0.49033 0.08874 0.0
C438 C 0.15663 0.51086 0.11289 0.0
C439 C 0.11548 0.49317 0.06882 0.0
C440 C 0.1555 0.53449 0.11629 0.0
C441 C 0.1345 0.53738 0.09677 0.0
H442 H 0.64277 0.06634 0.55834 0.0
H443 H 0.56405 0.0351 0.62279 0.0
H444 H 0.59306 0.05899 0.67788 0.0
H445 H 0.64054 0.09314 0.70532 0.0
H446 H 0.71871 0.12558 0.6392 0.0
H447 H 0.69021 0.0965 0.58756 0.0
C448 C 0.63194 0.06438 0.5846 0.0
C449 C 0.6013 0.04926 0.58629 0.0
C450 C 0.64868 0.07857 0.61588 0.0
C451 C 0.58762 0.04666 0.62066 0.0
C452 C 0.60419 0.06048 0.65213 0.0
C453 C 0.65133 0.09365 0.67971 0.0
C454 C 0.6817 0.11168 0.67612 0.0
C455 C 0.63469 0.07723 0.64968 0.0
C456 C 0.69543 0.11176 0.64297 0.0
C457 C 0.67911 0.09529 0.61322 0.0
H458 H 0.56958 0.61625 0.09236 0.0
H459 H 0.58477 0.58466 0.19553 0.0
H460 H 0.58368 0.61973 0.23057 0.0
H461 H 0.577 0.65883 0.23232 0.0
H462 H 0.56185 0.69008 0.12869 0.0
H463 H 0.56364 0.65541 0.09387 0.0
C464 C 0.57244 0.61682 0.12253 0.0
C465 C 0.5772 0.59762 0.14108 0.0
C466 C 0.57155 0.63697 0.14264 0.0
C467 C 0.5814 0.59922 0.18024 0.0
C468 C 0.58058 0.61923 0.20043 0.0
C469 C 0.57432 0.65821 0.20209 0.0
C470 C 0.56899 0.67702 0.18337 0.0
C471 C 0.57557 0.63819 0.18197 0.0
C472 C 0.56536 0.67562 0.14412 0.0
C473 C 0.5666 0.65587 0.12404 0.0
H474 H 0.93705 0.49976 0.58266 0.0
H475 H 0.87225 0.47171 0.4947 0.0
H476 H 0.83991 0.47725 0.53546 0.0
H477 H 0.83034 0.49018 0.59619 0.0
H478 H 0.89532 0.51751 0.68395 0.0
H479 H 0.92734 0.51178 0.64313 0.0
C480 C 0.9157 0.49443 0.57249 0.0
C481 C 0.90697 0.48509 0.53577 0.0
C482 C 0.89732 0.49755 0.59603 0.0
C483 C 0.87954 0.47909 0.52276 0.0
C484 C 0.86101 0.48211 0.54611 0.0
C485 C 0.85139 0.49459 0.60645 0.0
C486 C 0.8605 0.50423 0.64298 0.0
C487 C 0.86969 0.4913 0.58282 0.0
C488 C 0.88799 0.51031 0.65579 0.0
C489 C 0.90623 0.50695 0.63255 0.0
H490 H 0.38343 0.9126 0.06293 0.0
H491 H 0.45865 0.96022 0.13343 0.0
H492 H 0.43007 0.93369 0.18881 0.0
H493 H 0.38374 0.8951 0.21658 0.0
H494 H 0.30969 0.84818 0.14365 0.0
H495 H 0.33778 0.87631 0.09007 0.0
C496 C 0.39368 0.91739 0.0904 0.0
C497 C 0.42326 0.93833 0.09389 0.0
C498 C 0.37725 0.90202 0.1218 0.0
C499 C 0.43592 0.94431 0.12987 0.0
C500 C 0.41959 0.929 0.16151 0.0
C501 C 0.3738 0.89109 0.18895 0.0
C502 C 0.34442 0.86953 0.18443 0.0
C503 C 0.39027 0.90748 0.15776 0.0
C504 C 0.33194 0.86482 0.14834 0.0
C505 C 0.34808 0.88082 0.11749 0.0
H506 H 0.42891 0.40198 0.64498 0.0
H507 H 0.51941 0.45333 0.61336 0.0
H508 H 0.53076 0.42283 0.64704 0.0
H509 H 0.51475 0.3804 0.68259 0.0
H510 H 0.42463 0.32906 0.71598 0.0
H511 H 0.4134 0.36061 0.68453 0.0
C512 C 0.45113 0.40659 0.64589 0.0
C513 C 0.47312 0.42964 0.62613 0.0
C514 C 0.45758 0.38887 0.66542 0.0
C515 C 0.50187 0.43536 0.62749 0.0
C516 C 0.50846 0.41801 0.64696 0.0
C517 C 0.49274 0.3763 0.68361 0.0
C518 C 0.47058 0.3523 0.7015 0.0
C519 C 0.48643 0.39451 0.66556 0.0
C520 C 0.44206 0.34717 0.70191 0.0
C521 C 0.43563 0.36527 0.68409 0.0
H522 H 0.56934 0.9614 0.44739 0.0
H523 H 0.55954 0.99648 0.34406 0.0
H524 H 0.55969 0.96104 0.30853 0.0
H525 H 0.56249 0.91969 0.30673 0.0
H526 H 0.57354 0.88553 0.41022 0.0
H527 H 0.57279 0.92067 0.44563 0.0
C528 C 0.56708 0.9612 0.41712 0.0
C529 C 0.56441 0.98162 0.39851 0.0
C530 C 0.56737 0.94081 0.39682 0.0
C531 C 0.56196 0.98126 0.35915 0.0
C532 C 0.56186 0.96085 0.33879 0.0
C533 C 0.56458 0.9199 0.33705 0.0
C534 C 0.56808 0.89999 0.35577 0.0
C535 C 0.56452 0.94048 0.3573 0.0
C536 C 0.57108 0.90073 0.39506 0.0
C537 C 0.57057 0.92079 0.41537 0.0
H538 H 0.65306 0.58101 0.98047 0.0
H539 H 0.57223 0.53706 0.91855 0.0
H540 H 0.59884 0.53821 0.86313 0.0
H541 H 0.64448 0.54703 0.83486 0.0
H542 H 0.72447 0.58869 0.89911 0.0
H543 H 0.69884 0.59348 0.9506 0.0
C544 C 0.64126 0.57205 0.95468 0.0
C545 C 0.61068 0.55869 0.95381 0.0
C546 C 0.65657 0.5722 0.92332 0.0
C547 C 0.59578 0.54746 0.92003 0.0
C548 C 0.61097 0.54793 0.88839 0.0
C549 C 0.65631 0.5573 0.86004 0.0
C550 C 0.68637 0.56733 0.86305 0.0
C551 C 0.64127 0.55944 0.89013 0.0
C552 C 0.70145 0.58103 0.89567 0.0
C553 C 0.68675 0.58358 0.92538 0.0
H554 H 0.10985 0.54407 0.47497 0.0
H555 H 0.04899 0.56706 0.50483 0.0
H556 H 0.08187 0.61315 0.47897 0.0
H557 H 0.12709 0.64646 0.44564 0.0
H558 H 0.18587 0.6219 0.41136 0.0
H559 H 0.15496 0.57732 0.4416 0.0
C560 C 0.10398 0.55929 0.47639 0.0
C561 C 0.07707 0.55213 0.49218 0.0
C562 C 0.12264 0.58557 0.46047 0.0
C563 C 0.0696 0.57201 0.493 0.0
C564 C 0.08837 0.59837 0.47809 0.0
C565 C 0.13313 0.63137 0.44449 0.0
C566 C 0.1591 0.63795 0.42621 0.0
C567 C 0.11478 0.6053 0.46125 0.0
C568 C 0.16651 0.61796 0.42575 0.0
C569 C 0.14865 0.59222 0.44284 0.0
H570 H 0.47145 0.06395 0.96166 0.0
H571 H 0.43687 0.01546 0.86268 0.0
H572 H 0.4448 0.05545 0.82652 0.0
H573 H 0.46366 0.10473 0.82247 0.0
H574 H 0.49795 0.15284 0.92201 0.0
H575 H 0.48891 0.11262 0.95816 0.0
C576 C 0.46577 0.06213 0.93214 0.0
C577 C 0.45372 0.03674 0.91493 0.0
C578 C 0.47072 0.08524 0.91147 0.0
C579 C 0.4459 0.03465 0.87678 0.0
C580 C 0.45067 0.05758 0.856 0.0
C581 C 0.46889 0.10638 0.85214 0.0
C582 C 0.48172 0.1319 0.86934 0.0
C583 C 0.46331 0.08305 0.87298 0.0
C584 C 0.48865 0.13365 0.90779 0.0
C585 C 0.48325 0.11059 0.92861 0.0
H586 H 0.45285 0.5134 0.424 0.0
H587 H 0.39796 0.42608 0.43987 0.0
H588 H 0.36367 0.42454 0.39276 0.0
H589 H 0.3469 0.44847 0.35107 0.0
H590 H 0.40021 0.53617 0.33836 0.0
H591 H 0.43713 0.53715 0.38005 0.0
C592 C 0.43376 0.49398 0.41644 0.0
C593 C 0.42821 0.46983 0.43517 0.0
C594 C 0.41345 0.49338 0.3903 0.0
C595 C 0.40291 0.44492 0.4257 0.0
C596 C 0.38316 0.44405 0.39891 0.0
C597 C 0.36677 0.46775 0.35702 0.0
C598 C 0.37058 0.49223 0.34165 0.0
C599 C 0.38781 0.46822 0.38164 0.0
C600 C 0.39642 0.51705 0.35012 0.0
C601 C 0.41767 0.51762 0.37388 0.0
H602 H 0.95207 0.42695 0.95066 0.0
H603 H 0.88757 0.3956 0.03831 0.0
H604 H 0.85428 0.35648 0.9998 0.0
H605 H 0.84322 0.33219 0.9402 0.0
H606 H 0.908 0.36455 0.85263 0.0
H607 H 0.94156 0.4026 0.89209 0.0
C608 C 0.93064 0.41169 0.96123 0.0
C609 C 0.9221 0.41431 0.99705 0.0
C610 C 0.91172 0.38957 0.93891 0.0
C611 C 0.89461 0.39395 0.01086 0.0
C612 C 0.87556 0.37172 0.98876 0.0
C613 C 0.86463 0.3477 0.92974 0.0
C614 C 0.87312 0.34569 0.89353 0.0
C615 C 0.8838 0.3695 0.95258 0.0
C616 C 0.90108 0.3656 0.8805 0.0
C617 C 0.92021 0.38737 0.90296 0.0
H618 H 0.94077 0.5056 0.94215 0.0
H619 H 0.99601 0.59343 0.93648 0.0
H620 H 0.96125 0.59571 0.89389 0.0
H621 H 0.91435 0.57284 0.85979 0.0
H622 H 0.85693 0.48517 0.87143 0.0
H623 H 0.8934 0.48287 0.90926 0.0
C624 C 0.94542 0.52522 0.93114 0.0
C625 C 0.97121 0.54931 0.94219 0.0
C626 C 0.92479 0.52645 0.90767 0.0
C627 C 0.97648 0.57458 0.9283 0.0
C628 C 0.95652 0.57589 0.90401 0.0
C629 C 0.9095 0.55319 0.87081 0.0
C630 C 0.8826 0.52922 0.86197 0.0
C631 C 0.93037 0.55197 0.89388 0.0
C632 C 0.87743 0.50403 0.87649 0.0
C633 C 0.89829 0.50264 0.89862 0.0
H634 H 0.44784 0.97848 0.41526 0.0
H635 H 0.45366 0.94031 0.51814 0.0
H636 H 0.41028 0.89685 0.49991 0.0
H637 H 0.37206 0.86936 0.45291 0.0
H638 H 0.36871 0.90847 0.34943 0.0
H639 H 0.4098 0.95198 0.36991 0.0
C640 C 0.43961 0.96075 0.43393 0.0
C641 C 0.45406 0.96261 0.46792 0.0
C642 C 0.41515 0.93595 0.42306 0.0
C643 C 0.44291 0.93942 0.49181 0.0
C644 C 0.41821 0.91456 0.4813 0.0
C645 C 0.38041 0.88742 0.43488 0.0
C646 C 0.3672 0.88566 0.39977 0.0
C647 C 0.40441 0.91249 0.44667 0.0
C648 C 0.3781 0.9093 0.37684 0.0
C649 C 0.40173 0.93419 0.3884 0.0
H650 H 0.50217 0.39752 0.01343 0.0
H651 H 0.5743 0.46362 0.95226 0.0
H652 H 0.57106 0.43162 0.90607 0.0
H653 H 0.54739 0.38469 0.88276 0.0
H654 H 0.47356 0.31892 0.94212 0.0
H655 H 0.47763 0.35075 0.98917 0.0
C656 C 0.51729 0.40481 0.99014 0.0
C657 C 0.53858 0.43287 0.98639 0.0
C658 C 0.51487 0.38633 0.96326 0.0
C659 C 0.55769 0.44215 0.95565 0.0
C660 C 0.55586 0.42384 0.9293 0.0
C661 C 0.53229 0.37736 0.90609 0.0
C662 C 0.51026 0.34946 0.90901 0.0
C663 C 0.5345 0.39588 0.93275 0.0
C664 C 0.49057 0.34031 0.93911 0.0
C665 C 0.49298 0.35849 0.96611 0.0
H666 H 0.07641 0.49514 0.40482 0.0
H667 H 0.01695 0.41403 0.36454 0.0
H668 H 0.05562 0.41749 0.32559 0.0
H669 H 0.10675 0.44336 0.3042 0.0
H670 H 0.16596 0.52416 0.34586 0.0
H671 H 0.12693 0.52098 0.3833 0.0
C672 C 0.07194 0.47807 0.38786 0.0
C673 C 0.04391 0.45423 0.3879 0.0
C674 C 0.09423 0.48019 0.36578 0.0
C675 C 0.03831 0.43263 0.36489 0.0
C676 C 0.06044 0.43456 0.34278 0.0
C677 C 0.11108 0.46019 0.32162 0.0
C678 C 0.13919 0.48396 0.32225 0.0
C679 C 0.08854 0.45819 0.3432 0.0
C680 C 0.14443 0.50578 0.34454 0.0
C681 C 0.12218 0.50392 0.36611 0.0
H682 H 0.54404 0.05216 0.90961 0.0
H683 H 0.58651 0.05001 0.0119 0.0
H684 H 0.63328 0.08873 0.98838 0.0
H685 H 0.66249 0.1216 0.93642 0.0
H686 H 0.61818 0.12429 0.83615 0.0
H687 H 0.57171 0.0869 0.86098 0.0
C688 C 0.56351 0.06032 0.92692 0.0
C689 C 0.56197 0.04815 0.96228 0.0
C690 C 0.59 0.08253 0.91334 0.0
C691 C 0.58719 0.05913 0.98465 0.0
C692 C 0.61392 0.08111 0.97105 0.0
C693 C 0.64257 0.11397 0.92024 0.0
C694 C 0.64369 0.1255 0.88439 0.0
C695 C 0.61569 0.0927 0.93511 0.0
C696 C 0.61778 0.11573 0.86377 0.0
C697 C 0.59125 0.09435 0.87793 0.0
H698 H 0.51612 0.62543 0.5178 0.0
H699 H 0.47705 0.56603 0.43076 0.0
H700 H 0.48956 0.60215 0.38392 0.0
H701 H 0.51416 0.65052 0.36709 0.0
H702 H 0.55202 0.71064 0.45357 0.0
H703 H 0.53801 0.67444 0.50111 0.0
C704 C 0.50997 0.62049 0.48868 0.0
C705 C 0.49598 0.59318 0.47764 0.0
C706 C 0.51747 0.64148 0.46173 0.0
C707 C 0.48827 0.58696 0.43977 0.0
C708 C 0.49539 0.60759 0.41299 0.0
C709 C 0.51894 0.65579 0.39637 0.0
C710 C 0.5342 0.68334 0.40658 0.0
C711 C 0.51043 0.63492 0.42355 0.0
C712 C 0.54074 0.68966 0.44471 0.0
C713 C 0.5325 0.66894 0.47201 0.0
H714 H 0.48399 0.09451 0.54753 0.0
H715 H 0.57225 0.12181 0.57974 0.0
H716 H 0.57199 0.15282 0.62511 0.0
H717 H 0.54682 0.17264 0.65436 0.0
H718 H 0.45596 0.14037 0.62775 0.0
H719 H 0.45737 0.11152 0.58096 0.0
C720 C 0.50311 0.10736 0.56451 0.0
C721 C 0.52823 0.10624 0.56017 0.0
C722 C 0.50241 0.12442 0.59129 0.0
C723 C 0.55275 0.12249 0.5827 0.0
C724 C 0.55257 0.14019 0.60852 0.0
C725 C 0.52703 0.15903 0.63905 0.0
C726 C 0.50144 0.15943 0.64478 0.0
C727 C 0.52749 0.14135 0.61306 0.0
C728 C 0.47639 0.14161 0.62361 0.0
C729 C 0.47699 0.12468 0.59692 0.0
H730 H 0.47486 0.50399 0.13801 0.0
H731 H 0.45561 0.50911 0.02119 0.0
H732 H 0.41225 0.50958 0.03899 0.0
H733 H 0.38029 0.50913 0.08841 0.0
H734 H 0.40196 0.50596 0.20476 0.0
H735 H 0.44417 0.50429 0.18644 0.0
C736 C 0.46111 0.505 0.1163 0.0
C737 C 0.46826 0.50626 0.07832 0.0
C738 C 0.43682 0.50582 0.12673 0.0
C739 C 0.45046 0.50803 0.05064 0.0
C740 C 0.42574 0.50832 0.06081 0.0
C741 C 0.39431 0.50803 0.1096 0.0
C742 C 0.38822 0.50781 0.14784 0.0
C743 C 0.41877 0.50733 0.09884 0.0
C744 C 0.40651 0.50654 0.17517 0.0
C745 C 0.43051 0.50542 0.16474 0.0
H746 H 0.93509 0.37306 0.54588 0.0
H747 H 0.97114 0.44233 0.61796 0.0
H748 H 0.94322 0.41195 0.67103 0.0
H749 H 0.90592 0.36555 0.6959 0.0
H750 H 0.87074 0.29708 0.6222 0.0
H751 H 0.90089 0.32723 0.57106 0.0
C752 C 0.93714 0.38156 0.57329 0.0
C753 C 0.95516 0.40999 0.57783 0.0
C754 C 0.92092 0.36404 0.60344 0.0
C755 C 0.95763 0.42054 0.61367 0.0
C756 C 0.94145 0.40316 0.64396 0.0
C757 C 0.90495 0.35727 0.66866 0.0
C758 C 0.88603 0.32896 0.66308 0.0
C759 C 0.92258 0.37488 0.63903 0.0
C760 C 0.88528 0.31861 0.6276 0.0
C761 C 0.90244 0.3359 0.59818 0.0
H762 H 0.55111 0.93899 0.04144 0.0
H763 H 0.4633 0.87024 0.02882 0.0
H764 H 0.47313 0.84347 0.07432 0.0
H765 H 0.50541 0.84117 0.12066 0.0
H766 H 0.59537 0.90803 0.12839 0.0
H767 H 0.58561 0.93448 0.08284 0.0
C768 C 0.5344 0.91799 0.04838 0.0
C769 C 0.50659 0.90644 0.03202 0.0
C770 C 0.54036 0.90272 0.07419 0.0
C771 C 0.48494 0.87928 0.04087 0.0
C772 C 0.49049 0.86415 0.06709 0.0
C773 C 0.52332 0.86117 0.11186 0.0
C774 C 0.55115 0.87238 0.12854 0.0
C775 C 0.518 0.87583 0.08432 0.0
C776 C 0.57351 0.89888 0.11711 0.0
C777 C 0.56807 0.91399 0.0906 0.0
H778 H 0.57009 0.49726 0.55007 0.0
H779 H 0.57906 0.56699 0.60449 0.0
H780 H 0.62082 0.57299 0.64009 0.0
H781 H 0.6521 0.55633 0.66016 0.0
H782 H 0.64514 0.48756 0.60514 0.0
H783 H 0.60518 0.48302 0.56645 0.0
C784 C 0.58168 0.51414 0.56901 0.0
C785 C 0.57142 0.53167 0.57448 0.0
C786 C 0.60569 0.5173 0.59016 0.0
C787 C 0.58642 0.55316 0.59971 0.0
C788 C 0.61028 0.55656 0.6203 0.0
C789 C 0.64242 0.54065 0.63925 0.0
C790 C 0.65179 0.5222 0.63625 0.0
C791 C 0.61971 0.5384 0.61644 0.0
C792 C 0.63818 0.50175 0.60913 0.0
C793 C 0.61539 0.49926 0.58654 0.0
H794 H 0.03251 0.60057 0.15773 0.0
H795 H 0.08411 0.56903 0.11974 0.0
H796 H 0.12429 0.60028 0.15981 0.0
H797 H 0.14585 0.63804 0.20332 0.0
H798 H 0.09406 0.66859 0.24394 0.0
H799 H 0.05296 0.63621 0.2053 0.0
C800 C 0.05239 0.6003 0.15856 0.0
C801 C 0.05532 0.58275 0.13514 0.0
C802 C 0.07551 0.61824 0.18204 0.0
C803 C 0.08138 0.58278 0.13656 0.0
C804 C 0.10439 0.60053 0.15975 0.0
C805 C 0.12542 0.63731 0.20434 0.0
C806 C 0.12318 0.65588 0.22636 0.0
C807 C 0.10184 0.61858 0.18225 0.0
C808 C 0.0966 0.65486 0.22676 0.0
C809 C 0.07301 0.63626 0.2048 0.0
loop_
_geom_bond_atom_site_label_1
_geom_bond_atom_site_label_2
_geom_bond_distance
_geom_bond_site_symmetry_2
_ccdc_geom_bond_type
Cu0 N1 1.999 1_454 S
Cu0 O6 1.974 1_454 S
Cu0 N11 1.985 . S
Cu0 O20 1.959 . S
N1 Cu0 1.999 1_656 S
N1 C3 1.263 . S
N1 C5 1.389 1_556 S
N2 C3 1.358 . S
N2 C4 1.400 . S
C3 N1 1.263 . S
C3 N2 1.358 . S
C3 H9 0.930 . S
C4 N2 1.400 . S
C4 C5 1.351 1_556 S
C4 H21 0.930 . S
C5 N1 1.389 1_554 S
C5 C4 1.351 1_554 S
C5 H10 0.930 . S
O6 Cu0 1.974 1_656 S
O6 C16 1.282 . S
C7 O8 1.261 1_554 S
C7 O20 1.251 . S
O8 C7 1.261 1_556 S
H9 C3 0.930 . S
H10 C5 0.930 . S
N11 Cu0 1.985 . S
N11 C13 1.335 . S
N11 C14 1.390 . S
N12 C13 1.345 . S
N12 C15 1.336 . S
C13 N11 1.335 . S
C13 N12 1.345 . S
C13 H18 0.930 . S
C14 N11 1.390 . S
C14 C15 1.346 . S
C14 H19 0.930 1_554 S
C15 N12 1.336 . S
C15 C14 1.346 . S
C15 H22 0.929 . S
C16 O6 1.282 . S
C16 O17 1.216 1_655 S
O17 C16 1.216 1_455 S
H18 C13 0.930 . S
H19 C14 0.930 1_556 S
O20 Cu0 1.959 . S
O20 C7 1.251 . S
H21 C4 0.930 . S
H22 C15 0.929 . S
Cu23 N24 1.999 . S
Cu23 O29 1.974 . S
Cu23 N34 1.985 1_565 S
Cu23 O43 1.959 1_565 S
N24 Cu23 1.999 . S
N24 C26 1.263 . S
N24 C28 1.389 . S
N25 C26 1.358 . S
N25 C27 1.400 . S
C26 N24 1.263 . S
C26 N25 1.358 . S
C26 H32 0.930 . S
C27 N25 1.400 . S
C27 C28 1.351 . S
C27 H44 0.930 . S
C28 N24 1.389 . S
C28 C27 1.351 . S
C28 H33 0.930 . S
O29 Cu23 1.974 . S
O29 C39 1.282 . S
C30 O31 1.261 . S
C30 O43 1.251 . S
O31 C30 1.261 . S
H32 C26 0.930 . S
H33 C28 0.930 . S
N34 Cu23 1.985 1_545 S
N34 C36 1.335 . S
N34 C37 1.390 . S
N35 C36 1.345 . S
N35 C38 1.336 . S
C36 N34 1.335 . S
C36 N35 1.345 . S
C36 H41 0.930 . S
C37 N34 1.390 . S
C37 C38 1.346 . S
C37 H42 0.930 . S
C38 N35 1.336 . S
C38 C37 1.346 . S
C38 H45 0.929 . S
C39 O29 1.282 . S
C39 O40 1.216 . S
O40 C39 1.216 . S
H41 C36 0.930 . S
H42 C37 0.930 . S
O43 Cu23 1.959 1_545 S
O43 C30 1.251 . S
H44 C27 0.930 . S
H45 C38 0.929 . S
Cu46 N47 1.999 1_554 S
Cu46 O52 1.974 1_554 S
Cu46 N57 1.985 . S
Cu46 O66 1.959 . S
N47 Cu46 1.999 1_556 S
N47 C49 1.263 . S
N47 C51 1.389 . S
N48 C49 1.358 . S
N48 C50 1.400 . S
C49 N47 1.263 . S
C49 N48 1.358 . S
C49 H55 0.930 . S
C50 N48 1.400 . S
C50 C51 1.351 . S
C50 H67 0.930 . S
C51 N47 1.389 . S
C51 C50 1.351 . S
C51 H56 0.930 . S
O52 Cu46 1.974 1_556 S
O52 C62 1.282 . S
C53 O54 1.261 . S
C53 O66 1.251 . S
O54 C53 1.261 . S
H55 C49 0.930 . S
H56 C51 0.930 . S
N57 Cu46 1.985 . S
N57 C59 1.335 . S
N57 C60 1.390 . S
N58 C59 1.345 . S
N58 C61 1.336 . S
C59 N57 1.335 . S
C59 N58 1.345 . S
C59 H64 0.930 . S
C60 N57 1.390 . S
C60 C61 1.346 . S
C60 H65 0.930 . S
C61 N58 1.336 . S
C61 C60 1.346 . S
C61 H68 0.929 . S
C62 O52 1.282 . S
C62 O63 1.216 1_556 S
O63 C62 1.216 1_554 S
H64 C59 0.930 . S
H65 C60 0.930 . S
O66 Cu46 1.959 . S
O66 C53 1.251 . S
H67 C50 0.930 . S
H68 C61 0.929 . S
Cu69 N70 1.999 1_655 S
Cu69 O75 1.974 1_655 S
Cu69 N80 1.985 . S
Cu69 O89 1.959 . S
N70 Cu69 1.999 1_455 S
N70 C72 1.263 . S
N70 C74 1.389 1_455 S
N71 C72 1.358 . S
N71 C73 1.400 . S
C72 N70 1.263 . S
C72 N71 1.358 . S
C72 H78 0.930 . S
C73 N71 1.400 . S
C73 C74 1.351 1_455 S
C73 H90 0.930 . S
C74 N70 1.389 1_655 S
C74 C73 1.351 1_655 S
C74 H79 0.930 . S
O75 Cu69 1.974 1_455 S
O75 C85 1.282 . S
C76 O77 1.261 . S
C76 O89 1.251 . S
O77 C76 1.261 . S
H78 C72 0.930 . S
H79 C74 0.930 . S
N80 Cu69 1.985 . S
N80 C82 1.335 . S
N80 C83 1.390 . S
N81 C82 1.345 . S
N81 C84 1.336 . S
C82 N80 1.335 . S
C82 N81 1.345 . S
C82 H87 0.930 . S
C83 N80 1.390 . S
C83 C84 1.346 . S
C83 H88 0.930 1_655 S
C84 N81 1.336 . S
C84 C83 1.346 . S
C84 H91 0.929 . S
C85 O75 1.282 . S
C85 O86 1.216 . S
O86 C85 1.216 . S
H87 C82 0.930 . S
H88 C83 0.930 1_455 S
O89 Cu69 1.959 . S
O89 C76 1.251 . S
H90 C73 0.930 . S
H91 C84 0.929 . S
Cu92 N93 1.999 . S
Cu92 O98 1.974 1_554 S
Cu92 N103 1.985 1_545 S
Cu92 O112 1.959 1_545 S
N93 Cu92 1.999 . S
N93 C95 1.263 1_554 S
N93 C97 1.389 . S
N94 C95 1.358 . S
N94 C96 1.400 1_556 S
C95 N93 1.263 1_556 S
C95 N94 1.358 . S
C95 H101 0.930 . S
C96 N94 1.400 1_554 S
C96 C97 1.351 . S
C96 H113 0.930 . S
C97 N93 1.389 . S
C97 C96 1.351 . S
C97 H102 0.930 . S
O98 Cu92 1.974 1_556 S
O98 C108 1.282 . S
C99 O100 1.261 . S
C99 O112 1.251 . S
O100 C99 1.261 . S
H101 C95 0.930 . S
H102 C97 0.930 . S
N103 Cu92 1.985 1_565 S
N103 C105 1.335 . S
N103 C106 1.390 . S
N104 C105 1.345 . S
N104 C107 1.336 . S
C105 N103 1.335 . S
C105 N104 1.345 . S
C105 H110 0.930 . S
C106 N103 1.390 . S
C106 C107 1.346 . S
C106 H111 0.925 1_565 S
C107 N104 1.336 . S
C107 C106 1.346 . S
C107 H114 0.929 . S
C108 O98 1.282 . S
C108 O109 1.216 . S
O109 C108 1.216 . S
H110 C105 0.930 . S
H111 C106 0.925 1_545 S
O112 Cu92 1.959 1_565 S
O112 C99 1.251 . S
H113 C96 0.930 . S
H114 C107 0.929 . S
Cu115 N116 1.999 . S
Cu115 O121 1.974 . S
Cu115 N126 1.985 . S
Cu115 O135 1.959 . S
N116 Cu115 1.999 . S
N116 C118 1.263 . S
N116 C120 1.389 . S
N117 C118 1.358 . S
N117 C119 1.400 . S
C118 N116 1.263 . S
C118 N117 1.358 . S
C118 H124 0.930 . S
C119 N117 1.400 . S
C119 C120 1.351 . S
C119 H136 0.930 . S
C120 N116 1.389 . S
C120 C119 1.351 . S
C120 H125 0.930 . S
O121 Cu115 1.974 . S
O121 C131 1.282 . S
C122 O123 1.261 . S
C122 O135 1.251 . S
O123 C122 1.261 . S
H124 C118 0.930 . S
H125 C120 0.930 . S
N126 Cu115 1.985 . S
N126 C128 1.335 . S
N126 C129 1.390 . S
N127 C128 1.345 . S
N127 C130 1.336 . S
C128 N126 1.335 . S
C128 N127 1.345 . S
C128 H133 0.930 . S
C129 N126 1.390 . S
C129 C130 1.346 . S
C129 H134 0.930 . S
C130 N127 1.336 . S
C130 C129 1.346 . S
C130 H137 0.929 . S
C131 O121 1.282 . S
C131 O132 1.216 . S
O132 C131 1.216 . S
H133 C128 0.930 . S
H134 C129 0.930 . S
O135 Cu115 1.959 . S
O135 C122 1.251 . S
H136 C119 0.930 . S
H137 C130 0.929 . S
H138 C157 0.949 . S
H139 C158 0.950 . S
H140 C160 0.950 . S
H141 C161 0.950 . S
H142 C163 0.950 . S
H143 C166 0.950 . S
H144 C167 0.950 . S
H145 C169 0.951 . S
H146 C170 0.949 . S
H147 C172 0.949 . S
H148 C173 0.950 . S
H149 C175 0.950 . S
H150 C176 0.950 . S
H151 C178 0.950 . S
H152 C181 0.950 . S
H153 C182 0.950 . S
H154 C184 0.951 . S
H155 C185 0.949 . S
C156 C157 1.376 . S
C156 C161 1.386 . S
C156 C162 1.483 . S
C157 H138 0.949 . S
C157 C156 1.376 . S
C157 C158 1.397 . S
C158 H139 0.950 . S
C158 C157 1.397 . S
C158 C159 1.391 . S
C159 C158 1.391 . S
C159 C160 1.405 . S
C160 H140 0.950 . S
C160 C159 1.405 . S
C160 C161 1.367 . S
C161 H141 0.950 . S
C161 C156 1.386 . S
C161 C160 1.367 . S
C162 C156 1.483 . S
C162 C163 1.382 . S
C162 C164 1.403 . S
C163 H142 0.950 . S
C163 C162 1.382 . S
C163 C179 1.411 . S
C164 C162 1.403 . S
C164 C165 1.489 . S
C164 C178 1.411 . S
C165 C164 1.489 . S
C165 C166 1.383 . S
C165 C170 1.382 . S
C166 H143 0.950 . S
C166 C165 1.383 . S
C166 C167 1.395 . S
C167 H144 0.950 . S
C167 C166 1.395 . S
C167 C168 1.288 . S
C168 C167 1.288 . S
C168 C169 1.392 . S
C169 H145 0.951 . S
C169 C168 1.392 . S
C169 C170 1.392 . S
C170 H146 0.949 . S
C170 C165 1.382 . S
C170 C169 1.392 . S
C171 C172 1.376 . S
C171 C176 1.386 . S
C171 C177 1.483 . S
C172 H147 0.949 . S
C172 C171 1.376 . S
C172 C173 1.397 . S
C173 H148 0.950 . S
C173 C172 1.397 . S
C173 C174 1.391 . S
C174 C173 1.391 . S
C174 C175 1.405 . S
C175 H149 0.950 . S
C175 C174 1.405 . S
C175 C176 1.367 . S
C176 H150 0.950 . S
C176 C171 1.386 . S
C176 C175 1.367 . S
C177 C171 1.483 . S
C177 C178 1.382 . S
C177 C179 1.403 . S
C178 H151 0.950 . S
C178 C164 1.411 . S
C178 C177 1.382 . S
C179 C163 1.411 . S
C179 C177 1.403 . S
C179 C180 1.489 . S
C180 C179 1.489 . S
C180 C181 1.383 . S
C180 C185 1.382 . S
C181 H152 0.950 . S
C181 C180 1.383 . S
C181 C182 1.395 . S
C182 H153 0.950 . S
C182 C181 1.395 . S
C182 C183 1.288 . S
C183 C182 1.288 . S
C183 C184 1.392 . S
C184 H154 0.951 . S
C184 C183 1.392 . S
C184 C185 1.392 . S
C185 H155 0.949 . S
C185 C180 1.382 . S
C185 C184 1.392 . S
H186 C205 0.949 . S
H187 C206 0.950 . S
H188 C208 0.950 . S
H189 C209 0.950 . S
H190 C211 0.950 . S
H191 C214 0.950 . S
H192 C215 0.950 . S
H193 C217 0.951 . S
H194 C218 0.949 . S
H195 C220 0.949 . S
H196 C221 0.950 . S
H197 C223 0.950 . S
H198 C224 0.950 . S
H199 C226 0.950 . S
H200 C229 0.950 . S
H201 C230 0.950 . S
H202 C232 0.951 . S
H203 C233 0.949 . S
C204 C205 1.376 . S
C204 C209 1.386 . S
C204 C210 1.483 . S
C205 H186 0.949 . S
C205 C204 1.376 . S
C205 C206 1.397 . S
C206 H187 0.950 . S
C206 C205 1.397 . S
C206 C207 1.391 . S
C207 C206 1.391 . S
C207 C208 1.405 . S
C208 H188 0.950 . S
C208 C207 1.405 . S
C208 C209 1.367 . S
C209 H189 0.950 . S
C209 C204 1.386 . S
C209 C208 1.367 . S
C210 C204 1.483 . S
C210 C211 1.382 . S
C210 C212 1.403 . S
C211 H190 0.950 . S
C211 C210 1.382 . S
C211 C227 1.411 . S
C212 C210 1.403 . S
C212 C213 1.489 . S
C212 C226 1.411 . S
C213 C212 1.489 . S
C213 C214 1.383 . S
C213 C218 1.382 . S
C214 H191 0.950 . S
C214 C213 1.383 . S
C214 C215 1.395 . S
C215 H192 0.950 . S
C215 C214 1.395 . S
C215 C216 1.288 . S
C216 C215 1.288 . S
C216 C217 1.392 . S
C217 H193 0.951 . S
C217 C216 1.392 . S
C217 C218 1.392 . S
C218 H194 0.949 . S
C218 C213 1.382 . S
C218 C217 1.392 . S
C219 C220 1.376 . S
C219 C224 1.386 . S
C219 C225 1.483 . S
C220 H195 0.949 . S
C220 C219 1.376 . S
C220 C221 1.397 . S
C221 H196 0.950 . S
C221 C220 1.397 . S
C221 C222 1.391 . S
C222 C221 1.391 . S
C222 C223 1.405 . S
C223 H197 0.950 . S
C223 C222 1.405 . S
C223 C224 1.367 . S
C224 H198 0.950 . S
C224 C219 1.386 . S
C224 C223 1.367 . S
C225 C219 1.483 . S
C225 C226 1.382 . S
C225 C227 1.403 . S
C226 H199 0.950 . S
C226 C212 1.411 . S
C226 C225 1.382 . S
C227 C211 1.411 . S
C227 C225 1.403 . S
C227 C228 1.489 . S
C228 C227 1.489 . S
C228 C229 1.383 . S
C228 C233 1.382 . S
C229 H200 0.950 . S
C229 C228 1.383 . S
C229 C230 1.395 . S
C230 H201 0.950 . S
C230 C229 1.395 . S
C230 C231 1.288 . S
C231 C230 1.288 . S
C231 C232 1.392 . S
C232 H202 0.951 . S
C232 C231 1.392 . S
C232 C233 1.392 . S
C233 H203 0.949 . S
C233 C228 1.382 . S
C233 C232 1.392 . S
H234 C253 0.949 . S
H235 C254 0.950 . S
H236 C256 0.950 . S
H237 C257 0.950 . S
H238 C259 0.950 . S
H239 C262 0.950 . S
H240 C263 0.950 . S
H241 C265 0.951 . S
H242 C266 0.949 . S
H243 C268 0.949 . S
H244 C269 0.950 . S
H245 C271 0.950 . S
H246 C272 0.950 . S
H247 C274 0.950 . S
H248 C277 0.950 . S
H249 C278 0.950 . S
H250 C280 0.951 . S
H251 C281 0.949 . S
C252 C253 1.376 . S
C252 C257 1.386 . S
C252 C258 1.483 . S
C253 H234 0.949 . S
C253 C252 1.376 . S
C253 C254 1.397 . S
C254 H235 0.950 . S
C254 C253 1.397 . S
C254 C255 1.391 . S
C255 C254 1.391 . S
C255 C256 1.405 . S
C256 H236 0.950 . S
C256 C255 1.405 . S
C256 C257 1.367 . S
C257 H237 0.950 . S
C257 C252 1.386 . S
C257 C256 1.367 . S
C258 C252 1.483 . S
C258 C259 1.382 . S
C258 C260 1.403 . S
C259 H238 0.950 . S
C259 C258 1.382 . S
C259 C275 1.411 . S
C260 C258 1.403 . S
C260 C261 1.489 . S
C260 C274 1.411 . S
C261 C260 1.489 . S
C261 C262 1.383 . S
C261 C266 1.382 . S
C262 H239 0.950 . S
C262 C261 1.383 . S
C262 C263 1.395 . S
C263 H240 0.950 . S
C263 C262 1.395 . S
C263 C264 1.288 . S
C264 C263 1.288 . S
C264 C265 1.392 . S
C265 H241 0.951 . S
C265 C264 1.392 . S
C265 C266 1.392 . S
C266 H242 0.949 . S
C266 C261 1.382 . S
C266 C265 1.392 . S
C267 C268 1.376 . S
C267 C272 1.386 . S
C267 C273 1.483 . S
C268 H243 0.949 . S
C268 C267 1.376 . S
C268 C269 1.397 . S
C269 H244 0.950 . S
C269 C268 1.397 . S
C269 C270 1.391 . S
C270 C269 1.391 . S
C270 C271 1.405 . S
C271 H245 0.950 . S
C271 C270 1.405 . S
C271 C272 1.367 . S
C272 H246 0.950 . S
C272 C267 1.386 . S
C272 C271 1.367 . S
C273 C267 1.483 . S
C273 C274 1.382 . S
C273 C275 1.403 . S
C274 H247 0.950 . S
C274 C260 1.411 . S
C274 C273 1.382 . S
C275 C259 1.411 . S
C275 C273 1.403 . S
C275 C276 1.489 . S
C276 C275 1.489 . S
C276 C277 1.383 . S
C276 C281 1.382 . S
C277 H248 0.950 . S
C277 C276 1.383 . S
C277 C278 1.395 . S
C278 H249 0.950 . S
C278 C277 1.395 . S
C278 C279 1.288 . S
C279 C278 1.288 . S
C279 C280 1.392 . S
C280 H250 0.951 . S
C280 C279 1.392 . S
C280 C281 1.392 . S
C281 H251 0.949 . S
C281 C276 1.382 . S
C281 C280 1.392 . S
H282 C301 0.949 . S
H283 C302 0.950 . S
H284 C304 0.950 . S
H285 C305 0.950 . S
H286 C307 0.950 . S
H287 C310 0.950 . S
H288 C311 0.950 . S
H289 C313 0.951 . S
H290 C314 0.949 . S
H291 C316 0.949 . S
H292 C317 0.950 . S
H293 C319 0.950 . S
H294 C320 0.950 . S
H295 C322 0.950 . S
H296 C325 0.950 . S
H297 C326 0.950 . S
H298 C328 0.951 . S
H299 C329 0.949 . S
C300 C301 1.376 . S
C300 C305 1.386 . S
C300 C306 1.483 . S
C301 H282 0.949 . S
C301 C300 1.376 . S
C301 C302 1.397 . S
C302 H283 0.950 . S
C302 C301 1.397 . S
C302 C303 1.391 . S
C303 C302 1.391 . S
C303 C304 1.405 . S
C304 H284 0.950 . S
C304 C303 1.405 . S
C304 C305 1.367 . S
C305 H285 0.950 . S
C305 C300 1.386 . S
C305 C304 1.367 . S
C306 C300 1.483 . S
C306 C307 1.382 . S
C306 C308 1.403 . S
C307 H286 0.950 . S
C307 C306 1.382 . S
C307 C323 1.411 . S
C308 C306 1.403 . S
C308 C309 1.489 . S
C308 C322 1.411 . S
C309 C308 1.489 . S
C309 C310 1.383 . S
C309 C314 1.382 . S
C310 H287 0.950 . S
C310 C309 1.383 . S
C310 C311 1.395 . S
C311 H288 0.950 . S
C311 C310 1.395 . S
C311 C312 1.288 . S
C312 C311 1.288 . S
C312 C313 1.392 . S
C313 H289 0.951 . S
C313 C312 1.392 . S
C313 C314 1.392 . S
C314 H290 0.949 . S
C314 C309 1.382 . S
C314 C313 1.392 . S
C315 C316 1.376 . S
C315 C320 1.386 . S
C315 C321 1.483 . S
C316 H291 0.949 . S
C316 C315 1.376 . S
C316 C317 1.397 . S
C317 H292 0.950 . S
C317 C316 1.397 . S
C317 C318 1.391 . S
C318 C317 1.391 . S
C318 C319 1.405 . S
C319 H293 0.950 . S
C319 C318 1.405 . S
C319 C320 1.367 . S
C320 H294 0.950 . S
C320 C315 1.386 . S
C320 C319 1.367 . S
C321 C315 1.483 . S
C321 C322 1.382 . S
C321 C323 1.403 . S
C322 H295 0.950 . S
C322 C308 1.411 . S
C322 C321 1.382 . S
C323 C307 1.411 . S
C323 C321 1.403 . S
C323 C324 1.489 . S
C324 C323 1.489 . S
C324 C325 1.383 . S
C324 C329 1.382 . S
C325 H296 0.950 . S
C325 C324 1.383 . S
C325 C326 1.395 . S
C326 H297 0.950 . S
C326 C325 1.395 . S
C326 C327 1.288 . S
C327 C326 1.288 . S
C327 C328 1.392 . S
C328 H298 0.951 . S
C328 C327 1.392 . S
C328 C329 1.392 . S
C329 H299 0.949 . S
C329 C324 1.382 . S
C329 C328 1.392 . S
H330 C349 0.949 . S
H331 C350 0.950 . S
H332 C352 0.950 . S
H333 C353 0.950 . S
H334 C355 0.950 . S
H335 C358 0.950 . S
H336 C359 0.950 . S
H337 C361 0.951 . S
H338 C362 0.949 . S
H339 C364 0.949 . S
H340 C365 0.950 . S
H341 C367 0.950 . S
H342 C368 0.950 . S
H343 C370 0.950 . S
H344 C373 0.950 . S
H345 C374 0.950 . S
H346 C376 0.951 . S
H347 C377 0.949 . S
C348 C349 1.376 . S
C348 C353 1.386 . S
C348 C354 1.483 . S
C349 H330 0.949 . S
C349 C348 1.376 . S
C349 C350 1.397 . S
C350 H331 0.950 . S
C350 C349 1.397 . S
C350 C351 1.391 . S
C351 C350 1.391 . S
C351 C352 1.405 . S
C352 H332 0.950 . S
C352 C351 1.405 . S
C352 C353 1.367 . S
C353 H333 0.950 . S
C353 C348 1.386 . S
C353 C352 1.367 . S
C354 C348 1.483 . S
C354 C355 1.382 . S
C354 C356 1.403 . S
C355 H334 0.950 . S
C355 C354 1.382 . S
C355 C371 1.411 . S
C356 C354 1.403 . S
C356 C357 1.489 . S
C356 C370 1.411 . S
C357 C356 1.489 . S
C357 C358 1.383 . S
C357 C362 1.382 . S
C358 H335 0.950 . S
C358 C357 1.383 . S
C358 C359 1.395 . S
C359 H336 0.950 . S
C359 C358 1.395 . S
C359 C360 1.288 . S
C360 C359 1.288 . S
C360 C361 1.392 . S
C361 H337 0.951 . S
C361 C360 1.392 . S
C361 C362 1.392 . S
C362 H338 0.949 . S
C362 C357 1.382 . S
C362 C361 1.392 . S
C363 C364 1.376 . S
C363 C368 1.386 . S
C363 C369 1.483 . S
C364 H339 0.949 . S
C364 C363 1.376 . S
C364 C365 1.397 . S
C365 H340 0.950 . S
C365 C364 1.397 . S
C365 C366 1.391 . S
C366 C365 1.391 . S
C366 C367 1.405 . S
C367 H341 0.950 . S
C367 C366 1.405 . S
C367 C368 1.367 . S
C368 H342 0.950 . S
C368 C363 1.386 . S
C368 C367 1.367 . S
C369 C363 1.483 . S
C369 C370 1.382 . S
C369 C371 1.403 . S
C370 H343 0.950 . S
C370 C356 1.411 . S
C370 C369 1.382 . S
C371 C355 1.411 . S
C371 C369 1.403 . S
C371 C372 1.489 . S
C372 C371 1.489 . S
C372 C373 1.383 . S
C372 C377 1.382 . S
C373 H344 0.950 . S
C373 C372 1.383 . S
C373 C374 1.395 . S
C374 H345 0.950 . S
C374 C373 1.395 . S
C374 C375 1.288 . S
C375 C374 1.288 . S
C375 C376 1.392 . S
C376 H346 0.951 . S
C376 C375 1.392 . S
C376 C377 1.392 . S
C377 H347 0.949 . S
C377 C372 1.382 . S
C377 C376 1.392 . S
H378 C397 0.949 . S
H379 C398 0.950 . S
H380 C400 0.950 . S
H381 C401 0.950 . S
H382 C403 0.950 . S
H383 C406 0.950 . S
H384 C407 0.950 . S
H385 C409 0.951 . S
H386 C410 0.949 . S
H387 C412 0.949 . S
H388 C413 0.950 . S
H389 C415 0.950 . S
H390 C416 0.950 . S
H391 C418 0.950 . S
H392 C421 0.950 . S
H393 C422 0.950 . S
H394 C424 0.951 . S
H395 C425 0.949 . S
C396 C397 1.376 . S
C396 C401 1.386 . S
C396 C402 1.483 . S
C397 H378 0.949 . S
C397 C396 1.376 . S
C397 C398 1.397 . S
C398 H379 0.950 . S
C398 C397 1.397 . S
C398 C399 1.391 . S
C399 C398 1.391 . S
C399 C400 1.405 . S
C400 H380 0.950 . S
C400 C399 1.405 . S
C400 C401 1.367 . S
C401 H381 0.950 . S
C401 C396 1.386 . S
C401 C400 1.367 . S
C402 C396 1.483 . S
C402 C403 1.382 . S
C402 C404 1.403 . S
C403 H382 0.950 . S
C403 C402 1.382 . S
C403 C419 1.411 . S
C404 C402 1.403 . S
C404 C405 1.489 . S
C404 C418 1.411 . S
C405 C404 1.489 . S
C405 C406 1.383 . S
C405 C410 1.382 . S
C406 H383 0.950 . S
C406 C405 1.383 . S
C406 C407 1.395 . S
C407 H384 0.950 . S
C407 C406 1.395 . S
C407 C408 1.288 . S
C408 C407 1.288 . S
C408 C409 1.392 . S
C409 H385 0.951 . S
C409 C408 1.392 . S
C409 C410 1.392 . S
C410 H386 0.949 . S
C410 C405 1.382 . S
C410 C409 1.392 . S
C411 C412 1.376 . S
C411 C416 1.386 . S
C411 C417 1.483 . S
C412 H387 0.949 . S
C412 C411 1.376 . S
C412 C413 1.397 . S
C413 H388 0.950 . S
C413 C412 1.397 . S
C413 C414 1.391 . S
C414 C413 1.391 . S
C414 C415 1.405 . S
C415 H389 0.950 . S
C415 C414 1.405 . S
C415 C416 1.367 . S
C416 H390 0.950 . S
C416 C411 1.386 . S
C416 C415 1.367 . S
C417 C411 1.483 . S
C417 C418 1.382 . S
C417 C419 1.403 . S
C418 H391 0.950 . S
C418 C404 1.411 . S
C418 C417 1.382 . S
C419 C403 1.411 . S
C419 C417 1.403 . S
C419 C420 1.489 . S
C420 C419 1.489 . S
C420 C421 1.383 . S
C420 C425 1.382 . S
C421 H392 0.950 . S
C421 C420 1.383 . S
C421 C422 1.395 . S
C422 H393 0.950 . S
C422 C421 1.395 . S
C422 C423 1.288 . S
C423 C422 1.288 . S
C423 C424 1.392 . S
C424 H394 0.951 . S
C424 C423 1.392 . S
C424 C425 1.392 . S
C425 H395 0.949 . S
C425 C420 1.382 . S
C425 C424 1.392 . S
H426 C432 0.930 . S
H427 C435 0.930 . S
H428 C436 0.930 . S
H429 C437 0.930 . S
H430 C440 0.930 . S
H431 C441 0.930 . S
C432 H426 0.930 . S
C432 C433 1.355 . S
C432 C434 1.415 . S
C433 C432 1.355 . S
C433 C435 1.419 . S
C434 C432 1.415 . S
C434 C439 1.425 . S
C434 C441 1.409 . S
C435 H427 0.930 . S
C435 C433 1.419 . S
C435 C436 1.362 . S
C436 H428 0.930 . S
C436 C435 1.362 . S
C436 C439 1.409 . S
C437 H429 0.930 . S
C437 C438 1.355 . S
C437 C439 1.415 . S
C438 C437 1.355 . S
C438 C440 1.419 . S
C439 C434 1.425 . S
C439 C436 1.409 . S
C439 C437 1.415 . S
C440 H430 0.930 . S
C440 C438 1.419 . S
C440 C441 1.362 . S
C441 H431 0.930 . S
C441 C434 1.409 . S
C441 C440 1.362 . S
H442 C448 0.930 . S
H443 C451 0.930 . S
H444 C452 0.930 . S
H445 C453 0.930 . S
H446 C456 0.930 . S
H447 C457 0.930 . S
C448 H442 0.930 . S
C448 C449 1.355 . S
C448 C450 1.415 . S
C449 C448 1.355 . S
C449 C451 1.419 . S
C450 C448 1.415 . S
C450 C455 1.425 . S
C450 C457 1.409 . S
C451 H443 0.930 . S
C451 C449 1.419 . S
C451 C452 1.362 . S
C452 H444 0.930 . S
C452 C451 1.362 . S
C452 C455 1.409 . S
C453 H445 0.930 . S
C453 C454 1.355 . S
C453 C455 1.415 . S
C454 C453 1.355 . S
C454 C456 1.419 . S
C455 C450 1.425 . S
C455 C452 1.409 . S
C455 C453 1.415 . S
C456 H446 0.930 . S
C456 C454 1.419 . S
C456 C457 1.362 . S
C457 H447 0.930 . S
C457 C450 1.409 . S
C457 C456 1.362 . S
H458 C464 0.930 . S
H459 C467 0.930 . S
H460 C468 0.930 . S
H461 C469 0.930 . S
H462 C472 0.930 . S
H463 C473 0.930 . S
C464 H458 0.930 . S
C464 C465 1.355 . S
C464 C466 1.415 . S
C465 C464 1.355 . S
C465 C467 1.419 . S
C466 C464 1.415 . S
C466 C471 1.425 . S
C466 C473 1.409 . S
C467 H459 0.930 . S
C467 C465 1.419 . S
C467 C468 1.362 . S
C468 H460 0.930 . S
C468 C467 1.362 . S
C468 C471 1.409 . S
C469 H461 0.930 . S
C469 C470 1.355 . S
C469 C471 1.415 . S
C470 C469 1.355 . S
C470 C472 1.419 . S
C471 C466 1.425 . S
C471 C468 1.409 . S
C471 C469 1.415 . S
C472 H462 0.930 . S
C472 C470 1.419 . S
C472 C473 1.362 . S
C473 H463 0.930 . S
C473 C466 1.409 . S
C473 C472 1.362 . S
H474 C480 0.930 . S
H475 C483 0.930 . S
H476 C484 0.930 . S
H477 C485 0.930 . S
H478 C488 0.930 . S
H479 C489 0.930 . S
C480 H474 0.930 . S
C480 C481 1.355 . S
C480 C482 1.415 . S
C481 C480 1.355 . S
C481 C483 1.419 . S
C482 C480 1.415 . S
C482 C487 1.425 . S
C482 C489 1.409 . S
C483 H475 0.930 . S
C483 C481 1.419 . S
C483 C484 1.362 . S
C484 H476 0.930 . S
C484 C483 1.362 . S
C484 C487 1.409 . S
C485 H477 0.930 . S
C485 C486 1.355 . S
C485 C487 1.415 . S
C486 C485 1.355 . S
C486 C488 1.419 . S
C487 C482 1.425 . S
C487 C484 1.409 . S
C487 C485 1.415 . S
C488 H478 0.930 . S
C488 C486 1.419 . S
C488 C489 1.362 . S
C489 H479 0.930 . S
C489 C482 1.409 . S
C489 C488 1.362 . S
H490 C496 0.930 . S
H491 C499 0.930 . S
H492 C500 0.930 . S
H493 C501 0.930 . S
H494 C504 0.930 . S
H495 C505 0.930 . S
C496 H490 0.930 . S
C496 C497 1.355 . S
C496 C498 1.415 . S
C497 C496 1.355 . S
C497 C499 1.419 . S
C498 C496 1.415 . S
C498 C503 1.425 . S
C498 C505 1.409 . S
C499 H491 0.930 . S
C499 C497 1.419 . S
C499 C500 1.362 . S
C500 H492 0.930 . S
C500 C499 1.362 . S
C500 C503 1.409 . S
C501 H493 0.930 . S
C501 C502 1.355 . S
C501 C503 1.415 . S
C502 C501 1.355 . S
C502 C504 1.419 . S
C503 C498 1.425 . S
C503 C500 1.409 . S
C503 C501 1.415 . S
C504 H494 0.930 . S
C504 C502 1.419 . S
C504 C505 1.362 . S
C505 H495 0.930 . S
C505 C498 1.409 . S
C505 C504 1.362 . S
H506 C512 0.930 . S
H507 C515 0.930 . S
H508 C516 0.930 . S
H509 C517 0.930 . S
H510 C520 0.930 . S
H511 C521 0.930 . S
C512 H506 0.930 . S
C512 C513 1.355 . S
C512 C514 1.415 . S
C513 C512 1.355 . S
C513 C515 1.419 . S
C514 C512 1.415 . S
C514 C519 1.425 . S
C514 C521 1.409 . S
C515 H507 0.930 . S
C515 C513 1.419 . S
C515 C516 1.362 . S
C516 H508 0.930 . S
C516 C515 1.362 . S
C516 C519 1.409 . S
C517 H509 0.930 . S
C517 C518 1.355 . S
C517 C519 1.415 . S
C518 C517 1.355 . S
C518 C520 1.419 . S
C519 C514 1.425 . S
C519 C516 1.409 . S
C519 C517 1.415 . S
C520 H510 0.930 . S
C520 C518 1.419 . S
C520 C521 1.362 . S
C521 H511 0.930 . S
C521 C514 1.409 . S
C521 C520 1.362 . S
H522 C528 0.930 . S
H523 C531 0.930 . S
H524 C532 0.930 . S
H525 C533 0.930 . S
H526 C536 0.930 . S
H527 C537 0.930 . S
C528 H522 0.930 . S
C528 C529 1.355 . S
C528 C530 1.415 . S
C529 C528 1.355 . S
C529 C531 1.419 . S
C530 C528 1.415 . S
C530 C535 1.425 . S
C530 C537 1.409 . S
C531 H523 0.930 . S
C531 C529 1.419 . S
C531 C532 1.362 . S
C532 H524 0.930 . S
C532 C531 1.362 . S
C532 C535 1.409 . S
C533 H525 0.930 . S
C533 C534 1.355 . S
C533 C535 1.415 . S
C534 C533 1.355 . S
C534 C536 1.419 . S
C535 C530 1.425 . S
C535 C532 1.409 . S
C535 C533 1.415 . S
C536 H526 0.930 . S
C536 C534 1.419 . S
C536 C537 1.362 . S
C537 H527 0.930 . S
C537 C530 1.409 . S
C537 C536 1.362 . S
H538 C544 0.930 . S
H539 C547 0.930 . S
H540 C548 0.930 . S
H541 C549 0.930 . S
H542 C552 0.930 . S
H543 C553 0.930 . S
C544 H538 0.930 . S
C544 C545 1.355 . S
C544 C546 1.415 . S
C545 C544 1.355 . S
C545 C547 1.419 . S
C546 C544 1.415 . S
C546 C551 1.425 . S
C546 C553 1.409 . S
C547 H539 0.930 . S
C547 C545 1.419 . S
C547 C548 1.362 . S
C548 H540 0.930 . S
C548 C547 1.362 . S
C548 C551 1.409 . S
C549 H541 0.930 . S
C549 C550 1.355 . S
C549 C551 1.415 . S
C550 C549 1.355 . S
C550 C552 1.419 . S
C551 C546 1.425 . S
C551 C548 1.409 . S
C551 C549 1.415 . S
C552 H542 0.930 . S
C552 C550 1.419 . S
C552 C553 1.362 . S
C553 H543 0.930 . S
C553 C546 1.409 . S
C553 C552 1.362 . S
H554 C560 0.930 . S
H555 C563 0.930 . S
H556 C564 0.930 . S
H557 C565 0.930 . S
H558 C568 0.930 . S
H559 C569 0.930 . S
C560 H554 0.930 . S
C560 C561 1.355 . S
C560 C562 1.415 . S
C561 C560 1.355 . S
C561 C563 1.419 . S
C562 C560 1.415 . S
C562 C567 1.425 . S
C562 C569 1.409 . S
C563 H555 0.930 . S
C563 C561 1.419 . S
C563 C564 1.362 . S
C564 H556 0.930 . S
C564 C563 1.362 . S
C564 C567 1.409 . S
C565 H557 0.930 . S
C565 C566 1.355 . S
C565 C567 1.415 . S
C566 C565 1.355 . S
C566 C568 1.419 . S
C567 C562 1.425 . S
C567 C564 1.409 . S
C567 C565 1.415 . S
C568 H558 0.930 . S
C568 C566 1.419 . S
C568 C569 1.362 . S
C569 H559 0.930 . S
C569 C562 1.409 . S
C569 C568 1.362 . S
H570 C576 0.930 . S
H571 C579 0.930 . S
H572 C580 0.930 . S
H573 C581 0.930 . S
H574 C584 0.930 . S
H575 C585 0.930 . S
C576 H570 0.930 . S
C576 C577 1.355 . S
C576 C578 1.415 . S
C577 C576 1.355 . S
C577 C579 1.419 . S
C578 C576 1.415 . S
C578 C583 1.425 . S
C578 C585 1.409 . S
C579 H571 0.930 . S
C579 C577 1.419 . S
C579 C580 1.362 . S
C580 H572 0.930 . S
C580 C579 1.362 . S
C580 C583 1.409 . S
C581 H573 0.930 . S
C581 C582 1.355 . S
C581 C583 1.415 . S
C582 C581 1.355 . S
C582 C584 1.419 . S
C583 C578 1.425 . S
C583 C580 1.409 . S
C583 C581 1.415 . S
C584 H574 0.930 . S
C584 C582 1.419 . S
C584 C585 1.362 . S
C585 H575 0.930 . S
C585 C578 1.409 . S
C585 C584 1.362 . S
H586 C592 0.930 . S
H587 C595 0.930 . S
H588 C596 0.930 . S
H589 C597 0.930 . S
H590 C600 0.930 . S
H591 C601 0.930 . S
C592 H586 0.930 . S
C592 C593 1.355 . S
C592 C594 1.415 . S
C593 C592 1.355 . S
C593 C595 1.419 . S
C594 C592 1.415 . S
C594 C599 1.425 . S
C594 C601 1.409 . S
C595 H587 0.930 . S
C595 C593 1.419 . S
C595 C596 1.362 . S
C596 H588 0.930 . S
C596 C595 1.362 . S
C596 C599 1.409 . S
C597 H589 0.930 . S
C597 C598 1.355 . S
C597 C599 1.415 . S
C598 C597 1.355 . S
C598 C600 1.419 . S
C599 C594 1.425 . S
C599 C596 1.409 . S
C599 C597 1.415 . S
C600 H590 0.930 . S
C600 C598 1.419 . S
C600 C601 1.362 . S
C601 H591 0.930 . S
C601 C594 1.409 . S
C601 C600 1.362 . S
H602 C608 0.930 . S
H603 C611 0.930 . S
H604 C612 0.930 . S
H605 C613 0.930 . S
H606 C616 0.930 . S
H607 C617 0.930 . S
C608 H602 0.930 . S
C608 C609 1.355 . S
C608 C610 1.415 . S
C609 C608 1.355 . S
C609 C611 1.419 . S
C610 C608 1.415 . S
C610 C615 1.425 . S
C610 C617 1.409 . S
C611 H603 0.930 . S
C611 C609 1.419 . S
C611 C612 1.362 . S
C612 H604 0.930 . S
C612 C611 1.362 . S
C612 C615 1.409 . S
C613 H605 0.930 . S
C613 C614 1.355 . S
C613 C615 1.415 . S
C614 C613 1.355 . S
C614 C616 1.419 . S
C615 C610 1.425 . S
C615 C612 1.409 . S
C615 C613 1.415 . S
C616 H606 0.930 . S
C616 C614 1.419 . S
C616 C617 1.362 . S
C617 H607 0.930 . S
C617 C610 1.409 . S
C617 C616 1.362 . S
H618 C624 0.930 . S
H619 C627 0.930 . S
H620 C628 0.930 . S
H621 C629 0.930 . S
H622 C632 0.930 . S
H623 C633 0.930 . S
C624 H618 0.930 . S
C624 C625 1.355 . S
C624 C626 1.415 . S
C625 C624 1.355 . S
C625 C627 1.419 . S
C626 C624 1.415 . S
C626 C631 1.425 . S
C626 C633 1.409 . S
C627 H619 0.930 . S
C627 C625 1.419 . S
C627 C628 1.362 . S
C628 H620 0.930 . S
C628 C627 1.362 . S
C628 C631 1.409 . S
C629 H621 0.930 . S
C629 C630 1.355 . S
C629 C631 1.415 . S
C630 C629 1.355 . S
C630 C632 1.419 . S
C631 C626 1.425 . S
C631 C628 1.409 . S
C631 C629 1.415 . S
C632 H622 0.930 . S
C632 C630 1.419 . S
C632 C633 1.362 . S
C633 H623 0.930 . S
C633 C626 1.409 . S
C633 C632 1.362 . S
H634 C640 0.930 . S
H635 C643 0.930 . S
H636 C644 0.930 . S
H637 C645 0.930 . S
H638 C648 0.930 . S
H639 C649 0.930 . S
C640 H634 0.930 . S
C640 C641 1.355 . S
C640 C642 1.415 . S
C641 C640 1.355 . S
C641 C643 1.419 . S
C642 C640 1.415 . S
C642 C647 1.425 . S
C642 C649 1.409 . S
C643 H635 0.930 . S
C643 C641 1.419 . S
C643 C644 1.362 . S
C644 H636 0.930 . S
C644 C643 1.362 . S
C644 C647 1.409 . S
C645 H637 0.930 . S
C645 C646 1.355 . S
C645 C647 1.415 . S
C646 C645 1.355 . S
C646 C648 1.419 . S
C647 C642 1.425 . S
C647 C644 1.409 . S
C647 C645 1.415 . S
C648 H638 0.930 . S
C648 C646 1.419 . S
C648 C649 1.362 . S
C649 H639 0.930 . S
C649 C642 1.409 . S
C649 C648 1.362 . S
H650 C656 0.930 . S
H651 C659 0.930 . S
H652 C660 0.930 . S
H653 C661 0.930 . S
H654 C664 0.930 . S
H655 C665 0.930 . S
C656 H650 0.930 . S
C656 C657 1.355 . S
C656 C658 1.415 . S
C657 C656 1.355 . S
C657 C659 1.419 . S
C658 C656 1.415 . S
C658 C663 1.425 . S
C658 C665 1.409 . S
C659 H651 0.930 . S
C659 C657 1.419 . S
C659 C660 1.362 . S
C660 H652 0.930 . S
C660 C659 1.362 . S
C660 C663 1.409 . S
C661 H653 0.930 . S
C661 C662 1.355 . S
C661 C663 1.415 . S
C662 C661 1.355 . S
C662 C664 1.419 . S
C663 C658 1.425 . S
C663 C660 1.409 . S
C663 C661 1.415 . S
C664 H654 0.930 . S
C664 C662 1.419 . S
C664 C665 1.362 . S
C665 H655 0.930 . S
C665 C658 1.409 . S
C665 C664 1.362 . S
H666 C672 0.930 . S
H667 C675 0.930 . S
H668 C676 0.930 . S
H669 C677 0.930 . S
H670 C680 0.930 . S
H671 C681 0.930 . S
C672 H666 0.930 . S
C672 C673 1.355 . S
C672 C674 1.415 . S
C673 C672 1.355 . S
C673 C675 1.419 . S
C674 C672 1.415 . S
C674 C679 1.425 . S
C674 C681 1.409 . S
C675 H667 0.930 . S
C675 C673 1.419 . S
C675 C676 1.362 . S
C676 H668 0.930 . S
C676 C675 1.362 . S
C676 C679 1.409 . S
C677 H669 0.930 . S
C677 C678 1.355 . S
C677 C679 1.415 . S
C678 C677 1.355 . S
C678 C680 1.419 . S
C679 C674 1.425 . S
C679 C676 1.409 . S
C679 C677 1.415 . S
C680 H670 0.930 . S
C680 C678 1.419 . S
C680 C681 1.362 . S
C681 H671 0.930 . S
C681 C674 1.409 . S
C681 C680 1.362 . S
H682 C688 0.930 . S
H683 C691 0.930 . S
H684 C692 0.930 . S
H685 C693 0.930 . S
H686 C696 0.930 . S
H687 C697 0.930 . S
C688 H682 0.930 . S
C688 C689 1.355 . S
C688 C690 1.415 . S
C689 C688 1.355 . S
C689 C691 1.419 . S
C690 C688 1.415 . S
C690 C695 1.425 . S
C690 C697 1.409 . S
C691 H683 0.930 . S
C691 C689 1.419 . S
C691 C692 1.362 . S
C692 H684 0.930 . S
C692 C691 1.362 . S
C692 C695 1.409 . S
C693 H685 0.930 . S
C693 C694 1.355 . S
C693 C695 1.415 . S
C694 C693 1.355 . S
C694 C696 1.419 . S
C695 C690 1.425 . S
C695 C692 1.409 . S
C695 C693 1.415 . S
C696 H686 0.930 . S
C696 C694 1.419 . S
C696 C697 1.362 . S
C697 H687 0.930 . S
C697 C690 1.409 . S
C697 C696 1.362 . S
H698 C704 0.930 . S
H699 C707 0.930 . S
H700 C708 0.930 . S
H701 C709 0.930 . S
H702 C712 0.930 . S
H703 C713 0.930 . S
C704 H698 0.930 . S
C704 C705 1.355 . S
C704 C706 1.415 . S
C705 C704 1.355 . S
C705 C707 1.419 . S
C706 C704 1.415 . S
C706 C711 1.425 . S
C706 C713 1.409 . S
C707 H699 0.930 . S
C707 C705 1.419 . S
C707 C708 1.362 . S
C708 H700 0.930 . S
C708 C707 1.362 . S
C708 C711 1.409 . S
C709 H701 0.930 . S
C709 C710 1.355 . S
C709 C711 1.415 . S
C710 C709 1.355 . S
C710 C712 1.419 . S
C711 C706 1.425 . S
C711 C708 1.409 . S
C711 C709 1.415 . S
C712 H702 0.930 . S
C712 C710 1.419 . S
C712 C713 1.362 . S
C713 H703 0.930 . S
C713 C706 1.409 . S
C713 C712 1.362 . S
H714 C720 0.930 . S
H715 C723 0.930 . S
H716 C724 0.930 . S
H717 C725 0.930 . S
H718 C728 0.930 . S
H719 C729 0.930 . S
C720 H714 0.930 . S
C720 C721 1.355 . S
C720 C722 1.415 . S
C721 C720 1.355 . S
C721 C723 1.419 . S
C722 C720 1.415 . S
C722 C727 1.425 . S
C722 C729 1.409 . S
C723 H715 0.930 . S
C723 C721 1.419 . S
C723 C724 1.362 . S
C724 H716 0.930 . S
C724 C723 1.362 . S
C724 C727 1.409 . S
C725 H717 0.930 . S
C725 C726 1.355 . S
C725 C727 1.415 . S
C726 C725 1.355 . S
C726 C728 1.419 . S
C727 C722 1.425 . S
C727 C724 1.409 . S
C727 C725 1.415 . S
C728 H718 0.930 . S
C728 C726 1.419 . S
C728 C729 1.362 . S
C729 H719 0.930 . S
C729 C722 1.409 . S
C729 C728 1.362 . S
H730 C736 0.930 . S
H731 C739 0.930 . S
H732 C740 0.930 . S
H733 C741 0.930 . S
H734 C744 0.930 . S
H735 C745 0.930 . S
C736 H730 0.930 . S
C736 C737 1.355 . S
C736 C738 1.415 . S
C737 C736 1.355 . S
C737 C739 1.419 . S
C738 C736 1.415 . S
C738 C743 1.425 . S
C738 C745 1.409 . S
C739 H731 0.930 . S
C739 C737 1.419 . S
C739 C740 1.362 . S
C740 H732 0.930 . S
C740 C739 1.362 . S
C740 C743 1.409 . S
C741 H733 0.930 . S
C741 C742 1.355 . S
C741 C743 1.415 . S
C742 C741 1.355 . S
C742 C744 1.419 . S
C743 C738 1.425 . S
C743 C740 1.409 . S
C743 C741 1.415 . S
C744 H734 0.930 . S
C744 C742 1.419 . S
C744 C745 1.362 . S
C745 H735 0.930 . S
C745 C738 1.409 . S
C745 C744 1.362 . S
H746 C752 0.930 . S
H747 C755 0.930 . S
H748 C756 0.930 . S
H749 C757 0.930 . S
H750 C760 0.930 . S
H751 C761 0.930 . S
C752 H746 0.930 . S
C752 C753 1.355 . S
C752 C754 1.415 . S
C753 C752 1.355 . S
C753 C755 1.419 . S
C754 C752 1.415 . S
C754 C759 1.425 . S
C754 C761 1.409 . S
C755 H747 0.930 . S
C755 C753 1.419 . S
C755 C756 1.362 . S
C756 H748 0.930 . S
C756 C755 1.362 . S
C756 C759 1.409 . S
C757 H749 0.930 . S
C757 C758 1.355 . S
C757 C759 1.415 . S
C758 C757 1.355 . S
C758 C760 1.419 . S
C759 C754 1.425 . S
C759 C756 1.409 . S
C759 C757 1.415 . S
C760 H750 0.930 . S
C760 C758 1.419 . S
C760 C761 1.362 . S
C761 H751 0.930 . S
C761 C754 1.409 . S
C761 C760 1.362 . S
H762 C768 0.930 . S
H763 C771 0.930 . S
H764 C772 0.930 . S
H765 C773 0.930 . S
H766 C776 0.930 . S
H767 C777 0.930 . S
C768 H762 0.930 . S
C768 C769 1.355 . S
C768 C770 1.415 . S
C769 C768 1.355 . S
C769 C771 1.419 . S
C770 C768 1.415 . S
C770 C775 1.425 . S
C770 C777 1.409 . S
C771 H763 0.930 . S
C771 C769 1.419 . S
C771 C772 1.362 . S
C772 H764 0.930 . S
C772 C771 1.362 . S
C772 C775 1.409 . S
C773 H765 0.930 . S
C773 C774 1.355 . S
C773 C775 1.415 . S
C774 C773 1.355 . S
C774 C776 1.419 . S
C775 C770 1.425 . S
C775 C772 1.409 . S
C775 C773 1.415 . S
C776 H766 0.930 . S
C776 C774 1.419 . S
C776 C777 1.362 . S
C777 H767 0.930 . S
C777 C770 1.409 . S
C777 C776 1.362 . S
H778 C784 0.930 . S
H779 C787 0.930 . S
H780 C788 0.930 . S
H781 C789 0.930 . S
H782 C792 0.930 . S
H783 C793 0.930 . S
C784 H778 0.930 . S
C784 C785 1.355 . S
C784 C786 1.415 . S
C785 C784 1.355 . S
C785 C787 1.419 . S
C786 C784 1.415 . S
C786 C791 1.425 . S
C786 C793 1.409 . S
C787 H779 0.930 . S
C787 C785 1.419 . S
C787 C788 1.362 . S
C788 H780 0.930 . S
C788 C787 1.362 . S
C788 C791 1.409 . S
C789 H781 0.930 . S
C789 C790 1.355 . S
C789 C791 1.415 . S
C790 C789 1.355 . S
C790 C792 1.419 . S
C791 C786 1.425 . S
C791 C788 1.409 . S
C791 C789 1.415 . S
C792 H782 0.930 . S
C792 C790 1.419 . S
C792 C793 1.362 . S
C793 H783 0.930 . S
C793 C786 1.409 . S
C793 C792 1.362 . S
H794 C800 0.930 . S
H795 C803 0.930 . S
H796 C804 0.930 . S
H797 C805 0.930 . S
H798 C808 0.930 . S
H799 C809 0.930 . S
C800 H794 0.930 . S
C800 C801 1.355 . S
C800 C802 1.415 . S
C801 C800 1.355 . S
C801 C803 1.419 . S
C802 C800 1.415 . S
C802 C807 1.425 . S
C802 C809 1.409 . S
C803 H795 0.930 . S
C803 C801 1.419 . S
C803 C804 1.362 . S
C804 H796 0.930 . S
C804 C803 1.362 . S
C804 C807 1.409 . S
C805 H797 0.930 . S
C805 C806 1.355 . S
C805 C807 1.415 . S
C806 C805 1.355 . S
C806 C808 1.419 . S
C807 C802 1.425 . S
C807 C804 1.409 . S
C807 C805 1.415 . S
C808 H798 0.930 . S
C808 C806 1.419 . S
C808 C809 1.362 . S
C809 H799 0.930 . S
C809 C802 1.409 . S
C809 C808 1.362 . S
C433 C7 1.856 . S
C438 C159 1.835 . S
C449 C30 1.634 . S
C454 C216 1.632 . S
C470 C270 1.706 . S
C465 N58 1.673 . S
C486 C327 1.485 . S
C481 N81 1.476 . S
C502 C351 1.762 . S
C497 C99 1.769 . S
C518 C408 1.572 . S
C513 N127 1.527 . S
C529 N25 1.731 . S
C534 C255 1.741 . S
C545 C62 1.613 . S
C550 C312 1.605 . S
C566 C366 1.754 . S
C561 C85 1.795 . S
C582 C423 1.460 . S
C577 N94 1.508 . S
C593 C131 1.800 . S
C598 C174 1.764 . S
C614 C231 1.485 . S
C609 N2 1.465 . S
C630 C318 1.790 . S
C625 C16 1.794 . S
C641 C39 1.576 . S
C646 C360 1.521 . S
C662 C399 1.722 . S
C657 N48 1.725 . S
C673 N71 1.408 . S
C678 C168 1.424 . S
C689 C108 1.738 . S
C694 C207 1.719 . S
C705 N117 1.483 . S
C710 C279 1.553 . S
C721 N35 1.720 . S
C726 C414 1.754 . S
C742 C183 1.608 . S
C737 C53 1.604 . S
C753 C76 1.855 . S
C758 C222 1.847 . S
C769 N104 1.510 . S
C774 C264 1.519 . S
C785 C122 1.747 . S
C790 C303 1.713 . S
C801 N12 1.411 . S
C806 C375 1.478 . S
