# Generated by pormake.
# Topology apo, (3,6)-cn, num edge types: 1
# Building blocks:
#     Node 0, Type 0, BuildingBlock: VETTIZ_charged_linker_0, # of connection points: 3
#     Node 1, Type 0, BuildingBlock: VETTIZ_charged_linker_0, # of connection points: 3
#     Node 2, Type 0, BuildingBlock: VETTIZ_charged_linker_0, # of connection points: 3
#     Node 3, Type 0, BuildingBlock: VETTIZ_charged_linker_0, # of connection points: 3
#     Node 4, Type 0, BuildingBlock: VETTIZ_charged_linker_0, # of connection points: 3
#     Node 5, Type 0, BuildingBlock: VETTIZ_charged_linker_0, # of connection points: 3
#     Node 6, Type 0, BuildingBlock: VETTIZ_charged_linker_0, # of connection points: 3
#     Node 7, Type 0, BuildingBlock: VETTIZ_charged_linker_0, # of connection points: 3
#     Node 8, Type 1, BuildingBlock: KUMBOL_clean_sbu_1, # of connection points: 6
#     Node 9, Type 1, BuildingBlock: KUMBOL_clean_sbu_1, # of connection points: 6
#     Node 10, Type 1, BuildingBlock: KUMBOL_clean_sbu_1, # of connection points: 6
#     Node 11, Type 1, BuildingBlock: KUMBOL_clean_sbu_1, # of connection points: 6
#     Edge 12, Type (0, 1), BuildingBlock: ZUJKAS_clean_linker_0, # of connection points: 2
#     Edge 13, Type (0, 1), BuildingBlock: ZUJKAS_clean_linker_0, # of connection points: 2
#     Edge 14, Type (0, 1), BuildingBlock: ZUJKAS_clean_linker_0, # of connection points: 2
#     Edge 15, Type (0, 1), BuildingBlock: ZUJKAS_clean_linker_0, # of connection points: 2
#     Edge 16, Type (0, 1), BuildingBlock: ZUJKAS_clean_linker_0, # of connection points: 2
#     Edge 17, Type (0, 1), BuildingBlock: ZUJKAS_clean_linker_0, # of connection points: 2
#     Edge 18, Type (0, 1), BuildingBlock: ZUJKAS_clean_linker_0, # of connection points: 2
#     Edge 19, Type (0, 1), BuildingBlock: ZUJKAS_clean_linker_0, # of connection points: 2
#     Edge 20, Type (0, 1), BuildingBlock: ZUJKAS_clean_linker_0, # of connection points: 2
#     Edge 21, Type (0, 1), BuildingBlock: ZUJKAS_clean_linker_0, # of connection points: 2
#     Edge 22, Type (0, 1), BuildingBlock: ZUJKAS_clean_linker_0, # of connection points: 2
#     Edge 23, Type (0, 1), BuildingBlock: ZUJKAS_clean_linker_0, # of connection points: 2
#     Edge 24, Type (0, 1), BuildingBlock: ZUJKAS_clean_linker_0, # of connection points: 2
#     Edge 25, Type (0, 1), BuildingBlock: ZUJKAS_clean_linker_0, # of connection points: 2
#     Edge 26, Type (0, 1), BuildingBlock: ZUJKAS_clean_linker_0, # of connection points: 2
#     Edge 27, Type (0, 1), BuildingBlock: ZUJKAS_clean_linker_0, # of connection points: 2
#     Edge 28, Type (0, 1), BuildingBlock: ZUJKAS_clean_linker_0, # of connection points: 2
#     Edge 29, Type (0, 1), BuildingBlock: ZUJKAS_clean_linker_0, # of connection points: 2
#     Edge 30, Type (0, 1), BuildingBlock: ZUJKAS_clean_linker_0, # of connection points: 2
#     Edge 31, Type (0, 1), BuildingBlock: ZUJKAS_clean_linker_0, # of connection points: 2
#     Edge 32, Type (0, 1), BuildingBlock: ZUJKAS_clean_linker_0, # of connection points: 2
#     Edge 33, Type (0, 1), BuildingBlock: ZUJKAS_clean_linker_0, # of connection points: 2
#     Edge 34, Type (0, 1), BuildingBlock: ZUJKAS_clean_linker_0, # of connection points: 2
#     Edge 35, Type (0, 1), BuildingBlock: ZUJKAS_clean_linker_0, # of connection points: 2
# Relax obj value: 0.011
# Max RMSD: 0.085
# Mean RMSD: 0.069
data_MOF--net-apo--node1-KUMBOL_clean_sbu_1--node2-VETTIZ_charged_linker_0--edge1-ZUJKAS_clean_linker_0
_symmetry_space_group_name_H-M    P1
_symmetry_Int_Tables_number       1
_symmetry_cell_setting            triclinic
loop_
_symmetry_equiv_pos_as_xyz
'x, y, z'
_cell_length_a     35.986705
_cell_length_b     64.892674
_cell_length_c     77.169239
_cell_angle_alpha  89.964261
_cell_angle_beta   90.056251
_cell_angle_gamma 90.304615
loop_
_atom_site_label
_atom_site_type_symbol
_atom_site_fract_x
_atom_site_fract_y
_atom_site_fract_z
_atom_type_partial_charge
C0 C 0.31329 0.36506 0.47948 0.0
C1 C 0.33063 0.38077 0.48921 0.0
C2 C 0.34184 0.399 0.48069 0.0
C3 C 0.31798 0.38598 0.4534 0.0
C4 C 0.30704 0.36804 0.46168 0.0
C5 C 0.28784 0.35329 0.44948 0.0
H6 H 0.22286 0.3329 0.36856 0.0
C7 C 0.30684 0.38448 0.43499 0.0
C8 C 0.28894 0.36538 0.4326 0.0
H9 H 0.21679 0.29355 0.41369 0.0
H10 H 0.24938 0.31929 0.43066 0.0
H11 H 0.20261 0.37479 0.38789 0.0
H12 H 0.30635 0.34663 0.37423 0.0
H13 H 0.31195 0.37315 0.37059 0.0
H14 H 0.2772 0.35903 0.35854 0.0
H15 H 0.21967 0.37424 0.36606 0.0
H16 H 0.23204 0.39473 0.38081 0.0
C17 C 0.24759 0.34989 0.45598 0.0
C18 C 0.31126 0.33338 0.44846 0.0
C19 C 0.33794 0.44295 0.39319 0.0
C20 C 0.33091 0.44592 0.3754 0.0
C21 C 0.31045 0.43076 0.36634 0.0
C22 C 0.29787 0.41288 0.37468 0.0
C23 C 0.30561 0.40999 0.39235 0.0
C24 C 0.32505 0.42495 0.40136 0.0
C25 C 0.3301 0.41929 0.42015 0.0
C26 C 0.31107 0.39832 0.42081 0.0
C27 C 0.29687 0.39298 0.40448 0.0
C28 C 0.30959 0.4355 0.43132 0.0
C29 C 0.37231 0.41772 0.42384 0.0
C30 C 0.22815 0.32989 0.38215 0.0
C31 C 0.21696 0.31121 0.3898 0.0
C32 C 0.22527 0.30776 0.40744 0.0
C33 C 0.24405 0.32278 0.4173 0.0
C34 C 0.25485 0.34144 0.40944 0.0
C35 C 0.24698 0.34464 0.39211 0.0
C36 C 0.26115 0.36507 0.3857 0.0
C37 C 0.27857 0.37377 0.40205 0.0
C38 C 0.27475 0.35995 0.41598 0.0
C39 C 0.22736 0.37795 0.37965 0.0
C40 C 0.29052 0.36095 0.37143 0.0
H41 H 0.34493 0.41589 0.45725 0.0
H42 H 0.30403 0.35095 0.48566 0.0
H43 H 0.34148 0.33706 0.44886 0.0
H44 H 0.30716 0.32488 0.43621 0.0
H45 H 0.30503 0.32295 0.45951 0.0
H46 H 0.23568 0.36456 0.46089 0.0
H47 H 0.24676 0.33851 0.46674 0.0
H48 H 0.22842 0.34476 0.44567 0.0
H49 H 0.35369 0.45419 0.40057 0.0
H50 H 0.30385 0.43278 0.35275 0.0
H51 H 0.2826 0.40199 0.36698 0.0
H52 H 0.28484 0.44163 0.4244 0.0
H53 H 0.32801 0.44879 0.43442 0.0
H54 H 0.29834 0.429 0.44348 0.0
H55 H 0.38688 0.41031 0.41278 0.0
H56 H 0.3788 0.40802 0.43518 0.0
H57 H 0.38487 0.43322 0.42577 0.0
H58 H 0.35566 0.41122 0.48781 0.0
C59 C 0.33569 0.40166 0.4629 0.0
C60 C 0.28108 0.1731 0.88267 0.0
C61 C 0.29618 0.19089 0.89042 0.0
C62 C 0.29108 0.1938 0.90841 0.0
C63 C 0.25661 0.16156 0.9104 0.0
C64 C 0.26174 0.15875 0.89281 0.0
C65 C 0.24465 0.13904 0.88638 0.0
H66 H 0.14601 0.0521 0.90177 0.0
C67 C 0.23496 0.14369 0.91703 0.0
C68 C 0.22803 0.13048 0.90295 0.0
H69 H 0.19516 0.07281 0.8536 0.0
H70 H 0.21877 0.10312 0.86769 0.0
H71 H 0.2177 0.06416 0.92562 0.0
H72 H 0.11584 0.0957 0.91386 0.0
H73 H 0.12565 0.10035 0.9358 0.0
H74 H 0.11742 0.07428 0.92855 0.0
H75 H 0.17348 0.05602 0.934 0.0
H76 H 0.2014 0.07515 0.94495 0.0
C77 C 0.27625 0.1252 0.87931 0.0
C78 C 0.21428 0.14457 0.87292 0.0
C79 C 0.19936 0.13894 0.98094 0.0
C80 C 0.17906 0.12424 0.99058 0.0
C81 C 0.16392 0.10704 0.98182 0.0
C82 C 0.1693 0.10431 0.964 0.0
C83 C 0.19001 0.11893 0.95462 0.0
C84 C 0.20444 0.13598 0.96305 0.0
C85 C 0.22529 0.15003 0.95083 0.0
C86 C 0.22119 0.13848 0.93378 0.0
C87 C 0.20055 0.12023 0.93612 0.0
C88 C 0.2663 0.15121 0.95683 0.0
C89 C 0.20524 0.17107 0.95043 0.0
C90 C 0.16212 0.06309 0.89429 0.0
C91 C 0.16833 0.06003 0.87644 0.0
C92 C 0.18921 0.07488 0.86724 0.0
C93 C 0.20322 0.09247 0.8755 0.0
C94 C 0.19658 0.09538 0.89326 0.0
C95 C 0.1765 0.08079 0.90239 0.0
C96 C 0.17265 0.08647 0.92124 0.0
C97 C 0.19374 0.10685 0.92185 0.0
C98 C 0.20755 0.11195 0.9054 0.0
C99 C 0.19201 0.06959 0.93216 0.0
C100 C 0.13078 0.08924 0.92524 0.0
H101 H 0.26864 0.18232 0.93201 0.0
H102 H 0.28381 0.17043 0.86888 0.0
H103 H 0.19932 0.1588 0.87681 0.0
H104 H 0.19239 0.13267 0.87175 0.0
H105 H 0.22662 0.14738 0.85994 0.0
H106 H 0.30282 0.12811 0.8863 0.0
H107 H 0.28132 0.12818 0.86533 0.0
H108 H 0.27075 0.10859 0.88124 0.0
H109 H 0.21159 0.15228 0.9872 0.0
H110 H 0.14749 0.09569 0.98874 0.0
H111 H 0.15705 0.09088 0.9582 0.0
H112 H 0.27594 0.13591 0.96149 0.0
H113 H 0.26973 0.16236 0.96764 0.0
H114 H 0.28557 0.15543 0.94628 0.0
H115 H 0.17456 0.16888 0.95086 0.0
H116 H 0.21052 0.17984 0.93843 0.0
H117 H 0.21333 0.18069 0.96174 0.0
H118 H 0.30271 0.2072 0.91481 0.0
C119 C 0.27142 0.17926 0.91841 0.0
C120 C 0.81417 0.13971 0.53437 0.0
C121 C 0.83486 0.12507 0.52503 0.0
C122 C 0.84947 0.10797 0.53402 0.0
C123 C 0.82256 0.12011 0.56092 0.0
C124 C 0.80854 0.13698 0.55221 0.0
C125 C 0.78771 0.15126 0.56408 0.0
H126 H 0.72856 0.17428 0.64517 0.0
C127 C 0.81175 0.12183 0.57936 0.0
C128 C 0.79144 0.14013 0.58131 0.0
H129 H 0.71207 0.20959 0.59829 0.0
H130 H 0.74468 0.18372 0.58176 0.0
H131 H 0.70989 0.13091 0.62858 0.0
H132 H 0.81324 0.16253 0.63785 0.0
H133 H 0.82031 0.13655 0.64324 0.0
H134 H 0.78608 0.15124 0.65492 0.0
H135 H 0.73023 0.13263 0.64976 0.0
H136 H 0.74173 0.11202 0.63504 0.0
C137 C 0.74678 0.15218 0.55791 0.0
C138 C 0.80807 0.17235 0.56415 0.0
C139 C 0.84853 0.06585 0.62235 0.0
C140 C 0.84274 0.06348 0.6403 0.0
C141 C 0.82278 0.07876 0.64928 0.0
C142 C 0.809 0.09608 0.64064 0.0
C143 C 0.81518 0.09831 0.62276 0.0
C144 C 0.83461 0.08334 0.6139 0.0
C145 C 0.83869 0.08847 0.59495 0.0
C146 C 0.81823 0.10888 0.59392 0.0
C147 C 0.80457 0.11452 0.61026 0.0
C148 C 0.81886 0.0714 0.58435 0.0
C149 C 0.88066 0.09098 0.5909 0.0
C150 C 0.73228 0.17657 0.63137 0.0
C151 C 0.71793 0.1941 0.62306 0.0
C152 C 0.72267 0.19618 0.605 0.0
C153 C 0.74181 0.1812 0.59544 0.0
C154 C 0.75635 0.16387 0.604 0.0
C155 C 0.7512 0.16175 0.62166 0.0
C156 C 0.76792 0.14226 0.62862 0.0
C157 C 0.78441 0.1331 0.61229 0.0
C158 C 0.77769 0.14581 0.59789 0.0
C159 C 0.73606 0.1287 0.63603 0.0
C160 C 0.79834 0.14827 0.64196 0.0
H161 H 0.85526 0.09207 0.55785 0.0
H162 H 0.80215 0.15293 0.52794 0.0
H163 H 0.83871 0.17023 0.5636 0.0
H164 H 0.80324 0.18127 0.5761 0.0
H165 H 0.79987 0.18182 0.55279 0.0
H166 H 0.73725 0.13685 0.55315 0.0
H167 H 0.74346 0.16338 0.54713 0.0
H168 H 0.72727 0.15615 0.56841 0.0
H169 H 0.86407 0.05451 0.61509 0.0
H170 H 0.81742 0.07719 0.66303 0.0
H171 H 0.79405 0.10708 0.64826 0.0
H172 H 0.79248 0.06663 0.59076 0.0
H173 H 0.8366 0.05751 0.58319 0.0
H174 H 0.81062 0.07648 0.57126 0.0
H175 H 0.89596 0.09734 0.60225 0.0
H176 H 0.88616 0.10208 0.58033 0.0
H177 H 0.89341 0.07594 0.58758 0.0
H178 H 0.86607 0.09662 0.52732 0.0
C179 C 0.84338 0.1054 0.55184 0.0
C180 C 0.77458 0.32925 0.13065 0.0
C181 C 0.78694 0.31087 0.12296 0.0
C182 C 0.78083 0.30789 0.10506 0.0
C183 C 0.7502 0.34109 0.10301 0.0
C184 C 0.75641 0.34402 0.12052 0.0
C185 C 0.74158 0.36427 0.12683 0.0
H186 H 0.6505 0.45318 0.11061 0.0
C187 C 0.73033 0.35941 0.09632 0.0
C188 C 0.72528 0.37303 0.11027 0.0
H189 H 0.69646 0.43193 0.15922 0.0
H190 H 0.71881 0.40122 0.14532 0.0
H191 H 0.71988 0.43998 0.08725 0.0
H192 H 0.61657 0.40933 0.09893 0.0
H193 H 0.62554 0.40546 0.07681 0.0
H194 H 0.61932 0.4313 0.08484 0.0
H195 H 0.67656 0.44783 0.07786 0.0
H196 H 0.70472 0.42808 0.06807 0.0
C197 C 0.77475 0.37739 0.13353 0.0
C198 C 0.71121 0.35975 0.14057 0.0
C199 C 0.69272 0.36365 0.0327 0.0
C200 C 0.6739 0.37869 0.02291 0.0
C201 C 0.66194 0.39679 0.03131 0.0
C202 C 0.66856 0.39988 0.04902 0.0
C203 C 0.68734 0.38474 0.05859 0.0
C204 C 0.69913 0.36699 0.05043 0.0
C205 C 0.71871 0.35261 0.06273 0.0
C206 C 0.71671 0.36468 0.07958 0.0
C207 C 0.69824 0.38348 0.07705 0.0
C208 C 0.75926 0.35001 0.05643 0.0
C209 C 0.69614 0.33226 0.06366 0.0
C210 C 0.66518 0.44184 0.11827 0.0
C211 C 0.67173 0.44507 0.13606 0.0
C212 C 0.69144 0.43001 0.14547 0.0
C213 C 0.7042 0.41207 0.13739 0.0
C214 C 0.69727 0.40901 0.11965 0.0
C215 C 0.67822 0.42381 0.11037 0.0
C216 C 0.67379 0.41799 0.0916 0.0
C217 C 0.69309 0.39722 0.09119 0.0
C218 C 0.70666 0.39203 0.10767 0.0
C219 C 0.69449 0.4343 0.08048 0.0
C220 C 0.63169 0.41601 0.08766 0.0
H221 H 0.75866 0.31963 0.08156 0.0
H222 H 0.7793 0.33226 0.14428 0.0
H223 H 0.69496 0.34571 0.13708 0.0
H224 H 0.69035 0.37209 0.14158 0.0
H225 H 0.72372 0.35708 0.15354 0.0
H226 H 0.8003 0.37432 0.12586 0.0
H227 H 0.78106 0.37381 0.1473 0.0
H228 H 0.77019 0.39413 0.13217 0.0
H229 H 0.70265 0.34966 0.02667 0.0
H230 H 0.6469 0.4085 0.02422 0.0
H231 H 0.65861 0.41395 0.05458 0.0
H232 H 0.77037 0.36479 0.0512 0.0
H233 H 0.76098 0.33831 0.04596 0.0
H234 H 0.77856 0.34576 0.06695 0.0
H235 H 0.66578 0.33538 0.06323 0.0
H236 H 0.70049 0.32375 0.07587 0.0
H237 H 0.70287 0.32202 0.05258 0.0
H238 H 0.78971 0.29383 0.0988 0.0
C239 C 0.76256 0.32286 0.09507 0.0
C240 C 0.68548 0.56875 0.63313 0.0
C241 C 0.6641 0.55238 0.62642 0.0
C242 C 0.65347 0.55298 0.60882 0.0
C243 C 0.6849 0.58589 0.60512 0.0
C244 C 0.69544 0.58523 0.62233 0.0
C245 C 0.71786 0.60382 0.62757 0.0
H246 H 0.79328 0.69656 0.6076 0.0
C247 C 0.69956 0.6053 0.59758 0.0
C248 C 0.71886 0.61585 0.61069 0.0
H249 H 0.79784 0.66345 0.6562 0.0
H250 H 0.76283 0.63547 0.64378 0.0
H251 H 0.81029 0.6569 0.58391 0.0
H252 H 0.70638 0.68503 0.59812 0.0
H253 H 0.7054 0.67942 0.5758 0.0
H254 H 0.73946 0.69734 0.58405 0.0
H255 H 0.79541 0.68088 0.57467 0.0
H256 H 0.78122 0.65643 0.56562 0.0
C257 C 0.75709 0.59648 0.6331 0.0
C258 C 0.69606 0.61536 0.64187 0.0
C259 C 0.67578 0.62187 0.53414 0.0
C260 C 0.68607 0.63842 0.52332 0.0
C261 C 0.70642 0.65497 0.53059 0.0
C262 C 0.7166 0.65491 0.54817 0.0
C263 C 0.70647 0.63812 0.55871 0.0
C264 C 0.6863 0.622 0.55163 0.0
C265 C 0.67809 0.60537 0.56468 0.0
C266 C 0.69698 0.61402 0.58072 0.0
C267 C 0.71352 0.63326 0.57719 0.0
C268 C 0.69665 0.58521 0.55842 0.0
C269 C 0.63538 0.60386 0.56694 0.0
C270 C 0.78646 0.6833 0.61554 0.0
C271 C 0.79837 0.68221 0.63292 0.0
C272 C 0.78938 0.66458 0.64275 0.0
C273 C 0.76883 0.64836 0.63553 0.0
C274 C 0.75707 0.64962 0.61821 0.0
C275 C 0.76614 0.66678 0.60843 0.0
C276 C 0.75226 0.66492 0.59004 0.0
C277 C 0.73289 0.64401 0.59054 0.0
C278 C 0.73569 0.63525 0.60713 0.0
C279 C 0.78635 0.66491 0.5778 0.0
C280 C 0.72455 0.68263 0.58665 0.0
H281 H 0.65457 0.56917 0.58493 0.0
H282 H 0.69462 0.56869 0.64651 0.0
H283 H 0.66567 0.61486 0.63921 0.0
H284 H 0.70301 0.63192 0.6426 0.0
H285 H 0.70072 0.60824 0.65478 0.0
H286 H 0.76534 0.58239 0.62587 0.0
H287 H 0.75799 0.59272 0.64714 0.0
H288 H 0.77913 0.60786 0.63011 0.0
H289 H 0.65967 0.60904 0.52915 0.0
H290 H 0.71516 0.66782 0.52259 0.0
H291 H 0.73222 0.6679 0.55285 0.0
H292 H 0.72387 0.58854 0.55215 0.0
H293 H 0.67891 0.5771 0.54878 0.0
H294 H 0.70319 0.57451 0.5691 0.0
H295 H 0.62237 0.61933 0.56593 0.0
H296 H 0.62705 0.59806 0.57982 0.0
H297 H 0.62272 0.59391 0.55679 0.0
H298 H 0.63666 0.54072 0.60332 0.0
C299 C 0.66371 0.56961 0.59816 0.0
C300 C 0.7218 0.83124 0.12879 0.0
C301 C 0.71026 0.8127 0.12104 0.0
C302 C 0.71832 0.80937 0.10337 0.0
C303 C 0.74858 0.84287 0.10157 0.0
C304 C 0.74091 0.84595 0.11892 0.0
C305 C 0.75594 0.8661 0.1255 0.0
H306 H 0.85099 0.95456 0.11124 0.0
C307 C 0.76916 0.86122 0.09518 0.0
C308 C 0.77365 0.87478 0.10922 0.0
H309 H 0.80216 0.93261 0.15907 0.0
H310 H 0.77963 0.90225 0.14458 0.0
H311 H 0.88338 0.91099 0.09894 0.0
H312 H 0.7811 0.94208 0.08707 0.0
H313 H 0.79629 0.9304 0.06786 0.0
H314 H 0.82475 0.94999 0.07795 0.0
H315 H 0.88152 0.93349 0.08542 0.0
H316 H 0.875 0.90799 0.07664 0.0
C317 C 0.78518 0.86144 0.13975 0.0
C318 C 0.7227 0.87933 0.13163 0.0
C319 C 0.80751 0.86653 0.03175 0.0
C320 C 0.82643 0.88183 0.02218 0.0
C321 C 0.83868 0.89977 0.03086 0.0
C322 C 0.83228 0.90246 0.04861 0.0
C323 C 0.81332 0.88709 0.05796 0.0
C324 C 0.80129 0.86948 0.04954 0.0
C325 C 0.78156 0.85483 0.06163 0.0
C326 C 0.78343 0.86667 0.0786 0.0
C327 C 0.80216 0.88556 0.07636 0.0
C328 C 0.80402 0.83456 0.06244 0.0
C329 C 0.74109 0.85213 0.05517 0.0
C330 C 0.83518 0.94328 0.11854 0.0
C331 C 0.82867 0.94596 0.1364 0.0
C332 C 0.8082 0.93079 0.14541 0.0
C333 C 0.79492 0.91317 0.13693 0.0
C334 C 0.8021 0.91054 0.11918 0.0
C335 C 0.82174 0.92549 0.11025 0.0
C336 C 0.8266 0.91998 0.09142 0.0
C337 C 0.807 0.89917 0.09063 0.0
C338 C 0.79273 0.89379 0.10694 0.0
C339 C 0.86876 0.91811 0.08774 0.0
C340 C 0.80646 0.93646 0.08037 0.0
H341 H 0.74246 0.82098 0.0802 0.0
H342 H 0.71671 0.83412 0.14241 0.0
H343 H 0.69808 0.87687 0.12313 0.0
H344 H 0.72831 0.89605 0.13096 0.0
H345 H 0.7144 0.87522 0.14506 0.0
H346 H 0.79978 0.8467 0.13712 0.0
H347 H 0.77196 0.86009 0.1527 0.0
H348 H 0.80764 0.8731 0.14036 0.0
H349 H 0.79799 0.85248 0.02558 0.0
H350 H 0.8527 0.91198 0.02383 0.0
H351 H 0.84222 0.91649 0.05436 0.0
H352 H 0.83438 0.83773 0.06154 0.0
H353 H 0.79642 0.82412 0.05158 0.0
H354 H 0.80046 0.82625 0.07482 0.0
H355 H 0.72965 0.86712 0.0507 0.0
H356 H 0.72193 0.84678 0.06539 0.0
H357 H 0.7397 0.84121 0.04411 0.0
H358 H 0.7096 0.79523 0.09708 0.0
C359 C 0.73728 0.82437 0.09359 0.0
C360 C 0.1678 0.93183 0.3785 0.0
C361 C 0.14656 0.94791 0.38555 0.0
C362 C 0.13841 0.94751 0.40345 0.0
C363 C 0.1717 0.91525 0.4067 0.0
C364 C 0.17997 0.91581 0.38922 0.0
C365 C 0.20248 0.89758 0.38357 0.0
H366 H 0.28684 0.80749 0.40274 0.0
C367 C 0.1883 0.89628 0.41406 0.0
C368 C 0.20643 0.88594 0.40052 0.0
H369 H 0.27929 0.83823 0.35313 0.0
H370 H 0.24491 0.86588 0.36612 0.0
H371 H 0.30428 0.84858 0.42515 0.0
H372 H 0.20257 0.81593 0.41406 0.0
H373 H 0.20137 0.82311 0.43598 0.0
H374 H 0.23726 0.80601 0.42851 0.0
H375 H 0.29306 0.82432 0.43508 0.0
H376 H 0.27781 0.84842 0.44426 0.0
C377 C 0.24046 0.90561 0.37684 0.0
C378 C 0.17937 0.88529 0.37006 0.0
C379 C 0.1703 0.87835 0.47786 0.0
C380 C 0.18216 0.86169 0.48818 0.0
C381 C 0.20457 0.84641 0.48054 0.0
C382 C 0.21442 0.84744 0.46299 0.0
C383 C 0.20186 0.86396 0.45282 0.0
C384 C 0.18046 0.87917 0.4603 0.0
C385 C 0.17003 0.89568 0.44747 0.0
C386 C 0.18833 0.88773 0.43105 0.0
C387 C 0.20687 0.86909 0.43427 0.0
C388 C 0.18748 0.9163 0.45359 0.0
C389 C 0.12714 0.89601 0.44589 0.0
C390 C 0.278 0.82028 0.39473 0.0
C391 C 0.28564 0.82058 0.37684 0.0
C392 C 0.2733 0.83743 0.36686 0.0
C393 C 0.25345 0.85356 0.37447 0.0
C394 C 0.2456 0.85294 0.39229 0.0
C395 C 0.25787 0.83652 0.40214 0.0
C396 C 0.24639 0.83842 0.42084 0.0
C397 C 0.22526 0.85866 0.42055 0.0
C398 C 0.22497 0.86706 0.40379 0.0
C399 C 0.28205 0.83987 0.43205 0.0
C400 C 0.22074 0.8199 0.42526 0.0
H401 H 0.14345 0.93183 0.42749 0.0
H402 H 0.17513 0.93176 0.36489 0.0
H403 H 0.14913 0.88617 0.37297 0.0
H404 H 0.18551 0.86863 0.37012 0.0
H405 H 0.18364 0.89146 0.35678 0.0
H406 H 0.25001 0.9192 0.38446 0.0
H407 H 0.23856 0.91044 0.36305 0.0
H408 H 0.26298 0.89424 0.37823 0.0
H409 H 0.15289 0.89032 0.48322 0.0
H410 H 0.21483 0.83364 0.48818 0.0
H411 H 0.23142 0.83528 0.45803 0.0
H412 H 0.21523 0.91372 0.45956 0.0
H413 H 0.1697 0.92389 0.46343 0.0
H414 H 0.19269 0.92716 0.44284 0.0
H415 H 0.1156 0.88007 0.44615 0.0
H416 H 0.11739 0.90265 0.43354 0.0
H417 H 0.11449 0.90466 0.45678 0.0
H418 H 0.12185 0.95958 0.40922 0.0
C419 C 0.15082 0.9313 0.41403 0.0
C420 C 0.23326 0.67121 0.88144 0.0
C421 C 0.22005 0.68968 0.88859 0.0
C422 C 0.22643 0.69364 0.90633 0.0
C423 C 0.25827 0.66091 0.9094 0.0
C424 C 0.25223 0.65719 0.89198 0.0
C425 C 0.26857 0.6371 0.88616 0.0
H426 H 0.363 0.55 0.9046 0.0
C427 C 0.27897 0.64313 0.91659 0.0
C428 C 0.28511 0.62921 0.90297 0.0
H429 H 0.3204 0.5703 0.85507 0.0
H430 H 0.29597 0.60095 0.8683 0.0
H431 H 0.39478 0.59347 0.91609 0.0
H432 H 0.29045 0.56357 0.92719 0.0
H433 H 0.30595 0.57523 0.94645 0.0
H434 H 0.33357 0.55534 0.93656 0.0
H435 H 0.39106 0.57246 0.93114 0.0
H436 H 0.3842 0.59881 0.93782 0.0
C437 C 0.29889 0.64182 0.8724 0.0
C438 C 0.23639 0.62314 0.87966 0.0
C439 C 0.31378 0.64085 0.98066 0.0
C440 C 0.33282 0.62629 0.99088 0.0
C441 C 0.34581 0.60814 0.98291 0.0
C442 C 0.34001 0.60453 0.96521 0.0
C443 C 0.32104 0.6192 0.9552 0.0
C444 C 0.30824 0.637 0.96293 0.0
C445 C 0.28876 0.65086 0.95018 0.0
C446 C 0.29204 0.63844 0.93356 0.0
C447 C 0.31101 0.61989 0.93661 0.0
C448 C 0.3106 0.67145 0.94914 0.0
C449 C 0.24784 0.65315 0.956 0.0
C450 C 0.3481 0.56099 0.89667 0.0
C451 C 0.34373 0.55775 0.87875 0.0
C452 C 0.32456 0.57255 0.86885 0.0
C453 C 0.31025 0.59033 0.87658 0.0
C454 C 0.31517 0.59349 0.89445 0.0
C455 C 0.33381 0.57896 0.9042 0.0
C456 C 0.33703 0.58521 0.92293 0.0
C457 C 0.3173 0.60587 0.92278 0.0
C458 C 0.30446 0.61056 0.90607 0.0
C459 C 0.37885 0.58751 0.9274 0.0
C460 C 0.31595 0.56901 0.934 0.0
H461 H 0.24914 0.68321 0.93017 0.0
H462 H 0.22946 0.66783 0.8678 0.0
H463 H 0.21123 0.6251 0.88785 0.0
H464 H 0.24283 0.60655 0.88042 0.0
H465 H 0.2286 0.62702 0.86611 0.0
H466 H 0.31229 0.65705 0.8748 0.0
H467 H 0.28692 0.64218 0.85914 0.0
H468 H 0.32208 0.63073 0.87274 0.0
H469 H 0.30306 0.65486 0.98633 0.0
H470 H 0.36107 0.59681 0.99031 0.0
H471 H 0.35074 0.59045 0.95999 0.0
H472 H 0.34102 0.66875 0.9502 0.0
H473 H 0.30253 0.682 0.95981 0.0
H474 H 0.30695 0.67945 0.93663 0.0
H475 H 0.23675 0.63822 0.96093 0.0
H476 H 0.22907 0.65751 0.94531 0.0
H477 H 0.24535 0.66466 0.96658 0.0
H478 H 0.21635 0.70771 0.91219 0.0
C479 C 0.24534 0.67935 0.91677 0.0
C480 C 0.87527 0.14493 0.25227 0.0
C481 C 0.85341 0.10961 0.25457 0.0
C482 C 0.88088 0.12476 0.25746 0.0
C483 C 0.82062 0.11495 0.2458 0.0
C484 C 0.84196 0.15053 0.24393 0.0
C485 C 0.81493 0.13536 0.24046 0.0
N486 N 0.90166 0.15925 0.2561 0.0
C487 C 0.89556 0.17962 0.25296 0.0
C488 C 0.83649 0.17128 0.23969 0.0
C489 C 0.86325 0.18593 0.24441 0.0
Gd490 Gd 0.05397 0.14277 0.24153 0.0
Gd491 Gd 0.95603 0.14712 0.26937 0.0
N492 N 0.91313 0.12008 0.2657 0.0
C493 C 0.85961 0.08962 0.26076 0.0
C494 C 0.91856 0.10092 0.27257 0.0
C495 C 0.89215 0.08533 0.26997 0.0
H496 H 0.94362 0.09762 0.27973 0.0
H497 H 0.89687 0.07003 0.27508 0.0
H498 H 0.03456 0.18492 0.21655 0.0
H499 H 0.91565 0.19102 0.25712 0.0
H500 H 0.04886 0.22191 0.2166 0.0
H501 H 0.83921 0.07752 0.25877 0.0
H502 H 0.79927 0.10349 0.24331 0.0
H503 H 0.11628 0.12068 0.26724 0.0
H504 H 0.81136 0.17622 0.2332 0.0
H505 H 0.85887 0.20208 0.24161 0.0
H506 H 0.14357 0.22923 0.25988 0.0
H507 H 0.78924 0.13934 0.23396 0.0
H508 H 0.18856 0.16782 0.28712 0.0
H509 H 0.16997 0.13109 0.28546 0.0
N510 N 0.10535 0.15118 0.25873 0.0
C511 C 0.11585 0.17131 0.25893 0.0
C512 C 0.12471 0.13668 0.26778 0.0
C513 C 0.16537 0.1633 0.27898 0.0
C514 C 0.15493 0.14254 0.2781 0.0
C515 C 0.14584 0.17798 0.26931 0.0
H516 H 0.17785 0.20446 0.27787 0.0
N517 N 0.06761 0.17828 0.23879 0.0
C518 C 0.09597 0.1853 0.24895 0.0
C519 C 0.08804 0.21973 0.23762 0.0
C520 C 0.1064 0.2063 0.24889 0.0
C521 C 0.05264 0.19092 0.22648 0.0
C522 C 0.06167 0.21189 0.22608 0.0
O523 O 0.9544 0.12375 0.24761 0.0
O524 O 0.01067 0.12009 0.23269 0.0
O525 O 0.07996 0.146 0.21597 0.0
O526 O 0.09559 0.12074 0.23318 0.0
O527 O 0.99841 0.12405 0.279 0.0
O528 O 0.04228 0.11464 0.25795 0.0
O529 O 0.0519 0.15182 0.26996 0.0
O530 O 0.00029 0.17159 0.26968 0.0
O531 O 0.95823 0.14155 0.29725 0.0
O532 O 0.92185 0.16487 0.28691 0.0
O533 O 0.0026 0.15525 0.22816 0.0
O534 O 0.97651 0.17172 0.25117 0.0
C535 C 0.97574 0.1152 0.23578 0.0
C536 C 0.02438 0.11174 0.27274 0.0
C537 C 0.12715 0.12211 0.20535 0.0
C538 C 0.14743 0.11783 0.17527 0.0
C539 C 0.18141 0.10146 0.19877 0.0
C540 C 0.15665 0.10961 0.2108 0.0
C541 C 0.1768 0.10543 0.18115 0.0
C542 C 0.1229 0.12645 0.18752 0.0
C543 C 0.10031 0.12974 0.2183 0.0
C544 C 0.13553 0.21312 0.25963 0.0
C545 C 0.1552 0.199 0.2698 0.0
H546 H 0.09525 0.23595 0.23716 0.0
C547 C 0.033 0.16741 0.27607 0.0
C548 C 0.97827 0.16827 0.23447 0.0
C549 C 0.90051 0.14658 0.31135 0.0
C550 C 0.87229 0.1409 0.33977 0.0
C551 C 0.83803 0.13245 0.31353 0.0
C552 C 0.86789 0.13914 0.30349 0.0
C553 C 0.84008 0.13339 0.33154 0.0
C554 C 0.90278 0.14725 0.32956 0.0
C555 C 0.93141 0.15438 0.30056 0.0
H556 H 0.20413 0.09188 0.20312 0.0
H557 H 0.16059 0.1061 0.22441 0.0
H558 H 0.19637 0.09884 0.17208 0.0
H559 H 0.0999 0.13584 0.18315 0.0
H560 H 0.81305 0.12672 0.30732 0.0
H561 H 0.86516 0.1388 0.28958 0.0
H562 H 0.81645 0.12818 0.33908 0.0
H563 H 0.92768 0.15322 0.33573 0.0
C564 C 0.62804 0.37393 0.75574 0.0
C565 C 0.63516 0.40983 0.764 0.0
C566 C 0.61429 0.39136 0.764 0.0
C567 C 0.66964 0.41058 0.75551 0.0
C568 C 0.66267 0.37464 0.74721 0.0
C569 C 0.68335 0.39305 0.74715 0.0
N570 N 0.607 0.35647 0.75561 0.0
C571 C 0.61951 0.33899 0.74779 0.0
C572 C 0.67532 0.35687 0.73885 0.0
C573 C 0.6537 0.33894 0.73921 0.0
Gd574 Gd 0.45527 0.36445 0.74159 0.0
Gd575 Gd 0.54992 0.35809 0.77011 0.0
N576 N 0.58025 0.39034 0.77171 0.0
C577 C 0.62079 0.42701 0.77257 0.0
C578 C 0.56708 0.40678 0.78079 0.0
C579 C 0.5868 0.42539 0.78116 0.0
H580 H 0.54191 0.40566 0.78815 0.0
H581 H 0.57594 0.43844 0.78823 0.0
H582 H 0.47156 0.32361 0.71476 0.0
H583 H 0.60348 0.32494 0.74853 0.0
H584 H 0.45118 0.28769 0.71187 0.0
H585 H 0.63598 0.44146 0.77289 0.0
H586 H 0.68596 0.42466 0.75535 0.0
H587 H 0.39346 0.3873 0.76712 0.0
H588 H 0.70177 0.35681 0.73216 0.0
H589 H 0.66344 0.32505 0.73298 0.0
H590 H 0.3486 0.28188 0.75114 0.0
H591 H 0.70997 0.3939 0.74063 0.0
H592 H 0.31035 0.3428 0.78118 0.0
H593 H 0.33576 0.37826 0.78293 0.0
N594 N 0.40004 0.35736 0.75653 0.0
C595 C 0.38607 0.33794 0.755 0.0
C596 C 0.38226 0.37187 0.76622 0.0
C597 C 0.33539 0.34675 0.7741 0.0
C598 C 0.34968 0.36678 0.77515 0.0
C599 C 0.35359 0.33203 0.76396 0.0
H600 H 0.31592 0.30675 0.76961 0.0
N601 N 0.4362 0.33011 0.7362 0.0
C602 C 0.40509 0.32382 0.74483 0.0
C603 C 0.40908 0.29019 0.73155 0.0
C604 C 0.39121 0.30356 0.74301 0.0
C605 C 0.45102 0.3178 0.72365 0.0
C606 C 0.43856 0.29751 0.72153 0.0
O607 O 0.5542 0.37618 0.74494 0.0
O608 O 0.49645 0.39074 0.74177 0.0
O609 O 0.44255 0.36675 0.71376 0.0
O610 O 0.4125 0.38527 0.73268 0.0
O611 O 0.50264 0.376 0.78252 0.0
O612 O 0.46752 0.39038 0.76025 0.0
O613 O 0.45173 0.35024 0.76839 0.0
O614 O 0.50652 0.33293 0.76961 0.0
O615 O 0.55783 0.35823 0.79849 0.0
O616 O 0.58856 0.33704 0.78185 0.0
O617 O 0.5062 0.35034 0.729 0.0
O618 O 0.53326 0.33283 0.75161 0.0
C619 C 0.5321 0.39018 0.73828 0.0
C620 C 0.47832 0.38952 0.77659 0.0
C621 C 0.39456 0.39017 0.70265 0.0
C622 C 0.37776 0.39454 0.67211 0.0
C623 C 0.34966 0.41617 0.69416 0.0
C624 C 0.36999 0.40613 0.70697 0.0
C625 C 0.35359 0.41052 0.67685 0.0
C626 C 0.39807 0.38424 0.68512 0.0
C627 C 0.41702 0.3805 0.71649 0.0
C628 C 0.35935 0.29745 0.75224 0.0
C629 C 0.3406 0.31165 0.76268 0.0
H630 H 0.39926 0.27452 0.72976 0.0
C631 C 0.47234 0.33556 0.77491 0.0
C632 C 0.52834 0.33583 0.73493 0.0
C633 C 0.60158 0.33414 0.81248 0.0
C634 C 0.61592 0.33231 0.84347 0.0
C635 C 0.64149 0.30704 0.8236 0.0
C636 C 0.62359 0.31658 0.80978 0.0
C637 C 0.63768 0.31478 0.84031 0.0
C638 C 0.59802 0.34209 0.82941 0.0
C639 C 0.58221 0.34347 0.79748 0.0
H640 H 0.33088 0.42846 0.69765 0.0
H641 H 0.36666 0.41104 0.7203 0.0
H642 H 0.33739 0.41852 0.66713 0.0
H643 H 0.41698 0.37201 0.68157 0.0
H644 H 0.65839 0.29355 0.82134 0.0
H645 H 0.62689 0.31008 0.79695 0.0
H646 H 0.6522 0.30715 0.8508 0.0
H647 H 0.58108 0.35557 0.8317 0.0
C648 C 0.89549 0.8301 0.76138 0.0
C649 C 0.90539 0.79747 0.77583 0.0
C650 C 0.91594 0.8181 0.7727 0.0
C651 C 0.87515 0.7889 0.76675 0.0
C652 C 0.86412 0.82191 0.75282 0.0
C653 C 0.85447 0.80113 0.75533 0.0
N654 N 0.90571 0.85007 0.75913 0.0
C655 C 0.88422 0.86322 0.74967 0.0
C656 C 0.84297 0.835 0.74232 0.0
C657 C 0.85278 0.85582 0.74094 0.0
Gd658 Gd 0.05021 0.86177 0.74223 0.0
Gd659 Gd 0.95933 0.86122 0.77365 0.0
N660 N 0.94454 0.827 0.7815 0.0
C661 C 0.9246 0.78633 0.78849 0.0
C662 C 0.961 0.81677 0.79491 0.0
C663 C 0.95205 0.79616 0.7983 0.0
H664 H 0.98067 0.82451 0.80325 0.0
H665 H 0.9659 0.78799 0.80868 0.0
H666 H 0.05345 0.90968 0.72697 0.0
H667 H 0.89196 0.87929 0.74859 0.0
H668 H 0.09022 0.94171 0.73149 0.0
H669 H 0.91739 0.77044 0.79129 0.0
H670 H 0.86685 0.77303 0.76888 0.0
H671 H 0.10557 0.82323 0.75601 0.0
H672 H 0.81868 0.82929 0.73551 0.0
H673 H 0.83622 0.86615 0.73312 0.0
H674 H 0.18429 0.92186 0.77247 0.0
H675 H 0.83059 0.7945 0.74879 0.0
H676 H 0.19444 0.84981 0.7855 0.0
H677 H 0.16057 0.81904 0.77481 0.0
N678 N 0.10552 0.85591 0.75785 0.0
C679 C 0.12541 0.8729 0.7624 0.0
C680 C 0.11905 0.83673 0.7613 0.0
C681 C 0.1697 0.85171 0.77766 0.0
C682 C 0.15065 0.83431 0.77166 0.0
C683 C 0.15784 0.87132 0.77257 0.0
H684 H 0.20294 0.88836 0.78464 0.0
N685 N 0.0848 0.89235 0.74512 0.0
C686 C 0.11507 0.89171 0.75558 0.0
C687 C 0.127 0.9278 0.75017 0.0
C688 C 0.13663 0.90951 0.75868 0.0
C689 C 0.07666 0.90971 0.73587 0.0
C690 C 0.09733 0.92779 0.73844 0.0
O691 O 0.95655 0.8499 0.74584 0.0
O692 O 0.01235 0.83398 0.74226 0.0
O693 O 0.04453 0.86549 0.71441 0.0
O694 O 0.09288 0.85043 0.72472 0.0
O695 O 0.01305 0.84752 0.78377 0.0
O696 O 0.0408 0.83374 0.75952 0.0
O697 O 0.03741 0.88865 0.76009 0.0
O698 O 0.01394 0.87287 0.78415 0.0
O699 O 0.9276 0.86115 0.79797 0.0
O700 O 0.93272 0.88921 0.78237 0.0
O701 O 0.99964 0.87849 0.73209 0.0
O702 O 0.96371 0.88879 0.75565 0.0
C703 C 0.97662 0.83511 0.73914 0.0
C704 C 0.03487 0.83386 0.77638 0.0
C705 C 0.07142 0.83994 0.69712 0.0
C706 C 0.07685 0.83056 0.66653 0.0
C707 C 0.05159 0.80608 0.68745 0.0
C708 C 0.05648 0.82042 0.70075 0.0
C709 C 0.06165 0.81108 0.67046 0.0
C710 C 0.08164 0.84494 0.68005 0.0
C711 C 0.07479 0.85558 0.7108 0.0
C712 C 0.16764 0.90829 0.7697 0.0
C713 C 0.17821 0.88922 0.77665 0.0
H714 H 0.14289 0.94182 0.75218 0.0
C715 C 0.03294 0.88784 0.77694 0.0
C716 C 0.97514 0.89077 0.73945 0.0
C717 C 0.89606 0.89205 0.80857 0.0
C718 C 0.87373 0.89859 0.838 0.0
C719 C 0.85426 0.92054 0.8141 0.0
C720 C 0.87566 0.90904 0.80264 0.0
C721 C 0.85333 0.91543 0.83165 0.0
C722 C 0.8947 0.8867 0.82627 0.0
C723 C 0.91934 0.88053 0.79623 0.0
H724 H 0.03995 0.79105 0.69032 0.0
H725 H 0.04847 0.81636 0.71383 0.0
H726 H 0.05793 0.79958 0.66043 0.0
H727 H 0.09259 0.86018 0.67726 0.0
H728 H 0.83845 0.93353 0.80939 0.0
H729 H 0.87617 0.9134 0.78908 0.0
H730 H 0.83641 0.92463 0.84026 0.0
H731 H 0.91085 0.8738 0.83098 0.0
C732 C 0.6239 0.66512 0.25509 0.0
C733 C 0.62103 0.70036 0.26543 0.0
C734 C 0.6062 0.6802 0.26484 0.0
C735 C 0.65262 0.70532 0.25554 0.0
C736 C 0.65591 0.66996 0.24536 0.0
C737 C 0.66998 0.69018 0.24553 0.0
N738 N 0.60889 0.64585 0.25462 0.0
C739 C 0.62518 0.6305 0.24529 0.0
C740 C 0.67254 0.65437 0.23555 0.0
C741 C 0.6572 0.63454 0.23559 0.0
Gd742 Gd 0.45947 0.64438 0.24293 0.0
Gd743 Gd 0.55492 0.64054 0.27099 0.0
N744 N 0.57522 0.67503 0.27408 0.0
C745 C 0.60425 0.71484 0.27627 0.0
C746 C 0.5612 0.68858 0.28591 0.0
C747 C 0.57471 0.70879 0.28682 0.0
H748 H 0.54051 0.68386 0.29516 0.0
H749 H 0.56283 0.71956 0.29595 0.0
H750 H 0.46959 0.59989 0.21994 0.0
H751 H 0.6133 0.61518 0.24531 0.0
H752 H 0.44185 0.56537 0.21913 0.0
H753 H 0.61484 0.73048 0.27711 0.0
H754 H 0.66413 0.72078 0.25574 0.0
H755 H 0.40328 0.67287 0.26742 0.0
H756 H 0.69716 0.65749 0.2279 0.0
H757 H 0.66993 0.62239 0.22809 0.0
H758 H 0.33738 0.56983 0.25734 0.0
H759 H 0.69439 0.69423 0.23804 0.0
H760 H 0.31279 0.63481 0.28435 0.0
H761 H 0.34534 0.66851 0.28424 0.0
N762 N 0.40405 0.64188 0.2587 0.0
C763 C 0.38611 0.6234 0.25815 0.0
C764 C 0.3896 0.65805 0.26769 0.0
C765 C 0.33825 0.63665 0.27701 0.0
C766 C 0.35661 0.65567 0.27705 0.0
C767 C 0.35287 0.62023 0.26747 0.0
H768 H 0.31023 0.598 0.27437 0.0
N769 N 0.43413 0.61094 0.23992 0.0
C770 C 0.40187 0.60741 0.24872 0.0
C771 C 0.39945 0.57253 0.2378 0.0
C772 C 0.38408 0.58799 0.24813 0.0
C773 C 0.44727 0.59643 0.22871 0.0
C774 C 0.43078 0.57691 0.2278 0.0
O775 O 0.55672 0.65327 0.24362 0.0
O776 O 0.50153 0.67024 0.24162 0.0
O777 O 0.44824 0.64501 0.21481 0.0
O778 O 0.4174 0.66458 0.23274 0.0
O779 O 0.50496 0.656 0.28335 0.0
O780 O 0.47534 0.67111 0.26011 0.0
O781 O 0.45675 0.62934 0.26952 0.0
O782 O 0.51396 0.61424 0.2731 0.0
O783 O 0.56957 0.64046 0.29872 0.0
O784 O 0.5989 0.62087 0.28032 0.0
O785 O 0.50789 0.62684 0.23108 0.0
O786 O 0.5408 0.61312 0.25424 0.0
C787 C 0.53627 0.66795 0.23702 0.0
C788 C 0.48206 0.6698 0.27683 0.0
C789 C 0.40054 0.66804 0.20252 0.0
C790 C 0.38373 0.671 0.17186 0.0
C791 C 0.35584 0.69374 0.19316 0.0
C792 C 0.37612 0.68428 0.20629 0.0
C793 C 0.35965 0.68723 0.17608 0.0
C794 C 0.40402 0.66127 0.18521 0.0
C795 C 0.42257 0.65891 0.2168 0.0
C796 C 0.35121 0.5847 0.25756 0.0
C797 C 0.33565 0.60077 0.2672 0.0
H798 H 0.38661 0.55742 0.23698 0.0
C799 C 0.47811 0.615 0.27614 0.0
C800 C 0.5309 0.61313 0.23778 0.0
C801 C 0.61984 0.61865 0.31012 0.0
C802 C 0.63718 0.61492 0.34068 0.0
C803 C 0.67205 0.5971 0.3183 0.0
C804 C 0.64906 0.60541 0.30559 0.0
C805 C 0.6662 0.60176 0.33569 0.0
C806 C 0.61416 0.62353 0.32775 0.0
C807 C 0.59562 0.62692 0.29626 0.0
H808 H 0.33714 0.70622 0.19624 0.0
H809 H 0.37277 0.68984 0.21943 0.0
H810 H 0.34336 0.69477 0.16613 0.0
H811 H 0.42279 0.64881 0.18209 0.0
H812 H 0.69454 0.58698 0.31464 0.0
H813 H 0.65426 0.60143 0.29219 0.0
H814 H 0.68475 0.59521 0.34526 0.0
H815 H 0.59161 0.63363 0.33142 0.0
H816 H 0.14418 0.98937 0.39259 0.0
H817 H 0.12214 0.01707 0.37364 0.0
H818 H 0.09715 0.9726 0.33376 0.0
H819 H 0.11805 0.94481 0.35274 0.0
H820 H 0.14838 0.02859 0.34083 0.0
H821 H 0.00016 0.00491 0.33792 0.0
H822 H 0.03197 0.99494 0.35392 0.0
H823 H 0.03201 0.98481 0.33224 0.0
C824 C 0.13352 0.98545 0.37988 0.0
C825 C 0.13281 0.96484 0.37422 0.0
C826 C 0.12119 1.00132 0.36902 0.0
C827 C 0.10759 0.99689 0.35236 0.0
C828 C 0.10697 0.97636 0.34666 0.0
H829 H 0.07903 0.08313 0.26656 0.0
H830 H 0.09946 0.05533 0.28569 0.0
C831 C 0.11932 0.96051 0.35747 0.0
C832 C 0.09475 0.01373 0.3408 0.0
H833 H 0.0194 0.031 0.31819 0.0
C834 C 0.12016 0.02917 0.33591 0.0
C835 C 0.05781 0.01459 0.33455 0.0
C836 C 0.02876 0.99905 0.34003 0.0
C837 C 0.10978 0.04525 0.32472 0.0
C838 C 0.07315 0.04573 0.31802 0.0
C839 C 0.04759 0.03048 0.32315 0.0
C840 C 0.06039 0.06229 0.30614 0.0
C841 C 0.13791 0.0618 0.32043 0.0
C842 C 0.03088 0.07506 0.31102 0.0
C843 C 0.01893 0.09087 0.30008 0.0
C844 C 0.03611 0.09424 0.28392 0.0
C845 C 0.06522 0.08112 0.27891 0.0
C846 C 0.07715 0.06527 0.28989 0.0
H847 H 0.16122 0.06208 0.32988 0.0
H848 H 0.1497 0.05877 0.3074 0.0
H849 H 0.12477 0.07724 0.32019 0.0
H850 H 0.01739 0.07297 0.32345 0.0
H851 H 0.99639 0.10056 0.30444 0.0
H852 H 0.33995 0.51762 0.88972 0.0
H853 H 0.36404 0.48699 0.8749 0.0
H854 H 0.40623 0.52542 0.8337 0.0
H855 H 0.38261 0.55602 0.84845 0.0
H856 H 0.34495 0.47422 0.83965 0.0
H857 H 0.49594 0.4888 0.84861 0.0
H858 H 0.46093 0.50082 0.86192 0.0
H859 H 0.47007 0.51038 0.84048 0.0
C860 C 0.35475 0.51953 0.87761 0.0
C861 C 0.35936 0.53921 0.87023 0.0
C862 C 0.36832 0.50205 0.86913 0.0
C863 C 0.38719 0.504 0.8533 0.0
C864 C 0.39213 0.52362 0.84601 0.0
H865 H 0.43263 0.42199 0.76915 0.0
H866 H 0.4095 0.4482 0.78901 0.0
C867 C 0.37834 0.54105 0.85438 0.0
C868 C 0.40053 0.48554 0.84396 0.0
H869 H 0.47895 0.46302 0.82806 0.0
C870 C 0.37425 0.47162 0.83725 0.0
C871 C 0.43878 0.48213 0.841 0.0
C872 C 0.46817 0.4962 0.84849 0.0
C873 C 0.38518 0.45477 0.82708 0.0
C874 C 0.42333 0.4519 0.82348 0.0
C875 C 0.4497 0.46536 0.83074 0.0
C876 C 0.43634 0.43546 0.81167 0.0
C877 C 0.35587 0.44024 0.82016 0.0
C878 C 0.45947 0.41973 0.81781 0.0
C879 C 0.4727 0.40462 0.8065 0.0
C880 C 0.46346 0.40515 0.78876 0.0
C881 C 0.44024 0.42099 0.78271 0.0
C882 C 0.42684 0.43598 0.79405 0.0
H883 H 0.32943 0.44149 0.8275 0.0
H884 H 0.3501 0.44409 0.80641 0.0
H885 H 0.36556 0.42403 0.82072 0.0
H886 H 0.46725 0.41915 0.83136 0.0
H887 H 0.49045 0.39265 0.81164 0.0
H888 H 0.6397 0.55406 0.65998 0.0
H889 H 0.62102 0.52542 0.67867 0.0
H890 H 0.64329 0.48256 0.63734 0.0
H891 H 0.66229 0.51115 0.61855 0.0
H892 H 0.57548 0.47567 0.65321 0.0
H893 H 0.68729 0.48288 0.70233 0.0
H894 H 0.66241 0.50641 0.69874 0.0
H895 H 0.68957 0.49551 0.6815 0.0
C896 C 0.64113 0.53852 0.65492 0.0
C897 C 0.6527 0.53491 0.63778 0.0
C898 C 0.63047 0.52216 0.66564 0.0
C899 C 0.63137 0.50181 0.6595 0.0
C900 C 0.64256 0.49813 0.64236 0.0
H901 H 0.60184 0.39191 0.72391 0.0
H902 H 0.62705 0.41845 0.70462 0.0
C903 C 0.65321 0.5145 0.63161 0.0
C904 C 0.61928 0.48449 0.67077 0.0
H905 H 0.63599 0.46109 0.70967 0.0
C906 C 0.58887 0.47239 0.66549 0.0
C907 C 0.63709 0.48003 0.68669 0.0
C908 C 0.67113 0.49175 0.69261 0.0
C909 C 0.57508 0.45637 0.67594 0.0
C910 C 0.59181 0.45255 0.69223 0.0
C911 C 0.62295 0.4642 0.69727 0.0
C912 C 0.57695 0.43674 0.70431 0.0
C913 C 0.54284 0.44359 0.6694 0.0
C914 C 0.54072 0.43844 0.71083 0.0
C915 C 0.52633 0.42339 0.72194 0.0
C916 C 0.54799 0.40638 0.72688 0.0
C917 C 0.58453 0.4049 0.72055 0.0
C918 C 0.59895 0.42001 0.70945 0.0
H919 H 0.54003 0.44462 0.65509 0.0
H920 H 0.54603 0.42714 0.67308 0.0
H921 H 0.51672 0.44935 0.67525 0.0
H922 H 0.52353 0.45144 0.70732 0.0
H923 H 0.49817 0.42513 0.72664 0.0
H924 H 0.8612 0.94715 0.16839 0.0
H925 H 0.88339 0.97731 0.18431 0.0
H926 H 0.85212 0.01647 0.14162 0.0
H927 H 0.82962 0.98628 0.12556 0.0
H928 H 0.92219 0.02547 0.15464 0.0
H929 H 0.8191 0.02077 0.20779 0.0
H930 H 0.84409 0.9972 0.20467 0.0
H931 H 0.81399 0.00657 0.18782 0.0
C932 C 0.85865 0.96219 0.16244 0.0
C933 C 0.84326 0.96433 0.14577 0.0
C934 C 0.87133 0.97942 0.17157 0.0
C935 C 0.8687 0.99918 0.1643 0.0
C936 C 0.85416 1.00137 0.14751 0.0
H937 H 0.9039 0.11169 0.22459 0.0
H938 H 0.87688 0.08428 0.20672 0.0
C939 C 0.84149 0.9841 0.13833 0.0
C940 C 0.8819 0.01744 0.17415 0.0
H941 H 0.87119 0.04304 0.21246 0.0
C942 C 0.91087 0.02942 0.16722 0.0
C943 C 0.86667 0.02279 0.19043 0.0
C944 C 0.83399 0.0113 0.19806 0.0
C945 C 0.92587 0.04621 0.1764 0.0
C946 C 0.91198 0.05086 0.1931 0.0
C947 C 0.88216 0.0393 0.19976 0.0
C948 C 0.92833 0.06745 0.20398 0.0
C949 C 0.95624 0.05887 0.16804 0.0
C950 C 0.96604 0.06694 0.20864 0.0
C951 C 0.98143 0.08252 0.21891 0.0
C952 C 0.95924 0.09874 0.22498 0.0
C953 C 0.92142 0.09913 0.22047 0.0
C954 C 0.90606 0.08358 0.21012 0.0
H955 H 0.95571 0.05738 0.1537 0.0
H956 H 0.95374 0.07542 0.17146 0.0
H957 H 0.98363 0.05332 0.17266 0.0
H958 H 0.98355 0.05437 0.20444 0.0
H959 H 0.01061 0.08173 0.22231 0.0
H960 H 0.87692 0.06278 0.67194 0.0
H961 H 0.8989 0.03276 0.68804 0.0
H962 H 0.86429 0.99303 0.6462 0.0
H963 H 0.84141 0.02302 0.63011 0.0
H964 H 0.84174 0.97953 0.67984 0.0
H965 H 0.99228 0.99843 0.67726 0.0
H966 H 0.9635 0.01895 0.68509 0.0
H967 H 0.95866 0.0103 0.66308 0.0
C968 C 0.87385 0.04765 0.66617 0.0
C969 C 0.85739 0.04528 0.64974 0.0
C970 C 0.88674 0.03054 0.67532 0.0
C971 C 0.88358 0.01072 0.66823 0.0
C972 C 0.86715 0.00824 0.65185 0.0
H973 H 0.99273 0.90074 0.70597 0.0
H974 H 0.96898 0.9292 0.68864 0.0
C975 C 0.85434 0.02538 0.64264 0.0
C976 C 0.89675 0.99256 0.6781 0.0
H977 H 0.97422 0.97124 0.69613 0.0
C978 C 0.87071 0.97764 0.68335 0.0
C979 C 0.93461 0.99008 0.68252 0.0
C980 C 0.964 0.00517 0.67658 0.0
C981 C 0.88146 0.96045 0.6932 0.0
C982 C 0.91916 0.9583 0.69805 0.0
C983 C 0.94528 0.97303 0.69253 0.0
C984 C 0.93234 0.94066 0.70858 0.0
C985 C 0.85253 0.9446 0.69813 0.0
C986 C 0.91971 0.9377 0.72562 0.0
C987 C 0.93326 0.92139 0.73564 0.0
C988 C 0.95983 0.90779 0.7288 0.0
C989 C 0.97227 0.91083 0.71169 0.0
C990 C 0.95876 0.92714 0.70174 0.0
H991 H 0.82715 0.94588 0.69 0.0
H992 H 0.86371 0.92875 0.69687 0.0
H993 H 0.84437 0.94696 0.71185 0.0
H994 H 0.89978 0.94819 0.73126 0.0
H995 H 0.92313 0.91958 0.74876 0.0
H996 H 0.70773 0.469 0.16005 0.0
H997 H 0.68316 0.49851 0.17601 0.0
H998 H 0.57993 0.49346 0.14789 0.0
H999 H 0.60395 0.4636 0.13216 0.0
H1000 H 0.65485 0.5368 0.16379 0.0
H1001 H 0.54861 0.49094 0.1994 0.0
H1002 H 0.58683 0.47917 0.18803 0.0
H1003 H 0.54732 0.4885 0.17621 0.0
C1004 C 0.67972 0.4741 0.15732 0.0
C1005 C 0.65767 0.46381 0.14495 0.0
C1006 C 0.66583 0.49105 0.16636 0.0
C1007 C 0.62957 0.49799 0.16329 0.0
C1008 C 0.60781 0.48816 0.15062 0.0
H1009 H 0.53211 0.61212 0.20226 0.0
H1010 H 0.55619 0.58469 0.18366 0.0
C1011 C 0.62171 0.47122 0.14153 0.0
C1012 C 0.61439 0.51525 0.17365 0.0
H1013 H 0.54825 0.52698 0.20374 0.0
C1014 C 0.63147 0.5347 0.17249 0.0
C1015 C 0.58418 0.51237 0.18514 0.0
C1016 C 0.56577 0.4916 0.18745 0.0
C1017 C 0.619 0.55141 0.18247 0.0
C1018 C 0.58846 0.54858 0.19376 0.0
C1019 C 0.57149 0.52911 0.19496 0.0
C1020 C 0.57441 0.56543 0.2049 0.0
C1021 C 0.6391 0.57181 0.18117 0.0
C1022 C 0.57622 0.56357 0.22299 0.0
C1023 C 0.56239 0.57914 0.23364 0.0
C1024 C 0.54613 0.59683 0.2264 0.0
C1025 C 0.54437 0.59867 0.20825 0.0
C1026 C 0.55833 0.58308 0.1976 0.0
H1027 H 0.66661 0.57026 0.17479 0.0
H1028 H 0.62214 0.58265 0.17339 0.0
H1029 H 0.64322 0.57868 0.19421 0.0
H1030 H 0.58842 0.55003 0.22888 0.0
H1031 H 0.5641 0.57718 0.24756 0.0
H1032 H 0.33387 0.48592 0.38713 0.0
H1033 H 0.35618 0.51645 0.37147 0.0
H1034 H 0.38164 0.47871 0.32715 0.0
H1035 H 0.36026 0.44813 0.34273 0.0
H1036 H 0.42818 0.52355 0.35634 0.0
H1037 H 0.31515 0.52528 0.30738 0.0
H1038 H 0.31146 0.51096 0.3274 0.0
H1039 H 0.33754 0.50073 0.30955 0.0
C1040 C 0.34449 0.48408 0.3741 0.0
C1041 C 0.34494 0.46456 0.36615 0.0
C1042 C 0.35701 0.50156 0.36515 0.0
C1043 C 0.36991 0.49987 0.34805 0.0
C1044 C 0.37098 0.48041 0.34019 0.0
H1045 H 0.50743 0.57766 0.28467 0.0
H1046 H 0.47996 0.55092 0.30301 0.0
C1047 C 0.35866 0.46295 0.34913 0.0
C1048 C 0.38313 0.5183 0.33848 0.0
H1049 H 0.3679 0.54667 0.30186 0.0
C1050 C 0.41484 0.52873 0.34451 0.0
C1051 C 0.36541 0.52516 0.32316 0.0
C1052 C 0.33029 0.5151 0.31653 0.0
C1053 C 0.43011 0.54539 0.33528 0.0
C1054 C 0.41337 0.55163 0.31954 0.0
C1055 C 0.38086 0.54171 0.31385 0.0
C1056 C 0.42989 0.568 0.30854 0.0
C1057 C 0.46411 0.55616 0.34239 0.0
C1058 C 0.41054 0.58633 0.30535 0.0
C1059 C 0.42629 0.60172 0.29494 0.0
C1060 C 0.46134 0.59887 0.28729 0.0
C1061 C 0.48047 0.5804 0.29044 0.0
C1062 C 0.46486 0.56511 0.30093 0.0
H1063 H 0.46782 0.55311 0.35645 0.0
H1064 H 0.48911 0.55046 0.33552 0.0
H1065 H 0.46242 0.57307 0.34033 0.0
H1066 H 0.38348 0.58883 0.31109 0.0
H1067 H 0.41126 0.61595 0.29311 0.0
H1068 H 0.16446 0.02006 0.88826 0.0
H1069 H 0.14219 0.9896 0.87249 0.0
H1070 H 0.11681 0.02753 0.82822 0.0
H1071 H 0.13805 0.05806 0.84392 0.0
H1072 H 0.06912 0.9828 0.85592 0.0
H1073 H 0.18704 0.98131 0.80954 0.0
H1074 H 0.18913 0.99506 0.82987 0.0
H1075 H 0.16446 0.00581 0.81178 0.0
C1076 C 0.15373 0.02198 0.87524 0.0
C1077 C 0.15341 0.04152 0.86731 0.0
C1078 C 0.14123 0.00453 0.86623 0.0
C1079 C 0.12848 0.0063 0.84911 0.0
C1080 C 0.12727 0.0258 0.84131 0.0
H1081 H 0.04605 0.92775 0.76767 0.0
H1082 H 0.07017 0.95563 0.78586 0.0
C1083 C 0.13955 0.04322 0.8503 0.0
C1084 C 0.11624 0.98784 0.8393 0.0
H1085 H 0.13612 0.9591 0.80347 0.0
C1086 C 0.08387 0.97746 0.84454 0.0
C1087 C 0.13557 0.98101 0.82445 0.0
C1088 C 0.17117 0.99123 0.8186 0.0
C1089 C 0.06955 0.9608 0.83495 0.0
C1090 C 0.08869 0.95408 0.81997 0.0
C1091 C 0.12145 0.96428 0.81493 0.0
C1092 C 0.07465 0.93693 0.809 0.0
C1093 C 0.03336 0.95105 0.8406 0.0
C1094 C 0.06968 0.91706 0.81588 0.0
C1095 C 0.05599 0.90109 0.80546 0.0
C1096 C 0.04757 0.90465 0.78793 0.0
C1097 C 0.05297 0.92447 0.78104 0.0
C1098 C 0.06652 0.94044 0.79145 0.0
H1099 H 0.01758 0.96125 0.84947 0.0
H1100 H 0.01555 0.94732 0.82925 0.0
H1101 H 0.03926 0.9365 0.84762 0.0
H1102 H 0.07657 0.91387 0.82927 0.0
H1103 H 0.05237 0.8859 0.81107 0.0
H1104 H 0.16522 0.1596 0.0092 0.0
H1105 H 0.15463 0.16275 0.04048 0.0
H1106 H 0.1695 0.09726 0.04639 0.0
H1107 H 0.18076 0.094 0.01534 0.0
H1108 H 0.10415 0.11362 0.06284 0.0
H1109 H 0.23265 0.15725 0.08003 0.0
H1110 H 0.20475 0.16739 0.06268 0.0
H1111 H 0.22806 0.14324 0.05992 0.0
C1112 C 0.16675 0.14591 0.01718 0.0
C1113 C 0.17372 0.12652 0.00967 0.0
C1114 C 0.1606 0.14774 0.03506 0.0
C1115 C 0.16143 0.13025 0.04578 0.0
C1116 C 0.16858 0.11095 0.03836 0.0
H1117 H 0.14823 0.08883 0.14982 0.0
H1118 H 0.1468 0.09415 0.11851 0.0
C1119 C 0.17483 0.10911 0.02056 0.0
C1120 C 0.15428 0.13174 0.06471 0.0
H1121 H 0.19212 0.14859 0.10283 0.0
C1122 C 0.12321 0.12142 0.07157 0.0
C1123 C 0.17898 0.14207 0.07608 0.0
C1124 C 0.21316 0.15304 0.06942 0.0
C1125 C 0.11669 0.12071 0.08952 0.0
C1126 C 0.14228 0.13024 0.10095 0.0
C1127 C 0.17252 0.14129 0.09406 0.0
C1128 C 0.14019 0.12722 0.12003 0.0
C1129 C 0.08262 0.10957 0.0961 0.0
C1130 C 0.13709 0.14406 0.13138 0.0
C1131 C 0.13789 0.14104 0.1494 0.0
C1132 C 0.14253 0.12115 0.15632 0.0
C1133 C 0.14491 0.10434 0.14489 0.0
C1134 C 0.14378 0.10734 0.12697 0.0
H1135 H 0.06049 0.10886 0.08606 0.0
H1136 H 0.09015 0.09352 0.09955 0.0
H1137 H 0.07128 0.11717 0.10783 0.0
H1138 H 0.13454 0.15955 0.12629 0.0
H1139 H 0.13626 0.15429 0.15789 0.0
H1140 H 0.31721 0.4092 0.51444 0.0
H1141 H 0.32925 0.40624 0.54556 0.0
H1142 H 0.36945 0.34443 0.53822 0.0
H1143 H 0.35752 0.34727 0.50691 0.0
H1144 H 0.30051 0.3704 0.56937 0.0
H1145 H 0.45391 0.38158 0.56468 0.0
H1146 H 0.42278 0.3916 0.54838 0.0
H1147 H 0.4307 0.36442 0.54975 0.0
C1148 C 0.32873 0.39499 0.51942 0.0
C1149 C 0.33664 0.37851 0.5082 0.0
C1150 C 0.33541 0.3933 0.5372 0.0
C1151 C 0.35042 0.37518 0.54413 0.0
C1152 C 0.35797 0.35857 0.53307 0.0
H1153 H 0.37046 0.35637 0.65723 0.0
H1154 H 0.36674 0.34849 0.62606 0.0
C1155 C 0.35097 0.36018 0.51524 0.0
C1156 C 0.35832 0.37397 0.56296 0.0
H1157 H 0.42804 0.3799 0.59267 0.0
C1158 C 0.32842 0.37212 0.5745 0.0
C1159 C 0.39476 0.37638 0.56953 0.0
C1160 C 0.42758 0.37868 0.55754 0.0
C1161 C 0.33393 0.37311 0.59252 0.0
C1162 C 0.37027 0.37605 0.59911 0.0
C1163 C 0.40029 0.37745 0.58756 0.0
C1164 C 0.37684 0.3799 0.61781 0.0
C1165 C 0.30072 0.37196 0.60441 0.0
C1166 C 0.38483 0.39999 0.62341 0.0
C1167 C 0.38675 0.4045 0.64108 0.0
C1168 C 0.3811 0.38896 0.65352 0.0
C1169 C 0.3751 0.3686 0.64791 0.0
C1170 C 0.37277 0.36412 0.63015 0.0
H1171 H 0.27404 0.3717 0.59716 0.0
H1172 H 0.3024 0.35777 0.61239 0.0
H1173 H 0.30071 0.38534 0.61337 0.0
H1174 H 0.38813 0.41236 0.61409 0.0
H1175 H 0.39168 0.42029 0.64505 0.0
H1176 H 0.65192 0.34322 1.00641 0.0
H1177 H 0.63873 0.3384 0.97555 0.0
H1178 H 0.66413 0.40241 0.96603 0.0
H1179 H 0.67852 0.40722 0.99674 0.0
H1180 H 0.58538 0.35859 0.95503 0.0
H1181 H 0.72822 0.37266 0.93022 0.0
H1182 H 0.71874 0.36768 0.95281 0.0
H1183 H 0.71001 0.39271 0.94376 0.0
C1184 C 0.65524 0.35621 0.99773 0.0
C1185 C 0.66642 0.3756 1.00408 0.0
C1186 C 0.6474 0.35346 0.98011 0.0
C1187 C 0.65081 0.36999 0.96845 0.0
C1188 C 0.66184 0.38936 0.97473 0.0
H1189 H 0.62566 0.3719 0.85516 0.0
H1190 H 0.62968 0.38334 0.88548 0.0
C1191 C 0.66968 0.39213 0.99234 0.0
C1192 C 0.64225 0.36696 0.94978 0.0
H1193 H 0.68094 0.3679 0.90936 0.0
C1194 C 0.60625 0.36067 0.94504 0.0
C1195 C 0.66941 0.36983 0.93673 0.0
C1196 C 0.70887 0.37592 0.94107 0.0
C1197 C 0.59676 0.35702 0.92763 0.0
C1198 C 0.62416 0.35941 0.91464 0.0
C1199 C 0.6599 0.36618 0.91933 0.0
C1200 C 0.61736 0.35331 0.89634 0.0
C1201 C 0.55743 0.35069 0.92332 0.0
C1202 C 0.60864 0.33274 0.89239 0.0
C1203 C 0.60632 0.32624 0.87518 0.0
C1204 C 0.61286 0.34013 0.86151 0.0
C1205 C 0.62015 0.36092 0.86542 0.0
C1206 C 0.62268 0.36742 0.88272 0.0
H1207 H 0.53762 0.35583 0.93345 0.0
H1208 H 0.54857 0.3571 0.91063 0.0
H1209 H 0.55579 0.33363 0.92258 0.0
H1210 H 0.60508 0.32149 0.90264 0.0
H1211 H 0.60048 0.31015 0.87255 0.0
H1212 H 0.84811 0.16073 0.50672 0.0
H1213 H 0.85633 0.1646 0.47543 0.0
H1214 H 0.8461 0.09881 0.46906 0.0
H1215 H 0.83589 0.09487 0.50013 0.0
H1216 H 0.90869 0.14967 0.45336 0.0
H1217 H 0.76977 0.11952 0.43502 0.0
H1218 H 0.78172 0.12597 0.45707 0.0
H1219 H 0.79588 0.10173 0.44794 0.0
C1220 C 0.84704 0.14709 0.49865 0.0
C1221 C 0.841 0.12749 0.50601 0.0
C1222 C 0.85213 0.14932 0.48077 0.0
C1223 C 0.85126 0.13204 0.46984 0.0
C1224 C 0.84612 0.11242 0.47717 0.0
H1225 H 0.92555 0.12643 0.36201 0.0
H1226 H 0.92259 0.12528 0.39378 0.0
C1227 C 0.84078 0.11018 0.49501 0.0
C1228 C 0.85558 0.13452 0.45079 0.0
H1229 H 0.81313 0.12422 0.41216 0.0
C1230 C 0.88774 0.14419 0.44433 0.0
C1231 C 0.82801 0.12763 0.43903 0.0
C1232 C 0.79174 0.11833 0.4451 0.0
C1233 C 0.89328 0.14691 0.42643 0.0
C1234 C 0.86629 0.13935 0.41465 0.0
C1235 C 0.834 0.12987 0.42116 0.0
C1236 C 0.8702 0.14144 0.39554 0.0
C1237 C 0.92758 0.15826 0.42035 0.0
C1238 C 0.84174 0.15077 0.38591 0.0
C1239 C 0.84316 0.15115 0.36784 0.0
C1240 C 0.87316 0.14229 0.35896 0.0
C1241 C 0.90232 0.13357 0.36855 0.0
C1242 C 0.90069 0.13297 0.3867 0.0
H1243 H 0.93954 0.16808 0.43077 0.0
H1244 H 0.94899 0.1469 0.41653 0.0
H1245 H 0.92138 0.16813 0.40897 0.0
H1246 H 0.81798 0.15744 0.3924 0.0
H1247 H 0.82044 0.15812 0.36077 0.0
H1248 H 0.88869 0.89221 1.00361 0.0
H1249 H 0.89701 0.89135 0.97219 0.0
H1250 H 0.78781 0.86462 0.96627 0.0
H1251 H 0.77866 0.86612 0.99767 0.0
H1252 H 0.89489 0.85949 0.94782 0.0
H1253 H 0.78279 0.91645 0.9362 0.0
H1254 H 0.80151 0.91155 0.95749 0.0
H1255 H 0.76868 0.89388 0.94801 0.0
C1256 C 0.86632 0.88624 0.99564 0.0
C1257 C 0.83278 0.87951 1.00319 0.0
C1258 C 0.87128 0.88558 0.97768 0.0
C1259 C 0.84282 0.87823 0.96685 0.0
C1260 C 0.80991 0.87069 0.97435 0.0
H1261 H 0.86573 0.86096 0.85405 0.0
H1262 H 0.85933 0.85427 0.88524 0.0
C1263 C 0.80488 0.87137 0.99234 0.0
C1264 C 0.84717 0.87935 0.94772 0.0
H1265 H 0.8121 0.90261 0.91157 0.0
C1266 C 0.8767 0.86882 0.93985 0.0
C1267 C 0.82367 0.89175 0.93739 0.0
C1268 C 0.79256 0.90421 0.94517 0.0
C1269 C 0.88347 0.87045 0.92194 0.0
C1270 C 0.8598 0.88275 0.91162 0.0
C1271 C 0.8301 0.8931 0.91948 0.0
C1272 C 0.86636 0.88617 0.89281 0.0
C1273 C 0.91657 0.85956 0.91431 0.0
C1274 C 0.87243 0.90627 0.8867 0.0
C1275 C 0.87591 0.91012 0.86898 0.0
C1276 C 0.87324 0.89395 0.8569 0.0
C1277 C 0.86822 0.87371 0.86304 0.0
C1278 C 0.86459 0.86987 0.88085 0.0
H1279 H 0.93645 0.85453 0.92446 0.0
H1280 H 0.90689 0.84569 0.90718 0.0
H1281 H 0.93144 0.86971 0.90499 0.0
H1282 H 0.87405 0.91908 0.89568 0.0
H1283 H 0.88035 0.92584 0.8647 0.0
H1284 H 0.6862 0.6055 0.50106 0.0
H1285 H 0.67013 0.60505 0.47031 0.0
H1286 H 0.64826 0.67025 0.47193 0.0
H1287 H 0.66362 0.67083 0.50286 0.0
H1288 H 0.60151 0.61769 0.45394 0.0
H1289 H 0.72385 0.66337 0.43164 0.0
H1290 H 0.72216 0.6513 0.45272 0.0
H1291 H 0.69636 0.6744 0.4487 0.0
C1292 C 0.67759 0.61974 0.49498 0.0
C1293 C 0.67624 0.63821 0.50452 0.0
C1294 C 0.66858 0.61945 0.47735 0.0
C1295 C 0.65833 0.63764 0.46879 0.0
C1296 C 0.65667 0.65609 0.47822 0.0
H1297 H 0.6258 0.65243 0.35628 0.0
H1298 H 0.62485 0.65982 0.38752 0.0
C1299 C 0.66557 0.6564 0.4959 0.0
C1300 C 0.64947 0.63709 0.44999 0.0
H1301 H 0.68196 0.65192 0.41028 0.0
C1302 C 0.61892 0.6253 0.44439 0.0
C1303 C 0.67202 0.64717 0.43756 0.0
C1304 C 0.70561 0.65969 0.44284 0.0
C1305 C 0.61072 0.623 0.42668 0.0
C1306 C 0.63419 0.63236 0.41421 0.0
C1307 C 0.66395 0.64477 0.41983 0.0
C1308 C 0.63054 0.62795 0.39536 0.0
C1309 C 0.57704 0.61049 0.42153 0.0
C1310 C 0.63369 0.60762 0.38938 0.0
C1311 C 0.6341 0.6034 0.37164 0.0
C1312 C 0.63173 0.61943 0.35942 0.0
C1313 C 0.62735 0.63975 0.36538 0.0
C1314 C 0.62704 0.64399 0.38321 0.0
H1315 H 0.55567 0.61052 0.43191 0.0
H1316 H 0.56436 0.61645 0.4094 0.0
H1317 H 0.58544 0.59427 0.41935 0.0
H1318 H 0.63718 0.59502 0.39843 0.0
H1319 H 0.63722 0.58757 0.36747 0.0
H1320 H 0.35154 0.66261 0.00701 0.0
H1321 H 0.36331 0.66837 0.03788 0.0
H1322 H 0.34147 0.60417 0.04829 0.0
H1323 H 0.3291 0.5983 0.01752 0.0
H1324 H 0.31454 0.66106 0.06599 0.0
H1325 H 0.44288 0.61429 0.07182 0.0
H1326 H 0.42458 0.62255 0.05116 0.0
H1327 H 0.4036 0.60123 0.06241 0.0
C1328 C 0.34895 0.64972 0.01586 0.0
C1329 C 0.33951 0.62996 0.00972 0.0
C1330 C 0.35595 0.65302 0.03349 0.0
C1331 C 0.35393 0.63663 0.04534 0.0
C1332 C 0.34409 0.61694 0.03933 0.0
H1333 H 0.37765 0.63201 0.15833 0.0
H1334 H 0.37201 0.62269 0.12753 0.0
C1335 C 0.33701 0.61363 0.02171 0.0
C1336 C 0.36082 0.64033 0.06408 0.0
H1337 H 0.41823 0.62796 0.09783 0.0
C1338 C 0.33727 0.65387 0.07294 0.0
C1339 C 0.39029 0.63078 0.07316 0.0
C1340 C 0.41704 0.61652 0.06417 0.0
C1341 C 0.34225 0.65806 0.09064 0.0
C1342 C 0.37216 0.64884 0.09967 0.0
C1343 C 0.39543 0.63506 0.09088 0.0
C1344 C 0.37995 0.65383 0.11812 0.0
C1345 C 0.31502 0.67212 0.09958 0.0
C1346 C 0.38795 0.6742 0.12297 0.0
C1347 C 0.39108 0.67952 0.14044 0.0
C1348 C 0.3867 0.66452 0.15345 0.0
C1349 C 0.38123 0.64385 0.14857 0.0
C1350 C 0.37784 0.63855 0.13101 0.0
H1351 H 0.28842 0.67319 0.09232 0.0
H1352 H 0.30898 0.6667 0.11294 0.0
H1353 H 0.32715 0.68784 0.10041 0.0
H1354 H 0.39066 0.68615 0.11323 0.0
H1355 H 0.39588 0.69551 0.14382 0.0
H1356 H 0.17678 0.89267 0.5124 0.0
H1357 H 0.15973 0.88949 0.54303 0.0
H1358 H 0.1458 0.82391 0.53675 0.0
H1359 H 0.16209 0.82693 0.50614 0.0
H1360 H 0.09351 0.87301 0.55822 0.0
H1361 H 0.21872 0.82929 0.57796 0.0
H1362 H 0.21603 0.84331 0.55777 0.0
H1363 H 0.19426 0.81843 0.5598 0.0
C1364 C 0.16979 0.87758 0.51748 0.0
C1365 C 0.17116 0.86003 0.50678 0.0
C1366 C 0.16023 0.87579 0.53502 0.0
C1367 C 0.15212 0.85642 0.54224 0.0
C1368 C 0.15278 0.83895 0.53155 0.0
H1369 H 0.03874 0.82191 0.63661 0.0
H1370 H 0.0573 0.82957 0.6068 0.0
C1371 C 0.1622 0.84072 0.51404 0.0
C1372 C 0.14252 0.85439 0.56088 0.0
H1373 H 0.16949 0.83096 0.59848 0.0
C1374 C 0.11022 0.86393 0.56707 0.0
C1375 C 0.16462 0.84277 0.57245 0.0
C1376 C 0.20054 0.83301 0.56675 0.0
C1377 C 0.09882 0.86161 0.58439 0.0
C1378 C 0.1201 0.84926 0.59576 0.0
C1379 C 0.15301 0.84027 0.58971 0.0
C1380 C 0.10839 0.84514 0.61391 0.0
C1381 C 0.0642 0.87248 0.59039 0.0
C1382 C 0.13125 0.85101 0.62783 0.0
C1383 C 0.12085 0.84652 0.64491 0.0
C1384 C 0.08753 0.83585 0.6484 0.0
C1385 C 0.06472 0.82998 0.63439 0.0
C1386 C 0.07508 0.83456 0.61734 0.0
H1387 H 0.05684 0.88548 0.58168 0.0
H1388 H 0.04061 0.8614 0.59041 0.0
H1389 H 0.06769 0.87849 0.60377 0.0
H1390 H 0.15723 0.85905 0.62547 0.0
H1391 H 0.13927 0.85103 0.65535 0.0
H1392 H 0.22788 0.26939 0.38918 0.0
H1393 H 0.19627 0.24383 0.37089 0.0
H1394 H 0.12966 0.29186 0.34822 0.0
H1395 H 0.1606 0.31741 0.36663 0.0
H1396 H 0.08922 0.25555 0.35851 0.0
H1397 H 0.21225 0.23752 0.31778 0.0
H1398 H 0.21908 0.23578 0.34082 0.0
H1399 H 0.20979 0.26036 0.33109 0.0
C1400 C 0.20627 0.27447 0.38041 0.0
C1401 C 0.19691 0.29546 0.37929 0.0
C1402 C 0.1885 0.25989 0.36986 0.0
C1403 C 0.16102 0.26601 0.35802 0.0
C1404 C 0.151 0.28684 0.35717 0.0
H1405 H 0.01753 0.20798 0.28165 0.0
H1406 H 0.04835 0.23153 0.30192 0.0
C1407 C 0.16884 0.30143 0.36763 0.0
C1408 C 0.14247 0.25076 0.34654 0.0
H1409 H 0.15772 0.21807 0.31262 0.0
C1410 C 0.10416 0.24733 0.34848 0.0
C1411 C 0.16207 0.24006 0.33349 0.0
C1412 C 0.20302 0.24366 0.3305 0.0
C1413 C 0.08494 0.23334 0.33781 0.0
C1414 C 0.10444 0.22284 0.32459 0.0
C1415 C 0.14283 0.22614 0.32275 0.0
C1416 C 0.08545 0.20852 0.31241 0.0
C1417 C 0.04407 0.22968 0.34098 0.0
C1418 C 0.09657 0.18786 0.31131 0.0
C1419 C 0.07905 0.1744 0.2997 0.0
C1420 C 0.05037 0.18141 0.28887 0.0
C1421 C 0.03925 0.20208 0.28999 0.0
C1422 C 0.05681 0.21555 0.30158 0.0
H1423 H 0.03587 0.23427 0.3543 0.0
H1424 H 0.0277 0.23905 0.33171 0.0
H1425 H 0.03658 0.21322 0.33903 0.0
H1426 H 0.11872 0.18212 0.31947 0.0
H1427 H 0.08801 0.15851 0.29918 0.0
H1428 H 0.34413 0.18344 0.86355 0.0
H1429 H 0.37479 0.20856 0.84469 0.0
H1430 H 0.32713 0.25819 0.87413 0.0
H1431 H 0.29514 0.2332 0.8928 0.0
H1432 H 0.32969 0.24564 0.82647 0.0
H1433 H 0.44975 0.26502 0.86929 0.0
H1434 H 0.42709 0.24011 0.87013 0.0
H1435 H 0.40404 0.2623 0.87864 0.0
C1436 C 0.33982 0.19968 0.86598 0.0
C1437 C 0.31684 0.20625 0.87967 0.0
C1438 C 0.35759 0.214 0.85524 0.0
C1439 C 0.35317 0.23516 0.85805 0.0
C1440 C 0.33095 0.24187 0.87184 0.0
H1441 H 0.40788 0.34015 0.79308 0.0
H1442 H 0.37872 0.3156 0.81293 0.0
C1443 C 0.31291 0.22755 0.88255 0.0
C1444 C 0.37113 0.25018 0.84624 0.0
H1445 H 0.44609 0.28237 0.84247 0.0
C1446 C 0.35506 0.25374 0.82995 0.0
C1447 C 0.40433 0.26052 0.85083 0.0
C1448 C 0.42263 0.25687 0.86814 0.0
C1449 C 0.37132 0.26756 0.81812 0.0
C1450 C 0.40441 0.27804 0.82276 0.0
C1451 C 0.42066 0.27432 0.839 0.0
C1452 C 0.42242 0.29299 0.81088 0.0
C1453 C 0.35332 0.2707 0.80064 0.0
C1454 C 0.45696 0.28855 0.80337 0.0
C1455 C 0.47346 0.30244 0.79177 0.0
C1456 C 0.45575 0.32107 0.7876 0.0
C1457 C 0.4217 0.32569 0.7956 0.0
C1458 C 0.40509 0.31174 0.80704 0.0
H1459 H 0.33223 0.25861 0.79777 0.0
H1460 H 0.33931 0.28589 0.80043 0.0
H1461 H 0.37454 0.27071 0.7902 0.0
H1462 H 0.47085 0.27418 0.80627 0.0
H1463 H 0.49982 0.29846 0.78593 0.0
H1464 H 0.65356 0.21429 0.61475 0.0
H1465 H 0.62049 0.23994 0.63215 0.0
H1466 H 0.70407 0.23522 0.672 0.0
H1467 H 0.73762 0.20995 0.6546 0.0
H1468 H 0.59182 0.2345 0.66614 0.0
H1469 H 0.696 0.29778 0.66345 0.0
H1470 H 0.69636 0.27631 0.64856 0.0
H1471 H 0.71454 0.27338 0.67012 0.0
C1472 C 0.66516 0.21894 0.62711 0.0
C1473 C 0.69824 0.2101 0.63328 0.0
C1474 C 0.64613 0.23349 0.63707 0.0
C1475 C 0.66006 0.23964 0.65326 0.0
C1476 C 0.69313 0.23092 0.65942 0.0
H1477 H 0.55143 0.29639 0.74057 0.0
H1478 H 0.58207 0.27333 0.72001 0.0
C1479 C 0.71206 0.21633 0.64953 0.0
C1480 C 0.63941 0.2546 0.66406 0.0
H1481 H 0.64722 0.30136 0.68407 0.0
C1482 C 0.60378 0.24919 0.66996 0.0
C1483 C 0.65496 0.27383 0.66889 0.0
C1484 C 0.69243 0.28082 0.66232 0.0
C1485 C 0.58371 0.26226 0.68098 0.0
C1486 C 0.59988 0.28112 0.68635 0.0
C1487 C 0.63504 0.2868 0.68005 0.0
C1488 C 0.58097 0.29503 0.69871 0.0
C1489 C 0.54532 0.25583 0.68676 0.0
C1490 C 0.57076 0.31498 0.69362 0.0
C1491 C 0.55335 0.3282 0.70536 0.0
C1492 C 0.54633 0.32177 0.72245 0.0
C1493 C 0.55666 0.30179 0.72751 0.0
C1494 C 0.57392 0.28856 0.71575 0.0
H1495 H 0.53335 0.24372 0.67821 0.0
H1496 H 0.5469 0.2495 0.7001 0.0
H1497 H 0.52622 0.26921 0.68695 0.0
H1498 H 0.57614 0.32028 0.68055 0.0
H1499 H 0.5458 0.34354 0.70113 0.0
H1500 H 0.76966 0.29806 0.15584 0.0
H1501 H 0.80281 0.27317 0.17384 0.0
H1502 H 0.87985 0.26216 0.13216 0.0
H1503 H 0.84758 0.28756 0.11422 0.0
H1504 H 0.81678 0.23152 0.16862 0.0
H1505 H 0.94822 0.27646 0.17289 0.0
H1506 H 0.9054 0.2875 0.16512 0.0
H1507 H 0.93272 0.27141 0.15117 0.0
C1508 C 0.79388 0.29051 0.15053 0.0
C1509 C 0.80614 0.29498 0.13362 0.0
C1510 C 0.81262 0.27616 0.16081 0.0
C1511 C 0.84413 0.26602 0.15445 0.0
C1512 C 0.85598 0.27006 0.13744 0.0
H1513 H 0.95006 0.15906 0.2026 0.0
H1514 H 0.91737 0.18231 0.18267 0.0
C1515 C 0.83724 0.28443 0.12714 0.0
C1516 C 0.86456 0.25132 0.16569 0.0
H1517 H 0.94864 0.24292 0.18499 0.0
C1518 C 0.84563 0.23397 0.17217 0.0
C1519 C 0.90205 0.25472 0.17052 0.0
C1520 C 0.92328 0.27361 0.16472 0.0
C1521 C 0.86327 0.21985 0.18324 0.0
C1522 C 0.90099 0.22301 0.18774 0.0
C1523 C 0.91983 0.24042 0.18136 0.0
C1524 C 0.92103 0.20886 0.19958 0.0
C1525 C 0.84115 0.20196 0.19042 0.0
C1526 C 0.93474 0.2162 0.21545 0.0
C1527 C 0.95348 0.20301 0.22675 0.0
C1528 C 0.95885 0.18222 0.22238 0.0
C1529 C 0.94595 0.17498 0.20631 0.0
C1530 C 0.92708 0.18819 0.19501 0.0
H1531 H 0.81076 0.20427 0.18888 0.0
H1532 H 0.84882 0.1877 0.18339 0.0
H1533 H 0.8474 0.19961 0.20437 0.0
H1534 H 0.93068 0.23212 0.21917 0.0
H1535 H 0.9639 0.20909 0.2389 0.0
H1536 H 0.78339 0.72353 0.63193 0.0
H1537 H 0.81542 0.75118 0.64787 0.0
H1538 H 0.89285 0.70701 0.66849 0.0
H1539 H 0.86112 0.67939 0.65262 0.0
H1540 H 0.82536 0.75034 0.68595 0.0
H1541 H 0.95875 0.75583 0.64995 0.0
H1542 H 0.91702 0.745 0.64051 0.0
H1543 H 0.94377 0.73023 0.65568 0.0
C1544 C 0.80765 0.71981 0.63961 0.0
C1545 C 0.81972 0.69931 0.64107 0.0
C1546 C 0.82578 0.73557 0.64876 0.0
C1547 C 0.85664 0.73114 0.65924 0.0
C1548 C 0.86936 0.71079 0.66032 0.0
H1549 H 0.99911 0.79598 0.73168 0.0
H1550 H 0.96946 0.77128 0.71193 0.0
C1551 C 0.85106 0.69502 0.65134 0.0
C1552 C 0.8741 0.74743 0.67004 0.0
H1553 H 0.95543 0.77362 0.67676 0.0
C1554 C 0.85365 0.75563 0.68386 0.0
C1555 C 0.91115 0.75404 0.66738 0.0
C1556 C 0.934 0.74598 0.65251 0.0
C1557 C 0.86959 0.76992 0.69538 0.0
C1558 C 0.90668 0.7766 0.69272 0.0
C1559 C 0.92701 0.76852 0.67878 0.0
C1560 C 0.92497 0.79176 0.7044 0.0
C1561 C 0.84713 0.77707 0.71072 0.0
C1562 C 0.91022 0.81158 0.7065 0.0
C1563 C 0.92711 0.82567 0.71775 0.0
C1564 C 0.95919 0.82026 0.72705 0.0
C1565 C 0.97441 0.80057 0.72467 0.0
C1566 C 0.95748 0.78646 0.71342 0.0
H1567 H 0.82306 0.76674 0.71331 0.0
H1568 H 0.86469 0.7778 0.72255 0.0
H1569 H 0.83626 0.79274 0.70813 0.0
H1570 H 0.88575 0.81622 0.69935 0.0
H1571 H 0.91528 0.8409 0.71901 0.0
H1572 H 0.65328 0.81865 0.14382 0.0
H1573 H 0.62332 0.79302 0.16256 0.0
H1574 H 0.6923 0.74551 0.14081 0.0
H1575 H 0.72264 0.7711 0.12206 0.0
H1576 H 0.58613 0.7534 0.15176 0.0
H1577 H 0.70824 0.74403 0.19538 0.0
H1578 H 0.70226 0.76647 0.18181 0.0
H1579 H 0.71648 0.7425 0.17241 0.0
C1580 C 0.66208 0.80274 0.14303 0.0
C1581 C 0.69046 0.7969 0.13153 0.0
C1582 C 0.64484 0.78813 0.15368 0.0
C1583 C 0.65589 0.76746 0.15317 0.0
C1584 C 0.68364 0.76145 0.14147 0.0
H1585 H 0.59711 0.66158 0.21673 0.0
H1586 H 0.62555 0.6855 0.19609 0.0
C1587 C 0.70072 0.77604 0.1307 0.0
C1588 C 0.63862 0.75228 0.16507 0.0
H1589 H 0.65579 0.72327 0.20109 0.0
C1590 C 0.60128 0.74676 0.16255 0.0
C1591 C 0.65859 0.74367 0.17906 0.0
C1592 C 0.69857 0.74948 0.1825 0.0
C1593 C 0.58339 0.73263 0.17359 0.0
C1594 C 0.60317 0.72426 0.1878 0.0
C1595 C 0.64064 0.72972 0.19023 0.0
C1596 C 0.58559 0.7098 0.20031 0.0
C1597 C 0.54376 0.72649 0.16967 0.0
C1598 C 0.55395 0.71558 0.20975 0.0
C1599 C 0.53763 0.70191 0.22156 0.0
C1600 C 0.55304 0.68234 0.22436 0.0
C1601 C 0.58488 0.67666 0.21502 0.0
C1602 C 0.60107 0.69028 0.20316 0.0
H1603 H 0.53654 0.72936 0.15588 0.0
H1604 H 0.53879 0.70995 0.17259 0.0
H1605 H 0.52473 0.73579 0.17779 0.0
H1606 H 0.54206 0.73075 0.20811 0.0
H1607 H 0.51331 0.70679 0.2287 0.0
H1608 H 0.34808 0.80079 0.38849 0.0
H1609 H 0.38326 0.7737 0.37369 0.0
H1610 H 0.30503 0.77485 0.33135 0.0
H1611 H 0.26948 0.80161 0.34614 0.0
H1612 H 0.32537 0.7342 0.34334 0.0
H1613 H 0.44733 0.78468 0.32949 0.0
H1614 H 0.43217 0.78356 0.35168 0.0
H1615 H 0.4026 0.79487 0.33557 0.0
C1616 C 0.33819 0.79511 0.37611 0.0
C1617 C 0.30617 0.80347 0.36841 0.0
C1618 C 0.35846 0.77977 0.36762 0.0
C1619 C 0.34698 0.77248 0.35133 0.0
C1620 C 0.31447 0.78036 0.34387 0.0
H1621 H 0.45395 0.70751 0.26854 0.0
H1622 H 0.42229 0.73177 0.28771 0.0
C1623 C 0.29434 0.79574 0.35228 0.0
C1624 C 0.36903 0.75693 0.34181 0.0
H1625 H 0.45089 0.75015 0.32019 0.0
C1626 C 0.35294 0.7376 0.33839 0.0
C1627 C 0.4048 0.76153 0.33521 0.0
C1628 C 0.42281 0.78232 0.33801 0.0
C1629 C 0.37165 0.72275 0.32848 0.0
C1630 C 0.4074 0.72737 0.32191 0.0
C1631 C 0.42358 0.74664 0.32539 0.0
C1632 C 0.42756 0.71277 0.31061 0.0
C1633 C 0.35269 0.70247 0.32464 0.0
C1634 C 0.44144 0.69418 0.31722 0.0
C1635 C 0.4597 0.68031 0.30631 0.0
C1636 C 0.46416 0.68477 0.28859 0.0
C1637 C 0.4507 0.70356 0.2821 0.0
C1638 C 0.43271 0.71746 0.29303 0.0
H1639 H 0.32287 0.70256 0.32835 0.0
H1640 H 0.35487 0.69874 0.31063 0.0
H1641 H 0.36669 0.69001 0.33198 0.0
H1642 H 0.43803 0.69039 0.3308 0.0
H1643 H 0.46977 0.66595 0.31167 0.0
H1644 H 0.22884 0.73165 0.88737 0.0
H1645 H 0.19682 0.75613 0.86834 0.0
H1646 H 0.13453 0.70615 0.84547 0.0
H1647 H 0.16605 0.68164 0.86453 0.0
H1648 H 0.19467 0.75487 0.83016 0.0
H1649 H 0.05511 0.74949 0.86079 0.0
H1650 H 0.09706 0.74168 0.87181 0.0
H1651 H 0.07678 0.72538 0.85552 0.0
C1652 C 0.20801 0.72591 0.87843 0.0
C1653 C 0.19993 0.70471 0.87748 0.0
C1654 C 0.18995 0.73988 0.86749 0.0
C1655 C 0.16316 0.73295 0.85559 0.0
C1656 C 0.15489 0.71183 0.85467 0.0
H1657 H 0.062 0.79588 0.76753 0.0
H1658 H 0.09432 0.77131 0.78643 0.0
C1659 C 0.1731 0.69784 0.86549 0.0
C1660 C 0.14421 0.74773 0.84393 0.0
H1661 H 0.05955 0.76872 0.83478 0.0
C1662 C 0.16515 0.75792 0.83116 0.0
C1663 C 0.10575 0.75174 0.84535 0.0
C1664 C 0.08226 0.74166 0.85917 0.0
C1665 C 0.14845 0.77186 0.81961 0.0
C1666 C 0.10991 0.77562 0.82089 0.0
C1667 C 0.08906 0.76562 0.83377 0.0
C1668 C 0.09093 0.79044 0.80931 0.0
C1669 C 0.17208 0.78275 0.80628 0.0
C1670 C 0.07818 0.8092 0.81598 0.0
C1671 C 0.06015 0.82329 0.80522 0.0
C1672 C 0.05419 0.8188 0.7876 0.0
C1673 C 0.06664 0.79987 0.78099 0.0
C1674 C 0.08501 0.78583 0.79175 0.0
H1675 H 0.20224 0.7803 0.8085 0.0
H1676 H 0.16491 0.7769 0.79318 0.0
H1677 H 0.16643 0.79956 0.80644 0.0
H1678 H 0.08244 0.81299 0.82951 0.0
H1679 H 0.051 0.83776 0.8107 0.0
loop_
_geom_bond_atom_site_label_1
_geom_bond_atom_site_label_2
_geom_bond_distance
_geom_bond_site_symmetry_2
_ccdc_geom_bond_type
C0 C1 1.391 . S
C0 C4 1.391 . S
C0 H42 0.948 . S
C1 C0 1.391 . S
C1 C2 1.391 . S
C2 C1 1.391 . S
C2 H58 0.947 . S
C2 C59 1.392 . S
C3 C4 1.391 . S
C3 C7 1.397 . S
C3 C59 1.419 . S
C4 C0 1.391 . S
C4 C3 1.391 . S
C4 C5 1.399 . S
C5 C4 1.399 . S
C5 C8 1.396 . S
C5 C17 1.453 . S
C5 C18 1.684 . S
H6 C30 0.948 . S
C7 C3 1.397 . S
C7 C8 1.394 . S
C7 C26 1.723 . S
C8 C5 1.396 . S
C8 C7 1.394 . S
C8 C38 1.723 . S
H9 C32 0.947 . S
H10 C33 0.948 . S
H11 C39 0.982 . S
H12 C40 0.979 . S
H13 C40 0.980 . S
H14 C40 0.983 . S
H15 C39 0.979 . S
H16 C39 0.977 . S
C17 C5 1.453 . S
C17 H46 0.982 . S
C17 H47 0.979 . S
C17 H48 0.977 . S
C18 C5 1.684 . S
C18 H43 0.979 . S
C18 H44 0.980 . S
C18 H45 0.983 . S
C19 C20 1.391 . S
C19 C24 1.391 . S
C19 H49 0.948 . S
C20 C19 1.391 . S
C20 C21 1.391 . S
C21 C20 1.391 . S
C21 C22 1.392 . S
C21 H50 0.947 . S
C22 C21 1.392 . S
C22 C23 1.419 . S
C22 H51 0.948 . S
C23 C22 1.419 . S
C23 C24 1.391 . S
C23 C27 1.397 . S
C24 C19 1.391 . S
C24 C23 1.391 . S
C24 C25 1.399 . S
C25 C24 1.399 . S
C25 C26 1.396 . S
C25 C28 1.453 . S
C25 C29 1.684 . S
C26 C7 1.723 . S
C26 C25 1.396 . S
C26 C27 1.394 . S
C27 C23 1.397 . S
C27 C26 1.394 . S
C27 C37 1.723 . S
C28 C25 1.453 . S
C28 H52 0.982 . S
C28 H53 0.979 . S
C28 H54 0.977 . S
C29 C25 1.684 . S
C29 H55 0.979 . S
C29 H56 0.980 . S
C29 H57 0.983 . S
C30 H6 0.948 . S
C30 C31 1.391 . S
C30 C35 1.391 . S
C31 C30 1.391 . S
C31 C32 1.391 . S
C32 H9 0.947 . S
C32 C31 1.391 . S
C32 C33 1.392 . S
C33 H10 0.948 . S
C33 C32 1.392 . S
C33 C34 1.419 . S
C34 C33 1.419 . S
C34 C35 1.391 . S
C34 C38 1.397 . S
C35 C30 1.391 . S
C35 C34 1.391 . S
C35 C36 1.399 . S
C36 C35 1.399 . S
C36 C37 1.396 . S
C36 C39 1.453 . S
C36 C40 1.684 . S
C37 C27 1.723 . S
C37 C36 1.396 . S
C37 C38 1.394 . S
C38 C8 1.723 . S
C38 C34 1.397 . S
C38 C37 1.394 . S
C39 H11 0.982 . S
C39 H15 0.979 . S
C39 H16 0.977 . S
C39 C36 1.453 . S
C40 H12 0.979 . S
C40 H13 0.980 . S
C40 H14 0.983 . S
C40 C36 1.684 . S
H41 C59 0.948 . S
H42 C0 0.948 . S
H43 C18 0.979 . S
H44 C18 0.980 . S
H45 C18 0.983 . S
H46 C17 0.982 . S
H47 C17 0.979 . S
H48 C17 0.977 . S
H49 C19 0.948 . S
H50 C21 0.947 . S
H51 C22 0.948 . S
H52 C28 0.982 . S
H53 C28 0.979 . S
H54 C28 0.977 . S
H55 C29 0.979 . S
H56 C29 0.980 . S
H57 C29 0.983 . S
H58 C2 0.947 . S
C59 C2 1.392 . S
C59 C3 1.419 . S
C59 H41 0.948 . S
C60 C61 1.391 . S
C60 C64 1.391 . S
C60 H102 0.948 . S
C61 C60 1.391 . S
C61 C62 1.391 . S
C62 C61 1.391 . S
C62 H118 0.947 . S
C62 C119 1.392 . S
C63 C64 1.391 . S
C63 C67 1.397 . S
C63 C119 1.419 . S
C64 C60 1.391 . S
C64 C63 1.391 . S
C64 C65 1.399 . S
C65 C64 1.399 . S
C65 C68 1.396 . S
C65 C77 1.453 . S
C65 C78 1.684 . S
H66 C90 0.948 . S
C67 C63 1.397 . S
C67 C68 1.394 . S
C67 C86 1.723 . S
C68 C65 1.396 . S
C68 C67 1.394 . S
C68 C98 1.723 . S
H69 C92 0.947 . S
H70 C93 0.948 . S
H71 C99 0.982 . S
H72 C100 0.979 . S
H73 C100 0.980 . S
H74 C100 0.983 . S
H75 C99 0.979 . S
H76 C99 0.977 . S
C77 C65 1.453 . S
C77 H106 0.982 . S
C77 H107 0.979 . S
C77 H108 0.977 . S
C78 C65 1.684 . S
C78 H103 0.979 . S
C78 H104 0.980 . S
C78 H105 0.983 . S
C79 C80 1.391 . S
C79 C84 1.391 . S
C79 H109 0.948 . S
C80 C79 1.391 . S
C80 C81 1.391 . S
C81 C80 1.391 . S
C81 C82 1.392 . S
C81 H110 0.947 . S
C82 C81 1.392 . S
C82 C83 1.419 . S
C82 H111 0.948 . S
C83 C82 1.419 . S
C83 C84 1.391 . S
C83 C87 1.397 . S
C84 C79 1.391 . S
C84 C83 1.391 . S
C84 C85 1.399 . S
C85 C84 1.399 . S
C85 C86 1.396 . S
C85 C88 1.453 . S
C85 C89 1.684 . S
C86 C67 1.723 . S
C86 C85 1.396 . S
C86 C87 1.394 . S
C87 C83 1.397 . S
C87 C86 1.394 . S
C87 C97 1.723 . S
C88 C85 1.453 . S
C88 H112 0.982 . S
C88 H113 0.979 . S
C88 H114 0.977 . S
C89 C85 1.684 . S
C89 H115 0.979 . S
C89 H116 0.980 . S
C89 H117 0.983 . S
C90 H66 0.948 . S
C90 C91 1.391 . S
C90 C95 1.391 . S
C91 C90 1.391 . S
C91 C92 1.391 . S
C92 H69 0.947 . S
C92 C91 1.391 . S
C92 C93 1.392 . S
C93 H70 0.948 . S
C93 C92 1.392 . S
C93 C94 1.419 . S
C94 C93 1.419 . S
C94 C95 1.391 . S
C94 C98 1.397 . S
C95 C90 1.391 . S
C95 C94 1.391 . S
C95 C96 1.399 . S
C96 C95 1.399 . S
C96 C97 1.396 . S
C96 C99 1.453 . S
C96 C100 1.684 . S
C97 C87 1.723 . S
C97 C96 1.396 . S
C97 C98 1.394 . S
C98 C68 1.723 . S
C98 C94 1.397 . S
C98 C97 1.394 . S
C99 H71 0.982 . S
C99 H75 0.979 . S
C99 H76 0.977 . S
C99 C96 1.453 . S
C100 H72 0.979 . S
C100 H73 0.980 . S
C100 H74 0.983 . S
C100 C96 1.684 . S
H101 C119 0.948 . S
H102 C60 0.948 . S
H103 C78 0.979 . S
H104 C78 0.980 . S
H105 C78 0.983 . S
H106 C77 0.982 . S
H107 C77 0.979 . S
H108 C77 0.977 . S
H109 C79 0.948 . S
H110 C81 0.947 . S
H111 C82 0.948 . S
H112 C88 0.982 . S
H113 C88 0.979 . S
H114 C88 0.977 . S
H115 C89 0.979 . S
H116 C89 0.980 . S
H117 C89 0.983 . S
H118 C62 0.947 . S
C119 C62 1.392 . S
C119 C63 1.419 . S
C119 H101 0.948 . S
C120 C121 1.391 . S
C120 C124 1.391 . S
C120 H162 0.948 . S
C121 C120 1.391 . S
C121 C122 1.391 . S
C122 C121 1.391 . S
C122 H178 0.947 . S
C122 C179 1.392 . S
C123 C124 1.391 . S
C123 C127 1.397 . S
C123 C179 1.419 . S
C124 C120 1.391 . S
C124 C123 1.391 . S
C124 C125 1.399 . S
C125 C124 1.399 . S
C125 C128 1.396 . S
C125 C137 1.453 . S
C125 C138 1.684 . S
H126 C150 0.948 . S
C127 C123 1.397 . S
C127 C128 1.394 . S
C127 C146 1.723 . S
C128 C125 1.396 . S
C128 C127 1.394 . S
C128 C158 1.723 . S
H129 C152 0.947 . S
H130 C153 0.948 . S
H131 C159 0.982 . S
H132 C160 0.979 . S
H133 C160 0.980 . S
H134 C160 0.983 . S
H135 C159 0.979 . S
H136 C159 0.977 . S
C137 C125 1.453 . S
C137 H166 0.982 . S
C137 H167 0.979 . S
C137 H168 0.977 . S
C138 C125 1.684 . S
C138 H163 0.979 . S
C138 H164 0.980 . S
C138 H165 0.983 . S
C139 C140 1.391 . S
C139 C144 1.391 . S
C139 H169 0.948 . S
C140 C139 1.391 . S
C140 C141 1.391 . S
C141 C140 1.391 . S
C141 C142 1.392 . S
C141 H170 0.947 . S
C142 C141 1.392 . S
C142 C143 1.419 . S
C142 H171 0.948 . S
C143 C142 1.419 . S
C143 C144 1.391 . S
C143 C147 1.397 . S
C144 C139 1.391 . S
C144 C143 1.391 . S
C144 C145 1.399 . S
C145 C144 1.399 . S
C145 C146 1.396 . S
C145 C148 1.453 . S
C145 C149 1.684 . S
C146 C127 1.723 . S
C146 C145 1.396 . S
C146 C147 1.394 . S
C147 C143 1.397 . S
C147 C146 1.394 . S
C147 C157 1.723 . S
C148 C145 1.453 . S
C148 H172 0.982 . S
C148 H173 0.979 . S
C148 H174 0.977 . S
C149 C145 1.684 . S
C149 H175 0.979 . S
C149 H176 0.980 . S
C149 H177 0.983 . S
C150 H126 0.948 . S
C150 C151 1.391 . S
C150 C155 1.391 . S
C151 C150 1.391 . S
C151 C152 1.391 . S
C152 H129 0.947 . S
C152 C151 1.391 . S
C152 C153 1.392 . S
C153 H130 0.948 . S
C153 C152 1.392 . S
C153 C154 1.419 . S
C154 C153 1.419 . S
C154 C155 1.391 . S
C154 C158 1.397 . S
C155 C150 1.391 . S
C155 C154 1.391 . S
C155 C156 1.399 . S
C156 C155 1.399 . S
C156 C157 1.396 . S
C156 C159 1.453 . S
C156 C160 1.684 . S
C157 C147 1.723 . S
C157 C156 1.396 . S
C157 C158 1.394 . S
C158 C128 1.723 . S
C158 C154 1.397 . S
C158 C157 1.394 . S
C159 H131 0.982 . S
C159 H135 0.979 . S
C159 H136 0.977 . S
C159 C156 1.453 . S
C160 H132 0.979 . S
C160 H133 0.980 . S
C160 H134 0.983 . S
C160 C156 1.684 . S
H161 C179 0.948 . S
H162 C120 0.948 . S
H163 C138 0.979 . S
H164 C138 0.980 . S
H165 C138 0.983 . S
H166 C137 0.982 . S
H167 C137 0.979 . S
H168 C137 0.977 . S
H169 C139 0.948 . S
H170 C141 0.947 . S
H171 C142 0.948 . S
H172 C148 0.982 . S
H173 C148 0.979 . S
H174 C148 0.977 . S
H175 C149 0.979 . S
H176 C149 0.980 . S
H177 C149 0.983 . S
H178 C122 0.947 . S
C179 C122 1.392 . S
C179 C123 1.419 . S
C179 H161 0.948 . S
C180 C181 1.391 . S
C180 C184 1.391 . S
C180 H222 0.948 . S
C181 C180 1.391 . S
C181 C182 1.391 . S
C182 C181 1.391 . S
C182 H238 0.947 . S
C182 C239 1.392 . S
C183 C184 1.391 . S
C183 C187 1.397 . S
C183 C239 1.419 . S
C184 C180 1.391 . S
C184 C183 1.391 . S
C184 C185 1.399 . S
C185 C184 1.399 . S
C185 C188 1.396 . S
C185 C197 1.453 . S
C185 C198 1.684 . S
H186 C210 0.948 . S
C187 C183 1.397 . S
C187 C188 1.394 . S
C187 C206 1.723 . S
C188 C185 1.396 . S
C188 C187 1.394 . S
C188 C218 1.723 . S
H189 C212 0.947 . S
H190 C213 0.948 . S
H191 C219 0.982 . S
H192 C220 0.979 . S
H193 C220 0.980 . S
H194 C220 0.983 . S
H195 C219 0.979 . S
H196 C219 0.977 . S
C197 C185 1.453 . S
C197 H226 0.982 . S
C197 H227 0.979 . S
C197 H228 0.977 . S
C198 C185 1.684 . S
C198 H223 0.979 . S
C198 H224 0.980 . S
C198 H225 0.983 . S
C199 C200 1.391 . S
C199 C204 1.391 . S
C199 H229 0.948 . S
C200 C199 1.391 . S
C200 C201 1.391 . S
C201 C200 1.391 . S
C201 C202 1.392 . S
C201 H230 0.947 . S
C202 C201 1.392 . S
C202 C203 1.419 . S
C202 H231 0.948 . S
C203 C202 1.419 . S
C203 C204 1.391 . S
C203 C207 1.397 . S
C204 C199 1.391 . S
C204 C203 1.391 . S
C204 C205 1.399 . S
C205 C204 1.399 . S
C205 C206 1.396 . S
C205 C208 1.453 . S
C205 C209 1.684 . S
C206 C187 1.723 . S
C206 C205 1.396 . S
C206 C207 1.394 . S
C207 C203 1.397 . S
C207 C206 1.394 . S
C207 C217 1.723 . S
C208 C205 1.453 . S
C208 H232 0.982 . S
C208 H233 0.979 . S
C208 H234 0.977 . S
C209 C205 1.684 . S
C209 H235 0.979 . S
C209 H236 0.980 . S
C209 H237 0.983 . S
C210 H186 0.948 . S
C210 C211 1.391 . S
C210 C215 1.391 . S
C211 C210 1.391 . S
C211 C212 1.391 . S
C212 H189 0.947 . S
C212 C211 1.391 . S
C212 C213 1.392 . S
C213 H190 0.948 . S
C213 C212 1.392 . S
C213 C214 1.419 . S
C214 C213 1.419 . S
C214 C215 1.391 . S
C214 C218 1.397 . S
C215 C210 1.391 . S
C215 C214 1.391 . S
C215 C216 1.399 . S
C216 C215 1.399 . S
C216 C217 1.396 . S
C216 C219 1.453 . S
C216 C220 1.684 . S
C217 C207 1.723 . S
C217 C216 1.396 . S
C217 C218 1.394 . S
C218 C188 1.723 . S
C218 C214 1.397 . S
C218 C217 1.394 . S
C219 H191 0.982 . S
C219 H195 0.979 . S
C219 H196 0.977 . S
C219 C216 1.453 . S
C220 H192 0.979 . S
C220 H193 0.980 . S
C220 H194 0.983 . S
C220 C216 1.684 . S
H221 C239 0.948 . S
H222 C180 0.948 . S
H223 C198 0.979 . S
H224 C198 0.980 . S
H225 C198 0.983 . S
H226 C197 0.982 . S
H227 C197 0.979 . S
H228 C197 0.977 . S
H229 C199 0.948 . S
H230 C201 0.947 . S
H231 C202 0.948 . S
H232 C208 0.982 . S
H233 C208 0.979 . S
H234 C208 0.977 . S
H235 C209 0.979 . S
H236 C209 0.980 . S
H237 C209 0.983 . S
H238 C182 0.947 . S
C239 C182 1.392 . S
C239 C183 1.419 . S
C239 H221 0.948 . S
C240 C241 1.391 . S
C240 C244 1.391 . S
C240 H282 0.948 . S
C241 C240 1.391 . S
C241 C242 1.391 . S
C242 C241 1.391 . S
C242 H298 0.947 . S
C242 C299 1.392 . S
C243 C244 1.391 . S
C243 C247 1.397 . S
C243 C299 1.419 . S
C244 C240 1.391 . S
C244 C243 1.391 . S
C244 C245 1.399 . S
C245 C244 1.399 . S
C245 C248 1.396 . S
C245 C257 1.453 . S
C245 C258 1.684 . S
H246 C270 0.948 . S
C247 C243 1.397 . S
C247 C248 1.394 . S
C247 C266 1.723 . S
C248 C245 1.396 . S
C248 C247 1.394 . S
C248 C278 1.723 . S
H249 C272 0.947 . S
H250 C273 0.948 . S
H251 C279 0.982 . S
H252 C280 0.979 . S
H253 C280 0.980 . S
H254 C280 0.983 . S
H255 C279 0.979 . S
H256 C279 0.977 . S
C257 C245 1.453 . S
C257 H286 0.982 . S
C257 H287 0.979 . S
C257 H288 0.977 . S
C258 C245 1.684 . S
C258 H283 0.979 . S
C258 H284 0.980 . S
C258 H285 0.983 . S
C259 C260 1.391 . S
C259 C264 1.391 . S
C259 H289 0.948 . S
C260 C259 1.391 . S
C260 C261 1.391 . S
C261 C260 1.391 . S
C261 C262 1.392 . S
C261 H290 0.947 . S
C262 C261 1.392 . S
C262 C263 1.419 . S
C262 H291 0.948 . S
C263 C262 1.419 . S
C263 C264 1.391 . S
C263 C267 1.397 . S
C264 C259 1.391 . S
C264 C263 1.391 . S
C264 C265 1.399 . S
C265 C264 1.399 . S
C265 C266 1.396 . S
C265 C268 1.453 . S
C265 C269 1.684 . S
C266 C247 1.723 . S
C266 C265 1.396 . S
C266 C267 1.394 . S
C267 C263 1.397 . S
C267 C266 1.394 . S
C267 C277 1.723 . S
C268 C265 1.453 . S
C268 H292 0.982 . S
C268 H293 0.979 . S
C268 H294 0.977 . S
C269 C265 1.684 . S
C269 H295 0.979 . S
C269 H296 0.980 . S
C269 H297 0.983 . S
C270 H246 0.948 . S
C270 C271 1.391 . S
C270 C275 1.391 . S
C271 C270 1.391 . S
C271 C272 1.391 . S
C272 H249 0.947 . S
C272 C271 1.391 . S
C272 C273 1.392 . S
C273 H250 0.948 . S
C273 C272 1.392 . S
C273 C274 1.419 . S
C274 C273 1.419 . S
C274 C275 1.391 . S
C274 C278 1.397 . S
C275 C270 1.391 . S
C275 C274 1.391 . S
C275 C276 1.399 . S
C276 C275 1.399 . S
C276 C277 1.396 . S
C276 C279 1.453 . S
C276 C280 1.684 . S
C277 C267 1.723 . S
C277 C276 1.396 . S
C277 C278 1.394 . S
C278 C248 1.723 . S
C278 C274 1.397 . S
C278 C277 1.394 . S
C279 H251 0.982 . S
C279 H255 0.979 . S
C279 H256 0.977 . S
C279 C276 1.453 . S
C280 H252 0.979 . S
C280 H253 0.980 . S
C280 H254 0.983 . S
C280 C276 1.684 . S
H281 C299 0.948 . S
H282 C240 0.948 . S
H283 C258 0.979 . S
H284 C258 0.980 . S
H285 C258 0.983 . S
H286 C257 0.982 . S
H287 C257 0.979 . S
H288 C257 0.977 . S
H289 C259 0.948 . S
H290 C261 0.947 . S
H291 C262 0.948 . S
H292 C268 0.982 . S
H293 C268 0.979 . S
H294 C268 0.977 . S
H295 C269 0.979 . S
H296 C269 0.980 . S
H297 C269 0.983 . S
H298 C242 0.947 . S
C299 C242 1.392 . S
C299 C243 1.419 . S
C299 H281 0.948 . S
C300 C301 1.391 . S
C300 C304 1.391 . S
C300 H342 0.948 . S
C301 C300 1.391 . S
C301 C302 1.391 . S
C302 C301 1.391 . S
C302 H358 0.947 . S
C302 C359 1.392 . S
C303 C304 1.391 . S
C303 C307 1.397 . S
C303 C359 1.419 . S
C304 C300 1.391 . S
C304 C303 1.391 . S
C304 C305 1.399 . S
C305 C304 1.399 . S
C305 C308 1.396 . S
C305 C317 1.453 . S
C305 C318 1.684 . S
H306 C330 0.948 . S
C307 C303 1.397 . S
C307 C308 1.394 . S
C307 C326 1.723 . S
C308 C305 1.396 . S
C308 C307 1.394 . S
C308 C338 1.723 . S
H309 C332 0.947 . S
H310 C333 0.948 . S
H311 C339 0.982 . S
H312 C340 0.979 . S
H313 C340 0.980 . S
H314 C340 0.983 . S
H315 C339 0.979 . S
H316 C339 0.977 . S
C317 C305 1.453 . S
C317 H346 0.982 . S
C317 H347 0.979 . S
C317 H348 0.977 . S
C318 C305 1.684 . S
C318 H343 0.979 . S
C318 H344 0.980 . S
C318 H345 0.983 . S
C319 C320 1.391 . S
C319 C324 1.391 . S
C319 H349 0.948 . S
C320 C319 1.391 . S
C320 C321 1.391 . S
C321 C320 1.391 . S
C321 C322 1.392 . S
C321 H350 0.947 . S
C322 C321 1.392 . S
C322 C323 1.419 . S
C322 H351 0.948 . S
C323 C322 1.419 . S
C323 C324 1.391 . S
C323 C327 1.397 . S
C324 C319 1.391 . S
C324 C323 1.391 . S
C324 C325 1.399 . S
C325 C324 1.399 . S
C325 C326 1.396 . S
C325 C328 1.453 . S
C325 C329 1.684 . S
C326 C307 1.723 . S
C326 C325 1.396 . S
C326 C327 1.394 . S
C327 C323 1.397 . S
C327 C326 1.394 . S
C327 C337 1.723 . S
C328 C325 1.453 . S
C328 H352 0.982 . S
C328 H353 0.979 . S
C328 H354 0.977 . S
C329 C325 1.684 . S
C329 H355 0.979 . S
C329 H356 0.980 . S
C329 H357 0.983 . S
C330 H306 0.948 . S
C330 C331 1.391 . S
C330 C335 1.391 . S
C331 C330 1.391 . S
C331 C332 1.391 . S
C332 H309 0.947 . S
C332 C331 1.391 . S
C332 C333 1.392 . S
C333 H310 0.948 . S
C333 C332 1.392 . S
C333 C334 1.419 . S
C334 C333 1.419 . S
C334 C335 1.391 . S
C334 C338 1.397 . S
C335 C330 1.391 . S
C335 C334 1.391 . S
C335 C336 1.399 . S
C336 C335 1.399 . S
C336 C337 1.396 . S
C336 C339 1.453 . S
C336 C340 1.684 . S
C337 C327 1.723 . S
C337 C336 1.396 . S
C337 C338 1.394 . S
C338 C308 1.723 . S
C338 C334 1.397 . S
C338 C337 1.394 . S
C339 H311 0.982 . S
C339 H315 0.979 . S
C339 H316 0.977 . S
C339 C336 1.453 . S
C340 H312 0.979 . S
C340 H313 0.980 . S
C340 H314 0.983 . S
C340 C336 1.684 . S
H341 C359 0.948 . S
H342 C300 0.948 . S
H343 C318 0.979 . S
H344 C318 0.980 . S
H345 C318 0.983 . S
H346 C317 0.982 . S
H347 C317 0.979 . S
H348 C317 0.977 . S
H349 C319 0.948 . S
H350 C321 0.947 . S
H351 C322 0.948 . S
H352 C328 0.982 . S
H353 C328 0.979 . S
H354 C328 0.977 . S
H355 C329 0.979 . S
H356 C329 0.980 . S
H357 C329 0.983 . S
H358 C302 0.947 . S
C359 C302 1.392 . S
C359 C303 1.419 . S
C359 H341 0.948 . S
C360 C361 1.391 . S
C360 C364 1.391 . S
C360 H402 0.948 . S
C361 C360 1.391 . S
C361 C362 1.391 . S
C362 C361 1.391 . S
C362 H418 0.947 . S
C362 C419 1.392 . S
C363 C364 1.391 . S
C363 C367 1.397 . S
C363 C419 1.419 . S
C364 C360 1.391 . S
C364 C363 1.391 . S
C364 C365 1.399 . S
C365 C364 1.399 . S
C365 C368 1.396 . S
C365 C377 1.453 . S
C365 C378 1.684 . S
H366 C390 0.948 . S
C367 C363 1.397 . S
C367 C368 1.394 . S
C367 C386 1.723 . S
C368 C365 1.396 . S
C368 C367 1.394 . S
C368 C398 1.723 . S
H369 C392 0.947 . S
H370 C393 0.948 . S
H371 C399 0.982 . S
H372 C400 0.979 . S
H373 C400 0.980 . S
H374 C400 0.983 . S
H375 C399 0.979 . S
H376 C399 0.977 . S
C377 C365 1.453 . S
C377 H406 0.982 . S
C377 H407 0.979 . S
C377 H408 0.977 . S
C378 C365 1.684 . S
C378 H403 0.979 . S
C378 H404 0.980 . S
C378 H405 0.983 . S
C379 C380 1.391 . S
C379 C384 1.391 . S
C379 H409 0.948 . S
C380 C379 1.391 . S
C380 C381 1.391 . S
C381 C380 1.391 . S
C381 C382 1.392 . S
C381 H410 0.947 . S
C382 C381 1.392 . S
C382 C383 1.419 . S
C382 H411 0.948 . S
C383 C382 1.419 . S
C383 C384 1.391 . S
C383 C387 1.397 . S
C384 C379 1.391 . S
C384 C383 1.391 . S
C384 C385 1.399 . S
C385 C384 1.399 . S
C385 C386 1.396 . S
C385 C388 1.453 . S
C385 C389 1.684 . S
C386 C367 1.723 . S
C386 C385 1.396 . S
C386 C387 1.394 . S
C387 C383 1.397 . S
C387 C386 1.394 . S
C387 C397 1.723 . S
C388 C385 1.453 . S
C388 H412 0.982 . S
C388 H413 0.979 . S
C388 H414 0.977 . S
C389 C385 1.684 . S
C389 H415 0.979 . S
C389 H416 0.980 . S
C389 H417 0.983 . S
C390 H366 0.948 . S
C390 C391 1.391 . S
C390 C395 1.391 . S
C391 C390 1.391 . S
C391 C392 1.391 . S
C392 H369 0.947 . S
C392 C391 1.391 . S
C392 C393 1.392 . S
C393 H370 0.948 . S
C393 C392 1.392 . S
C393 C394 1.419 . S
C394 C393 1.419 . S
C394 C395 1.391 . S
C394 C398 1.397 . S
C395 C390 1.391 . S
C395 C394 1.391 . S
C395 C396 1.399 . S
C396 C395 1.399 . S
C396 C397 1.396 . S
C396 C399 1.453 . S
C396 C400 1.684 . S
C397 C387 1.723 . S
C397 C396 1.396 . S
C397 C398 1.394 . S
C398 C368 1.723 . S
C398 C394 1.397 . S
C398 C397 1.394 . S
C399 H371 0.982 . S
C399 H375 0.979 . S
C399 H376 0.977 . S
C399 C396 1.453 . S
C400 H372 0.979 . S
C400 H373 0.980 . S
C400 H374 0.983 . S
C400 C396 1.684 . S
H401 C419 0.948 . S
H402 C360 0.948 . S
H403 C378 0.979 . S
H404 C378 0.980 . S
H405 C378 0.983 . S
H406 C377 0.982 . S
H407 C377 0.979 . S
H408 C377 0.977 . S
H409 C379 0.948 . S
H410 C381 0.947 . S
H411 C382 0.948 . S
H412 C388 0.982 . S
H413 C388 0.979 . S
H414 C388 0.977 . S
H415 C389 0.979 . S
H416 C389 0.980 . S
H417 C389 0.983 . S
H418 C362 0.947 . S
C419 C362 1.392 . S
C419 C363 1.419 . S
C419 H401 0.948 . S
C420 C421 1.391 . S
C420 C424 1.391 . S
C420 H462 0.948 . S
C421 C420 1.391 . S
C421 C422 1.391 . S
C422 C421 1.391 . S
C422 H478 0.947 . S
C422 C479 1.392 . S
C423 C424 1.391 . S
C423 C427 1.397 . S
C423 C479 1.419 . S
C424 C420 1.391 . S
C424 C423 1.391 . S
C424 C425 1.399 . S
C425 C424 1.399 . S
C425 C428 1.396 . S
C425 C437 1.453 . S
C425 C438 1.684 . S
H426 C450 0.948 . S
C427 C423 1.397 . S
C427 C428 1.394 . S
C427 C446 1.723 . S
C428 C425 1.396 . S
C428 C427 1.394 . S
C428 C458 1.723 . S
H429 C452 0.947 . S
H430 C453 0.948 . S
H431 C459 0.982 . S
H432 C460 0.979 . S
H433 C460 0.980 . S
H434 C460 0.983 . S
H435 C459 0.979 . S
H436 C459 0.977 . S
C437 C425 1.453 . S
C437 H466 0.982 . S
C437 H467 0.979 . S
C437 H468 0.977 . S
C438 C425 1.684 . S
C438 H463 0.979 . S
C438 H464 0.980 . S
C438 H465 0.983 . S
C439 C440 1.391 . S
C439 C444 1.391 . S
C439 H469 0.948 . S
C440 C439 1.391 . S
C440 C441 1.391 . S
C441 C440 1.391 . S
C441 C442 1.392 . S
C441 H470 0.947 . S
C442 C441 1.392 . S
C442 C443 1.419 . S
C442 H471 0.948 . S
C443 C442 1.419 . S
C443 C444 1.391 . S
C443 C447 1.397 . S
C444 C439 1.391 . S
C444 C443 1.391 . S
C444 C445 1.399 . S
C445 C444 1.399 . S
C445 C446 1.396 . S
C445 C448 1.453 . S
C445 C449 1.684 . S
C446 C427 1.723 . S
C446 C445 1.396 . S
C446 C447 1.394 . S
C447 C443 1.397 . S
C447 C446 1.394 . S
C447 C457 1.723 . S
C448 C445 1.453 . S
C448 H472 0.982 . S
C448 H473 0.979 . S
C448 H474 0.977 . S
C449 C445 1.684 . S
C449 H475 0.979 . S
C449 H476 0.980 . S
C449 H477 0.983 . S
C450 H426 0.948 . S
C450 C451 1.391 . S
C450 C455 1.391 . S
C451 C450 1.391 . S
C451 C452 1.391 . S
C452 H429 0.947 . S
C452 C451 1.391 . S
C452 C453 1.392 . S
C453 H430 0.948 . S
C453 C452 1.392 . S
C453 C454 1.419 . S
C454 C453 1.419 . S
C454 C455 1.391 . S
C454 C458 1.397 . S
C455 C450 1.391 . S
C455 C454 1.391 . S
C455 C456 1.399 . S
C456 C455 1.399 . S
C456 C457 1.396 . S
C456 C459 1.453 . S
C456 C460 1.684 . S
C457 C447 1.723 . S
C457 C456 1.396 . S
C457 C458 1.394 . S
C458 C428 1.723 . S
C458 C454 1.397 . S
C458 C457 1.394 . S
C459 H431 0.982 . S
C459 H435 0.979 . S
C459 H436 0.977 . S
C459 C456 1.453 . S
C460 H432 0.979 . S
C460 H433 0.980 . S
C460 H434 0.983 . S
C460 C456 1.684 . S
H461 C479 0.948 . S
H462 C420 0.948 . S
H463 C438 0.979 . S
H464 C438 0.980 . S
H465 C438 0.983 . S
H466 C437 0.982 . S
H467 C437 0.979 . S
H468 C437 0.977 . S
H469 C439 0.948 . S
H470 C441 0.947 . S
H471 C442 0.948 . S
H472 C448 0.982 . S
H473 C448 0.979 . S
H474 C448 0.977 . S
H475 C449 0.979 . S
H476 C449 0.980 . S
H477 C449 0.983 . S
H478 C422 0.947 . S
C479 C422 1.392 . S
C479 C423 1.419 . S
C479 H461 0.948 . S
C480 C482 1.422 . S
C480 C484 1.415 . S
C480 N486 1.369 . S
C481 C482 1.421 . S
C481 C483 1.417 . S
C481 C493 1.422 . S
C482 C480 1.422 . S
C482 C481 1.421 . S
C482 N492 1.359 . S
C483 C481 1.417 . S
C483 C485 1.329 . S
C483 H502 0.930 . S
C484 C480 1.415 . S
C484 C485 1.437 . S
C484 C488 1.413 . S
C485 C483 1.329 . S
C485 C484 1.437 . S
C485 H507 0.929 . S
N486 C480 1.369 . S
N486 C487 1.338 . S
N486 Gd491 2.622 . S
C487 N486 1.338 . S
C487 C489 1.378 . S
C487 H499 0.929 . S
C488 C484 1.413 . S
C488 C489 1.348 . S
C488 H504 0.931 . S
C489 C487 1.378 . S
C489 C488 1.348 . S
C489 H505 0.930 . S
Gd490 N510 2.622 . S
Gd490 N517 2.570 . S
Gd490 O524 2.353 . S
Gd490 O525 2.468 . S
Gd490 O526 2.427 . S
Gd490 O528 2.388 . S
Gd490 O529 2.386 . S
Gd490 O533 2.307 . S
Gd490 C543 2.805 . S
Gd491 N486 2.622 . S
Gd491 N492 2.570 . S
Gd491 O523 2.386 . S
Gd491 O527 2.307 1_655 S
Gd491 O530 2.353 1_655 S
Gd491 O531 2.468 . S
Gd491 O532 2.427 . S
Gd491 O534 2.388 . S
Gd491 C555 2.805 . S
N492 C482 1.359 . S
N492 Gd491 2.570 . S
N492 C494 1.343 . S
C493 C481 1.422 . S
C493 C495 1.321 . S
C493 H501 0.931 . S
C494 N492 1.343 . S
C494 C495 1.390 . S
C494 H496 0.931 . S
C495 C493 1.321 . S
C495 C494 1.390 . S
C495 H497 0.930 . S
H496 C494 0.931 . S
H497 C495 0.930 . S
H498 C521 0.931 . S
H499 C487 0.929 . S
H500 C522 0.930 . S
H501 C493 0.931 . S
H502 C483 0.930 . S
H503 C512 0.929 . S
H504 C488 0.931 . S
H505 C489 0.930 . S
H506 C544 0.930 . S
H507 C485 0.929 . S
H508 C513 0.931 . S
H509 C514 0.930 . S
N510 Gd490 2.622 . S
N510 C511 1.369 . S
N510 C512 1.338 . S
C511 N510 1.369 . S
C511 C515 1.415 . S
C511 C518 1.422 . S
C512 H503 0.929 . S
C512 N510 1.338 . S
C512 C514 1.378 . S
C513 H508 0.931 . S
C513 C514 1.348 . S
C513 C515 1.413 . S
C514 H509 0.930 . S
C514 C512 1.378 . S
C514 C513 1.348 . S
C515 C511 1.415 . S
C515 C513 1.413 . S
C515 C545 1.437 . S
H516 C545 0.929 . S
N517 Gd490 2.570 . S
N517 C518 1.359 . S
N517 C521 1.343 . S
C518 C511 1.422 . S
C518 N517 1.359 . S
C518 C520 1.421 . S
C519 C520 1.422 . S
C519 C522 1.321 . S
C519 H546 0.931 . S
C520 C518 1.421 . S
C520 C519 1.422 . S
C520 C544 1.417 . S
C521 H498 0.931 . S
C521 N517 1.343 . S
C521 C522 1.390 . S
C522 H500 0.930 . S
C522 C519 1.321 . S
C522 C521 1.390 . S
O523 Gd491 2.386 . S
O523 C535 1.265 . S
O524 Gd490 2.353 . S
O524 C535 1.242 1_455 S
O525 Gd490 2.468 . S
O525 C543 1.263 . S
O526 Gd490 2.427 . S
O526 C543 1.252 . S
O527 Gd491 2.307 1_455 S
O527 C536 1.261 . S
O528 Gd490 2.388 . S
O528 C536 1.252 . S
O529 Gd490 2.386 . S
O529 C547 1.265 . S
O530 Gd491 2.353 1_455 S
O530 C547 1.242 . S
O531 Gd491 2.468 . S
O531 C555 1.263 . S
O532 Gd491 2.427 . S
O532 C555 1.252 . S
O533 Gd490 2.307 . S
O533 C548 1.261 1_455 S
O534 Gd491 2.388 . S
O534 C548 1.252 . S
C535 O523 1.265 . S
C535 O524 1.242 1_655 S
C536 O527 1.261 . S
C536 O528 1.252 . S
C537 C540 1.394 . S
C537 C542 1.370 . S
C537 C543 1.500 . S
C538 C541 1.383 . S
C538 C542 1.395 . S
C539 C540 1.396 . S
C539 C541 1.365 . S
C539 H556 0.929 . S
C540 C537 1.394 . S
C540 C539 1.396 . S
C540 H557 0.930 . S
C541 C538 1.383 . S
C541 C539 1.365 . S
C541 H558 0.931 . S
C542 C537 1.370 . S
C542 C538 1.395 . S
C542 H559 0.930 . S
C543 Gd490 2.805 . S
C543 O525 1.263 . S
C543 O526 1.252 . S
C543 C537 1.500 . S
C544 H506 0.930 . S
C544 C520 1.417 . S
C544 C545 1.329 . S
C545 C515 1.437 . S
C545 H516 0.929 . S
C545 C544 1.329 . S
H546 C519 0.931 . S
C547 O529 1.265 . S
C547 O530 1.242 . S
C548 O533 1.261 1_655 S
C548 O534 1.252 . S
C549 C552 1.394 . S
C549 C554 1.370 . S
C549 C555 1.500 . S
C550 C553 1.383 . S
C550 C554 1.395 . S
C551 C552 1.396 . S
C551 C553 1.365 . S
C551 H560 0.929 . S
C552 C549 1.394 . S
C552 C551 1.396 . S
C552 H561 0.930 . S
C553 C550 1.383 . S
C553 C551 1.365 . S
C553 H562 0.931 . S
C554 C549 1.370 . S
C554 C550 1.395 . S
C554 H563 0.930 . S
C555 Gd491 2.805 . S
C555 O531 1.263 . S
C555 O532 1.252 . S
C555 C549 1.500 . S
H556 C539 0.929 . S
H557 C540 0.930 . S
H558 C541 0.931 . S
H559 C542 0.930 . S
H560 C551 0.929 . S
H561 C552 0.930 . S
H562 C553 0.931 . S
H563 C554 0.930 . S
C564 C566 1.422 . S
C564 C568 1.415 . S
C564 N570 1.369 . S
C565 C566 1.421 . S
C565 C567 1.417 . S
C565 C577 1.422 . S
C566 C564 1.422 . S
C566 C565 1.421 . S
C566 N576 1.359 . S
C567 C565 1.417 . S
C567 C569 1.329 . S
C567 H586 0.930 . S
C568 C564 1.415 . S
C568 C569 1.437 . S
C568 C572 1.413 . S
C569 C567 1.329 . S
C569 C568 1.437 . S
C569 H591 0.929 . S
N570 C564 1.369 . S
N570 C571 1.338 . S
N570 Gd575 2.622 . S
C571 N570 1.338 . S
C571 C573 1.378 . S
C571 H583 0.929 . S
C572 C568 1.413 . S
C572 C573 1.348 . S
C572 H588 0.931 . S
C573 C571 1.378 . S
C573 C572 1.348 . S
C573 H589 0.930 . S
Gd574 N594 2.622 . S
Gd574 N601 2.570 . S
Gd574 O608 2.353 . S
Gd574 O609 2.468 . S
Gd574 O610 2.427 . S
Gd574 O612 2.388 . S
Gd574 O613 2.386 . S
Gd574 O617 2.307 . S
Gd574 C627 2.805 . S
Gd575 N570 2.622 . S
Gd575 N576 2.570 . S
Gd575 O607 2.386 . S
Gd575 O611 2.307 . S
Gd575 O614 2.353 . S
Gd575 O615 2.468 . S
Gd575 O616 2.427 . S
Gd575 O618 2.388 . S
Gd575 C639 2.805 . S
N576 C566 1.359 . S
N576 Gd575 2.570 . S
N576 C578 1.343 . S
C577 C565 1.422 . S
C577 C579 1.321 . S
C577 H585 0.931 . S
C578 N576 1.343 . S
C578 C579 1.390 . S
C578 H580 0.931 . S
C579 C577 1.321 . S
C579 C578 1.390 . S
C579 H581 0.930 . S
H580 C578 0.931 . S
H581 C579 0.930 . S
H582 C605 0.931 . S
H583 C571 0.929 . S
H584 C606 0.930 . S
H585 C577 0.931 . S
H586 C567 0.930 . S
H587 C596 0.929 . S
H588 C572 0.931 . S
H589 C573 0.930 . S
H590 C628 0.930 . S
H591 C569 0.929 . S
H592 C597 0.931 . S
H593 C598 0.930 . S
N594 Gd574 2.622 . S
N594 C595 1.369 . S
N594 C596 1.338 . S
C595 N594 1.369 . S
C595 C599 1.415 . S
C595 C602 1.422 . S
C596 H587 0.929 . S
C596 N594 1.338 . S
C596 C598 1.378 . S
C597 H592 0.931 . S
C597 C598 1.348 . S
C597 C599 1.413 . S
C598 H593 0.930 . S
C598 C596 1.378 . S
C598 C597 1.348 . S
C599 C595 1.415 . S
C599 C597 1.413 . S
C599 C629 1.437 . S
H600 C629 0.929 . S
N601 Gd574 2.570 . S
N601 C602 1.359 . S
N601 C605 1.343 . S
C602 C595 1.422 . S
C602 N601 1.359 . S
C602 C604 1.421 . S
C603 C604 1.422 . S
C603 C606 1.321 . S
C603 H630 0.931 . S
C604 C602 1.421 . S
C604 C603 1.422 . S
C604 C628 1.417 . S
C605 H582 0.931 . S
C605 N601 1.343 . S
C605 C606 1.390 . S
C606 H584 0.930 . S
C606 C603 1.321 . S
C606 C605 1.390 . S
O607 Gd575 2.386 . S
O607 C619 1.265 . S
O608 Gd574 2.353 . S
O608 C619 1.242 . S
O609 Gd574 2.468 . S
O609 C627 1.263 . S
O610 Gd574 2.427 . S
O610 C627 1.252 . S
O611 Gd575 2.307 . S
O611 C620 1.261 . S
O612 Gd574 2.388 . S
O612 C620 1.252 . S
O613 Gd574 2.386 . S
O613 C631 1.265 . S
O614 Gd575 2.353 . S
O614 C631 1.242 . S
O615 Gd575 2.468 . S
O615 C639 1.263 . S
O616 Gd575 2.427 . S
O616 C639 1.252 . S
O617 Gd574 2.307 . S
O617 C632 1.261 . S
O618 Gd575 2.388 . S
O618 C632 1.252 . S
C619 O607 1.265 . S
C619 O608 1.242 . S
C620 O611 1.261 . S
C620 O612 1.252 . S
C621 C624 1.394 . S
C621 C626 1.370 . S
C621 C627 1.500 . S
C622 C625 1.383 . S
C622 C626 1.395 . S
C623 C624 1.396 . S
C623 C625 1.365 . S
C623 H640 0.929 . S
C624 C621 1.394 . S
C624 C623 1.396 . S
C624 H641 0.930 . S
C625 C622 1.383 . S
C625 C623 1.365 . S
C625 H642 0.931 . S
C626 C621 1.370 . S
C626 C622 1.395 . S
C626 H643 0.930 . S
C627 Gd574 2.805 . S
C627 O609 1.263 . S
C627 O610 1.252 . S
C627 C621 1.500 . S
C628 H590 0.930 . S
C628 C604 1.417 . S
C628 C629 1.329 . S
C629 C599 1.437 . S
C629 H600 0.929 . S
C629 C628 1.329 . S
H630 C603 0.931 . S
C631 O613 1.265 . S
C631 O614 1.242 . S
C632 O617 1.261 . S
C632 O618 1.252 . S
C633 C636 1.394 . S
C633 C638 1.370 . S
C633 C639 1.500 . S
C634 C637 1.383 . S
C634 C638 1.395 . S
C635 C636 1.396 . S
C635 C637 1.365 . S
C635 H644 0.929 . S
C636 C633 1.394 . S
C636 C635 1.396 . S
C636 H645 0.930 . S
C637 C634 1.383 . S
C637 C635 1.365 . S
C637 H646 0.931 . S
C638 C633 1.370 . S
C638 C634 1.395 . S
C638 H647 0.930 . S
C639 Gd575 2.805 . S
C639 O615 1.263 . S
C639 O616 1.252 . S
C639 C633 1.500 . S
H640 C623 0.929 . S
H641 C624 0.930 . S
H642 C625 0.931 . S
H643 C626 0.930 . S
H644 C635 0.929 . S
H645 C636 0.930 . S
H646 C637 0.931 . S
H647 C638 0.930 . S
C648 C650 1.422 . S
C648 C652 1.415 . S
C648 N654 1.369 . S
C649 C650 1.421 . S
C649 C651 1.417 . S
C649 C661 1.422 . S
C650 C648 1.422 . S
C650 C649 1.421 . S
C650 N660 1.359 . S
C651 C649 1.417 . S
C651 C653 1.329 . S
C651 H670 0.930 . S
C652 C648 1.415 . S
C652 C653 1.437 . S
C652 C656 1.413 . S
C653 C651 1.329 . S
C653 C652 1.437 . S
C653 H675 0.929 . S
N654 C648 1.369 . S
N654 C655 1.338 . S
N654 Gd659 2.622 . S
C655 N654 1.338 . S
C655 C657 1.378 . S
C655 H667 0.929 . S
C656 C652 1.413 . S
C656 C657 1.348 . S
C656 H672 0.931 . S
C657 C655 1.378 . S
C657 C656 1.348 . S
C657 H673 0.930 . S
Gd658 N678 2.622 . S
Gd658 N685 2.570 . S
Gd658 O692 2.353 . S
Gd658 O693 2.468 . S
Gd658 O694 2.427 . S
Gd658 O696 2.388 . S
Gd658 O697 2.386 . S
Gd658 O701 2.307 . S
Gd658 C711 2.805 . S
Gd659 N654 2.622 . S
Gd659 N660 2.570 . S
Gd659 O691 2.386 . S
Gd659 O695 2.307 1_655 S
Gd659 O698 2.353 1_655 S
Gd659 O699 2.468 . S
Gd659 O700 2.427 . S
Gd659 O702 2.388 . S
Gd659 C723 2.805 . S
N660 C650 1.359 . S
N660 Gd659 2.570 . S
N660 C662 1.343 . S
C661 C649 1.422 . S
C661 C663 1.321 . S
C661 H669 0.931 . S
C662 N660 1.343 . S
C662 C663 1.390 . S
C662 H664 0.931 . S
C663 C661 1.321 . S
C663 C662 1.390 . S
C663 H665 0.930 . S
H664 C662 0.931 . S
H665 C663 0.930 . S
H666 C689 0.931 . S
H667 C655 0.929 . S
H668 C690 0.930 . S
H669 C661 0.931 . S
H670 C651 0.930 . S
H671 C680 0.929 . S
H672 C656 0.931 . S
H673 C657 0.930 . S
H674 C712 0.930 . S
H675 C653 0.929 . S
H676 C681 0.931 . S
H677 C682 0.930 . S
N678 Gd658 2.622 . S
N678 C679 1.369 . S
N678 C680 1.338 . S
C679 N678 1.369 . S
C679 C683 1.415 . S
C679 C686 1.422 . S
C680 H671 0.929 . S
C680 N678 1.338 . S
C680 C682 1.378 . S
C681 H676 0.931 . S
C681 C682 1.348 . S
C681 C683 1.413 . S
C682 H677 0.930 . S
C682 C680 1.378 . S
C682 C681 1.348 . S
C683 C679 1.415 . S
C683 C681 1.413 . S
C683 C713 1.437 . S
H684 C713 0.929 . S
N685 Gd658 2.570 . S
N685 C686 1.359 . S
N685 C689 1.343 . S
C686 C679 1.422 . S
C686 N685 1.359 . S
C686 C688 1.421 . S
C687 C688 1.422 . S
C687 C690 1.321 . S
C687 H714 0.931 . S
C688 C686 1.421 . S
C688 C687 1.422 . S
C688 C712 1.417 . S
C689 H666 0.931 . S
C689 N685 1.343 . S
C689 C690 1.390 . S
C690 H668 0.930 . S
C690 C687 1.321 . S
C690 C689 1.390 . S
O691 Gd659 2.386 . S
O691 C703 1.265 . S
O692 Gd658 2.353 . S
O692 C703 1.242 1_455 S
O693 Gd658 2.468 . S
O693 C711 1.263 . S
O694 Gd658 2.427 . S
O694 C711 1.252 . S
O695 Gd659 2.307 1_455 S
O695 C704 1.261 . S
O696 Gd658 2.388 . S
O696 C704 1.252 . S
O697 Gd658 2.386 . S
O697 C715 1.265 . S
O698 Gd659 2.353 1_455 S
O698 C715 1.242 . S
O699 Gd659 2.468 . S
O699 C723 1.263 . S
O700 Gd659 2.427 . S
O700 C723 1.252 . S
O701 Gd658 2.307 . S
O701 C716 1.261 1_455 S
O702 Gd659 2.388 . S
O702 C716 1.252 . S
C703 O691 1.265 . S
C703 O692 1.242 1_655 S
C704 O695 1.261 . S
C704 O696 1.252 . S
C705 C708 1.394 . S
C705 C710 1.370 . S
C705 C711 1.500 . S
C706 C709 1.383 . S
C706 C710 1.395 . S
C707 C708 1.396 . S
C707 C709 1.365 . S
C707 H724 0.929 . S
C708 C705 1.394 . S
C708 C707 1.396 . S
C708 H725 0.930 . S
C709 C706 1.383 . S
C709 C707 1.365 . S
C709 H726 0.931 . S
C710 C705 1.370 . S
C710 C706 1.395 . S
C710 H727 0.930 . S
C711 Gd658 2.805 . S
C711 O693 1.263 . S
C711 O694 1.252 . S
C711 C705 1.500 . S
C712 H674 0.930 . S
C712 C688 1.417 . S
C712 C713 1.329 . S
C713 C683 1.437 . S
C713 H684 0.929 . S
C713 C712 1.329 . S
H714 C687 0.931 . S
C715 O697 1.265 . S
C715 O698 1.242 . S
C716 O701 1.261 1_655 S
C716 O702 1.252 . S
C717 C720 1.394 . S
C717 C722 1.370 . S
C717 C723 1.500 . S
C718 C721 1.383 . S
C718 C722 1.395 . S
C719 C720 1.396 . S
C719 C721 1.365 . S
C719 H728 0.929 . S
C720 C717 1.394 . S
C720 C719 1.396 . S
C720 H729 0.930 . S
C721 C718 1.383 . S
C721 C719 1.365 . S
C721 H730 0.931 . S
C722 C717 1.370 . S
C722 C718 1.395 . S
C722 H731 0.930 . S
C723 Gd659 2.805 . S
C723 O699 1.263 . S
C723 O700 1.252 . S
C723 C717 1.500 . S
H724 C707 0.929 . S
H725 C708 0.930 . S
H726 C709 0.931 . S
H727 C710 0.930 . S
H728 C719 0.929 . S
H729 C720 0.930 . S
H730 C721 0.931 . S
H731 C722 0.930 . S
C732 C734 1.422 . S
C732 C736 1.415 . S
C732 N738 1.369 . S
C733 C734 1.421 . S
C733 C735 1.417 . S
C733 C745 1.422 . S
C734 C732 1.422 . S
C734 C733 1.421 . S
C734 N744 1.359 . S
C735 C733 1.417 . S
C735 C737 1.329 . S
C735 H754 0.930 . S
C736 C732 1.415 . S
C736 C737 1.437 . S
C736 C740 1.413 . S
C737 C735 1.329 . S
C737 C736 1.437 . S
C737 H759 0.929 . S
N738 C732 1.369 . S
N738 C739 1.338 . S
N738 Gd743 2.622 . S
C739 N738 1.338 . S
C739 C741 1.378 . S
C739 H751 0.929 . S
C740 C736 1.413 . S
C740 C741 1.348 . S
C740 H756 0.931 . S
C741 C739 1.378 . S
C741 C740 1.348 . S
C741 H757 0.930 . S
Gd742 N762 2.622 . S
Gd742 N769 2.570 . S
Gd742 O776 2.353 . S
Gd742 O777 2.468 . S
Gd742 O778 2.427 . S
Gd742 O780 2.388 . S
Gd742 O781 2.386 . S
Gd742 O785 2.307 . S
Gd742 C795 2.805 . S
Gd743 N738 2.622 . S
Gd743 N744 2.570 . S
Gd743 O775 2.386 . S
Gd743 O779 2.307 . S
Gd743 O782 2.353 . S
Gd743 O783 2.468 . S
Gd743 O784 2.427 . S
Gd743 O786 2.388 . S
Gd743 C807 2.805 . S
N744 C734 1.359 . S
N744 Gd743 2.570 . S
N744 C746 1.343 . S
C745 C733 1.422 . S
C745 C747 1.321 . S
C745 H753 0.931 . S
C746 N744 1.343 . S
C746 C747 1.390 . S
C746 H748 0.931 . S
C747 C745 1.321 . S
C747 C746 1.390 . S
C747 H749 0.930 . S
H748 C746 0.931 . S
H749 C747 0.930 . S
H750 C773 0.931 . S
H751 C739 0.929 . S
H752 C774 0.930 . S
H753 C745 0.931 . S
H754 C735 0.930 . S
H755 C764 0.929 . S
H756 C740 0.931 . S
H757 C741 0.930 . S
H758 C796 0.930 . S
H759 C737 0.929 . S
H760 C765 0.931 . S
H761 C766 0.930 . S
N762 Gd742 2.622 . S
N762 C763 1.369 . S
N762 C764 1.338 . S
C763 N762 1.369 . S
C763 C767 1.415 . S
C763 C770 1.422 . S
C764 H755 0.929 . S
C764 N762 1.338 . S
C764 C766 1.378 . S
C765 H760 0.931 . S
C765 C766 1.348 . S
C765 C767 1.413 . S
C766 H761 0.930 . S
C766 C764 1.378 . S
C766 C765 1.348 . S
C767 C763 1.415 . S
C767 C765 1.413 . S
C767 C797 1.437 . S
H768 C797 0.929 . S
N769 Gd742 2.570 . S
N769 C770 1.359 . S
N769 C773 1.343 . S
C770 C763 1.422 . S
C770 N769 1.359 . S
C770 C772 1.421 . S
C771 C772 1.422 . S
C771 C774 1.321 . S
C771 H798 0.931 . S
C772 C770 1.421 . S
C772 C771 1.422 . S
C772 C796 1.417 . S
C773 H750 0.931 . S
C773 N769 1.343 . S
C773 C774 1.390 . S
C774 H752 0.930 . S
C774 C771 1.321 . S
C774 C773 1.390 . S
O775 Gd743 2.386 . S
O775 C787 1.265 . S
O776 Gd742 2.353 . S
O776 C787 1.242 . S
O777 Gd742 2.468 . S
O777 C795 1.263 . S
O778 Gd742 2.427 . S
O778 C795 1.252 . S
O779 Gd743 2.307 . S
O779 C788 1.261 . S
O780 Gd742 2.388 . S
O780 C788 1.252 . S
O781 Gd742 2.386 . S
O781 C799 1.265 . S
O782 Gd743 2.353 . S
O782 C799 1.242 . S
O783 Gd743 2.468 . S
O783 C807 1.263 . S
O784 Gd743 2.427 . S
O784 C807 1.252 . S
O785 Gd742 2.307 . S
O785 C800 1.261 . S
O786 Gd743 2.388 . S
O786 C800 1.252 . S
C787 O775 1.265 . S
C787 O776 1.242 . S
C788 O779 1.261 . S
C788 O780 1.252 . S
C789 C792 1.394 . S
C789 C794 1.370 . S
C789 C795 1.500 . S
C790 C793 1.383 . S
C790 C794 1.395 . S
C791 C792 1.396 . S
C791 C793 1.365 . S
C791 H808 0.929 . S
C792 C789 1.394 . S
C792 C791 1.396 . S
C792 H809 0.930 . S
C793 C790 1.383 . S
C793 C791 1.365 . S
C793 H810 0.931 . S
C794 C789 1.370 . S
C794 C790 1.395 . S
C794 H811 0.930 . S
C795 Gd742 2.805 . S
C795 O777 1.263 . S
C795 O778 1.252 . S
C795 C789 1.500 . S
C796 H758 0.930 . S
C796 C772 1.417 . S
C796 C797 1.329 . S
C797 C767 1.437 . S
C797 H768 0.929 . S
C797 C796 1.329 . S
H798 C771 0.931 . S
C799 O781 1.265 . S
C799 O782 1.242 . S
C800 O785 1.261 . S
C800 O786 1.252 . S
C801 C804 1.394 . S
C801 C806 1.370 . S
C801 C807 1.500 . S
C802 C805 1.383 . S
C802 C806 1.395 . S
C803 C804 1.396 . S
C803 C805 1.365 . S
C803 H812 0.929 . S
C804 C801 1.394 . S
C804 C803 1.396 . S
C804 H813 0.930 . S
C805 C802 1.383 . S
C805 C803 1.365 . S
C805 H814 0.931 . S
C806 C801 1.370 . S
C806 C802 1.395 . S
C806 H815 0.930 . S
C807 Gd743 2.805 . S
C807 O783 1.263 . S
C807 O784 1.252 . S
C807 C801 1.500 . S
H808 C791 0.929 . S
H809 C792 0.930 . S
H810 C793 0.931 . S
H811 C794 0.930 . S
H812 C803 0.929 . S
H813 C804 0.930 . S
H814 C805 0.931 . S
H815 C806 0.930 . S
H816 C824 0.929 . S
H817 C826 0.956 . S
H818 C828 0.930 . S
H819 C831 0.929 . S
H820 C834 0.930 . S
H821 C836 0.960 . S
H822 C836 0.960 . S
H823 C836 0.960 . S
C824 H816 0.929 . S
C824 C825 1.377 . S
C824 C826 1.359 1_565 S
C825 C824 1.377 . S
C825 C831 1.390 . S
C826 H817 0.956 . S
C826 C824 1.359 1_545 S
C826 C827 1.372 . S
C827 C826 1.372 . S
C827 C828 1.381 1_545 S
C827 C832 1.508 . S
C828 H818 0.930 . S
C828 C827 1.381 1_565 S
C828 C831 1.386 . S
H829 C845 0.930 . S
H830 C846 0.931 . S
C831 H819 0.929 . S
C831 C825 1.390 . S
C831 C828 1.386 . S
C832 C827 1.508 . S
C832 C834 1.395 . S
C832 C835 1.403 . S
H833 C839 0.930 . S
C834 H820 0.930 . S
C834 C832 1.395 . S
C834 C837 1.403 . S
C835 C832 1.403 . S
C835 C836 1.524 1_545 S
C835 C839 1.400 . S
C836 H821 0.960 . S
C836 H822 0.960 . S
C836 H823 0.960 . S
C836 C835 1.524 1_565 S
C837 C834 1.403 . S
C837 C838 1.392 . S
C837 C841 1.495 . S
C838 C837 1.392 . S
C838 C839 1.385 . S
C838 C840 1.478 . S
C839 H833 0.930 . S
C839 C835 1.400 . S
C839 C838 1.385 . S
C840 C838 1.478 . S
C840 C842 1.381 . S
C840 C846 1.383 . S
C841 C837 1.495 . S
C841 H847 0.959 . S
C841 H848 0.961 . S
C841 H849 0.960 . S
C842 C840 1.381 . S
C842 C843 1.394 . S
C842 H850 0.930 . S
C843 C842 1.394 . S
C843 C844 1.383 . S
C843 H851 0.929 . S
C844 C843 1.383 . S
C844 C845 1.377 . S
C845 H829 0.930 . S
C845 C844 1.377 . S
C845 C846 1.379 . S
C846 H830 0.931 . S
C846 C840 1.383 . S
C846 C845 1.379 . S
H847 C841 0.959 . S
H848 C841 0.961 . S
H849 C841 0.960 . S
H850 C842 0.930 . S
H851 C843 0.929 . S
H852 C860 0.929 . S
H853 C862 0.930 . S
H854 C864 0.930 . S
H855 C867 0.929 . S
H856 C870 0.930 . S
H857 C872 0.960 . S
H858 C872 0.960 . S
H859 C872 0.960 . S
C860 H852 0.929 . S
C860 C861 1.377 . S
C860 C862 1.384 . S
C861 C860 1.377 . S
C861 C867 1.390 . S
C862 H853 0.930 . S
C862 C860 1.384 . S
C862 C863 1.372 . S
C863 C862 1.372 . S
C863 C864 1.400 . S
C863 C868 1.490 . S
C864 H854 0.930 . S
C864 C863 1.400 . S
C864 C867 1.386 . S
H865 C881 0.930 . S
H866 C882 0.931 . S
C867 H855 0.929 . S
C867 C861 1.390 . S
C867 C864 1.386 . S
C868 C863 1.490 . S
C868 C870 1.395 . S
C868 C871 1.403 . S
H869 C875 0.930 . S
C870 H856 0.930 . S
C870 C868 1.395 . S
C870 C873 1.403 . S
C871 C868 1.403 . S
C871 C872 1.524 . S
C871 C875 1.400 . S
C872 H857 0.960 . S
C872 H858 0.960 . S
C872 H859 0.960 . S
C872 C871 1.524 . S
C873 C870 1.403 . S
C873 C874 1.392 . S
C873 C877 1.495 . S
C874 C873 1.392 . S
C874 C875 1.385 . S
C874 C876 1.478 . S
C875 H869 0.930 . S
C875 C871 1.400 . S
C875 C874 1.385 . S
C876 C874 1.478 . S
C876 C878 1.381 . S
C876 C882 1.383 . S
C877 C873 1.495 . S
C877 H883 0.959 . S
C877 H884 0.961 . S
C877 H885 0.960 . S
C878 C876 1.381 . S
C878 C879 1.394 . S
C878 H886 0.930 . S
C879 C878 1.394 . S
C879 C880 1.383 . S
C879 H887 0.929 . S
C880 C879 1.383 . S
C880 C881 1.377 . S
C881 H865 0.930 . S
C881 C880 1.377 . S
C881 C882 1.379 . S
C882 H866 0.931 . S
C882 C876 1.383 . S
C882 C881 1.379 . S
H883 C877 0.959 . S
H884 C877 0.961 . S
H885 C877 0.960 . S
H886 C878 0.930 . S
H887 C879 0.929 . S
H888 C896 0.929 . S
H889 C898 0.930 . S
H890 C900 0.930 . S
H891 C903 0.929 . S
H892 C906 0.930 . S
H893 C908 0.960 . S
H894 C908 0.960 . S
H895 C908 0.960 . S
C896 H888 0.929 . S
C896 C897 1.377 . S
C896 C898 1.384 . S
C897 C896 1.377 . S
C897 C903 1.390 . S
C898 H889 0.930 . S
C898 C896 1.384 . S
C898 C899 1.372 . S
C899 C898 1.372 . S
C899 C900 1.400 . S
C899 C904 1.490 . S
C900 H890 0.930 . S
C900 C899 1.400 . S
C900 C903 1.386 . S
H901 C917 0.930 . S
H902 C918 0.931 . S
C903 H891 0.929 . S
C903 C897 1.390 . S
C903 C900 1.386 . S
C904 C899 1.490 . S
C904 C906 1.395 . S
C904 C907 1.403 . S
H905 C911 0.930 . S
C906 H892 0.930 . S
C906 C904 1.395 . S
C906 C909 1.403 . S
C907 C904 1.403 . S
C907 C908 1.524 . S
C907 C911 1.400 . S
C908 H893 0.960 . S
C908 H894 0.960 . S
C908 H895 0.960 . S
C908 C907 1.524 . S
C909 C906 1.403 . S
C909 C910 1.392 . S
C909 C913 1.495 . S
C910 C909 1.392 . S
C910 C911 1.385 . S
C910 C912 1.478 . S
C911 H905 0.930 . S
C911 C907 1.400 . S
C911 C910 1.385 . S
C912 C910 1.478 . S
C912 C914 1.381 . S
C912 C918 1.383 . S
C913 C909 1.495 . S
C913 H919 0.959 . S
C913 H920 0.961 . S
C913 H921 0.960 . S
C914 C912 1.381 . S
C914 C915 1.394 . S
C914 H922 0.930 . S
C915 C914 1.394 . S
C915 C916 1.383 . S
C915 H923 0.929 . S
C916 C915 1.383 . S
C916 C917 1.377 . S
C917 H901 0.930 . S
C917 C916 1.377 . S
C917 C918 1.379 . S
C918 H902 0.931 . S
C918 C912 1.383 . S
C918 C917 1.379 . S
H919 C913 0.959 . S
H920 C913 0.961 . S
H921 C913 0.960 . S
H922 C914 0.930 . S
H923 C915 0.929 . S
H924 C932 0.929 . S
H925 C934 0.930 . S
H926 C936 0.930 . S
H927 C939 0.929 . S
H928 C942 0.930 . S
H929 C944 0.960 . S
H930 C944 0.960 . S
H931 C944 0.960 . S
C932 H924 0.929 . S
C932 C933 1.377 . S
C932 C934 1.384 . S
C933 C932 1.377 . S
C933 C939 1.390 . S
C934 H925 0.930 . S
C934 C932 1.384 . S
C934 C935 1.372 1_565 S
C935 C934 1.372 1_545 S
C935 C936 1.400 . S
C935 C940 1.490 . S
C936 H926 0.930 . S
C936 C935 1.400 . S
C936 C939 1.386 1_545 S
H937 C953 0.930 . S
H938 C954 0.931 . S
C939 H927 0.929 . S
C939 C933 1.390 . S
C939 C936 1.386 1_565 S
C940 C935 1.490 . S
C940 C942 1.395 . S
C940 C943 1.403 . S
H941 C947 0.930 . S
C942 H928 0.930 . S
C942 C940 1.395 . S
C942 C945 1.403 . S
C943 C940 1.403 . S
C943 C944 1.524 . S
C943 C947 1.400 . S
C944 H929 0.960 . S
C944 H930 0.960 . S
C944 H931 0.960 . S
C944 C943 1.524 . S
C945 C942 1.403 . S
C945 C946 1.392 . S
C945 C949 1.495 . S
C946 C945 1.392 . S
C946 C947 1.385 . S
C946 C948 1.478 . S
C947 H941 0.930 . S
C947 C943 1.400 . S
C947 C946 1.385 . S
C948 C946 1.478 . S
C948 C950 1.381 . S
C948 C954 1.383 . S
C949 C945 1.495 . S
C949 H955 0.959 . S
C949 H956 0.961 . S
C949 H957 0.960 . S
C950 C948 1.381 . S
C950 C951 1.394 . S
C950 H958 0.930 . S
C951 C950 1.394 . S
C951 C952 1.383 . S
C951 H959 0.929 . S
C952 C951 1.383 . S
C952 C953 1.377 . S
C953 H937 0.930 . S
C953 C952 1.377 . S
C953 C954 1.379 . S
C954 H938 0.931 . S
C954 C948 1.383 . S
C954 C953 1.379 . S
H955 C949 0.959 . S
H956 C949 0.961 . S
H957 C949 0.960 . S
H958 C950 0.930 . S
H959 C951 0.929 . S
H960 C968 0.929 . S
H961 C970 0.930 . S
H962 C972 0.930 . S
H963 C975 0.929 . S
H964 C978 0.930 . S
H965 C980 0.960 . S
H966 C980 0.960 . S
H967 C980 0.960 . S
C968 H960 0.929 . S
C968 C969 1.377 . S
C968 C970 1.384 . S
C969 C968 1.377 . S
C969 C975 1.390 . S
C970 H961 0.930 . S
C970 C968 1.384 . S
C970 C971 1.409 . S
C971 C970 1.409 . S
C971 C972 1.392 1_545 S
C971 C976 1.462 1_545 S
C972 H962 0.930 . S
C972 C971 1.392 1_565 S
C972 C975 1.386 1_565 S
H973 C989 0.930 . S
H974 C990 0.931 . S
C975 H963 0.929 . S
C975 C969 1.390 . S
C975 C972 1.386 1_545 S
C976 C971 1.462 1_565 S
C976 C978 1.395 . S
C976 C979 1.403 . S
H977 C983 0.930 . S
C978 H964 0.930 . S
C978 C976 1.395 . S
C978 C981 1.403 . S
C979 C976 1.403 . S
C979 C980 1.524 . S
C979 C983 1.400 . S
C980 H965 0.960 . S
C980 H966 0.960 . S
C980 H967 0.960 . S
C980 C979 1.524 . S
C981 C978 1.403 . S
C981 C982 1.392 . S
C981 C985 1.495 . S
C982 C981 1.392 . S
C982 C983 1.385 . S
C982 C984 1.478 . S
C983 H977 0.930 . S
C983 C979 1.400 . S
C983 C982 1.385 . S
C984 C982 1.478 . S
C984 C986 1.381 . S
C984 C990 1.383 . S
C985 C981 1.495 . S
C985 H991 0.959 . S
C985 H992 0.961 . S
C985 H993 0.960 . S
C986 C984 1.381 . S
C986 C987 1.394 . S
C986 H994 0.930 . S
C987 C986 1.394 . S
C987 C988 1.383 . S
C987 H995 0.929 . S
C988 C987 1.383 . S
C988 C989 1.377 . S
C989 H973 0.930 . S
C989 C988 1.377 . S
C989 C990 1.379 . S
C990 H974 0.931 . S
C990 C984 1.383 . S
C990 C989 1.379 . S
H991 C985 0.959 . S
H992 C985 0.961 . S
H993 C985 0.960 . S
H994 C986 0.930 . S
H995 C987 0.929 . S
H996 C1004 0.929 . S
H997 C1006 0.930 . S
H998 C1008 0.930 . S
H999 C1011 0.929 . S
H1000 C1014 0.930 . S
H1001 C1016 0.960 . S
H1002 C1016 0.960 . S
H1003 C1016 0.960 . S
C1004 H996 0.929 . S
C1004 C1005 1.377 . S
C1004 C1006 1.384 . S
C1005 C1004 1.377 . S
C1005 C1011 1.390 . S
C1006 H997 0.930 . S
C1006 C1004 1.384 . S
C1006 C1007 1.372 . S
C1007 C1006 1.372 . S
C1007 C1008 1.400 . S
C1007 C1012 1.490 . S
C1008 H998 0.930 . S
C1008 C1007 1.400 . S
C1008 C1011 1.386 . S
H1009 C1025 0.930 . S
H1010 C1026 0.931 . S
C1011 H999 0.929 . S
C1011 C1005 1.390 . S
C1011 C1008 1.386 . S
C1012 C1007 1.490 . S
C1012 C1014 1.395 . S
C1012 C1015 1.403 . S
H1013 C1019 0.930 . S
C1014 H1000 0.930 . S
C1014 C1012 1.395 . S
C1014 C1017 1.403 . S
C1015 C1012 1.403 . S
C1015 C1016 1.524 . S
C1015 C1019 1.400 . S
C1016 H1001 0.960 . S
C1016 H1002 0.960 . S
C1016 H1003 0.960 . S
C1016 C1015 1.524 . S
C1017 C1014 1.403 . S
C1017 C1018 1.392 . S
C1017 C1021 1.495 . S
C1018 C1017 1.392 . S
C1018 C1019 1.385 . S
C1018 C1020 1.478 . S
C1019 H1013 0.930 . S
C1019 C1015 1.400 . S
C1019 C1018 1.385 . S
C1020 C1018 1.478 . S
C1020 C1022 1.381 . S
C1020 C1026 1.383 . S
C1021 C1017 1.495 . S
C1021 H1027 0.959 . S
C1021 H1028 0.961 . S
C1021 H1029 0.960 . S
C1022 C1020 1.381 . S
C1022 C1023 1.394 . S
C1022 H1030 0.930 . S
C1023 C1022 1.394 . S
C1023 C1024 1.383 . S
C1023 H1031 0.929 . S
C1024 C1023 1.383 . S
C1024 C1025 1.377 . S
C1025 H1009 0.930 . S
C1025 C1024 1.377 . S
C1025 C1026 1.379 . S
C1026 H1010 0.931 . S
C1026 C1020 1.383 . S
C1026 C1025 1.379 . S
H1027 C1021 0.959 . S
H1028 C1021 0.961 . S
H1029 C1021 0.960 . S
H1030 C1022 0.930 . S
H1031 C1023 0.929 . S
H1032 C1040 0.929 . S
H1033 C1042 0.930 . S
H1034 C1044 0.930 . S
H1035 C1047 0.929 . S
H1036 C1050 0.930 . S
H1037 C1052 0.960 . S
H1038 C1052 0.960 . S
H1039 C1052 0.960 . S
C1040 H1032 0.929 . S
C1040 C1041 1.377 . S
C1040 C1042 1.384 . S
C1041 C1040 1.377 . S
C1041 C1047 1.390 . S
C1042 H1033 0.930 . S
C1042 C1040 1.384 . S
C1042 C1043 1.372 . S
C1043 C1042 1.372 . S
C1043 C1044 1.400 . S
C1043 C1048 1.490 . S
C1044 H1034 0.930 . S
C1044 C1043 1.400 . S
C1044 C1047 1.386 . S
H1045 C1061 0.930 . S
H1046 C1062 0.931 . S
C1047 H1035 0.929 . S
C1047 C1041 1.390 . S
C1047 C1044 1.386 . S
C1048 C1043 1.490 . S
C1048 C1050 1.395 . S
C1048 C1051 1.403 . S
H1049 C1055 0.930 . S
C1050 H1036 0.930 . S
C1050 C1048 1.395 . S
C1050 C1053 1.403 . S
C1051 C1048 1.403 . S
C1051 C1052 1.524 . S
C1051 C1055 1.400 . S
C1052 H1037 0.960 . S
C1052 H1038 0.960 . S
C1052 H1039 0.960 . S
C1052 C1051 1.524 . S
C1053 C1050 1.403 . S
C1053 C1054 1.392 . S
C1053 C1057 1.495 . S
C1054 C1053 1.392 . S
C1054 C1055 1.385 . S
C1054 C1056 1.478 . S
C1055 H1049 0.930 . S
C1055 C1051 1.400 . S
C1055 C1054 1.385 . S
C1056 C1054 1.478 . S
C1056 C1058 1.381 . S
C1056 C1062 1.383 . S
C1057 C1053 1.495 . S
C1057 H1063 0.959 . S
C1057 H1064 0.961 . S
C1057 H1065 0.960 . S
C1058 C1056 1.381 . S
C1058 C1059 1.394 . S
C1058 H1066 0.930 . S
C1059 C1058 1.394 . S
C1059 C1060 1.383 . S
C1059 H1067 0.929 . S
C1060 C1059 1.383 . S
C1060 C1061 1.377 . S
C1061 H1045 0.930 . S
C1061 C1060 1.377 . S
C1061 C1062 1.379 . S
C1062 H1046 0.931 . S
C1062 C1056 1.383 . S
C1062 C1061 1.379 . S
H1063 C1057 0.959 . S
H1064 C1057 0.961 . S
H1065 C1057 0.960 . S
H1066 C1058 0.930 . S
H1067 C1059 0.929 . S
H1068 C1076 0.929 . S
H1069 C1078 0.930 . S
H1070 C1080 0.930 . S
H1071 C1083 0.929 . S
H1072 C1086 0.930 . S
H1073 C1088 0.960 . S
H1074 C1088 0.960 . S
H1075 C1088 0.960 . S
C1076 H1068 0.929 . S
C1076 C1077 1.377 . S
C1076 C1078 1.384 1_545 S
C1077 C1076 1.377 . S
C1077 C1083 1.390 . S
C1078 H1069 0.930 . S
C1078 C1076 1.384 1_565 S
C1078 C1079 1.372 . S
C1079 C1078 1.372 . S
C1079 C1080 1.400 1_565 S
C1079 C1084 1.490 . S
C1080 H1070 0.930 . S
C1080 C1079 1.400 1_545 S
C1080 C1083 1.386 . S
H1081 C1097 0.930 . S
H1082 C1098 0.931 . S
C1083 H1071 0.929 . S
C1083 C1077 1.390 . S
C1083 C1080 1.386 . S
C1084 C1079 1.490 . S
C1084 C1086 1.395 . S
C1084 C1087 1.403 . S
H1085 C1091 0.930 . S
C1086 H1072 0.930 . S
C1086 C1084 1.395 . S
C1086 C1089 1.403 . S
C1087 C1084 1.403 . S
C1087 C1088 1.524 . S
C1087 C1091 1.400 . S
C1088 H1073 0.960 . S
C1088 H1074 0.960 . S
C1088 H1075 0.960 . S
C1088 C1087 1.524 . S
C1089 C1086 1.403 . S
C1089 C1090 1.392 . S
C1089 C1093 1.495 . S
C1090 C1089 1.392 . S
C1090 C1091 1.385 . S
C1090 C1092 1.478 . S
C1091 H1085 0.930 . S
C1091 C1087 1.400 . S
C1091 C1090 1.385 . S
C1092 C1090 1.478 . S
C1092 C1094 1.381 . S
C1092 C1098 1.383 . S
C1093 C1089 1.495 . S
C1093 H1099 0.959 . S
C1093 H1100 0.961 . S
C1093 H1101 0.960 . S
C1094 C1092 1.381 . S
C1094 C1095 1.394 . S
C1094 H1102 0.930 . S
C1095 C1094 1.394 . S
C1095 C1096 1.383 . S
C1095 H1103 0.929 . S
C1096 C1095 1.383 . S
C1096 C1097 1.377 . S
C1097 H1081 0.930 . S
C1097 C1096 1.377 . S
C1097 C1098 1.379 . S
C1098 H1082 0.931 . S
C1098 C1092 1.383 . S
C1098 C1097 1.379 . S
H1099 C1093 0.959 . S
H1100 C1093 0.961 . S
H1101 C1093 0.960 . S
H1102 C1094 0.930 . S
H1103 C1095 0.929 . S
H1104 C1112 0.946 . S
H1105 C1114 0.930 . S
H1106 C1116 0.930 . S
H1107 C1119 0.929 . S
H1108 C1122 0.930 . S
H1109 C1124 0.960 . S
H1110 C1124 0.960 . S
H1111 C1124 0.960 . S
C1112 H1104 0.946 . S
C1112 C1113 1.377 . S
C1112 C1114 1.384 . S
C1113 C1112 1.377 . S
C1113 C1119 1.390 . S
C1114 H1105 0.930 . S
C1114 C1112 1.384 . S
C1114 C1115 1.372 . S
C1115 C1114 1.372 . S
C1115 C1116 1.400 . S
C1115 C1120 1.490 . S
C1116 H1106 0.930 . S
C1116 C1115 1.400 . S
C1116 C1119 1.386 . S
H1117 C1133 0.930 . S
H1118 C1134 0.931 . S
C1119 H1107 0.929 . S
C1119 C1113 1.390 . S
C1119 C1116 1.386 . S
C1120 C1115 1.490 . S
C1120 C1122 1.395 . S
C1120 C1123 1.403 . S
H1121 C1127 0.930 . S
C1122 H1108 0.930 . S
C1122 C1120 1.395 . S
C1122 C1125 1.403 . S
C1123 C1120 1.403 . S
C1123 C1124 1.524 . S
C1123 C1127 1.400 . S
C1124 H1109 0.960 . S
C1124 H1110 0.960 . S
C1124 H1111 0.960 . S
C1124 C1123 1.524 . S
C1125 C1122 1.403 . S
C1125 C1126 1.392 . S
C1125 C1129 1.495 . S
C1126 C1125 1.392 . S
C1126 C1127 1.385 . S
C1126 C1128 1.478 . S
C1127 H1121 0.930 . S
C1127 C1123 1.400 . S
C1127 C1126 1.385 . S
C1128 C1126 1.478 . S
C1128 C1130 1.381 . S
C1128 C1134 1.383 . S
C1129 C1125 1.495 . S
C1129 H1135 0.959 . S
C1129 H1136 0.961 . S
C1129 H1137 0.960 . S
C1130 C1128 1.381 . S
C1130 C1131 1.394 . S
C1130 H1138 0.930 . S
C1131 C1130 1.394 . S
C1131 C1132 1.383 . S
C1131 H1139 0.929 . S
C1132 C1131 1.383 . S
C1132 C1133 1.377 . S
C1133 H1117 0.930 . S
C1133 C1132 1.377 . S
C1133 C1134 1.379 . S
C1134 H1118 0.931 . S
C1134 C1128 1.383 . S
C1134 C1133 1.379 . S
H1135 C1129 0.959 . S
H1136 C1129 0.961 . S
H1137 C1129 0.960 . S
H1138 C1130 0.930 . S
H1139 C1131 0.929 . S
H1140 C1148 0.929 . S
H1141 C1150 0.930 . S
H1142 C1152 0.930 . S
H1143 C1155 0.929 . S
H1144 C1158 0.930 . S
H1145 C1160 0.960 . S
H1146 C1160 0.960 . S
H1147 C1160 0.960 . S
C1148 H1140 0.929 . S
C1148 C1149 1.377 . S
C1148 C1150 1.384 . S
C1149 C1148 1.377 . S
C1149 C1155 1.390 . S
C1150 H1141 0.930 . S
C1150 C1148 1.384 . S
C1150 C1151 1.372 . S
C1151 C1150 1.372 . S
C1151 C1152 1.400 . S
C1151 C1156 1.490 . S
C1152 H1142 0.930 . S
C1152 C1151 1.400 . S
C1152 C1155 1.386 . S
H1153 C1169 0.930 . S
H1154 C1170 0.931 . S
C1155 H1143 0.929 . S
C1155 C1149 1.390 . S
C1155 C1152 1.386 . S
C1156 C1151 1.490 . S
C1156 C1158 1.395 . S
C1156 C1159 1.403 . S
H1157 C1163 0.930 . S
C1158 H1144 0.930 . S
C1158 C1156 1.395 . S
C1158 C1161 1.403 . S
C1159 C1156 1.403 . S
C1159 C1160 1.524 . S
C1159 C1163 1.400 . S
C1160 H1145 0.960 . S
C1160 H1146 0.960 . S
C1160 H1147 0.960 . S
C1160 C1159 1.524 . S
C1161 C1158 1.403 . S
C1161 C1162 1.392 . S
C1161 C1165 1.495 . S
C1162 C1161 1.392 . S
C1162 C1163 1.385 . S
C1162 C1164 1.478 . S
C1163 H1157 0.930 . S
C1163 C1159 1.400 . S
C1163 C1162 1.385 . S
C1164 C1162 1.478 . S
C1164 C1166 1.381 . S
C1164 C1170 1.383 . S
C1165 C1161 1.495 . S
C1165 H1171 0.959 . S
C1165 H1172 0.961 . S
C1165 H1173 0.960 . S
C1166 C1164 1.381 . S
C1166 C1167 1.394 . S
C1166 H1174 0.930 . S
C1167 C1166 1.394 . S
C1167 C1168 1.383 . S
C1167 H1175 0.929 . S
C1168 C1167 1.383 . S
C1168 C1169 1.377 . S
C1169 H1153 0.930 . S
C1169 C1168 1.377 . S
C1169 C1170 1.379 . S
C1170 H1154 0.931 . S
C1170 C1164 1.383 . S
C1170 C1169 1.379 . S
H1171 C1165 0.959 . S
H1172 C1165 0.961 . S
H1173 C1165 0.960 . S
H1174 C1166 0.930 . S
H1175 C1167 0.929 . S
H1176 C1184 0.929 1_554 S
H1177 C1186 0.930 . S
H1178 C1188 0.930 . S
H1179 C1191 0.929 . S
H1180 C1194 0.930 . S
H1181 C1196 0.960 . S
H1182 C1196 0.960 . S
H1183 C1196 0.960 . S
C1184 H1176 0.929 1_556 S
C1184 C1185 1.377 1_556 S
C1184 C1186 1.384 . S
C1185 C1184 1.377 1_554 S
C1185 C1191 1.390 1_554 S
C1186 H1177 0.930 . S
C1186 C1184 1.384 . S
C1186 C1187 1.372 . S
C1187 C1186 1.372 . S
C1187 C1188 1.400 . S
C1187 C1192 1.490 . S
C1188 H1178 0.930 . S
C1188 C1187 1.400 . S
C1188 C1191 1.386 . S
H1189 C1205 0.930 . S
H1190 C1206 0.931 . S
C1191 H1179 0.929 . S
C1191 C1185 1.390 1_556 S
C1191 C1188 1.386 . S
C1192 C1187 1.490 . S
C1192 C1194 1.395 . S
C1192 C1195 1.403 . S
H1193 C1199 0.930 . S
C1194 H1180 0.930 . S
C1194 C1192 1.395 . S
C1194 C1197 1.403 . S
C1195 C1192 1.403 . S
C1195 C1196 1.524 . S
C1195 C1199 1.400 . S
C1196 H1181 0.960 . S
C1196 H1182 0.960 . S
C1196 H1183 0.960 . S
C1196 C1195 1.524 . S
C1197 C1194 1.403 . S
C1197 C1198 1.392 . S
C1197 C1201 1.495 . S
C1198 C1197 1.392 . S
C1198 C1199 1.385 . S
C1198 C1200 1.478 . S
C1199 H1193 0.930 . S
C1199 C1195 1.400 . S
C1199 C1198 1.385 . S
C1200 C1198 1.478 . S
C1200 C1202 1.381 . S
C1200 C1206 1.383 . S
C1201 C1197 1.495 . S
C1201 H1207 0.959 . S
C1201 H1208 0.961 . S
C1201 H1209 0.960 . S
C1202 C1200 1.381 . S
C1202 C1203 1.394 . S
C1202 H1210 0.930 . S
C1203 C1202 1.394 . S
C1203 C1204 1.383 . S
C1203 H1211 0.929 . S
C1204 C1203 1.383 . S
C1204 C1205 1.377 . S
C1205 H1189 0.930 . S
C1205 C1204 1.377 . S
C1205 C1206 1.379 . S
C1206 H1190 0.931 . S
C1206 C1200 1.383 . S
C1206 C1205 1.379 . S
H1207 C1201 0.959 . S
H1208 C1201 0.961 . S
H1209 C1201 0.960 . S
H1210 C1202 0.930 . S
H1211 C1203 0.929 . S
H1212 C1220 0.929 . S
H1213 C1222 0.930 . S
H1214 C1224 0.930 . S
H1215 C1227 0.929 . S
H1216 C1230 0.930 . S
H1217 C1232 0.960 . S
H1218 C1232 0.960 . S
H1219 C1232 0.960 . S
C1220 H1212 0.929 . S
C1220 C1221 1.377 . S
C1220 C1222 1.384 . S
C1221 C1220 1.377 . S
C1221 C1227 1.390 . S
C1222 H1213 0.930 . S
C1222 C1220 1.384 . S
C1222 C1223 1.372 . S
C1223 C1222 1.372 . S
C1223 C1224 1.400 . S
C1223 C1228 1.490 . S
C1224 H1214 0.930 . S
C1224 C1223 1.400 . S
C1224 C1227 1.386 . S
H1225 C1241 0.930 . S
H1226 C1242 0.931 . S
C1227 H1215 0.929 . S
C1227 C1221 1.390 . S
C1227 C1224 1.386 . S
C1228 C1223 1.490 . S
C1228 C1230 1.395 . S
C1228 C1231 1.403 . S
H1229 C1235 0.930 . S
C1230 H1216 0.930 . S
C1230 C1228 1.395 . S
C1230 C1233 1.403 . S
C1231 C1228 1.403 . S
C1231 C1232 1.524 . S
C1231 C1235 1.400 . S
C1232 H1217 0.960 . S
C1232 H1218 0.960 . S
C1232 H1219 0.960 . S
C1232 C1231 1.524 . S
C1233 C1230 1.403 . S
C1233 C1234 1.392 . S
C1233 C1237 1.495 . S
C1234 C1233 1.392 . S
C1234 C1235 1.385 . S
C1234 C1236 1.478 . S
C1235 H1229 0.930 . S
C1235 C1231 1.400 . S
C1235 C1234 1.385 . S
C1236 C1234 1.478 . S
C1236 C1238 1.381 . S
C1236 C1242 1.383 . S
C1237 C1233 1.495 . S
C1237 H1243 0.959 . S
C1237 H1244 0.961 . S
C1237 H1245 0.960 . S
C1238 C1236 1.381 . S
C1238 C1239 1.394 . S
C1238 H1246 0.930 . S
C1239 C1238 1.394 . S
C1239 C1240 1.383 . S
C1239 H1247 0.929 . S
C1240 C1239 1.383 . S
C1240 C1241 1.377 . S
C1241 H1225 0.930 . S
C1241 C1240 1.377 . S
C1241 C1242 1.379 . S
C1242 H1226 0.931 . S
C1242 C1236 1.383 . S
C1242 C1241 1.379 . S
H1243 C1237 0.959 . S
H1244 C1237 0.961 . S
H1245 C1237 0.960 . S
H1246 C1238 0.930 . S
H1247 C1239 0.929 . S
H1248 C1256 0.929 . S
H1249 C1258 0.930 . S
H1250 C1260 0.930 . S
H1251 C1263 0.929 . S
H1252 C1266 0.930 . S
H1253 C1268 0.960 . S
H1254 C1268 0.960 . S
H1255 C1268 0.960 . S
C1256 H1248 0.929 . S
C1256 C1257 1.377 . S
C1256 C1258 1.384 . S
C1257 C1256 1.377 . S
C1257 C1263 1.390 . S
C1258 H1249 0.930 . S
C1258 C1256 1.384 . S
C1258 C1259 1.372 . S
C1259 C1258 1.372 . S
C1259 C1260 1.400 . S
C1259 C1264 1.490 . S
C1260 H1250 0.930 . S
C1260 C1259 1.400 . S
C1260 C1263 1.386 . S
H1261 C1277 0.930 . S
H1262 C1278 0.931 . S
C1263 H1251 0.929 . S
C1263 C1257 1.390 . S
C1263 C1260 1.386 . S
C1264 C1259 1.490 . S
C1264 C1266 1.395 . S
C1264 C1267 1.403 . S
H1265 C1271 0.930 . S
C1266 H1252 0.930 . S
C1266 C1264 1.395 . S
C1266 C1269 1.403 . S
C1267 C1264 1.403 . S
C1267 C1268 1.524 . S
C1267 C1271 1.400 . S
C1268 H1253 0.960 . S
C1268 H1254 0.960 . S
C1268 H1255 0.960 . S
C1268 C1267 1.524 . S
C1269 C1266 1.403 . S
C1269 C1270 1.392 . S
C1269 C1273 1.495 . S
C1270 C1269 1.392 . S
C1270 C1271 1.385 . S
C1270 C1272 1.478 . S
C1271 H1265 0.930 . S
C1271 C1267 1.400 . S
C1271 C1270 1.385 . S
C1272 C1270 1.478 . S
C1272 C1274 1.381 . S
C1272 C1278 1.383 . S
C1273 C1269 1.495 . S
C1273 H1279 0.959 . S
C1273 H1280 0.961 . S
C1273 H1281 0.960 . S
C1274 C1272 1.381 . S
C1274 C1275 1.394 . S
C1274 H1282 0.930 . S
C1275 C1274 1.394 . S
C1275 C1276 1.383 . S
C1275 H1283 0.929 . S
C1276 C1275 1.383 . S
C1276 C1277 1.377 . S
C1277 H1261 0.930 . S
C1277 C1276 1.377 . S
C1277 C1278 1.379 . S
C1278 H1262 0.931 . S
C1278 C1272 1.383 . S
C1278 C1277 1.379 . S
H1279 C1273 0.959 . S
H1280 C1273 0.961 . S
H1281 C1273 0.960 . S
H1282 C1274 0.930 . S
H1283 C1275 0.929 . S
H1284 C1292 0.929 . S
H1285 C1294 0.930 . S
H1286 C1296 0.930 . S
H1287 C1299 0.929 . S
H1288 C1302 0.930 . S
H1289 C1304 0.960 . S
H1290 C1304 0.960 . S
H1291 C1304 0.960 . S
C1292 H1284 0.929 . S
C1292 C1293 1.377 . S
C1292 C1294 1.384 . S
C1293 C1292 1.377 . S
C1293 C1299 1.390 . S
C1294 H1285 0.930 . S
C1294 C1292 1.384 . S
C1294 C1295 1.372 . S
C1295 C1294 1.372 . S
C1295 C1296 1.400 . S
C1295 C1300 1.490 . S
C1296 H1286 0.930 . S
C1296 C1295 1.400 . S
C1296 C1299 1.386 . S
H1297 C1313 0.930 . S
H1298 C1314 0.931 . S
C1299 H1287 0.929 . S
C1299 C1293 1.390 . S
C1299 C1296 1.386 . S
C1300 C1295 1.490 . S
C1300 C1302 1.395 . S
C1300 C1303 1.403 . S
H1301 C1307 0.930 . S
C1302 H1288 0.930 . S
C1302 C1300 1.395 . S
C1302 C1305 1.403 . S
C1303 C1300 1.403 . S
C1303 C1304 1.524 . S
C1303 C1307 1.400 . S
C1304 H1289 0.960 . S
C1304 H1290 0.960 . S
C1304 H1291 0.960 . S
C1304 C1303 1.524 . S
C1305 C1302 1.403 . S
C1305 C1306 1.392 . S
C1305 C1309 1.495 . S
C1306 C1305 1.392 . S
C1306 C1307 1.385 . S
C1306 C1308 1.478 . S
C1307 H1301 0.930 . S
C1307 C1303 1.400 . S
C1307 C1306 1.385 . S
C1308 C1306 1.478 . S
C1308 C1310 1.381 . S
C1308 C1314 1.383 . S
C1309 C1305 1.495 . S
C1309 H1315 0.959 . S
C1309 H1316 0.961 . S
C1309 H1317 0.960 . S
C1310 C1308 1.381 . S
C1310 C1311 1.394 . S
C1310 H1318 0.930 . S
C1311 C1310 1.394 . S
C1311 C1312 1.383 . S
C1311 H1319 0.929 . S
C1312 C1311 1.383 . S
C1312 C1313 1.377 . S
C1313 H1297 0.930 . S
C1313 C1312 1.377 . S
C1313 C1314 1.379 . S
C1314 H1298 0.931 . S
C1314 C1308 1.383 . S
C1314 C1313 1.379 . S
H1315 C1309 0.959 . S
H1316 C1309 0.961 . S
H1317 C1309 0.960 . S
H1318 C1310 0.930 . S
H1319 C1311 0.929 . S
H1320 C1328 0.928 1_556 S
H1321 C1330 0.930 . S
H1322 C1332 0.930 . S
H1323 C1335 0.929 . S
H1324 C1338 0.930 . S
H1325 C1340 0.960 . S
H1326 C1340 0.960 . S
H1327 C1340 0.960 . S
C1328 H1320 0.928 1_554 S
C1328 C1329 1.377 1_554 S
C1328 C1330 1.384 . S
C1329 C1328 1.377 1_556 S
C1329 C1335 1.390 1_556 S
C1330 H1321 0.930 . S
C1330 C1328 1.384 . S
C1330 C1331 1.372 . S
C1331 C1330 1.372 . S
C1331 C1332 1.400 . S
C1331 C1336 1.490 . S
C1332 H1322 0.930 . S
C1332 C1331 1.400 . S
C1332 C1335 1.386 . S
H1333 C1349 0.930 . S
H1334 C1350 0.931 . S
C1335 H1323 0.929 . S
C1335 C1329 1.390 1_554 S
C1335 C1332 1.386 . S
C1336 C1331 1.490 . S
C1336 C1338 1.395 . S
C1336 C1339 1.403 . S
H1337 C1343 0.930 . S
C1338 H1324 0.930 . S
C1338 C1336 1.395 . S
C1338 C1341 1.403 . S
C1339 C1336 1.403 . S
C1339 C1340 1.524 . S
C1339 C1343 1.400 . S
C1340 H1325 0.960 . S
C1340 H1326 0.960 . S
C1340 H1327 0.960 . S
C1340 C1339 1.524 . S
C1341 C1338 1.403 . S
C1341 C1342 1.392 . S
C1341 C1345 1.495 . S
C1342 C1341 1.392 . S
C1342 C1343 1.385 . S
C1342 C1344 1.478 . S
C1343 H1337 0.930 . S
C1343 C1339 1.400 . S
C1343 C1342 1.385 . S
C1344 C1342 1.478 . S
C1344 C1346 1.381 . S
C1344 C1350 1.383 . S
C1345 C1341 1.495 . S
C1345 H1351 0.959 . S
C1345 H1352 0.961 . S
C1345 H1353 0.960 . S
C1346 C1344 1.381 . S
C1346 C1347 1.394 . S
C1346 H1354 0.930 . S
C1347 C1346 1.394 . S
C1347 C1348 1.383 . S
C1347 H1355 0.929 . S
C1348 C1347 1.383 . S
C1348 C1349 1.377 . S
C1349 H1333 0.930 . S
C1349 C1348 1.377 . S
C1349 C1350 1.379 . S
C1350 H1334 0.931 . S
C1350 C1344 1.383 . S
C1350 C1349 1.379 . S
H1351 C1345 0.959 . S
H1352 C1345 0.961 . S
H1353 C1345 0.960 . S
H1354 C1346 0.930 . S
H1355 C1347 0.929 . S
H1356 C1364 0.929 . S
H1357 C1366 0.930 . S
H1358 C1368 0.930 . S
H1359 C1371 0.929 . S
H1360 C1374 0.930 . S
H1361 C1376 0.960 . S
H1362 C1376 0.960 . S
H1363 C1376 0.960 . S
C1364 H1356 0.929 . S
C1364 C1365 1.377 . S
C1364 C1366 1.384 . S
C1365 C1364 1.377 . S
C1365 C1371 1.390 . S
C1366 H1357 0.930 . S
C1366 C1364 1.384 . S
C1366 C1367 1.372 . S
C1367 C1366 1.372 . S
C1367 C1368 1.400 . S
C1367 C1372 1.490 . S
C1368 H1358 0.930 . S
C1368 C1367 1.400 . S
C1368 C1371 1.386 . S
H1369 C1385 0.930 . S
H1370 C1386 0.931 . S
C1371 H1359 0.929 . S
C1371 C1365 1.390 . S
C1371 C1368 1.386 . S
C1372 C1367 1.490 . S
C1372 C1374 1.395 . S
C1372 C1375 1.403 . S
H1373 C1379 0.930 . S
C1374 H1360 0.930 . S
C1374 C1372 1.395 . S
C1374 C1377 1.403 . S
C1375 C1372 1.403 . S
C1375 C1376 1.524 . S
C1375 C1379 1.400 . S
C1376 H1361 0.960 . S
C1376 H1362 0.960 . S
C1376 H1363 0.960 . S
C1376 C1375 1.524 . S
C1377 C1374 1.403 . S
C1377 C1378 1.392 . S
C1377 C1381 1.495 . S
C1378 C1377 1.392 . S
C1378 C1379 1.385 . S
C1378 C1380 1.478 . S
C1379 H1373 0.930 . S
C1379 C1375 1.400 . S
C1379 C1378 1.385 . S
C1380 C1378 1.478 . S
C1380 C1382 1.381 . S
C1380 C1386 1.383 . S
C1381 C1377 1.495 . S
C1381 H1387 0.959 . S
C1381 H1388 0.961 . S
C1381 H1389 0.960 . S
C1382 C1380 1.381 . S
C1382 C1383 1.394 . S
C1382 H1390 0.930 . S
C1383 C1382 1.394 . S
C1383 C1384 1.383 . S
C1383 H1391 0.929 . S
C1384 C1383 1.383 . S
C1384 C1385 1.377 . S
C1385 H1369 0.930 . S
C1385 C1384 1.377 . S
C1385 C1386 1.379 . S
C1386 H1370 0.931 . S
C1386 C1380 1.383 . S
C1386 C1385 1.379 . S
H1387 C1381 0.959 . S
H1388 C1381 0.961 . S
H1389 C1381 0.960 . S
H1390 C1382 0.930 . S
H1391 C1383 0.929 . S
H1392 C1400 0.929 . S
H1393 C1402 0.930 . S
H1394 C1404 0.930 . S
H1395 C1407 0.929 . S
H1396 C1410 0.930 . S
H1397 C1412 0.960 . S
H1398 C1412 0.960 . S
H1399 C1412 0.960 . S
C1400 H1392 0.929 . S
C1400 C1401 1.377 . S
C1400 C1402 1.384 . S
C1401 C1400 1.377 . S
C1401 C1407 1.390 . S
C1402 H1393 0.930 . S
C1402 C1400 1.384 . S
C1402 C1403 1.372 . S
C1403 C1402 1.372 . S
C1403 C1404 1.400 . S
C1403 C1408 1.490 . S
C1404 H1394 0.930 . S
C1404 C1403 1.400 . S
C1404 C1407 1.386 . S
H1405 C1421 0.930 . S
H1406 C1422 0.931 . S
C1407 H1395 0.929 . S
C1407 C1401 1.390 . S
C1407 C1404 1.386 . S
C1408 C1403 1.490 . S
C1408 C1410 1.395 . S
C1408 C1411 1.403 . S
H1409 C1415 0.930 . S
C1410 H1396 0.930 . S
C1410 C1408 1.395 . S
C1410 C1413 1.403 . S
C1411 C1408 1.403 . S
C1411 C1412 1.524 . S
C1411 C1415 1.400 . S
C1412 H1397 0.960 . S
C1412 H1398 0.960 . S
C1412 H1399 0.960 . S
C1412 C1411 1.524 . S
C1413 C1410 1.403 . S
C1413 C1414 1.392 . S
C1413 C1417 1.495 . S
C1414 C1413 1.392 . S
C1414 C1415 1.385 . S
C1414 C1416 1.478 . S
C1415 H1409 0.930 . S
C1415 C1411 1.400 . S
C1415 C1414 1.385 . S
C1416 C1414 1.478 . S
C1416 C1418 1.381 . S
C1416 C1422 1.383 . S
C1417 C1413 1.495 . S
C1417 H1423 0.959 . S
C1417 H1424 0.961 . S
C1417 H1425 0.960 . S
C1418 C1416 1.381 . S
C1418 C1419 1.394 . S
C1418 H1426 0.930 . S
C1419 C1418 1.394 . S
C1419 C1420 1.383 . S
C1419 H1427 0.929 . S
C1420 C1419 1.383 . S
C1420 C1421 1.377 . S
C1421 H1405 0.930 . S
C1421 C1420 1.377 . S
C1421 C1422 1.379 . S
C1422 H1406 0.931 . S
C1422 C1416 1.383 . S
C1422 C1421 1.379 . S
H1423 C1417 0.959 . S
H1424 C1417 0.961 . S
H1425 C1417 0.960 . S
H1426 C1418 0.930 . S
H1427 C1419 0.929 . S
H1428 C1436 0.929 . S
H1429 C1438 0.930 . S
H1430 C1440 0.930 . S
H1431 C1443 0.929 . S
H1432 C1446 0.930 . S
H1433 C1448 0.960 . S
H1434 C1448 0.960 . S
H1435 C1448 0.960 . S
C1436 H1428 0.929 . S
C1436 C1437 1.377 . S
C1436 C1438 1.384 . S
C1437 C1436 1.377 . S
C1437 C1443 1.390 . S
C1438 H1429 0.930 . S
C1438 C1436 1.384 . S
C1438 C1439 1.372 . S
C1439 C1438 1.372 . S
C1439 C1440 1.400 . S
C1439 C1444 1.490 . S
C1440 H1430 0.930 . S
C1440 C1439 1.400 . S
C1440 C1443 1.386 . S
H1441 C1457 0.930 . S
H1442 C1458 0.931 . S
C1443 H1431 0.929 . S
C1443 C1437 1.390 . S
C1443 C1440 1.386 . S
C1444 C1439 1.490 . S
C1444 C1446 1.395 . S
C1444 C1447 1.403 . S
H1445 C1451 0.930 . S
C1446 H1432 0.930 . S
C1446 C1444 1.395 . S
C1446 C1449 1.403 . S
C1447 C1444 1.403 . S
C1447 C1448 1.524 . S
C1447 C1451 1.400 . S
C1448 H1433 0.960 . S
C1448 H1434 0.960 . S
C1448 H1435 0.960 . S
C1448 C1447 1.524 . S
C1449 C1446 1.403 . S
C1449 C1450 1.392 . S
C1449 C1453 1.495 . S
C1450 C1449 1.392 . S
C1450 C1451 1.385 . S
C1450 C1452 1.478 . S
C1451 H1445 0.930 . S
C1451 C1447 1.400 . S
C1451 C1450 1.385 . S
C1452 C1450 1.478 . S
C1452 C1454 1.381 . S
C1452 C1458 1.383 . S
C1453 C1449 1.495 . S
C1453 H1459 0.959 . S
C1453 H1460 0.961 . S
C1453 H1461 0.960 . S
C1454 C1452 1.381 . S
C1454 C1455 1.394 . S
C1454 H1462 0.930 . S
C1455 C1454 1.394 . S
C1455 C1456 1.383 . S
C1455 H1463 0.929 . S
C1456 C1455 1.383 . S
C1456 C1457 1.377 . S
C1457 H1441 0.930 . S
C1457 C1456 1.377 . S
C1457 C1458 1.379 . S
C1458 H1442 0.931 . S
C1458 C1452 1.383 . S
C1458 C1457 1.379 . S
H1459 C1453 0.959 . S
H1460 C1453 0.961 . S
H1461 C1453 0.960 . S
H1462 C1454 0.930 . S
H1463 C1455 0.929 . S
H1464 C1472 0.929 . S
H1465 C1474 0.930 . S
H1466 C1476 0.930 . S
H1467 C1479 0.929 . S
H1468 C1482 0.930 . S
H1469 C1484 0.960 . S
H1470 C1484 0.960 . S
H1471 C1484 0.960 . S
C1472 H1464 0.929 . S
C1472 C1473 1.377 . S
C1472 C1474 1.384 . S
C1473 C1472 1.377 . S
C1473 C1479 1.390 . S
C1474 H1465 0.930 . S
C1474 C1472 1.384 . S
C1474 C1475 1.372 . S
C1475 C1474 1.372 . S
C1475 C1476 1.400 . S
C1475 C1480 1.490 . S
C1476 H1466 0.930 . S
C1476 C1475 1.400 . S
C1476 C1479 1.386 . S
H1477 C1493 0.930 . S
H1478 C1494 0.931 . S
C1479 H1467 0.929 . S
C1479 C1473 1.390 . S
C1479 C1476 1.386 . S
C1480 C1475 1.490 . S
C1480 C1482 1.395 . S
C1480 C1483 1.403 . S
H1481 C1487 0.930 . S
C1482 H1468 0.930 . S
C1482 C1480 1.395 . S
C1482 C1485 1.403 . S
C1483 C1480 1.403 . S
C1483 C1484 1.524 . S
C1483 C1487 1.400 . S
C1484 H1469 0.960 . S
C1484 H1470 0.960 . S
C1484 H1471 0.960 . S
C1484 C1483 1.524 . S
C1485 C1482 1.403 . S
C1485 C1486 1.392 . S
C1485 C1489 1.495 . S
C1486 C1485 1.392 . S
C1486 C1487 1.385 . S
C1486 C1488 1.478 . S
C1487 H1481 0.930 . S
C1487 C1483 1.400 . S
C1487 C1486 1.385 . S
C1488 C1486 1.478 . S
C1488 C1490 1.381 . S
C1488 C1494 1.383 . S
C1489 C1485 1.495 . S
C1489 H1495 0.959 . S
C1489 H1496 0.961 . S
C1489 H1497 0.960 . S
C1490 C1488 1.381 . S
C1490 C1491 1.394 . S
C1490 H1498 0.930 . S
C1491 C1490 1.394 . S
C1491 C1492 1.383 . S
C1491 H1499 0.929 . S
C1492 C1491 1.383 . S
C1492 C1493 1.377 . S
C1493 H1477 0.930 . S
C1493 C1492 1.377 . S
C1493 C1494 1.379 . S
C1494 H1478 0.931 . S
C1494 C1488 1.383 . S
C1494 C1493 1.379 . S
H1495 C1489 0.959 . S
H1496 C1489 0.961 . S
H1497 C1489 0.960 . S
H1498 C1490 0.930 . S
H1499 C1491 0.929 . S
H1500 C1508 0.929 . S
H1501 C1510 0.930 . S
H1502 C1512 0.930 . S
H1503 C1515 0.929 . S
H1504 C1518 0.930 . S
H1505 C1520 0.960 . S
H1506 C1520 0.960 . S
H1507 C1520 0.960 . S
C1508 H1500 0.929 . S
C1508 C1509 1.377 . S
C1508 C1510 1.384 . S
C1509 C1508 1.377 . S
C1509 C1515 1.390 . S
C1510 H1501 0.930 . S
C1510 C1508 1.384 . S
C1510 C1511 1.372 . S
C1511 C1510 1.372 . S
C1511 C1512 1.400 . S
C1511 C1516 1.490 . S
C1512 H1502 0.930 . S
C1512 C1511 1.400 . S
C1512 C1515 1.386 . S
H1513 C1529 0.930 . S
H1514 C1530 0.931 . S
C1515 H1503 0.929 . S
C1515 C1509 1.390 . S
C1515 C1512 1.386 . S
C1516 C1511 1.490 . S
C1516 C1518 1.395 . S
C1516 C1519 1.403 . S
H1517 C1523 0.930 . S
C1518 H1504 0.930 . S
C1518 C1516 1.395 . S
C1518 C1521 1.403 . S
C1519 C1516 1.403 . S
C1519 C1520 1.524 . S
C1519 C1523 1.400 . S
C1520 H1505 0.960 . S
C1520 H1506 0.960 . S
C1520 H1507 0.960 . S
C1520 C1519 1.524 . S
C1521 C1518 1.403 . S
C1521 C1522 1.392 . S
C1521 C1525 1.495 . S
C1522 C1521 1.392 . S
C1522 C1523 1.385 . S
C1522 C1524 1.478 . S
C1523 H1517 0.930 . S
C1523 C1519 1.400 . S
C1523 C1522 1.385 . S
C1524 C1522 1.478 . S
C1524 C1526 1.381 . S
C1524 C1530 1.383 . S
C1525 C1521 1.495 . S
C1525 H1531 0.959 . S
C1525 H1532 0.961 . S
C1525 H1533 0.960 . S
C1526 C1524 1.381 . S
C1526 C1527 1.394 . S
C1526 H1534 0.930 . S
C1527 C1526 1.394 . S
C1527 C1528 1.383 . S
C1527 H1535 0.929 . S
C1528 C1527 1.383 . S
C1528 C1529 1.377 . S
C1529 H1513 0.930 . S
C1529 C1528 1.377 . S
C1529 C1530 1.379 . S
C1530 H1514 0.931 . S
C1530 C1524 1.383 . S
C1530 C1529 1.379 . S
H1531 C1525 0.959 . S
H1532 C1525 0.961 . S
H1533 C1525 0.960 . S
H1534 C1526 0.930 . S
H1535 C1527 0.929 . S
H1536 C1544 0.929 . S
H1537 C1546 0.930 . S
H1538 C1548 0.930 . S
H1539 C1551 0.929 . S
H1540 C1554 0.930 . S
H1541 C1556 0.960 . S
H1542 C1556 0.960 . S
H1543 C1556 0.960 . S
C1544 H1536 0.929 . S
C1544 C1545 1.377 . S
C1544 C1546 1.384 . S
C1545 C1544 1.377 . S
C1545 C1551 1.390 . S
C1546 H1537 0.930 . S
C1546 C1544 1.384 . S
C1546 C1547 1.372 . S
C1547 C1546 1.372 . S
C1547 C1548 1.400 . S
C1547 C1552 1.490 . S
C1548 H1538 0.930 . S
C1548 C1547 1.400 . S
C1548 C1551 1.386 . S
H1549 C1565 0.930 . S
H1550 C1566 0.931 . S
C1551 H1539 0.929 . S
C1551 C1545 1.390 . S
C1551 C1548 1.386 . S
C1552 C1547 1.490 . S
C1552 C1554 1.395 . S
C1552 C1555 1.403 . S
H1553 C1559 0.930 . S
C1554 H1540 0.930 . S
C1554 C1552 1.395 . S
C1554 C1557 1.403 . S
C1555 C1552 1.403 . S
C1555 C1556 1.524 . S
C1555 C1559 1.400 . S
C1556 H1541 0.960 . S
C1556 H1542 0.960 . S
C1556 H1543 0.960 . S
C1556 C1555 1.524 . S
C1557 C1554 1.403 . S
C1557 C1558 1.392 . S
C1557 C1561 1.495 . S
C1558 C1557 1.392 . S
C1558 C1559 1.385 . S
C1558 C1560 1.478 . S
C1559 H1553 0.930 . S
C1559 C1555 1.400 . S
C1559 C1558 1.385 . S
C1560 C1558 1.478 . S
C1560 C1562 1.381 . S
C1560 C1566 1.383 . S
C1561 C1557 1.495 . S
C1561 H1567 0.959 . S
C1561 H1568 0.961 . S
C1561 H1569 0.960 . S
C1562 C1560 1.381 . S
C1562 C1563 1.394 . S
C1562 H1570 0.930 . S
C1563 C1562 1.394 . S
C1563 C1564 1.383 . S
C1563 H1571 0.929 . S
C1564 C1563 1.383 . S
C1564 C1565 1.377 . S
C1565 H1549 0.930 . S
C1565 C1564 1.377 . S
C1565 C1566 1.379 . S
C1566 H1550 0.931 . S
C1566 C1560 1.383 . S
C1566 C1565 1.379 . S
H1567 C1561 0.959 . S
H1568 C1561 0.961 . S
H1569 C1561 0.960 . S
H1570 C1562 0.930 . S
H1571 C1563 0.929 . S
H1572 C1580 0.929 . S
H1573 C1582 0.930 . S
H1574 C1584 0.930 . S
H1575 C1587 0.929 . S
H1576 C1590 0.930 . S
H1577 C1592 0.960 . S
H1578 C1592 0.960 . S
H1579 C1592 0.960 . S
C1580 H1572 0.929 . S
C1580 C1581 1.377 . S
C1580 C1582 1.384 . S
C1581 C1580 1.377 . S
C1581 C1587 1.390 . S
C1582 H1573 0.930 . S
C1582 C1580 1.384 . S
C1582 C1583 1.372 . S
C1583 C1582 1.372 . S
C1583 C1584 1.400 . S
C1583 C1588 1.490 . S
C1584 H1574 0.930 . S
C1584 C1583 1.400 . S
C1584 C1587 1.386 . S
H1585 C1601 0.930 . S
H1586 C1602 0.931 . S
C1587 H1575 0.929 . S
C1587 C1581 1.390 . S
C1587 C1584 1.386 . S
C1588 C1583 1.490 . S
C1588 C1590 1.395 . S
C1588 C1591 1.403 . S
H1589 C1595 0.930 . S
C1590 H1576 0.930 . S
C1590 C1588 1.395 . S
C1590 C1593 1.403 . S
C1591 C1588 1.403 . S
C1591 C1592 1.524 . S
C1591 C1595 1.400 . S
C1592 H1577 0.960 . S
C1592 H1578 0.960 . S
C1592 H1579 0.960 . S
C1592 C1591 1.524 . S
C1593 C1590 1.403 . S
C1593 C1594 1.392 . S
C1593 C1597 1.495 . S
C1594 C1593 1.392 . S
C1594 C1595 1.385 . S
C1594 C1596 1.478 . S
C1595 H1589 0.930 . S
C1595 C1591 1.400 . S
C1595 C1594 1.385 . S
C1596 C1594 1.478 . S
C1596 C1598 1.381 . S
C1596 C1602 1.383 . S
C1597 C1593 1.495 . S
C1597 H1603 0.959 . S
C1597 H1604 0.961 . S
C1597 H1605 0.960 . S
C1598 C1596 1.381 . S
C1598 C1599 1.394 . S
C1598 H1606 0.930 . S
C1599 C1598 1.394 . S
C1599 C1600 1.383 . S
C1599 H1607 0.929 . S
C1600 C1599 1.383 . S
C1600 C1601 1.377 . S
C1601 H1585 0.930 . S
C1601 C1600 1.377 . S
C1601 C1602 1.379 . S
C1602 H1586 0.931 . S
C1602 C1596 1.383 . S
C1602 C1601 1.379 . S
H1603 C1597 0.959 . S
H1604 C1597 0.961 . S
H1605 C1597 0.960 . S
H1606 C1598 0.930 . S
H1607 C1599 0.929 . S
H1608 C1616 0.929 . S
H1609 C1618 0.930 . S
H1610 C1620 0.930 . S
H1611 C1623 0.929 . S
H1612 C1626 0.930 . S
H1613 C1628 0.960 . S
H1614 C1628 0.960 . S
H1615 C1628 0.960 . S
C1616 H1608 0.929 . S
C1616 C1617 1.377 . S
C1616 C1618 1.384 . S
C1617 C1616 1.377 . S
C1617 C1623 1.390 . S
C1618 H1609 0.930 . S
C1618 C1616 1.384 . S
C1618 C1619 1.372 . S
C1619 C1618 1.372 . S
C1619 C1620 1.400 . S
C1619 C1624 1.490 . S
C1620 H1610 0.930 . S
C1620 C1619 1.400 . S
C1620 C1623 1.386 . S
H1621 C1637 0.930 . S
H1622 C1638 0.931 . S
C1623 H1611 0.929 . S
C1623 C1617 1.390 . S
C1623 C1620 1.386 . S
C1624 C1619 1.490 . S
C1624 C1626 1.395 . S
C1624 C1627 1.403 . S
H1625 C1631 0.930 . S
C1626 H1612 0.930 . S
C1626 C1624 1.395 . S
C1626 C1629 1.403 . S
C1627 C1624 1.403 . S
C1627 C1628 1.524 . S
C1627 C1631 1.400 . S
C1628 H1613 0.960 . S
C1628 H1614 0.960 . S
C1628 H1615 0.960 . S
C1628 C1627 1.524 . S
C1629 C1626 1.403 . S
C1629 C1630 1.392 . S
C1629 C1633 1.495 . S
C1630 C1629 1.392 . S
C1630 C1631 1.385 . S
C1630 C1632 1.478 . S
C1631 H1625 0.930 . S
C1631 C1627 1.400 . S
C1631 C1630 1.385 . S
C1632 C1630 1.478 . S
C1632 C1634 1.381 . S
C1632 C1638 1.383 . S
C1633 C1629 1.495 . S
C1633 H1639 0.959 . S
C1633 H1640 0.961 . S
C1633 H1641 0.960 . S
C1634 C1632 1.381 . S
C1634 C1635 1.394 . S
C1634 H1642 0.930 . S
C1635 C1634 1.394 . S
C1635 C1636 1.383 . S
C1635 H1643 0.929 . S
C1636 C1635 1.383 . S
C1636 C1637 1.377 . S
C1637 H1621 0.930 . S
C1637 C1636 1.377 . S
C1637 C1638 1.379 . S
C1638 H1622 0.931 . S
C1638 C1632 1.383 . S
C1638 C1637 1.379 . S
H1639 C1633 0.959 . S
H1640 C1633 0.961 . S
H1641 C1633 0.960 . S
H1642 C1634 0.930 . S
H1643 C1635 0.929 . S
H1644 C1652 0.929 . S
H1645 C1654 0.930 . S
H1646 C1656 0.930 . S
H1647 C1659 0.929 . S
H1648 C1662 0.930 . S
H1649 C1664 0.960 . S
H1650 C1664 0.960 . S
H1651 C1664 0.960 . S
C1652 H1644 0.929 . S
C1652 C1653 1.377 . S
C1652 C1654 1.384 . S
C1653 C1652 1.377 . S
C1653 C1659 1.390 . S
C1654 H1645 0.930 . S
C1654 C1652 1.384 . S
C1654 C1655 1.372 . S
C1655 C1654 1.372 . S
C1655 C1656 1.400 . S
C1655 C1660 1.490 . S
C1656 H1646 0.930 . S
C1656 C1655 1.400 . S
C1656 C1659 1.386 . S
H1657 C1673 0.930 . S
H1658 C1674 0.931 . S
C1659 H1647 0.929 . S
C1659 C1653 1.390 . S
C1659 C1656 1.386 . S
C1660 C1655 1.490 . S
C1660 C1662 1.395 . S
C1660 C1663 1.403 . S
H1661 C1667 0.930 . S
C1662 H1648 0.930 . S
C1662 C1660 1.395 . S
C1662 C1665 1.403 . S
C1663 C1660 1.403 . S
C1663 C1664 1.524 . S
C1663 C1667 1.400 . S
C1664 H1649 0.960 . S
C1664 H1650 0.960 . S
C1664 H1651 0.960 . S
C1664 C1663 1.524 . S
C1665 C1662 1.403 . S
C1665 C1666 1.392 . S
C1665 C1669 1.495 . S
C1666 C1665 1.392 . S
C1666 C1667 1.385 . S
C1666 C1668 1.478 . S
C1667 H1661 0.930 . S
C1667 C1663 1.400 . S
C1667 C1666 1.385 . S
C1668 C1666 1.478 . S
C1668 C1670 1.381 . S
C1668 C1674 1.383 . S
C1669 C1665 1.495 . S
C1669 H1675 0.959 . S
C1669 H1676 0.961 . S
C1669 H1677 0.960 . S
C1670 C1668 1.381 . S
C1670 C1671 1.394 . S
C1670 H1678 0.930 . S
C1671 C1670 1.394 . S
C1671 C1672 1.383 . S
C1671 H1679 0.929 . S
C1672 C1671 1.383 . S
C1672 C1673 1.377 . S
C1673 H1657 0.930 . S
C1673 C1672 1.377 . S
C1673 C1674 1.379 . S
C1674 H1658 0.931 . S
C1674 C1668 1.383 . S
C1674 C1673 1.379 . S
H1675 C1669 0.959 . S
H1676 C1669 0.961 . S
H1677 C1669 0.960 . S
H1678 C1670 0.930 . S
H1679 C1671 0.929 . S
C825 C361 1.433 . S
C844 C536 1.454 . S
C880 C620 1.444 . S
C861 C451 1.449 . S
C916 C619 1.452 . S
C897 C241 1.428 . S
C933 C331 1.429 . S
C952 C535 1.449 . S
C988 C716 1.433 . S
C969 C140 1.426 . S
C1024 C800 1.454 . S
C1005 C211 1.425 . S
C1041 C20 1.418 . S
C1060 C799 1.448 . S
C1077 C91 1.418 . S
C1096 C715 1.449 . S
C1132 C538 1.379 . S
C1113 C80 1.480 1_554 S
C1168 C622 1.300 . S
C1149 C1 1.471 . S
C1204 C634 1.446 . S
C1185 C200 1.506 . S
C1240 C550 1.407 . S
C1221 C121 1.509 . S
C1276 C718 1.376 . S
C1257 C320 1.493 1_556 S
C1293 C260 1.492 . S
C1312 C802 1.362 . S
C1348 C790 1.367 . S
C1329 C440 1.524 . S
C1365 C380 1.521 . S
C1384 C706 1.440 . S
C1420 C547 1.590 . S
C1401 C31 1.569 . S
C1456 C631 1.595 . S
C1437 C61 1.575 . S
C1473 C151 1.557 . S
C1492 C632 1.561 . S
C1528 C548 1.572 . S
C1509 C181 1.560 . S
C1564 C703 1.589 . S
C1545 C271 1.541 . S
C1581 C301 1.595 . S
C1600 C787 1.592 . S
C1617 C391 1.525 . S
C1636 C788 1.577 . S
C1653 C421 1.577 . S
C1672 C704 1.549 . S
