# Generated by pormake.
# Topology pyr, (3,6)-cn, num edge types: 1
# Building blocks:
#     Node 0, Type 0, BuildingBlock: CUQRIR_clean_linker_1, # of connection points: 3
#     Node 1, Type 0, BuildingBlock: CUQRIR_clean_linker_1, # of connection points: 3
#     Node 2, Type 0, BuildingBlock: CUQRIR_clean_linker_1, # of connection points: 3
#     Node 3, Type 0, BuildingBlock: CUQRIR_clean_linker_1, # of connection points: 3
#     Node 4, Type 0, BuildingBlock: CUQRIR_clean_linker_1, # of connection points: 3
#     Node 5, Type 0, BuildingBlock: CUQRIR_clean_linker_1, # of connection points: 3
#     Node 6, Type 0, BuildingBlock: CUQRIR_clean_linker_1, # of connection points: 3
#     Node 7, Type 0, BuildingBlock: CUQRIR_clean_linker_1, # of connection points: 3
#     Node 8, Type 1, BuildingBlock: PAMTUU_clean_sbu_0, # of connection points: 6
#     Node 9, Type 1, BuildingBlock: PAMTUU_clean_sbu_0, # of connection points: 6
#     Node 10, Type 1, BuildingBlock: PAMTUU_clean_sbu_0, # of connection points: 6
#     Node 11, Type 1, BuildingBlock: PAMTUU_clean_sbu_0, # of connection points: 6
#     Edge 12, Type (0, 1), BuildingBlock: EZIPEK_clean_linker_0, # of connection points: 2
#     Edge 13, Type (0, 1), BuildingBlock: EZIPEK_clean_linker_0, # of connection points: 2
#     Edge 14, Type (0, 1), BuildingBlock: EZIPEK_clean_linker_0, # of connection points: 2
#     Edge 15, Type (0, 1), BuildingBlock: EZIPEK_clean_linker_0, # of connection points: 2
#     Edge 16, Type (0, 1), BuildingBlock: EZIPEK_clean_linker_0, # of connection points: 2
#     Edge 17, Type (0, 1), BuildingBlock: EZIPEK_clean_linker_0, # of connection points: 2
#     Edge 18, Type (0, 1), BuildingBlock: EZIPEK_clean_linker_0, # of connection points: 2
#     Edge 19, Type (0, 1), BuildingBlock: EZIPEK_clean_linker_0, # of connection points: 2
#     Edge 20, Type (0, 1), BuildingBlock: EZIPEK_clean_linker_0, # of connection points: 2
#     Edge 21, Type (0, 1), BuildingBlock: EZIPEK_clean_linker_0, # of connection points: 2
#     Edge 22, Type (0, 1), BuildingBlock: EZIPEK_clean_linker_0, # of connection points: 2
#     Edge 23, Type (0, 1), BuildingBlock: EZIPEK_clean_linker_0, # of connection points: 2
#     Edge 24, Type (0, 1), BuildingBlock: EZIPEK_clean_linker_0, # of connection points: 2
#     Edge 25, Type (0, 1), BuildingBlock: EZIPEK_clean_linker_0, # of connection points: 2
#     Edge 26, Type (0, 1), BuildingBlock: EZIPEK_clean_linker_0, # of connection points: 2
#     Edge 27, Type (0, 1), BuildingBlock: EZIPEK_clean_linker_0, # of connection points: 2
#     Edge 28, Type (0, 1), BuildingBlock: EZIPEK_clean_linker_0, # of connection points: 2
#     Edge 29, Type (0, 1), BuildingBlock: EZIPEK_clean_linker_0, # of connection points: 2
#     Edge 30, Type (0, 1), BuildingBlock: EZIPEK_clean_linker_0, # of connection points: 2
#     Edge 31, Type (0, 1), BuildingBlock: EZIPEK_clean_linker_0, # of connection points: 2
#     Edge 32, Type (0, 1), BuildingBlock: EZIPEK_clean_linker_0, # of connection points: 2
#     Edge 33, Type (0, 1), BuildingBlock: EZIPEK_clean_linker_0, # of connection points: 2
#     Edge 34, Type (0, 1), BuildingBlock: EZIPEK_clean_linker_0, # of connection points: 2
#     Edge 35, Type (0, 1), BuildingBlock: EZIPEK_clean_linker_0, # of connection points: 2
# Relax obj value: 0.298
# Max RMSD: 0.269
# Mean RMSD: 0.173
data_MOF--net-pyr--node1-PAMTUU_clean_sbu_0--node2-CUQRIR_clean_linker_1--edge1-EZIPEK_clean_linker_0
_symmetry_space_group_name_H-M    P1
_symmetry_Int_Tables_number       1
_symmetry_cell_setting            triclinic
loop_
_symmetry_equiv_pos_as_xyz
'x, y, z'
_cell_length_a     25.200508
_cell_length_b     26.181049
_cell_length_c     24.684238
_cell_angle_alpha  88.368837
_cell_angle_beta   90.078085
_cell_angle_gamma 107.78983
loop_
_atom_site_label
_atom_site_type_symbol
_atom_site_fract_x
_atom_site_fract_y
_atom_site_fract_z
_atom_type_partial_charge
C0 C 0.37227 0.35286 0.32451 0.0
N1 N 0.41098 0.32697 0.32073 0.0
N2 N 0.36318 0.37275 0.2755 0.0
C3 C 0.3374 0.35179 0.37429 0.0
C4 C 0.39956 0.35976 0.24212 0.0
N5 N 0.42752 0.33 0.26925 0.0
C6 C 0.40455 0.37323 0.18236 0.0
H7 H 0.31065 0.31002 0.3828 0.0
H8 H 0.31063 0.37822 0.36901 0.0
H9 H 0.36436 0.36491 0.40993 0.0
H10 H 0.41173 0.41693 0.17583 0.0
H11 H 0.36476 0.35235 0.16219 0.0
H12 H 0.43921 0.36197 0.1636 0.0
C13 C 0.13066 0.83135 0.74282 0.0
N14 N 0.1299 0.87797 0.76487 0.0
N15 N 0.17529 0.8171 0.76027 0.0
C16 C 0.0858 0.79886 0.70649 0.0
C17 C 0.19942 0.85477 0.79659 0.0
N18 N 0.17175 0.8912 0.79974 0.0
C19 C 0.25172 0.85752 0.82763 0.0
H20 H 0.04524 0.78845 0.7283 0.0
H21 H 0.09408 0.76146 0.69451 0.0
H22 H 0.08209 0.82318 0.66993 0.0
H23 H 0.28258 0.84754 0.80128 0.0
H24 H 0.2412 0.82782 0.86197 0.0
H25 H 0.27099 0.89794 0.84407 0.0
C26 C 0.62993 0.40645 0.89476 0.0
N27 N 0.66163 0.39989 0.93819 0.0
N28 N 0.64899 0.45672 0.8714 0.0
C29 C 0.57961 0.36367 0.87537 0.0
C30 C 0.69396 0.48072 0.90237 0.0
N31 N 0.70249 0.44694 0.94257 0.0
C32 C 0.73045 0.53754 0.89262 0.0
H33 H 0.57044 0.37151 0.83251 0.0
H34 H 0.54315 0.36331 0.90069 0.0
H35 H 0.58585 0.32359 0.87964 0.0
H36 H 0.70715 0.56203 0.87177 0.0
H37 H 0.76611 0.53731 0.86642 0.0
H38 H 0.74721 0.55623 0.93136 0.0
C39 C 0.8534 0.7276 0.38713 0.0
N40 N 0.90331 0.76338 0.37012 0.0
N41 N 0.83394 0.74242 0.43359 0.0
C42 C 0.82376 0.67685 0.35865 0.0
C43 C 0.87337 0.7886 0.44537 0.0
N44 N 0.91532 0.80331 0.40735 0.0
C45 C 0.86903 0.82116 0.49386 0.0
H46 H 0.8198 0.68587 0.31492 0.0
H47 H 0.78174 0.65717 0.37625 0.0
H48 H 0.8486 0.6485 0.36223 0.0
H49 H 0.91047 0.83956 0.51202 0.0
H50 H 0.84106 0.79623 0.52562 0.0
H51 H 0.85173 0.85371 0.48087 0.0
C52 C 0.6272 0.83326 0.96801 0.0
N53 N 0.66465 0.82301 0.93407 0.0
N54 N 0.59722 0.86122 0.94181 0.0
C55 C 0.62305 0.82078 1.02803 0.0
C56 C 0.61456 0.86343 0.88967 0.0
N57 N 0.6558 0.8408 0.88488 0.0
C58 C 0.598 0.896 0.84524 0.0
H59 H 0.57862 0.80266 1.03975 0.0
H60 H 0.63902 0.85848 1.05047 0.0
H61 H 0.64667 0.79283 1.04001 0.0
H62 H 0.56131 0.90817 0.85733 0.0
H63 H 0.58795 0.87224 0.80803 0.0
H64 H 0.6335 0.93236 0.83544 0.0
C65 C 0.94051 0.38701 0.49834 0.0
N66 N 0.95114 0.35712 0.45804 0.0
N67 N 0.90774 0.41667 0.48031 0.0
C68 C 0.95818 0.3838 0.5561 0.0
C69 C 0.90353 0.40734 0.42656 0.0
N70 N 0.92624 0.36865 0.41381 0.0
C71 C 0.86927 0.42994 0.38795 0.0
H72 H 0.94466 0.34135 0.57088 0.0
H73 H 0.94066 0.40831 0.58256 0.0
H74 H 1.00431 0.39846 0.55808 0.0
H75 H 0.88402 0.47439 0.38864 0.0
H76 H 0.82491 0.4165 0.40103 0.0
H77 H 0.87249 0.41772 0.34573 0.0
C78 C 0.34562 0.71496 0.30681 0.0
N79 N 0.39502 0.75083 0.32242 0.0
N80 N 0.328 0.72902 0.25818 0.0
C81 C 0.31503 0.66483 0.33866 0.0
C82 C 0.3683 0.77465 0.24377 0.0
N83 N 0.4087 0.78966 0.28234 0.0
C84 C 0.36603 0.80667 0.19248 0.0
H85 H 0.33743 0.63466 0.33445 0.0
H86 H 0.27181 0.64749 0.32392 0.0
H87 H 0.31407 0.67363 0.38229 0.0
H88 H 0.34417 0.8365 0.20108 0.0
H89 H 0.34265 0.78029 0.16045 0.0
H90 H 0.40846 0.82836 0.17702 0.0
C91 C 0.12727 0.40313 0.80404 0.0
N92 N 0.15956 0.39822 0.76048 0.0
N93 N 0.14448 0.45371 0.82674 0.0
C94 C 0.08833 0.35358 0.83133 0.0
C95 C 0.19443 0.47549 0.79864 0.0
N96 N 0.20243 0.44397 0.75758 0.0
C97 C 0.24156 0.52288 0.81705 0.0
H98 H 0.0471 0.34261 0.81134 0.0
H99 H 0.08437 0.35868 0.87537 0.0
H100 H 0.10429 0.31889 0.82676 0.0
H101 H 0.23754 0.53121 0.8603 0.0
H102 H 0.24388 0.55878 0.79107 0.0
H103 H 0.28219 0.51534 0.81239 0.0
Tb104 Tb 0.1144 0.11712 0.54745 0.0
Tb105 Tb 0.98827 0.09259 0.58757 0.0
C106 C 1.01582 1.01451 0.49938 0.0
C107 C 0.2711 0.15855 0.52381 0.0
C108 C 0.38056 0.21839 0.49631 0.0
C109 C 0.36998 0.16819 0.52281 0.0
C110 C 0.31529 0.13819 0.53609 0.0
C111 C 0.28227 0.2114 0.50425 0.0
C112 C 0.33679 0.24127 0.49086 0.0
C113 C 0.21419 0.12226 0.52771 0.0
O114 O 0.08707 0.17479 0.49669 0.0
O115 O 0.99834 0.15879 0.53165 0.0
O116 O 0.03892 0.16363 0.63572 0.0
O117 O 0.12292 0.19225 0.59005 0.0
O118 O 0.9026 0.07645 0.57328 0.0
O119 O 0.93562 0.08362 0.65478 0.0
O120 O 1.01649 1.02827 0.62045 0.0
O121 O 0.10325 0.08359 0.62978 0.0
O122 O 0.06946 1.03965 0.50752 0.0
O123 O 0.97792 1.03312 0.52195 0.0
C124 C 0.03955 0.18606 0.50012 0.0
O125 O 0.19201 0.11473 0.57583 0.0
O126 O 0.17877 0.12646 0.49045 0.0
C127 C 0.08883 0.20021 0.62728 0.0
C128 C 0.84977 1.01942 0.64197 0.0
C129 C 0.78325 0.93009 0.70062 0.0
C130 C 0.76595 0.97594 0.69335 0.0
C131 C 0.79926 1.02057 0.66431 0.0
C132 C 0.86403 0.97149 0.64391 0.0
C133 C 0.83069 0.92673 0.67319 0.0
C134 C 0.89093 0.06995 0.62496 0.0
C135 C 0.0652 1.03861 0.64241 0.0
H136 H 0.40306 0.15031 0.52898 0.0
H137 H 0.30714 0.09771 0.55264 0.0
H138 H 0.24868 0.22817 0.49579 0.0
H139 H 0.34368 0.28013 0.47097 0.0
H140 H 0.72953 0.97908 0.71465 0.0
H141 H 0.78778 1.05724 0.663 0.0
H142 H 0.90304 0.97014 0.62661 0.0
H143 H 0.84478 0.89181 0.67899 0.0
Tb144 Tb 0.60562 0.10895 0.15368 0.0
Tb145 Tb 0.47962 0.0916 0.11169 0.0
C146 C 0.54775 1.0252 1.06025 0.0
C147 C 0.75696 0.15447 0.19055 0.0
C148 C 0.84647 0.23185 0.23505 0.0
C149 C 0.84386 0.17764 0.23943 0.0
C150 C 0.79876 0.13887 0.21739 0.0
C151 C 0.7646 0.20887 0.17832 0.0
C152 C 0.80989 0.2477 0.20016 0.0
C153 C 0.70281 0.11453 0.18347 0.0
O154 O 0.62339 0.17551 0.09334 0.0
O155 O 0.53325 0.16802 0.06961 0.0
O156 O 0.49035 0.12514 0.19144 0.0
O157 O 0.57905 0.17681 0.1831 0.0
O158 O 0.42491 0.10782 1.05463 0.0
O159 O 0.39433 0.0714 0.13238 0.0
O160 O 0.47397 1.01431 0.15499 0.0
O161 O 0.55311 1.04254 0.20645 0.0
O162 O 0.58848 1.04597 0.09409 0.0
O163 O 0.50281 1.0399 1.05697 0.0
C164 C 0.58763 0.1938 0.06617 0.0
O165 O 0.66321 0.11689 0.21666 0.0
O166 O 0.6856 0.10689 0.13372 0.0
C167 C 0.52781 0.17082 0.19959 0.0
C168 C 0.33314 1.05177 1.05805 0.0
C169 C 0.24901 1.0002 0.98665 0.0
C170 C 0.24082 1.03874 1.02116 0.0
C171 C 0.2831 1.06476 1.05658 0.0
C172 C 0.33922 1.00999 1.02691 0.0
C173 C 0.2973 0.9844 0.99123 0.0
C174 C 0.38118 0.08731 0.08528 0.0
C175 C 0.50578 1.0055 0.19483 0.0
H176 H 0.87174 0.16493 0.26634 0.0
H177 H 0.79359 0.09683 0.22625 0.0
H178 H 0.73282 0.22128 0.15692 0.0
H179 H 0.81145 0.28948 0.19664 0.0
H180 H 0.20363 1.05111 1.01798 0.0
H181 H 0.2781 0.09714 0.08041 0.0
H182 H 0.37768 0.9996 1.02768 0.0
H183 H 0.30388 0.95444 0.96488 0.0
Tb184 Tb 0.51709 0.54756 0.55806 0.0
Tb185 Tb 0.52291 0.64674 0.63138 0.0
C186 C 0.47747 0.64421 0.50641 0.0
C187 C 0.59926 0.4717 0.50756 0.0
C188 C 0.70932 0.46586 0.51251 0.0
C189 C 0.66919 0.43089 0.4798 0.0
C190 C 0.6145 0.43378 0.4773 0.0
C191 C 0.63972 0.50675 0.53963 0.0
C192 C 0.694 0.50374 0.54246 0.0
C193 C 0.54216 0.47638 0.50706 0.0
O194 O 0.59324 0.61022 0.53254 0.0
O195 O 0.60932 0.67089 0.59994 0.0
O196 O 0.56811 0.60611 0.6847 0.0
O197 O 0.5505 0.52879 0.63786 0.0
O198 O 0.52567 0.72749 0.63723 0.0
O199 O 0.51453 0.67595 0.70822 0.0
O200 O 0.44086 0.58565 0.6511 0.0
O201 O 0.43098 0.51848 0.59042 0.0
O202 O 0.47357 0.59239 0.50458 0.0
O203 O 0.49799 0.67114 0.55026 0.0
C204 C 0.6257 0.65252 0.55586 0.0
O205 O 0.51609 0.46698 0.5535 0.0
O206 O 0.53748 0.51997 0.48384 0.0
C207 C 0.56936 0.55649 0.68161 0.0
C208 C 0.45577 0.7282 0.69844 0.0
C209 C 0.35017 0.73764 0.71816 0.0
C210 C 0.3965 0.76907 0.7466 0.0
C211 C 0.44937 0.76411 0.73696 0.0
C212 C 0.4091 0.69648 0.67082 0.0
C213 C 0.35655 0.70078 0.6809 0.0
C214 C 0.50969 0.72052 0.68773 0.0
C215 C 0.41123 0.53927 0.63108 0.0
H216 H 0.68009 0.40086 0.4568 0.0
H217 H 0.58451 0.4062 0.45218 0.0
H218 H 0.62905 0.53627 0.56312 0.0
H219 H 0.72395 0.53061 0.56837 0.0
H220 H 0.39179 0.79804 0.7752 0.0
H221 H 0.485 0.78839 0.75894 0.0
H222 H 0.4134 0.66873 0.64087 0.0
H223 H 0.32119 0.67684 0.65832 0.0
Tb224 Tb 1.0193 0.64791 1.06286 0.0
Tb225 Tb 1.00805 0.54614 0.14212 0.0
C226 C 0.0615 0.55149 1.01824 0.0
C227 C 0.96149 0.73802 0.99005 0.0
C228 C 0.86138 0.76098 0.97083 0.0
C229 C 0.90928 0.78757 0.94014 0.0
C230 C 0.9592 0.77585 0.94951 0.0
C231 C 0.91334 0.71148 1.02038 0.0
C232 C 0.86359 0.72271 1.01074 0.0
C233 C 1.01256 0.72376 1.00057 0.0
O234 O 0.93607 0.59117 1.04536 0.0
O235 O 0.92416 0.52174 0.10754 0.0
O236 O 0.97893 0.60141 0.19576 0.0
O237 O 0.98962 0.67462 0.13923 0.0
O238 O 0.99239 0.46306 0.15536 0.0
O239 O 1.01767 0.5174 0.22077 0.0
O240 O 0.09475 0.59344 0.15226 0.0
O241 O 0.10199 0.67032 0.10142 0.0
O242 O 0.06091 0.60182 1.01265 0.0
O243 O 0.04283 0.5245 0.06455 0.0
C244 C 0.90608 0.5442 0.06612 0.0
O245 O 1.0306 0.7304 1.05003 0.0
O246 O 1.01134 0.67685 0.98385 0.0
C247 C 0.97757 0.6517 0.1881 0.0
C248 C 0.06227 0.45105 0.21446 0.0
C249 C 0.16362 0.42864 0.23105 0.0
C250 C 0.13971 0.44954 0.27291 0.0
C251 C 0.08943 0.46073 0.26465 0.0
C252 C 0.08613 0.42926 0.17289 0.0
C253 C 0.13636 0.41811 0.18121 0.0
C254 C 1.0133 0.46971 0.20388 0.0
C255 C 0.12266 0.64245 0.13643 0.0
H256 H 0.90798 0.81743 0.9093 0.0
H257 H 0.99567 0.79618 0.92527 0.0
H258 H 0.91426 0.68205 1.05173 0.0
H259 H 0.82704 0.70223 1.03494 0.0
H260 H 0.15996 0.45713 0.31189 0.0
H261 H 0.07219 0.47776 0.29722 0.0
H262 H 0.06672 0.42177 0.13353 0.0
H263 H 0.15407 0.40137 0.14876 0.0
C264 C 0.45481 0.32507 0.40978 0.0
C265 C 0.4271 0.29722 0.36431 0.0
C266 C 0.42289 0.21318 0.4104 0.0
C267 C 0.42961 0.23947 0.45991 0.0
N268 N 0.473 0.31935 0.50689 0.0
N269 N 0.37542 0.21271 0.32627 0.0
C270 C 0.45487 0.29547 0.45915 0.0
C271 C 0.41014 0.24047 0.36483 0.0
N272 N 0.47599 0.37955 0.40638 0.0
N273 N 0.42151 0.1609 0.40871 0.0
H274 H 0.35697 0.23196 0.29807 0.0
H275 H 0.35921 0.17096 0.32746 0.0
H276 H 0.43069 0.14076 0.44278 0.0
H277 H 0.41761 0.14058 0.37244 0.0
H278 H 0.4925 0.40309 0.43892 0.0
H279 H 0.47634 0.40132 0.37023 0.0
H280 H 0.49001 0.36047 0.51125 0.0
H281 H 0.47108 0.29619 0.54247 0.0
C282 C 0.1529 0.9012 0.89574 0.0
C283 C 0.17548 0.92538 0.8452 0.0
C284 C 0.22481 1.00808 0.89032 0.0
C285 C 0.21138 0.98032 0.94083 0.0
N286 N 0.15817 0.90401 0.99428 0.0
N287 N 0.23685 0.99979 0.79454 0.0
C288 C 0.17295 0.92815 0.94438 0.0
C289 C 0.21121 0.97889 0.84228 0.0
N290 N 0.11492 0.85116 0.89673 0.0
N291 N 0.2526 1.06183 0.88849 0.0
H292 H 0.23009 0.97812 0.75945 0.0
H293 H 0.26838 1.03629 0.7908 0.0
H294 H 0.26428 0.08404 0.92331 0.0
H295 H 0.25913 0.08525 0.85286 0.0
H296 H 0.09537 0.83106 0.93164 0.0
H297 H 0.10103 0.83017 0.86156 0.0
H298 H 0.13407 0.8643 1.0008 0.0
H299 H 0.17101 0.92439 1.03007 0.0
C300 C 0.65407 0.48357 0.77209 0.0
C301 C 0.62774 0.47972 0.82361 0.0
C302 C 0.5606 0.52171 0.78144 0.0
C303 C 0.58975 0.52971 0.73064 0.0
N304 N 0.67013 0.52455 0.68138 0.0
N305 N 0.55989 0.50117 0.87877 0.0
C306 C 0.6379 0.51191 0.72707 0.0
C307 C 0.58202 0.50048 0.82847 0.0
N308 N 0.69425 0.45905 0.76602 0.0
N309 N 0.51089 0.53238 0.78435 0.0
H310 H 0.57399 0.48518 0.9131 0.0
H311 H 0.53076 0.52081 0.88715 0.0
H312 H 0.49373 0.54738 0.7514 0.0
H313 H 0.48434 0.52221 0.81787 0.0
H314 H 0.71152 0.45485 0.72876 0.0
H315 H 0.70709 0.43897 0.79814 0.0
H316 H 0.70865 0.51805 0.67744 0.0
H317 H 0.66045 0.54625 0.64902 0.0
C318 C 0.92281 0.75614 0.26976 0.0
C319 C 0.93616 0.74871 0.32522 0.0
C320 C 0.98313 0.68301 0.29029 0.0
C321 C 0.96285 0.68483 0.23595 0.0
N322 N 0.9022 0.719 0.17972 0.0
N323 N 0.97033 0.69373 0.38697 0.0
C324 C 0.93023 0.72091 0.22736 0.0
C325 C 0.96428 0.70916 0.33469 0.0
N326 N 0.90163 0.79701 0.25747 0.0
N327 N 1.02241 0.65782 0.30002 0.0
H328 H 0.95732 0.71117 0.41984 0.0
H329 H 0.98385 0.66087 0.39728 0.0
H330 H 0.03909 0.64038 0.26967 0.0
H331 H 0.04283 0.65954 0.33699 0.0
H332 H 0.89549 0.80901 0.21795 0.0
H333 H 0.89629 0.8225 0.28708 0.0
H334 H 0.87368 0.73991 0.1723 0.0
H335 H 0.90203 0.69146 0.15008 0.0
C336 C 0.42969 0.25565 0.20968 0.0
C337 C 0.457 0.29564 0.24638 0.0
C338 C 0.53374 0.25531 0.25325 0.0
C339 C 0.5074 0.21733 0.21397 0.0
N340 N 0.44059 0.19805 0.14088 0.0
N341 N 0.5409 0.34121 0.29314 0.0
C342 C 0.45848 0.22247 0.18828 0.0
C343 C 0.51107 0.29786 0.26502 0.0
N344 N 0.3749 0.24661 0.19675 0.0
N345 N 0.5787 0.24973 0.28081 0.0
H346 H 0.52558 0.37325 0.30012 0.0
H347 H 0.58218 0.34772 0.30457 0.0
H348 H 0.5958 0.21897 0.27353 0.0
H349 H 0.59621 0.27302 0.31361 0.0
H350 H 0.35186 0.21312 0.17577 0.0
H351 H 0.3502 0.26808 0.21191 0.0
H352 H 0.40972 0.20611 0.11704 0.0
H353 H 0.46178 0.17578 0.12187 0.0
C354 C 0.14349 0.94266 0.68749 0.0
C355 C 0.11265 0.91796 0.7345 0.0
C356 C 0.05126 0.97412 0.72276 0.0
C357 C 0.08042 0.99649 0.67415 0.0
N358 N 0.14589 0.99292 0.60391 0.0
N359 N 0.03312 0.90331 0.7927 0.0
C360 C 0.12417 0.97821 0.65478 0.0
C361 C 0.06522 0.93173 0.75093 0.0
N362 N 0.19254 0.9335 0.67483 0.0
N363 N 1.01169 0.99458 0.7428 0.0
H364 H 0.04301 0.87225 0.81352 0.0
H365 H 0.99495 0.90755 0.80398 0.0
H366 H 1.0007 1.02572 0.72333 0.0
H367 H 0.9925 0.98348 0.78048 0.0
H368 H 0.22008 0.95515 0.64496 0.0
H369 H 0.2098 0.90921 0.69836 0.0
H370 H 0.17254 0.97539 0.58487 0.0
H371 H 0.13242 1.01806 0.57774 0.0
C372 C 0.80537 0.46624 0.95569 0.0
C373 C 0.75177 0.46086 0.9782 0.0
C374 C 0.79905 0.50385 1.06159 0.0
C375 C 0.85256 0.51308 1.0373 0.0
N376 N 0.90672 0.50282 0.9604 0.0
N377 N 0.6989 0.48365 1.04905 0.0
C378 C 0.85553 0.49375 0.9842 0.0
C379 C 0.74909 0.48148 1.03061 0.0
N380 N 0.80804 0.44582 0.90583 0.0
N381 N 0.79579 0.51714 0.11432 0.0
H382 H 0.66269 0.46964 1.02658 0.0
H383 H 0.69381 0.50324 0.08386 0.0
H384 H 0.8309 0.53586 0.13707 0.0
H385 H 0.75881 0.50632 0.13663 0.0
H386 H 0.84417 0.44227 0.8883 0.0
H387 H 0.77287 0.4302 0.88222 0.0
H388 H 0.91307 0.4955 0.92014 0.0
H389 H 0.94399 0.51975 0.98063 0.0
C390 C 0.73292 0.73268 0.44828 0.0
C391 C 0.78106 0.71822 0.46289 0.0
C392 C 0.73058 0.66983 0.54448 0.0
C393 C 0.68095 0.68079 0.52773 0.0
N394 N 0.63369 0.71927 0.46075 0.0
N395 N 0.82446 0.66861 0.52141 0.0
C396 C 0.68195 0.71131 0.47872 0.0
C397 C 0.77932 0.68539 0.51009 0.0
N398 N 0.73664 0.76833 0.40593 0.0
N399 N 0.73137 0.64554 0.59403 0.0
H400 H 0.86026 0.67996 0.49711 0.0
H401 H 0.82508 0.64057 0.55194 0.0
H402 H 0.69714 0.63558 0.62029 0.0
H403 H 0.76679 0.63946 0.61111 0.0
H404 H 0.70572 0.78576 0.39625 0.0
H405 H 0.77259 0.78305 0.38218 0.0
H406 H 0.62924 0.73506 0.42245 0.0
H407 H 0.59689 0.70766 0.4835 0.0
C408 C 0.26128 0.3461 0.26065 0.0
C409 C 0.3138 0.38666 0.26025 0.0
C410 C 0.26831 0.45452 0.23581 0.0
C411 C 0.21561 0.41448 0.24047 0.0
N412 N 0.16065 0.32385 0.2644 0.0
N413 N 0.36774 0.47953 0.25412 0.0
C414 C 0.21175 0.36064 0.25456 0.0
C415 C 0.31744 0.44095 0.24934 0.0
N416 N 0.25889 0.29344 0.26656 0.0
N417 N 0.27126 0.50515 0.21767 0.0
H418 H 0.40415 0.47017 0.26354 0.0
H419 H 0.37292 0.52053 0.25232 0.0
H420 H 0.236 0.51656 0.20839 0.0
H421 H 0.30851 0.53484 0.20838 0.0
H422 H 0.22304 0.26157 0.2602 0.0
H423 H 0.29372 0.28129 0.2746 0.0
H424 H 0.15518 0.28568 0.28127 0.0
H425 H 0.1232 0.33265 0.25968 0.0
C426 C 0.66975 0.3077 0.96206 0.0
C427 C 0.64872 0.35102 0.97403 0.0
C428 C 0.58968 0.29227 1.04632 0.0
C429 C 0.6092 0.24806 1.03385 0.0
N430 N 0.67357 0.21683 0.98228 0.0
N431 N 0.57635 0.37707 1.01784 0.0
C432 C 0.65121 0.25701 0.99256 0.0
C433 C 0.60544 0.34108 1.01363 0.0
N434 N 0.70394 0.31356 0.918 0.0
N435 N 0.55865 0.28922 0.09211 0.0
H436 H 0.58522 0.41218 0.99398 0.0
H437 H 0.54001 0.36961 1.04083 0.0
H438 H 0.54944 0.25601 0.11829 0.0
H439 H 0.54801 0.32152 0.10735 0.0
H440 H 0.7176 0.2832 0.90256 0.0
H441 H 0.71518 0.3484 0.89379 0.0
H442 H 0.70864 0.22162 0.95816 0.0
H443 H 0.65833 0.17852 0.99996 0.0
C444 C 0.9326 0.90354 0.39879 0.0
C445 C 0.95432 0.8593 0.40845 0.0
C446 C 1.018 0.91744 0.47597 0.0
C447 C 0.99735 0.96214 0.46526 0.0
N448 N 0.94381 0.99934 0.40379 0.0
N449 N 1.02866 0.83236 0.44703 0.0
C450 C 0.9577 0.95559 0.42248 0.0
C451 C 1.0014 0.86987 0.44319 0.0
N452 N 0.88393 0.89424 0.37099 0.0
N453 N 0.04941 0.91778 0.521 0.0
H454 H 1.0168 0.79822 0.42369 0.0
H455 H 0.0658 0.83806 0.46809 0.0
H456 H 0.0568 0.94823 0.54874 0.0
H457 H 0.06188 0.88515 0.53436 0.0
H458 H 0.86152 0.92171 0.36803 0.0
H459 H 0.86351 0.85702 0.35509 0.0
H460 H 0.91957 0.99885 0.36946 0.0
H461 H 0.96118 1.03742 0.41936 0.0
C462 C 0.2125 0.74231 0.77562 0.0
C463 C 0.20112 0.77987 0.73869 0.0
C464 C 0.28159 0.78105 0.68315 0.0
C465 C 0.29589 0.74739 0.72269 0.0
N466 N 0.27237 0.68822 0.80129 0.0
N467 N 0.21207 0.81864 0.64782 0.0
C468 C 0.25992 0.72483 0.76703 0.0
C469 C 0.23117 0.79345 0.68909 0.0
N470 N 0.17954 0.72702 0.82072 0.0
N471 N 0.31804 0.8042 0.64187 0.0
H472 H 0.17553 0.82869 0.65018 0.0
H473 H 0.22913 0.82443 0.6089 0.0
H474 H 0.35539 0.79588 0.63538 0.0
H475 H 0.31356 0.83489 0.61628 0.0
H476 H 0.18808 0.70498 0.85342 0.0
H477 H 0.14358 0.7384 0.82562 0.0
H478 H 0.2487 0.67035 0.83503 0.0
H479 H 0.3065 0.67436 0.79507 0.0
C480 C 0.74504 0.89386 0.84482 0.0
C481 C 0.69472 0.85221 0.84002 0.0
C482 C 0.71077 0.85028 0.74218 0.0
C483 C 0.7601 0.89396 0.74755 0.0
N484 N 0.8301 0.94999 0.8065 0.0
N485 N 0.63179 0.78477 0.78725 0.0
C486 C 0.77974 0.91231 0.79944 0.0
C487 C 0.67864 0.82792 0.78954 0.0
N488 N 0.75714 0.91816 0.8931 0.0
N489 N 0.6937 0.83246 0.69167 0.0
H490 H 0.60679 0.76994 0.82132 0.0
H491 H 0.61892 0.76238 0.75286 0.0
H492 H 0.71791 0.84741 0.6571 0.0
H493 H 0.65581 0.80391 0.68364 0.0
H494 H 0.79257 0.95052 0.90005 0.0
H495 H 0.79257 0.95052 0.90005 0.0
H496 H 0.85896 0.96592 0.77543 0.0
H497 H 0.85896 0.96592 0.77543 0.0
C498 C 0.94579 0.33041 0.32809 0.0
C499 C 0.9077 0.33316 0.36924 0.0
C500 C 0.83243 0.26656 0.32436 0.0
C501 C 0.86937 0.26597 0.28121 0.0
N502 N 0.95989 0.29872 0.239 0.0
N503 N 0.81334 0.30365 0.40623 0.0
C504 C 0.92599 0.29802 0.28235 0.0
C505 C 0.85078 0.30163 0.36688 0.0
N506 N 1.00074 0.35873 0.33324 0.0
N507 N 0.7788 0.23339 0.32692 0.0
H508 H 0.82389 0.32554 0.44106 0.0
H509 H 0.77102 0.28216 0.40474 0.0
H510 H 0.76026 0.20426 0.29901 0.0
H511 H 0.76026 0.20426 0.29901 0.0
H512 H 0.03221 0.3539 0.30859 0.0
H513 H 1.01514 0.38544 0.36441 0.0
H514 H 1.0003 0.32462 0.23467 0.0
H515 H 0.94631 0.27473 0.20558 0.0
C516 C 0.41863 0.7455 0.42174 0.0
C517 C 0.42891 0.73621 0.36665 0.0
C518 C 0.47704 0.67113 0.4029 0.0
C519 C 0.45976 0.67494 0.45757 0.0
N520 N 0.40382 0.71123 0.51516 0.0
N521 N 0.46113 0.68157 0.30622 0.0
C522 C 0.42826 0.71145 0.46579 0.0
C523 C 0.45664 0.69682 0.35796 0.0
N524 N 0.39897 0.78723 0.43209 0.0
N525 N 0.51486 0.64454 0.39343 0.0
H526 H 0.44793 0.6997 0.27283 0.0
H527 H 0.47414 0.64867 0.29695 0.0
H528 H 0.53193 0.62668 0.42428 0.0
H529 H 0.53353 0.645 0.35571 0.0
H530 H 0.39483 0.80011 0.47094 0.0
H531 H 0.39318 0.81265 0.40106 0.0
H532 H 0.37608 0.73261 0.5229 0.0
H533 H 0.40604 0.68472 0.5467 0.0
C534 C 0.06722 0.4528 0.8992 0.0
C535 C 0.11911 0.47862 0.87175 0.0
C536 C 0.12682 0.55505 0.93405 0.0
C537 C 0.08227 0.52465 0.96912 0.0
N538 N 1.00934 0.4393 0.98019 0.0
N539 N 0.15412 0.57007 0.83993 0.0
C540 C 0.0531 0.47166 0.95075 0.0
C541 C 0.13768 0.53468 0.88257 0.0
N542 N 1.02491 0.42085 0.86975 0.0
N543 N 0.16042 0.60385 0.94934 0.0
H544 H 0.15157 0.55722 0.80009 0.0
H545 H 0.16029 0.61097 0.84372 0.0
H546 H 0.15756 0.61928 0.98732 0.0
H547 H 0.19494 0.6257 0.92615 0.0
H548 H 0.98433 0.40462 0.8846 0.0
H549 H 1.02844 0.41949 0.82774 0.0
H550 H 0.99092 0.39906 0.9712 0.0
H551 H 0.99315 0.45136 1.01454 0.0
C552 C 0.61791 0.95553 0.96584 0.0
C553 C 0.58037 0.90299 0.96672 0.0
C554 C 0.51738 0.93053 1.0262 0.0
C555 C 0.55458 0.98399 1.02361 0.0
N556 N 0.63186 1.04999 0.97949 0.0
N557 N 0.49092 0.84128 0.98864 0.0
C558 C 0.60245 0.99736 0.98983 0.0
C559 C 0.52877 0.8908 0.99399 0.0
N560 N 0.66928 0.96335 0.94367 0.0
N561 N 0.47308 0.91704 1.06127 0.0
H562 H 0.49946 0.81184 0.96562 0.0
H563 H 0.45017 0.83088 1.00328 0.0
H564 H 0.46247 0.94486 0.08467 0.0
H565 H 0.44866 0.87768 0.06963 0.0
H566 H 0.70195 0.99914 0.94472 0.0
H567 H 0.70195 0.99914 0.94472 0.0
H568 H 0.66364 1.06253 0.95064 0.0
H569 H 0.62042 0.08156 0.99553 0.0
C570 C 0.03651 0.3284 0.47 0.0
C571 C 0.97801 0.31528 0.46283 0.0
C572 C 0.97374 0.22203 0.45075 0.0
C573 C 1.02863 0.23221 0.47028 0.0
N574 N 0.11343 0.29722 0.49992 0.0
N575 N 0.89008 0.2457 0.46431 0.0
C576 C 0.06097 0.28625 0.47945 0.0
C577 C 0.94629 0.26102 0.45733 0.0
N578 N 0.06845 0.38088 0.46772 0.0
N579 N 0.94655 0.17343 0.42978 0.0
H580 H 0.87035 0.2724 0.47816 0.0
H581 H 0.86516 0.20574 0.46412 0.0
H582 H 0.96626 0.14401 0.42512 0.0
H583 H 0.90716 0.16517 0.41242 0.0
H584 H 0.11186 0.39289 0.46788 0.0
H585 H 0.05125 0.41209 0.46129 0.0
H586 H 0.1358 0.33473 0.51409 0.0
H587 H 0.13373 0.26824 0.50461 0.0
C588 C 0.23044 0.72618 0.23615 0.0
C589 C 0.27563 0.70513 0.22956 0.0
C590 C 0.22297 0.64658 0.15789 0.0
C591 C 0.17763 0.66791 0.16426 0.0
N592 N 0.13532 0.72321 0.21444 0.0
N593 N 0.31803 0.64936 0.18179 0.0
C594 C 0.18095 0.7069 0.2044 0.0
C595 C 0.27243 0.66609 0.18992 0.0
N596 N 0.23573 0.76581 0.27241 0.0
N597 N 0.21809 0.60685 0.12168 0.0
H598 H 0.35358 0.66201 0.20571 0.0
H599 H 0.32204 0.62501 0.15051 0.0
H600 H 0.18435 0.59422 0.09549 0.0
H601 H 0.24616 0.5851 0.11834 0.0
H602 H 0.20858 0.78861 0.27527 0.0
H603 H 0.26927 0.7774 0.29881 0.0
H604 H 0.1317 0.74622 0.24706 0.0
H605 H 0.099 0.7113 0.19169 0.0
C606 C 0.30213 0.44885 0.73366 0.0
C607 C 0.25139 0.4596 0.71986 0.0
C608 C 0.30528 0.52291 0.64676 0.0
C609 C 0.35466 0.50873 0.65823 0.0
N610 N 0.39602 0.45035 0.70786 0.0
N611 N 0.20513 0.50603 0.66065 0.0
C612 C 0.35139 0.46883 0.69981 0.0
C613 C 0.25336 0.49617 0.67525 0.0
N614 N 0.30513 0.42397 0.78233 0.0
N615 N 0.30847 0.56346 0.60961 0.0
H616 H 0.16813 0.48965 0.68238 0.0
H617 H 0.20075 0.52758 0.62577 0.0
H618 H 0.34456 0.58215 0.58711 0.0
H619 H 0.2768 0.58066 0.60298 0.0
H620 H 0.34183 0.41926 0.79789 0.0
H621 H 0.27241 0.41437 0.81025 0.0
H622 H 0.39468 0.41756 0.73332 0.0
H623 H 0.43298 0.46496 0.68556 0.0
C624 C 0.71654 0.75787 0.9244 0.0
C625 C 0.71158 0.80457 0.94849 0.0
C626 C 0.80092 0.817 0.99435 0.0
C627 C 0.80934 0.7752 0.96366 0.0
N628 N 0.77735 0.70686 0.89734 0.0
N629 N 0.75172 0.88227 1.00305 0.0
C630 C 0.76769 0.74579 0.92805 0.0
C631 C 0.75412 0.8348 0.98326 0.0
N632 N 0.67123 0.72414 0.89989 0.0
N633 N 0.83752 0.83943 1.0344 0.0
H634 H 0.71979 0.89844 0.99406 0.0
H635 H 0.78436 0.90883 1.02346 0.0
H636 H 0.87357 0.82897 1.04241 0.0
H637 H 0.82996 0.86522 1.06265 0.0
H638 H 0.67016 0.687 0.88509 0.0
H639 H 0.63263 0.73111 0.89961 0.0
H640 H 0.75096 0.68781 0.86661 0.0
H641 H 0.81382 0.69601 0.90016 0.0
C642 C 0.41863 0.88753 0.2892 0.0
C643 C 0.44449 0.84642 0.28196 0.0
C644 C 0.51477 0.91192 0.22215 0.0
C645 C 0.48751 0.95206 0.22812 0.0
N646 N 0.42167 0.98141 0.2791 0.0
N647 N 0.5243 0.82477 0.25106 0.0
C648 C 0.44224 0.94082 0.26561 0.0
C649 C 0.49538 0.861 0.25201 0.0
N650 N 0.36797 0.87389 0.31455 0.0
N651 N 0.55756 0.92128 0.18561 0.0
H652 H 0.51035 0.7883 0.2727 0.0
H653 H 0.56366 0.83252 0.23369 0.0
H654 H 0.57296 0.95753 0.16382 0.0
H655 H 0.57565 0.89236 0.17431 0.0
H656 H 0.34249 0.89856 0.31505 0.0
H657 H 0.34971 0.83588 0.33196 0.0
H658 H 0.3929 0.97803 0.31028 0.0
H659 H 0.43712 1.02015 0.26222 0.0
C660 C 0.10197 0.34319 0.68523 0.0
C661 C 0.14601 0.35116 0.72383 0.0
C662 C 0.15418 0.26177 0.6975 0.0
C663 C 0.10812 0.2523 0.66103 0.0
N664 N 0.03577 0.28446 0.62368 0.0
N665 N 0.2015 0.30861 0.77634 0.0
C666 C 0.08151 0.29336 0.65605 0.0
C667 C 0.16905 0.308 0.73203 0.0
N668 N 0.07937 0.38387 0.67651 0.0
N669 N 0.18377 0.22593 0.70015 0.0
H670 H 0.20779 0.33825 0.80493 0.0
H671 H 0.21581 0.27676 0.78846 0.0
H672 H 0.17244 0.19023 0.67919 0.0
H673 H 0.22158 0.23334 0.72032 0.0
H674 H 0.05171 0.38492 0.64555 0.0
H675 H 0.09064 0.41845 0.6992 0.0
H676 H 1.00998 0.30872 0.62218 0.0
H677 H 1.02151 0.25065 0.60007 0.0
C678 C 0.86616 0.48758 0.49895 0.0
C679 C 0.86689 0.43444 0.50956 0.0
C680 C 0.77048 0.41162 0.54331 0.0
C681 C 0.76584 0.45944 0.51863 0.0
N682 N 0.81015 0.54506 0.47371 0.0
N683 N 0.81764 0.3445 0.54393 0.0
C684 C 0.81427 0.49882 0.49782 0.0
C685 C 0.819 0.39637 0.53376 0.0
N686 N 0.91519 0.52619 0.48683 0.0
N687 N 0.72835 0.38075 0.57591 0.0
H688 H 0.85164 0.33067 0.5394 0.0
H689 H 0.78117 0.31387 0.5537 0.0
H690 H 0.69244 0.39125 0.58398 0.0
H691 H 0.73167 0.34819 0.59942 0.0
H692 H 0.91891 0.5668 0.48199 0.0
H693 H 0.95293 0.51739 0.48649 0.0
H694 H 0.84296 0.57271 0.45296 0.0
H695 H 0.77278 0.55428 0.47133 0.0
loop_
_geom_bond_atom_site_label_1
_geom_bond_atom_site_label_2
_geom_bond_distance
_geom_bond_site_symmetry_2
_ccdc_geom_bond_type
C0 N1 1.317 . S
C0 N2 1.348 . S
C0 C3 1.485 . S
N1 C0 1.317 . S
N1 N5 1.370 . S
N2 C0 1.348 . S
N2 C4 1.346 . S
C3 C0 1.485 . S
C3 H7 0.960 . S
C3 H8 0.961 . S
C3 H9 0.960 . S
C4 N2 1.346 . S
C4 N5 1.307 . S
C4 C6 1.486 . S
N5 N1 1.370 . S
N5 C4 1.307 . S
C6 C4 1.486 . S
C6 H10 0.960 . S
C6 H11 0.960 . S
C6 H12 0.959 . S
H7 C3 0.960 . S
H8 C3 0.961 . S
H9 C3 0.960 . S
H10 C6 0.960 . S
H11 C6 0.960 . S
H12 C6 0.959 . S
C13 N14 1.317 . S
C13 N15 1.348 . S
C13 C16 1.485 . S
N14 C13 1.317 . S
N14 N18 1.370 . S
N15 C13 1.348 . S
N15 C17 1.346 . S
C16 C13 1.485 . S
C16 H20 0.960 . S
C16 H21 0.961 . S
C16 H22 0.960 . S
C17 N15 1.346 . S
C17 N18 1.307 . S
C17 C19 1.486 . S
N18 N14 1.370 . S
N18 C17 1.307 . S
C19 C17 1.486 . S
C19 H23 0.960 . S
C19 H24 0.960 . S
C19 H25 0.959 . S
H20 C16 0.960 . S
H21 C16 0.961 . S
H22 C16 0.960 . S
H23 C19 0.960 . S
H24 C19 0.960 . S
H25 C19 0.959 . S
C26 N27 1.317 . S
C26 N28 1.348 . S
C26 C29 1.485 . S
N27 C26 1.317 . S
N27 N31 1.370 . S
N28 C26 1.348 . S
N28 C30 1.346 . S
C29 C26 1.485 . S
C29 H33 0.960 . S
C29 H34 0.961 . S
C29 H35 0.960 . S
C30 N28 1.346 . S
C30 N31 1.307 . S
C30 C32 1.486 . S
N31 N27 1.370 . S
N31 C30 1.307 . S
C32 C30 1.486 . S
C32 H36 0.960 . S
C32 H37 0.960 . S
C32 H38 0.959 . S
H33 C29 0.960 . S
H34 C29 0.961 . S
H35 C29 0.960 . S
H36 C32 0.960 . S
H37 C32 0.960 . S
H38 C32 0.959 . S
C39 N40 1.317 . S
C39 N41 1.348 . S
C39 C42 1.485 . S
N40 C39 1.317 . S
N40 N44 1.370 . S
N41 C39 1.348 . S
N41 C43 1.346 . S
C42 C39 1.485 . S
C42 H46 0.960 . S
C42 H47 0.961 . S
C42 H48 0.960 . S
C43 N41 1.346 . S
C43 N44 1.307 . S
C43 C45 1.486 . S
N44 N40 1.370 . S
N44 C43 1.307 . S
C45 C43 1.486 . S
C45 H49 0.960 . S
C45 H50 0.960 . S
C45 H51 0.959 . S
H46 C42 0.960 . S
H47 C42 0.961 . S
H48 C42 0.960 . S
H49 C45 0.960 . S
H50 C45 0.960 . S
H51 C45 0.959 . S
C52 N53 1.317 . S
C52 N54 1.348 . S
C52 C55 1.485 . S
N53 C52 1.317 . S
N53 N57 1.370 . S
N54 C52 1.348 . S
N54 C56 1.346 . S
C55 C52 1.485 . S
C55 H59 0.960 . S
C55 H60 0.961 1_556 S
C55 H61 0.960 . S
C56 N54 1.346 . S
C56 N57 1.307 . S
C56 C58 1.486 . S
N57 N53 1.370 . S
N57 C56 1.307 . S
C58 C56 1.486 . S
C58 H62 0.960 . S
C58 H63 0.960 . S
C58 H64 0.959 . S
H59 C55 0.960 . S
H60 C55 0.961 1_554 S
H61 C55 0.960 . S
H62 C58 0.960 . S
H63 C58 0.960 . S
H64 C58 0.959 . S
C65 N66 1.317 . S
C65 N67 1.348 . S
C65 C68 1.485 . S
N66 C65 1.317 . S
N66 N70 1.370 . S
N67 C65 1.348 . S
N67 C69 1.346 . S
C68 C65 1.485 . S
C68 H72 0.960 . S
C68 H73 0.961 . S
C68 H74 0.960 . S
C69 N67 1.346 . S
C69 N70 1.307 . S
C69 C71 1.486 . S
N70 N66 1.370 . S
N70 C69 1.307 . S
C71 C69 1.486 . S
C71 H75 0.960 . S
C71 H76 0.960 . S
C71 H77 0.959 . S
H72 C68 0.960 . S
H73 C68 0.961 . S
H74 C68 0.960 . S
H75 C71 0.960 . S
H76 C71 0.960 . S
H77 C71 0.959 . S
C78 N79 1.317 . S
C78 N80 1.348 . S
C78 C81 1.485 . S
N79 C78 1.317 . S
N79 N83 1.370 . S
N80 C78 1.348 . S
N80 C82 1.346 . S
C81 C78 1.485 . S
C81 H85 0.960 . S
C81 H86 0.961 . S
C81 H87 0.960 . S
C82 N80 1.346 . S
C82 N83 1.307 . S
C82 C84 1.486 . S
N83 N79 1.370 . S
N83 C82 1.307 . S
C84 C82 1.486 . S
C84 H88 0.960 . S
C84 H89 0.960 . S
C84 H90 0.959 . S
H85 C81 0.960 . S
H86 C81 0.961 . S
H87 C81 0.960 . S
H88 C84 0.960 . S
H89 C84 0.960 . S
H90 C84 0.959 . S
C91 N92 1.317 . S
C91 N93 1.348 . S
C91 C94 1.485 . S
N92 C91 1.317 . S
N92 N96 1.370 . S
N93 C91 1.348 . S
N93 C95 1.346 . S
C94 C91 1.485 . S
C94 H98 0.960 . S
C94 H99 0.961 . S
C94 H100 0.960 . S
C95 N93 1.346 . S
C95 N96 1.307 . S
C95 C97 1.486 . S
N96 N92 1.370 . S
N96 C95 1.307 . S
C97 C95 1.486 . S
C97 H101 0.960 . S
C97 H102 0.960 . S
C97 H103 0.959 . S
H98 C94 0.960 . S
H99 C94 0.961 . S
H100 C94 0.960 . S
H101 C97 0.960 . S
H102 C97 0.960 . S
H103 C97 0.959 . S
Tb104 C113 2.764 . S
Tb104 O114 2.325 . S
Tb104 O117 2.303 . S
Tb104 O121 2.322 1_545 S
Tb104 O122 2.349 1_545 S
Tb104 O125 2.415 . S
Tb104 O126 2.399 . S
Tb105 O115 2.322 . S
Tb105 O116 2.349 1_655 S
Tb105 O118 2.415 1_545 S
Tb105 O119 2.399 1_545 S
Tb105 O120 2.325 1_645 S
Tb105 O123 2.303 1_545 S
Tb105 C134 2.764 1_545 S
C106 O122 1.261 . S
C106 O123 1.257 1_455 S
C107 C110 1.358 . S
C107 C111 1.332 . S
C107 C113 1.504 . S
C108 C109 1.373 . S
C108 C112 1.308 . S
C109 C108 1.373 . S
C109 C110 1.429 . S
C109 H136 0.932 . S
C110 C107 1.358 . S
C110 C109 1.429 . S
C110 H137 0.930 . S
C111 C107 1.332 . S
C111 C112 1.394 . S
C111 H138 0.932 . S
C112 C108 1.308 . S
C112 C111 1.394 . S
C112 H139 0.929 . S
C113 Tb104 2.764 . S
C113 C107 1.504 . S
C113 O125 1.239 . S
C113 O126 1.263 . S
O114 Tb104 2.325 . S
O114 C124 1.236 . S
O115 Tb105 2.322 . S
O115 C124 1.257 1_655 S
O116 Tb105 2.349 1_455 S
O116 C127 1.261 . S
O117 Tb104 2.303 . S
O117 C127 1.257 . S
O118 Tb105 2.415 1_565 S
O118 C134 1.239 . S
O119 Tb105 2.399 1_565 S
O119 C134 1.263 . S
O120 Tb105 2.325 1_465 S
O120 C135 1.236 . S
O121 Tb104 2.322 1_565 S
O121 C135 1.257 . S
O122 Tb104 2.349 1_565 S
O122 C106 1.261 . S
O123 Tb105 2.303 1_565 S
O123 C106 1.257 1_655 S
C124 O114 1.236 . S
C124 O115 1.257 1_455 S
O125 Tb104 2.415 . S
O125 C113 1.239 . S
O126 Tb104 2.399 . S
O126 C113 1.263 . S
C127 O116 1.261 . S
C127 O117 1.257 . S
C128 C131 1.358 . S
C128 C132 1.332 . S
C128 C134 1.504 . S
C129 C130 1.373 . S
C129 C133 1.308 . S
C130 C129 1.373 . S
C130 C131 1.429 . S
C130 H140 0.932 . S
C131 C128 1.358 . S
C131 C130 1.429 . S
C131 H141 0.930 . S
C132 C128 1.332 . S
C132 C133 1.394 . S
C132 H142 0.932 . S
C133 C129 1.308 . S
C133 C132 1.394 . S
C133 H143 0.929 . S
C134 Tb105 2.764 1_565 S
C134 O118 1.239 . S
C134 O119 1.263 . S
C134 C128 1.504 . S
C135 O120 1.236 . S
C135 O121 1.257 . S
H136 C109 0.932 . S
H137 C110 0.930 . S
H138 C111 0.932 . S
H139 C112 0.929 . S
H140 C130 0.932 . S
H141 C131 0.930 . S
H142 C132 0.932 . S
H143 C133 0.929 . S
Tb144 C153 2.764 . S
Tb144 O154 2.325 . S
Tb144 O157 2.303 . S
Tb144 O161 2.322 1_545 S
Tb144 O162 2.349 1_545 S
Tb144 O165 2.415 . S
Tb144 O166 2.399 . S
Tb145 O155 2.322 . S
Tb145 O156 2.349 . S
Tb145 O158 2.415 1_544 S
Tb145 O159 2.399 1_545 S
Tb145 O160 2.325 1_545 S
Tb145 O163 2.303 . S
Tb145 C174 2.764 1_544 S
C146 O162 1.261 . S
C146 O163 1.257 1_565 S
C147 C150 1.358 . S
C147 C151 1.332 . S
C147 C153 1.504 . S
C148 C149 1.373 . S
C148 C152 1.308 . S
C149 C148 1.373 . S
C149 C150 1.429 . S
C149 H176 0.932 . S
C150 C147 1.358 . S
C150 C149 1.429 . S
C150 H177 0.930 . S
C151 C147 1.332 . S
C151 C152 1.394 . S
C151 H178 0.932 . S
C152 C148 1.308 . S
C152 C151 1.394 . S
C152 H179 0.929 . S
C153 Tb144 2.764 . S
C153 C147 1.504 . S
C153 O165 1.239 . S
C153 O166 1.263 . S
O154 Tb144 2.325 . S
O154 C164 1.236 . S
O155 Tb145 2.322 . S
O155 C164 1.257 . S
O156 Tb145 2.349 . S
O156 C167 1.261 . S
O157 Tb144 2.303 . S
O157 C167 1.257 . S
O158 Tb145 2.415 1_566 S
O158 C174 1.239 . S
O159 Tb145 2.399 1_565 S
O159 C174 1.263 1_554 S
O160 Tb145 2.325 1_565 S
O160 C175 1.236 . S
O161 Tb144 2.322 1_565 S
O161 C175 1.257 . S
O162 Tb144 2.349 1_565 S
O162 C146 1.261 . S
O163 Tb145 2.303 . S
O163 C146 1.257 1_545 S
C164 O154 1.236 . S
C164 O155 1.257 . S
O165 Tb144 2.415 . S
O165 C153 1.239 . S
O166 Tb144 2.399 . S
O166 C153 1.263 . S
C167 O156 1.261 . S
C167 O157 1.257 . S
C168 C171 1.358 . S
C168 C172 1.332 . S
C168 C174 1.504 . S
C169 C170 1.373 . S
C169 C173 1.308 . S
C170 C169 1.373 . S
C170 C171 1.429 . S
C170 H180 0.932 . S
C171 C168 1.358 . S
C171 C170 1.429 . S
C171 H181 0.930 . S
C172 C168 1.332 . S
C172 C173 1.394 . S
C172 H182 0.932 . S
C173 C169 1.308 . S
C173 C172 1.394 . S
C173 H183 0.929 . S
C174 Tb145 2.764 1_566 S
C174 O158 1.239 . S
C174 O159 1.263 1_556 S
C174 C168 1.504 . S
C175 O160 1.236 . S
C175 O161 1.257 . S
H176 C149 0.932 . S
H177 C150 0.930 . S
H178 C151 0.932 . S
H179 C152 0.929 . S
H180 C170 0.932 . S
H181 C171 0.930 . S
H182 C172 0.932 . S
H183 C173 0.929 . S
Tb184 C193 2.764 . S
Tb184 O194 2.325 . S
Tb184 O197 2.303 . S
Tb184 O201 2.322 . S
Tb184 O202 2.349 . S
Tb184 O205 2.415 . S
Tb184 O206 2.399 . S
Tb185 O195 2.322 . S
Tb185 O196 2.349 . S
Tb185 O198 2.415 . S
Tb185 O199 2.399 . S
Tb185 O200 2.325 . S
Tb185 O203 2.303 . S
Tb185 C214 2.764 . S
C186 O202 1.261 . S
C186 O203 1.257 . S
C187 C190 1.358 . S
C187 C191 1.332 . S
C187 C193 1.504 . S
C188 C189 1.373 . S
C188 C192 1.308 . S
C189 C188 1.373 . S
C189 C190 1.429 . S
C189 H216 0.932 . S
C190 C187 1.358 . S
C190 C189 1.429 . S
C190 H217 0.930 . S
C191 C187 1.332 . S
C191 C192 1.394 . S
C191 H218 0.932 . S
C192 C188 1.308 . S
C192 C191 1.394 . S
C192 H219 0.929 . S
C193 Tb184 2.764 . S
C193 C187 1.504 . S
C193 O205 1.239 . S
C193 O206 1.263 . S
O194 Tb184 2.325 . S
O194 C204 1.236 . S
O195 Tb185 2.322 . S
O195 C204 1.257 . S
O196 Tb185 2.349 . S
O196 C207 1.261 . S
O197 Tb184 2.303 . S
O197 C207 1.257 . S
O198 Tb185 2.415 . S
O198 C214 1.239 . S
O199 Tb185 2.399 . S
O199 C214 1.263 . S
O200 Tb185 2.325 . S
O200 C215 1.236 . S
O201 Tb184 2.322 . S
O201 C215 1.257 . S
O202 Tb184 2.349 . S
O202 C186 1.261 . S
O203 Tb185 2.303 . S
O203 C186 1.257 . S
C204 O194 1.236 . S
C204 O195 1.257 . S
O205 Tb184 2.415 . S
O205 C193 1.239 . S
O206 Tb184 2.399 . S
O206 C193 1.263 . S
C207 O196 1.261 . S
C207 O197 1.257 . S
C208 C211 1.358 . S
C208 C212 1.332 . S
C208 C214 1.504 . S
C209 C210 1.373 . S
C209 C213 1.308 . S
C210 C209 1.373 . S
C210 C211 1.429 . S
C210 H220 0.932 . S
C211 C208 1.358 . S
C211 C210 1.429 . S
C211 H221 0.930 . S
C212 C208 1.332 . S
C212 C213 1.394 . S
C212 H222 0.932 . S
C213 C209 1.308 . S
C213 C212 1.394 . S
C213 H223 0.929 . S
C214 Tb185 2.764 . S
C214 O198 1.239 . S
C214 O199 1.263 . S
C214 C208 1.504 . S
C215 O200 1.236 . S
C215 O201 1.257 . S
H216 C189 0.932 . S
H217 C190 0.930 . S
H218 C191 0.932 . S
H219 C192 0.929 . S
H220 C210 0.932 . S
H221 C211 0.930 . S
H222 C212 0.932 . S
H223 C213 0.929 . S
Tb224 C233 2.764 . S
Tb224 O234 2.325 . S
Tb224 O237 2.303 1_556 S
Tb224 O241 2.322 1_656 S
Tb224 O242 2.349 1_655 S
Tb224 O245 2.415 . S
Tb224 O246 2.399 . S
Tb225 O235 2.322 1_455 S
Tb225 O236 2.349 1_455 S
Tb225 O238 2.415 . S
Tb225 O239 2.399 . S
Tb225 O240 2.325 . S
Tb225 O243 2.303 1_554 S
Tb225 C254 2.764 . S
C226 O242 1.261 . S
C226 O243 1.257 . S
C227 C230 1.358 . S
C227 C231 1.332 . S
C227 C233 1.504 . S
C228 C229 1.373 . S
C228 C232 1.308 . S
C229 C228 1.373 . S
C229 C230 1.429 . S
C229 H256 0.932 . S
C230 C227 1.358 . S
C230 C229 1.429 . S
C230 H257 0.930 . S
C231 C227 1.332 . S
C231 C232 1.394 . S
C231 H258 0.932 . S
C232 C228 1.308 . S
C232 C231 1.394 . S
C232 H259 0.929 . S
C233 Tb224 2.764 . S
C233 C227 1.504 . S
C233 O245 1.239 . S
C233 O246 1.263 . S
O234 Tb224 2.325 . S
O234 C244 1.236 . S
O235 Tb225 2.322 1_655 S
O235 C244 1.257 1_554 S
O236 Tb225 2.349 1_655 S
O236 C247 1.261 . S
O237 Tb224 2.303 1_554 S
O237 C247 1.257 . S
O238 Tb225 2.415 . S
O238 C254 1.239 . S
O239 Tb225 2.399 . S
O239 C254 1.263 . S
O240 Tb225 2.325 . S
O240 C255 1.236 . S
O241 Tb224 2.322 1_454 S
O241 C255 1.257 . S
O242 Tb224 2.349 1_455 S
O242 C226 1.261 . S
O243 Tb225 2.303 1_556 S
O243 C226 1.257 . S
C244 O234 1.236 . S
C244 O235 1.257 1_556 S
O245 Tb224 2.415 . S
O245 C233 1.239 . S
O246 Tb224 2.399 . S
O246 C233 1.263 . S
C247 O236 1.261 . S
C247 O237 1.257 . S
C248 C251 1.358 . S
C248 C252 1.332 . S
C248 C254 1.504 . S
C249 C250 1.373 . S
C249 C253 1.308 . S
C250 C249 1.373 . S
C250 C251 1.429 . S
C250 H260 0.932 . S
C251 C248 1.358 . S
C251 C250 1.429 . S
C251 H261 0.930 . S
C252 C248 1.332 . S
C252 C253 1.394 . S
C252 H262 0.932 . S
C253 C249 1.308 . S
C253 C252 1.394 . S
C253 H263 0.929 . S
C254 Tb225 2.764 . S
C254 O238 1.239 . S
C254 O239 1.263 . S
C254 C248 1.504 . S
C255 O240 1.236 . S
C255 O241 1.257 . S
H256 C229 0.932 . S
H257 C230 0.930 . S
H258 C231 0.932 . S
H259 C232 0.929 . S
H260 C250 0.932 . S
H261 C251 0.930 . S
H262 C252 0.932 . S
H263 C253 0.929 . S
C264 C265 1.363 . S
C264 C270 1.379 . S
C264 N272 1.356 . S
C265 C264 1.363 . S
C265 C271 1.363 . S
C266 C267 1.363 . S
C266 C271 1.379 . S
C266 N273 1.356 . S
C267 C266 1.363 . S
C267 C270 1.363 . S
N268 C270 1.356 . S
N268 H280 0.984 . S
N268 H281 0.985 . S
N269 C271 1.356 . S
N269 H274 0.984 . S
N269 H275 0.985 . S
C270 C264 1.379 . S
C270 C267 1.363 . S
C270 N268 1.356 . S
C271 C265 1.363 . S
C271 C266 1.379 . S
C271 N269 1.356 . S
N272 C264 1.356 . S
N272 H278 0.984 . S
N272 H279 0.984 . S
N273 C266 1.356 . S
N273 H276 0.984 . S
N273 H277 0.985 . S
H274 N269 0.984 . S
H275 N269 0.985 . S
H276 N273 0.984 . S
H277 N273 0.985 . S
H278 N272 0.984 . S
H279 N272 0.984 . S
H280 N268 0.984 . S
H281 N268 0.985 . S
C282 C283 1.363 . S
C282 C288 1.379 . S
C282 N290 1.356 . S
C283 C282 1.363 . S
C283 C289 1.363 . S
C284 C285 1.363 . S
C284 C289 1.379 . S
C284 N291 1.356 . S
C285 C284 1.363 . S
C285 C288 1.363 . S
N286 C288 1.356 . S
N286 H298 0.984 . S
N286 H299 0.985 . S
N287 C289 1.356 . S
N287 H292 0.984 . S
N287 H293 0.985 . S
C288 C282 1.379 . S
C288 C285 1.363 . S
C288 N286 1.356 . S
C289 C283 1.363 . S
C289 C284 1.379 . S
C289 N287 1.356 . S
N290 C282 1.356 . S
N290 H296 0.984 . S
N290 H297 0.984 . S
N291 C284 1.356 . S
N291 H294 0.984 . S
N291 H295 0.985 . S
H292 N287 0.984 . S
H293 N287 0.985 . S
H294 N291 0.984 . S
H295 N291 0.985 . S
H296 N290 0.984 . S
H297 N290 0.984 . S
H298 N286 0.984 . S
H299 N286 0.985 . S
C300 C301 1.363 . S
C300 C306 1.379 . S
C300 N308 1.356 . S
C301 C300 1.363 . S
C301 C307 1.363 . S
C302 C303 1.363 . S
C302 C307 1.379 . S
C302 N309 1.356 . S
C303 C302 1.363 . S
C303 C306 1.363 . S
N304 C306 1.356 . S
N304 H316 0.984 . S
N304 H317 0.985 . S
N305 C307 1.356 . S
N305 H310 0.984 . S
N305 H311 0.985 . S
C306 C300 1.379 . S
C306 C303 1.363 . S
C306 N304 1.356 . S
C307 C301 1.363 . S
C307 C302 1.379 . S
C307 N305 1.356 . S
N308 C300 1.356 . S
N308 H314 0.984 . S
N308 H315 0.984 . S
N309 C302 1.356 . S
N309 H312 0.984 . S
N309 H313 0.985 . S
H310 N305 0.984 . S
H311 N305 0.985 . S
H312 N309 0.984 . S
H313 N309 0.985 . S
H314 N308 0.984 . S
H315 N308 0.984 . S
H316 N304 0.984 . S
H317 N304 0.985 . S
C318 C319 1.363 . S
C318 C324 1.379 . S
C318 N326 1.356 . S
C319 C318 1.363 . S
C319 C325 1.363 . S
C320 C321 1.363 . S
C320 C325 1.379 . S
C320 N327 1.356 . S
C321 C320 1.363 . S
C321 C324 1.363 . S
N322 C324 1.356 . S
N322 H334 0.984 . S
N322 H335 0.985 . S
N323 C325 1.356 . S
N323 H328 0.984 . S
N323 H329 0.985 . S
C324 C318 1.379 . S
C324 C321 1.363 . S
C324 N322 1.356 . S
C325 C319 1.363 . S
C325 C320 1.379 . S
C325 N323 1.356 . S
N326 C318 1.356 . S
N326 H332 0.984 . S
N326 H333 0.984 . S
N327 C320 1.356 . S
N327 H330 0.984 . S
N327 H331 0.985 1_655 S
H328 N323 0.984 . S
H329 N323 0.985 . S
H330 N327 0.984 . S
H331 N327 0.985 1_455 S
H332 N326 0.984 . S
H333 N326 0.984 . S
H334 N322 0.984 . S
H335 N322 0.985 . S
C336 C337 1.363 . S
C336 C342 1.379 . S
C336 N344 1.356 . S
C337 C336 1.363 . S
C337 C343 1.363 . S
C338 C339 1.363 . S
C338 C343 1.379 . S
C338 N345 1.356 . S
C339 C338 1.363 . S
C339 C342 1.363 . S
N340 C342 1.356 . S
N340 H352 0.984 . S
N340 H353 0.985 . S
N341 C343 1.356 . S
N341 H346 0.984 . S
N341 H347 0.985 . S
C342 C336 1.379 . S
C342 C339 1.363 . S
C342 N340 1.356 . S
C343 C337 1.363 . S
C343 C338 1.379 . S
C343 N341 1.356 . S
N344 C336 1.356 . S
N344 H350 0.984 . S
N344 H351 0.984 . S
N345 C338 1.356 . S
N345 H348 0.984 . S
N345 H349 0.985 . S
H346 N341 0.984 . S
H347 N341 0.985 . S
H348 N345 0.984 . S
H349 N345 0.985 . S
H350 N344 0.984 . S
H351 N344 0.984 . S
H352 N340 0.984 . S
H353 N340 0.985 . S
C354 C355 1.363 . S
C354 C360 1.379 . S
C354 N362 1.356 . S
C355 C354 1.363 . S
C355 C361 1.363 . S
C356 C357 1.363 . S
C356 C361 1.379 . S
C356 N363 1.356 . S
C357 C356 1.363 . S
C357 C360 1.363 . S
N358 C360 1.356 . S
N358 H370 0.984 . S
N358 H371 0.985 . S
N359 C361 1.356 . S
N359 H364 0.984 . S
N359 H365 0.985 . S
C360 C354 1.379 . S
C360 C357 1.363 . S
C360 N358 1.356 . S
C361 C355 1.363 . S
C361 C356 1.379 . S
C361 N359 1.356 . S
N362 C354 1.356 . S
N362 H368 0.984 . S
N362 H369 0.984 . S
N363 C356 1.356 . S
N363 H366 0.984 . S
N363 H367 0.985 . S
H364 N359 0.984 . S
H365 N359 0.985 . S
H366 N363 0.984 . S
H367 N363 0.985 . S
H368 N362 0.984 . S
H369 N362 0.984 . S
H370 N358 0.984 . S
H371 N358 0.985 . S
C372 C373 1.363 . S
C372 C378 1.379 . S
C372 N380 1.356 . S
C373 C372 1.363 . S
C373 C379 1.363 . S
C374 C375 1.363 . S
C374 C379 1.379 . S
C374 N381 1.356 1_556 S
C375 C374 1.363 . S
C375 C378 1.363 . S
N376 C378 1.356 . S
N376 H388 0.984 . S
N376 H389 0.985 . S
N377 C379 1.356 . S
N377 H382 0.984 . S
N377 H383 0.985 1_556 S
C378 C372 1.379 . S
C378 C375 1.363 . S
C378 N376 1.356 . S
C379 C373 1.363 . S
C379 C374 1.379 . S
C379 N377 1.356 . S
N380 C372 1.356 . S
N380 H386 0.984 . S
N380 H387 0.984 . S
N381 C374 1.356 1_554 S
N381 H384 0.984 . S
N381 H385 0.985 . S
H382 N377 0.984 . S
H383 N377 0.985 1_554 S
H384 N381 0.984 . S
H385 N381 0.985 . S
H386 N380 0.984 . S
H387 N380 0.984 . S
H388 N376 0.984 . S
H389 N376 0.985 . S
C390 C391 1.363 . S
C390 C396 1.379 . S
C390 N398 1.356 . S
C391 C390 1.363 . S
C391 C397 1.363 . S
C392 C393 1.363 . S
C392 C397 1.379 . S
C392 N399 1.356 . S
C393 C392 1.363 . S
C393 C396 1.363 . S
N394 C396 1.356 . S
N394 H406 0.984 . S
N394 H407 0.985 . S
N395 C397 1.356 . S
N395 H400 0.984 . S
N395 H401 0.985 . S
C396 C390 1.379 . S
C396 C393 1.363 . S
C396 N394 1.356 . S
C397 C391 1.363 . S
C397 C392 1.379 . S
C397 N395 1.356 . S
N398 C390 1.356 . S
N398 H404 0.984 . S
N398 H405 0.984 . S
N399 C392 1.356 . S
N399 H402 0.984 . S
N399 H403 0.985 . S
H400 N395 0.984 . S
H401 N395 0.985 . S
H402 N399 0.984 . S
H403 N399 0.985 . S
H404 N398 0.984 . S
H405 N398 0.984 . S
H406 N394 0.984 . S
H407 N394 0.985 . S
C408 C409 1.363 . S
C408 C414 1.379 . S
C408 N416 1.356 . S
C409 C408 1.363 . S
C409 C415 1.363 . S
C410 C411 1.363 . S
C410 C415 1.379 . S
C410 N417 1.356 . S
C411 C410 1.363 . S
C411 C414 1.363 . S
N412 C414 1.356 . S
N412 H424 0.984 . S
N412 H425 0.985 . S
N413 C415 1.356 . S
N413 H418 0.984 . S
N413 H419 0.985 . S
C414 C408 1.379 . S
C414 C411 1.363 . S
C414 N412 1.356 . S
C415 C409 1.363 . S
C415 C410 1.379 . S
C415 N413 1.356 . S
N416 C408 1.356 . S
N416 H422 0.984 . S
N416 H423 0.984 . S
N417 C410 1.356 . S
N417 H420 0.984 . S
N417 H421 0.985 . S
H418 N413 0.984 . S
H419 N413 0.985 . S
H420 N417 0.984 . S
H421 N417 0.985 . S
H422 N416 0.984 . S
H423 N416 0.984 . S
H424 N412 0.984 . S
H425 N412 0.985 . S
C426 C427 1.363 . S
C426 C432 1.379 . S
C426 N434 1.356 . S
C427 C426 1.363 . S
C427 C433 1.363 . S
C428 C429 1.363 . S
C428 C433 1.379 . S
C428 N435 1.356 1_556 S
C429 C428 1.363 . S
C429 C432 1.363 . S
N430 C432 1.356 . S
N430 H442 0.984 . S
N430 H443 0.983 1_556 S
N431 C433 1.356 . S
N431 H436 0.984 . S
N431 H437 0.985 . S
C432 C426 1.379 . S
C432 C429 1.363 . S
C432 N430 1.356 . S
C433 C427 1.363 . S
C433 C428 1.379 . S
C433 N431 1.356 . S
N434 C426 1.356 . S
N434 H440 0.984 . S
N434 H441 0.984 . S
N435 C428 1.356 1_554 S
N435 H438 0.984 . S
N435 H439 0.985 . S
H436 N431 0.984 . S
H437 N431 0.985 . S
H438 N435 0.984 . S
H439 N435 0.985 . S
H440 N434 0.984 . S
H441 N434 0.984 . S
H442 N430 0.984 . S
H443 N430 0.983 1_554 S
C444 C445 1.363 . S
C444 C450 1.379 . S
C444 N452 1.356 . S
C445 C444 1.363 . S
C445 C451 1.363 . S
C446 C447 1.363 . S
C446 C451 1.379 . S
C446 N453 1.356 . S
C447 C446 1.363 . S
C447 C450 1.363 . S
N448 C450 1.356 1_455 S
N448 H460 0.984 . S
N448 H461 0.985 . S
N449 C451 1.356 . S
N449 H454 0.984 . S
N449 H455 0.985 . S
C450 C444 1.379 . S
C450 C447 1.363 . S
C450 N448 1.356 1_655 S
C451 C445 1.363 . S
C451 C446 1.379 . S
C451 N449 1.356 . S
N452 C444 1.356 . S
N452 H458 0.984 . S
N452 H459 0.984 . S
N453 C446 1.356 . S
N453 H456 0.984 . S
N453 H457 0.985 . S
H454 N449 0.984 . S
H455 N449 0.985 . S
H456 N453 0.984 . S
H457 N453 0.985 . S
H458 N452 0.984 . S
H459 N452 0.984 . S
H460 N448 0.984 . S
H461 N448 0.985 . S
C462 C463 1.363 . S
C462 C468 1.379 . S
C462 N470 1.356 . S
C463 C462 1.363 . S
C463 C469 1.363 . S
C464 C465 1.363 . S
C464 C469 1.379 . S
C464 N471 1.356 . S
C465 C464 1.363 . S
C465 C468 1.363 . S
N466 C468 1.356 . S
N466 H478 0.984 . S
N466 H479 0.985 . S
N467 C469 1.356 . S
N467 H472 0.984 . S
N467 H473 0.985 . S
C468 C462 1.379 . S
C468 C465 1.363 . S
C468 N466 1.356 . S
C469 C463 1.363 . S
C469 C464 1.379 . S
C469 N467 1.356 . S
N470 C462 1.356 . S
N470 H476 0.984 . S
N470 H477 0.984 . S
N471 C464 1.356 . S
N471 H474 0.984 . S
N471 H475 0.985 . S
H472 N467 0.984 . S
H473 N467 0.985 . S
H474 N471 0.984 . S
H475 N471 0.985 . S
H476 N470 0.984 . S
H477 N470 0.984 . S
H478 N466 0.984 . S
H479 N466 0.985 . S
C480 C481 1.363 . S
C480 C486 1.379 . S
C480 N488 1.356 . S
C481 C480 1.363 . S
C481 C487 1.363 . S
C482 C483 1.363 . S
C482 C487 1.379 . S
C482 N489 1.356 . S
C483 C482 1.363 . S
C483 C486 1.363 . S
N484 C486 1.356 . S
N484 H496 0.984 . S
N484 H497 0.985 . S
N485 C487 1.356 . S
N485 H490 0.984 . S
N485 H491 0.985 . S
C486 C480 1.379 . S
C486 C483 1.363 . S
C486 N484 1.356 . S
C487 C481 1.363 . S
C487 C482 1.379 . S
C487 N485 1.356 . S
N488 C480 1.356 . S
N488 H494 0.984 . S
N488 H495 0.984 . S
N489 C482 1.356 . S
N489 H492 0.984 . S
N489 H493 0.985 . S
H490 N485 0.984 . S
H491 N485 0.985 . S
H492 N489 0.984 . S
H493 N489 0.985 . S
H494 N488 0.984 . S
H495 N488 0.984 . S
H496 N484 0.984 . S
H497 N484 0.985 . S
C498 C499 1.363 . S
C498 C504 1.379 . S
C498 N506 1.356 . S
C499 C498 1.363 . S
C499 C505 1.363 . S
C500 C501 1.363 . S
C500 C505 1.379 . S
C500 N507 1.356 . S
C501 C500 1.363 . S
C501 C504 1.363 . S
N502 C504 1.356 . S
N502 H514 0.984 . S
N502 H515 0.985 . S
N503 C505 1.356 . S
N503 H508 0.984 . S
N503 H509 0.985 . S
C504 C498 1.379 . S
C504 C501 1.363 . S
C504 N502 1.356 . S
C505 C499 1.363 . S
C505 C500 1.379 . S
C505 N503 1.356 . S
N506 C498 1.356 . S
N506 H512 0.984 . S
N506 H513 0.984 . S
N507 C500 1.356 . S
N507 H510 0.984 . S
N507 H511 0.985 . S
H508 N503 0.984 . S
H509 N503 0.985 . S
H510 N507 0.984 . S
H511 N507 0.985 . S
H512 N506 0.984 . S
H513 N506 0.984 . S
H514 N502 0.984 . S
H515 N502 0.985 . S
C516 C517 1.363 . S
C516 C522 1.379 . S
C516 N524 1.356 . S
C517 C516 1.363 . S
C517 C523 1.363 . S
C518 C519 1.363 . S
C518 C523 1.379 . S
C518 N525 1.356 . S
C519 C518 1.363 . S
C519 C522 1.363 . S
N520 C522 1.356 . S
N520 H532 0.984 . S
N520 H533 0.985 . S
N521 C523 1.356 . S
N521 H526 0.984 . S
N521 H527 0.985 . S
C522 C516 1.379 . S
C522 C519 1.363 . S
C522 N520 1.356 . S
C523 C517 1.363 . S
C523 C518 1.379 . S
C523 N521 1.356 . S
N524 C516 1.356 . S
N524 H530 0.984 . S
N524 H531 0.984 . S
N525 C518 1.356 . S
N525 H528 0.984 . S
N525 H529 0.985 . S
H526 N521 0.984 . S
H527 N521 0.985 . S
H528 N525 0.984 . S
H529 N525 0.985 . S
H530 N524 0.984 . S
H531 N524 0.984 . S
H532 N520 0.984 . S
H533 N520 0.985 . S
C534 C535 1.363 . S
C534 C540 1.379 . S
C534 N542 1.356 . S
C535 C534 1.363 . S
C535 C541 1.363 . S
C536 C537 1.363 . S
C536 C541 1.379 . S
C536 N543 1.356 . S
C537 C536 1.363 . S
C537 C540 1.363 . S
N538 C540 1.356 . S
N538 H550 0.984 1_455 S
N538 H551 0.985 . S
N539 C541 1.356 . S
N539 H544 0.984 . S
N539 H545 0.985 . S
C540 C534 1.379 . S
C540 C537 1.363 . S
C540 N538 1.356 . S
C541 C535 1.363 . S
C541 C536 1.379 . S
C541 N539 1.356 . S
N542 C534 1.356 . S
N542 H548 0.984 . S
N542 H549 0.984 . S
N543 C536 1.356 . S
N543 H546 0.984 . S
N543 H547 0.985 . S
H544 N539 0.984 . S
H545 N539 0.985 . S
H546 N543 0.984 . S
H547 N543 0.985 . S
H548 N542 0.984 . S
H549 N542 0.984 . S
H550 N538 0.984 1_655 S
H551 N538 0.985 . S
C552 C553 1.363 . S
C552 C558 1.379 . S
C552 N560 1.356 . S
C553 C552 1.363 . S
C553 C559 1.363 . S
C554 C555 1.363 . S
C554 C559 1.379 1_554 S
C554 N561 1.356 . S
C555 C554 1.363 . S
C555 C558 1.363 1_554 S
N556 C558 1.356 1_545 S
N556 H568 0.984 . S
N556 H569 0.985 . S
N557 C559 1.356 . S
N557 H562 0.984 . S
N557 H563 0.985 1_556 S
C558 C552 1.379 . S
C558 C555 1.363 1_556 S
C558 N556 1.356 1_565 S
C559 C553 1.363 . S
C559 C554 1.379 1_556 S
C559 N557 1.356 . S
N560 C552 1.356 . S
N560 H566 0.984 . S
N560 H567 0.984 . S
N561 C554 1.356 . S
N561 H564 0.984 . S
N561 H565 0.985 . S
H562 N557 0.984 . S
H563 N557 0.985 1_554 S
H564 N561 0.984 . S
H565 N561 0.985 . S
H566 N560 0.984 . S
H567 N560 0.984 . S
H568 N556 0.984 . S
H569 N556 0.985 . S
C570 C571 1.363 . S
C570 C576 1.379 . S
C570 N578 1.356 . S
C571 C570 1.363 . S
C571 C577 1.363 . S
C572 C573 1.363 . S
C572 C577 1.379 . S
C572 N579 1.356 . S
C573 C572 1.363 . S
C573 C576 1.363 . S
N574 C576 1.356 1_455 S
N574 H586 0.984 . S
N574 H587 0.985 . S
N575 C577 1.356 . S
N575 H580 0.984 . S
N575 H581 0.985 . S
C576 C570 1.379 . S
C576 C573 1.363 . S
C576 N574 1.356 1_655 S
C577 C571 1.363 . S
C577 C572 1.379 . S
C577 N575 1.356 . S
N578 C570 1.356 . S
N578 H584 0.984 1_655 S
N578 H585 0.984 . S
N579 C572 1.356 . S
N579 H582 0.984 . S
N579 H583 0.985 . S
H580 N575 0.984 . S
H581 N575 0.985 . S
H582 N579 0.984 . S
H583 N579 0.985 . S
H584 N578 0.984 1_455 S
H585 N578 0.984 . S
H586 N574 0.984 . S
H587 N574 0.985 . S
C588 C589 1.363 . S
C588 C594 1.379 . S
C588 N596 1.356 . S
C589 C588 1.363 . S
C589 C595 1.363 . S
C590 C591 1.363 . S
C590 C595 1.379 . S
C590 N597 1.356 . S
C591 C590 1.363 . S
C591 C594 1.363 . S
N592 C594 1.356 . S
N592 H604 0.984 . S
N592 H605 0.985 . S
N593 C595 1.356 . S
N593 H598 0.984 . S
N593 H599 0.985 . S
C594 C588 1.379 . S
C594 C591 1.363 . S
C594 N592 1.356 . S
C595 C589 1.363 . S
C595 C590 1.379 . S
C595 N593 1.356 . S
N596 C588 1.356 . S
N596 H602 0.984 . S
N596 H603 0.984 . S
N597 C590 1.356 . S
N597 H600 0.984 . S
N597 H601 0.985 . S
H598 N593 0.984 . S
H599 N593 0.985 . S
H600 N597 0.984 . S
H601 N597 0.985 . S
H602 N596 0.984 . S
H603 N596 0.984 . S
H604 N592 0.984 . S
H605 N592 0.985 . S
C606 C607 1.363 . S
C606 C612 1.379 . S
C606 N614 1.356 . S
C607 C606 1.363 . S
C607 C613 1.363 . S
C608 C609 1.363 . S
C608 C613 1.379 . S
C608 N615 1.356 . S
C609 C608 1.363 . S
C609 C612 1.363 . S
N610 C612 1.356 . S
N610 H622 0.984 . S
N610 H623 0.985 . S
N611 C613 1.356 . S
N611 H616 0.984 . S
N611 H617 0.985 . S
C612 C606 1.379 . S
C612 C609 1.363 . S
C612 N610 1.356 . S
C613 C607 1.363 . S
C613 C608 1.379 . S
C613 N611 1.356 . S
N614 C606 1.356 . S
N614 H620 0.984 . S
N614 H621 0.984 . S
N615 C608 1.356 . S
N615 H618 0.984 . S
N615 H619 0.985 . S
H616 N611 0.984 . S
H617 N611 0.985 . S
H618 N615 0.984 . S
H619 N615 0.985 . S
H620 N614 0.984 . S
H621 N614 0.984 . S
H622 N610 0.984 . S
H623 N610 0.985 . S
C624 C625 1.363 . S
C624 C630 1.379 . S
C624 N632 1.356 . S
C625 C624 1.363 . S
C625 C631 1.363 . S
C626 C627 1.363 . S
C626 C631 1.379 . S
C626 N633 1.356 . S
C627 C626 1.363 . S
C627 C630 1.363 . S
N628 C630 1.356 . S
N628 H640 0.984 . S
N628 H641 0.985 . S
N629 C631 1.356 . S
N629 H634 0.984 . S
N629 H635 0.985 1_556 S
C630 C624 1.379 . S
C630 C627 1.363 . S
C630 N628 1.356 . S
C631 C625 1.363 . S
C631 C626 1.379 . S
C631 N629 1.356 . S
N632 C624 1.356 . S
N632 H638 0.984 . S
N632 H639 0.984 . S
N633 C626 1.356 . S
N633 H636 0.984 . S
N633 H637 0.985 . S
H634 N629 0.984 . S
H635 N629 0.985 1_554 S
H636 N633 0.984 . S
H637 N633 0.985 . S
H638 N632 0.984 . S
H639 N632 0.984 . S
H640 N628 0.984 . S
H641 N628 0.985 . S
C642 C643 1.363 . S
C642 C648 1.379 . S
C642 N650 1.356 . S
C643 C642 1.363 . S
C643 C649 1.363 . S
C644 C645 1.363 . S
C644 C649 1.379 . S
C644 N651 1.356 . S
C645 C644 1.363 . S
C645 C648 1.363 . S
N646 C648 1.356 . S
N646 H658 0.984 . S
N646 H659 0.985 . S
N647 C649 1.356 . S
N647 H652 0.984 . S
N647 H653 0.985 . S
C648 C642 1.379 . S
C648 C645 1.363 . S
C648 N646 1.356 . S
C649 C643 1.363 . S
C649 C644 1.379 . S
C649 N647 1.356 . S
N650 C642 1.356 . S
N650 H656 0.984 . S
N650 H657 0.984 . S
N651 C644 1.356 . S
N651 H654 0.984 . S
N651 H655 0.985 . S
H652 N647 0.984 . S
H653 N647 0.985 . S
H654 N651 0.984 . S
H655 N651 0.985 . S
H656 N650 0.984 . S
H657 N650 0.984 . S
H658 N646 0.984 . S
H659 N646 0.985 . S
C660 C661 1.363 . S
C660 C666 1.379 . S
C660 N668 1.356 . S
C661 C660 1.363 . S
C661 C667 1.363 . S
C662 C663 1.363 . S
C662 C667 1.379 . S
C662 N669 1.356 . S
C663 C662 1.363 . S
C663 C666 1.363 . S
N664 C666 1.356 . S
N664 H676 0.984 1_455 S
N664 H677 0.985 . S
N665 C667 1.356 . S
N665 H670 0.984 . S
N665 H671 0.985 . S
C666 C660 1.379 . S
C666 C663 1.363 . S
C666 N664 1.356 . S
C667 C661 1.363 . S
C667 C662 1.379 . S
C667 N665 1.356 . S
N668 C660 1.356 . S
N668 H674 0.994 . S
N668 H675 0.984 . S
N669 C662 1.356 . S
N669 H672 0.984 . S
N669 H673 0.985 . S
H670 N665 0.984 . S
H671 N665 0.985 . S
H672 N669 0.984 . S
H673 N669 0.985 . S
H674 N668 0.994 . S
H675 N668 0.984 . S
H676 N664 0.984 1_655 S
H677 N664 0.985 . S
C678 C679 1.363 . S
C678 C684 1.379 . S
C678 N686 1.356 . S
C679 C678 1.363 . S
C679 C685 1.363 . S
C680 C681 1.363 . S
C680 C685 1.379 . S
C680 N687 1.356 . S
C681 C680 1.363 . S
C681 C684 1.363 . S
N682 C684 1.356 . S
N682 H694 0.984 . S
N682 H695 0.985 . S
N683 C685 1.356 . S
N683 H688 0.984 . S
N683 H689 0.985 . S
C684 C678 1.379 . S
C684 C681 1.363 . S
C684 N682 1.356 . S
C685 C679 1.363 . S
C685 C680 1.379 . S
C685 N683 1.356 . S
N686 C678 1.356 . S
N686 H692 0.984 . S
N686 H693 0.984 . S
N687 C680 1.356 . S
N687 H690 0.984 . S
N687 H691 0.985 . S
H688 N683 0.984 . S
H689 N683 0.985 . S
H690 N687 0.984 . S
H691 N687 0.985 . S
H692 N686 0.984 . S
H693 N686 0.984 . S
H694 N682 0.984 . S
H695 N682 0.985 . S
C265 N1 0.842 . S
C267 C108 0.855 . S
C283 N18 1.205 . S
C285 C169 1.222 . S
C303 C207 2.214 . S
C301 N28 2.277 . S
C319 N40 2.661 . S
C321 C247 2.687 . S
C339 C167 1.469 . S
C337 N5 1.461 . S
C357 C135 1.661 . S
C355 N14 1.502 . S
C375 C244 1.905 . S
C373 N31 1.901 . S
C393 C204 1.747 . S
C391 N41 1.771 . S
C409 N2 1.118 . S
C411 C249 1.155 . S
C429 C164 2.566 1_556 S
C427 N27 2.560 . S
C445 N44 2.428 . S
C447 C106 2.464 1_655 S
C463 N15 1.155 . S
C465 C209 1.214 . S
C483 C129 1.342 . S
C481 N57 1.357 . S
C499 N70 0.906 . S
C501 C148 0.966 . S
C517 N79 2.456 . S
C519 C186 2.479 . S
C535 N93 2.447 . S
C537 C226 2.428 . S
C553 N54 1.226 . S
C555 C146 1.342 . S
C573 C124 2.165 1_655 S
C571 N66 2.114 . S
C591 C255 1.530 . S
C589 N80 1.579 . S
C609 C215 1.959 . S
C607 N96 1.976 . S
C625 N53 1.418 . S
C627 C228 1.379 . S
C645 C175 2.215 . S
C643 N83 2.121 . S
C663 C127 2.484 . S
C661 N92 2.547 . S
C679 N67 1.380 . S
C681 C188 1.437 . S
