# Generated by pormake.
# Topology wbl, (4,4)-cn, num edge types: 1
# Building blocks:
#     Node 0, Type 0, BuildingBlock: MIFKUJ_clean_linker_1, # of connection points: 4
#     Node 1, Type 0, BuildingBlock: MIFKUJ_clean_linker_1, # of connection points: 4
#     Node 2, Type 0, BuildingBlock: MIFKUJ_clean_linker_1, # of connection points: 4
#     Node 3, Type 0, BuildingBlock: MIFKUJ_clean_linker_1, # of connection points: 4
#     Node 4, Type 0, BuildingBlock: MIFKUJ_clean_linker_1, # of connection points: 4
#     Node 5, Type 0, BuildingBlock: MIFKUJ_clean_linker_1, # of connection points: 4
#     Node 6, Type 0, BuildingBlock: MIFKUJ_clean_linker_1, # of connection points: 4
#     Node 7, Type 0, BuildingBlock: MIFKUJ_clean_linker_1, # of connection points: 4
#     Node 8, Type 1, BuildingBlock: GALJAG_clean_sbu_0, # of connection points: 4
#     Node 9, Type 1, BuildingBlock: GALJAG_clean_sbu_0, # of connection points: 4
#     Node 10, Type 1, BuildingBlock: GALJAG_clean_sbu_0, # of connection points: 4
#     Node 11, Type 1, BuildingBlock: GALJAG_clean_sbu_0, # of connection points: 4
#     Node 12, Type 1, BuildingBlock: GALJAG_clean_sbu_0, # of connection points: 4
#     Node 13, Type 1, BuildingBlock: GALJAG_clean_sbu_0, # of connection points: 4
#     Node 14, Type 1, BuildingBlock: GALJAG_clean_sbu_0, # of connection points: 4
#     Node 15, Type 1, BuildingBlock: GALJAG_clean_sbu_0, # of connection points: 4
#     Edge 16, Type (0, 1), BuildingBlock: OJICUG_clean_linker_0, # of connection points: 2
#     Edge 17, Type (0, 1), BuildingBlock: OJICUG_clean_linker_0, # of connection points: 2
#     Edge 18, Type (0, 1), BuildingBlock: OJICUG_clean_linker_0, # of connection points: 2
#     Edge 19, Type (0, 1), BuildingBlock: OJICUG_clean_linker_0, # of connection points: 2
#     Edge 20, Type (0, 1), BuildingBlock: OJICUG_clean_linker_0, # of connection points: 2
#     Edge 21, Type (0, 1), BuildingBlock: OJICUG_clean_linker_0, # of connection points: 2
#     Edge 22, Type (0, 1), BuildingBlock: OJICUG_clean_linker_0, # of connection points: 2
#     Edge 23, Type (0, 1), BuildingBlock: OJICUG_clean_linker_0, # of connection points: 2
#     Edge 24, Type (0, 1), BuildingBlock: OJICUG_clean_linker_0, # of connection points: 2
#     Edge 25, Type (0, 1), BuildingBlock: OJICUG_clean_linker_0, # of connection points: 2
#     Edge 26, Type (0, 1), BuildingBlock: OJICUG_clean_linker_0, # of connection points: 2
#     Edge 27, Type (0, 1), BuildingBlock: OJICUG_clean_linker_0, # of connection points: 2
#     Edge 28, Type (0, 1), BuildingBlock: OJICUG_clean_linker_0, # of connection points: 2
#     Edge 29, Type (0, 1), BuildingBlock: OJICUG_clean_linker_0, # of connection points: 2
#     Edge 30, Type (0, 1), BuildingBlock: OJICUG_clean_linker_0, # of connection points: 2
#     Edge 31, Type (0, 1), BuildingBlock: OJICUG_clean_linker_0, # of connection points: 2
#     Edge 32, Type (0, 1), BuildingBlock: OJICUG_clean_linker_0, # of connection points: 2
#     Edge 33, Type (0, 1), BuildingBlock: OJICUG_clean_linker_0, # of connection points: 2
#     Edge 34, Type (0, 1), BuildingBlock: OJICUG_clean_linker_0, # of connection points: 2
#     Edge 35, Type (0, 1), BuildingBlock: OJICUG_clean_linker_0, # of connection points: 2
#     Edge 36, Type (0, 1), BuildingBlock: OJICUG_clean_linker_0, # of connection points: 2
#     Edge 37, Type (0, 1), BuildingBlock: OJICUG_clean_linker_0, # of connection points: 2
#     Edge 38, Type (0, 1), BuildingBlock: OJICUG_clean_linker_0, # of connection points: 2
#     Edge 39, Type (0, 1), BuildingBlock: OJICUG_clean_linker_0, # of connection points: 2
#     Edge 40, Type (0, 1), BuildingBlock: OJICUG_clean_linker_0, # of connection points: 2
#     Edge 41, Type (0, 1), BuildingBlock: OJICUG_clean_linker_0, # of connection points: 2
#     Edge 42, Type (0, 1), BuildingBlock: OJICUG_clean_linker_0, # of connection points: 2
#     Edge 43, Type (0, 1), BuildingBlock: OJICUG_clean_linker_0, # of connection points: 2
#     Edge 44, Type (0, 1), BuildingBlock: OJICUG_clean_linker_0, # of connection points: 2
#     Edge 45, Type (0, 1), BuildingBlock: OJICUG_clean_linker_0, # of connection points: 2
#     Edge 46, Type (0, 1), BuildingBlock: OJICUG_clean_linker_0, # of connection points: 2
#     Edge 47, Type (0, 1), BuildingBlock: OJICUG_clean_linker_0, # of connection points: 2
# Relax obj value: 0.140
# Max RMSD: 0.144
# Mean RMSD: 0.131
data_MOF--net-wbl--node1-GALJAG_clean_sbu_0--node2-MIFKUJ_clean_linker_1--edge1-OJICUG_clean_linker_0
_symmetry_space_group_name_H-M    P1
_symmetry_Int_Tables_number       1
_symmetry_cell_setting            triclinic
loop_
_symmetry_equiv_pos_as_xyz
'x, y, z'
_cell_length_a     34.755206
_cell_length_b     34.853616
_cell_length_c     63.700942
_cell_angle_alpha  90.056728
_cell_angle_beta   90.038446
_cell_angle_gamma 89.983466
loop_
_atom_site_label
_atom_site_type_symbol
_atom_site_fract_x
_atom_site_fract_y
_atom_site_fract_z
_atom_type_partial_charge
H0 H 0.01518 0.09347 0.37526 0.0
H1 H 0.97986 0.12965 0.40184 0.0
H2 H 0.87466 0.07317 0.38319 0.0
H3 H 0.91037 0.03674 0.3565 0.0
H4 H 0.01497 0.01394 0.37981 0.0
H5 H 0.96964 0.10838 0.33017 0.0
H6 H 0.9179 0.14159 0.31203 0.0
H7 H 0.89062 0.03695 0.27854 0.0
H8 H 0.93868 0.00299 0.29874 0.0
H9 H 0.01507 0.92722 0.30039 0.0
H10 H 0.05802 0.8818 0.28229 0.0
H11 H 0.154 0.92436 0.31837 0.0
H12 H 0.11209 0.9711 0.33534 0.0
H13 H 0.00837 0.00037 0.30246 0.0
H14 H 0.02297 0.90726 0.35932 0.0
H15 H 0.05461 0.86553 0.38524 0.0
H16 H 0.1296 0.95886 0.40289 0.0
H17 H 0.09721 0.00072 0.37748 0.0
C18 C 0.96539 0.06243 0.36395 0.0
C19 C 0.98434 0.08955 0.37654 0.0
C20 C 0.96421 0.11002 0.39178 0.0
C21 C 0.92468 0.10377 0.39475 0.0
C22 C 0.90512 0.07859 0.38116 0.0
C23 C 0.92542 0.05785 0.36591 0.0
C24 C 0.98868 0.03508 0.35149 0.0
C25 C 0.01375 0.01143 0.36283 0.0
C26 C 0.98562 0.03055 0.32942 0.0
C27 C 0.95736 0.05263 0.31657 0.0
C28 C 0.95186 0.09229 0.31934 0.0
C29 C 0.92264 0.1116 0.30849 0.0
C30 C 0.89913 0.09201 0.29398 0.0
C31 C 0.90681 0.05295 0.29012 0.0
C32 C 0.93501 0.03345 0.30148 0.0
C33 C 0.06007 0.95206 0.31966 0.0
C34 C 0.04539 0.92693 0.30432 0.0
C35 C 0.06977 0.90089 0.29409 0.0
C36 C 0.10896 0.89921 0.29935 0.0
C37 C 0.12365 0.92456 0.31446 0.0
C38 C 0.09962 0.95111 0.32425 0.0
C39 C 0.03447 0.97947 0.33089 0.0
C40 C 0.00925 0.00309 0.31941 0.0
C41 C 0.03584 0.98328 0.35295 0.0
C42 C 0.05798 0.9569 0.3665 0.0
C43 C 0.0466 0.91847 0.36858 0.0
C44 C 0.06449 0.89481 0.38337 0.0
C45 C 0.09447 0.90914 0.39591 0.0
C46 C 0.10676 0.94718 0.39323 0.0
C47 C 0.0883 0.97104 0.37881 0.0
H48 H 0.99178 0.42486 0.5535 0.0
H49 H 0.95366 0.37777 0.53416 0.0
H50 H 0.84925 0.43409 0.5544 0.0
H51 H 0.88766 0.48118 0.57374 0.0
H52 H -1e-05 0.50192 0.55213 0.0
H53 H 0.95628 0.40939 0.60514 0.0
H54 H 0.91596 0.37389 0.62998 0.0
H55 H 0.85618 0.47879 0.6457 0.0
H56 H 0.89701 0.51407 0.62122 0.0
H57 H 0.98408 0.5866 0.63107 0.0
H58 H 0.02076 0.6189 0.65828 0.0
H59 H 0.12615 0.57384 0.63184 0.0
H60 H 0.08876 0.53918 0.60552 0.0
H61 H 0.97644 0.51501 0.62853 0.0
H62 H 0.01169 0.60812 0.57727 0.0
H63 H 0.05275 0.65117 0.55682 0.0
H64 H 0.12315 0.55513 0.538 0.0
H65 H 0.08126 0.51167 0.55821 0.0
C66 C 0.94259 0.45616 0.56532 0.0
C67 C 0.96071 0.42737 0.55354 0.0
C68 C 0.93884 0.40057 0.54242 0.0
C69 C 0.89837 0.40213 0.54279 0.0
C70 C 0.88032 0.43181 0.55404 0.0
C71 C 0.90224 0.45869 0.56511 0.0
C72 C 0.96587 0.48272 0.57835 0.0
C73 C 0.99517 0.50448 0.56889 0.0
C74 C 0.95885 0.48714 0.60005 0.0
C75 C 0.92976 0.46435 0.61152 0.0
C76 C 0.93378 0.42446 0.61354 0.0
C77 C 0.91065 0.40422 0.62769 0.0
C78 C 0.8833 0.4237 0.64001 0.0
C79 C 0.87749 0.46315 0.63671 0.0
C80 C 0.90066 0.48331 0.62268 0.0
C81 C 0.03351 0.5603 0.6162 0.0
C82 C 0.01514 0.58393 0.63099 0.0
C83 C 0.03632 0.60274 0.6465 0.0
C84 C 0.07658 0.59886 0.64748 0.0
C85 C 0.09516 0.57691 0.6319 0.0
C86 C 0.07382 0.55759 0.61653 0.0
C87 C 0.01014 0.53495 0.60237 0.0
C88 C 0.98117 0.51287 0.61173 0.0
C89 C 0.01696 0.53097 0.58058 0.0
C90 C 0.04357 0.55681 0.56928 0.0
C91 C 0.03609 0.59632 0.56887 0.0
C92 C 0.05937 0.6208 0.55713 0.0
C93 C 0.09084 0.60626 0.54583 0.0
C94 C 0.099 0.56685 0.54663 0.0
C95 C 0.07515 0.54215 0.55809 0.0
H96 H 0.50326 0.59249 0.87542 0.0
H97 H 0.46387 0.62795 0.90073 0.0
H98 H 0.36638 0.5564 0.8854 0.0
H99 H 0.40587 0.52136 0.85979 0.0
H100 H 0.51144 0.51013 0.88136 0.0
H101 H 0.47619 0.60299 0.83028 0.0
H102 H 0.43014 0.64325 0.81142 0.0
H103 H 0.37684 0.54163 0.78555 0.0
H104 H 0.42308 0.50155 0.80443 0.0
H105 H 0.51256 0.41058 0.81034 0.0
H106 H 0.55745 0.3694 0.79053 0.0
H107 H 0.65111 0.44462 0.80733 0.0
H108 H 0.60666 0.48496 0.82751 0.0
H109 H 0.50057 0.49459 0.80419 0.0
H110 H 0.54111 0.40235 0.85598 0.0
H111 H 0.57889 0.36528 0.88113 0.0
H112 H 0.62077 0.47089 0.9086 0.0
H113 H 0.58518 0.50739 0.88259 0.0
C114 C 0.45734 0.5545 0.86575 0.0
C115 C 0.47314 0.58514 0.87715 0.0
C116 C 0.45064 0.60536 0.89153 0.0
C117 C 0.4122 0.59471 0.89505 0.0
C118 C 0.39601 0.56498 0.88301 0.0
C119 C 0.41839 0.54517 0.86834 0.0
C120 C 0.48278 0.52913 0.85339 0.0
C121 C 0.50969 0.50716 0.86442 0.0
C122 C 0.47932 0.52478 0.83143 0.0
C123 C 0.45268 0.5492 0.81904 0.0
C124 C 0.4545 0.58937 0.82059 0.0
C125 C 0.42819 0.61238 0.80978 0.0
C126 C 0.39969 0.59569 0.79704 0.0
C127 C 0.39871 0.55546 0.79502 0.0
C128 C 0.42501 0.53247 0.80587 0.0
C129 C 0.55643 0.45066 0.82039 0.0
C130 C 0.5428 0.41801 0.80979 0.0
C131 C 0.56832 0.39453 0.7986 0.0
C132 C 0.60748 0.40409 0.79749 0.0
C133 C 0.62095 0.43686 0.808 0.0
C134 C 0.59568 0.45979 0.8195 0.0
C135 C 0.52986 0.47576 0.83223 0.0
C136 C 0.50261 0.49765 0.82111 0.0
C137 C 0.53346 0.48062 0.85419 0.0
C138 C 0.56042 0.45773 0.86727 0.0
C139 C 0.55949 0.41745 0.86695 0.0
C140 C 0.58062 0.39628 0.88163 0.0
C141 C 0.60266 0.41498 0.89714 0.0
C142 C 0.60466 0.4553 0.89681 0.0
C143 C 0.58398 0.47634 0.882 0.0
H144 H 0.4947 0.92525 0.05433 0.0
H145 H 0.45671 0.87655 0.03617 0.0
H146 H 0.35214 0.9303 0.05826 0.0
H147 H 0.39049 0.97857 0.07669 0.0
H148 H 0.4996 0.00301 0.05168 0.0
H149 H 0.47275 0.91185 0.10805 0.0
H150 H 0.43938 0.87315 0.13455 0.0
H151 H 0.36641 0.96978 0.1493 0.0
H152 H 0.40016 0.00841 0.123 0.0
H153 H 0.48872 0.09778 0.12491 0.0
H154 H 0.52569 0.13388 0.15083 0.0
H155 H 0.62781 0.07014 0.1339 0.0
H156 H 0.59067 0.03492 0.10745 0.0
H157 H 0.4823 0.01822 0.12852 0.0
H158 H 0.52312 0.11165 0.08043 0.0
H159 H 0.57074 0.15253 0.06338 0.0
H160 H 0.62047 0.05357 0.03309 0.0
H161 H 0.57387 0.01191 0.05119 0.0
C162 C 0.44548 0.9553 0.06702 0.0
C163 C 0.46359 0.92673 0.05509 0.0
C164 C 0.44175 0.899 0.04463 0.0
C165 C 0.40127 0.89946 0.04574 0.0
C166 C 0.38321 0.92872 0.05733 0.0
C167 C 0.4051 0.95638 0.06784 0.0
C168 C 0.46877 0.98341 0.07904 0.0
C169 C 0.49616 0.00612 0.06851 0.0
C170 C 0.46372 0.98813 0.10088 0.0
C171 C 0.43873 0.96285 0.11356 0.0
C172 C 0.4489 0.92432 0.11662 0.0
C173 C 0.43008 0.9024 0.13184 0.0
C174 C 0.40052 0.91862 0.14402 0.0
C175 C 0.38891 0.95653 0.14003 0.0
C176 C 0.40813 0.97859 0.12505 0.0
C177 C 0.53695 0.06363 0.11437 0.0
C178 C 0.51924 0.09216 0.12651 0.0
C179 C 0.54038 0.11256 0.1414 0.0
C180 C 0.57955 0.10437 0.14472 0.0
C181 C 0.59776 0.07727 0.13168 0.0
C182 C 0.57658 0.05705 0.1166 0.0
C183 C 0.513 0.03788 0.10129 0.0
C184 C 0.48556 0.01548 0.11163 0.0
C185 C 0.51829 0.03358 0.07938 0.0
C186 C 0.5455 0.05849 0.06761 0.0
C187 C 0.5446 0.09846 0.07045 0.0
C188 C 0.57162 0.12185 0.06062 0.0
C189 C 0.59938 0.10595 0.04723 0.0
C190 C 0.59938 0.06627 0.04351 0.0
C191 C 0.57273 0.04262 0.05375 0.0
H192 H 0.99275 0.59698 0.87869 0.0
H193 H 0.03077 0.63178 0.85263 0.0
H194 H 0.13127 0.56629 0.87022 0.0
H195 H 0.09296 0.53152 0.89633 0.0
H196 H 0.98737 0.51625 0.87366 0.0
H197 H 0.02253 0.60874 0.92619 0.0
H198 H 0.06965 0.64774 0.94516 0.0
H199 H 0.12435 0.54432 0.96782 0.0
H200 H 0.07688 0.50568 0.9491 0.0
H201 H 0.99195 0.4258 0.95154 0.0
H202 H 0.95042 0.37931 0.96972 0.0
H203 H 0.85166 0.4245 0.93701 0.0
H204 H 0.89231 0.4722 0.91993 0.0
H205 H 0.99918 0.49912 0.95065 0.0
H206 H 0.96861 0.40682 0.896 0.0
H207 H 0.93501 0.36881 0.86918 0.0
H208 H 0.8773 0.4712 0.84756 0.0
H209 H 0.91079 0.50886 0.87422 0.0
C210 C 0.04012 0.56184 0.88945 0.0
C211 C 0.02322 0.59089 0.87732 0.0
C212 C 0.04497 0.61076 0.86246 0.0
C213 C 0.08388 0.60148 0.85929 0.0
C214 C 0.10124 0.57373 0.87222 0.0
C215 C 0.07952 0.55414 0.88726 0.0
C216 C 0.01541 0.53564 0.90175 0.0
C217 C 0.98931 0.51299 0.89058 0.0
C218 C 0.0193 0.53054 0.92363 0.0
C219 C 0.04642 0.55427 0.93608 0.0
C220 C 0.04467 0.59452 0.9353 0.0
C221 C 0.07165 0.61678 0.94612 0.0
C222 C 0.10086 0.59922 0.95801 0.0
C223 C 0.10191 0.55887 0.95913 0.0
C224 C 0.07488 0.53667 0.94835 0.0
C225 C 0.94549 0.45205 0.93395 0.0
C226 C 0.96132 0.42593 0.9484 0.0
C227 C 0.93775 0.39928 0.95867 0.0
C228 C 0.89817 0.39803 0.95435 0.0
C229 C 0.8823 0.42446 0.9402 0.0
C230 C 0.90558 0.45158 0.93037 0.0
C231 C 0.97037 0.47975 0.9225 0.0
C232 C 0.99679 0.50252 0.93378 0.0
C233 C 0.96706 0.48495 0.90053 0.0
C234 C 0.94233 0.46068 0.88698 0.0
C235 C 0.948 0.42083 0.8858 0.0
C236 C 0.92883 0.39918 0.8705 0.0
C237 C 0.90404 0.41723 0.85612 0.0
C238 C 0.89678 0.4567 0.8582 0.0
C239 C 0.91578 0.4782 0.87345 0.0
H240 H 0.50172 0.58006 0.19672 0.0
H241 H 0.46353 0.62852 0.21495 0.0
H242 H 0.35915 0.57318 0.19373 0.0
H243 H 0.39769 0.52527 0.17517 0.0
H244 H 0.50644 0.50137 0.19995 0.0
H245 H 0.47972 0.5925 0.14346 0.0
H246 H 0.44493 0.63167 0.11766 0.0
H247 H 0.37173 0.53507 0.10323 0.0
H248 H 0.40691 0.49596 0.12879 0.0
H249 H 0.49433 0.40628 0.12639 0.0
H250 H 0.53124 0.37116 0.1 0.0
H251 H 0.63385 0.43258 0.11857 0.0
H252 H 0.59684 0.46678 0.14532 0.0
H253 H 0.48893 0.48544 0.12314 0.0
H254 H 0.51125 0.39542 0.18004 0.0
H255 H 0.55071 0.35106 0.20066 0.0
H256 H 0.63327 0.44124 0.212 0.0
H257 H 0.59291 0.4861 0.19169 0.0
C258 C 0.45258 0.54932 0.18443 0.0
C259 C 0.47061 0.57824 0.19614 0.0
C260 C 0.44867 0.60581 0.20665 0.0
C261 C 0.40817 0.60479 0.20583 0.0
C262 C 0.39021 0.57521 0.19444 0.0
C263 C 0.41221 0.54774 0.18386 0.0
C264 C 0.4759 0.52119 0.17248 0.0
C265 C 0.50296 0.49828 0.18311 0.0
C266 C 0.47079 0.51623 0.15066 0.0
C267 C 0.44572 0.54147 0.13801 0.0
C268 C 0.45562 0.5801 0.13506 0.0
C269 C 0.43595 0.6023 0.12028 0.0
C270 C 0.40582 0.58626 0.10845 0.0
C271 C 0.39465 0.54817 0.11227 0.0
C272 C 0.41472 0.52583 0.12679 0.0
C273 C 0.54287 0.43903 0.13781 0.0
C274 C 0.52498 0.41142 0.1251 0.0
C275 C 0.54606 0.3917 0.10988 0.0
C276 C 0.58538 0.39958 0.10689 0.0
C277 C 0.60371 0.42562 0.12052 0.0
C278 C 0.5826 0.44516 0.13587 0.0
C279 C 0.51914 0.46553 0.15054 0.0
C280 C 0.49224 0.48839 0.14002 0.0
C281 C 0.52445 0.47033 0.17235 0.0
C282 C 0.54924 0.4439 0.18441 0.0
C283 C 0.53779 0.40566 0.187 0.0
C284 C 0.56022 0.38047 0.19881 0.0
C285 C 0.5948 0.39294 0.20797 0.0
C286 C 0.60667 0.4311 0.20509 0.0
C287 C 0.58371 0.45661 0.19358 0.0
H288 H 0.49922 0.90659 0.38199 0.0
H289 H 0.46115 0.8722 0.35571 0.0
H290 H 0.36431 0.94629 0.36856 0.0
H291 H 0.40262 0.98039 0.39511 0.0
H292 H 0.50735 0.99109 0.37535 0.0
H293 H 0.4752 0.89594 0.42703 0.0
H294 H 0.43083 0.85504 0.44662 0.0
H295 H 0.37259 0.95614 0.46995 0.0
H296 H 0.41783 0.99668 0.45079 0.0
H297 H 0.51645 0.083 0.45087 0.0
H298 H 0.56566 0.11905 0.47056 0.0
H299 H 0.65349 0.04406 0.44565 0.0
H300 H 0.60464 0.00851 0.42618 0.0
H301 H 0.49906 0.00129 0.45289 0.0
H302 H 0.53591 0.09624 0.40051 0.0
H303 H 0.57199 0.13321 0.37434 0.0
H304 H 0.62179 0.02815 0.35066 0.0
H305 H 0.5854 0.9915 0.37655 0.0
C306 C 0.45357 0.94577 0.39052 0.0
C307 C 0.46945 0.91469 0.37954 0.0
C308 C 0.44768 0.89511 0.36456 0.0
C309 C 0.40987 0.90676 0.36003 0.0
C310 C 0.39349 0.93693 0.37167 0.0
C311 C 0.41515 0.95617 0.38692 0.0
C312 C 0.4789 0.97082 0.40313 0.0
C313 C 0.50586 0.99305 0.39234 0.0
C314 C 0.47605 0.97395 0.42517 0.0
C315 C 0.44948 0.9493 0.4373 0.0
C316 C 0.45282 0.9092 0.43638 0.0
C317 C 0.4274 0.88587 0.44758 0.0
C318 C 0.39803 0.9022 0.45988 0.0
C319 C 0.39523 0.94249 0.46097 0.0
C320 C 0.42086 0.96578 0.44989 0.0
C321 C 0.55704 0.04327 0.43704 0.0
C322 C 0.54634 0.07443 0.44974 0.0
C323 C 0.57437 0.09503 0.46086 0.0
C324 C 0.61327 0.08413 0.45971 0.0
C325 C 0.62368 0.05278 0.44704 0.0
C326 C 0.59586 0.03262 0.4358 0.0
C327 C 0.52808 0.02126 0.42503 0.0
C328 C 0.50038 -0.0004 0.4359 0.0
C329 C 0.53053 0.01814 0.40298 0.0
C330 C 0.55776 0.04113 0.3903 0.0
C331 C 0.55539 0.08135 0.39002 0.0
C332 C 0.57601 0.10242 0.37508 0.0
C333 C 0.59914 0.08346 0.36023 0.0
C334 C 0.60355 0.04345 0.36163 0.0
C335 C 0.58294 0.0225 0.37645 0.0
H336 H 0.00635 0.06637 0.70473 0.0
H337 H 0.97207 0.11582 0.72409 0.0
H338 H 0.86643 0.08371 0.69269 0.0
H339 H 0.90023 0.0318 0.67503 0.0
H340 H 0.00865 0.9944 0.70164 0.0
H341 H 0.98034 0.09261 0.64796 0.0
H342 H 0.9452 0.13318 0.62295 0.0
H343 H 0.875 0.03608 0.60533 0.0
H344 H 0.91028 0.9958 0.63019 0.0
H345 H 0.00308 0.90575 0.62639 0.0
H346 H 0.04358 0.8722 0.60073 0.0
H347 H 0.13979 0.94397 0.61794 0.0
H348 H 0.0994 0.9768 0.64405 0.0
H349 H 0.99228 0.98855 0.62435 0.0
H350 H 0.03344 0.88998 0.66887 0.0
H351 H 0.08074 0.84724 0.68471 0.0
H352 H 0.12939 0.94248 0.71893 0.0
H353 H 0.08299 0.98604 0.7021 0.0
C354 C 0.95623 0.04586 0.68791 0.0
C355 C 0.97564 0.06942 0.70231 0.0
C356 C 0.95599 0.09819 0.71319 0.0
C357 C 0.91649 0.10467 0.70964 0.0
C358 C 0.89674 0.07979 0.69595 0.0
C359 C 0.91628 0.0504 0.68546 0.0
C360 C 0.97814 0.01773 0.67497 0.0
C361 C 0.0053 0.99348 0.68473 0.0
C362 C 0.97316 0.01533 0.65293 0.0
C363 C 0.94774 0.04133 0.64092 0.0
C364 C 0.95674 0.0804 0.63906 0.0
C365 C 0.93687 0.10341 0.62471 0.0
C366 C 0.9075 0.0877 0.61216 0.0
C367 C 0.89721 0.04905 0.61493 0.0
C368 C 0.91739 0.026 0.62906 0.0
C369 C 0.04841 0.94349 0.63713 0.0
C370 C 0.03308 0.91373 0.62488 0.0
C371 C 0.05618 0.89459 0.61033 0.0
C372 C 0.09466 0.90564 0.60745 0.0
C373 C 0.11016 0.93505 0.61994 0.0
C374 C 0.08725 0.95363 0.63484 0.0
C375 C 0.02299 0.96628 0.65093 0.0
C376 C 0.9953 0.98939 0.64132 0.0
C377 C 0.02778 0.96763 0.67295 0.0
C378 C 0.0552 0.94151 0.6838 0.0
C379 C 0.05474 0.90201 0.6794 0.0
C380 C 0.08171 0.87754 0.6885 0.0
C381 C 0.10909 0.89177 0.70271 0.0
C382 C 0.10874 0.93097 0.70785 0.0
C383 C 0.08215 0.95574 0.69834 0.0
In384 In 0.30699 0.69312 0.00205 0.0
O385 O 0.29649 0.75044 0.01908 0.0
O386 O 0.34335 0.74664 0.99789 0.0
C387 C 0.23288 0.67561 0.99327 0.0
C388 C 0.33838 0.66131 0.03665 0.0
C389 C 0.33797 0.66191 0.96718 0.0
O390 O 0.24959 0.70403 0.98505 0.0
O391 O 0.25288 0.65762 0.00647 0.0
O392 O 0.33049 0.64242 0.98335 0.0
O393 O 0.33012 0.69714 0.96865 0.0
C394 C 0.32531 0.76679 0.01101 0.0
O395 O 0.35776 0.66863 0.02039 0.0
O396 O 0.30317 0.66977 0.0354 0.0
In397 In 0.30924 0.80812 0.25145 0.0
O398 O 0.30022 0.75078 0.23413 0.0
O399 O 0.34832 0.75622 0.25437 0.0
C400 C 0.23454 0.81992 0.26147 0.0
C401 C 0.33801 0.84327 0.21712 0.0
C402 C 0.33932 0.84005 0.28645 0.0
O403 O 0.25483 0.79478 0.27044 0.0
O404 O 0.2513 0.83744 0.24683 0.0
O405 O 0.32972 0.85977 0.27067 0.0
O406 O 0.33415 0.80444 0.28443 0.0
C407 C 0.33026 0.73554 0.24152 0.0
O408 O 0.35851 0.8349 0.23283 0.0
O409 O 0.30298 0.83444 0.21886 0.0
In410 In 0.19533 0.80234 0.5012 0.0
O411 O 0.17348 0.85442 0.51942 0.0
O412 O 0.18171 0.80233 0.53617 0.0
C413 C 0.16134 0.8299 0.4662 0.0
C414 C 0.17253 0.72883 0.50627 0.0
C415 C 0.2701 0.82044 0.49548 0.0
O416 O 0.1442 0.82825 0.48363 0.0
O417 O 0.19529 0.81721 0.46637 0.0
O418 O 0.25466 0.79174 0.48676 0.0
O419 O 0.24851 0.83828 0.50803 0.0
C420 C 0.17111 0.83691 0.53671 0.0
O421 O 0.2043 0.74089 0.51331 0.0
O422 O 0.15393 0.75312 0.49572 0.0
In423 In 0.19595 0.69265 0.7521 0.0
O424 O 0.17382 0.6429 0.77209 0.0
O425 O 0.16222 0.6994 0.78268 0.0
C426 C 0.15726 0.66058 0.71968 0.0
C427 C 0.27015 0.67611 0.7616 0.0
C428 C 0.19031 0.76677 0.73999 0.0
O429 O 0.1428 0.68609 0.7313 0.0
O430 O 0.19081 0.65036 0.72476 0.0
O431 O 0.20829 0.74197 0.72938 0.0
O432 O 0.17767 0.75473 0.75731 0.0
C433 C 0.15913 0.66393 0.78605 0.0
O434 O 0.2501 0.69892 0.77239 0.0
O435 O 0.2536 0.66368 0.74538 0.0
In436 In 0.81405 0.191 0.50332 0.0
O437 O 0.80143 0.24791 0.52011 0.0
O438 O 0.84263 0.24804 0.49564 0.0
C439 C 0.74379 0.16133 0.49571 0.0
C440 C 0.84283 0.16228 0.53943 0.0
C441 C 0.84925 0.16511 0.46831 0.0
O442 O 0.75064 0.19675 0.49357 0.0
O443 O 0.7719 0.14173 0.50213 0.0
O444 O 0.86035 0.15647 0.48657 0.0
O445 O 0.82047 0.18715 0.46763 0.0
C446 C 0.82595 0.26683 0.50985 0.0
O447 O 0.86385 0.17276 0.52435 0.0
O448 O 0.80719 0.16609 0.5363 0.0
In449 In 0.80738 0.3097 0.74922 0.0
O450 O 0.83217 0.35948 0.73118 0.0
O451 O 0.80757 0.314 0.71326 0.0
C452 C 0.84157 0.33926 0.78371 0.0
C453 C 0.83981 0.24077 0.74114 0.0
C454 C 0.73264 0.32626 0.75749 0.0
O455 O 0.84449 0.35377 0.76569 0.0
O456 O 0.8218 0.30893 0.78447 0.0
O457 O 0.74978 0.29857 0.76615 0.0
O458 O 0.75233 0.34346 0.74389 0.0
C459 C 0.82457 0.3461 0.71324 0.0
O460 O 0.80376 0.24554 0.74061 0.0
O461 O 0.8587 0.27013 0.74629 0.0
In462 In 0.70128 0.3023 0.00227 0.0
O463 O 0.70732 0.24998 0.02348 0.0
O464 O 0.67702 0.24262 0.99492 0.0
C465 C 0.77587 0.31418 0.99229 0.0
C466 C 0.66604 0.33696 0.03509 0.0
C467 C 0.66967 0.33673 0.96849 0.0
O468 O 0.75515 0.29008 0.98273 0.0
O469 O 0.75962 0.33039 0.0076 0.0
O470 O 0.69456 0.35282 0.97994 0.0
O471 O 0.65998 0.30348 0.97433 0.0
C472 C 0.68769 0.22793 0.01203 0.0
O473 O 0.64919 0.33005 0.01798 0.0
O474 O 0.70097 0.32729 0.03552 0.0
In475 In 0.69152 0.19252 0.25279 0.0
O476 O 0.65624 0.14786 0.26964 0.0
O477 O 0.6799 0.19266 0.28832 0.0
C478 C 0.65805 0.16565 0.21751 0.0
C479 C 0.76319 0.16526 0.25965 0.0
C480 C 0.67345 0.26707 0.24661 0.0
O481 O 0.64068 0.16901 0.23477 0.0
O482 O 0.69295 0.17576 0.21788 0.0
O483 O 0.70199 0.25147 0.23779 0.0
O484 O 0.65602 0.24581 0.25946 0.0
C485 C 0.66035 0.16208 0.28771 0.0
O486 O 0.75472 0.19995 0.26314 0.0
O487 O 0.73639 0.14566 0.25178 0.0
C488 C 0.14274 0.87674 0.26707 0.0
C489 C 0.13551 0.87262 0.2886 0.0
H490 H 0.18021 0.86291 0.24144 0.0
C491 C 0.15753 0.84656 0.30035 0.0
H492 H 0.12621 0.8969 0.25778 0.0
C493 C 0.18787 0.82658 0.29097 0.0
C494 C 0.19719 0.83309 0.26982 0.0
H495 H 0.15237 0.84304 0.31701 0.0
H496 H 0.20568 0.80823 0.30066 0.0
C497 C 0.1736 0.85737 0.25777 0.0
C498 C 0.09619 0.65531 0.51768 0.0
C499 C 0.11422 0.63267 0.53297 0.0
H500 H 0.10104 0.70277 0.49669 0.0
C501 C 0.15346 0.63823 0.53723 0.0
H502 H 0.066 0.65124 0.51405 0.0
C503 C 0.17361 0.66809 0.52744 0.0
C504 C 0.15479 0.69239 0.51311 0.0
H505 H 0.16786 0.62102 0.54901 0.0
H506 H 0.2032 0.67339 0.53192 0.0
C507 C 0.11634 0.68468 0.50771 0.0
C508 C 0.35684 0.61125 0.76637 0.0
C509 C 0.36987 0.61986 0.78674 0.0
H510 H 0.31552 0.62285 0.74226 0.0
C511 C 0.3525 0.65032 0.79772 0.0
H512 H 0.37005 0.58842 0.75735 0.0
C513 C 0.32145 0.67028 0.789 0.0
C514 C 0.30714 0.66021 0.76912 0.0
H515 H 0.36162 0.65755 0.8135 0.0
H516 H 0.30756 0.69238 0.79826 0.0
C517 C 0.32583 0.63122 0.75765 0.0
C518 C 0.34628 0.85239 0.0457 0.0
C519 C 0.37832 0.8686 0.0355 0.0
H520 H 0.30393 0.80764 0.04578 0.0
C521 C 0.38966 0.8535 0.01599 0.0
H522 H 0.3369 0.86308 0.06082 0.0
C523 C 0.37097 0.8216 0.0075 0.0
C524 C 0.34029 0.80422 0.01823 0.0
H525 H 0.41362 0.86579 0.00746 0.0
H526 H 0.38141 0.80977 0.99284 0.0
C527 C 0.32737 0.82058 0.0371 0.0
C528 C 0.14756 0.65446 0.95828 0.0
C529 C 0.13122 0.62254 0.96847 0.0
H530 H 0.19237 0.69675 0.95832 0.0
C531 C 0.14594 0.61152 0.98812 0.0
H532 H 0.13715 0.66358 0.94306 0.0
C533 C 0.1777 0.63034 0.99674 0.0
C534 C 0.19532 0.6608 0.986 0.0
H535 H 0.13352 0.58766 0.99663 0.0
H536 H 0.18931 0.62008 0.0115 0.0
C537 C 0.17924 0.67348 0.967 0.0
C538 C 0.35225 0.65081 0.20639 0.0
C539 C 0.38503 0.6353 0.21625 0.0
H540 H 0.30879 0.6945 0.20683 0.0
C541 C 0.39677 0.65065 0.23564 0.0
H542 H 0.34255 0.63992 0.19137 0.0
C543 C 0.37765 0.68209 0.24435 0.0
C544 C 0.34611 0.6987 0.23398 0.0
H545 H 0.4213 0.63888 0.24392 0.0
H546 H 0.38833 0.69411 0.25892 0.0
C547 C 0.33289 0.68213 0.21522 0.0
C548 C 0.35402 0.88833 0.4903 0.0
C549 C 0.36921 0.87754 0.4707 0.0
H550 H 0.31101 0.87827 0.51371 0.0
C551 C 0.35472 0.84437 0.46086 0.0
H552 H 0.36509 0.91313 0.49859 0.0
C553 C 0.32424 0.82392 0.46977 0.0
C554 C 0.30738 0.83641 0.48861 0.0
H555 H 0.36544 0.83532 0.44569 0.0
H556 H 0.3124 0.79974 0.46125 0.0
C557 C 0.32331 0.8681 0.4991 0.0
C558 C 0.13822 0.86125 0.73452 0.0
C559 C 0.13663 0.86488 0.7126 0.0
H560 H 0.15697 0.82705 0.76054 0.0
C561 C 0.15811 0.83954 0.70007 0.0
H562 H 0.1218 0.8804 0.74449 0.0
C563 C 0.17871 0.80946 0.70922 0.0
C564 C 0.17761 0.80378 0.73104 0.0
H565 H 0.1575 0.84199 0.68312 0.0
H566 H 0.19319 0.78911 0.69907 0.0
C567 C 0.15833 0.83075 0.74367 0.0
C568 C 0.65325 0.39734 0.76779 0.0
C569 C 0.63466 0.38082 0.78507 0.0
H570 H 0.69806 0.3923 0.74505 0.0
C571 C 0.64514 0.3438 0.79159 0.0
H572 H 0.64548 0.42587 0.76253 0.0
C573 C 0.6757 0.32461 0.78177 0.0
C574 C 0.69575 0.34208 0.76516 0.0
H575 H 0.63114 0.33069 0.80497 0.0
H576 H 0.68476 0.297 0.78781 0.0
C577 C 0.68324 0.37801 0.75779 0.0
C578 C 0.62715 0.13812 0.01563 0.0
C579 C 0.62795 0.13147 0.03734 0.0
H580 H 0.64593 0.17422 0.99038 0.0
C581 C 0.65287 0.15302 0.05003 0.0
H582 H 0.60792 0.12185 0.00562 0.0
C583 C 0.67501 0.18241 0.04136 0.0
C584 C 0.67197 0.19127 0.0199 0.0
H585 H 0.65387 0.14825 0.06683 0.0
H586 H 0.69248 0.19981 0.05175 0.0
C587 C 0.64886 0.16802 0.00697 0.0
C588 C 0.86515 0.15105 0.27968 0.0
C589 C 0.86544 0.11127 0.28383 0.0
H590 H 0.83245 0.19961 0.26889 0.0
C591 C 0.83225 0.08988 0.27894 0.0
H592 H 0.8902 0.16855 0.28285 0.0
C593 C 0.79998 0.10746 0.27026 0.0
C594 C 0.79935 0.14717 0.26674 0.0
H595 H 0.8304 0.05955 0.28241 0.0
H596 H 0.77484 0.09001 0.2671 0.0
C597 C 0.83223 0.16889 0.27147 0.0
C598 C 0.84401 0.35472 0.5431 0.0
C599 C 0.8754 0.37139 0.53258 0.0
H600 H 0.80328 0.30862 0.54398 0.0
C601 C 0.88665 0.35627 0.51307 0.0
H602 H 0.83476 0.36554 0.55822 0.0
C603 C 0.86866 0.32364 0.50495 0.0
C604 C 0.83904 0.30547 0.51617 0.0
H605 H 0.91025 0.36891 0.5044 0.0
H606 H 0.87922 0.31164 0.49036 0.0
C607 C 0.82598 0.32206 0.53496 0.0
C608 C 0.64651 0.14523 0.47025 0.0
C609 C 0.64347 0.10508 0.47147 0.0
H610 H 0.68097 0.19485 0.47704 0.0
C611 C 0.67142 0.08444 0.48266 0.0
H612 H 0.62534 0.16178 0.46165 0.0
C613 C 0.70295 0.10321 0.49146 0.0
C614 C 0.70735 0.14305 0.48918 0.0
H615 H 0.66944 0.05353 0.48412 0.0
H616 H 0.72464 0.0862 0.49938 0.0
C617 C 0.67833 0.1641 0.479 0.0
C618 C 0.91703 0.17315 0.72203 0.0
C619 C 0.89675 0.13861 0.71912 0.0
H620 H 0.9151 0.23189 0.73148 0.0
C621 C 0.85737 0.13763 0.72442 0.0
H622 H 0.94702 0.17564 0.71768 0.0
C623 C 0.83869 0.1706 0.73188 0.0
C624 C 0.85915 0.20498 0.73453 0.0
H625 H 0.84083 0.1115 0.72276 0.0
H626 H 0.80826 0.16923 0.73548 0.0
C627 C 0.89859 0.2057 0.72981 0.0
C628 C 0.85051 0.34467 0.95297 0.0
C629 C 0.8726 0.37035 0.96494 0.0
H630 H 0.80313 0.30547 0.95254 0.0
C631 C 0.86642 0.37288 0.98665 0.0
H632 H 0.85489 0.34237 0.93618 0.0
C633 C 0.83644 0.35227 0.99598 0.0
C634 C 0.81271 0.32836 0.98378 0.0
H635 H 0.88305 0.39271 0.99611 0.0
H636 H 0.83055 0.35661 0.01251 0.0
C637 C 0.82108 0.32347 0.96237 0.0
C638 C 0.60088 0.34529 0.2369 0.0
C639 C 0.61804 0.36558 0.22037 0.0
H640 H 0.60559 0.29892 0.25864 0.0
C641 C 0.65595 0.3567 0.21449 0.0
H642 H 0.57175 0.35187 0.24178 0.0
C643 C 0.67532 0.326 0.22398 0.0
C644 C 0.65717 0.30416 0.23967 0.0
H645 H 0.66968 0.37198 0.20172 0.0
H646 H 0.70365 0.3182 0.21832 0.0
C647 C 0.62036 0.3151 0.24658 0.0
C648 C 0.15123 0.88017 0.414 0.0
C649 C 0.11129 0.88556 0.41281 0.0
H650 H 0.19835 0.85747 0.43176 0.0
C651 C 0.08765 0.87075 0.42872 0.0
H652 H 0.16993 0.89142 0.40188 0.0
C653 C 0.10386 0.85206 0.44599 0.0
C654 C 0.14389 0.84723 0.44738 0.0
H655 H 0.05677 0.87491 0.42817 0.0
H656 H 0.08515 0.84181 0.45837 0.0
C657 C 0.16738 0.86074 0.43103 0.0
C658 C 0.08688 0.65051 0.67468 0.0
C659 C 0.09855 0.61571 0.6654 0.0
H660 H 0.09591 0.69157 0.69924 0.0
C661 C 0.13024 0.59615 0.67411 0.0
H662 H 0.06319 0.66687 0.66824 0.0
C663 C 0.14949 0.61084 0.69165 0.0
C664 C 0.1371 0.64504 0.70112 0.0
H665 H 0.13971 0.56894 0.66774 0.0
H666 H 0.17364 0.59502 0.69804 0.0
C667 C 0.1057 0.6648 0.69244 0.0
C668 C 0.38945 0.65227 0.91513 0.0
C669 C 0.39045 0.61226 0.91255 0.0
H670 H 0.37151 0.69941 0.93439 0.0
C671 C 0.3729 0.58879 0.92768 0.0
H672 H 0.40278 0.67093 0.90365 0.0
C673 C 0.35562 0.60496 0.94539 0.0
C674 C 0.35506 0.64493 0.94812 0.0
H675 H 0.37369 0.55783 0.92617 0.0
H676 H 0.34295 0.58615 0.95702 0.0
C677 C 0.37158 0.66849 0.93267 0.0
C678 C 0.40876 0.88051 0.17693 0.0
C679 C 0.38417 0.89742 0.16206 0.0
H680 H 0.4134 0.85061 0.20618 0.0
C681 C 0.34423 0.89589 0.16526 0.0
H682 H 0.4397 0.88173 0.17497 0.0
C683 C 0.32916 0.87782 0.18304 0.0
C684 C 0.35382 0.86161 0.19811 0.0
H685 H 0.32469 0.90871 0.15401 0.0
H686 H 0.29824 0.8771 0.18515 0.0
C687 C 0.39374 0.86301 0.19486 0.0
C688 C 0.10263 0.6575 0.83674 0.0
C689 C 0.10506 0.61813 0.84127 0.0
H690 H 0.11808 0.70294 0.81574 0.0
C691 C 0.12584 0.5941 0.82765 0.0
H692 H 0.08686 0.67667 0.84701 0.0
C693 C 0.14329 0.60899 0.80968 0.0
C694 C 0.14062 0.64829 0.80506 0.0
H695 H 0.12771 0.56354 0.83057 0.0
H696 H 0.15878 0.58969 0.79937 0.0
C697 C 0.12046 0.67249 0.81887 0.0
C698 C 0.34812 0.60948 0.08854 0.0
C699 C 0.38825 0.60789 0.09092 0.0
H700 H 0.3008 0.62819 0.06955 0.0
C701 C 0.41181 0.625 0.07566 0.0
H702 H 0.32939 0.59651 0.10012 0.0
C703 C 0.39557 0.64253 0.05805 0.0
C704 C 0.35545 0.64378 0.05555 0.0
H705 H 0.44286 0.62376 0.07702 0.0
H706 H 0.41443 0.65491 0.04634 0.0
C707 C 0.33184 0.6276 0.07109 0.0
C708 C 0.37186 0.91303 0.3268 0.0
C709 C 0.38905 0.88945 0.34205 0.0
H710 H 0.34304 0.91588 0.29708 0.0
C711 C 0.38864 0.8495 0.33918 0.0
H712 H 0.37219 0.94395 0.32849 0.0
C713 C 0.37185 0.83345 0.32127 0.0
C714 C 0.35563 0.85708 0.30574 0.0
H715 H 0.40158 0.83069 0.35073 0.0
H716 H 0.37225 0.80256 0.31941 0.0
C717 C 0.35549 0.897 0.30875 0.0
C718 C 0.13357 0.91136 0.57471 0.0
C719 C 0.11756 0.88815 0.59044 0.0
H720 H 0.16281 0.91318 0.54511 0.0
C721 C 0.12125 0.84814 0.58901 0.0
H722 H 0.13075 0.94229 0.57544 0.0
C723 C 0.1401 0.83154 0.5719 0.0
C724 C 0.15477 0.85468 0.55572 0.0
H725 H 0.10909 0.82976 0.601 0.0
H726 H 0.14197 0.80056 0.57098 0.0
C727 C 0.15169 0.89473 0.55736 0.0
C728 C 0.6563 0.40567 0.92327 0.0
C729 C 0.62139 0.39302 0.91444 0.0
H730 H 0.69859 0.39807 0.94737 0.0
C731 C 0.60332 0.36058 0.92318 0.0
H732 H 0.67154 0.42997 0.91675 0.0
C733 C 0.61936 0.34182 0.94051 0.0
C734 C 0.65345 0.35543 0.94968 0.0
H735 H 0.57612 0.3503 0.9171 0.0
H736 H 0.6045 0.31728 0.94706 0.0
C737 C 0.67194 0.3873 0.9408 0.0
C738 C 0.63872 0.13305 0.16159 0.0
C739 C 0.60004 0.12137 0.16297 0.0
H740 H 0.68758 0.15647 0.17781 0.0
C741 C 0.581 0.12461 0.18235 0.0
H742 H 0.65413 0.13105 0.14686 0.0
C743 C 0.59995 0.13919 0.19989 0.0
C744 C 0.63854 0.15076 0.19858 0.0
H745 H 0.55152 0.11507 0.18414 0.0
H746 H 0.58434 0.14102 0.21457 0.0
C747 C 0.65781 0.14768 0.17926 0.0
C748 C 0.92247 0.11733 0.43319 0.0
C749 C 0.90517 0.12046 0.41331 0.0
H750 H 0.91821 0.12874 0.46609 0.0
C751 C 0.86922 0.1386 0.41157 0.0
H752 H 0.94991 0.10296 0.43504 0.0
C753 C 0.85113 0.1537 0.42941 0.0
C754 C 0.86844 0.15025 0.44929 0.0
H755 H 0.85531 0.14136 0.39643 0.0
H756 H 0.82345 0.16762 0.42769 0.0
C757 C 0.90422 0.13188 0.45098 0.0
C758 C 0.86369 0.42297 0.67764 0.0
C759 C 0.86468 0.40434 0.65808 0.0
H760 H 0.8502 0.41917 0.71025 0.0
C761 C 0.85037 0.3667 0.65651 0.0
H762 H 0.87511 0.45169 0.6795 0.0
C763 C 0.83598 0.34791 0.6743 0.0
C764 C 0.83618 0.36635 0.69393 0.0
H765 H 0.85071 0.3517 0.64161 0.0
H766 H 0.82576 0.31868 0.6728 0.0
C767 C 0.84969 0.40419 0.69533 0.0
C768 C 0.61132 0.08855 0.32179 0.0
C769 C 0.61528 0.10435 0.34197 0.0
H770 H 0.62213 0.0945 0.28902 0.0
C771 C 0.63357 0.1401 0.34425 0.0
H772 H 0.59662 0.06147 0.31945 0.0
C773 C 0.64824 0.15927 0.32663 0.0
C774 C 0.64443 0.14311 0.30651 0.0
H775 H 0.63694 0.15295 0.35963 0.0
H776 H 0.6626 0.18658 0.32877 0.0
C777 C 0.62567 0.10768 0.30431 0.0
C778 C 0.91403 0.13004 0.58071 0.0
C779 C 0.89021 0.11014 0.5948 0.0
H780 H 0.9177 0.16183 0.55205 0.0
C781 C 0.85035 0.10923 0.59111 0.0
H782 H 0.94491 0.1308 0.58302 0.0
C783 C 0.83474 0.12714 0.57341 0.0
C784 C 0.85879 0.1458 0.55893 0.0
H785 H 0.83134 0.09419 0.60177 0.0
H786 H 0.80399 0.12547 0.57076 0.0
C787 C 0.8985 0.14751 0.56289 0.0
C788 C 0.87125 0.35989 0.83996 0.0
C789 C 0.88851 0.39613 0.83779 0.0
H790 H 0.84241 0.31331 0.82443 0.0
C791 C 0.89133 0.41256 0.81773 0.0
H792 H 0.86879 0.34661 0.85527 0.0
C793 C 0.87664 0.39359 0.80024 0.0
C794 C 0.85861 0.35778 0.80237 0.0
H795 H 0.90515 0.44012 0.81553 0.0
H796 H 0.87909 0.40729 0.78504 0.0
C797 C 0.85617 0.34093 0.82237 0.0
C798 C 0.64491 0.3713 0.09038 0.0
C799 C 0.60629 0.38296 0.08864 0.0
H800 H 0.69418 0.34771 0.07477 0.0
C801 C 0.58789 0.37988 0.06903 0.0
H802 H 0.65986 0.37304 0.10527 0.0
C803 C 0.60744 0.36523 0.05165 0.0
C804 C 0.64593 0.35351 0.05341 0.0
H805 H 0.55846 0.38938 0.06697 0.0
H806 H 0.59236 0.36318 0.0368 0.0
C807 C 0.66454 0.35675 0.07292 0.0
loop_
_geom_bond_atom_site_label_1
_geom_bond_atom_site_label_2
_geom_bond_distance
_geom_bond_site_symmetry_2
_ccdc_geom_bond_type
H0 C19 0.949 . S
H1 C20 0.950 . S
H2 C22 0.950 . S
H3 C23 0.950 . S
H4 C25 0.950 . S
H5 C28 0.950 . S
H6 C29 0.950 . S
H7 C31 0.951 . S
H8 C32 0.949 1_565 S
H9 C34 0.949 . S
H10 C35 0.950 . S
H11 C37 0.950 . S
H12 C38 0.950 . S
H13 C40 0.950 . S
H14 C43 0.950 . S
H15 C44 0.950 . S
H16 C46 0.951 . S
H17 C47 0.949 1_545 S
C18 C19 1.376 . S
C18 C23 1.386 . S
C18 C24 1.483 . S
C19 H0 0.949 . S
C19 C18 1.376 . S
C19 C20 1.397 . S
C20 H1 0.950 . S
C20 C19 1.397 . S
C20 C21 1.391 . S
C21 C20 1.391 . S
C21 C22 1.405 . S
C22 H2 0.950 . S
C22 C21 1.405 . S
C22 C23 1.367 . S
C23 H3 0.950 . S
C23 C18 1.386 . S
C23 C22 1.367 . S
C24 C18 1.483 . S
C24 C25 1.382 1_655 S
C24 C26 1.403 . S
C25 H4 0.950 . S
C25 C24 1.382 1_455 S
C25 C41 1.411 1_545 S
C26 C24 1.403 . S
C26 C27 1.489 . S
C26 C40 1.411 1_545 S
C27 C26 1.489 . S
C27 C28 1.383 . S
C27 C32 1.382 . S
C28 H5 0.950 . S
C28 C27 1.383 . S
C28 C29 1.395 . S
C29 H6 0.950 . S
C29 C28 1.395 . S
C29 C30 1.288 . S
C30 C29 1.288 . S
C30 C31 1.392 . S
C31 H7 0.951 . S
C31 C30 1.392 . S
C31 C32 1.392 . S
C32 H8 0.949 1_545 S
C32 C27 1.382 . S
C32 C31 1.392 . S
C33 C34 1.376 . S
C33 C38 1.386 . S
C33 C39 1.483 . S
C34 H9 0.949 . S
C34 C33 1.376 . S
C34 C35 1.397 . S
C35 H10 0.950 . S
C35 C34 1.397 . S
C35 C36 1.391 . S
C36 C35 1.391 . S
C36 C37 1.405 . S
C37 H11 0.950 . S
C37 C36 1.405 . S
C37 C38 1.367 . S
C38 H12 0.950 . S
C38 C33 1.386 . S
C38 C37 1.367 . S
C39 C33 1.483 . S
C39 C40 1.382 1_455 S
C39 C41 1.403 . S
C40 H13 0.950 . S
C40 C26 1.411 1_565 S
C40 C39 1.382 1_655 S
C41 C25 1.411 1_565 S
C41 C39 1.403 . S
C41 C42 1.489 . S
C42 C41 1.489 . S
C42 C43 1.383 . S
C42 C47 1.382 . S
C43 H14 0.950 . S
C43 C42 1.383 . S
C43 C44 1.395 . S
C44 H15 0.950 . S
C44 C43 1.395 . S
C44 C45 1.288 . S
C45 C44 1.288 . S
C45 C46 1.392 . S
C46 H16 0.951 . S
C46 C45 1.392 . S
C46 C47 1.392 . S
C47 H17 0.949 1_565 S
C47 C42 1.382 . S
C47 C46 1.392 . S
H48 C67 0.949 1_455 S
H49 C68 0.950 . S
H50 C70 0.950 . S
H51 C71 0.950 . S
H52 C73 0.950 . S
H53 C76 0.950 . S
H54 C77 0.950 . S
H55 C79 0.951 . S
H56 C80 0.949 . S
H57 C82 0.949 1_655 S
H58 C83 0.950 . S
H59 C85 0.950 . S
H60 C86 0.950 . S
H61 C88 0.950 . S
H62 C91 0.950 . S
H63 C92 0.950 . S
H64 C94 0.951 . S
H65 C95 0.949 . S
C66 C67 1.376 . S
C66 C71 1.386 . S
C66 C72 1.483 . S
C67 H48 0.949 1_655 S
C67 C66 1.376 . S
C67 C68 1.397 . S
C68 H49 0.950 . S
C68 C67 1.397 . S
C68 C69 1.391 . S
C69 C68 1.391 . S
C69 C70 1.405 . S
C70 H50 0.950 . S
C70 C69 1.405 . S
C70 C71 1.367 . S
C71 H51 0.950 . S
C71 C66 1.386 . S
C71 C70 1.367 . S
C72 C66 1.483 . S
C72 C73 1.382 1_655 S
C72 C74 1.403 . S
C73 H52 0.950 . S
C73 C72 1.382 1_455 S
C73 C89 1.411 . S
C74 C72 1.403 . S
C74 C75 1.489 . S
C74 C88 1.411 . S
C75 C74 1.489 . S
C75 C76 1.383 . S
C75 C80 1.382 . S
C76 H53 0.950 . S
C76 C75 1.383 . S
C76 C77 1.395 . S
C77 H54 0.950 . S
C77 C76 1.395 . S
C77 C78 1.288 . S
C78 C77 1.288 . S
C78 C79 1.392 . S
C79 H55 0.951 . S
C79 C78 1.392 . S
C79 C80 1.392 . S
C80 H56 0.949 . S
C80 C75 1.382 . S
C80 C79 1.392 . S
C81 C82 1.376 . S
C81 C86 1.386 . S
C81 C87 1.483 . S
C82 H57 0.949 1_455 S
C82 C81 1.376 . S
C82 C83 1.397 . S
C83 H58 0.950 . S
C83 C82 1.397 . S
C83 C84 1.391 . S
C84 C83 1.391 . S
C84 C85 1.405 . S
C85 H59 0.950 . S
C85 C84 1.405 . S
C85 C86 1.367 . S
C86 H60 0.950 . S
C86 C81 1.386 . S
C86 C85 1.367 . S
C87 C81 1.483 . S
C87 C88 1.382 1_455 S
C87 C89 1.403 . S
C88 H61 0.950 . S
C88 C74 1.411 . S
C88 C87 1.382 1_655 S
C89 C73 1.411 . S
C89 C87 1.403 . S
C89 C90 1.489 . S
C90 C89 1.489 . S
C90 C91 1.383 . S
C90 C95 1.382 . S
C91 H62 0.950 . S
C91 C90 1.383 . S
C91 C92 1.395 . S
C92 H63 0.950 . S
C92 C91 1.395 . S
C92 C93 1.288 . S
C93 C92 1.288 . S
C93 C94 1.392 . S
C94 H64 0.951 . S
C94 C93 1.392 . S
C94 C95 1.392 . S
C95 H65 0.949 . S
C95 C90 1.382 . S
C95 C94 1.392 . S
H96 C115 0.949 . S
H97 C116 0.950 . S
H98 C118 0.950 . S
H99 C119 0.950 . S
H100 C121 0.950 . S
H101 C124 0.950 . S
H102 C125 0.950 . S
H103 C127 0.951 . S
H104 C128 0.949 . S
H105 C130 0.949 . S
H106 C131 0.950 . S
H107 C133 0.950 . S
H108 C134 0.950 . S
H109 C136 0.950 . S
H110 C139 0.950 . S
H111 C140 0.950 . S
H112 C142 0.951 . S
H113 C143 0.949 . S
C114 C115 1.376 . S
C114 C119 1.386 . S
C114 C120 1.483 . S
C115 H96 0.949 . S
C115 C114 1.376 . S
C115 C116 1.397 . S
C116 H97 0.950 . S
C116 C115 1.397 . S
C116 C117 1.391 . S
C117 C116 1.391 . S
C117 C118 1.405 . S
C118 H98 0.950 . S
C118 C117 1.405 . S
C118 C119 1.367 . S
C119 H99 0.950 . S
C119 C114 1.386 . S
C119 C118 1.367 . S
C120 C114 1.483 . S
C120 C121 1.382 . S
C120 C122 1.403 . S
C121 H100 0.950 . S
C121 C120 1.382 . S
C121 C137 1.411 . S
C122 C120 1.403 . S
C122 C123 1.489 . S
C122 C136 1.411 . S
C123 C122 1.489 . S
C123 C124 1.383 . S
C123 C128 1.382 . S
C124 H101 0.950 . S
C124 C123 1.383 . S
C124 C125 1.395 . S
C125 H102 0.950 . S
C125 C124 1.395 . S
C125 C126 1.288 . S
C126 C125 1.288 . S
C126 C127 1.392 . S
C127 H103 0.951 . S
C127 C126 1.392 . S
C127 C128 1.392 . S
C128 H104 0.949 . S
C128 C123 1.382 . S
C128 C127 1.392 . S
C129 C130 1.376 . S
C129 C134 1.386 . S
C129 C135 1.483 . S
C130 H105 0.949 . S
C130 C129 1.376 . S
C130 C131 1.397 . S
C131 H106 0.950 . S
C131 C130 1.397 . S
C131 C132 1.391 . S
C132 C131 1.391 . S
C132 C133 1.405 . S
C133 H107 0.950 . S
C133 C132 1.405 . S
C133 C134 1.367 . S
C134 H108 0.950 . S
C134 C129 1.386 . S
C134 C133 1.367 . S
C135 C129 1.483 . S
C135 C136 1.382 . S
C135 C137 1.403 . S
C136 H109 0.950 . S
C136 C122 1.411 . S
C136 C135 1.382 . S
C137 C121 1.411 . S
C137 C135 1.403 . S
C137 C138 1.489 . S
C138 C137 1.489 . S
C138 C139 1.383 . S
C138 C143 1.382 . S
C139 H110 0.950 . S
C139 C138 1.383 . S
C139 C140 1.395 . S
C140 H111 0.950 . S
C140 C139 1.395 . S
C140 C141 1.288 . S
C141 C140 1.288 . S
C141 C142 1.392 . S
C142 H112 0.951 . S
C142 C141 1.392 . S
C142 C143 1.392 . S
C143 H113 0.949 . S
C143 C138 1.382 . S
C143 C142 1.392 . S
H144 C163 0.949 . S
H145 C164 0.950 . S
H146 C166 0.950 . S
H147 C167 0.950 . S
H148 C169 0.950 . S
H149 C172 0.950 . S
H150 C173 0.950 . S
H151 C175 0.951 . S
H152 C176 0.949 . S
H153 C178 0.949 . S
H154 C179 0.950 . S
H155 C181 0.950 . S
H156 C182 0.950 . S
H157 C184 0.950 . S
H158 C187 0.950 . S
H159 C188 0.950 . S
H160 C190 0.951 . S
H161 C191 0.949 . S
C162 C163 1.376 . S
C162 C167 1.386 . S
C162 C168 1.483 . S
C163 H144 0.949 . S
C163 C162 1.376 . S
C163 C164 1.397 . S
C164 H145 0.950 . S
C164 C163 1.397 . S
C164 C165 1.391 . S
C165 C164 1.391 . S
C165 C166 1.405 . S
C166 H146 0.950 . S
C166 C165 1.405 . S
C166 C167 1.367 . S
C167 H147 0.950 . S
C167 C162 1.386 . S
C167 C166 1.367 . S
C168 C162 1.483 . S
C168 C169 1.382 . S
C168 C170 1.403 . S
C169 H148 0.950 . S
C169 C168 1.382 . S
C169 C185 1.411 1_565 S
C170 C168 1.403 . S
C170 C171 1.489 . S
C170 C184 1.411 1_565 S
C171 C170 1.489 . S
C171 C172 1.383 . S
C171 C176 1.382 . S
C172 H149 0.950 . S
C172 C171 1.383 . S
C172 C173 1.395 . S
C173 H150 0.950 . S
C173 C172 1.395 . S
C173 C174 1.288 . S
C174 C173 1.288 . S
C174 C175 1.392 . S
C175 H151 0.951 . S
C175 C174 1.392 . S
C175 C176 1.392 . S
C176 H152 0.949 . S
C176 C171 1.382 . S
C176 C175 1.392 . S
C177 C178 1.376 . S
C177 C182 1.386 . S
C177 C183 1.483 . S
C178 H153 0.949 . S
C178 C177 1.376 . S
C178 C179 1.397 . S
C179 H154 0.950 . S
C179 C178 1.397 . S
C179 C180 1.391 . S
C180 C179 1.391 . S
C180 C181 1.405 . S
C181 H155 0.950 . S
C181 C180 1.405 . S
C181 C182 1.367 . S
C182 H156 0.950 . S
C182 C177 1.386 . S
C182 C181 1.367 . S
C183 C177 1.483 . S
C183 C184 1.382 . S
C183 C185 1.403 . S
C184 H157 0.950 . S
C184 C170 1.411 1_545 S
C184 C183 1.382 . S
C185 C169 1.411 1_545 S
C185 C183 1.403 . S
C185 C186 1.489 . S
C186 C185 1.489 . S
C186 C187 1.383 . S
C186 C191 1.382 . S
C187 H158 0.950 . S
C187 C186 1.383 . S
C187 C188 1.395 . S
C188 H159 0.950 . S
C188 C187 1.395 . S
C188 C189 1.288 . S
C189 C188 1.288 . S
C189 C190 1.392 . S
C190 H160 0.951 . S
C190 C189 1.392 . S
C190 C191 1.392 . S
C191 H161 0.949 . S
C191 C186 1.382 . S
C191 C190 1.392 . S
H192 C211 0.949 . S
H193 C212 0.950 . S
H194 C214 0.950 . S
H195 C215 0.950 . S
H196 C217 0.950 . S
H197 C220 0.950 . S
H198 C221 0.950 . S
H199 C223 0.951 . S
H200 C224 0.949 . S
H201 C226 0.949 . S
H202 C227 0.950 . S
H203 C229 0.950 . S
H204 C230 0.950 . S
H205 C232 0.950 . S
H206 C235 0.950 . S
H207 C236 0.950 . S
H208 C238 0.951 . S
H209 C239 0.949 . S
C210 C211 1.376 . S
C210 C215 1.386 . S
C210 C216 1.483 . S
C211 H192 0.949 . S
C211 C210 1.376 . S
C211 C212 1.397 . S
C212 H193 0.950 . S
C212 C211 1.397 . S
C212 C213 1.391 . S
C213 C212 1.391 . S
C213 C214 1.405 . S
C214 H194 0.950 . S
C214 C213 1.405 . S
C214 C215 1.367 . S
C215 H195 0.950 . S
C215 C210 1.386 . S
C215 C214 1.367 . S
C216 C210 1.483 . S
C216 C217 1.382 1_455 S
C216 C218 1.403 . S
C217 H196 0.950 . S
C217 C216 1.382 1_655 S
C217 C233 1.411 . S
C218 C216 1.403 . S
C218 C219 1.489 . S
C218 C232 1.411 . S
C219 C218 1.489 . S
C219 C220 1.383 . S
C219 C224 1.382 . S
C220 H197 0.950 . S
C220 C219 1.383 . S
C220 C221 1.395 . S
C221 H198 0.950 . S
C221 C220 1.395 . S
C221 C222 1.288 . S
C222 C221 1.288 . S
C222 C223 1.392 . S
C223 H199 0.951 . S
C223 C222 1.392 . S
C223 C224 1.392 . S
C224 H200 0.949 . S
C224 C219 1.382 . S
C224 C223 1.392 . S
C225 C226 1.376 . S
C225 C230 1.386 . S
C225 C231 1.483 . S
C226 H201 0.949 . S
C226 C225 1.376 . S
C226 C227 1.397 . S
C227 H202 0.950 . S
C227 C226 1.397 . S
C227 C228 1.391 . S
C228 C227 1.391 . S
C228 C229 1.405 . S
C229 H203 0.950 . S
C229 C228 1.405 . S
C229 C230 1.367 . S
C230 H204 0.950 . S
C230 C225 1.386 . S
C230 C229 1.367 . S
C231 C225 1.483 . S
C231 C232 1.382 1_655 S
C231 C233 1.403 . S
C232 H205 0.950 . S
C232 C218 1.411 . S
C232 C231 1.382 1_455 S
C233 C217 1.411 . S
C233 C231 1.403 . S
C233 C234 1.489 . S
C234 C233 1.489 . S
C234 C235 1.383 . S
C234 C239 1.382 . S
C235 H206 0.950 . S
C235 C234 1.383 . S
C235 C236 1.395 . S
C236 H207 0.950 . S
C236 C235 1.395 . S
C236 C237 1.288 . S
C237 C236 1.288 . S
C237 C238 1.392 . S
C238 H208 0.951 . S
C238 C237 1.392 . S
C238 C239 1.392 . S
C239 H209 0.949 . S
C239 C234 1.382 . S
C239 C238 1.392 . S
H240 C259 0.949 . S
H241 C260 0.950 . S
H242 C262 0.950 . S
H243 C263 0.950 . S
H244 C265 0.950 . S
H245 C268 0.950 . S
H246 C269 0.950 . S
H247 C271 0.951 . S
H248 C272 0.949 . S
H249 C274 0.949 . S
H250 C275 0.950 . S
H251 C277 0.950 . S
H252 C278 0.950 . S
H253 C280 0.950 . S
H254 C283 0.950 . S
H255 C284 0.950 . S
H256 C286 0.951 . S
H257 C287 0.949 . S
C258 C259 1.376 . S
C258 C263 1.386 . S
C258 C264 1.483 . S
C259 H240 0.949 . S
C259 C258 1.376 . S
C259 C260 1.397 . S
C260 H241 0.950 . S
C260 C259 1.397 . S
C260 C261 1.391 . S
C261 C260 1.391 . S
C261 C262 1.405 . S
C262 H242 0.950 . S
C262 C261 1.405 . S
C262 C263 1.367 . S
C263 H243 0.950 . S
C263 C258 1.386 . S
C263 C262 1.367 . S
C264 C258 1.483 . S
C264 C265 1.382 . S
C264 C266 1.403 . S
C265 H244 0.950 . S
C265 C264 1.382 . S
C265 C281 1.411 . S
C266 C264 1.403 . S
C266 C267 1.489 . S
C266 C280 1.411 . S
C267 C266 1.489 . S
C267 C268 1.383 . S
C267 C272 1.382 . S
C268 H245 0.950 . S
C268 C267 1.383 . S
C268 C269 1.395 . S
C269 H246 0.950 . S
C269 C268 1.395 . S
C269 C270 1.288 . S
C270 C269 1.288 . S
C270 C271 1.392 . S
C271 H247 0.951 . S
C271 C270 1.392 . S
C271 C272 1.392 . S
C272 H248 0.949 . S
C272 C267 1.382 . S
C272 C271 1.392 . S
C273 C274 1.376 . S
C273 C278 1.386 . S
C273 C279 1.483 . S
C274 H249 0.949 . S
C274 C273 1.376 . S
C274 C275 1.397 . S
C275 H250 0.950 . S
C275 C274 1.397 . S
C275 C276 1.391 . S
C276 C275 1.391 . S
C276 C277 1.405 . S
C277 H251 0.950 . S
C277 C276 1.405 . S
C277 C278 1.367 . S
C278 H252 0.950 . S
C278 C273 1.386 . S
C278 C277 1.367 . S
C279 C273 1.483 . S
C279 C280 1.382 . S
C279 C281 1.403 . S
C280 H253 0.950 . S
C280 C266 1.411 . S
C280 C279 1.382 . S
C281 C265 1.411 . S
C281 C279 1.403 . S
C281 C282 1.489 . S
C282 C281 1.489 . S
C282 C283 1.383 . S
C282 C287 1.382 . S
C283 H254 0.950 . S
C283 C282 1.383 . S
C283 C284 1.395 . S
C284 H255 0.950 . S
C284 C283 1.395 . S
C284 C285 1.288 . S
C285 C284 1.288 . S
C285 C286 1.392 . S
C286 H256 0.951 . S
C286 C285 1.392 . S
C286 C287 1.392 . S
C287 H257 0.949 . S
C287 C282 1.382 . S
C287 C286 1.392 . S
H288 C307 0.949 . S
H289 C308 0.950 . S
H290 C310 0.950 . S
H291 C311 0.950 . S
H292 C313 0.950 . S
H293 C316 0.950 . S
H294 C317 0.950 . S
H295 C319 0.951 . S
H296 C320 0.949 1_545 S
H297 C322 0.949 . S
H298 C323 0.950 . S
H299 C325 0.950 . S
H300 C326 0.950 . S
H301 C328 0.950 . S
H302 C331 0.950 . S
H303 C332 0.950 . S
H304 C334 0.951 . S
H305 C335 0.949 1_565 S
C306 C307 1.376 . S
C306 C311 1.386 . S
C306 C312 1.483 . S
C307 H288 0.949 . S
C307 C306 1.376 . S
C307 C308 1.397 . S
C308 H289 0.950 . S
C308 C307 1.397 . S
C308 C309 1.391 . S
C309 C308 1.391 . S
C309 C310 1.405 . S
C310 H290 0.950 . S
C310 C309 1.405 . S
C310 C311 1.367 . S
C311 H291 0.950 . S
C311 C306 1.386 . S
C311 C310 1.367 . S
C312 C306 1.483 . S
C312 C313 1.382 . S
C312 C314 1.403 . S
C313 H292 0.950 . S
C313 C312 1.382 . S
C313 C329 1.411 1_565 S
C314 C312 1.403 . S
C314 C315 1.489 . S
C314 C328 1.411 1_565 S
C315 C314 1.489 . S
C315 C316 1.383 . S
C315 C320 1.382 . S
C316 H293 0.950 . S
C316 C315 1.383 . S
C316 C317 1.395 . S
C317 H294 0.950 . S
C317 C316 1.395 . S
C317 C318 1.288 . S
C318 C317 1.288 . S
C318 C319 1.392 . S
C319 H295 0.951 . S
C319 C318 1.392 . S
C319 C320 1.392 . S
C320 H296 0.949 1_565 S
C320 C315 1.382 . S
C320 C319 1.392 . S
C321 C322 1.376 . S
C321 C326 1.386 . S
C321 C327 1.483 . S
C322 H297 0.949 . S
C322 C321 1.376 . S
C322 C323 1.397 . S
C323 H298 0.950 . S
C323 C322 1.397 . S
C323 C324 1.391 . S
C324 C323 1.391 . S
C324 C325 1.405 . S
C325 H299 0.950 . S
C325 C324 1.405 . S
C325 C326 1.367 . S
C326 H300 0.950 . S
C326 C321 1.386 . S
C326 C325 1.367 . S
C327 C321 1.483 . S
C327 C328 1.382 . S
C327 C329 1.403 . S
C328 H301 0.950 . S
C328 C314 1.411 1_545 S
C328 C327 1.382 . S
C329 C313 1.411 1_545 S
C329 C327 1.403 . S
C329 C330 1.489 . S
C330 C329 1.489 . S
C330 C331 1.383 . S
C330 C335 1.382 . S
C331 H302 0.950 . S
C331 C330 1.383 . S
C331 C332 1.395 . S
C332 H303 0.950 . S
C332 C331 1.395 . S
C332 C333 1.288 . S
C333 C332 1.288 . S
C333 C334 1.392 . S
C334 H304 0.951 . S
C334 C333 1.392 . S
C334 C335 1.392 . S
C335 H305 0.949 1_545 S
C335 C330 1.382 . S
C335 C334 1.392 . S
H336 C355 0.949 1_455 S
H337 C356 0.950 . S
H338 C358 0.950 . S
H339 C359 0.950 . S
H340 C361 0.950 . S
H341 C364 0.950 . S
H342 C365 0.950 . S
H343 C367 0.951 . S
H344 C368 0.949 . S
H345 C370 0.949 1_655 S
H346 C371 0.950 . S
H347 C373 0.950 . S
H348 C374 0.950 . S
H349 C376 0.950 . S
H350 C379 0.950 . S
H351 C380 0.950 . S
H352 C382 0.951 . S
H353 C383 0.949 . S
C354 C355 1.376 . S
C354 C359 1.386 . S
C354 C360 1.483 . S
C355 H336 0.949 1_655 S
C355 C354 1.376 . S
C355 C356 1.397 . S
C356 H337 0.950 . S
C356 C355 1.397 . S
C356 C357 1.391 . S
C357 C356 1.391 . S
C357 C358 1.405 . S
C358 H338 0.950 . S
C358 C357 1.405 . S
C358 C359 1.367 . S
C359 H339 0.950 . S
C359 C354 1.386 . S
C359 C358 1.367 . S
C360 C354 1.483 . S
C360 C361 1.382 1_655 S
C360 C362 1.403 . S
C361 H340 0.950 . S
C361 C360 1.382 1_455 S
C361 C377 1.411 1_545 S
C362 C360 1.403 . S
C362 C363 1.489 . S
C362 C376 1.411 1_545 S
C363 C362 1.489 . S
C363 C364 1.383 . S
C363 C368 1.382 . S
C364 H341 0.950 . S
C364 C363 1.383 . S
C364 C365 1.395 . S
C365 H342 0.950 . S
C365 C364 1.395 . S
C365 C366 1.288 . S
C366 C365 1.288 . S
C366 C367 1.392 . S
C367 H343 0.951 . S
C367 C366 1.392 . S
C367 C368 1.392 . S
C368 H344 0.949 . S
C368 C363 1.382 . S
C368 C367 1.392 . S
C369 C370 1.376 . S
C369 C374 1.386 . S
C369 C375 1.483 . S
C370 H345 0.949 1_455 S
C370 C369 1.376 . S
C370 C371 1.397 . S
C371 H346 0.950 . S
C371 C370 1.397 . S
C371 C372 1.391 . S
C372 C371 1.391 . S
C372 C373 1.405 . S
C373 H347 0.950 . S
C373 C372 1.405 . S
C373 C374 1.367 . S
C374 H348 0.950 . S
C374 C369 1.386 . S
C374 C373 1.367 . S
C375 C369 1.483 . S
C375 C376 1.382 1_455 S
C375 C377 1.403 . S
C376 H349 0.950 . S
C376 C362 1.411 1_565 S
C376 C375 1.382 1_655 S
C377 C361 1.411 1_565 S
C377 C375 1.403 . S
C377 C378 1.489 . S
C378 C377 1.489 . S
C378 C379 1.383 . S
C378 C383 1.382 . S
C379 H350 0.950 . S
C379 C378 1.383 . S
C379 C380 1.395 . S
C380 H351 0.950 . S
C380 C379 1.395 . S
C380 C381 1.288 . S
C381 C380 1.288 . S
C381 C382 1.392 . S
C382 H352 0.951 . S
C382 C381 1.392 . S
C382 C383 1.392 . S
C383 H353 0.949 . S
C383 C378 1.382 . S
C383 C382 1.392 . S
In384 O385 2.294 . S
In384 O386 2.326 . S
In384 O390 2.266 1_554 S
In384 O391 2.326 1_554 S
In384 O392 2.266 1_554 S
In384 O393 2.326 1_554 S
In384 O395 2.294 . S
In384 O396 2.326 . S
O385 In384 2.294 . S
O385 C394 1.240 . S
O386 In384 2.326 . S
O386 C394 1.252 . S
C387 O390 1.252 . S
C387 O391 1.260 . S
C388 O395 1.240 . S
C388 O396 1.252 . S
C389 O392 1.252 . S
C389 O393 1.260 . S
O390 In384 2.266 1_556 S
O390 C387 1.252 . S
O391 In384 2.326 1_556 S
O391 C387 1.260 . S
O392 In384 2.266 1_556 S
O392 C389 1.252 . S
O393 In384 2.326 1_556 S
O393 C389 1.260 . S
C394 O385 1.240 . S
C394 O386 1.252 . S
O395 In384 2.294 . S
O395 C388 1.240 . S
O396 In384 2.326 . S
O396 C388 1.252 . S
In397 O398 2.294 . S
In397 O399 2.326 . S
In397 O403 2.266 . S
In397 O404 2.326 . S
In397 O405 2.266 . S
In397 O406 2.326 . S
In397 O408 2.294 . S
In397 O409 2.326 . S
O398 In397 2.294 . S
O398 C407 1.240 . S
O399 In397 2.326 . S
O399 C407 1.252 . S
C400 O403 1.252 . S
C400 O404 1.260 . S
C401 O408 1.240 . S
C401 O409 1.252 . S
C402 O405 1.252 . S
C402 O406 1.260 . S
O403 In397 2.266 . S
O403 C400 1.252 . S
O404 In397 2.326 . S
O404 C400 1.260 . S
O405 In397 2.266 . S
O405 C402 1.252 . S
O406 In397 2.326 . S
O406 C402 1.260 . S
C407 O398 1.240 . S
C407 O399 1.252 . S
O408 In397 2.294 . S
O408 C401 1.240 . S
O409 In397 2.326 . S
O409 C401 1.252 . S
In410 O411 2.294 . S
In410 O412 2.326 . S
In410 O416 2.266 . S
In410 O417 2.326 . S
In410 O418 2.266 . S
In410 O419 2.326 . S
In410 O421 2.294 . S
In410 O422 2.326 . S
O411 In410 2.294 . S
O411 C420 1.240 . S
O412 In410 2.326 . S
O412 C420 1.252 . S
C413 O416 1.252 . S
C413 O417 1.260 . S
C414 O421 1.240 . S
C414 O422 1.252 . S
C415 O418 1.252 . S
C415 O419 1.260 . S
O416 In410 2.266 . S
O416 C413 1.252 . S
O417 In410 2.326 . S
O417 C413 1.260 . S
O418 In410 2.266 . S
O418 C415 1.252 . S
O419 In410 2.326 . S
O419 C415 1.260 . S
C420 O411 1.240 . S
C420 O412 1.252 . S
O421 In410 2.294 . S
O421 C414 1.240 . S
O422 In410 2.326 . S
O422 C414 1.252 . S
In423 O424 2.294 . S
In423 O425 2.326 . S
In423 O429 2.266 . S
In423 O430 2.326 . S
In423 O431 2.266 . S
In423 O432 2.326 . S
In423 O434 2.294 . S
In423 O435 2.326 . S
O424 In423 2.294 . S
O424 C433 1.240 . S
O425 In423 2.326 . S
O425 C433 1.252 . S
C426 O429 1.252 . S
C426 O430 1.260 . S
C427 O434 1.240 . S
C427 O435 1.252 . S
C428 O431 1.252 . S
C428 O432 1.260 . S
O429 In423 2.266 . S
O429 C426 1.252 . S
O430 In423 2.326 . S
O430 C426 1.260 . S
O431 In423 2.266 . S
O431 C428 1.252 . S
O432 In423 2.326 . S
O432 C428 1.260 . S
C433 O424 1.240 . S
C433 O425 1.252 . S
O434 In423 2.294 . S
O434 C427 1.240 . S
O435 In423 2.326 . S
O435 C427 1.252 . S
In436 O437 2.294 . S
In436 O438 2.326 . S
In436 O442 2.266 . S
In436 O443 2.326 . S
In436 O444 2.266 . S
In436 O445 2.326 . S
In436 O447 2.294 . S
In436 O448 2.326 . S
O437 In436 2.294 . S
O437 C446 1.240 . S
O438 In436 2.326 . S
O438 C446 1.252 . S
C439 O442 1.252 . S
C439 O443 1.260 . S
C440 O447 1.240 . S
C440 O448 1.252 . S
C441 O444 1.252 . S
C441 O445 1.260 . S
O442 In436 2.266 . S
O442 C439 1.252 . S
O443 In436 2.326 . S
O443 C439 1.260 . S
O444 In436 2.266 . S
O444 C441 1.252 . S
O445 In436 2.326 . S
O445 C441 1.260 . S
C446 O437 1.240 . S
C446 O438 1.252 . S
O447 In436 2.294 . S
O447 C440 1.240 . S
O448 In436 2.326 . S
O448 C440 1.252 . S
In449 O450 2.294 . S
In449 O451 2.326 . S
In449 O455 2.266 . S
In449 O456 2.326 . S
In449 O457 2.266 . S
In449 O458 2.326 . S
In449 O460 2.294 . S
In449 O461 2.326 . S
O450 In449 2.294 . S
O450 C459 1.240 . S
O451 In449 2.326 . S
O451 C459 1.252 . S
C452 O455 1.252 . S
C452 O456 1.260 . S
C453 O460 1.240 . S
C453 O461 1.252 . S
C454 O457 1.252 . S
C454 O458 1.260 . S
O455 In449 2.266 . S
O455 C452 1.252 . S
O456 In449 2.326 . S
O456 C452 1.260 . S
O457 In449 2.266 . S
O457 C454 1.252 . S
O458 In449 2.326 . S
O458 C454 1.260 . S
C459 O450 1.240 . S
C459 O451 1.252 . S
O460 In449 2.294 . S
O460 C453 1.240 . S
O461 In449 2.326 . S
O461 C453 1.252 . S
In462 O463 2.294 . S
In462 O464 2.326 . S
In462 O468 2.266 1_554 S
In462 O469 2.326 1_554 S
In462 O470 2.266 1_554 S
In462 O471 2.326 1_554 S
In462 O473 2.294 . S
In462 O474 2.326 . S
O463 In462 2.294 . S
O463 C472 1.240 . S
O464 In462 2.326 . S
O464 C472 1.252 . S
C465 O468 1.252 . S
C465 O469 1.260 . S
C466 O473 1.240 . S
C466 O474 1.252 . S
C467 O470 1.252 . S
C467 O471 1.260 . S
O468 In462 2.266 1_556 S
O468 C465 1.252 . S
O469 In462 2.326 1_556 S
O469 C465 1.260 . S
O470 In462 2.266 1_556 S
O470 C467 1.252 . S
O471 In462 2.326 1_556 S
O471 C467 1.260 . S
C472 O463 1.240 . S
C472 O464 1.252 . S
O473 In462 2.294 . S
O473 C466 1.240 . S
O474 In462 2.326 . S
O474 C466 1.252 . S
In475 O476 2.294 . S
In475 O477 2.326 . S
In475 O481 2.266 . S
In475 O482 2.326 . S
In475 O483 2.266 . S
In475 O484 2.326 . S
In475 O486 2.294 . S
In475 O487 2.326 . S
O476 In475 2.294 . S
O476 C485 1.240 . S
O477 In475 2.326 . S
O477 C485 1.252 . S
C478 O481 1.252 . S
C478 O482 1.260 . S
C479 O486 1.240 . S
C479 O487 1.252 . S
C480 O483 1.252 . S
C480 O484 1.260 . S
O481 In475 2.266 . S
O481 C478 1.252 . S
O482 In475 2.326 . S
O482 C478 1.260 . S
O483 In475 2.266 . S
O483 C480 1.252 . S
O484 In475 2.326 . S
O484 C480 1.260 . S
C485 O476 1.240 . S
C485 O477 1.252 . S
O486 In475 2.294 . S
O486 C479 1.240 . S
O487 In475 2.326 . S
O487 C479 1.252 . S
C488 C489 1.387 . S
C488 H492 0.950 . S
C488 C497 1.390 . S
C489 C488 1.387 . S
C489 C491 1.387 . S
H490 C497 0.950 . S
C491 C489 1.387 . S
C491 C493 1.390 . S
C491 H495 0.950 . S
H492 C488 0.950 . S
C493 C491 1.390 . S
C493 C494 1.387 . S
C493 H496 0.950 . S
C494 C493 1.387 . S
C494 C497 1.387 . S
H495 C491 0.950 . S
H496 C493 0.950 . S
C497 C488 1.390 . S
C497 H490 0.950 . S
C497 C494 1.387 . S
C498 C499 1.387 . S
C498 H502 0.950 . S
C498 C507 1.390 . S
C499 C498 1.387 . S
C499 C501 1.387 . S
H500 C507 0.950 . S
C501 C499 1.387 . S
C501 C503 1.390 . S
C501 H505 0.950 . S
H502 C498 0.950 . S
C503 C501 1.390 . S
C503 C504 1.387 . S
C503 H506 0.950 . S
C504 C503 1.387 . S
C504 C507 1.387 . S
H505 C501 0.950 . S
H506 C503 0.950 . S
C507 C498 1.390 . S
C507 H500 0.950 . S
C507 C504 1.387 . S
C508 C509 1.387 . S
C508 H512 0.950 . S
C508 C517 1.390 . S
C509 C508 1.387 . S
C509 C511 1.387 . S
H510 C517 0.950 . S
C511 C509 1.387 . S
C511 C513 1.390 . S
C511 H515 0.950 . S
H512 C508 0.950 . S
C513 C511 1.390 . S
C513 C514 1.387 . S
C513 H516 0.950 . S
C514 C513 1.387 . S
C514 C517 1.387 . S
H515 C511 0.950 . S
H516 C513 0.950 . S
C517 C508 1.390 . S
C517 H510 0.950 . S
C517 C514 1.387 . S
C518 C519 1.387 . S
C518 H522 0.950 . S
C518 C527 1.390 . S
C519 C518 1.387 . S
C519 C521 1.387 . S
H520 C527 0.950 . S
C521 C519 1.387 . S
C521 C523 1.390 . S
C521 H525 0.950 1_554 S
H522 C518 0.950 . S
C523 C521 1.390 . S
C523 C524 1.387 . S
C523 H526 0.950 1_554 S
C524 C523 1.387 . S
C524 C527 1.387 . S
H525 C521 0.950 1_556 S
H526 C523 0.950 1_556 S
C527 C518 1.390 . S
C527 H520 0.950 . S
C527 C524 1.387 . S
C528 C529 1.387 . S
C528 H532 0.950 . S
C528 C537 1.390 . S
C529 C528 1.387 . S
C529 C531 1.387 . S
H530 C537 0.950 . S
C531 C529 1.387 . S
C531 C533 1.397 . S
C531 H535 0.950 1_556 S
H532 C528 0.950 . S
C533 C531 1.397 . S
C533 C534 1.409 . S
C533 H536 0.923 1_556 S
C534 C533 1.409 . S
C534 C537 1.387 . S
H535 C531 0.950 1_554 S
H536 C533 0.923 1_554 S
C537 C528 1.390 . S
C537 H530 0.950 . S
C537 C534 1.387 . S
C538 C539 1.387 . S
C538 H542 0.950 . S
C538 C547 1.390 . S
C539 C538 1.387 . S
C539 C541 1.387 . S
H540 C547 0.950 . S
C541 C539 1.387 . S
C541 C543 1.390 . S
C541 H545 0.950 . S
H542 C538 0.950 . S
C543 C541 1.390 . S
C543 C544 1.387 . S
C543 H546 0.950 . S
C544 C543 1.387 . S
C544 C547 1.387 . S
H545 C541 0.950 . S
H546 C543 0.950 . S
C547 C538 1.390 . S
C547 H540 0.950 . S
C547 C544 1.387 . S
C548 C549 1.387 . S
C548 H552 0.950 . S
C548 C557 1.390 . S
C549 C548 1.387 . S
C549 C551 1.387 . S
H550 C557 0.950 . S
C551 C549 1.387 . S
C551 C553 1.390 . S
C551 H555 0.950 . S
H552 C548 0.950 . S
C553 C551 1.390 . S
C553 C554 1.387 . S
C553 H556 0.950 . S
C554 C553 1.387 . S
C554 C557 1.387 . S
H555 C551 0.950 . S
H556 C553 0.950 . S
C557 C548 1.390 . S
C557 H550 0.950 . S
C557 C554 1.387 . S
C558 C559 1.387 . S
C558 H562 0.950 . S
C558 C567 1.390 . S
C559 C558 1.387 . S
C559 C561 1.387 . S
H560 C567 0.950 . S
C561 C559 1.387 . S
C561 C563 1.390 . S
C561 H565 0.950 . S
H562 C558 0.950 . S
C563 C561 1.390 . S
C563 C564 1.387 . S
C563 H566 0.950 . S
C564 C563 1.387 . S
C564 C567 1.387 . S
H565 C561 0.950 . S
H566 C563 0.950 . S
C567 C558 1.390 . S
C567 H560 0.950 . S
C567 C564 1.387 . S
C568 C569 1.387 . S
C568 H572 0.950 . S
C568 C577 1.390 . S
C569 C568 1.387 . S
C569 C571 1.387 . S
H570 C577 0.950 . S
C571 C569 1.387 . S
C571 C573 1.390 . S
C571 H575 0.950 . S
H572 C568 0.950 . S
C573 C571 1.390 . S
C573 C574 1.387 . S
C573 H576 0.950 . S
C574 C573 1.387 . S
C574 C577 1.387 . S
H575 C571 0.950 . S
H576 C573 0.950 . S
C577 C568 1.390 . S
C577 H570 0.950 . S
C577 C574 1.387 . S
C578 C579 1.387 . S
C578 H582 0.950 1_554 S
C578 C587 1.390 . S
C579 C578 1.387 . S
C579 C581 1.387 . S
H580 C587 0.950 1_556 S
C581 C579 1.387 . S
C581 C583 1.390 . S
C581 H585 0.950 . S
H582 C578 0.950 1_556 S
C583 C581 1.390 . S
C583 C584 1.387 . S
C583 H586 0.950 . S
C584 C583 1.387 . S
C584 C587 1.387 . S
H585 C581 0.950 . S
H586 C583 0.950 . S
C587 C578 1.390 . S
C587 H580 0.950 1_554 S
C587 C584 1.387 . S
C588 C589 1.387 . S
C588 H592 0.950 . S
C588 C597 1.390 . S
C589 C588 1.387 . S
C589 C591 1.387 . S
H590 C597 0.950 . S
C591 C589 1.387 . S
C591 C593 1.390 . S
C591 H595 0.950 . S
H592 C588 0.950 . S
C593 C591 1.390 . S
C593 C594 1.387 . S
C593 H596 0.950 . S
C594 C593 1.387 . S
C594 C597 1.387 . S
H595 C591 0.950 . S
H596 C593 0.950 . S
C597 C588 1.390 . S
C597 H590 0.950 . S
C597 C594 1.387 . S
C598 C599 1.387 . S
C598 H602 0.950 . S
C598 C607 1.390 . S
C599 C598 1.387 . S
C599 C601 1.387 . S
H600 C607 0.950 . S
C601 C599 1.387 . S
C601 C603 1.390 . S
C601 H605 0.950 . S
H602 C598 0.950 . S
C603 C601 1.390 . S
C603 C604 1.387 . S
C603 H606 0.950 . S
C604 C603 1.387 . S
C604 C607 1.387 . S
H605 C601 0.950 . S
H606 C603 0.950 . S
C607 C598 1.390 . S
C607 H600 0.950 . S
C607 C604 1.387 . S
C608 C609 1.387 . S
C608 H612 0.950 . S
C608 C617 1.390 . S
C609 C608 1.387 . S
C609 C611 1.387 . S
H610 C617 0.950 . S
C611 C609 1.387 . S
C611 C613 1.390 . S
C611 H615 0.950 . S
H612 C608 0.950 . S
C613 C611 1.390 . S
C613 C614 1.387 . S
C613 H616 0.950 . S
C614 C613 1.387 . S
C614 C617 1.387 . S
H615 C611 0.950 . S
H616 C613 0.950 . S
C617 C608 1.390 . S
C617 H610 0.950 . S
C617 C614 1.387 . S
C618 C619 1.387 . S
C618 H622 0.950 . S
C618 C627 1.390 . S
C619 C618 1.387 . S
C619 C621 1.387 . S
H620 C627 0.950 . S
C621 C619 1.387 . S
C621 C623 1.390 . S
C621 H625 0.950 . S
H622 C618 0.950 . S
C623 C621 1.390 . S
C623 C624 1.387 . S
C623 H626 0.950 . S
C624 C623 1.387 . S
C624 C627 1.387 . S
H625 C621 0.950 . S
H626 C623 0.950 . S
C627 C618 1.390 . S
C627 H620 0.950 . S
C627 C624 1.387 . S
C628 C629 1.387 . S
C628 H632 0.950 . S
C628 C637 1.390 . S
C629 C628 1.387 . S
C629 C631 1.387 . S
H630 C637 0.950 . S
C631 C629 1.387 . S
C631 C633 1.390 . S
C631 H635 0.950 . S
H632 C628 0.950 . S
C633 C631 1.390 . S
C633 C634 1.387 . S
C633 H636 0.935 1_556 S
C634 C633 1.387 . S
C634 C637 1.387 . S
H635 C631 0.950 . S
H636 C633 0.935 1_554 S
C637 C628 1.390 . S
C637 H630 0.950 . S
C637 C634 1.387 . S
C638 C639 1.387 . S
C638 H642 0.950 . S
C638 C647 1.390 . S
C639 C638 1.387 . S
C639 C641 1.387 . S
H640 C647 0.950 . S
C641 C639 1.387 . S
C641 C643 1.390 . S
C641 H645 0.950 . S
H642 C638 0.950 . S
C643 C641 1.390 . S
C643 C644 1.387 . S
C643 H646 0.950 . S
C644 C643 1.387 . S
C644 C647 1.387 . S
H645 C641 0.950 . S
H646 C643 0.950 . S
C647 C638 1.390 . S
C647 H640 0.950 . S
C647 C644 1.387 . S
C648 C649 1.387 . S
C648 H652 0.950 . S
C648 C657 1.390 . S
C649 C648 1.387 . S
C649 C651 1.387 . S
H650 C657 0.950 . S
C651 C649 1.387 . S
C651 C653 1.390 . S
C651 H655 0.950 . S
H652 C648 0.950 . S
C653 C651 1.390 . S
C653 C654 1.387 . S
C653 H656 0.950 . S
C654 C653 1.387 . S
C654 C657 1.387 . S
H655 C651 0.950 . S
H656 C653 0.950 . S
C657 C648 1.390 . S
C657 H650 0.950 . S
C657 C654 1.387 . S
C658 C659 1.387 . S
C658 H662 0.950 . S
C658 C667 1.390 . S
C659 C658 1.387 . S
C659 C661 1.387 . S
H660 C667 0.950 . S
C661 C659 1.387 . S
C661 C663 1.390 . S
C661 H665 0.950 . S
H662 C658 0.950 . S
C663 C661 1.390 . S
C663 C664 1.387 . S
C663 H666 0.950 . S
C664 C663 1.387 . S
C664 C667 1.387 . S
H665 C661 0.950 . S
H666 C663 0.950 . S
C667 C658 1.390 . S
C667 H660 0.950 . S
C667 C664 1.387 . S
C668 C669 1.387 . S
C668 H672 0.950 . S
C668 C677 1.390 . S
C669 C668 1.387 . S
C669 C671 1.387 . S
H670 C677 0.950 . S
C671 C669 1.387 . S
C671 C673 1.390 . S
C671 H675 0.950 . S
H672 C668 0.950 . S
C673 C671 1.390 . S
C673 C674 1.387 . S
C673 H676 0.950 . S
C674 C673 1.387 . S
C674 C677 1.387 . S
H675 C671 0.950 . S
H676 C673 0.950 . S
C677 C668 1.390 . S
C677 H670 0.950 . S
C677 C674 1.387 . S
C678 C679 1.387 . S
C678 H682 0.950 . S
C678 C687 1.390 . S
C679 C678 1.387 . S
C679 C681 1.387 . S
H680 C687 0.950 . S
C681 C679 1.387 . S
C681 C683 1.390 . S
C681 H685 0.950 . S
H682 C678 0.950 . S
C683 C681 1.390 . S
C683 C684 1.387 . S
C683 H686 0.950 . S
C684 C683 1.387 . S
C684 C687 1.387 . S
H685 C681 0.950 . S
H686 C683 0.950 . S
C687 C678 1.390 . S
C687 H680 0.950 . S
C687 C684 1.387 . S
C688 C689 1.387 . S
C688 H692 0.950 . S
C688 C697 1.390 . S
C689 C688 1.387 . S
C689 C691 1.387 . S
H690 C697 0.950 . S
C691 C689 1.387 . S
C691 C693 1.390 . S
C691 H695 0.950 . S
H692 C688 0.950 . S
C693 C691 1.390 . S
C693 C694 1.387 . S
C693 H696 0.950 . S
C694 C693 1.387 . S
C694 C697 1.387 . S
H695 C691 0.950 . S
H696 C693 0.950 . S
C697 C688 1.390 . S
C697 H690 0.950 . S
C697 C694 1.387 . S
C698 C699 1.387 . S
C698 H702 0.950 . S
C698 C707 1.390 . S
C699 C698 1.387 . S
C699 C701 1.387 . S
H700 C707 0.950 . S
C701 C699 1.387 . S
C701 C703 1.390 . S
C701 H705 0.950 . S
H702 C698 0.950 . S
C703 C701 1.390 . S
C703 C704 1.387 . S
C703 H706 0.950 . S
C704 C703 1.387 . S
C704 C707 1.387 . S
H705 C701 0.950 . S
H706 C703 0.950 . S
C707 C698 1.390 . S
C707 H700 0.950 . S
C707 C704 1.387 . S
C708 C709 1.387 . S
C708 H712 0.950 . S
C708 C717 1.390 . S
C709 C708 1.387 . S
C709 C711 1.387 . S
H710 C717 0.950 . S
C711 C709 1.387 . S
C711 C713 1.390 . S
C711 H715 0.950 . S
H712 C708 0.950 . S
C713 C711 1.390 . S
C713 C714 1.387 . S
C713 H716 0.950 . S
C714 C713 1.387 . S
C714 C717 1.387 . S
H715 C711 0.950 . S
H716 C713 0.950 . S
C717 C708 1.390 . S
C717 H710 0.950 . S
C717 C714 1.387 . S
C718 C719 1.387 . S
C718 H722 0.950 . S
C718 C727 1.390 . S
C719 C718 1.387 . S
C719 C721 1.387 . S
H720 C727 0.950 . S
C721 C719 1.387 . S
C721 C723 1.390 . S
C721 H725 0.950 . S
H722 C718 0.950 . S
C723 C721 1.390 . S
C723 C724 1.387 . S
C723 H726 0.950 . S
C724 C723 1.387 . S
C724 C727 1.387 . S
H725 C721 0.950 . S
H726 C723 0.950 . S
C727 C718 1.390 . S
C727 H720 0.950 . S
C727 C724 1.387 . S
C728 C729 1.387 . S
C728 H732 0.950 . S
C728 C737 1.390 . S
C729 C728 1.387 . S
C729 C731 1.387 . S
H730 C737 0.950 . S
C731 C729 1.387 . S
C731 C733 1.390 . S
C731 H735 0.950 . S
H732 C728 0.950 . S
C733 C731 1.390 . S
C733 C734 1.387 . S
C733 H736 0.950 . S
C734 C733 1.387 . S
C734 C737 1.387 . S
H735 C731 0.950 . S
H736 C733 0.950 . S
C737 C728 1.390 . S
C737 H730 0.950 . S
C737 C734 1.387 . S
C738 C739 1.387 . S
C738 H742 0.950 . S
C738 C747 1.390 . S
C739 C738 1.387 . S
C739 C741 1.387 . S
H740 C747 0.950 . S
C741 C739 1.387 . S
C741 C743 1.390 . S
C741 H745 0.950 . S
H742 C738 0.950 . S
C743 C741 1.390 . S
C743 C744 1.387 . S
C743 H746 0.950 . S
C744 C743 1.387 . S
C744 C747 1.387 . S
H745 C741 0.950 . S
H746 C743 0.950 . S
C747 C738 1.390 . S
C747 H740 0.950 . S
C747 C744 1.387 . S
C748 C749 1.387 . S
C748 H752 0.950 . S
C748 C757 1.390 . S
C749 C748 1.387 . S
C749 C751 1.387 . S
H750 C757 0.950 . S
C751 C749 1.387 . S
C751 C753 1.390 . S
C751 H755 0.950 . S
H752 C748 0.950 . S
C753 C751 1.390 . S
C753 C754 1.387 . S
C753 H756 0.950 . S
C754 C753 1.387 . S
C754 C757 1.387 . S
H755 C751 0.950 . S
H756 C753 0.950 . S
C757 C748 1.390 . S
C757 H750 0.950 . S
C757 C754 1.387 . S
C758 C759 1.387 . S
C758 H762 0.950 . S
C758 C767 1.390 . S
C759 C758 1.387 . S
C759 C761 1.387 . S
H760 C767 0.950 . S
C761 C759 1.387 . S
C761 C763 1.390 . S
C761 H765 0.950 . S
H762 C758 0.950 . S
C763 C761 1.390 . S
C763 C764 1.387 . S
C763 H766 0.950 . S
C764 C763 1.387 . S
C764 C767 1.387 . S
H765 C761 0.950 . S
H766 C763 0.950 . S
C767 C758 1.390 . S
C767 H760 0.950 . S
C767 C764 1.387 . S
C768 C769 1.387 . S
C768 H772 0.950 . S
C768 C777 1.390 . S
C769 C768 1.387 . S
C769 C771 1.387 . S
H770 C777 0.950 . S
C771 C769 1.387 . S
C771 C773 1.390 . S
C771 H775 0.950 . S
H772 C768 0.950 . S
C773 C771 1.390 . S
C773 C774 1.387 . S
C773 H776 0.950 . S
C774 C773 1.387 . S
C774 C777 1.387 . S
H775 C771 0.950 . S
H776 C773 0.950 . S
C777 C768 1.390 . S
C777 H770 0.950 . S
C777 C774 1.387 . S
C778 C779 1.387 . S
C778 H782 0.950 . S
C778 C787 1.390 . S
C779 C778 1.387 . S
C779 C781 1.387 . S
H780 C787 0.950 . S
C781 C779 1.387 . S
C781 C783 1.390 . S
C781 H785 0.950 . S
H782 C778 0.950 . S
C783 C781 1.390 . S
C783 C784 1.387 . S
C783 H786 0.950 . S
C784 C783 1.387 . S
C784 C787 1.387 . S
H785 C781 0.950 . S
H786 C783 0.950 . S
C787 C778 1.390 . S
C787 H780 0.950 . S
C787 C784 1.387 . S
C788 C789 1.387 . S
C788 H792 0.950 . S
C788 C797 1.390 . S
C789 C788 1.387 . S
C789 C791 1.387 . S
H790 C797 0.950 . S
C791 C789 1.387 . S
C791 C793 1.390 . S
C791 H795 0.950 . S
H792 C788 0.950 . S
C793 C791 1.390 . S
C793 C794 1.387 . S
C793 H796 0.950 . S
C794 C793 1.387 . S
C794 C797 1.387 . S
H795 C791 0.950 . S
H796 C793 0.950 . S
C797 C788 1.390 . S
C797 H790 0.950 . S
C797 C794 1.387 . S
C798 C799 1.387 . S
C798 H802 0.950 . S
C798 C807 1.390 . S
C799 C798 1.387 . S
C799 C801 1.387 . S
H800 C807 0.950 . S
C801 C799 1.387 . S
C801 C803 1.390 . S
C801 H805 0.950 . S
H802 C798 0.950 . S
C803 C801 1.390 . S
C803 C804 1.387 . S
C803 H806 0.950 . S
C804 C803 1.387 . S
C804 C807 1.387 . S
H805 C801 0.950 . S
H806 C803 0.950 . S
C807 C798 1.390 . S
C807 H800 0.950 . S
C807 C804 1.387 . S
C494 C400 1.430 . S
C489 C36 1.404 . S
C504 C414 1.428 . S
C499 C93 1.414 . S
C514 C427 1.432 . S
C509 C126 1.408 . S
C519 C165 1.401 . S
C524 C394 1.436 . S
C529 C222 1.413 . S
C534 C387 1.440 . S
C539 C261 1.404 . S
C544 C407 1.438 . S
C554 C415 1.430 . S
C549 C318 1.409 . S
C564 C428 1.435 . S
C559 C381 1.422 . S
C569 C132 1.404 . S
C574 C454 1.429 . S
C584 C472 1.428 . S
C579 C189 1.414 . S
C589 C30 1.407 . S
C594 C479 1.431 . S
C604 C446 1.437 . S
C599 C69 1.402 . S
C609 C324 1.410 . S
C614 C439 1.439 . S
C619 C357 1.404 . S
C624 C453 1.438 . S
C634 C465 1.431 . S
C629 C228 1.405 . S
C639 C285 1.423 . S
C644 C480 1.435 . S
C654 C413 1.793 . S
C649 C45 1.799 . S
C664 C426 1.797 . S
C659 C84 1.808 . S
C669 C117 1.788 . S
C674 C389 1.792 . S
C679 C174 1.755 . S
C684 C401 1.780 . S
C689 C213 1.781 . S
C694 C433 1.777 . S
C704 C388 1.779 . S
C699 C270 1.751 . S
C714 C402 1.792 . S
C709 C309 1.790 . S
C724 C420 1.783 . S
C719 C372 1.800 . S
C734 C467 1.795 . S
C729 C141 1.800 . S
C744 C478 1.796 . S
C739 C180 1.807 . S
C749 C21 1.790 . S
C754 C441 1.792 . S
C764 C459 1.781 . S
C759 C78 1.754 . S
C774 C485 1.775 . S
C769 C333 1.788 . S
C779 C366 1.751 . S
C784 C440 1.776 . S
C794 C452 1.791 . S
C789 C237 1.796 . S
C804 C466 1.780 . S
C799 C276 1.799 . S
