# Generated by pormake.
# Topology anh, (6,3)-cn, num edge types: 1
# Building blocks:
#     Node 0, Type 0, BuildingBlock: INOVEN_clean_sbu_0, # of connection points: 6
#     Node 1, Type 0, BuildingBlock: INOVEN_clean_sbu_0, # of connection points: 6
#     Node 2, Type 0, BuildingBlock: INOVEN_clean_sbu_0, # of connection points: 6
#     Node 3, Type 1, BuildingBlock: BETDIP_clean_linker_0, # of connection points: 3
#     Node 4, Type 1, BuildingBlock: BETDIP_clean_linker_0, # of connection points: 3
#     Node 5, Type 1, BuildingBlock: BETDIP_clean_linker_0, # of connection points: 3
#     Node 6, Type 1, BuildingBlock: BETDIP_clean_linker_0, # of connection points: 3
#     Node 7, Type 1, BuildingBlock: BETDIP_clean_linker_0, # of connection points: 3
#     Node 8, Type 1, BuildingBlock: BETDIP_clean_linker_0, # of connection points: 3
#     Edge 9, Type (0, 1), BuildingBlock: EZIPEK_clean_linker_0, # of connection points: 2
#     Edge 10, Type (0, 1), BuildingBlock: EZIPEK_clean_linker_0, # of connection points: 2
#     Edge 11, Type (0, 1), BuildingBlock: EZIPEK_clean_linker_0, # of connection points: 2
#     Edge 12, Type (0, 1), BuildingBlock: EZIPEK_clean_linker_0, # of connection points: 2
#     Edge 13, Type (0, 1), BuildingBlock: EZIPEK_clean_linker_0, # of connection points: 2
#     Edge 14, Type (0, 1), BuildingBlock: EZIPEK_clean_linker_0, # of connection points: 2
#     Edge 15, Type (0, 1), BuildingBlock: EZIPEK_clean_linker_0, # of connection points: 2
#     Edge 16, Type (0, 1), BuildingBlock: EZIPEK_clean_linker_0, # of connection points: 2
#     Edge 17, Type (0, 1), BuildingBlock: EZIPEK_clean_linker_0, # of connection points: 2
#     Edge 18, Type (0, 1), BuildingBlock: EZIPEK_clean_linker_0, # of connection points: 2
#     Edge 19, Type (0, 1), BuildingBlock: EZIPEK_clean_linker_0, # of connection points: 2
#     Edge 20, Type (0, 1), BuildingBlock: EZIPEK_clean_linker_0, # of connection points: 2
#     Edge 21, Type (0, 1), BuildingBlock: EZIPEK_clean_linker_0, # of connection points: 2
#     Edge 22, Type (0, 1), BuildingBlock: EZIPEK_clean_linker_0, # of connection points: 2
#     Edge 23, Type (0, 1), BuildingBlock: EZIPEK_clean_linker_0, # of connection points: 2
#     Edge 24, Type (0, 1), BuildingBlock: EZIPEK_clean_linker_0, # of connection points: 2
#     Edge 25, Type (0, 1), BuildingBlock: EZIPEK_clean_linker_0, # of connection points: 2
#     Edge 26, Type (0, 1), BuildingBlock: EZIPEK_clean_linker_0, # of connection points: 2
# Relax obj value: 0.214
# Max RMSD: 0.212
# Mean RMSD: 0.135
data_MOF--net-anh--node1-INOVEN_clean_sbu_0--node2-BETDIP_clean_linker_0--edge1-EZIPEK_clean_linker_0
_symmetry_space_group_name_H-M    P1
_symmetry_Int_Tables_number       1
_symmetry_cell_setting            triclinic
loop_
_symmetry_equiv_pos_as_xyz
'x, y, z'
_cell_length_a     22.023446
_cell_length_b     29.136617
_cell_length_c     36.379067
_cell_angle_alpha  95.821911
_cell_angle_beta   88.239899
_cell_angle_gamma 132.17226
loop_
_atom_site_label
_atom_site_type_symbol
_atom_site_fract_x
_atom_site_fract_y
_atom_site_fract_z
_atom_type_partial_charge
Gd0 Gd 0.152 0.50183 0.14971 0.0
Gd1 Gd 1.02448 0.50728 0.14778 0.0
C2 C 0.217 0.63748 0.15491 0.0
C3 C 0.25675 0.49003 0.13684 0.0
C4 C 0.34602 0.53826 0.13523 0.0
C5 C 0.38855 0.5253 0.11459 0.0
C6 C 0.38823 0.59918 0.15176 0.0
C7 C 0.51396 0.63407 0.12582 0.0
C8 C 0.47183 0.64693 0.147 0.0
C9 C 0.47234 0.57303 0.11 0.0
C10 C 1.12077 0.52522 0.21797 0.0
C11 C 0.9604 0.37315 0.1473 0.0
C12 C 0.93724 0.53698 0.15446 0.0
C13 C 0.9634 0.59868 0.15437 0.0
C14 C 0.93037 0.60813 0.12694 0.0
C15 C 1.02918 0.65026 0.17796 0.0
C16 C 1.03331 0.71972 0.14426 0.0
C17 C 1.06391 0.71043 0.17293 0.0
C18 C 0.96518 0.66831 0.1219 0.0
C19 C 1.06922 0.49323 0.08039 0.0
O20 O 0.23718 0.60431 0.14664 0.0
O21 O 1.13955 0.60998 0.15926 0.0
O22 O 0.22791 0.48619 0.16945 0.0
O23 O 0.21543 0.48772 0.11047 0.0
O24 O 0.19305 0.55139 0.20673 0.0
O25 O 1.06653 0.48604 0.19248 0.0
O26 O 0.94122 0.40682 0.15636 0.0
O27 O 1.03573 0.39946 0.13857 0.0
O28 O 0.96306 0.52877 0.18268 0.0
O29 O 0.94323 0.5146 0.12305 0.0
O30 O 0.99379 0.46208 0.08878 0.0
O31 O 1.11633 0.5295 0.10795 0.0
H32 H 0.35667 0.47873 0.10139 0.0
H33 H 0.35624 0.61006 0.16772 0.0
H34 H 0.50333 0.69391 0.15926 0.0
H35 H 0.50447 0.56274 0.09348 0.0
H36 H 0.88007 0.56921 0.10835 0.0
H37 H 1.05609 0.64455 0.19931 0.0
H38 H 1.11634 0.74982 0.19044 0.0
H39 H 0.94066 0.67499 0.09981 0.0
Gd40 Gd 0.67516 1.01394 0.47467 0.0
Gd41 Gd 0.54903 0.022 0.46054 0.0
C42 C 0.48242 0.8876 0.46045 0.0
C43 C 0.75741 0.98887 0.50019 0.0
C44 C 0.73806 0.93372 0.51191 0.0
C45 C 0.7999 0.93191 0.51362 0.0
C46 C 0.65829 0.8827 0.52131 0.0
C47 C 0.7028 0.82892 0.53435 0.0
C48 C 0.64076 0.83054 0.53245 0.0
C49 C 0.78242 0.87977 0.52485 0.0
C50 C 0.65485 1.02031 0.40306 0.0
C51 C 0.74365 0.14986 0.47149 0.0
C52 C 0.4701 0.0527 0.44079 0.0
C53 C 0.48059 0.1067 0.45543 0.0
C54 C 0.5054 0.13055 0.49281 0.0
C55 C 0.47411 0.13848 0.43169 0.0
C56 C 0.51824 0.2175 0.48251 0.0
C57 C 0.4929 0.19376 0.44518 0.0
C58 C 0.52362 0.18531 0.50626 0.0
C59 C 0.57504 0.02072 0.53261 0.0
O60 O 0.55231 0.91585 0.47904 0.0
O61 O 0.47121 0.9199 0.44398 0.0
O62 O 0.74565 0.98698 0.46487 0.0
O63 O 0.73168 1.01157 0.5211 0.0
O64 O 0.7248 0.04596 0.41883 0.0
O65 O 0.59799 0.9888 0.425 0.0
O66 O 0.66909 0.12164 0.45859 0.0
O67 O 0.76031 0.11831 0.48425 0.0
O68 O 0.44147 1.01086 0.4636 0.0
O69 O 0.5321 0.06633 0.42304 0.0
O70 O 0.50433 0.99505 0.51804 0.0
O71 O 0.62851 0.0492 0.50914 0.0
H72 H 0.86169 0.97087 0.5064 0.0
H73 H 0.60979 0.88329 0.5203 0.0
H74 H 0.57906 0.79161 0.53978 0.0
H75 H 0.83085 0.87907 0.52623 0.0
H76 H 0.51268 0.10766 0.51149 0.0
H77 H 0.45642 0.12133 0.40266 0.0
H78 H 0.48887 0.21843 0.42654 0.0
H79 H 0.54367 0.20339 0.53506 0.0
Gd80 Gd 0.82115 0.63232 0.83671 0.0
Gd81 Gd 0.71175 0.50098 0.85338 0.0
C82 C 0.63251 0.56316 0.8554 0.0
C83 C 0.88749 0.73615 0.81175 0.0
C84 C 0.85501 0.76174 0.79722 0.0
C85 C 0.89551 0.82447 0.8074 0.0
C86 C 0.78038 0.72319 0.7761 0.0
C87 C 0.78648 0.8096 0.77646 0.0
C88 C 0.74653 0.74711 0.76561 0.0
C89 C 0.8614 0.84825 0.79715 0.0
C90 C 0.84332 0.62003 0.9069 0.0
C91 C 0.90002 0.57172 0.83848 0.0
C92 C 0.62158 0.39115 0.87453 0.0
C93 C 0.61843 0.3391 0.86356 0.0
C94 C 0.55445 0.28764 0.8394 0.0
C95 C 0.6824 0.34256 0.8744 0.0
C96 C 0.62232 0.24762 0.83445 0.0
C97 C 0.68411 0.29708 0.86005 0.0
C98 C 0.55661 0.24248 0.82483 0.0
C99 C 0.73394 0.51646 0.78025 0.0
O100 O 0.70369 0.61343 0.84468 0.0
O101 O 0.62138 0.51411 0.86207 0.0
O102 O 0.87683 0.72827 0.84688 0.0
O103 O 0.87309 0.68962 0.79134 0.0
O104 O 0.90118 0.66098 0.88652 0.0
O105 O 0.77499 0.58896 0.8895 0.0
O106 O 0.83625 0.53024 0.85761 0.0
O107 O 0.90153 0.61066 0.82145 0.0
O108 O 0.59682 0.40476 0.84897 0.0
O109 O 0.68782 0.44086 0.89336 0.0
O110 O 0.73051 0.4768 0.79563 0.0
O111 O 0.72265 0.54412 0.80401 0.0
H112 H 0.9526 0.85468 0.82403 0.0
H113 H 0.74751 0.6744 0.76835 0.0
H114 H 0.68849 0.71671 0.74973 0.0
H115 H 0.89282 0.89656 0.80572 0.0
H116 H 0.50421 0.28351 0.83071 0.0
H117 H 0.73266 0.3814 0.893 0.0
H118 H 0.73521 0.30168 0.86782 0.0
H119 H 0.50829 0.20449 0.80516 0.0
H120 H 0.52224 0.94372 0.13998 0.0
H121 H 0.68197 0.06731 0.23534 0.0
H122 H 0.47961 0.87414 0.24572 0.0
H123 H 0.67351 0.1311 0.20567 0.0
C124 C 0.69012 0.12403 0.17866 0.0
C125 C 0.53986 0.95139 0.16897 0.0
C126 C 0.49389 0.90116 0.19071 0.0
C127 C 0.6073 1.01181 0.18495 0.0
C128 C 0.62938 0.02133 0.22268 0.0
C129 C 0.58291 0.97211 0.24474 0.0
C130 C 0.51581 0.9122 0.22858 0.0
N131 N 0.65218 0.06275 0.16313 0.0
H132 H 0.60833 0.48324 0.52127 0.0
H133 H 0.68935 0.58237 0.63071 0.0
H134 H 0.63542 0.41021 0.61004 0.0
H135 H 0.61217 0.60392 0.61161 0.0
C136 C 0.63251 0.61554 0.58376 0.0
C137 C 0.62477 0.48739 0.54997 0.0
C138 C 0.62062 0.44152 0.56269 0.0
C139 C 0.64758 0.53758 0.57445 0.0
C140 C 0.66944 0.543 0.61161 0.0
C141 C 0.66476 0.49704 0.62452 0.0
C142 C 0.64007 0.44624 0.60002 0.0
N143 N 0.64781 0.58183 0.56116 0.0
H144 H 0.21928 0.57278 0.82708 0.0
H145 H 0.26577 0.53905 0.93127 0.0
H146 H 1.07748 0.54431 0.92111 0.0
H147 H 0.39751 0.60488 0.91143 0.0
C148 C 0.38712 0.58367 0.88327 0.0
C149 C 0.20594 0.56405 0.85574 0.0
C150 C 1.14258 0.55962 0.87167 0.0
C151 C 0.253 0.55831 0.8773 0.0
C152 C 0.23316 0.54573 0.91437 0.0
C153 C 0.16998 0.54054 0.92992 0.0
C154 C 1.12585 0.54797 0.90868 0.0
N155 N 0.31792 0.56342 0.86155 0.0
H156 H 0.1802 0.58326 0.48312 0.0
H157 H 1.03068 0.45256 0.38755 0.0
H158 H 0.23402 0.64462 0.37431 0.0
H159 H 0.9299 0.41827 0.43841 0.0
C160 C 0.96518 0.41151 0.45312 0.0
C161 C 0.1661 0.57319 0.45356 0.0
C162 C 0.21425 0.62153 0.43052 0.0
C163 C 1.09856 0.51206 0.43833 0.0
C164 C 1.08105 0.49957 0.39989 0.0
C165 C 1.13046 0.54697 0.37686 0.0
C166 C 0.1963 0.60783 0.39224 0.0
N167 N 1.05052 0.4628 0.46132 0.0
H168 H 0.66065 0.0431 0.79571 0.0
H169 H 0.64143 0.96448 0.68495 0.0
H170 H 0.60952 0.09467 0.70257 0.0
H171 H 0.59955 0.88359 0.7145 0.0
C172 C 0.64043 0.90665 0.73911 0.0
C173 C 0.64948 0.03854 0.76619 0.0
C174 C 0.63446 0.07341 0.75196 0.0
C175 C 0.64934 0.99737 0.74243 0.0
C176 C 0.63766 0.99341 0.70402 0.0
C177 C 0.62307 0.02823 0.68968 0.0
C178 C 0.62056 0.06756 0.71372 0.0
N179 N 0.66434 0.96245 0.75758 0.0
H180 H 0.91629 0.87333 0.09754 0.0
H181 H 1.02543 0.81841 0.03078 0.0
H182 H 0.76729 0.68408 0.052 0.0
H183 H 0.18677 0.97656 0.08149 0.0
C184 C 1.12762 0.9308 0.0846 0.0
C185 C 0.91067 0.83724 0.08128 0.0
C186 C 0.83537 0.776 0.07707 0.0
C187 C 0.97907 0.85167 0.06496 0.0
C188 C 0.97207 0.80431 0.0447 0.0
C189 C 0.89691 0.74121 0.04127 0.0
C190 C 0.82828 0.72933 0.05639 0.0
N191 N 1.05549 0.91417 0.06956 0.0
C192 C 0.66191 0.69631 0.14201 0.0
C193 C 0.60143 0.6846 0.11879 0.0
C194 C 0.70565 0.75528 0.07619 0.0
C195 C 0.76238 0.75765 0.09578 0.0
N196 N 0.79908 0.73451 0.14793 0.0
N197 N 0.56338 0.70468 0.06539 0.0
C198 C 0.74231 0.73045 0.12938 0.0
C199 C 0.62294 0.71564 0.08666 0.0
N200 N 0.64186 0.67426 0.17585 0.0
N201 N 0.73117 0.79029 0.04736 0.0
H202 H 0.50287 0.67777 0.07313 0.0
H203 H 0.57256 0.72005 0.03949 0.0
H204 H 0.79153 0.81921 0.03917 0.0
H205 H 0.69506 0.79474 0.03344 0.0
H206 H 0.68443 0.68546 0.19556 0.0
H207 H 0.5829 0.64838 0.18548 0.0
H208 H 0.78613 0.70963 0.17007 0.0
H209 H 0.85947 0.76148 0.14006 0.0
C210 C 0.88133 0.24647 0.45221 0.0
C211 C 0.80888 0.21907 0.47193 0.0
C212 C 0.85576 0.32306 0.48819 0.0
C213 C 0.92102 0.34841 0.46424 0.0
N214 N 0.9949 0.33482 0.42154 0.0
N215 N 0.72511 0.23146 0.50761 0.0
C216 C 0.93457 0.3106 0.4463 0.0
C217 C 0.79578 0.25751 0.48979 0.0
N218 N 0.89867 0.2112 0.43827 0.0
N219 N 0.8525 0.36227 0.51015 0.0
H220 H 0.68141 0.18453 0.51159 0.0
H221 H 0.70722 0.25571 0.51676 0.0
H222 H 0.89603 0.41052 0.50966 0.0
H223 H 0.81177 0.34804 0.53116 0.0
H224 H 0.95527 0.23006 0.42817 0.0
H225 H 0.85878 0.16324 0.43868 0.0
H226 H 1.0008 0.30802 0.40353 0.0
H227 H 1.03677 0.3817 0.41726 0.0
C228 C 0.68983 0.82636 0.78989 0.0
C229 C 0.74913 0.8346 0.76686 0.0
C230 C 0.73725 0.89036 0.72575 0.0
C231 C 0.68006 0.88389 0.74953 0.0
N232 N 0.60786 0.85279 0.80594 0.0
N233 N 0.83409 0.87667 0.71453 0.0
C234 C 0.6582 0.85403 0.78217 0.0
C235 C 0.7743 0.86737 0.73522 0.0
N236 N 0.66233 0.79064 0.81857 0.0
N237 N 0.75584 0.91862 0.69417 0.0
H238 H 0.85987 0.85818 0.71983 0.0
H239 H 0.86102 0.90439 0.69292 0.0
H240 H 0.73214 0.93796 0.68714 0.0
H241 H 0.79315 0.92221 0.67419 0.0
H242 H 0.61257 0.7765 0.83384 0.0
H243 H 0.68607 0.77146 0.8259 0.0
H244 H 0.59658 0.83813 0.83219 0.0
H245 H 0.58066 0.87009 0.80038 0.0
C246 C 1.13578 0.81183 0.1099 0.0
C247 C 1.0742 0.78331 0.13616 0.0
C248 C 1.07374 0.86715 0.13801 0.0
C249 C 1.12221 0.888 0.10658 0.0
N250 N 0.2041 0.88425 0.06333 0.0
N251 N 0.99025 0.78549 0.17877 0.0
C252 C 0.15658 0.86267 0.09335 0.0
C253 C 1.04566 0.81204 0.1517 0.0
N254 N 0.17305 0.78948 0.10048 0.0
N255 N 1.05525 0.90051 0.15451 0.0
H256 H 0.97084 0.74621 0.19006 0.0
H257 H 0.96179 0.80097 0.18963 0.0
H258 H 1.07708 0.94185 0.14527 0.0
H259 H 1.02416 0.89053 0.17879 0.0
H260 H 0.22337 0.81132 0.08399 0.0
H261 H 0.15774 0.75143 0.11162 0.0
H262 H 0.2224 0.86268 0.04921 0.0
H263 H 0.22224 0.92254 0.05124 0.0
C264 C 0.33507 0.79128 0.46757 0.0
C265 C 0.41539 0.81841 0.45776 0.0
C266 C 0.3652 0.71353 0.44134 0.0
C267 C 0.28353 0.68754 0.4455 0.0
N268 N 0.18895 0.70146 0.46005 0.0
N269 N 0.50558 0.8052 0.43133 0.0
C270 C 0.26799 0.7263 0.45827 0.0
C271 C 0.43052 0.77949 0.44409 0.0
N272 N 0.32311 0.82729 0.48677 0.0
N273 N 0.38007 0.67491 0.43466 0.0
H274 H 0.55454 0.85301 0.43159 0.0
H275 H 0.51746 0.77912 0.41738 0.0
H276 H 0.33325 0.62646 0.43224 0.0
H277 H 0.43875 0.69064 0.43506 0.0
H278 H 0.26771 0.80908 0.49809 0.0
H279 H 0.37061 0.87481 0.49456 0.0
H280 H 0.17357 0.72838 0.46453 0.0
H281 H 1.13821 0.65386 0.45466 0.0
C282 C 0.57251 0.14008 0.82286 0.0
C283 C 0.62901 0.20341 0.81575 0.0
C284 C 0.69893 0.18283 0.77346 0.0
C285 C 0.6358 0.11816 0.77656 0.0
N286 N 0.50618 0.03373 0.80069 0.0
N287 N 0.738 0.28324 0.77954 0.0
C288 C 0.57101 0.09628 0.80051 0.0
C289 C 0.69043 0.22446 0.78988 0.0
N290 N 0.52146 0.12209 0.85145 0.0
N291 N 0.76775 0.20457 0.7553 0.0
H292 H 0.73231 0.31477 0.7901 0.0
H293 H 0.77768 0.29876 0.75794 0.0
H294 H 0.77658 0.17542 0.74339 0.0
H295 H 0.81932 0.25179 0.75526 0.0
H296 H 0.48481 0.07797 0.86037 0.0
H297 H 0.52126 0.15306 0.86845 0.0
H298 H 0.45294 1.01517 0.81443 0.0
H299 H 0.5026 1.00013 0.78468 0.0
C300 C 0.64213 0.71861 0.52245 0.0
C301 C 0.68453 0.77411 0.5469 0.0
C302 C 0.69816 0.72704 0.59421 0.0
C303 C 0.64978 0.66984 0.57092 0.0
N304 N 0.5598 0.60715 0.51646 0.0
N305 N 0.73977 0.82803 0.60823 0.0
C306 C 0.61752 0.66443 0.53591 0.0
C307 C 0.70876 0.77744 0.58345 0.0
N308 N 0.62668 0.71798 0.4862 0.0
N309 N 0.73694 0.73419 0.62587 0.0
H310 H 0.74924 0.86626 0.60134 0.0
H311 H 0.74923 0.82959 0.63635 0.0
H312 H 0.73187 0.69879 0.63463 0.0
H313 H 0.7801 0.77685 0.64179 0.0
H314 H 0.60405 0.68093 0.46617 0.0
H315 H 0.64289 0.7566 0.47543 0.0
H316 H 0.5282 0.59979 0.49257 0.0
H317 H 0.53693 0.56589 0.5262 0.0
C318 C 0.95181 0.51607 0.8281 0.0
C319 C 0.97003 0.57308 0.83689 0.0
C320 C 1.11341 0.62471 0.85314 0.0
C321 C 1.09022 0.56578 0.85122 0.0
N322 N 0.987 0.45459 0.83677 0.0
N323 N 1.07108 0.68342 0.85732 0.0
C324 C 1.00956 0.51136 0.83812 0.0
C325 C 1.0522 0.62825 0.84847 0.0
N326 N 0.87981 0.46667 0.80911 0.0
N327 N 0.19422 0.67736 0.85994 0.0
H328 H 1.02987 0.68903 0.85362 0.0
H329 H 1.12625 0.72315 0.87056 0.0
H330 H 0.23946 0.67574 0.8639 0.0
H331 H 0.21758 0.72214 0.85831 0.0
H332 H 0.8659 0.42575 0.79873 0.0
H333 H 0.838 0.46938 0.80008 0.0
H334 H 0.92653 0.4124 0.83243 0.0
H335 H 1.02881 0.44981 0.84187 0.0
C336 C 0.2819 0.74276 0.1891 0.0
C337 C 0.28346 0.707 0.16008 0.0
C338 C 0.42399 0.801 0.14829 0.0
C339 C 0.41911 0.83694 0.17541 0.0
N340 N 0.33206 0.84441 0.21171 0.0
N341 N 0.34752 0.70841 0.10439 0.0
C342 C 0.34382 0.80856 0.19217 0.0
C343 C 0.35186 0.73807 0.13718 0.0
N344 N 0.22676 0.71466 0.21603 0.0
N345 N 0.49761 0.82537 0.13442 0.0
H346 H 0.29407 0.66391 0.09406 0.0
H347 H 0.39363 0.73088 0.08552 0.0
H348 H 0.55223 0.87077 0.14224 0.0
H349 H 0.50529 0.79856 0.11761 0.0
H350 H 0.22788 0.7395 0.23918 0.0
H351 H 0.18787 0.66723 0.21808 0.0
H352 H 0.27555 0.8257 0.22199 0.0
H353 H 0.37608 0.89301 0.21397 0.0
C354 C 0.48244 0.27607 0.51465 0.0
C355 C 0.54178 0.27716 0.49724 0.0
C356 C 0.64953 0.38937 0.51619 0.0
C357 C 0.59206 0.38644 0.53741 0.0
N358 N 0.4548 0.32857 0.55794 0.0
N359 N 0.68083 0.3329 0.48035 0.0
C360 C 0.50848 0.33031 0.53663 0.0
C361 C 0.62503 0.33353 0.4973 0.0
N362 N 0.40116 0.22316 0.50976 0.0
N363 N 0.72738 0.4456 0.5143 0.0
H364 H 0.66441 0.29323 0.46532 0.0
H365 H 0.74379 0.37068 0.48204 0.0
H366 H 0.74776 0.48695 0.52871 0.0
H367 H 0.77061 0.45255 0.49684 0.0
H368 H 0.35369 0.22062 0.51862 0.0
H369 H 0.3804 0.18248 0.49414 0.0
H370 H 0.39561 0.28778 0.56229 0.0
H371 H 0.47076 0.36804 0.57303 0.0
C372 C 0.54125 0.58024 0.83225 0.0
C373 C 0.5636 0.56266 0.8605 0.0
C374 C 0.45403 0.54321 0.89767 0.0
C375 C 0.44034 0.56964 0.87212 0.0
N376 N 0.4807 0.62187 0.81705 0.0
N377 N 0.54943 0.53841 0.92346 0.0
C378 C 0.48619 0.59011 0.83975 0.0
C379 C 0.52168 0.5466 0.89401 0.0
N380 N 0.57032 0.58549 0.79775 0.0
N381 N 0.4012 0.51364 0.92535 0.0
H382 H 0.60085 0.54339 0.92278 0.0
H383 H 0.52692 0.53337 0.94977 0.0
H384 H 0.35007 0.50893 0.9285 0.0
H385 H 0.40298 0.48803 0.94257 0.0
H386 H 0.55058 0.59265 0.77519 0.0
H387 H 0.60762 0.57614 0.79073 0.0
H388 H 0.5198 0.64441 0.79559 0.0
H389 H 0.44166 0.63015 0.82155 0.0
C390 C 0.82016 0.2696 0.12855 0.0
C391 C 0.89618 0.30458 0.14884 0.0
C392 C 0.84135 0.2112 0.17748 0.0
C393 C 0.76218 0.18041 0.16251 0.0
N394 N 0.67395 0.17863 0.1238 0.0
N395 N 0.97806 0.30956 0.19481 0.0
C396 C 0.75105 0.20883 0.13763 0.0
C397 C 0.90714 0.27534 0.17339 0.0
N398 N 0.81477 0.29416 0.10013 0.0
N399 N 0.85342 0.17891 0.19569 0.0
H400 H 1.02796 0.3565 0.19289 0.0
H401 H 0.98539 0.29268 0.2165 0.0
H402 H 0.80624 0.13176 0.19884 0.0
H403 H 0.91113 0.19685 0.20424 0.0
H404 H 0.76331 0.26918 0.08214 0.0
H405 H 0.86496 0.33784 0.09229 0.0
H406 H 0.65991 0.19959 0.10912 0.0
H407 H 0.62293 0.13303 0.12865 0.0
C408 C 1.07842 0.4564 0.01678 0.0
C409 C 1.09565 0.50483 0.04192 0.0
C410 C 0.17403 0.57824 -0.00453 0.0
C411 C 0.1499 0.52863 0.96916 0.0
N412 N 1.07087 0.41886 0.95286 0.0
N413 N 1.14342 0.60813 0.05241 0.0
C414 C 1.09999 0.46717 0.9793 0.0
C415 C 1.13933 0.56491 0.03062 0.0
N416 N 1.04321 0.40065 0.02895 0.0
N417 N 0.23089 0.63829 0.98697 0.0
H418 H 1.1148 0.59932 0.07743 0.0
H419 H 0.16755 0.65042 0.04388 0.0
H420 H 0.25746 0.6498 0.96136 0.0
H421 H 0.25737 0.67683 0.00639 0.0
H422 H 1.03721 0.36586 0.0131 0.0
H423 H 1.0253 0.39083 0.05602 0.0
H424 H 1.02678 0.37224 0.95759 0.0
H425 H 1.08658 0.42514 0.92532 0.0
C426 C 0.62797 0.04397 0.34468 0.0
C427 C 0.64029 1.00955 0.36237 0.0
C428 C 0.62561 0.95591 0.30217 0.0
C429 C 0.60214 0.98428 0.28537 0.0
N430 N 0.56309 0.04481 0.29278 0.0
N431 N 0.64102 0.92678 0.3589 0.0
C432 C 0.59819 0.02537 0.30724 0.0
C433 C 0.63617 0.96364 0.34139 0.0
N434 N 0.64779 0.096 0.36311 0.0
N435 N 0.64112 0.9238 0.28066 0.0
H436 H 0.65102 0.93218 0.38746 0.0
H437 H 0.62906 0.88795 0.3454 0.0
H438 H 0.63619 0.91853 0.25183 0.0
H439 H 0.66628 0.90748 0.29123 0.0
H440 H 0.64689 0.12604 0.35041 0.0
H441 H 0.67417 0.11283 0.3899 0.0
H442 H 0.5518 0.06997 0.30874 0.0
H443 H 0.53729 0.03028 0.26587 0.0
C444 C 0.77652 0.52755 0.71463 0.0
C445 C 0.7154 0.50889 0.74018 0.0
C446 C 0.62208 0.48363 0.69008 0.0
C447 C 0.6823 0.50077 0.66433 0.0
N448 N 0.81306 0.53289 0.65047 0.0
N449 N 0.5744 0.45618 0.75177 0.0
C450 C 0.75845 0.52082 0.67615 0.0
C451 C 0.63666 0.48357 0.72782 0.0
N452 N 0.85254 0.55334 0.72735 0.0
N453 N 0.55096 0.4677 0.67844 0.0
H454 H 0.58153 0.45301 0.77933 0.0
H455 H 0.51354 0.43116 0.7437 0.0
H456 H 0.535 0.46273 0.65069 0.0
H457 H 0.50979 0.46303 0.6964 0.0
H458 H 0.90318 0.57491 0.7111 0.0
H459 H 0.86642 0.5558 0.75499 0.0
H460 H 0.86548 0.5408 0.65648 0.0
H461 H 0.80396 0.53186 0.62232 0.0
C462 C 0.6597 0.07842 0.59308 0.0
C463 C 0.59108 0.02221 0.57239 0.0
C464 C 0.54129 0.97065 0.6293 0.0
C465 C 0.61307 0.02515 0.64909 0.0
N466 N 0.7499 0.12544 0.64809 0.0
N467 N 0.47893 0.91061 0.56971 0.0
C468 C 0.67526 0.07731 0.6304 0.0
C469 C 0.53532 0.96704 0.59018 0.0
N470 N 0.70736 0.13376 0.57819 0.0
N471 N 0.47765 0.92298 0.64787 0.0
H472 H 0.47502 0.9053 0.54092 0.0
H473 H 0.44239 0.86838 0.58107 0.0
H474 H 0.47951 0.92386 0.67657 0.0
H475 H 0.42042 0.88512 0.63513 0.0
H476 H 0.75229 0.17666 0.59356 0.0
H477 H 0.69673 0.13801 0.55171 0.0
H478 H 0.80037 0.16154 0.63456 0.0
H479 H 0.76384 0.12615 0.67541 0.0
C480 C 0.93794 0.67081 0.96385 0.0
C481 C 0.85634 0.62817 0.94797 0.0
C482 C 0.80882 0.62986 0.00905 0.0
C483 C 0.88691 0.68986 0.01799 0.0
N484 N 1.02563 0.73363 0.01954 0.0
N485 N 0.71246 0.54943 0.9605 0.0
C486 C 0.95301 0.70106 0.00011 0.0
C487 C 0.79073 0.60137 0.97216 0.0
N488 N 0.99958 0.68151 0.9444 0.0
N489 N 0.75813 0.5972 0.03663 0.0
H490 H 0.69839 0.52258 0.93551 0.0
H491 H 0.66208 0.53314 0.9761 0.0
H492 H 0.77697 0.61513 0.0644 0.0
H493 H 0.70329 0.55085 0.03224 0.0
H494 H 1.06155 0.71704 0.95229 0.0
H495 H 0.98719 0.65289 0.92048 0.0
H496 H 1.07585 0.74095 0.00926 0.0
H497 H 1.03122 0.7476 0.04771 0.0
C498 C 1.12931 0.49258 0.27707 0.0
C499 C 1.1063 0.51952 0.25807 0.0
C500 C 1.0802 0.5506 0.31731 0.0
C501 C 1.1156 0.5326 0.33613 0.0
N502 N 0.18047 0.49097 0.33445 0.0
N503 N 1.06465 0.57776 0.25989 0.0
C504 C 1.14109 0.50409 0.3162 0.0
C505 C 1.08191 0.54879 0.27812 0.0
N506 N 1.13941 0.45562 0.25763 0.0
N507 N 1.04458 0.56905 0.33696 0.0
H508 H 1.06531 0.57681 0.23131 0.0
H509 H 1.05589 0.60626 0.27302 0.0
H510 H 1.04291 0.57123 0.36574 0.0
H511 H 1.01063 0.57696 0.3247 0.0
H512 H 1.14751 0.42925 0.27002 0.0
H513 H 1.13204 0.44675 0.22892 0.0
H514 H 0.20929 0.47721 0.32105 0.0
H515 H 0.19005 0.49834 0.36314 0.0
loop_
_geom_bond_atom_site_label_1
_geom_bond_atom_site_label_2
_geom_bond_distance
_geom_bond_site_symmetry_2
_ccdc_geom_bond_type
Gd0 C3 2.818 . S
Gd0 O20 2.377 . S
Gd0 O22 2.448 . S
Gd0 O23 2.506 . S
Gd0 O24 2.435 . S
Gd0 O25 2.717 . S
Gd0 O27 2.395 1_455 S
Gd0 O31 2.327 . S
Gd1 C12 2.818 1_455 S
Gd1 O21 2.395 . S
Gd1 O25 2.327 . S
Gd1 O26 2.377 1_455 S
Gd1 O28 2.448 1_455 S
Gd1 O29 2.506 1_455 S
Gd1 O30 2.435 . S
Gd1 O31 2.717 . S
C2 O20 1.240 . S
C2 O21 1.240 . S
C3 Gd0 2.818 . S
C3 C4 1.510 . S
C3 O22 1.249 . S
C3 O23 1.252 . S
C4 C3 1.510 . S
C4 C5 1.404 . S
C4 C6 1.352 . S
C5 C4 1.404 . S
C5 C9 1.389 . S
C5 H32 0.930 . S
C6 C4 1.352 . S
C6 C8 1.374 . S
C6 H33 0.931 . S
C7 C8 1.359 . S
C7 C9 1.364 . S
C8 C6 1.374 . S
C8 C7 1.359 . S
C8 H34 0.931 . S
C9 C5 1.389 . S
C9 C7 1.364 . S
C9 H35 0.931 . S
C10 O24 1.256 . S
C10 O25 1.257 . S
C11 O26 1.240 . S
C11 O27 1.240 . S
C12 Gd1 2.818 1_655 S
C12 C13 1.510 . S
C12 O28 1.249 . S
C12 O29 1.252 . S
C13 C12 1.510 . S
C13 C14 1.404 . S
C13 C15 1.352 . S
C14 C13 1.404 . S
C14 C18 1.389 . S
C14 H36 0.930 . S
C15 C13 1.352 . S
C15 C17 1.374 . S
C15 H37 0.931 . S
C16 C17 1.359 . S
C16 C18 1.364 . S
C17 C15 1.374 . S
C17 C16 1.359 . S
C17 H38 0.931 . S
C18 C14 1.389 . S
C18 C16 1.364 . S
C18 H39 0.931 . S
C19 O30 1.256 . S
C19 O31 1.257 . S
O20 Gd0 2.377 . S
O20 C2 1.240 . S
O21 Gd1 2.395 . S
O21 C2 1.240 . S
O22 Gd0 2.448 . S
O22 C3 1.249 . S
O23 Gd0 2.506 . S
O23 C3 1.252 . S
O24 Gd0 2.435 . S
O24 C10 1.256 . S
O25 Gd0 2.717 . S
O25 Gd1 2.327 . S
O25 C10 1.257 . S
O26 Gd1 2.377 1_655 S
O26 C11 1.240 . S
O27 Gd0 2.395 1_655 S
O27 C11 1.240 . S
O28 Gd1 2.448 1_655 S
O28 C12 1.249 . S
O29 Gd1 2.506 1_655 S
O29 C12 1.252 . S
O30 Gd1 2.435 . S
O30 C19 1.256 . S
O31 Gd0 2.327 . S
O31 Gd1 2.717 . S
O31 C19 1.257 . S
H32 C5 0.930 . S
H33 C6 0.931 . S
H34 C8 0.931 . S
H35 C9 0.931 . S
H36 C14 0.930 . S
H37 C15 0.931 . S
H38 C17 0.931 . S
H39 C18 0.931 . S
Gd40 C43 2.818 1_545 S
Gd40 O60 2.377 1_545 S
Gd40 O62 2.448 1_545 S
Gd40 O63 2.506 1_545 S
Gd40 O64 2.435 . S
Gd40 O65 2.717 . S
Gd40 O67 2.395 . S
Gd40 O71 2.327 . S
Gd41 C52 2.818 . S
Gd41 O61 2.395 1_545 S
Gd41 O65 2.327 . S
Gd41 O66 2.377 . S
Gd41 O68 2.448 . S
Gd41 O69 2.506 . S
Gd41 O70 2.435 . S
Gd41 O71 2.717 . S
C42 O60 1.240 . S
C42 O61 1.240 . S
C43 Gd40 2.818 1_565 S
C43 C44 1.510 . S
C43 O62 1.249 . S
C43 O63 1.252 . S
C44 C43 1.510 . S
C44 C45 1.404 . S
C44 C46 1.352 . S
C45 C44 1.404 . S
C45 C49 1.389 . S
C45 H72 0.930 . S
C46 C44 1.352 . S
C46 C48 1.374 . S
C46 H73 0.931 . S
C47 C48 1.359 . S
C47 C49 1.364 . S
C48 C46 1.374 . S
C48 C47 1.359 . S
C48 H74 0.931 . S
C49 C45 1.389 . S
C49 C47 1.364 . S
C49 H75 0.931 . S
C50 O64 1.256 . S
C50 O65 1.257 . S
C51 O66 1.240 . S
C51 O67 1.240 . S
C52 Gd41 2.818 . S
C52 C53 1.510 . S
C52 O68 1.249 . S
C52 O69 1.252 . S
C53 C52 1.510 . S
C53 C54 1.404 . S
C53 C55 1.352 . S
C54 C53 1.404 . S
C54 C58 1.389 . S
C54 H76 0.930 . S
C55 C53 1.352 . S
C55 C57 1.374 . S
C55 H77 0.931 . S
C56 C57 1.359 . S
C56 C58 1.364 . S
C57 C55 1.374 . S
C57 C56 1.359 . S
C57 H78 0.931 . S
C58 C54 1.389 . S
C58 C56 1.364 . S
C58 H79 0.931 . S
C59 O70 1.256 . S
C59 O71 1.257 . S
O60 Gd40 2.377 1_565 S
O60 C42 1.240 . S
O61 Gd41 2.395 1_565 S
O61 C42 1.240 . S
O62 Gd40 2.448 1_565 S
O62 C43 1.249 . S
O63 Gd40 2.506 1_565 S
O63 C43 1.252 . S
O64 Gd40 2.435 . S
O64 C50 1.256 . S
O65 Gd40 2.717 . S
O65 Gd41 2.327 . S
O65 C50 1.257 . S
O66 Gd41 2.377 . S
O66 C51 1.240 . S
O67 Gd40 2.395 . S
O67 C51 1.240 . S
O68 Gd41 2.448 . S
O68 C52 1.249 . S
O69 Gd41 2.506 . S
O69 C52 1.252 . S
O70 Gd41 2.435 . S
O70 C59 1.256 . S
O71 Gd40 2.327 . S
O71 Gd41 2.717 . S
O71 C59 1.257 . S
H72 C45 0.930 . S
H73 C46 0.931 . S
H74 C48 0.931 . S
H75 C49 0.931 . S
H76 C54 0.930 . S
H77 C55 0.931 . S
H78 C57 0.931 . S
H79 C58 0.931 . S
Gd80 C83 2.818 . S
Gd80 O100 2.377 . S
Gd80 O102 2.448 . S
Gd80 O103 2.506 . S
Gd80 O104 2.435 . S
Gd80 O105 2.717 . S
Gd80 O107 2.395 . S
Gd80 O111 2.327 . S
Gd81 C92 2.818 . S
Gd81 O101 2.395 . S
Gd81 O105 2.327 . S
Gd81 O106 2.377 . S
Gd81 O108 2.448 . S
Gd81 O109 2.506 . S
Gd81 O110 2.435 . S
Gd81 O111 2.717 . S
C82 O100 1.240 . S
C82 O101 1.240 . S
C83 Gd80 2.818 . S
C83 C84 1.510 . S
C83 O102 1.249 . S
C83 O103 1.252 . S
C84 C83 1.510 . S
C84 C85 1.404 . S
C84 C86 1.352 . S
C85 C84 1.404 . S
C85 C89 1.389 . S
C85 H112 0.930 . S
C86 C84 1.352 . S
C86 C88 1.374 . S
C86 H113 0.931 . S
C87 C88 1.359 . S
C87 C89 1.364 . S
C88 C86 1.374 . S
C88 C87 1.359 . S
C88 H114 0.931 . S
C89 C85 1.389 . S
C89 C87 1.364 . S
C89 H115 0.931 . S
C90 O104 1.256 . S
C90 O105 1.257 . S
C91 O106 1.240 . S
C91 O107 1.240 . S
C92 Gd81 2.818 . S
C92 C93 1.510 . S
C92 O108 1.249 . S
C92 O109 1.252 . S
C93 C92 1.510 . S
C93 C94 1.404 . S
C93 C95 1.352 . S
C94 C93 1.404 . S
C94 C98 1.389 . S
C94 H116 0.930 . S
C95 C93 1.352 . S
C95 C97 1.374 . S
C95 H117 0.931 . S
C96 C97 1.359 . S
C96 C98 1.364 . S
C97 C95 1.374 . S
C97 C96 1.359 . S
C97 H118 0.931 . S
C98 C94 1.389 . S
C98 C96 1.364 . S
C98 H119 0.931 . S
C99 O110 1.256 . S
C99 O111 1.257 . S
O100 Gd80 2.377 . S
O100 C82 1.240 . S
O101 Gd81 2.395 . S
O101 C82 1.240 . S
O102 Gd80 2.448 . S
O102 C83 1.249 . S
O103 Gd80 2.506 . S
O103 C83 1.252 . S
O104 Gd80 2.435 . S
O104 C90 1.256 . S
O105 Gd80 2.717 . S
O105 Gd81 2.327 . S
O105 C90 1.257 . S
O106 Gd81 2.377 . S
O106 C91 1.240 . S
O107 Gd80 2.395 . S
O107 C91 1.240 . S
O108 Gd81 2.448 . S
O108 C92 1.249 . S
O109 Gd81 2.506 . S
O109 C92 1.252 . S
O110 Gd81 2.435 . S
O110 C99 1.256 . S
O111 Gd80 2.327 . S
O111 Gd81 2.717 . S
O111 C99 1.257 . S
H112 C85 0.930 . S
H113 C86 0.931 . S
H114 C88 0.931 . S
H115 C89 0.931 . S
H116 C94 0.930 . S
H117 C95 0.931 . S
H118 C97 0.931 . S
H119 C98 0.931 . S
H120 C125 0.930 . S
H121 C128 0.930 . S
H122 C130 0.930 . S
H123 C124 1.016 . S
C124 H123 1.016 . S
C124 N131 1.286 . S
C125 H120 0.930 . S
C125 C126 1.397 1_545 S
C125 C127 1.361 . S
C126 C125 1.397 1_565 S
C126 C130 1.390 . S
C127 C125 1.361 . S
C127 C128 1.393 . S
C127 N131 1.413 . S
C128 H121 0.930 . S
C128 C127 1.393 . S
C128 C129 1.399 . S
C129 C128 1.399 . S
C129 C130 1.381 1_545 S
C130 H122 0.930 . S
C130 C126 1.390 . S
C130 C129 1.381 1_565 S
N131 C124 1.286 . S
N131 C127 1.413 . S
H132 C137 0.930 . S
H133 C140 0.930 . S
H134 C142 0.930 . S
H135 C136 1.016 . S
C136 H135 1.016 . S
C136 N143 1.286 . S
C137 H132 0.930 . S
C137 C138 1.397 . S
C137 C139 1.361 . S
C138 C137 1.397 . S
C138 C142 1.390 . S
C139 C137 1.361 . S
C139 C140 1.393 . S
C139 N143 1.413 . S
C140 H133 0.930 . S
C140 C139 1.393 . S
C140 C141 1.399 . S
C141 C140 1.399 . S
C141 C142 1.381 . S
C142 H134 0.930 . S
C142 C138 1.390 . S
C142 C141 1.381 . S
N143 C136 1.286 . S
N143 C139 1.413 . S
H144 C149 0.930 . S
H145 C152 0.930 . S
H146 C154 0.914 1_655 S
H147 C148 1.016 . S
C148 H147 1.016 . S
C148 N155 1.286 . S
C149 H144 0.930 . S
C149 C150 1.397 1_455 S
C149 C151 1.361 . S
C150 C149 1.397 1_655 S
C150 C154 1.388 1_655 S
C151 C149 1.361 . S
C151 C152 1.393 . S
C151 N155 1.413 . S
C152 H145 0.930 . S
C152 C151 1.393 . S
C152 C153 1.399 . S
C153 C152 1.399 . S
C153 C154 1.399 . S
C154 H146 0.914 1_455 S
C154 C150 1.388 1_455 S
C154 C153 1.399 . S
N155 C148 1.286 . S
N155 C151 1.413 . S
H156 C161 0.930 . S
H157 C164 0.930 . S
H158 C166 0.930 . S
H159 C160 1.016 . S
C160 H159 1.016 . S
C160 N167 1.286 . S
C161 H156 0.930 . S
C161 C162 1.397 . S
C161 C163 1.361 1_455 S
C162 C161 1.397 . S
C162 C166 1.390 . S
C163 C161 1.361 1_655 S
C163 C164 1.393 . S
C163 N167 1.413 . S
C164 H157 0.930 . S
C164 C163 1.393 . S
C164 C165 1.399 1_655 S
C165 C164 1.399 1_455 S
C165 C166 1.381 . S
C166 H158 0.930 . S
C166 C162 1.390 . S
C166 C165 1.381 . S
N167 C160 1.286 . S
N167 C163 1.413 . S
H168 C173 0.930 . S
H169 C176 0.930 1_565 S
H170 C178 0.930 . S
H171 C172 1.016 . S
C172 H171 1.016 . S
C172 N179 1.286 . S
C173 H168 0.930 . S
C173 C174 1.397 . S
C173 C175 1.361 . S
C174 C173 1.397 . S
C174 C178 1.390 . S
C175 C173 1.361 . S
C175 C176 1.393 . S
C175 N179 1.413 1_545 S
C176 H169 0.930 1_545 S
C176 C175 1.393 . S
C176 C177 1.399 . S
C177 C176 1.399 . S
C177 C178 1.381 . S
C178 H170 0.930 . S
C178 C174 1.390 . S
C178 C177 1.381 . S
N179 C172 1.286 . S
N179 C175 1.413 1_565 S
H180 C185 0.930 . S
H181 C188 0.930 . S
H182 C190 0.930 . S
H183 C184 1.016 . S
C184 H183 1.016 . S
C184 N191 1.286 . S
C185 H180 0.930 . S
C185 C186 1.397 . S
C185 C187 1.361 . S
C186 C185 1.397 . S
C186 C190 1.390 . S
C187 C185 1.361 . S
C187 C188 1.393 . S
C187 N191 1.413 . S
C188 H181 0.930 . S
C188 C187 1.393 . S
C188 C189 1.399 . S
C189 C188 1.399 . S
C189 C190 1.381 . S
C190 H182 0.930 . S
C190 C186 1.390 . S
C190 C189 1.381 . S
N191 C184 1.286 . S
N191 C187 1.413 . S
C192 C193 1.363 . S
C192 C198 1.379 . S
C192 N200 1.356 . S
C193 C192 1.363 . S
C193 C199 1.363 . S
C194 C195 1.363 . S
C194 C199 1.379 . S
C194 N201 1.356 . S
C195 C194 1.363 . S
C195 C198 1.363 . S
N196 C198 1.356 . S
N196 H208 0.984 . S
N196 H209 0.985 . S
N197 C199 1.356 . S
N197 H202 0.984 . S
N197 H203 0.985 . S
C198 C192 1.379 . S
C198 C195 1.363 . S
C198 N196 1.356 . S
C199 C193 1.363 . S
C199 C194 1.379 . S
C199 N197 1.356 . S
N200 C192 1.356 . S
N200 H206 0.984 . S
N200 H207 0.984 . S
N201 C194 1.356 . S
N201 H204 0.984 . S
N201 H205 0.985 . S
H202 N197 0.984 . S
H203 N197 0.985 . S
H204 N201 0.984 . S
H205 N201 0.985 . S
H206 N200 0.984 . S
H207 N200 0.984 . S
H208 N196 0.984 . S
H209 N196 0.985 . S
C210 C211 1.363 . S
C210 C216 1.379 . S
C210 N218 1.356 . S
C211 C210 1.363 . S
C211 C217 1.363 . S
C212 C213 1.363 . S
C212 C217 1.379 . S
C212 N219 1.356 . S
C213 C212 1.363 . S
C213 C216 1.363 . S
N214 C216 1.356 . S
N214 H226 0.984 . S
N214 H227 0.985 . S
N215 C217 1.356 . S
N215 H220 0.984 . S
N215 H221 0.985 . S
C216 C210 1.379 . S
C216 C213 1.363 . S
C216 N214 1.356 . S
C217 C211 1.363 . S
C217 C212 1.379 . S
C217 N215 1.356 . S
N218 C210 1.356 . S
N218 H224 0.984 . S
N218 H225 0.984 . S
N219 C212 1.356 . S
N219 H222 0.984 . S
N219 H223 0.985 . S
H220 N215 0.984 . S
H221 N215 0.985 . S
H222 N219 0.984 . S
H223 N219 0.985 . S
H224 N218 0.984 . S
H225 N218 0.984 . S
H226 N214 0.984 . S
H227 N214 0.985 . S
C228 C229 1.363 . S
C228 C234 1.379 . S
C228 N236 1.356 . S
C229 C228 1.363 . S
C229 C235 1.363 . S
C230 C231 1.363 . S
C230 C235 1.379 . S
C230 N237 1.356 . S
C231 C230 1.363 . S
C231 C234 1.363 . S
N232 C234 1.356 . S
N232 H244 0.984 . S
N232 H245 0.985 . S
N233 C235 1.356 . S
N233 H238 0.984 . S
N233 H239 0.985 . S
C234 C228 1.379 . S
C234 C231 1.363 . S
C234 N232 1.356 . S
C235 C229 1.363 . S
C235 C230 1.379 . S
C235 N233 1.356 . S
N236 C228 1.356 . S
N236 H242 0.984 . S
N236 H243 0.984 . S
N237 C230 1.356 . S
N237 H240 0.984 . S
N237 H241 0.985 . S
H238 N233 0.984 . S
H239 N233 0.985 . S
H240 N237 0.984 . S
H241 N237 0.985 . S
H242 N236 0.984 . S
H243 N236 0.984 . S
H244 N232 0.984 . S
H245 N232 0.985 . S
C246 C247 1.363 . S
C246 C252 1.379 . S
C246 N254 1.356 . S
C247 C246 1.363 . S
C247 C253 1.363 . S
C248 C249 1.363 . S
C248 C253 1.379 . S
C248 N255 1.356 . S
C249 C248 1.363 . S
C249 C252 1.363 . S
N250 C252 1.356 . S
N250 H262 0.984 . S
N250 H263 0.985 . S
N251 C253 1.356 . S
N251 H256 0.984 . S
N251 H257 0.985 . S
C252 C246 1.379 . S
C252 C249 1.363 . S
C252 N250 1.356 . S
C253 C247 1.363 . S
C253 C248 1.379 . S
C253 N251 1.356 . S
N254 C246 1.356 . S
N254 H260 0.984 . S
N254 H261 0.984 . S
N255 C248 1.356 . S
N255 H258 0.984 . S
N255 H259 0.985 . S
H256 N251 0.984 . S
H257 N251 0.985 . S
H258 N255 0.984 . S
H259 N255 0.985 . S
H260 N254 0.984 . S
H261 N254 0.984 . S
H262 N250 0.984 . S
H263 N250 0.985 . S
C264 C265 1.363 . S
C264 C270 1.379 . S
C264 N272 1.356 . S
C265 C264 1.363 . S
C265 C271 1.363 . S
C266 C267 1.363 . S
C266 C271 1.379 . S
C266 N273 1.356 . S
C267 C266 1.363 . S
C267 C270 1.363 . S
N268 C270 1.356 . S
N268 H280 0.984 . S
N268 H281 0.985 . S
N269 C271 1.356 . S
N269 H274 0.984 . S
N269 H275 0.985 . S
C270 C264 1.379 . S
C270 C267 1.363 . S
C270 N268 1.356 . S
C271 C265 1.363 . S
C271 C266 1.379 . S
C271 N269 1.356 . S
N272 C264 1.356 . S
N272 H278 0.984 . S
N272 H279 0.984 . S
N273 C266 1.356 . S
N273 H276 0.984 . S
N273 H277 0.985 . S
H274 N269 0.984 . S
H275 N269 0.985 . S
H276 N273 0.984 . S
H277 N273 0.985 . S
H278 N272 0.984 . S
H279 N272 0.984 . S
H280 N268 0.984 . S
H281 N268 0.985 . S
C282 C283 1.363 . S
C282 C288 1.379 . S
C282 N290 1.356 . S
C283 C282 1.363 . S
C283 C289 1.363 . S
C284 C285 1.363 . S
C284 C289 1.379 . S
C284 N291 1.356 . S
C285 C284 1.363 . S
C285 C288 1.363 . S
N286 C288 1.356 . S
N286 H298 0.984 . S
N286 H299 0.985 . S
N287 C289 1.356 . S
N287 H292 0.984 . S
N287 H293 0.985 . S
C288 C282 1.379 . S
C288 C285 1.363 . S
C288 N286 1.356 . S
C289 C283 1.363 . S
C289 C284 1.379 . S
C289 N287 1.356 . S
N290 C282 1.356 . S
N290 H296 0.984 . S
N290 H297 0.984 . S
N291 C284 1.356 . S
N291 H294 0.984 . S
N291 H295 0.985 . S
H292 N287 0.984 . S
H293 N287 0.985 . S
H294 N291 0.984 . S
H295 N291 0.985 . S
H296 N290 0.984 . S
H297 N290 0.984 . S
H298 N286 0.984 . S
H299 N286 0.985 . S
C300 C301 1.363 . S
C300 C306 1.379 . S
C300 N308 1.356 . S
C301 C300 1.363 . S
C301 C307 1.363 . S
C302 C303 1.363 . S
C302 C307 1.379 . S
C302 N309 1.356 . S
C303 C302 1.363 . S
C303 C306 1.363 . S
N304 C306 1.356 . S
N304 H316 0.984 . S
N304 H317 0.985 . S
N305 C307 1.356 . S
N305 H310 0.984 . S
N305 H311 0.985 . S
C306 C300 1.379 . S
C306 C303 1.363 . S
C306 N304 1.356 . S
C307 C301 1.363 . S
C307 C302 1.379 . S
C307 N305 1.356 . S
N308 C300 1.356 . S
N308 H314 0.984 . S
N308 H315 0.984 . S
N309 C302 1.356 . S
N309 H312 0.984 . S
N309 H313 0.985 . S
H310 N305 0.984 . S
H311 N305 0.985 . S
H312 N309 0.984 . S
H313 N309 0.985 . S
H314 N308 0.984 . S
H315 N308 0.984 . S
H316 N304 0.984 . S
H317 N304 0.985 . S
C318 C319 1.363 . S
C318 C324 1.379 . S
C318 N326 1.356 . S
C319 C318 1.363 . S
C319 C325 1.363 . S
C320 C321 1.363 . S
C320 C325 1.379 . S
C320 N327 1.356 . S
C321 C320 1.363 . S
C321 C324 1.363 . S
N322 C324 1.356 . S
N322 H334 0.984 . S
N322 H335 0.985 . S
N323 C325 1.356 . S
N323 H328 0.984 . S
N323 H329 0.985 . S
C324 C318 1.379 . S
C324 C321 1.363 . S
C324 N322 1.356 . S
C325 C319 1.363 . S
C325 C320 1.379 . S
C325 N323 1.356 . S
N326 C318 1.356 . S
N326 H332 0.984 . S
N326 H333 0.984 . S
N327 C320 1.356 . S
N327 H330 0.984 . S
N327 H331 0.985 . S
H328 N323 0.984 . S
H329 N323 0.985 . S
H330 N327 0.984 . S
H331 N327 0.985 . S
H332 N326 0.984 . S
H333 N326 0.984 . S
H334 N322 0.984 . S
H335 N322 0.985 . S
C336 C337 1.363 . S
C336 C342 1.379 . S
C336 N344 1.356 . S
C337 C336 1.363 . S
C337 C343 1.363 . S
C338 C339 1.363 . S
C338 C343 1.379 . S
C338 N345 1.356 . S
C339 C338 1.363 . S
C339 C342 1.363 . S
N340 C342 1.356 . S
N340 H352 0.984 . S
N340 H353 0.985 . S
N341 C343 1.356 . S
N341 H346 0.984 . S
N341 H347 0.985 . S
C342 C336 1.379 . S
C342 C339 1.363 . S
C342 N340 1.356 . S
C343 C337 1.363 . S
C343 C338 1.379 . S
C343 N341 1.356 . S
N344 C336 1.356 . S
N344 H350 0.984 . S
N344 H351 0.984 . S
N345 C338 1.356 . S
N345 H348 0.984 . S
N345 H349 0.985 . S
H346 N341 0.984 . S
H347 N341 0.985 . S
H348 N345 0.984 . S
H349 N345 0.985 . S
H350 N344 0.984 . S
H351 N344 0.984 . S
H352 N340 0.984 . S
H353 N340 0.985 . S
C354 C355 1.363 . S
C354 C360 1.379 . S
C354 N362 1.356 . S
C355 C354 1.363 . S
C355 C361 1.363 . S
C356 C357 1.363 . S
C356 C361 1.379 . S
C356 N363 1.356 . S
C357 C356 1.363 . S
C357 C360 1.363 . S
N358 C360 1.356 . S
N358 H370 0.984 . S
N358 H371 0.985 . S
N359 C361 1.356 . S
N359 H364 0.984 . S
N359 H365 0.985 . S
C360 C354 1.379 . S
C360 C357 1.363 . S
C360 N358 1.356 . S
C361 C355 1.363 . S
C361 C356 1.379 . S
C361 N359 1.356 . S
N362 C354 1.356 . S
N362 H368 0.984 . S
N362 H369 0.984 . S
N363 C356 1.356 . S
N363 H366 0.984 . S
N363 H367 0.985 . S
H364 N359 0.984 . S
H365 N359 0.985 . S
H366 N363 0.984 . S
H367 N363 0.985 . S
H368 N362 0.984 . S
H369 N362 0.984 . S
H370 N358 0.984 . S
H371 N358 0.985 . S
C372 C373 1.363 . S
C372 C378 1.379 . S
C372 N380 1.356 . S
C373 C372 1.363 . S
C373 C379 1.363 . S
C374 C375 1.363 . S
C374 C379 1.379 . S
C374 N381 1.356 . S
C375 C374 1.363 . S
C375 C378 1.363 . S
N376 C378 1.356 . S
N376 H388 0.984 . S
N376 H389 0.985 . S
N377 C379 1.356 . S
N377 H382 0.984 . S
N377 H383 0.985 . S
C378 C372 1.379 . S
C378 C375 1.363 . S
C378 N376 1.356 . S
C379 C373 1.363 . S
C379 C374 1.379 . S
C379 N377 1.356 . S
N380 C372 1.356 . S
N380 H386 0.984 . S
N380 H387 0.984 . S
N381 C374 1.356 . S
N381 H384 0.984 . S
N381 H385 0.985 . S
H382 N377 0.984 . S
H383 N377 0.985 . S
H384 N381 0.984 . S
H385 N381 0.985 . S
H386 N380 0.984 . S
H387 N380 0.984 . S
H388 N376 0.984 . S
H389 N376 0.985 . S
C390 C391 1.363 . S
C390 C396 1.379 . S
C390 N398 1.356 . S
C391 C390 1.363 . S
C391 C397 1.363 . S
C392 C393 1.363 . S
C392 C397 1.379 . S
C392 N399 1.356 . S
C393 C392 1.363 . S
C393 C396 1.363 . S
N394 C396 1.356 . S
N394 H406 0.984 . S
N394 H407 0.985 . S
N395 C397 1.356 . S
N395 H400 0.984 . S
N395 H401 0.985 . S
C396 C390 1.379 . S
C396 C393 1.363 . S
C396 N394 1.356 . S
C397 C391 1.363 . S
C397 C392 1.379 . S
C397 N395 1.356 . S
N398 C390 1.356 . S
N398 H404 0.984 . S
N398 H405 0.984 . S
N399 C392 1.356 . S
N399 H402 0.984 . S
N399 H403 0.985 . S
H400 N395 0.984 . S
H401 N395 0.985 . S
H402 N399 0.984 . S
H403 N399 0.985 . S
H404 N398 0.984 . S
H405 N398 0.984 . S
H406 N394 0.984 . S
H407 N394 0.985 . S
C408 C409 1.363 . S
C408 C414 1.379 1_554 S
C408 N416 1.356 . S
C409 C408 1.363 . S
C409 C415 1.363 . S
C410 C411 1.363 1_554 S
C410 C415 1.379 . S
C410 N417 1.356 1_554 S
C411 C410 1.363 1_556 S
C411 C414 1.363 . S
N412 C414 1.356 . S
N412 H424 0.984 . S
N412 H425 0.985 . S
N413 C415 1.356 . S
N413 H418 0.984 . S
N413 H419 0.985 . S
C414 C408 1.379 1_556 S
C414 C411 1.363 . S
C414 N412 1.356 . S
C415 C409 1.363 . S
C415 C410 1.379 . S
C415 N413 1.356 . S
N416 C408 1.356 . S
N416 H422 0.984 . S
N416 H423 0.984 . S
N417 C410 1.356 1_556 S
N417 H420 0.984 . S
N417 H421 0.985 . S
H418 N413 0.984 . S
H419 N413 0.985 . S
H420 N417 0.984 . S
H421 N417 0.985 . S
H422 N416 0.984 . S
H423 N416 0.984 . S
H424 N412 0.984 . S
H425 N412 0.985 . S
C426 C427 1.363 . S
C426 C432 1.379 . S
C426 N434 1.356 . S
C427 C426 1.363 . S
C427 C433 1.363 1_545 S
C428 C429 1.363 1_565 S
C428 C433 1.379 . S
C428 N435 1.356 . S
C429 C428 1.363 1_545 S
C429 C432 1.363 . S
N430 C432 1.356 . S
N430 H442 0.984 . S
N430 H443 0.985 . S
N431 C433 1.356 . S
N431 H436 0.984 . S
N431 H437 0.985 . S
C432 C426 1.379 . S
C432 C429 1.363 . S
C432 N430 1.356 . S
C433 C427 1.363 1_565 S
C433 C428 1.379 . S
C433 N431 1.356 . S
N434 C426 1.356 . S
N434 H440 0.984 . S
N434 H441 0.984 . S
N435 C428 1.356 . S
N435 H438 0.984 . S
N435 H439 0.985 . S
H436 N431 0.984 . S
H437 N431 0.985 . S
H438 N435 0.984 . S
H439 N435 0.985 . S
H440 N434 0.984 . S
H441 N434 0.984 . S
H442 N430 0.984 . S
H443 N430 0.985 . S
C444 C445 1.363 . S
C444 C450 1.379 . S
C444 N452 1.356 . S
C445 C444 1.363 . S
C445 C451 1.363 . S
C446 C447 1.363 . S
C446 C451 1.379 . S
C446 N453 1.356 . S
C447 C446 1.363 . S
C447 C450 1.363 . S
N448 C450 1.356 . S
N448 H460 0.984 . S
N448 H461 0.985 . S
N449 C451 1.356 . S
N449 H454 0.984 . S
N449 H455 0.985 . S
C450 C444 1.379 . S
C450 C447 1.363 . S
C450 N448 1.356 . S
C451 C445 1.363 . S
C451 C446 1.379 . S
C451 N449 1.356 . S
N452 C444 1.356 . S
N452 H458 0.984 . S
N452 H459 0.984 . S
N453 C446 1.356 . S
N453 H456 0.984 . S
N453 H457 0.985 . S
H454 N449 0.984 . S
H455 N449 0.985 . S
H456 N453 0.984 . S
H457 N453 0.985 . S
H458 N452 0.984 . S
H459 N452 0.984 . S
H460 N448 0.984 . S
H461 N448 0.985 . S
C462 C463 1.363 . S
C462 C468 1.379 . S
C462 N470 1.356 . S
C463 C462 1.363 . S
C463 C469 1.363 1_545 S
C464 C465 1.363 1_565 S
C464 C469 1.379 . S
C464 N471 1.356 . S
C465 C464 1.363 1_545 S
C465 C468 1.363 . S
N466 C468 1.356 . S
N466 H478 0.984 . S
N466 H479 0.985 . S
N467 C469 1.356 . S
N467 H472 0.984 . S
N467 H473 0.985 . S
C468 C462 1.379 . S
C468 C465 1.363 . S
C468 N466 1.356 . S
C469 C463 1.363 1_565 S
C469 C464 1.379 . S
C469 N467 1.356 . S
N470 C462 1.356 . S
N470 H476 0.984 . S
N470 H477 0.984 . S
N471 C464 1.356 . S
N471 H474 0.984 . S
N471 H475 0.985 . S
H472 N467 0.984 . S
H473 N467 0.985 . S
H474 N471 0.984 . S
H475 N471 0.985 . S
H476 N470 0.984 . S
H477 N470 0.984 . S
H478 N466 0.984 . S
H479 N466 0.985 . S
C480 C481 1.363 . S
C480 C486 1.372 1_556 S
C480 N488 1.356 . S
C481 C480 1.363 . S
C481 C487 1.363 . S
C482 C483 1.363 1_556 S
C482 C487 1.379 . S
C482 N489 1.356 1_556 S
C483 C482 1.363 1_554 S
C483 C486 1.366 . S
N484 C486 1.362 . S
N484 H496 0.984 . S
N484 H497 0.985 . S
N485 C487 1.356 . S
N485 H490 0.984 . S
N485 H491 0.985 . S
C486 C480 1.372 1_554 S
C486 C483 1.366 . S
C486 N484 1.362 . S
C487 C481 1.363 . S
C487 C482 1.379 . S
C487 N485 1.356 . S
N488 C480 1.356 . S
N488 H494 0.984 . S
N488 H495 0.984 . S
N489 C482 1.356 1_554 S
N489 H492 0.984 . S
N489 H493 0.985 . S
H490 N485 0.984 . S
H491 N485 0.985 . S
H492 N489 0.984 . S
H493 N489 0.985 . S
H494 N488 0.984 . S
H495 N488 0.984 . S
H496 N484 0.984 . S
H497 N484 0.985 . S
C498 C499 1.363 . S
C498 C504 1.379 . S
C498 N506 1.356 1_455 S
C499 C498 1.363 . S
C499 C505 1.363 . S
C500 C501 1.363 . S
C500 C505 1.379 . S
C500 N507 1.356 . S
C501 C500 1.363 . S
C501 C504 1.363 . S
N502 C504 1.356 1_655 S
N502 H514 0.984 . S
N502 H515 0.985 . S
N503 C505 1.356 . S
N503 H508 0.984 . S
N503 H509 0.985 . S
C504 C498 1.379 . S
C504 C501 1.363 . S
C504 N502 1.356 1_455 S
C505 C499 1.363 . S
C505 C500 1.379 . S
C505 N503 1.356 . S
N506 C498 1.356 1_655 S
N506 H512 0.984 . S
N506 H513 0.984 1_655 S
N507 C500 1.356 . S
N507 H510 0.984 . S
N507 H511 0.985 . S
H508 N503 0.984 . S
H509 N503 0.985 . S
H510 N507 0.984 . S
H511 N507 0.985 . S
H512 N506 0.984 . S
H513 N506 0.984 1_455 S
H514 N502 0.984 . S
H515 N502 0.985 . S
C193 C7 1.206 . S
C195 C186 1.336 . S
C211 C51 1.963 . S
C213 C160 1.885 . S
C229 C87 1.379 . S
C231 C172 1.434 . S
C247 C16 0.633 . S
C249 C184 0.507 . S
C267 C162 1.876 . S
C265 C42 1.930 . S
C285 C174 1.283 . S
C283 C96 1.263 . S
C301 C47 1.354 . S
C303 C136 1.388 . S
C319 C91 3.323 . S
C321 C150 3.292 . S
C337 C2 1.960 . S
C339 C126 1.934 . S
C357 C138 1.296 . S
C355 C56 1.265 . S
C375 C148 2.787 . S
C373 C82 2.908 . S
C391 C11 1.977 . S
C393 C124 1.914 . S
C411 C153 1.819 . S
C409 C19 1.714 . S
C427 C50 1.392 . S
C429 C129 1.456 . S
C445 C99 1.500 . S
C447 C141 1.519 . S
C465 C177 1.508 . S
C463 C59 1.503 . S
C483 C189 1.199 . S
C481 C90 1.186 . S
C499 C10 1.392 . S
C501 C165 1.417 . S
