# Generated by pormake.
# Topology nom, (4,4)-cn, num edge types: 1
# Building blocks:
#     Node 0, Type 0, BuildingBlock: NAWXER_clean_linker_0, # of connection points: 4
#     Node 1, Type 0, BuildingBlock: NAWXER_clean_linker_0, # of connection points: 4
#     Node 2, Type 0, BuildingBlock: NAWXER_clean_linker_0, # of connection points: 4
#     Node 3, Type 0, BuildingBlock: NAWXER_clean_linker_0, # of connection points: 4
#     Node 4, Type 0, BuildingBlock: NAWXER_clean_linker_0, # of connection points: 4
#     Node 5, Type 0, BuildingBlock: NAWXER_clean_linker_0, # of connection points: 4
#     Node 6, Type 1, BuildingBlock: GALJAG_clean_sbu_0, # of connection points: 4
#     Node 7, Type 1, BuildingBlock: GALJAG_clean_sbu_0, # of connection points: 4
#     Node 8, Type 1, BuildingBlock: GALJAG_clean_sbu_0, # of connection points: 4
#     Node 9, Type 1, BuildingBlock: GALJAG_clean_sbu_0, # of connection points: 4
#     Node 10, Type 1, BuildingBlock: GALJAG_clean_sbu_0, # of connection points: 4
#     Node 11, Type 1, BuildingBlock: GALJAG_clean_sbu_0, # of connection points: 4
#     Edge 12, Type (0, 1), BuildingBlock: AJUNOK_clean_linker_0, # of connection points: 2
#     Edge 13, Type (0, 1), BuildingBlock: AJUNOK_clean_linker_0, # of connection points: 2
#     Edge 14, Type (0, 1), BuildingBlock: AJUNOK_clean_linker_0, # of connection points: 2
#     Edge 15, Type (0, 1), BuildingBlock: AJUNOK_clean_linker_0, # of connection points: 2
#     Edge 16, Type (0, 1), BuildingBlock: AJUNOK_clean_linker_0, # of connection points: 2
#     Edge 17, Type (0, 1), BuildingBlock: AJUNOK_clean_linker_0, # of connection points: 2
#     Edge 18, Type (0, 1), BuildingBlock: AJUNOK_clean_linker_0, # of connection points: 2
#     Edge 19, Type (0, 1), BuildingBlock: AJUNOK_clean_linker_0, # of connection points: 2
#     Edge 20, Type (0, 1), BuildingBlock: AJUNOK_clean_linker_0, # of connection points: 2
#     Edge 21, Type (0, 1), BuildingBlock: AJUNOK_clean_linker_0, # of connection points: 2
#     Edge 22, Type (0, 1), BuildingBlock: AJUNOK_clean_linker_0, # of connection points: 2
#     Edge 23, Type (0, 1), BuildingBlock: AJUNOK_clean_linker_0, # of connection points: 2
#     Edge 24, Type (0, 1), BuildingBlock: AJUNOK_clean_linker_0, # of connection points: 2
#     Edge 25, Type (0, 1), BuildingBlock: AJUNOK_clean_linker_0, # of connection points: 2
#     Edge 26, Type (0, 1), BuildingBlock: AJUNOK_clean_linker_0, # of connection points: 2
#     Edge 27, Type (0, 1), BuildingBlock: AJUNOK_clean_linker_0, # of connection points: 2
#     Edge 28, Type (0, 1), BuildingBlock: AJUNOK_clean_linker_0, # of connection points: 2
#     Edge 29, Type (0, 1), BuildingBlock: AJUNOK_clean_linker_0, # of connection points: 2
#     Edge 30, Type (0, 1), BuildingBlock: AJUNOK_clean_linker_0, # of connection points: 2
#     Edge 31, Type (0, 1), BuildingBlock: AJUNOK_clean_linker_0, # of connection points: 2
#     Edge 32, Type (0, 1), BuildingBlock: AJUNOK_clean_linker_0, # of connection points: 2
#     Edge 33, Type (0, 1), BuildingBlock: AJUNOK_clean_linker_0, # of connection points: 2
#     Edge 34, Type (0, 1), BuildingBlock: AJUNOK_clean_linker_0, # of connection points: 2
#     Edge 35, Type (0, 1), BuildingBlock: AJUNOK_clean_linker_0, # of connection points: 2
# Relax obj value: 0.004
# Max RMSD: 0.115
# Mean RMSD: 0.086
data_MOF--net-nom--node1-GALJAG_clean_sbu_0--node2-NAWXER_clean_linker_0--edge1-AJUNOK_clean_linker_0
_symmetry_space_group_name_H-M    P1
_symmetry_Int_Tables_number       1
_symmetry_cell_setting            triclinic
loop_
_symmetry_equiv_pos_as_xyz
'x, y, z'
_cell_length_a     40.666004
_cell_length_b     40.586133
_cell_length_c     46.187034
_cell_angle_alpha  90.091181
_cell_angle_beta   89.95293
_cell_angle_gamma 120.04348
loop_
_atom_site_label
_atom_site_type_symbol
_atom_site_fract_x
_atom_site_fract_y
_atom_site_fract_z
_atom_type_partial_charge
C0 C 0.88203 0.50933 0.3463 0.0
C1 C 0.86572 0.47983 0.36669 0.0
C2 C 0.91921 0.52299 0.33684 0.0
C3 C 0.94078 0.50739 0.34759 0.0
C4 C 0.88693 0.46369 0.3771 0.0
C5 C 0.92442 0.47773 0.36789 0.0
C6 C 0.98131 0.52458 0.33963 0.0
C7 C 0.92075 0.46264 0.25895 0.0
C8 C 0.92219 0.48624 0.23614 0.0
C9 C 0.94336 0.47815 0.28353 0.0
C10 C 0.96837 0.51753 0.28564 0.0
C11 C 0.94733 0.52572 0.23833 0.0
C12 C 0.97047 0.54115 0.26273 0.0
C13 C 0.99411 0.53353 0.31082 0.0
C14 C 0.16567 0.61511 0.32154 0.0
C15 C 0.17396 0.6443 0.30144 0.0
C16 C 0.12819 0.59025 0.33009 0.0
C17 C 0.09837 0.59475 0.31931 0.0
C18 C 0.14388 0.64773 0.28987 0.0
C19 C 0.10662 0.62344 0.29886 0.0
C20 C 0.05818 0.56889 0.32751 0.0
C21 C 0.11915 0.6156 0.41331 0.0
C22 C 0.1167 0.58679 0.43162 0.0
C23 C 0.09636 0.60633 0.38854 0.0
C24 C 0.07103 0.56807 0.38159 0.0
C25 C 0.09141 0.54859 0.42453 0.0
C26 C 0.06857 0.53936 0.39989 0.0
C27 C 0.04548 0.55739 0.35626 0.0
H28 H 0.86605 0.522 0.33786 0.0
H29 H 0.93148 0.54654 0.32173 0.0
H30 H 0.87481 0.44092 0.39288 0.0
H31 H 0.94071 0.46562 0.37671 0.0
H32 H 0.90278 0.43203 0.25758 0.0
H33 H 0.94207 0.45922 0.30057 0.0
H34 H 0.94909 0.5447 0.22118 0.0
H35 H 0.98985 0.57158 0.26381 0.0
H36 H 0.18818 0.61146 0.33065 0.0
H37 H 0.12263 0.56736 0.34487 0.0
H38 H 0.14898 0.66884 0.27351 0.0
H39 H 0.08411 0.62707 0.28969 0.0
H40 H 0.13869 0.64528 0.41815 0.0
H41 H 0.09825 0.62897 0.37499 0.0
H42 H 0.08879 0.52587 0.43838 0.0
H43 H 0.04895 0.50968 0.39506 0.0
N44 N 0.00749 0.53608 0.3612 0.0
N45 N 0.0319 0.55596 0.3059 0.0
C46 C 0.38744 0.88085 0.5135 0.0
C47 C 0.40097 0.8642 0.53328 0.0
C48 C 0.41113 0.91804 0.50385 0.0
C49 C 0.44869 0.93924 0.51394 0.0
C50 C 0.43848 0.88539 0.54343 0.0
C51 C 0.46205 0.92277 0.53403 0.0
C52 C 0.47293 0.9795 0.5054 0.0
C53 C 0.46289 0.91283 0.42506 0.0
C54 C 0.44779 0.92091 0.40051 0.0
C55 C 0.47176 0.93543 0.44992 0.0
C56 C 0.4651 0.96626 0.45098 0.0
C57 C 0.44177 0.95213 0.4014 0.0
C58 C 0.45025 0.97448 0.42636 0.0
C59 C 0.47684 0.99217 0.47645 0.0
C60 C 0.57851 0.1622 0.4839 0.0
C61 C 0.55654 0.17357 0.46779 0.0
C62 C 0.56327 0.12424 0.49245 0.0
C63 C 0.52582 0.09709 0.48501 0.0
C64 C 0.51925 0.14616 0.46011 0.0
C65 C 0.50415 0.10829 0.46851 0.0
C66 C 0.50915 0.05661 0.49305 0.0
C67 C 0.53093 0.12119 0.57772 0.0
C68 C 0.55511 0.11591 0.59649 0.0
C69 C 0.51581 0.09825 0.55312 0.0
C70 C 0.52476 0.06976 0.54684 0.0
C71 C 0.56361 0.08709 0.59033 0.0
C72 C 0.54846 0.06417 0.56582 0.0
C73 C 0.5079 0.04393 0.52173 0.0
H74 H 0.35857 0.86501 0.50547 0.0
H75 H 0.39986 0.9305 0.48894 0.0
H76 H 0.44933 0.87323 0.55897 0.0
H77 H 0.49073 0.93883 0.54242 0.0
H78 H 0.46809 0.88913 0.42499 0.0
H79 H 0.48471 0.92926 0.468 0.0
H80 H 0.43126 0.95986 0.38257 0.0
H81 H 0.44555 0.9985 0.4263 0.0
H82 H 0.60766 0.18251 0.4895 0.0
H83 H 0.58087 0.11603 0.5045 0.0
H84 H 0.50162 0.15408 0.4478 0.0
H85 H 0.47528 0.08771 0.46235 0.0
H86 H 0.52373 0.14305 0.58209 0.0
H87 H 0.49671 0.10242 0.53928 0.0
H88 H 0.58143 0.0818 0.60477 0.0
H89 H 0.55525 0.04196 0.56167 0.0
N90 N 0.48941 0.00583 0.52679 0.0
N91 N 0.49403 0.03025 0.47155 0.0
C92 C 0.56751 0.46697 0.58551 0.0
C93 C 0.54394 0.45139 0.56116 0.0
C94 C 0.55384 0.47515 0.61069 0.0
C95 C 0.51599 0.4671 0.61233 0.0
C96 C 0.50648 0.44454 0.5625 0.0
C97 C 0.49265 0.45218 0.58782 0.0
C98 C 0.50128 0.47664 0.6386 0.0
C99 C 0.5317 0.39078 0.6696 0.0
C100 C 0.55778 0.40223 0.6925 0.0
C101 C 0.51655 0.41345 0.66111 0.0
C102 C 0.52809 0.44857 0.67482 0.0
C103 C 0.56874 0.43679 0.70668 0.0
C104 C 0.5541 0.45983 0.69786 0.0
C105 C 0.51047 0.47179 0.66723 0.0
C106 C 0.42494 0.51939 0.74577 0.0
C107 C 0.45496 0.5475 0.7623 0.0
C108 C 0.4324 0.50541 0.72036 0.0
C109 C 0.46999 0.51938 0.71118 0.0
C110 C 0.49247 0.5616 0.75288 0.0
C111 C 0.49992 0.54736 0.72771 0.0
C112 C 0.4789 0.50385 0.68534 0.0
C113 C 0.41961 0.56627 0.65374 0.0
C114 C 0.39012 0.54565 0.63378 0.0
C115 C 0.44473 0.55365 0.66143 0.0
C116 C 0.44023 0.51956 0.64993 0.0
C117 C 0.3865 0.51225 0.62162 0.0
C118 C 0.41109 0.49927 0.62974 0.0
C119 C 0.46654 0.50537 0.65703 0.0
H120 H 0.59658 0.4728 0.58513 0.0
H121 H 0.57309 0.48815 0.62874 0.0
H122 H 0.48795 0.43376 0.54383 0.0
H123 H 0.46361 0.44647 0.58822 0.0
H124 H 0.52234 0.36382 0.65877 0.0
H125 H 0.4952 0.40304 0.64424 0.0
H126 H 0.58871 0.44598 0.72452 0.0
H127 H 0.56296 0.48639 0.70915 0.0
H128 H 0.39575 0.5083 0.7525 0.0
H129 H 0.40895 0.48346 0.70808 0.0
H130 H 0.51607 0.58313 0.76532 0.0
H131 H 0.52913 0.55825 0.72108 0.0
H132 H 0.4234 0.59232 0.66332 0.0
H133 H 0.46792 0.57094 0.67598 0.0
H134 H 0.3651 0.49642 0.60538 0.0
H135 H 0.40738 0.47329 0.62006 0.0
N136 N 0.47885 0.49229 0.63481 0.0
N137 N 0.49986 0.48663 0.68932 0.0
C138 C 0.87972 0.38797 0.82542 0.0
C139 C 0.86486 0.3994 0.80266 0.0
C140 C 0.91723 0.41121 0.83442 0.0
C141 C 0.94035 0.44675 0.82126 0.0
C142 C 0.88815 0.43436 0.78892 0.0
C143 C 0.92557 0.45786 0.79817 0.0
C144 C 0.98071 0.4709 0.82982 0.0
C145 C 0.91607 0.46622 0.90997 0.0
C146 C 0.92401 0.45183 0.93503 0.0
C147 C 0.9382 0.47349 0.88507 0.0
C148 C 0.96809 0.4655 0.88437 0.0
C149 C 0.95388 0.44383 0.93433 0.0
C150 C 0.97574 0.45072 0.90931 0.0
C151 C 0.99352 0.47561 0.8588 0.0
C152 C 0.16283 0.57553 0.85354 0.0
C153 C 0.17365 0.55212 0.86828 0.0
C154 C 0.12517 0.56113 0.84465 0.0
C155 C 0.09792 0.52305 0.85022 0.0
C156 C 0.14624 0.51396 0.87357 0.0
C157 C 0.10868 0.49972 0.8649 0.0
C158 C 0.05773 0.50719 0.8421 0.0
C159 C 0.12434 0.53504 0.75802 0.0
C160 C 0.11544 0.55571 0.73831 0.0
C161 C 0.10179 0.51875 0.78262 0.0
C162 C 0.07064 0.52388 0.78828 0.0
C163 C 0.08422 0.56058 0.74382 0.0
C164 C 0.06209 0.54484 0.76855 0.0
C165 C 0.04507 0.50594 0.81342 0.0
H166 H 0.86247 0.36072 0.8359 0.0
H167 H 0.92827 0.40101 0.85135 0.0
H168 H 0.87725 0.44361 0.77122 0.0
H169 H 0.94297 0.48479 0.78731 0.0
H170 H 0.8928 0.47199 0.90961 0.0
H171 H 0.93229 0.48605 0.86657 0.0
H172 H 0.96081 0.43291 0.95333 0.0
H173 H 0.99889 0.44474 0.90953 0.0
H174 H 0.18338 0.60508 0.84923 0.0
H175 H 0.11726 0.57974 0.83372 0.0
H176 H 0.15388 0.49495 0.88417 0.0
H177 H 0.08801 0.47024 0.86939 0.0
H178 H 0.14805 0.53055 0.75393 0.0
H179 H 0.10826 0.5015 0.79675 0.0
H180 H 0.0769 0.57649 0.72891 0.0
H181 H 0.03807 0.54897 0.77223 0.0
N182 N 0.007 0.48723 0.80843 0.0
N183 N 0.03151 0.49256 0.86364 0.0
C184 C 0.5051 0.87718 0.98633 0.0
C185 C 0.47898 0.86259 0.96344 0.0
C186 C 0.52059 0.91507 0.99483 0.0
C187 C 0.50956 0.93891 0.98108 0.0
C188 C 0.46864 0.8865 0.94909 0.0
C189 C 0.48376 0.92436 0.95789 0.0
C190 C 0.52721 0.97964 0.98919 0.0
C191 C 0.46419 0.919 0.06967 0.0
C192 C 0.4875 0.92121 0.09295 0.0
C193 C 0.47985 0.94159 0.0451 0.0
C194 C 0.51909 0.96716 0.04339 0.0
C195 C 0.5268 0.94697 0.09118 0.0
C196 C 0.54238 0.96997 0.06675 0.0
C197 C 0.53538 0.99265 0.01809 0.0
C198 C 0.60383 0.16113 0.01503 0.0
C199 C 0.63809 0.17227 0.02983 0.0
C200 C 0.58155 0.12372 0.00503 0.0
C201 C 0.59333 0.09703 0.00963 0.0
C202 C 0.65009 0.14556 0.03367 0.0
C203 C 0.62767 0.10821 0.02402 0.0
C204 C 0.56932 0.05679 1.00135 0.0
C205 C 0.61101 0.12458 0.91837 0.0
C206 C 0.58254 0.11557 0.8976 0.0
C207 C 0.6037 0.1015 0.94277 0.0
C208 C 0.56739 0.06969 0.94722 0.0
C209 C 0.5467 0.08329 0.90155 0.0
C210 C 0.53916 0.06068 0.92616 0.0
C211 C 0.55846 0.04405 0.97255 0.0
H212 H 0.51415 0.85944 0.99723 0.0
H213 H 0.54186 0.92584 0.01176 0.0
H214 H 0.44869 0.87579 0.93124 0.0
H215 H 0.47532 0.94231 0.94656 0.0
H216 H 0.43369 0.90044 0.07069 0.0
H217 H 0.46115 0.93972 0.02769 0.0
H218 H 0.54555 0.94932 0.1087 0.0
H219 H 0.57268 0.98978 0.06599 0.0
H220 H 0.5939 0.18112 0.01175 0.0
H221 H 0.55488 0.11543 0.99423 0.0
H222 H 0.67688 0.15352 0.04413 0.0
H223 H 0.63721 0.08796 0.02771 0.0
H224 H 0.63909 0.14905 0.91539 0.0
H225 H 0.62667 0.10823 0.95774 0.0
H226 H 0.52442 0.07578 0.88569 0.0
H227 H 0.51107 0.03609 0.92879 0.0
N228 N 0.53828 0.00588 0.96765 0.0
N229 N 0.55694 0.03062 0.02298 0.0
C230 C 0.51544 0.65528 0.17969 0.0
C231 C 0.4853 0.6412 0.19956 0.0
C232 C 0.5297 0.63221 0.17006 0.0
C233 C 0.51407 0.59468 0.18018 0.0
C234 C 0.46989 0.6038 0.20988 0.0
C235 C 0.48437 0.58083 0.20043 0.0
C236 C 0.53062 0.57094 0.17147 0.0
C237 C 0.47526 0.58047 0.09016 0.0
C238 C 0.49881 0.59558 0.06576 0.0
C239 C 0.48881 0.57238 0.11542 0.0
C240 C 0.52646 0.5798 0.11701 0.0
C241 C 0.53637 0.60276 0.0673 0.0
C242 C 0.55002 0.59502 0.09264 0.0
C243 C 0.54014 0.56782 0.14253 0.0
C244 C 0.60655 0.46479 0.14956 0.0
C245 C 0.6406 0.48696 0.13425 0.0
C246 C 0.58394 0.48019 0.15778 0.0
C247 C 0.59505 0.51801 0.15083 0.0
C248 C 0.65116 0.52452 0.12682 0.0
C249 C 0.62849 0.53981 0.13492 0.0
C250 C 0.57156 0.53493 0.15893 0.0
C251 C 0.61282 0.51099 0.24298 0.0
C252 C 0.583 0.48532 0.2609 0.0
C253 C 0.6054 0.52719 0.21893 0.0
C254 C 0.568 0.51791 0.21237 0.0
C255 C 0.54569 0.47641 0.25445 0.0
C256 C 0.53831 0.49271 0.2305 0.0
C257 C 0.55951 0.53546 0.18753 0.0
H258 H 0.52782 0.68406 0.1715 0.0
H259 H 0.55338 0.64395 0.15508 0.0
H260 H 0.44697 0.59252 0.22553 0.0
H261 H 0.47231 0.5522 0.20888 0.0
H262 H 0.44614 0.57447 0.08961 0.0
H263 H 0.46936 0.55919 0.13331 0.0
H264 H 0.55494 0.61339 0.04865 0.0
H265 H 0.57892 0.60034 0.09302 0.0
H266 H 0.59719 0.43542 0.15489 0.0
H267 H 0.55766 0.4625 0.16931 0.0
H268 H 0.67725 0.54225 0.11507 0.0
H269 H 0.63736 0.56895 0.12909 0.0
H270 H 0.64188 0.51853 0.2476 0.0
H271 H 0.62891 0.54728 0.20569 0.0
H272 H 0.52229 0.45737 0.26825 0.0
H273 H 0.50931 0.48556 0.22607 0.0
N274 N 0.53987 0.55385 0.19272 0.0
N275 N 0.561 0.55068 0.13756 0.0
In276 In 0.6359 0.40137 0.41279 0.0
O277 O 0.69924 0.44374 0.41845 0.0
O278 O 0.68326 0.39629 0.39075 0.0
C279 C 0.60543 0.4203 0.4573 0.0
C280 C 0.61574 0.4256 0.36486 0.0
C281 C 0.61314 0.32968 0.42996 0.0
O282 O 0.64082 0.43662 0.45298 0.0
O283 O 0.58559 0.3955 0.43866 0.0
O284 O 0.60278 0.33694 0.40614 0.0
O285 O 0.63529 0.3586 0.4447 0.0
C286 C 0.70989 0.42634 0.40163 0.0
O287 O 0.60195 0.39076 0.37071 0.0
O288 O 0.63904 0.44789 0.38336 0.0
In289 In 0.24942 0.6365 0.58546 0.0
O290 O 0.26088 0.58659 0.58579 0.0
O291 O 0.30235 0.63928 0.60405 0.0
C292 C 0.20617 0.61981 0.5373 0.0
C293 C 0.20474 0.61475 0.63321 0.0
C294 C 0.29875 0.70916 0.57103 0.0
O295 O 0.22748 0.606 0.54196 0.0
O296 O 0.20639 0.64133 0.55712 0.0
O297 O 0.27174 0.70057 0.58858 0.0
O298 O 0.30054 0.68118 0.56099 0.0
C299 C 0.29255 0.60521 0.59844 0.0
O300 O 0.23673 0.6448 0.63256 0.0
O301 O 0.19519 0.59642 0.60977 0.0
In302 In 0.6368 0.2543 0.74772 0.0
O303 O 0.70129 0.28123 0.74159 0.0
O304 O 0.68115 0.29752 0.77817 0.0
C305 C 0.61212 0.20737 0.70142 0.0
C306 C 0.61343 0.2075 0.79409 0.0
C307 C 0.61313 0.30264 0.7308 0.0
O308 O 0.64684 0.2267 0.70821 0.0
O309 O 0.58986 0.21096 0.71854 0.0
O310 O 0.59739 0.27922 0.75121 0.0
O311 O 0.64093 0.30195 0.71938 0.0
C312 C 0.70942 0.30101 0.7644 0.0
O313 O 0.60854 0.23575 0.79201 0.0
O314 O 0.62868 0.20187 0.77227 0.0
In315 In 0.40488 0.63446 0.91357 0.0
O316 O 0.34147 0.59769 0.92332 0.0
O317 O 0.35787 0.63161 0.88528 0.0
C318 C 0.43648 0.61927 0.95929 0.0
C319 C 0.42537 0.60684 0.86796 0.0
C320 C 0.42512 0.70653 0.92789 0.0
O321 O 0.40143 0.59973 0.95362 0.0
O322 O 0.45555 0.64532 0.94129 0.0
O323 O 0.43811 0.69877 0.90563 0.0
O324 O 0.40171 0.67799 0.94231 0.0
C325 C 0.33106 0.60814 0.90108 0.0
O326 O 0.43747 0.64197 0.87135 0.0
O327 O 0.40392 0.58605 0.88796 0.0
In328 In 0.78491 0.4002 0.08514 0.0
O329 O 0.80254 0.3911 0.12993 0.0
O330 O 0.83766 0.44437 0.10957 0.0
C331 C 0.73576 0.32754 0.06999 0.0
C332 C 0.73856 0.42724 0.10011 0.0
C333 C 0.83246 0.4207 0.03943 0.0
O334 O 0.75988 0.33613 0.08998 0.0
O335 O 0.73641 0.3556 0.05772 0.0
O336 O 0.81608 0.43892 0.04684 0.0
O337 O 0.82536 0.39272 0.05546 0.0
C338 C 0.8313 0.42394 0.13174 0.0
O339 O 0.75738 0.43684 0.07683 0.0
O340 O 0.74289 0.40395 0.11524 0.0
In341 In 0.40179 0.78858 0.24656 0.0
O342 O 0.44617 0.76961 0.25053 0.0
O343 O 0.39673 0.7361 0.2252 0.0
C344 C 0.41895 0.83234 0.2945 0.0
C345 C 0.42532 0.83178 0.19801 0.0
C346 C 0.32883 0.74265 0.26167 0.0
O347 O 0.43521 0.81348 0.28874 0.0
O348 O 0.39546 0.83002 0.27568 0.0
O349 O 0.33927 0.77193 0.24623 0.0
O350 O 0.35498 0.73618 0.26891 0.0
C351 C 0.42773 0.74054 0.2347 0.0
O352 O 0.39389 0.80125 0.1996 0.0
O353 O 0.44432 0.84116 0.22112 0.0
C354 C 0.23759 0.65544 0.28511 0.0
C355 C 0.21368 0.67023 0.29175 0.0
C356 C 0.27485 0.67911 0.27538 0.0
C357 C 0.28933 0.7183 0.2714 0.0
H358 H 0.22732 0.62524 0.28709 0.0
H359 H 0.29228 0.66654 0.27053 0.0
S360 S 0.24003 0.77199 0.28809 0.0
N361 N 0.20855 0.72735 0.29578 0.0
N362 N 0.27805 0.7714 0.27625 0.0
C363 C 0.26604 0.73362 0.27812 0.0
C364 C 0.22835 0.7097 0.28859 0.0
C365 C 0.56753 0.22207 0.42982 0.0
C366 C 0.57229 0.21376 0.45857 0.0
C367 C 0.581 0.25962 0.42073 0.0
C368 C 0.5999 0.29035 0.44001 0.0
H369 H 0.55335 0.19933 0.41415 0.0
H370 H 0.57659 0.26455 0.39839 0.0
S371 S 0.61815 0.28378 0.51798 0.0
N372 N 0.59602 0.23925 0.50654 0.0
N373 N 0.62198 0.30989 0.48942 0.0
C374 C 0.60494 0.28248 0.46884 0.0
C375 C 0.59103 0.24419 0.47811 0.0
C376 C 0.37932 0.59877 0.6187 0.0
C377 C 0.3643 0.55985 0.62476 0.0
C378 C 0.35584 0.61301 0.61001 0.0
C379 C 0.31649 0.58884 0.60659 0.0
H380 H 0.40957 0.61843 0.62042 0.0
H381 H 0.36872 0.64321 0.60571 0.0
S382 S 0.26243 0.48517 0.6212 0.0
N383 N 0.30702 0.4977 0.62816 0.0
N384 N 0.26318 0.52441 0.6107 0.0
C385 C 0.30097 0.5499 0.61244 0.0
C386 C 0.32479 0.53543 0.62179 0.0
C387 C 0.81697 0.36228 0.76429 0.0
C388 C 0.8251 0.37469 0.79319 0.0
C389 C 0.77946 0.33809 0.75514 0.0
C390 C 0.74883 0.3261 0.77448 0.0
H391 H 0.83982 0.37093 0.74876 0.0
H392 H 0.77442 0.32902 0.73271 0.0
S393 S 0.75536 0.35139 0.85241 0.0
N394 N 0.79982 0.37361 0.84103 0.0
N395 N 0.72931 0.32862 0.82392 0.0
C396 C 0.75669 0.33866 0.80341 0.0
C397 C 0.79485 0.36281 0.81275 0.0
C398 C 0.46869 0.81394 0.92585 0.0
C399 C 0.46325 0.82256 0.95432 0.0
C400 C 0.45615 0.77626 0.91739 0.0
C401 C 0.4372 0.74595 0.937 0.0
H402 H 0.48355 0.83657 0.91024 0.0
H403 H 0.4614 0.77089 0.89537 0.0
S404 S 0.41475 0.75385 0.01381 0.0
N405 N 0.43707 0.79813 1.00188 0.0
N406 N 0.41296 0.72727 0.98607 0.0
C407 C 0.43091 0.75428 0.96539 0.0
C408 C 0.4441 0.79262 0.97403 0.0
C409 C 0.67949 0.47582 0.09756 0.0
C410 C 0.66522 0.47114 0.12596 0.0
C411 C 0.70327 0.46163 0.08935 0.0
C412 C 0.71354 0.44213 0.10922 0.0
H413 H 0.67197 0.49032 0.08147 0.0
H414 H 0.71343 0.46576 0.06723 0.0
S415 S 0.6858 0.42459 0.18676 0.0
N416 N 0.66466 0.44739 0.17433 0.0
N417 N 0.70873 0.42012 0.15889 0.0
C418 C 0.69969 0.43751 0.13776 0.0
C419 C 0.67566 0.45212 0.14612 0.0
C420 C 0.34075 0.81473 0.55649 0.0
C421 C 0.37579 0.82479 0.54343 0.0
C422 C 0.31629 0.77741 0.56598 0.0
C423 C 0.32578 0.74876 0.56224 0.0
H424 H 0.33229 0.83593 0.5595 0.0
H425 H 0.28949 0.77083 0.5758 0.0
S426 S 0.4144 0.76079 0.52915 0.0
N427 N 0.41894 0.8035 0.52737 0.0
N428 N 0.37294 0.73324 0.54479 0.0
C429 C 0.36084 0.75858 0.54924 0.0
C430 C 0.38588 0.79665 0.53996 0.0
C431 C 0.56583 0.36289 0.7303 0.0
C432 C 0.57281 0.37758 0.70202 0.0
C433 C 0.57875 0.33839 0.73943 0.0
C434 C 0.59976 0.32847 0.72074 0.0
H435 H 0.54974 0.36991 0.7453 0.0
H436 H 0.57251 0.32741 0.76132 0.0
S437 S 0.62587 0.36005 0.6446 0.0
N438 N 0.60184 0.38073 0.65542 0.0
N439 N 0.62696 0.33539 0.67263 0.0
C440 C 0.60727 0.34341 0.69248 0.0
C441 C 0.59354 0.36778 0.68309 0.0
C442 C 0.24348 0.58803 0.85811 0.0
C443 C 0.2136 0.56713 0.87762 0.0
C444 C 0.28133 0.60129 0.866 0.0
C445 C 0.29076 0.59403 0.89367 0.0
H446 H 0.23754 0.59361 0.83637 0.0
H447 H 0.30331 0.61695 0.85011 0.0
S448 S 0.22324 0.54305 0.95347 0.0
N449 N 0.1961 0.54175 0.92641 0.0
N450 N 0.26721 0.566 0.94106 0.0
C451 C 0.26122 0.57365 0.91355 0.0
C452 C 0.22267 0.56036 0.90557 0.0
C453 C 0.66931 0.24299 0.0235 0.0
C454 C 0.66151 0.21166 0.04113 0.0
C455 C 0.69284 0.28039 0.03323 0.0
C456 C 0.70967 0.28784 0.06085 0.0
H457 H 0.65786 0.23859 1.00176 0.0
H458 H 0.69854 0.30361 0.01872 0.0
S459 S 0.69514 0.21601 0.11652 0.0
N460 N 0.66991 0.19071 0.08849 0.0
N461 N 0.71499 0.26095 0.1064 0.0
C462 C 0.7014 0.25686 0.07896 0.0
C463 C 0.67712 0.2188 0.06919 0.0
C464 C 0.49417 0.70168 0.22136 0.0
C465 C 0.46989 0.66556 0.20938 0.0
C466 C 0.48019 0.72546 0.23024 0.0
C467 C 0.44156 0.71415 0.22697 0.0
H468 H 0.52418 0.71158 0.22393 0.0
H469 H 0.49992 0.75317 0.23914 0.0
S470 S 0.36639 0.6221 0.1968 0.0
N471 N 0.40555 0.61947 0.19487 0.0
N472 N 0.37917 0.66404 0.21127 0.0
C473 C 0.41699 0.67793 0.21517 0.0
C474 C 0.43118 0.65365 0.20646 0.0
C475 C 0.79837 0.42819 0.37325 0.0
C476 C 0.82668 0.46634 0.37722 0.0
C477 C 0.7607 0.41545 0.38148 0.0
C478 C 0.75019 0.44028 0.39443 0.0
H479 H 0.80523 0.40831 0.36306 0.0
H480 H 0.73962 0.38594 0.37755 0.0
S481 S 0.81455 0.54258 0.41081 0.0
N482 N 0.8423 0.52859 0.39562 0.0
N483 N 0.77163 0.50463 0.41157 0.0
C484 C 0.77857 0.47831 0.3992 0.0
C485 C 0.81678 0.49135 0.39044 0.0
C486 C 0.16146 0.57866 0.46414 0.0
C487 C 0.13989 0.59627 0.45842 0.0
C488 C 0.18287 0.58649 0.48964 0.0
C489 C 0.18323 0.61197 0.51052 0.0
H490 H 0.16199 0.55883 0.44867 0.0
H491 H 0.19915 0.57235 0.49301 0.0
S492 S 0.13025 0.66443 0.50622 0.0
N493 N 0.11936 0.63954 0.47592 0.0
N494 N 0.15949 0.65441 0.5238 0.0
C495 C 0.16155 0.62962 0.50508 0.0
C496 C 0.13996 0.62178 0.47904 0.0
C497 C 0.54591 0.14366 0.64218 0.0
C498 C 0.57049 0.13959 0.62298 0.0
C499 C 0.55959 0.16516 0.66765 0.0
C500 C 0.59846 0.18365 0.67484 0.0
H501 H 0.51574 0.12973 0.63765 0.0
H502 H 0.53949 0.16743 0.68172 0.0
S503 S 0.67481 0.18303 0.6311 0.0
N504 N 0.63563 0.15656 0.61238 0.0
N505 N 0.66146 0.1969 0.66024 0.0
C506 C 0.62339 0.17996 0.6557 0.0
C507 C 0.60939 0.15794 0.62981 0.0
C508 C 0.46247 0.60128 0.7936 0.0
C509 C 0.44743 0.56196 0.78954 0.0
C510 C 0.45564 0.61558 0.81918 0.0
C511 C 0.4338 0.5911 0.84178 0.0
H512 H 0.47919 0.62109 0.77667 0.0
H513 H 0.46729 0.64603 0.8211 0.0
S514 S 0.3905 0.4859 0.84252 0.0
N515 N 0.41142 0.49892 0.8106 0.0
N516 N 0.39858 0.52554 0.85875 0.0
C517 C 0.4193 0.55172 0.83817 0.0
C518 C 0.42607 0.53721 0.81204 0.0
C519 C 0.88793 0.41075 0.97722 0.0
C520 C 0.90124 0.44504 0.96188 0.0
C521 C 0.86619 0.40346 1.00245 0.0
C522 C 0.8567 0.43006 0.0133 0.0
H523 H 0.89388 0.38908 0.96943 0.0
H524 H 0.85626 0.37643 0.01326 0.0
S525 S 0.88686 0.52541 0.98247 0.0
N526 N 0.90527 0.50688 0.9604 0.0
N527 N 0.86365 0.49277 0.00743 0.0
C528 C 0.87021 0.46468 0.99843 0.0
C529 C 0.89262 0.47224 0.97282 0.0
C530 C 0.48262 0.91424 0.14701 0.0
C531 C 0.47086 0.89767 0.1194 0.0
C532 C 0.46753 0.89278 0.17229 0.0
C533 C 0.43969 0.85403 0.17098 0.0
H534 H 0.50351 0.94417 0.14915 0.0
H535 H 0.47759 0.90675 0.19304 0.0
S536 S 0.4009 0.79628 0.10424 0.0
N537 N 0.43118 0.83943 0.09239 0.0
N538 N 0.40187 0.79948 0.1399 0.0
C539 C 0.4276 0.83701 0.14359 0.0
C540 C 0.44339 0.85873 0.11782 0.0
C541 C 0.61853 0.49336 0.307 0.0
C542 C 0.591 0.46909 0.28696 0.0
C543 C 0.626 0.47897 0.33216 0.0
C544 C 0.60647 0.43967 0.33819 0.0
H545 H 0.63407 0.52383 0.30341 0.0
H546 H 0.6474 0.49891 0.34696 0.0
S547 S 0.53266 0.36394 0.29188 0.0
N548 N 0.5448 0.40382 0.27429 0.0
N549 N 0.55883 0.37663 0.32155 0.0
C550 C 0.57908 0.41502 0.31814 0.0
C551 C 0.57133 0.42976 0.29257 0.0
C552 C 0.46606 0.88789 0.36309 0.0
C553 C 0.43948 0.89754 0.37373 0.0
C554 C 0.45921 0.86659 0.33755 0.0
C555 C 0.42568 0.85449 0.32155 0.0
H556 H 0.49268 0.89735 0.37435 0.0
H557 H 0.48057 0.86007 0.33008 0.0
S558 S 0.34539 0.8691 0.34144 0.0
N559 N 0.37705 0.8908 0.36732 0.0
N560 N 0.3646 0.85174 0.31904 0.0
C561 C 0.3986 0.8634 0.33216 0.0
C562 C 0.4054 0.8847 0.35829 0.0
C563 C 0.59497 0.46959 0.52369 0.0
C564 C 0.55872 0.44302 0.5343 0.0
C565 C 0.60975 0.46219 0.49865 0.0
C566 C 0.58868 0.42812 0.48305 0.0
H567 H 0.61204 0.49648 0.53475 0.0
H568 H 0.63784 0.4834 0.4914 0.0
S569 S 0.49334 0.34816 0.50253 0.0
N570 N 0.50299 0.38036 0.52796 0.0
N571 N 0.53023 0.36698 0.48046 0.0
C572 C 0.55241 0.40131 0.49334 0.0
C573 C 0.53756 0.40863 0.51904 0.0
C574 C 0.17671 0.59782 0.71262 0.0
C575 C 0.1377 0.57101 0.71137 0.0
C576 C 0.19804 0.61275 0.68719 0.0
C577 C 0.18119 0.60076 0.65971 0.0
H578 H 0.19073 0.60744 0.73338 0.0
H579 H 0.22808 0.63317 0.68909 0.0
S580 S 0.07987 0.53088 0.64504 0.0
N581 N 0.08298 0.53324 0.6807 0.0
N582 N 0.12301 0.56059 0.63293 0.0
C583 C 0.14216 0.57392 0.65828 0.0
C584 C 0.12042 0.55923 0.68412 0.0
C585 C 0.58843 0.12397 0.84392 0.0
C586 C 0.59022 0.13941 0.87152 0.0
C587 C 0.59586 0.14617 0.8189 0.0
C588 C 0.60433 0.18424 0.82064 0.0
H589 H 0.58176 0.09467 0.84172 0.0
H590 H 0.59475 0.13339 0.79805 0.0
S591 S 0.61209 0.23768 0.88798 0.0
N592 N 0.60122 0.19481 0.89931 0.0
N593 N 0.61418 0.23639 0.8523 0.0
C594 C 0.6057 0.1998 0.84816 0.0
C595 C 0.59893 0.17742 0.87362 0.0
C596 C 0.44803 0.57435 0.02779 0.0
C597 C 0.48369 0.60231 0.03844 0.0
C598 C 0.43316 0.57989 1.00205 0.0
C599 C 0.45347 0.61348 0.98581 0.0
H600 H 0.43157 0.54778 0.03933 0.0
H601 H 0.40556 0.55759 0.9948 0.0
S602 S 0.54712 0.69647 0.00508 0.0
N603 N 0.53811 0.66559 0.03139 0.0
N604 N 0.51064 0.67568 0.98272 0.0
C605 C 0.48914 0.64171 0.99621 0.0
C606 C 0.50413 0.6362 0.02255 0.0
C607 C 0.91421 0.48246 0.18207 0.0
C608 C 0.89838 0.4697 0.20977 0.0
C609 C 0.89243 0.46732 0.1569 0.0
C610 C 0.85418 0.4384 0.15845 0.0
H611 H 0.9438 0.50414 0.17977 0.0
H612 H 0.90573 0.47815 0.13607 0.0
S613 S 0.79818 0.39703 0.22545 0.0
N614 N 0.84114 0.42814 0.23708 0.0
N615 N 0.80076 0.39871 0.18976 0.0
C616 C 0.83789 0.42539 0.1859 0.0
C617 C 0.85984 0.44126 0.21154 0.0
loop_
_geom_bond_atom_site_label_1
_geom_bond_atom_site_label_2
_geom_bond_distance
_geom_bond_site_symmetry_2
_ccdc_geom_bond_type
C0 C1 1.384 . S
C0 C2 1.384 . S
C0 H28 0.931 . S
C1 C0 1.384 . S
C1 C4 1.382 . S
C2 C0 1.384 . S
C2 C3 1.381 . S
C2 H29 0.930 . S
C3 C2 1.381 . S
C3 C5 1.381 . S
C3 C6 1.487 . S
C4 C1 1.382 . S
C4 C5 1.387 . S
C4 H30 0.930 . S
C5 C3 1.381 . S
C5 C4 1.387 . S
C5 H31 0.931 . S
C6 C3 1.487 . S
C6 C13 1.399 . S
C6 N44 1.343 1_655 S
C7 C8 1.384 . S
C7 C9 1.384 . S
C7 H32 0.931 . S
C8 C7 1.384 . S
C8 C11 1.382 . S
C9 C7 1.384 . S
C9 C10 1.381 . S
C9 H33 0.930 . S
C10 C9 1.381 . S
C10 C12 1.381 . S
C10 C13 1.487 . S
C11 C8 1.382 . S
C11 C12 1.387 . S
C11 H34 0.930 . S
C12 C10 1.381 . S
C12 C11 1.387 . S
C12 H35 0.931 . S
C13 C6 1.399 . S
C13 C10 1.487 . S
C13 N45 1.343 1_655 S
C14 C15 1.384 . S
C14 C16 1.384 . S
C14 H36 0.931 . S
C15 C14 1.384 . S
C15 C18 1.382 . S
C16 C14 1.384 . S
C16 C17 1.381 . S
C16 H37 0.930 . S
C17 C16 1.381 . S
C17 C19 1.381 . S
C17 C20 1.487 . S
C18 C15 1.382 . S
C18 C19 1.387 . S
C18 H38 0.930 . S
C19 C17 1.381 . S
C19 C18 1.387 . S
C19 H39 0.931 . S
C20 C17 1.487 . S
C20 C27 1.399 . S
C20 N45 1.343 . S
C21 C22 1.384 . S
C21 C23 1.384 . S
C21 H40 0.931 . S
C22 C21 1.384 . S
C22 C25 1.382 . S
C23 C21 1.384 . S
C23 C24 1.381 . S
C23 H41 0.930 . S
C24 C23 1.381 . S
C24 C26 1.381 . S
C24 C27 1.487 . S
C25 C22 1.382 . S
C25 C26 1.387 . S
C25 H42 0.930 . S
C26 C24 1.381 . S
C26 C25 1.387 . S
C26 H43 0.931 . S
C27 C20 1.399 . S
C27 C24 1.487 . S
C27 N44 1.343 . S
H28 C0 0.931 . S
H29 C2 0.930 . S
H30 C4 0.930 . S
H31 C5 0.931 . S
H32 C7 0.931 . S
H33 C9 0.930 . S
H34 C11 0.930 . S
H35 C12 0.931 . S
H36 C14 0.931 . S
H37 C16 0.930 . S
H38 C18 0.930 . S
H39 C19 0.931 . S
H40 C21 0.931 . S
H41 C23 0.930 . S
H42 C25 0.930 . S
H43 C26 0.931 . S
N44 C6 1.343 1_455 S
N44 C27 1.343 . S
N45 C13 1.343 1_455 S
N45 C20 1.343 . S
C46 C47 1.384 . S
C46 C48 1.384 . S
C46 H74 0.931 . S
C47 C46 1.384 . S
C47 C50 1.382 . S
C48 C46 1.384 . S
C48 C49 1.381 . S
C48 H75 0.930 . S
C49 C48 1.381 . S
C49 C51 1.381 . S
C49 C52 1.487 . S
C50 C47 1.382 . S
C50 C51 1.387 . S
C50 H76 0.930 . S
C51 C49 1.381 . S
C51 C50 1.387 . S
C51 H77 0.931 . S
C52 C49 1.487 . S
C52 C59 1.399 . S
C52 N90 1.343 1_565 S
C53 C54 1.384 . S
C53 C55 1.384 . S
C53 H78 0.931 . S
C54 C53 1.384 . S
C54 C57 1.382 . S
C55 C53 1.384 . S
C55 C56 1.381 . S
C55 H79 0.930 . S
C56 C55 1.381 . S
C56 C58 1.381 . S
C56 C59 1.487 . S
C57 C54 1.382 . S
C57 C58 1.387 . S
C57 H80 0.930 . S
C58 C56 1.381 . S
C58 C57 1.387 . S
C58 H81 0.931 . S
C59 C52 1.399 . S
C59 C56 1.487 . S
C59 N91 1.343 1_565 S
C60 C61 1.384 . S
C60 C62 1.384 . S
C60 H82 0.931 . S
C61 C60 1.384 . S
C61 C64 1.382 . S
C62 C60 1.384 . S
C62 C63 1.381 . S
C62 H83 0.930 . S
C63 C62 1.381 . S
C63 C65 1.381 . S
C63 C66 1.487 . S
C64 C61 1.382 . S
C64 C65 1.387 . S
C64 H84 0.930 . S
C65 C63 1.381 . S
C65 C64 1.387 . S
C65 H85 0.931 . S
C66 C63 1.487 . S
C66 C73 1.399 . S
C66 N91 1.343 . S
C67 C68 1.384 . S
C67 C69 1.384 . S
C67 H86 0.931 . S
C68 C67 1.384 . S
C68 C71 1.382 . S
C69 C67 1.384 . S
C69 C70 1.381 . S
C69 H87 0.930 . S
C70 C69 1.381 . S
C70 C72 1.381 . S
C70 C73 1.487 . S
C71 C68 1.382 . S
C71 C72 1.387 . S
C71 H88 0.930 . S
C72 C70 1.381 . S
C72 C71 1.387 . S
C72 H89 0.931 . S
C73 C66 1.399 . S
C73 C70 1.487 . S
C73 N90 1.343 . S
H74 C46 0.931 . S
H75 C48 0.930 . S
H76 C50 0.930 . S
H77 C51 0.931 . S
H78 C53 0.931 . S
H79 C55 0.930 . S
H80 C57 0.930 . S
H81 C58 0.931 . S
H82 C60 0.931 . S
H83 C62 0.930 . S
H84 C64 0.930 . S
H85 C65 0.931 . S
H86 C67 0.931 . S
H87 C69 0.930 . S
H88 C71 0.930 . S
H89 C72 0.931 . S
N90 C52 1.343 1_545 S
N90 C73 1.343 . S
N91 C59 1.343 1_545 S
N91 C66 1.343 . S
C92 C93 1.384 . S
C92 C94 1.384 . S
C92 H120 0.931 . S
C93 C92 1.384 . S
C93 C96 1.382 . S
C94 C92 1.384 . S
C94 C95 1.381 . S
C94 H121 0.930 . S
C95 C94 1.381 . S
C95 C97 1.381 . S
C95 C98 1.487 . S
C96 C93 1.382 . S
C96 C97 1.387 . S
C96 H122 0.930 . S
C97 C95 1.381 . S
C97 C96 1.387 . S
C97 H123 0.931 . S
C98 C95 1.487 . S
C98 C105 1.399 . S
C98 N136 1.343 . S
C99 C100 1.384 . S
C99 C101 1.384 . S
C99 H124 0.931 . S
C100 C99 1.384 . S
C100 C103 1.382 . S
C101 C99 1.384 . S
C101 C102 1.381 . S
C101 H125 0.930 . S
C102 C101 1.381 . S
C102 C104 1.381 . S
C102 C105 1.487 . S
C103 C100 1.382 . S
C103 C104 1.387 . S
C103 H126 0.930 . S
C104 C102 1.381 . S
C104 C103 1.387 . S
C104 H127 0.931 . S
C105 C98 1.399 . S
C105 C102 1.487 . S
C105 N137 1.343 . S
C106 C107 1.384 . S
C106 C108 1.384 . S
C106 H128 0.931 . S
C107 C106 1.384 . S
C107 C110 1.382 . S
C108 C106 1.384 . S
C108 C109 1.381 . S
C108 H129 0.930 . S
C109 C108 1.381 . S
C109 C111 1.381 . S
C109 C112 1.487 . S
C110 C107 1.382 . S
C110 C111 1.387 . S
C110 H130 0.930 . S
C111 C109 1.381 . S
C111 C110 1.387 . S
C111 H131 0.931 . S
C112 C109 1.487 . S
C112 C119 1.399 . S
C112 N137 1.343 . S
C113 C114 1.384 . S
C113 C115 1.384 . S
C113 H132 0.931 . S
C114 C113 1.384 . S
C114 C117 1.382 . S
C115 C113 1.384 . S
C115 C116 1.381 . S
C115 H133 0.930 . S
C116 C115 1.381 . S
C116 C118 1.381 . S
C116 C119 1.487 . S
C117 C114 1.382 . S
C117 C118 1.387 . S
C117 H134 0.930 . S
C118 C116 1.381 . S
C118 C117 1.387 . S
C118 H135 0.931 . S
C119 C112 1.399 . S
C119 C116 1.487 . S
C119 N136 1.343 . S
H120 C92 0.931 . S
H121 C94 0.930 . S
H122 C96 0.930 . S
H123 C97 0.931 . S
H124 C99 0.931 . S
H125 C101 0.930 . S
H126 C103 0.930 . S
H127 C104 0.931 . S
H128 C106 0.931 . S
H129 C108 0.930 . S
H130 C110 0.930 . S
H131 C111 0.931 . S
H132 C113 0.931 . S
H133 C115 0.930 . S
H134 C117 0.930 . S
H135 C118 0.931 . S
N136 C98 1.343 . S
N136 C119 1.343 . S
N137 C105 1.343 . S
N137 C112 1.343 . S
C138 C139 1.384 . S
C138 C140 1.384 . S
C138 H166 0.931 . S
C139 C138 1.384 . S
C139 C142 1.382 . S
C140 C138 1.384 . S
C140 C141 1.381 . S
C140 H167 0.930 . S
C141 C140 1.381 . S
C141 C143 1.381 . S
C141 C144 1.487 . S
C142 C139 1.382 . S
C142 C143 1.387 . S
C142 H168 0.930 . S
C143 C141 1.381 . S
C143 C142 1.387 . S
C143 H169 0.931 . S
C144 C141 1.487 . S
C144 C151 1.399 . S
C144 N182 1.343 1_655 S
C145 C146 1.384 . S
C145 C147 1.384 . S
C145 H170 0.931 . S
C146 C145 1.384 . S
C146 C149 1.382 . S
C147 C145 1.384 . S
C147 C148 1.381 . S
C147 H171 0.930 . S
C148 C147 1.381 . S
C148 C150 1.381 . S
C148 C151 1.487 . S
C149 C146 1.382 . S
C149 C150 1.387 . S
C149 H172 0.930 . S
C150 C148 1.381 . S
C150 C149 1.387 . S
C150 H173 0.931 . S
C151 C144 1.399 . S
C151 C148 1.487 . S
C151 N183 1.343 1_655 S
C152 C153 1.384 . S
C152 C154 1.384 . S
C152 H174 0.931 . S
C153 C152 1.384 . S
C153 C156 1.382 . S
C154 C152 1.384 . S
C154 C155 1.381 . S
C154 H175 0.930 . S
C155 C154 1.381 . S
C155 C157 1.381 . S
C155 C158 1.487 . S
C156 C153 1.382 . S
C156 C157 1.387 . S
C156 H176 0.930 . S
C157 C155 1.381 . S
C157 C156 1.387 . S
C157 H177 0.931 . S
C158 C155 1.487 . S
C158 C165 1.399 . S
C158 N183 1.343 . S
C159 C160 1.384 . S
C159 C161 1.384 . S
C159 H178 0.931 . S
C160 C159 1.384 . S
C160 C163 1.382 . S
C161 C159 1.384 . S
C161 C162 1.381 . S
C161 H179 0.930 . S
C162 C161 1.381 . S
C162 C164 1.381 . S
C162 C165 1.487 . S
C163 C160 1.382 . S
C163 C164 1.387 . S
C163 H180 0.930 . S
C164 C162 1.381 . S
C164 C163 1.387 . S
C164 H181 0.931 . S
C165 C158 1.399 . S
C165 C162 1.487 . S
C165 N182 1.343 . S
H166 C138 0.931 . S
H167 C140 0.930 . S
H168 C142 0.930 . S
H169 C143 0.931 . S
H170 C145 0.931 . S
H171 C147 0.930 . S
H172 C149 0.930 . S
H173 C150 0.931 . S
H174 C152 0.931 . S
H175 C154 0.930 . S
H176 C156 0.930 . S
H177 C157 0.931 . S
H178 C159 0.931 . S
H179 C161 0.930 . S
H180 C163 0.930 . S
H181 C164 0.931 . S
N182 C144 1.343 1_455 S
N182 C165 1.343 . S
N183 C151 1.343 1_455 S
N183 C158 1.343 . S
C184 C185 1.384 . S
C184 C186 1.384 . S
C184 H212 0.931 . S
C185 C184 1.384 . S
C185 C188 1.382 . S
C186 C184 1.384 . S
C186 C187 1.381 . S
C186 H213 0.930 1_556 S
C187 C186 1.381 . S
C187 C189 1.381 . S
C187 C190 1.487 . S
C188 C185 1.382 . S
C188 C189 1.387 . S
C188 H214 0.930 . S
C189 C187 1.381 . S
C189 C188 1.387 . S
C189 H215 0.931 . S
C190 C187 1.487 . S
C190 C197 1.399 1_556 S
C190 N228 1.343 1_565 S
C191 C192 1.384 . S
C191 C193 1.384 . S
C191 H216 0.931 . S
C192 C191 1.384 . S
C192 C195 1.382 . S
C193 C191 1.384 . S
C193 C194 1.381 . S
C193 H217 0.930 . S
C194 C193 1.381 . S
C194 C196 1.381 . S
C194 C197 1.487 . S
C195 C192 1.382 . S
C195 C196 1.387 . S
C195 H218 0.930 . S
C196 C194 1.381 . S
C196 C195 1.387 . S
C196 H219 0.931 . S
C197 C190 1.399 1_554 S
C197 C194 1.487 . S
C197 N229 1.343 1_565 S
C198 C199 1.384 . S
C198 C200 1.384 1_554 S
C198 H220 0.919 1_554 S
C199 C198 1.384 . S
C199 C202 1.382 . S
C200 C198 1.384 1_556 S
C200 C201 1.381 1_556 S
C200 H221 0.930 . S
C201 C200 1.381 1_554 S
C201 C203 1.381 . S
C201 C204 1.483 1_554 S
C202 C199 1.382 . S
C202 C203 1.387 . S
C202 H222 0.930 . S
C203 C201 1.381 . S
C203 C202 1.387 . S
C203 H223 0.931 . S
C204 C201 1.483 1_556 S
C204 C211 1.412 . S
C204 N229 1.332 1_556 S
C205 C206 1.384 . S
C205 C207 1.384 . S
C205 H224 0.931 . S
C206 C205 1.384 . S
C206 C209 1.382 . S
C207 C205 1.384 . S
C207 C208 1.381 . S
C207 H225 0.930 . S
C208 C207 1.381 . S
C208 C210 1.381 . S
C208 C211 1.487 . S
C209 C206 1.382 . S
C209 C210 1.387 . S
C209 H226 0.930 . S
C210 C208 1.381 . S
C210 C209 1.387 . S
C210 H227 0.931 . S
C211 C204 1.412 . S
C211 C208 1.487 . S
C211 N228 1.343 . S
H212 C184 0.931 . S
H213 C186 0.930 1_554 S
H214 C188 0.930 . S
H215 C189 0.931 . S
H216 C191 0.931 . S
H217 C193 0.930 . S
H218 C195 0.930 . S
H219 C196 0.931 . S
H220 C198 0.919 1_556 S
H221 C200 0.930 . S
H222 C202 0.930 . S
H223 C203 0.931 . S
H224 C205 0.931 . S
H225 C207 0.930 . S
H226 C209 0.930 . S
H227 C210 0.931 . S
N228 C190 1.343 1_545 S
N228 C211 1.343 . S
N229 C197 1.343 1_545 S
N229 C204 1.332 1_554 S
C230 C231 1.384 . S
C230 C232 1.384 . S
C230 H258 0.931 . S
C231 C230 1.384 . S
C231 C234 1.382 . S
C232 C230 1.384 . S
C232 C233 1.381 . S
C232 H259 0.930 . S
C233 C232 1.381 . S
C233 C235 1.381 . S
C233 C236 1.487 . S
C234 C231 1.382 . S
C234 C235 1.387 . S
C234 H260 0.930 . S
C235 C233 1.381 . S
C235 C234 1.387 . S
C235 H261 0.931 . S
C236 C233 1.487 . S
C236 C243 1.399 . S
C236 N274 1.343 . S
C237 C238 1.384 . S
C237 C239 1.384 . S
C237 H262 0.931 . S
C238 C237 1.384 . S
C238 C241 1.382 . S
C239 C237 1.384 . S
C239 C240 1.381 . S
C239 H263 0.930 . S
C240 C239 1.381 . S
C240 C242 1.381 . S
C240 C243 1.487 . S
C241 C238 1.382 . S
C241 C242 1.387 . S
C241 H264 0.930 . S
C242 C240 1.381 . S
C242 C241 1.387 . S
C242 H265 0.931 . S
C243 C236 1.399 . S
C243 C240 1.487 . S
C243 N275 1.343 . S
C244 C245 1.384 . S
C244 C246 1.384 . S
C244 H266 0.931 . S
C245 C244 1.384 . S
C245 C248 1.382 . S
C246 C244 1.384 . S
C246 C247 1.381 . S
C246 H267 0.930 . S
C247 C246 1.381 . S
C247 C249 1.381 . S
C247 C250 1.487 . S
C248 C245 1.382 . S
C248 C249 1.387 . S
C248 H268 0.930 . S
C249 C247 1.381 . S
C249 C248 1.387 . S
C249 H269 0.931 . S
C250 C247 1.487 . S
C250 C257 1.399 . S
C250 N275 1.343 . S
C251 C252 1.384 . S
C251 C253 1.384 . S
C251 H270 0.931 . S
C252 C251 1.384 . S
C252 C255 1.382 . S
C253 C251 1.384 . S
C253 C254 1.381 . S
C253 H271 0.930 . S
C254 C253 1.381 . S
C254 C256 1.381 . S
C254 C257 1.487 . S
C255 C252 1.382 . S
C255 C256 1.387 . S
C255 H272 0.930 . S
C256 C254 1.381 . S
C256 C255 1.387 . S
C256 H273 0.931 . S
C257 C250 1.399 . S
C257 C254 1.487 . S
C257 N274 1.343 . S
H258 C230 0.931 . S
H259 C232 0.930 . S
H260 C234 0.930 . S
H261 C235 0.931 . S
H262 C237 0.931 . S
H263 C239 0.930 . S
H264 C241 0.930 . S
H265 C242 0.931 . S
H266 C244 0.931 . S
H267 C246 0.930 . S
H268 C248 0.930 . S
H269 C249 0.931 . S
H270 C251 0.931 . S
H271 C253 0.930 . S
H272 C255 0.930 . S
H273 C256 0.931 . S
N274 C236 1.343 . S
N274 C257 1.343 . S
N275 C243 1.343 . S
N275 C250 1.343 . S
In276 O277 2.294 . S
In276 O278 2.326 . S
In276 O282 2.266 . S
In276 O283 2.326 . S
In276 O284 2.266 . S
In276 O285 2.326 . S
In276 O287 2.294 . S
In276 O288 2.326 . S
O277 In276 2.294 . S
O277 C286 1.240 . S
O278 In276 2.326 . S
O278 C286 1.252 . S
C279 O282 1.252 . S
C279 O283 1.260 . S
C280 O287 1.240 . S
C280 O288 1.252 . S
C281 O284 1.252 . S
C281 O285 1.260 . S
O282 In276 2.266 . S
O282 C279 1.252 . S
O283 In276 2.326 . S
O283 C279 1.260 . S
O284 In276 2.266 . S
O284 C281 1.252 . S
O285 In276 2.326 . S
O285 C281 1.260 . S
C286 O277 1.240 . S
C286 O278 1.252 . S
O287 In276 2.294 . S
O287 C280 1.240 . S
O288 In276 2.326 . S
O288 C280 1.252 . S
In289 O290 2.294 . S
In289 O291 2.326 . S
In289 O295 2.266 . S
In289 O296 2.326 . S
In289 O297 2.266 . S
In289 O298 2.326 . S
In289 O300 2.294 . S
In289 O301 2.326 . S
O290 In289 2.294 . S
O290 C299 1.240 . S
O291 In289 2.326 . S
O291 C299 1.252 . S
C292 O295 1.252 . S
C292 O296 1.260 . S
C293 O300 1.240 . S
C293 O301 1.252 . S
C294 O297 1.252 . S
C294 O298 1.260 . S
O295 In289 2.266 . S
O295 C292 1.252 . S
O296 In289 2.326 . S
O296 C292 1.260 . S
O297 In289 2.266 . S
O297 C294 1.252 . S
O298 In289 2.326 . S
O298 C294 1.260 . S
C299 O290 1.240 . S
C299 O291 1.252 . S
O300 In289 2.294 . S
O300 C293 1.240 . S
O301 In289 2.326 . S
O301 C293 1.252 . S
In302 O303 2.294 . S
In302 O304 2.326 . S
In302 O308 2.266 . S
In302 O309 2.326 . S
In302 O310 2.266 . S
In302 O311 2.326 . S
In302 O313 2.294 . S
In302 O314 2.326 . S
O303 In302 2.294 . S
O303 C312 1.240 . S
O304 In302 2.326 . S
O304 C312 1.252 . S
C305 O308 1.252 . S
C305 O309 1.260 . S
C306 O313 1.240 . S
C306 O314 1.252 . S
C307 O310 1.252 . S
C307 O311 1.260 . S
O308 In302 2.266 . S
O308 C305 1.252 . S
O309 In302 2.326 . S
O309 C305 1.260 . S
O310 In302 2.266 . S
O310 C307 1.252 . S
O311 In302 2.326 . S
O311 C307 1.260 . S
C312 O303 1.240 . S
C312 O304 1.252 . S
O313 In302 2.294 . S
O313 C306 1.240 . S
O314 In302 2.326 . S
O314 C306 1.252 . S
In315 O316 2.294 . S
In315 O317 2.326 . S
In315 O321 2.266 . S
In315 O322 2.326 . S
In315 O323 2.266 . S
In315 O324 2.326 . S
In315 O326 2.294 . S
In315 O327 2.326 . S
O316 In315 2.294 . S
O316 C325 1.240 . S
O317 In315 2.326 . S
O317 C325 1.252 . S
C318 O321 1.252 . S
C318 O322 1.260 . S
C319 O326 1.240 . S
C319 O327 1.252 . S
C320 O323 1.252 . S
C320 O324 1.260 . S
O321 In315 2.266 . S
O321 C318 1.252 . S
O322 In315 2.326 . S
O322 C318 1.260 . S
O323 In315 2.266 . S
O323 C320 1.252 . S
O324 In315 2.326 . S
O324 C320 1.260 . S
C325 O316 1.240 . S
C325 O317 1.252 . S
O326 In315 2.294 . S
O326 C319 1.240 . S
O327 In315 2.326 . S
O327 C319 1.252 . S
In328 O329 2.294 . S
In328 O330 2.326 . S
In328 O334 2.266 . S
In328 O335 2.326 . S
In328 O336 2.266 . S
In328 O337 2.326 . S
In328 O339 2.294 . S
In328 O340 2.326 . S
O329 In328 2.294 . S
O329 C338 1.240 . S
O330 In328 2.326 . S
O330 C338 1.252 . S
C331 O334 1.252 . S
C331 O335 1.260 . S
C332 O339 1.240 . S
C332 O340 1.252 . S
C333 O336 1.252 . S
C333 O337 1.260 . S
O334 In328 2.266 . S
O334 C331 1.252 . S
O335 In328 2.326 . S
O335 C331 1.260 . S
O336 In328 2.266 . S
O336 C333 1.252 . S
O337 In328 2.326 . S
O337 C333 1.260 . S
C338 O329 1.240 . S
C338 O330 1.252 . S
O339 In328 2.294 . S
O339 C332 1.240 . S
O340 In328 2.326 . S
O340 C332 1.252 . S
In341 O342 2.294 . S
In341 O343 2.326 . S
In341 O347 2.266 . S
In341 O348 2.326 . S
In341 O349 2.266 . S
In341 O350 2.326 . S
In341 O352 2.294 . S
In341 O353 2.326 . S
O342 In341 2.294 . S
O342 C351 1.240 . S
O343 In341 2.326 . S
O343 C351 1.252 . S
C344 O347 1.252 . S
C344 O348 1.260 . S
C345 O352 1.240 . S
C345 O353 1.252 . S
C346 O349 1.252 . S
C346 O350 1.260 . S
O347 In341 2.266 . S
O347 C344 1.252 . S
O348 In341 2.326 . S
O348 C344 1.260 . S
O349 In341 2.266 . S
O349 C346 1.252 . S
O350 In341 2.326 . S
O350 C346 1.260 . S
C351 O342 1.240 . S
C351 O343 1.252 . S
O352 In341 2.294 . S
O352 C345 1.240 . S
O353 In341 2.326 . S
O353 C345 1.252 . S
C354 C355 1.369 . S
C354 C356 1.419 . S
C354 H358 0.930 . S
C355 C354 1.369 . S
C355 C364 1.429 . S
C356 C354 1.419 . S
C356 C357 1.363 . S
C356 H359 0.929 . S
C357 C356 1.363 . S
C357 C363 1.428 . S
H358 C354 0.930 . S
H359 C356 0.929 . S
S360 N361 1.613 . S
S360 N362 1.610 . S
N361 S360 1.613 . S
N361 C364 1.350 . S
N362 S360 1.610 . S
N362 C363 1.351 . S
C363 C357 1.428 . S
C363 N362 1.351 . S
C363 C364 1.434 . S
C364 C355 1.429 . S
C364 N361 1.350 . S
C364 C363 1.434 . S
C365 C366 1.369 . S
C365 C367 1.419 . S
C365 H369 0.930 . S
C366 C365 1.369 . S
C366 C375 1.429 . S
C367 C365 1.419 . S
C367 C368 1.363 . S
C367 H370 0.929 . S
C368 C367 1.363 . S
C368 C374 1.428 . S
H369 C365 0.930 . S
H370 C367 0.929 . S
S371 N372 1.613 . S
S371 N373 1.610 . S
N372 S371 1.613 . S
N372 C375 1.350 . S
N373 S371 1.610 . S
N373 C374 1.351 . S
C374 C368 1.428 . S
C374 N373 1.351 . S
C374 C375 1.434 . S
C375 C366 1.429 . S
C375 N372 1.350 . S
C375 C374 1.434 . S
C376 C377 1.369 . S
C376 C378 1.419 . S
C376 H380 0.930 . S
C377 C376 1.369 . S
C377 C386 1.429 . S
C378 C376 1.419 . S
C378 C379 1.363 . S
C378 H381 0.929 . S
C379 C378 1.363 . S
C379 C385 1.428 . S
H380 C376 0.930 . S
H381 C378 0.929 . S
S382 N383 1.613 . S
S382 N384 1.610 . S
N383 S382 1.613 . S
N383 C386 1.350 . S
N384 S382 1.610 . S
N384 C385 1.351 . S
C385 C379 1.428 . S
C385 N384 1.351 . S
C385 C386 1.434 . S
C386 C377 1.429 . S
C386 N383 1.350 . S
C386 C385 1.434 . S
C387 C388 1.369 . S
C387 C389 1.419 . S
C387 H391 0.930 . S
C388 C387 1.369 . S
C388 C397 1.429 . S
C389 C387 1.419 . S
C389 C390 1.363 . S
C389 H392 0.929 . S
C390 C389 1.363 . S
C390 C396 1.428 . S
H391 C387 0.930 . S
H392 C389 0.929 . S
S393 N394 1.613 . S
S393 N395 1.610 . S
N394 S393 1.613 . S
N394 C397 1.350 . S
N395 S393 1.610 . S
N395 C396 1.351 . S
C396 C390 1.428 . S
C396 N395 1.351 . S
C396 C397 1.434 . S
C397 C388 1.429 . S
C397 N394 1.350 . S
C397 C396 1.434 . S
C398 C399 1.369 . S
C398 C400 1.419 . S
C398 H402 0.930 . S
C399 C398 1.369 . S
C399 C408 1.429 . S
C400 C398 1.419 . S
C400 C401 1.363 . S
C400 H403 0.929 . S
C401 C400 1.363 . S
C401 C407 1.428 . S
H402 C398 0.930 . S
H403 C400 0.929 . S
S404 N405 1.613 . S
S404 N406 1.610 1_554 S
N405 S404 1.613 . S
N405 C408 1.350 1_554 S
N406 S404 1.610 1_556 S
N406 C407 1.351 . S
C407 C401 1.428 . S
C407 N406 1.351 . S
C407 C408 1.434 . S
C408 C399 1.429 . S
C408 N405 1.350 1_556 S
C408 C407 1.434 . S
C409 C410 1.369 . S
C409 C411 1.419 . S
C409 H413 0.930 . S
C410 C409 1.369 . S
C410 C419 1.429 . S
C411 C409 1.419 . S
C411 C412 1.363 . S
C411 H414 0.929 . S
C412 C411 1.363 . S
C412 C418 1.428 . S
H413 C409 0.930 . S
H414 C411 0.929 . S
S415 N416 1.613 . S
S415 N417 1.610 . S
N416 S415 1.613 . S
N416 C419 1.350 . S
N417 S415 1.610 . S
N417 C418 1.351 . S
C418 C412 1.428 . S
C418 N417 1.351 . S
C418 C419 1.434 . S
C419 C410 1.429 . S
C419 N416 1.350 . S
C419 C418 1.434 . S
C420 C421 1.369 . S
C420 C422 1.419 . S
C420 H424 0.930 . S
C421 C420 1.369 . S
C421 C430 1.429 . S
C422 C420 1.419 . S
C422 C423 1.363 . S
C422 H425 0.929 . S
C423 C422 1.363 . S
C423 C429 1.428 . S
H424 C420 0.930 . S
H425 C422 0.929 . S
S426 N427 1.613 . S
S426 N428 1.610 . S
N427 S426 1.613 . S
N427 C430 1.350 . S
N428 S426 1.610 . S
N428 C429 1.351 . S
C429 C423 1.428 . S
C429 N428 1.351 . S
C429 C430 1.434 . S
C430 C421 1.429 . S
C430 N427 1.350 . S
C430 C429 1.434 . S
C431 C432 1.369 . S
C431 C433 1.419 . S
C431 H435 0.930 . S
C432 C431 1.369 . S
C432 C441 1.429 . S
C433 C431 1.419 . S
C433 C434 1.363 . S
C433 H436 0.929 . S
C434 C433 1.363 . S
C434 C440 1.428 . S
H435 C431 0.930 . S
H436 C433 0.929 . S
S437 N438 1.613 . S
S437 N439 1.610 . S
N438 S437 1.613 . S
N438 C441 1.350 . S
N439 S437 1.610 . S
N439 C440 1.351 . S
C440 C434 1.428 . S
C440 N439 1.351 . S
C440 C441 1.434 . S
C441 C432 1.429 . S
C441 N438 1.350 . S
C441 C440 1.434 . S
C442 C443 1.369 . S
C442 C444 1.419 . S
C442 H446 0.930 . S
C443 C442 1.369 . S
C443 C452 1.429 . S
C444 C442 1.419 . S
C444 C445 1.363 . S
C444 H447 0.929 . S
C445 C444 1.363 . S
C445 C451 1.428 . S
H446 C442 0.930 . S
H447 C444 0.929 . S
S448 N449 1.613 . S
S448 N450 1.610 . S
N449 S448 1.613 . S
N449 C452 1.350 . S
N450 S448 1.610 . S
N450 C451 1.351 . S
C451 C445 1.428 . S
C451 N450 1.351 . S
C451 C452 1.434 . S
C452 C443 1.429 . S
C452 N449 1.350 . S
C452 C451 1.434 . S
C453 C454 1.369 . S
C453 C455 1.419 . S
C453 H457 0.930 . S
C454 C453 1.369 . S
C454 C463 1.429 . S
C455 C453 1.419 . S
C455 C456 1.363 . S
C455 H458 0.929 . S
C456 C455 1.363 . S
C456 C462 1.428 . S
H457 C453 0.930 . S
H458 C455 0.929 . S
S459 N460 1.613 . S
S459 N461 1.610 . S
N460 S459 1.613 . S
N460 C463 1.350 . S
N461 S459 1.610 . S
N461 C462 1.351 . S
C462 C456 1.428 . S
C462 N461 1.351 . S
C462 C463 1.434 . S
C463 C454 1.429 . S
C463 N460 1.350 . S
C463 C462 1.434 . S
C464 C465 1.369 . S
C464 C466 1.419 . S
C464 H468 0.930 . S
C465 C464 1.369 . S
C465 C474 1.429 . S
C466 C464 1.419 . S
C466 C467 1.363 . S
C466 H469 0.929 . S
C467 C466 1.363 . S
C467 C473 1.428 . S
H468 C464 0.930 . S
H469 C466 0.929 . S
S470 N471 1.613 . S
S470 N472 1.610 . S
N471 S470 1.613 . S
N471 C474 1.350 . S
N472 S470 1.610 . S
N472 C473 1.351 . S
C473 C467 1.428 . S
C473 N472 1.351 . S
C473 C474 1.434 . S
C474 C465 1.429 . S
C474 N471 1.350 . S
C474 C473 1.434 . S
C475 C476 1.369 . S
C475 C477 1.419 . S
C475 H479 0.930 . S
C476 C475 1.369 . S
C476 C485 1.429 . S
C477 C475 1.419 . S
C477 C478 1.363 . S
C477 H480 0.929 . S
C478 C477 1.363 . S
C478 C484 1.428 . S
H479 C475 0.930 . S
H480 C477 0.929 . S
S481 N482 1.613 . S
S481 N483 1.610 . S
N482 S481 1.613 . S
N482 C485 1.350 . S
N483 S481 1.610 . S
N483 C484 1.351 . S
C484 C478 1.428 . S
C484 N483 1.351 . S
C484 C485 1.434 . S
C485 C476 1.429 . S
C485 N482 1.350 . S
C485 C484 1.434 . S
C486 C487 1.369 . S
C486 C488 1.419 . S
C486 H490 0.930 . S
C487 C486 1.369 . S
C487 C496 1.429 . S
C488 C486 1.419 . S
C488 C489 1.363 . S
C488 H491 0.929 . S
C489 C488 1.363 . S
C489 C495 1.428 . S
H490 C486 0.930 . S
H491 C488 0.929 . S
S492 N493 1.613 . S
S492 N494 1.610 . S
N493 S492 1.613 . S
N493 C496 1.350 . S
N494 S492 1.610 . S
N494 C495 1.351 . S
C495 C489 1.428 . S
C495 N494 1.351 . S
C495 C496 1.434 . S
C496 C487 1.429 . S
C496 N493 1.350 . S
C496 C495 1.434 . S
C497 C498 1.369 . S
C497 C499 1.419 . S
C497 H501 0.930 . S
C498 C497 1.369 . S
C498 C507 1.429 . S
C499 C497 1.419 . S
C499 C500 1.363 . S
C499 H502 0.929 . S
C500 C499 1.363 . S
C500 C506 1.428 . S
H501 C497 0.930 . S
H502 C499 0.929 . S
S503 N504 1.613 . S
S503 N505 1.610 . S
N504 S503 1.613 . S
N504 C507 1.350 . S
N505 S503 1.610 . S
N505 C506 1.351 . S
C506 C500 1.428 . S
C506 N505 1.351 . S
C506 C507 1.434 . S
C507 C498 1.429 . S
C507 N504 1.350 . S
C507 C506 1.434 . S
C508 C509 1.369 . S
C508 C510 1.419 . S
C508 H512 0.930 . S
C509 C508 1.369 . S
C509 C518 1.429 . S
C510 C508 1.419 . S
C510 C511 1.363 . S
C510 H513 0.929 . S
C511 C510 1.363 . S
C511 C517 1.428 . S
H512 C508 0.930 . S
H513 C510 0.929 . S
S514 N515 1.613 . S
S514 N516 1.610 . S
N515 S514 1.613 . S
N515 C518 1.350 . S
N516 S514 1.610 . S
N516 C517 1.351 . S
C517 C511 1.428 . S
C517 N516 1.351 . S
C517 C518 1.434 . S
C518 C509 1.429 . S
C518 N515 1.350 . S
C518 C517 1.434 . S
C519 C520 1.369 . S
C519 C521 1.419 . S
C519 H523 0.930 . S
C520 C519 1.369 . S
C520 C529 1.429 . S
C521 C519 1.419 . S
C521 C522 1.363 1_556 S
C521 H524 0.929 . S
C522 C521 1.363 1_554 S
C522 C528 1.428 . S
H523 C519 0.930 . S
H524 C521 0.929 . S
S525 N526 1.613 1_554 S
S525 N527 1.610 . S
N526 S525 1.613 1_556 S
N526 C529 1.350 . S
N527 S525 1.610 . S
N527 C528 1.351 . S
C528 C522 1.428 . S
C528 N527 1.351 . S
C528 C529 1.434 1_554 S
C529 C520 1.429 . S
C529 N526 1.350 . S
C529 C528 1.434 1_556 S
C530 C531 1.369 . S
C530 C532 1.419 . S
C530 H534 0.930 . S
C531 C530 1.369 . S
C531 C540 1.429 . S
C532 C530 1.419 . S
C532 C533 1.363 . S
C532 H535 0.929 . S
C533 C532 1.363 . S
C533 C539 1.428 . S
H534 C530 0.930 . S
H535 C532 0.929 . S
S536 N537 1.613 . S
S536 N538 1.610 . S
N537 S536 1.613 . S
N537 C540 1.350 . S
N538 S536 1.610 . S
N538 C539 1.351 . S
C539 C533 1.428 . S
C539 N538 1.351 . S
C539 C540 1.434 . S
C540 C531 1.429 . S
C540 N537 1.350 . S
C540 C539 1.434 . S
C541 C542 1.369 . S
C541 C543 1.419 . S
C541 H545 0.930 . S
C542 C541 1.369 . S
C542 C551 1.429 . S
C543 C541 1.419 . S
C543 C544 1.363 . S
C543 H546 0.929 . S
C544 C543 1.363 . S
C544 C550 1.428 . S
H545 C541 0.930 . S
H546 C543 0.929 . S
S547 N548 1.613 . S
S547 N549 1.610 . S
N548 S547 1.613 . S
N548 C551 1.350 . S
N549 S547 1.610 . S
N549 C550 1.351 . S
C550 C544 1.428 . S
C550 N549 1.351 . S
C550 C551 1.434 . S
C551 C542 1.429 . S
C551 N548 1.350 . S
C551 C550 1.434 . S
C552 C553 1.369 . S
C552 C554 1.419 . S
C552 H556 0.930 . S
C553 C552 1.369 . S
C553 C562 1.429 . S
C554 C552 1.419 . S
C554 C555 1.363 . S
C554 H557 0.929 . S
C555 C554 1.363 . S
C555 C561 1.428 . S
H556 C552 0.930 . S
H557 C554 0.929 . S
S558 N559 1.613 . S
S558 N560 1.610 . S
N559 S558 1.613 . S
N559 C562 1.350 . S
N560 S558 1.610 . S
N560 C561 1.351 . S
C561 C555 1.428 . S
C561 N560 1.351 . S
C561 C562 1.434 . S
C562 C553 1.429 . S
C562 N559 1.350 . S
C562 C561 1.434 . S
C563 C564 1.369 . S
C563 C565 1.419 . S
C563 H567 0.930 . S
C564 C563 1.369 . S
C564 C573 1.429 . S
C565 C563 1.419 . S
C565 C566 1.363 . S
C565 H568 0.929 . S
C566 C565 1.363 . S
C566 C572 1.428 . S
H567 C563 0.930 . S
H568 C565 0.929 . S
S569 N570 1.613 . S
S569 N571 1.610 . S
N570 S569 1.613 . S
N570 C573 1.350 . S
N571 S569 1.610 . S
N571 C572 1.351 . S
C572 C566 1.428 . S
C572 N571 1.351 . S
C572 C573 1.434 . S
C573 C564 1.429 . S
C573 N570 1.350 . S
C573 C572 1.434 . S
C574 C575 1.369 . S
C574 C576 1.419 . S
C574 H578 0.930 . S
C575 C574 1.369 . S
C575 C584 1.429 . S
C576 C574 1.419 . S
C576 C577 1.363 . S
C576 H579 0.929 . S
C577 C576 1.363 . S
C577 C583 1.428 . S
H578 C574 0.930 . S
H579 C576 0.929 . S
S580 N581 1.613 . S
S580 N582 1.610 . S
N581 S580 1.613 . S
N581 C584 1.350 . S
N582 S580 1.610 . S
N582 C583 1.351 . S
C583 C577 1.428 . S
C583 N582 1.351 . S
C583 C584 1.434 . S
C584 C575 1.429 . S
C584 N581 1.350 . S
C584 C583 1.434 . S
C585 C586 1.369 . S
C585 C587 1.419 . S
C585 H589 0.930 . S
C586 C585 1.369 . S
C586 C595 1.429 . S
C587 C585 1.419 . S
C587 C588 1.363 . S
C587 H590 0.929 . S
C588 C587 1.363 . S
C588 C594 1.428 . S
H589 C585 0.930 . S
H590 C587 0.929 . S
S591 N592 1.613 . S
S591 N593 1.610 . S
N592 S591 1.613 . S
N592 C595 1.350 . S
N593 S591 1.610 . S
N593 C594 1.351 . S
C594 C588 1.428 . S
C594 N593 1.351 . S
C594 C595 1.434 . S
C595 C586 1.429 . S
C595 N592 1.350 . S
C595 C594 1.434 . S
C596 C597 1.369 . S
C596 C598 1.419 . S
C596 H600 0.930 . S
C597 C596 1.369 . S
C597 C606 1.429 . S
C598 C596 1.419 . S
C598 C599 1.363 1_554 S
C598 H601 0.926 1_554 S
C599 C598 1.363 1_556 S
C599 C605 1.428 . S
H600 C596 0.930 . S
H601 C598 0.926 1_556 S
S602 N603 1.613 1_556 S
S602 N604 1.610 . S
N603 S602 1.613 1_554 S
N603 C606 1.350 . S
N604 S602 1.610 . S
N604 C605 1.351 . S
C605 C599 1.428 . S
C605 N604 1.351 . S
C605 C606 1.434 1_556 S
C606 C597 1.429 . S
C606 N603 1.350 . S
C606 C605 1.434 1_554 S
C607 C608 1.369 . S
C607 C609 1.419 . S
C607 H611 0.930 . S
C608 C607 1.369 . S
C608 C617 1.429 . S
C609 C607 1.419 . S
C609 C610 1.363 . S
C609 H612 0.929 . S
C610 C609 1.363 . S
C610 C616 1.428 . S
H611 C607 0.930 . S
H612 C609 0.929 . S
S613 N614 1.613 . S
S613 N615 1.610 . S
N614 S613 1.613 . S
N614 C617 1.350 . S
N615 S613 1.610 . S
N615 C616 1.351 . S
C616 C610 1.428 . S
C616 N615 1.351 . S
C616 C617 1.434 . S
C617 C608 1.429 . S
C617 N614 1.350 . S
C617 C616 1.434 . S
C357 C346 1.564 . S
C355 C15 1.549 . S
C366 C61 1.549 . S
C368 C281 1.564 . S
C377 C114 1.547 . S
C379 C299 1.564 . S
C388 C139 1.548 . S
C390 C312 1.556 . S
C401 C320 1.567 . S
C399 C185 1.559 . S
C410 C245 1.546 . S
C412 C332 1.563 . S
C421 C47 1.558 . S
C423 C294 1.563 . S
C432 C100 1.556 . S
C434 C307 1.564 . S
C443 C153 1.549 . S
C445 C325 1.562 . S
C456 C331 1.567 . S
C454 C199 1.552 . S
C467 C351 1.556 . S
C465 C231 1.549 . S
C478 C286 1.564 . S
C476 C1 1.556 . S
C487 C22 1.569 . S
C489 C292 1.584 . S
C498 C68 1.568 . S
C500 C305 1.590 . S
C511 C319 1.583 . S
C509 C107 1.569 . S
C520 C146 1.583 . S
C522 C333 1.590 . S
C533 C345 1.579 . S
C531 C192 1.573 . S
C544 C280 1.583 . S
C542 C252 1.564 . S
C555 C344 1.588 . S
C553 C54 1.583 . S
C564 C93 1.580 . S
C566 C279 1.584 . S
C577 C293 1.583 . S
C575 C160 1.568 . S
C586 C206 1.562 . S
C588 C306 1.579 . S
C597 C238 1.584 . S
C599 C318 1.588 . S
C608 C8 1.576 . S
C610 C338 1.583 . S
