# Generated by pormake.
# Topology anh, (6,3)-cn, num edge types: 1
# Building blocks:
#     Node 0, Type 0, BuildingBlock: BETGAK_clean_sbu_0, # of connection points: 6
#     Node 1, Type 0, BuildingBlock: BETGAK_clean_sbu_0, # of connection points: 6
#     Node 2, Type 0, BuildingBlock: BETGAK_clean_sbu_0, # of connection points: 6
#     Node 3, Type 1, BuildingBlock: BELTOD_clean_linker_0, # of connection points: 3
#     Node 4, Type 1, BuildingBlock: BELTOD_clean_linker_0, # of connection points: 3
#     Node 5, Type 1, BuildingBlock: BELTOD_clean_linker_0, # of connection points: 3
#     Node 6, Type 1, BuildingBlock: BELTOD_clean_linker_0, # of connection points: 3
#     Node 7, Type 1, BuildingBlock: BELTOD_clean_linker_0, # of connection points: 3
#     Node 8, Type 1, BuildingBlock: BELTOD_clean_linker_0, # of connection points: 3
#     Edge 9, Type (0, 1), BuildingBlock: UVAHIK_clean_linker_0, # of connection points: 2
#     Edge 10, Type (0, 1), BuildingBlock: UVAHIK_clean_linker_0, # of connection points: 2
#     Edge 11, Type (0, 1), BuildingBlock: UVAHIK_clean_linker_0, # of connection points: 2
#     Edge 12, Type (0, 1), BuildingBlock: UVAHIK_clean_linker_0, # of connection points: 2
#     Edge 13, Type (0, 1), BuildingBlock: UVAHIK_clean_linker_0, # of connection points: 2
#     Edge 14, Type (0, 1), BuildingBlock: UVAHIK_clean_linker_0, # of connection points: 2
#     Edge 15, Type (0, 1), BuildingBlock: UVAHIK_clean_linker_0, # of connection points: 2
#     Edge 16, Type (0, 1), BuildingBlock: UVAHIK_clean_linker_0, # of connection points: 2
#     Edge 17, Type (0, 1), BuildingBlock: UVAHIK_clean_linker_0, # of connection points: 2
#     Edge 18, Type (0, 1), BuildingBlock: UVAHIK_clean_linker_0, # of connection points: 2
#     Edge 19, Type (0, 1), BuildingBlock: UVAHIK_clean_linker_0, # of connection points: 2
#     Edge 20, Type (0, 1), BuildingBlock: UVAHIK_clean_linker_0, # of connection points: 2
#     Edge 21, Type (0, 1), BuildingBlock: UVAHIK_clean_linker_0, # of connection points: 2
#     Edge 22, Type (0, 1), BuildingBlock: UVAHIK_clean_linker_0, # of connection points: 2
#     Edge 23, Type (0, 1), BuildingBlock: UVAHIK_clean_linker_0, # of connection points: 2
#     Edge 24, Type (0, 1), BuildingBlock: UVAHIK_clean_linker_0, # of connection points: 2
#     Edge 25, Type (0, 1), BuildingBlock: UVAHIK_clean_linker_0, # of connection points: 2
#     Edge 26, Type (0, 1), BuildingBlock: UVAHIK_clean_linker_0, # of connection points: 2
# Relax obj value: 0.159
# Max RMSD: 0.194
# Mean RMSD: 0.142
data_MOF--net-anh--node1-BETGAK_clean_sbu_0--node2-BELTOD_clean_linker_0--edge1-UVAHIK_clean_linker_0
_symmetry_space_group_name_H-M    P1
_symmetry_Int_Tables_number       1
_symmetry_cell_setting            triclinic
loop_
_symmetry_equiv_pos_as_xyz
'x, y, z'
_cell_length_a     43.205021
_cell_length_b     50.247073
_cell_length_c     76.057476
_cell_angle_alpha  92.473731
_cell_angle_beta   89.552679
_cell_angle_gamma 127.18623
loop_
_atom_site_label
_atom_site_type_symbol
_atom_site_fract_x
_atom_site_fract_y
_atom_site_fract_z
_atom_type_partial_charge
La0 La 0.08733 0.51835 0.15288 0.0
La1 La 0.0471 0.54476 0.16931 0.0
C2 C 0.1295 0.51031 0.13414 0.0
C3 C 0.17083 0.52538 0.13606 0.0
C4 C 0.19252 0.54745 0.15051 0.0
C5 C 0.23056 0.55877 0.15366 0.0
C6 C 0.24745 0.54809 0.14244 0.0
C7 C 0.22612 0.52713 0.12753 0.0
C8 C 0.18802 0.51582 0.12438 0.0
C9 C 0.08255 0.51549 0.1873 0.0
C10 C 0.13522 0.59716 0.16359 0.0
C11 C 1.00626 0.55336 0.18887 0.0
C12 C 0.96654 0.53065 0.19527 0.0
C13 C 0.93828 0.50156 0.1853 0.0
C14 C 0.9003 0.48046 0.19112 0.0
C15 C 0.88976 0.48799 0.20707 0.0
C16 C 0.91854 0.51663 0.21733 0.0
C17 C 0.9567 0.53778 0.21146 0.0
C18 C 0.05319 0.54751 0.13476 0.0
C19 C 1.00007 0.46657 0.15945 0.0
O20 O 0.10799 0.4907 0.14672 0.0
O21 O 0.12152 0.53081 0.13046 0.0
O22 O 0.08255 0.49426 0.1771 0.0
O23 O 0.08879 0.53869 0.17838 0.0
O24 O 0.13344 0.57303 0.15457 0.0
O25 O 0.1052 0.59108 0.17233 0.0
O26 O 1.0094 0.55777 0.17192 0.0
O27 O 1.03084 0.54867 0.19482 0.0
O28 O 0.05534 0.57004 0.14488 0.0
O29 O 1.04561 0.52407 0.14387 0.0
O30 O 1.00398 0.49006 0.17009 0.0
O31 O 1.02777 0.47388 0.14843 0.0
H32 H 0.17955 0.55493 0.15972 0.0
H33 H 0.24635 0.57508 0.16516 0.0
H34 H 0.23811 0.51806 0.11878 0.0
H35 H 0.17154 0.49865 0.11323 0.0
H36 H 0.9453 0.49551 0.17278 0.0
H37 H 0.87885 0.45905 0.18268 0.0
H38 H 0.91142 0.52299 0.22971 0.0
H39 H 0.97837 0.55996 0.21942 0.0
La40 La 0.57585 0.00649 0.49125 0.0
La41 La 0.52613 0.02652 0.48105 0.0
C42 C 0.60274 0.98064 0.50653 0.0
C43 C 0.59279 0.94707 0.50804 0.0
C44 C 0.58575 0.92652 0.49308 0.0
C45 C 0.57899 0.89581 0.49486 0.0
C46 C 0.57877 0.8849 0.51161 0.0
C47 C 0.58466 0.90506 0.52656 0.0
C48 C 0.59176 0.93589 0.52478 0.0
C49 C 0.57542 0.01548 0.4575 0.0
C50 C 0.48524 0.95061 0.48171 0.0
C51 C 0.49857 0.05397 0.46839 0.0
C52 C 0.50615 0.08628 0.47265 0.0
C53 C 0.53341 0.10799 0.48593 0.0
C54 C 0.53909 0.13781 0.49079 0.0
C55 C 0.51749 0.14647 0.48251 0.0
C56 C 0.49071 0.1249 0.46895 0.0
C57 C 0.48504 0.095 0.46409 0.0
C58 C 0.53044 0.02007 0.5151 0.0
C59 C 0.61786 0.08239 0.48812 0.0
O60 O 0.61408 0.9939 0.49117 0.0
O61 O 0.57921 0.98576 0.51396 0.0
O62 O 0.60483 0.02131 0.46612 0.0
O63 O 0.54646 0.00213 0.46732 0.0
O64 O 0.51657 0.95879 0.49044 0.0
O65 O 0.48496 0.9735 0.47393 0.0
O66 O 0.48222 0.03264 0.48084 0.0
O67 O 0.52736 0.05543 0.46147 0.0
O68 O 0.49975 0.01292 0.50718 0.0
O69 O 0.55737 0.03245 0.50435 0.0
O70 O 0.58533 0.07376 0.48047 0.0
O71 O 0.61933 0.06018 0.496 0.0
H72 H 0.58601 0.93435 0.48 0.0
H73 H 0.57409 0.88064 0.48311 0.0
H74 H 0.58503 0.8975 0.53963 0.0
H75 H 0.59714 0.95133 0.53649 0.0
H76 H 0.54993 0.10164 0.49272 0.0
H77 H 0.56037 0.15407 0.50108 0.0
H78 H 0.47338 0.13069 0.46242 0.0
H79 H 0.46373 0.07842 0.45387 0.0
La80 La 0.59919 0.55181 0.84248 0.0
La81 La 0.54545 0.47741 0.84611 0.0
C82 C 0.63093 0.60955 0.83166 0.0
C83 C 0.62056 0.63245 0.82942 0.0
C84 C 0.61872 0.64973 0.84393 0.0
C85 C 0.61101 0.67266 0.84146 0.0
C86 C 0.60491 0.67877 0.82444 0.0
C87 C 0.60612 0.66108 0.80996 0.0
C88 C 0.61405 0.63831 0.81243 0.0
C89 C 0.58815 0.53189 0.87481 0.0
C90 C 0.50668 0.5136 0.84585 0.0
C91 C 0.51294 0.41867 0.85565 0.0
C92 C 0.52062 0.39402 0.8531 0.0
C93 C 0.55182 0.40113 0.84294 0.0
C94 C 0.55784 0.37695 0.83988 0.0
C95 C 0.53262 0.34516 0.84687 0.0
C96 C 0.5017 0.33839 0.85725 0.0
C97 C 0.49579 0.36265 0.86034 0.0
C98 C 0.55668 0.49692 0.8136 0.0
C99 C 0.63859 0.51649 0.84469 0.0
O100 O 0.63502 0.60372 0.84777 0.0
O101 O 0.61264 0.58241 0.82132 0.0
O102 O 0.62077 0.55834 0.86958 0.0
O103 O 0.56312 0.51948 0.86258 0.0
O104 O 0.54082 0.54024 0.84068 0.0
O105 O 0.50299 0.487 0.85113 0.0
O106 O 0.5031 0.42581 0.8414 0.0
O107 O 0.53841 0.44553 0.86541 0.0
O108 O 0.52451 0.47048 0.81901 0.0
O109 O 0.58183 0.50964 0.82582 0.0
O110 O 0.60378 0.48925 0.84871 0.0
O111 O 0.64309 0.54351 0.83957 0.0
H112 H 0.62366 0.6459 0.85721 0.0
H113 H 0.60992 0.68568 0.85288 0.0
H114 H 0.60206 0.66555 0.79667 0.0
H115 H 0.61568 0.62562 0.80098 0.0
H116 H 0.57111 0.42517 0.83711 0.0
H117 H 0.58162 0.38286 0.83165 0.0
H118 H 0.48206 0.31433 0.86301 0.0
H119 H 0.47158 0.35678 0.86823 0.0
P120 P 0.618 0.01705 0.2105 0.0
H121 H 0.59358 0.952 0.19614 0.0
H122 H 0.53132 0.90229 0.18521 0.0
H123 H 0.483 0.9566 0.18878 0.0
H124 H 0.54566 0.00633 0.20026 0.0
H125 H 0.68742 0.05302 0.18916 0.0
H126 H 0.7269 0.1091 0.17823 0.0
H127 H 0.64213 0.12293 0.1963 0.0
H128 H 0.60331 0.06682 0.20782 0.0
H129 H 0.55512 0.97068 0.23395 0.0
H130 H 0.65809 0.07329 0.23655 0.0
O131 O 0.64845 0.00719 0.21204 0.0
H132 H 0.5447 0.97515 0.26514 0.0
H133 H 0.64737 0.07815 0.26772 0.0
C134 C 0.57438 0.98299 0.19893 0.0
C135 C 0.56991 0.95354 0.19425 0.0
C136 C 0.53414 0.92502 0.1879 0.0
C137 C 0.50195 0.92529 0.18613 0.0
C138 C 0.50701 0.95535 0.19017 0.0
C139 C 0.54293 0.98394 0.19655 0.0
C140 C 0.64266 0.05589 0.19951 0.0
C141 C 0.67701 0.06791 0.19059 0.0
C142 C 0.69952 0.10005 0.18421 0.0
C143 C 0.68799 0.12084 0.18648 0.0
C144 C 0.65232 0.10791 0.1946 0.0
C145 C 0.62985 0.07569 0.20104 0.0
C146 C 0.60688 0.02192 0.23276 0.0
C147 C 0.57492 0.99449 0.24108 0.0
C148 C 0.56892 0.99708 0.25896 0.0
C149 C 0.59513 0.02704 0.26894 0.0
C150 C 0.62677 0.05465 0.26045 0.0
C151 C 0.63272 0.05201 0.24257 0.0
P152 P 0.64395 0.56093 0.56846 0.0
H153 H 0.65551 0.5379 0.53508 0.0
H154 H 0.62925 0.48228 0.52249 0.0
H155 H 0.55143 0.43778 0.5661 0.0
H156 H 0.57836 0.49354 0.57874 0.0
H157 H 0.68779 0.63093 0.56025 0.0
H158 H 0.66892 0.66421 0.54921 0.0
H159 H 0.54913 0.57631 0.54571 0.0
H160 H 0.56844 0.54279 0.55661 0.0
H161 H 0.68371 0.55579 0.59733 0.0
H162 H 0.5868 0.55885 0.59105 0.0
O163 O 0.69144 0.58141 0.56531 0.0
H164 H 0.67337 0.55077 0.62902 0.0
H165 H 0.57663 0.55434 0.62274 0.0
C166 C 0.61946 0.51985 0.558 0.0
C167 C 0.63245 0.51613 0.54181 0.0
C168 C 0.61723 0.48427 0.53457 0.0
C169 C 0.58853 0.4555 0.54339 0.0
C170 C 0.57406 0.45941 0.55915 0.0
C171 C 0.58933 0.49132 0.56637 0.0
C172 C 0.62959 0.5843 0.559 0.0
C173 C 0.65754 0.61862 0.55684 0.0
C174 C 0.64673 0.63764 0.55051 0.0
C175 C 0.60758 0.62282 0.54649 0.0
C176 C 0.57951 0.58837 0.54871 0.0
C177 C 0.5905 0.56921 0.55484 0.0
C178 C 0.63656 0.55839 0.59187 0.0
C179 C 0.6605 0.55581 0.6028 0.0
C180 C 0.65463 0.55304 0.62093 0.0
C181 C 0.62437 0.55243 0.62844 0.0
C182 C 0.60009 0.55459 0.61737 0.0
C183 C 0.60608 0.55744 0.59923 0.0
P184 P 0.10536 0.56004 0.88524 0.0
H185 H 0.13618 0.55669 0.8513 0.0
H186 H 0.18182 0.54435 0.84395 0.0
H187 H 0.16779 0.50635 0.89555 0.0
H188 H 0.12272 0.51876 0.90279 0.0
H189 H 0.08375 0.6024 0.8762 0.0
H190 H 1.02256 0.59191 0.86911 0.0
H191 H 0.96474 0.48557 0.86791 0.0
H192 H 1.02731 0.49643 0.87487 0.0
H193 H 0.15296 0.60724 0.91473 0.0
H194 H 1.0459 0.50741 0.90781 0.0
O195 O 0.14027 0.60007 0.88129 0.0
H196 H 0.14558 0.60455 0.94656 0.0
H197 H 1.03805 0.50467 0.93976 0.0
C198 C 0.12549 0.53859 0.87758 0.0
C199 C 0.14173 0.5445 0.8608 0.0
C200 C 0.16819 0.53765 0.85665 0.0
C201 C 0.17932 0.52496 0.86928 0.0
C202 C 0.16075 0.51682 0.8856 0.0
C203 C 0.13429 0.52354 0.88969 0.0
C204 C 0.0607 0.55028 0.87579 0.0
C205 C 0.05833 0.57671 0.87399 0.0
C206 C 1.02292 0.57067 0.87016 0.0
C207 C 0.98833 0.53787 0.86817 0.0
C208 C 0.99076 0.51118 0.86929 0.0
C209 C 1.02658 0.51734 0.87321 0.0
C210 C 0.09962 0.55774 0.90883 0.0
C211 C 0.12764 0.5848 0.92002 0.0
C212 C 0.12334 0.58328 0.93827 0.0
C213 C 0.09105 0.55451 0.94573 0.0
C214 C 0.06334 0.52716 0.93446 0.0
C215 C 0.0676 0.52879 0.91618 0.0
P216 P 0.09061 0.49148 0.43407 0.0
H217 H 0.16362 0.53051 0.45446 0.0
H218 H 0.20609 0.58879 0.46488 0.0
H219 H 0.11902 0.60058 0.44944 0.0
H220 H 0.07719 0.54219 0.4383 0.0
H221 H 0.06497 0.4277 0.44751 0.0
H222 H 1.00383 0.38118 0.45905 0.0
H223 H 0.95846 0.43761 0.4565 0.0
H224 H 1.01995 0.48406 0.44433 0.0
H225 H 0.13358 0.54426 0.40915 0.0
H226 H 1.02492 0.44507 0.40959 0.0
O227 O 0.11972 0.48009 0.43244 0.0
H228 H 0.12316 0.54689 0.37803 0.0
H229 H 1.01395 0.44775 0.37846 0.0
C230 C 0.11732 0.53202 0.44547 0.0
C231 C 0.1533 0.54541 0.45356 0.0
C232 C 0.17759 0.57888 0.45964 0.0
C233 C 0.16628 0.59971 0.4579 0.0
C234 C 0.12906 0.58554 0.45072 0.0
C235 C 0.10484 0.55201 0.44454 0.0
C236 C 0.04722 0.45954 0.44516 0.0
C237 C 1.04219 0.43041 0.44966 0.0
C238 C 1.00707 0.40373 0.45638 0.0
C239 C 0.97604 0.40552 0.45878 0.0
C240 C 0.98155 0.43519 0.45467 0.0
C241 C 1.01683 0.46194 0.44788 0.0
C242 C 0.0796 0.49482 0.41184 0.0
C243 C 0.10695 0.52337 0.40267 0.0
C244 C 0.10092 0.52487 0.38484 0.0
C245 C 0.06762 0.49759 0.37575 0.0
C246 C 1.04 0.46912 0.38505 0.0
C247 C 1.04607 0.46769 0.40292 0.0
P248 P 0.64209 0.05405 0.75937 0.0
H249 H 0.66301 0.0889 0.79373 0.0
H250 H 0.64255 0.11928 0.80937 0.0
H251 H 0.55715 0.08802 0.7681 0.0
H252 H 0.57715 0.05716 0.7528 0.0
H253 H 0.68845 0.03066 0.76493 0.0
H254 H 0.67367 0.97974 0.77655 0.0
H255 H 0.55518 0.94311 0.78484 0.0
H256 H 0.57043 0.99479 0.77336 0.0
H257 H 0.67099 0.09854 0.73041 0.0
H258 H 0.57847 0.99471 0.7384 0.0
O259 O 0.69032 0.08278 0.76023 0.0
H260 H 0.6506 0.09073 0.69963 0.0
H261 H 0.55723 0.98681 0.70767 0.0
C262 C 0.62208 0.07127 0.77199 0.0
C263 C 0.63949 0.0882 0.78821 0.0
C264 C 0.62794 0.10574 0.79706 0.0
C265 C 0.59861 0.10652 0.78985 0.0
C266 C 0.57971 0.08786 0.77406 0.0
C267 C 0.59132 0.07033 0.76522 0.0
C268 C 0.63067 0.01667 0.76852 0.0
C269 C 0.65939 0.01193 0.76943 0.0
C270 C 0.65094 0.98282 0.7761 0.0
C271 C 0.61336 0.95759 0.78172 0.0
C272 C 0.58438 0.96217 0.78059 0.0
C273 C 0.59308 0.99165 0.77412 0.0
C274 C 0.62682 0.04708 0.7366 0.0
C275 C 0.64635 0.07399 0.72551 0.0
C276 C 0.63437 0.06955 0.70794 0.0
C277 C 0.60224 0.03812 0.70115 0.0
C278 C 0.58243 0.01121 0.7124 0.0
C279 C 0.59452 0.01572 0.73001 0.0
P280 P 0.44784 0.34792 0.09972 0.0
H281 H 0.44081 0.30105 0.12415 0.0
H282 H 0.48865 0.30468 0.14336 0.0
H283 H 0.57974 0.39824 0.12103 0.0
H284 H 0.5322 0.39412 0.10185 0.0
H285 H 0.39847 0.34629 0.12708 0.0
H286 H 0.39895 0.39058 0.14224 0.0
H287 H 0.5006 0.46472 0.1136 0.0
H288 H 0.49943 0.42046 0.09832 0.0
H289 H 0.50317 0.35107 0.0749 0.0
H290 H 0.41748 0.36916 0.07475 0.0
O291 O 0.4039 0.31117 0.1003 0.0
H292 H 0.52468 0.37488 0.04599 0.0
H293 H 0.43773 0.39176 0.04563 0.0
C294 C 0.48314 0.34687 0.11125 0.0
C295 C 0.47125 0.32183 0.12308 0.0
C296 C 0.49852 0.3241 0.13417 0.0
C297 C 0.53801 0.35161 0.13363 0.0
C298 C 0.54972 0.3763 0.12151 0.0
C299 C 0.52252 0.37402 0.11051 0.0
C300 C 0.4482 0.38007 0.11124 0.0
C301 C 0.42075 0.37208 0.12407 0.0
C302 C 0.42139 0.39744 0.13287 0.0
C303 C 0.44972 0.43113 0.12902 0.0
C304 C 0.47809 0.43899 0.11666 0.0
C305 C 0.4774 0.41369 0.1079 0.0
C306 C 0.45955 0.35936 0.07719 0.0
C307 C 0.48877 0.35992 0.06861 0.0
C308 C 0.50084 0.37329 0.052 0.0
C309 C 0.48348 0.3859 0.04367 0.0
C310 C 0.45248 0.38318 0.05189 0.0
C311 C 0.44062 0.36997 0.06847 0.0
C312 C 0.29256 0.5517 0.16457 0.0
C313 C 0.28523 0.55551 0.14723 0.0
C314 C 0.32433 0.55205 0.16846 0.0
C315 C 0.41279 0.56576 0.14993 0.0
H316 H 0.37045 0.48063 0.16996 0.0
C317 C 0.45193 0.4815 0.1259 0.0
C318 C 0.44773 0.45764 0.13675 0.0
C319 C 0.44492 0.50374 0.13236 0.0
C320 C 0.38352 0.50499 0.16482 0.0
H321 H 0.3075 0.56608 0.1208 0.0
H322 H 0.36252 0.56606 0.12748 0.0
H323 H 0.33484 0.50355 0.17223 0.0
H324 H 0.43603 0.44012 0.16326 0.0
H325 H 0.42394 0.47927 0.17466 0.0
H326 H 0.4606 0.56622 0.14173 0.0
C327 C 0.34393 0.56297 0.13811 0.0
C328 C 0.36295 0.51818 0.16612 0.0
C329 C 0.31212 0.56255 0.13421 0.0
C330 C 0.43878 0.45788 0.15453 0.0
C331 C 0.43197 0.48033 0.16104 0.0
C332 C 0.43356 0.55268 0.14874 0.0
C333 C 0.34937 0.55625 0.1551 0.0
C334 C 0.37637 0.5478 0.15789 0.0
C335 C 0.43364 0.50274 0.14986 0.0
C336 C 0.41806 0.52123 0.15534 0.0
H337 H 0.27232 0.54613 0.1749 0.0
H338 H 0.32804 0.54712 0.18171 0.0
H339 H 0.42413 0.58896 0.14374 0.0
H340 H 0.45839 0.48173 0.11209 0.0
H341 H 0.44583 0.52015 0.12324 0.0
C342 C 0.68838 0.12814 0.49557 0.0
C343 C 0.65313 0.11765 0.48765 0.0
C344 C 0.72209 0.16095 0.49407 0.0
C345 C 0.76581 0.23173 0.46519 0.0
H346 H 0.83909 0.28291 0.50406 0.0
C347 C 0.90283 0.36683 0.45699 0.0
C348 C 0.93768 0.37576 0.46461 0.0
C349 C 0.8671 0.33712 0.46116 0.0
C350 C 0.81913 0.26886 0.49301 0.0
H351 H 0.62555 0.13388 0.47234 0.0
H352 H 0.68419 0.19084 0.46974 0.0
H353 H 0.77896 0.22745 0.5088 0.0
H354 H 0.96178 0.36105 0.48335 0.0
H355 H 0.89987 0.3089 0.49016 0.0
H356 H 0.80611 0.27248 0.44925 0.0
C357 C 0.68589 0.17363 0.47696 0.0
C358 C 0.78463 0.23708 0.49576 0.0
C359 C 0.6522 0.14096 0.47854 0.0
C360 C 0.93565 0.35476 0.47699 0.0
C361 C 0.89997 0.32497 0.48108 0.0
C362 C 0.80036 0.26335 0.46241 0.0
C363 C 0.72135 0.18393 0.48452 0.0
C364 C 0.75762 0.2181 0.48186 0.0
C365 C 0.86524 0.31543 0.47299 0.0
C366 C 0.82761 0.28235 0.47626 0.0
H367 H 0.69016 0.11087 0.50268 0.0
H368 H 0.74901 0.16802 0.49994 0.0
H369 H 0.74592 0.21755 0.45413 0.0
H370 H 0.90317 0.38218 0.4473 0.0
H371 H 0.84094 0.33095 0.4549 0.0
C372 C 0.57085 0.69853 0.80952 0.0
C373 C 0.59894 0.70451 0.82172 0.0
C374 C 0.56658 0.72341 0.80643 0.0
C375 C 0.59318 0.80503 0.82479 0.0
H376 H 0.5779 0.81712 0.77645 0.0
C377 C 0.63016 0.92825 0.80065 0.0
C378 C 0.60474 0.92649 0.7884 0.0
C379 C 0.62407 0.89915 0.80591 0.0
C380 C 0.58157 0.81377 0.79005 0.0
H381 H 0.64461 0.74134 0.84019 0.0
H382 H 0.63768 0.78484 0.83464 0.0
H383 H 0.57758 0.77003 0.78328 0.0
H384 H 0.55256 0.8929 0.77231 0.0
H385 H 0.54201 0.84183 0.78143 0.0
H386 H 0.59858 0.84959 0.83139 0.0
C387 C 0.61823 0.7607 0.82774 0.0
C388 C 0.58134 0.78672 0.79399 0.0
C389 C 0.6223 0.73577 0.83091 0.0
C390 C 0.57248 0.89495 0.78185 0.0
C391 C 0.56664 0.8658 0.78696 0.0
C392 C 0.59373 0.83223 0.82082 0.0
C393 C 0.59049 0.75496 0.81537 0.0
C394 C 0.58771 0.78226 0.81138 0.0
C395 C 0.59264 0.86764 0.7989 0.0
C396 C 0.58846 0.83714 0.80337 0.0
H397 H 0.55209 0.67454 0.80239 0.0
H398 H 0.54449 0.71788 0.79703 0.0
H399 H 0.59735 0.80203 0.83837 0.0
H400 H 0.6551 0.95223 0.806 0.0
H401 H 0.64479 0.90142 0.81502 0.0
C402 C 0.83224 0.48455 0.21721 0.0
C403 C 0.84809 0.46817 0.21159 0.0
C404 C 0.79209 0.46756 0.21665 0.0
C405 C 0.69657 0.38548 0.2047 0.0
H406 H 0.68553 0.44073 0.17541 0.0
C407 C 0.60463 0.36957 0.14084 0.0
C408 C 0.56691 0.35619 0.14634 0.0
C409 C 0.63383 0.37932 0.15313 0.0
C410 C 0.68803 0.42517 0.18379 0.0
H411 H 0.83418 0.42002 0.20361 0.0
H412 H 0.76434 0.39078 0.20192 0.0
H413 H 0.74543 0.46587 0.19218 0.0
H414 H 0.52962 0.34045 0.16897 0.0
H415 H 0.58106 0.35694 0.19051 0.0
H416 H 0.63928 0.34438 0.19522 0.0
C417 C 0.7827 0.41664 0.20681 0.0
C418 C 0.72216 0.43957 0.19357 0.0
C419 C 0.82283 0.43354 0.20753 0.0
C420 C 0.55836 0.3505 0.16431 0.0
C421 C 0.58767 0.36001 0.17664 0.0
C422 C 0.66205 0.37106 0.19494 0.0
C423 C 0.76714 0.43405 0.21027 0.0
C424 C 0.72747 0.41973 0.20364 0.0
C425 C 0.62581 0.37549 0.17113 0.0
C426 C 0.65834 0.39071 0.18393 0.0
H427 H 0.85079 0.51116 0.22052 0.0
H428 H 0.78083 0.48144 0.2198 0.0
H429 H 0.69977 0.36962 0.21241 0.0
H430 H 0.61193 0.3736 0.12707 0.0
H431 H 0.66309 0.39091 0.14864 0.0
C432 C 0.44832 0.89081 0.48982 0.0
C433 C 0.45075 0.91499 0.47991 0.0
C434 C 0.4157 0.85723 0.48819 0.0
C435 C 0.33567 0.79587 0.45761 0.0
H436 H 0.28795 0.74414 0.49899 0.0
C437 C 0.1967 0.65956 0.45151 0.0
C438 C 0.19445 0.63639 0.46228 0.0
C439 C 0.22568 0.69393 0.45447 0.0
C440 C 0.30114 0.75807 0.48727 0.0
H441 H 0.42071 0.9227 0.46046 0.0
H442 H 0.36404 0.86406 0.4575 0.0
H443 H 0.3436 0.8031 0.50239 0.0
H444 H 0.2201 0.63167 0.4852 0.0
H445 H 0.27137 0.6913 0.48994 0.0
H446 H 0.29415 0.75089 0.44242 0.0
C447 C 0.38741 0.87113 0.46653 0.0
C448 C 0.33301 0.7919 0.48924 0.0
C449 C 0.41983 0.90477 0.4683 0.0
C450 C 0.22123 0.64865 0.47645 0.0
C451 C 0.25043 0.68301 0.47932 0.0
C452 C 0.30406 0.76199 0.45562 0.0
C453 C 0.38495 0.84698 0.47647 0.0
C454 C 0.35068 0.81116 0.47443 0.0
C455 C 0.25347 0.70612 0.46818 0.0
C456 C 0.28636 0.74256 0.47042 0.0
H457 H 0.47157 0.8978 0.49891 0.0
H458 H 0.41485 0.83917 0.49589 0.0
H459 H 0.34897 0.80991 0.44593 0.0
H460 H 0.17693 0.65119 0.44035 0.0
H461 H 0.22656 0.71092 0.44582 0.0
C462 C 0.50567 0.28571 0.83868 0.0
C463 C 0.53791 0.31891 0.8429 0.0
C464 C 0.51067 0.26123 0.83431 0.0
C465 C 0.58052 0.24194 0.83789 0.0
H466 H 0.52226 0.18091 0.79776 0.0
C467 C 0.61991 0.16098 0.80456 0.0
C468 C 0.58965 0.12848 0.7981 0.0
C469 C 0.61207 0.18261 0.81128 0.0
C470 C 0.53832 0.19738 0.80917 0.0
H471 H 0.60065 0.3522 0.84622 0.0
H472 H 0.60942 0.30958 0.83836 0.0
H473 H 0.51156 0.2217 0.80713 0.0
H474 H 0.52721 0.09292 0.79415 0.0
H475 H 0.51343 0.13065 0.80598 0.0
H476 H 0.6075 0.21779 0.83986 0.0
C477 C 0.58022 0.30243 0.83856 0.0
C478 C 0.53222 0.22082 0.81453 0.0
C479 C 0.57524 0.32694 0.84287 0.0
C480 C 0.55122 0.11793 0.79882 0.0
C481 C 0.54335 0.13957 0.80558 0.0
C482 C 0.58657 0.21845 0.83256 0.0
C483 C 0.54802 0.26933 0.8341 0.0
C484 C 0.55347 0.24356 0.82887 0.0
C485 C 0.57373 0.1723 0.81173 0.0
C486 C 0.56579 0.19607 0.81803 0.0
H487 H 0.47655 0.27874 0.8384 0.0
H488 H 0.48522 0.23591 0.83111 0.0
H489 H 0.59692 0.25874 0.84916 0.0
H490 H 0.64991 0.17017 0.8039 0.0
H491 H 0.63624 0.20779 0.81561 0.0
C492 C 0.55028 0.83105 0.52645 0.0
C493 C 0.57422 0.85338 0.5135 0.0
C494 C 0.54781 0.80236 0.52882 0.0
C495 C 0.57164 0.74839 0.50768 0.0
H496 H 0.57051 0.72479 0.55568 0.0
C497 C 0.61796 0.66736 0.52779 0.0
C498 C 0.59639 0.64381 0.54062 0.0
C499 C 0.6098 0.68927 0.52335 0.0
C500 C 0.57023 0.73073 0.54219 0.0
H501 H 0.61425 0.86307 0.49287 0.0
H502 H 0.61064 0.81357 0.4972 0.0
H503 H 0.56667 0.7701 0.55015 0.0
H504 H 0.54878 0.62422 0.5586 0.0
H505 H 0.53459 0.66272 0.55091 0.0
H506 H 0.5767 0.70969 0.49985 0.0
C507 C 0.59294 0.81761 0.50527 0.0
C508 C 0.56795 0.75671 0.53899 0.0
C509 C 0.59513 0.84611 0.5028 0.0
C510 C 0.56573 0.64198 0.54859 0.0
C511 C 0.55783 0.66418 0.54429 0.0
C512 C 0.57428 0.72261 0.51091 0.0
C513 C 0.56951 0.79547 0.51842 0.0
C514 C 0.56911 0.76619 0.5217 0.0
C515 C 0.58011 0.68834 0.53178 0.0
C516 C 0.57406 0.71376 0.52821 0.0
H517 H 0.53344 0.83577 0.53475 0.0
H518 H 0.52891 0.78561 0.53886 0.0
H519 H 0.57181 0.75448 0.49418 0.0
H520 H 0.64158 0.66917 0.52135 0.0
H521 H 0.62767 0.70775 0.51376 0.0
C522 C 0.70993 0.54391 0.84029 0.0
C523 C 0.67331 0.5166 0.84587 0.0
C524 C 0.74282 0.54465 0.84197 0.0
C525 C 0.77446 0.49088 0.85038 0.0
H526 H 0.87323 0.57662 0.86146 0.0
C527 C 0.92144 0.5081 0.85358 0.0
C528 C 0.95021 0.53231 0.86582 0.0
C529 C 0.887 0.50485 0.85087 0.0
C530 C 0.84593 0.55231 0.85855 0.0
H531 H 0.64298 0.46836 0.85751 0.0
H532 H 0.70021 0.46993 0.86077 0.0
H533 H 0.81542 0.57347 0.8576 0.0
H534 H 0.96377 0.57067 0.88551 0.0
H535 H 0.90424 0.5647 0.88109 0.0
H536 H 0.80505 0.46966 0.85193 0.0
C537 C 0.70355 0.49066 0.85478 0.0
C538 C 0.81258 0.55056 0.85603 0.0
C539 C 0.67057 0.48983 0.853 0.0
C540 C 0.94287 0.5523 0.87565 0.0
C541 C 0.90855 0.54892 0.87305 0.0
C542 C 0.80791 0.49262 0.85298 0.0
C543 C 0.74038 0.51822 0.84942 0.0
C544 C 0.77616 0.51984 0.85192 0.0
C545 C 0.88019 0.52554 0.86042 0.0
C546 C 0.84425 0.52337 0.8572 0.0
H547 H 0.71334 0.56492 0.83462 0.0
H548 H 0.77023 0.56605 0.8373 0.0
H549 H 0.74727 0.46674 0.84703 0.0
H550 H 0.92603 0.49233 0.84572 0.0
H551 H 0.8662 0.48665 0.84094 0.0
C552 C 0.17546 0.65699 0.17491 0.0
C553 C 0.17237 0.6315 0.16464 0.0
C554 C 0.21054 0.68924 0.17626 0.0
C555 C 0.3042 0.74688 0.15454 0.0
H556 H 0.33802 0.79256 0.20065 0.0
C557 C 0.45876 0.86994 0.16903 0.0
C558 C 0.46286 0.89365 0.18136 0.0
C559 C 0.42272 0.83876 0.16599 0.0
C560 C 0.32879 0.78045 0.18762 0.0
H561 H 0.20387 0.62015 0.14757 0.0
H562 H 0.26519 0.67653 0.14997 0.0
H563 H 0.27683 0.73663 0.19736 0.0
H564 H 0.43166 0.90325 0.19976 0.0
H565 H 0.36874 0.84947 0.19404 0.0
H566 H 0.35622 0.79079 0.14479 0.0
C567 C 0.24029 0.67153 0.15688 0.0
C568 C 0.2937 0.74828 0.18575 0.0
C569 C 0.20517 0.63917 0.15558 0.0
C570 C 0.42964 0.88582 0.19006 0.0
C571 C 0.39359 0.8547 0.18697 0.0
C572 C 0.33931 0.77917 0.15639 0.0
C573 C 0.24343 0.69689 0.16733 0.0
C574 C 0.28094 0.7311 0.1692 0.0
C575 C 0.38979 0.8305 0.17515 0.0
C576 C 0.35205 0.79639 0.17297 0.0
H577 H 0.15081 0.65209 0.18203 0.0
H578 H 0.21181 0.70829 0.18423 0.0
H579 H 0.29498 0.73446 0.14157 0.0
H580 H 0.4836 0.87526 0.16191 0.0
H581 H 0.42102 0.82074 0.15686 0.0
C582 C 0.52334 0.19814 0.47609 0.0
C583 C 0.52233 0.17748 0.48836 0.0
C584 C 0.52857 0.22755 0.48172 0.0
C585 C 0.56602 0.28867 0.51974 0.0
H586 H 0.50908 0.31584 0.49774 0.0
C587 C 0.57131 0.39904 0.54867 0.0
C588 C 0.57592 0.42188 0.53682 0.0
C589 C 0.56268 0.36857 0.54254 0.0
C590 C 0.52545 0.30874 0.50391 0.0
H591 H 0.52461 0.17099 0.51621 0.0
H592 H 0.5336 0.22204 0.526 0.0
H593 H 0.49837 0.26409 0.48735 0.0
H594 H 0.57361 0.42988 0.50922 0.0
H595 H 0.55901 0.37678 0.4985 0.0
H596 H 0.59314 0.3332 0.53627 0.0
C597 C 0.53123 0.21598 0.512 0.0
C598 C 0.51935 0.2791 0.49795 0.0
C599 C 0.52608 0.18667 0.50638 0.0
C600 C 0.57064 0.41302 0.5187 0.0
C601 C 0.56191 0.38245 0.51256 0.0
C602 C 0.57206 0.3182 0.5257 0.0
C603 C 0.53283 0.23694 0.49975 0.0
C604 C 0.53947 0.26864 0.50584 0.0
C605 C 0.55843 0.36008 0.52441 0.0
C606 C 0.55176 0.32856 0.51793 0.0
H607 H 0.5209 0.19194 0.46211 0.0
H608 H 0.5301 0.24329 0.47192 0.0
H609 H 0.58262 0.28177 0.52589 0.0
H610 H 0.57559 0.40514 0.5627 0.0
H611 H 0.55965 0.35172 0.55205 0.0
C612 C 0.47725 0.54443 0.84469 0.0
C613 C 0.47273 0.5146 0.84702 0.0
C614 C 0.44558 0.54552 0.84636 0.0
C615 C 0.33715 0.49177 0.84562 0.0
H616 H 0.35237 0.56764 0.87091 0.0
C617 C 0.21669 0.5115 0.84964 0.0
C618 C 0.2121 0.52267 0.86608 0.0
C619 C 0.24805 0.51024 0.84678 0.0
C620 C 0.34747 0.54616 0.86385 0.0
H621 H 0.43064 0.46234 0.85271 0.0
H622 H 0.37562 0.4642 0.85547 0.0
H623 H 0.40726 0.56589 0.86693 0.0
H624 H 0.23795 0.5419 0.89224 0.0
H625 H 0.29209 0.5396 0.88729 0.0
H626 H 0.27724 0.47195 0.84265 0.0
C627 C 0.40368 0.48681 0.85231 0.0
C628 C 0.37916 0.54532 0.86141 0.0
C629 C 0.43542 0.4858 0.85082 0.0
C630 C 0.23999 0.53267 0.87949 0.0
C631 C 0.27146 0.53175 0.87657 0.0
C632 C 0.30551 0.49278 0.84789 0.0
C633 C 0.40827 0.51674 0.85022 0.0
C634 C 0.3745 0.51801 0.85236 0.0
C635 C 0.27609 0.52057 0.86018 0.0
C636 C 0.31009 0.51987 0.85718 0.0
H637 H 0.50543 0.56716 0.84175 0.0
H638 H 0.4503 0.56896 0.84446 0.0
H639 H 0.33237 0.47044 0.83844 0.0
H640 H 0.19586 0.5035 0.839 0.0
H641 H 0.25068 0.50168 0.83394 0.0
C642 C 0.95835 0.40599 0.14888 0.0
C643 C 0.96438 0.43158 0.16031 0.0
C644 C 0.92573 0.37272 0.15053 0.0
C645 C 0.85501 0.31675 0.18334 0.0
H646 H 0.79672 0.25639 0.14302 0.0
C647 C 0.71893 0.18191 0.19251 0.0
C648 C 0.71451 0.15648 0.18155 0.0
C649 C 0.74666 0.21559 0.18894 0.0
C650 C 0.8129 0.27282 0.15442 0.0
H651 H 0.94025 0.44215 0.18223 0.0
H652 H 0.8835 0.38443 0.18496 0.0
H653 H 0.85061 0.31485 0.13854 0.0
H654 H 0.73476 0.14682 0.15768 0.0
H655 H 0.78384 0.20546 0.15178 0.0
H656 H 0.81814 0.27487 0.19923 0.0
C657 C 0.90415 0.38998 0.17484 0.0
C658 C 0.84377 0.30635 0.15184 0.0
C659 C 0.93662 0.42318 0.17317 0.0
C660 C 0.73769 0.16568 0.16658 0.0
C661 C 0.76559 0.19939 0.16306 0.0
C662 C 0.82435 0.28327 0.18591 0.0
C663 C 0.89853 0.36427 0.1637 0.0
C664 C 0.86521 0.32871 0.16628 0.0
C665 C 0.77095 0.22484 0.17438 0.0
C666 C 0.80285 0.26079 0.1715 0.0
H667 H 0.97914 0.41154 0.13884 0.0
H668 H 0.92244 0.35349 0.14182 0.0
H669 H 0.87134 0.33312 0.19474 0.0
H670 H 0.70195 0.17592 0.20425 0.0
H671 H 0.7494 0.23443 0.19778 0.0
C672 C 0.0676 0.57634 0.10648 0.0
C673 C 0.05739 0.54832 0.11545 0.0
C674 C 0.07145 0.57694 0.08817 0.0
C675 C 1.04162 0.52139 0.04818 0.0
H676 H 0.12712 0.60189 0.02694 0.0
C677 C 0.07413 0.52436 0.97393 0.0
C678 C 0.08643 0.55323 0.96518 0.0
C679 C 0.07057 0.52353 0.99225 0.0
C680 C 0.10277 0.57931 0.03262 0.0
H681 H 1.04334 0.49901 0.11238 0.0
H682 H 0.05013 0.50004 0.08047 0.0
H683 H 0.12103 0.60108 0.05883 0.0
H684 H 0.1036 0.60358 0.96882 0.0
H685 H 0.09704 0.60207 1.00066 0.0
H686 H 1.02315 0.49967 0.02198 0.0
C687 C 0.05482 0.52144 0.0875 0.0
C688 C 0.09932 0.57886 0.05093 0.0
C689 C 0.05114 0.52092 0.1058 0.0
C690 C 0.09469 0.58113 0.97517 0.0
C691 C 0.09099 0.58028 0.99346 0.0
C692 C 1.04498 0.52187 0.02986 0.0
C693 C 0.06498 0.54944 0.07845 0.0
C694 C 0.0687 0.5499 0.05895 0.0
C695 C 0.07905 0.55153 0.00227 0.0
C696 C 0.07558 0.55086 0.02182 0.0
H697 H 0.07258 0.5978 0.1136 0.0
H698 H 0.07892 0.59876 0.0816 0.0
H699 H 1.01737 0.49881 0.05391 0.0
H700 H 0.068 0.50258 0.96666 0.0
H701 H 0.06183 0.50113 0.99859 0.0
C702 C 0.60972 0.03442 0.4292 0.0
C703 C 0.57489 0.01869 0.43835 0.0
C704 C 0.60983 0.03609 0.41096 0.0
C705 C 0.55333 0.0287 0.37229 0.0
H706 H 0.6194 0.01212 0.34752 0.0
C707 C 0.55445 0.01314 0.29588 0.0
C708 C 0.59113 0.02861 0.28833 0.0
C709 C 0.55075 0.01261 0.31419 0.0
C710 C 0.60111 0.01716 0.35424 0.0
H711 H 0.51292 0.99332 0.43575 0.0
H712 H 0.51292 0.9958 0.40359 0.0
H713 H 0.61554 0.00954 0.37936 0.0
H714 H 0.6527 0.056 0.29418 0.0
H715 H 0.64631 0.05554 0.32598 0.0
H716 H 0.53883 0.0361 0.34694 0.0
C717 C 0.54023 0.00705 0.41059 0.0
C718 C 0.59889 0.01569 0.37251 0.0
C719 C 0.54016 0.00548 0.42896 0.0
C720 C 0.62406 0.04418 0.29951 0.0
C721 C 0.62035 0.04356 0.31776 0.0
C722 C 0.55547 0.03008 0.35391 0.0
C723 C 0.57504 0.02189 0.40137 0.0
C724 C 0.57545 0.02192 0.38181 0.0
C725 C 0.58362 0.02732 0.32532 0.0
C726 C 0.57984 0.02477 0.34473 0.0
H727 H 0.637 0.04521 0.43614 0.0
H728 H 0.63728 0.04843 0.40434 0.0
H729 H 0.53514 0.03378 0.37907 0.0
H730 H 0.52855 0.00118 0.28762 0.0
H731 H 0.52204 0.99982 0.31962 0.0
C732 C 0.53348 0.48955 0.78266 0.0
C733 C 0.56436 0.50595 0.79503 0.0
C734 C 0.54041 0.49639 0.76487 0.0
C735 C 0.61322 0.55773 0.73391 0.0
H736 H 0.55546 0.48194 0.70028 0.0
C737 C 0.64932 0.56659 0.6598 0.0
C738 C 0.61779 0.54896 0.6477 0.0
C739 C 0.64316 0.56266 0.67789 0.0
C740 C 0.5715 0.50344 0.70947 0.0
H741 H 0.62665 0.54284 0.79865 0.0
H742 H 0.63898 0.55465 0.76744 0.0
H743 H 0.54436 0.47303 0.73159 0.0
H744 H 0.55504 0.51341 0.64515 0.0
H745 H 0.54426 0.50689 0.67669 0.0
H746 H 0.64059 0.58806 0.71167 0.0
C747 C 0.6093 0.53674 0.77151 0.0
C748 C 0.56513 0.49834 0.72744 0.0
C749 C 0.60231 0.52992 0.78936 0.0
C750 C 0.57994 0.52757 0.65411 0.0
C751 C 0.5738 0.52356 0.67218 0.0
C752 C 0.61967 0.56282 0.71588 0.0
C753 C 0.57845 0.51971 0.75902 0.0
C754 C 0.58575 0.52542 0.7399 0.0
C755 C 0.60533 0.54091 0.68428 0.0
C756 C 0.59875 0.53573 0.70346 0.0
H757 H 0.50389 0.47115 0.78671 0.0
H758 H 0.51589 0.48332 0.75568 0.0
H759 H 0.62929 0.57918 0.74312 0.0
H760 H 0.67882 0.58353 0.6553 0.0
H761 H 0.6681 0.57619 0.68685 0.0
C762 C 0.50314 0.00441 0.54525 0.0
C763 C 0.53518 0.01915 0.53418 0.0
C764 C 0.50816 0.00456 0.56343 0.0
C765 C 0.58248 0.05129 0.5987 0.0
H766 H 0.51262 0.97323 0.62584 0.0
C767 C 0.59061 0.05868 0.67433 0.0
C768 C 0.58983 0.03361 0.68238 0.0
C769 C 0.58134 0.05555 0.65645 0.0
C770 C 0.53241 0.99518 0.61841 0.0
H771 H 0.59741 0.04516 0.53327 0.0
H772 H 0.60618 0.04542 0.56492 0.0
H773 H 0.50201 0.97 0.594 0.0
H774 H 0.57779 0.98519 0.67795 0.0
H775 H 0.56131 0.97964 0.64669 0.0
H776 H 0.61315 0.07643 0.62297 0.0
C777 C 0.57725 0.03399 0.55965 0.0
C778 C 0.52615 0.99341 0.60023 0.0
C779 C 0.5722 0.03367 0.54152 0.0
C780 C 0.57833 0.00482 0.67221 0.0
C781 C 0.56892 0.00163 0.6543 0.0
C782 C 0.58855 0.05313 0.61685 0.0
C783 C 0.54537 0.01969 0.57083 0.0
C784 C 0.55129 0.02142 0.59017 0.0
C785 C 0.57091 0.02722 0.64617 0.0
C786 C 0.56368 0.0251 0.62692 0.0
H787 H 0.47429 0.99301 0.53989 0.0
H788 H 0.48309 0.99354 0.57173 0.0
H789 H 0.6021 0.0734 0.59135 0.0
H790 H 0.59848 0.08083 0.68185 0.0
H791 H 0.58244 0.0754 0.65064 0.0
C792 C 0.61082 0.53111 0.90484 0.0
C793 C 0.58046 0.51867 0.8925 0.0
C794 C 0.60294 0.51806 0.92158 0.0
C795 C 0.57744 0.47025 0.95178 0.0
H796 H 0.48967 0.45594 0.97618 0.0
C797 C 0.50949 0.39058 0.01328 0.0
C798 C 0.49835 0.40296 0.02681 0.0
C799 C 0.5225 0.40644 0.9973 0.0
C800 C 0.51445 0.46001 0.96961 0.0
H801 H 0.51825 0.48299 0.88782 0.0
H802 H 0.50451 0.46038 0.91694 0.0
H803 H 0.50701 0.48088 0.9476 0.0
H804 H 0.49402 0.44271 0.03446 0.0
H805 H 0.51616 0.47 0.00659 0.0
H806 H 0.5847 0.44922 0.97388 0.0
C807 C 0.53431 0.48025 0.9138 0.0
C808 C 0.52415 0.47401 0.95317 0.0
C809 C 0.54221 0.49308 0.89711 0.0
C810 C 0.5014 0.43199 0.02416 0.0
C811 C 0.51423 0.44773 0.00822 0.0
C812 C 0.56752 0.45597 0.96822 0.0
C813 C 0.56453 0.49265 0.92624 0.0
C814 C 0.55557 0.47909 0.94403 0.0
C815 C 0.52452 0.43494 0.99455 0.0
C816 C 0.53584 0.45063 0.97727 0.0
H817 H 0.64058 0.5508 0.90155 0.0
H818 H 0.62675 0.52819 0.93095 0.0
H819 H 0.60166 0.47372 0.94497 0.0
H820 H 0.50727 0.36816 0.01486 0.0
H821 H 0.52992 0.39586 0.98694 0.0
C822 C 0.06557 0.48391 0.2145 0.0
C823 C 0.07824 0.51352 0.20654 0.0
C824 C 0.06179 0.48174 0.23273 0.0
C825 C 0.05342 0.52128 0.27286 0.0
H826 H 0.08836 0.47641 0.29629 0.0
C827 C 0.07376 0.52736 0.34864 0.0
C828 C 0.0632 0.4981 0.35641 0.0
C829 C 0.07275 0.52861 0.33033 0.0
C830 C 0.07797 0.48863 0.28994 0.0
H831 H 0.09708 0.56417 0.21128 0.0
H832 H 0.09082 0.56057 0.24326 0.0
H833 H 0.09267 0.48023 0.26448 0.0
H834 H 1.04252 0.44698 0.35098 0.0
H835 H 1.04008 0.44897 0.31912 0.0
H836 H 1.03914 0.52995 0.29847 0.0
C837 C 0.08318 0.53881 0.2354 0.0
C838 C 0.08046 0.49084 0.27169 0.0
C839 C 0.08689 0.54093 0.21711 0.0
C840 C 0.05051 0.46982 0.34547 0.0
C841 C 0.04958 0.47109 0.32718 0.0
C842 C 0.051 0.51912 0.29118 0.0
C843 C 0.07082 0.50922 0.24343 0.0
C844 C 0.06814 0.50711 0.2629 0.0
C845 C 0.06129 0.50065 0.31938 0.0
C846 C 0.06317 0.50269 0.29991 0.0
H847 H 0.05844 0.46232 0.20662 0.0
H848 H 0.05156 0.4584 0.23843 0.0
H849 H 1.04326 0.53365 0.26649 0.0
H850 H 0.08327 0.54947 0.35672 0.0
H851 H 0.08215 0.55182 0.32475 0.0
loop_
_geom_bond_atom_site_label_1
_geom_bond_atom_site_label_2
_geom_bond_distance
_geom_bond_site_symmetry_2
_ccdc_geom_bond_type
La0 C2 2.928 . S
La0 O20 2.521 . S
La0 O21 2.628 . S
La0 O22 2.554 . S
La0 O23 2.757 . S
La0 O24 2.470 . S
La0 O29 2.482 . S
La0 O31 2.503 1_455 S
La1 C11 2.928 . S
La1 O23 2.482 1_655 S
La1 O25 2.503 1_655 S
La1 O26 2.521 . S
La1 O27 2.628 . S
La1 O28 2.554 1_655 S
La1 O29 2.757 1_655 S
La1 O30 2.470 . S
C2 La0 2.928 . S
C2 C3 1.503 . S
C2 O20 1.261 . S
C2 O21 1.243 . S
C3 C2 1.503 . S
C3 C4 1.394 . S
C3 C8 1.373 . S
C4 C3 1.394 . S
C4 C5 1.380 . S
C4 H32 0.930 . S
C5 C4 1.380 . S
C5 C6 1.376 . S
C5 H33 0.930 . S
C6 C5 1.376 . S
C6 C7 1.370 . S
C7 C6 1.370 . S
C7 C8 1.396 . S
C7 H34 0.929 . S
C8 C3 1.373 . S
C8 C7 1.396 . S
C8 H35 0.929 . S
C9 O22 1.240 . S
C9 O23 1.289 . S
C10 O24 1.258 . S
C10 O25 1.256 . S
C11 La1 2.928 . S
C11 C12 1.503 . S
C11 O26 1.261 . S
C11 O27 1.243 . S
C12 C11 1.503 . S
C12 C13 1.394 . S
C12 C17 1.373 . S
C13 C12 1.394 . S
C13 C14 1.380 . S
C13 H36 0.930 . S
C14 C13 1.380 . S
C14 C15 1.376 . S
C14 H37 0.930 . S
C15 C14 1.376 . S
C15 C16 1.370 . S
C16 C15 1.370 . S
C16 C17 1.396 . S
C16 H38 0.929 . S
C17 C12 1.373 . S
C17 C16 1.396 . S
C17 H39 0.929 . S
C18 O28 1.240 . S
C18 O29 1.289 . S
C19 O30 1.258 . S
C19 O31 1.256 . S
O20 La0 2.521 . S
O20 C2 1.261 . S
O21 La0 2.628 . S
O21 C2 1.243 . S
O22 La0 2.554 . S
O22 C9 1.240 . S
O23 La0 2.757 . S
O23 La1 2.482 1_455 S
O23 C9 1.289 . S
O24 La0 2.470 . S
O24 C10 1.258 . S
O25 La1 2.503 1_455 S
O25 C10 1.256 . S
O26 La1 2.521 . S
O26 C11 1.261 . S
O27 La1 2.628 . S
O27 C11 1.243 . S
O28 La1 2.554 1_455 S
O28 C18 1.240 . S
O29 La0 2.482 . S
O29 La1 2.757 1_455 S
O29 C18 1.289 . S
O30 La1 2.470 . S
O30 C19 1.258 . S
O31 La0 2.503 1_655 S
O31 C19 1.256 . S
H32 C4 0.930 . S
H33 C5 0.930 . S
H34 C7 0.929 . S
H35 C8 0.929 . S
H36 C13 0.930 . S
H37 C14 0.930 . S
H38 C16 0.929 . S
H39 C17 0.929 . S
La40 C42 2.928 . S
La40 O60 2.521 . S
La40 O61 2.628 . S
La40 O62 2.554 . S
La40 O63 2.757 1_565 S
La40 O64 2.470 . S
La40 O69 2.467 1_565 S
La40 O71 2.503 1_565 S
La41 C51 2.928 . S
La41 O63 2.482 . S
La41 O65 2.503 1_545 S
La41 O66 2.521 . S
La41 O67 2.628 . S
La41 O68 2.554 . S
La41 O69 2.781 . S
La41 O70 2.470 . S
C42 La40 2.928 . S
C42 C43 1.503 . S
C42 O60 1.261 . S
C42 O61 1.243 . S
C43 C42 1.503 . S
C43 C44 1.394 . S
C43 C48 1.373 . S
C44 C43 1.394 . S
C44 C45 1.380 . S
C44 H72 0.930 . S
C45 C44 1.380 . S
C45 C46 1.376 . S
C45 H73 0.930 . S
C46 C45 1.376 . S
C46 C47 1.370 . S
C47 C46 1.370 . S
C47 C48 1.396 . S
C47 H74 0.929 . S
C48 C43 1.373 . S
C48 C47 1.396 . S
C48 H75 0.929 . S
C49 O62 1.240 1_545 S
C49 O63 1.289 . S
C50 O64 1.258 . S
C50 O65 1.256 . S
C51 La41 2.928 . S
C51 C52 1.503 . S
C51 O66 1.261 . S
C51 O67 1.243 . S
C52 C51 1.503 . S
C52 C53 1.394 . S
C52 C57 1.373 . S
C53 C52 1.394 . S
C53 C54 1.380 . S
C53 H76 0.930 . S
C54 C53 1.380 . S
C54 C55 1.376 . S
C54 H77 0.930 . S
C55 C54 1.376 . S
C55 C56 1.370 . S
C56 C55 1.370 . S
C56 C57 1.396 . S
C56 H78 0.929 . S
C57 C52 1.373 . S
C57 C56 1.396 . S
C57 H79 0.929 . S
C58 O68 1.240 . S
C58 O69 1.304 . S
C59 O70 1.258 . S
C59 O71 1.256 . S
O60 La40 2.521 . S
O60 C42 1.261 . S
O61 La40 2.628 . S
O61 C42 1.243 . S
O62 La40 2.554 . S
O62 C49 1.240 1_565 S
O63 La40 2.757 1_545 S
O63 La41 2.482 . S
O63 C49 1.289 . S
O64 La40 2.470 . S
O64 C50 1.258 . S
O65 La41 2.503 1_565 S
O65 C50 1.256 . S
O66 La41 2.521 . S
O66 C51 1.261 . S
O67 La41 2.628 . S
O67 C51 1.243 . S
O68 La41 2.554 . S
O68 C58 1.240 . S
O69 La40 2.467 1_545 S
O69 La41 2.781 . S
O69 C58 1.304 . S
O70 La41 2.470 . S
O70 C59 1.258 . S
O71 La40 2.503 1_545 S
O71 C59 1.256 . S
H72 C44 0.930 . S
H73 C45 0.930 . S
H74 C47 0.929 . S
H75 C48 0.929 . S
H76 C53 0.930 . S
H77 C54 0.930 . S
H78 C56 0.929 . S
H79 C57 0.929 . S
La80 C82 2.928 . S
La80 O100 2.521 . S
La80 O101 2.628 . S
La80 O102 2.554 . S
La80 O103 2.757 . S
La80 O104 2.470 . S
La80 O109 2.482 . S
La80 O111 2.503 . S
La81 C91 2.928 . S
La81 O103 2.482 . S
La81 O105 2.503 . S
La81 O106 2.521 . S
La81 O107 2.628 . S
La81 O108 2.554 . S
La81 O109 2.757 . S
La81 O110 2.470 . S
C82 La80 2.928 . S
C82 C83 1.503 . S
C82 O100 1.261 . S
C82 O101 1.243 . S
C83 C82 1.503 . S
C83 C84 1.394 . S
C83 C88 1.373 . S
C84 C83 1.394 . S
C84 C85 1.380 . S
C84 H112 0.930 . S
C85 C84 1.380 . S
C85 C86 1.376 . S
C85 H113 0.930 . S
C86 C85 1.376 . S
C86 C87 1.370 . S
C87 C86 1.370 . S
C87 C88 1.396 . S
C87 H114 0.929 . S
C88 C83 1.373 . S
C88 C87 1.396 . S
C88 H115 0.929 . S
C89 O102 1.240 . S
C89 O103 1.289 . S
C90 O104 1.258 . S
C90 O105 1.256 . S
C91 La81 2.928 . S
C91 C92 1.503 . S
C91 O106 1.261 . S
C91 O107 1.243 . S
C92 C91 1.503 . S
C92 C93 1.394 . S
C92 C97 1.373 . S
C93 C92 1.394 . S
C93 C94 1.380 . S
C93 H116 0.930 . S
C94 C93 1.380 . S
C94 C95 1.376 . S
C94 H117 0.930 . S
C95 C94 1.376 . S
C95 C96 1.370 . S
C96 C95 1.370 . S
C96 C97 1.396 . S
C96 H118 0.929 . S
C97 C92 1.373 . S
C97 C96 1.396 . S
C97 H119 0.929 . S
C98 O108 1.240 . S
C98 O109 1.289 . S
C99 O110 1.258 . S
C99 O111 1.256 . S
O100 La80 2.521 . S
O100 C82 1.261 . S
O101 La80 2.628 . S
O101 C82 1.243 . S
O102 La80 2.554 . S
O102 C89 1.240 . S
O103 La80 2.757 . S
O103 La81 2.482 . S
O103 C89 1.289 . S
O104 La80 2.470 . S
O104 C90 1.258 . S
O105 La81 2.503 . S
O105 C90 1.256 . S
O106 La81 2.521 . S
O106 C91 1.261 . S
O107 La81 2.628 . S
O107 C91 1.243 . S
O108 La81 2.554 . S
O108 C98 1.240 . S
O109 La80 2.482 . S
O109 La81 2.757 . S
O109 C98 1.289 . S
O110 La81 2.470 . S
O110 C99 1.258 . S
O111 La80 2.503 . S
O111 C99 1.256 . S
H112 C84 0.930 . S
H113 C85 0.930 . S
H114 C87 0.929 . S
H115 C88 0.929 . S
H116 C93 0.930 . S
H117 C94 0.930 . S
H118 C96 0.929 . S
H119 C97 0.929 . S
P120 O131 1.455 1_545 S
P120 C134 1.809 1_545 S
P120 C140 1.833 . S
P120 C146 1.832 . S
H121 C135 0.941 . S
H122 C136 0.939 . S
H123 C138 0.940 . S
H124 C139 0.940 . S
H125 C141 0.939 . S
H126 C142 0.942 . S
H127 C144 0.940 . S
H128 C145 0.939 . S
H129 C147 0.941 . S
H130 C151 0.939 . S
O131 P120 1.455 1_565 S
H132 C148 0.939 . S
H133 C150 0.940 . S
C134 P120 1.809 1_565 S
C134 C135 1.389 . S
C134 C139 1.391 . S
C135 H121 0.941 . S
C135 C134 1.389 . S
C135 C136 1.397 . S
C136 H122 0.939 . S
C136 C135 1.397 . S
C136 C137 1.378 . S
C137 C136 1.378 . S
C137 C138 1.378 . S
C138 H123 0.940 . S
C138 C137 1.378 . S
C138 C139 1.396 . S
C139 H124 0.940 . S
C139 C134 1.391 . S
C139 C138 1.396 . S
C140 P120 1.833 . S
C140 C141 1.378 . S
C140 C145 1.400 . S
C141 H125 0.939 . S
C141 C140 1.378 . S
C141 C142 1.361 . S
C142 H126 0.942 . S
C142 C141 1.361 . S
C142 C143 1.369 . S
C143 C142 1.369 . S
C143 C144 1.404 . S
C144 H127 0.940 . S
C144 C143 1.404 . S
C144 C145 1.389 . S
C145 H128 0.939 . S
C145 C140 1.400 . S
C145 C144 1.389 . S
C146 P120 1.832 . S
C146 C147 1.391 1_545 S
C146 C151 1.391 . S
C147 H129 0.941 . S
C147 C146 1.391 1_565 S
C147 C148 1.396 . S
C148 H132 0.939 . S
C148 C147 1.396 . S
C148 C149 1.397 1_565 S
C149 C148 1.397 1_545 S
C149 C150 1.385 . S
C150 H133 0.940 . S
C150 C149 1.385 . S
C150 C151 1.388 . S
C151 H130 0.939 . S
C151 C146 1.391 . S
C151 C150 1.388 . S
P152 O163 1.490 . S
P152 C166 1.812 . S
P152 C172 1.803 . S
P152 C178 1.819 . S
H153 C167 0.941 . S
H154 C168 0.939 . S
H155 C170 0.940 . S
H156 C171 0.940 . S
H157 C173 0.939 . S
H158 C174 0.942 . S
H159 C176 0.940 . S
H160 C177 0.939 . S
H161 C179 0.941 . S
H162 C183 0.939 . S
O163 P152 1.490 . S
H164 C180 0.939 . S
H165 C182 0.940 . S
C166 P152 1.812 . S
C166 C167 1.389 . S
C166 C171 1.391 . S
C167 H153 0.941 . S
C167 C166 1.389 . S
C167 C168 1.397 . S
C168 H154 0.939 . S
C168 C167 1.397 . S
C168 C169 1.378 . S
C169 C168 1.378 . S
C169 C170 1.378 . S
C170 H155 0.940 . S
C170 C169 1.378 . S
C170 C171 1.396 . S
C171 H156 0.940 . S
C171 C166 1.391 . S
C171 C170 1.396 . S
C172 P152 1.803 . S
C172 C173 1.378 . S
C172 C177 1.400 . S
C173 H157 0.939 . S
C173 C172 1.378 . S
C173 C174 1.361 . S
C174 H158 0.942 . S
C174 C173 1.361 . S
C174 C175 1.369 . S
C175 C174 1.369 . S
C175 C176 1.404 . S
C176 H159 0.940 . S
C176 C175 1.404 . S
C176 C177 1.389 . S
C177 H160 0.939 . S
C177 C172 1.400 . S
C177 C176 1.389 . S
C178 P152 1.819 . S
C178 C179 1.391 . S
C178 C183 1.391 . S
C179 H161 0.941 . S
C179 C178 1.391 . S
C179 C180 1.396 . S
C180 H164 0.939 . S
C180 C179 1.396 . S
C180 C181 1.397 . S
C181 C180 1.397 . S
C181 C182 1.385 . S
C182 H165 0.940 . S
C182 C181 1.385 . S
C182 C183 1.388 . S
C183 H162 0.939 . S
C183 C178 1.391 . S
C183 C182 1.388 . S
P184 O195 1.490 . S
P184 C198 1.812 . S
P184 C204 1.803 . S
P184 C210 1.819 . S
H185 C199 0.941 . S
H186 C200 0.939 . S
H187 C202 0.940 . S
H188 C203 0.940 . S
H189 C205 0.939 . S
H190 C206 0.942 . S
H191 C208 0.940 . S
H192 C209 0.939 . S
H193 C211 0.941 . S
H194 C215 0.939 . S
O195 P184 1.490 . S
H196 C212 0.939 . S
H197 C214 0.940 1_655 S
C198 P184 1.812 . S
C198 C199 1.389 . S
C198 C203 1.391 . S
C199 H185 0.941 . S
C199 C198 1.389 . S
C199 C200 1.397 . S
C200 H186 0.939 . S
C200 C199 1.397 . S
C200 C201 1.378 . S
C201 C200 1.378 . S
C201 C202 1.378 . S
C202 H187 0.940 . S
C202 C201 1.378 . S
C202 C203 1.396 . S
C203 H188 0.940 . S
C203 C198 1.391 . S
C203 C202 1.396 . S
C204 P184 1.803 . S
C204 C205 1.378 . S
C204 C209 1.400 . S
C205 H189 0.939 . S
C205 C204 1.378 . S
C205 C206 1.361 1_455 S
C206 H190 0.942 . S
C206 C205 1.361 1_655 S
C206 C207 1.369 . S
C207 C206 1.369 . S
C207 C208 1.404 . S
C208 H191 0.940 . S
C208 C207 1.404 . S
C208 C209 1.389 1_655 S
C209 H192 0.939 . S
C209 C204 1.400 . S
C209 C208 1.389 1_455 S
C210 P184 1.819 . S
C210 C211 1.391 . S
C210 C215 1.391 . S
C211 H193 0.941 . S
C211 C210 1.391 . S
C211 C212 1.396 . S
C212 H196 0.939 . S
C212 C211 1.396 . S
C212 C213 1.397 . S
C213 C212 1.397 . S
C213 C214 1.385 . S
C214 H197 0.940 1_455 S
C214 C213 1.385 . S
C214 C215 1.388 . S
C215 H194 0.939 . S
C215 C210 1.391 . S
C215 C214 1.388 . S
P216 O227 1.490 . S
P216 C230 1.812 . S
P216 C236 1.803 1_455 S
P216 C242 1.819 . S
H217 C231 0.941 . S
H218 C232 0.939 . S
H219 C234 0.940 . S
H220 C235 0.940 . S
H221 C237 0.939 . S
H222 C238 0.942 . S
H223 C240 0.940 . S
H224 C241 0.939 . S
H225 C243 0.941 . S
H226 C247 0.939 . S
O227 P216 1.490 . S
H228 C244 0.939 . S
H229 C246 0.940 . S
C230 P216 1.812 . S
C230 C231 1.389 . S
C230 C235 1.391 . S
C231 H217 0.941 . S
C231 C230 1.389 . S
C231 C232 1.397 . S
C232 H218 0.939 . S
C232 C231 1.397 . S
C232 C233 1.378 . S
C233 C232 1.378 . S
C233 C234 1.378 . S
C234 H219 0.940 . S
C234 C233 1.378 . S
C234 C235 1.396 . S
C235 H220 0.940 . S
C235 C230 1.391 . S
C235 C234 1.396 . S
C236 P216 1.803 1_655 S
C236 C237 1.378 . S
C236 C241 1.400 . S
C237 H221 0.939 . S
C237 C236 1.378 . S
C237 C238 1.361 . S
C238 H222 0.942 . S
C238 C237 1.361 . S
C238 C239 1.369 . S
C239 C238 1.369 . S
C239 C240 1.404 . S
C240 H223 0.940 . S
C240 C239 1.404 . S
C240 C241 1.389 . S
C241 H224 0.939 . S
C241 C236 1.400 . S
C241 C240 1.389 . S
C242 P216 1.819 . S
C242 C243 1.391 . S
C242 C247 1.391 1_455 S
C243 H225 0.941 . S
C243 C242 1.391 . S
C243 C244 1.396 . S
C244 H228 0.939 . S
C244 C243 1.396 . S
C244 C245 1.397 . S
C245 C244 1.397 . S
C245 C246 1.385 1_455 S
C246 H229 0.940 . S
C246 C245 1.385 1_655 S
C246 C247 1.388 . S
C247 H226 0.939 . S
C247 C242 1.391 1_655 S
C247 C246 1.388 . S
P248 O259 1.490 . S
P248 C262 1.812 . S
P248 C268 1.803 1_545 S
P248 C274 1.819 . S
H249 C263 0.941 . S
H250 C264 0.939 . S
H251 C266 0.940 . S
H252 C267 0.940 . S
H253 C269 0.939 . S
H254 C270 0.942 . S
H255 C272 0.940 . S
H256 C273 0.939 . S
H257 C275 0.941 . S
H258 C279 0.939 . S
O259 P248 1.490 . S
H260 C276 0.939 . S
H261 C278 0.940 . S
C262 P248 1.812 . S
C262 C263 1.389 . S
C262 C267 1.391 . S
C263 H249 0.941 . S
C263 C262 1.389 . S
C263 C264 1.397 . S
C264 H250 0.939 . S
C264 C263 1.397 . S
C264 C265 1.378 . S
C265 C264 1.378 . S
C265 C266 1.378 . S
C266 H251 0.940 . S
C266 C265 1.378 . S
C266 C267 1.396 . S
C267 H252 0.940 . S
C267 C262 1.391 . S
C267 C266 1.396 . S
C268 P248 1.803 1_565 S
C268 C269 1.378 . S
C268 C273 1.400 . S
C269 H253 0.939 . S
C269 C268 1.378 . S
C269 C270 1.361 . S
C270 H254 0.942 . S
C270 C269 1.361 . S
C270 C271 1.369 . S
C271 C270 1.369 . S
C271 C272 1.404 . S
C272 H255 0.940 . S
C272 C271 1.404 . S
C272 C273 1.389 . S
C273 H256 0.939 . S
C273 C268 1.400 . S
C273 C272 1.389 . S
C274 P248 1.819 . S
C274 C275 1.391 . S
C274 C279 1.391 1_545 S
C275 H257 0.941 . S
C275 C274 1.391 . S
C275 C276 1.396 . S
C276 H260 0.939 . S
C276 C275 1.396 . S
C276 C277 1.397 . S
C277 C276 1.397 . S
C277 C278 1.385 1_545 S
C278 H261 0.940 . S
C278 C277 1.385 1_565 S
C278 C279 1.388 . S
C279 H258 0.939 . S
C279 C274 1.391 1_565 S
C279 C278 1.388 . S
P280 O291 1.490 . S
P280 C294 1.812 . S
P280 C300 1.803 . S
P280 C306 1.819 . S
H281 C295 0.941 . S
H282 C296 0.939 . S
H283 C298 0.940 . S
H284 C299 0.940 . S
H285 C301 0.939 . S
H286 C302 0.942 . S
H287 C304 0.940 . S
H288 C305 0.939 . S
H289 C307 0.941 . S
H290 C311 0.939 . S
O291 P280 1.490 . S
H292 C308 0.939 . S
H293 C310 0.940 . S
C294 P280 1.812 . S
C294 C295 1.389 . S
C294 C299 1.391 . S
C295 H281 0.941 . S
C295 C294 1.389 . S
C295 C296 1.397 . S
C296 H282 0.939 . S
C296 C295 1.397 . S
C296 C297 1.378 . S
C297 C296 1.378 . S
C297 C298 1.378 . S
C298 H283 0.940 . S
C298 C297 1.378 . S
C298 C299 1.396 . S
C299 H284 0.940 . S
C299 C294 1.391 . S
C299 C298 1.396 . S
C300 P280 1.803 . S
C300 C301 1.378 . S
C300 C305 1.400 . S
C301 H285 0.939 . S
C301 C300 1.378 . S
C301 C302 1.361 . S
C302 H286 0.942 . S
C302 C301 1.361 . S
C302 C303 1.369 . S
C303 C302 1.369 . S
C303 C304 1.404 . S
C304 H287 0.940 . S
C304 C303 1.404 . S
C304 C305 1.389 . S
C305 H288 0.939 . S
C305 C300 1.400 . S
C305 C304 1.389 . S
C306 P280 1.819 . S
C306 C307 1.391 . S
C306 C311 1.391 . S
C307 H289 0.941 . S
C307 C306 1.391 . S
C307 C308 1.396 . S
C308 H292 0.939 . S
C308 C307 1.396 . S
C308 C309 1.397 . S
C309 C308 1.397 . S
C309 C310 1.385 . S
C310 H293 0.940 . S
C310 C309 1.385 . S
C310 C311 1.388 . S
C311 H290 0.939 . S
C311 C306 1.391 . S
C311 C310 1.388 . S
C312 C313 1.349 . S
C312 C314 1.327 . S
C312 H337 0.950 . S
C313 C312 1.349 . S
C313 C329 1.349 . S
C314 C312 1.327 . S
C314 C333 1.429 . S
C314 H338 0.950 . S
C315 C332 1.574 . S
C315 C334 1.368 . S
C315 H339 0.949 . S
H316 C320 0.949 . S
C317 C318 1.349 . S
C317 C319 1.327 . S
C317 H340 0.950 . S
C318 C317 1.349 . S
C318 C330 1.349 . S
C319 C317 1.327 . S
C319 C335 1.429 . S
C319 H341 0.950 . S
C320 H316 0.949 . S
C320 C328 1.574 . S
C320 C336 1.368 . S
H321 C329 0.950 . S
H322 C327 0.950 . S
H323 C328 0.949 . S
H324 C330 0.950 . S
H325 C331 0.950 . S
H326 C332 0.949 . S
C327 H322 0.950 . S
C327 C329 1.327 . S
C327 C333 1.429 . S
C328 C320 1.574 . S
C328 H323 0.949 . S
C328 C334 1.368 . S
C329 C313 1.349 . S
C329 H321 0.950 . S
C329 C327 1.327 . S
C330 C318 1.349 . S
C330 H324 0.950 . S
C330 C331 1.327 . S
C331 H325 0.950 . S
C331 C330 1.327 . S
C331 C335 1.429 . S
C332 C315 1.574 . S
C332 H326 0.949 . S
C332 C336 1.368 . S
C333 C314 1.429 . S
C333 C327 1.429 . S
C333 C334 1.523 . S
C334 C315 1.368 . S
C334 C328 1.368 . S
C334 C333 1.523 . S
C335 C319 1.429 . S
C335 C331 1.429 . S
C335 C336 1.523 . S
C336 C320 1.368 . S
C336 C332 1.368 . S
C336 C335 1.523 . S
H337 C312 0.950 . S
H338 C314 0.950 . S
H339 C315 0.949 . S
H340 C317 0.950 . S
H341 C319 0.950 . S
C342 C343 1.349 . S
C342 C344 1.327 . S
C342 H367 0.950 . S
C343 C342 1.349 . S
C343 C359 1.349 . S
C344 C342 1.327 . S
C344 C363 1.429 . S
C344 H368 0.950 . S
C345 C362 1.574 . S
C345 C364 1.368 . S
C345 H369 0.949 . S
H346 C350 0.949 . S
C347 C348 1.349 . S
C347 C349 1.327 . S
C347 H370 0.950 . S
C348 C347 1.349 . S
C348 C360 1.349 . S
C349 C347 1.327 . S
C349 C365 1.429 . S
C349 H371 0.950 . S
C350 H346 0.949 . S
C350 C358 1.574 . S
C350 C366 1.368 . S
H351 C359 0.950 . S
H352 C357 0.950 . S
H353 C358 0.949 . S
H354 C360 0.950 . S
H355 C361 0.950 . S
H356 C362 0.949 . S
C357 H352 0.950 . S
C357 C359 1.327 . S
C357 C363 1.429 . S
C358 C350 1.574 . S
C358 H353 0.949 . S
C358 C364 1.368 . S
C359 C343 1.349 . S
C359 H351 0.950 . S
C359 C357 1.327 . S
C360 C348 1.349 . S
C360 H354 0.950 . S
C360 C361 1.327 . S
C361 H355 0.950 . S
C361 C360 1.327 . S
C361 C365 1.429 . S
C362 C345 1.574 . S
C362 H356 0.949 . S
C362 C366 1.368 . S
C363 C344 1.429 . S
C363 C357 1.429 . S
C363 C364 1.523 . S
C364 C345 1.368 . S
C364 C358 1.368 . S
C364 C363 1.523 . S
C365 C349 1.429 . S
C365 C361 1.429 . S
C365 C366 1.523 . S
C366 C350 1.368 . S
C366 C362 1.368 . S
C366 C365 1.523 . S
H367 C342 0.950 . S
H368 C344 0.950 . S
H369 C345 0.949 . S
H370 C347 0.950 . S
H371 C349 0.950 . S
C372 C373 1.349 . S
C372 C374 1.327 . S
C372 H397 0.950 . S
C373 C372 1.349 . S
C373 C389 1.349 . S
C374 C372 1.327 . S
C374 C393 1.429 . S
C374 H398 0.950 . S
C375 C392 1.574 . S
C375 C394 1.368 . S
C375 H399 0.949 . S
H376 C380 0.949 . S
C377 C378 1.349 . S
C377 C379 1.327 . S
C377 H400 0.950 . S
C378 C377 1.349 . S
C378 C390 1.349 . S
C379 C377 1.327 . S
C379 C395 1.429 . S
C379 H401 0.950 . S
C380 H376 0.949 . S
C380 C388 1.574 . S
C380 C396 1.368 . S
H381 C389 0.950 . S
H382 C387 0.950 . S
H383 C388 0.949 . S
H384 C390 0.950 . S
H385 C391 0.950 . S
H386 C392 0.949 . S
C387 H382 0.950 . S
C387 C389 1.327 . S
C387 C393 1.429 . S
C388 C380 1.574 . S
C388 H383 0.949 . S
C388 C394 1.368 . S
C389 C373 1.349 . S
C389 H381 0.950 . S
C389 C387 1.327 . S
C390 C378 1.349 . S
C390 H384 0.950 . S
C390 C391 1.327 . S
C391 H385 0.950 . S
C391 C390 1.327 . S
C391 C395 1.429 . S
C392 C375 1.574 . S
C392 H386 0.949 . S
C392 C396 1.368 . S
C393 C374 1.429 . S
C393 C387 1.429 . S
C393 C394 1.523 . S
C394 C375 1.368 . S
C394 C388 1.368 . S
C394 C393 1.523 . S
C395 C379 1.429 . S
C395 C391 1.429 . S
C395 C396 1.523 . S
C396 C380 1.368 . S
C396 C392 1.368 . S
C396 C395 1.523 . S
H397 C372 0.950 . S
H398 C374 0.950 . S
H399 C375 0.949 . S
H400 C377 0.950 . S
H401 C379 0.950 . S
C402 C403 1.349 . S
C402 C404 1.327 . S
C402 H427 0.950 . S
C403 C402 1.349 . S
C403 C419 1.349 . S
C404 C402 1.327 . S
C404 C423 1.429 . S
C404 H428 0.950 . S
C405 C422 1.574 . S
C405 C424 1.368 . S
C405 H429 0.949 . S
H406 C410 0.949 . S
C407 C408 1.349 . S
C407 C409 1.327 . S
C407 H430 0.950 . S
C408 C407 1.349 . S
C408 C420 1.349 . S
C409 C407 1.327 . S
C409 C425 1.429 . S
C409 H431 0.950 . S
C410 H406 0.949 . S
C410 C418 1.574 . S
C410 C426 1.368 . S
H411 C419 0.950 . S
H412 C417 0.950 . S
H413 C418 0.949 . S
H414 C420 0.950 . S
H415 C421 0.950 . S
H416 C422 0.949 . S
C417 H412 0.950 . S
C417 C419 1.327 . S
C417 C423 1.429 . S
C418 C410 1.574 . S
C418 H413 0.949 . S
C418 C424 1.368 . S
C419 C403 1.349 . S
C419 H411 0.950 . S
C419 C417 1.327 . S
C420 C408 1.349 . S
C420 H414 0.950 . S
C420 C421 1.327 . S
C421 H415 0.950 . S
C421 C420 1.327 . S
C421 C425 1.429 . S
C422 C405 1.574 . S
C422 H416 0.949 . S
C422 C426 1.368 . S
C423 C404 1.429 . S
C423 C417 1.429 . S
C423 C424 1.523 . S
C424 C405 1.368 . S
C424 C418 1.368 . S
C424 C423 1.523 . S
C425 C409 1.429 . S
C425 C421 1.429 . S
C425 C426 1.523 . S
C426 C410 1.368 . S
C426 C422 1.368 . S
C426 C425 1.523 . S
H427 C402 0.950 . S
H428 C404 0.950 . S
H429 C405 0.949 . S
H430 C407 0.950 . S
H431 C409 0.950 . S
C432 C433 1.349 . S
C432 C434 1.327 . S
C432 H457 0.950 . S
C433 C432 1.349 . S
C433 C449 1.349 . S
C434 C432 1.327 . S
C434 C453 1.429 . S
C434 H458 0.950 . S
C435 C452 1.574 . S
C435 C454 1.368 . S
C435 H459 0.949 . S
H436 C440 0.949 . S
C437 C438 1.349 . S
C437 C439 1.327 . S
C437 H460 0.950 . S
C438 C437 1.349 . S
C438 C450 1.349 . S
C439 C437 1.327 . S
C439 C455 1.429 . S
C439 H461 0.950 . S
C440 H436 0.949 . S
C440 C448 1.574 . S
C440 C456 1.368 . S
H441 C449 0.950 . S
H442 C447 0.950 . S
H443 C448 0.949 . S
H444 C450 0.950 . S
H445 C451 0.950 . S
H446 C452 0.949 . S
C447 H442 0.950 . S
C447 C449 1.327 . S
C447 C453 1.429 . S
C448 C440 1.574 . S
C448 H443 0.949 . S
C448 C454 1.368 . S
C449 C433 1.349 . S
C449 H441 0.950 . S
C449 C447 1.327 . S
C450 C438 1.349 . S
C450 H444 0.950 . S
C450 C451 1.327 . S
C451 H445 0.950 . S
C451 C450 1.327 . S
C451 C455 1.429 . S
C452 C435 1.574 . S
C452 H446 0.949 . S
C452 C456 1.368 . S
C453 C434 1.429 . S
C453 C447 1.429 . S
C453 C454 1.523 . S
C454 C435 1.368 . S
C454 C448 1.368 . S
C454 C453 1.523 . S
C455 C439 1.429 . S
C455 C451 1.429 . S
C455 C456 1.523 . S
C456 C440 1.368 . S
C456 C452 1.368 . S
C456 C455 1.523 . S
H457 C432 0.950 . S
H458 C434 0.950 . S
H459 C435 0.949 . S
H460 C437 0.950 . S
H461 C439 0.950 . S
C462 C463 1.349 . S
C462 C464 1.327 . S
C462 H487 0.950 . S
C463 C462 1.349 . S
C463 C479 1.349 . S
C464 C462 1.327 . S
C464 C483 1.429 . S
C464 H488 0.950 . S
C465 C482 1.574 . S
C465 C484 1.368 . S
C465 H489 0.949 . S
H466 C470 0.949 . S
C467 C468 1.349 . S
C467 C469 1.327 . S
C467 H490 0.950 . S
C468 C467 1.349 . S
C468 C480 1.349 . S
C469 C467 1.327 . S
C469 C485 1.429 . S
C469 H491 0.950 . S
C470 H466 0.949 . S
C470 C478 1.574 . S
C470 C486 1.368 . S
H471 C479 0.950 . S
H472 C477 0.950 . S
H473 C478 0.949 . S
H474 C480 0.950 . S
H475 C481 0.950 . S
H476 C482 0.949 . S
C477 H472 0.950 . S
C477 C479 1.327 . S
C477 C483 1.429 . S
C478 C470 1.574 . S
C478 H473 0.949 . S
C478 C484 1.368 . S
C479 C463 1.349 . S
C479 H471 0.950 . S
C479 C477 1.327 . S
C480 C468 1.349 . S
C480 H474 0.950 . S
C480 C481 1.327 . S
C481 H475 0.950 . S
C481 C480 1.327 . S
C481 C485 1.429 . S
C482 C465 1.574 . S
C482 H476 0.949 . S
C482 C486 1.368 . S
C483 C464 1.429 . S
C483 C477 1.429 . S
C483 C484 1.523 . S
C484 C465 1.368 . S
C484 C478 1.368 . S
C484 C483 1.523 . S
C485 C469 1.429 . S
C485 C481 1.429 . S
C485 C486 1.523 . S
C486 C470 1.368 . S
C486 C482 1.368 . S
C486 C485 1.523 . S
H487 C462 0.950 . S
H488 C464 0.950 . S
H489 C465 0.949 . S
H490 C467 0.950 . S
H491 C469 0.950 . S
C492 C493 1.349 . S
C492 C494 1.327 . S
C492 H517 0.950 . S
C493 C492 1.349 . S
C493 C509 1.349 . S
C494 C492 1.327 . S
C494 C513 1.429 . S
C494 H518 0.950 . S
C495 C512 1.574 . S
C495 C514 1.368 . S
C495 H519 0.949 . S
H496 C500 0.949 . S
C497 C498 1.349 . S
C497 C499 1.327 . S
C497 H520 0.950 . S
C498 C497 1.349 . S
C498 C510 1.349 . S
C499 C497 1.327 . S
C499 C515 1.429 . S
C499 H521 0.950 . S
C500 H496 0.949 . S
C500 C508 1.574 . S
C500 C516 1.368 . S
H501 C509 0.950 . S
H502 C507 0.950 . S
H503 C508 0.949 . S
H504 C510 0.950 . S
H505 C511 0.950 . S
H506 C512 0.949 . S
C507 H502 0.950 . S
C507 C509 1.327 . S
C507 C513 1.429 . S
C508 C500 1.574 . S
C508 H503 0.949 . S
C508 C514 1.368 . S
C509 C493 1.349 . S
C509 H501 0.950 . S
C509 C507 1.327 . S
C510 C498 1.349 . S
C510 H504 0.950 . S
C510 C511 1.327 . S
C511 H505 0.950 . S
C511 C510 1.327 . S
C511 C515 1.429 . S
C512 C495 1.574 . S
C512 H506 0.949 . S
C512 C516 1.368 . S
C513 C494 1.429 . S
C513 C507 1.429 . S
C513 C514 1.523 . S
C514 C495 1.368 . S
C514 C508 1.368 . S
C514 C513 1.523 . S
C515 C499 1.429 . S
C515 C511 1.429 . S
C515 C516 1.523 . S
C516 C500 1.368 . S
C516 C512 1.368 . S
C516 C515 1.523 . S
H517 C492 0.950 . S
H518 C494 0.950 . S
H519 C495 0.949 . S
H520 C497 0.950 . S
H521 C499 0.950 . S
C522 C523 1.349 . S
C522 C524 1.327 . S
C522 H547 0.950 . S
C523 C522 1.349 . S
C523 C539 1.349 . S
C524 C522 1.327 . S
C524 C543 1.429 . S
C524 H548 0.950 . S
C525 C542 1.574 . S
C525 C544 1.368 . S
C525 H549 0.949 . S
H526 C530 0.949 . S
C527 C528 1.349 . S
C527 C529 1.327 . S
C527 H550 0.950 . S
C528 C527 1.349 . S
C528 C540 1.349 . S
C529 C527 1.327 . S
C529 C545 1.429 . S
C529 H551 0.950 . S
C530 H526 0.949 . S
C530 C538 1.574 . S
C530 C546 1.368 . S
H531 C539 0.950 . S
H532 C537 0.950 . S
H533 C538 0.949 . S
H534 C540 0.950 . S
H535 C541 0.950 . S
H536 C542 0.949 . S
C537 H532 0.950 . S
C537 C539 1.327 . S
C537 C543 1.429 . S
C538 C530 1.574 . S
C538 H533 0.949 . S
C538 C544 1.368 . S
C539 C523 1.349 . S
C539 H531 0.950 . S
C539 C537 1.327 . S
C540 C528 1.349 . S
C540 H534 0.950 . S
C540 C541 1.327 . S
C541 H535 0.950 . S
C541 C540 1.327 . S
C541 C545 1.429 . S
C542 C525 1.574 . S
C542 H536 0.949 . S
C542 C546 1.368 . S
C543 C524 1.429 . S
C543 C537 1.429 . S
C543 C544 1.523 . S
C544 C525 1.368 . S
C544 C538 1.368 . S
C544 C543 1.523 . S
C545 C529 1.429 . S
C545 C541 1.429 . S
C545 C546 1.523 . S
C546 C530 1.368 . S
C546 C542 1.368 . S
C546 C545 1.523 . S
H547 C522 0.950 . S
H548 C524 0.950 . S
H549 C525 0.949 . S
H550 C527 0.950 . S
H551 C529 0.950 . S
C552 C553 1.349 . S
C552 C554 1.327 . S
C552 H577 0.950 . S
C553 C552 1.349 . S
C553 C569 1.349 . S
C554 C552 1.327 . S
C554 C573 1.429 . S
C554 H578 0.950 . S
C555 C572 1.574 . S
C555 C574 1.368 . S
C555 H579 0.949 . S
H556 C560 0.949 . S
C557 C558 1.349 . S
C557 C559 1.327 . S
C557 H580 0.950 . S
C558 C557 1.349 . S
C558 C570 1.349 . S
C559 C557 1.327 . S
C559 C575 1.429 . S
C559 H581 0.950 . S
C560 H556 0.949 . S
C560 C568 1.574 . S
C560 C576 1.368 . S
H561 C569 0.950 . S
H562 C567 0.950 . S
H563 C568 0.949 . S
H564 C570 0.950 . S
H565 C571 0.950 . S
H566 C572 0.949 . S
C567 H562 0.950 . S
C567 C569 1.327 . S
C567 C573 1.429 . S
C568 C560 1.574 . S
C568 H563 0.949 . S
C568 C574 1.368 . S
C569 C553 1.349 . S
C569 H561 0.950 . S
C569 C567 1.327 . S
C570 C558 1.349 . S
C570 H564 0.950 . S
C570 C571 1.327 . S
C571 H565 0.950 . S
C571 C570 1.327 . S
C571 C575 1.429 . S
C572 C555 1.574 . S
C572 H566 0.949 . S
C572 C576 1.368 . S
C573 C554 1.429 . S
C573 C567 1.429 . S
C573 C574 1.523 . S
C574 C555 1.368 . S
C574 C568 1.368 . S
C574 C573 1.523 . S
C575 C559 1.429 . S
C575 C571 1.429 . S
C575 C576 1.523 . S
C576 C560 1.368 . S
C576 C572 1.368 . S
C576 C575 1.523 . S
H577 C552 0.950 . S
H578 C554 0.950 . S
H579 C555 0.949 . S
H580 C557 0.950 . S
H581 C559 0.950 . S
C582 C583 1.349 . S
C582 C584 1.327 . S
C582 H607 0.950 . S
C583 C582 1.349 . S
C583 C599 1.349 . S
C584 C582 1.327 . S
C584 C603 1.429 . S
C584 H608 0.950 . S
C585 C602 1.574 . S
C585 C604 1.368 . S
C585 H609 0.949 . S
H586 C590 0.949 . S
C587 C588 1.349 . S
C587 C589 1.327 . S
C587 H610 0.950 . S
C588 C587 1.349 . S
C588 C600 1.349 . S
C589 C587 1.327 . S
C589 C605 1.429 . S
C589 H611 0.950 . S
C590 H586 0.949 . S
C590 C598 1.574 . S
C590 C606 1.368 . S
H591 C599 0.950 . S
H592 C597 0.950 . S
H593 C598 0.949 . S
H594 C600 0.950 . S
H595 C601 0.950 . S
H596 C602 0.949 . S
C597 H592 0.950 . S
C597 C599 1.327 . S
C597 C603 1.429 . S
C598 C590 1.574 . S
C598 H593 0.949 . S
C598 C604 1.368 . S
C599 C583 1.349 . S
C599 H591 0.950 . S
C599 C597 1.327 . S
C600 C588 1.349 . S
C600 H594 0.950 . S
C600 C601 1.327 . S
C601 H595 0.950 . S
C601 C600 1.327 . S
C601 C605 1.429 . S
C602 C585 1.574 . S
C602 H596 0.949 . S
C602 C606 1.368 . S
C603 C584 1.429 . S
C603 C597 1.429 . S
C603 C604 1.523 . S
C604 C585 1.368 . S
C604 C598 1.368 . S
C604 C603 1.523 . S
C605 C589 1.429 . S
C605 C601 1.429 . S
C605 C606 1.523 . S
C606 C590 1.368 . S
C606 C602 1.368 . S
C606 C605 1.523 . S
H607 C582 0.950 . S
H608 C584 0.950 . S
H609 C585 0.949 . S
H610 C587 0.950 . S
H611 C589 0.950 . S
C612 C613 1.349 . S
C612 C614 1.327 . S
C612 H637 0.950 . S
C613 C612 1.349 . S
C613 C629 1.349 . S
C614 C612 1.327 . S
C614 C633 1.429 . S
C614 H638 0.950 . S
C615 C632 1.574 . S
C615 C634 1.368 . S
C615 H639 0.949 . S
H616 C620 0.949 . S
C617 C618 1.349 . S
C617 C619 1.327 . S
C617 H640 0.950 . S
C618 C617 1.349 . S
C618 C630 1.349 . S
C619 C617 1.327 . S
C619 C635 1.429 . S
C619 H641 0.950 . S
C620 H616 0.949 . S
C620 C628 1.574 . S
C620 C636 1.368 . S
H621 C629 0.950 . S
H622 C627 0.950 . S
H623 C628 0.949 . S
H624 C630 0.950 . S
H625 C631 0.950 . S
H626 C632 0.949 . S
C627 H622 0.950 . S
C627 C629 1.327 . S
C627 C633 1.429 . S
C628 C620 1.574 . S
C628 H623 0.949 . S
C628 C634 1.368 . S
C629 C613 1.349 . S
C629 H621 0.950 . S
C629 C627 1.327 . S
C630 C618 1.349 . S
C630 H624 0.950 . S
C630 C631 1.327 . S
C631 H625 0.950 . S
C631 C630 1.327 . S
C631 C635 1.429 . S
C632 C615 1.574 . S
C632 H626 0.949 . S
C632 C636 1.368 . S
C633 C614 1.429 . S
C633 C627 1.429 . S
C633 C634 1.523 . S
C634 C615 1.368 . S
C634 C628 1.368 . S
C634 C633 1.523 . S
C635 C619 1.429 . S
C635 C631 1.429 . S
C635 C636 1.523 . S
C636 C620 1.368 . S
C636 C632 1.368 . S
C636 C635 1.523 . S
H637 C612 0.950 . S
H638 C614 0.950 . S
H639 C615 0.949 . S
H640 C617 0.950 . S
H641 C619 0.950 . S
C642 C643 1.349 . S
C642 C644 1.327 . S
C642 H667 0.950 . S
C643 C642 1.349 . S
C643 C659 1.349 . S
C644 C642 1.327 . S
C644 C663 1.429 . S
C644 H668 0.950 . S
C645 C662 1.574 . S
C645 C664 1.368 . S
C645 H669 0.949 . S
H646 C650 0.949 . S
C647 C648 1.349 . S
C647 C649 1.327 . S
C647 H670 0.950 . S
C648 C647 1.349 . S
C648 C660 1.349 . S
C649 C647 1.327 . S
C649 C665 1.429 . S
C649 H671 0.950 . S
C650 H646 0.949 . S
C650 C658 1.574 . S
C650 C666 1.368 . S
H651 C659 0.950 . S
H652 C657 0.950 . S
H653 C658 0.949 . S
H654 C660 0.950 . S
H655 C661 0.950 . S
H656 C662 0.949 . S
C657 H652 0.950 . S
C657 C659 1.327 . S
C657 C663 1.429 . S
C658 C650 1.574 . S
C658 H653 0.949 . S
C658 C664 1.368 . S
C659 C643 1.349 . S
C659 H651 0.950 . S
C659 C657 1.327 . S
C660 C648 1.349 . S
C660 H654 0.950 . S
C660 C661 1.327 . S
C661 H655 0.950 . S
C661 C660 1.327 . S
C661 C665 1.429 . S
C662 C645 1.574 . S
C662 H656 0.949 . S
C662 C666 1.368 . S
C663 C644 1.429 . S
C663 C657 1.429 . S
C663 C664 1.523 . S
C664 C645 1.368 . S
C664 C658 1.368 . S
C664 C663 1.523 . S
C665 C649 1.429 . S
C665 C661 1.429 . S
C665 C666 1.523 . S
C666 C650 1.368 . S
C666 C662 1.368 . S
C666 C665 1.523 . S
H667 C642 0.950 . S
H668 C644 0.950 . S
H669 C645 0.949 . S
H670 C647 0.950 . S
H671 C649 0.950 . S
C672 C673 1.349 . S
C672 C674 1.327 . S
C672 H697 0.950 . S
C673 C672 1.349 . S
C673 C689 1.349 1_455 S
C674 C672 1.327 . S
C674 C693 1.429 . S
C674 H698 0.950 . S
C675 C692 1.574 . S
C675 C694 1.368 . S
C675 H699 0.949 1_455 S
H676 C680 0.949 . S
C677 C678 1.349 . S
C677 C679 1.327 . S
C677 H700 0.950 1_455 S
C678 C677 1.349 . S
C678 C690 1.349 . S
C679 C677 1.327 . S
C679 C695 1.429 1_556 S
C679 H701 0.950 1_455 S
C680 H676 0.949 . S
C680 C688 1.574 . S
C680 C696 1.368 . S
H681 C689 0.950 . S
H682 C687 0.959 . S
H683 C688 0.949 . S
H684 C690 0.950 . S
H685 C691 0.950 1_554 S
H686 C692 0.949 1_655 S
C687 H682 0.959 . S
C687 C689 1.327 . S
C687 C693 1.420 1_655 S
C688 C680 1.574 . S
C688 H683 0.949 . S
C688 C694 1.368 . S
C689 C673 1.349 1_655 S
C689 H681 0.950 . S
C689 C687 1.327 . S
C690 C678 1.349 . S
C690 H684 0.950 . S
C690 C691 1.327 . S
C691 H685 0.950 1_556 S
C691 C690 1.327 . S
C691 C695 1.429 1_556 S
C692 C675 1.574 . S
C692 H686 0.949 1_455 S
C692 C696 1.368 . S
C693 C674 1.429 . S
C693 C687 1.420 1_455 S
C693 C694 1.523 . S
C694 C675 1.368 . S
C694 C688 1.368 . S
C694 C693 1.523 . S
C695 C679 1.429 1_554 S
C695 C691 1.429 1_554 S
C695 C696 1.523 . S
C696 C680 1.368 . S
C696 C692 1.368 . S
C696 C695 1.523 . S
H697 C672 0.950 . S
H698 C674 0.950 . S
H699 C675 0.949 1_655 S
H700 C677 0.950 1_655 S
H701 C679 0.950 1_655 S
C702 C703 1.349 . S
C702 C704 1.327 . S
C702 H727 0.950 . S
C703 C702 1.349 . S
C703 C719 1.349 1_545 S
C704 C702 1.327 . S
C704 C723 1.429 . S
C704 H728 0.950 . S
C705 C722 1.574 . S
C705 C724 1.368 1_565 S
C705 H729 0.949 . S
H706 C710 0.949 . S
C707 C708 1.349 1_565 S
C707 C709 1.327 . S
C707 H730 0.950 . S
C708 C707 1.349 1_545 S
C708 C720 1.349 . S
C709 C707 1.327 . S
C709 C725 1.429 1_565 S
C709 H731 0.950 . S
C710 H706 0.949 . S
C710 C718 1.574 . S
C710 C726 1.368 . S
H711 C719 0.950 . S
H712 C717 0.950 . S
H713 C718 0.949 . S
H714 C720 0.950 . S
H715 C721 0.950 . S
H716 C722 0.949 . S
C717 H712 0.950 . S
C717 C719 1.327 . S
C717 C723 1.429 1_565 S
C718 C710 1.574 . S
C718 H713 0.949 . S
C718 C724 1.368 . S
C719 C703 1.349 1_565 S
C719 H711 0.950 . S
C719 C717 1.327 . S
C720 C708 1.349 . S
C720 H714 0.950 . S
C720 C721 1.327 . S
C721 H715 0.950 . S
C721 C720 1.327 . S
C721 C725 1.429 . S
C722 C705 1.574 . S
C722 H716 0.949 . S
C722 C726 1.368 1_565 S
C723 C704 1.429 . S
C723 C717 1.429 1_545 S
C723 C724 1.523 . S
C724 C705 1.368 1_545 S
C724 C718 1.368 . S
C724 C723 1.523 . S
C725 C709 1.429 1_545 S
C725 C721 1.429 . S
C725 C726 1.523 . S
C726 C710 1.368 . S
C726 C722 1.368 1_545 S
C726 C725 1.523 . S
H727 C702 0.950 . S
H728 C704 0.950 . S
H729 C705 0.949 . S
H730 C707 0.950 . S
H731 C709 0.950 . S
C732 C733 1.349 . S
C732 C734 1.327 . S
C732 H757 0.950 . S
C733 C732 1.349 . S
C733 C749 1.349 . S
C734 C732 1.327 . S
C734 C753 1.429 . S
C734 H758 0.950 . S
C735 C752 1.574 . S
C735 C754 1.368 . S
C735 H759 0.949 . S
H736 C740 0.949 . S
C737 C738 1.349 . S
C737 C739 1.327 . S
C737 H760 0.950 . S
C738 C737 1.349 . S
C738 C750 1.349 . S
C739 C737 1.327 . S
C739 C755 1.429 . S
C739 H761 0.950 . S
C740 H736 0.949 . S
C740 C748 1.574 . S
C740 C756 1.368 . S
H741 C749 0.950 . S
H742 C747 0.950 . S
H743 C748 0.949 . S
H744 C750 0.950 . S
H745 C751 0.950 . S
H746 C752 0.949 . S
C747 H742 0.950 . S
C747 C749 1.327 . S
C747 C753 1.429 . S
C748 C740 1.574 . S
C748 H743 0.949 . S
C748 C754 1.368 . S
C749 C733 1.349 . S
C749 H741 0.950 . S
C749 C747 1.327 . S
C750 C738 1.349 . S
C750 H744 0.950 . S
C750 C751 1.327 . S
C751 H745 0.950 . S
C751 C750 1.327 . S
C751 C755 1.429 . S
C752 C735 1.574 . S
C752 H746 0.949 . S
C752 C756 1.368 . S
C753 C734 1.429 . S
C753 C747 1.429 . S
C753 C754 1.523 . S
C754 C735 1.368 . S
C754 C748 1.368 . S
C754 C753 1.523 . S
C755 C739 1.429 . S
C755 C751 1.429 . S
C755 C756 1.523 . S
C756 C740 1.368 . S
C756 C752 1.368 . S
C756 C755 1.523 . S
H757 C732 0.950 . S
H758 C734 0.950 . S
H759 C735 0.949 . S
H760 C737 0.950 . S
H761 C739 0.950 . S
C762 C763 1.349 1_565 S
C762 C764 1.327 . S
C762 H787 0.950 . S
C763 C762 1.349 1_545 S
C763 C779 1.349 . S
C764 C762 1.327 . S
C764 C783 1.429 1_565 S
C764 H788 0.950 . S
C765 C782 1.574 . S
C765 C784 1.368 . S
C765 H789 0.949 . S
H766 C770 0.949 . S
C767 C768 1.349 . S
C767 C769 1.327 . S
C767 H790 0.950 . S
C768 C767 1.349 . S
C768 C780 1.349 1_545 S
C769 C767 1.327 . S
C769 C785 1.429 . S
C769 H791 0.950 . S
C770 H766 0.949 . S
C770 C778 1.574 . S
C770 C786 1.368 1_565 S
H771 C779 0.950 . S
H772 C777 0.950 . S
H773 C778 0.949 . S
H774 C780 0.950 . S
H775 C781 0.950 . S
H776 C782 0.949 . S
C777 H772 0.950 . S
C777 C779 1.327 . S
C777 C783 1.429 . S
C778 C770 1.574 . S
C778 H773 0.949 . S
C778 C784 1.368 1_565 S
C779 C763 1.349 . S
C779 H771 0.950 . S
C779 C777 1.327 . S
C780 C768 1.349 1_565 S
C780 H774 0.950 . S
C780 C781 1.327 . S
C781 H775 0.950 . S
C781 C780 1.327 . S
C781 C785 1.429 1_565 S
C782 C765 1.574 . S
C782 H776 0.949 . S
C782 C786 1.368 . S
C783 C764 1.429 1_545 S
C783 C777 1.429 . S
C783 C784 1.523 . S
C784 C765 1.368 . S
C784 C778 1.368 1_545 S
C784 C783 1.523 . S
C785 C769 1.429 . S
C785 C781 1.429 1_545 S
C785 C786 1.523 . S
C786 C770 1.368 1_545 S
C786 C782 1.368 . S
C786 C785 1.523 . S
H787 C762 0.950 . S
H788 C764 0.950 . S
H789 C765 0.949 . S
H790 C767 0.950 . S
H791 C769 0.950 . S
C792 C793 1.349 . S
C792 C794 1.327 . S
C792 H817 0.950 . S
C793 C792 1.349 . S
C793 C809 1.349 . S
C794 C792 1.327 . S
C794 C813 1.429 . S
C794 H818 0.950 . S
C795 C812 1.574 . S
C795 C814 1.368 . S
C795 H819 0.949 . S
H796 C800 0.949 . S
C797 C798 1.349 . S
C797 C799 1.327 . S
C797 H820 0.950 . S
C798 C797 1.349 . S
C798 C810 1.349 . S
C799 C797 1.327 . S
C799 C815 1.429 1_554 S
C799 H821 0.950 1_554 S
C800 H796 0.949 . S
C800 C808 1.574 . S
C800 C816 1.368 . S
H801 C809 0.950 . S
H802 C807 0.950 . S
H803 C808 0.949 . S
H804 C810 0.950 . S
H805 C811 0.950 . S
H806 C812 0.949 . S
C807 H802 0.950 . S
C807 C809 1.327 . S
C807 C813 1.429 . S
C808 C800 1.574 . S
C808 H803 0.949 . S
C808 C814 1.368 . S
C809 C793 1.349 . S
C809 H801 0.950 . S
C809 C807 1.327 . S
C810 C798 1.349 . S
C810 H804 0.950 . S
C810 C811 1.327 . S
C811 H805 0.950 . S
C811 C810 1.327 . S
C811 C815 1.429 1_554 S
C812 C795 1.574 . S
C812 H806 0.949 . S
C812 C816 1.368 . S
C813 C794 1.429 . S
C813 C807 1.429 . S
C813 C814 1.523 . S
C814 C795 1.368 . S
C814 C808 1.368 . S
C814 C813 1.523 . S
C815 C799 1.429 1_556 S
C815 C811 1.429 1_556 S
C815 C816 1.523 . S
C816 C800 1.368 . S
C816 C812 1.368 . S
C816 C815 1.523 . S
H817 C792 0.950 . S
H818 C794 0.950 . S
H819 C795 0.949 . S
H820 C797 0.950 . S
H821 C799 0.950 1_556 S
C822 C823 1.349 . S
C822 C824 1.327 . S
C822 H847 0.950 . S
C823 C822 1.349 . S
C823 C839 1.349 . S
C824 C822 1.327 . S
C824 C843 1.429 . S
C824 H848 0.950 . S
C825 C842 1.574 . S
C825 C844 1.368 . S
C825 H849 0.949 . S
H826 C830 0.949 . S
C827 C828 1.349 . S
C827 C829 1.327 . S
C827 H850 0.966 . S
C828 C827 1.349 . S
C828 C840 1.349 . S
C829 C827 1.327 . S
C829 C845 1.429 . S
C829 H851 0.950 . S
C830 H826 0.949 . S
C830 C838 1.574 . S
C830 C846 1.368 . S
H831 C839 0.950 . S
H832 C837 0.950 . S
H833 C838 0.949 . S
H834 C840 0.950 . S
H835 C841 0.950 . S
H836 C842 0.949 . S
C837 H832 0.950 . S
C837 C839 1.327 . S
C837 C843 1.429 . S
C838 C830 1.574 . S
C838 H833 0.949 . S
C838 C844 1.368 . S
C839 C823 1.349 . S
C839 H831 0.950 . S
C839 C837 1.327 . S
C840 C828 1.349 . S
C840 H834 0.950 . S
C840 C841 1.327 . S
C841 H835 0.950 . S
C841 C840 1.327 . S
C841 C845 1.429 . S
C842 C825 1.574 . S
C842 H836 0.949 . S
C842 C846 1.368 . S
C843 C824 1.429 . S
C843 C837 1.429 . S
C843 C844 1.523 . S
C844 C825 1.368 . S
C844 C838 1.368 . S
C844 C843 1.523 . S
C845 C829 1.429 . S
C845 C841 1.429 . S
C845 C846 1.523 . S
C846 C830 1.368 . S
C846 C842 1.368 . S
C846 C845 1.523 . S
H847 C822 0.950 . S
H848 C824 0.950 . S
H849 C825 0.949 . S
H850 C827 0.966 . S
H851 C829 0.950 . S
C313 C6 0.408 . S
C318 C303 0.355 . S
C343 C59 1.834 . S
C348 C239 1.788 . S
C373 C86 1.152 . S
C378 C271 1.134 . S
C403 C15 0.346 . S
C408 C297 0.313 . S
C438 C233 1.858 . S
C433 C50 1.881 . S
C468 C265 1.212 . S
C463 C95 1.222 . S
C493 C46 1.148 . S
C498 C175 1.141 . S
C523 C99 3.011 . S
C528 C207 2.952 . S
C553 C10 1.905 . S
C558 C137 1.887 . S
C588 C169 1.200 . S
C583 C55 1.205 . S
C618 C201 2.921 . S
C613 C90 2.926 . S
C643 C19 1.825 . S
C648 C143 1.788 . S
C678 C213 1.729 . S
C673 C18 1.694 . S
C703 C49 1.337 . S
C708 C149 1.356 . S
C733 C98 1.453 . S
C738 C181 1.480 . S
C768 C277 1.455 . S
C763 C58 1.442 . S
C798 C309 1.102 . S
C793 C89 1.091 . S
C823 C9 1.332 . S
C828 C245 1.344 . S
