# Generated by pormake.
# Topology eea, (3,6)-cn, num edge types: 1
# Building blocks:
#     Node 0, Type 0, BuildingBlock: CUQRIR_clean_linker_1, # of connection points: 3
#     Node 1, Type 0, BuildingBlock: CUQRIR_clean_linker_1, # of connection points: 3
#     Node 2, Type 0, BuildingBlock: CUQRIR_clean_linker_1, # of connection points: 3
#     Node 3, Type 0, BuildingBlock: CUQRIR_clean_linker_1, # of connection points: 3
#     Node 4, Type 0, BuildingBlock: CUQRIR_clean_linker_1, # of connection points: 3
#     Node 5, Type 0, BuildingBlock: CUQRIR_clean_linker_1, # of connection points: 3
#     Node 6, Type 0, BuildingBlock: CUQRIR_clean_linker_1, # of connection points: 3
#     Node 7, Type 0, BuildingBlock: CUQRIR_clean_linker_1, # of connection points: 3
#     Node 8, Type 0, BuildingBlock: CUQRIR_clean_linker_1, # of connection points: 3
#     Node 9, Type 0, BuildingBlock: CUQRIR_clean_linker_1, # of connection points: 3
#     Node 10, Type 0, BuildingBlock: CUQRIR_clean_linker_1, # of connection points: 3
#     Node 11, Type 0, BuildingBlock: CUQRIR_clean_linker_1, # of connection points: 3
#     Node 12, Type 0, BuildingBlock: CUQRIR_clean_linker_1, # of connection points: 3
#     Node 13, Type 0, BuildingBlock: CUQRIR_clean_linker_1, # of connection points: 3
#     Node 14, Type 0, BuildingBlock: CUQRIR_clean_linker_1, # of connection points: 3
#     Node 15, Type 0, BuildingBlock: CUQRIR_clean_linker_1, # of connection points: 3
#     Node 16, Type 0, BuildingBlock: CUQRIR_clean_linker_1, # of connection points: 3
#     Node 17, Type 0, BuildingBlock: CUQRIR_clean_linker_1, # of connection points: 3
#     Node 18, Type 1, BuildingBlock: KUMJIN_clean_sbu_0, # of connection points: 6
#     Node 19, Type 1, BuildingBlock: KUMJIN_clean_sbu_0, # of connection points: 6
#     Node 20, Type 1, BuildingBlock: KUMJIN_clean_sbu_0, # of connection points: 6
#     Node 21, Type 1, BuildingBlock: KUMJIN_clean_sbu_0, # of connection points: 6
#     Node 22, Type 1, BuildingBlock: KUMJIN_clean_sbu_0, # of connection points: 6
#     Node 23, Type 1, BuildingBlock: KUMJIN_clean_sbu_0, # of connection points: 6
#     Node 24, Type 1, BuildingBlock: KUMJIN_clean_sbu_0, # of connection points: 6
#     Node 25, Type 1, BuildingBlock: KUMJIN_clean_sbu_0, # of connection points: 6
#     Node 26, Type 1, BuildingBlock: KUMJIN_clean_sbu_0, # of connection points: 6
#     Edge 27, Type (0, 1), BuildingBlock: OJICUG_clean_linker_0, # of connection points: 2
#     Edge 28, Type (0, 1), BuildingBlock: OJICUG_clean_linker_0, # of connection points: 2
#     Edge 29, Type (0, 1), BuildingBlock: OJICUG_clean_linker_0, # of connection points: 2
#     Edge 30, Type (0, 1), BuildingBlock: OJICUG_clean_linker_0, # of connection points: 2
#     Edge 31, Type (0, 1), BuildingBlock: OJICUG_clean_linker_0, # of connection points: 2
#     Edge 32, Type (0, 1), BuildingBlock: OJICUG_clean_linker_0, # of connection points: 2
#     Edge 33, Type (0, 1), BuildingBlock: OJICUG_clean_linker_0, # of connection points: 2
#     Edge 34, Type (0, 1), BuildingBlock: OJICUG_clean_linker_0, # of connection points: 2
#     Edge 35, Type (0, 1), BuildingBlock: OJICUG_clean_linker_0, # of connection points: 2
#     Edge 36, Type (0, 1), BuildingBlock: OJICUG_clean_linker_0, # of connection points: 2
#     Edge 37, Type (0, 1), BuildingBlock: OJICUG_clean_linker_0, # of connection points: 2
#     Edge 38, Type (0, 1), BuildingBlock: OJICUG_clean_linker_0, # of connection points: 2
#     Edge 39, Type (0, 1), BuildingBlock: OJICUG_clean_linker_0, # of connection points: 2
#     Edge 40, Type (0, 1), BuildingBlock: OJICUG_clean_linker_0, # of connection points: 2
#     Edge 41, Type (0, 1), BuildingBlock: OJICUG_clean_linker_0, # of connection points: 2
#     Edge 42, Type (0, 1), BuildingBlock: OJICUG_clean_linker_0, # of connection points: 2
#     Edge 43, Type (0, 1), BuildingBlock: OJICUG_clean_linker_0, # of connection points: 2
#     Edge 44, Type (0, 1), BuildingBlock: OJICUG_clean_linker_0, # of connection points: 2
#     Edge 45, Type (0, 1), BuildingBlock: OJICUG_clean_linker_0, # of connection points: 2
#     Edge 46, Type (0, 1), BuildingBlock: OJICUG_clean_linker_0, # of connection points: 2
#     Edge 47, Type (0, 1), BuildingBlock: OJICUG_clean_linker_0, # of connection points: 2
#     Edge 48, Type (0, 1), BuildingBlock: OJICUG_clean_linker_0, # of connection points: 2
#     Edge 49, Type (0, 1), BuildingBlock: OJICUG_clean_linker_0, # of connection points: 2
#     Edge 50, Type (0, 1), BuildingBlock: OJICUG_clean_linker_0, # of connection points: 2
#     Edge 51, Type (0, 1), BuildingBlock: OJICUG_clean_linker_0, # of connection points: 2
#     Edge 52, Type (0, 1), BuildingBlock: OJICUG_clean_linker_0, # of connection points: 2
#     Edge 53, Type (0, 1), BuildingBlock: OJICUG_clean_linker_0, # of connection points: 2
#     Edge 54, Type (0, 1), BuildingBlock: OJICUG_clean_linker_0, # of connection points: 2
#     Edge 55, Type (0, 1), BuildingBlock: OJICUG_clean_linker_0, # of connection points: 2
#     Edge 56, Type (0, 1), BuildingBlock: OJICUG_clean_linker_0, # of connection points: 2
#     Edge 57, Type (0, 1), BuildingBlock: OJICUG_clean_linker_0, # of connection points: 2
#     Edge 58, Type (0, 1), BuildingBlock: OJICUG_clean_linker_0, # of connection points: 2
#     Edge 59, Type (0, 1), BuildingBlock: OJICUG_clean_linker_0, # of connection points: 2
#     Edge 60, Type (0, 1), BuildingBlock: OJICUG_clean_linker_0, # of connection points: 2
#     Edge 61, Type (0, 1), BuildingBlock: OJICUG_clean_linker_0, # of connection points: 2
#     Edge 62, Type (0, 1), BuildingBlock: OJICUG_clean_linker_0, # of connection points: 2
#     Edge 63, Type (0, 1), BuildingBlock: OJICUG_clean_linker_0, # of connection points: 2
#     Edge 64, Type (0, 1), BuildingBlock: OJICUG_clean_linker_0, # of connection points: 2
#     Edge 65, Type (0, 1), BuildingBlock: OJICUG_clean_linker_0, # of connection points: 2
#     Edge 66, Type (0, 1), BuildingBlock: OJICUG_clean_linker_0, # of connection points: 2
#     Edge 67, Type (0, 1), BuildingBlock: OJICUG_clean_linker_0, # of connection points: 2
#     Edge 68, Type (0, 1), BuildingBlock: OJICUG_clean_linker_0, # of connection points: 2
#     Edge 69, Type (0, 1), BuildingBlock: OJICUG_clean_linker_0, # of connection points: 2
#     Edge 70, Type (0, 1), BuildingBlock: OJICUG_clean_linker_0, # of connection points: 2
#     Edge 71, Type (0, 1), BuildingBlock: OJICUG_clean_linker_0, # of connection points: 2
#     Edge 72, Type (0, 1), BuildingBlock: OJICUG_clean_linker_0, # of connection points: 2
#     Edge 73, Type (0, 1), BuildingBlock: OJICUG_clean_linker_0, # of connection points: 2
#     Edge 74, Type (0, 1), BuildingBlock: OJICUG_clean_linker_0, # of connection points: 2
#     Edge 75, Type (0, 1), BuildingBlock: OJICUG_clean_linker_0, # of connection points: 2
#     Edge 76, Type (0, 1), BuildingBlock: OJICUG_clean_linker_0, # of connection points: 2
#     Edge 77, Type (0, 1), BuildingBlock: OJICUG_clean_linker_0, # of connection points: 2
#     Edge 78, Type (0, 1), BuildingBlock: OJICUG_clean_linker_0, # of connection points: 2
#     Edge 79, Type (0, 1), BuildingBlock: OJICUG_clean_linker_0, # of connection points: 2
#     Edge 80, Type (0, 1), BuildingBlock: OJICUG_clean_linker_0, # of connection points: 2
# Relax obj value: 0.041
# Max RMSD: 0.229
# Mean RMSD: 0.164
data_MOF--net-eea--node1-KUMJIN_clean_sbu_0--node2-CUQRIR_clean_linker_1--edge1-OJICUG_clean_linker_0
_symmetry_space_group_name_H-M    P1
_symmetry_Int_Tables_number       1
_symmetry_cell_setting            triclinic
loop_
_symmetry_equiv_pos_as_xyz
'x, y, z'
_cell_length_a     33.116459
_cell_length_b     35.787325
_cell_length_c     48.43127
_cell_angle_alpha  83.061703
_cell_angle_beta   89.617917
_cell_angle_gamma 118.73218
loop_
_atom_site_label
_atom_site_type_symbol
_atom_site_fract_x
_atom_site_fract_y
_atom_site_fract_z
_atom_type_partial_charge
C0 C 0.20524 0.10587 0.41059 0.0
N1 N 0.22192 0.1384 0.42636 0.0
N2 N 0.20956 0.07198 0.42306 0.0
C3 C 0.18573 0.10746 0.38277 0.0
C4 C 0.22931 0.08529 0.44699 0.0
N5 N 0.23679 0.12545 0.449 0.0
C6 C 0.24023 0.05872 0.46903 0.0
H7 H 0.14753 0.09129 0.38591 0.0
H8 H 0.19504 0.0902 0.3686 0.0
H9 H 0.19801 0.14095 0.37273 0.0
H10 H 0.27635 0.06568 0.46489 0.0
H11 H 0.21675 0.02382 0.46899 0.0
H12 H 0.23719 0.06714 0.48998 0.0
C13 C 0.91866 0.11958 0.4086 0.0
N14 N 0.93692 0.15284 0.42392 0.0
N15 N 0.87632 0.08836 0.41984 0.0
C16 C 0.94139 0.11755 0.38228 0.0
C17 C 0.86942 0.10371 0.44262 0.0
N18 N 0.90599 0.14258 0.4453 0.0
C19 C 0.82536 0.08215 0.46126 0.0
H20 H 0.92956 0.13087 0.36426 0.0
H21 H 0.93133 0.08373 0.3801 0.0
H22 H 0.97942 0.13635 0.38162 0.0
H23 H 0.82823 0.06063 0.47872 0.0
H24 H 0.79527 0.06257 0.44967 0.0
H25 H 0.81913 0.1062 0.47022 0.0
C26 C 0.88751 0.78951 0.39333 0.0
N27 N 0.90921 0.77341 0.41065 0.0
N28 N 0.84526 0.77825 0.40481 0.0
C29 C 0.90554 0.81266 0.36426 0.0
C30 C 0.84192 0.75513 0.42972 0.0
N31 N 0.88053 0.75182 0.43323 0.0
C32 C 0.8015 0.73704 0.4511 0.0
H33 H 0.92856 0.8474 0.36514 0.0
H34 H 0.87701 0.80931 0.35112 0.0
H35 H 0.92567 0.79975 0.35453 0.0
H36 H 0.77679 0.7036 0.44789 0.0
H37 H 0.78338 0.75636 0.44902 0.0
H38 H 0.81287 0.7362 0.47256 0.0
C39 C 0.11958 0.24555 0.68102 0.0
N40 N 0.15646 0.25895 0.66267 0.0
N41 N 0.08955 0.25766 0.67017 0.0
C42 C 0.11304 0.22121 0.70961 0.0
C43 C 0.10894 0.27839 0.6444 0.0
N44 N 0.14972 0.27923 0.63978 0.0
C45 C 0.08611 0.29432 0.62277 0.0
H46 H 0.09834 0.18644 0.70809 0.0
H47 H 0.08921 0.22547 0.72344 0.0
H48 H 0.14672 0.23246 0.71873 0.0
H49 H 0.11194 0.31972 0.60679 0.0
H50 H 0.06603 0.30746 0.63227 0.0
H51 H 0.06188 0.26693 0.6123 0.0
C52 C 0.80443 0.90936 0.66066 0.0
N53 N 0.78874 0.87744 0.64441 0.0
N54 N 0.79737 0.94209 0.6494 0.0
C55 C 0.83033 0.91037 0.68627 0.0
C56 C 0.77724 0.92921 0.62555 0.0
N57 N 0.77275 0.89031 0.62217 0.0
C58 C 0.75739 0.95242 0.60712 0.0
H59 H 0.80539 0.89487 0.70487 0.0
H60 H 0.85481 0.94398 0.68926 0.0
H61 H 0.84981 0.8926 0.68472 0.0
H62 H 0.78375 0.97445 0.59015 0.0
H63 H 0.74751 0.97171 0.61908 0.0
H64 H 0.72646 0.92939 0.59753 0.0
C65 C 0.10244 0.91946 0.66079 0.0
N66 N 0.08685 0.8844 0.6471 0.0
N67 N 0.14344 0.95205 0.6486 0.0
C68 C 0.07969 0.92146 0.68707 0.0
C69 C 0.15229 0.9356 0.627 0.0
N70 N 0.11825 0.89476 0.62612 0.0
C71 C 0.19495 0.95935 0.60716 0.0
H72 H 0.08864 0.95511 0.68896 0.0
H73 H 0.09247 0.90908 0.70507 0.0
H74 H 0.04176 0.90181 0.68809 0.0
H75 H 0.22549 0.97898 0.61843 0.0
H76 H 0.19003 0.98142 0.59113 0.0
H77 H 0.20201 0.93742 0.59625 0.0
C78 C 0.88196 0.44053 0.7414 0.0
N79 N 0.89846 0.47382 0.75658 0.0
N80 N 0.88968 0.40849 0.7534 0.0
C81 C 0.86284 0.44127 0.71334 0.0
C82 C 0.91183 0.42369 0.77631 0.0
N83 N 0.91749 0.46336 0.77813 0.0
C84 C 0.92512 0.39868 0.79813 0.0
H85 H 0.8247 0.42637 0.71615 0.0
H86 H 0.87139 0.42274 0.69982 0.0
H87 H 0.87683 0.47478 0.70273 0.0
H88 H 0.96085 0.40554 0.79269 0.0
H89 H 0.90157 0.36357 0.79927 0.0
H90 H 0.92423 0.40839 0.81894 0.0
C91 C 0.58436 0.45599 0.74005 0.0
N92 N 0.60239 0.48962 0.75506 0.0
N93 N 0.54189 0.42495 0.75125 0.0
C94 C 0.6077 0.45315 0.71429 0.0
C95 C 0.53471 0.44083 0.77368 0.0
N96 N 0.57126 0.47976 0.77621 0.0
C97 C 0.49051 0.41966 0.79217 0.0
H98 H 0.59536 0.46487 0.69577 0.0
H99 H 0.59859 0.41926 0.71308 0.0
H100 H 0.64566 0.47285 0.71357 0.0
H101 H 0.4932 0.39849 0.80993 0.0
H102 H 0.46054 0.39982 0.78058 0.0
H103 H 0.48426 0.44401 0.80069 0.0
C104 C 0.55619 0.12404 0.72835 0.0
N105 N 0.57791 0.10804 0.74572 0.0
N106 N 0.51416 0.11326 0.73997 0.0
C107 C 0.5739 0.14656 0.69911 0.0
C108 C 0.511 0.09051 0.76501 0.0
N109 N 0.54949 0.08698 0.76848 0.0
C110 C 0.47076 0.07277 0.78649 0.0
H111 H 0.59726 0.18133 0.69967 0.0
H112 H 0.54524 0.14318 0.68609 0.0
H113 H 0.59359 0.13317 0.68946 0.0
H114 H 0.44596 0.03925 0.78351 0.0
H115 H 0.4527 0.09214 0.78429 0.0
H116 H 0.48234 0.07225 0.80791 0.0
C117 C 0.77895 0.57198 1.01026 0.0
N118 N 0.81686 0.58629 0.99258 0.0
N119 N 0.7493 0.58414 0.99882 0.0
C120 C 0.77252 0.5494 0.03948 0.0
C121 C 0.77 0.60592 0.97352 0.0
N122 N 0.81125 0.60758 0.96981 0.0
C123 C 0.74907 0.62401 0.95195 0.0
H124 H 0.75961 0.5146 0.03891 0.0
H125 H 0.74735 0.55302 0.05254 0.0
H126 H 0.80599 0.56263 0.04904 0.0
H127 H 0.75965 0.6577 0.95483 0.0
H128 H 0.7108 0.60516 0.95422 0.0
H129 H 0.76131 0.62418 0.93053 0.0
C130 C 0.47789 0.24852 0.9908 0.0
N131 N 0.46089 0.21567 0.97531 0.0
N132 N 0.47 0.28078 0.9795 0.0
C133 C 0.50447 0.25015 1.01614 0.0
C134 C 0.44782 0.26643 0.95642 0.0
N135 N 0.44264 0.2271 0.9537 0.0
C136 C 0.42882 0.28984 0.93743 0.0
H137 H 0.47997 0.23479 0.03495 0.0
H138 H 0.52894 0.28392 0.01881 0.0
H139 H 0.52391 0.23236 1.01448 0.0
H140 H 0.45718 0.31493 0.92258 0.0
H141 H 0.41488 0.30595 0.94967 0.0
H142 H 0.40135 0.26812 0.92512 0.0
C143 C 0.76785 0.25279 0.99412 0.0
N144 N 0.75314 0.21707 0.98119 0.0
N145 N 0.8099 0.28464 0.98276 0.0
C146 C 0.74071 0.25681 1.01744 0.0
C147 C 0.82022 0.26709 0.96239 0.0
N148 N 0.78608 0.22628 0.96144 0.0
C149 C 0.86386 0.29021 0.94336 0.0
H150 H 0.71258 0.26196 1.00879 0.0
H151 H 0.76184 0.28413 0.02874 0.0
H152 H 0.72502 0.22661 0.03218 0.0
H153 H 0.872 0.26778 0.93385 0.0
H154 H 0.89352 0.31082 0.95489 0.0
H155 H 0.85952 0.31128 0.92626 0.0
C156 C 0.54481 0.77592 0.07622 0.0
N157 N 0.5646 0.80977 0.09086 0.0
N158 N 0.55715 0.74569 0.08524 0.0
C159 C 0.51225 0.77182 0.05374 0.0
C160 C 0.58554 0.76256 0.10566 0.0
N161 N 0.59027 0.80153 0.10898 0.0
C162 C 0.60662 0.73979 0.12331 0.0
H163 H 0.4766 0.7571 0.06353 0.0
H164 H 0.51236 0.75103 0.03865 0.0
H165 H 0.52139 0.80391 0.04227 0.0
H166 H 0.61028 0.71623 0.11206 0.0
H167 H 0.58377 0.72227 0.14259 0.0
H168 H 0.64096 0.76271 0.12954 0.0
C169 C 0.24745 0.79139 0.07267 0.0
N170 N 0.26563 0.82455 0.08808 0.0
N171 N 0.20528 0.75992 0.084 0.0
C172 C 0.27027 0.78952 0.04633 0.0
C173 C 0.19844 0.77504 0.10691 0.0
N174 N 0.2349 0.81395 0.10962 0.0
C175 C 0.15457 0.75316 0.12574 0.0
H176 H 0.25766 0.802 0.0283 0.0
H177 H 0.26106 0.75581 0.0444 0.0
H178 H 0.30824 0.8091 0.04541 0.0
H179 H 0.15789 0.7319 0.14317 0.0
H180 H 0.12443 0.7333 0.11427 0.0
H181 H 0.14815 0.77709 0.13472 0.0
C182 C 0.22102 0.4601 0.06076 0.0
N183 N 0.24295 0.44412 0.07793 0.0
N184 N 0.1793 0.44955 0.07271 0.0
C185 C 0.23804 0.48196 0.03133 0.0
C186 C 0.17651 0.42692 0.09772 0.0
N187 N 0.21498 0.42328 0.10087 0.0
C188 C 0.13655 0.40915 0.11939 0.0
H189 H 0.26227 0.51665 0.03153 0.0
H190 H 0.20917 0.479 0.01866 0.0
H191 H 0.25664 0.46765 0.02152 0.0
H192 H 0.11167 0.37562 0.11645 0.0
H193 H 0.11847 0.42851 0.11736 0.0
H194 H 0.14844 0.40862 0.14073 0.0
C195 C 0.45257 0.91499 0.34936 0.0
N196 N 0.4894 0.92785 0.33109 0.0
N197 N 0.42292 0.92754 0.33837 0.0
C198 C 0.4459 0.89091 0.37805 0.0
C199 C 0.44253 0.94795 0.31258 0.0
N200 N 0.483 0.94815 0.30808 0.0
C201 C 0.42012 0.96428 0.29088 0.0
H202 H 0.43405 0.85653 0.37657 0.0
H203 H 0.42 0.89316 0.39132 0.0
H204 H 0.4792 0.9042 0.38779 0.0
H205 H 0.44559 0.98752 0.27391 0.0
H206 H 0.40308 0.98036 0.3002 0.0
H207 H 0.39324 0.93656 0.2818 0.0
C208 C 0.13913 0.57787 0.32644 0.0
N209 N 0.12371 0.54633 0.30988 0.0
N210 N 0.13264 0.61102 0.31525 0.0
C211 C 0.16369 0.57777 0.35249 0.0
C212 C 0.11289 0.59861 0.29121 0.0
N213 N 0.10823 0.55973 0.28763 0.0
C214 C 0.09328 0.62215 0.27286 0.0
H215 H 0.13787 0.56175 0.37065 0.0
H216 H 0.18806 0.61109 0.3561 0.0
H217 H 0.18302 0.55982 0.35108 0.0
H218 H 0.11974 0.64422 0.25595 0.0
H219 H 0.08347 0.64141 0.28489 0.0
H220 H 0.06233 0.59934 0.26319 0.0
C221 C 0.43428 0.58662 0.32672 0.0
N222 N 0.41842 0.55134 0.31325 0.0
N223 N 0.47547 0.61886 0.31449 0.0
C224 C 0.41124 0.58936 0.35266 0.0
C225 C 0.48409 0.60194 0.29307 0.0
N226 N 0.44975 0.56117 0.29232 0.0
C227 C 0.52683 0.6251 0.27326 0.0
H228 H 0.37332 0.56973 0.35356 0.0
H229 H 0.42018 0.62317 0.35402 0.0
H230 H 0.42371 0.57746 0.37103 0.0
H231 H 0.55734 0.64518 0.2844 0.0
H232 H 0.52194 0.64662 0.25677 0.0
H233 H 0.53393 0.60269 0.26294 0.0
Eu234 Eu 0.50441 0.98981 1.00432 0.0
C235 C 0.57599 0.14022 0.07549 0.0
C236 C 0.65834 0.16642 0.07508 0.0
C237 C 0.62779 0.21487 0.08089 0.0
C238 C 0.6132 0.13314 0.07275 0.0
C239 C 0.58275 0.18096 0.08009 0.0
C240 C 0.66547 0.20748 0.0787 0.0
C241 C 0.5 0.14994 0.08727 0.0
N242 N 0.53295 0.10615 0.07632 0.0
C243 C 0.49518 0.10991 0.08349 0.0
C244 C 0.54399 0.1858 0.0852 0.0
Eu245 Eu 0.52688 0.03943 0.06874 0.0
N246 N 0.60493 0.0928 0.0701 0.0
C247 C 0.64008 0.08306 0.07109 0.0
C248 C 0.69476 0.15703 0.07476 0.0
C249 C 0.68552 0.11509 0.07293 0.0
H250 H 0.46113 0.08213 0.08548 0.0
H251 H 0.71333 0.10732 0.07312 0.0
H252 H 0.69991 0.23349 0.08047 0.0
H253 H 0.46984 0.15301 0.09204 0.0
H254 H 0.6334 0.05067 0.07003 0.0
H255 H 0.32076 0.93068 0.99195 0.0
H256 H 0.72994 0.18168 0.07652 0.0
H257 H 0.56743 0.93996 0.99942 0.0
H258 H 0.40067 0.98473 0.99799 0.0
H259 H 0.55464 0.86659 0.996 0.0
H260 H 0.63372 0.24643 0.08431 0.0
H261 H 0.3014 0.85537 0.98971 0.0
H262 H 0.32739 0.79989 0.99098 0.0
H263 H 0.54772 0.21663 0.08864 0.0
H264 H 0.39053 0.78217 0.993 0.0
N265 N 0.42624 0.94016 1.0003 0.0
C266 C 0.39272 0.95188 0.99745 0.0
C267 C 0.33644 0.87873 0.99296 0.0
C268 C 0.3711 0.86702 0.99543 0.0
C269 C 0.3473 0.92131 0.994 0.0
C270 C 0.4164 0.89892 0.99904 0.0
H271 H 0.47524 0.80677 0.99483 0.0
N272 N 0.49584 0.92088 1.00173 0.0
C273 C 0.52554 0.87241 0.99723 0.0
C274 C 0.4521 0.88893 0.99994 0.0
C275 C 0.53268 0.91377 0.99919 0.0
C276 C 0.48063 0.8387 0.99664 0.0
C277 C 0.44332 0.84686 0.99744 0.0
O278 O 0.55123 1.0074 0.96744 0.0
O279 O 0.55211 0.04649 0.02461 0.0
O280 O 0.51031 0.08152 0.03732 0.0
O281 O 0.47953 0.03991 1.00112 0.0
O282 O 0.58296 0.01984 1.00289 0.0
O283 O 0.48333 1.00079 0.96246 0.0
O284 O 0.49075 0.023 0.11003 0.0
O285 O 0.47682 0.98541 0.04754 0.0
O286 O 0.50578 0.9433 0.0396 0.0
O287 O 0.55526 0.99184 0.06732 0.0
O288 O 0.44849 1.0096 0.07316 0.0
O289 O 0.55171 0.01633 0.10512 0.0
C290 C 0.59079 0.05162 1.01613 0.0
C291 C 0.51927 0.98674 0.92503 0.0
C292 C 0.53426 0.99188 0.87463 0.0
C293 C 0.53256 1.01102 0.89823 0.0
C294 C 0.52323 0.94827 0.87862 0.0
C295 C 0.50707 0.94308 0.92807 0.0
C296 C 0.50935 0.9241 0.90507 0.0
C297 C 0.48834 0.07338 1.01415 0.0
C298 C 0.52194 1.008 0.94981 0.0
C299 C 0.39797 0.81471 0.99484 0.0
C300 C 0.36202 0.82482 0.99366 0.0
C301 C 0.43867 0.98106 0.05676 0.0
C302 C 0.53832 0.0353 0.14782 0.0
C303 C 0.53481 1.01012 0.17333 0.0
C304 C 0.54892 0.02922 0.19796 0.0
C305 C 0.56794 0.07433 0.19595 0.0
C306 C 0.55788 0.07996 0.1466 0.0
C307 C 0.57287 0.09933 0.17046 0.0
C308 C 0.53479 0.95307 0.0594 0.0
C309 C 0.52084 0.0148 0.12269 0.0
H310 H 0.54106 0.04455 0.89584 0.0
H311 H 0.52523 0.93263 0.86128 0.0
H312 H 0.49651 0.92369 0.94821 0.0
H313 H 0.50054 0.89051 0.90778 0.0
H314 H 0.52055 0.97575 0.17381 0.0
H315 H 0.57768 0.09066 0.21414 0.0
H316 H 0.56101 0.09987 0.12735 0.0
H317 H 0.58734 0.13384 0.16934 0.0
Eu318 Eu 0.03455 0.54329 0.99468 0.0
C319 C 0.86903 0.47348 0.08668 0.0
C320 C 0.85779 0.53522 0.08799 0.0
C321 C 0.79326 0.4631 0.10079 0.0
C322 C 0.88643 0.51747 0.08246 0.0
C323 C 0.8225 0.44575 0.09651 0.0
C324 C 0.81096 0.50778 0.09668 0.0
C325 C 0.83876 0.38643 0.10057 0.0
N326 N 0.89847 0.45793 0.08313 0.0
C327 C 0.88471 0.41537 0.09124 0.0
C328 C 0.8073 0.40161 0.10284 0.0
Eu329 Eu 0.97576 0.50797 0.06674 0.0
N330 N 0.93199 0.54299 0.07452 0.0
C331 C 0.95158 0.58669 0.07318 0.0
C332 C 0.87737 0.57999 0.08542 0.0
C333 C 0.92453 0.6058 0.07816 0.0
H334 H 0.90924 0.40373 0.08992 0.0
H335 H 0.94016 0.64047 0.07648 0.0
H336 H 0.78841 0.52085 0.10088 0.0
H337 H 0.82776 0.35256 0.10623 0.0
H338 H 0.98792 0.60733 0.06765 0.0
H339 H 0.07616 0.41537 0.98207 0.0
H340 H 0.85658 0.5949 0.08951 0.0
H341 H 0.09992 0.64886 0.97286 0.0
H342 H 0.0254 0.4464 0.98898 0.0
H343 H 0.18224 0.70193 0.96 0.0
H344 H 0.75733 0.44235 0.10812 0.0
H345 H 0.16076 0.46253 0.97498 0.0
H346 H 0.22844 0.53743 0.96847 0.0
H347 H 0.77183 0.37924 0.1104 0.0
H348 H 0.25749 0.61564 0.96257 0.0
N349 N 0.08056 0.51071 0.9866 0.0
C350 C 0.06215 0.46756 0.98578 0.0
C351 C 0.1386 0.47642 0.97802 0.0
C352 C 0.15702 0.5209 0.97707 0.0
C353 C 0.09087 0.44973 0.98191 0.0
C354 C 0.12662 0.53731 0.98115 0.0
H355 H 0.2404 0.67734 0.95885 0.0
N356 N 0.11217 0.59555 0.98027 0.0
C357 C 0.17176 0.66811 0.96525 0.0
C358 C 0.14297 0.58117 0.97797 0.0
C359 C 0.12533 0.63811 0.97256 0.0
C360 C 0.20448 0.6541 0.96469 0.0
C361 C 0.19014 0.61006 0.97046 0.0
O362 O 0.02044 0.57618 0.95818 0.0
O363 O 0.97718 0.53594 0.0228 0.0
O364 O 0.92758 0.45823 0.04056 0.0
O365 O 0.97398 0.47381 0.99929 0.0
O366 O 0.01198 0.59338 0.99609 0.0
O367 O 0.01202 0.51275 0.95692 0.0
O368 O 0.98785 0.47342 0.10334 0.0
O369 O 0.03214 0.5142 0.03828 0.0
O370 O 0.08308 0.59189 0.02145 0.0
O371 O 0.0366 0.57675 0.06247 0.0
O372 O 0.99628 0.45665 0.06481 0.0
O373 O 0.00396 0.53936 0.10349 0.0
C374 C 0.97765 0.57092 1.01446 0.0
C375 C 0.03181 0.55945 0.91406 0.0
C376 C 0.02365 0.55508 0.86419 0.0
C377 C 0.00456 0.54169 0.89205 0.0
C378 C 0.07019 0.58713 0.85878 0.0
C379 C 0.07834 0.59064 0.90811 0.0
C380 C 0.09726 0.60458 0.88062 0.0
C381 C 0.93608 0.4489 1.0162 0.0
C382 C 0.01102 0.54576 0.94298 0.0
C383 C 0.22102 0.59397 0.96795 0.0
C384 C 0.20448 0.54943 0.97128 0.0
C385 C 0.03021 0.47851 0.04612 0.0
C386 C 0.98465 0.4949 0.14719 0.0
C387 C 0.01536 0.50229 0.16845 0.0
C388 C 0.99928 0.4935 0.19687 0.0
C389 C 0.95154 0.47632 0.20336 0.0
C390 C 0.93744 0.47786 0.15432 0.0
C391 C 0.92103 0.46841 0.18227 0.0
C392 C 0.07473 0.60119 0.04581 0.0
C393 C 1.00248 0.50536 0.11774 0.0
H394 H 0.96886 0.51689 0.89671 0.0
H395 H 0.0858 0.59868 0.83763 0.0
H396 H 0.10006 0.60443 0.92462 0.0
H397 H 0.13311 0.62896 0.87621 0.0
H398 H 0.05174 0.51504 0.1627 0.0
H399 H 0.93765 0.47013 0.22472 0.0
H400 H 0.91333 0.47209 0.13832 0.0
H401 H 0.88453 0.45551 0.18762 0.0
Eu402 Eu 0.50384 0.48665 0.07434 0.0
C403 C 0.41201 0.55422 0.98191 0.0
C404 C 0.33696 0.49173 0.98153 0.0
C405 C 0.34625 0.56334 0.96858 0.0
C406 C 0.3842 0.51018 0.98644 0.0
C407 C 0.39367 0.58136 0.97229 0.0
C408 C 0.31799 0.51857 0.97305 0.0
C409 C 0.47128 0.64137 0.96736 0.0
N410 N 0.45775 0.57036 0.98492 0.0
C411 C 0.48778 0.61299 0.97654 0.0
C412 C 0.42389 0.62557 0.9656 0.0
Eu413 Eu 0.48399 0.52133 1.00145 0.0
N414 N 0.40393 0.48528 0.99403 0.0
C415 C 0.37876 0.44154 0.99545 0.0
C416 C 0.31052 0.44687 0.98443 0.0
C417 C 0.33165 0.4217 0.99116 0.0
H418 H 0.5245 0.62511 0.97755 0.0
H419 H 0.31171 0.38699 0.99299 0.0
H420 H 0.28175 0.50497 0.96927 0.0
H421 H 0.49513 0.67531 0.96147 0.0
H422 H 0.39438 0.42148 1.00058 0.0
H423 H 0.67867 0.61164 0.08884 0.0
H424 H 0.27409 0.43143 0.98092 0.0
H425 H 0.45582 0.38063 0.09543 0.0
H426 H 0.59635 0.58242 0.08061 0.0
H427 H 0.48029 0.32616 0.10968 0.0
H428 H 0.33139 0.58363 0.96141 0.0
H429 H 0.71187 0.56278 0.09739 0.0
H430 H 0.69927 0.48707 0.10472 0.0
H431 H 0.41118 0.64751 0.95817 0.0
H432 H 0.6452 0.4092 0.11047 0.0
N433 N 0.58291 0.51754 0.08359 0.0
C434 C 0.61014 0.56058 0.08439 0.0
C435 C 0.67562 0.54971 0.09374 0.0
C436 C 0.64687 0.50535 0.09471 0.0
C437 C 0.65697 0.57736 0.08903 0.0
C438 C 0.59991 0.49002 0.08983 0.0
H439 H 0.56328 0.34886 0.11293 0.0
N440 N 0.52434 0.433 0.0897 0.0
C441 C 0.50583 0.35982 0.10484 0.0
C442 C 0.56964 0.44634 0.09297 0.0
C443 C 0.49209 0.39064 0.09679 0.0
C444 C 0.55271 0.37276 0.10658 0.0
C445 C 0.58524 0.41657 0.10116 0.0
O446 O 0.45288 0.45621 0.11014 0.0
O447 O 0.45488 0.49304 0.04542 0.0
O448 O 0.48727 0.57134 0.02743 0.0
O449 O 0.51702 0.5562 0.06875 0.0
O450 O 0.42976 0.43581 0.07227 0.0
O451 O 0.51304 0.51749 0.11215 0.0
O452 O 0.53135 0.55562 0.96409 0.0
O453 O 0.53302 0.51669 0.03082 0.0
O454 O 0.50713 0.44037 0.04737 0.0
O455 O 0.47535 0.45351 1.00652 0.0
O456 O 0.55777 0.57305 1.00303 0.0
O457 O 0.4816 0.4887 0.96548 0.0
C458 C 0.41894 0.45789 0.0537 0.0
C459 C 0.47857 0.47132 0.15501 0.0
C460 C 0.46898 0.47357 0.2051 0.0
C461 C 0.4684 0.48905 0.17684 0.0
C462 C 0.47918 0.43958 0.21086 0.0
C463 C 0.48982 0.43836 0.16157 0.0
C464 C 0.48981 0.42248 0.18929 0.0
C465 C 0.5052 0.5808 0.05172 0.0
C466 C 0.47558 0.48609 0.12559 0.0
C467 C 0.63242 0.43156 0.10454 0.0
C468 C 0.6632 0.4759 0.10129 0.0
C469 C 0.56832 0.55226 0.02267 0.0
C470 C 0.50586 0.53108 0.92086 0.0
C471 C 0.53156 0.52717 0.89895 0.0
C472 C 0.52283 0.53426 0.87065 0.0
C473 C 0.48783 0.54534 0.86515 0.0
C474 C 0.47172 0.54246 0.91443 0.0
C475 C 0.46291 0.54963 0.88677 0.0
C476 C 0.49013 0.43083 0.02292 0.0
C477 C 0.51427 0.5228 0.95039 0.0
H478 H 0.46066 0.51514 0.17172 0.0
H479 H 0.47881 0.42591 0.23212 0.0
H480 H 0.49809 0.4245 0.14531 0.0
H481 H 0.49791 0.39659 0.19411 0.0
H482 H 0.55816 0.51866 0.90406 0.0
H483 H 0.47847 0.54962 0.8441 0.0
H484 H 0.45156 0.54546 0.93084 0.0
H485 H 0.4361 0.55798 0.88204 0.0
Eu486 Eu 0.17174 0.32239 0.33582 0.0
C487 C 0.24169 0.47286 0.40665 0.0
C488 C 0.32427 0.50006 0.40576 0.0
C489 C 0.29286 0.54788 0.41147 0.0
C490 C 0.27925 0.46628 0.40381 0.0
C491 C 0.24798 0.51355 0.41099 0.0
C492 C 0.33089 0.54102 0.40918 0.0
C493 C 0.16516 0.48175 0.41849 0.0
N494 N 0.19882 0.43845 0.40773 0.0
C495 C 0.16081 0.44181 0.41494 0.0
C496 C 0.20893 0.51794 0.41615 0.0
Eu497 Eu 0.19364 0.37199 0.4004 0.0
N498 N 0.27148 0.426 0.40147 0.0
C499 C 0.307 0.41677 0.40254 0.0
C500 C 0.36106 0.49119 0.40547 0.0
C501 C 0.35231 0.44927 0.40409 0.0
H502 H 0.12695 0.41375 0.41711 0.0
H503 H 0.38041 0.44189 0.40439 0.0
H504 H 0.36518 0.56735 0.41078 0.0
H505 H 0.13481 0.48452 0.42327 0.0
H506 H 0.30074 0.38445 0.40173 0.0
H507 H 0.98674 0.26077 0.32731 0.0
H508 H 0.3961 0.51608 0.40719 0.0
H509 H 0.23534 0.27448 0.32604 0.0
H510 H 0.06697 0.31575 0.3315 0.0
H511 H 0.22325 0.2014 0.32229 0.0
H512 H 0.29842 0.57939 0.41471 0.0
H513 H 0.96776 0.18545 0.32563 0.0
H514 H 0.99461 0.13067 0.32591 0.0
H515 H 0.2123 0.54872 0.41938 0.0
H516 H 0.0586 0.11418 0.32562 0.0
N517 N 0.09329 0.27175 0.33334 0.0
C518 C 0.05928 0.28294 0.33115 0.0
C519 C 0.00301 0.20923 0.32808 0.0
C520 C 0.03816 0.19811 0.32964 0.0
C521 C 0.01364 0.25182 0.32877 0.0
C522 C 0.08369 0.23056 0.33218 0.0
H523 H 0.1439 0.14028 0.32425 0.0
N524 N 0.16366 0.25387 0.33208 0.0
C525 C 0.1939 0.2065 0.32512 0.0
C526 C 0.11983 0.22128 0.33174 0.0
C527 C 0.20066 0.24767 0.32732 0.0
C528 C 0.14903 0.17207 0.32631 0.0
C529 C 0.11135 0.17937 0.32893 0.0
O530 O 0.21778 0.34168 0.29829 0.0
O531 O 0.21872 0.37917 0.35622 0.0
O532 O 0.17635 0.41352 0.36905 0.0
O533 O 0.14561 0.37162 0.33305 0.0
O534 O 0.25034 0.35388 0.33375 0.0
O535 O 0.14878 0.33264 0.29448 0.0
O536 O 0.15723 0.35574 0.44158 0.0
O537 O 0.14482 0.31662 0.3796 0.0
O538 O 0.17947 0.27757 0.36945 0.0
O539 O 0.22275 0.32509 0.39995 0.0
O540 O 0.11532 0.34066 0.40471 0.0
O541 O 0.21912 0.35041 0.4371 0.0
C542 C 0.25762 0.38502 0.34749 0.0
C543 C 0.18462 0.32023 0.2563 0.0
C544 C 0.20004 0.32595 0.20592 0.0
C545 C 0.1989 0.34496 0.22968 0.0
C546 C 0.18774 0.28202 0.20959 0.0
C547 C 0.17075 0.27622 0.25901 0.0
C548 C 0.17279 0.25739 0.23587 0.0
C549 C 0.15414 0.40507 0.34602 0.0
C550 C 0.1874 0.34121 0.28121 0.0
C551 C 0.06583 0.14661 0.32764 0.0
C552 C 0.02938 0.15601 0.32779 0.0
C553 C 0.10636 0.31139 0.389 0.0
C554 C 0.20429 0.36881 0.47969 0.0
C555 C 0.20119 0.34368 0.50514 0.0
C556 C 0.21444 0.36258 0.5299 0.0
C557 C 0.23211 0.40751 0.52808 0.0
C558 C 0.22258 0.41332 0.47864 0.0
C559 C 0.23665 0.43252 0.50265 0.0
C560 C 0.20674 0.28789 0.39011 0.0
C561 C 0.18766 0.3483 0.45446 0.0
H562 H 0.20837 0.37872 0.22754 0.0
H563 H 0.18932 0.26644 0.19212 0.0
H564 H 0.15883 0.25637 0.27895 0.0
H565 H 0.16275 0.22351 0.23832 0.0
H566 H 0.18796 0.30945 0.50547 0.0
H567 H 0.24113 0.42363 0.54638 0.0
H568 H 0.22542 0.43321 0.45941 0.0
H569 H 0.25012 0.46689 0.50169 0.0
Eu570 Eu 0.70176 0.87576 0.32844 0.0
C571 C 0.53714 0.80628 0.42063 0.0
C572 C 0.52819 0.86886 0.42382 0.0
C573 C 0.4622 0.79728 0.43532 0.0
C574 C 0.55573 0.85041 0.41733 0.0
C575 C 0.49042 0.77914 0.43029 0.0
C576 C 0.48114 0.84208 0.43227 0.0
C577 C 0.50461 0.71865 0.43312 0.0
N578 N 0.56569 0.78992 0.41657 0.0
C579 C 0.55083 0.74702 0.42407 0.0
C580 C 0.47404 0.73473 0.43584 0.0
Eu581 Eu 0.64348 0.83903 0.40066 0.0
N582 N 0.60148 0.87525 0.40965 0.0
C583 C 0.62228 0.91883 0.40949 0.0
C584 C 0.54909 0.91358 0.42259 0.0
C585 C 0.59639 0.93862 0.41555 0.0
H586 H 0.57471 0.7347 0.4225 0.0
H587 H 0.61302 0.97321 0.41487 0.0
H588 H 0.45939 0.85567 0.43718 0.0
H589 H 0.49274 0.68453 0.43825 0.0
H590 H 0.65875 0.93892 0.40417 0.0
H591 H 0.74379 0.7487 0.31394 0.0
H592 H 0.52925 0.929 0.42759 0.0
H593 H 0.76696 0.98173 0.30752 0.0
H594 H 0.69284 0.77938 0.32148 0.0
H595 H 0.84925 0.03507 0.29484 0.0
H596 H 0.42615 0.77699 0.44253 0.0
H597 H 0.82838 0.79605 0.3071 0.0
H598 H 0.89594 0.871 0.30116 0.0
H599 H 0.43838 0.7128 0.44324 0.0
H600 H 0.9248 0.94915 0.29601 0.0
N601 N 0.74791 0.84361 0.31968 0.0
C602 C 0.72959 0.8006 0.31838 0.0
C603 C 0.80615 0.80978 0.31039 0.0
C604 C 0.82446 0.85417 0.30988 0.0
C605 C 0.75842 0.78298 0.31414 0.0
C606 C 0.79395 0.87036 0.31429 0.0
H607 H 0.90752 1.0107 0.29306 0.0
N608 N 0.7793 0.92841 0.31413 0.0
C609 C 0.83883 1.00121 0.29971 0.0
C610 C 0.81019 0.9142 0.31149 0.0
C611 C 0.79241 0.97106 0.30691 0.0
C612 C 0.87161 0.98732 0.29879 0.0
C613 C 0.85735 0.94326 0.30411 0.0
O614 O 0.68634 0.90859 0.29248 0.0
O615 O 0.64466 0.8682 0.35707 0.0
O616 O 0.59479 0.79057 0.37392 0.0
O617 O 0.64114 0.80644 0.3326 0.0
O618 O 0.67984 0.92614 0.33083 0.0
O619 O 0.68048 0.84638 0.29011 0.0
O620 O 0.65337 0.8024 0.43703 0.0
O621 O 0.69942 0.84537 0.37172 0.0
O622 O 0.75101 0.92337 0.35549 0.0
O623 O 0.7054 0.90715 0.39706 0.0
O624 O 0.66336 0.78744 0.39783 0.0
O625 O 0.67301 0.86909 0.43765 0.0
C626 C 0.64578 0.90364 0.34937 0.0
C627 C 0.69906 0.89424 0.24773 0.0
C628 C 0.69164 0.89075 0.19761 0.0
C629 C 0.67296 0.87529 0.22556 0.0
C630 C 0.73671 0.92583 0.19241 0.0
C631 C 0.74422 0.92844 0.24185 0.0
C632 C 0.76276 0.94422 0.21437 0.0
C633 C 0.60312 0.78156 0.34941 0.0
C634 C 0.67826 0.87909 0.27671 0.0
C635 C 0.88834 0.92735 0.30129 0.0
C636 C 0.8719 0.88285 0.30421 0.0
C637 C 0.69724 0.80944 0.37912 0.0
C638 C 0.65141 0.82382 0.48113 0.0
C639 C 0.68191 0.83171 0.50255 0.0
C640 C 0.66548 0.82306 0.53091 0.0
C641 C 0.61764 0.80561 0.53717 0.0
C642 C 0.6041 0.80655 0.48806 0.0
C643 C 0.58737 0.79729 0.51593 0.0
C644 C 0.74332 0.93189 0.38027 0.0
C645 C 0.66948 0.83408 0.4517 0.0
H646 H 0.63842 0.84828 0.23018 0.0
H647 H 0.75193 0.93934 0.1713 0.0
H648 H 0.76506 0.94333 0.2584 0.0
H649 H 0.79746 0.97099 0.21006 0.0
H650 H 0.7184 0.84471 0.49699 0.0
H651 H 0.60348 0.79953 0.55845 0.0
H652 H 0.58013 0.80042 0.47196 0.0
H653 H 0.55079 0.78421 0.52111 0.0
Eu654 Eu 0.17317 0.81941 0.40892 0.0
C655 C 0.08232 0.88933 0.31735 0.0
C656 C 0.00708 0.82789 0.3149 0.0
C657 C 0.01781 0.90029 0.30369 0.0
C658 C 0.05392 0.84529 0.32062 0.0
C659 C 0.06482 0.91739 0.30839 0.0
C660 C 0.98905 0.85562 0.3068 0.0
C661 C 0.1424 0.97694 0.30682 0.0
N662 N 0.12768 0.90473 0.32145 0.0
C663 C 0.15816 0.94775 0.31532 0.0
C664 C 0.09541 0.96173 0.30362 0.0
Eu665 Eu 0.15208 0.85387 0.33655 0.0
N666 N 0.07259 0.81944 0.32814 0.0
C667 C 0.04672 0.77586 0.32903 0.0
C668 C 0.98001 0.78317 0.31688 0.0
C669 C 1.00001 0.75708 0.32381 0.0
H670 H 0.19454 0.95953 0.31777 0.0
H671 H 0.97951 0.72247 0.32508 0.0
H672 H 0.95312 0.8428 0.30244 0.0
H673 H 0.1665 1.01108 0.30266 0.0
H674 H 0.06153 0.75515 0.33429 0.0
H675 H 0.34875 0.93911 0.42677 0.0
H676 H 0.94387 0.76853 0.31267 0.0
H677 H 0.12125 0.713 0.42964 0.0
H678 H 0.26735 0.91268 0.41706 0.0
H679 H 0.14246 0.65634 0.4439 0.0
H680 H 0.00361 0.92129 0.29697 0.0
H681 H 0.37906 0.88801 0.4355 0.0
H682 H 0.36374 0.81146 0.44165 0.0
H683 H 0.08332 0.98435 0.29679 0.0
H684 H 0.30742 0.73419 0.44631 0.0
N685 N 0.25174 0.84738 0.41899 0.0
C686 C 0.27999 0.88998 0.42065 0.0
C687 C 0.34332 0.87625 0.43093 0.0
C688 C 0.31352 0.83229 0.43093 0.0
C689 C 0.32628 0.90514 0.42618 0.0
C690 C 0.26714 0.81865 0.4252 0.0
H691 H 0.22459 0.676 0.44778 0.0
N692 N 0.19073 0.7637 0.42428 0.0
C693 C 0.16907 0.68966 0.43925 0.0
C694 C 0.23559 0.77535 0.42791 0.0
C695 C 0.15716 0.72176 0.43116 0.0
C696 C 0.21546 0.70088 0.44134 0.0
C697 C 0.24934 0.74427 0.43625 0.0
O698 O 0.12205 0.79109 0.44465 0.0
O699 O 0.12341 0.82507 0.38038 0.0
O700 O 0.14878 0.89893 0.3647 0.0
O701 O 0.19008 0.89025 0.40178 0.0
O702 O 0.09853 0.76858 0.40768 0.0
O703 O 0.18369 0.85137 0.4463 0.0
O704 O 0.19866 0.88855 0.29896 0.0
O705 O 0.20205 0.84951 0.36531 0.0
O706 O 0.17645 0.77348 0.38171 0.0
O707 O 0.14193 0.78543 0.3418 0.0
O708 O 0.22618 0.90586 0.33748 0.0
O709 O 0.1488 0.82149 0.30032 0.0
C710 C 0.08746 0.79004 0.38881 0.0
C711 C 0.14876 0.80587 0.48922 0.0
C712 C 0.13877 0.80752 0.53929 0.0
C713 C 0.13812 0.82312 0.5111 0.0
C714 C 0.14957 0.77391 0.54496 0.0
C715 C 0.16053 0.77322 0.49563 0.0
C716 C 0.16063 0.75722 0.52331 0.0
C717 C 0.17219 0.91174 0.38693 0.0
C718 C 0.14582 0.82088 0.4599 0.0
C719 C 0.29604 0.75759 0.44025 0.0
C720 C 0.32811 0.80157 0.4376 0.0
C721 C 0.23712 0.88519 0.35697 0.0
C722 C 0.17231 0.86419 0.25575 0.0
C723 C 0.19733 0.86008 0.23353 0.0
C724 C 0.18809 0.86737 0.20535 0.0
C725 C 0.15319 0.87874 0.20032 0.0
C726 C 0.13832 0.87594 0.24975 0.0
C727 C 0.12895 0.88321 0.22223 0.0
C728 C 0.15773 0.76317 0.35777 0.0
C729 C 0.18124 0.85577 0.28517 0.0
H730 H 0.12998 0.84897 0.50609 0.0
H731 H 0.14938 0.76027 0.5662 0.0
H732 H 0.16915 0.75973 0.47927 0.0
H733 H 0.16917 0.73161 0.52802 0.0
H734 H 0.22384 0.8513 0.23829 0.0
H735 H 0.14342 0.88316 0.1794 0.0
H736 H 0.11873 0.87915 0.26638 0.0
H737 H 0.10223 0.89182 0.21785 0.0
Eu738 Eu 0.83852 0.65575 0.66924 0.0
C739 C 0.9162 0.805 0.74188 0.0
C740 C 0.99835 0.82985 0.7394 0.0
C741 C 0.96985 0.87887 0.74806 0.0
C742 C 0.95263 0.79737 0.73732 0.0
C743 C 0.92433 0.84578 0.74744 0.0
C744 C 0.00673 0.8707 0.74451 0.0
C745 C 0.84193 0.81641 0.75547 0.0
N746 N 0.87271 0.77162 0.74301 0.0
C747 C 0.83575 0.77627 0.75079 0.0
C748 C 0.88644 0.85147 0.75355 0.0
Eu749 Eu 0.86414 0.7045 0.73425 0.0
N750 N 0.94311 0.75693 0.73383 0.0
C751 C 0.97755 0.74621 0.73405 0.0
C752 C 0.03402 0.81962 0.73782 0.0
C753 C 0.02349 0.77749 0.73545 0.0
H754 H 0.80131 0.74903 0.75269 0.0
H755 H 0.05069 0.76896 0.73496 0.0
H756 H 0.04151 0.89592 0.74649 0.0
H757 H 0.81243 0.82016 0.76085 0.0
H758 H 0.96997 0.71366 0.73274 0.0
H759 H 0.65401 0.59495 0.6595 0.0
H760 H 0.06956 0.84355 0.73944 0.0
H761 H 0.90214 0.60683 0.66264 0.0
H762 H 0.73413 0.64963 0.66448 0.0
H763 H 0.88975 0.53357 0.65931 0.0
H764 H 0.97682 0.91034 0.7524 0.0
H765 H 0.63502 0.51972 0.65738 0.0
H766 H 0.66165 0.4647 0.65808 0.0
H767 H 0.89125 0.88237 0.75773 0.0
H768 H 0.7253 0.44768 0.65908 0.0
N769 N 0.76024 0.60551 0.66622 0.0
C770 C 0.72636 0.61683 0.66395 0.0
C771 C 0.67019 0.54335 0.66014 0.0
C772 C 0.7052 0.53205 0.66203 0.0
C773 C 0.68083 0.58589 0.66111 0.0
C774 C 0.75062 0.56432 0.66499 0.0
H775 H 0.81036 0.47306 0.65962 0.0
N776 N 0.83042 0.58706 0.6663 0.0
C777 C 0.86048 0.53905 0.66112 0.0
C778 C 0.78662 0.55474 0.66521 0.0
C779 C 0.86742 0.58037 0.66299 0.0
C780 C 0.81558 0.50496 0.66135 0.0
C781 C 0.77804 0.51271 0.66279 0.0
O782 O 0.8841 0.67396 0.63169 0.0
O783 O 0.88708 0.7124 0.68947 0.0
O784 O 0.84325 0.74502 0.70417 0.0
O785 O 0.81314 0.7051 0.66712 0.0
O786 O 0.91717 0.68634 0.66646 0.0
O787 O 0.81551 0.66614 0.62789 0.0
O788 O 0.83741 0.69659 0.77745 0.0
O789 O 0.81264 0.65162 0.71293 0.0
O790 O 0.84024 0.60901 0.70393 0.0
O791 O 0.89179 0.65667 0.73128 0.0
O792 O 0.78572 0.67383 0.74081 0.0
O793 O 0.88321 0.67193 0.76847 0.0
C794 C 0.92543 0.71784 0.68008 0.0
C795 C 0.85054 0.65237 0.58986 0.0
C796 C 0.86538 0.65712 0.53949 0.0
C797 C 0.86408 0.67653 0.56303 0.0
C798 C 0.85379 0.61337 0.54358 0.0
C799 C 0.83766 0.60855 0.59298 0.0
C800 C 0.83962 0.58931 0.57005 0.0
C801 C 0.82128 0.73757 0.68095 0.0
C802 C 0.85384 0.67387 0.61461 0.0
C803 C 0.73261 0.4802 0.66087 0.0
C804 C 0.69635 0.48991 0.66028 0.0
C805 C 0.77489 0.64644 0.72347 0.0
C806 C 0.88818 0.69651 0.81189 0.0
C807 C 0.87278 0.67393 0.83903 0.0
C808 C 0.89917 0.69005 0.86182 0.0
C809 C 0.94141 0.72859 0.85691 0.0
C810 C 0.9302 0.7351 0.80772 0.0
C811 C 0.95669 0.75091 0.83003 0.0
C812 C 0.87016 0.61804 0.72316 0.0
C813 C 0.8614 0.67893 0.78792 0.0
H814 H 0.87306 0.71019 0.56058 0.0
H815 H 0.85553 0.59751 0.52629 0.0
H816 H 0.82682 0.58922 0.61312 0.0
H817 H 0.83033 0.55559 0.57283 0.0
H818 H 0.84003 0.64437 0.84243 0.0
H819 H 0.96268 0.74152 0.8739 0.0
H820 H 0.94289 0.75295 0.78726 0.0
H821 H 0.9892 0.78062 0.82646 0.0
Eu822 Eu 0.36929 0.20838 0.66272 0.0
C823 C 0.20395 0.13598 0.75416 0.0
C824 C 0.1919 0.19699 0.75711 0.0
C825 C 0.12763 0.12434 0.76824 0.0
C826 C 0.22094 0.18 0.75082 0.0
C827 C 0.15732 0.10763 0.76348 0.0
C828 C 0.14497 0.16895 0.76523 0.0
C829 C 0.17424 0.04876 0.76629 0.0
N830 N 0.23379 0.12094 0.75024 0.0
C831 C 0.22029 0.07825 0.75756 0.0
C832 C 0.14241 0.06344 0.76887 0.0
Eu833 Eu 0.31112 0.17245 0.73488 0.0
N834 N 0.26653 0.2062 0.74323 0.0
C835 C 0.28576 0.24966 0.74303 0.0
C836 C 0.21121 0.2416 0.75598 0.0
C837 C 0.25837 0.26801 0.74901 0.0
H838 H 0.24522 0.06708 0.75625 0.0
H839 H 0.27374 0.30252 0.74837 0.0
H840 H 0.12205 0.18145 0.76987 0.0
H841 H 0.16346 0.01483 0.77132 0.0
H842 H 0.32218 0.27061 0.73787 0.0
H843 H 0.41128 0.08082 0.64951 0.0
H844 H 0.19018 0.25591 0.76091 0.0
H845 H 0.43371 0.31367 0.64014 0.0
H846 H 0.36038 0.11161 0.65672 0.0
H847 H 0.51569 0.36699 0.62652 0.0
H848 H 0.09162 0.10309 0.77517 0.0
H849 H 0.49581 0.12822 0.64206 0.0
H850 H 0.56324 0.2033 0.63507 0.0
H851 H 0.10686 0.04063 0.77601 0.0
H852 H 0.59185 0.28147 0.62881 0.0
N853 N 0.41539 0.17603 0.65414 0.0
C854 C 0.39708 0.13289 0.65334 0.0
C855 C 0.47359 0.14201 0.64521 0.0
C856 C 0.49185 0.18649 0.64414 0.0
C857 C 0.42589 0.11518 0.6493 0.0
C858 C 0.46136 0.20274 0.64839 0.0
H859 H 0.57422 0.34288 0.625 0.0
N860 N 0.44648 0.26066 0.64744 0.0
C861 C 0.5055 0.33325 0.63189 0.0
C862 C 0.47745 0.24653 0.645 0.0
C863 C 0.45924 0.30309 0.6396 0.0
C864 C 0.53844 0.31952 0.63113 0.0
C865 C 0.52445 0.27556 0.63711 0.0
O866 O 0.35465 0.24107 0.62634 0.0
O867 O 0.31259 0.20158 0.69126 0.0
O868 O 0.26218 0.1239 0.70824 0.0
O869 O 0.30904 0.13892 0.66733 0.0
O870 O 0.34763 0.25903 0.66466 0.0
O871 O 0.34468 0.17702 0.62547 0.0
O872 O 0.32944 0.14066 0.77003 0.0
O873 O 0.36762 0.1792 0.70624 0.0
O874 O 0.41836 0.25684 0.68931 0.0
O875 O 0.37222 0.24132 0.73058 0.0
O876 O 0.33149 0.12115 0.73243 0.0
O877 O 0.33105 0.20069 0.7738 0.0
C878 C 0.31361 0.23691 0.68326 0.0
C879 C 0.36301 0.22255 0.58224 0.0
C880 C 0.35147 0.21655 0.53273 0.0
C881 C 0.3342 0.20412 0.56096 0.0
C882 C 0.39799 0.24817 0.52627 0.0
C883 C 0.40943 0.2533 0.57525 0.0
C884 C 0.42668 0.26617 0.5474 0.0
C885 C 0.27077 0.11443 0.68397 0.0
C886 C 0.34379 0.21003 0.61147 0.0
C887 C 0.55549 0.25968 0.63447 0.0
C888 C 0.53921 0.21517 0.63801 0.0
C889 C 0.36554 0.14333 0.7138 0.0
C890 C 0.31764 0.1524 0.81565 0.0
C891 C 0.34656 0.16705 0.83763 0.0
C892 C 0.33021 0.1484 0.86571 0.0
C893 C 0.28442 0.11446 0.87098 0.0
C894 C 0.27182 0.1198 0.82186 0.0
C895 C 0.25548 0.10081 0.84931 0.0
C896 C 0.41026 0.26593 0.71381 0.0
C897 C 0.33645 0.16923 0.78633 0.0
H898 H 0.29861 0.17966 0.5665 0.0
H899 H 0.41231 0.25916 0.50484 0.0
H900 H 0.4323 0.2676 0.59122 0.0
H901 H 0.46244 0.29024 0.54216 0.0
H902 H 0.38155 0.19309 0.8327 0.0
H903 H 0.27066 0.09802 0.89188 0.0
H904 H 0.24881 0.10846 0.80552 0.0
H905 H 0.22027 0.07504 0.85379 0.0
Eu906 Eu 0.84089 0.1508 0.74336 0.0
C907 C 0.75041 0.22152 0.65158 0.0
C908 C 0.6747 0.16055 0.64949 0.0
C909 C 0.68637 0.23324 0.63794 0.0
C910 C 0.72157 0.17755 0.65508 0.0
C911 C 0.73338 0.24992 0.64255 0.0
C912 C 0.65714 0.18862 0.64128 0.0
C913 C 0.81131 0.30891 0.64083 0.0
N914 N 0.79573 0.23649 0.65564 0.0
C915 C 0.82659 0.2794 0.64943 0.0
C916 C 0.7644 0.29415 0.63763 0.0
Eu917 Eu 0.8194 0.18517 0.67096 0.0
N918 N 0.73979 0.15139 0.66274 0.0
C919 C 0.71339 0.1078 0.66389 0.0
C920 C 0.64712 0.11586 0.65171 0.0
C921 C 0.66665 0.0894 0.65879 0.0
H922 H 0.86292 0.29084 0.65188 0.0
H923 H 0.64575 0.0548 0.66026 0.0
H924 H 0.6212 0.17611 0.63702 0.0
H925 H 0.83573 0.34297 0.63658 0.0
H926 H 0.72777 0.08677 0.66927 0.0
H927 H 0.01855 0.26733 0.75981 0.0
H928 H 0.61096 0.10152 0.6476 0.0
H929 H 0.78627 0.04442 0.76457 0.0
H930 H 0.93715 0.2428 0.75082 0.0
H931 H 0.80535 0.98638 0.77895 0.0
H932 H 0.67252 0.2545 0.63116 0.0
H933 H 0.04667 0.21453 0.76843 0.0
H934 H 0.02879 0.13723 0.77504 0.0
H935 H 0.75267 0.31703 0.63073 0.0
H936 H 0.97057 0.06048 0.78032 0.0
N937 N 0.91945 0.17694 0.75293 0.0
C938 C 0.94887 0.2194 0.75434 0.0
C939 C 0.01095 0.20362 0.76415 0.0
C940 C 0.97994 0.15984 0.76451 0.0
C941 C 0.99514 0.23347 0.75947 0.0
C942 C 0.93366 0.14733 0.75913 0.0
H943 H 0.88694 1.00389 0.78241 0.0
N944 N 0.85639 0.0938 0.75883 0.0
C945 C 0.83266 0.01939 0.77409 0.0
C946 C 0.90104 0.10431 0.76218 0.0
C947 C 0.82197 0.05227 0.76594 0.0
C948 C 0.87875 0.02939 0.77594 0.0
C949 C 0.91359 0.07239 0.77054 0.0
O950 O 0.7901 0.12441 0.77926 0.0
O951 O 0.79124 0.15709 0.71495 0.0
O952 O 0.81813 0.23113 0.69907 0.0
O953 O 0.85977 0.222 0.73584 0.0
O954 O 0.76581 0.10083 0.74255 0.0
O955 O 0.85339 0.18334 0.78061 0.0
O956 O 0.86576 0.21917 0.63317 0.0
O957 O 0.86939 0.18046 0.69957 0.0
O958 O 0.84303 0.10436 0.71618 0.0
O959 O 0.80794 0.1164 0.67658 0.0
O960 O 0.89377 0.23658 0.67141 0.0
O961 O 0.81598 0.15201 0.6351 0.0
C962 C 0.75501 0.12243 0.72361 0.0
C963 C 0.81755 0.13879 0.82376 0.0
C964 C 0.80709 0.14011 0.87389 0.0
C965 C 0.80684 0.156 0.84568 0.0
C966 C 0.8175 0.10623 0.8795 0.0
C967 C 0.82893 0.1059 0.83015 0.0
C968 C 0.8286 0.0896 0.85783 0.0
C969 C 0.84247 0.24399 0.72097 0.0
C970 C 0.81503 0.15401 0.79436 0.0
C971 C 0.96012 0.08454 0.77424 0.0
C972 C 0.99328 0.12823 0.77122 0.0
C973 C 0.90464 0.21586 0.6909 0.0
C974 C 0.83973 0.19367 0.59018 0.0
C975 C 0.86536 0.1896 0.56827 0.0
C976 C 0.85633 0.1962 0.53995 0.0
C977 C 0.82095 0.2068 0.53447 0.0
C978 C 0.80532 0.20469 0.58372 0.0
C979 C 0.79611 0.21123 0.55607 0.0
C980 C 0.82382 0.09408 0.69237 0.0
C981 C 0.84846 0.18599 0.61974 0.0
H982 H 0.79896 0.18202 0.84068 0.0
H983 H 0.81694 0.09229 0.90071 0.0
H984 H 0.83759 0.09243 0.81378 0.0
H985 H 0.83684 0.06379 0.86252 0.0
H986 H 0.89219 0.1814 0.57338 0.0
H987 H 0.81129 0.21064 0.51345 0.0
H988 H 0.7853 0.20789 0.60012 0.0
H989 H 0.76906 0.21926 0.55133 0.0
C990 C 0.35124 0.86338 0.08059 0.0
C991 C 0.30918 0.86421 0.08144 0.0
H992 H 0.4246 0.89912 0.07078 0.0
C993 C 0.31005 0.90343 0.07241 0.0
H994 H 0.35162 0.83354 0.08713 0.0
C995 C 0.35201 0.94106 0.06357 0.0
C996 C 0.39395 0.94004 0.06226 0.0
H997 H 0.2782 0.90483 0.07165 0.0
H998 H 0.3517 0.97107 0.05753 0.0
C999 C 0.39293 0.90067 0.07079 0.0
C1000 C 0.10018 0.42255 0.05912 0.0
C1001 C 0.14405 0.45734 0.06106 0.0
H1002 H 0.0293 0.40245 0.05242 0.0
C1003 C 0.15179 0.49955 0.05437 0.0
H1004 H 0.09405 0.38983 0.06404 0.0
C1005 C 0.11503 0.50686 0.04769 0.0
C1006 C 0.07048 0.47191 0.0473 0.0
H1007 H 0.1856 0.52659 0.0559 0.0
H1008 H 0.12096 0.53964 0.04424 0.0
C1009 C 0.0635 0.42977 0.05247 0.0
C1010 C 0.51946 0.66636 0.09578 0.0
C1011 C 0.54181 0.70409 0.07643 0.0
H1012 H 0.49062 0.59762 0.10311 0.0
C1013 C 0.55095 0.70082 0.04874 0.0
H1014 H 0.51219 0.66816 0.11726 0.0
C1015 C 0.53748 0.66055 0.04044 0.0
C1016 C 0.51572 0.62288 0.05988 0.0
H1017 H 0.5694 0.72956 0.03367 0.0
H1018 H 0.54589 0.6591 0.01913 0.0
C1019 C 0.50704 0.62617 0.08767 0.0
C1020 C 0.85766 0.36426 0.97226 0.0
C1021 C 0.83931 0.32624 0.99152 0.0
H1022 H 0.90309 0.43274 0.96483 0.0
C1023 C 0.85288 0.32914 0.01897 0.0
H1024 H 0.84795 0.36301 0.95096 0.0
C1025 C 0.88331 0.36907 0.0271 0.0
C1026 C 0.90203 0.40699 1.00779 0.0
H1027 H 0.84058 0.30029 0.034 0.0
H1028 H 0.89356 0.36999 0.04826 0.0
C1029 C 0.88911 0.40411 0.9802 0.0
C1030 C 0.66973 0.53329 1.01691 0.0
C1031 C 0.70548 0.57577 1.01037 0.0
H1032 H 0.59706 0.49225 0.02612 0.0
C1033 C 0.69681 0.61008 1.012 0.0
H1034 H 0.67616 0.50661 1.01555 0.0
C1035 C 0.65203 0.6021 0.01802 0.0
C1036 C 0.61566 0.55967 0.02285 0.0
H1037 H 0.72438 0.64299 1.00714 0.0
H1038 H 0.64543 0.62901 1.01766 0.0
C1039 C 0.62481 0.52521 0.02297 0.0
C1040 C 0.48247 0.16116 0.9649 0.0
C1041 C 0.45971 0.17478 0.98246 0.0
H1042 H 0.50911 0.1175 0.96121 0.0
C1043 C 0.44148 0.15118 1.00904 0.0
H1044 H 0.49732 0.17919 0.94448 0.0
C1045 C 0.44885 0.11673 0.01874 0.0
C1046 C 0.47409 0.10474 1.00193 0.0
H1047 H 0.42339 0.16084 0.02281 0.0
H1048 H 0.43578 0.10012 0.03968 0.0
C1049 C 0.48939 0.12613 0.97452 0.0
C1050 C 0.66838 0.17222 0.99358 0.0
C1051 C 0.7121 0.17543 0.98916 0.0
H1052 H 0.59633 0.13127 1.00619 0.0
C1053 C 0.71538 0.13744 0.99401 0.0
H1054 H 0.66421 0.20048 0.9894 0.0
C1055 C 0.67613 0.09745 1.00295 0.0
C1056 C 0.63274 0.0945 1.00805 0.0
H1057 H 0.7485 0.13873 0.99135 0.0
H1058 H 0.67981 0.06879 1.00628 0.0
C1059 C 0.62936 0.13243 1.00316 0.0
C1060 C 0.85312 0.54181 1.007 0.0
C1061 C 0.85723 0.58239 0.99826 0.0
H1062 H 0.88814 0.50626 0.0195 0.0
C1063 C 0.90061 0.61924 0.99664 0.0
H1064 H 0.81982 0.51304 1.00829 0.0
C1065 C 0.93961 0.61551 1.00321 0.0
C1066 C 0.93563 0.57489 1.01172 0.0
H1067 H 0.90417 0.65084 0.99051 0.0
H1068 H 0.97301 0.64432 1.0013 0.0
C1069 C 0.89204 0.53803 1.01364 0.0
C1070 C 0.49848 0.35932 0.97423 0.0
C1071 C 0.47808 0.31901 0.99104 0.0
H1072 H 0.51787 0.42624 0.9712 0.0
C1073 C 0.46348 0.31614 0.01892 0.0
H1074 H 0.51069 0.36257 0.95283 0.0
C1075 C 0.4686 0.35271 0.02964 0.0
C1076 C 0.48779 0.3927 1.01256 0.0
H1077 H 0.44677 0.28533 0.03216 0.0
H1078 H 0.45565 0.34925 0.05086 0.0
C1079 C 0.50277 0.39569 0.98477 0.0
C1080 C 0.16209 0.71933 0.04618 0.0
C1081 C 0.17418 0.71982 0.07397 0.0
H1082 H 0.12116 0.68172 1.01559 0.0
C1083 C 0.15398 0.68067 0.09218 0.0
H1084 H 0.17603 0.74901 0.03183 0.0
C1085 C 0.12179 0.64221 0.08302 0.0
C1086 C 0.1099 0.64176 0.0552 0.0
H1087 H 0.16293 0.67991 0.11362 0.0
H1088 H 0.1064 0.61271 0.09765 0.0
C1089 C 0.13063 0.68072 0.03686 0.0
C1090 C 0.32548 0.48775 0.06286 0.0
C1091 C 0.28708 0.44734 0.07177 0.0
H1092 H 0.39734 0.52286 0.04948 0.0
C1093 C 0.29161 0.41024 0.07286 0.0
H1094 H 0.32258 0.51673 0.06198 0.0
C1095 C 0.33428 0.41362 0.06562 0.0
C1096 C 0.37283 0.45412 0.0569 0.0
H1097 H 0.26211 0.37874 0.07908 0.0
H1098 H 0.33738 0.38466 0.06719 0.0
C1099 C 0.36801 0.49116 0.05547 0.0
C1100 C 0.59593 0.88912 0.08218 0.0
C1101 C 0.55813 0.84721 0.08782 0.0
H1102 H 0.61825 0.95639 0.06917 0.0
C1103 C 0.51336 0.84185 0.08776 0.0
H1104 H 0.63084 0.89403 0.08205 0.0
C1105 C 0.50624 0.87681 0.07968 0.0
C1106 C 0.5437 0.91845 0.07256 0.0
H1107 H 0.4837 0.81011 0.09275 0.0
H1108 H 0.47119 0.87083 0.07819 0.0
C1109 C 0.58875 0.92466 0.07481 0.0
C1110 C 0.97918 0.23131 0.40712 0.0
C1111 C 0.97983 0.19297 0.41665 0.0
H1112 H 0.01865 0.29859 0.39096 0.0
C1113 C 0.02256 0.19333 0.41534 0.0
H1114 H 0.94678 0.23171 0.40656 0.0
C1115 C 0.06348 0.23099 0.40467 0.0
C1116 C 0.06279 0.26952 0.39564 0.0
H1117 H 0.02405 0.1641 0.4222 0.0
H1118 H 0.09578 0.23026 0.40431 0.0
C1119 C 0.02021 0.26928 0.39741 0.0
C1120 C 0.81855 0.82917 0.38702 0.0
C1121 C 0.81043 0.78675 0.39313 0.0
H1122 H 0.78828 0.86992 0.37766 0.0
C1123 C 0.76641 0.75239 0.39087 0.0
H1124 H 0.85243 0.85591 0.38885 0.0
C1125 C 0.72996 0.76016 0.38453 0.0
C1126 C 0.73732 0.80246 0.37997 0.0
H1127 H 0.75993 0.71951 0.39537 0.0
H1128 H 0.69565 0.7331 0.38426 0.0
C1129 C 0.78203 0.83704 0.38063 0.0
C1130 C 0.15761 1.00656 0.40212 0.0
C1131 C 0.20048 0.03288 0.41228 0.0
H1132 H 0.11516 0.94761 0.38561 0.0
C1133 C 0.23435 0.01992 0.41255 0.0
H1134 H 0.13079 0.01563 0.4018 0.0
C1135 C 0.22498 0.98066 0.40426 0.0
C1136 C 0.18191 0.95388 0.39469 0.0
H1137 H 0.26815 0.04014 0.4194 0.0
H1138 H 0.25174 0.97148 0.40508 0.0
C1139 C 0.1486 0.96761 0.39304 0.0
C1140 C 0.51823 0.66237 0.35122 0.0
C1141 C 0.50566 0.66007 0.32355 0.0
H1142 H 0.55863 0.70227 0.38098 0.0
C1143 C 0.52486 0.69843 0.30456 0.0
H1144 H 0.50518 0.63338 0.36617 0.0
C1145 C 0.55653 0.73787 0.31289 0.0
C1146 C 0.56873 0.74009 0.34062 0.0
H1147 H 0.51554 0.69784 0.28318 0.0
H1148 H 0.57119 0.76674 0.29769 0.0
C1149 C 0.54896 0.70191 0.35971 0.0
C1150 C 0.36596 0.94809 0.35231 0.0
C1151 C 0.37747 0.91589 0.34919 0.0
H1152 H 0.31127 0.96314 0.35708 0.0
C1153 C 0.34297 0.87261 0.35309 0.0
H1154 H 0.39249 0.98155 0.34972 0.0
C1155 C 0.2968 0.86193 0.35781 0.0
C1156 C 0.28503 0.89458 0.35865 0.0
H1157 H 0.35155 0.84749 0.35068 0.0
H1158 H 0.27027 0.82859 0.35903 0.0
C1159 C 0.31987 0.93759 0.35652 0.0
C1160 C 0.14765 0.49384 0.29819 0.0
C1161 C 0.12337 0.50564 0.31601 0.0
H1162 H 0.17626 0.45184 0.29377 0.0
C1163 C 0.10409 0.48025 0.34199 0.0
H1164 H 0.16304 0.51313 0.27815 0.0
C1165 C 0.11207 0.44596 0.35101 0.0
C1166 C 0.13895 0.43587 0.33409 0.0
H1167 H 0.08474 0.48843 0.3559 0.0
H1168 H 0.09833 0.42808 0.37161 0.0
C1169 C 0.15526 0.45898 0.30715 0.0
C1170 C 0.38209 0.47214 0.32708 0.0
C1171 C 0.3779 0.50955 0.32144 0.0
H1172 H 0.34738 0.40357 0.33963 0.0
C1173 C 0.33364 0.50556 0.32444 0.0
H1174 H 0.41567 0.47415 0.32511 0.0
C1175 C 0.29487 0.46555 0.33388 0.0
C1176 C 0.29914 0.42818 0.33971 0.0
H1177 H 0.32902 0.53349 0.31935 0.0
H1178 H 0.26137 0.46372 0.33597 0.0
C1179 C 0.34309 0.43186 0.33568 0.0
C1180 C 0.52268 0.8797 0.34145 0.0
C1181 C 0.52849 0.92145 0.33593 0.0
H1182 H 0.55549 0.84105 0.35077 0.0
C1183 C 0.57207 0.95683 0.33747 0.0
H1184 H 0.48898 0.85202 0.34085 0.0
C1185 C 0.61 0.95078 0.3429 0.0
C1186 C 0.60454 0.90911 0.34784 0.0
H1187 H 0.5766 0.98907 0.33484 0.0
H1188 H 0.6437 0.97866 0.34317 0.0
C1189 C 0.56047 0.8735 0.34742 0.0
C1190 C 0.12667 0.64723 0.35434 0.0
C1191 C 0.14204 0.64962 0.32674 0.0
H1192 H 0.11916 0.68131 0.38572 0.0
C1193 C 0.16441 0.68997 0.30995 0.0
H1194 H 0.10849 0.61644 0.36752 0.0
C1195 C 0.16989 0.72692 0.32022 0.0
C1196 C 0.15414 0.72442 0.34772 0.0
H1197 H 0.17698 0.69273 0.28871 0.0
H1198 H 0.18639 0.7575 0.30666 0.0
C1199 C 0.13289 0.68435 0.36478 0.0
C1200 C 0.83256 0.04919 0.38171 0.0
C1201 C 0.84464 0.04877 0.40948 0.0
H1202 H 0.79093 0.01293 0.35086 0.0
C1203 C 0.82372 1.00931 0.42736 0.0
H1204 H 0.84703 0.07917 0.36763 0.0
C1205 C 0.79093 0.9714 0.41787 0.0
C1206 C 0.77906 0.97185 0.39005 0.0
H1207 H 0.83255 1.0079 0.4488 0.0
H1208 H 0.77504 0.94163 0.43225 0.0
C1209 C 0.80042 1.01116 0.37208 0.0
C1210 C 0.95929 0.74069 0.40632 0.0
C1211 C 0.95389 0.77736 0.40504 0.0
H1212 H 0.00623 0.71613 0.4014 0.0
C1213 C 0.99211 0.81808 0.39659 0.0
H1214 H 0.93001 0.70895 0.41226 0.0
C1215 C 0.03521 0.82221 0.38982 0.0
C1216 C 0.04089 0.7856 0.39137 0.0
H1217 H 0.98865 0.84678 0.39563 0.0
H1218 H 0.06423 0.85413 0.38428 0.0
C1219 C 1.00254 0.74479 0.39967 0.0
C1220 C 0.25347 0.21017 0.39828 0.0
C1221 C 0.22347 0.17948 0.42013 0.0
H1222 H 0.27221 0.2697 0.37189 0.0
C1223 C 0.19216 0.18772 0.43432 0.0
H1224 H 0.27771 0.20417 0.38709 0.0
C1225 C 0.18922 0.22514 0.42586 0.0
C1226 C 0.21767 0.25481 0.40313 0.0
H1227 H 0.16844 0.16412 0.451 0.0
H1228 H 0.16302 0.22971 0.43606 0.0
C1229 C 0.25044 0.24752 0.38974 0.0
C1230 C 0.68812 0.52892 0.74822 0.0
C1231 C 0.64582 0.52933 0.74819 0.0
H1232 H 0.76178 0.56522 0.73957 0.0
C1233 C 0.64638 0.56816 0.73832 0.0
H1234 H 0.68872 0.4994 0.75554 0.0
C1235 C 0.68825 0.60585 0.72942 0.0
C1236 C 0.73043 0.60523 0.72889 0.0
H1237 H 0.61437 0.5692 0.73701 0.0
H1238 H 0.68768 0.63558 0.72272 0.0
C1239 C 0.72981 0.5663 0.7385 0.0
C1240 C 0.43515 0.08681 0.72622 0.0
C1241 C 0.47916 0.12139 0.72819 0.0
H1242 H 0.36428 0.0671 0.71972 0.0
C1243 C 0.48711 0.1637 0.72164 0.0
H1244 H 0.4288 0.054 0.73104 0.0
C1245 C 0.45045 0.17129 0.71511 0.0
C1246 C 0.40575 0.13652 0.71478 0.0
H1247 H 0.52099 0.19061 0.72321 0.0
H1248 H 0.45658 0.20413 0.71177 0.0
C1249 C 0.39857 0.0943 0.71976 0.0
C1250 C 0.83368 0.34172 0.73549 0.0
C1251 C 0.87809 0.36802 0.74383 0.0
H1252 H 0.7877 0.28184 0.72115 0.0
C1253 C 0.9109 0.35386 0.74333 0.0
H1254 H 0.80762 0.35169 0.7359 0.0
C1255 C 0.89911 0.31354 0.7359 0.0
C1256 C 0.85459 0.28696 0.72802 0.0
H1257 H 0.94571 0.37397 0.74883 0.0
H1258 H 0.92508 0.3034 0.73598 0.0
C1259 C 0.82222 0.30174 0.72726 0.0
C1260 C 0.1868 0.99508 0.68537 0.0
C1261 C 0.17343 0.99314 0.65786 0.0
H1262 H 0.22803 0.03461 0.71503 0.0
C1263 C 0.19177 0.03174 0.63914 0.0
H1264 H 0.1744 0.96588 0.70006 0.0
C1265 C 0.22332 0.07112 0.64759 0.0
C1266 C 0.23635 0.07299 0.67517 0.0
H1267 H 0.18186 0.03137 0.61789 0.0
H1268 H 0.23732 0.10021 0.63261 0.0
C1269 C 0.21755 0.03454 0.69396 0.0
C1270 C 0.00991 0.20283 0.6857 0.0
C1271 C 0.04441 0.24611 0.68146 0.0
H1272 H 0.93725 0.15892 0.69255 0.0
C1273 C 0.03328 0.27838 0.68508 0.0
H1274 H 0.01825 0.17767 0.68298 0.0
C1275 C 0.98739 0.26797 0.69003 0.0
C1276 C 0.95242 0.22499 0.69238 0.0
H1277 H 0.05988 0.31184 0.68225 0.0
H1278 H 0.97896 0.29359 0.69087 0.0
C1279 C 0.96392 0.19223 0.69116 0.0
C1280 C 0.81151 0.82419 0.63279 0.0
C1281 C 0.78866 0.83694 0.65092 0.0
H1282 H 0.83952 0.78183 0.62817 0.0
C1283 C 0.77157 0.81302 0.67756 0.0
H1284 H 0.82523 0.84232 0.61224 0.0
C1285 C 0.78075 0.7796 0.68689 0.0
C1286 C 0.80611 0.76855 0.66949 0.0
H1287 H 0.75318 0.82185 0.69171 0.0
H1288 H 0.76894 0.76302 0.70796 0.0
C1289 C 0.81989 0.7899 0.64196 0.0
C1290 C 1.00202 0.83863 0.65816 0.0
C1291 C 0.04619 0.84251 0.65484 0.0
H1292 H 0.92974 0.79681 0.66968 0.0
C1293 C 0.05005 0.80482 0.65946 0.0
H1294 H 0.99757 0.86675 0.65374 0.0
C1295 C 0.01086 0.76442 0.66746 0.0
C1296 C 0.96708 0.76088 0.67202 0.0
H1297 H 0.08351 0.80667 0.65723 0.0
H1298 H 0.01493 0.73597 0.67075 0.0
C1299 C 0.96311 0.79849 0.66712 0.0
C1300 C 0.1906 0.21164 0.67348 0.0
C1301 C 0.19595 0.25319 0.6675 0.0
H1302 H 0.2238 0.17365 0.68395 0.0
C1303 C 0.23918 0.28892 0.66925 0.0
H1304 H 0.15713 0.18371 0.6728 0.0
C1305 C 0.27719 0.28338 0.67549 0.0
C1306 C 0.27216 0.2419 0.68099 0.0
H1307 H 0.24332 0.32102 0.66629 0.0
H1308 H 0.31064 0.3115 0.67595 0.0
C1309 C 0.22845 0.20597 0.68022 0.0
C1310 C 0.79176 0.97818 0.68857 0.0
C1311 C 0.80662 0.98063 0.66084 0.0
H1312 H 0.78521 0.01226 0.72024 0.0
C1313 C 0.82886 0.02094 0.64405 0.0
H1314 H 0.77369 0.94737 0.70173 0.0
C1315 C 0.83489 0.0579 0.65451 0.0
C1316 C 0.81976 0.05535 0.68217 0.0
H1317 H 0.84104 0.02368 0.62271 0.0
H1318 H 0.85137 0.08851 0.64099 0.0
C1319 C 0.7985 0.01529 0.69918 0.0
C1320 C 0.4896 0.34586 0.75997 0.0
C1321 C 0.51063 0.38471 0.74145 0.0
H1322 H 0.44104 0.27811 0.76587 0.0
C1323 C 0.49898 0.38385 0.71358 0.0
H1324 H 0.49817 0.3454 0.78149 0.0
C1325 C 0.46712 0.3452 0.70449 0.0
C1326 C 0.44557 0.30655 0.72312 0.0
H1327 H 0.51354 0.41331 0.69899 0.0
H1328 H 0.45802 0.34598 0.68314 0.0
C1329 C 0.45703 0.30736 0.75101 0.0
C1330 C 0.66075 0.1519 0.7312 0.0
C1331 C 0.6223 0.11145 0.73996 0.0
H1332 H 0.73283 0.18721 0.71859 0.0
C1333 C 0.62716 0.07447 0.74142 0.0
H1334 H 0.65768 0.18082 0.73006 0.0
C1335 C 0.67011 0.07802 0.73469 0.0
C1336 C 0.70872 0.11857 0.72614 0.0
H1337 H 0.59769 0.04292 0.74757 0.0
H1338 H 0.6734 0.04914 0.73659 0.0
C1339 C 0.70357 0.15548 0.72436 0.0
C1340 C 0.92865 0.55326 0.75064 0.0
C1341 C 0.89171 0.51103 0.7519 0.0
H1342 H 0.95078 0.62109 0.741 0.0
C1343 C 0.84764 0.5051 0.7466 0.0
H1344 H 0.96309 0.5587 0.75446 0.0
C1345 C 0.84097 0.54014 0.73817 0.0
C1346 C 0.87788 0.58241 0.73578 0.0
H1347 H 0.81845 0.47298 0.74802 0.0
H1348 H 0.80686 0.53387 0.73276 0.0
C1349 C 0.92166 0.58885 0.7429 0.0
C1350 C 0.48719 0.9399 0.25891 0.0
C1351 C 0.50884 0.96103 0.28146 0.0
H1352 H 0.48097 0.94498 0.21512 0.0
C1353 C 0.54918 1.00081 0.27612 0.0
H1354 H 0.45559 0.90934 0.26269 0.0
C1355 C 0.56538 0.02078 0.24869 0.0
C1356 C 0.53992 1.00258 0.22604 0.0
H1357 H 0.5659 0.01833 0.29303 0.0
H1358 H 0.59611 0.05197 0.24557 0.0
C1359 C 0.50196 0.96064 0.23152 0.0
C1360 C 0.04565 0.49779 0.26913 0.0
C1361 C 0.08719 0.53675 0.26464 0.0
H1362 H 0.98581 0.45254 0.25117 0.0
C1363 C 0.10298 0.55763 0.23723 0.0
H1364 H 0.03271 0.48125 0.29013 0.0
C1365 C 0.07568 0.54234 0.21501 0.0
C1366 C 0.03203 0.5052 0.2196 0.0
H1367 H 0.13499 0.58781 0.23337 0.0
H1368 H 0.08762 0.5615 0.19463 0.0
C1369 C 0.01847 0.48197 0.24681 0.0
C1370 C 0.47926 0.51688 0.2744 0.0
C1371 C 0.44862 0.53351 0.27267 0.0
H1372 H 0.51098 0.48665 0.25438 0.0
C1373 C 0.42266 0.52863 0.24929 0.0
H1374 H 0.50019 0.52113 0.29207 0.0
C1375 C 0.42843 0.50857 0.2275 0.0
C1376 C 0.46051 0.49318 0.22868 0.0
H1377 H 0.39927 0.54181 0.24747 0.0
H1378 H 0.40814 0.50557 0.20964 0.0
C1379 C 0.48534 0.4972 0.2527 0.0
C1380 C 0.99125 0.50241 0.79855 0.0
C1381 C 0.94445 0.4908 0.79784 0.0
H1382 H 0.05253 0.53095 0.82014 0.0
C1383 C 0.92374 0.5021 0.81826 0.0
H1384 H 0.00754 0.49357 0.78302 0.0
C1385 C 0.94944 0.52365 0.8397 0.0
C1386 C 0.99624 0.53431 0.84086 0.0
H1387 H 0.88749 0.49297 0.81808 0.0
H1388 H 0.93265 0.53161 0.85546 0.0
C1389 C 0.01687 0.52388 0.81977 0.0
C1390 C 0.57432 0.48342 0.8266 0.0
C1391 C 0.57523 0.50302 0.79942 0.0
H1392 H 0.55635 0.47675 0.87014 0.0
C1393 C 0.56584 0.53748 0.79637 0.0
H1394 H 0.58024 0.456 0.82947 0.0
C1395 C 0.5529 0.55013 0.81973 0.0
C1396 C 0.5472 0.52756 0.8468 0.0
H1397 H 0.56453 0.55223 0.77581 0.0
H1398 H 0.54476 0.57613 0.81624 0.0
C1399 C 0.56028 0.49527 0.84995 0.0
C1400 C 0.52681 0.01813 0.79712 0.0
C1401 C 0.556 0.06271 0.79221 0.0
H1402 H 0.49586 0.96127 0.82682 0.0
C1403 C 0.58198 0.08368 0.81369 0.0
H1404 H 0.50567 1.00173 0.78093 0.0
C1405 C 0.57664 0.06059 0.84028 0.0
C1406 C 0.54492 0.01617 0.84578 0.0
H1407 H 0.60394 0.11828 0.81036 0.0
H1408 H 0.59618 0.0778 0.85669 0.0
C1409 C 0.52115 0.99513 0.82354 0.0
C1410 C 0.2152 0.33349 0.60799 0.0
C1411 C 0.17573 0.29302 0.61316 0.0
H1412 H 0.26101 0.3858 0.57767 0.0
C1413 C 0.15458 0.27202 0.59046 0.0
H1414 H 0.23144 0.35092 0.62503 0.0
C1415 C 0.16894 0.29332 0.56315 0.0
C1416 C 0.20596 0.33578 0.55789 0.0
H1417 H 0.12359 0.24096 0.59409 0.0
H1418 H 0.1483 0.27754 0.54667 0.0
C1419 C 0.23099 0.35412 0.58064 0.0
C1420 C 0.71082 0.82804 0.60352 0.0
C1421 C 0.75214 0.8672 0.59915 0.0
H1422 H 0.65158 0.78236 0.58533 0.0
C1423 C 0.76818 0.88807 0.57174 0.0
H1424 H 0.6977 0.81151 0.62449 0.0
C1425 C 0.74133 0.8725 0.54939 0.0
C1426 C 0.69788 0.83511 0.55383 0.0
H1427 H 0.80003 0.9184 0.56797 0.0
H1428 H 0.75342 0.89159 0.529 0.0
C1429 C 0.68409 0.81197 0.58107 0.0
C1430 C 0.09114 0.86147 0.58338 0.0
C1431 C 0.1177 0.8673 0.60652 0.0
H1432 H 0.07641 0.83764 0.54399 0.0
C1433 C 0.14904 0.85146 0.60823 0.0
H1434 H 0.06713 0.87395 0.58164 0.0
C1435 C 0.15525 0.83166 0.58666 0.0
C1436 C 0.1299 0.82682 0.56284 0.0
H1437 H 0.17029 0.85635 0.62577 0.0
H1438 H 0.18137 0.8217 0.58826 0.0
C1439 C 0.0971 0.84135 0.56172 0.0
C1440 C 0.59248 0.83261 0.15214 0.0
C1441 C 0.61565 0.82763 0.12973 0.0
H1442 H 0.59818 0.85681 0.19117 0.0
C1443 C 0.66369 0.84527 0.12893 0.0
H1444 H 0.55532 0.81914 0.153 0.0
C1445 C 0.68815 0.86586 0.15082 0.0
C1446 C 0.66516 0.86996 0.17389 0.0
H1447 H 0.68202 0.84174 0.11171 0.0
H1448 H 0.72499 0.87739 0.14996 0.0
C1449 C 0.61699 0.85361 0.17406 0.0
C1450 C 0.22966 0.87119 0.13056 0.0
C1451 C 0.239 0.83671 0.13313 0.0
H1452 H 0.20916 0.90969 0.15107 0.0
C1453 C 0.23836 0.81672 0.16015 0.0
H1454 H 0.22803 0.88619 0.11017 0.0
C1455 C 0.22478 0.82833 0.18381 0.0
C1456 C 0.21187 0.86075 0.18115 0.0
H1457 H 0.24424 0.78927 0.16268 0.0
H1458 H 0.22112 0.8096 0.20387 0.0
C1459 C 0.2172 0.8836 0.15422 0.0
C1460 C 0.19203 0.35385 0.12877 0.0
C1461 C 0.22152 0.39838 0.12419 0.0
H1462 H 0.16097 0.29651 0.15801 0.0
C1463 C 0.24815 0.41869 0.14565 0.0
H1464 H 0.17047 0.33797 0.11257 0.0
C1465 C 0.24306 0.39501 0.17197 0.0
C1466 C 0.21092 0.35068 0.17722 0.0
H1467 H 0.27043 0.45325 0.14255 0.0
H1468 H 0.26305 0.41173 0.18842 0.0
C1469 C 0.18659 0.33028 0.15493 0.0
C1470 C 0.86486 0.67265 0.93895 0.0
C1471 C 0.84198 0.62773 0.94511 0.0
H1472 H 0.90048 0.72752 0.90778 0.0
C1473 C 0.8409 0.60308 0.92444 0.0
H1474 H 0.86482 0.69191 0.95456 0.0
C1475 C 0.86062 0.6232 0.89744 0.0
C1476 C 0.88186 0.66828 0.89087 0.0
H1477 H 0.82234 0.56828 0.9288 0.0
H1478 H 0.8582 0.6035 0.88155 0.0
C1479 C 0.88486 0.6928 0.91217 0.0
C1480 C 0.36702 0.18004 0.93767 0.0
C1481 C 0.4152 0.20018 0.93385 0.0
H1482 H 0.30283 0.15014 0.91926 0.0
C1483 C 0.4357 0.2011 0.90819 0.0
H1484 H 0.35076 0.18022 0.95709 0.0
C1485 C 0.40835 0.18301 0.88636 0.0
C1486 C 0.35984 0.16457 0.88955 0.0
H1487 H 0.47295 0.2174 0.90471 0.0
H1488 H 0.42543 0.18434 0.86685 0.0
C1489 C 0.3397 0.16287 0.91579 0.0
C1490 C 0.7595 0.1939 0.9183 0.0
C1491 C 0.78547 0.19892 0.94169 0.0
H1492 H 0.74546 0.17115 0.87854 0.0
C1493 C 0.81641 0.18263 0.9434 0.0
H1494 H 0.73582 0.20676 0.91652 0.0
C1495 C 0.82287 0.16325 0.92163 0.0
C1496 C 0.79813 0.15923 0.89757 0.0
H1497 H 0.83725 0.18688 0.9611 0.0
H1498 H 0.84871 0.15296 0.92329 0.0
C1499 C 0.76569 0.1742 0.89644 0.0
C1500 C 0.31281 0.16455 0.46702 0.0
C1501 C 0.2658 0.15252 0.46827 0.0
H1502 H 0.37633 0.19319 0.48649 0.0
C1503 C 0.24693 0.16288 0.49017 0.0
H1504 H 0.32763 0.15615 0.45041 0.0
C1505 C 0.27475 0.18441 0.51092 0.0
C1506 C 0.32186 0.19568 0.5101 0.0
H1507 H 0.21048 0.1531 0.49168 0.0
H1508 H 0.25928 0.19188 0.52769 0.0
C1509 C 0.34054 0.18581 0.48767 0.0
C1510 C 0.90909 0.14638 0.49573 0.0
C1511 C 0.90965 0.16579 0.46853 0.0
H1512 H 0.8912 0.13962 0.53934 0.0
C1513 C 0.89934 0.19968 0.46555 0.0
H1514 H 0.9156 0.11931 0.4986 0.0
C1515 C 0.88611 0.21207 0.48895 0.0
C1516 C 0.88089 0.18974 0.51604 0.0
H1517 H 0.8975 0.21415 0.44503 0.0
H1518 H 0.87738 0.23769 0.48545 0.0
C1519 C 0.89473 0.15796 0.51914 0.0
C1520 C 0.85787 0.68305 0.46195 0.0
C1521 C 0.88713 0.72761 0.45696 0.0
H1522 H 0.82681 0.62633 0.49174 0.0
C1523 C 0.91329 0.74864 0.47836 0.0
H1524 H 0.83662 0.6666 0.44581 0.0
C1525 C 0.908 0.72565 0.50498 0.0
C1526 C 0.87613 0.68127 0.51059 0.0
H1527 H 0.93535 0.78322 0.47496 0.0
H1528 H 0.92767 0.74291 0.52134 0.0
C1529 C 0.85222 0.66016 0.48841 0.0
loop_
_geom_bond_atom_site_label_1
_geom_bond_atom_site_label_2
_geom_bond_distance
_geom_bond_site_symmetry_2
_ccdc_geom_bond_type
C0 N1 1.317 . S
C0 N2 1.348 . S
C0 C3 1.485 . S
N1 C0 1.317 . S
N1 N5 1.370 . S
N2 C0 1.348 . S
N2 C4 1.346 . S
C3 C0 1.485 . S
C3 H7 0.960 . S
C3 H8 0.961 . S
C3 H9 0.960 . S
C4 N2 1.346 . S
C4 N5 1.307 . S
C4 C6 1.486 . S
N5 N1 1.370 . S
N5 C4 1.307 . S
C6 C4 1.486 . S
C6 H10 0.960 . S
C6 H11 0.960 . S
C6 H12 0.959 . S
H7 C3 0.960 . S
H8 C3 0.961 . S
H9 C3 0.960 . S
H10 C6 0.960 . S
H11 C6 0.960 . S
H12 C6 0.959 . S
C13 N14 1.317 . S
C13 N15 1.348 . S
C13 C16 1.485 . S
N14 C13 1.317 . S
N14 N18 1.370 . S
N15 C13 1.348 . S
N15 C17 1.346 . S
C16 C13 1.485 . S
C16 H20 0.960 . S
C16 H21 0.961 . S
C16 H22 0.960 . S
C17 N15 1.346 . S
C17 N18 1.307 . S
C17 C19 1.486 . S
N18 N14 1.370 . S
N18 C17 1.307 . S
C19 C17 1.486 . S
C19 H23 0.960 . S
C19 H24 0.960 . S
C19 H25 0.959 . S
H20 C16 0.960 . S
H21 C16 0.961 . S
H22 C16 0.960 . S
H23 C19 0.960 . S
H24 C19 0.960 . S
H25 C19 0.959 . S
C26 N27 1.317 . S
C26 N28 1.348 . S
C26 C29 1.485 . S
N27 C26 1.317 . S
N27 N31 1.370 . S
N28 C26 1.348 . S
N28 C30 1.346 . S
C29 C26 1.485 . S
C29 H33 0.960 . S
C29 H34 0.961 . S
C29 H35 0.960 . S
C30 N28 1.346 . S
C30 N31 1.307 . S
C30 C32 1.486 . S
N31 N27 1.370 . S
N31 C30 1.307 . S
C32 C30 1.486 . S
C32 H36 0.960 . S
C32 H37 0.960 . S
C32 H38 0.959 . S
H33 C29 0.960 . S
H34 C29 0.961 . S
H35 C29 0.960 . S
H36 C32 0.960 . S
H37 C32 0.960 . S
H38 C32 0.959 . S
C39 N40 1.317 . S
C39 N41 1.348 . S
C39 C42 1.485 . S
N40 C39 1.317 . S
N40 N44 1.370 . S
N41 C39 1.348 . S
N41 C43 1.346 . S
C42 C39 1.485 . S
C42 H46 0.960 . S
C42 H47 0.961 . S
C42 H48 0.960 . S
C43 N41 1.346 . S
C43 N44 1.307 . S
C43 C45 1.486 . S
N44 N40 1.370 . S
N44 C43 1.307 . S
C45 C43 1.486 . S
C45 H49 0.960 . S
C45 H50 0.960 1_455 S
C45 H51 0.959 . S
H46 C42 0.960 . S
H47 C42 0.961 . S
H48 C42 0.960 . S
H49 C45 0.960 . S
H50 C45 0.960 1_655 S
H51 C45 0.959 . S
C52 N53 1.317 . S
C52 N54 1.348 . S
C52 C55 1.485 . S
N53 C52 1.317 . S
N53 N57 1.370 . S
N54 C52 1.348 . S
N54 C56 1.346 . S
C55 C52 1.485 . S
C55 H59 0.960 . S
C55 H60 0.961 . S
C55 H61 0.960 . S
C56 N54 1.346 . S
C56 N57 1.307 . S
C56 C58 1.486 . S
N57 N53 1.370 . S
N57 C56 1.307 . S
C58 C56 1.486 . S
C58 H62 0.960 . S
C58 H63 0.960 . S
C58 H64 0.959 . S
H59 C55 0.960 . S
H60 C55 0.961 . S
H61 C55 0.960 . S
H62 C58 0.960 . S
H63 C58 0.960 . S
H64 C58 0.959 . S
C65 N66 1.317 . S
C65 N67 1.348 . S
C65 C68 1.485 . S
N66 C65 1.317 . S
N66 N70 1.370 . S
N67 C65 1.348 . S
N67 C69 1.346 . S
C68 C65 1.485 . S
C68 H72 0.960 . S
C68 H73 0.961 . S
C68 H74 0.960 . S
C69 N67 1.346 . S
C69 N70 1.307 . S
C69 C71 1.486 . S
N70 N66 1.370 . S
N70 C69 1.307 . S
C71 C69 1.486 . S
C71 H75 0.960 . S
C71 H76 0.960 . S
C71 H77 0.959 . S
H72 C68 0.960 . S
H73 C68 0.961 . S
H74 C68 0.960 . S
H75 C71 0.960 . S
H76 C71 0.960 . S
H77 C71 0.959 . S
C78 N79 1.317 . S
C78 N80 1.348 . S
C78 C81 1.485 . S
N79 C78 1.317 . S
N79 N83 1.370 . S
N80 C78 1.348 . S
N80 C82 1.346 . S
C81 C78 1.485 . S
C81 H85 0.960 . S
C81 H86 0.961 . S
C81 H87 0.960 . S
C82 N80 1.346 . S
C82 N83 1.307 . S
C82 C84 1.486 . S
N83 N79 1.370 . S
N83 C82 1.307 . S
C84 C82 1.486 . S
C84 H88 0.960 . S
C84 H89 0.960 . S
C84 H90 0.959 . S
H85 C81 0.960 . S
H86 C81 0.961 . S
H87 C81 0.960 . S
H88 C84 0.960 . S
H89 C84 0.960 . S
H90 C84 0.959 . S
C91 N92 1.317 . S
C91 N93 1.348 . S
C91 C94 1.485 . S
N92 C91 1.317 . S
N92 N96 1.370 . S
N93 C91 1.348 . S
N93 C95 1.346 . S
C94 C91 1.485 . S
C94 H98 0.960 . S
C94 H99 0.961 . S
C94 H100 0.960 . S
C95 N93 1.346 . S
C95 N96 1.307 . S
C95 C97 1.486 . S
N96 N92 1.370 . S
N96 C95 1.307 . S
C97 C95 1.486 . S
C97 H101 0.960 . S
C97 H102 0.960 . S
C97 H103 0.959 . S
H98 C94 0.960 . S
H99 C94 0.961 . S
H100 C94 0.960 . S
H101 C97 0.960 . S
H102 C97 0.960 . S
H103 C97 0.959 . S
C104 N105 1.317 . S
C104 N106 1.348 . S
C104 C107 1.485 . S
N105 C104 1.317 . S
N105 N109 1.370 . S
N106 C104 1.348 . S
N106 C108 1.346 . S
C107 C104 1.485 . S
C107 H111 0.960 . S
C107 H112 0.961 . S
C107 H113 0.960 . S
C108 N106 1.346 . S
C108 N109 1.307 . S
C108 C110 1.486 . S
N109 N105 1.370 . S
N109 C108 1.307 . S
C110 C108 1.486 . S
C110 H114 0.960 . S
C110 H115 0.960 . S
C110 H116 0.959 . S
H111 C107 0.960 . S
H112 C107 0.961 . S
H113 C107 0.960 . S
H114 C110 0.960 . S
H115 C110 0.960 . S
H116 C110 0.959 . S
C117 N118 1.317 . S
C117 N119 1.348 . S
C117 C120 1.485 1_556 S
N118 C117 1.317 . S
N118 N122 1.370 . S
N119 C117 1.348 . S
N119 C121 1.346 . S
C120 C117 1.485 1_554 S
C120 H124 0.960 . S
C120 H125 0.961 . S
C120 H126 0.960 . S
C121 N119 1.346 . S
C121 N122 1.307 . S
C121 C123 1.486 . S
N122 N118 1.370 . S
N122 C121 1.307 . S
C123 C121 1.486 . S
C123 H127 0.960 . S
C123 H128 0.960 . S
C123 H129 0.959 . S
H124 C120 0.960 . S
H125 C120 0.961 . S
H126 C120 0.960 . S
H127 C123 0.960 . S
H128 C123 0.960 . S
H129 C123 0.959 . S
C130 N131 1.317 . S
C130 N132 1.348 . S
C130 C133 1.485 1_556 S
N131 C130 1.317 . S
N131 N135 1.370 . S
N132 C130 1.348 . S
N132 C134 1.346 . S
C133 C130 1.485 1_554 S
C133 H137 0.960 . S
C133 H138 0.961 . S
C133 H139 0.960 . S
C134 N132 1.346 . S
C134 N135 1.307 . S
C134 C136 1.486 . S
N135 N131 1.370 . S
N135 C134 1.307 . S
C136 C134 1.486 . S
C136 H140 0.960 . S
C136 H141 0.960 . S
C136 H142 0.959 . S
H137 C133 0.960 . S
H138 C133 0.961 . S
H139 C133 0.960 . S
H140 C136 0.960 . S
H141 C136 0.960 . S
H142 C136 0.959 . S
C143 N144 1.317 . S
C143 N145 1.348 . S
C143 C146 1.485 1_556 S
N144 C143 1.317 . S
N144 N148 1.370 . S
N145 C143 1.348 . S
N145 C147 1.346 . S
C146 C143 1.485 1_554 S
C146 H150 0.960 . S
C146 H151 0.961 . S
C146 H152 0.960 . S
C147 N145 1.346 . S
C147 N148 1.307 . S
C147 C149 1.486 . S
N148 N144 1.370 . S
N148 C147 1.307 . S
C149 C147 1.486 . S
C149 H153 0.960 . S
C149 H154 0.960 . S
C149 H155 0.959 . S
H150 C146 0.960 . S
H151 C146 0.961 . S
H152 C146 0.960 . S
H153 C149 0.960 . S
H154 C149 0.960 . S
H155 C149 0.959 . S
C156 N157 1.317 . S
C156 N158 1.348 . S
C156 C159 1.485 . S
N157 C156 1.317 . S
N157 N161 1.370 . S
N158 C156 1.348 . S
N158 C160 1.346 . S
C159 C156 1.485 . S
C159 H163 0.960 . S
C159 H164 0.961 . S
C159 H165 0.960 . S
C160 N158 1.346 . S
C160 N161 1.307 . S
C160 C162 1.486 . S
N161 N157 1.370 . S
N161 C160 1.307 . S
C162 C160 1.486 . S
C162 H166 0.960 . S
C162 H167 0.960 . S
C162 H168 0.959 . S
H163 C159 0.960 . S
H164 C159 0.961 . S
H165 C159 0.960 . S
H166 C162 0.960 . S
H167 C162 0.960 . S
H168 C162 0.959 . S
C169 N170 1.317 . S
C169 N171 1.348 . S
C169 C172 1.485 . S
N170 C169 1.317 . S
N170 N174 1.370 . S
N171 C169 1.348 . S
N171 C173 1.346 . S
C172 C169 1.485 . S
C172 H176 0.960 . S
C172 H177 0.961 . S
C172 H178 0.960 . S
C173 N171 1.346 . S
C173 N174 1.307 . S
C173 C175 1.486 . S
N174 N170 1.370 . S
N174 C173 1.307 . S
C175 C173 1.486 . S
C175 H179 0.960 . S
C175 H180 0.960 . S
C175 H181 0.959 . S
H176 C172 0.960 . S
H177 C172 0.961 . S
H178 C172 0.960 . S
H179 C175 0.960 . S
H180 C175 0.960 . S
H181 C175 0.959 . S
C182 N183 1.317 . S
C182 N184 1.348 . S
C182 C185 1.485 . S
N183 C182 1.317 . S
N183 N187 1.370 . S
N184 C182 1.348 . S
N184 C186 1.346 . S
C185 C182 1.485 . S
C185 H189 0.960 . S
C185 H190 0.961 . S
C185 H191 0.960 . S
C186 N184 1.346 . S
C186 N187 1.307 . S
C186 C188 1.486 . S
N187 N183 1.370 . S
N187 C186 1.307 . S
C188 C186 1.486 . S
C188 H192 0.960 . S
C188 H193 0.960 . S
C188 H194 0.959 . S
H189 C185 0.960 . S
H190 C185 0.961 . S
H191 C185 0.960 . S
H192 C188 0.960 . S
H193 C188 0.960 . S
H194 C188 0.959 . S
C195 N196 1.317 . S
C195 N197 1.348 . S
C195 C198 1.485 . S
N196 C195 1.317 . S
N196 N200 1.370 . S
N197 C195 1.348 . S
N197 C199 1.346 . S
C198 C195 1.485 . S
C198 H202 0.960 . S
C198 H203 0.961 . S
C198 H204 0.960 . S
C199 N197 1.346 . S
C199 N200 1.307 . S
C199 C201 1.486 . S
N200 N196 1.370 . S
N200 C199 1.307 . S
C201 C199 1.486 . S
C201 H205 0.960 . S
C201 H206 0.960 . S
C201 H207 0.959 . S
H202 C198 0.960 . S
H203 C198 0.961 . S
H204 C198 0.960 . S
H205 C201 0.960 . S
H206 C201 0.960 . S
H207 C201 0.959 . S
C208 N209 1.317 . S
C208 N210 1.348 . S
C208 C211 1.485 . S
N209 C208 1.317 . S
N209 N213 1.370 . S
N210 C208 1.348 . S
N210 C212 1.346 . S
C211 C208 1.485 . S
C211 H215 0.960 . S
C211 H216 0.961 . S
C211 H217 0.960 . S
C212 N210 1.346 . S
C212 N213 1.307 . S
C212 C214 1.486 . S
N213 N209 1.370 . S
N213 C212 1.307 . S
C214 C212 1.486 . S
C214 H218 0.960 . S
C214 H219 0.960 . S
C214 H220 0.959 . S
H215 C211 0.960 . S
H216 C211 0.961 . S
H217 C211 0.960 . S
H218 C214 0.960 . S
H219 C214 0.960 . S
H220 C214 0.959 . S
C221 N222 1.317 . S
C221 N223 1.348 . S
C221 C224 1.485 . S
N222 C221 1.317 . S
N222 N226 1.370 . S
N223 C221 1.348 . S
N223 C225 1.346 . S
C224 C221 1.485 . S
C224 H228 0.960 . S
C224 H229 0.961 . S
C224 H230 0.960 . S
C225 N223 1.346 . S
C225 N226 1.307 . S
C225 C227 1.486 . S
N226 N222 1.370 . S
N226 C225 1.307 . S
C227 C225 1.486 . S
C227 H231 0.960 . S
C227 H232 0.960 . S
C227 H233 0.959 . S
H228 C224 0.960 . S
H229 C224 0.961 . S
H230 C224 0.960 . S
H231 C227 0.960 . S
H232 C227 0.960 . S
H233 C227 0.959 . S
Eu234 N265 2.657 . S
Eu234 N272 2.609 . S
Eu234 O278 2.558 . S
Eu234 O279 2.612 1_566 S
Eu234 O281 2.339 1_565 S
Eu234 O282 2.563 1_565 S
Eu234 O283 2.419 1_565 S
Eu234 O285 2.380 1_556 S
Eu234 O286 2.432 1_556 S
Eu234 C298 2.848 1_565 S
C235 C238 1.429 . S
C235 C239 1.411 . S
C235 N242 1.377 . S
C236 C238 1.420 . S
C236 C240 1.423 . S
C236 C248 1.392 . S
C237 C239 1.420 . S
C237 C240 1.351 . S
C237 H260 0.931 . S
C238 C235 1.429 . S
C238 C236 1.420 . S
C238 N246 1.362 . S
C239 C235 1.411 . S
C239 C237 1.420 . S
C239 C244 1.395 . S
C240 C236 1.423 . S
C240 C237 1.351 . S
C240 H252 0.930 . S
C241 C243 1.400 . S
C241 C244 1.386 . S
C241 H253 0.930 . S
N242 C235 1.377 . S
N242 C243 1.321 . S
N242 Eu245 2.609 . S
C243 C241 1.400 . S
C243 N242 1.321 . S
C243 H250 0.930 . S
C244 C239 1.395 . S
C244 C241 1.386 . S
C244 H263 0.930 . S
Eu245 N242 2.609 . S
Eu245 N246 2.657 . S
Eu245 O279 2.380 . S
Eu245 O280 2.432 . S
Eu245 O284 2.558 . S
Eu245 O285 2.612 1_545 S
Eu245 O287 2.339 1_545 S
Eu245 O288 2.563 1_545 S
Eu245 O289 2.419 1_545 S
Eu245 C309 2.848 1_545 S
N246 C238 1.362 . S
N246 Eu245 2.657 . S
N246 C247 1.334 . S
C247 N246 1.334 . S
C247 C249 1.413 . S
C247 H254 0.929 . S
C248 C236 1.392 . S
C248 C249 1.367 . S
C248 H256 0.930 . S
C249 C247 1.413 . S
C249 C248 1.367 . S
C249 H251 0.930 . S
H250 C243 0.930 . S
H251 C249 0.930 . S
H252 C240 0.930 . S
H253 C241 0.930 . S
H254 C247 0.929 . S
H255 C269 0.930 . S
H256 C248 0.930 . S
H257 C275 0.930 . S
H258 C266 0.929 1_545 S
H259 C273 0.930 . S
H260 C237 0.931 . S
H261 C267 0.930 . S
H262 C300 0.930 . S
H263 C244 0.930 . S
H264 C299 0.931 . S
N265 Eu234 2.657 . S
N265 C266 1.334 . S
N265 C270 1.362 . S
C266 H258 0.929 1_565 S
C266 N265 1.334 . S
C266 C269 1.413 . S
C267 H261 0.930 . S
C267 C268 1.392 . S
C267 C269 1.367 . S
C268 C267 1.392 . S
C268 C270 1.420 . S
C268 C300 1.423 . S
C269 H255 0.930 . S
C269 C266 1.413 . S
C269 C267 1.367 . S
C270 N265 1.362 . S
C270 C268 1.420 . S
C270 C274 1.429 . S
H271 C276 0.930 . S
N272 Eu234 2.609 . S
N272 C274 1.377 . S
N272 C275 1.321 . S
C273 H259 0.930 . S
C273 C275 1.400 . S
C273 C276 1.386 . S
C274 C270 1.429 . S
C274 N272 1.377 . S
C274 C277 1.411 . S
C275 H257 0.930 . S
C275 N272 1.321 . S
C275 C273 1.400 . S
C276 H271 0.930 . S
C276 C273 1.386 . S
C276 C277 1.395 . S
C277 C274 1.411 . S
C277 C276 1.395 . S
C277 C299 1.420 . S
O278 Eu234 2.558 . S
O278 C298 1.257 1_565 S
O279 Eu234 2.612 1_544 S
O279 Eu245 2.380 . S
O279 C290 1.276 1_554 S
O280 Eu245 2.432 . S
O280 C297 1.264 . S
O281 Eu234 2.339 1_545 S
O281 C297 1.254 1_556 S
O282 Eu234 2.563 1_545 S
O282 C290 1.235 . S
O283 Eu234 2.419 1_545 S
O283 C298 1.249 . S
O284 Eu245 2.558 . S
O284 C309 1.257 1_545 S
O285 Eu234 2.380 1_554 S
O285 Eu245 2.612 1_565 S
O285 C301 1.276 . S
O286 Eu234 2.432 1_554 S
O286 C308 1.264 . S
O287 Eu245 2.339 1_565 S
O287 C308 1.254 . S
O288 Eu245 2.563 1_565 S
O288 C301 1.235 . S
O289 Eu245 2.419 1_565 S
O289 C309 1.249 . S
C290 O279 1.276 1_556 S
C290 O282 1.235 . S
C291 C293 1.393 . S
C291 C295 1.395 . S
C291 C298 1.492 . S
C292 C293 1.392 . S
C292 C294 1.386 . S
C293 C291 1.393 . S
C293 C292 1.392 . S
C293 H310 0.930 . S
C294 C292 1.386 . S
C294 C296 1.395 . S
C294 H311 0.930 . S
C295 C291 1.395 . S
C295 C296 1.379 . S
C295 H312 0.930 1_545 S
C296 C294 1.395 . S
C296 C295 1.379 . S
C296 H313 0.930 . S
C297 O280 1.264 . S
C297 O281 1.254 1_554 S
C298 Eu234 2.848 1_545 S
C298 O278 1.257 1_545 S
C298 O283 1.249 . S
C298 C291 1.492 . S
C299 H264 0.931 . S
C299 C277 1.420 . S
C299 C300 1.351 . S
C300 H262 0.930 . S
C300 C268 1.423 . S
C300 C299 1.351 . S
C301 O285 1.276 . S
C301 O288 1.235 . S
C302 C303 1.393 . S
C302 C306 1.395 . S
C302 C309 1.492 . S
C303 C302 1.393 . S
C303 C304 1.392 . S
C303 H314 0.930 . S
C304 C303 1.392 . S
C304 C305 1.386 . S
C305 C304 1.386 . S
C305 C307 1.395 . S
C305 H315 0.930 . S
C306 C302 1.395 . S
C306 C307 1.379 . S
C306 H316 0.930 1_565 S
C307 C305 1.395 . S
C307 C306 1.379 . S
C307 H317 0.930 . S
C308 O286 1.264 . S
C308 O287 1.254 . S
C309 Eu245 2.848 1_565 S
C309 O284 1.257 1_565 S
C309 O289 1.249 . S
C309 C302 1.492 . S
H310 C293 0.930 . S
H311 C294 0.930 . S
H312 C295 0.930 1_565 S
H313 C296 0.930 . S
H314 C303 0.930 . S
H315 C305 0.930 . S
H316 C306 0.930 1_545 S
H317 C307 0.930 . S
Eu318 N349 2.657 . S
Eu318 N356 2.609 . S
Eu318 O362 2.558 . S
Eu318 O363 2.612 1_456 S
Eu318 O365 2.339 1_455 S
Eu318 O366 2.563 1_455 S
Eu318 O367 2.419 . S
Eu318 O369 2.380 1_556 S
Eu318 O370 2.432 . S
Eu318 C382 2.848 . S
C319 C322 1.429 . S
C319 C323 1.411 . S
C319 N326 1.377 . S
C320 C322 1.420 . S
C320 C324 1.423 . S
C320 C332 1.392 . S
C321 C323 1.420 . S
C321 C324 1.351 . S
C321 H344 0.931 . S
C322 C319 1.429 . S
C322 C320 1.420 . S
C322 N330 1.362 . S
C323 C319 1.411 . S
C323 C321 1.420 . S
C323 C328 1.395 . S
C324 C320 1.423 . S
C324 C321 1.351 . S
C324 H336 0.930 . S
C325 C327 1.400 . S
C325 C328 1.386 . S
C325 H337 0.930 . S
N326 C319 1.377 . S
N326 C327 1.321 . S
N326 Eu329 2.609 . S
C327 C325 1.400 . S
C327 N326 1.321 . S
C327 H334 0.930 . S
C328 C323 1.395 . S
C328 C325 1.386 . S
C328 H347 0.930 . S
Eu329 N326 2.609 . S
Eu329 N330 2.657 . S
Eu329 O363 2.380 . S
Eu329 O364 2.432 . S
Eu329 O368 2.558 . S
Eu329 O369 2.612 1_655 S
Eu329 O371 2.339 1_655 S
Eu329 O372 2.563 1_655 S
Eu329 O373 2.419 . S
Eu329 C393 2.848 . S
N330 C322 1.362 . S
N330 Eu329 2.657 . S
N330 C331 1.334 . S
C331 N330 1.334 . S
C331 C333 1.413 . S
C331 H338 0.929 . S
C332 C320 1.392 . S
C332 C333 1.367 . S
C332 H340 0.930 . S
C333 C331 1.413 . S
C333 C332 1.367 . S
C333 H335 0.930 . S
H334 C327 0.930 . S
H335 C333 0.930 . S
H336 C324 0.930 . S
H337 C325 0.930 . S
H338 C331 0.929 . S
H339 C353 0.930 . S
H340 C332 0.930 . S
H341 C359 0.930 . S
H342 C350 0.929 . S
H343 C357 0.930 . S
H344 C321 0.931 . S
H345 C351 0.930 . S
H346 C384 0.930 . S
H347 C328 0.930 . S
H348 C383 0.931 . S
N349 Eu318 2.657 . S
N349 C350 1.334 . S
N349 C354 1.362 . S
C350 H342 0.929 . S
C350 N349 1.334 . S
C350 C353 1.413 . S
C351 H345 0.930 . S
C351 C352 1.392 . S
C351 C353 1.367 . S
C352 C351 1.392 . S
C352 C354 1.420 . S
C352 C384 1.423 . S
C353 H339 0.930 . S
C353 C350 1.413 . S
C353 C351 1.367 . S
C354 N349 1.362 . S
C354 C352 1.420 . S
C354 C358 1.429 . S
H355 C360 0.930 . S
N356 Eu318 2.609 . S
N356 C358 1.377 . S
N356 C359 1.321 . S
C357 H343 0.930 . S
C357 C359 1.400 . S
C357 C360 1.386 . S
C358 C354 1.429 . S
C358 N356 1.377 . S
C358 C361 1.411 . S
C359 H341 0.930 . S
C359 N356 1.321 . S
C359 C357 1.400 . S
C360 H355 0.930 . S
C360 C357 1.386 . S
C360 C361 1.395 . S
C361 C358 1.411 . S
C361 C360 1.395 . S
C361 C383 1.420 . S
O362 Eu318 2.558 . S
O362 C382 1.257 . S
O363 Eu318 2.612 1_654 S
O363 Eu329 2.380 . S
O363 C374 1.276 1_554 S
O364 Eu329 2.432 . S
O364 C381 1.265 1_554 S
O365 Eu318 2.339 1_655 S
O365 C381 1.253 . S
O366 Eu318 2.563 1_655 S
O366 C374 1.235 . S
O367 Eu318 2.419 . S
O367 C382 1.249 . S
O368 Eu329 2.558 . S
O368 C393 1.257 . S
O369 Eu318 2.380 1_554 S
O369 Eu329 2.612 1_455 S
O369 C385 1.276 . S
O370 Eu318 2.432 . S
O370 C392 1.264 1_556 S
O371 Eu329 2.339 1_455 S
O371 C392 1.254 . S
O372 Eu329 2.563 1_455 S
O372 C385 1.235 . S
O373 Eu329 2.419 . S
O373 C393 1.249 . S
C374 O363 1.276 1_556 S
C374 O366 1.235 . S
C375 C377 1.393 1_455 S
C375 C379 1.395 . S
C375 C382 1.492 . S
C376 C377 1.392 . S
C376 C378 1.386 1_655 S
C377 C375 1.393 1_655 S
C377 C376 1.392 . S
C377 H394 0.930 . S
C378 C376 1.386 1_455 S
C378 C380 1.395 . S
C378 H395 0.930 . S
C379 C375 1.395 . S
C379 C380 1.379 . S
C379 H396 0.930 . S
C380 C378 1.395 . S
C380 C379 1.379 . S
C380 H397 0.930 . S
C381 O364 1.265 1_556 S
C381 O365 1.253 . S
C382 Eu318 2.848 . S
C382 O362 1.257 . S
C382 O367 1.249 . S
C382 C375 1.492 . S
C383 H348 0.931 . S
C383 C361 1.420 . S
C383 C384 1.351 . S
C384 H346 0.930 . S
C384 C352 1.423 . S
C384 C383 1.351 . S
C385 O369 1.276 . S
C385 O372 1.235 . S
C386 C387 1.393 1_655 S
C386 C390 1.395 . S
C386 C393 1.492 . S
C387 C386 1.393 1_455 S
C387 C388 1.392 . S
C387 H398 0.930 . S
C388 C387 1.392 . S
C388 C389 1.386 . S
C389 C388 1.386 . S
C389 C391 1.395 1_455 S
C389 H399 0.930 . S
C390 C386 1.395 . S
C390 C391 1.379 . S
C390 H400 0.930 . S
C391 C389 1.395 1_655 S
C391 C390 1.379 . S
C391 H401 0.930 . S
C392 O370 1.264 1_554 S
C392 O371 1.254 . S
C393 Eu329 2.848 . S
C393 O368 1.257 . S
C393 O373 1.249 . S
C393 C386 1.492 . S
H394 C377 0.930 . S
H395 C378 0.930 . S
H396 C379 0.930 . S
H397 C380 0.930 . S
H398 C387 0.930 . S
H399 C389 0.930 . S
H400 C390 0.930 . S
H401 C391 0.930 . S
Eu402 N433 2.657 . S
Eu402 N440 2.609 . S
Eu402 O446 2.558 . S
Eu402 O447 2.612 . S
Eu402 O449 2.339 . S
Eu402 O450 2.563 . S
Eu402 O451 2.419 . S
Eu402 O453 2.380 . S
Eu402 O454 2.432 . S
Eu402 C466 2.848 . S
C403 C406 1.429 . S
C403 C407 1.411 . S
C403 N410 1.377 . S
C404 C406 1.420 . S
C404 C408 1.423 . S
C404 C416 1.392 . S
C405 C407 1.420 . S
C405 C408 1.351 . S
C405 H428 0.931 . S
C406 C403 1.429 . S
C406 C404 1.420 . S
C406 N414 1.362 . S
C407 C403 1.411 . S
C407 C405 1.420 . S
C407 C412 1.395 . S
C408 C404 1.423 . S
C408 C405 1.351 . S
C408 H420 0.930 . S
C409 C411 1.400 . S
C409 C412 1.386 . S
C409 H421 0.930 . S
N410 C403 1.377 . S
N410 C411 1.321 . S
N410 Eu413 2.609 . S
C411 C409 1.400 . S
C411 N410 1.321 . S
C411 H418 0.930 . S
C412 C407 1.395 . S
C412 C409 1.386 . S
C412 H431 0.930 . S
Eu413 N410 2.609 . S
Eu413 N414 2.657 . S
Eu413 O447 2.380 1_556 S
Eu413 O448 2.432 1_556 S
Eu413 O452 2.558 . S
Eu413 O453 2.612 1_556 S
Eu413 O455 2.339 1_556 S
Eu413 O456 2.563 . S
Eu413 O457 2.419 . S
Eu413 C477 2.848 . S
N414 C406 1.362 . S
N414 Eu413 2.657 . S
N414 C415 1.334 . S
C415 N414 1.334 . S
C415 C417 1.413 . S
C415 H422 0.929 . S
C416 C404 1.392 . S
C416 C417 1.367 . S
C416 H424 0.930 . S
C417 C415 1.413 . S
C417 C416 1.367 . S
C417 H419 0.930 . S
H418 C411 0.930 . S
H419 C417 0.930 . S
H420 C408 0.930 . S
H421 C409 0.930 . S
H422 C415 0.929 . S
H423 C437 0.930 . S
H424 C416 0.930 . S
H425 C443 0.930 . S
H426 C434 0.929 . S
H427 C441 0.930 . S
H428 C405 0.931 . S
H429 C435 0.930 . S
H430 C468 0.930 . S
H431 C412 0.930 . S
H432 C467 0.931 . S
N433 Eu402 2.657 . S
N433 C434 1.334 . S
N433 C438 1.362 . S
C434 H426 0.929 . S
C434 N433 1.334 . S
C434 C437 1.413 . S
C435 H429 0.930 . S
C435 C436 1.392 . S
C435 C437 1.367 . S
C436 C435 1.392 . S
C436 C438 1.420 . S
C436 C468 1.423 . S
C437 H423 0.930 . S
C437 C434 1.413 . S
C437 C435 1.367 . S
C438 N433 1.362 . S
C438 C436 1.420 . S
C438 C442 1.429 . S
H439 C444 0.930 . S
N440 Eu402 2.609 . S
N440 C442 1.377 . S
N440 C443 1.321 . S
C441 H427 0.930 . S
C441 C443 1.400 . S
C441 C444 1.386 . S
C442 C438 1.429 . S
C442 N440 1.377 . S
C442 C445 1.411 . S
C443 H425 0.930 . S
C443 N440 1.321 . S
C443 C441 1.400 . S
C444 H439 0.930 . S
C444 C441 1.386 . S
C444 C445 1.395 . S
C445 C442 1.411 . S
C445 C444 1.395 . S
C445 C467 1.420 . S
O446 Eu402 2.558 . S
O446 C466 1.257 . S
O447 Eu402 2.612 . S
O447 Eu413 2.380 1_554 S
O447 C458 1.276 . S
O448 Eu413 2.432 1_554 S
O448 C465 1.264 . S
O449 Eu402 2.339 . S
O449 C465 1.254 . S
O450 Eu402 2.563 . S
O450 C458 1.235 . S
O451 Eu402 2.419 . S
O451 C466 1.249 . S
O452 Eu413 2.558 . S
O452 C477 1.257 . S
O453 Eu402 2.380 . S
O453 Eu413 2.612 1_554 S
O453 C469 1.276 . S
O454 Eu402 2.432 . S
O454 C476 1.264 . S
O455 Eu413 2.339 1_554 S
O455 C476 1.254 . S
O456 Eu413 2.563 . S
O456 C469 1.235 1_556 S
O457 Eu413 2.419 . S
O457 C477 1.249 . S
C458 O447 1.276 . S
C458 O450 1.235 . S
C459 C461 1.393 . S
C459 C463 1.395 . S
C459 C466 1.492 . S
C460 C461 1.392 . S
C460 C462 1.386 . S
C461 C459 1.393 . S
C461 C460 1.392 . S
C461 H478 0.930 . S
C462 C460 1.386 . S
C462 C464 1.395 . S
C462 H479 0.930 . S
C463 C459 1.395 . S
C463 C464 1.379 . S
C463 H480 0.930 . S
C464 C462 1.395 . S
C464 C463 1.379 . S
C464 H481 0.930 . S
C465 O448 1.264 . S
C465 O449 1.254 . S
C466 Eu402 2.848 . S
C466 O446 1.257 . S
C466 O451 1.249 . S
C466 C459 1.492 . S
C467 H432 0.931 . S
C467 C445 1.420 . S
C467 C468 1.351 . S
C468 H430 0.930 . S
C468 C436 1.423 . S
C468 C467 1.351 . S
C469 O453 1.276 . S
C469 O456 1.235 1_554 S
C470 C471 1.393 . S
C470 C474 1.395 . S
C470 C477 1.492 . S
C471 C470 1.393 . S
C471 C472 1.392 . S
C471 H482 0.930 . S
C472 C471 1.392 . S
C472 C473 1.386 . S
C473 C472 1.386 . S
C473 C475 1.395 . S
C473 H483 0.930 . S
C474 C470 1.395 . S
C474 C475 1.379 . S
C474 H484 0.930 . S
C475 C473 1.395 . S
C475 C474 1.379 . S
C475 H485 0.930 . S
C476 O454 1.264 . S
C476 O455 1.254 . S
C477 Eu413 2.848 . S
C477 O452 1.257 . S
C477 O457 1.249 . S
C477 C470 1.492 . S
H478 C461 0.930 . S
H479 C462 0.930 . S
H480 C463 0.930 . S
H481 C464 0.930 . S
H482 C471 0.930 . S
H483 C473 0.930 . S
H484 C474 0.930 . S
H485 C475 0.930 . S
Eu486 N517 2.657 . S
Eu486 N524 2.609 . S
Eu486 O530 2.558 . S
Eu486 O531 2.612 . S
Eu486 O533 2.339 . S
Eu486 O534 2.563 . S
Eu486 O535 2.419 . S
Eu486 O537 2.380 . S
Eu486 O538 2.432 . S
Eu486 C550 2.848 . S
C487 C490 1.429 . S
C487 C491 1.411 . S
C487 N494 1.377 . S
C488 C490 1.420 . S
C488 C492 1.423 . S
C488 C500 1.392 . S
C489 C491 1.420 . S
C489 C492 1.351 . S
C489 H512 0.931 . S
C490 C487 1.429 . S
C490 C488 1.420 . S
C490 N498 1.362 . S
C491 C487 1.411 . S
C491 C489 1.420 . S
C491 C496 1.395 . S
C492 C488 1.423 . S
C492 C489 1.351 . S
C492 H504 0.930 . S
C493 C495 1.400 . S
C493 C496 1.386 . S
C493 H505 0.930 . S
N494 C487 1.377 . S
N494 C495 1.321 . S
N494 Eu497 2.609 . S
C495 C493 1.400 . S
C495 N494 1.321 . S
C495 H502 0.930 . S
C496 C491 1.395 . S
C496 C493 1.386 . S
C496 H515 0.930 . S
Eu497 N494 2.609 . S
Eu497 N498 2.657 . S
Eu497 O531 2.380 . S
Eu497 O532 2.432 . S
Eu497 O536 2.558 . S
Eu497 O537 2.612 . S
Eu497 O539 2.339 . S
Eu497 O540 2.563 . S
Eu497 O541 2.419 . S
Eu497 C561 2.848 . S
N498 C490 1.362 . S
N498 Eu497 2.657 . S
N498 C499 1.334 . S
C499 N498 1.334 . S
C499 C501 1.413 . S
C499 H506 0.929 . S
C500 C488 1.392 . S
C500 C501 1.367 . S
C500 H508 0.930 . S
C501 C499 1.413 . S
C501 C500 1.367 . S
C501 H503 0.930 . S
H502 C495 0.930 . S
H503 C501 0.930 . S
H504 C492 0.930 . S
H505 C493 0.930 . S
H506 C499 0.929 . S
H507 C521 0.930 . S
H508 C500 0.930 . S
H509 C527 0.930 . S
H510 C518 0.929 . S
H511 C525 0.930 . S
H512 C489 0.931 . S
H513 C519 0.930 1_655 S
H514 C552 0.930 1_655 S
H515 C496 0.930 . S
H516 C551 0.931 . S
N517 Eu486 2.657 . S
N517 C518 1.334 . S
N517 C522 1.362 . S
C518 H510 0.929 . S
C518 N517 1.334 . S
C518 C521 1.413 . S
C519 H513 0.930 1_455 S
C519 C520 1.392 . S
C519 C521 1.367 . S
C520 C519 1.392 . S
C520 C522 1.420 . S
C520 C552 1.423 . S
C521 H507 0.930 . S
C521 C518 1.413 . S
C521 C519 1.367 . S
C522 N517 1.362 . S
C522 C520 1.420 . S
C522 C526 1.429 . S
H523 C528 0.930 . S
N524 Eu486 2.609 . S
N524 C526 1.377 . S
N524 C527 1.321 . S
C525 H511 0.930 . S
C525 C527 1.400 . S
C525 C528 1.386 . S
C526 C522 1.429 . S
C526 N524 1.377 . S
C526 C529 1.411 . S
C527 H509 0.930 . S
C527 N524 1.321 . S
C527 C525 1.400 . S
C528 H523 0.930 . S
C528 C525 1.386 . S
C528 C529 1.395 . S
C529 C526 1.411 . S
C529 C528 1.395 . S
C529 C551 1.420 . S
O530 Eu486 2.558 . S
O530 C550 1.257 . S
O531 Eu486 2.612 . S
O531 Eu497 2.380 . S
O531 C542 1.276 . S
O532 Eu497 2.432 . S
O532 C549 1.264 . S
O533 Eu486 2.339 . S
O533 C549 1.254 . S
O534 Eu486 2.563 . S
O534 C542 1.235 . S
O535 Eu486 2.419 . S
O535 C550 1.249 . S
O536 Eu497 2.558 . S
O536 C561 1.257 . S
O537 Eu486 2.380 . S
O537 Eu497 2.612 . S
O537 C553 1.276 . S
O538 Eu486 2.432 . S
O538 C560 1.264 . S
O539 Eu497 2.339 . S
O539 C560 1.254 . S
O540 Eu497 2.563 . S
O540 C553 1.235 . S
O541 Eu497 2.419 . S
O541 C561 1.249 . S
C542 O531 1.276 . S
C542 O534 1.235 . S
C543 C545 1.393 . S
C543 C547 1.395 . S
C543 C550 1.492 . S
C544 C545 1.392 . S
C544 C546 1.386 . S
C545 C543 1.393 . S
C545 C544 1.392 . S
C545 H562 0.930 . S
C546 C544 1.386 . S
C546 C548 1.395 . S
C546 H563 0.930 . S
C547 C543 1.395 . S
C547 C548 1.379 . S
C547 H564 0.930 . S
C548 C546 1.395 . S
C548 C547 1.379 . S
C548 H565 0.930 . S
C549 O532 1.264 . S
C549 O533 1.254 . S
C550 Eu486 2.848 . S
C550 O530 1.257 . S
C550 O535 1.249 . S
C550 C543 1.492 . S
C551 H516 0.931 . S
C551 C529 1.420 . S
C551 C552 1.351 . S
C552 H514 0.930 1_455 S
C552 C520 1.423 . S
C552 C551 1.351 . S
C553 O537 1.276 . S
C553 O540 1.235 . S
C554 C555 1.393 . S
C554 C558 1.395 . S
C554 C561 1.492 . S
C555 C554 1.393 . S
C555 C556 1.392 . S
C555 H566 0.930 . S
C556 C555 1.392 . S
C556 C557 1.386 . S
C557 C556 1.386 . S
C557 C559 1.395 . S
C557 H567 0.930 . S
C558 C554 1.395 . S
C558 C559 1.379 . S
C558 H568 0.930 . S
C559 C557 1.395 . S
C559 C558 1.379 . S
C559 H569 0.930 . S
C560 O538 1.264 . S
C560 O539 1.254 . S
C561 Eu497 2.848 . S
C561 O536 1.257 . S
C561 O541 1.249 . S
C561 C554 1.492 . S
H562 C545 0.930 . S
H563 C546 0.930 . S
H564 C547 0.930 . S
H565 C548 0.930 . S
H566 C555 0.930 . S
H567 C557 0.930 . S
H568 C558 0.930 . S
H569 C559 0.930 . S
Eu570 N601 2.657 . S
Eu570 N608 2.609 . S
Eu570 O614 2.558 . S
Eu570 O615 2.612 . S
Eu570 O617 2.339 . S
Eu570 O618 2.563 . S
Eu570 O619 2.419 . S
Eu570 O621 2.380 . S
Eu570 O622 2.432 . S
Eu570 C634 2.848 . S
C571 C574 1.429 . S
C571 C575 1.411 . S
C571 N578 1.377 . S
C572 C574 1.420 . S
C572 C576 1.423 . S
C572 C584 1.392 . S
C573 C575 1.420 . S
C573 C576 1.351 . S
C573 H596 0.931 . S
C574 C571 1.429 . S
C574 C572 1.420 . S
C574 N582 1.362 . S
C575 C571 1.411 . S
C575 C573 1.420 . S
C575 C580 1.395 . S
C576 C572 1.423 . S
C576 C573 1.351 . S
C576 H588 0.930 . S
C577 C579 1.400 . S
C577 C580 1.386 . S
C577 H589 0.930 . S
N578 C571 1.377 . S
N578 C579 1.321 . S
N578 Eu581 2.609 . S
C579 C577 1.400 . S
C579 N578 1.321 . S
C579 H586 0.930 . S
C580 C575 1.395 . S
C580 C577 1.386 . S
C580 H599 0.930 . S
Eu581 N578 2.609 . S
Eu581 N582 2.657 . S
Eu581 O615 2.380 . S
Eu581 O616 2.432 . S
Eu581 O620 2.558 . S
Eu581 O621 2.612 . S
Eu581 O623 2.339 . S
Eu581 O624 2.563 . S
Eu581 O625 2.419 . S
Eu581 C645 2.848 . S
N582 C574 1.362 . S
N582 Eu581 2.657 . S
N582 C583 1.334 . S
C583 N582 1.334 . S
C583 C585 1.413 . S
C583 H590 0.929 . S
C584 C572 1.392 . S
C584 C585 1.367 . S
C584 H592 0.930 . S
C585 C583 1.413 . S
C585 C584 1.367 . S
C585 H587 0.930 . S
H586 C579 0.930 . S
H587 C585 0.930 . S
H588 C576 0.930 . S
H589 C577 0.930 . S
H590 C583 0.929 . S
H591 C605 0.930 . S
H592 C584 0.930 . S
H593 C611 0.930 . S
H594 C602 0.929 . S
H595 C609 0.930 1_545 S
H596 C573 0.931 . S
H597 C603 0.930 . S
H598 C636 0.930 . S
H599 C580 0.930 . S
H600 C635 0.931 . S
N601 Eu570 2.657 . S
N601 C602 1.334 . S
N601 C606 1.362 . S
C602 H594 0.929 . S
C602 N601 1.334 . S
C602 C605 1.413 . S
C603 H597 0.930 . S
C603 C604 1.392 . S
C603 C605 1.367 . S
C604 C603 1.392 . S
C604 C606 1.420 . S
C604 C636 1.423 . S
C605 H591 0.930 . S
C605 C602 1.413 . S
C605 C603 1.367 . S
C606 N601 1.362 . S
C606 C604 1.420 . S
C606 C610 1.429 . S
H607 C612 0.930 . S
N608 Eu570 2.609 . S
N608 C610 1.377 . S
N608 C611 1.321 . S
C609 H595 0.930 1_565 S
C609 C611 1.400 . S
C609 C612 1.386 . S
C610 C606 1.429 . S
C610 N608 1.377 . S
C610 C613 1.411 . S
C611 H593 0.930 . S
C611 N608 1.321 . S
C611 C609 1.400 . S
C612 H607 0.930 . S
C612 C609 1.386 . S
C612 C613 1.395 . S
C613 C610 1.411 . S
C613 C612 1.395 . S
C613 C635 1.420 . S
O614 Eu570 2.558 . S
O614 C634 1.257 . S
O615 Eu570 2.612 . S
O615 Eu581 2.380 . S
O615 C626 1.276 . S
O616 Eu581 2.432 . S
O616 C633 1.264 . S
O617 Eu570 2.339 . S
O617 C633 1.254 . S
O618 Eu570 2.563 . S
O618 C626 1.235 . S
O619 Eu570 2.419 . S
O619 C634 1.249 . S
O620 Eu581 2.558 . S
O620 C645 1.257 . S
O621 Eu570 2.380 . S
O621 Eu581 2.612 . S
O621 C637 1.276 . S
O622 Eu570 2.432 . S
O622 C644 1.264 . S
O623 Eu581 2.339 . S
O623 C644 1.254 . S
O624 Eu581 2.563 . S
O624 C637 1.235 . S
O625 Eu581 2.419 . S
O625 C645 1.249 . S
C626 O615 1.276 . S
C626 O618 1.235 . S
C627 C629 1.393 . S
C627 C631 1.395 . S
C627 C634 1.492 . S
C628 C629 1.392 . S
C628 C630 1.386 . S
C629 C627 1.393 . S
C629 C628 1.392 . S
C629 H646 0.930 . S
C630 C628 1.386 . S
C630 C632 1.395 . S
C630 H647 0.930 . S
C631 C627 1.395 . S
C631 C632 1.379 . S
C631 H648 0.930 . S
C632 C630 1.395 . S
C632 C631 1.379 . S
C632 H649 0.930 . S
C633 O616 1.264 . S
C633 O617 1.254 . S
C634 Eu570 2.848 . S
C634 O614 1.257 . S
C634 O619 1.249 . S
C634 C627 1.492 . S
C635 H600 0.931 . S
C635 C613 1.420 . S
C635 C636 1.351 . S
C636 H598 0.930 . S
C636 C604 1.423 . S
C636 C635 1.351 . S
C637 O621 1.276 . S
C637 O624 1.235 . S
C638 C639 1.393 . S
C638 C642 1.395 . S
C638 C645 1.492 . S
C639 C638 1.393 . S
C639 C640 1.392 . S
C639 H650 0.930 . S
C640 C639 1.392 . S
C640 C641 1.386 . S
C641 C640 1.386 . S
C641 C643 1.395 . S
C641 H651 0.930 . S
C642 C638 1.395 . S
C642 C643 1.379 . S
C642 H652 0.930 . S
C643 C641 1.395 . S
C643 C642 1.379 . S
C643 H653 0.930 . S
C644 O622 1.264 . S
C644 O623 1.254 . S
C645 Eu581 2.848 . S
C645 O620 1.257 . S
C645 O625 1.249 . S
C645 C638 1.492 . S
H646 C629 0.930 . S
H647 C630 0.930 . S
H648 C631 0.930 . S
H649 C632 0.930 . S
H650 C639 0.930 . S
H651 C641 0.930 . S
H652 C642 0.930 . S
H653 C643 0.930 . S
Eu654 N685 2.657 . S
Eu654 N692 2.609 . S
Eu654 O698 2.558 . S
Eu654 O699 2.612 . S
Eu654 O701 2.339 . S
Eu654 O702 2.563 . S
Eu654 O703 2.419 . S
Eu654 O705 2.380 . S
Eu654 O706 2.432 . S
Eu654 C718 2.848 . S
C655 C658 1.429 . S
C655 C659 1.411 . S
C655 N662 1.377 . S
C656 C658 1.420 1_655 S
C656 C660 1.423 . S
C656 C668 1.392 . S
C657 C659 1.420 . S
C657 C660 1.351 1_455 S
C657 H680 0.931 1_455 S
C658 C655 1.429 . S
C658 C656 1.420 1_455 S
C658 N666 1.362 . S
C659 C655 1.411 . S
C659 C657 1.420 . S
C659 C664 1.395 . S
C660 C656 1.423 . S
C660 C657 1.351 1_655 S
C660 H672 0.930 . S
C661 C663 1.400 . S
C661 C664 1.386 . S
C661 H673 0.930 . S
N662 C655 1.377 . S
N662 C663 1.321 . S
N662 Eu665 2.609 . S
C663 C661 1.400 . S
C663 N662 1.321 . S
C663 H670 0.930 . S
C664 C659 1.395 . S
C664 C661 1.386 . S
C664 H683 0.930 . S
Eu665 N662 2.609 . S
Eu665 N666 2.657 . S
Eu665 O699 2.380 . S
Eu665 O700 2.432 . S
Eu665 O704 2.558 . S
Eu665 O705 2.612 . S
Eu665 O707 2.339 . S
Eu665 O708 2.563 . S
Eu665 O709 2.419 . S
Eu665 C729 2.848 . S
N666 C658 1.362 . S
N666 Eu665 2.657 . S
N666 C667 1.334 . S
C667 N666 1.334 . S
C667 C669 1.413 1_455 S
C667 H674 0.929 . S
C668 C656 1.392 . S
C668 C669 1.367 . S
C668 H676 0.930 . S
C669 C667 1.413 1_655 S
C669 C668 1.367 . S
C669 H671 0.930 . S
H670 C663 0.930 . S
H671 C669 0.930 . S
H672 C660 0.930 . S
H673 C661 0.930 . S
H674 C667 0.929 . S
H675 C689 0.930 . S
H676 C668 0.930 . S
H677 C695 0.930 . S
H678 C686 0.929 . S
H679 C693 0.930 . S
H680 C657 0.931 1_655 S
H681 C687 0.930 . S
H682 C720 0.930 . S
H683 C664 0.930 . S
H684 C719 0.931 . S
N685 Eu654 2.657 . S
N685 C686 1.334 . S
N685 C690 1.362 . S
C686 H678 0.929 . S
C686 N685 1.334 . S
C686 C689 1.413 . S
C687 H681 0.930 . S
C687 C688 1.392 . S
C687 C689 1.367 . S
C688 C687 1.392 . S
C688 C690 1.420 . S
C688 C720 1.423 . S
C689 H675 0.930 . S
C689 C686 1.413 . S
C689 C687 1.367 . S
C690 N685 1.362 . S
C690 C688 1.420 . S
C690 C694 1.429 . S
H691 C696 0.930 . S
N692 Eu654 2.609 . S
N692 C694 1.377 . S
N692 C695 1.321 . S
C693 H679 0.930 . S
C693 C695 1.400 . S
C693 C696 1.386 . S
C694 C690 1.429 . S
C694 N692 1.377 . S
C694 C697 1.411 . S
C695 H677 0.930 . S
C695 N692 1.321 . S
C695 C693 1.400 . S
C696 H691 0.930 . S
C696 C693 1.386 . S
C696 C697 1.395 . S
C697 C694 1.411 . S
C697 C696 1.395 . S
C697 C719 1.420 . S
O698 Eu654 2.558 . S
O698 C718 1.257 . S
O699 Eu654 2.612 . S
O699 Eu665 2.380 . S
O699 C710 1.276 . S
O700 Eu665 2.432 . S
O700 C717 1.264 . S
O701 Eu654 2.339 . S
O701 C717 1.254 . S
O702 Eu654 2.563 . S
O702 C710 1.235 . S
O703 Eu654 2.419 . S
O703 C718 1.249 . S
O704 Eu665 2.558 . S
O704 C729 1.257 . S
O705 Eu654 2.380 . S
O705 Eu665 2.612 . S
O705 C721 1.276 . S
O706 Eu654 2.432 . S
O706 C728 1.264 . S
O707 Eu665 2.339 . S
O707 C728 1.254 . S
O708 Eu665 2.563 . S
O708 C721 1.235 . S
O709 Eu665 2.419 . S
O709 C729 1.249 . S
C710 O699 1.276 . S
C710 O702 1.235 . S
C711 C713 1.393 . S
C711 C715 1.395 . S
C711 C718 1.492 . S
C712 C713 1.392 . S
C712 C714 1.386 . S
C713 C711 1.393 . S
C713 C712 1.392 . S
C713 H730 0.930 . S
C714 C712 1.386 . S
C714 C716 1.395 . S
C714 H731 0.930 . S
C715 C711 1.395 . S
C715 C716 1.379 . S
C715 H732 0.930 . S
C716 C714 1.395 . S
C716 C715 1.379 . S
C716 H733 0.930 . S
C717 O700 1.264 . S
C717 O701 1.254 . S
C718 Eu654 2.848 . S
C718 O698 1.257 . S
C718 O703 1.249 . S
C718 C711 1.492 . S
C719 H684 0.931 . S
C719 C697 1.420 . S
C719 C720 1.351 . S
C720 H682 0.930 . S
C720 C688 1.423 . S
C720 C719 1.351 . S
C721 O705 1.276 . S
C721 O708 1.235 . S
C722 C723 1.393 . S
C722 C726 1.395 . S
C722 C729 1.492 . S
C723 C722 1.393 . S
C723 C724 1.392 . S
C723 H734 0.930 . S
C724 C723 1.392 . S
C724 C725 1.386 . S
C725 C724 1.386 . S
C725 C727 1.395 . S
C725 H735 0.930 . S
C726 C722 1.395 . S
C726 C727 1.379 . S
C726 H736 0.930 . S
C727 C725 1.395 . S
C727 C726 1.379 . S
C727 H737 0.930 . S
C728 O706 1.264 . S
C728 O707 1.254 . S
C729 Eu665 2.848 . S
C729 O704 1.257 . S
C729 O709 1.249 . S
C729 C722 1.492 . S
H730 C713 0.930 . S
H731 C714 0.930 . S
H732 C715 0.930 . S
H733 C716 0.930 . S
H734 C723 0.930 . S
H735 C725 0.930 . S
H736 C726 0.930 . S
H737 C727 0.930 . S
Eu738 N769 2.657 . S
Eu738 N776 2.609 . S
Eu738 O782 2.558 . S
Eu738 O783 2.612 . S
Eu738 O785 2.339 . S
Eu738 O786 2.563 . S
Eu738 O787 2.419 . S
Eu738 O789 2.380 . S
Eu738 O790 2.432 . S
Eu738 C802 2.848 . S
C739 C742 1.429 . S
C739 C743 1.411 . S
C739 N746 1.377 . S
C740 C742 1.420 1_455 S
C740 C744 1.423 . S
C740 C752 1.392 . S
C741 C743 1.420 1_455 S
C741 C744 1.351 . S
C741 H764 0.931 . S
C742 C739 1.429 . S
C742 C740 1.420 1_655 S
C742 N750 1.362 . S
C743 C739 1.411 . S
C743 C741 1.420 1_655 S
C743 C748 1.395 . S
C744 C740 1.423 . S
C744 C741 1.351 . S
C744 H756 0.930 . S
C745 C747 1.400 . S
C745 C748 1.386 . S
C745 H757 0.930 . S
N746 C739 1.377 . S
N746 C747 1.321 . S
N746 Eu749 2.609 . S
C747 C745 1.400 . S
C747 N746 1.321 . S
C747 H754 0.930 . S
C748 C743 1.395 . S
C748 C745 1.386 . S
C748 H767 0.930 . S
Eu749 N746 2.609 . S
Eu749 N750 2.657 . S
Eu749 O783 2.380 . S
Eu749 O784 2.432 . S
Eu749 O788 2.558 . S
Eu749 O789 2.612 . S
Eu749 O791 2.339 . S
Eu749 O792 2.563 . S
Eu749 O793 2.419 . S
Eu749 C813 2.848 . S
N750 C742 1.362 . S
N750 Eu749 2.657 . S
N750 C751 1.334 . S
C751 N750 1.334 . S
C751 C753 1.413 1_655 S
C751 H758 0.929 . S
C752 C740 1.392 . S
C752 C753 1.367 . S
C752 H760 0.930 . S
C753 C751 1.413 1_455 S
C753 C752 1.367 . S
C753 H755 0.930 . S
H754 C747 0.930 . S
H755 C753 0.930 . S
H756 C744 0.930 . S
H757 C745 0.930 . S
H758 C751 0.929 . S
H759 C773 0.930 . S
H760 C752 0.930 . S
H761 C779 0.930 . S
H762 C770 0.929 . S
H763 C777 0.930 . S
H764 C741 0.931 . S
H765 C771 0.930 . S
H766 C804 0.930 . S
H767 C748 0.930 . S
H768 C803 0.931 . S
N769 Eu738 2.657 . S
N769 C770 1.334 . S
N769 C774 1.362 . S
C770 H762 0.929 . S
C770 N769 1.334 . S
C770 C773 1.413 . S
C771 H765 0.930 . S
C771 C772 1.392 . S
C771 C773 1.367 . S
C772 C771 1.392 . S
C772 C774 1.420 . S
C772 C804 1.423 . S
C773 H759 0.930 . S
C773 C770 1.413 . S
C773 C771 1.367 . S
C774 N769 1.362 . S
C774 C772 1.420 . S
C774 C778 1.429 . S
H775 C780 0.930 . S
N776 Eu738 2.609 . S
N776 C778 1.377 . S
N776 C779 1.321 . S
C777 H763 0.930 . S
C777 C779 1.400 . S
C777 C780 1.386 . S
C778 C774 1.429 . S
C778 N776 1.377 . S
C778 C781 1.411 . S
C779 H761 0.930 . S
C779 N776 1.321 . S
C779 C777 1.400 . S
C780 H775 0.930 . S
C780 C777 1.386 . S
C780 C781 1.395 . S
C781 C778 1.411 . S
C781 C780 1.395 . S
C781 C803 1.420 . S
O782 Eu738 2.558 . S
O782 C802 1.257 . S
O783 Eu738 2.612 . S
O783 Eu749 2.380 . S
O783 C794 1.276 . S
O784 Eu749 2.432 . S
O784 C801 1.264 . S
O785 Eu738 2.339 . S
O785 C801 1.254 . S
O786 Eu738 2.563 . S
O786 C794 1.235 . S
O787 Eu738 2.419 . S
O787 C802 1.249 . S
O788 Eu749 2.558 . S
O788 C813 1.257 . S
O789 Eu738 2.380 . S
O789 Eu749 2.612 . S
O789 C805 1.276 . S
O790 Eu738 2.432 . S
O790 C812 1.264 . S
O791 Eu749 2.339 . S
O791 C812 1.254 . S
O792 Eu749 2.563 . S
O792 C805 1.235 . S
O793 Eu749 2.419 . S
O793 C813 1.249 . S
C794 O783 1.276 . S
C794 O786 1.235 . S
C795 C797 1.393 . S
C795 C799 1.395 . S
C795 C802 1.492 . S
C796 C797 1.392 . S
C796 C798 1.386 . S
C797 C795 1.393 . S
C797 C796 1.392 . S
C797 H814 0.930 . S
C798 C796 1.386 . S
C798 C800 1.395 . S
C798 H815 0.930 . S
C799 C795 1.395 . S
C799 C800 1.379 . S
C799 H816 0.930 . S
C800 C798 1.395 . S
C800 C799 1.379 . S
C800 H817 0.930 . S
C801 O784 1.264 . S
C801 O785 1.254 . S
C802 Eu738 2.848 . S
C802 O782 1.257 . S
C802 O787 1.249 . S
C802 C795 1.492 . S
C803 H768 0.931 . S
C803 C781 1.420 . S
C803 C804 1.351 . S
C804 H766 0.930 . S
C804 C772 1.423 . S
C804 C803 1.351 . S
C805 O789 1.276 . S
C805 O792 1.235 . S
C806 C807 1.393 . S
C806 C810 1.395 . S
C806 C813 1.492 . S
C807 C806 1.393 . S
C807 C808 1.392 . S
C807 H818 0.930 . S
C808 C807 1.392 . S
C808 C809 1.386 . S
C809 C808 1.386 . S
C809 C811 1.395 . S
C809 H819 0.930 . S
C810 C806 1.395 . S
C810 C811 1.379 . S
C810 H820 0.930 . S
C811 C809 1.395 . S
C811 C810 1.379 . S
C811 H821 0.930 . S
C812 O790 1.264 . S
C812 O791 1.254 . S
C813 Eu749 2.848 . S
C813 O788 1.257 . S
C813 O793 1.249 . S
C813 C806 1.492 . S
H814 C797 0.930 . S
H815 C798 0.930 . S
H816 C799 0.930 . S
H817 C800 0.930 . S
H818 C807 0.930 . S
H819 C809 0.930 . S
H820 C810 0.930 . S
H821 C811 0.930 . S
Eu822 N853 2.657 . S
Eu822 N860 2.609 . S
Eu822 O866 2.558 . S
Eu822 O867 2.612 . S
Eu822 O869 2.339 . S
Eu822 O870 2.563 . S
Eu822 O871 2.419 . S
Eu822 O873 2.380 . S
Eu822 O874 2.432 . S
Eu822 C886 2.848 . S
C823 C826 1.429 . S
C823 C827 1.411 . S
C823 N830 1.377 . S
C824 C826 1.420 . S
C824 C828 1.423 . S
C824 C836 1.392 . S
C825 C827 1.420 . S
C825 C828 1.351 . S
C825 H848 0.931 . S
C826 C823 1.429 . S
C826 C824 1.420 . S
C826 N834 1.362 . S
C827 C823 1.411 . S
C827 C825 1.420 . S
C827 C832 1.395 . S
C828 C824 1.423 . S
C828 C825 1.351 . S
C828 H840 0.930 . S
C829 C831 1.400 . S
C829 C832 1.386 . S
C829 H841 0.930 . S
N830 C823 1.377 . S
N830 C831 1.321 . S
N830 Eu833 2.609 . S
C831 C829 1.400 . S
C831 N830 1.321 . S
C831 H838 0.930 . S
C832 C827 1.395 . S
C832 C829 1.386 . S
C832 H851 0.930 . S
Eu833 N830 2.609 . S
Eu833 N834 2.657 . S
Eu833 O867 2.380 . S
Eu833 O868 2.432 . S
Eu833 O872 2.558 . S
Eu833 O873 2.612 . S
Eu833 O875 2.339 . S
Eu833 O876 2.563 . S
Eu833 O877 2.419 . S
Eu833 C897 2.848 . S
N834 C826 1.362 . S
N834 Eu833 2.657 . S
N834 C835 1.334 . S
C835 N834 1.334 . S
C835 C837 1.413 . S
C835 H842 0.929 . S
C836 C824 1.392 . S
C836 C837 1.367 . S
C836 H844 0.930 . S
C837 C835 1.413 . S
C837 C836 1.367 . S
C837 H839 0.930 . S
H838 C831 0.930 . S
H839 C837 0.930 . S
H840 C828 0.930 . S
H841 C829 0.930 . S
H842 C835 0.929 . S
H843 C857 0.930 . S
H844 C836 0.930 . S
H845 C863 0.930 . S
H846 C854 0.929 . S
H847 C861 0.930 . S
H848 C825 0.931 . S
H849 C855 0.930 . S
H850 C888 0.930 . S
H851 C832 0.930 . S
H852 C887 0.931 . S
N853 Eu822 2.657 . S
N853 C854 1.334 . S
N853 C858 1.362 . S
C854 H846 0.929 . S
C854 N853 1.334 . S
C854 C857 1.413 . S
C855 H849 0.930 . S
C855 C856 1.392 . S
C855 C857 1.367 . S
C856 C855 1.392 . S
C856 C858 1.420 . S
C856 C888 1.423 . S
C857 H843 0.930 . S
C857 C854 1.413 . S
C857 C855 1.367 . S
C858 N853 1.362 . S
C858 C856 1.420 . S
C858 C862 1.429 . S
H859 C864 0.930 . S
N860 Eu822 2.609 . S
N860 C862 1.377 . S
N860 C863 1.321 . S
C861 H847 0.930 . S
C861 C863 1.400 . S
C861 C864 1.386 . S
C862 C858 1.429 . S
C862 N860 1.377 . S
C862 C865 1.411 . S
C863 H845 0.930 . S
C863 N860 1.321 . S
C863 C861 1.400 . S
C864 H859 0.930 . S
C864 C861 1.386 . S
C864 C865 1.395 . S
C865 C862 1.411 . S
C865 C864 1.395 . S
C865 C887 1.420 . S
O866 Eu822 2.558 . S
O866 C886 1.257 . S
O867 Eu822 2.612 . S
O867 Eu833 2.380 . S
O867 C878 1.276 . S
O868 Eu833 2.432 . S
O868 C885 1.264 . S
O869 Eu822 2.339 . S
O869 C885 1.254 . S
O870 Eu822 2.563 . S
O870 C878 1.235 . S
O871 Eu822 2.419 . S
O871 C886 1.249 . S
O872 Eu833 2.558 . S
O872 C897 1.257 . S
O873 Eu822 2.380 . S
O873 Eu833 2.612 . S
O873 C889 1.276 . S
O874 Eu822 2.432 . S
O874 C896 1.264 . S
O875 Eu833 2.339 . S
O875 C896 1.254 . S
O876 Eu833 2.563 . S
O876 C889 1.235 . S
O877 Eu833 2.419 . S
O877 C897 1.249 . S
C878 O867 1.276 . S
C878 O870 1.235 . S
C879 C881 1.393 . S
C879 C883 1.395 . S
C879 C886 1.492 . S
C880 C881 1.392 . S
C880 C882 1.386 . S
C881 C879 1.393 . S
C881 C880 1.392 . S
C881 H898 0.930 . S
C882 C880 1.386 . S
C882 C884 1.395 . S
C882 H899 0.930 . S
C883 C879 1.395 . S
C883 C884 1.379 . S
C883 H900 0.930 . S
C884 C882 1.395 . S
C884 C883 1.379 . S
C884 H901 0.930 . S
C885 O868 1.264 . S
C885 O869 1.254 . S
C886 Eu822 2.848 . S
C886 O866 1.257 . S
C886 O871 1.249 . S
C886 C879 1.492 . S
C887 H852 0.931 . S
C887 C865 1.420 . S
C887 C888 1.351 . S
C888 H850 0.930 . S
C888 C856 1.423 . S
C888 C887 1.351 . S
C889 O873 1.276 . S
C889 O876 1.235 . S
C890 C891 1.393 . S
C890 C894 1.395 . S
C890 C897 1.492 . S
C891 C890 1.393 . S
C891 C892 1.392 . S
C891 H902 0.930 . S
C892 C891 1.392 . S
C892 C893 1.386 . S
C893 C892 1.386 . S
C893 C895 1.395 . S
C893 H903 0.930 . S
C894 C890 1.395 . S
C894 C895 1.379 . S
C894 H904 0.930 . S
C895 C893 1.395 . S
C895 C894 1.379 . S
C895 H905 0.930 . S
C896 O874 1.264 . S
C896 O875 1.254 . S
C897 Eu833 2.848 . S
C897 O872 1.257 . S
C897 O877 1.249 . S
C897 C890 1.492 . S
H898 C881 0.930 . S
H899 C882 0.930 . S
H900 C883 0.930 . S
H901 C884 0.930 . S
H902 C891 0.930 . S
H903 C893 0.930 . S
H904 C894 0.930 . S
H905 C895 0.930 . S
Eu906 N937 2.657 . S
Eu906 N944 2.609 . S
Eu906 O950 2.558 . S
Eu906 O951 2.612 . S
Eu906 O953 2.339 . S
Eu906 O954 2.563 . S
Eu906 O955 2.419 . S
Eu906 O957 2.380 . S
Eu906 O958 2.432 . S
Eu906 C970 2.848 . S
C907 C910 1.429 . S
C907 C911 1.411 . S
C907 N914 1.377 . S
C908 C910 1.420 . S
C908 C912 1.423 . S
C908 C920 1.392 . S
C909 C911 1.420 . S
C909 C912 1.351 . S
C909 H932 0.931 . S
C910 C907 1.429 . S
C910 C908 1.420 . S
C910 N918 1.362 . S
C911 C907 1.411 . S
C911 C909 1.420 . S
C911 C916 1.395 . S
C912 C908 1.423 . S
C912 C909 1.351 . S
C912 H924 0.930 . S
C913 C915 1.400 . S
C913 C916 1.386 . S
C913 H925 0.930 . S
N914 C907 1.377 . S
N914 C915 1.321 . S
N914 Eu917 2.609 . S
C915 C913 1.400 . S
C915 N914 1.321 . S
C915 H922 0.930 . S
C916 C911 1.395 . S
C916 C913 1.386 . S
C916 H935 0.930 . S
Eu917 N914 2.609 . S
Eu917 N918 2.657 . S
Eu917 O951 2.380 . S
Eu917 O952 2.432 . S
Eu917 O956 2.558 . S
Eu917 O957 2.612 . S
Eu917 O959 2.339 . S
Eu917 O960 2.563 . S
Eu917 O961 2.419 . S
Eu917 C981 2.848 . S
N918 C910 1.362 . S
N918 Eu917 2.657 . S
N918 C919 1.334 . S
C919 N918 1.334 . S
C919 C921 1.413 . S
C919 H926 0.929 . S
C920 C908 1.392 . S
C920 C921 1.367 . S
C920 H928 0.930 . S
C921 C919 1.413 . S
C921 C920 1.367 . S
C921 H923 0.930 . S
H922 C915 0.930 . S
H923 C921 0.930 . S
H924 C912 0.930 . S
H925 C913 0.930 . S
H926 C919 0.929 . S
H927 C941 0.926 1_455 S
H928 C920 0.930 . S
H929 C947 0.930 . S
H930 C938 0.929 . S
H931 C945 0.930 1_565 S
H932 C909 0.931 . S
H933 C939 0.930 . S
H934 C972 0.930 . S
H935 C916 0.930 . S
H936 C971 0.931 . S
N937 Eu906 2.657 . S
N937 C938 1.334 . S
N937 C942 1.362 . S
C938 H930 0.929 . S
C938 N937 1.334 . S
C938 C941 1.440 . S
C939 H933 0.930 . S
C939 C940 1.392 1_455 S
C939 C941 1.346 1_455 S
C940 C939 1.392 1_655 S
C940 C942 1.420 . S
C940 C972 1.423 1_655 S
C941 H927 0.926 1_655 S
C941 C938 1.440 . S
C941 C939 1.346 1_655 S
C942 N937 1.362 . S
C942 C940 1.420 . S
C942 C946 1.429 . S
H943 C948 0.930 . S
N944 Eu906 2.609 . S
N944 C946 1.377 . S
N944 C947 1.321 . S
C945 H931 0.930 1_545 S
C945 C947 1.400 . S
C945 C948 1.386 . S
C946 C942 1.429 . S
C946 N944 1.377 . S
C946 C949 1.411 . S
C947 H929 0.930 . S
C947 N944 1.321 . S
C947 C945 1.400 . S
C948 H943 0.930 . S
C948 C945 1.386 . S
C948 C949 1.395 . S
C949 C946 1.411 . S
C949 C948 1.395 . S
C949 C971 1.420 . S
O950 Eu906 2.558 . S
O950 C970 1.257 . S
O951 Eu906 2.612 . S
O951 Eu917 2.380 . S
O951 C962 1.276 . S
O952 Eu917 2.432 . S
O952 C969 1.264 . S
O953 Eu906 2.339 . S
O953 C969 1.254 . S
O954 Eu906 2.563 . S
O954 C962 1.235 . S
O955 Eu906 2.419 . S
O955 C970 1.249 . S
O956 Eu917 2.558 . S
O956 C981 1.257 . S
O957 Eu906 2.380 . S
O957 Eu917 2.612 . S
O957 C973 1.276 . S
O958 Eu906 2.432 . S
O958 C980 1.264 . S
O959 Eu917 2.339 . S
O959 C980 1.254 . S
O960 Eu917 2.563 . S
O960 C973 1.235 . S
O961 Eu917 2.419 . S
O961 C981 1.249 . S
C962 O951 1.276 . S
C962 O954 1.235 . S
C963 C965 1.393 . S
C963 C967 1.395 . S
C963 C970 1.492 . S
C964 C965 1.392 . S
C964 C966 1.386 . S
C965 C963 1.393 . S
C965 C964 1.392 . S
C965 H982 0.930 . S
C966 C964 1.386 . S
C966 C968 1.395 . S
C966 H983 0.930 . S
C967 C963 1.395 . S
C967 C968 1.379 . S
C967 H984 0.930 . S
C968 C966 1.395 . S
C968 C967 1.379 . S
C968 H985 0.930 . S
C969 O952 1.264 . S
C969 O953 1.254 . S
C970 Eu906 2.848 . S
C970 O950 1.257 . S
C970 O955 1.249 . S
C970 C963 1.492 . S
C971 H936 0.931 . S
C971 C949 1.420 . S
C971 C972 1.351 1_655 S
C972 H934 0.930 . S
C972 C940 1.423 1_455 S
C972 C971 1.351 1_455 S
C973 O957 1.276 . S
C973 O960 1.235 . S
C974 C975 1.393 . S
C974 C978 1.395 . S
C974 C981 1.492 . S
C975 C974 1.393 . S
C975 C976 1.392 . S
C975 H986 0.930 . S
C976 C975 1.392 . S
C976 C977 1.386 . S
C977 C976 1.386 . S
C977 C979 1.395 . S
C977 H987 0.930 . S
C978 C974 1.395 . S
C978 C979 1.379 . S
C978 H988 0.930 . S
C979 C977 1.395 . S
C979 C978 1.379 . S
C979 H989 0.930 . S
C980 O958 1.264 . S
C980 O959 1.254 . S
C981 Eu917 2.848 . S
C981 O956 1.257 . S
C981 O961 1.249 . S
C981 C974 1.492 . S
H982 C965 0.930 . S
H983 C966 0.930 . S
H984 C967 0.930 . S
H985 C968 0.930 . S
H986 C975 0.930 . S
H987 C977 0.930 . S
H988 C978 0.930 . S
H989 C979 0.930 . S
C990 C991 1.387 . S
C990 H994 0.950 . S
C990 C999 1.390 . S
C991 C990 1.387 . S
C991 C993 1.387 . S
H992 C999 0.950 . S
C993 C991 1.387 . S
C993 C995 1.390 . S
C993 H997 0.950 . S
H994 C990 0.950 . S
C995 C993 1.390 . S
C995 C996 1.387 . S
C995 H998 0.950 . S
C996 C995 1.387 . S
C996 C999 1.387 . S
H997 C993 0.950 . S
H998 C995 0.950 . S
C999 C990 1.390 . S
C999 H992 0.950 . S
C999 C996 1.387 . S
C1000 C1001 1.387 . S
C1000 H1004 0.950 . S
C1000 C1009 1.390 . S
C1001 C1000 1.387 . S
C1001 C1003 1.387 . S
H1002 C1009 0.950 . S
C1003 C1001 1.387 . S
C1003 C1005 1.390 . S
C1003 H1007 0.950 . S
H1004 C1000 0.950 . S
C1005 C1003 1.390 . S
C1005 C1006 1.387 . S
C1005 H1008 0.950 . S
C1006 C1005 1.387 . S
C1006 C1009 1.387 . S
H1007 C1003 0.950 . S
H1008 C1005 0.950 . S
C1009 C1000 1.390 . S
C1009 H1002 0.950 . S
C1009 C1006 1.387 . S
C1010 C1011 1.387 . S
C1010 H1014 0.950 . S
C1010 C1019 1.390 . S
C1011 C1010 1.387 . S
C1011 C1013 1.387 . S
H1012 C1019 0.950 . S
C1013 C1011 1.387 . S
C1013 C1015 1.390 . S
C1013 H1017 0.950 . S
H1014 C1010 0.950 . S
C1015 C1013 1.390 . S
C1015 C1016 1.387 . S
C1015 H1018 0.950 . S
C1016 C1015 1.387 . S
C1016 C1019 1.387 . S
H1017 C1013 0.950 . S
H1018 C1015 0.950 . S
C1019 C1010 1.390 . S
C1019 H1012 0.950 . S
C1019 C1016 1.387 . S
C1020 C1021 1.387 . S
C1020 H1024 0.950 . S
C1020 C1029 1.390 . S
C1021 C1020 1.387 . S
C1021 C1023 1.387 . S
H1022 C1029 0.950 . S
C1023 C1021 1.387 . S
C1023 C1025 1.390 1_556 S
C1023 H1027 0.950 1_556 S
H1024 C1020 0.950 . S
C1025 C1023 1.390 1_554 S
C1025 C1026 1.387 1_554 S
C1025 H1028 0.950 . S
C1026 C1025 1.387 1_556 S
C1026 C1029 1.387 . S
H1027 C1023 0.950 1_554 S
H1028 C1025 0.950 . S
C1029 C1020 1.390 . S
C1029 H1022 0.950 . S
C1029 C1026 1.387 . S
C1030 C1031 1.387 . S
C1030 H1034 0.950 1_556 S
C1030 C1039 1.390 1_556 S
C1031 C1030 1.387 . S
C1031 C1033 1.387 . S
H1032 C1039 0.950 . S
C1033 C1031 1.387 . S
C1033 C1035 1.390 . S
C1033 H1037 0.950 . S
H1034 C1030 0.950 1_554 S
C1035 C1033 1.390 . S
C1035 C1036 1.387 1_556 S
C1035 H1038 0.950 . S
C1036 C1035 1.387 1_554 S
C1036 C1039 1.387 . S
H1037 C1033 0.950 . S
H1038 C1035 0.950 . S
C1039 C1030 1.390 1_554 S
C1039 H1032 0.950 . S
C1039 C1036 1.387 . S
C1040 C1041 1.387 . S
C1040 H1044 0.950 . S
C1040 C1049 1.390 . S
C1041 C1040 1.387 . S
C1041 C1043 1.387 1_556 S
H1042 C1049 0.950 . S
C1043 C1041 1.387 1_554 S
C1043 C1045 1.390 . S
C1043 H1047 0.950 . S
H1044 C1040 0.950 . S
C1045 C1043 1.390 . S
C1045 C1046 1.387 1_554 S
C1045 H1048 0.950 . S
C1046 C1045 1.387 1_556 S
C1046 C1049 1.387 . S
H1047 C1043 0.950 . S
H1048 C1045 0.950 . S
C1049 C1040 1.390 . S
C1049 H1042 0.950 . S
C1049 C1046 1.387 . S
C1050 C1051 1.387 1_554 S
C1050 H1054 0.950 . S
C1050 C1059 1.390 . S
C1051 C1050 1.387 1_556 S
C1051 C1053 1.387 . S
H1052 C1059 0.950 . S
C1053 C1051 1.387 . S
C1053 C1055 1.390 . S
C1053 H1057 0.950 . S
H1054 C1050 0.950 . S
C1055 C1053 1.390 . S
C1055 C1056 1.387 . S
C1055 H1058 0.950 . S
C1056 C1055 1.387 . S
C1056 C1059 1.387 1_556 S
H1057 C1053 0.950 . S
H1058 C1055 0.950 . S
C1059 C1050 1.390 . S
C1059 H1052 0.950 . S
C1059 C1056 1.387 1_554 S
C1060 C1061 1.387 . S
C1060 H1064 0.950 1_556 S
C1060 C1069 1.403 . S
C1061 C1060 1.387 . S
C1061 C1063 1.387 . S
H1062 C1069 0.916 1_554 S
C1063 C1061 1.387 . S
C1063 C1065 1.390 . S
C1063 H1067 0.950 . S
H1064 C1060 0.950 1_554 S
C1065 C1063 1.390 . S
C1065 C1066 1.387 . S
C1065 H1068 0.950 . S
C1066 C1065 1.387 . S
C1066 C1069 1.410 . S
H1067 C1063 0.950 . S
H1068 C1065 0.950 . S
C1069 C1060 1.403 . S
C1069 H1062 0.916 1_556 S
C1069 C1066 1.410 . S
C1070 C1071 1.387 . S
C1070 H1074 0.950 . S
C1070 C1079 1.390 . S
C1071 C1070 1.387 . S
C1071 C1073 1.387 1_556 S
H1072 C1079 0.950 . S
C1073 C1071 1.387 1_554 S
C1073 C1075 1.390 . S
C1073 H1077 0.950 . S
H1074 C1070 0.950 . S
C1075 C1073 1.390 . S
C1075 C1076 1.387 . S
C1075 H1078 0.950 . S
C1076 C1075 1.387 . S
C1076 C1079 1.387 1_554 S
H1077 C1073 0.950 . S
H1078 C1075 0.950 . S
C1079 C1070 1.390 . S
C1079 H1072 0.950 . S
C1079 C1076 1.387 1_556 S
C1080 C1081 1.387 . S
C1080 H1084 0.950 . S
C1080 C1089 1.390 . S
C1081 C1080 1.387 . S
C1081 C1083 1.387 . S
H1082 C1089 0.950 1_556 S
C1083 C1081 1.387 . S
C1083 C1085 1.390 . S
C1083 H1087 0.950 . S
H1084 C1080 0.950 . S
C1085 C1083 1.390 . S
C1085 C1086 1.387 . S
C1085 H1088 0.950 . S
C1086 C1085 1.387 . S
C1086 C1089 1.387 . S
H1087 C1083 0.950 . S
H1088 C1085 0.950 . S
C1089 C1080 1.390 . S
C1089 H1082 0.950 1_554 S
C1089 C1086 1.387 . S
C1090 C1091 1.387 . S
C1090 H1094 0.950 . S
C1090 C1099 1.390 . S
C1091 C1090 1.387 . S
C1091 C1093 1.387 . S
H1092 C1099 0.950 . S
C1093 C1091 1.387 . S
C1093 C1095 1.390 . S
C1093 H1097 0.950 . S
H1094 C1090 0.950 . S
C1095 C1093 1.390 . S
C1095 C1096 1.387 . S
C1095 H1098 0.950 . S
C1096 C1095 1.387 . S
C1096 C1099 1.387 . S
H1097 C1093 0.950 . S
H1098 C1095 0.950 . S
C1099 C1090 1.390 . S
C1099 H1092 0.950 . S
C1099 C1096 1.387 . S
C1100 C1101 1.387 . S
C1100 H1104 0.950 . S
C1100 C1109 1.390 . S
C1101 C1100 1.387 . S
C1101 C1103 1.387 . S
H1102 C1109 0.950 . S
C1103 C1101 1.387 . S
C1103 C1105 1.390 . S
C1103 H1107 0.950 . S
H1104 C1100 0.950 . S
C1105 C1103 1.390 . S
C1105 C1106 1.387 . S
C1105 H1108 0.950 . S
C1106 C1105 1.387 . S
C1106 C1109 1.387 . S
H1107 C1103 0.950 . S
H1108 C1105 0.950 . S
C1109 C1100 1.390 . S
C1109 H1102 0.950 . S
C1109 C1106 1.387 . S
C1110 C1111 1.387 . S
C1110 H1114 0.950 . S
C1110 C1119 1.390 1_655 S
C1111 C1110 1.387 . S
C1111 C1113 1.387 . S
H1112 C1119 0.950 . S
C1113 C1111 1.387 . S
C1113 C1115 1.390 1_655 S
C1113 H1117 0.950 . S
H1114 C1110 0.950 . S
C1115 C1113 1.390 1_455 S
C1115 C1116 1.387 . S
C1115 H1118 0.950 . S
C1116 C1115 1.387 . S
C1116 C1119 1.387 . S
H1117 C1113 0.950 . S
H1118 C1115 0.950 . S
C1119 C1110 1.390 1_455 S
C1119 H1112 0.950 . S
C1119 C1116 1.387 . S
C1120 C1121 1.387 . S
C1120 H1124 0.950 . S
C1120 C1129 1.390 . S
C1121 C1120 1.387 . S
C1121 C1123 1.387 . S
H1122 C1129 0.950 . S
C1123 C1121 1.387 . S
C1123 C1125 1.390 . S
C1123 H1127 0.950 . S
H1124 C1120 0.950 . S
C1125 C1123 1.390 . S
C1125 C1126 1.387 . S
C1125 H1128 0.950 . S
C1126 C1125 1.387 . S
C1126 C1129 1.387 . S
H1127 C1123 0.950 . S
H1128 C1125 0.950 . S
C1129 C1120 1.390 . S
C1129 H1122 0.950 . S
C1129 C1126 1.387 . S
C1130 C1131 1.387 . S
C1130 H1134 0.950 . S
C1130 C1139 1.390 1_545 S
C1131 C1130 1.387 . S
C1131 C1133 1.387 1_545 S
H1132 C1139 0.950 . S
C1133 C1131 1.387 1_565 S
C1133 C1135 1.390 . S
C1133 H1137 0.950 1_565 S
H1134 C1130 0.950 . S
C1135 C1133 1.390 . S
C1135 C1136 1.387 . S
C1135 H1138 0.950 . S
C1136 C1135 1.387 . S
C1136 C1139 1.387 . S
H1137 C1133 0.950 1_545 S
H1138 C1135 0.950 . S
C1139 C1130 1.390 1_565 S
C1139 H1132 0.950 . S
C1139 C1136 1.387 . S
C1140 C1141 1.387 . S
C1140 H1144 0.950 . S
C1140 C1149 1.390 . S
C1141 C1140 1.387 . S
C1141 C1143 1.387 . S
H1142 C1149 0.950 . S
C1143 C1141 1.387 . S
C1143 C1145 1.390 . S
C1143 H1147 0.950 . S
H1144 C1140 0.950 . S
C1145 C1143 1.390 . S
C1145 C1146 1.387 . S
C1145 H1148 0.950 . S
C1146 C1145 1.387 . S
C1146 C1149 1.387 . S
H1147 C1143 0.950 . S
H1148 C1145 0.950 . S
C1149 C1140 1.390 . S
C1149 H1142 0.950 . S
C1149 C1146 1.387 . S
C1150 C1151 1.387 . S
C1150 H1154 0.950 . S
C1150 C1159 1.390 . S
C1151 C1150 1.387 . S
C1151 C1153 1.387 . S
H1152 C1159 0.950 . S
C1153 C1151 1.387 . S
C1153 C1155 1.390 . S
C1153 H1157 0.950 . S
H1154 C1150 0.950 . S
C1155 C1153 1.390 . S
C1155 C1156 1.387 . S
C1155 H1158 0.950 . S
C1156 C1155 1.387 . S
C1156 C1159 1.387 . S
H1157 C1153 0.950 . S
H1158 C1155 0.950 . S
C1159 C1150 1.390 . S
C1159 H1152 0.950 . S
C1159 C1156 1.387 . S
C1160 C1161 1.387 . S
C1160 H1164 0.950 . S
C1160 C1169 1.390 . S
C1161 C1160 1.387 . S
C1161 C1163 1.387 . S
H1162 C1169 0.950 . S
C1163 C1161 1.387 . S
C1163 C1165 1.390 . S
C1163 H1167 0.950 . S
H1164 C1160 0.950 . S
C1165 C1163 1.390 . S
C1165 C1166 1.387 . S
C1165 H1168 0.950 . S
C1166 C1165 1.387 . S
C1166 C1169 1.387 . S
H1167 C1163 0.950 . S
H1168 C1165 0.950 . S
C1169 C1160 1.390 . S
C1169 H1162 0.950 . S
C1169 C1166 1.387 . S
C1170 C1171 1.387 . S
C1170 H1174 0.950 . S
C1170 C1179 1.390 . S
C1171 C1170 1.387 . S
C1171 C1173 1.387 . S
H1172 C1179 0.950 . S
C1173 C1171 1.387 . S
C1173 C1175 1.390 . S
C1173 H1177 0.950 . S
H1174 C1170 0.950 . S
C1175 C1173 1.390 . S
C1175 C1176 1.387 . S
C1175 H1178 0.950 . S
C1176 C1175 1.387 . S
C1176 C1179 1.387 . S
H1177 C1173 0.950 . S
H1178 C1175 0.950 . S
C1179 C1170 1.390 . S
C1179 H1172 0.950 . S
C1179 C1176 1.387 . S
C1180 C1181 1.387 . S
C1180 H1184 0.950 . S
C1180 C1189 1.390 . S
C1181 C1180 1.387 . S
C1181 C1183 1.387 . S
H1182 C1189 0.950 . S
C1183 C1181 1.387 . S
C1183 C1185 1.390 . S
C1183 H1187 0.950 . S
H1184 C1180 0.950 . S
C1185 C1183 1.390 . S
C1185 C1186 1.387 . S
C1185 H1188 0.950 . S
C1186 C1185 1.387 . S
C1186 C1189 1.387 . S
H1187 C1183 0.950 . S
H1188 C1185 0.950 . S
C1189 C1180 1.390 . S
C1189 H1182 0.950 . S
C1189 C1186 1.387 . S
C1190 C1191 1.387 . S
C1190 H1194 0.950 . S
C1190 C1199 1.390 . S
C1191 C1190 1.387 . S
C1191 C1193 1.387 . S
H1192 C1199 0.950 . S
C1193 C1191 1.387 . S
C1193 C1195 1.390 . S
C1193 H1197 0.950 . S
H1194 C1190 0.950 . S
C1195 C1193 1.390 . S
C1195 C1196 1.387 . S
C1195 H1198 0.950 . S
C1196 C1195 1.387 . S
C1196 C1199 1.387 . S
H1197 C1193 0.950 . S
H1198 C1195 0.950 . S
C1199 C1190 1.390 . S
C1199 H1192 0.950 . S
C1199 C1196 1.387 . S
C1200 C1201 1.387 . S
C1200 H1204 0.950 . S
C1200 C1209 1.390 . S
C1201 C1200 1.387 . S
C1201 C1203 1.387 . S
H1202 C1209 0.950 . S
C1203 C1201 1.387 . S
C1203 C1205 1.390 1_545 S
C1203 H1207 0.950 . S
H1204 C1200 0.950 . S
C1205 C1203 1.390 1_565 S
C1205 C1206 1.387 . S
C1205 H1208 0.950 . S
C1206 C1205 1.387 . S
C1206 C1209 1.387 1_565 S
H1207 C1203 0.950 . S
H1208 C1205 0.950 . S
C1209 C1200 1.390 . S
C1209 H1202 0.950 . S
C1209 C1206 1.387 1_545 S
C1210 C1211 1.387 . S
C1210 H1214 0.950 . S
C1210 C1219 1.390 1_655 S
C1211 C1210 1.387 . S
C1211 C1213 1.387 1_655 S
H1212 C1219 0.950 . S
C1213 C1211 1.387 1_455 S
C1213 C1215 1.390 . S
C1213 H1217 0.950 . S
H1214 C1210 0.950 . S
C1215 C1213 1.390 . S
C1215 C1216 1.387 . S
C1215 H1218 0.950 . S
C1216 C1215 1.387 . S
C1216 C1219 1.387 . S
H1217 C1213 0.950 . S
H1218 C1215 0.950 . S
C1219 C1210 1.390 1_455 S
C1219 H1212 0.950 . S
C1219 C1216 1.387 . S
C1220 C1221 1.387 . S
C1220 H1224 0.950 . S
C1220 C1229 1.390 . S
C1221 C1220 1.387 . S
C1221 C1223 1.387 . S
H1222 C1229 0.950 . S
C1223 C1221 1.387 . S
C1223 C1225 1.390 . S
C1223 H1227 0.950 . S
H1224 C1220 0.950 . S
C1225 C1223 1.390 . S
C1225 C1226 1.387 . S
C1225 H1228 0.950 . S
C1226 C1225 1.387 . S
C1226 C1229 1.387 . S
H1227 C1223 0.950 . S
H1228 C1225 0.950 . S
C1229 C1220 1.390 . S
C1229 H1222 0.950 . S
C1229 C1226 1.387 . S
C1230 C1231 1.387 . S
C1230 H1234 0.950 . S
C1230 C1239 1.390 . S
C1231 C1230 1.387 . S
C1231 C1233 1.387 . S
H1232 C1239 0.950 . S
C1233 C1231 1.387 . S
C1233 C1235 1.390 . S
C1233 H1237 0.950 . S
H1234 C1230 0.950 . S
C1235 C1233 1.390 . S
C1235 C1236 1.387 . S
C1235 H1238 0.950 . S
C1236 C1235 1.387 . S
C1236 C1239 1.387 . S
H1237 C1233 0.950 . S
H1238 C1235 0.950 . S
C1239 C1230 1.390 . S
C1239 H1232 0.950 . S
C1239 C1236 1.387 . S
C1240 C1241 1.387 . S
C1240 H1244 0.950 . S
C1240 C1249 1.390 . S
C1241 C1240 1.387 . S
C1241 C1243 1.387 . S
H1242 C1249 0.950 . S
C1243 C1241 1.387 . S
C1243 C1245 1.390 . S
C1243 H1247 0.950 . S
H1244 C1240 0.950 . S
C1245 C1243 1.390 . S
C1245 C1246 1.387 . S
C1245 H1248 0.950 . S
C1246 C1245 1.387 . S
C1246 C1249 1.387 . S
H1247 C1243 0.950 . S
H1248 C1245 0.950 . S
C1249 C1240 1.390 . S
C1249 H1242 0.950 . S
C1249 C1246 1.387 . S
C1250 C1251 1.387 . S
C1250 H1254 0.950 . S
C1250 C1259 1.390 . S
C1251 C1250 1.387 . S
C1251 C1253 1.387 . S
H1252 C1259 0.950 . S
C1253 C1251 1.387 . S
C1253 C1255 1.390 . S
C1253 H1257 0.950 . S
H1254 C1250 0.950 . S
C1255 C1253 1.390 . S
C1255 C1256 1.387 . S
C1255 H1258 0.950 . S
C1256 C1255 1.387 . S
C1256 C1259 1.387 . S
H1257 C1253 0.950 . S
H1258 C1255 0.950 . S
C1259 C1250 1.390 . S
C1259 H1252 0.950 . S
C1259 C1256 1.387 . S
C1260 C1261 1.387 . S
C1260 H1264 0.950 . S
C1260 C1269 1.390 1_565 S
C1261 C1260 1.387 . S
C1261 C1263 1.387 1_565 S
H1262 C1269 0.950 . S
C1263 C1261 1.387 1_545 S
C1263 C1265 1.390 . S
C1263 H1267 0.950 . S
H1264 C1260 0.950 . S
C1265 C1263 1.390 . S
C1265 C1266 1.387 . S
C1265 H1268 0.950 . S
C1266 C1265 1.387 . S
C1266 C1269 1.387 . S
H1267 C1263 0.950 . S
H1268 C1265 0.950 . S
C1269 C1260 1.390 1_545 S
C1269 H1262 0.950 . S
C1269 C1266 1.387 . S
C1270 C1271 1.387 . S
C1270 H1274 0.950 . S
C1270 C1279 1.390 . S
C1271 C1270 1.387 . S
C1271 C1273 1.387 . S
H1272 C1279 0.950 . S
C1273 C1271 1.387 . S
C1273 C1275 1.390 . S
C1273 H1277 0.950 1_655 S
H1274 C1270 0.950 . S
C1275 C1273 1.390 . S
C1275 C1276 1.387 . S
C1275 H1278 0.950 . S
C1276 C1275 1.387 . S
C1276 C1279 1.387 . S
H1277 C1273 0.950 1_455 S
H1278 C1275 0.950 . S
C1279 C1270 1.390 . S
C1279 H1272 0.950 . S
C1279 C1276 1.387 . S
C1280 C1281 1.387 . S
C1280 H1284 0.950 . S
C1280 C1289 1.390 . S
C1281 C1280 1.387 . S
C1281 C1283 1.387 . S
H1282 C1289 0.950 . S
C1283 C1281 1.387 . S
C1283 C1285 1.390 . S
C1283 H1287 0.950 . S
H1284 C1280 0.950 . S
C1285 C1283 1.390 . S
C1285 C1286 1.387 . S
C1285 H1288 0.950 . S
C1286 C1285 1.387 . S
C1286 C1289 1.387 . S
H1287 C1283 0.950 . S
H1288 C1285 0.950 . S
C1289 C1280 1.390 . S
C1289 H1282 0.950 . S
C1289 C1286 1.387 . S
C1290 C1291 1.387 . S
C1290 H1294 0.950 . S
C1290 C1299 1.390 1_455 S
C1291 C1290 1.387 . S
C1291 C1293 1.387 . S
H1292 C1299 0.950 . S
C1293 C1291 1.387 . S
C1293 C1295 1.390 . S
C1293 H1297 0.950 . S
H1294 C1290 0.950 . S
C1295 C1293 1.390 . S
C1295 C1296 1.387 1_455 S
C1295 H1298 0.950 . S
C1296 C1295 1.387 1_655 S
C1296 C1299 1.387 . S
H1297 C1293 0.950 . S
H1298 C1295 0.950 . S
C1299 C1290 1.390 1_655 S
C1299 H1292 0.950 . S
C1299 C1296 1.387 . S
C1300 C1301 1.387 . S
C1300 H1304 0.950 . S
C1300 C1309 1.390 . S
C1301 C1300 1.387 . S
C1301 C1303 1.387 . S
H1302 C1309 0.950 . S
C1303 C1301 1.387 . S
C1303 C1305 1.390 . S
C1303 H1307 0.950 . S
H1304 C1300 0.950 . S
C1305 C1303 1.390 . S
C1305 C1306 1.387 . S
C1305 H1308 0.950 . S
C1306 C1305 1.387 . S
C1306 C1309 1.387 . S
H1307 C1303 0.950 . S
H1308 C1305 0.950 . S
C1309 C1300 1.390 . S
C1309 H1302 0.950 . S
C1309 C1306 1.387 . S
C1310 C1311 1.387 . S
C1310 H1314 0.950 . S
C1310 C1319 1.390 . S
C1311 C1310 1.387 . S
C1311 C1313 1.387 . S
H1312 C1319 0.950 . S
C1313 C1311 1.387 . S
C1313 C1315 1.390 1_565 S
C1313 H1317 0.950 . S
H1314 C1310 0.950 . S
C1315 C1313 1.390 1_545 S
C1315 C1316 1.387 . S
C1315 H1318 0.950 . S
C1316 C1315 1.387 . S
C1316 C1319 1.387 1_545 S
H1317 C1313 0.950 . S
H1318 C1315 0.950 . S
C1319 C1310 1.390 . S
C1319 H1312 0.950 . S
C1319 C1316 1.387 1_565 S
C1320 C1321 1.387 . S
C1320 H1324 0.950 . S
C1320 C1329 1.390 . S
C1321 C1320 1.387 . S
C1321 C1323 1.387 . S
H1322 C1329 0.950 . S
C1323 C1321 1.387 . S
C1323 C1325 1.390 . S
C1323 H1327 0.950 . S
H1324 C1320 0.950 . S
C1325 C1323 1.390 . S
C1325 C1326 1.387 . S
C1325 H1328 0.950 . S
C1326 C1325 1.387 . S
C1326 C1329 1.387 . S
H1327 C1323 0.950 . S
H1328 C1325 0.950 . S
C1329 C1320 1.390 . S
C1329 H1322 0.950 . S
C1329 C1326 1.387 . S
C1330 C1331 1.387 . S
C1330 H1334 0.950 . S
C1330 C1339 1.390 . S
C1331 C1330 1.387 . S
C1331 C1333 1.387 . S
H1332 C1339 0.950 . S
C1333 C1331 1.387 . S
C1333 C1335 1.390 . S
C1333 H1337 0.950 . S
H1334 C1330 0.950 . S
C1335 C1333 1.390 . S
C1335 C1336 1.387 . S
C1335 H1338 0.950 . S
C1336 C1335 1.387 . S
C1336 C1339 1.387 . S
H1337 C1333 0.950 . S
H1338 C1335 0.950 . S
C1339 C1330 1.390 . S
C1339 H1332 0.950 . S
C1339 C1336 1.387 . S
C1340 C1341 1.387 . S
C1340 H1344 0.950 . S
C1340 C1349 1.390 . S
C1341 C1340 1.387 . S
C1341 C1343 1.387 . S
H1342 C1349 0.950 . S
C1343 C1341 1.387 . S
C1343 C1345 1.390 . S
C1343 H1347 0.950 . S
H1344 C1340 0.950 . S
C1345 C1343 1.390 . S
C1345 C1346 1.387 . S
C1345 H1348 0.950 . S
C1346 C1345 1.387 . S
C1346 C1349 1.387 . S
H1347 C1343 0.950 . S
H1348 C1345 0.950 . S
C1349 C1340 1.390 . S
C1349 H1342 0.950 . S
C1349 C1346 1.387 . S
C1350 C1351 1.387 . S
C1350 H1354 0.950 . S
C1350 C1359 1.390 . S
C1351 C1350 1.387 . S
C1351 C1353 1.387 . S
H1352 C1359 0.950 . S
C1353 C1351 1.387 . S
C1353 C1355 1.390 . S
C1353 H1357 0.950 . S
H1354 C1350 0.950 . S
C1355 C1353 1.390 . S
C1355 C1356 1.387 . S
C1355 H1358 0.950 . S
C1356 C1355 1.387 . S
C1356 C1359 1.387 . S
H1357 C1353 0.950 . S
H1358 C1355 0.950 . S
C1359 C1350 1.390 . S
C1359 H1352 0.950 . S
C1359 C1356 1.387 . S
C1360 C1361 1.387 . S
C1360 H1364 0.950 . S
C1360 C1369 1.390 . S
C1361 C1360 1.387 . S
C1361 C1363 1.387 . S
H1362 C1369 0.950 . S
C1363 C1361 1.387 . S
C1363 C1365 1.390 . S
C1363 H1367 0.950 . S
H1364 C1360 0.950 . S
C1365 C1363 1.390 . S
C1365 C1366 1.387 . S
C1365 H1368 0.950 . S
C1366 C1365 1.387 . S
C1366 C1369 1.387 . S
H1367 C1363 0.950 . S
H1368 C1365 0.950 . S
C1369 C1360 1.390 . S
C1369 H1362 0.950 . S
C1369 C1366 1.387 . S
C1370 C1371 1.387 . S
C1370 H1374 0.950 . S
C1370 C1379 1.390 . S
C1371 C1370 1.387 . S
C1371 C1373 1.387 . S
H1372 C1379 0.950 . S
C1373 C1371 1.387 . S
C1373 C1375 1.390 . S
C1373 H1377 0.950 . S
H1374 C1370 0.950 . S
C1375 C1373 1.390 . S
C1375 C1376 1.387 . S
C1375 H1378 0.950 . S
C1376 C1375 1.387 . S
C1376 C1379 1.387 . S
H1377 C1373 0.950 . S
H1378 C1375 0.950 . S
C1379 C1370 1.390 . S
C1379 H1372 0.950 . S
C1379 C1376 1.387 . S
C1380 C1381 1.387 . S
C1380 H1384 0.950 1_655 S
C1380 C1389 1.390 . S
C1381 C1380 1.387 . S
C1381 C1383 1.387 . S
H1382 C1389 0.950 1_455 S
C1383 C1381 1.387 . S
C1383 C1385 1.390 . S
C1383 H1387 0.950 . S
H1384 C1380 0.950 1_455 S
C1385 C1383 1.390 . S
C1385 C1386 1.387 . S
C1385 H1388 0.950 . S
C1386 C1385 1.387 . S
C1386 C1389 1.387 . S
H1387 C1383 0.950 . S
H1388 C1385 0.950 . S
C1389 C1380 1.390 . S
C1389 H1382 0.950 1_655 S
C1389 C1386 1.387 . S
C1390 C1391 1.387 . S
C1390 H1394 0.950 . S
C1390 C1399 1.390 . S
C1391 C1390 1.387 . S
C1391 C1393 1.387 . S
H1392 C1399 0.950 . S
C1393 C1391 1.387 . S
C1393 C1395 1.390 . S
C1393 H1397 0.950 . S
H1394 C1390 0.950 . S
C1395 C1393 1.390 . S
C1395 C1396 1.387 . S
C1395 H1398 0.950 . S
C1396 C1395 1.387 . S
C1396 C1399 1.387 . S
H1397 C1393 0.950 . S
H1398 C1395 0.950 . S
C1399 C1390 1.390 . S
C1399 H1392 0.950 . S
C1399 C1396 1.387 . S
C1400 C1401 1.387 . S
C1400 H1404 0.950 . S
C1400 C1409 1.390 . S
C1401 C1400 1.387 . S
C1401 C1403 1.387 . S
H1402 C1409 0.950 . S
C1403 C1401 1.387 . S
C1403 C1405 1.390 . S
C1403 H1407 0.950 . S
H1404 C1400 0.950 . S
C1405 C1403 1.390 . S
C1405 C1406 1.387 . S
C1405 H1408 0.950 . S
C1406 C1405 1.387 . S
C1406 C1409 1.387 . S
H1407 C1403 0.950 . S
H1408 C1405 0.950 . S
C1409 C1400 1.390 . S
C1409 H1402 0.950 . S
C1409 C1406 1.387 . S
C1410 C1411 1.387 . S
C1410 H1414 0.950 . S
C1410 C1419 1.390 . S
C1411 C1410 1.387 . S
C1411 C1413 1.387 . S
H1412 C1419 0.950 . S
C1413 C1411 1.387 . S
C1413 C1415 1.390 . S
C1413 H1417 0.950 . S
H1414 C1410 0.950 . S
C1415 C1413 1.390 . S
C1415 C1416 1.387 . S
C1415 H1418 0.950 . S
C1416 C1415 1.387 . S
C1416 C1419 1.387 . S
H1417 C1413 0.950 . S
H1418 C1415 0.950 . S
C1419 C1410 1.390 . S
C1419 H1412 0.950 . S
C1419 C1416 1.387 . S
C1420 C1421 1.387 . S
C1420 H1424 0.950 . S
C1420 C1429 1.390 . S
C1421 C1420 1.387 . S
C1421 C1423 1.387 . S
H1422 C1429 0.950 . S
C1423 C1421 1.387 . S
C1423 C1425 1.390 . S
C1423 H1427 0.950 . S
H1424 C1420 0.950 . S
C1425 C1423 1.390 . S
C1425 C1426 1.387 . S
C1425 H1428 0.950 . S
C1426 C1425 1.387 . S
C1426 C1429 1.387 . S
H1427 C1423 0.950 . S
H1428 C1425 0.950 . S
C1429 C1420 1.390 . S
C1429 H1422 0.950 . S
C1429 C1426 1.387 . S
C1430 C1431 1.387 . S
C1430 H1434 0.950 . S
C1430 C1439 1.390 . S
C1431 C1430 1.387 . S
C1431 C1433 1.387 . S
H1432 C1439 0.950 . S
C1433 C1431 1.387 . S
C1433 C1435 1.390 . S
C1433 H1437 0.950 . S
H1434 C1430 0.950 . S
C1435 C1433 1.390 . S
C1435 C1436 1.387 . S
C1435 H1438 0.950 . S
C1436 C1435 1.387 . S
C1436 C1439 1.387 . S
H1437 C1433 0.950 . S
H1438 C1435 0.950 . S
C1439 C1430 1.390 . S
C1439 H1432 0.950 . S
C1439 C1436 1.387 . S
C1440 C1441 1.387 . S
C1440 H1444 0.950 . S
C1440 C1449 1.390 . S
C1441 C1440 1.387 . S
C1441 C1443 1.387 . S
H1442 C1449 0.950 . S
C1443 C1441 1.387 . S
C1443 C1445 1.390 . S
C1443 H1447 0.950 . S
H1444 C1440 0.950 . S
C1445 C1443 1.390 . S
C1445 C1446 1.387 . S
C1445 H1448 0.950 . S
C1446 C1445 1.387 . S
C1446 C1449 1.387 . S
H1447 C1443 0.950 . S
H1448 C1445 0.950 . S
C1449 C1440 1.390 . S
C1449 H1442 0.950 . S
C1449 C1446 1.387 . S
C1450 C1451 1.387 . S
C1450 H1454 0.950 . S
C1450 C1459 1.390 . S
C1451 C1450 1.387 . S
C1451 C1453 1.387 . S
H1452 C1459 0.950 . S
C1453 C1451 1.387 . S
C1453 C1455 1.390 . S
C1453 H1457 0.950 . S
H1454 C1450 0.950 . S
C1455 C1453 1.390 . S
C1455 C1456 1.387 . S
C1455 H1458 0.950 . S
C1456 C1455 1.387 . S
C1456 C1459 1.387 . S
H1457 C1453 0.950 . S
H1458 C1455 0.950 . S
C1459 C1450 1.390 . S
C1459 H1452 0.950 . S
C1459 C1456 1.387 . S
C1460 C1461 1.387 . S
C1460 H1464 0.950 . S
C1460 C1469 1.390 . S
C1461 C1460 1.387 . S
C1461 C1463 1.387 . S
H1462 C1469 0.950 . S
C1463 C1461 1.387 . S
C1463 C1465 1.390 . S
C1463 H1467 0.950 . S
H1464 C1460 0.950 . S
C1465 C1463 1.390 . S
C1465 C1466 1.387 . S
C1465 H1468 0.950 . S
C1466 C1465 1.387 . S
C1466 C1469 1.387 . S
H1467 C1463 0.950 . S
H1468 C1465 0.950 . S
C1469 C1460 1.390 . S
C1469 H1462 0.950 . S
C1469 C1466 1.387 . S
C1470 C1471 1.387 . S
C1470 H1474 0.950 . S
C1470 C1479 1.390 . S
C1471 C1470 1.387 . S
C1471 C1473 1.387 . S
H1472 C1479 0.950 . S
C1473 C1471 1.387 . S
C1473 C1475 1.390 . S
C1473 H1477 0.950 . S
H1474 C1470 0.950 . S
C1475 C1473 1.390 . S
C1475 C1476 1.387 . S
C1475 H1478 0.950 . S
C1476 C1475 1.387 . S
C1476 C1479 1.387 . S
H1477 C1473 0.950 . S
H1478 C1475 0.950 . S
C1479 C1470 1.390 . S
C1479 H1472 0.950 . S
C1479 C1476 1.387 . S
C1480 C1481 1.387 . S
C1480 H1484 0.950 . S
C1480 C1489 1.390 . S
C1481 C1480 1.387 . S
C1481 C1483 1.387 . S
H1482 C1489 0.950 . S
C1483 C1481 1.387 . S
C1483 C1485 1.390 . S
C1483 H1487 0.950 . S
H1484 C1480 0.950 . S
C1485 C1483 1.390 . S
C1485 C1486 1.387 . S
C1485 H1488 0.950 . S
C1486 C1485 1.387 . S
C1486 C1489 1.387 . S
H1487 C1483 0.950 . S
H1488 C1485 0.950 . S
C1489 C1480 1.390 . S
C1489 H1482 0.950 . S
C1489 C1486 1.387 . S
C1490 C1491 1.387 . S
C1490 H1494 0.950 . S
C1490 C1499 1.390 . S
C1491 C1490 1.387 . S
C1491 C1493 1.387 . S
H1492 C1499 0.950 . S
C1493 C1491 1.387 . S
C1493 C1495 1.390 . S
C1493 H1497 0.950 . S
H1494 C1490 0.950 . S
C1495 C1493 1.390 . S
C1495 C1496 1.387 . S
C1495 H1498 0.950 . S
C1496 C1495 1.387 . S
C1496 C1499 1.387 . S
H1497 C1493 0.950 . S
H1498 C1495 0.950 . S
C1499 C1490 1.390 . S
C1499 H1492 0.950 . S
C1499 C1496 1.387 . S
C1500 C1501 1.387 . S
C1500 H1504 0.950 . S
C1500 C1509 1.390 . S
C1501 C1500 1.387 . S
C1501 C1503 1.387 . S
H1502 C1509 0.950 . S
C1503 C1501 1.387 . S
C1503 C1505 1.390 . S
C1503 H1507 0.950 . S
H1504 C1500 0.950 . S
C1505 C1503 1.390 . S
C1505 C1506 1.387 . S
C1505 H1508 0.950 . S
C1506 C1505 1.387 . S
C1506 C1509 1.387 . S
H1507 C1503 0.950 . S
H1508 C1505 0.950 . S
C1509 C1500 1.390 . S
C1509 H1502 0.950 . S
C1509 C1506 1.387 . S
C1510 C1511 1.387 . S
C1510 H1514 0.950 . S
C1510 C1519 1.390 . S
C1511 C1510 1.387 . S
C1511 C1513 1.387 . S
H1512 C1519 0.950 . S
C1513 C1511 1.387 . S
C1513 C1515 1.390 . S
C1513 H1517 0.950 . S
H1514 C1510 0.950 . S
C1515 C1513 1.390 . S
C1515 C1516 1.387 . S
C1515 H1518 0.950 . S
C1516 C1515 1.387 . S
C1516 C1519 1.387 . S
H1517 C1513 0.950 . S
H1518 C1515 0.950 . S
C1519 C1510 1.390 . S
C1519 H1512 0.950 . S
C1519 C1516 1.387 . S
C1520 C1521 1.387 . S
C1520 H1524 0.950 . S
C1520 C1529 1.390 . S
C1521 C1520 1.387 . S
C1521 C1523 1.387 . S
H1522 C1529 0.950 . S
C1523 C1521 1.387 . S
C1523 C1525 1.390 . S
C1523 H1527 0.950 . S
H1524 C1520 0.950 . S
C1525 C1523 1.390 . S
C1525 C1526 1.387 . S
C1525 H1528 0.950 . S
C1526 C1525 1.387 . S
C1526 C1529 1.387 . S
H1527 C1523 0.950 . S
H1528 C1525 0.950 . S
C1529 C1520 1.390 . S
C1529 H1522 0.950 . S
C1529 C1526 1.387 . S
C991 N170 1.894 . S
C996 C301 1.826 . S
C1001 N184 1.098 . S
C1006 C385 1.077 . S
C1011 N158 1.557 . S
C1016 C465 1.529 . S
C1021 N145 1.538 . S
C1026 C381 1.510 . S
C1036 C469 1.038 . S
C1031 N119 1.058 . S
C1041 N131 1.854 . S
C1046 C297 1.813 1_556 S
C1056 C290 1.571 . S
C1051 N144 1.631 . S
C1066 C374 1.419 . S
C1061 N118 1.421 . S
C1071 N132 1.461 . S
C1076 C476 1.456 . S
C1081 N171 1.451 . S
C1086 C392 1.446 . S
C1091 N183 1.382 . S
C1096 C458 1.378 . S
C1106 C308 1.554 . S
C1101 N157 1.592 . S
C1116 C553 1.825 . S
C1111 N14 1.892 . S
C1121 N28 1.098 . S
C1126 C637 1.080 . S
C1131 N2 1.556 . S
C1136 C717 1.527 . S
C1141 N223 1.538 . S
C1146 C633 1.510 . S
C1151 N197 1.058 . S
C1156 C721 1.034 . S
C1161 N209 1.854 . S
C1166 C549 1.813 . S
C1171 N222 1.630 . S
C1176 C542 1.570 . S
C1181 N196 1.421 . S
C1186 C626 1.419 . S
C1196 C728 1.457 . S
C1191 N210 1.461 . S
C1201 N15 1.452 . S
C1206 C644 1.447 . S
C1216 C710 1.380 . S
C1211 N27 1.385 . S
C1221 N1 1.593 . S
C1226 C560 1.556 . S
C1236 C805 1.827 . S
C1231 N92 1.894 . S
C1241 N106 1.099 . S
C1246 C889 1.078 . S
C1256 C969 1.527 . S
C1251 N80 1.556 . S
C1266 C885 1.509 . S
C1261 N67 1.538 . S
C1276 C973 1.038 . S
C1271 N41 1.057 1_655 S
C1281 N53 1.854 . S
C1286 C801 1.813 . S
C1291 N66 1.630 . S
C1296 C794 1.570 . S
C1301 N40 1.421 . S
C1306 C878 1.420 . S
C1316 C980 1.457 . S
C1311 N54 1.462 . S
C1321 N93 1.451 . S
C1326 C896 1.445 . S
C1331 N105 1.382 . S
C1336 C962 1.378 . S
C1341 N79 1.592 . S
C1346 C812 1.554 . S
C1351 N200 1.331 . S
C1356 C304 1.215 . S
C1366 C388 1.510 . S
C1361 N213 1.698 . S
C1371 N226 1.525 . S
C1376 C460 1.404 . S
C1381 N83 1.552 . S
C1386 C376 1.419 . S
C1391 N96 1.681 . S
C1396 C472 1.506 . S
C1406 C292 1.256 . S
C1401 N109 1.357 . S
C1411 N44 1.328 . S
C1416 C556 1.219 . S
C1421 N57 1.698 . S
C1426 C640 1.511 . S
C1431 N70 1.526 . S
C1436 C712 1.406 . S
C1441 N161 1.553 . S
C1446 C628 1.423 . S
C1456 C724 1.503 . S
C1451 N174 1.681 . S
C1461 N187 1.356 . S
C1466 C544 1.257 . S
C1471 N122 1.330 . S
C1476 C808 1.215 . S
C1481 N135 1.699 . S
C1486 C892 1.513 . S
C1496 C964 1.407 . S
C1491 N148 1.525 . S
C1501 N5 1.552 . S
C1506 C880 1.419 . S
C1511 N18 1.681 . S
C1516 C976 1.505 . S
C1521 N31 1.356 . S
C1526 C796 1.258 . S
