# Generated by pormake.
# Topology nom, (4,4)-cn, num edge types: 1
# Building blocks:
#     Node 0, Type 0, BuildingBlock: AZAVOO_clean_linker_0, # of connection points: 4
#     Node 1, Type 0, BuildingBlock: AZAVOO_clean_linker_0, # of connection points: 4
#     Node 2, Type 0, BuildingBlock: AZAVOO_clean_linker_0, # of connection points: 4
#     Node 3, Type 0, BuildingBlock: AZAVOO_clean_linker_0, # of connection points: 4
#     Node 4, Type 0, BuildingBlock: AZAVOO_clean_linker_0, # of connection points: 4
#     Node 5, Type 0, BuildingBlock: AZAVOO_clean_linker_0, # of connection points: 4
#     Node 6, Type 1, BuildingBlock: QUQFOY_clean_sbu_1, # of connection points: 4
#     Node 7, Type 1, BuildingBlock: QUQFOY_clean_sbu_1, # of connection points: 4
#     Node 8, Type 1, BuildingBlock: QUQFOY_clean_sbu_1, # of connection points: 4
#     Node 9, Type 1, BuildingBlock: QUQFOY_clean_sbu_1, # of connection points: 4
#     Node 10, Type 1, BuildingBlock: QUQFOY_clean_sbu_1, # of connection points: 4
#     Node 11, Type 1, BuildingBlock: QUQFOY_clean_sbu_1, # of connection points: 4
#     Edge 12, Type (0, 1), BuildingBlock: EZIPEK_clean_linker_0, # of connection points: 2
#     Edge 13, Type (0, 1), BuildingBlock: EZIPEK_clean_linker_0, # of connection points: 2
#     Edge 14, Type (0, 1), BuildingBlock: EZIPEK_clean_linker_0, # of connection points: 2
#     Edge 15, Type (0, 1), BuildingBlock: EZIPEK_clean_linker_0, # of connection points: 2
#     Edge 16, Type (0, 1), BuildingBlock: EZIPEK_clean_linker_0, # of connection points: 2
#     Edge 17, Type (0, 1), BuildingBlock: EZIPEK_clean_linker_0, # of connection points: 2
#     Edge 18, Type (0, 1), BuildingBlock: EZIPEK_clean_linker_0, # of connection points: 2
#     Edge 19, Type (0, 1), BuildingBlock: EZIPEK_clean_linker_0, # of connection points: 2
#     Edge 20, Type (0, 1), BuildingBlock: EZIPEK_clean_linker_0, # of connection points: 2
#     Edge 21, Type (0, 1), BuildingBlock: EZIPEK_clean_linker_0, # of connection points: 2
#     Edge 22, Type (0, 1), BuildingBlock: EZIPEK_clean_linker_0, # of connection points: 2
#     Edge 23, Type (0, 1), BuildingBlock: EZIPEK_clean_linker_0, # of connection points: 2
#     Edge 24, Type (0, 1), BuildingBlock: EZIPEK_clean_linker_0, # of connection points: 2
#     Edge 25, Type (0, 1), BuildingBlock: EZIPEK_clean_linker_0, # of connection points: 2
#     Edge 26, Type (0, 1), BuildingBlock: EZIPEK_clean_linker_0, # of connection points: 2
#     Edge 27, Type (0, 1), BuildingBlock: EZIPEK_clean_linker_0, # of connection points: 2
#     Edge 28, Type (0, 1), BuildingBlock: EZIPEK_clean_linker_0, # of connection points: 2
#     Edge 29, Type (0, 1), BuildingBlock: EZIPEK_clean_linker_0, # of connection points: 2
#     Edge 30, Type (0, 1), BuildingBlock: EZIPEK_clean_linker_0, # of connection points: 2
#     Edge 31, Type (0, 1), BuildingBlock: EZIPEK_clean_linker_0, # of connection points: 2
#     Edge 32, Type (0, 1), BuildingBlock: EZIPEK_clean_linker_0, # of connection points: 2
#     Edge 33, Type (0, 1), BuildingBlock: EZIPEK_clean_linker_0, # of connection points: 2
#     Edge 34, Type (0, 1), BuildingBlock: EZIPEK_clean_linker_0, # of connection points: 2
#     Edge 35, Type (0, 1), BuildingBlock: EZIPEK_clean_linker_0, # of connection points: 2
# Relax obj value: 0.191
# Max RMSD: 0.252
# Mean RMSD: 0.188
data_MOF--net-nom--node1-QUQFOY_clean_sbu_1--node2-AZAVOO_clean_linker_0--edge1-EZIPEK_clean_linker_0
_symmetry_space_group_name_H-M    P1
_symmetry_Int_Tables_number       1
_symmetry_cell_setting            triclinic
loop_
_symmetry_equiv_pos_as_xyz
'x, y, z'
_cell_length_a     38.878425
_cell_length_b     40.396108
_cell_length_c     44.022772
_cell_angle_alpha  90.223993
_cell_angle_beta   89.739994
_cell_angle_gamma 120.94332
loop_
_atom_site_label
_atom_site_type_symbol
_atom_site_fract_x
_atom_site_fract_y
_atom_site_fract_z
_atom_type_partial_charge
H0 H 0.05643 0.50773 0.09899 0.0
H1 H 0.30205 0.69179 0.38195 0.0
H2 H 0.00242 0.4524 0.25563 0.0
H3 H 0.9522 0.42236 0.21571 0.0
H4 H 0.90678 0.49702 0.23818 0.0
H5 H 0.96024 0.53008 0.27609 0.0
H6 H 0.07795 0.49569 0.22907 0.0
H7 H 0.07342 0.49356 0.17361 0.0
H8 H 0.03325 0.57544 0.17643 0.0
H9 H 0.03812 0.57741 0.2319 0.0
H10 H 0.14194 0.53041 0.25812 0.0
H11 H 0.21174 0.56946 0.24014 0.0
H12 H 0.20797 0.67307 0.25542 0.0
H13 H 0.13773 0.63407 0.2714 0.0
H14 H 0.14501 0.53041 0.32756 0.0
H15 H 0.21312 0.56428 0.34824 0.0
H16 H 0.20822 0.6685 0.35625 0.0
H17 H 0.14066 0.63457 0.33479 0.0
H18 H 0.05634 0.49086 0.37254 0.0
H19 H 0.08618 0.50539 0.42356 0.0
H20 H 0.1088 0.62135 0.41655 0.0
H21 H 0.077 0.60615 0.36639 0.0
H22 H 0.96087 0.45089 0.3284 0.0
H23 H 0.89408 0.43381 0.34769 0.0
H24 H 0.93578 0.55444 0.36099 0.0
H25 H 0.00223 0.57148 0.34187 0.0
O26 O 0.05868 0.50951 0.12089 0.0
O27 O 0.0375 0.55117 0.12366 0.0
O28 O 0.27525 0.62277 0.37091 0.0
O29 O 0.27518 0.67771 0.37371 0.0
C30 C 0.02355 0.51877 0.2851 0.0
C31 C 0.05979 0.5371 0.26815 0.0
C32 C 0.09675 0.55771 0.28318 0.0
C33 C 0.09787 0.56002 0.31512 0.0
C34 C 0.06181 0.544 0.33213 0.0
C35 C 0.02435 0.52395 0.31707 0.0
C36 C 0.98551 0.49389 0.26843 0.0
C37 C 0.98124 0.46193 0.25234 0.0
C38 C 0.95256 0.44475 0.22958 0.0
C39 C 0.92623 0.45795 0.22349 0.0
C40 C 0.92726 0.48683 0.24217 0.0
C41 C 0.95741 0.50539 0.26403 0.0
C42 C 0.05876 0.537 0.23443 0.0
C43 C 0.06876 0.51356 0.21763 0.0
C44 C 0.06587 0.5122 0.18597 0.0
C45 C 0.05294 0.53431 0.17058 0.0
C46 C 0.04332 0.55806 0.18756 0.0
C47 C 0.04614 0.55931 0.21921 0.0
C48 C 0.13482 0.57949 0.2659 0.0
C49 C 0.15564 0.5614 0.25627 0.0
C50 C 0.19544 0.58361 0.24634 0.0
C51 C 0.21508 0.62407 0.24722 0.0
C52 C 0.19337 0.64188 0.25496 0.0
C53 C 0.15337 0.61971 0.26392 0.0
C54 C 0.13756 0.57977 0.33044 0.0
C55 C 0.15857 0.56042 0.33415 0.0
C56 C 0.19753 0.57991 0.34576 0.0
C57 C 0.21604 0.61907 0.35408 0.0
C58 C 0.1948 0.63832 0.35029 0.0
C59 C 0.15602 0.6189 0.33836 0.0
C60 C 0.06473 0.54754 0.3657 0.0
C61 C 0.0657 0.5187 0.3827 0.0
C62 C 0.08307 0.5271 0.41161 0.0
C63 C 0.1006 0.56474 0.42334 0.0
C64 C 0.09586 0.5923 0.40768 0.0
C65 C 0.07747 0.58355 0.3792 0.0
C66 C 0.98652 0.51246 0.33381 0.0
C67 C 0.95587 0.47354 0.33622 0.0
C68 C 0.91787 0.46382 0.34715 0.0
C69 C 0.9101 0.49294 0.35564 0.0
C70 C 0.94128 0.53163 0.35463 0.0
C71 C 0.9792 0.5413 0.34388 0.0
C72 C 0.04922 0.5323 0.13699 0.0
C73 C 0.25726 0.63982 0.36672 0.0
H74 H 0.53362 0.06203 0.28487 0.0
H75 H 0.53635 0.27771 0.56408 0.0
H76 H 0.53393 0.0016 0.45928 0.0
H77 H 0.53037 0.95261 0.42425 0.0
H78 H 0.40583 0.9126 0.40719 0.0
H79 H 0.40927 0.96145 0.44281 0.0
H80 H 0.55495 0.07579 0.41674 0.0
H81 H 0.55826 0.07512 0.36119 0.0
H82 H 0.43016 0.02783 0.35694 0.0
H83 H 0.42745 0.0291 0.4125 0.0
H84 H 0.57716 0.14194 0.45372 0.0
H85 H 0.60263 0.20636 0.43177 0.0
H86 H 0.4813 0.18059 0.41959 0.0
H87 H 0.45581 0.11607 0.44167 0.0
H88 H 0.57428 0.14148 0.51926 0.0
H89 H 0.59765 0.20539 0.54126 0.0
H90 H 0.47808 0.18652 0.53296 0.0
H91 H 0.45538 0.12304 0.51046 0.0
H92 H 0.54158 0.04527 0.5467 0.0
H93 H 0.57089 0.07298 0.59634 0.0
H94 H 0.48361 0.1074 0.60893 0.0
H95 H 0.45261 0.07744 0.5602 0.0
H96 H 0.50555 0.97435 0.51553 0.0
H97 H 0.46756 0.90768 0.53483 0.0
H98 H 0.36221 0.91671 0.54381 0.0
H99 H 0.4 0.98308 0.5244 0.0
O100 O 0.53173 0.06249 0.30678 0.0
O101 O 0.46596 0.039 0.30583 0.0
O102 O 0.58837 0.26003 0.56062 0.0
O103 O 0.52787 0.25253 0.55556 0.0
C104 C 0.47723 0.01967 0.46928 0.0
C105 C 0.48914 0.0534 0.4521 0.0
C106 C 0.49991 0.08831 0.46688 0.0
C107 C 0.49952 0.08978 0.49887 0.0
C108 C 0.48774 0.05604 0.51628 0.0
C109 C 0.47508 0.02054 0.50133 0.0
C110 C 0.47185 0.98492 0.4535 0.0
C111 C 0.50549 0.98134 0.44886 0.0
C112 C 0.50346 0.95344 0.429 0.0
C113 C 0.46785 0.9291 0.4133 0.0
C114 C 0.43339 0.93096 0.41942 0.0
C115 C 0.43537 0.95877 0.43956 0.0
C116 C 0.49097 0.05242 0.4185 0.0
C117 C 0.5277 0.06537 0.40372 0.0
C118 C 0.52948 0.06499 0.37201 0.0
C119 C 0.49447 0.05146 0.35461 0.0
C120 C 0.45768 0.03846 0.36964 0.0
C121 C 0.45601 0.03905 0.40134 0.0
C122 C 0.51468 0.12442 0.44918 0.0
C123 C 0.55608 0.14987 0.44566 0.0
C124 C 0.57056 0.18649 0.43322 0.0
C125 C 0.54379 0.19804 0.42408 0.0
C126 C 0.50232 0.17197 0.42636 0.0
C127 C 0.48782 0.1353 0.43887 0.0
C128 C 0.51306 0.12752 0.51379 0.0
C129 C 0.55317 0.15113 0.52249 0.0
C130 C 0.5664 0.18759 0.53499 0.0
C131 C 0.53962 0.20089 0.53919 0.0
C132 C 0.49942 0.17707 0.53028 0.0
C133 C 0.48634 0.14079 0.51751 0.0
C134 C 0.49539 0.05998 0.54952 0.0
C135 C 0.52742 0.05696 0.56081 0.0
C136 C 0.5444 0.07308 0.58896 0.0
C137 C 0.53006 0.09315 0.60573 0.0
C138 C 0.49541 0.09252 0.59601 0.0
C139 C 0.47771 0.07539 0.56828 0.0
C140 C 0.45551 0.98357 0.51847 0.0
C141 C 0.47451 0.96222 0.52222 0.0
C142 C 0.45289 0.92426 0.53317 0.0
C143 C 0.41201 0.90724 0.5405 0.0
C144 C 0.39368 0.92932 0.53825 0.0
C145 C 0.41527 0.96719 0.52734 0.0
C146 C 0.49637 0.05059 0.32095 0.0
C147 C 0.55356 0.23959 0.55246 0.0
H148 H 0.56106 0.54215 0.85353 0.0
H149 H 0.61514 0.3806 0.56053 0.0
H150 H 0.57719 0.61992 0.69828 0.0
H151 H 0.55719 0.64656 0.74003 0.0
H152 H 0.43271 0.56888 0.71785 0.0
H153 H 0.45288 0.54022 0.67725 0.0
H154 H 0.60132 0.57459 0.72461 0.0
H155 H 0.59623 0.56929 0.78005 0.0
H156 H 0.47211 0.47806 0.77207 0.0
H157 H 0.47747 0.48427 0.71668 0.0
H158 H 0.62976 0.5346 0.69218 0.0
H159 H 0.65206 0.49178 0.71221 0.0
H160 H 0.53388 0.39329 0.69692 0.0
H161 H 0.51159 0.436 0.67727 0.0
H162 H 0.63765 0.53977 0.62628 0.0
H163 H 0.66738 0.50424 0.60456 0.0
H164 H 0.54866 0.40662 0.58774 0.0
H165 H 0.51943 0.4418 0.61085 0.0
H166 H 0.60113 0.59542 0.58728 0.0
H167 H 0.62751 0.59061 0.53765 0.0
H168 H 0.52854 0.4737 0.52832 0.0
H169 H 0.50057 0.47965 0.5766 0.0
H170 H 0.54522 0.62877 0.63036 0.0
H171 H 0.49916 0.64997 0.61368 0.0
H172 H 0.41198 0.53301 0.58838 0.0
H173 H 0.45778 0.51184 0.60497 0.0
O174 O 0.56253 0.54357 0.83158 0.0
O175 O 0.49876 0.49702 0.82621 0.0
O176 O 0.66456 0.44576 0.57939 0.0
O177 O 0.60419 0.39519 0.56941 0.0
C178 C 0.52894 0.55456 0.66728 0.0
C179 C 0.5427 0.53321 0.68321 0.0
C180 C 0.55706 0.5127 0.66718 0.0
C181 C 0.55873 0.51403 0.63529 0.0
C182 C 0.54393 0.5344 0.61911 0.0
C183 C 0.52771 0.55376 0.63509 0.0
C184 C 0.51647 0.57773 0.68519 0.0
C185 C 0.54561 0.60932 0.70189 0.0
C186 C 0.53423 0.62455 0.72563 0.0
C187 C 0.49351 0.60912 0.73235 0.0
C188 C 0.46429 0.58081 0.71313 0.0
C189 C 0.47574 0.56461 0.68996 0.0
C190 C 0.53965 0.53008 0.71679 0.0
C191 C 0.57305 0.55362 0.73494 0.0
C192 C 0.57005 0.55047 0.76657 0.0
C193 C 0.5337 0.52336 0.78051 0.0
C194 C 0.50051 0.49931 0.76208 0.0
C195 C 0.50343 0.50283 0.73048 0.0
C196 C 0.56906 0.48825 0.6835 0.0
C197 C 0.60853 0.50389 0.69387 0.0
C198 C 0.62123 0.47961 0.70508 0.0
C199 C 0.59455 0.43957 0.7058 0.0
C200 C 0.55475 0.42417 0.69645 0.0
C201 C 0.54204 0.44841 0.68543 0.0
C202 C 0.57643 0.49379 0.61925 0.0
C203 C 0.61816 0.51086 0.61759 0.0
C204 C 0.63503 0.49041 0.60535 0.0
C205 C 0.61038 0.45277 0.594 0.0
C206 C 0.56852 0.43573 0.59587 0.0
C207 C 0.55172 0.45589 0.60875 0.0
C208 C 0.54934 0.53758 0.58573 0.0
C209 C 0.58391 0.5696 0.5737 0.0
C210 C 0.59926 0.56667 0.54567 0.0
C211 C 0.58087 0.53121 0.53017 0.0
C212 C 0.54368 0.50095 0.54042 0.0
C213 C 0.52754 0.50445 0.56778 0.0
C214 C 0.50493 0.56871 0.61889 0.0
C215 C 0.51668 0.60793 0.6204 0.0
C216 C 0.49044 0.61999 0.61097 0.0
C217 C 0.45215 0.59297 0.59996 0.0
C218 C 0.44142 0.55425 0.59675 0.0
C219 C 0.46765 0.54225 0.60605 0.0
C220 C 0.53046 0.52038 0.81411 0.0
C221 C 0.62815 0.43117 0.58052 0.0
H222 H 0.03475 0.38818 0.02575 0.0
H223 H 0.29866 0.55004 0.73847 0.0
H224 H 0.99061 0.45988 0.87174 0.0
H225 H 0.93666 0.4328 0.90952 0.0
H226 H 0.90975 0.318 0.88662 0.0
H227 H 0.96475 0.34542 0.84895 0.0
H228 H 0.05241 0.46487 0.90939 0.0
H229 H 0.04589 0.44244 0.96185 0.0
H230 H 0.04069 0.33868 0.9296 0.0
H231 H 0.04692 0.36142 0.87721 0.0
H232 H 0.13228 0.51124 0.8806 0.0
H233 H 0.19914 0.53648 0.90243 0.0
H234 H 0.19913 0.43488 0.87187 0.0
H235 H 0.13246 0.41016 0.84902 0.0
H236 H 0.15038 0.53986 0.82281 0.0
H237 H 0.21899 0.57749 0.80314 0.0
H238 H 0.20337 0.47573 0.75739 0.0
H239 H 0.13553 0.43806 0.77849 0.0
H240 H 0.06257 0.52314 0.78836 0.0
H241 H 0.09434 0.56776 0.74552 0.0
H242 H 0.1143 0.48401 0.70066 0.0
H243 H 0.08147 0.43899 0.74304 0.0
H244 H 0.97616 0.46662 0.81462 0.0
H245 H 0.9063 0.43504 0.79707 0.0
H246 H 0.92045 0.34812 0.75145 0.0
H247 H 0.98994 0.37922 0.76947 0.0
O248 O 0.03755 0.39659 0.00486 0.0
O249 O 0.03654 0.34444 0.98722 0.0
O250 O 0.27881 0.58688 0.7717 0.0
O251 O 0.27194 0.53566 0.74705 0.0
C252 C 0.02023 0.42213 0.84142 0.0
C253 C 0.0541 0.42841 0.85789 0.0
C254 C 0.09227 0.44886 0.84456 0.0
C255 C 0.09696 0.46333 0.81478 0.0
C256 C 0.06311 0.45728 0.79811 0.0
C257 C 0.0245 0.436 0.81131 0.0
C258 C 0.98128 0.40456 0.85752 0.0
C259 C 0.97222 0.42882 0.87408 0.0
C260 C 0.94175 0.41343 0.89574 0.0
C261 C 0.91981 0.37357 0.90103 0.0
C262 C 0.92665 0.34888 0.88283 0.0
C263 C 0.95768 0.36441 0.86132 0.0
C264 C 0.0499 0.41462 0.88963 0.0
C265 C 0.04972 0.43726 0.91375 0.0
C266 C 0.04611 0.42442 0.94367 0.0
C267 C 0.04288 0.38881 0.94993 0.0
C268 C 0.0432 0.36627 0.92558 0.0
C269 C 0.0467 0.37912 0.89567 0.0
C270 C 0.12812 0.45928 0.86295 0.0
C271 C 0.14628 0.494 0.8793 0.0
C272 C 0.18416 0.50824 0.89182 0.0
C273 C 0.20385 0.48755 0.8885 0.0
C274 C 0.18407 0.451 0.87465 0.0
C275 C 0.14637 0.43708 0.86156 0.0
C276 C 0.13794 0.48641 0.80174 0.0
C277 C 0.16192 0.52578 0.80859 0.0
C278 C 0.20108 0.54716 0.79736 0.0
C279 C 0.21649 0.52972 0.77834 0.0
C280 C 0.1923 0.49016 0.77167 0.0
C281 C 0.15351 0.46861 0.78356 0.0
C282 C 0.06973 0.47782 0.76882 0.0
C283 C 0.0721 0.51371 0.76867 0.0
C284 C 0.09051 0.53926 0.74441 0.0
C285 C 0.10709 0.52928 0.72022 0.0
C286 C 0.10179 0.4922 0.71922 0.0
C287 C 0.08289 0.46648 0.74326 0.0
C288 C 0.98797 0.42504 0.79344 0.0
C289 C 0.96463 0.44157 0.79996 0.0
C290 C 0.9249 0.42362 0.78997 0.0
C291 C 0.90839 0.38927 0.77309 0.0
C292 C 0.93286 0.37475 0.76429 0.0
C293 C 0.97245 0.39254 0.77446 0.0
C294 C 0.03886 0.37518 0.98174 0.0
C295 C 0.25762 0.5526 0.76556 0.0
H296 H 0.40167 0.99104 0.79444 0.0
H297 H 0.39523 0.76606 0.0622 0.0
H298 H 0.45285 0.07445 0.95132 0.0
H299 H 0.48329 0.1271 0.91389 0.0
H300 H 0.59467 0.12847 0.92007 0.0
H301 H 0.56427 0.07578 0.95709 0.0
H302 H 0.39787 0.99192 0.92738 0.0
H303 H 0.38822 0.99006 0.8723 0.0
H304 H 0.50565 0.00508 0.85851 0.0
H305 H 0.51518 0.00775 0.91358 0.0
H306 H 0.36724 0.90801 0.96536 0.0
H307 H 0.34195 0.84263 0.94446 0.0
H308 H 0.46307 0.87417 0.92151 0.0
H309 H 0.48783 0.93914 0.94117 0.0
H310 H 0.38619 0.92454 0.03818 0.0
H311 H 0.35729 0.86008 0.06041 0.0
H312 H 0.45571 0.85137 0.02366 0.0
H313 H 0.48497 0.91636 0.00257 0.0
H314 H 0.43874 0.99054 0.07291 0.0
H315 H 0.44957 0.96732 0.12144 0.0
H316 H 0.55574 0.97364 0.08462 0.0
H317 H 0.54416 0.99549 0.03597 0.0
H318 H 0.47937 0.08861 0.02515 0.0
H319 H 0.52906 0.15422 0.04256 0.0
H320 H 0.62213 0.12654 0.0354 0.0
H321 H 0.57286 0.0615 0.01774 0.0
O322 O 0.40606 0.99182 0.81612 0.0
O323 O 0.46655 0.99939 0.81031 0.0
O324 O 0.35505 0.79675 0.07095 0.0
O325 O 0.40603 0.79164 0.05379 0.0
C326 C 0.48619 0.03459 0.97386 0.0
C327 C 0.46245 0.99986 0.95766 0.0
C328 C 0.44645 0.96421 0.97261 0.0
C329 C 0.45365 0.96308 0.00384 0.0
C330 C 0.47842 0.9977 0.01992 0.0
C331 C 0.49452 0.03355 0.00497 0.0
C332 C 0.50644 0.07147 0.95689 0.0
C333 C 0.48419 0.08703 0.94534 0.0
C334 C 0.5015 0.11702 0.92417 0.0
C335 C 0.54112 0.13146 0.91439 0.0
C336 C 0.56418 0.1178 0.92762 0.0
C337 C 0.54688 0.08785 0.9487 0.0
C338 C 0.45732 1.00033 0.92433 0.0
C339 C 0.42155 0.99512 0.91237 0.0
C340 C 0.41609 0.99392 0.88093 0.0
C341 C 0.44617 0.99744 0.86099 0.0
C342 C 0.48188 0.00228 0.8732 0.0
C343 C 0.48749 0.00401 0.90461 0.0
C344 C 0.42931 0.9281 0.9547 0.0
C345 C 0.38798 0.90102 0.95486 0.0
C346 C 0.37367 0.8639 0.94313 0.0
C347 C 0.40087 0.85358 0.93212 0.0
C348 C 0.44174 0.8816 0.93016 0.0
C349 C 0.45583 0.91864 0.9412 0.0
C350 C 0.4377 0.92509 0.01895 0.0
C351 C 0.40168 0.90882 0.03533 0.0
C352 C 0.38513 0.87192 0.04779 0.0
C353 C 0.40418 0.85054 0.04377 0.0
C354 C 0.44027 0.86701 0.02719 0.0
C355 C 0.4571 0.90415 0.01519 0.0
C356 C 0.49096 0.99518 0.05111 0.0
C357 C 0.46522 0.98845 0.07576 0.0
C358 C 0.47138 0.97522 0.10334 0.0
C359 C 0.50347 0.9689 0.10647 0.0
C360 C 0.53113 0.97882 0.08265 0.0
C361 C 0.52464 0.99147 0.05501 0.0
C362 C 0.52242 0.07008 0.0208 0.0
C363 C 0.51027 0.09639 0.02825 0.0
C364 C 0.53848 0.13366 0.03806 0.0
C365 C 0.57903 0.14487 0.04036 0.0
C366 C 0.59084 0.1181 0.03406 0.0
C367 C 0.56272 0.08096 0.02428 0.0
C368 C 0.44035 0.99627 0.82762 0.0
C369 C 0.3868 0.81138 0.05701 0.0
H370 H 0.6504 0.6427 0.91963 0.0
H371 H 0.79605 0.53505 0.21625 0.0
H372 H 0.57531 0.61343 0.08395 0.0
H373 H 0.54516 0.63765 0.04843 0.0
H374 H 0.64554 0.75342 0.06037 0.0
H375 H 0.67637 0.72879 0.09572 0.0
H376 H 0.6189 0.59084 0.04599 0.0
H377 H 0.62246 0.60183 0.99111 0.0
H378 H 0.73094 0.71263 0.00355 0.0
H379 H 0.7268 0.70128 0.05843 0.0
H380 H 0.64421 0.54786 0.07831 0.0
H381 H 0.6714 0.50906 0.05857 0.0
H382 H 0.79132 0.60754 0.06597 0.0
H383 H 0.76401 0.64624 0.08646 0.0
H384 H 0.64709 0.53513 0.14146 0.0
H385 H 0.67465 0.49942 0.16589 0.0
H386 H 0.7846 0.60693 0.18418 0.0
H387 H 0.75737 0.64207 0.15834 0.0
H388 H 0.58993 0.56982 0.17393 0.0
H389 H 0.57832 0.53245 0.22069 0.0
H390 H 0.70085 0.61039 0.24751 0.0
H391 H 0.71178 0.64894 0.20163 0.0
H392 H 0.56557 0.61917 0.14517 0.0
H393 H 0.53426 0.65065 0.17207 0.0
H394 H 0.65084 0.7409 0.20205 0.0
H395 H 0.68207 0.70946 0.17518 0.0
O396 O 0.64987 0.63869 0.94133 0.0
O397 O 0.70654 0.6946 0.94877 0.0
O398 O 0.72741 0.49399 0.19626 0.0
O399 O 0.78491 0.54837 0.20569 0.0
C400 C 0.64936 0.65275 0.10745 0.0
C401 C 0.66963 0.63913 0.08933 0.0
C402 C 0.68617 0.61899 0.1028 0.0
C403 C 0.68302 0.61287 0.13443 0.0
C404 C 0.66195 0.6257 0.15255 0.0
C405 C 0.64569 0.64627 0.13911 0.0
C406 C 0.62794 0.6694 0.09223 0.0
C407 C 0.59028 0.64417 0.0796 0.0
C408 C 0.57322 0.65792 0.05934 0.0
C409 C 0.59349 0.69712 0.05161 0.0
C410 C 0.6297 0.72304 0.06611 0.0
C411 C 0.64711 0.70909 0.08622 0.0
C412 C 0.67267 0.64523 0.05602 0.0
C413 C 0.64349 0.61735 0.03674 0.0
C414 C 0.64558 0.62375 0.00544 0.0
C415 C 0.67702 0.6581 0.99293 0.0
C416 C 0.70639 0.68584 0.01243 0.0
C417 C 0.70416 0.67944 0.04374 0.0
C418 C 0.70223 0.59972 0.08378 0.0
C419 C 0.67624 0.56144 0.07465 0.0
C420 C 0.69168 0.53938 0.06343 0.0
C421 C 0.73323 0.55555 0.06091 0.0
C422 C 0.75913 0.59483 0.06757 0.0
C423 C 0.74365 0.61681 0.07922 0.0
C424 C 0.70016 0.59112 0.14842 0.0
C425 C 0.67722 0.55083 0.15057 0.0
C426 C 0.69294 0.53058 0.16472 0.0
C427 C 0.73148 0.5504 0.17764 0.0
C428 C 0.75463 0.5908 0.17486 0.0
C429 C 0.7392 0.61093 0.16009 0.0
C430 C 0.65186 0.61179 0.18427 0.0
C431 C 0.61372 0.57985 0.19056 0.0
C432 C 0.60722 0.5583 0.21696 0.0
C433 C 0.63915 0.56804 0.23687 0.0
C434 C 0.67612 0.60209 0.23204 0.0
C435 C 0.68229 0.62416 0.20604 0.0
C436 C 0.62606 0.66224 0.15813 0.0
C437 C 0.58425 0.64545 0.15787 0.0
C438 C 0.56646 0.66328 0.1732 0.0
C439 C 0.59036 0.69808 0.18889 0.0
C440 C 0.63201 0.71402 0.19008 0.0
C441 C 0.64975 0.69615 0.17483 0.0
C442 C 0.67888 0.66501 0.95971 0.0
C443 C 0.74766 0.52909 0.19372 0.0
O444 O 0.6145 0.44797 0.42071 0.0
Cd445 Cd 0.62108 0.42084 0.38373 0.0
Cd446 Cd 0.69806 0.479 0.38735 0.0
O447 O 0.67848 0.49256 0.42681 0.0
O448 O 0.57549 0.36627 0.38525 0.0
O449 O 0.63934 0.38302 0.38955 0.0
C450 C 0.60181 0.35646 0.38979 0.0
C451 C 0.75657 0.47622 0.3839 0.0
C452 C 0.64187 0.47698 0.43485 0.0
C453 C 0.64907 0.47837 0.3342 0.0
O454 O 0.68216 0.49576 0.3484 0.0
O455 O 0.62052 0.44581 0.34318 0.0
O456 O 0.75813 0.5087 0.38698 0.0
O457 O 0.72183 0.44491 0.38407 0.0
O458 O 0.22662 0.6059 0.6115 0.0
Cd459 Cd 0.2622 0.62079 0.57321 0.0
Cd460 Cd 0.25074 0.68185 0.57536 0.0
O461 O 0.22334 0.65874 0.61674 0.0
O462 O 0.28688 0.58783 0.57474 0.0
O463 O 0.32265 0.65165 0.57689 0.0
C464 C 0.3213 0.61904 0.57747 0.0
C465 C 0.30227 0.74609 0.56917 0.0
C466 C 0.21442 0.62535 0.62578 0.0
C467 C 0.21202 0.62498 0.52402 0.0
O468 O 0.21545 0.65411 0.53802 0.0
O469 O 0.2309 0.60875 0.53285 0.0
O470 O 0.26554 0.73717 0.57288 0.0
O471 O 0.31018 0.71869 0.57006 0.0
O472 O 0.64117 0.21758 0.79505 0.0
Cd473 Cd 0.67002 0.24011 0.75425 0.0
Cd474 Cd 0.61208 0.25677 0.74805 0.0
O475 O 0.59742 0.23679 0.79169 0.0
O476 O 0.72541 0.24994 0.75907 0.0
O477 O 0.71204 0.29645 0.75141 0.0
C478 C 0.73801 0.28619 0.75618 0.0
C479 C 0.6178 0.31533 0.73691 0.0
C480 C 0.61274 0.22055 0.80628 0.0
C481 C 0.61161 0.19921 0.70443 0.0
O482 O 0.59349 0.21587 0.71408 0.0
O483 O 0.64448 0.20615 0.71618 0.0
O484 O 0.58324 0.28471 0.74102 0.0
O485 O 0.64958 0.31297 0.73907 0.0
O486 O 0.49974 0.71023 0.93174 0.0
Cd487 Cd 0.45481 0.69639 0.89976 0.0
Cd488 Cd 0.43971 0.62679 0.91473 0.0
O489 O 0.47375 0.65226 0.95213 0.0
O490 O 0.4556 0.74539 0.89279 0.0
O491 O 0.40481 0.69414 0.91476 0.0
C492 C 0.42113 0.72953 0.90607 0.0
C493 C 0.37181 0.58433 0.91455 0.0
C494 C 0.49922 0.68816 0.95252 0.0
C495 C 0.46507 0.64922 0.85235 0.0
O496 O 0.46814 0.63085 0.87445 0.0
O497 O 0.45515 0.67424 0.85719 0.0
O498 O 0.39603 0.57209 0.92003 0.0
O499 O 0.38626 0.62091 0.9114 0.0
O500 O 0.82017 0.34094 0.03036 0.0
Cd501 Cd 0.78466 0.3432 0.06508 0.0
Cd502 Cd 0.82383 0.41631 0.04774 0.0
O503 O 0.83577 0.39632 0.00909 0.0
O504 O 0.74623 0.28804 0.0743 0.0
O505 O 0.72831 0.32676 0.05321 0.0
C506 C 0.71886 0.29271 0.06229 0.0
C507 C 0.79328 0.45222 0.04612 0.0
C508 C 0.83497 0.36459 0.00836 0.0
C509 C 0.84038 0.40182 0.10951 0.0
O510 O 0.85647 0.42283 0.08631 0.0
O511 O 0.80756 0.36993 0.10668 0.0
O512 O 0.83083 0.46765 0.03963 0.0
O513 O 0.77252 0.41577 0.0523 0.0
O514 O 0.51946 0.87454 0.22242 0.0
Cd515 Cd 0.51201 0.8346 0.25483 0.0
Cd516 Cd 0.43386 0.80912 0.24834 0.0
O517 O 0.45485 0.84587 0.2118 0.0
O518 O 0.5567 0.82419 0.25053 0.0
O519 O 0.49297 0.78099 0.24034 0.0
C520 C 0.53014 0.79037 0.24072 0.0
C521 C 0.37615 0.74902 0.24228 0.0
C522 C 0.49095 0.87208 0.20669 0.0
C523 C 0.4727 0.8463 0.30786 0.0
O524 O 0.44241 0.83403 0.29064 0.0
O525 O 0.50404 0.84661 0.29901 0.0
O526 O 0.37465 0.78011 0.24306 0.0
O527 O 0.41065 0.75182 0.24433 0.0
C528 C 0.28529 0.65438 0.26678 0.0
C529 C 0.25902 0.6487 0.24239 0.0
C530 C 0.31464 0.70143 0.21423 0.0
C531 C 0.33859 0.7112 0.24069 0.0
N532 N 0.3471 0.69849 0.29278 0.0
N533 N 0.24807 0.6647 0.19217 0.0
C534 C 0.3244 0.68761 0.26694 0.0
C535 C 0.27372 0.67133 0.21566 0.0
N536 N 0.27274 0.6283 0.28998 0.0
N537 N 0.33134 0.72086 0.18778 0.0
H538 H 0.21862 0.64137 0.19192 0.0
H539 H 0.2553 0.68286 0.1735 0.0
H540 H 0.36138 0.7428 0.18621 0.0
H541 H 0.31671 0.71331 0.16694 0.0
H542 H 0.29192 0.62846 0.30648 0.0
H543 H 0.24393 0.60428 0.2913 0.0
H544 H 0.33627 0.68551 0.31383 0.0
H545 H 0.37617 0.7223 0.2938 0.0
C546 C 0.57062 0.26736 0.43773 0.0
C547 C 0.55931 0.2387 0.41489 0.0
C548 C 0.5752 0.2872 0.37528 0.0
C549 C 0.58884 0.31618 0.39806 0.0
N550 N 0.60459 0.33543 0.45052 0.0
N551 N 0.55528 0.2212 0.36212 0.0
C552 C 0.58818 0.30671 0.42916 0.0
C553 C 0.56282 0.24858 0.38367 0.0
N554 N 0.56312 0.25669 0.46762 0.0
N555 N 0.57356 0.29658 0.34573 0.0
H556 H 0.54555 0.19257 0.36753 0.0
H557 H 0.56123 0.22721 0.33909 0.0
H558 H 0.58401 0.32483 0.33868 0.0
H559 H 0.55983 0.2763 0.32847 0.0
H560 H 0.56623 0.27538 0.48515 0.0
H561 H 0.55071 0.22822 0.47485 0.0
H562 H 0.60933 0.33097 0.47301 0.0
H563 H 0.61618 0.36448 0.44541 0.0
C564 C 0.39589 0.60094 0.61903 0.0
C565 C 0.4215 0.60403 0.5947 0.0
C566 C 0.38572 0.62401 0.56038 0.0
C567 C 0.35759 0.61686 0.58385 0.0
N568 N 0.33425 0.59733 0.63519 0.0
N569 N 0.44052 0.61658 0.54201 0.0
C570 C 0.36236 0.60518 0.61315 0.0
C571 C 0.41653 0.61535 0.56533 0.0
N572 N 0.40407 0.5945 0.64788 0.0
N573 N 0.38295 0.63919 0.53343 0.0
H574 H 0.46415 0.61171 0.54514 0.0
H575 H 0.4359 0.62036 0.51934 0.0
H576 H 0.36013 0.64481 0.52887 0.0
H577 H 0.40455 0.64869 0.51636 0.0
H578 H 0.38947 0.59609 0.6672 0.0
H579 H 0.42769 0.59026 0.65296 0.0
H580 H 0.33288 0.58403 0.65573 0.0
H581 H 0.31069 0.60239 0.63244 0.0
C582 C 0.8407 0.33963 0.79268 0.0
C583 C 0.86429 0.36507 0.769 0.0
C584 C 0.8048 0.33925 0.73646 0.0
C585 C 0.78101 0.31519 0.76075 0.0
N586 N 0.77439 0.2989 0.81396 0.0
N587 N 0.8688 0.39385 0.72027 0.0
C588 C 0.79843 0.31724 0.78944 0.0
C589 C 0.84628 0.36639 0.74145 0.0
N590 N 0.8588 0.33587 0.81793 0.0
N591 N 0.78817 0.33493 0.70836 0.0
H592 H 0.89936 0.41357 0.7231 0.0
H593 H 0.85678 0.39903 0.70105 0.0
H594 H 0.75792 0.31552 0.70397 0.0
H595 H 0.80472 0.34852 0.68892 0.0
H596 H 0.84372 0.31419 0.834 0.0
H597 H 0.88958 0.35255 0.82177 0.0
H598 H 0.78505 0.30279 0.83613 0.0
H599 H 0.74316 0.28271 0.81265 0.0
C600 C 0.39064 0.80313 0.89433 0.0
C601 C 0.38873 0.81317 0.92488 0.0
C602 C 0.39749 0.76094 0.94313 0.0
C603 C 0.40239 0.75264 0.91258 0.0
N604 N 0.392 0.75717 0.85929 0.0
N605 N 0.37606 0.79394 0.9774 0.0
C606 C 0.3949 0.77085 0.88818 0.0
C607 C 0.38688 0.78913 0.94892 0.0
N608 N 0.39036 0.82574 0.87146 0.0
N609 N 0.40639 0.7446 0.96665 0.0
H610 H 0.3689 0.81487 0.98255 0.0
H611 H 0.37007 0.77463 0.99506 0.0
H612 H 0.41451 0.72393 0.96372 0.0
H613 H 0.40856 0.75355 0.98915 0.0
H614 H 0.39648 0.82308 0.84884 0.0
H615 H 0.38513 0.84827 0.87555 0.0
H616 H 0.38367 0.76723 0.84066 0.0
H617 H 0.39455 0.7332 0.85446 0.0
C618 C 0.75426 0.5189 0.02681 0.0
C619 C 0.74935 0.52967 0.05647 0.0
C620 C 0.76787 0.48555 0.07882 0.0
C621 C 0.7757 0.47687 0.04926 0.0
N622 N 0.77999 0.487 0.99512 0.0
N623 N 0.75714 0.52829 0.11071 0.0
C624 C 0.76999 0.49411 0.0232 0.0
C625 C 0.75771 0.51436 0.08247 0.0
N626 N 0.74322 0.53188 0.00224 0.0
N627 N 0.76981 0.46601 0.10347 0.0
H628 H 0.74873 0.54861 0.11457 0.0
H629 H 0.76822 0.52223 0.13003 0.0
H630 H 0.77885 0.44584 0.10218 0.0
H631 H 0.75958 0.46757 0.12502 0.0
H632 H 0.7419 0.52199 0.98017 0.0
H633 H 0.73304 0.55119 0.00416 0.0
H634 H 0.78091 0.50185 0.97558 0.0
H635 H 0.7894 0.46732 0.99152 0.0
C636 C 0.375 0.85448 0.57907 0.0
C637 C 0.38736 0.86549 0.54854 0.0
C638 C 0.34991 0.7973 0.53288 0.0
C639 C 0.33403 0.78673 0.56276 0.0
N640 N 0.32937 0.80476 0.61418 0.0
N641 N 0.38364 0.84837 0.49559 0.0
C642 C 0.34607 0.81522 0.58585 0.0
C643 C 0.37436 0.83712 0.52525 0.0
N644 N 0.39176 0.88151 0.60164 0.0
N645 N 0.34138 0.76928 0.51168 0.0
H646 H 0.40159 0.87713 0.48899 0.0
H647 H 0.37127 0.82965 0.4772 0.0
H648 H 0.32192 0.73995 0.51577 0.0
H649 H 0.35569 0.77471 0.49069 0.0
H650 H 0.38726 0.87498 0.62469 0.0
H651 H 0.41295 0.91043 0.59739 0.0
H652 H 0.33294 0.82444 0.63101 0.0
H653 H 0.31004 0.77609 0.62048 0.0
C654 C 0.62147 0.39707 0.6921 0.0
C655 C 0.60827 0.41301 0.71488 0.0
C656 C 0.61285 0.37179 0.75329 0.0
C657 C 0.62026 0.35212 0.72983 0.0
N658 N 0.63105 0.34449 0.67696 0.0
N659 N 0.59076 0.41625 0.76691 0.0
C660 C 0.62507 0.36471 0.69926 0.0
C661 C 0.60426 0.40091 0.74553 0.0
N662 N 0.63047 0.41296 0.66368 0.0
N663 N 0.61451 0.36277 0.78294 0.0
H664 H 0.58571 0.43869 0.76218 0.0
H665 H 0.58262 0.40561 0.7889 0.0
H666 H 0.62084 0.34156 0.7892 0.0
H667 H 0.61301 0.37824 0.80134 0.0
H668 H 0.64379 0.40519 0.64678 0.0
H669 H 0.62748 0.4363 0.65763 0.0
H670 H 0.62997 0.34914 0.65384 0.0
H671 H 0.63505 0.32137 0.68154 0.0
C672 C 0.26099 0.50983 0.92513 0.0
C673 C 0.24728 0.50749 0.89497 0.0
C674 C 0.315 0.55507 0.87797 0.0
C675 C 0.32914 0.55692 0.908 0.0
N676 N 0.3177 0.53292 0.95936 0.0
N677 N 0.26165 0.52114 0.84156 0.0
C678 C 0.30279 0.53306 0.93133 0.0
C679 C 0.27448 0.52794 0.87104 0.0
N680 N 0.23382 0.49073 0.94784 0.0
N681 N 0.33997 0.57999 0.85611 0.0
H682 H 0.23185 0.50278 0.83538 0.0
H683 H 0.28102 0.53104 0.82298 0.0
H684 H 0.37048 0.59917 0.85935 0.0
H685 H 0.33002 0.58366 0.83518 0.0
H686 H 0.24095 0.49448 0.97083 0.0
H687 H 0.20331 0.47215 0.94369 0.0
H688 H 0.30097 0.5134 0.97644 0.0
H689 H 0.34774 0.55112 0.96514 0.0
C690 C 0.62133 0.19916 0.0764 0.0
C691 C 0.61021 0.18565 0.0462 0.0
C692 C 0.66763 0.24502 0.02627 0.0
C693 C 0.67878 0.25867 0.0565 0.0
N694 N 0.6626 0.25337 0.10974 0.0
N695 N 0.61663 0.19824 0.99239 0.0
C696 C 0.65435 0.23714 0.08142 0.0
C697 C 0.63132 0.20957 0.02113 0.0
N698 N 0.60129 0.17511 0.10018 0.0
N699 N 0.69297 0.2646 0.00266 0.0
H700 H 0.59032 0.17219 0.98773 0.0
H701 H 0.62855 0.21596 0.97345 0.0
H702 H 0.71975 0.29083 0.00528 0.0
H703 H 0.68906 0.25366 0.98068 0.0
H704 H 0.61066 0.18145 0.12266 0.0
H705 H 0.57622 0.14759 0.09724 0.0
H706 H 0.64404 0.24076 0.12851 0.0
H707 H 0.6865 0.28126 0.1139 0.0
C708 C 0.56131 0.74059 0.18292 0.0
C709 C 0.57227 0.71949 0.20228 0.0
C710 C 0.55545 0.74476 0.24714 0.0
C711 C 0.54264 0.76429 0.22773 0.0
N712 N 0.52762 0.77671 0.17738 0.0
N713 N 0.57407 0.69609 0.25213 0.0
C714 C 0.54359 0.76072 0.19567 0.0
C715 C 0.5677 0.72004 0.23424 0.0
N716 N 0.5697 0.74293 0.1525 0.0
N717 N 0.55637 0.7503 0.27785 0.0
H718 H 0.58313 0.67773 0.24337 0.0
H719 H 0.56745 0.69209 0.27523 0.0
H720 H 0.54574 0.76666 0.28813 0.0
H721 H 0.56967 0.7406 0.29307 0.0
H722 H 0.56683 0.76141 0.13771 0.0
H723 H 0.5826 0.72859 0.14217 0.0
H724 H 0.52296 0.77124 0.15418 0.0
H725 H 0.51634 0.79348 0.18565 0.0
C726 C 0.8434 0.48196 0.33897 0.0
C727 C 0.86861 0.48366 0.36293 0.0
C728 C 0.81669 0.47303 0.40031 0.0
C729 C 0.79355 0.4756 0.37665 0.0
N730 N 0.78483 0.48443 0.32371 0.0
N731 N 0.88096 0.48248 0.41634 0.0
C732 C 0.80676 0.48027 0.346 0.0
C733 C 0.85559 0.47936 0.39362 0.0
N734 N 0.85446 0.48166 0.30945 0.0
N735 N 0.80118 0.46413 0.42907 0.0
H736 H 0.90891 0.48559 0.41212 0.0
H737 H 0.87544 0.48399 0.4393 0.0
H738 H 0.77307 0.45992 0.43461 0.0
H739 H 0.81458 0.45818 0.44694 0.0
H740 H 0.8357 0.47621 0.29096 0.0
H741 H 0.88161 0.48408 0.30337 0.0
H742 H 0.795 0.49276 0.30156 0.0
H743 H 0.75699 0.48166 0.32771 0.0
C744 C 0.16825 0.58605 0.44577 0.0
C745 C 0.12801 0.57693 0.44996 0.0
C746 C 0.14181 0.5943 0.50379 0.0
C747 C 0.18314 0.60797 0.49856 0.0
N748 N 0.23687 0.62213 0.46359 0.0
N749 N 0.07686 0.57519 0.48217 0.0
C750 C 0.19667 0.60505 0.46932 0.0
C751 C 0.11491 0.58196 0.47877 0.0
N752 N 0.1793 0.57612 0.41939 0.0
N753 N 0.12793 0.59134 0.53284 0.0
H754 H 0.05567 0.56406 0.46479 0.0
H755 H 0.06706 0.58278 0.50158 0.0
H756 H 0.14642 0.59888 0.55182 0.0
H757 H 0.09762 0.57799 0.53839 0.0
H758 H 0.20669 0.57764 0.41655 0.0
H759 H 0.15982 0.56313 0.40124 0.0
H760 H 0.24875 0.62489 0.44185 0.0
H761 H 0.2587 0.63674 0.48015 0.0
C762 C 0.58698 0.15609 0.62507 0.0
C763 C 0.55375 0.11866 0.6314 0.0
C764 C 0.56354 0.13224 0.68605 0.0
C765 C 0.59359 0.17093 0.67943 0.0
N766 N 0.63172 0.22133 0.64312 0.0
N767 N 0.50868 0.07114 0.66735 0.0
C768 C 0.60491 0.18326 0.64907 0.0
C769 C 0.54161 0.10667 0.66179 0.0
N770 N 0.60178 0.16554 0.59616 0.0
N771 N 0.5566 0.11989 0.71554 0.0
H772 H 0.49323 0.05102 0.6502 0.0
H773 H 0.49531 0.06224 0.68863 0.0
H774 H 0.57209 0.13799 0.73376 0.0
H775 H 0.53791 0.09122 0.7219 0.0
H776 H 0.62856 0.19063 0.59069 0.0
H777 H 0.58911 0.14692 0.57776 0.0
H778 H 0.63737 0.23322 0.62143 0.0
H779 H 0.64643 0.24185 0.66016 0.0
C780 C 0.49401 0.6577 0.76847 0.0
C781 C 0.48222 0.61892 0.76185 0.0
C782 C 0.45249 0.59968 0.81248 0.0
C783 C 0.4701 0.63914 0.82082 0.0
N784 N 0.51441 0.70631 0.80763 0.0
N785 N 0.45816 0.55425 0.7805 0.0
C786 C 0.49251 0.66845 0.79901 0.0
C787 C 0.46354 0.59017 0.78461 0.0
N788 N 0.50634 0.68415 0.74557 0.0
N789 N 0.42417 0.57105 0.8305 0.0
H790 H 0.46682 0.54597 0.76088 0.0
H791 H 0.44887 0.53396 0.7979 0.0
H792 H 0.41368 0.57623 0.85069 0.0
H793 H 0.40778 0.54226 0.82362 0.0
H794 H 0.51174 0.71201 0.7487 0.0
H795 H 0.50723 0.67697 0.72289 0.0
H796 H 0.53422 0.72822 0.79308 0.0
H797 H 0.5163 0.71544 0.83005 0.0
C798 C 0.90747 0.35568 0.9559 0.0
C799 C 0.89237 0.35914 0.92755 0.0
C800 C 0.83259 0.35161 0.95286 0.0
C801 C 0.85135 0.35565 0.9813 0.0
N802 N 0.90655 0.36178 0.01067 0.0
N803 N 0.84037 0.35912 0.89812 0.0
C804 C 0.88835 0.35682 0.98313 0.0
C805 C 0.85447 0.35606 0.92571 0.0
N806 N 0.94046 0.35197 0.95674 0.0
N807 N 0.79384 0.34342 0.95201 0.0
H808 H 0.85506 0.3608 0.87779 0.0
H809 H 0.81526 0.36169 0.89538 0.0
H810 H 0.77718 0.33982 0.97168 0.0
H811 H 0.77708 0.33684 0.93217 0.0
H812 H 0.95049 0.34536 0.97638 0.0
H813 H 0.95581 0.35203 0.93725 0.0
H814 H 0.93586 0.36789 0.0132 0.0
H815 H 0.89318 0.36208 0.03117 0.0
C816 C 0.49033 0.90583 0.12719 0.0
C817 C 0.50387 0.94545 0.13217 0.0
C818 C 0.5114 0.93781 0.1865 0.0
C819 C 0.49943 0.89865 0.18108 0.0
N820 N 0.4865 0.84774 0.14589 0.0
N821 N 0.53384 0.00109 0.16499 0.0
C822 C 0.49174 0.88343 0.15125 0.0
C823 C 0.5165 0.96209 0.16141 0.0
N824 N 0.47428 0.8891 0.0998 0.0
N825 N 0.51615 0.95125 0.21565 0.0
H826 H 0.53753 0.01944 0.14704 0.0
H827 H 0.54733 0.01561 0.18506 0.0
H828 H 0.51323 0.93444 0.23451 0.0
H829 H 0.52041 0.97815 0.22133 0.0
H830 H 0.45986 0.8595 0.0959 0.0
H831 H 0.47227 0.90438 0.0816 0.0
H832 H 0.48514 0.83675 0.12421 0.0
H833 H 0.48732 0.83048 0.1631 0.0
C834 C 0.63588 0.55327 0.29221 0.0
C835 C 0.63526 0.54163 0.26179 0.0
C836 C 0.6363 0.48439 0.27923 0.0
C837 C 0.64227 0.49886 0.30932 0.0
N838 N 0.64914 0.54764 0.34499 0.0
N839 N 0.63607 0.49703 0.22553 0.0
C840 C 0.64233 0.53342 0.31598 0.0
C841 C 0.6352 0.50711 0.25507 0.0
N842 N 0.62911 0.58269 0.29831 0.0
N843 N 0.63205 0.44912 0.27373 0.0
H844 H 0.63346 0.51175 0.2072 0.0
H845 H 0.64146 0.47533 0.21897 0.0
H846 H 0.63532 0.4328 0.2905 0.0
H847 H 0.62282 0.43475 0.253 0.0
H848 H 0.625 0.59019 0.32009 0.0
H849 H 0.62386 0.59747 0.2813 0.0
H850 H 0.65474 0.57504 0.35059 0.0
H851 H 0.65147 0.53301 0.36353 0.0
C852 C 0.45342 0.86676 0.3888 0.0
C853 C 0.46901 0.90705 0.38672 0.0
C854 C 0.49205 0.90766 0.33473 0.0
C855 C 0.47378 0.86693 0.33591 0.0
N856 N 0.43351 0.80669 0.3622 0.0
N857 N 0.49674 0.96495 0.35645 0.0
C858 C 0.4534 0.84612 0.36245 0.0
C859 C 0.48669 0.92729 0.35935 0.0
N860 N 0.43951 0.84855 0.41609 0.0
N861 N 0.51464 0.92764 0.31004 0.0
H862 H 0.49313 0.98042 0.3739 0.0
H863 H 0.50535 0.97999 0.33601 0.0
H864 H 0.51802 0.91436 0.29084 0.0
H865 H 0.53261 0.9576 0.30939 0.0
H866 H 0.43139 0.82004 0.42002 0.0
H867 H 0.43853 0.86283 0.43558 0.0
H868 H 0.41445 0.78951 0.37953 0.0
H869 H 0.43435 0.79092 0.34367 0.0
C870 C 0.58681 0.51993 0.47481 0.0
C871 C 0.60151 0.52392 0.50479 0.0
C872 C 0.64401 0.4983 0.48886 0.0
C873 C 0.62994 0.49504 0.45876 0.0
N874 N 0.5951 0.51073 0.42149 0.0
N875 N 0.6511 0.52587 0.53889 0.0
C876 C 0.60341 0.50822 0.45126 0.0
C877 C 0.63249 0.51613 0.51131 0.0
N878 N 0.55646 0.52673 0.46898 0.0
N879 N 0.66643 0.48232 0.49644 0.0
H880 H 0.6432 0.53822 0.55627 0.0
H881 H 0.6768 0.52494 0.54366 0.0
H882 H 0.67523 0.46872 0.48069 0.0
H883 H 0.67346 0.47957 0.51872 0.0
H884 H 0.54068 0.51942 0.44862 0.0
H885 H 0.5456 0.53803 0.48519 0.0
H886 H 0.57965 0.52404 0.41434 0.0
H887 H 0.60659 0.50247 0.40353 0.0
C888 C 0.1183 0.56259 0.66975 0.0
C889 C 0.13391 0.5588 0.69769 0.0
C890 C 0.20261 0.60301 0.67984 0.0
C891 C 0.18708 0.60702 0.65196 0.0
N892 N 0.13069 0.59737 0.62223 0.0
N893 N 0.18948 0.58229 0.73232 0.0
C894 C 0.14501 0.58908 0.6476 0.0
C895 C 0.17569 0.58126 0.70366 0.0
N896 N 0.07816 0.5399 0.66408 0.0
N897 N 0.24309 0.6191 0.6832 0.0
H898 H 0.17044 0.56692 0.75026 0.0
H899 H 0.219 0.601 0.73899 0.0
H900 H 0.26379 0.63693 0.66683 0.0
H901 H 0.25605 0.61311 0.7014 0.0
H902 H 0.06529 0.53778 0.64294 0.0
H903 H 0.05771 0.52133 0.68028 0.0
H904 H 0.10058 0.58812 0.61889 0.0
H905 H 0.1494 0.61628 0.60546 0.0
C906 C 0.54557 0.13737 0.85788 0.0
C907 C 0.55637 0.15562 0.88677 0.0
C908 C 0.60457 0.21713 0.86292 0.0
C909 C 0.59268 0.19906 0.83409 0.0
N910 N 0.5468 0.14462 0.80326 0.0
N911 N 0.5897 0.21349 0.91691 0.0
C912 C 0.56155 0.15997 0.83132 0.0
C913 C 0.584 0.1958 0.88934 0.0
N914 N 0.52129 0.09816 0.85588 0.0
N915 N 0.636 0.25429 0.865 0.0
H916 H 0.57427 0.19846 0.93639 0.0
H917 H 0.60685 0.24323 0.92006 0.0
H918 H 0.65091 0.27089 0.84595 0.0
H919 H 0.64894 0.26788 0.88548 0.0
H920 H 0.51664 0.08264 0.83585 0.0
H921 H 0.50777 0.0806 0.87471 0.0
H922 H 0.52112 0.1177 0.79996 0.0
H923 H 0.55827 0.16003 0.78312 0.0
C924 C 0.59118 0.70796 0.99621 0.0
C925 C 0.57777 0.70908 0.02601 0.0
C926 C 0.52101 0.71192 0.00531 0.0
C927 C 0.53023 0.7033 0.97627 0.0
N928 N 0.57444 0.69517 0.94273 0.0
N929 N 0.53299 0.71583 0.05977 0.0
C930 C 0.56599 0.70285 0.97119 0.0
C931 C 0.54395 0.71297 0.03078 0.0
N932 N 0.62756 0.711 0.99205 0.0
N933 N 0.49011 0.71864 0.00831 0.0
H934 H 0.55056 0.71853 0.07855 0.0
H935 H 0.50634 0.71458 0.06541 0.0
H936 H 0.47312 0.71802 0.98978 0.0
H937 H 0.48318 0.72765 0.02838 0.0
H938 H 0.64085 0.71395 0.97089 0.0
H939 H 0.64627 0.71386 0.01001 0.0
H940 H 0.59712 0.68944 0.93799 0.0
H941 H 0.55743 0.69293 0.92371 0.0
C942 C 0.8748 0.4034 0.19117 0.0
C943 C 0.90048 0.44365 0.19586 0.0
C944 C 0.87843 0.45547 0.1473 0.0
C945 C 0.85932 0.41556 0.13994 0.0
N946 N 0.84754 0.35244 0.15378 0.0
N947 N 0.93391 0.50774 0.17381 0.0
C948 C 0.85943 0.38956 0.16163 0.0
C949 C 0.90431 0.46974 0.17271 0.0
N950 N 0.86481 0.37838 0.2149 0.0
N951 N 0.87098 0.47974 0.1309 0.0
H952 H 0.95537 0.51939 0.19092 0.0
H953 H 0.9398 0.52665 0.1558 0.0
H954 H 0.84987 0.47024 0.11352 0.0
H955 H 0.88203 0.50839 0.13721 0.0
H956 H 0.84347 0.34906 0.21309 0.0
H957 H 0.87456 0.3877 0.23704 0.0
H958 H 0.85055 0.33377 0.1683 0.0
H959 H 0.83938 0.34167 0.13179 0.0
loop_
_geom_bond_atom_site_label_1
_geom_bond_atom_site_label_2
_geom_bond_distance
_geom_bond_site_symmetry_2
_ccdc_geom_bond_type
H0 O26 0.856 . S
H1 O29 0.854 . S
H2 C37 0.930 1_455 S
H3 C38 0.930 . S
H4 C40 0.930 . S
H5 C41 0.930 . S
H6 C43 0.931 . S
H7 C44 0.930 . S
H8 C46 0.930 . S
H9 C47 0.929 . S
H10 C49 0.930 . S
H11 C50 0.931 . S
H12 C52 0.930 . S
H13 C53 0.929 . S
H14 C55 0.931 . S
H15 C56 0.930 . S
H16 C58 0.930 . S
H17 C59 0.932 . S
H18 C61 0.930 . S
H19 C62 0.929 . S
H20 C64 0.931 . S
H21 C65 0.930 . S
H22 C67 0.929 . S
H23 C68 0.931 . S
H24 C70 0.930 . S
H25 C71 0.929 . S
O26 H0 0.856 . S
O26 C72 1.300 . S
O27 C72 1.209 . S
O28 C73 1.199 . S
O29 H1 0.854 . S
O29 C73 1.297 . S
C30 C31 1.404 . S
C30 C35 1.397 . S
C30 C36 1.492 . S
C31 C30 1.404 . S
C31 C32 1.396 . S
C31 C42 1.492 . S
C32 C31 1.396 . S
C32 C33 1.397 . S
C32 C48 1.509 . S
C33 C32 1.397 . S
C33 C34 1.412 . S
C33 C54 1.485 . S
C34 C33 1.412 . S
C34 C35 1.388 . S
C34 C60 1.490 . S
C35 C30 1.397 . S
C35 C34 1.388 . S
C35 C66 1.519 1_455 S
C36 C30 1.492 . S
C36 C37 1.363 1_455 S
C36 C41 1.390 1_455 S
C37 H2 0.930 1_655 S
C37 C36 1.363 1_655 S
C37 C38 1.372 . S
C38 H3 0.930 . S
C38 C37 1.372 . S
C38 C39 1.383 . S
C39 C38 1.383 . S
C39 C40 1.395 . S
C40 H4 0.930 . S
C40 C39 1.395 . S
C40 C41 1.362 . S
C41 H5 0.930 . S
C41 C36 1.390 1_655 S
C41 C40 1.362 . S
C42 C31 1.492 . S
C42 C43 1.377 . S
C42 C47 1.397 . S
C43 H6 0.931 . S
C43 C42 1.377 . S
C43 C44 1.376 . S
C44 H7 0.930 . S
C44 C43 1.376 . S
C44 C45 1.376 . S
C45 C44 1.376 . S
C45 C46 1.378 . S
C45 C72 1.486 . S
C46 H8 0.930 . S
C46 C45 1.378 . S
C46 C47 1.376 . S
C47 H9 0.929 . S
C47 C42 1.397 . S
C47 C46 1.376 . S
C48 C32 1.509 . S
C48 C49 1.391 . S
C48 C53 1.386 . S
C49 H10 0.930 . S
C49 C48 1.391 . S
C49 C50 1.375 . S
C50 H11 0.931 . S
C50 C49 1.375 . S
C50 C51 1.375 . S
C51 C50 1.375 . S
C51 C52 1.361 . S
C52 H12 0.930 . S
C52 C51 1.361 . S
C52 C53 1.399 . S
C53 H13 0.929 . S
C53 C48 1.386 . S
C53 C52 1.399 . S
C54 C33 1.485 . S
C54 C55 1.394 . S
C54 C59 1.360 . S
C55 H14 0.931 . S
C55 C54 1.394 . S
C55 C56 1.372 . S
C56 H15 0.930 . S
C56 C55 1.372 . S
C56 C57 1.397 . S
C57 C56 1.397 . S
C57 C58 1.390 . S
C57 C73 1.476 . S
C58 H16 0.930 . S
C58 C57 1.390 . S
C58 C59 1.366 . S
C59 H17 0.932 . S
C59 C54 1.360 . S
C59 C58 1.366 . S
C60 C34 1.490 . S
C60 C61 1.380 . S
C60 C65 1.386 . S
C61 H18 0.930 . S
C61 C60 1.380 . S
C61 C62 1.381 . S
C62 H19 0.929 . S
C62 C61 1.381 . S
C62 C63 1.371 . S
C63 C62 1.371 . S
C63 C64 1.380 . S
C64 H20 0.931 . S
C64 C63 1.380 . S
C64 C65 1.387 . S
C65 H21 0.930 . S
C65 C60 1.386 . S
C65 C64 1.387 . S
C66 C35 1.519 1_655 S
C66 C67 1.377 . S
C66 C71 1.361 . S
C67 H22 0.929 . S
C67 C66 1.377 . S
C67 C68 1.386 . S
C68 H23 0.931 . S
C68 C67 1.386 . S
C68 C69 1.363 . S
C69 C68 1.363 . S
C69 C70 1.385 . S
C70 H24 0.930 . S
C70 C69 1.385 . S
C70 C71 1.396 . S
C71 H25 0.929 . S
C71 C66 1.361 . S
C71 C70 1.396 . S
C72 O26 1.300 . S
C72 O27 1.209 . S
C72 C45 1.486 . S
C73 O28 1.199 . S
C73 O29 1.297 . S
C73 C57 1.476 . S
H74 O100 0.856 . S
H75 O103 0.854 . S
H76 C111 0.930 . S
H77 C112 0.930 . S
H78 C114 0.930 . S
H79 C115 0.930 . S
H80 C117 0.931 . S
H81 C118 0.930 . S
H82 C120 0.930 . S
H83 C121 0.929 . S
H84 C123 0.930 . S
H85 C124 0.931 . S
H86 C126 0.930 . S
H87 C127 0.929 . S
H88 C129 0.931 . S
H89 C130 0.930 . S
H90 C132 0.930 . S
H91 C133 0.932 . S
H92 C135 0.930 . S
H93 C136 0.929 . S
H94 C138 0.931 . S
H95 C139 0.930 . S
H96 C141 0.929 . S
H97 C142 0.931 . S
H98 C144 0.930 . S
H99 C145 0.910 1_545 S
O100 H74 0.856 . S
O100 C146 1.300 . S
O101 C146 1.209 . S
O102 C147 1.199 . S
O103 H75 0.854 . S
O103 C147 1.297 . S
C104 C105 1.404 . S
C104 C109 1.397 . S
C104 C110 1.492 . S
C105 C104 1.404 . S
C105 C106 1.396 . S
C105 C116 1.492 . S
C106 C105 1.396 . S
C106 C107 1.397 . S
C106 C122 1.509 . S
C107 C106 1.397 . S
C107 C108 1.412 . S
C107 C128 1.485 . S
C108 C107 1.412 . S
C108 C109 1.388 . S
C108 C134 1.490 . S
C109 C104 1.397 . S
C109 C108 1.388 . S
C109 C140 1.494 1_545 S
C110 C104 1.492 . S
C110 C111 1.363 . S
C110 C115 1.390 1_545 S
C111 H76 0.930 . S
C111 C110 1.363 . S
C111 C112 1.372 1_545 S
C112 H77 0.930 . S
C112 C111 1.372 1_565 S
C112 C113 1.383 . S
C113 C112 1.383 . S
C113 C114 1.395 . S
C114 H78 0.930 . S
C114 C113 1.395 . S
C114 C115 1.362 . S
C115 H79 0.930 . S
C115 C110 1.390 1_565 S
C115 C114 1.362 . S
C116 C105 1.492 . S
C116 C117 1.377 . S
C116 C121 1.397 . S
C117 H80 0.931 . S
C117 C116 1.377 . S
C117 C118 1.376 . S
C118 H81 0.930 . S
C118 C117 1.376 . S
C118 C119 1.376 . S
C119 C118 1.376 . S
C119 C120 1.378 . S
C119 C146 1.486 . S
C120 H82 0.930 . S
C120 C119 1.378 . S
C120 C121 1.376 . S
C121 H83 0.929 . S
C121 C116 1.397 . S
C121 C120 1.376 . S
C122 C106 1.509 . S
C122 C123 1.391 . S
C122 C127 1.386 . S
C123 H84 0.930 . S
C123 C122 1.391 . S
C123 C124 1.375 . S
C124 H85 0.931 . S
C124 C123 1.375 . S
C124 C125 1.375 . S
C125 C124 1.375 . S
C125 C126 1.361 . S
C126 H86 0.930 . S
C126 C125 1.361 . S
C126 C127 1.399 . S
C127 H87 0.929 . S
C127 C122 1.386 . S
C127 C126 1.399 . S
C128 C107 1.485 . S
C128 C129 1.394 . S
C128 C133 1.360 . S
C129 H88 0.931 . S
C129 C128 1.394 . S
C129 C130 1.372 . S
C130 H89 0.930 . S
C130 C129 1.372 . S
C130 C131 1.397 . S
C131 C130 1.397 . S
C131 C132 1.390 . S
C131 C147 1.476 . S
C132 H90 0.930 . S
C132 C131 1.390 . S
C132 C133 1.366 . S
C133 H91 0.932 . S
C133 C128 1.360 . S
C133 C132 1.366 . S
C134 C108 1.490 . S
C134 C135 1.380 . S
C134 C139 1.386 . S
C135 H92 0.930 . S
C135 C134 1.380 . S
C135 C136 1.381 . S
C136 H93 0.929 . S
C136 C135 1.381 . S
C136 C137 1.371 . S
C137 C136 1.371 . S
C137 C138 1.380 . S
C138 H94 0.931 . S
C138 C137 1.380 . S
C138 C139 1.387 . S
C139 H95 0.930 . S
C139 C134 1.386 . S
C139 C138 1.387 . S
C140 C109 1.494 1_565 S
C140 C141 1.404 . S
C140 C145 1.358 . S
C141 H96 0.929 . S
C141 C140 1.404 . S
C141 C142 1.386 . S
C142 H97 0.931 . S
C142 C141 1.386 . S
C142 C143 1.363 . S
C143 C142 1.363 . S
C143 C144 1.385 . S
C144 H98 0.930 . S
C144 C143 1.385 . S
C144 C145 1.396 . S
C145 H99 0.910 1_565 S
C145 C140 1.358 . S
C145 C144 1.396 . S
C146 O100 1.300 . S
C146 O101 1.209 . S
C146 C119 1.486 . S
C147 O102 1.199 . S
C147 O103 1.297 . S
C147 C131 1.476 . S
H148 O174 0.856 . S
H149 O177 0.854 . S
H150 C185 0.930 . S
H151 C186 0.930 . S
H152 C188 0.930 . S
H153 C189 0.930 . S
H154 C191 0.931 . S
H155 C192 0.930 . S
H156 C194 0.930 . S
H157 C195 0.929 . S
H158 C197 0.930 . S
H159 C198 0.931 . S
H160 C200 0.930 . S
H161 C201 0.929 . S
H162 C203 0.931 . S
H163 C204 0.930 . S
H164 C206 0.930 . S
H165 C207 0.932 . S
H166 C209 0.930 . S
H167 C210 0.929 . S
H168 C212 0.931 . S
H169 C213 0.930 . S
H170 C215 0.929 . S
H171 C216 0.931 . S
H172 C218 0.930 . S
H173 C219 0.929 . S
O174 H148 0.856 . S
O174 C220 1.300 . S
O175 C220 1.209 . S
O176 C221 1.199 . S
O177 H149 0.854 . S
O177 C221 1.297 . S
C178 C179 1.404 . S
C178 C183 1.397 . S
C178 C184 1.492 . S
C179 C178 1.404 . S
C179 C180 1.396 . S
C179 C190 1.492 . S
C180 C179 1.396 . S
C180 C181 1.397 . S
C180 C196 1.509 . S
C181 C180 1.397 . S
C181 C182 1.412 . S
C181 C202 1.485 . S
C182 C181 1.412 . S
C182 C183 1.388 . S
C182 C208 1.490 . S
C183 C178 1.397 . S
C183 C182 1.388 . S
C183 C214 1.519 . S
C184 C178 1.492 . S
C184 C185 1.363 . S
C184 C189 1.390 . S
C185 H150 0.930 . S
C185 C184 1.363 . S
C185 C186 1.372 . S
C186 H151 0.930 . S
C186 C185 1.372 . S
C186 C187 1.383 . S
C187 C186 1.383 . S
C187 C188 1.395 . S
C188 H152 0.930 . S
C188 C187 1.395 . S
C188 C189 1.362 . S
C189 H153 0.930 . S
C189 C184 1.390 . S
C189 C188 1.362 . S
C190 C179 1.492 . S
C190 C191 1.377 . S
C190 C195 1.397 . S
C191 H154 0.931 . S
C191 C190 1.377 . S
C191 C192 1.376 . S
C192 H155 0.930 . S
C192 C191 1.376 . S
C192 C193 1.376 . S
C193 C192 1.376 . S
C193 C194 1.378 . S
C193 C220 1.486 . S
C194 H156 0.930 . S
C194 C193 1.378 . S
C194 C195 1.376 . S
C195 H157 0.929 . S
C195 C190 1.397 . S
C195 C194 1.376 . S
C196 C180 1.509 . S
C196 C197 1.391 . S
C196 C201 1.386 . S
C197 H158 0.930 . S
C197 C196 1.391 . S
C197 C198 1.375 . S
C198 H159 0.931 . S
C198 C197 1.375 . S
C198 C199 1.375 . S
C199 C198 1.375 . S
C199 C200 1.361 . S
C200 H160 0.930 . S
C200 C199 1.361 . S
C200 C201 1.399 . S
C201 H161 0.929 . S
C201 C196 1.386 . S
C201 C200 1.399 . S
C202 C181 1.485 . S
C202 C203 1.394 . S
C202 C207 1.360 . S
C203 H162 0.931 . S
C203 C202 1.394 . S
C203 C204 1.372 . S
C204 H163 0.930 . S
C204 C203 1.372 . S
C204 C205 1.397 . S
C205 C204 1.397 . S
C205 C206 1.390 . S
C205 C221 1.476 . S
C206 H164 0.930 . S
C206 C205 1.390 . S
C206 C207 1.366 . S
C207 H165 0.932 . S
C207 C202 1.360 . S
C207 C206 1.366 . S
C208 C182 1.490 . S
C208 C209 1.380 . S
C208 C213 1.386 . S
C209 H166 0.930 . S
C209 C208 1.380 . S
C209 C210 1.381 . S
C210 H167 0.929 . S
C210 C209 1.381 . S
C210 C211 1.371 . S
C211 C210 1.371 . S
C211 C212 1.380 . S
C212 H168 0.931 . S
C212 C211 1.380 . S
C212 C213 1.387 . S
C213 H169 0.930 . S
C213 C208 1.386 . S
C213 C212 1.387 . S
C214 C183 1.519 . S
C214 C215 1.377 . S
C214 C219 1.361 . S
C215 H170 0.929 . S
C215 C214 1.377 . S
C215 C216 1.386 . S
C216 H171 0.931 . S
C216 C215 1.386 . S
C216 C217 1.363 . S
C217 C216 1.363 . S
C217 C218 1.385 . S
C218 H172 0.930 . S
C218 C217 1.385 . S
C218 C219 1.396 . S
C219 H173 0.929 . S
C219 C214 1.361 . S
C219 C218 1.396 . S
C220 O174 1.300 . S
C220 O175 1.209 . S
C220 C193 1.486 . S
C221 O176 1.199 . S
C221 O177 1.297 . S
C221 C205 1.476 . S
H222 O248 0.861 . S
H223 O251 0.854 . S
H224 C259 0.930 1_455 S
H225 C260 0.930 . S
H226 C262 0.930 . S
H227 C263 0.930 . S
H228 C265 0.931 . S
H229 C266 0.930 . S
H230 C268 0.930 . S
H231 C269 0.929 . S
H232 C271 0.930 . S
H233 C272 0.931 . S
H234 C274 0.930 . S
H235 C275 0.929 . S
H236 C277 0.931 . S
H237 C278 0.930 . S
H238 C280 0.930 . S
H239 C281 0.932 . S
H240 C283 0.930 . S
H241 C284 0.929 . S
H242 C286 0.931 . S
H243 C287 0.930 . S
H244 C289 0.929 . S
H245 C290 0.931 . S
H246 C292 0.930 . S
H247 C293 0.929 . S
O248 H222 0.861 . S
O248 C294 1.298 1_554 S
O249 C294 1.209 . S
O250 C295 1.199 . S
O251 H223 0.854 . S
O251 C295 1.297 . S
C252 C253 1.404 . S
C252 C257 1.397 . S
C252 C258 1.492 1_455 S
C253 C252 1.404 . S
C253 C254 1.396 . S
C253 C264 1.492 . S
C254 C253 1.396 . S
C254 C255 1.397 . S
C254 C270 1.509 . S
C255 C254 1.397 . S
C255 C256 1.412 . S
C255 C276 1.485 . S
C256 C255 1.412 . S
C256 C257 1.388 . S
C256 C282 1.490 . S
C257 C252 1.397 . S
C257 C256 1.388 . S
C257 C288 1.519 1_455 S
C258 C252 1.492 1_655 S
C258 C259 1.363 . S
C258 C263 1.390 . S
C259 H224 0.930 1_655 S
C259 C258 1.363 . S
C259 C260 1.372 . S
C260 H225 0.930 . S
C260 C259 1.372 . S
C260 C261 1.383 . S
C261 C260 1.383 . S
C261 C262 1.395 . S
C262 H226 0.930 . S
C262 C261 1.395 . S
C262 C263 1.362 . S
C263 H227 0.930 . S
C263 C258 1.390 . S
C263 C262 1.362 . S
C264 C253 1.492 . S
C264 C265 1.377 . S
C264 C269 1.397 . S
C265 H228 0.931 . S
C265 C264 1.377 . S
C265 C266 1.376 . S
C266 H229 0.930 . S
C266 C265 1.376 . S
C266 C267 1.376 . S
C267 C266 1.376 . S
C267 C268 1.378 . S
C267 C294 1.486 . S
C268 H230 0.930 . S
C268 C267 1.378 . S
C268 C269 1.376 . S
C269 H231 0.929 . S
C269 C264 1.397 . S
C269 C268 1.376 . S
C270 C254 1.509 . S
C270 C271 1.391 . S
C270 C275 1.386 . S
C271 H232 0.930 . S
C271 C270 1.391 . S
C271 C272 1.375 . S
C272 H233 0.931 . S
C272 C271 1.375 . S
C272 C273 1.375 . S
C273 C272 1.375 . S
C273 C274 1.361 . S
C274 H234 0.930 . S
C274 C273 1.361 . S
C274 C275 1.399 . S
C275 H235 0.929 . S
C275 C270 1.386 . S
C275 C274 1.399 . S
C276 C255 1.485 . S
C276 C277 1.394 . S
C276 C281 1.360 . S
C277 H236 0.931 . S
C277 C276 1.394 . S
C277 C278 1.372 . S
C278 H237 0.930 . S
C278 C277 1.372 . S
C278 C279 1.397 . S
C279 C278 1.397 . S
C279 C280 1.390 . S
C279 C295 1.476 . S
C280 H238 0.930 . S
C280 C279 1.390 . S
C280 C281 1.366 . S
C281 H239 0.932 . S
C281 C276 1.360 . S
C281 C280 1.366 . S
C282 C256 1.490 . S
C282 C283 1.380 . S
C282 C287 1.386 . S
C283 H240 0.930 . S
C283 C282 1.380 . S
C283 C284 1.381 . S
C284 H241 0.929 . S
C284 C283 1.381 . S
C284 C285 1.371 . S
C285 C284 1.371 . S
C285 C286 1.380 . S
C286 H242 0.931 . S
C286 C285 1.380 . S
C286 C287 1.387 . S
C287 H243 0.930 . S
C287 C282 1.386 . S
C287 C286 1.387 . S
C288 C257 1.519 1_655 S
C288 C289 1.377 . S
C288 C293 1.361 . S
C289 H244 0.929 . S
C289 C288 1.377 . S
C289 C290 1.386 . S
C290 H245 0.931 . S
C290 C289 1.386 . S
C290 C291 1.363 . S
C291 C290 1.363 . S
C291 C292 1.385 . S
C292 H246 0.930 . S
C292 C291 1.385 . S
C292 C293 1.396 . S
C293 H247 0.929 . S
C293 C288 1.361 . S
C293 C292 1.396 . S
C294 O248 1.298 1_556 S
C294 O249 1.209 . S
C294 C267 1.486 . S
C295 O250 1.199 . S
C295 O251 1.297 . S
C295 C279 1.476 . S
H296 O322 0.856 . S
H297 O325 0.854 . S
H298 C333 0.930 . S
H299 C334 0.930 . S
H300 C336 0.930 . S
H301 C337 0.930 . S
H302 C339 0.931 . S
H303 C340 0.930 . S
H304 C342 0.930 1_545 S
H305 C343 0.929 1_545 S
H306 C345 0.930 . S
H307 C346 0.931 . S
H308 C348 0.930 . S
H309 C349 0.929 . S
H310 C351 0.931 . S
H311 C352 0.930 . S
H312 C354 0.930 . S
H313 C355 0.932 . S
H314 C357 0.930 . S
H315 C358 0.929 . S
H316 C360 0.931 . S
H317 C361 0.930 . S
H318 C363 0.929 1_556 S
H319 C364 0.931 . S
H320 C366 0.930 . S
H321 C367 0.929 . S
O322 H296 0.856 . S
O322 C368 1.300 . S
O323 C368 1.209 . S
O324 C369 1.199 . S
O325 H297 0.854 . S
O325 C369 1.297 . S
C326 C327 1.404 1_545 S
C326 C331 1.397 . S
C326 C332 1.492 . S
C327 C326 1.404 1_565 S
C327 C328 1.396 . S
C327 C338 1.492 . S
C328 C327 1.396 . S
C328 C329 1.397 1_556 S
C328 C344 1.509 . S
C329 C328 1.397 1_554 S
C329 C330 1.412 . S
C329 C350 1.485 . S
C330 C329 1.412 . S
C330 C331 1.388 1_564 S
C330 C356 1.494 . S
C331 C326 1.397 . S
C331 C330 1.388 1_546 S
C331 C362 1.519 1_556 S
C332 C326 1.492 . S
C332 C333 1.363 . S
C332 C337 1.390 . S
C333 H298 0.930 . S
C333 C332 1.363 . S
C333 C334 1.372 . S
C334 H299 0.930 . S
C334 C333 1.372 . S
C334 C335 1.383 . S
C335 C334 1.383 . S
C335 C336 1.395 . S
C336 H300 0.930 . S
C336 C335 1.395 . S
C336 C337 1.362 . S
C337 H301 0.930 . S
C337 C332 1.390 . S
C337 C336 1.362 . S
C338 C327 1.492 . S
C338 C339 1.377 . S
C338 C343 1.397 . S
C339 H302 0.931 . S
C339 C338 1.377 . S
C339 C340 1.376 . S
C340 H303 0.930 . S
C340 C339 1.376 . S
C340 C341 1.376 . S
C341 C340 1.376 . S
C341 C342 1.378 . S
C341 C368 1.486 . S
C342 H304 0.930 1_565 S
C342 C341 1.378 . S
C342 C343 1.376 . S
C343 H305 0.929 1_565 S
C343 C338 1.397 . S
C343 C342 1.376 . S
C344 C328 1.509 . S
C344 C345 1.391 . S
C344 C349 1.386 . S
C345 H306 0.930 . S
C345 C344 1.391 . S
C345 C346 1.375 . S
C346 H307 0.931 . S
C346 C345 1.375 . S
C346 C347 1.375 . S
C347 C346 1.375 . S
C347 C348 1.361 . S
C348 H308 0.930 . S
C348 C347 1.361 . S
C348 C349 1.399 . S
C349 H309 0.929 . S
C349 C344 1.386 . S
C349 C348 1.399 . S
C350 C329 1.485 . S
C350 C351 1.394 . S
C350 C355 1.360 . S
C351 H310 0.931 . S
C351 C350 1.394 . S
C351 C352 1.372 . S
C352 H311 0.930 . S
C352 C351 1.372 . S
C352 C353 1.397 . S
C353 C352 1.397 . S
C353 C354 1.390 . S
C353 C369 1.476 . S
C354 H312 0.930 . S
C354 C353 1.390 . S
C354 C355 1.366 . S
C355 H313 0.932 . S
C355 C350 1.360 . S
C355 C354 1.366 . S
C356 C330 1.494 . S
C356 C357 1.368 1_565 S
C356 C361 1.395 . S
C357 H314 0.930 . S
C357 C356 1.368 1_545 S
C357 C358 1.381 . S
C358 H315 0.929 . S
C358 C357 1.381 . S
C358 C359 1.371 . S
C359 C358 1.371 . S
C359 C360 1.380 1_545 S
C360 H316 0.931 . S
C360 C359 1.380 1_565 S
C360 C361 1.387 . S
C361 H317 0.930 . S
C361 C356 1.395 . S
C361 C360 1.387 . S
C362 C331 1.519 1_554 S
C362 C363 1.377 . S
C362 C367 1.361 . S
C363 H318 0.929 1_554 S
C363 C362 1.377 . S
C363 C364 1.386 . S
C364 H319 0.931 . S
C364 C363 1.386 . S
C364 C365 1.363 . S
C365 C364 1.363 . S
C365 C366 1.385 . S
C366 H320 0.930 . S
C366 C365 1.385 . S
C366 C367 1.396 . S
C367 H321 0.929 . S
C367 C362 1.361 . S
C367 C366 1.396 . S
C368 O322 1.300 . S
C368 O323 1.209 . S
C368 C341 1.486 . S
C369 O324 1.199 . S
C369 O325 1.297 . S
C369 C353 1.476 . S
H370 O396 0.856 . S
H371 O399 0.854 . S
H372 C407 0.930 . S
H373 C408 0.930 . S
H374 C410 0.930 . S
H375 C411 0.930 . S
H376 C413 0.931 . S
H377 C414 0.930 . S
H378 C416 0.930 . S
H379 C417 0.929 . S
H380 C419 0.930 . S
H381 C420 0.931 . S
H382 C422 0.930 . S
H383 C423 0.929 . S
H384 C425 0.931 . S
H385 C426 0.930 . S
H386 C428 0.930 . S
H387 C429 0.932 . S
H388 C431 0.930 . S
H389 C432 0.929 . S
H390 C434 0.931 . S
H391 C435 0.930 . S
H392 C437 0.929 . S
H393 C438 0.931 . S
H394 C440 0.930 . S
H395 C441 0.929 . S
O396 H370 0.856 . S
O396 C442 1.300 . S
O397 C442 1.209 . S
O398 C443 1.199 . S
O399 H371 0.854 . S
O399 C443 1.297 . S
C400 C401 1.404 . S
C400 C405 1.397 . S
C400 C406 1.492 . S
C401 C400 1.404 . S
C401 C402 1.396 . S
C401 C412 1.492 . S
C402 C401 1.396 . S
C402 C403 1.397 . S
C402 C418 1.509 . S
C403 C402 1.397 . S
C403 C404 1.412 . S
C403 C424 1.485 . S
C404 C403 1.412 . S
C404 C405 1.388 . S
C404 C430 1.490 . S
C405 C400 1.397 . S
C405 C404 1.388 . S
C405 C436 1.519 . S
C406 C400 1.492 . S
C406 C407 1.363 . S
C406 C411 1.390 . S
C407 H372 0.930 . S
C407 C406 1.363 . S
C407 C408 1.372 . S
C408 H373 0.930 . S
C408 C407 1.372 . S
C408 C409 1.383 . S
C409 C408 1.383 . S
C409 C410 1.395 . S
C410 H374 0.930 . S
C410 C409 1.395 . S
C410 C411 1.362 . S
C411 H375 0.930 . S
C411 C406 1.390 . S
C411 C410 1.362 . S
C412 C401 1.492 . S
C412 C413 1.377 . S
C412 C417 1.397 . S
C413 H376 0.931 . S
C413 C412 1.377 . S
C413 C414 1.376 . S
C414 H377 0.930 . S
C414 C413 1.376 . S
C414 C415 1.376 . S
C415 C414 1.376 . S
C415 C416 1.378 . S
C415 C442 1.486 1_554 S
C416 H378 0.930 . S
C416 C415 1.378 . S
C416 C417 1.376 . S
C417 H379 0.929 . S
C417 C412 1.397 . S
C417 C416 1.376 . S
C418 C402 1.509 . S
C418 C419 1.391 . S
C418 C423 1.386 . S
C419 H380 0.930 . S
C419 C418 1.391 . S
C419 C420 1.375 . S
C420 H381 0.931 . S
C420 C419 1.375 . S
C420 C421 1.375 . S
C421 C420 1.375 . S
C421 C422 1.361 . S
C422 H382 0.930 . S
C422 C421 1.361 . S
C422 C423 1.399 . S
C423 H383 0.929 . S
C423 C418 1.386 . S
C423 C422 1.399 . S
C424 C403 1.485 . S
C424 C425 1.394 . S
C424 C429 1.360 . S
C425 H384 0.931 . S
C425 C424 1.394 . S
C425 C426 1.372 . S
C426 H385 0.930 . S
C426 C425 1.372 . S
C426 C427 1.397 . S
C427 C426 1.397 . S
C427 C428 1.390 . S
C427 C443 1.476 . S
C428 H386 0.930 . S
C428 C427 1.390 . S
C428 C429 1.366 . S
C429 H387 0.932 . S
C429 C424 1.360 . S
C429 C428 1.366 . S
C430 C404 1.490 . S
C430 C431 1.380 . S
C430 C435 1.386 . S
C431 H388 0.930 . S
C431 C430 1.380 . S
C431 C432 1.381 . S
C432 H389 0.929 . S
C432 C431 1.381 . S
C432 C433 1.371 . S
C433 C432 1.371 . S
C433 C434 1.380 . S
C434 H390 0.931 . S
C434 C433 1.380 . S
C434 C435 1.387 . S
C435 H391 0.930 . S
C435 C430 1.386 . S
C435 C434 1.387 . S
C436 C405 1.519 . S
C436 C437 1.377 . S
C436 C441 1.361 . S
C437 H392 0.929 . S
C437 C436 1.377 . S
C437 C438 1.386 . S
C438 H393 0.931 . S
C438 C437 1.386 . S
C438 C439 1.363 . S
C439 C438 1.363 . S
C439 C440 1.385 . S
C440 H394 0.930 . S
C440 C439 1.385 . S
C440 C441 1.396 . S
C441 H395 0.929 . S
C441 C436 1.361 . S
C441 C440 1.396 . S
C442 O396 1.300 . S
C442 O397 1.209 . S
C442 C415 1.486 1_556 S
C443 O398 1.199 . S
C443 O399 1.297 . S
C443 C427 1.476 . S
O444 Cd445 2.223 . S
O444 C452 1.315 . S
Cd445 O444 2.223 . S
Cd445 O448 2.297 . S
Cd445 O449 2.439 . S
Cd445 O455 2.240 . S
Cd446 O447 2.240 . S
Cd446 O454 2.223 . S
Cd446 O456 2.297 . S
Cd446 O457 2.439 . S
O447 Cd446 2.240 . S
O447 C452 1.279 . S
O448 Cd445 2.297 . S
O448 C450 1.247 . S
O449 Cd445 2.439 . S
O449 C450 1.208 . S
C450 O448 1.247 . S
C450 O449 1.208 . S
C451 O456 1.247 . S
C451 O457 1.208 . S
C452 O444 1.315 . S
C452 O447 1.279 . S
C453 O454 1.315 . S
C453 O455 1.279 . S
O454 Cd446 2.223 . S
O454 C453 1.315 . S
O455 Cd445 2.240 . S
O455 C453 1.279 . S
O456 Cd446 2.297 . S
O456 C451 1.247 . S
O457 Cd446 2.439 . S
O457 C451 1.208 . S
O458 Cd459 2.223 . S
O458 C466 1.315 . S
Cd459 O458 2.223 . S
Cd459 O462 2.297 . S
Cd459 O463 2.439 . S
Cd459 O469 2.240 . S
Cd460 O461 2.240 . S
Cd460 O468 2.223 . S
Cd460 O470 2.297 . S
Cd460 O471 2.439 . S
O461 Cd460 2.240 . S
O461 C466 1.279 . S
O462 Cd459 2.297 . S
O462 C464 1.247 . S
O463 Cd459 2.439 . S
O463 C464 1.208 . S
C464 O462 1.247 . S
C464 O463 1.208 . S
C465 O470 1.247 . S
C465 O471 1.208 . S
C466 O458 1.315 . S
C466 O461 1.279 . S
C467 O468 1.315 . S
C467 O469 1.279 . S
O468 Cd460 2.223 . S
O468 C467 1.315 . S
O469 Cd459 2.240 . S
O469 C467 1.279 . S
O470 Cd460 2.297 . S
O470 C465 1.247 . S
O471 Cd460 2.439 . S
O471 C465 1.208 . S
O472 Cd473 2.223 . S
O472 C480 1.315 . S
Cd473 O472 2.223 . S
Cd473 O476 2.297 . S
Cd473 O477 2.439 . S
Cd473 O483 2.240 . S
Cd474 O475 2.240 . S
Cd474 O482 2.223 . S
Cd474 O484 2.297 . S
Cd474 O485 2.439 . S
O475 Cd474 2.240 . S
O475 C480 1.279 . S
O476 Cd473 2.297 . S
O476 C478 1.247 . S
O477 Cd473 2.439 . S
O477 C478 1.208 . S
C478 O476 1.247 . S
C478 O477 1.208 . S
C479 O484 1.247 . S
C479 O485 1.208 . S
C480 O472 1.315 . S
C480 O475 1.279 . S
C481 O482 1.315 . S
C481 O483 1.279 . S
O482 Cd474 2.223 . S
O482 C481 1.315 . S
O483 Cd473 2.240 . S
O483 C481 1.279 . S
O484 Cd474 2.297 . S
O484 C479 1.247 . S
O485 Cd474 2.439 . S
O485 C479 1.208 . S
O486 Cd487 2.223 . S
O486 C494 1.315 . S
Cd487 O486 2.223 . S
Cd487 O490 2.297 . S
Cd487 O491 2.439 . S
Cd487 O497 2.240 . S
Cd488 O489 2.240 . S
Cd488 O496 2.223 . S
Cd488 O498 2.297 . S
Cd488 O499 2.439 . S
O489 Cd488 2.240 . S
O489 C494 1.279 . S
O490 Cd487 2.297 . S
O490 C492 1.247 . S
O491 Cd487 2.439 . S
O491 C492 1.208 . S
C492 O490 1.247 . S
C492 O491 1.208 . S
C493 O498 1.247 . S
C493 O499 1.208 . S
C494 O486 1.315 . S
C494 O489 1.279 . S
C495 O496 1.315 . S
C495 O497 1.279 . S
O496 Cd488 2.223 . S
O496 C495 1.315 . S
O497 Cd487 2.240 . S
O497 C495 1.279 . S
O498 Cd488 2.297 . S
O498 C493 1.247 . S
O499 Cd488 2.439 . S
O499 C493 1.208 . S
O500 Cd501 2.223 . S
O500 C508 1.315 . S
Cd501 O500 2.223 . S
Cd501 O504 2.297 . S
Cd501 O505 2.439 . S
Cd501 O511 2.240 . S
Cd502 O503 2.240 . S
Cd502 O510 2.223 . S
Cd502 O512 2.297 . S
Cd502 O513 2.439 . S
O503 Cd502 2.240 . S
O503 C508 1.279 . S
O504 Cd501 2.297 . S
O504 C506 1.247 . S
O505 Cd501 2.439 . S
O505 C506 1.208 . S
C506 O504 1.247 . S
C506 O505 1.208 . S
C507 O512 1.247 . S
C507 O513 1.208 . S
C508 O500 1.315 . S
C508 O503 1.279 . S
C509 O510 1.315 . S
C509 O511 1.279 . S
O510 Cd502 2.223 . S
O510 C509 1.315 . S
O511 Cd501 2.240 . S
O511 C509 1.279 . S
O512 Cd502 2.297 . S
O512 C507 1.247 . S
O513 Cd502 2.439 . S
O513 C507 1.208 . S
O514 Cd515 2.223 . S
O514 C522 1.315 . S
Cd515 O514 2.223 . S
Cd515 O518 2.297 . S
Cd515 O519 2.439 . S
Cd515 O525 2.240 . S
Cd516 O517 2.240 . S
Cd516 O524 2.223 . S
Cd516 O526 2.297 . S
Cd516 O527 2.439 . S
O517 Cd516 2.240 . S
O517 C522 1.279 . S
O518 Cd515 2.297 . S
O518 C520 1.247 . S
O519 Cd515 2.439 . S
O519 C520 1.208 . S
C520 O518 1.247 . S
C520 O519 1.208 . S
C521 O526 1.247 . S
C521 O527 1.208 . S
C522 O514 1.315 . S
C522 O517 1.279 . S
C523 O524 1.315 . S
C523 O525 1.279 . S
O524 Cd516 2.223 . S
O524 C523 1.315 . S
O525 Cd515 2.240 . S
O525 C523 1.279 . S
O526 Cd516 2.297 . S
O526 C521 1.247 . S
O527 Cd516 2.439 . S
O527 C521 1.208 . S
C528 C529 1.363 . S
C528 C534 1.379 . S
C528 N536 1.356 . S
C529 C528 1.363 . S
C529 C535 1.363 . S
C530 C531 1.363 . S
C530 C535 1.379 . S
C530 N537 1.356 . S
C531 C530 1.363 . S
C531 C534 1.363 . S
N532 C534 1.356 . S
N532 H544 0.984 . S
N532 H545 0.985 . S
N533 C535 1.356 . S
N533 H538 0.984 . S
N533 H539 0.985 . S
C534 C528 1.379 . S
C534 C531 1.363 . S
C534 N532 1.356 . S
C535 C529 1.363 . S
C535 C530 1.379 . S
C535 N533 1.356 . S
N536 C528 1.356 . S
N536 H542 0.984 . S
N536 H543 0.984 . S
N537 C530 1.356 . S
N537 H540 0.984 . S
N537 H541 0.985 . S
H538 N533 0.984 . S
H539 N533 0.985 . S
H540 N537 0.984 . S
H541 N537 0.985 . S
H542 N536 0.984 . S
H543 N536 0.984 . S
H544 N532 0.984 . S
H545 N532 0.985 . S
C546 C547 1.363 . S
C546 C552 1.379 . S
C546 N554 1.356 . S
C547 C546 1.363 . S
C547 C553 1.363 . S
C548 C549 1.363 . S
C548 C553 1.379 . S
C548 N555 1.356 . S
C549 C548 1.363 . S
C549 C552 1.363 . S
N550 C552 1.356 . S
N550 H562 0.984 . S
N550 H563 0.985 . S
N551 C553 1.356 . S
N551 H556 0.984 . S
N551 H557 0.985 . S
C552 C546 1.379 . S
C552 C549 1.363 . S
C552 N550 1.356 . S
C553 C547 1.363 . S
C553 C548 1.379 . S
C553 N551 1.356 . S
N554 C546 1.356 . S
N554 H560 0.984 . S
N554 H561 0.984 . S
N555 C548 1.356 . S
N555 H558 0.984 . S
N555 H559 0.985 . S
H556 N551 0.984 . S
H557 N551 0.985 . S
H558 N555 0.984 . S
H559 N555 0.985 . S
H560 N554 0.984 . S
H561 N554 0.984 . S
H562 N550 0.984 . S
H563 N550 0.985 . S
C564 C565 1.363 . S
C564 C570 1.379 . S
C564 N572 1.356 . S
C565 C564 1.363 . S
C565 C571 1.363 . S
C566 C567 1.363 . S
C566 C571 1.379 . S
C566 N573 1.356 . S
C567 C566 1.363 . S
C567 C570 1.363 . S
N568 C570 1.356 . S
N568 H580 0.984 . S
N568 H581 0.985 . S
N569 C571 1.356 . S
N569 H574 0.984 . S
N569 H575 0.985 . S
C570 C564 1.379 . S
C570 C567 1.363 . S
C570 N568 1.356 . S
C571 C565 1.363 . S
C571 C566 1.379 . S
C571 N569 1.356 . S
N572 C564 1.356 . S
N572 H578 0.984 . S
N572 H579 0.984 . S
N573 C566 1.356 . S
N573 H576 0.984 . S
N573 H577 0.985 . S
H574 N569 0.984 . S
H575 N569 0.985 . S
H576 N573 0.984 . S
H577 N573 0.985 . S
H578 N572 0.984 . S
H579 N572 0.984 . S
H580 N568 0.984 . S
H581 N568 0.985 . S
C582 C583 1.363 . S
C582 C588 1.379 . S
C582 N590 1.356 . S
C583 C582 1.363 . S
C583 C589 1.363 . S
C584 C585 1.363 . S
C584 C589 1.379 . S
C584 N591 1.356 . S
C585 C584 1.363 . S
C585 C588 1.363 . S
N586 C588 1.356 . S
N586 H598 0.984 . S
N586 H599 0.985 . S
N587 C589 1.356 . S
N587 H592 0.984 . S
N587 H593 0.985 . S
C588 C582 1.379 . S
C588 C585 1.363 . S
C588 N586 1.356 . S
C589 C583 1.363 . S
C589 C584 1.379 . S
C589 N587 1.356 . S
N590 C582 1.356 . S
N590 H596 0.984 . S
N590 H597 0.984 . S
N591 C584 1.356 . S
N591 H594 0.984 . S
N591 H595 0.985 . S
H592 N587 0.984 . S
H593 N587 0.985 . S
H594 N591 0.984 . S
H595 N591 0.985 . S
H596 N590 0.984 . S
H597 N590 0.984 . S
H598 N586 0.984 . S
H599 N586 0.985 . S
C600 C601 1.363 . S
C600 C606 1.379 . S
C600 N608 1.356 . S
C601 C600 1.363 . S
C601 C607 1.363 . S
C602 C603 1.363 . S
C602 C607 1.379 . S
C602 N609 1.356 . S
C603 C602 1.363 . S
C603 C606 1.363 . S
N604 C606 1.356 . S
N604 H616 0.984 . S
N604 H617 0.985 . S
N605 C607 1.356 . S
N605 H610 0.984 . S
N605 H611 0.985 . S
C606 C600 1.379 . S
C606 C603 1.363 . S
C606 N604 1.356 . S
C607 C601 1.363 . S
C607 C602 1.379 . S
C607 N605 1.356 . S
N608 C600 1.356 . S
N608 H614 0.984 . S
N608 H615 0.984 . S
N609 C602 1.356 . S
N609 H612 0.984 . S
N609 H613 0.985 . S
H610 N605 0.984 . S
H611 N605 0.985 . S
H612 N609 0.984 . S
H613 N609 0.985 . S
H614 N608 0.984 . S
H615 N608 0.984 . S
H616 N604 0.984 . S
H617 N604 0.985 . S
C618 C619 1.363 . S
C618 C624 1.379 . S
C618 N626 1.356 . S
C619 C618 1.363 . S
C619 C625 1.363 . S
C620 C621 1.363 . S
C620 C625 1.379 . S
C620 N627 1.356 . S
C621 C620 1.363 . S
C621 C624 1.363 . S
N622 C624 1.356 . S
N622 H634 0.984 . S
N622 H635 0.985 . S
N623 C625 1.356 . S
N623 H628 0.984 . S
N623 H629 0.985 . S
C624 C618 1.379 . S
C624 C621 1.363 . S
C624 N622 1.356 . S
C625 C619 1.363 . S
C625 C620 1.379 . S
C625 N623 1.356 . S
N626 C618 1.356 . S
N626 H632 0.984 . S
N626 H633 0.984 . S
N627 C620 1.356 . S
N627 H630 0.984 . S
N627 H631 0.985 . S
H628 N623 0.984 . S
H629 N623 0.985 . S
H630 N627 0.984 . S
H631 N627 0.985 . S
H632 N626 0.984 . S
H633 N626 0.984 . S
H634 N622 0.984 . S
H635 N622 0.985 . S
C636 C637 1.363 . S
C636 C642 1.379 . S
C636 N644 1.356 . S
C637 C636 1.363 . S
C637 C643 1.363 . S
C638 C639 1.363 . S
C638 C643 1.379 . S
C638 N645 1.356 . S
C639 C638 1.363 . S
C639 C642 1.363 . S
N640 C642 1.356 . S
N640 H652 0.984 . S
N640 H653 0.985 . S
N641 C643 1.356 . S
N641 H646 0.984 . S
N641 H647 0.985 . S
C642 C636 1.379 . S
C642 C639 1.363 . S
C642 N640 1.356 . S
C643 C637 1.363 . S
C643 C638 1.379 . S
C643 N641 1.356 . S
N644 C636 1.356 . S
N644 H650 0.984 . S
N644 H651 0.984 . S
N645 C638 1.356 . S
N645 H648 0.984 . S
N645 H649 0.985 . S
H646 N641 0.984 . S
H647 N641 0.985 . S
H648 N645 0.984 . S
H649 N645 0.985 . S
H650 N644 0.984 . S
H651 N644 0.984 . S
H652 N640 0.984 . S
H653 N640 0.985 . S
C654 C655 1.363 . S
C654 C660 1.379 . S
C654 N662 1.356 . S
C655 C654 1.363 . S
C655 C661 1.363 . S
C656 C657 1.363 . S
C656 C661 1.379 . S
C656 N663 1.356 . S
C657 C656 1.363 . S
C657 C660 1.363 . S
N658 C660 1.356 . S
N658 H670 0.984 . S
N658 H671 0.985 . S
N659 C661 1.356 . S
N659 H664 0.984 . S
N659 H665 0.985 . S
C660 C654 1.379 . S
C660 C657 1.363 . S
C660 N658 1.356 . S
C661 C655 1.363 . S
C661 C656 1.379 . S
C661 N659 1.356 . S
N662 C654 1.356 . S
N662 H668 0.984 . S
N662 H669 0.984 . S
N663 C656 1.356 . S
N663 H666 0.984 . S
N663 H667 0.985 . S
H664 N659 0.984 . S
H665 N659 0.985 . S
H666 N663 0.984 . S
H667 N663 0.985 . S
H668 N662 0.984 . S
H669 N662 0.984 . S
H670 N658 0.984 . S
H671 N658 0.985 . S
C672 C673 1.363 . S
C672 C678 1.379 . S
C672 N680 1.356 . S
C673 C672 1.363 . S
C673 C679 1.363 . S
C674 C675 1.363 . S
C674 C679 1.379 . S
C674 N681 1.356 . S
C675 C674 1.363 . S
C675 C678 1.363 . S
N676 C678 1.356 . S
N676 H688 0.984 . S
N676 H689 0.985 . S
N677 C679 1.356 . S
N677 H682 0.984 . S
N677 H683 0.985 . S
C678 C672 1.379 . S
C678 C675 1.363 . S
C678 N676 1.356 . S
C679 C673 1.363 . S
C679 C674 1.379 . S
C679 N677 1.356 . S
N680 C672 1.356 . S
N680 H686 0.984 . S
N680 H687 0.984 . S
N681 C674 1.356 . S
N681 H684 0.984 . S
N681 H685 0.985 . S
H682 N677 0.984 . S
H683 N677 0.985 . S
H684 N681 0.984 . S
H685 N681 0.985 . S
H686 N680 0.984 . S
H687 N680 0.984 . S
H688 N676 0.984 . S
H689 N676 0.985 . S
C690 C691 1.363 . S
C690 C696 1.379 . S
C690 N698 1.356 . S
C691 C690 1.363 . S
C691 C697 1.363 . S
C692 C693 1.363 . S
C692 C697 1.379 . S
C692 N699 1.356 1_554 S
C693 C692 1.363 . S
C693 C696 1.363 . S
N694 C696 1.356 . S
N694 H706 0.984 . S
N694 H707 0.985 . S
N695 C697 1.356 1_556 S
N695 H700 0.984 1_556 S
N695 H701 0.985 . S
C696 C690 1.379 . S
C696 C693 1.363 . S
C696 N694 1.356 . S
C697 C691 1.363 . S
C697 C692 1.379 . S
C697 N695 1.356 1_554 S
N698 C690 1.356 . S
N698 H704 0.984 . S
N698 H705 0.984 . S
N699 C692 1.356 1_556 S
N699 H702 0.984 1_556 S
N699 H703 0.985 . S
H700 N695 0.984 1_554 S
H701 N695 0.985 . S
H702 N699 0.984 1_554 S
H703 N699 0.985 . S
H704 N698 0.984 . S
H705 N698 0.984 . S
H706 N694 0.984 . S
H707 N694 0.985 . S
C708 C709 1.363 . S
C708 C714 1.379 . S
C708 N716 1.356 . S
C709 C708 1.363 . S
C709 C715 1.363 . S
C710 C711 1.363 . S
C710 C715 1.379 . S
C710 N717 1.356 . S
C711 C710 1.363 . S
C711 C714 1.363 . S
N712 C714 1.356 . S
N712 H724 0.984 . S
N712 H725 0.985 . S
N713 C715 1.356 . S
N713 H718 0.984 . S
N713 H719 0.985 . S
C714 C708 1.379 . S
C714 C711 1.363 . S
C714 N712 1.356 . S
C715 C709 1.363 . S
C715 C710 1.379 . S
C715 N713 1.356 . S
N716 C708 1.356 . S
N716 H722 0.984 . S
N716 H723 0.984 . S
N717 C710 1.356 . S
N717 H720 0.984 . S
N717 H721 0.985 . S
H718 N713 0.984 . S
H719 N713 0.985 . S
H720 N717 0.984 . S
H721 N717 0.985 . S
H722 N716 0.984 . S
H723 N716 0.984 . S
H724 N712 0.984 . S
H725 N712 0.985 . S
C726 C727 1.363 . S
C726 C732 1.379 . S
C726 N734 1.356 . S
C727 C726 1.363 . S
C727 C733 1.363 . S
C728 C729 1.363 . S
C728 C733 1.379 . S
C728 N735 1.356 . S
C729 C728 1.363 . S
C729 C732 1.363 . S
N730 C732 1.356 . S
N730 H742 0.984 . S
N730 H743 0.985 . S
N731 C733 1.356 . S
N731 H736 0.984 . S
N731 H737 0.985 . S
C732 C726 1.379 . S
C732 C729 1.363 . S
C732 N730 1.356 . S
C733 C727 1.363 . S
C733 C728 1.379 . S
C733 N731 1.356 . S
N734 C726 1.356 . S
N734 H740 0.984 . S
N734 H741 0.984 . S
N735 C728 1.356 . S
N735 H738 0.984 . S
N735 H739 0.985 . S
H736 N731 0.984 . S
H737 N731 0.985 . S
H738 N735 0.984 . S
H739 N735 0.985 . S
H740 N734 0.984 . S
H741 N734 0.984 . S
H742 N730 0.984 . S
H743 N730 0.985 . S
C744 C745 1.363 . S
C744 C750 1.379 . S
C744 N752 1.356 . S
C745 C744 1.363 . S
C745 C751 1.363 . S
C746 C747 1.363 . S
C746 C751 1.379 . S
C746 N753 1.356 . S
C747 C746 1.363 . S
C747 C750 1.363 . S
N748 C750 1.356 . S
N748 H760 0.984 . S
N748 H761 0.985 . S
N749 C751 1.356 . S
N749 H754 0.984 . S
N749 H755 0.985 . S
C750 C744 1.379 . S
C750 C747 1.363 . S
C750 N748 1.356 . S
C751 C745 1.363 . S
C751 C746 1.379 . S
C751 N749 1.356 . S
N752 C744 1.356 . S
N752 H758 0.984 . S
N752 H759 0.984 . S
N753 C746 1.356 . S
N753 H756 0.984 . S
N753 H757 0.985 . S
H754 N749 0.984 . S
H755 N749 0.985 . S
H756 N753 0.984 . S
H757 N753 0.985 . S
H758 N752 0.984 . S
H759 N752 0.984 . S
H760 N748 0.984 . S
H761 N748 0.985 . S
C762 C763 1.363 . S
C762 C768 1.379 . S
C762 N770 1.356 . S
C763 C762 1.363 . S
C763 C769 1.363 . S
C764 C765 1.363 . S
C764 C769 1.379 . S
C764 N771 1.356 . S
C765 C764 1.363 . S
C765 C768 1.363 . S
N766 C768 1.356 . S
N766 H778 0.984 . S
N766 H779 0.985 . S
N767 C769 1.356 . S
N767 H772 0.984 . S
N767 H773 0.985 . S
C768 C762 1.379 . S
C768 C765 1.363 . S
C768 N766 1.356 . S
C769 C763 1.363 . S
C769 C764 1.379 . S
C769 N767 1.356 . S
N770 C762 1.356 . S
N770 H776 0.984 . S
N770 H777 0.984 . S
N771 C764 1.356 . S
N771 H774 0.984 . S
N771 H775 0.985 . S
H772 N767 0.984 . S
H773 N767 0.985 . S
H774 N771 0.984 . S
H775 N771 0.985 . S
H776 N770 0.984 . S
H777 N770 0.984 . S
H778 N766 0.984 . S
H779 N766 0.985 . S
C780 C781 1.363 . S
C780 C786 1.379 . S
C780 N788 1.356 . S
C781 C780 1.363 . S
C781 C787 1.363 . S
C782 C783 1.363 . S
C782 C787 1.379 . S
C782 N789 1.356 . S
C783 C782 1.363 . S
C783 C786 1.363 . S
N784 C786 1.356 . S
N784 H796 0.984 . S
N784 H797 0.985 . S
N785 C787 1.356 . S
N785 H790 0.984 . S
N785 H791 0.985 . S
C786 C780 1.379 . S
C786 C783 1.363 . S
C786 N784 1.356 . S
C787 C781 1.363 . S
C787 C782 1.379 . S
C787 N785 1.356 . S
N788 C780 1.356 . S
N788 H794 0.984 . S
N788 H795 0.984 . S
N789 C782 1.356 . S
N789 H792 0.984 . S
N789 H793 0.985 . S
H790 N785 0.984 . S
H791 N785 0.985 . S
H792 N789 0.984 . S
H793 N789 0.985 . S
H794 N788 0.984 . S
H795 N788 0.984 . S
H796 N784 0.984 . S
H797 N784 0.985 . S
C798 C799 1.363 . S
C798 C804 1.379 . S
C798 N806 1.356 . S
C799 C798 1.363 . S
C799 C805 1.363 . S
C800 C801 1.363 . S
C800 C805 1.379 . S
C800 N807 1.356 . S
C801 C800 1.363 . S
C801 C804 1.363 . S
N802 C804 1.356 1_554 S
N802 H814 0.984 1_554 S
N802 H815 0.985 . S
N803 C805 1.356 . S
N803 H808 0.984 . S
N803 H809 0.985 . S
C804 C798 1.379 . S
C804 C801 1.363 . S
C804 N802 1.356 1_556 S
C805 C799 1.363 . S
C805 C800 1.379 . S
C805 N803 1.356 . S
N806 C798 1.356 . S
N806 H812 0.984 . S
N806 H813 0.984 . S
N807 C800 1.356 . S
N807 H810 0.984 1_556 S
N807 H811 0.985 . S
H808 N803 0.984 . S
H809 N803 0.985 . S
H810 N807 0.984 1_554 S
H811 N807 0.985 . S
H812 N806 0.984 . S
H813 N806 0.984 . S
H814 N802 0.984 1_556 S
H815 N802 0.985 . S
C816 C817 1.363 . S
C816 C822 1.379 . S
C816 N824 1.356 . S
C817 C816 1.363 . S
C817 C823 1.363 1_565 S
C818 C819 1.363 . S
C818 C823 1.379 1_565 S
C818 N825 1.356 . S
C819 C818 1.363 . S
C819 C822 1.363 . S
N820 C822 1.356 . S
N820 H832 0.984 . S
N820 H833 0.985 . S
N821 C823 1.356 . S
N821 H826 0.984 . S
N821 H827 0.985 . S
C822 C816 1.379 . S
C822 C819 1.363 . S
C822 N820 1.356 . S
C823 C817 1.363 1_545 S
C823 C818 1.379 1_545 S
C823 N821 1.356 . S
N824 C816 1.356 . S
N824 H830 0.984 . S
N824 H831 0.984 . S
N825 C818 1.356 . S
N825 H828 0.984 . S
N825 H829 0.985 1_565 S
H826 N821 0.984 . S
H827 N821 0.985 . S
H828 N825 0.984 . S
H829 N825 0.985 1_545 S
H830 N824 0.984 . S
H831 N824 0.984 . S
H832 N820 0.984 . S
H833 N820 0.985 . S
C834 C835 1.363 . S
C834 C840 1.379 . S
C834 N842 1.356 . S
C835 C834 1.363 . S
C835 C841 1.363 . S
C836 C837 1.363 . S
C836 C841 1.379 . S
C836 N843 1.356 . S
C837 C836 1.363 . S
C837 C840 1.363 . S
N838 C840 1.356 . S
N838 H850 0.984 . S
N838 H851 0.985 . S
N839 C841 1.356 . S
N839 H844 0.984 . S
N839 H845 0.985 . S
C840 C834 1.379 . S
C840 C837 1.363 . S
C840 N838 1.356 . S
C841 C835 1.363 . S
C841 C836 1.379 . S
C841 N839 1.356 . S
N842 C834 1.356 . S
N842 H848 0.984 . S
N842 H849 0.984 . S
N843 C836 1.356 . S
N843 H846 0.984 . S
N843 H847 0.985 . S
H844 N839 0.984 . S
H845 N839 0.985 . S
H846 N843 0.984 . S
H847 N843 0.985 . S
H848 N842 0.984 . S
H849 N842 0.984 . S
H850 N838 0.984 . S
H851 N838 0.985 . S
C852 C853 1.363 . S
C852 C858 1.379 . S
C852 N860 1.356 . S
C853 C852 1.363 . S
C853 C859 1.363 . S
C854 C855 1.363 . S
C854 C859 1.379 . S
C854 N861 1.356 . S
C855 C854 1.363 . S
C855 C858 1.363 . S
N856 C858 1.356 . S
N856 H868 0.984 . S
N856 H869 0.985 . S
N857 C859 1.356 . S
N857 H862 0.984 . S
N857 H863 0.985 . S
C858 C852 1.379 . S
C858 C855 1.363 . S
C858 N856 1.356 . S
C859 C853 1.363 . S
C859 C854 1.379 . S
C859 N857 1.356 . S
N860 C852 1.356 . S
N860 H866 0.984 . S
N860 H867 0.984 . S
N861 C854 1.356 . S
N861 H864 0.984 . S
N861 H865 0.985 . S
H862 N857 0.984 . S
H863 N857 0.985 . S
H864 N861 0.984 . S
H865 N861 0.985 . S
H866 N860 0.984 . S
H867 N860 0.984 . S
H868 N856 0.984 . S
H869 N856 0.985 . S
C870 C871 1.363 . S
C870 C876 1.379 . S
C870 N878 1.356 . S
C871 C870 1.363 . S
C871 C877 1.363 . S
C872 C873 1.363 . S
C872 C877 1.379 . S
C872 N879 1.356 . S
C873 C872 1.363 . S
C873 C876 1.363 . S
N874 C876 1.356 . S
N874 H886 0.984 . S
N874 H887 0.985 . S
N875 C877 1.356 . S
N875 H880 0.984 . S
N875 H881 0.985 . S
C876 C870 1.379 . S
C876 C873 1.363 . S
C876 N874 1.356 . S
C877 C871 1.363 . S
C877 C872 1.379 . S
C877 N875 1.356 . S
N878 C870 1.356 . S
N878 H884 0.984 . S
N878 H885 0.984 . S
N879 C872 1.356 . S
N879 H882 0.984 . S
N879 H883 0.985 . S
H880 N875 0.984 . S
H881 N875 0.985 . S
H882 N879 0.984 . S
H883 N879 0.985 . S
H884 N878 0.984 . S
H885 N878 0.984 . S
H886 N874 0.984 . S
H887 N874 0.985 . S
C888 C889 1.363 . S
C888 C894 1.379 . S
C888 N896 1.356 . S
C889 C888 1.363 . S
C889 C895 1.363 . S
C890 C891 1.363 . S
C890 C895 1.379 . S
C890 N897 1.356 . S
C891 C890 1.363 . S
C891 C894 1.363 . S
N892 C894 1.356 . S
N892 H904 0.984 . S
N892 H905 0.985 . S
N893 C895 1.356 . S
N893 H898 0.984 . S
N893 H899 0.985 . S
C894 C888 1.379 . S
C894 C891 1.363 . S
C894 N892 1.356 . S
C895 C889 1.363 . S
C895 C890 1.379 . S
C895 N893 1.356 . S
N896 C888 1.356 . S
N896 H902 0.984 . S
N896 H903 0.984 . S
N897 C890 1.356 . S
N897 H900 0.984 . S
N897 H901 0.985 . S
H898 N893 0.984 . S
H899 N893 0.985 . S
H900 N897 0.984 . S
H901 N897 0.985 . S
H902 N896 0.984 . S
H903 N896 0.984 . S
H904 N892 0.984 . S
H905 N892 0.985 . S
C906 C907 1.363 . S
C906 C912 1.379 . S
C906 N914 1.356 . S
C907 C906 1.363 . S
C907 C913 1.363 . S
C908 C909 1.363 . S
C908 C913 1.379 . S
C908 N915 1.356 . S
C909 C908 1.363 . S
C909 C912 1.363 . S
N910 C912 1.356 . S
N910 H922 0.984 . S
N910 H923 0.985 . S
N911 C913 1.356 . S
N911 H916 0.984 . S
N911 H917 0.985 . S
C912 C906 1.379 . S
C912 C909 1.363 . S
C912 N910 1.356 . S
C913 C907 1.363 . S
C913 C908 1.379 . S
C913 N911 1.356 . S
N914 C906 1.356 . S
N914 H920 0.984 . S
N914 H921 0.984 . S
N915 C908 1.356 . S
N915 H918 0.984 . S
N915 H919 0.985 . S
H916 N911 0.984 . S
H917 N911 0.985 . S
H918 N915 0.984 . S
H919 N915 0.985 . S
H920 N914 0.984 . S
H921 N914 0.984 . S
H922 N910 0.984 . S
H923 N910 0.985 . S
C924 C925 1.380 . S
C924 C930 1.360 1_554 S
C924 N932 1.364 . S
C925 C924 1.380 . S
C925 C931 1.363 . S
C926 C927 1.363 . S
C926 C931 1.379 1_556 S
C926 N933 1.356 . S
C927 C926 1.363 . S
C927 C930 1.363 . S
N928 C930 1.356 . S
N928 H940 0.984 . S
N928 H941 0.985 . S
N929 C931 1.356 . S
N929 H934 0.984 . S
N929 H935 0.985 . S
C930 C924 1.360 1_556 S
C930 C927 1.363 . S
C930 N928 1.356 . S
C931 C925 1.363 . S
C931 C926 1.379 1_554 S
C931 N929 1.356 . S
N932 C924 1.364 . S
N932 H938 0.970 1_554 S
N932 H939 0.984 . S
N933 C926 1.356 . S
N933 H936 0.984 . S
N933 H937 0.985 . S
H934 N929 0.984 . S
H935 N929 0.985 . S
H936 N933 0.984 . S
H937 N933 0.985 . S
H938 N932 0.970 1_556 S
H939 N932 0.984 . S
H940 N928 0.984 . S
H941 N928 0.985 . S
C942 C943 1.363 . S
C942 C948 1.379 . S
C942 N950 1.356 . S
C943 C942 1.363 . S
C943 C949 1.363 . S
C944 C945 1.363 . S
C944 C949 1.379 . S
C944 N951 1.356 . S
C945 C944 1.363 . S
C945 C948 1.363 . S
N946 C948 1.356 . S
N946 H958 0.984 . S
N946 H959 0.985 . S
N947 C949 1.356 . S
N947 H952 0.984 . S
N947 H953 0.985 . S
C948 C942 1.379 . S
C948 C945 1.363 . S
C948 N946 1.356 . S
C949 C943 1.363 . S
C949 C944 1.379 . S
C949 N947 1.356 . S
N950 C942 1.356 . S
N950 H956 0.984 . S
N950 H957 0.984 . S
N951 C944 1.356 . S
N951 H954 0.984 . S
N951 H955 0.985 . S
H952 N947 0.984 . S
H953 N947 0.985 . S
H954 N951 0.984 . S
H955 N951 0.985 . S
H956 N950 0.984 . S
H957 N950 0.984 . S
H958 N946 0.984 . S
H959 N946 0.985 . S
C531 C521 1.557 . S
C529 C51 1.520 . S
C547 C125 1.496 . S
C549 C450 1.489 . S
C565 C217 2.504 . S
C567 C464 2.535 . S
C583 C291 1.616 . S
C585 C478 1.589 . S
C603 C492 1.169 . S
C601 C347 1.133 . S
C619 C421 1.286 . S
C621 C507 1.245 . S
C637 C143 2.172 . S
C639 C465 2.162 . S
C655 C199 1.569 . S
C657 C479 1.598 . S
C673 C273 0.947 . S
C675 C493 0.937 . S
C693 C506 1.726 . S
C691 C365 1.684 . S
C711 C520 1.781 . S
C709 C439 1.792 . S
C729 C451 2.502 . S
C727 C69 2.439 . S
C745 C63 1.546 . S
C747 C467 1.713 . S
C763 C137 1.877 . S
C765 C481 1.984 . S
C783 C495 1.512 . S
C781 C187 1.444 . S
C799 C261 1.805 . S
C801 C508 1.809 1_556 S
C819 C522 1.751 . S
C817 C359 1.517 1_565 S
C837 C453 1.625 . S
C835 C433 1.549 . S
C855 C523 1.905 . S
C853 C113 1.965 . S
C871 C211 1.421 . S
C873 C452 1.547 . S
C891 C466 2.025 . S
C889 C285 1.915 . S
C907 C335 1.450 . S
C909 C480 1.560 . S
C925 C409 1.689 . S
C927 C494 1.667 . S
C943 C39 1.624 . S
C945 C509 1.636 . S
