# Generated by pormake.
# Topology anh, (6,3)-cn, num edge types: 1
# Building blocks:
#     Node 0, Type 0, BuildingBlock: MIFKUJ_clean_sbu_0, # of connection points: 6
#     Node 1, Type 0, BuildingBlock: MIFKUJ_clean_sbu_0, # of connection points: 6
#     Node 2, Type 0, BuildingBlock: MIFKUJ_clean_sbu_0, # of connection points: 6
#     Node 3, Type 1, BuildingBlock: QEWDON_clean_linker_0, # of connection points: 3
#     Node 4, Type 1, BuildingBlock: QEWDON_clean_linker_0, # of connection points: 3
#     Node 5, Type 1, BuildingBlock: QEWDON_clean_linker_0, # of connection points: 3
#     Node 6, Type 1, BuildingBlock: QEWDON_clean_linker_0, # of connection points: 3
#     Node 7, Type 1, BuildingBlock: QEWDON_clean_linker_0, # of connection points: 3
#     Node 8, Type 1, BuildingBlock: QEWDON_clean_linker_0, # of connection points: 3
#     Edge 9, Type (0, 1), BuildingBlock: OJICUG_clean_linker_0, # of connection points: 2
#     Edge 10, Type (0, 1), BuildingBlock: OJICUG_clean_linker_0, # of connection points: 2
#     Edge 11, Type (0, 1), BuildingBlock: OJICUG_clean_linker_0, # of connection points: 2
#     Edge 12, Type (0, 1), BuildingBlock: OJICUG_clean_linker_0, # of connection points: 2
#     Edge 13, Type (0, 1), BuildingBlock: OJICUG_clean_linker_0, # of connection points: 2
#     Edge 14, Type (0, 1), BuildingBlock: OJICUG_clean_linker_0, # of connection points: 2
#     Edge 15, Type (0, 1), BuildingBlock: OJICUG_clean_linker_0, # of connection points: 2
#     Edge 16, Type (0, 1), BuildingBlock: OJICUG_clean_linker_0, # of connection points: 2
#     Edge 17, Type (0, 1), BuildingBlock: OJICUG_clean_linker_0, # of connection points: 2
#     Edge 18, Type (0, 1), BuildingBlock: OJICUG_clean_linker_0, # of connection points: 2
#     Edge 19, Type (0, 1), BuildingBlock: OJICUG_clean_linker_0, # of connection points: 2
#     Edge 20, Type (0, 1), BuildingBlock: OJICUG_clean_linker_0, # of connection points: 2
#     Edge 21, Type (0, 1), BuildingBlock: OJICUG_clean_linker_0, # of connection points: 2
#     Edge 22, Type (0, 1), BuildingBlock: OJICUG_clean_linker_0, # of connection points: 2
#     Edge 23, Type (0, 1), BuildingBlock: OJICUG_clean_linker_0, # of connection points: 2
#     Edge 24, Type (0, 1), BuildingBlock: OJICUG_clean_linker_0, # of connection points: 2
#     Edge 25, Type (0, 1), BuildingBlock: OJICUG_clean_linker_0, # of connection points: 2
#     Edge 26, Type (0, 1), BuildingBlock: OJICUG_clean_linker_0, # of connection points: 2
# Relax obj value: 0.062
# Max RMSD: 0.126
# Mean RMSD: 0.110
data_MOF--net-anh--node1-MIFKUJ_clean_sbu_0--node2-QEWDON_clean_linker_0--edge1-OJICUG_clean_linker_0
_symmetry_space_group_name_H-M    P1
_symmetry_Int_Tables_number       1
_symmetry_cell_setting            triclinic
loop_
_symmetry_equiv_pos_as_xyz
'x, y, z'
_cell_length_a     25.900592
_cell_length_b     25.708774
_cell_length_c     32.589581
_cell_angle_alpha  97.924652
_cell_angle_beta   94.566966
_cell_angle_gamma 120.39281
loop_
_atom_site_label
_atom_site_type_symbol
_atom_site_fract_x
_atom_site_fract_y
_atom_site_fract_z
_atom_type_partial_charge
Zn0 Zn 0.10362 0.59665 0.15785 0.0
Zn1 Zn 0.90856 0.48776 0.14509 0.0
C2 C 0.18017 0.54696 0.1721 0.0
O3 O 0.14572 0.52464 0.20025 0.0
C4 C 0.80015 0.49075 0.13677 0.0
O5 O 0.78158 0.43664 0.11322 0.0
O6 O 0.14113 0.68618 0.15774 0.0
O7 O 0.02466 0.54717 0.12005 0.0
O8 O 0.93206 0.49157 0.0867 0.0
C9 C 0.17597 0.71002 0.13173 0.0
O10 O 0.18278 0.67408 0.10278 0.0
O11 O 0.16719 0.57464 0.1475 0.0
C12 C 0.82957 0.38432 0.17817 0.0
O13 O 0.84909 0.42708 0.21255 0.0
O14 O 0.85446 0.39873 0.14619 0.0
O15 O 0.9817 0.52751 0.19287 0.0
O16 O 0.0814 0.58292 0.21465 0.0
O17 O 0.85607 0.52521 0.15355 0.0
C18 C -0.01159 0.52218 0.08544 0.0
C19 C 0.02755 0.55245 0.22239 0.0
Zn20 Zn 0.59224 0.13232 0.50528 0.0
Zn21 Zn 0.49538 0.944 0.491 0.0
C22 C 0.70162 0.23902 0.53165 0.0
O23 O 0.67026 0.23794 0.56165 0.0
C24 C 0.38323 0.82656 0.47587 0.0
O25 O 0.41556 0.80832 0.45641 0.0
O26 O 0.55622 0.18523 0.50952 0.0
O27 O 0.55018 0.07684 0.45004 0.0
O28 O 0.49546 0.97509 0.43732 0.0
C29 C 0.56573 0.21856 0.48226 0.0
O30 O 0.59561 0.21439 0.4525 0.0
O31 O 0.67969 0.19154 0.50251 0.0
C32 C 0.53984 0.86861 0.51242 0.0
O33 O 0.52583 0.8812 0.54884 0.0
O34 O 0.5354 0.89504 0.48338 0.0
O35 O 0.5296 -0.0014 0.54924 0.0
O36 O 0.58498 0.10044 0.55858 0.0
O37 O 0.40723 0.88325 0.49248 0.0
C38 C 0.51759 0.02554 0.42475 0.0
C39 C 0.56092 0.05163 0.57322 0.0
Zn40 Zn 0.60198 0.50629 0.83636 0.0
Zn41 Zn 0.49559 0.5745 0.82851 0.0
C42 C 0.58576 0.39513 0.85939 0.0
O43 O 0.62913 0.43579 0.89061 0.0
C44 C 0.53556 0.69605 0.8207 0.0
O45 O 0.51222 0.66525 0.78165 0.0
O46 O 0.69033 0.53657 0.84482 0.0
O47 O 0.58438 0.52142 0.77977 0.0
O48 O 0.52285 0.55749 0.77541 0.0
C49 C 0.70904 0.51082 0.8191 0.0
O50 O 0.67034 0.46786 0.78674 0.0
O51 O 0.5626 0.41392 0.83355 0.0
C52 C 0.36174 0.5168 0.82324 0.0
O53 O 0.36227 0.48399 0.85063 0.0
O54 O 0.41048 0.55234 0.8108 0.0
O55 O 0.49762 0.53254 0.87589 0.0
O56 O 0.59086 0.55022 0.8878 0.0
O57 O 0.53833 0.66719 0.84879 0.0
C58 C 0.5554 0.53967 0.75888 0.0
C59 C 0.54719 0.55322 0.90062 0.0
H60 H 0.51597 0.11099 0.24679 0.0
C61 C 0.47533 0.0686 0.23022 0.0
C62 C 0.44619 0.01978 0.25122 0.0
C63 C 0.45233 0.06246 0.18794 0.0
H64 H 0.36942 0.92837 0.24665 0.0
C65 C 0.39261 0.96583 0.23036 0.0
C66 C 0.36861 0.95925 0.18869 0.0
C67 C 0.39911 0.00696 0.16729 0.0
C68 C 0.48387 0.11328 0.16507 0.0
H69 H 0.38124 0.00055 0.13457 0.0
C70 C 0.54782 0.14987 0.17196 0.0
C71 C 0.5775 0.1966 0.14945 0.0
C72 C 0.45019 0.12496 0.1356 0.0
H73 H 0.40098 0.09883 0.13019 0.0
C74 C 0.47964 0.17108 0.11299 0.0
H75 H 0.57479 0.14134 0.19407 0.0
C76 C 0.54293 0.2066 0.11968 0.0
H77 H 0.56491 0.24282 0.10226 0.0
H78 H 0.45328 0.17961 0.09041 0.0
H79 H 0.5272 0.56871 0.56378 0.0
C80 C 0.53151 0.52999 0.55155 0.0
C81 C 0.54644 0.50139 0.57999 0.0
C82 C 0.52119 0.50814 0.50772 0.0
H83 H 0.55919 0.42626 0.58626 0.0
C84 C 0.54917 0.44953 0.56445 0.0
C85 C 0.53744 0.42605 0.5212 0.0
C86 C 0.52498 0.45628 0.49288 0.0
C87 C 0.50443 0.53822 0.47779 0.0
H88 H 0.51731 0.43865 0.45941 0.0
C89 C 0.52811 0.60205 0.48766 0.0
C90 C 0.50837 0.63022 0.46181 0.0
C91 C 0.46265 0.50323 0.44016 0.0
H92 H 0.44231 0.4538 0.43179 0.0
C93 C 0.44492 0.53148 0.41336 0.0
H94 H 0.56157 0.63011 0.51584 0.0
C95 C 0.46719 0.5945 0.42418 0.0
H96 H 0.45051 0.61473 0.40385 0.0
H97 H 0.41241 0.50406 0.38469 0.0
H98 H 0.10239 0.567 0.90284 0.0
C99 C 0.05903 0.56126 0.89149 0.0
C100 C 0.01834 0.55294 0.91959 0.0
C101 C 0.0429 0.56165 0.84901 0.0
H102 H 0.93181 0.54117 0.92791 0.0
C103 C 0.96302 0.54761 0.90602 0.0
C104 C 0.94635 0.54789 0.86434 0.0
C105 C 0.98549 0.55325 0.83585 0.0
C106 C 0.08416 0.56952 0.81767 0.0
H107 H 0.97066 0.55085 0.80328 0.0
C108 C 0.12501 0.54865 0.82065 0.0
C109 C 0.16159 0.55391 0.78975 0.0
C110 C 0.08172 0.59703 0.78355 0.0
H111 H 0.05355 0.61668 0.78089 0.0
C112 C 0.11563 0.59972 0.75201 0.0
H113 H 0.12893 0.52896 0.84712 0.0
C114 C 0.15465 0.57765 0.75469 0.0
H115 H 0.18027 0.58031 0.72955 0.0
H116 H 0.11209 0.61961 0.72551 0.0
H117 H 0.95841 0.52415 0.41648 0.0
C118 C 0.00601 0.55838 0.428 0.0
C119 C 0.04588 0.57933 0.39908 0.0
C120 C 0.0282 0.58171 0.4717 0.0
H121 H 0.13783 0.64222 0.39155 0.0
C122 C 0.10704 0.62489 0.41376 0.0
C123 C 0.12953 0.64828 0.45659 0.0
C124 C 0.09058 0.62647 0.48554 0.0
C125 C 0.98728 0.5605 0.50328 0.0
H126 H 0.10944 0.64373 0.5188 0.0
C127 C 0.93885 0.49868 0.49772 0.0
C128 C 0.90161 0.48 0.52852 0.0
C129 C -0.00257 0.60278 0.54003 0.0
H130 H 0.0329 0.65089 0.54498 0.0
C131 C 0.9618 0.58389 0.57096 0.0
H132 H 0.92993 0.46535 0.46968 0.0
C133 C 0.91447 0.52304 0.56542 0.0
H134 H 0.88763 0.50962 0.59014 0.0
H135 H 0.97069 0.61669 0.59929 0.0
H136 H 0.54858 0.00228 0.76507 0.0
C137 C 0.553 0.04553 0.77847 0.0
C138 C 0.5618 0.08754 0.75232 0.0
C139 C 0.54926 0.059 0.82132 0.0
H140 H 0.56899 0.17387 0.74843 0.0
C141 C 0.56405 0.14218 0.76874 0.0
C142 C 0.55968 0.15658 0.81086 0.0
C143 C 0.55433 0.11585 0.83726 0.0
C144 C 0.53717 0.01288 0.84879 0.0
H145 H 0.553 0.12837 0.87007 0.0
C146 C 0.55491 0.96901 0.84113 0.0
C147 C 0.53964 0.92335 0.86547 0.0
C148 C 0.50504 0.01065 0.88214 0.0
H149 H 0.48824 0.04129 0.88851 0.0
C150 C 0.49196 0.96724 0.90722 0.0
H151 H 0.5805 0.96996 0.81628 0.0
C152 C 0.50873 0.92378 0.89893 0.0
H153 H 0.49519 0.88892 0.91781 0.0
H154 H 0.46702 0.96615 0.93254 0.0
H155 H 0.51021 0.61108 0.09797 0.0
C156 C 0.5425 0.5985 0.1082 0.0
C157 C 0.57545 0.58838 0.07927 0.0
C158 C 0.55263 0.59415 0.15047 0.0
H159 H 0.64209 0.56319 0.07001 0.0
C160 C 0.61777 0.57292 0.09249 0.0
C161 C 0.62801 0.56775 0.13394 0.0
C162 C 0.59565 0.5784 0.16302 0.0
C163 C 0.51889 0.60644 0.18155 0.0
H164 H 0.60303 0.57302 0.19496 0.0
C165 C 0.45686 0.58634 0.17036 0.0
C166 C 0.4252 0.59709 0.20031 0.0
C167 C 0.54887 0.63855 0.22293 0.0
H168 H 0.59675 0.65589 0.23235 0.0
C169 C 0.5177 0.64951 0.25257 0.0
H170 H 0.43271 0.56093 0.13881 0.0
C171 C 0.45628 0.62877 0.24149 0.0
H172 H 0.43324 0.63835 0.265 0.0
H173 H 0.54133 0.67441 0.28426 0.0
C174 C 0.27941 0.57855 0.14699 0.0
C175 C 0.23954 0.55085 0.17486 0.0
H176 H 0.36957 0.61451 0.13304 0.0
C177 C 0.25964 0.53291 0.2085 0.0
H178 H 0.26538 0.59292 0.12074 0.0
C179 C 0.31923 0.54582 0.21569 0.0
C180 C 0.35999 0.5763 0.18914 0.0
H181 H 0.23023 0.51132 0.23054 0.0
H182 H 0.334 0.53341 0.24276 0.0
C183 C 0.33902 0.59085 0.15395 0.0
C184 C 0.74652 0.35051 0.53639 0.0
C185 C 0.75164 0.29872 0.52642 0.0
H186 H 0.78882 0.44771 0.54284 0.0
C187 C 0.80376 0.30529 0.51175 0.0
H188 H 0.70577 0.34625 0.54623 0.0
C189 C 0.85224 0.36415 0.51034 0.0
C190 C 0.84834 0.41651 0.523 0.0
H191 H 0.80797 0.26554 0.50315 0.0
H192 H 0.89351 0.36896 0.50123 0.0
C193 C 0.79398 0.40854 0.5343 0.0
C194 C 0.53792 0.78779 0.80082 0.0
C195 C 0.54791 0.75975 0.83217 0.0
H196 H 0.5272 0.8609 0.78663 0.0
C197 C 0.56337 0.79051 0.87443 0.0
H198 H 0.52624 0.76563 0.76789 0.0
C199 C 0.56463 0.84589 0.88519 0.0
C200 C 0.55021 0.87161 0.85395 0.0
H201 H 0.57188 0.77053 0.89935 0.0
H202 H 0.57475 0.86738 0.91815 0.0
C203 C 0.53893 0.84291 0.81156 0.0
C204 C 0.77493 0.57216 0.15864 0.0
C205 C 0.75588 0.51032 0.14267 0.0
H206 H 0.74819 0.63904 0.16896 0.0
C207 C 0.6933 0.46676 0.13015 0.0
H208 H 0.82277 0.60671 0.16863 0.0
C209 C 0.65103 0.48511 0.13103 0.0
C210 C 0.67034 0.54729 0.14458 0.0
H211 H 0.67695 0.41861 0.11819 0.0
H212 H 0.60347 0.45125 0.11884 0.0
C213 C 0.73238 0.59059 0.15928 0.0
C214 C 0.27793 0.80054 0.48466 0.0
C215 C 0.31911 0.78146 0.47695 0.0
H216 H 0.18427 0.77217 0.48447 0.0
C217 C 0.29791 0.71818 0.46797 0.0
H218 H 0.29307 0.84905 0.49156 0.0
C219 C 0.23627 0.67473 0.46445 0.0
C220 C 0.19483 0.69376 0.46993 0.0
H221 H 0.32867 0.70212 0.46241 0.0
H222 H 0.22046 0.62617 0.45552 0.0
C223 C 0.21597 0.75682 0.48095 0.0
C224 C 0.53254 0.28902 0.81358 0.0
C225 C 0.57226 0.33073 0.85029 0.0
H226 H 0.49678 0.20117 0.77282 0.0
C227 C 0.60355 0.31217 0.87612 0.0
H228 H 0.50746 0.30149 0.79304 0.0
C229 C 0.59765 0.2546 0.86437 0.0
C230 C 0.56049 0.21439 0.82646 0.0
H231 H 0.63449 0.34305 0.90469 0.0
H232 H 0.62431 0.2428 0.884 0.0
C233 C 0.52675 0.23163 0.80183 0.0
C234 C 0.5354 0.77556 0.53078 0.0
C235 C 0.5441 0.81336 0.50156 0.0
H236 H 0.51626 0.6877 0.54089 0.0
C237 C 0.54802 0.79326 0.46017 0.0
H238 H 0.5321 0.78961 0.56288 0.0
C239 C 0.53905 0.73469 0.44753 0.0
C240 C 0.52636 0.69533 0.4761 0.0
H241 H 0.55501 0.82147 0.43692 0.0
H242 H 0.54025 0.71953 0.4151 0.0
C243 C 0.52645 0.71709 0.51815 0.0
C244 C 0.79069 0.49032 0.80299 0.0
C245 C 0.77162 0.52399 0.82832 0.0
H246 H 0.86113 0.47121 0.79479 0.0
C247 C 0.8117 0.56783 0.86418 0.0
H248 H 0.76074 0.45609 0.77522 0.0
C249 C 0.86895 0.57641 0.87527 0.0
C250 C 0.8873 0.54146 0.85069 0.0
H251 H 0.79846 0.5947 0.88424 0.0
H252 H 0.89872 0.61002 0.90335 0.0
C253 C 0.84814 0.49904 0.81408 0.0
C254 C 0.21512 0.81497 0.1744 0.0
C255 C 0.2176 0.77753 0.13985 0.0
H256 H 0.26139 0.90284 0.21665 0.0
C257 C 0.26524 0.80413 0.11696 0.0
H258 H 0.17863 0.79617 0.19237 0.0
C259 C 0.31259 0.86548 0.13091 0.0
C260 C 0.31279 0.90077 0.16787 0.0
H261 H 0.26809 0.77659 0.08995 0.0
H262 H 0.35104 0.88379 0.11462 0.0
C263 C 0.26243 0.876 0.18836 0.0
C264 C 0.51535 0.26879 0.5172 0.0
C265 C 0.55126 0.26731 0.48757 0.0
H266 H 0.48162 0.31985 0.55018 0.0
C267 C 0.57727 0.31552 0.46562 0.0
H268 H 0.49412 0.23194 0.53421 0.0
C269 C 0.57054 0.36621 0.47506 0.0
C270 C 0.53756 0.36919 0.50647 0.0
H271 H 0.60517 0.31555 0.44256 0.0
H272 H 0.59356 0.40429 0.45933 0.0
C273 C 0.50838 0.31915 0.52642 0.0
C274 C 0.2518 0.48229 0.82326 0.0
C275 C 0.30775 0.52068 0.81134 0.0
H276 H 0.16066 0.46111 0.82466 0.0
C277 C 0.31367 0.56692 0.79015 0.0
H278 H 0.24583 0.44606 0.83946 0.0
C279 C 0.26593 0.57654 0.78269 0.0
C280 C 0.21019 0.53939 0.79535 0.0
H281 H 0.35618 0.59767 0.78066 0.0
H282 H 0.27388 0.61493 0.76834 0.0
C283 C 0.20325 0.49132 0.81509 0.0
C284 C 0.73748 0.31325 0.20622 0.0
C285 C 0.76914 0.32745 0.17237 0.0
H286 H 0.65145 0.25999 0.22534 0.0
C287 C 0.7388 0.29241 0.13162 0.0
H288 H 0.75959 0.3393 0.23797 0.0
C289 C 0.6769 0.24788 0.1244 0.0
C290 C 0.64445 0.23668 0.15786 0.0
H291 H 0.76182 0.30193 0.1048 0.0
H292 H 0.65387 0.22369 0.09245 0.0
C293 C 0.67564 0.26795 0.19903 0.0
C294 C 0.04842 0.58867 0.03734 0.0
C295 C 0.00959 0.52968 0.04493 0.0
H296 H 0.08281 0.64257 0.99026 0.0
C297 C 0.98454 0.47818 0.01183 0.0
H298 H 0.06711 0.62902 0.06238 0.0
C299 C -0.00537 0.48577 0.97109 0.0
C300 C 0.02897 0.54503 0.96273 0.0
H301 H 0.95444 0.43233 0.0171 0.0
H302 H 0.97109 0.44573 0.94549 0.0
C303 C 0.05768 0.59639 0.99627 0.0
C304 C 0.50195 0.07588 0.36866 0.0
C305 C 0.50279 0.02541 0.38005 0.0
H306 H 0.48314 0.11359 0.31885 0.0
C307 C 0.48868 0.97498 0.34849 0.0
H308 H 0.51191 0.11509 0.39241 0.0
C309 C 0.47291 0.97453 0.3064 0.0
C310 C 0.47019 0.02413 0.29515 0.0
H311 H 0.48974 0.93589 0.35633 0.0
H312 H 0.46186 0.93487 0.28262 0.0
C313 C 0.48573 0.07522 0.32659 0.0
C314 C 0.60198 0.53015 0.69619 0.0
C315 C 0.55804 0.53819 0.71367 0.0
H316 H 0.63415 0.51467 0.64013 0.0
C317 C 0.51504 0.54211 0.68721 0.0
H318 H 0.63651 0.52825 0.71584 0.0
C319 C 0.51338 0.53377 0.64376 0.0
C320 C 0.55497 0.52183 0.62608 0.0
H321 H 0.48086 0.54878 0.6998 0.0
H322 H 0.47748 0.53327 0.6239 0.0
C323 C 0.60068 0.52245 0.65287 0.0
C324 C 0.60859 0.11434 0.64635 0.0
C325 C 0.56633 0.05749 0.61955 0.0
H326 H 0.64155 0.16757 0.7092 0.0
C327 C 0.52682 0.00812 0.63745 0.0
H328 H 0.6404 0.15306 0.63378 0.0
C329 C 0.52701 0.01674 0.68093 0.0
C330 C 0.56695 0.07477 0.70731 0.0
H331 H 0.49385 0.96361 0.61772 0.0
H332 H 0.49391 0.97886 0.69351 0.0
C333 C 0.60911 0.12273 0.68963 0.0
C334 C 0.50024 0.54527 0.96578 0.0
C335 C 0.55171 0.5712 0.94628 0.0
H336 H 0.46749 0.53069 0.0242 0.0
C337 C 0.60925 0.61139 0.97123 0.0
H338 H 0.45528 0.51446 0.94716 0.0
C339 C 0.61598 0.62154 0.01488 0.0
C340 C 0.56543 0.59097 0.03449 0.0
H341 H 0.64951 0.63308 0.95697 0.0
H342 H 0.66133 0.65039 0.03335 0.0
C343 C 0.50712 0.55488 0.00976 0.0
C344 C 0.05872 0.53174 0.28876 0.0
C345 C 0.01988 0.54443 0.26573 0.0
H346 H 0.09464 0.52968 0.34934 0.0
C347 C 0.98001 0.55653 0.28599 0.0
H348 H 0.08928 0.52152 0.27366 0.0
C349 C 0.98376 0.56222 0.32978 0.0
C350 C 0.02671 0.55481 0.3532 0.0
H351 H 0.94962 0.56638 0.26863 0.0
H352 H 0.95682 0.57715 0.34558 0.0
C353 C 0.0615 0.53605 0.33195 0.0
loop_
_geom_bond_atom_site_label_1
_geom_bond_atom_site_label_2
_geom_bond_distance
_geom_bond_site_symmetry_2
_ccdc_geom_bond_type
Zn0 O6 1.969 . S
Zn0 O7 1.965 . S
Zn0 O11 2.024 . S
Zn0 O16 1.969 . S
Zn1 O8 1.969 . S
Zn1 O14 1.969 . S
Zn1 O15 1.965 . S
Zn1 O17 2.024 . S
C2 O3 1.229 . S
C2 O11 1.058 . S
O3 C2 1.229 . S
C4 O5 1.229 . S
C4 O17 1.058 . S
O5 C4 1.229 . S
O6 Zn0 1.969 . S
O6 C9 1.267 . S
O7 Zn0 1.965 . S
O7 C18 1.260 . S
O8 Zn1 1.969 . S
O8 C18 1.258 1_655 S
C9 O6 1.267 . S
C9 O10 1.228 . S
O10 C9 1.228 . S
O11 Zn0 2.024 . S
O11 C2 1.058 . S
C12 O13 1.228 . S
C12 O14 1.267 . S
O13 C12 1.228 . S
O14 Zn1 1.969 . S
O14 C12 1.267 . S
O15 Zn1 1.965 . S
O15 C19 1.260 1_655 S
O16 Zn0 1.969 . S
O16 C19 1.258 . S
O17 Zn1 2.024 . S
O17 C4 1.058 . S
C18 O7 1.260 . S
C18 O8 1.258 1_455 S
C19 O15 1.260 1_455 S
C19 O16 1.258 . S
Zn20 O26 1.969 . S
Zn20 O27 1.965 . S
Zn20 O31 2.024 . S
Zn20 O36 1.969 . S
Zn21 O28 1.969 . S
Zn21 O34 1.969 . S
Zn21 O35 1.965 1_565 S
Zn21 O37 2.024 . S
C22 O23 1.229 . S
C22 O31 1.058 . S
O23 C22 1.229 . S
C24 O25 1.229 . S
C24 O37 1.058 . S
O25 C24 1.229 . S
O26 Zn20 1.969 . S
O26 C29 1.267 . S
O27 Zn20 1.965 . S
O27 C38 1.260 . S
O28 Zn21 1.969 . S
O28 C38 1.258 1_565 S
C29 O26 1.267 . S
C29 O30 1.228 . S
O30 C29 1.228 . S
O31 Zn20 2.024 . S
O31 C22 1.058 . S
C32 O33 1.228 . S
C32 O34 1.267 . S
O33 C32 1.228 . S
O34 Zn21 1.969 . S
O34 C32 1.267 . S
O35 Zn21 1.965 1_545 S
O35 C39 1.260 . S
O36 Zn20 1.969 . S
O36 C39 1.258 . S
O37 Zn21 2.024 . S
O37 C24 1.058 . S
C38 O27 1.260 . S
C38 O28 1.258 1_545 S
C39 O35 1.260 . S
C39 O36 1.258 . S
Zn40 O46 1.969 . S
Zn40 O47 1.965 . S
Zn40 O51 2.024 . S
Zn40 O56 1.969 . S
Zn41 O48 1.969 . S
Zn41 O54 1.969 . S
Zn41 O55 1.965 . S
Zn41 O57 2.024 . S
C42 O43 1.229 . S
C42 O51 1.058 . S
O43 C42 1.229 . S
C44 O45 1.229 . S
C44 O57 1.058 . S
O45 C44 1.229 . S
O46 Zn40 1.969 . S
O46 C49 1.267 . S
O47 Zn40 1.965 . S
O47 C58 1.260 . S
O48 Zn41 1.969 . S
O48 C58 1.258 . S
C49 O46 1.267 . S
C49 O50 1.228 . S
O50 C49 1.228 . S
O51 Zn40 2.024 . S
O51 C42 1.058 . S
C52 O53 1.228 . S
C52 O54 1.267 . S
O53 C52 1.228 . S
O54 Zn41 1.969 . S
O54 C52 1.267 . S
O55 Zn41 1.965 . S
O55 C59 1.260 . S
O56 Zn40 1.969 . S
O56 C59 1.258 . S
O57 Zn41 2.024 . S
O57 C44 1.058 . S
C58 O47 1.260 . S
C58 O48 1.258 . S
C59 O55 1.260 . S
C59 O56 1.258 . S
H60 C61 0.949 . S
C61 H60 0.949 . S
C61 C62 1.395 . S
C61 C63 1.391 . S
C62 C61 1.395 . S
C62 C65 1.390 1_545 S
C63 C61 1.391 . S
C63 C67 1.387 . S
C63 C68 1.491 . S
H64 C65 0.950 . S
C65 C62 1.390 1_565 S
C65 H64 0.950 . S
C65 C66 1.378 . S
C66 C65 1.378 . S
C66 C67 1.409 1_565 S
C67 C63 1.387 . S
C67 C66 1.409 1_545 S
C67 H69 0.951 . S
C68 C63 1.491 . S
C68 C70 1.382 . S
C68 C72 1.404 . S
H69 C67 0.951 . S
C70 C68 1.382 . S
C70 C71 1.390 . S
C70 H75 0.949 . S
C71 C70 1.390 . S
C71 C76 1.399 . S
C72 C68 1.404 . S
C72 H73 0.950 . S
C72 C74 1.375 . S
H73 C72 0.950 . S
C74 C72 1.375 . S
C74 C76 1.382 . S
C74 H78 0.950 . S
H75 C70 0.949 . S
C76 C71 1.399 . S
C76 C74 1.382 . S
C76 H77 0.952 . S
H77 C76 0.952 . S
H78 C74 0.950 . S
H79 C80 0.949 . S
C80 H79 0.949 . S
C80 C81 1.395 . S
C80 C82 1.391 . S
C81 C80 1.395 . S
C81 C84 1.390 . S
C82 C80 1.391 . S
C82 C86 1.387 . S
C82 C87 1.491 . S
H83 C84 0.950 . S
C84 C81 1.390 . S
C84 H83 0.950 . S
C84 C85 1.378 . S
C85 C84 1.378 . S
C85 C86 1.409 . S
C86 C82 1.387 . S
C86 C85 1.409 . S
C86 H88 0.951 . S
C87 C82 1.491 . S
C87 C89 1.382 . S
C87 C91 1.404 . S
H88 C86 0.951 . S
C89 C87 1.382 . S
C89 C90 1.390 . S
C89 H94 0.949 . S
C90 C89 1.390 . S
C90 C95 1.399 . S
C91 C87 1.404 . S
C91 H92 0.950 . S
C91 C93 1.375 . S
H92 C91 0.950 . S
C93 C91 1.375 . S
C93 C95 1.382 . S
C93 H97 0.950 . S
H94 C89 0.949 . S
C95 C90 1.399 . S
C95 C93 1.382 . S
C95 H96 0.952 . S
H96 C95 0.952 . S
H97 C93 0.950 . S
H98 C99 0.949 . S
C99 H98 0.949 . S
C99 C100 1.395 . S
C99 C101 1.391 . S
C100 C99 1.395 . S
C100 C103 1.390 1_455 S
C101 C99 1.391 . S
C101 C105 1.387 . S
C101 C106 1.491 . S
H102 C103 0.950 . S
C103 C100 1.390 1_655 S
C103 H102 0.950 . S
C103 C104 1.378 . S
C104 C103 1.378 . S
C104 C105 1.409 1_655 S
C105 C101 1.387 . S
C105 C104 1.409 1_455 S
C105 H107 0.951 1_455 S
C106 C101 1.491 . S
C106 C108 1.382 . S
C106 C110 1.404 . S
H107 C105 0.951 1_655 S
C108 C106 1.382 . S
C108 C109 1.390 . S
C108 H113 0.949 . S
C109 C108 1.390 . S
C109 C114 1.399 . S
C110 C106 1.404 . S
C110 H111 0.950 . S
C110 C112 1.375 . S
H111 C110 0.950 . S
C112 C110 1.375 . S
C112 C114 1.382 . S
C112 H116 0.950 . S
H113 C108 0.949 . S
C114 C109 1.399 . S
C114 C112 1.382 . S
C114 H115 0.952 . S
H115 C114 0.952 . S
H116 C112 0.950 . S
H117 C118 0.949 1_655 S
C118 H117 0.949 1_455 S
C118 C119 1.395 . S
C118 C120 1.391 . S
C119 C118 1.395 . S
C119 C122 1.390 . S
C120 C118 1.391 . S
C120 C124 1.387 . S
C120 C125 1.491 1_455 S
H121 C122 0.950 . S
C122 C119 1.390 . S
C122 H121 0.950 . S
C122 C123 1.378 . S
C123 C122 1.378 . S
C123 C124 1.409 . S
C124 C120 1.387 . S
C124 C123 1.409 . S
C124 H126 0.951 . S
C125 C120 1.491 1_655 S
C125 C127 1.382 . S
C125 C129 1.404 . S
H126 C124 0.951 . S
C127 C125 1.382 . S
C127 C128 1.390 . S
C127 H132 0.949 . S
C128 C127 1.390 . S
C128 C133 1.399 . S
C129 C125 1.404 . S
C129 H130 0.951 . S
C129 C131 1.375 . S
H130 C129 0.951 . S
C131 C129 1.375 . S
C131 C133 1.382 . S
C131 H135 0.950 . S
H132 C127 0.949 . S
C133 C128 1.399 . S
C133 C131 1.382 . S
C133 H134 0.952 . S
H134 C133 0.952 . S
H135 C131 0.950 . S
H136 C137 0.949 1_565 S
C137 H136 0.949 1_545 S
C137 C138 1.395 . S
C137 C139 1.391 . S
C138 C137 1.395 . S
C138 C141 1.390 . S
C139 C137 1.391 . S
C139 C143 1.387 . S
C139 C144 1.491 1_545 S
H140 C141 0.950 . S
C141 C138 1.390 . S
C141 H140 0.950 . S
C141 C142 1.378 . S
C142 C141 1.378 . S
C142 C143 1.409 . S
C143 C139 1.387 . S
C143 C142 1.409 . S
C143 H145 0.951 . S
C144 C139 1.491 1_565 S
C144 C146 1.382 . S
C144 C148 1.404 . S
H145 C143 0.951 . S
C146 C144 1.382 . S
C146 C147 1.390 . S
C146 H151 0.949 . S
C147 C146 1.390 . S
C147 C152 1.399 . S
C148 C144 1.404 . S
C148 H149 0.950 1_565 S
C148 C150 1.375 . S
H149 C148 0.950 1_545 S
C150 C148 1.375 . S
C150 C152 1.382 . S
C150 H154 0.950 . S
H151 C146 0.949 . S
C152 C147 1.399 . S
C152 C150 1.382 . S
C152 H153 0.952 . S
H153 C152 0.952 . S
H154 C150 0.950 . S
H155 C156 0.949 . S
C156 H155 0.949 . S
C156 C157 1.395 . S
C156 C158 1.391 . S
C157 C156 1.395 . S
C157 C160 1.390 . S
C158 C156 1.391 . S
C158 C162 1.387 . S
C158 C163 1.491 . S
H159 C160 0.950 . S
C160 C157 1.390 . S
C160 H159 0.950 . S
C160 C161 1.378 . S
C161 C160 1.378 . S
C161 C162 1.409 . S
C162 C158 1.387 . S
C162 C161 1.409 . S
C162 H164 0.951 . S
C163 C158 1.491 . S
C163 C165 1.382 . S
C163 C167 1.404 . S
H164 C162 0.951 . S
C165 C163 1.382 . S
C165 C166 1.390 . S
C165 H170 0.949 . S
C166 C165 1.390 . S
C166 C171 1.399 . S
C167 C163 1.404 . S
C167 H168 0.950 . S
C167 C169 1.375 . S
H168 C167 0.950 . S
C169 C167 1.375 . S
C169 C171 1.382 . S
C169 H173 0.950 . S
H170 C165 0.949 . S
C171 C166 1.399 . S
C171 C169 1.382 . S
C171 H172 0.952 . S
H172 C171 0.952 . S
H173 C169 0.950 . S
C174 C175 1.387 . S
C174 H178 0.950 . S
C174 C183 1.390 . S
C175 C174 1.387 . S
C175 C177 1.387 . S
H176 C183 0.950 . S
C177 C175 1.387 . S
C177 C179 1.390 . S
C177 H181 0.950 . S
H178 C174 0.950 . S
C179 C177 1.390 . S
C179 C180 1.387 . S
C179 H182 0.950 . S
C180 C179 1.387 . S
C180 C183 1.387 . S
H181 C177 0.950 . S
H182 C179 0.950 . S
C183 C174 1.390 . S
C183 H176 0.950 . S
C183 C180 1.387 . S
C184 C185 1.387 . S
C184 H188 0.950 . S
C184 C193 1.390 . S
C185 C184 1.387 . S
C185 C187 1.387 . S
H186 C193 0.950 . S
C187 C185 1.387 . S
C187 C189 1.390 . S
C187 H191 0.950 . S
H188 C184 0.950 . S
C189 C187 1.390 . S
C189 C190 1.387 . S
C189 H192 0.950 . S
C190 C189 1.387 . S
C190 C193 1.387 . S
H191 C187 0.950 . S
H192 C189 0.950 . S
C193 C184 1.390 . S
C193 H186 0.950 . S
C193 C190 1.387 . S
C194 C195 1.387 . S
C194 H198 0.950 . S
C194 C203 1.390 . S
C195 C194 1.387 . S
C195 C197 1.387 . S
H196 C203 0.950 . S
C197 C195 1.387 . S
C197 C199 1.390 . S
C197 H201 0.950 . S
H198 C194 0.950 . S
C199 C197 1.390 . S
C199 C200 1.387 . S
C199 H202 0.950 . S
C200 C199 1.387 . S
C200 C203 1.387 . S
H201 C197 0.950 . S
H202 C199 0.950 . S
C203 C194 1.390 . S
C203 H196 0.950 . S
C203 C200 1.387 . S
C204 C205 1.387 . S
C204 H208 0.950 . S
C204 C213 1.390 . S
C205 C204 1.387 . S
C205 C207 1.387 . S
H206 C213 0.950 . S
C207 C205 1.387 . S
C207 C209 1.390 . S
C207 H211 0.950 . S
H208 C204 0.950 . S
C209 C207 1.390 . S
C209 C210 1.387 . S
C209 H212 0.950 . S
C210 C209 1.387 . S
C210 C213 1.387 . S
H211 C207 0.950 . S
H212 C209 0.950 . S
C213 C204 1.390 . S
C213 H206 0.950 . S
C213 C210 1.387 . S
C214 C215 1.387 . S
C214 H218 0.950 . S
C214 C223 1.390 . S
C215 C214 1.387 . S
C215 C217 1.387 . S
H216 C223 0.950 . S
C217 C215 1.387 . S
C217 C219 1.390 . S
C217 H221 0.950 . S
H218 C214 0.950 . S
C219 C217 1.390 . S
C219 C220 1.387 . S
C219 H222 0.950 . S
C220 C219 1.387 . S
C220 C223 1.387 . S
H221 C217 0.950 . S
H222 C219 0.950 . S
C223 C214 1.390 . S
C223 H216 0.950 . S
C223 C220 1.387 . S
C224 C225 1.387 . S
C224 H228 0.950 . S
C224 C233 1.390 . S
C225 C224 1.387 . S
C225 C227 1.387 . S
H226 C233 0.950 . S
C227 C225 1.387 . S
C227 C229 1.390 . S
C227 H231 0.950 . S
H228 C224 0.950 . S
C229 C227 1.390 . S
C229 C230 1.387 . S
C229 H232 0.950 . S
C230 C229 1.387 . S
C230 C233 1.387 . S
H231 C227 0.950 . S
H232 C229 0.950 . S
C233 C224 1.390 . S
C233 H226 0.950 . S
C233 C230 1.387 . S
C234 C235 1.387 . S
C234 H238 0.950 . S
C234 C243 1.390 . S
C235 C234 1.387 . S
C235 C237 1.387 . S
H236 C243 0.950 . S
C237 C235 1.387 . S
C237 C239 1.390 . S
C237 H241 0.950 . S
H238 C234 0.950 . S
C239 C237 1.390 . S
C239 C240 1.387 . S
C239 H242 0.950 . S
C240 C239 1.387 . S
C240 C243 1.387 . S
H241 C237 0.950 . S
H242 C239 0.950 . S
C243 C234 1.390 . S
C243 H236 0.950 . S
C243 C240 1.387 . S
C244 C245 1.387 . S
C244 H248 0.950 . S
C244 C253 1.390 . S
C245 C244 1.387 . S
C245 C247 1.387 . S
H246 C253 0.950 . S
C247 C245 1.387 . S
C247 C249 1.390 . S
C247 H251 0.950 . S
H248 C244 0.950 . S
C249 C247 1.390 . S
C249 C250 1.387 . S
C249 H252 0.950 . S
C250 C249 1.387 . S
C250 C253 1.387 . S
H251 C247 0.950 . S
H252 C249 0.950 . S
C253 C244 1.390 . S
C253 H246 0.950 . S
C253 C250 1.387 . S
C254 C255 1.387 . S
C254 H258 0.950 . S
C254 C263 1.390 . S
C255 C254 1.387 . S
C255 C257 1.387 . S
H256 C263 0.950 . S
C257 C255 1.387 . S
C257 C259 1.390 . S
C257 H261 0.950 . S
H258 C254 0.950 . S
C259 C257 1.390 . S
C259 C260 1.387 . S
C259 H262 0.950 . S
C260 C259 1.387 . S
C260 C263 1.387 . S
H261 C257 0.950 . S
H262 C259 0.950 . S
C263 C254 1.390 . S
C263 H256 0.950 . S
C263 C260 1.387 . S
C264 C265 1.387 . S
C264 H268 0.950 . S
C264 C273 1.390 . S
C265 C264 1.387 . S
C265 C267 1.387 . S
H266 C273 0.950 . S
C267 C265 1.387 . S
C267 C269 1.390 . S
C267 H271 0.950 . S
H268 C264 0.950 . S
C269 C267 1.390 . S
C269 C270 1.387 . S
C269 H272 0.950 . S
C270 C269 1.387 . S
C270 C273 1.387 . S
H271 C267 0.950 . S
H272 C269 0.950 . S
C273 C264 1.390 . S
C273 H266 0.950 . S
C273 C270 1.387 . S
C274 C275 1.387 . S
C274 H278 0.950 . S
C274 C283 1.390 . S
C275 C274 1.387 . S
C275 C277 1.387 . S
H276 C283 0.950 . S
C277 C275 1.387 . S
C277 C279 1.390 . S
C277 H281 0.950 . S
H278 C274 0.950 . S
C279 C277 1.390 . S
C279 C280 1.387 . S
C279 H282 0.950 . S
C280 C279 1.387 . S
C280 C283 1.387 . S
H281 C277 0.950 . S
H282 C279 0.950 . S
C283 C274 1.390 . S
C283 H276 0.950 . S
C283 C280 1.387 . S
C284 C285 1.387 . S
C284 H288 0.950 . S
C284 C293 1.390 . S
C285 C284 1.387 . S
C285 C287 1.387 . S
H286 C293 0.950 . S
C287 C285 1.387 . S
C287 C289 1.390 . S
C287 H291 0.950 . S
H288 C284 0.950 . S
C289 C287 1.390 . S
C289 C290 1.387 . S
C289 H292 0.950 . S
C290 C289 1.387 . S
C290 C293 1.387 . S
H291 C287 0.950 . S
H292 C289 0.950 . S
C293 C284 1.390 . S
C293 H286 0.950 . S
C293 C290 1.387 . S
C294 C295 1.387 . S
C294 H298 0.950 . S
C294 C303 1.390 1_554 S
C295 C294 1.387 . S
C295 C297 1.387 1_455 S
H296 C303 0.950 . S
C297 C295 1.387 1_655 S
C297 C299 1.390 1_554 S
C297 H301 0.950 . S
H298 C294 0.950 . S
C299 C297 1.390 1_556 S
C299 C300 1.387 1_655 S
C299 H302 0.950 . S
C300 C299 1.387 1_455 S
C300 C303 1.387 . S
H301 C297 0.950 . S
H302 C299 0.950 . S
C303 C294 1.390 1_556 S
C303 H296 0.950 . S
C303 C300 1.387 . S
C304 C305 1.387 . S
C304 H308 0.950 . S
C304 C313 1.390 . S
C305 C304 1.387 . S
C305 C307 1.387 1_545 S
H306 C313 0.950 . S
C307 C305 1.387 1_565 S
C307 C309 1.390 . S
C307 H311 0.950 . S
H308 C304 0.950 . S
C309 C307 1.390 . S
C309 C310 1.387 1_565 S
C309 H312 0.950 . S
C310 C309 1.387 1_545 S
C310 C313 1.387 . S
H311 C307 0.950 . S
H312 C309 0.950 . S
C313 C304 1.390 . S
C313 H306 0.950 . S
C313 C310 1.387 . S
C314 C315 1.387 . S
C314 H318 0.950 . S
C314 C323 1.390 . S
C315 C314 1.387 . S
C315 C317 1.387 . S
H316 C323 0.950 . S
C317 C315 1.387 . S
C317 C319 1.390 . S
C317 H321 0.950 . S
H318 C314 0.950 . S
C319 C317 1.390 . S
C319 C320 1.387 . S
C319 H322 0.950 . S
C320 C319 1.387 . S
C320 C323 1.387 . S
H321 C317 0.950 . S
H322 C319 0.950 . S
C323 C314 1.390 . S
C323 H316 0.950 . S
C323 C320 1.387 . S
C324 C325 1.387 . S
C324 H328 0.950 . S
C324 C333 1.390 . S
C325 C324 1.387 . S
C325 C327 1.387 . S
H326 C333 0.950 . S
C327 C325 1.387 . S
C327 C329 1.390 . S
C327 H331 0.950 1_545 S
H328 C324 0.950 . S
C329 C327 1.390 . S
C329 C330 1.387 . S
C329 H332 0.950 1_545 S
C330 C329 1.387 . S
C330 C333 1.387 . S
H331 C327 0.950 1_565 S
H332 C329 0.950 1_565 S
C333 C324 1.390 . S
C333 H326 0.950 . S
C333 C330 1.387 . S
C334 C335 1.387 . S
C334 H338 0.950 . S
C334 C343 1.383 1_556 S
C335 C334 1.387 . S
C335 C337 1.387 . S
H336 C343 0.954 . S
C337 C335 1.387 . S
C337 C339 1.390 1_556 S
C337 H341 0.950 . S
H338 C334 0.950 . S
C339 C337 1.390 1_554 S
C339 C340 1.387 . S
C339 H342 0.950 . S
C340 C339 1.387 . S
C340 C343 1.390 . S
H341 C337 0.950 . S
H342 C339 0.950 . S
C343 C334 1.383 1_554 S
C343 H336 0.954 . S
C343 C340 1.390 . S
C344 C345 1.387 . S
C344 H348 0.950 . S
C344 C353 1.390 . S
C345 C344 1.387 . S
C345 C347 1.387 . S
H346 C353 0.950 . S
C347 C345 1.387 . S
C347 C349 1.390 . S
C347 H351 0.950 1_455 S
H348 C344 0.950 . S
C349 C347 1.390 . S
C349 C350 1.387 . S
C349 H352 0.950 1_455 S
C350 C349 1.387 . S
C350 C353 1.387 . S
H351 C347 0.950 1_655 S
H352 C349 0.950 1_655 S
C353 C344 1.390 . S
C353 H346 0.950 . S
C353 C350 1.387 . S
C175 C2 1.539 . S
C180 C166 1.556 . S
C185 C22 1.537 . S
C190 C128 1.558 . S
C195 C44 1.559 . S
C200 C147 1.575 . S
C205 C4 1.444 . S
C210 C161 1.541 . S
C220 C123 1.539 . S
C215 C24 1.461 . S
C230 C142 1.524 . S
C225 C42 1.423 . S
C235 C32 1.503 . S
C240 C90 1.418 . S
C245 C49 1.191 . S
C250 C104 1.219 . S
C255 C9 1.184 . S
C260 C66 1.216 . S
C270 C85 1.258 . S
C265 C29 1.197 . S
C280 C109 1.396 . S
C275 C52 1.382 . S
C285 C12 1.394 . S
C290 C71 1.382 . S
C300 C100 1.532 . S
C295 C18 1.547 . S
C305 C38 1.516 . S
C310 C62 1.503 . S
C315 C58 1.496 . S
C320 C81 1.529 . S
C330 C138 1.546 . S
C325 C39 1.536 . S
C340 C157 1.551 . S
C335 C59 1.555 . S
C345 C19 1.539 . S
C350 C119 1.567 . S
