# Generated by pormake.
# Topology pth, (4,4)-cn, num edge types: 1
# Building blocks:
#     Node 0, Type 0, BuildingBlock: AZAVOO_clean_sbu_0, # of connection points: 4
#     Node 1, Type 0, BuildingBlock: AZAVOO_clean_sbu_0, # of connection points: 4
#     Node 2, Type 0, BuildingBlock: AZAVOO_clean_sbu_0, # of connection points: 4
#     Node 3, Type 1, BuildingBlock: NAHDIM_clean_linker_0, # of connection points: 4
#     Node 4, Type 1, BuildingBlock: NAHDIM_clean_linker_0, # of connection points: 4
#     Node 5, Type 1, BuildingBlock: NAHDIM_clean_linker_0, # of connection points: 4
#     Edge 6, Type (0, 1), BuildingBlock: OJICUG_clean_linker_0, # of connection points: 2
#     Edge 7, Type (0, 1), BuildingBlock: OJICUG_clean_linker_0, # of connection points: 2
#     Edge 8, Type (0, 1), BuildingBlock: OJICUG_clean_linker_0, # of connection points: 2
#     Edge 9, Type (0, 1), BuildingBlock: OJICUG_clean_linker_0, # of connection points: 2
#     Edge 10, Type (0, 1), BuildingBlock: OJICUG_clean_linker_0, # of connection points: 2
#     Edge 11, Type (0, 1), BuildingBlock: OJICUG_clean_linker_0, # of connection points: 2
#     Edge 12, Type (0, 1), BuildingBlock: OJICUG_clean_linker_0, # of connection points: 2
#     Edge 13, Type (0, 1), BuildingBlock: OJICUG_clean_linker_0, # of connection points: 2
#     Edge 14, Type (0, 1), BuildingBlock: OJICUG_clean_linker_0, # of connection points: 2
#     Edge 15, Type (0, 1), BuildingBlock: OJICUG_clean_linker_0, # of connection points: 2
#     Edge 16, Type (0, 1), BuildingBlock: OJICUG_clean_linker_0, # of connection points: 2
#     Edge 17, Type (0, 1), BuildingBlock: OJICUG_clean_linker_0, # of connection points: 2
# Relax obj value: 0.087
# Max RMSD: 0.221
# Mean RMSD: 0.131
data_MOF--net-pth--node1-AZAVOO_clean_sbu_0--node2-NAHDIM_clean_linker_0--edge1-OJICUG_clean_linker_0
_symmetry_space_group_name_H-M    P1
_symmetry_Int_Tables_number       1
_symmetry_cell_setting            triclinic
loop_
_symmetry_equiv_pos_as_xyz
'x, y, z'
_cell_length_a     25.324111
_cell_length_b     25.844769
_cell_length_c     63.960869
_cell_angle_alpha  90.30333
_cell_angle_beta   93.501983
_cell_angle_gamma 122.14808
loop_
_atom_site_label
_atom_site_type_symbol
_atom_site_fract_x
_atom_site_fract_y
_atom_site_fract_z
_atom_type_partial_charge
Mg0 Mg 0.10523 0.05492 0.07652 0.0
O1 O 0.01151 0.99963 0.05647 0.0
O2 O 0.99779 0.06602 0.03843 0.0
Mg3 Mg 0.08308 0.16205 0.04578 0.0
C4 C 0.97934 0.01154 0.04351 0.0
C5 C 0.04264 0.91792 0.09228 0.0
O6 O 0.0227 0.90128 0.07251 0.0
O7 O 0.06359 0.09116 0.09845 0.0
O8 O 0.05429 0.15845 0.07936 0.0
O9 O 0.15475 0.04602 0.05023 0.0
O10 O 0.13903 0.12158 0.05438 0.0
C11 C 0.04892 0.13116 0.09642 0.0
C12 C 0.15909 0.09497 0.04317 0.0
O13 O 0.07697 0.97449 0.09765 0.0
Mg14 Mg 0.99755 0.11034 0.37742 0.0
O15 O 0.05347 0.1134 0.4075 0.0
O16 O 0.06387 0.18577 0.42966 0.0
Mg17 Mg 0.01422 0.22909 0.41355 0.0
C18 C 0.07344 0.14341 0.42511 0.0
C19 C 0.02148 0.00556 0.36839 0.0
O20 O 0.99134 0.98536 0.38543 0.0
O21 O 0.08092 0.19832 0.36721 0.0
O22 O 0.08747 0.26998 0.38884 0.0
O23 O 0.90962 0.04308 0.39152 0.0
O24 O 0.95291 0.1433 0.39437 0.0
C25 C 0.10645 0.25414 0.37342 0.0
C26 C 0.9101 0.08949 0.39953 0.0
O27 O 0.02997 0.05476 0.36098 0.0
Mg28 Mg 0.9458 0.01529 0.70274 0.0
O29 O 0.02043 0.08847 0.72588 0.0
O30 O 0.98003 0.1279 0.74581 0.0
Mg31 Mg 0.87492 0.07463 0.73569 0.0
C32 C 0.02643 0.12568 0.74033 0.0
C33 C 0.06831 0.02101 0.69344 0.0
O34 O 0.06191 0.00106 0.71254 0.0
O35 O 0.943 0.08772 0.68367 0.0
O36 O 0.8962 0.12019 0.70377 0.0
O37 O 0.92493 0.94396 0.72599 0.0
O38 O 0.87777 0.9954 0.72351 0.0
C39 C 0.92096 0.12122 0.68682 0.0
C40 C 0.88555 0.95594 0.7331 0.0
O41 O 0.02554 0.0267 0.6845 0.0
C42 C 0.19521 0.90297 0.34783 0.0
C43 C 0.1386 0.88694 0.33272 0.0
C44 C 0.10403 0.78374 0.31865 0.0
C45 C 0.15453 0.80182 0.30619 0.0
C46 C 0.15949 0.75828 0.29475 0.0
C47 C 0.11294 0.69549 0.29566 0.0
C48 C 0.06169 0.67718 0.30793 0.0
C49 C 0.05799 0.72164 0.31927 0.0
C50 C 0.2147 0.77927 0.28176 0.0
C51 C 0.01103 0.61061 0.30912 0.0
C52 C 0.35923 0.45163 0.329 0.0
C53 C 0.29533 0.44352 0.3242 0.0
C54 C 0.26527 0.51753 0.31751 0.0
C55 C 0.20007 0.4788 0.3142 0.0
C56 C 0.16412 0.49957 0.30429 0.0
C57 C 0.19447 0.55924 0.2965 0.0
C58 C 0.26031 0.59834 0.29992 0.0
C59 C 0.29458 0.57732 0.31085 0.0
C60 C 0.0938 0.45751 0.30217 0.0
C61 C 0.29477 0.66228 0.29197 0.0
C62 C 0.04016 0.335 0.17682 0.0
C63 C 0.99034 0.33148 0.18671 0.0
C64 C 0.99435 0.38457 0.1943 0.0
C65 C 0.04878 0.44246 0.19166 0.0
C66 C 0.09813 0.44635 0.1811 0.0
C67 C 0.09341 0.3924 0.17404 0.0
C68 C 0.9409 0.37871 0.20561 0.0
C69 C 0.15638 0.50735 0.17776 0.0
C70 C 0.87415 0.74518 0.16162 0.0
C71 C 0.93409 0.74644 0.15827 0.0
C72 C 0.94586 0.66013 0.1638 0.0
C73 C 0.90777 0.60006 0.16981 0.0
C74 C 0.93304 0.57133 0.18148 0.0
C75 C 0.9985 0.60292 0.18646 0.0
C76 C 0.03766 0.66267 0.17928 0.0
C77 C 0.01073 0.69101 0.16832 0.0
C78 C 0.88948 0.50759 0.18865 0.0
C79 C 0.1079 0.69691 0.18326 0.0
C80 C 0.11859 0.6489 0.28411 0.0
C81 C 0.14952 0.62406 0.29464 0.0
C82 C 0.15788 0.58091 0.28468 0.0
C83 C 0.13341 0.56077 0.26369 0.0
C84 C 0.13989 0.5167 0.25322 0.0
C85 C 0.11342 0.49538 0.23292 0.0
C86 C 0.08228 0.51961 0.22185 0.0
C87 C 0.05514 0.49814 0.20122 0.0
C88 C 0.02899 0.52654 0.19004 0.0
C89 C 0.02598 0.57396 0.19934 0.0
C90 C 0.0483 0.59256 0.2206 0.0
C91 C 0.04141 0.63639 0.23107 0.0
C92 C 0.06403 0.65468 0.2519 0.0
C93 C 0.09481 0.63016 0.26303 0.0
C94 C 0.10192 0.58564 0.25284 0.0
C95 C 0.07774 0.56614 0.23172 0.0
C96 C 0.981 0.19245 0.1887 0.0
C97 C 0.98899 0.22482 0.16797 0.0
O98 O 0.09792 0.82403 0.33044 0.0
O99 O 0.91882 0.68731 0.15375 0.0
O100 O 0.03964 0.28464 0.17018 0.0
O101 O 0.30099 0.49932 0.32762 0.0
H102 H 0.15502 0.90595 0.3172 0.0
H103 H 0.222 0.88437 0.34156 0.0
H104 H 0.17995 0.88351 0.36336 0.0
H105 H 0.22708 0.95342 0.34994 0.0
H106 H 0.19059 0.8496 0.30537 0.0
H107 H 0.01912 0.70803 0.32884 0.0
H108 H 0.24098 0.75788 0.28713 0.0
H109 H 0.24715 0.82977 0.28273 0.0
H110 H 0.19797 0.76419 0.26509 0.0
H111 H 0.97327 0.60394 0.31889 0.0
H112 H 0.03161 0.58507 0.31582 0.0
H113 H 0.99021 0.59057 0.2931 0.0
H114 H 0.2814 0.42905 0.30728 0.0
H115 H 0.37595 0.46667 0.34569 0.0
H116 H 0.39376 0.48675 0.31892 0.0
H117 H 0.35652 0.40795 0.32576 0.0
H118 H 0.17683 0.43287 0.31977 0.0
H119 H 0.34487 0.60705 0.31373 0.0
H120 H 0.07866 0.436 0.28611 0.0
H121 H 0.07075 0.48323 0.30474 0.0
H122 H 0.0772 0.42034 0.31345 0.0
H123 H 0.34617 0.6828 0.29285 0.0
H124 H 0.2852 0.69183 0.3016 0.0
H125 H 0.27829 0.66219 0.27546 0.0
H126 H 0.94508 0.2238 0.16382 0.0
H127 H 0.94871 0.28762 0.18901 0.0
H128 H 0.13156 0.39478 0.16634 0.0
H129 H 0.95792 0.3994 0.22176 0.0
H130 H 0.90202 0.33035 0.20658 0.0
H131 H 0.92238 0.40414 0.19737 0.0
H132 H 0.18807 0.50297 0.16765 0.0
H133 H 0.18216 0.52892 0.19313 0.0
H134 H 0.14356 0.53847 0.17046 0.0
H135 H 0.964 0.76472 0.17328 0.0
H136 H 0.88517 0.79203 0.16553 0.0
H137 H 0.85061 0.71575 0.17483 0.0
H138 H 0.84137 0.72651 0.14731 0.0
H139 H 0.85776 0.57647 0.16597 0.0
H140 H 0.04029 0.73706 0.16311 0.0
H141 H 0.90163 0.50394 0.20533 0.0
H142 H 0.89437 0.47459 0.17911 0.0
H143 H 0.83977 0.4941 0.18687 0.0
H144 H 0.13179 0.73659 0.17311 0.0
H145 H 0.12523 0.66618 0.18054 0.0
H146 H 0.12115 0.7143 0.19985 0.0
H147 H 0.16804 0.63912 0.31077 0.0
H148 H 0.16466 0.49737 0.26069 0.0
H149 H 0.11864 0.4603 0.2259 0.0
H150 H 0.00972 0.51077 0.17402 0.0
H151 H 0.01807 0.6568 0.22333 0.0
H152 H 0.05729 0.6885 0.25916 0.0
H153 H 0.94592 0.14263 0.18628 0.0
H154 H 0.96425 0.21095 0.20051 0.0
H155 H 0.02617 0.19972 0.19528 0.0
C156 C 0.35844 0.19617 0.68068 0.0
C157 C 0.31655 0.14861 0.66308 0.0
C158 C 0.38414 0.12305 0.6455 0.0
C159 C 0.42002 0.17948 0.63605 0.0
C160 C 0.46518 0.18878 0.62232 0.0
C161 C 0.47466 0.14079 0.61787 0.0
C162 C 0.43955 0.0844 0.6276 0.0
C163 C 0.39487 0.0764 0.64135 0.0
C164 C 0.50229 0.24968 0.61233 0.0
C165 C 0.44861 0.03232 0.62319 0.0
C166 C 0.98833 0.32888 0.61879 0.0
C167 C 0.92183 0.27382 0.62008 0.0
C168 C 0.82032 0.26507 0.61739 0.0
C169 C 0.78262 0.20122 0.61399 0.0
C170 C 0.71856 0.17249 0.60783 0.0
C171 C 0.69226 0.20855 0.60434 0.0
C172 C 0.73001 0.27273 0.60817 0.0
C173 C 0.79333 0.29992 0.61497 0.0
C174 C 0.67925 0.10373 0.60477 0.0
C175 C 0.70378 0.31282 0.60481 0.0
C176 C 0.67703 0.09864 0.47178 0.0
C177 C 0.6355 0.04969 0.48368 0.0
C178 C 0.59274 0.05374 0.49541 0.0
C179 C 0.59149 0.10782 0.49532 0.0
C180 C 0.63138 0.1562 0.48273 0.0
C181 C 0.6735 0.15078 0.47103 0.0
C182 C 0.54996 0.00074 0.50838 0.0
C183 C 0.63091 0.21427 0.48224 0.0
C184 C 0.11831 0.01388 0.50225 0.0
C185 C 0.17583 0.06174 0.4915 0.0
C186 C 0.26613 0.0512 0.49119 0.0
C187 C 0.27899 0.00526 0.49376 0.0
C188 C 0.33847 0.01924 0.50148 0.0
C189 C 0.38652 0.08099 0.5062 0.0
C190 C 0.37455 0.12799 0.50261 0.0
C191 C 0.31435 0.11257 0.49518 0.0
C192 C 0.3496 0.96799 0.50497 0.0
C193 C 0.42524 0.19448 0.50678 0.0
C194 C 0.51957 0.1488 0.6024 0.0
C195 C 0.58151 0.17101 0.60968 0.0
C196 C 0.62613 0.17994 0.59587 0.0
C197 C 0.6082 0.1647 0.57423 0.0
C198 C 0.65127 0.17133 0.55993 0.0
C199 C 0.6327 0.15452 0.53881 0.0
C200 C 0.57095 0.13276 0.53099 0.0
C201 C 0.55143 0.1148 0.50959 0.0
C202 C 0.49135 0.0984 0.50194 0.0
C203 C 0.44885 0.09653 0.51538 0.0
C204 C 0.4659 0.10925 0.53716 0.0
C205 C 0.4228 0.10288 0.55138 0.0
C206 C 0.44003 0.11517 0.57277 0.0
C207 C 0.50137 0.13548 0.58073 0.0
C208 C 0.54569 0.14278 0.56665 0.0
C209 C 0.52755 0.12844 0.54491 0.0
C210 C 0.77813 0.06789 0.48423 0.0
C211 C 0.74136 0.05728 0.463 0.0
O212 O 0.33905 0.11153 0.65864 0.0
O213 O 0.20701 0.0348 0.48463 0.0
O214 O 0.72168 0.09807 0.46114 0.0
O215 O 0.88253 0.29479 0.62319 0.0
H216 H 0.3161 0.17309 0.64888 0.0
H217 H 0.40647 0.22672 0.67574 0.0
H218 H 0.36156 0.17355 0.69501 0.0
H219 H 0.33949 0.22489 0.68456 0.0
H220 H 0.41328 0.21661 0.63922 0.0
H221 H 0.3674 0.03319 0.64876 0.0
H222 H 0.55307 0.26925 0.61588 0.0
H223 H 0.49078 0.2831 0.61788 0.0
H224 H 0.49286 0.24312 0.59503 0.0
H225 H 0.4184 0.99166 0.6323 0.0
H226 H 0.49825 0.04742 0.62708 0.0
H227 H 0.43778 0.01881 0.60622 0.0
H228 H 0.90768 0.24764 0.60472 0.0
H229 H 0.02071 0.31351 0.61568 0.0
H230 H 0.00505 0.35726 0.63366 0.0
H231 H 0.98929 0.3576 0.60577 0.0
H232 H 0.80275 0.17358 0.61626 0.0
H233 H 0.82266 0.34903 0.6179 0.0
H234 H 0.63443 0.08508 0.61221 0.0
H235 H 0.70381 0.08181 0.61142 0.0
H236 H 0.66787 0.09101 0.58776 0.0
H237 H 0.74067 0.3623 0.60647 0.0
H238 H 0.66917 0.30266 0.61648 0.0
H239 H 0.67909 0.30296 0.58896 0.0
H240 H 0.70006 0.00958 0.46156 0.0
H241 H 0.63656 0.00847 0.48418 0.0
H242 H 0.70523 0.1881 0.46166 0.0
H243 H 0.5632 0.01446 0.52529 0.0
H244 H 0.55232 0.95975 0.5052 0.0
H245 H 0.50085 0.98821 0.50518 0.0
H246 H 0.66392 0.24724 0.47129 0.0
H247 H 0.6438 0.23646 0.49821 0.0
H248 H 0.58304 0.20333 0.47741 0.0
H249 H 0.20568 0.09921 0.5035 0.0
H250 H 0.09268 0.03437 0.5081 0.0
H251 H 0.13305 0.99663 0.51582 0.0
H252 H 0.08625 0.97458 0.49119 0.0
H253 H 0.24163 0.9581 0.49027 0.0
H254 H 0.30518 0.14846 0.49235 0.0
H255 H 0.36887 0.97127 0.52133 0.0
H256 H 0.38472 0.97224 0.49438 0.0
H257 H 0.30616 0.92219 0.50197 0.0
H258 H 0.41046 0.22566 0.50097 0.0
H259 H 0.46801 0.20505 0.4992 0.0
H260 H 0.4377 0.20381 0.52391 0.0
H261 H 0.59538 0.18234 0.62628 0.0
H262 H 0.69966 0.18871 0.56494 0.0
H263 H 0.66766 0.15961 0.52863 0.0
H264 H 0.4772 0.08604 0.48541 0.0
H265 H 0.37503 0.08766 0.54617 0.0
H266 H 0.40468 0.10895 0.58297 0.0
H267 H 0.79509 0.03614 0.48546 0.0
H268 H 0.74808 0.05937 0.49733 0.0
H269 H 0.81893 0.11575 0.4861 0.0
C270 C 0.65958 0.76914 0.78277 0.0
C271 C 0.71874 0.81448 0.79669 0.0
C272 C 0.70468 0.74231 0.8238 0.0
C273 C 0.656 0.74203 0.83336 0.0
C274 C 0.61656 0.69386 0.84583 0.0
C275 C 0.62658 0.64553 0.84901 0.0
C276 C 0.67854 0.64821 0.84079 0.0
C277 C 0.71724 0.69694 0.82836 0.0
C278 C 0.56223 0.69299 0.8547 0.0
C279 C 0.69117 0.59796 0.84424 0.0
C280 C 0.31461 0.3396 0.75883 0.0
C281 C 0.27923 0.29724 0.77637 0.0
C282 C 0.32955 0.36766 0.80747 0.0
C283 C 0.38545 0.36804 0.80879 0.0
C284 C 0.43498 0.40698 0.82349 0.0
C285 C 0.42886 0.44685 0.83692 0.0
C286 C 0.37282 0.4468 0.83553 0.0
C287 C 0.32365 0.40653 0.82101 0.0
C288 C 0.49393 0.40562 0.82466 0.0
C289 C 0.36495 0.48968 0.84922 0.0
C290 C 0.30676 0.28979 0.95549 0.0
C291 C 0.36514 0.29513 0.95767 0.0
C292 C 0.4202 0.35042 0.95365 0.0
C293 C 0.41685 0.4014 0.94783 0.0
C294 C 0.3589 0.39745 0.9474 0.0
C295 C 0.30464 0.34151 0.95106 0.0
C296 C 0.48158 0.35369 0.95468 0.0
C297 C 0.35367 0.4514 0.94197 0.0
C298 C 0.77811 0.84171 0.97132 0.0
C299 C 0.75958 0.823 0.99377 0.0
C300 C 0.69829 0.71211 0.98615 0.0
C301 C 0.70557 0.66255 0.98362 0.0
C302 C 0.66157 0.61046 0.97114 0.0
C303 C 0.6085 0.60768 0.9613 0.0
C304 C 0.59869 0.65589 0.96498 0.0
C305 C 0.64376 0.70768 0.97729 0.0
C306 C 0.67296 0.55948 0.96777 0.0
C307 C 0.54155 0.65361 0.95531 0.0
C308 C 0.57824 0.58875 0.8584 0.0
C309 C 0.53014 0.54373 0.84472 0.0
C310 C 0.48137 0.48962 0.85214 0.0
C311 C 0.48097 0.47919 0.8738 0.0
C312 C 0.43394 0.42419 0.88167 0.0
C313 C 0.43172 0.41574 0.9031 0.0
C314 C 0.47612 0.46224 0.91752 0.0
C315 C 0.47146 0.45571 0.9394 0.0
C316 C 0.5161 0.50294 0.95332 0.0
C317 C 0.56565 0.55692 0.94592 0.0
C318 C 0.57122 0.56403 0.92406 0.0
C319 C 0.6206 0.61752 0.91603 0.0
C320 C 0.62373 0.62537 0.89451 0.0
C321 C 0.57743 0.58021 0.88022 0.0
C322 C 0.52836 0.52523 0.88794 0.0
C323 C 0.52561 0.51692 0.90986 0.0
C324 C 0.18352 0.13381 0.94453 0.0
C325 C 0.2387 0.1778 0.95989 0.0
O326 O 0.73847 0.78363 0.80942 0.0
O327 O 0.74553 0.76381 0.99661 0.0
O328 O 0.25117 0.23639 0.95712 0.0
O329 O 0.28039 0.33122 0.79343 0.0
H330 H 0.7087 0.84315 0.80669 0.0
H331 H 0.61956 0.74086 0.79234 0.0
H332 H 0.66796 0.73819 0.77339 0.0
H333 H 0.64582 0.79412 0.77191 0.0
H334 H 0.64716 0.7781 0.83057 0.0
H335 H 0.7556 0.6981 0.82125 0.0
H336 H 0.51765 0.65427 0.84719 0.0
H337 H 0.56346 0.73608 0.85213 0.0
H338 H 0.56237 0.68568 0.87179 0.0
H339 H 0.73692 0.6098 0.83872 0.0
H340 H 0.65362 0.55538 0.83565 0.0
H341 H 0.69049 0.58831 0.86116 0.0
H342 H 0.30115 0.27118 0.7812 0.0
H343 H 0.31362 0.31255 0.74508 0.0
H344 H 0.36428 0.3724 0.7643 0.0
H345 H 0.29319 0.36597 0.75383 0.0
H346 H 0.39102 0.33825 0.79849 0.0
H347 H 0.28045 0.40595 0.81988 0.0
H348 H 0.50658 0.40051 0.84112 0.0
H349 H 0.5331 0.44962 0.81944 0.0
H350 H 0.48906 0.36778 0.81469 0.0
H351 H 0.32194 0.48941 0.84433 0.0
H352 H 0.40598 0.53716 0.84875 0.0
H353 H 0.36213 0.47588 0.86571 0.0
H354 H 0.27858 0.17384 0.95607 0.0
H355 H 0.36847 0.25662 0.96206 0.0
H356 H 0.25965 0.3374 0.94988 0.0
H357 H 0.49969 0.36207 0.93887 0.0
H358 H 0.47707 0.31101 0.9603 0.0
H359 H 0.51664 0.39267 0.96532 0.0
H360 H 0.3081 0.44423 0.94582 0.0
H361 H 0.35814 0.45863 0.92491 0.0
H362 H 0.39201 0.49368 0.95048 0.0
H363 H 0.71812 0.82548 0.99667 0.0
H364 H 0.79062 0.88946 0.96911 0.0
H365 H 0.7387 0.81177 0.95967 0.0
H366 H 0.81875 0.83826 0.96803 0.0
H367 H 0.7473 0.66593 0.99074 0.0
H368 H 0.63643 0.74482 0.9796 0.0
H369 H 0.67718 0.55398 0.95083 0.0
H370 H 0.63246 0.51571 0.97256 0.0
H371 H 0.71606 0.56813 0.97675 0.0
H372 H 0.53675 0.69075 0.96179 0.0
H373 H 0.49867 0.60886 0.95796 0.0
H374 H 0.54472 0.6582 0.93811 0.0
H375 H 0.52993 0.55155 0.82807 0.0
H376 H 0.39796 0.38722 0.87135 0.0
H377 H 0.39407 0.37253 0.9082 0.0
H378 H 0.51127 0.49834 0.97006 0.0
H379 H 0.65715 0.65419 0.9263 0.0
H380 H 0.66234 0.66765 0.88921 0.0
H381 H 0.17282 0.08635 0.94586 0.0
H382 H 0.19527 0.14755 0.92821 0.0
H383 H 0.14122 0.13457 0.94766 0.0
C384 C 0.04463 0.14024 0.13517 0.0
C385 C 0.02858 0.14943 0.11473 0.0
H386 H 0.04669 0.15729 0.16791 0.0
C387 C 0.99662 0.17997 0.11197 0.0
H388 H 0.07006 0.11762 0.13779 0.0
C389 C 0.98192 0.20174 0.1293 0.0
C390 C 0.9989 0.19368 0.14979 0.0
H391 H 0.98377 0.18794 0.09641 0.0
H392 H 0.95859 0.22642 0.12668 0.0
C393 C 0.03094 0.16298 0.1525 0.0
C394 C 0.82256 0.02263 0.42184 0.0
C395 C 0.86582 0.08125 0.41517 0.0
H396 H 0.74947 0.96939 0.44206 0.0
C397 C 0.86678 0.13194 0.42377 0.0
H398 H 0.82073 0.98264 0.41557 0.0
C399 C 0.82605 0.1243 0.43893 0.0
C400 C 0.78266 0.06564 0.44556 0.0
H401 H 0.89924 0.17769 0.41891 0.0
H402 H 0.82885 0.16435 0.44563 0.0
C403 C 0.78159 0.01495 0.43693 0.0
C404 C 0.81142 0.94212 0.75986 0.0
C405 C 0.84932 0.92428 0.75119 0.0
H406 H 0.74173 0.92202 0.78126 0.0
C407 C 0.84845 0.87303 0.75892 0.0
H408 H 0.81043 0.98096 0.75421 0.0
C409 C 0.8084 0.83879 0.77432 0.0
C410 C 0.76948 0.85598 0.78265 0.0
H411 H 0.87671 0.85779 0.75245 0.0
H412 H 0.80637 0.79774 0.77919 0.0
C413 C 0.77212 0.90847 0.77543 0.0
C414 C 0.97274 0.81058 0.10371 0.0
C415 C 0.01995 0.87201 0.10867 0.0
H416 H 0.90855 0.72267 0.11546 0.0
C417 C 0.0422 0.89033 0.12976 0.0
H418 H 0.95439 0.79502 0.08764 0.0
C419 C 0.01618 0.84889 0.14559 0.0
C420 C 0.96759 0.78809 0.14074 0.0
H421 H 0.07855 0.93724 0.13415 0.0
H422 H 0.03278 0.86491 0.16175 0.0
C423 C 0.94657 0.7691 0.11961 0.0
C424 C 0.10814 0.07363 0.43795 0.0
C425 C 0.10524 0.12594 0.44121 0.0
H426 H 0.13234 0.01224 0.45118 0.0
C427 C 0.1297 0.15924 0.46053 0.0
H428 H 0.08953 0.04667 0.42331 0.0
C429 C 0.15469 0.13968 0.4764 0.0
C430 C 0.15613 0.0866 0.47331 0.0
H431 H 0.12825 0.19969 0.46362 0.0
H432 H 0.17145 0.16519 0.49134 0.0
C433 C 0.13288 0.05394 0.45387 0.0
C434 C 0.13769 0.15689 0.74842 0.0
C435 C 0.08968 0.16818 0.75055 0.0
H436 H 0.23437 0.18842 0.75511 0.0
C437 C 0.10352 0.2214 0.76175 0.0
H438 H 0.12871 0.1164 0.73983 0.0
C439 C 0.16437 0.26299 0.77032 0.0
C440 C 0.21226 0.25138 0.7683 0.0
H441 H 0.06776 0.23176 0.76345 0.0
H442 H 0.17399 0.30447 0.77833 0.0
C443 C 0.19817 0.19794 0.75722 0.0
C444 C 0.90994 0.20703 0.67416 0.0
C445 C 0.92226 0.16107 0.67003 0.0
H446 H 0.90099 0.27917 0.66185 0.0
C447 C 0.93463 0.15269 0.64957 0.0
H448 H 0.90079 0.21505 0.68978 0.0
C449 C 0.9337 0.18874 0.63354 0.0
C450 C 0.92057 0.23405 0.6376 0.0
H451 H 0.94434 0.11776 0.64583 0.0
H452 H 0.94328 0.18128 0.61791 0.0
C453 C 0.90978 0.2436 0.65816 0.0
C454 C 0.87365 0.97092 0.02531 0.0
C455 C 0.9203 0.96071 0.03305 0.0
H456 H 0.78606 0.93478 0.00736 0.0
C457 C 0.91189 0.90305 0.02931 0.0
H458 H 0.8788 0.01488 0.02797 0.0
C459 C 0.85916 0.85744 0.0172 0.0
C460 C 0.81293 0.86808 0.00914 0.0
H461 H 0.94744 0.89413 0.03488 0.0
H462 H 0.85551 0.81456 0.0137 0.0
C463 C 0.82046 0.92504 0.01361 0.0
C464 C 0.03955 0.91922 0.36682 0.0
C465 C 0.04838 0.97343 0.35862 0.0
H466 H 0.06084 0.84944 0.36506 0.0
C467 C 0.0851 0.99788 0.34144 0.0
H468 H 0.01173 0.89929 0.38008 0.0
C469 C 0.11318 0.96932 0.33288 0.0
C470 C 0.10467 0.91536 0.34115 0.0
H471 H 0.09311 0.03973 0.3348 0.0
H472 H 0.14224 0.98987 0.31993 0.0
C473 C 0.06749 0.89056 0.3582 0.0
C474 C 0.17594 0.03915 0.69341 0.0
C475 C 0.12891 0.04665 0.68401 0.0
H476 H 0.27165 0.06458 0.69395 0.0
C477 C 0.14241 0.08383 0.66668 0.0
H478 H 0.167 0.01072 0.70676 0.0
C479 C 0.20244 0.11525 0.65958 0.0
C480 C 0.25013 0.1096 0.66946 0.0
H481 H 0.10735 0.09077 0.6591 0.0
H482 H 0.21198 0.1453 0.64669 0.0
C483 C 0.23585 0.07005 0.68613 0.0
C484 C 0.18313 0.16884 0.01478 0.0
C485 C 0.18223 0.11749 0.02237 0.0
H486 H 0.20004 0.22746 0.98937 0.0
C487 C 0.20296 0.08794 0.00982 0.0
H488 H 0.16864 0.19349 0.02411 0.0
C489 C 0.22311 0.10882 0.98995 0.0
C490 C 0.22251 0.15933 0.98218 0.0
H491 H 0.20311 0.04839 0.01525 0.0
H492 H 0.23801 0.08478 0.98042 0.0
C493 C 0.20204 0.18893 0.99485 0.0
C494 C 0.19251 0.36338 0.3694 0.0
C495 C 0.15724 0.30221 0.36162 0.0
H496 H 0.26432 0.45582 0.36395 0.0
C497 C 0.1692 0.28767 0.34195 0.0
H498 H 0.18489 0.37607 0.38457 0.0
C499 C 0.21394 0.33343 0.33008 0.0
C500 C 0.2478 0.39471 0.33757 0.0
H501 H 0.1431 0.24107 0.33548 0.0
H502 H 0.22165 0.32106 0.31486 0.0
C503 C 0.23783 0.4091 0.35759 0.0
loop_
_geom_bond_atom_site_label_1
_geom_bond_atom_site_label_2
_geom_bond_distance
_geom_bond_site_symmetry_2
_ccdc_geom_bond_type
Mg0 O1 2.028 . S
Mg0 O7 1.986 . S
Mg0 O9 2.114 . S
Mg0 O10 2.251 . S
Mg0 O13 2.010 . S
O1 Mg0 2.028 . S
O1 C4 1.250 1_455 S
O2 Mg3 2.028 1_655 S
O2 C4 1.248 . S
Mg3 O2 2.028 1_455 S
Mg3 O8 2.032 . S
Mg3 O10 2.079 . S
C4 O1 1.250 1_655 S
C4 O2 1.248 . S
C5 O6 1.264 1_565 S
C5 O13 1.249 1_565 S
O6 C5 1.264 1_545 S
O7 Mg0 1.986 . S
O7 C11 1.246 . S
O8 Mg3 2.032 . S
O8 C11 1.259 . S
O9 Mg0 2.114 . S
O9 C12 1.252 . S
O10 Mg0 2.251 . S
O10 Mg3 2.079 . S
O10 C12 1.273 . S
C11 O7 1.246 . S
C11 O8 1.259 . S
C12 O9 1.252 . S
C12 O10 1.273 . S
O13 Mg0 2.010 . S
O13 C5 1.249 1_545 S
Mg14 O15 2.028 1_655 S
Mg14 O21 1.986 1_655 S
Mg14 O23 2.114 1_545 S
Mg14 O24 2.251 . S
Mg14 O27 2.010 1_545 S
O15 Mg14 2.028 1_455 S
O15 C18 1.250 . S
O16 Mg17 2.028 . S
O16 C18 1.248 . S
Mg17 O16 2.028 . S
Mg17 O22 2.032 . S
Mg17 O24 2.079 1_455 S
C18 O15 1.250 . S
C18 O16 1.248 . S
C19 O20 1.264 . S
C19 O27 1.249 . S
O20 C19 1.264 . S
O21 Mg14 1.986 1_455 S
O21 C25 1.246 . S
O22 Mg17 2.032 . S
O22 C25 1.259 . S
O23 Mg14 2.114 1_565 S
O23 C26 1.252 1_565 S
O24 Mg14 2.251 . S
O24 Mg17 2.079 1_655 S
O24 C26 1.273 . S
C25 O21 1.246 . S
C25 O22 1.259 . S
C26 O23 1.252 1_545 S
C26 O24 1.273 . S
O27 Mg14 2.010 1_565 S
O27 C19 1.249 . S
Mg28 O29 2.028 . S
Mg28 O35 1.986 1_455 S
Mg28 O37 2.114 1_545 S
Mg28 O38 2.251 1_455 S
Mg28 O41 2.010 . S
O29 Mg28 2.028 . S
O29 C32 1.250 . S
O30 Mg31 2.028 1_455 S
O30 C32 1.248 . S
Mg31 O30 2.028 1_655 S
Mg31 O36 2.032 . S
Mg31 O38 2.079 . S
C32 O29 1.250 . S
C32 O30 1.248 . S
C33 O34 1.264 1_545 S
C33 O41 1.249 . S
O34 C33 1.264 1_565 S
O35 Mg28 1.986 1_655 S
O35 C39 1.246 . S
O36 Mg31 2.032 . S
O36 C39 1.259 . S
O37 Mg28 2.114 1_565 S
O37 C40 1.252 1_455 S
O38 Mg28 2.251 1_655 S
O38 Mg31 2.079 . S
O38 C40 1.273 1_545 S
C39 O35 1.246 . S
C39 O36 1.259 . S
C40 O37 1.252 1_655 S
C40 O38 1.273 1_565 S
O41 Mg28 2.010 . S
O41 C33 1.249 . S
C42 C43 1.560 . S
C42 H103 0.959 . S
C42 H104 0.959 . S
C42 H105 0.960 . S
C43 C42 1.560 . S
C43 O98 1.426 . S
C43 H102 0.980 1_655 S
C44 C45 1.407 1_655 S
C44 C49 1.418 . S
C44 O98 1.334 . S
C45 C44 1.407 1_455 S
C45 C46 1.360 . S
C45 H106 0.929 . S
C46 C45 1.360 . S
C46 C47 1.401 . S
C46 C50 1.527 . S
C47 C46 1.401 . S
C47 C48 1.405 1_455 S
C47 C80 1.587 . S
C48 C47 1.405 1_655 S
C48 C49 1.332 . S
C48 C51 1.496 . S
C49 C44 1.418 . S
C49 C48 1.332 . S
C49 H107 0.929 . S
C50 C46 1.527 . S
C50 H108 0.959 . S
C50 H109 0.961 . S
C50 H110 0.961 . S
C51 C48 1.496 . S
C51 H111 0.960 . S
C51 H112 0.960 . S
C51 H113 0.961 . S
C52 C53 1.517 . S
C52 H115 0.961 . S
C52 H116 0.960 . S
C52 H117 0.959 . S
C53 C52 1.517 . S
C53 O101 1.468 . S
C53 H114 0.980 . S
C54 C55 1.349 . S
C54 C59 1.367 . S
C54 O101 1.408 . S
C55 C54 1.349 . S
C55 C56 1.407 . S
C55 H118 0.930 . S
C56 C55 1.407 . S
C56 C57 1.449 . S
C56 C60 1.535 1_455 S
C57 C56 1.449 . S
C57 C58 1.384 . S
C57 C82 1.553 . S
C58 C57 1.384 . S
C58 C59 1.364 . S
C58 C61 1.450 . S
C59 C54 1.367 . S
C59 C58 1.364 . S
C59 H119 0.931 . S
C60 C56 1.535 1_655 S
C60 H120 0.959 . S
C60 H121 0.961 . S
C60 H122 0.959 . S
C61 C58 1.450 . S
C61 H123 0.960 . S
C61 H124 0.960 . S
C61 H125 0.960 . S
C62 C63 1.309 . S
C62 C67 1.304 . S
C62 O100 1.435 . S
C63 C62 1.309 . S
C63 C64 1.476 . S
C63 H127 0.930 . S
C64 C63 1.476 . S
C64 C65 1.400 . S
C64 C68 1.567 1_455 S
C65 C64 1.400 . S
C65 C66 1.373 . S
C65 C87 1.432 . S
C66 C65 1.373 . S
C66 C67 1.339 . S
C66 C69 1.530 . S
C67 C62 1.304 . S
C67 C66 1.339 . S
C67 H128 0.930 . S
C68 C64 1.567 1_655 S
C68 H129 0.961 . S
C68 H130 0.960 . S
C68 H131 0.958 . S
C69 C66 1.530 . S
C69 H132 0.961 . S
C69 H133 0.960 . S
C69 H134 0.960 . S
C70 C71 1.530 1_655 S
C70 H136 0.961 1_655 S
C70 H137 0.961 . S
C70 H138 0.959 . S
C71 C70 1.530 1_455 S
C71 O99 1.412 1_455 S
C71 H135 0.980 . S
C72 C73 1.288 1_455 S
C72 C77 1.377 . S
C72 O99 1.393 1_455 S
C73 C72 1.288 1_655 S
C73 C74 1.369 . S
C73 H139 0.932 . S
C74 C73 1.369 . S
C74 C75 1.398 1_655 S
C74 C78 1.527 . S
C75 C74 1.398 1_455 S
C75 C76 1.380 . S
C75 C89 1.497 . S
C76 C75 1.380 . S
C76 C77 1.383 . S
C76 C79 1.603 . S
C77 C72 1.377 . S
C77 C76 1.383 . S
C77 H140 0.929 . S
C78 C74 1.527 . S
C78 H141 0.961 . S
C78 H142 0.959 . S
C78 H143 0.959 . S
C79 C76 1.603 . S
C79 H144 0.960 . S
C79 H145 0.962 . S
C79 H146 0.961 . S
C80 C47 1.587 . S
C80 C81 1.360 . S
C80 C93 1.412 . S
C81 C80 1.360 . S
C81 C82 1.365 . S
C81 H147 0.929 . S
C82 C57 1.553 . S
C82 C81 1.365 . S
C82 C83 1.404 . S
C83 C82 1.404 . S
C83 C84 1.395 . S
C83 C94 1.451 . S
C84 C83 1.395 . S
C84 C85 1.322 . S
C84 H148 0.930 . S
C85 C84 1.322 . S
C85 C86 1.459 . S
C85 H149 0.929 . S
C86 C85 1.459 . S
C86 C87 1.445 . S
C86 C95 1.395 . S
C87 C65 1.432 . S
C87 C86 1.445 . S
C87 C88 1.370 . S
C88 C87 1.370 . S
C88 C89 1.438 . S
C88 H150 0.930 . S
C89 C75 1.497 . S
C89 C88 1.438 . S
C89 C90 1.360 . S
C90 C89 1.360 . S
C90 C91 1.401 . S
C90 C95 1.446 . S
C91 C90 1.401 . S
C91 C92 1.347 . S
C91 H151 0.929 . S
C92 C91 1.347 . S
C92 C93 1.455 . S
C92 H152 0.930 . S
C93 C80 1.412 . S
C93 C92 1.455 . S
C93 C94 1.331 . S
C94 C83 1.451 . S
C94 C93 1.331 . S
C94 C95 1.497 . S
C95 C86 1.395 . S
C95 C90 1.446 . S
C95 C94 1.497 . S
C96 C97 1.582 . S
C96 H153 0.962 . S
C96 H154 0.959 . S
C96 H155 0.958 . S
C97 C96 1.582 . S
C97 O100 1.458 . S
C97 H126 0.980 . S
O98 C43 1.426 . S
O98 C44 1.334 . S
O99 C71 1.412 1_655 S
O99 C72 1.393 1_655 S
O100 C62 1.435 . S
O100 C97 1.458 . S
O101 C53 1.468 . S
O101 C54 1.408 . S
H102 C43 0.980 1_455 S
H103 C42 0.959 . S
H104 C42 0.959 . S
H105 C42 0.960 . S
H106 C45 0.929 . S
H107 C49 0.929 . S
H108 C50 0.959 . S
H109 C50 0.961 . S
H110 C50 0.961 . S
H111 C51 0.960 . S
H112 C51 0.960 . S
H113 C51 0.961 . S
H114 C53 0.980 . S
H115 C52 0.961 . S
H116 C52 0.960 . S
H117 C52 0.959 . S
H118 C55 0.930 . S
H119 C59 0.931 . S
H120 C60 0.959 . S
H121 C60 0.961 . S
H122 C60 0.959 . S
H123 C61 0.960 . S
H124 C61 0.960 . S
H125 C61 0.960 . S
H126 C97 0.980 . S
H127 C63 0.930 . S
H128 C67 0.930 . S
H129 C68 0.961 . S
H130 C68 0.960 . S
H131 C68 0.958 . S
H132 C69 0.961 . S
H133 C69 0.960 . S
H134 C69 0.960 . S
H135 C71 0.980 . S
H136 C70 0.961 1_455 S
H137 C70 0.961 . S
H138 C70 0.959 . S
H139 C73 0.932 . S
H140 C77 0.929 . S
H141 C78 0.961 . S
H142 C78 0.959 . S
H143 C78 0.959 . S
H144 C79 0.960 . S
H145 C79 0.962 . S
H146 C79 0.961 . S
H147 C81 0.929 . S
H148 C84 0.930 . S
H149 C85 0.929 . S
H150 C88 0.930 . S
H151 C91 0.929 . S
H152 C92 0.930 . S
H153 C96 0.962 . S
H154 C96 0.959 . S
H155 C96 0.958 . S
C156 C157 1.560 . S
C156 H217 0.959 1_545 S
C156 H218 0.959 1_545 S
C156 H219 0.960 . S
C157 C156 1.560 . S
C157 O212 1.426 . S
C157 H216 0.980 . S
C158 C159 1.407 . S
C158 C163 1.418 . S
C158 O212 1.334 . S
C159 C158 1.407 . S
C159 C160 1.360 . S
C159 H220 0.929 . S
C160 C159 1.360 . S
C160 C161 1.401 . S
C160 C164 1.527 . S
C161 C160 1.401 . S
C161 C162 1.405 . S
C161 C194 1.587 . S
C162 C161 1.405 . S
C162 C163 1.332 . S
C162 C165 1.496 1_545 S
C163 C158 1.418 . S
C163 C162 1.332 . S
C163 H221 0.929 1_545 S
C164 C160 1.527 . S
C164 H222 0.959 . S
C164 H223 0.961 . S
C164 H224 0.961 . S
C165 C162 1.496 1_565 S
C165 H225 0.960 . S
C165 H226 0.960 . S
C165 H227 0.961 . S
C166 C167 1.517 . S
C166 H229 0.961 . S
C166 H230 0.960 . S
C166 H231 0.959 . S
C167 C166 1.517 . S
C167 O215 1.468 . S
C167 H228 0.980 . S
C168 C169 1.349 . S
C168 C173 1.367 . S
C168 O215 1.408 . S
C169 C168 1.349 . S
C169 C170 1.407 . S
C169 H232 0.930 . S
C170 C169 1.407 . S
C170 C171 1.449 . S
C170 C174 1.535 . S
C171 C170 1.449 . S
C171 C172 1.384 . S
C171 C196 1.553 . S
C172 C171 1.384 . S
C172 C173 1.364 . S
C172 C175 1.450 . S
C173 C168 1.367 . S
C173 C172 1.364 . S
C173 H233 0.931 . S
C174 C170 1.535 . S
C174 H234 0.959 . S
C174 H235 0.961 . S
C174 H236 0.959 . S
C175 C172 1.450 . S
C175 H237 0.960 . S
C175 H238 0.960 . S
C175 H239 0.960 . S
C176 C177 1.309 . S
C176 C181 1.304 . S
C176 O214 1.435 . S
C177 C176 1.309 . S
C177 C178 1.476 . S
C177 H241 0.930 . S
C178 C177 1.476 . S
C178 C179 1.400 . S
C178 C182 1.567 . S
C179 C178 1.400 . S
C179 C180 1.373 . S
C179 C201 1.432 . S
C180 C179 1.373 . S
C180 C181 1.339 . S
C180 C183 1.530 . S
C181 C176 1.304 . S
C181 C180 1.339 . S
C181 H242 0.930 . S
C182 C178 1.567 . S
C182 H243 0.961 . S
C182 H244 0.960 1_545 S
C182 H245 0.958 1_545 S
C183 C180 1.530 . S
C183 H246 0.961 . S
C183 H247 0.960 . S
C183 H248 0.960 . S
C184 C185 1.530 . S
C184 H250 0.961 . S
C184 H251 0.961 . S
C184 H252 0.959 . S
C185 C184 1.530 . S
C185 O213 1.412 . S
C185 H249 0.980 . S
C186 C187 1.288 . S
C186 C191 1.377 . S
C186 O213 1.393 . S
C187 C186 1.288 . S
C187 C188 1.369 . S
C187 H253 0.932 1_545 S
C188 C187 1.369 . S
C188 C189 1.398 . S
C188 C192 1.527 1_545 S
C189 C188 1.398 . S
C189 C190 1.380 . S
C189 C203 1.497 . S
C190 C189 1.380 . S
C190 C191 1.383 . S
C190 C193 1.603 . S
C191 C186 1.377 . S
C191 C190 1.383 . S
C191 H254 0.929 . S
C192 C188 1.527 1_565 S
C192 H255 0.961 . S
C192 H256 0.959 . S
C192 H257 0.959 . S
C193 C190 1.603 . S
C193 H258 0.960 . S
C193 H259 0.962 . S
C193 H260 0.961 . S
C194 C161 1.587 . S
C194 C195 1.360 . S
C194 C207 1.412 . S
C195 C194 1.360 . S
C195 C196 1.365 . S
C195 H261 0.929 . S
C196 C171 1.553 . S
C196 C195 1.365 . S
C196 C197 1.404 . S
C197 C196 1.404 . S
C197 C198 1.395 . S
C197 C208 1.451 . S
C198 C197 1.395 . S
C198 C199 1.322 . S
C198 H262 0.930 . S
C199 C198 1.322 . S
C199 C200 1.459 . S
C199 H263 0.929 . S
C200 C199 1.459 . S
C200 C201 1.445 . S
C200 C209 1.395 . S
C201 C179 1.432 . S
C201 C200 1.445 . S
C201 C202 1.370 . S
C202 C201 1.370 . S
C202 C203 1.438 . S
C202 H264 0.930 . S
C203 C189 1.497 . S
C203 C202 1.438 . S
C203 C204 1.360 . S
C204 C203 1.360 . S
C204 C205 1.401 . S
C204 C209 1.446 . S
C205 C204 1.401 . S
C205 C206 1.347 . S
C205 H265 0.929 . S
C206 C205 1.347 . S
C206 C207 1.455 . S
C206 H266 0.930 . S
C207 C194 1.412 . S
C207 C206 1.455 . S
C207 C208 1.331 . S
C208 C197 1.451 . S
C208 C207 1.331 . S
C208 C209 1.497 . S
C209 C200 1.395 . S
C209 C204 1.446 . S
C209 C208 1.497 . S
C210 C211 1.582 . S
C210 H267 0.962 . S
C210 H268 0.959 . S
C210 H269 0.958 . S
C211 C210 1.582 . S
C211 O214 1.458 . S
C211 H240 0.980 . S
O212 C157 1.426 . S
O212 C158 1.334 . S
O213 C185 1.412 . S
O213 C186 1.393 . S
O214 C176 1.435 . S
O214 C211 1.458 . S
O215 C167 1.468 . S
O215 C168 1.408 . S
H216 C157 0.980 . S
H217 C156 0.959 1_565 S
H218 C156 0.959 1_565 S
H219 C156 0.960 . S
H220 C159 0.929 . S
H221 C163 0.929 1_565 S
H222 C164 0.959 . S
H223 C164 0.961 . S
H224 C164 0.961 . S
H225 C165 0.960 . S
H226 C165 0.960 . S
H227 C165 0.961 . S
H228 C167 0.980 . S
H229 C166 0.961 . S
H230 C166 0.960 . S
H231 C166 0.959 . S
H232 C169 0.930 . S
H233 C173 0.931 . S
H234 C174 0.959 . S
H235 C174 0.961 . S
H236 C174 0.959 . S
H237 C175 0.960 . S
H238 C175 0.960 . S
H239 C175 0.960 . S
H240 C211 0.980 . S
H241 C177 0.930 . S
H242 C181 0.930 . S
H243 C182 0.961 . S
H244 C182 0.960 1_565 S
H245 C182 0.958 1_565 S
H246 C183 0.961 . S
H247 C183 0.960 . S
H248 C183 0.960 . S
H249 C185 0.980 . S
H250 C184 0.961 . S
H251 C184 0.961 . S
H252 C184 0.959 . S
H253 C187 0.932 1_565 S
H254 C191 0.929 . S
H255 C192 0.961 . S
H256 C192 0.959 . S
H257 C192 0.959 . S
H258 C193 0.960 . S
H259 C193 0.962 . S
H260 C193 0.961 . S
H261 C195 0.929 . S
H262 C198 0.930 . S
H263 C199 0.929 . S
H264 C202 0.930 . S
H265 C205 0.929 . S
H266 C206 0.930 . S
H267 C210 0.962 . S
H268 C210 0.959 . S
H269 C210 0.958 . S
C270 C271 1.560 . S
C270 H331 0.959 . S
C270 H332 0.959 . S
C270 H333 0.960 . S
C271 C270 1.560 . S
C271 O326 1.426 . S
C271 H330 0.980 . S
C272 C273 1.407 . S
C272 C277 1.418 . S
C272 O326 1.334 . S
C273 C272 1.407 . S
C273 C274 1.360 . S
C273 H334 0.929 . S
C274 C273 1.360 . S
C274 C275 1.401 . S
C274 C278 1.527 . S
C275 C274 1.401 . S
C275 C276 1.405 . S
C275 C308 1.587 . S
C276 C275 1.405 . S
C276 C277 1.332 . S
C276 C279 1.496 . S
C277 C272 1.418 . S
C277 C276 1.332 . S
C277 H335 0.929 . S
C278 C274 1.527 . S
C278 H336 0.959 . S
C278 H337 0.961 . S
C278 H338 0.961 . S
C279 C276 1.496 . S
C279 H339 0.960 . S
C279 H340 0.960 . S
C279 H341 0.961 . S
C280 C281 1.517 . S
C280 H343 0.961 . S
C280 H344 0.960 . S
C280 H345 0.959 . S
C281 C280 1.517 . S
C281 O329 1.468 . S
C281 H342 0.980 . S
C282 C283 1.349 . S
C282 C287 1.367 . S
C282 O329 1.408 . S
C283 C282 1.349 . S
C283 C284 1.407 . S
C283 H346 0.930 . S
C284 C283 1.407 . S
C284 C285 1.449 . S
C284 C288 1.535 . S
C285 C284 1.449 . S
C285 C286 1.384 . S
C285 C310 1.553 . S
C286 C285 1.384 . S
C286 C287 1.364 . S
C286 C289 1.450 . S
C287 C282 1.367 . S
C287 C286 1.364 . S
C287 H347 0.931 . S
C288 C284 1.535 . S
C288 H348 0.959 . S
C288 H349 0.961 . S
C288 H350 0.959 . S
C289 C286 1.450 . S
C289 H351 0.960 . S
C289 H352 0.960 . S
C289 H353 0.960 . S
C290 C291 1.309 . S
C290 C295 1.304 . S
C290 O328 1.435 . S
C291 C290 1.309 . S
C291 C292 1.476 . S
C291 H355 0.930 . S
C292 C291 1.476 . S
C292 C293 1.400 . S
C292 C296 1.567 . S
C293 C292 1.400 . S
C293 C294 1.373 . S
C293 C315 1.432 . S
C294 C293 1.373 . S
C294 C295 1.339 . S
C294 C297 1.530 . S
C295 C290 1.304 . S
C295 C294 1.339 . S
C295 H356 0.930 . S
C296 C292 1.567 . S
C296 H357 0.961 . S
C296 H358 0.960 . S
C296 H359 0.958 . S
C297 C294 1.530 . S
C297 H360 0.961 . S
C297 H361 0.960 . S
C297 H362 0.960 . S
C298 C299 1.530 . S
C298 H364 0.961 1_556 S
C298 H365 0.961 . S
C298 H366 0.959 1_556 S
C299 C298 1.530 . S
C299 O327 1.412 . S
C299 H363 0.980 . S
C300 C301 1.288 . S
C300 C305 1.377 . S
C300 O327 1.393 . S
C301 C300 1.288 . S
C301 C302 1.369 . S
C301 H367 0.932 . S
C302 C301 1.369 . S
C302 C303 1.398 . S
C302 C306 1.527 . S
C303 C302 1.398 . S
C303 C304 1.380 . S
C303 C317 1.497 . S
C304 C303 1.380 . S
C304 C305 1.383 . S
C304 C307 1.603 . S
C305 C300 1.377 . S
C305 C304 1.383 . S
C305 H368 0.929 . S
C306 C302 1.527 . S
C306 H369 0.961 . S
C306 H370 0.959 . S
C306 H371 0.959 . S
C307 C304 1.603 . S
C307 H372 0.960 . S
C307 H373 0.962 . S
C307 H374 0.961 . S
C308 C275 1.587 . S
C308 C309 1.360 . S
C308 C321 1.412 . S
C309 C308 1.360 . S
C309 C310 1.365 . S
C309 H375 0.929 . S
C310 C285 1.553 . S
C310 C309 1.365 . S
C310 C311 1.404 . S
C311 C310 1.404 . S
C311 C312 1.395 . S
C311 C322 1.451 . S
C312 C311 1.395 . S
C312 C313 1.322 . S
C312 H376 0.930 . S
C313 C312 1.322 . S
C313 C314 1.459 . S
C313 H377 0.929 . S
C314 C313 1.459 . S
C314 C315 1.445 . S
C314 C323 1.395 . S
C315 C293 1.432 . S
C315 C314 1.445 . S
C315 C316 1.370 . S
C316 C315 1.370 . S
C316 C317 1.438 . S
C316 H378 0.930 . S
C317 C303 1.497 . S
C317 C316 1.438 . S
C317 C318 1.360 . S
C318 C317 1.360 . S
C318 C319 1.401 . S
C318 C323 1.446 . S
C319 C318 1.401 . S
C319 C320 1.347 . S
C319 H379 0.929 . S
C320 C319 1.347 . S
C320 C321 1.455 . S
C320 H380 0.930 . S
C321 C308 1.412 . S
C321 C320 1.455 . S
C321 C322 1.331 . S
C322 C311 1.451 . S
C322 C321 1.331 . S
C322 C323 1.497 . S
C323 C314 1.395 . S
C323 C318 1.446 . S
C323 C322 1.497 . S
C324 C325 1.582 . S
C324 H381 0.962 1_556 S
C324 H382 0.959 . S
C324 H383 0.945 1_556 S
C325 C324 1.582 . S
C325 O328 1.458 . S
C325 H354 0.980 . S
O326 C271 1.426 . S
O326 C272 1.334 . S
O327 C299 1.412 . S
O327 C300 1.393 . S
O328 C290 1.435 . S
O328 C325 1.458 . S
O329 C281 1.468 . S
O329 C282 1.408 . S
H330 C271 0.980 . S
H331 C270 0.959 . S
H332 C270 0.959 . S
H333 C270 0.960 . S
H334 C273 0.929 . S
H335 C277 0.929 . S
H336 C278 0.959 . S
H337 C278 0.961 . S
H338 C278 0.961 . S
H339 C279 0.960 . S
H340 C279 0.960 . S
H341 C279 0.961 . S
H342 C281 0.980 . S
H343 C280 0.961 . S
H344 C280 0.960 . S
H345 C280 0.959 . S
H346 C283 0.930 . S
H347 C287 0.931 . S
H348 C288 0.959 . S
H349 C288 0.961 . S
H350 C288 0.959 . S
H351 C289 0.960 . S
H352 C289 0.960 . S
H353 C289 0.960 . S
H354 C325 0.980 . S
H355 C291 0.930 . S
H356 C295 0.930 . S
H357 C296 0.961 . S
H358 C296 0.960 . S
H359 C296 0.958 . S
H360 C297 0.961 . S
H361 C297 0.960 . S
H362 C297 0.960 . S
H363 C299 0.980 . S
H364 C298 0.961 1_554 S
H365 C298 0.961 . S
H366 C298 0.959 1_554 S
H367 C301 0.932 . S
H368 C305 0.929 . S
H369 C306 0.961 . S
H370 C306 0.959 . S
H371 C306 0.959 . S
H372 C307 0.960 . S
H373 C307 0.962 . S
H374 C307 0.961 . S
H375 C309 0.929 . S
H376 C312 0.930 . S
H377 C313 0.929 . S
H378 C316 0.930 . S
H379 C319 0.929 . S
H380 C320 0.930 . S
H381 C324 0.962 1_554 S
H382 C324 0.959 . S
H383 C324 0.945 1_554 S
C384 C385 1.387 . S
C384 H388 0.950 1_455 S
C384 C393 1.390 . S
C385 C384 1.387 . S
C385 C387 1.387 . S
H386 C393 0.950 1_655 S
C387 C385 1.387 . S
C387 C389 1.390 . S
C387 H391 0.950 . S
H388 C384 0.950 1_655 S
C389 C387 1.390 . S
C389 C390 1.387 . S
C389 H392 0.950 . S
C390 C389 1.387 . S
C390 C393 1.387 . S
H391 C387 0.950 . S
H392 C389 0.950 . S
C393 C384 1.390 . S
C393 H386 0.950 1_455 S
C393 C390 1.387 . S
C394 C395 1.387 1_565 S
C394 H398 0.950 . S
C394 C403 1.390 1_565 S
C395 C394 1.387 1_545 S
C395 C397 1.387 . S
H396 C403 0.950 1_565 S
C397 C395 1.387 . S
C397 C399 1.390 . S
C397 H401 0.950 . S
H398 C394 0.950 . S
C399 C397 1.390 . S
C399 C400 1.387 . S
C399 H402 0.950 . S
C400 C399 1.387 . S
C400 C403 1.387 . S
H401 C397 0.950 . S
H402 C399 0.950 . S
C403 C394 1.390 1_545 S
C403 H396 0.950 1_545 S
C403 C400 1.387 . S
C404 C405 1.387 . S
C404 H408 0.950 . S
C404 C413 1.390 . S
C405 C404 1.387 . S
C405 C407 1.387 . S
H406 C413 0.950 . S
C407 C405 1.387 . S
C407 C409 1.390 . S
C407 H411 0.950 . S
H408 C404 0.950 . S
C409 C407 1.390 . S
C409 C410 1.387 . S
C409 H412 0.950 . S
C410 C409 1.387 . S
C410 C413 1.387 . S
H411 C407 0.950 . S
H412 C409 0.950 . S
C413 C404 1.390 . S
C413 H406 0.950 . S
C413 C410 1.387 . S
C414 C415 1.387 . S
C414 H418 0.950 . S
C414 C423 1.390 . S
C415 C414 1.387 . S
C415 C417 1.387 . S
H416 C423 0.950 . S
C417 C415 1.387 . S
C417 C419 1.390 . S
C417 H421 0.950 . S
H418 C414 0.950 . S
C419 C417 1.390 . S
C419 C420 1.387 . S
C419 H422 0.950 . S
C420 C419 1.387 . S
C420 C423 1.387 . S
H421 C417 0.950 . S
H422 C419 0.950 . S
C423 C414 1.390 . S
C423 H416 0.950 . S
C423 C420 1.387 . S
C424 C425 1.387 . S
C424 H428 0.950 . S
C424 C433 1.390 . S
C425 C424 1.387 . S
C425 C427 1.387 . S
H426 C433 0.950 . S
C427 C425 1.387 . S
C427 C429 1.390 . S
C427 H431 0.950 . S
H428 C424 0.950 . S
C429 C427 1.390 . S
C429 C430 1.387 . S
C429 H432 0.950 . S
C430 C429 1.387 . S
C430 C433 1.387 . S
H431 C427 0.950 . S
H432 C429 0.950 . S
C433 C424 1.390 . S
C433 H426 0.950 . S
C433 C430 1.387 . S
C434 C435 1.387 . S
C434 H438 0.950 . S
C434 C443 1.390 . S
C435 C434 1.387 . S
C435 C437 1.387 . S
H436 C443 0.950 . S
C437 C435 1.387 . S
C437 C439 1.390 . S
C437 H441 0.950 . S
H438 C434 0.950 . S
C439 C437 1.390 . S
C439 C440 1.387 . S
C439 H442 0.950 . S
C440 C439 1.387 . S
C440 C443 1.387 . S
H441 C437 0.950 . S
H442 C439 0.950 . S
C443 C434 1.390 . S
C443 H436 0.950 . S
C443 C440 1.387 . S
C444 C445 1.387 . S
C444 H448 0.950 . S
C444 C453 1.390 . S
C445 C444 1.387 . S
C445 C447 1.387 . S
H446 C453 0.950 . S
C447 C445 1.387 . S
C447 C449 1.390 . S
C447 H451 0.950 . S
H448 C444 0.950 . S
C449 C447 1.390 . S
C449 C450 1.387 . S
C449 H452 0.950 . S
C450 C449 1.387 . S
C450 C453 1.387 . S
H451 C447 0.950 . S
H452 C449 0.950 . S
C453 C444 1.390 . S
C453 H446 0.950 . S
C453 C450 1.387 . S
C454 C455 1.387 . S
C454 H458 0.950 1_565 S
C454 C463 1.390 1_554 S
C455 C454 1.387 . S
C455 C457 1.387 . S
H456 C463 0.950 . S
C457 C455 1.387 . S
C457 C459 1.390 . S
C457 H461 0.950 . S
H458 C454 0.950 1_545 S
C459 C457 1.390 . S
C459 C460 1.387 . S
C459 H462 0.950 . S
C460 C459 1.387 . S
C460 C463 1.387 1_554 S
H461 C457 0.950 . S
H462 C459 0.950 . S
C463 C454 1.390 1_556 S
C463 H456 0.950 . S
C463 C460 1.387 1_556 S
C464 C465 1.387 . S
C464 H468 0.950 . S
C464 C473 1.390 . S
C465 C464 1.387 . S
C465 C467 1.391 . S
H466 C473 0.950 . S
C467 C465 1.391 . S
C467 C469 1.387 1_655 S
C467 H471 0.949 1_655 S
H468 C464 0.950 . S
C469 C467 1.387 1_455 S
C469 C470 1.387 . S
C469 H472 0.950 . S
C470 C469 1.387 . S
C470 C473 1.387 1_455 S
H471 C467 0.949 1_455 S
H472 C469 0.950 . S
C473 C464 1.390 . S
C473 H466 0.950 . S
C473 C470 1.387 1_655 S
C474 C475 1.387 . S
C474 H478 0.950 1_545 S
C474 C483 1.390 . S
C475 C474 1.387 . S
C475 C477 1.387 . S
H476 C483 0.950 1_565 S
C477 C475 1.387 . S
C477 C479 1.390 . S
C477 H481 0.950 . S
H478 C474 0.950 1_565 S
C479 C477 1.390 . S
C479 C480 1.387 . S
C479 H482 0.950 . S
C480 C479 1.387 . S
C480 C483 1.387 . S
H481 C477 0.950 . S
H482 C479 0.950 . S
C483 C474 1.390 . S
C483 H476 0.950 1_545 S
C483 C480 1.387 . S
C484 C485 1.387 . S
C484 H488 0.950 . S
C484 C493 1.390 . S
C485 C484 1.387 . S
C485 C487 1.387 . S
H486 C493 0.950 1_556 S
C487 C485 1.387 . S
C487 C489 1.390 . S
C487 H491 0.950 . S
H488 C484 0.950 . S
C489 C487 1.390 . S
C489 C490 1.387 1_554 S
C489 H492 0.950 1_554 S
C490 C489 1.387 1_556 S
C490 C493 1.387 1_556 S
H491 C487 0.950 . S
H492 C489 0.950 1_556 S
C493 C484 1.390 . S
C493 H486 0.950 1_554 S
C493 C490 1.387 1_554 S
C494 C495 1.387 . S
C494 H498 0.950 . S
C494 C503 1.390 . S
C495 C494 1.387 . S
C495 C497 1.387 . S
H496 C503 0.950 . S
C497 C495 1.387 . S
C497 C499 1.390 . S
C497 H501 0.950 . S
H498 C494 0.950 . S
C499 C497 1.390 . S
C499 C500 1.387 . S
C499 H502 0.950 . S
C500 C499 1.387 . S
C500 C503 1.387 . S
H501 C497 0.950 . S
H502 C499 0.950 . S
C503 C494 1.390 . S
C503 H496 0.950 . S
C503 C500 1.387 . S
C390 C97 1.127 . S
C385 C11 1.475 . S
C395 C26 1.600 . S
C400 C211 1.285 . S
C405 C40 1.289 . S
C410 C271 1.007 . S
C415 C5 1.236 . S
C420 C71 1.116 . S
C430 C185 1.156 . S
C425 C18 1.503 . S
C435 C32 1.387 . S
C440 C281 0.834 . S
C450 C167 0.790 . S
C445 C39 1.308 . S
C455 C4 1.382 1_565 S
C460 C299 1.087 1_554 S
C470 C43 1.008 1_455 S
C465 C19 1.147 . S
C480 C157 0.926 . S
C475 C33 1.112 . S
C490 C325 1.194 . S
C485 C12 1.494 . S
C495 C25 1.415 . S
C500 C53 0.797 . S
