# Generated by pormake.
# Topology eea, (3,6)-cn, num edge types: 1
# Building blocks:
#     Node 0, Type 0, BuildingBlock: PAMTOO_clean_linker_0, # of connection points: 3
#     Node 1, Type 0, BuildingBlock: PAMTOO_clean_linker_0, # of connection points: 3
#     Node 2, Type 0, BuildingBlock: PAMTOO_clean_linker_0, # of connection points: 3
#     Node 3, Type 0, BuildingBlock: PAMTOO_clean_linker_0, # of connection points: 3
#     Node 4, Type 0, BuildingBlock: PAMTOO_clean_linker_0, # of connection points: 3
#     Node 5, Type 0, BuildingBlock: PAMTOO_clean_linker_0, # of connection points: 3
#     Node 6, Type 0, BuildingBlock: PAMTOO_clean_linker_0, # of connection points: 3
#     Node 7, Type 0, BuildingBlock: PAMTOO_clean_linker_0, # of connection points: 3
#     Node 8, Type 0, BuildingBlock: PAMTOO_clean_linker_0, # of connection points: 3
#     Node 9, Type 0, BuildingBlock: PAMTOO_clean_linker_0, # of connection points: 3
#     Node 10, Type 0, BuildingBlock: PAMTOO_clean_linker_0, # of connection points: 3
#     Node 11, Type 0, BuildingBlock: PAMTOO_clean_linker_0, # of connection points: 3
#     Node 12, Type 0, BuildingBlock: PAMTOO_clean_linker_0, # of connection points: 3
#     Node 13, Type 0, BuildingBlock: PAMTOO_clean_linker_0, # of connection points: 3
#     Node 14, Type 0, BuildingBlock: PAMTOO_clean_linker_0, # of connection points: 3
#     Node 15, Type 0, BuildingBlock: PAMTOO_clean_linker_0, # of connection points: 3
#     Node 16, Type 0, BuildingBlock: PAMTOO_clean_linker_0, # of connection points: 3
#     Node 17, Type 0, BuildingBlock: PAMTOO_clean_linker_0, # of connection points: 3
#     Node 18, Type 1, BuildingBlock: HISSIN_clean_sbu_0, # of connection points: 6
#     Node 19, Type 1, BuildingBlock: HISSIN_clean_sbu_0, # of connection points: 6
#     Node 20, Type 1, BuildingBlock: HISSIN_clean_sbu_0, # of connection points: 6
#     Node 21, Type 1, BuildingBlock: HISSIN_clean_sbu_0, # of connection points: 6
#     Node 22, Type 1, BuildingBlock: HISSIN_clean_sbu_0, # of connection points: 6
#     Node 23, Type 1, BuildingBlock: HISSIN_clean_sbu_0, # of connection points: 6
#     Node 24, Type 1, BuildingBlock: HISSIN_clean_sbu_0, # of connection points: 6
#     Node 25, Type 1, BuildingBlock: HISSIN_clean_sbu_0, # of connection points: 6
#     Node 26, Type 1, BuildingBlock: HISSIN_clean_sbu_0, # of connection points: 6
#     Edge 27, Type (0, 1), BuildingBlock: XUDNAN_clean_linker_2, # of connection points: 2
#     Edge 28, Type (0, 1), BuildingBlock: XUDNAN_clean_linker_2, # of connection points: 2
#     Edge 29, Type (0, 1), BuildingBlock: XUDNAN_clean_linker_2, # of connection points: 2
#     Edge 30, Type (0, 1), BuildingBlock: XUDNAN_clean_linker_2, # of connection points: 2
#     Edge 31, Type (0, 1), BuildingBlock: XUDNAN_clean_linker_2, # of connection points: 2
#     Edge 32, Type (0, 1), BuildingBlock: XUDNAN_clean_linker_2, # of connection points: 2
#     Edge 33, Type (0, 1), BuildingBlock: XUDNAN_clean_linker_2, # of connection points: 2
#     Edge 34, Type (0, 1), BuildingBlock: XUDNAN_clean_linker_2, # of connection points: 2
#     Edge 35, Type (0, 1), BuildingBlock: XUDNAN_clean_linker_2, # of connection points: 2
#     Edge 36, Type (0, 1), BuildingBlock: XUDNAN_clean_linker_2, # of connection points: 2
#     Edge 37, Type (0, 1), BuildingBlock: XUDNAN_clean_linker_2, # of connection points: 2
#     Edge 38, Type (0, 1), BuildingBlock: XUDNAN_clean_linker_2, # of connection points: 2
#     Edge 39, Type (0, 1), BuildingBlock: XUDNAN_clean_linker_2, # of connection points: 2
#     Edge 40, Type (0, 1), BuildingBlock: XUDNAN_clean_linker_2, # of connection points: 2
#     Edge 41, Type (0, 1), BuildingBlock: XUDNAN_clean_linker_2, # of connection points: 2
#     Edge 42, Type (0, 1), BuildingBlock: XUDNAN_clean_linker_2, # of connection points: 2
#     Edge 43, Type (0, 1), BuildingBlock: XUDNAN_clean_linker_2, # of connection points: 2
#     Edge 44, Type (0, 1), BuildingBlock: XUDNAN_clean_linker_2, # of connection points: 2
#     Edge 45, Type (0, 1), BuildingBlock: XUDNAN_clean_linker_2, # of connection points: 2
#     Edge 46, Type (0, 1), BuildingBlock: XUDNAN_clean_linker_2, # of connection points: 2
#     Edge 47, Type (0, 1), BuildingBlock: XUDNAN_clean_linker_2, # of connection points: 2
#     Edge 48, Type (0, 1), BuildingBlock: XUDNAN_clean_linker_2, # of connection points: 2
#     Edge 49, Type (0, 1), BuildingBlock: XUDNAN_clean_linker_2, # of connection points: 2
#     Edge 50, Type (0, 1), BuildingBlock: XUDNAN_clean_linker_2, # of connection points: 2
#     Edge 51, Type (0, 1), BuildingBlock: XUDNAN_clean_linker_2, # of connection points: 2
#     Edge 52, Type (0, 1), BuildingBlock: XUDNAN_clean_linker_2, # of connection points: 2
#     Edge 53, Type (0, 1), BuildingBlock: XUDNAN_clean_linker_2, # of connection points: 2
#     Edge 54, Type (0, 1), BuildingBlock: XUDNAN_clean_linker_2, # of connection points: 2
#     Edge 55, Type (0, 1), BuildingBlock: XUDNAN_clean_linker_2, # of connection points: 2
#     Edge 56, Type (0, 1), BuildingBlock: XUDNAN_clean_linker_2, # of connection points: 2
#     Edge 57, Type (0, 1), BuildingBlock: XUDNAN_clean_linker_2, # of connection points: 2
#     Edge 58, Type (0, 1), BuildingBlock: XUDNAN_clean_linker_2, # of connection points: 2
#     Edge 59, Type (0, 1), BuildingBlock: XUDNAN_clean_linker_2, # of connection points: 2
#     Edge 60, Type (0, 1), BuildingBlock: XUDNAN_clean_linker_2, # of connection points: 2
#     Edge 61, Type (0, 1), BuildingBlock: XUDNAN_clean_linker_2, # of connection points: 2
#     Edge 62, Type (0, 1), BuildingBlock: XUDNAN_clean_linker_2, # of connection points: 2
#     Edge 63, Type (0, 1), BuildingBlock: XUDNAN_clean_linker_2, # of connection points: 2
#     Edge 64, Type (0, 1), BuildingBlock: XUDNAN_clean_linker_2, # of connection points: 2
#     Edge 65, Type (0, 1), BuildingBlock: XUDNAN_clean_linker_2, # of connection points: 2
#     Edge 66, Type (0, 1), BuildingBlock: XUDNAN_clean_linker_2, # of connection points: 2
#     Edge 67, Type (0, 1), BuildingBlock: XUDNAN_clean_linker_2, # of connection points: 2
#     Edge 68, Type (0, 1), BuildingBlock: XUDNAN_clean_linker_2, # of connection points: 2
#     Edge 69, Type (0, 1), BuildingBlock: XUDNAN_clean_linker_2, # of connection points: 2
#     Edge 70, Type (0, 1), BuildingBlock: XUDNAN_clean_linker_2, # of connection points: 2
#     Edge 71, Type (0, 1), BuildingBlock: XUDNAN_clean_linker_2, # of connection points: 2
#     Edge 72, Type (0, 1), BuildingBlock: XUDNAN_clean_linker_2, # of connection points: 2
#     Edge 73, Type (0, 1), BuildingBlock: XUDNAN_clean_linker_2, # of connection points: 2
#     Edge 74, Type (0, 1), BuildingBlock: XUDNAN_clean_linker_2, # of connection points: 2
#     Edge 75, Type (0, 1), BuildingBlock: XUDNAN_clean_linker_2, # of connection points: 2
#     Edge 76, Type (0, 1), BuildingBlock: XUDNAN_clean_linker_2, # of connection points: 2
#     Edge 77, Type (0, 1), BuildingBlock: XUDNAN_clean_linker_2, # of connection points: 2
#     Edge 78, Type (0, 1), BuildingBlock: XUDNAN_clean_linker_2, # of connection points: 2
#     Edge 79, Type (0, 1), BuildingBlock: XUDNAN_clean_linker_2, # of connection points: 2
#     Edge 80, Type (0, 1), BuildingBlock: XUDNAN_clean_linker_2, # of connection points: 2
# Relax obj value: 0.057
# Max RMSD: 0.207
# Mean RMSD: 0.146
data_MOF--net-eea--node1-HISSIN_clean_sbu_0--node2-PAMTOO_clean_linker_0--edge1-XUDNAN_clean_linker_2
_symmetry_space_group_name_H-M    P1
_symmetry_Int_Tables_number       1
_symmetry_cell_setting            triclinic
loop_
_symmetry_equiv_pos_as_xyz
'x, y, z'
_cell_length_a     54.641099
_cell_length_b     55.177328
_cell_length_c     68.407088
_cell_angle_alpha  93.152356
_cell_angle_beta   93.625211
_cell_angle_gamma 119.94305
loop_
_atom_site_label
_atom_site_type_symbol
_atom_site_fract_x
_atom_site_fract_y
_atom_site_fract_z
_atom_type_partial_charge
H0 H 0.26497 0.0902 0.42583 0.0
H1 H 0.24109 0.15317 0.42073 0.0
H2 H 0.23153 0.09932 0.36972 0.0
H3 H 0.24036 0.15916 0.3589 0.0
C4 C 0.24011 0.1646 0.37475 0.0
O5 O 0.22383 0.14003 0.38317 0.0
H6 H 0.26245 0.17603 0.38176 0.0
C7 C 0.25738 0.10118 0.41686 0.0
C8 C 0.24911 0.09233 0.39665 0.0
C9 C 0.25446 0.12303 0.42577 0.0
C10 C 0.24331 0.13617 0.41417 0.0
C11 C 0.23523 0.12768 0.39403 0.0
C12 C 0.23807 0.10582 0.3853 0.0
H13 H 0.9542 0.18465 0.43898 0.0
H14 H 0.88441 0.10043 0.43945 0.0
H15 H 0.92736 0.12434 0.38774 0.0
H16 H 0.86403 0.08348 0.37763 0.0
C17 C 0.86016 0.07784 0.39294 0.0
O18 O 0.88555 0.08421 0.40323 0.0
H19 H 0.85124 0.09016 0.39974 0.0
C20 C 0.94068 0.16372 0.43157 0.0
C21 C 0.94387 0.1575 0.41194 0.0
C22 C 0.91944 0.14327 0.44166 0.0
C23 C 0.90089 0.11648 0.43191 0.0
C24 C 0.90365 0.11005 0.41245 0.0
C25 C 0.92522 0.13024 0.40261 0.0
H26 H 0.85317 0.76714 0.45505 0.0
H27 H 0.93766 0.78298 0.44898 0.0
H28 H 0.89862 0.81216 0.40765 0.0
H29 H 0.92532 0.77989 0.39092 0.0
C30 C 0.9439 0.78814 0.40226 0.0
O31 O 0.94263 0.80634 0.4163 0.0
H32 H 0.94268 0.76986 0.40923 0.0
C33 C 0.87225 0.77671 0.44763 0.0
C34 C 0.87309 0.79101 0.43099 0.0
C35 C 0.89545 0.77395 0.45458 0.0
C36 C 0.91942 0.7847 0.44404 0.0
C37 C 0.92007 0.79765 0.42688 0.0
C38 C 0.89722 0.80121 0.42056 0.0
H39 H 0.04841 0.21647 0.59348 0.0
H40 H 0.13159 0.22644 0.59287 0.0
H41 H 0.08782 0.20041 0.64408 0.0
H42 H 0.15154 0.23394 0.65344 0.0
C43 C 0.15676 0.23071 0.63842 0.0
O44 O 0.1327 0.20935 0.62755 0.0
H45 H 0.1646 0.2507 0.63145 0.0
C46 C 0.06608 0.21577 0.60093 0.0
C47 C 0.06457 0.20739 0.62015 0.0
C48 C 0.09041 0.22334 0.59114 0.0
C49 C 0.11303 0.22153 0.60041 0.0
C50 C 0.11169 0.21288 0.61932 0.0
C51 C 0.08789 0.20636 0.62926 0.0
H52 H 0.76023 0.82167 0.60715 0.0
H53 H 0.75986 0.89914 0.60477 0.0
H54 H 0.7838 0.87909 0.65959 0.0
H55 H 0.74357 0.90035 0.66114 0.0
C56 C 0.75217 0.91581 0.65005 0.0
O57 O 0.77448 0.91492 0.64238 0.0
H58 H 0.73486 0.91014 0.63811 0.0
C59 C 0.76415 0.84135 0.6145 0.0
C60 C 0.77287 0.84781 0.63484 0.0
C61 C 0.7598 0.85983 0.60346 0.0
C62 C 0.76315 0.88461 0.61302 0.0
C63 C 0.77128 0.89106 0.63327 0.0
C64 C 0.77656 0.87304 0.64406 0.0
H65 H 0.16037 0.93458 0.59945 0.0
H66 H 0.08659 0.85194 0.59513 0.0
H67 H 0.11771 0.90166 0.65093 0.0
H68 H 0.09755 0.84025 0.65006 0.0
C69 C 0.07753 0.83265 0.64025 0.0
O70 O 0.07736 0.85486 0.63208 0.0
H71 H 0.07647 0.81747 0.62836 0.0
C72 C 0.1439 0.91777 0.60651 0.0
C73 C 0.14209 0.92139 0.6268 0.0
C74 C 0.12423 0.89269 0.59507 0.0
C75 C 0.10227 0.87113 0.6039 0.0
C76 C 0.09984 0.87468 0.62396 0.0
C77 C 0.11981 0.89953 0.63538 0.0
H78 H 0.90711 0.40661 0.75259 0.0
H79 H 0.91957 0.48997 0.75472 0.0
H80 H 0.90644 0.44383 0.69882 0.0
H81 H 0.94172 0.51222 0.69802 0.0
C82 C 0.93623 0.51438 0.71314 0.0
O83 O 0.91236 0.48979 0.71651 0.0
H84 H 0.95479 0.51911 0.72371 0.0
C85 C 0.9093 0.42417 0.74494 0.0
C86 C 0.90647 0.42201 0.72424 0.0
C87 C 0.91452 0.44873 0.75601 0.0
C88 C 0.9163 0.47118 0.74632 0.0
C89 C 0.91319 0.46918 0.72573 0.0
C90 C 0.90873 0.44491 0.71473 0.0
H91 H 0.61585 0.51384 0.77245 0.0
H92 H 0.53228 0.44055 0.76305 0.0
H93 H 0.59102 0.4545 0.72076 0.0
H94 H 0.53179 0.43323 0.70472 0.0
C95 C 0.52069 0.41937 0.71625 0.0
O96 O 0.54057 0.42046 0.73031 0.0
H97 H 0.50758 0.42706 0.72312 0.0
C98 C 0.60046 0.49465 0.76356 0.0
C99 C 0.60749 0.48635 0.74584 0.0
C100 C 0.57321 0.47842 0.76968 0.0
C101 C 0.55326 0.45334 0.75842 0.0
C102 C 0.55997 0.44473 0.741 0.0
C103 C 0.58677 0.46124 0.73466 0.0
H104 H 0.5131 0.11701 0.786 0.0
H105 H 0.58791 0.10942 0.78693 0.0
H106 H 0.5619 0.13557 0.73602 0.0
H107 H 0.58667 0.10422 0.72616 0.0
C108 C 0.60313 0.11029 0.7388 0.0
O109 O 0.60124 0.12816 0.75277 0.0
H110 H 0.59969 0.09107 0.74552 0.0
C111 C 0.53033 0.11771 0.77856 0.0
C112 C 0.53456 0.12674 0.75955 0.0
C113 C 0.54948 0.11144 0.78862 0.0
C114 C 0.57267 0.11369 0.77933 0.0
C115 C 0.57703 0.12256 0.7605 0.0
C116 C 0.55798 0.12876 0.75062 0.0
H117 H 0.72821 0.56083 0.93239 0.0
H118 H 0.79887 0.54877 0.92368 0.0
H119 H 0.7571 0.52447 0.97594 0.0
H120 H 0.81994 0.55143 0.98357 0.0
C121 C 0.82438 0.54764 0.9684 0.0
O122 O 0.79907 0.52889 0.95737 0.0
H123 H 0.83485 0.56804 0.96186 0.0
C124 C 0.74216 0.55323 0.93732 0.0
C125 C 0.73943 0.54195 0.95556 0.0
C126 C 0.76327 0.55556 0.92556 0.0
C127 C 0.78243 0.54724 0.93248 0.0
C128 C 0.78036 0.53657 0.95077 0.0
C129 C 0.75876 0.53357 0.96211 0.0
H130 H 0.44976 0.1734 0.9413 0.0
H131 H 0.4508 0.25133 0.93653 0.0
H132 H 0.47429 0.23365 0.99226 0.0
H133 H 0.43065 0.25163 0.99094 0.0
C134 C 0.44001 0.26753 0.98021 0.0
O135 O 0.46366 0.26784 0.97392 0.0
H136 H 0.42369 0.26152 0.96747 0.0
C137 C 0.45424 0.19361 0.94801 0.0
C138 C 0.46326 0.20113 0.96834 0.0
C139 C 0.44995 0.21161 0.93626 0.0
C140 C 0.45398 0.23705 0.94517 0.0
C141 C 0.46188 0.24431 0.96536 0.0
C142 C 0.46716 0.22685 0.97679 0.0
H143 H 0.8298 0.27359 0.93087 0.0
H144 H 0.74354 0.20489 0.92436 0.0
H145 H 0.787 0.24158 0.98222 0.0
H146 H 0.75261 0.17642 0.97225 0.0
C147 C 0.73363 0.17561 0.9645 0.0
O148 O 0.73905 0.2025 0.96222 0.0
H149 H 0.72923 0.16378 0.94978 0.0
C150 C 0.81084 0.25923 0.93739 0.0
C151 C 0.81127 0.26013 0.95792 0.0
C152 C 0.78657 0.23948 0.92519 0.0
C153 C 0.76232 0.22049 0.93366 0.0
C154 C 0.76239 0.22128 0.95421 0.0
C155 C 0.78686 0.24123 0.96636 0.0
H156 H 0.60987 0.76603 0.10028 0.0
H157 H 0.58645 0.8299 0.09887 0.0
H158 H 0.56461 0.77105 0.04826 0.0
H159 H 0.58745 0.82989 0.03938 0.0
C160 C 0.58103 0.83783 0.05223 0.0
O161 O 0.56391 0.81568 0.06253 0.0
H162 H 0.60075 0.8532 0.06173 0.0
C163 C 0.59971 0.77591 0.09267 0.0
C164 C 0.5868 0.7653 0.0733 0.0
C165 C 0.59985 0.79926 0.10218 0.0
C166 C 0.58682 0.81196 0.09196 0.0
C167 C 0.57447 0.80195 0.07256 0.0
C168 C 0.57409 0.77846 0.06334 0.0
H169 H 0.27593 0.83396 0.11025 0.0
H170 H 0.20251 0.75345 0.09081 0.0
H171 H 0.26589 0.79451 0.05168 0.0
H172 H 0.2055 0.76415 0.03123 0.0
C173 C 0.19553 0.75019 0.04294 0.0
O174 O 0.21663 0.75072 0.0555 0.0
H175 H 0.18345 0.75812 0.05102 0.0
C176 C 0.264 0.8167 0.09888 0.0
C177 C 0.27467 0.8174 0.08051 0.0
C178 C 0.2383 0.79357 0.10294 0.0
C179 C 0.22258 0.77134 0.08814 0.0
C180 C 0.2323 0.77215 0.06963 0.0
C181 C 0.25833 0.79489 0.06588 0.0
H182 H 0.1864 0.45331 0.11395 0.0
H183 H 0.26011 0.44495 0.12415 0.0
H184 H 0.24884 0.47977 0.07226 0.0
H185 H 0.26565 0.43323 0.07243 0.0
C186 C 0.28525 0.4472 0.08254 0.0
O187 O 0.28277 0.46806 0.0927 0.0
H188 H 0.28782 0.43392 0.0932 0.0
C189 C 0.20586 0.45562 0.10908 0.0
C190 C 0.21507 0.4673 0.09135 0.0
C191 C 0.22137 0.4467 0.12076 0.0
C192 C 0.24772 0.45158 0.11537 0.0
C193 C 0.25761 0.46385 0.09801 0.0
C194 C 0.24121 0.47131 0.08595 0.0
H195 H 0.39639 0.90051 0.26783 0.0
H196 H 0.47299 0.89791 0.26132 0.0
H197 H 0.42178 0.85618 0.30673 0.0
H198 H 0.48355 0.88524 0.3192 0.0
C199 C 0.49122 0.88574 0.30446 0.0
O200 O 0.46825 0.86868 0.29081 0.0
H201 H 0.50184 0.90784 0.30065 0.0
C202 C 0.41095 0.8935 0.27245 0.0
C203 C 0.40585 0.87757 0.28872 0.0
C204 C 0.4349 0.90078 0.2622 0.0
C205 C 0.45397 0.89201 0.26853 0.0
C206 C 0.44927 0.87629 0.28464 0.0
C207 C 0.42519 0.8688 0.29452 0.0
H208 H 0.12639 0.51397 0.26969 0.0
H209 H 0.10831 0.58134 0.26748 0.0
H210 H 0.12647 0.55925 0.32328 0.0
H211 H 0.0809 0.57509 0.32085 0.0
C212 C 0.09012 0.59103 0.31015 0.0
O213 O 0.11549 0.59376 0.30547 0.0
H214 H 0.07479 0.58391 0.29668 0.0
C215 C 0.12365 0.53011 0.27723 0.0
C216 C 0.12747 0.53435 0.29796 0.0
C217 C 0.11627 0.54662 0.2661 0.0
C218 C 0.11335 0.56796 0.27582 0.0
C219 C 0.11721 0.57245 0.29634 0.0
C220 C 0.12397 0.5556 0.30737 0.0
H221 H 0.48982 0.57822 0.25641 0.0
H222 H 0.41122 0.50916 0.2702 0.0
H223 H 0.45505 0.58411 0.31022 0.0
H224 H 0.43383 0.53205 0.32973 0.0
C225 C 0.41562 0.51751 0.31876 0.0
O226 O 0.41211 0.5328 0.30468 0.0
H227 H 0.42044 0.50184 0.31184 0.0
C228 C 0.47345 0.56937 0.26629 0.0
C229 C 0.47547 0.58524 0.28379 0.0
C230 C 0.45018 0.54223 0.26106 0.0
C231 C 0.42914 0.53023 0.2739 0.0
C232 C 0.43155 0.54513 0.29184 0.0
C233 C 0.45428 0.57267 0.2966 0.0
Eu234 Eu 0.48879 1.00058 1.00311 0.0
Eu235 Eu 0.51129 0.02107 0.0508 0.0
C236 C 0.49329 0.05654 0.02379 0.0
C237 C 0.47934 0.00386 0.94846 0.0
C238 C 0.49597 0.03327 0.9514 0.0
C239 C 0.48049 0.0061 0.91318 0.0
C240 C 0.50516 0.04899 0.93533 0.0
C241 C 0.47131 0.99039 0.92928 0.0
C242 C 0.49798 0.03554 0.91605 0.0
C243 C 0.47254 0.98722 0.96541 0.0
O244 O 0.46377 0.99685 0.04761 0.0
O245 O 0.45527 0.96756 0.0199 0.0
C246 C 0.448 0.9728 0.03689 0.0
O247 O 0.51114 0.97767 1.01212 0.0
O248 O 0.51049 0.04232 0.07831 0.0
O249 O 0.53507 0.02138 0.0779 0.0
O250 O 0.50636 0.97798 0.04519 0.0
C251 C 0.5112 0.96771 0.02906 0.0
O252 O 0.53223 0.0396 1.00408 0.0
O253 O 0.551 0.04078 0.0355 0.0
O254 O 0.51091 0.05794 0.03836 0.0
O255 O 0.49381 0.98615 0.97417 0.0
O256 O 0.4578 0.99163 0.97794 0.0
O257 O 0.47837 0.03401 1.01137 0.0
C258 C 0.51248 0.02012 0.10668 0.0
C259 C 0.52846 0.01366 0.12005 0.0
C260 C 0.47443 0.00248 0.12806 0.0
C261 C 0.51755 0.00173 0.13728 0.0
C262 C 0.4852 0.01413 0.11077 0.0
C263 C 0.49055 0.99632 0.14156 0.0
C264 C 0.52467 0.03347 0.08882 0.0
C265 C 0.55394 0.04908 0.0177 0.0
H266 H 0.50249 0.044 0.96615 0.0
H267 H 0.47486 0.99508 0.89855 0.0
H268 H 0.51827 0.07164 0.93803 0.0
H269 H 0.45868 0.96768 0.9268 0.0
H270 H 0.54953 0.01809 0.11726 0.0
H271 H 0.45341 0.9982 0.13086 0.0
H272 H 0.53053 0.99738 0.14748 0.0
H273 H 0.47218 0.0186 0.10069 0.0
Eu274 Eu 0.025 0.4897 0.9863 0.0
Eu275 Eu 0.01099 0.49484 0.03175 0.0
C276 C 0.98026 0.43667 1.0057 0.0
C277 C 0.01757 0.48023 0.93066 0.0
C278 C 0.98932 0.47406 0.93003 0.0
C279 C 0.01443 0.47848 0.89504 0.0
C280 C 0.97362 0.46995 0.91201 0.0
C281 C 0.03011 0.48258 0.91311 0.0
C282 C 0.98595 0.47194 0.8943 0.0
C283 C 0.03393 0.48429 0.94959 0.0
O284 O 0.04342 0.48069 0.03263 0.0
O285 O 0.06455 0.4991 1.00502 0.0
C286 C 0.0651 0.48965 0.02211 0.0
O287 O 0.0396 0.53522 0.99477 0.0
O288 O 0.99548 0.47444 0.05821 0.0
O289 O 0.00978 0.51882 0.05785 0.0
O290 O 0.04994 0.53606 0.02773 0.0
C291 C 0.05343 0.54909 1.01176 0.0
O292 O 0.98214 0.48632 0.98342 0.0
O293 O 0.98405 0.50772 0.01375 0.0
O294 O 0.97547 0.4537 0.01671 0.0
O295 O 0.04339 0.50844 0.95978 0.0
O296 O 0.02291 0.46348 0.96048 0.0
O297 O 1.00368 0.44654 0.99706 0.0
C298 C 0.01865 0.50379 0.08784 0.0
C299 C 0.01867 0.52286 0.10224 0.0
C300 C 0.04947 0.49597 0.1106 0.0
C301 C 0.03393 0.52845 0.12071 0.0
C302 C 0.03445 0.49062 0.09208 0.0
C303 C 0.04929 0.51486 0.12521 0.0
C304 C 1.00201 0.49782 0.06858 0.0
C305 C 0.97281 0.49863 0.99538 0.0
H306 H 0.97939 0.47228 0.94349 0.0
H307 H 0.0244 0.47982 0.88165 0.0
H308 H 0.95187 0.46529 0.91195 0.0
H309 H 0.05193 0.48737 0.91338 0.0
H310 H 0.00682 0.53342 0.09922 0.0
H311 H 0.06074 0.48485 0.11357 0.0
H312 H 0.03375 0.54354 0.13143 0.0
H313 H 0.035 0.47594 0.08117 0.0
Eu314 Eu 0.52819 0.52272 0.04234 0.0
Eu315 Eu 0.51112 0.52194 0.99481 0.0
C316 C 0.54446 0.57812 0.02291 0.0
C317 C 0.525 0.51883 0.09778 0.0
C318 C 0.49629 0.49783 0.0968 0.0
C319 C 0.52458 0.53032 0.13241 0.0
C320 C 0.48183 0.49298 0.11365 0.0
C321 C 0.539 0.53494 0.11566 0.0
C322 C 0.49581 0.50925 0.13168 0.0
C323 C 0.54039 0.52547 0.0802 0.0
O324 O 0.55648 0.53139 0.99713 0.0
O325 O 0.56139 0.51788 0.02781 0.0
C326 C 0.57038 0.52533 1.01057 0.0
O327 O 0.49645 0.47801 0.03113 0.0
O328 O 0.51956 0.54473 0.96877 0.0
O329 O 0.48467 0.50163 0.96688 0.0
O330 O 0.50705 0.47988 0.99921 0.0
C331 C 0.49671 0.46556 0.0143 0.0
O332 O 0.48799 0.52472 0.04092 0.0
O333 O 0.47029 0.50807 1.00854 0.0
O334 O 0.52135 0.56344 1.01074 0.0
O335 O 0.53575 0.50436 0.06784 0.0
O336 O 0.54129 0.54621 0.07136 0.0
O337 O 0.55554 0.56539 0.03239 0.0
C338 C 0.50728 0.51736 0.93778 0.0
C339 C 0.48531 0.5009 0.92286 0.0
C340 C 0.54169 0.52589 0.91418 0.0
C341 C 0.49135 0.49731 0.90373 0.0
C342 C 0.53561 0.52939 0.93339 0.0
C343 C 0.51958 0.51033 0.899 0.0
C344 C 0.49991 0.52314 0.95725 0.0
C345 C 0.46704 0.51413 0.02672 0.0
H346 H 0.48501 0.48539 0.08301 0.0
H347 H 0.53589 0.54382 0.14582 0.0
H348 H 0.45977 0.47651 0.11254 0.0
H349 H 0.56104 0.55151 0.1166 0.0
H350 H 0.46333 0.49131 0.92589 0.0
H351 H 0.56365 0.53624 0.91107 0.0
H352 H 0.4738 0.48463 0.89255 0.0
H353 H 0.55304 0.5421 0.94466 0.0
Eu354 Eu 0.16616 0.339 0.33741 0.0
Eu355 Eu 0.17568 0.35836 0.38542 0.0
C356 C 0.16216 0.39252 0.35412 0.0
C357 C 0.16296 0.33563 0.2808 0.0
C358 C 0.17905 0.36477 0.2798 0.0
C359 C 0.15362 0.32842 0.24524 0.0
C360 C 0.18237 0.37568 0.26152 0.0
C361 C 0.1504 0.31758 0.26345 0.0
C362 C 0.16947 0.35758 0.24405 0.0
C363 C 0.15895 0.32349 0.29968 0.0
O364 O 0.12858 0.33072 0.37786 0.0
O365 O 0.12811 0.30524 0.35 0.0
C366 C 0.11568 0.3086 0.36487 0.0
O367 O 0.18701 0.31731 0.35201 0.0
O368 O 0.16512 0.37472 0.4113 0.0
O369 O 0.19756 0.36307 0.41442 0.0
O370 O 0.17088 0.31546 0.38222 0.0
C371 C 0.18161 0.30658 0.36893 0.0
O372 O 0.20754 0.37996 0.34225 0.0
O373 O 0.21929 0.37884 0.37491 0.0
O374 O 0.17671 0.39424 0.37069 0.0
O375 O 0.18191 0.33014 0.31106 0.0
O376 O 0.13925 0.32361 0.30943 0.0
O377 O 0.15139 0.37038 0.3411 0.0
C378 C 0.16743 0.35277 0.4398 0.0
C379 C 0.18404 0.34859 0.4542 0.0
C380 C 0.12542 0.32302 0.45589 0.0
C381 C 0.17148 0.33156 0.46916 0.0
C382 C 0.13796 0.33981 0.44079 0.0
C383 C 0.14199 0.31854 0.47023 0.0
C384 C 0.18101 0.36961 0.42349 0.0
C385 C 0.22629 0.38864 0.35779 0.0
H386 H 0.18888 0.379 0.29313 0.0
H387 H 0.1438 0.3139 0.23205 0.0
H388 H 0.19453 0.39824 0.26106 0.0
H389 H 0.13805 0.29503 0.26399 0.0
H390 H 0.20676 0.35818 0.45369 0.0
H391 H 0.10275 0.31373 0.45637 0.0
H392 H 0.18491 0.32824 0.47968 0.0
H393 H 0.12448 0.34247 0.42986 0.0
Eu394 Eu 0.69355 0.82911 0.33175 0.0
Eu395 Eu 0.6617 0.81787 0.37272 0.0
C396 C 0.63653 0.77066 0.33593 0.0
C397 C 0.7065 0.83885 0.27819 0.0
C398 C 0.70935 0.82285 0.26279 0.0
C399 C 0.68361 0.85458 0.25455 0.0
C400 C 0.69924 0.82257 0.24343 0.0
C401 C 0.69339 0.85461 0.27391 0.0
C402 C 0.68639 0.83853 0.23913 0.0
C403 C 0.71658 0.83837 0.29861 0.0
O404 O 0.69062 0.79999 0.37555 0.0
O405 O 0.7231 0.82497 0.35424 0.0
C406 C 0.71583 0.80996 0.36935 0.0
O407 O 0.70825 0.87117 0.34837 0.0
O408 O 0.63761 0.79008 0.3943 0.0
O409 O 0.65051 0.83424 0.3983 0.0
O410 O 0.70434 0.85737 0.37936 0.0
C411 C 0.71546 0.87702 0.3674 0.0
O412 O 0.65321 0.82976 0.32368 0.0
O413 O 0.64397 0.8395 0.35457 0.0
O414 O 0.63041 0.78229 0.35062 0.0
O415 O 0.71959 0.85823 0.31147 0.0
O416 O 0.70492 0.81394 0.30554 0.0
O417 O 0.66163 0.78287 0.3294 0.0
C418 C 0.65247 0.81281 0.42685 0.0
C419 C 0.65702 0.83501 0.44047 0.0
C420 C 0.67447 0.79749 0.45148 0.0
C421 C 0.67071 0.83878 0.45928 0.0
C422 C 0.66098 0.79384 0.43265 0.0
C423 C 0.67994 0.82027 0.46492 0.0
C424 C 0.64051 0.81069 0.40642 0.0
C425 C 0.6397 0.83774 0.33529 0.0
H426 H 0.71929 0.81048 0.26577 0.0
H427 H 0.67344 0.86678 0.25167 0.0
H428 H 0.70178 0.81013 0.23178 0.0
H429 H 0.69052 0.86686 0.28551 0.0
H430 H 0.65065 0.84991 0.43637 0.0
H431 H 0.68076 0.7825 0.45547 0.0
H432 H 0.67479 0.85669 0.46919 0.0
H433 H 0.65772 0.77641 0.42256 0.0
Eu434 Eu 0.18802 0.84777 0.37183 0.0
Eu435 Eu 0.17233 0.84752 0.32414 0.0
C436 C 0.20685 0.90374 0.352 0.0
C437 C 0.18549 0.85017 0.42741 0.0
C438 C 0.16093 0.85232 0.42588 0.0
C439 C 0.1861 0.85321 0.463 0.0
C440 C 0.14939 0.85553 0.44281 0.0
C441 C 0.19769 0.85009 0.44603 0.0
C442 C 0.16222 0.85664 0.46159 0.0
C443 C 0.19982 0.85057 0.40987 0.0
O444 O 0.21725 0.85577 0.3273 0.0
O445 O 0.2196 0.83973 0.35738 0.0
C446 C 0.22974 0.8479 0.34049 0.0
O447 O 0.15438 0.80363 0.3606 0.0
O448 O 0.18306 0.8691 0.2975 0.0
O449 O 0.14533 0.82798 0.29646 0.0
O450 O 0.1653 0.80449 0.32884 0.0
C451 C 0.15371 0.79055 0.34381 0.0
O452 O 0.14978 0.85341 0.3702 0.0
O453 O 0.13222 0.83763 0.33766 0.0
O454 O 0.1842 0.8898 0.33934 0.0
O455 O 0.1887 0.82728 0.39824 0.0
O456 O 0.20722 0.87242 0.40013 0.0
O457 O 0.21665 0.89029 0.36198 0.0
C458 C 0.17007 0.83907 0.26826 0.0
C459 C 0.18416 0.82369 0.269 0.0
C460 C 0.17081 0.83781 0.23279 0.0
C461 C 0.19134 0.8152 0.25168 0.0
C462 C 0.16354 0.84617 0.2501 0.0
C463 C 0.18467 0.82211 0.23336 0.0
C464 C 0.16229 0.84801 0.28632 0.0
C465 C 0.12932 0.84457 0.35571 0.0
H466 H 0.15127 0.85246 0.41161 0.0
H467 H 0.19662 0.85424 0.47724 0.0
H468 H 0.1308 0.85778 0.44125 0.0
H469 H 0.21674 0.8486 0.44747 0.0
H470 H 0.18957 0.81824 0.28297 0.0
H471 H 0.16511 0.8432 0.21891 0.0
H472 H 0.20234 0.80346 0.25264 0.0
H473 H 0.15271 0.85809 0.2493 0.0
Eu474 Eu 0.83369 0.66411 0.67095 0.0
Eu475 Eu 0.8431 0.68603 0.7186 0.0
C476 C 0.82156 0.71302 0.68673 0.0
C477 C 0.83913 0.66357 0.61525 0.0
C478 C 0.82038 0.66521 0.60108 0.0
C479 C 0.87714 0.68666 0.59422 0.0
C480 C 0.82988 0.67741 0.58365 0.0
C481 C 0.86772 0.67469 0.61169 0.0
C482 C 0.85828 0.68793 0.57993 0.0
C483 C 0.82855 0.64933 0.63321 0.0
O484 O 0.7967 0.65331 0.71161 0.0
O485 O 0.79941 0.62803 0.6849 0.0
C486 C 0.78615 0.63005 0.69975 0.0
O487 O 0.86137 0.64983 0.68627 0.0
O488 O 0.83005 0.70113 0.74376 0.0
O489 O 0.86647 0.6955 0.74767 0.0
O490 O 0.846 0.64688 0.71686 0.0
C491 C 0.85898 0.64066 0.70375 0.0
O492 O 0.8726 0.70699 0.6744 0.0
O493 O 0.88619 0.71016 0.70738 0.0
O494 O 0.83793 0.71801 0.70304 0.0
O495 O 0.84722 0.64928 0.64601 0.0
O496 O 0.81003 0.65349 0.64168 0.0
O497 O 0.81334 0.69086 0.67413 0.0
C498 C 0.83672 0.68432 0.77363 0.0
C499 C 0.84926 0.67035 0.78275 0.0
C500 C 0.80076 0.66711 0.79661 0.0
C501 C 0.83749 0.6547 0.79848 0.0
C502 C 0.81259 0.68285 0.78093 0.0
C503 C 0.81296 0.6527 0.80546 0.0
C504 C 0.84824 0.69988 0.75637 0.0
C505 C 0.89194 0.7181 0.68964 0.0
H506 H 0.79823 0.65668 0.60335 0.0
H507 H 0.89923 0.69491 0.59188 0.0
H508 H 0.8148 0.67787 0.57284 0.0
H509 H 0.88284 0.6739 0.62228 0.0
H510 H 0.86797 0.67116 0.77759 0.0
H511 H 0.78213 0.66636 0.80187 0.0
H512 H 0.84727 0.64367 0.80491 0.0
H513 H 0.80264 0.69366 0.7744 0.0
Eu514 Eu 0.34691 0.15734 0.65972 0.0
Eu515 Eu 0.33446 0.16694 0.70521 0.0
C516 C 0.29803 0.10862 0.67972 0.0
C517 C 0.34554 0.15038 0.60372 0.0
C518 C 0.33549 0.16898 0.60078 0.0
C519 C 0.33451 0.13446 0.56886 0.0
C520 C 0.32496 0.17029 0.58193 0.0
C521 C 0.34517 0.1333 0.58767 0.0
C522 C 0.32408 0.15283 0.56576 0.0
C523 C 0.35474 0.14716 0.62354 0.0
O524 O 0.36347 0.14867 0.70725 0.0
O525 O 0.38446 0.16284 0.67887 0.0
C526 C 0.38451 0.15469 0.6965 0.0
O527 O 0.36601 0.20409 0.66673 0.0
O528 O 0.31724 0.14795 0.73183 0.0
O529 O 0.33612 0.19296 0.73105 0.0
O530 O 0.37503 0.20584 0.70008 0.0
C531 C 0.37978 0.21817 0.68373 0.0
O532 O 0.30936 0.16358 0.65591 0.0
O533 O 0.31027 0.18275 0.68702 0.0
O534 O 0.29625 0.12807 0.69025 0.0
O535 O 0.37215 0.17014 0.63478 0.0
O536 O 0.33473 0.1288 0.63299 0.0
O537 O 0.32114 0.11512 0.6713 0.0
C538 C 0.34175 0.17635 0.7611 0.0
C539 C 0.37032 0.1834 0.76236 0.0
C540 C 0.34245 0.17437 0.79644 0.0
C541 C 0.3849 0.18595 0.78061 0.0
C542 C 0.32794 0.17192 0.77821 0.0
C543 C 0.3711 0.18135 0.79787 0.0
C544 C 0.32576 0.17202 0.74194 0.0
C545 C 0.30099 0.17655 0.66814 0.0
H546 H 0.33542 0.18218 0.61308 0.0
H547 H 0.33368 0.12032 0.55688 0.0
H548 H 0.31739 0.18488 0.58005 0.0
H549 H 0.35255 0.11859 0.58975 0.0
H550 H 0.38123 0.18668 0.74922 0.0
H551 H 0.33101 0.17021 0.80936 0.0
H552 H 0.40701 0.19166 0.78119 0.0
H553 H 0.30579 0.16613 0.77743 0.0
Eu554 Eu 0.85008 0.17719 0.70751 0.0
Eu555 Eu 0.82973 0.16872 0.66012 0.0
C556 C 0.85562 0.22845 0.68467 0.0
C557 C 0.8559 0.19446 0.76266 0.0
C558 C 0.84063 0.20851 0.76012 0.0
C559 C 0.85257 0.19729 0.79781 0.0
C560 C 0.83126 0.21681 0.77636 0.0
C561 C 0.86198 0.18908 0.78157 0.0
C562 C 0.83686 0.211 0.79536 0.0
C563 C 0.8635 0.18336 0.74557 0.0
O564 O 0.87731 0.18716 0.66334 0.0
O565 O 0.88164 0.17012 0.69235 0.0
C566 C 0.89132 0.17987 0.67571 0.0
O567 O 0.82198 0.13068 0.69889 0.0
O568 O 0.8289 0.1873 0.63305 0.0
O569 O 0.80846 0.14204 0.63247 0.0
O570 O 0.83089 0.12992 0.6668 0.0
C571 C 0.82211 0.11705 0.68261 0.0
O572 O 0.81116 0.18126 0.70466 0.0
O573 O 0.78975 0.1536 0.67547 0.0
O574 O 0.83508 0.21008 0.67169 0.0
O575 O 0.84263 0.16055 0.73602 0.0
O576 O 0.87909 0.20143 0.73375 0.0
O577 O 0.8687 0.22065 0.69741 0.0
C578 C 0.83237 0.1627 0.60496 0.0
C579 C 0.81841 0.14062 0.58989 0.0
C580 C 0.87432 0.18303 0.58722 0.0
C581 C 0.83227 0.13969 0.5736 0.0
C582 C 0.86058 0.18377 0.60357 0.0
C583 C 0.86035 0.16103 0.57198 0.0
C584 C 0.8175 0.16345 0.62206 0.0
C585 C 0.78852 0.16577 0.69218 0.0
H586 H 0.83547 0.21253 0.74554 0.0
H587 H 0.8576 0.19291 0.81228 0.0
H588 H 0.81901 0.2271 0.77397 0.0
H589 H 0.8736 0.1781 0.78375 0.0
H590 H 0.79676 0.12402 0.59073 0.0
H591 H 0.89576 0.20004 0.58642 0.0
H592 H 0.821 0.12212 0.56237 0.0
H593 H 0.87205 0.20099 0.61505 0.0
H594 H 0.29285 0.84156 0.04572 0.0
H595 H 0.32192 0.84667 0.1073 0.0
H596 H 0.36824 0.88674 0.10243 0.0
H597 H 0.36016 0.85676 0.02773 0.0
H598 H 0.35736 0.87658 1.0085 0.0
H599 H 0.3257 0.84858 0.01674 0.0
H600 H 0.30764 0.88317 0.02409 0.0
H601 H 0.33928 0.9113 0.01596 0.0
H602 H 0.32967 0.91492 0.04022 0.0
H603 H 0.41034 0.92736 0.09185 0.0
H604 H 0.44813 0.96416 0.07523 0.0
H605 H 0.39503 0.93084 0.01947 0.0
C606 C 0.30898 0.85082 0.05817 0.0
C607 C 0.30318 0.84108 0.07706 0.0
C608 C 0.32514 0.85413 0.09286 0.0
C609 C 0.35177 0.87681 0.09021 0.0
C610 C 0.35655 0.886 0.07157 0.0
C611 C 0.33603 0.87323 0.05571 0.0
C612 C 0.34726 0.88701 0.03711 0.0
C613 C 0.34764 0.86598 0.0216 0.0
C614 C 0.32993 0.89986 0.02887 0.0
C615 C 0.37718 0.90969 0.04512 0.0
C616 C 0.38181 0.90875 0.0651 0.0
C617 C 0.40711 0.92815 0.07617 0.0
C618 C 0.42838 0.94907 0.0666 0.0
C619 C 0.42449 0.95029 0.04608 0.0
C620 C 0.39861 0.93018 0.03514 0.0
H621 H 0.15646 0.44108 0.08646 0.0
H622 H 0.23215 0.51012 0.06697 0.0
H623 H 0.20189 0.52192 0.0461 0.0
H624 H 0.11048 0.42103 0.04206 0.0
H625 H 0.07981 0.41459 0.05429 0.0
H626 H 0.10729 0.41027 0.06663 0.0
H627 H 0.11301 0.44526 0.09588 0.0
H628 H 0.08548 0.44963 0.08367 0.0
H629 H 0.11996 0.47988 0.09128 0.0
H630 H 0.1631 0.52599 0.02712 0.0
H631 H 0.11919 0.52421 0.01346 0.0
H632 H 0.06972 0.45595 0.04835 0.0
C633 C 0.16697 0.45901 0.07812 0.0
C634 C 0.19696 0.47458 0.0785 0.0
C635 C 0.20933 0.49738 0.06676 0.0
C636 C 0.1923 0.50443 0.05493 0.0
C637 C 0.16293 0.4888 0.05519 0.0
C638 C 0.15042 0.46679 0.06667 0.0
C639 C 0.11849 0.45414 0.06511 0.0
C640 C 0.10312 0.42317 0.05651 0.0
C641 C 0.10867 0.45744 0.08517 0.0
C642 C 0.11493 0.47242 0.05084 0.0
C643 C 0.14078 0.49206 0.0451 0.0
C644 C 0.14278 0.51081 0.0316 0.0
C645 C 0.11773 0.50956 0.02388 0.0
C646 C 0.09112 0.49 0.02991 0.0
C647 C 0.0898 0.47126 0.04359 0.0
H648 H 0.54255 0.71877 0.05171 0.0
H649 H 0.63162 0.75626 0.07315 0.0
H650 H 0.63138 0.71385 0.05942 0.0
H651 H 0.52181 0.65078 0.06297 0.0
H652 H 0.49674 0.63299 0.04147 0.0
H653 H 0.50455 0.66741 0.05101 0.0
H654 H 0.51855 0.68564 0.01703 0.0
H655 H 0.51072 0.65118 1.00735 0.0
H656 H 0.54521 0.68132 1.00569 0.0
H657 H 0.62047 0.66611 0.04677 0.0
H658 H 0.59963 0.61584 0.03553 0.0
H659 H 0.51789 0.60918 0.02112 0.0
C660 C 0.56215 0.71828 0.05308 0.0
C661 C 0.5871 0.74077 0.06353 0.0
C662 C 0.6122 0.73914 0.06539 0.0
C663 C 0.61232 0.71525 0.05751 0.0
C664 C 0.58725 0.69323 0.04765 0.0
C665 C 0.56265 0.69454 0.04528 0.0
C666 C 0.53813 0.66714 0.03521 0.0
C667 C 0.51389 0.6538 0.04846 0.0
C668 C 0.52754 0.6716 0.01513 0.0
C669 C 0.55263 0.64999 0.03283 0.0
C670 C 0.58103 0.66558 0.03997 0.0
C671 C 0.5984 0.65381 0.04081 0.0
C672 C 0.58636 0.62524 0.03446 0.0
C673 C 0.55726 0.60877 0.02728 0.0
C674 C 0.54034 0.62147 0.02611 0.0
H675 H 0.82283 0.30761 0.98084 0.0
H676 H 0.86029 0.25908 0.96037 0.0
H677 H 0.90783 0.29746 0.97424 0.0
H678 H 0.87429 0.37077 0.96801 0.0
H679 H 0.87469 0.39255 0.98881 0.0
H680 H 0.84309 0.35951 0.98082 0.0
H681 H 0.8428 0.34332 0.01568 0.0
H682 H 0.87428 0.37653 0.02388 0.0
H683 H 0.87398 0.34414 0.02693 0.0
H684 H 0.95139 0.34343 0.98501 0.0
H685 H 0.98817 0.39319 0.99392 0.0
H686 H 0.92302 0.41233 1.00817 0.0
C687 C 0.84097 0.30473 0.98011 0.0
C688 C 0.83805 0.2803 0.96998 0.0
C689 C 0.86224 0.27751 0.96845 0.0
C690 C 0.88926 0.2992 0.97624 0.0
C691 C 0.8917 0.32352 0.98556 0.0
C692 C 0.86819 0.32631 0.98778 0.0
C693 C 0.87703 0.35569 0.99664 0.0
C694 C 0.86666 0.37049 0.98274 0.0
C695 C 0.86639 0.35486 0.017 0.0
C696 C 0.9091 0.36922 0.99832 0.0
C697 C 0.91709 0.35021 0.99199 0.0
C698 C 0.94545 0.35836 0.99044 0.0
C699 C 0.96618 0.38669 0.99543 0.0
C700 C 0.95848 0.40651 1.00196 0.0
C701 C 0.92959 0.3975 1.00367 0.0
H702 H 0.68513 0.52925 0.94259 0.0
H703 H 0.74174 0.54864 0.996 0.0
H704 H 0.70393 0.54442 0.01583 0.0
H705 H 0.65532 0.57066 0.95921 0.0
H706 H 0.62038 0.54664 0.94699 0.0
H707 H 0.65121 0.54916 0.93705 0.0
H708 H 0.63018 0.49554 0.93811 0.0
H709 H 0.59933 0.49292 0.94812 0.0
H710 H 0.62 0.48041 0.96101 0.0
H711 H 0.65995 0.53828 0.02989 0.0
H712 H 0.61404 0.53343 0.03705 0.0
H713 H 0.58791 0.52207 0.97438 0.0
C714 C 0.68983 0.5329 0.95844 0.0
C715 C 0.71655 0.53915 0.96765 0.0
C716 C 0.72136 0.54323 0.98851 0.0
C717 C 0.70006 0.54108 0.99993 0.0
C718 C 0.67414 0.53513 0.99032 0.0
C719 C 0.66904 0.53133 0.97004 0.0
C720 C 0.63981 0.52633 0.9633 0.0
C721 C 0.64181 0.54959 0.95091 0.0
C722 C 0.62124 0.49706 0.95197 0.0
C723 C 0.6293 0.52805 0.98297 0.0
C724 C 0.64927 0.53278 0.99839 0.0
C725 C 0.64418 0.53467 0.01795 0.0
C726 C 0.61804 0.53182 0.02186 0.0
C727 C 0.59751 0.52752 1.00627 0.0
C728 C 0.60331 0.5256 0.9866 0.0
H729 H 0.48086 0.16373 0.95705 0.0
H730 H 0.45629 0.19438 1.00783 0.0
H731 H 0.46537 0.16379 0.02813 0.0
H732 H 0.444 0.09204 0.96779 0.0
H733 H 0.46994 0.08447 0.95864 0.0
H734 H 0.4645 0.11108 0.94858 0.0
H735 H 0.51813 0.14731 0.95692 0.0
H736 H 0.52357 0.12076 0.96714 0.0
H737 H 0.53419 0.15323 0.98186 0.0
H738 H 0.47753 0.12964 0.04323 0.0
H739 H 0.48564 0.09039 0.05046 0.0
H740 H 0.49565 0.07822 0.98901 0.0
C741 C 0.47703 0.16401 0.97236 0.0
C742 C 0.46822 0.18211 0.9807 0.0
C743 C 0.46395 0.18163 1.001 0.0
C744 C 0.46883 0.16408 0.01272 0.0
C745 C 0.47746 0.14662 1.00395 0.0
C746 C 0.481 0.14608 0.98414 0.0
C747 C 0.48821 0.12382 0.97791 0.0
C748 C 0.46529 0.10153 0.96231 0.0
C749 C 0.51779 0.13709 0.97053 0.0
C750 C 0.48798 0.11183 0.9973 0.0
C751 C 0.48237 0.12563 1.01227 0.0
C752 C 0.48175 0.11855 0.0316 0.0
C753 C 0.48646 0.09641 0.0356 0.0
C754 C 0.49097 0.08136 0.02024 0.0
C755 C 0.49194 0.08933 1.00094 0.0
H756 H 0.67721 0.14023 0.95059 0.0
H757 H 0.73384 0.17746 1.00453 0.0
H758 H 0.69364 0.15047 0.02395 0.0
H759 H 0.61486 0.13837 0.96994 0.0
H760 H 0.59011 0.10515 0.95618 0.0
H761 H 0.62291 0.12874 0.94661 0.0
H762 H 0.63529 0.08915 0.94383 0.0
H763 H 0.60263 0.06557 0.95349 0.0
H764 H 0.63601 0.07191 0.96532 0.0
H765 H 0.64855 0.11707 0.03725 0.0
H766 H 0.60069 0.08126 0.04403 0.0
H767 H 0.57233 0.06586 0.98148 0.0
C768 C 0.68097 0.14284 0.9665 0.0
C769 C 0.7086 0.1606 0.97615 0.0
C770 C 0.71284 0.16373 0.99695 0.0
C771 C 0.69016 0.14853 1.00805 0.0
C772 C 0.66332 0.13058 0.99811 0.0
C773 C 0.65849 0.12785 0.97782 0.0
C774 C 0.62767 0.10653 0.97083 0.0
C775 C 0.61303 0.12054 0.96027 0.0
C776 C 0.62528 0.08183 0.95759 0.0
C777 C 0.61609 0.09734 0.99034 0.0
C778 C 0.63704 0.11154 1.00586 0.0
C779 C 0.6319 0.106 0.02524 0.0
C780 C 0.60461 0.08547 0.02892 0.0
C781 C 0.58264 0.07068 0.01331 0.0
C782 C 0.58855 0.07689 0.99376 0.0
H783 H 0.85925 0.54938 0.99992 0.0
H784 H 0.83561 0.52194 0.93756 0.0
H785 H 0.8699 0.505 0.9379 0.0
H786 H 0.93332 0.57495 0.99878 0.0
H787 H 0.93791 0.56391 0.02238 0.0
H788 H 0.91051 0.5725 0.01743 0.0
H789 H 0.87273 0.52341 0.02626 0.0
H790 H 0.90004 0.51469 0.03126 0.0
H791 H 0.86979 0.49232 0.0137 0.0
H792 H 0.90708 0.49171 0.94499 0.0
H793 H 0.94572 0.48435 0.95792 0.0
H794 H 0.94603 0.52158 0.01565 0.0
C795 C 0.86106 0.53944 0.98642 0.0
C796 C 0.84429 0.53619 0.96882 0.0
C797 C 0.8478 0.52392 0.95128 0.0
C798 C 0.86724 0.51434 0.95134 0.0
C799 C 0.88323 0.51756 0.969 0.0
C800 C 0.88046 0.52991 0.9862 0.0
C801 C 0.90097 0.53182 1.00301 0.0
C802 C 0.92192 0.56262 1.01085 0.0
C803 C 0.88492 0.51452 0.01953 0.0
C804 C 0.91578 0.51868 0.99256 0.0
C805 C 0.90513 0.51049 0.97298 0.0
C806 C 0.91557 0.49802 0.96031 0.0
C807 C 0.93757 0.49394 0.96782 0.0
C808 C 0.94904 0.50242 0.98782 0.0
C809 C 0.9378 0.51485 1.0003 0.0
H810 H 0.46041 0.31625 0.96233 0.0
H811 H 0.43716 0.28306 0.01849 0.0
H812 H 0.44857 0.32998 0.03314 0.0
H813 H 0.51972 0.38409 0.98215 0.0
H814 H 0.51284 0.40294 0.96394 0.0
H815 H 0.50294 0.36678 0.95796 0.0
H816 H 0.45111 0.35423 0.94789 0.0
H817 H 0.46083 0.39032 0.95394 0.0
H818 H 0.43239 0.36276 0.96525 0.0
H819 H 0.46157 0.37997 0.04142 0.0
H820 H 0.4772 0.43041 0.04338 0.0
H821 H 0.49273 0.43154 0.98182 0.0
C822 C 0.4579 0.31904 0.97773 0.0
C823 C 0.44794 0.29622 0.98934 0.0
C824 C 0.44478 0.30038 1.00941 0.0
C825 C 0.45116 0.32688 0.01782 0.0
C826 C 0.46074 0.34894 1.00594 0.0
C827 C 0.46427 0.34538 0.98637 0.0
C828 C 0.47503 0.37261 0.9769 0.0
C829 C 0.50438 0.38217 0.96983 0.0
C830 C 0.45355 0.3698 0.96 0.0
C831 C 0.47692 0.39202 0.99421 0.0
C832 C 0.4685 0.3779 1.01078 0.0
C833 C 0.46828 0.39129 0.02856 0.0
C834 C 0.47716 0.41996 0.0295 0.0
C835 C 0.48622 0.435 0.01276 0.0
C836 C 0.48594 0.42069 0.99488 0.0
H837 H 0.16738 0.70301 0.06244 0.0
H838 H 0.17664 0.73102 1.00397 0.0
H839 H 0.1411 0.68278 0.98974 0.0
H840 H 0.15945 0.63483 0.0486 0.0
H841 H 0.13363 0.61711 0.06557 0.0
H842 H 0.15992 0.65377 0.07108 0.0
H843 H 0.11998 0.66552 0.0749 0.0
H844 H 0.09358 0.62891 0.0693 0.0
H845 H 0.09233 0.65479 0.05497 0.0
H846 H 0.10415 0.63194 0.98198 0.0
H847 H 0.06915 0.58143 0.98092 0.0
H848 H 0.08423 0.58599 0.0445 0.0
C849 C 0.16206 0.69882 0.04663 0.0
C850 C 0.17496 0.72053 0.03423 0.0
C851 C 0.16721 0.71454 0.01366 0.0
C852 C 0.14703 0.68727 1.00547 0.0
C853 C 0.13477 0.66628 0.01808 0.0
C854 C 0.14204 0.67167 0.03821 0.0
C855 C 0.12564 0.64532 0.04846 0.0
C856 C 0.14587 0.63729 0.05905 0.0
C857 C 0.10676 0.64886 0.06275 0.0
C858 C 0.10797 0.62429 0.03094 0.0
C859 C 0.11351 0.63687 0.01359 0.0
C860 C 0.09968 0.62183 0.99547 0.0
C861 C 0.07977 0.59312 0.99504 0.0
C862 C 0.0739 0.57966 0.01262 0.0
C863 C 0.08822 0.5956 0.0308 0.0
H864 H 0.34126 0.46684 0.09551 0.0
H865 H 0.28603 0.45682 0.04362 0.0
H866 H 0.32712 0.47557 0.02397 0.0
H867 H 0.40334 0.53225 0.08413 0.0
H868 H 0.42828 0.52237 0.0937 0.0
H869 H 0.39487 0.50986 0.10385 0.0
H870 H 0.38376 0.4586 0.09668 0.0
H871 H 0.41704 0.471 0.08644 0.0
H872 H 0.38434 0.44579 0.07199 0.0
H873 H 0.37332 0.49147 1.00949 0.0
H874 H 0.42184 0.50553 1.00146 0.0
H875 H 0.4474 0.50675 0.06307 0.0
C876 C 0.33799 0.46888 0.08004 0.0
C877 C 0.31055 0.46008 0.07093 0.0
C878 C 0.30691 0.46319 0.05074 0.0
C879 C 0.3301 0.47385 0.03952 0.0
C880 C 0.35682 0.48171 0.04881 0.0
C881 C 0.36095 0.47963 0.06866 0.0
C882 C 0.3917 0.48879 0.07493 0.0
C883 C 0.40535 0.51488 0.09004 0.0
C884 C 0.39435 0.4646 0.08297 0.0
C885 C 0.40405 0.49579 0.05542 0.0
C886 C 0.38361 0.49161 0.04055 0.0
C887 C 0.38961 0.49519 0.02106 0.0
C888 C 0.41719 0.5031 0.01662 0.0
C889 C 0.43848 0.50751 0.03164 0.0
C890 C 0.43176 0.50405 0.0513 0.0
H891 H 0.57283 0.87599 0.074 0.0
H892 H 0.5543 0.83231 0.0156 0.0
H893 H 0.53133 0.85858 1.00402 0.0
H894 H 0.50694 0.87953 0.07351 0.0
H895 H 0.52472 0.91407 0.08676 0.0
H896 H 0.53762 0.89022 0.09085 0.0
H897 H 0.58737 0.92761 0.08236 0.0
H898 H 0.57461 0.9515 0.07821 0.0
H899 H 0.59071 0.94234 0.05913 0.0
H900 H 0.51472 0.89237 0.9981 0.0
H901 H 0.50349 0.9304 0.99827 0.0
H902 H 0.53143 0.95178 0.06081 0.0
C903 C 0.56359 0.87183 0.05885 0.0
C904 C 0.56551 0.85247 0.04557 0.0
C905 C 0.55318 0.84729 0.02588 0.0
C906 C 0.54007 0.86203 0.01923 0.0
C907 C 0.53914 0.88152 0.03255 0.0
C908 C 0.55031 0.88629 0.052 0.0
C909 C 0.54748 0.90923 0.06303 0.0
C910 C 0.52803 0.89755 0.07951 0.0
C911 C 0.57679 0.93414 0.07115 0.0
C912 C 0.53366 0.91712 0.04661 0.0
C913 C 0.52894 0.90075 0.0292 0.0
C914 C 0.51796 0.90508 1.01169 0.0
C915 C 0.51178 0.92684 1.01193 0.0
C916 C 0.5165 0.94397 0.02957 0.0
C917 C 0.52724 0.93876 0.04718 0.0
H918 H 0.99718 0.20096 0.42712 0.0
H919 H 0.94194 0.16412 0.37227 0.0
H920 H 0.97973 0.19865 0.35439 0.0
H921 H 0.02653 0.2733 0.41528 0.0
H922 H 0.06126 0.28447 0.42743 0.0
H923 H 0.03021 0.25624 0.43608 0.0
H924 H 0.05144 0.22374 0.43226 0.0
H925 H 0.08258 0.25188 0.42369 0.0
H926 H 0.06245 0.2186 0.40884 0.0
H927 H 0.02465 0.23535 0.34207 0.0
H928 H 0.0721 0.27457 0.33679 0.0
H929 H 0.09555 0.2909 0.3999 0.0
C930 C 0.99263 0.20028 0.41141 0.0
C931 C 0.96643 0.17928 0.4012 0.0
C932 C 0.96196 0.17925 0.38052 0.0
C933 C 0.98324 0.19902 0.37018 0.0
C934 C 0.00874 0.21918 0.38072 0.0
C935 C 0.01336 0.22028 0.40092 0.0
C936 C 0.04244 0.24457 0.40879 0.0
C937 C 0.03994 0.26591 0.42272 0.0
C938 C 0.0608 0.23405 0.41899 0.0
C939 C 0.05357 0.25665 0.3898 0.0
C940 C 0.03391 0.24153 0.37375 0.0
C941 C 0.04004 0.24764 0.35453 0.0
C942 C 0.06698 0.26984 0.35166 0.0
C943 C 0.08713 0.2859 0.36794 0.0
C944 C 0.08023 0.2793 0.38723 0.0
H945 H 0.8521 0.79315 0.39326 0.0
H946 H 0.83915 0.79966 0.45499 0.0
H947 H 0.79731 0.80352 0.44552 0.0
H948 H 0.83344 0.84572 0.38011 0.0
H949 H 0.81666 0.82787 0.35605 0.0
H950 H 0.84535 0.82457 0.36747 0.0
H951 H 0.81324 0.77037 0.36338 0.0
H952 H 0.78438 0.7735 0.35209 0.0
H953 H 0.77952 0.75442 0.37343 0.0
H954 H 0.75546 0.80395 0.42978 0.0
H955 H 0.71908 0.80704 0.40872 0.0
H956 H 0.76114 0.80579 0.35722 0.0
C957 C 0.84077 0.79573 0.40486 0.0
C958 C 0.8488 0.7953 0.42493 0.0
C959 C 0.83307 0.79875 0.43948 0.0
C960 C 0.80931 0.80126 0.43428 0.0
C961 C 0.80173 0.801 0.41445 0.0
C962 C 0.81723 0.79891 0.39996 0.0
C963 C 0.80487 0.80026 0.37978 0.0
C964 C 0.82636 0.82615 0.3703 0.0
C965 C 0.79491 0.77301 0.36638 0.0
C966 C 0.77985 0.80312 0.38527 0.0
C967 C 0.77834 0.80311 0.40536 0.0
C968 C 0.75656 0.80429 0.41404 0.0
C969 C 0.73588 0.80585 0.40192 0.0
C970 C 0.73731 0.80669 0.38134 0.0
C971 C 0.75967 0.80538 0.37292 0.0
H972 H 0.20816 0.04737 0.37212 0.0
H973 H 0.29296 0.08194 0.40194 0.0
H974 H 0.29325 0.03888 0.39041 0.0
H975 H 0.1821 0.97954 0.38429 0.0
H976 H 0.16065 0.96222 0.36127 0.0
H977 H 0.16852 0.99712 0.36948 0.0
H978 H 0.18974 0.0148 0.33685 0.0
H979 H 0.18179 0.97983 0.32846 0.0
H980 H 0.21754 0.009 0.32921 0.0
H981 H 0.28217 0.99041 0.37927 0.0
H982 H 0.26075 0.93983 0.36881 0.0
H983 H 0.18347 0.93685 0.34546 0.0
C984 C 0.22712 0.04622 0.3757 0.0
C985 C 0.2506 0.06801 0.38784 0.0
C986 C 0.27471 0.06541 0.39272 0.0
C987 C 0.27514 0.04114 0.38614 0.0
C988 C 0.25138 0.01976 0.37458 0.0
C989 C 0.22788 0.02212 0.36926 0.0
C990 C 0.20422 0.99518 0.3581 0.0
C991 C 0.1773 0.98279 0.36894 0.0
C992 C 0.19797 1.0 0.33689 0.0
C993 C 0.21774 0.977 0.35853 0.0
C994 C 0.24505 0.9917 0.36794 0.0
C995 C 0.26102 0.97881 0.37156 0.0
C996 C 0.24862 0.95006 0.36563 0.0
C997 C 0.22056 0.93452 0.35618 0.0
C998 C 0.20517 0.94834 0.35228 0.0
H999 H 0.50272 0.61449 0.32028 0.0
H1000 H 0.50253 0.62393 0.25754 0.0
H1001 H 0.54424 0.67115 0.26432 0.0
H1002 H 0.52052 0.68673 0.33457 0.0
H1003 H 0.54188 0.68997 0.35683 0.0
H1004 H 0.51244 0.65612 0.34713 0.0
H1005 H 0.54621 0.6359 0.34658 0.0
H1006 H 0.5758 0.66974 0.3561 0.0
H1007 H 0.57719 0.65246 0.33341 0.0
H1008 H 0.58771 0.71592 0.27734 0.0
H1009 H 0.62665 0.75873 0.2964 0.0
H1010 H 0.59554 0.72364 0.35084 0.0
C1011 C 0.51108 0.6265 0.30792 0.0
C1012 C 0.49951 0.6148 0.28828 0.0
C1013 C 0.51146 0.63161 0.27267 0.0
C1014 C 0.53508 0.65871 0.27636 0.0
C1015 C 0.5462 0.66923 0.29577 0.0
C1016 C 0.53428 0.65399 0.31134 0.0
C1017 C 0.54982 0.67092 0.33086 0.0
C1018 C 0.52998 0.67625 0.34307 0.0
C1019 C 0.56304 0.65638 0.34241 0.0
C1020 C 0.5725 0.69786 0.32374 0.0
C1021 C 0.57021 0.69618 0.30341 0.0
C1022 C 0.58953 0.7177 0.29326 0.0
C1023 C 0.61163 0.7418 0.30418 0.0
C1024 C 0.61387 0.74439 0.325 0.0
C1025 C 0.59401 0.7222 0.33491 0.0
H1026 H 0.35219 0.86633 0.27449 0.0
H1027 H 0.40289 0.87422 0.32863 0.0
H1028 H 0.36234 0.86419 0.34727 0.0
H1029 H 0.31981 0.90263 0.29534 0.0
H1030 H 0.28609 0.8811 0.28079 0.0
H1031 H 0.31822 0.88626 0.27138 0.0
H1032 H 0.29698 0.8323 0.26636 0.0
H1033 H 0.26482 0.82703 0.27582 0.0
H1034 H 0.28415 0.8118 0.28689 0.0
H1035 H 0.31654 0.8545 0.36035 0.0
H1036 H 0.27011 0.84883 0.36697 0.0
H1037 H 0.25069 0.85078 0.30474 0.0
C1038 C 0.35498 0.86611 0.29027 0.0
C1039 C 0.38093 0.87085 0.29994 0.0
C1040 C 0.38319 0.86997 0.32065 0.0
C1041 C 0.36027 0.86448 0.33146 0.0
C1042 C 0.3352 0.86012 0.32145 0.0
C1043 C 0.33247 0.86108 0.30134 0.0
C1044 C 0.30379 0.8573 0.29429 0.0
C1045 C 0.3072 0.88338 0.2849 0.0
C1046 C 0.28641 0.83051 0.28 0.0
C1047 C 0.29094 0.85433 0.31362 0.0
C1048 C 0.30923 0.85564 0.32908 0.0
C1049 C 0.30204 0.85344 0.34836 0.0
C1050 C 0.27558 0.85015 0.35197 0.0
C1051 C 0.25678 0.84946 0.33641 0.0
C1052 C 0.26462 0.85138 0.31698 0.0
H1053 H 0.10911 0.47788 0.29066 0.0
H1054 H 0.16408 0.55127 0.33183 0.0
H1055 H 0.17707 0.52244 0.3514 0.0
H1056 H 0.08476 0.42665 0.32575 0.0
H1057 H 0.08549 0.39999 0.30976 0.0
H1058 H 0.07935 0.42605 0.29941 0.0
H1059 H 0.12183 0.44011 0.27877 0.0
H1060 H 0.12803 0.41403 0.28899 0.0
H1061 H 0.15624 0.45019 0.291 0.0
H1062 H 0.18465 0.48589 0.36631 0.0
H1063 H 0.18785 0.44463 0.37475 0.0
H1064 H 0.12978 0.39563 0.32299 0.0
C1065 C 0.12405 0.48803 0.3037 0.0
C1066 C 0.13537 0.5169 0.30973 0.0
C1067 C 0.1546 0.52911 0.32707 0.0
C1068 C 0.16228 0.51295 0.33825 0.0
C1069 C 0.15073 0.48462 0.33185 0.0
C1070 C 0.13218 0.47229 0.31492 0.0
C1071 C 0.12353 0.44162 0.31094 0.0
C1072 C 0.09138 0.42245 0.31151 0.0
C1073 C 0.13298 0.43618 0.29126 0.0
C1074 C 0.14022 0.43869 0.32826 0.0
C1075 C 0.1556 0.46368 0.34021 0.0
C1076 C 0.1727 0.46619 0.35707 0.0
C1077 C 0.17432 0.44259 0.36175 0.0
C1078 C 0.15908 0.41684 0.34954 0.0
C1079 C 0.14171 0.41496 0.33263 0.0
H1080 H 0.36134 0.48238 0.30125 0.0
H1081 H 0.41015 0.51649 0.35838 0.0
H1082 H 0.36679 0.48816 0.37464 0.0
H1083 H 0.29664 0.48001 0.31516 0.0
H1084 H 0.27349 0.4475 0.30007 0.0
H1085 H 0.30813 0.47138 0.29304 0.0
H1086 H 0.3201 0.43144 0.29197 0.0
H1087 H 0.28556 0.40752 0.29909 0.0
H1088 H 0.31703 0.41293 0.31343 0.0
H1089 H 0.31876 0.45443 0.38455 0.0
H1090 H 0.26897 0.41872 0.38757 0.0
H1091 H 0.25114 0.40722 0.32389 0.0
C1092 C 0.36269 0.48414 0.31718 0.0
C1093 C 0.38888 0.50188 0.32862 0.0
C1094 C 0.39015 0.50329 0.34941 0.0
C1095 C 0.36569 0.48726 0.35874 0.0
C1096 C 0.34017 0.46995 0.34705 0.0
C1097 C 0.33845 0.4684 0.32672 0.0
C1098 C 0.30854 0.44767 0.31759 0.0
C1099 C 0.29596 0.46254 0.30577 0.0
C1100 C 0.30778 0.42345 0.30477 0.0
C1101 C 0.2938 0.43758 0.33595 0.0
C1102 C 0.31242 0.45067 0.35278 0.0
C1103 C 0.30392 0.44418 0.37149 0.0
C1104 C 0.27561 0.42379 0.37304 0.0
C1105 C 0.2561 0.41021 0.35599 0.0
C1106 C 0.26543 0.41736 0.33723 0.0
H1107 H 0.51714 0.87642 0.33661 0.0
H1108 H 0.51463 0.8751 0.2731 0.0
H1109 H 0.55209 0.86215 0.27376 0.0
H1110 H 0.5921 0.90722 0.34628 0.0
H1111 H 0.59027 0.88699 0.36652 0.0
H1112 H 0.56252 0.89489 0.36086 0.0
H1113 H 0.52494 0.84176 0.35768 0.0
H1114 H 0.55257 0.83372 0.36344 0.0
H1115 H 0.52897 0.81777 0.34107 0.0
H1116 H 0.59056 0.85007 0.28169 0.0
H1117 H 0.62676 0.83997 0.29613 0.0
H1118 H 0.60414 0.85012 0.35453 0.0
C1119 C 0.52424 0.87303 0.32283 0.0
C1120 C 0.51268 0.87616 0.30475 0.0
C1121 C 0.52293 0.87225 0.28705 0.0
C1122 C 0.54421 0.865 0.2873 0.0
C1123 C 0.55514 0.86201 0.30541 0.0
C1124 C 0.54548 0.8659 0.32285 0.0
C1125 C 0.56115 0.86214 0.34038 0.0
C1126 C 0.57748 0.88944 0.35432 0.0
C1127 C 0.54069 0.83737 0.35128 0.0
C1128 C 0.58123 0.85559 0.33013 0.0
C1129 C 0.57744 0.85554 0.30997 0.0
C1130 C 0.59366 0.85003 0.29747 0.0
C1131 C 0.6142 0.84433 0.30582 0.0
C1132 C 0.6184 0.84427 0.32648 0.0
C1133 C 0.60162 0.85006 0.33869 0.0
H1134 H 0.11097 0.63945 0.29207 0.0
H1135 H 0.08169 0.6058 0.34718 0.0
H1136 H 0.09265 0.65286 0.36128 0.0
H1137 H 0.16964 0.70441 0.31323 0.0
H1138 H 0.16617 0.72485 0.29473 0.0
H1139 H 0.15419 0.68822 0.2886 0.0
H1140 H 0.10413 0.67918 0.27654 0.0
H1141 H 0.116 0.71583 0.28261 0.0
H1142 H 0.08542 0.68929 0.29288 0.0
H1143 H 0.10857 0.7038 0.36968 0.0
H1144 H 0.12894 0.75517 0.37212 0.0
H1145 H 0.14865 0.75579 0.31154 0.0
C1146 C 0.10662 0.64206 0.30703 0.0
C1147 C 0.09539 0.61916 0.31856 0.0
C1148 C 0.09017 0.62316 0.33813 0.0
C1149 C 0.09631 0.64975 0.34623 0.0
C1150 C 0.10765 0.67201 0.33453 0.0
C1151 C 0.11277 0.66845 0.31535 0.0
C1152 C 0.1262 0.69603 0.3062 0.0
C1153 C 0.1558 0.70383 0.30036 0.0
C1154 C 0.10677 0.69501 0.28851 0.0
C1155 C 0.12812 0.71572 0.3233 0.0
C1156 C 0.11714 0.70142 0.33944 0.0
C1157 C 0.1171 0.71521 0.3571 0.0
C1158 C 0.12875 0.74442 0.35833 0.0
C1159 C 0.1404 0.75957 0.34202 0.0
C1160 C 0.13985 0.74487 0.32426 0.0
H1161 H 0.83071 0.03811 0.3613 0.0
H1162 H 0.84143 0.04884 0.42509 0.0
H1163 H 0.80571 0.99846 0.42576 0.0
H1164 H 0.7554 0.99082 0.35604 0.0
H1165 H 0.75574 0.96998 0.33494 0.0
H1166 H 0.78253 0.00659 0.3396 0.0
H1167 H 0.82192 0.99345 0.3393 0.0
H1168 H 0.79524 0.9568 0.33461 0.0
H1169 H 0.82166 0.96864 0.3555 0.0
H1170 H 0.76877 0.94686 0.41925 0.0
H1171 H 0.73301 0.89818 0.40618 0.0
H1172 H 0.74618 0.92186 0.34658 0.0
C1173 C 0.82562 0.02976 0.37539 0.0
C1174 C 0.83893 0.04711 0.39317 0.0
C1175 C 0.83155 0.03565 0.41135 0.0
C1176 C 0.81132 0.00717 0.41185 0.0
C1177 C 0.79859 0.99055 0.39402 0.0
C1178 C 0.80542 0.00145 0.37614 0.0
C1179 C 0.78839 0.97926 0.3591 0.0
C1180 C 0.76938 0.98714 0.3467 0.0
C1181 C 0.80797 0.97425 0.34638 0.0
C1182 C 0.77092 0.95418 0.37018 0.0
C1183 C 0.77713 0.96106 0.3903 0.0
C1184 C 0.76372 0.94123 0.40352 0.0
C1185 C 0.74344 0.91364 0.39595 0.0
C1186 C 0.73671 0.90617 0.37535 0.0
C1187 C 0.75071 0.92684 0.36239 0.0
H1188 H 0.99769 0.80315 0.41818 0.0
H1189 H 0.95137 0.80497 0.365 0.0
H1190 H 0.99503 0.8235 0.34811 0.0
H1191 H 0.06615 0.8677 0.41198 0.0
H1192 H 0.08712 0.8533 0.42157 0.0
H1193 H 0.05309 0.84298 0.4302 0.0
H1194 H 0.03666 0.79067 0.42052 0.0
H1195 H 0.0706 0.80078 0.41195 0.0
H1196 H 0.0385 0.77956 0.39564 0.0
H1197 H 0.0418 0.83613 0.3359 0.0
H1198 H 0.08938 0.84472 0.32967 0.0
H1199 H 0.10626 0.83632 0.39102 0.0
C1200 C 0.99703 0.80806 0.40311 0.0
C1201 C 0.97125 0.80261 0.39282 0.0
C1202 C 0.97094 0.80901 0.37309 0.0
C1203 C 0.99562 0.81955 0.36341 0.0
C1204 C 0.02054 0.82393 0.37376 0.0
C1205 C 0.02156 0.81876 0.39325 0.0
C1206 C 0.05073 0.82398 0.40066 0.0
C1207 C 0.06512 0.84845 0.41708 0.0
C1208 C 0.049 0.79714 0.40759 0.0
C1209 C 0.06559 0.83191 0.3821 0.0
C1210 C 0.04783 0.83192 0.36679 0.0
C1211 C 0.05607 0.83668 0.34786 0.0
C1212 C 0.08309 0.84141 0.34444 0.0
C1213 C 0.10167 0.84149 0.35989 0.0
C1214 C 0.09282 0.83701 0.37901 0.0
H1215 H 0.23767 0.19955 0.34854 0.0
H1216 H 0.21678 0.17393 0.40688 0.0
H1217 H 0.19891 0.20673 0.41139 0.0
H1218 H 0.26194 0.27244 0.36087 0.0
H1219 H 0.2475 0.27687 0.33781 0.0
H1220 H 0.25789 0.25068 0.33886 0.0
H1221 H 0.20743 0.21224 0.32386 0.0
H1222 H 0.1969 0.23834 0.32273 0.0
H1223 H 0.177 0.20779 0.33557 0.0
H1224 H 0.18372 0.24245 0.40977 0.0
H1225 H 0.17301 0.27959 0.40239 0.0
H1226 H 0.20403 0.2825 0.34511 0.0
C1227 C 0.22902 0.20066 0.36215 0.0
C1228 C 0.22802 0.18374 0.37718 0.0
C1229 C 0.2173 0.18629 0.39503 0.0
C1230 C 0.2071 0.20489 0.39774 0.0
C1231 C 0.20807 0.22102 0.38255 0.0
C1232 C 0.21879 0.21918 0.36511 0.0
C1233 C 0.21801 0.2394 0.35133 0.0
C1234 C 0.24813 0.26113 0.34697 0.0
C1235 C 0.19868 0.22349 0.33225 0.0
C1236 C 0.20523 0.25291 0.36378 0.0
C1237 C 0.19961 0.24194 0.38171 0.0
C1238 C 0.18798 0.2512 0.39577 0.0
C1239 C 0.18198 0.27233 0.39143 0.0
C1240 C 0.18767 0.284 0.37317 0.0
C1241 C 0.1994 0.27402 0.35919 0.0
H1242 H 0.64159 0.54452 0.74948 0.0
H1243 H 0.63828 0.46813 0.72566 0.0
H1244 H 0.6824 0.49653 0.71067 0.0
H1245 H 0.66925 0.58503 0.7098 0.0
H1246 H 0.69285 0.61746 0.72485 0.0
H1247 H 0.66084 0.59134 0.73394 0.0
H1248 H 0.6902 0.59029 0.76481 0.0
H1249 H 0.7223 0.61667 0.75593 0.0
H1250 H 0.71904 0.5838 0.76179 0.0
H1251 H 0.72529 0.53291 0.69644 0.0
H1252 H 0.76733 0.5751 0.68729 0.0
H1253 H 0.74546 0.62808 0.7225 0.0
C1254 C 0.6503 0.53365 0.74144 0.0
C1255 C 0.63585 0.50387 0.73852 0.0
C1256 C 0.6482 0.49079 0.72768 0.0
C1257 C 0.67348 0.50677 0.71919 0.0
C1258 C 0.68668 0.53593 0.72194 0.0
C1259 C 0.67588 0.5493 0.73313 0.0
C1260 C 0.69472 0.58101 0.73413 0.0
C1261 C 0.67843 0.59449 0.72514 0.0
C1262 C 0.70731 0.59368 0.75543 0.0
C1263 C 0.71748 0.58328 0.72148 0.0
C1264 C 0.71227 0.557 0.71448 0.0
C1265 C 0.72976 0.55362 0.70199 0.0
C1266 C 0.7535 0.57773 0.69677 0.0
C1267 C 0.75976 0.60492 0.70419 0.0
C1268 C 0.74135 0.6076 0.71666 0.0
H1269 H 0.47648 0.10456 0.76019 0.0
H1270 H 0.55023 0.17005 0.73629 0.0
H1271 H 0.51966 0.18362 0.71795 0.0
H1272 H 0.42683 0.08476 0.71808 0.0
H1273 H 0.3977 0.08033 0.73144 0.0
H1274 H 0.42517 0.07528 0.74297 0.0
H1275 H 0.43449 0.11227 0.77182 0.0
H1276 H 0.40692 0.11732 0.76044 0.0
H1277 H 0.44223 0.14695 0.76665 0.0
H1278 H 0.48165 0.18855 0.70063 0.0
H1279 H 0.43816 0.18741 0.68731 0.0
H1280 H 0.38873 0.12198 0.72428 0.0
C1281 C 0.48631 0.12199 0.75131 0.0
C1282 C 0.51584 0.13572 0.74941 0.0
C1283 C 0.52764 0.15841 0.73753 0.0
C1284 C 0.51048 0.16655 0.72718 0.0
C1285 C 0.48155 0.15228 0.72911 0.0
C1286 C 0.46951 0.13081 0.7411 0.0
C1287 C 0.43775 0.11937 0.74066 0.0
C1288 C 0.42088 0.08808 0.73282 0.0
C1289 C 0.42989 0.12428 0.76111 0.0
C1290 C 0.43387 0.13745 0.72624 0.0
C1291 C 0.45949 0.15616 0.71974 0.0
C1292 C 0.46148 0.17423 0.70574 0.0
C1293 C 0.43662 0.17329 0.69818 0.0
C1294 C 0.41011 0.15464 0.70477 0.0
C1295 C 0.40876 0.13661 0.71911 0.0
H1296 H 0.92651 0.38641 0.73256 0.0
H1297 H 0.86999 0.39641 0.69049 0.0
H1298 H 0.85468 0.34966 0.6737 0.0
H1299 H 0.94501 0.3448 0.69902 0.0
H1300 H 0.94431 0.32271 0.71769 0.0
H1301 H 0.95409 0.35866 0.72457 0.0
H1302 H 0.91466 0.34178 0.74817 0.0
H1303 H 0.90468 0.30584 0.74132 0.0
H1304 H 0.87853 0.31657 0.73868 0.0
H1305 H 0.8418 0.30016 0.66361 0.0
H1306 H 0.8321 0.2514 0.66092 0.0
H1307 H 0.89526 0.27272 0.71062 0.0
C1308 C 0.9111 0.37895 0.71971 0.0
C1309 C 0.89957 0.39525 0.71283 0.0
C1310 C 0.87961 0.38467 0.69585 0.0
C1311 C 0.87064 0.35803 0.68626 0.0
C1312 C 0.88181 0.34223 0.69381 0.0
C1313 C 0.90167 0.35232 0.71012 0.0
C1314 C 0.90857 0.33027 0.71629 0.0
C1315 C 0.93985 0.33968 0.71426 0.0
C1316 C 0.90115 0.3232 0.73736 0.0
C1317 C 0.8889 0.30594 0.70121 0.0
C1318 C 0.87396 0.31341 0.68823 0.0
C1319 C 0.85359 0.29415 0.67355 0.0
C1320 C 0.84819 0.26645 0.67219 0.0
C1321 C 0.86294 0.25819 0.68555 0.0
C1322 C 0.88377 0.27837 0.70009 0.0
H1323 H 0.19948 0.95489 0.62386 0.0
H1324 H 0.13151 0.94944 0.65651 0.0
H1325 H 0.16517 0.9948 0.67539 0.0
H1326 H 0.25675 0.98959 0.66386 0.0
H1327 H 0.28236 0.01175 0.64807 0.0
H1328 H 0.25359 0.97754 0.63829 0.0
H1329 H 0.23838 1.00016 0.61144 0.0
H1330 H 0.26711 0.03439 0.6211 0.0
H1331 H 0.23117 0.02771 0.61867 0.0
H1332 H 0.20519 0.04191 0.68934 0.0
H1333 H 0.24858 0.08819 0.69688 0.0
H1334 H 0.29045 0.06418 0.65442 0.0
C1335 C 0.1916 0.96316 0.63498 0.0
C1336 C 0.16276 0.94832 0.63874 0.0
C1337 C 0.15354 0.95995 0.65358 0.0
C1338 C 0.17249 0.98584 0.66433 0.0
C1339 C 0.20063 0.99995 0.6601 0.0
C1340 C 0.21018 0.98908 0.64576 0.0
C1341 C 0.24113 0.00925 0.64337 0.0
C1342 C 0.25954 0.99625 0.64872 0.0
C1343 C 0.24464 0.01842 0.6224 0.0
C1344 C 0.24733 0.03338 0.65838 0.0
C1345 C 0.22373 0.02742 0.66798 0.0
C1346 C 0.22387 0.04675 0.68201 0.0
C1347 C 0.24866 0.07302 0.68617 0.0
C1348 C 0.273 0.07986 0.67628 0.0
C1349 C 0.27233 0.05954 0.66237 0.0
H1350 H 0.02766 0.2282 0.61711 0.0
H1351 H 0.04198 0.16789 0.64674 0.0
H1352 H 1.00069 0.15603 0.66487 0.0
H1353 H 1.00288 0.25175 0.65639 0.0
H1354 H 0.97555 0.25315 0.64115 0.0
H1355 H 0.00709 0.25805 0.6309 0.0
H1356 H 0.97623 0.2174 0.60362 0.0
H1357 H 0.94458 0.2125 0.61371 0.0
H1358 H 0.95072 0.18341 0.61046 0.0
H1359 H 0.95871 0.15154 0.68063 0.0
H1360 H 0.91606 0.15144 0.69062 0.0
H1361 H 0.92597 0.2109 0.64842 0.0
C1362 C 0.02206 0.21219 0.62716 0.0
C1363 C 0.03874 0.19944 0.6306 0.0
C1364 C 0.03042 0.17881 0.64418 0.0
C1365 C 0.00672 0.17165 0.65447 0.0
C1366 C 0.99104 0.18478 0.65078 0.0
C1367 C 0.99803 0.20424 0.63722 0.0
C1368 C 0.97688 0.2144 0.63546 0.0
C1369 C 0.99148 0.24622 0.64133 0.0
C1370 C 0.96118 0.20645 0.61458 0.0
C1371 C 0.95714 0.19784 0.65037 0.0
C1372 C 0.96587 0.18108 0.65916 0.0
C1373 C 0.95153 0.16441 0.67376 0.0
C1374 C 0.92741 0.16461 0.6794 0.0
C1375 C 0.91766 0.18112 0.67028 0.0
C1376 C 0.93281 0.19795 0.65558 0.0
H1377 H 0.79318 0.81344 0.62204 0.0
H1378 H 0.7646 0.83756 0.67365 0.0
H1379 H 0.77453 0.80618 0.69253 0.0
H1380 H 0.75976 0.7398 0.63015 0.0
H1381 H 0.78779 0.73574 0.62085 0.0
H1382 H 0.7798 0.76124 0.61163 0.0
H1383 H 0.83218 0.80042 0.62103 0.0
H1384 H 0.84032 0.77507 0.63034 0.0
H1385 H 0.84792 0.80587 0.64602 0.0
H1386 H 0.78969 0.77377 0.70622 0.0
H1387 H 0.80496 0.7394 0.71288 0.0
H1388 H 0.81761 0.73214 0.65138 0.0
C1389 C 0.78846 0.81193 0.6372 0.0
C1390 C 0.77825 0.82837 0.64628 0.0
C1391 C 0.77309 0.82589 0.66635 0.0
C1392 C 0.77841 0.80788 0.67721 0.0
C1393 C 0.78835 0.79202 0.66772 0.0
C1394 C 0.79291 0.79355 0.6481 0.0
C1395 C 0.80276 0.77359 0.64119 0.0
C1396 C 0.78124 0.75127 0.625 0.0
C1397 C 0.83256 0.78971 0.63424 0.0
C1398 C 0.80328 0.76076 0.66007 0.0
C1399 C 0.79525 0.77195 0.67527 0.0
C1400 C 0.79562 0.76456 0.69439 0.0
C1401 C 0.80438 0.74515 0.69804 0.0
C1402 C 0.81204 0.73302 0.68257 0.0
C1403 C 0.8113 0.74078 0.66335 0.0
H1404 H 0.02196 0.79714 0.62568 0.0
H1405 H 0.07616 0.8366 0.68037 0.0
H1406 H 0.03432 0.81307 0.69908 0.0
H1407 H 0.96173 0.80194 0.64055 0.0
H1408 H 0.93579 0.76841 0.6277 0.0
H1409 H 0.9699 0.78874 0.61871 0.0
H1410 H 0.97818 0.74648 0.62006 0.0
H1411 H 0.94404 0.72609 0.62896 0.0
H1412 H 0.97553 0.73072 0.64281 0.0
H1413 H 0.98674 0.78366 0.71176 0.0
H1414 H 0.93696 0.75112 0.71748 0.0
H1415 H 0.91384 0.73188 0.6543 0.0
C1416 C 0.0249 0.80071 0.6416 0.0
C1417 C 0.0522 0.81825 0.65167 0.0
C1418 C 0.05539 0.82289 0.67247 0.0
C1419 C 0.03178 0.80971 0.68317 0.0
C1420 C 1.00514 0.79225 0.67281 0.0
C1421 C 1.00155 0.78782 0.65248 0.0
C1422 C 0.9707 0.76792 0.64491 0.0
C1423 C 0.95884 0.78264 0.63222 0.0
C1424 C 0.9669 0.74122 0.63352 0.0
C1425 C 0.95756 0.76157 0.66416 0.0
C1426 C 0.97773 0.77583 0.68009 0.0
C1427 C 0.97072 0.77254 0.69939 0.0
C1428 C 0.94239 0.754 0.70249 0.0
C1429 C 0.92142 0.73905 0.68637 0.0
C1430 C 0.92923 0.74321 0.66698 0.0
H1431 H 0.18489 0.22456 0.67115 0.0
H1432 H 0.18 0.21974 0.60744 0.0
H1433 H 0.21661 0.20575 0.60809 0.0
H1434 H 0.26112 0.25331 0.67957 0.0
H1435 H 0.2588 0.23368 0.70027 0.0
H1436 H 0.23244 0.2435 0.69477 0.0
H1437 H 0.19271 0.19128 0.69311 0.0
H1438 H 0.21895 0.1813 0.69857 0.0
H1439 H 0.19418 0.16541 0.67673 0.0
H1440 H 0.2523 0.19085 0.61562 0.0
H1441 H 0.28633 0.17775 0.6294 0.0
H1442 H 0.26919 0.19344 0.68851 0.0
C1443 C 0.19166 0.22064 0.65738 0.0
C1444 C 0.17964 0.22304 0.6392 0.0
C1445 C 0.18899 0.21787 0.62146 0.0
C1446 C 0.20971 0.20994 0.62171 0.0
C1447 C 0.221 0.20752 0.63985 0.0
C1448 C 0.21248 0.21289 0.65738 0.0
C1449 C 0.22808 0.20878 0.67485 0.0
C1450 C 0.24618 0.23647 0.68815 0.0
C1451 C 0.20723 0.1853 0.68649 0.0
C1452 C 0.24654 0.20007 0.6644 0.0
C1453 C 0.24203 0.19942 0.64422 0.0
C1454 C 0.25612 0.19142 0.6314 0.0
C1455 C 0.27536 0.18392 0.63941 0.0
C1456 C 0.28052 0.18459 0.66007 0.0
C1457 C 0.2659 0.19288 0.67268 0.0
H1458 H 0.77215 0.96378 0.63152 0.0
H1459 H 0.75494 0.93337 0.68901 0.0
H1460 H 0.77146 0.98171 0.70378 0.0
H1461 H 0.83617 0.02955 0.64812 0.0
H1462 H 0.82887 0.04909 0.63071 0.0
H1463 H 0.81573 0.01215 0.6248 0.0
H1464 H 0.76449 0.00329 0.61844 0.0
H1465 H 0.7775 0.04019 0.62433 0.0
H1466 H 0.74993 0.01463 0.63743 0.0
H1467 H 0.789 0.0332 0.71202 0.0
H1468 H 0.80701 0.08422 0.71331 0.0
H1469 H 0.81355 0.08091 0.65038 0.0
C1470 C 0.77193 0.96744 0.64722 0.0
C1471 C 0.76225 0.94505 0.65918 0.0
C1472 C 0.76224 0.95036 0.67965 0.0
C1473 C 0.77158 0.97768 0.68813 0.0
C1474 C 0.78097 0.99935 0.67592 0.0
C1475 C 0.7813 0.99455 0.65591 0.0
C1476 C 0.79244 0.02146 0.64605 0.0
C1477 C 0.81994 0.02847 0.63689 0.0
C1478 C 0.76973 0.01978 0.63066 0.0
C1479 C 0.79814 0.04214 0.66361 0.0
C1480 C 0.79139 0.02899 0.6807 0.0
C1481 C 0.79446 0.04374 0.69874 0.0
C1482 C 0.80467 0.07271 0.69932 0.0
C1483 C 0.81176 0.0866 0.68197 0.0
C1484 C 0.80848 0.07099 0.66393 0.0
H1485 H 0.49021 0.37232 0.7354 0.0
H1486 H 0.50668 0.39961 0.67702 0.0
H1487 H 0.47285 0.35111 0.6623 0.0
H1488 H 0.48382 0.30398 0.72424 0.0
H1489 H 0.45581 0.28651 0.73979 0.0
H1490 H 0.48177 0.32322 0.74564 0.0
H1491 H 0.44141 0.33501 0.74566 0.0
H1492 H 0.41536 0.29836 0.73973 0.0
H1493 H 0.41599 0.32399 0.72422 0.0
H1494 H 0.43611 0.29991 0.65399 0.0
H1495 H 0.40009 0.24953 0.65266 0.0
H1496 H 0.40819 0.25546 0.71657 0.0
C1497 C 0.48688 0.36792 0.71953 0.0
C1498 C 0.50128 0.38953 0.70732 0.0
C1499 C 0.49608 0.38323 0.68661 0.0
C1500 C 0.47689 0.35579 0.67813 0.0
C1501 C 0.46306 0.33492 0.69058 0.0
C1502 C 0.4679 0.34062 0.71084 0.0
C1503 C 0.45007 0.31446 0.7209 0.0
C1504 C 0.469 0.30658 0.73337 0.0
C1505 C 0.42949 0.31819 0.73336 0.0
C1506 C 0.4343 0.29321 0.70314 0.0
C1507 C 0.44206 0.30543 0.6858 0.0
C1508 C 0.42997 0.29008 0.66748 0.0
C1509 C 0.40946 0.26147 0.66689 0.0
C1510 C 0.4013 0.24845 0.68449 0.0
C1511 C 0.41401 0.26467 0.70282 0.0
H1512 H 0.62874 0.08564 0.71928 0.0
H1513 H 0.64216 0.1675 0.74031 0.0
H1514 H 0.68961 0.1902 0.72872 0.0
H1515 H 0.69878 0.09973 0.73193 0.0
H1516 H 0.70004 0.08057 0.71018 0.0
H1517 H 0.66652 0.07057 0.71946 0.0
H1518 H 0.64678 0.07593 0.68553 0.0
H1519 H 0.68032 0.08602 0.67616 0.0
H1520 H 0.6655 0.10872 0.67482 0.0
H1521 H 0.7371 0.20383 0.71805 0.0
H1522 H 0.78082 0.20776 0.70661 0.0
H1523 H 0.7362 0.11793 0.6898 0.0
C1524 C 0.64171 0.10834 0.72137 0.0
C1525 C 0.63202 0.12465 0.73123 0.0
C1526 C 0.64929 0.15439 0.73331 0.0
C1527 C 0.67627 0.16755 0.72665 0.0
C1528 C 0.68544 0.15081 0.71746 0.0
C1529 C 0.6686 0.1219 0.71453 0.0
C1530 C 0.6838 0.1089 0.70433 0.0
C1531 C 0.6875 0.08876 0.71725 0.0
C1532 C 0.66816 0.09402 0.684 0.0
C1533 C 0.71206 0.135 0.70246 0.0
C1534 C 0.71249 0.15893 0.71018 0.0
C1535 C 0.73687 0.18536 0.7116 0.0
C1536 C 0.76156 0.18739 0.70512 0.0
C1537 C 0.76156 0.16323 0.69705 0.0
C1538 C 0.73641 0.13677 0.69543 0.0
H1539 H 0.92139 0.539 0.68432 0.0
H1540 H 0.93467 0.54059 0.74761 0.0
H1541 H 0.91756 0.57425 0.7522 0.0
H1542 H 0.94279 0.61396 0.68384 0.0
H1543 H 0.91626 0.60678 0.66382 0.0
H1544 H 0.93148 0.58448 0.66566 0.0
H1545 H 0.88101 0.54107 0.66492 0.0
H1546 H 0.86568 0.56326 0.66332 0.0
H1547 H 0.85803 0.54067 0.68285 0.0
H1548 H 0.89512 0.60412 0.7498 0.0
H1549 H 0.8723 0.63142 0.74072 0.0
H1550 H 0.87518 0.61177 0.67886 0.0
C1551 C 0.92134 0.54705 0.69911 0.0
C1552 C 0.92978 0.53774 0.71565 0.0
C1553 C 0.92873 0.54798 0.73481 0.0
C1554 C 0.91897 0.56696 0.73754 0.0
C1555 C 0.91047 0.57551 0.72092 0.0
C1556 C 0.91191 0.5662 0.70207 0.0
C1557 C 0.90069 0.578 0.68673 0.0
C1558 C 0.92421 0.59694 0.67428 0.0
C1559 C 0.87482 0.55434 0.6737 0.0
C1560 C 0.89224 0.59498 0.69989 0.0
C1561 C 0.89799 0.59318 0.71955 0.0
C1562 C 0.89085 0.60599 0.73447 0.0
C1563 C 0.87774 0.6213 0.72915 0.0
C1564 C 0.87209 0.62381 0.70909 0.0
C1565 C 0.87951 0.61047 0.69432 0.0
H1566 H 0.45702 0.89596 0.22802 0.0
H1567 H 0.4257 0.94501 0.25786 0.0
H1568 H 0.43499 0.97355 0.22982 0.0
H1569 H 0.51467 0.95432 0.20886 0.0
H1570 H 0.51156 0.93459 0.18602 0.0
H1571 H 0.50101 0.91699 0.20798 0.0
H1572 H 0.45103 0.88257 0.19002 0.0
H1573 H 0.46141 0.90009 0.168 0.0
H1574 H 0.43051 0.89637 0.17864 0.0
H1575 H 0.44806 0.99711 0.19861 0.0
H1576 H 0.46568 0.01506 0.16707 0.0
H1577 H 0.49068 0.95228 0.15837 0.0
C1578 C 0.45226 0.9128 0.22879 0.0
C1579 C 0.44037 0.91798 0.24519 0.0
C1580 C 0.4342 0.9401 0.24535 0.0
C1581 C 0.43961 0.95661 0.22953 0.0
C1582 C 0.45138 0.95093 0.21368 0.0
C1583 C 0.45778 0.92967 0.21323 0.0
C1584 C 0.47107 0.92842 0.1947 0.0
C1585 C 0.50138 0.93392 0.1997 0.0
C1586 C 0.45238 0.90019 0.1821 0.0
C1587 C 0.47129 0.95242 0.18483 0.0
C1588 C 0.45961 0.96498 0.19595 0.0
C1589 C 0.45724 0.98744 0.18979 0.0
C1590 C 0.46718 0.9974 0.17182 0.0
C1591 C 0.47954 0.98507 0.1603 0.0
C1592 C 0.48156 0.96227 0.16696 0.0
H1593 H 0.07161 0.54187 0.24249 0.0
H1594 H 0.14974 0.53977 0.24076 0.0
H1595 H 0.14153 0.53182 0.20436 0.0
H1596 H 0.03148 0.48733 0.2031 0.0
H1597 H 0.0125 0.50388 0.1937 0.0
H1598 H 0.0249 0.50971 0.21948 0.0
H1599 H 0.05209 0.56352 0.21724 0.0
H1600 H 0.03986 0.55785 0.19143 0.0
H1601 H 0.07735 0.57793 0.1994 0.0
H1602 H 0.12507 0.52523 0.16807 0.0
H1603 H 0.10076 0.51836 0.13486 0.0
H1604 H 0.03236 0.52272 0.16085 0.0
C1605 C 0.08707 0.53991 0.23442 0.0
C1606 C 0.11137 0.54155 0.24435 0.0
C1607 C 0.13091 0.53842 0.23337 0.0
C1608 C 0.12649 0.53404 0.21273 0.0
C1609 C 0.10233 0.53265 0.20339 0.0
C1610 C 0.08286 0.5353 0.2139 0.0
C1611 C 0.05833 0.53241 0.20041 0.0
C1612 C 0.03014 0.50681 0.20441 0.0
C1613 C 0.05684 0.55955 0.20223 0.0
C1614 C 0.06709 0.52787 0.18063 0.0
C1615 C 0.09257 0.5282 0.18262 0.0
C1616 C 0.10499 0.52472 0.16634 0.0
C1617 C 0.09091 0.52066 0.14753 0.0
C1618 C 0.06453 0.51989 0.14515 0.0
C1619 C 0.05264 0.52359 0.16203 0.0
H1620 H 0.49043 0.53363 0.24583 0.0
H1621 H 0.40518 0.51874 0.23253 0.0
H1622 H 0.40482 0.50205 0.19809 0.0
H1623 H 0.51635 0.56223 0.20391 0.0
H1624 H 0.53835 0.54683 0.20071 0.0
H1625 H 0.52992 0.55245 0.2249 0.0
H1626 H 0.50917 0.49969 0.22957 0.0
H1627 H 0.51787 0.4939 0.20542 0.0
H1628 H 0.48196 0.47338 0.21158 0.0
H1629 H 0.41739 0.49539 0.16406 0.0
H1630 H 0.44058 0.49677 0.13399 0.0
H1631 H 0.5167 0.51349 0.17006 0.0
C1632 C 0.4714 0.52605 0.23577 0.0
C1633 C 0.44779 0.52732 0.24174 0.0
C1634 C 0.42331 0.51753 0.22823 0.0
C1635 C 0.42297 0.50811 0.20867 0.0
C1636 C 0.44709 0.50815 0.20302 0.0
C1637 C 0.47065 0.51637 0.21632 0.0
C1638 C 0.49474 0.51679 0.20631 0.0
C1639 C 0.52139 0.54633 0.20913 0.0
C1640 C 0.50131 0.49461 0.21366 0.0
C1641 C 0.48163 0.50892 0.18516 0.0
C1642 C 0.45405 0.50369 0.18352 0.0
C1643 C 0.43871 0.49869 0.16521 0.0
C1644 C 0.45206 0.49942 0.14818 0.0
C1645 C 0.48052 0.50519 0.14957 0.0
C1646 C 0.49503 0.50923 0.16839 0.0
H1647 H 0.95987 0.48805 0.78088 0.0
H1648 H 0.87747 0.41276 0.77965 0.0
H1649 H 0.88524 0.41289 0.8157 0.0
H1650 H 0.99529 0.46751 0.81437 0.0
H1651 H 0.0184 0.50202 0.82701 0.0
H1652 H 1.00492 0.49834 0.80168 0.0
H1653 H 0.98392 0.52999 0.81065 0.0
H1654 H 0.99755 0.53397 0.83603 0.0
H1655 H 0.96029 0.52107 0.82966 0.0
H1656 H 0.90344 0.41899 0.85108 0.0
H1657 H 0.93119 0.42994 0.88347 0.0
H1658 H 1.00236 0.50088 0.86167 0.0
C1659 C 0.94324 0.47207 0.78835 0.0
C1660 C 0.91796 0.45056 0.7777 0.0
C1661 C 0.8969 0.42945 0.78772 0.0
C1662 C 0.9011 0.42942 0.80813 0.0
C1663 C 0.92654 0.45059 0.81821 0.0
C1664 C 0.94727 0.47154 0.80869 0.0
C1665 C 0.97363 0.4904 0.82268 0.0
C1666 C 0.99958 0.48949 0.81603 0.0
C1667 C 0.97916 0.52065 0.82489 0.0
C1668 C 0.96468 0.47645 0.84144 0.0
C1669 C 0.93732 0.45375 0.8386 0.0
C1670 C 0.92476 0.43693 0.85357 0.0
C1671 C 0.94066 0.44337 0.87193 0.0
C1672 C 0.96889 0.46632 0.87511 0.0
C1673 C 0.98088 0.48314 0.85966 0.0
H1674 H 0.59516 0.48706 0.80848 0.0
H1675 H 0.53071 0.49007 0.7701 0.0
H1676 H 0.51208 0.50147 0.79902 0.0
H1677 H 0.55071 0.45287 0.84512 0.0
H1678 H 0.57727 0.47156 0.86576 0.0
H1679 H 0.58777 0.46674 0.8421 0.0
H1680 H 0.62095 0.52056 0.84271 0.0
H1681 H 0.61066 0.52553 0.86645 0.0
H1682 H 0.60669 0.54352 0.84636 0.0
H1683 H 0.49863 0.50964 0.83161 0.0
H1684 H 0.49054 0.51381 0.86629 0.0
H1685 H 0.5623 0.50366 0.88438 0.0
C1686 C 0.57756 0.49078 0.80626 0.0
C1687 C 0.56447 0.48803 0.78714 0.0
C1688 C 0.54104 0.4923 0.78468 0.0
C1689 C 0.53037 0.49879 0.80099 0.0
C1690 C 0.5433 0.50083 0.81969 0.0
C1691 C 0.56639 0.49701 0.82249 0.0
C1692 C 0.57499 0.49859 0.84429 0.0
C1693 C 0.57253 0.47078 0.84962 0.0
C1694 C 0.60511 0.52354 0.8503 0.0
C1695 C 0.55283 0.5034 0.85323 0.0
C1696 C 0.535 0.50488 0.83871 0.0
C1697 C 0.51247 0.50854 0.84313 0.0
C1698 C 0.50789 0.51062 0.8629 0.0
C1699 C 0.52555 0.50876 0.87814 0.0
C1700 C 0.54853 0.50537 0.87314 0.0
H1701 H 0.5015 0.07348 0.80452 0.0
H1702 H 0.59107 0.13406 0.81943 0.0
H1703 H 0.58707 0.12251 0.85386 0.0
H1704 H 0.47765 0.08605 0.85055 0.0
H1705 H 0.45154 0.04954 0.85134 0.0
H1706 H 0.46112 0.06332 0.82799 0.0
H1707 H 0.47391 0.02514 0.81861 0.0
H1708 H 0.4644 0.01126 0.84192 0.0
H1709 H 0.49924 0.02182 0.83474 0.0
H1710 H 0.5738 0.10393 0.88636 0.0
H1711 H 0.55248 0.0782 0.91473 0.0
H1712 H 0.47135 0.02949 0.879 0.0
C1713 C 0.52017 0.08446 0.8151 0.0
C1714 C 0.54662 0.10459 0.80933 0.0
C1715 C 0.57068 0.11832 0.82351 0.0
C1716 C 0.56858 0.11205 0.84311 0.0
C1717 C 0.54228 0.09197 0.84831 0.0
C1718 C 0.51849 0.0783 0.83475 0.0
C1719 C 0.49302 0.05686 0.8441 0.0
C1720 C 0.46944 0.0644 0.84346 0.0
C1721 C 0.482 0.027 0.83426 0.0
C1722 C 0.50628 0.0605 0.86498 0.0
C1723 C 0.53465 0.08103 0.86711 0.0
C1724 C 0.55155 0.08794 0.88493 0.0
C1725 C 0.53918 0.07332 0.901 0.0
C1726 C 0.51019 0.05193 0.89915 0.0
C1727 C 0.49358 0.04563 0.88087 0.0
H1728 H 0.13469 0.26967 0.57855 0.0
H1729 H 0.05049 0.19955 0.55903 0.0
H1730 H 0.05415 0.21623 0.52587 0.0
H1731 H 0.12788 0.32067 0.55171 0.0
H1732 H 0.1643 0.33835 0.54622 0.0
H1733 H 0.15492 0.32063 0.56822 0.0
H1734 H 0.17758 0.29107 0.5576 0.0
H1735 H 0.18698 0.30866 0.53555 0.0
H1736 H 0.16597 0.27085 0.53385 0.0
H1737 H 0.06797 0.24007 0.49451 0.0
H1738 H 0.08985 0.26992 0.46792 0.0
H1739 H 0.16395 0.32572 0.50885 0.0
C1740 C 0.11709 0.25775 0.56725 0.0
C1741 C 0.09235 0.23327 0.57128 0.0
C1742 C 0.06957 0.21845 0.55624 0.0
C1743 C 0.07151 0.2277 0.53737 0.0
C1744 C 0.09628 0.25193 0.53388 0.0
C1745 C 0.11857 0.26683 0.54846 0.0
C1746 C 0.14266 0.29243 0.54107 0.0
C1747 C 0.14772 0.31963 0.55248 0.0
C1748 C 0.1699 0.29063 0.54208 0.0
C1749 C 0.13056 0.28951 0.52 0.0
C1750 C 0.10385 0.26599 0.51608 0.0
C1751 C 0.08877 0.2587 0.49747 0.0
C1752 C 0.10133 0.27595 0.48249 0.0
C1753 C 0.12866 0.30036 0.48621 0.0
C1754 C 0.14325 0.3071 0.50532 0.0
H1755 H 0.71797 0.86269 0.5811 0.0
H1756 H 0.78464 0.84217 0.57729 0.0
H1757 H 0.77181 0.83034 0.54138 0.0
H1758 H 0.66713 0.80739 0.5456 0.0
H1759 H 0.65331 0.82813 0.53542 0.0
H1760 H 0.66827 0.83581 0.56074 0.0
H1761 H 0.70325 0.88727 0.55447 0.0
H1762 H 0.68837 0.87975 0.52913 0.0
H1763 H 0.72597 0.89402 0.53503 0.0
H1764 H 0.75194 0.8209 0.50609 0.0
H1765 H 0.72563 0.8134 0.47362 0.0
H1766 H 0.67065 0.83841 0.50053 0.0
C1767 C 0.73 0.85596 0.57264 0.0
C1768 C 0.75227 0.85332 0.5819 0.0
C1769 C 0.76733 0.84407 0.57045 0.0
C1770 C 0.7603 0.83745 0.55007 0.0
C1771 C 0.73811 0.84011 0.54141 0.0
C1772 C 0.72313 0.84906 0.5523 0.0
C1773 C 0.69976 0.84942 0.5394 0.0
C1774 C 0.67038 0.82896 0.54567 0.0
C1775 C 0.70464 0.8794 0.53952 0.0
C1776 C 0.70396 0.83923 0.51958 0.0
C1777 C 0.72627 0.83411 0.52106 0.0
C1778 C 0.73431 0.82466 0.50474 0.0
C1779 C 0.71906 0.82025 0.48639 0.0
C1780 C 0.69589 0.82508 0.4845 0.0
C1781 C 0.68838 0.83475 0.5014 0.0
H1782 H 0.13195 0.85342 0.57464 0.0
H1783 H 0.12168 0.92555 0.56779 0.0
H1784 H 0.12678 0.92188 0.53221 0.0
H1785 H 0.18621 0.87261 0.54281 0.0
H1786 H 0.17454 0.83715 0.53287 0.0
H1787 H 0.16734 0.84372 0.55732 0.0
H1788 H 0.1136 0.80915 0.54779 0.0
H1789 H 0.12065 0.80246 0.5233 0.0
H1790 H 0.09575 0.81433 0.52676 0.0
H1791 H 0.13454 0.9114 0.49788 0.0
H1792 H 0.1477 0.89699 0.46737 0.0
H1793 H 0.15487 0.83261 0.49661 0.0
C1794 C 0.13037 0.8681 0.56551 0.0
C1795 C 0.12617 0.8896 0.57374 0.0
C1796 C 0.1248 0.90892 0.5616 0.0
C1797 C 0.12757 0.90691 0.54143 0.0
C1798 C 0.13194 0.88562 0.53373 0.0
C1799 C 0.13355 0.86667 0.54539 0.0
C1800 C 0.14045 0.84709 0.53371 0.0
C1801 C 0.16882 0.85035 0.54218 0.0
C1802 C 0.11616 0.81644 0.53284 0.0
C1803 C 0.14272 0.85816 0.51372 0.0
C1804 C 0.13734 0.88013 0.51401 0.0
C1805 C 0.13863 0.89411 0.49743 0.0
C1806 C 0.14596 0.88566 0.48013 0.0
C1807 C 0.15218 0.8636 0.47957 0.0
C1808 C 0.1503 0.84958 0.4966 0.0
H1809 H 0.60139 0.76999 0.13316 0.0
H1810 H 0.63148 0.85473 0.11716 0.0
H1811 H 0.65594 0.87387 0.15061 0.0
H1812 H 0.59056 0.78181 0.18319 0.0
H1813 H 0.60322 0.75969 0.19253 0.0
H1814 H 0.58697 0.75257 0.16757 0.0
H1815 H 0.63178 0.75509 0.15484 0.0
H1816 H 0.64819 0.76224 0.17975 0.0
H1817 H 0.66601 0.78607 0.16173 0.0
H1818 H 0.67739 0.88388 0.18577 0.0
H1819 H 0.69534 0.88393 0.2199 0.0
H1820 H 0.6534 0.7929 0.21227 0.0
C1821 C 0.61327 0.79259 0.13658 0.0
C1822 C 0.61428 0.81079 0.12247 0.0
C1823 C 0.62981 0.84025 0.12777 0.0
C1824 C 0.64399 0.85137 0.1467 0.0
C1825 C 0.64265 0.83281 0.16015 0.0
C1826 C 0.62779 0.80406 0.15532 0.0
C1827 C 0.63027 0.78872 0.17234 0.0
C1828 C 0.60101 0.76957 0.17932 0.0
C1829 C 0.64494 0.77205 0.16683 0.0
C1830 C 0.6489 0.81336 0.1875 0.0
C1831 C 0.65565 0.8386 0.18023 0.0
C1832 C 0.67229 0.86425 0.19162 0.0
C1833 C 0.68229 0.86407 0.21097 0.0
C1834 C 0.67581 0.83844 0.21864 0.0
C1835 C 0.65895 0.81281 0.20669 0.0
H1836 H 0.2376 0.83563 0.12601 0.0
H1837 H 0.21668 0.74861 0.12479 0.0
H1838 H 0.20098 0.74648 0.15805 0.0
H1839 H 0.26484 0.85528 0.1772 0.0
H1840 H 0.25034 0.878 0.18102 0.0
H1841 H 0.25975 0.87261 0.15706 0.0
H1842 H 0.20868 0.85638 0.14175 0.0
H1843 H 0.19912 0.86174 0.16566 0.0
H1844 H 0.17887 0.82798 0.15143 0.0
H1845 H 0.18837 0.75408 0.19171 0.0
H1846 H 0.17785 0.77031 0.22277 0.0
H1847 H 0.20719 0.85242 0.20209 0.0
C1848 C 0.22985 0.81617 0.13279 0.0
C1849 C 0.22834 0.79227 0.12279 0.0
C1850 C 0.21771 0.76708 0.13207 0.0
C1851 C 0.20892 0.76572 0.151 0.0
C1852 C 0.2108 0.78969 0.16047 0.0
C1853 C 0.22088 0.81441 0.15165 0.0
C1854 C 0.22046 0.83707 0.16492 0.0
C1855 C 0.25064 0.86222 0.17037 0.0
C1856 C 0.2006 0.84633 0.15537 0.0
C1857 C 0.20858 0.82124 0.18259 0.0
C1858 C 0.20328 0.79399 0.17977 0.0
C1859 C 0.19244 0.77539 0.19409 0.0
C1860 C 0.18669 0.78484 0.21173 0.0
C1861 C 0.19168 0.81262 0.21487 0.0
C1862 C 0.20286 0.83098 0.20006 0.0
H1863 H 0.24783 0.45129 0.15779 0.0
H1864 H 0.1665 0.40544 0.12199 0.0
H1865 H 0.14454 0.37908 0.14988 0.0
H1866 H 0.23999 0.39238 0.1831 0.0
H1867 H 0.25713 0.41312 0.20631 0.0
H1868 H 0.26662 0.42899 0.18362 0.0
H1869 H 0.25505 0.46708 0.19581 0.0
H1870 H 0.24537 0.45122 0.21851 0.0
H1871 H 0.22044 0.45652 0.20349 0.0
H1872 H 0.13112 0.35754 0.18113 0.0
H1873 H 0.12724 0.34096 0.21413 0.0
H1874 H 0.21718 0.3995 0.22999 0.0
C1875 C 0.22545 0.43562 0.15583 0.0
C1876 C 0.20882 0.43072 0.13776 0.0
C1877 C 0.17956 0.41004 0.1358 0.0
C1878 C 0.16689 0.39482 0.15152 0.0
C1879 C 0.18374 0.40037 0.16915 0.0
C1880 C 0.21238 0.42014 0.17144 0.0
C1881 C 0.22556 0.4216 0.19198 0.0
C1882 C 0.24869 0.41354 0.1912 0.0
C1883 C 0.23729 0.45085 0.2031 0.0
C1884 C 0.19983 0.39951 0.20078 0.0
C1885 C 0.17597 0.38761 0.18731 0.0
C1886 C 0.14967 0.3666 0.19182 0.0
C1887 C 0.14771 0.35723 0.21056 0.0
C1888 C 0.17192 0.36879 0.22459 0.0
C1889 C 0.19826 0.39042 0.21964 0.0
H1890 H 0.81124 0.59284 0.90938 0.0
H1891 H 0.71941 0.54337 0.89773 0.0
H1892 H 0.72211 0.56273 0.86574 0.0
H1893 H 0.81999 0.65392 0.88806 0.0
H1894 H 0.85233 0.66136 0.87779 0.0
H1895 H 0.84323 0.64332 0.89967 0.0
H1896 H 0.84694 0.6023 0.88265 0.0
H1897 H 0.85612 0.62024 0.86072 0.0
H1898 H 0.82633 0.58493 0.85937 0.0
H1899 H 0.73471 0.58783 0.83524 0.0
H1900 H 0.75647 0.61661 0.80809 0.0
H1901 H 0.84005 0.64957 0.83961 0.0
C1902 C 0.79173 0.58583 0.90001 0.0
C1903 C 0.7651 0.56665 0.90608 0.0
C1904 C 0.74002 0.55833 0.8935 0.0
C1905 C 0.74133 0.56908 0.87526 0.0
C1906 C 0.7679 0.58808 0.86979 0.0
C1907 C 0.79265 0.59635 0.88175 0.0
C1908 C 0.81845 0.61727 0.87247 0.0
C1909 C 0.83443 0.64565 0.88526 0.0
C1910 C 0.83812 0.60547 0.86857 0.0
C1911 C 0.80433 0.61951 0.85344 0.0
C1912 C 0.77516 0.60252 0.85218 0.0
C1913 C 0.75753 0.60125 0.83605 0.0
C1914 C 0.77006 0.61779 0.82078 0.0
C1915 C 0.79994 0.63537 0.82175 0.0
C1916 C 0.81719 0.63612 0.83834 0.0
H1917 H 0.41135 0.21946 0.91391 0.0
H1918 H 0.46826 0.18622 0.90993 0.0
H1919 H 0.45402 0.17432 0.87413 0.0
H1920 H 0.35579 0.1691 0.87802 0.0
H1921 H 0.34804 0.19448 0.86822 0.0
H1922 H 0.36213 0.19954 0.89358 0.0
H1923 H 0.40372 0.24865 0.88808 0.0
H1924 H 0.38975 0.24376 0.86271 0.0
H1925 H 0.42577 0.25177 0.86875 0.0
H1926 H 0.43388 0.16669 0.83853 0.0
H1927 H 0.40912 0.16349 0.80617 0.0
H1928 H 0.36742 0.20396 0.83359 0.0
C1929 C 0.42102 0.20987 0.90554 0.0
C1930 C 0.44095 0.20379 0.91478 0.0
C1931 C 0.45267 0.19075 0.90325 0.0
C1932 C 0.44486 0.18407 0.88288 0.0
C1933 C 0.42536 0.19062 0.87426 0.0
C1934 C 0.41361 0.20323 0.88524 0.0
C1935 C 0.39339 0.20841 0.87244 0.0
C1936 C 0.36304 0.19189 0.87842 0.0
C1937 C 0.40379 0.24002 0.87303 0.0
C1938 C 0.39559 0.19677 0.85251 0.0
C1939 C 0.41408 0.18656 0.85384 0.0
C1940 C 0.41943 0.17471 0.83731 0.0
C1941 C 0.40541 0.17318 0.81897 0.0
C1942 C 0.38632 0.18351 0.81728 0.0
C1943 C 0.38156 0.19553 0.83436 0.0
H1944 H 0.78067 0.19543 0.90124 0.0
H1945 H 0.79757 0.28094 0.9014 0.0
H1946 H 0.80782 0.28133 0.86664 0.0
H1947 H 0.83681 0.20541 0.87563 0.0
H1948 H 0.81906 0.17135 0.86168 0.0
H1949 H 0.80812 0.17577 0.88522 0.0
H1950 H 0.75657 0.1559 0.86935 0.0
H1951 H 0.76726 0.15103 0.84575 0.0
H1952 H 0.75005 0.17145 0.84861 0.0
H1953 H 0.82129 0.27424 0.83335 0.0
H1954 H 0.83722 0.26032 0.80397 0.0
H1955 H 0.81265 0.17972 0.8258 0.0
C1956 C 0.7855 0.21379 0.89365 0.0
C1957 C 0.78781 0.23797 0.9037 0.0
C1958 C 0.79531 0.26212 0.89372 0.0
C1959 C 0.80116 0.26251 0.87404 0.0
C1960 C 0.79953 0.2386 0.86465 0.0
C1961 C 0.79177 0.21463 0.87409 0.0
C1962 C 0.79449 0.19288 0.86141 0.0
C1963 C 0.8159 0.18597 0.8716 0.0
C1964 C 0.76535 0.16624 0.85595 0.0
C1965 C 0.80568 0.20863 0.84361 0.0
C1966 C 0.80807 0.23479 0.84564 0.0
C1967 C 0.81914 0.25363 0.83147 0.0
C1968 C 0.82809 0.24554 0.81482 0.0
C1969 C 0.82618 0.21895 0.81258 0.0
C1970 C 0.81456 0.20025 0.82714 0.0
H1971 H 0.30102 0.12951 0.44847 0.0
H1972 H 0.22469 0.13474 0.45177 0.0
H1973 H 0.23604 0.14635 0.48776 0.0
H1974 H 0.29573 0.09582 0.49168 0.0
H1975 H 0.3334 0.11427 0.49907 0.0
H1976 H 0.32052 0.10867 0.47341 0.0
H1977 H 0.35 0.16228 0.47073 0.0
H1978 H 0.36302 0.16806 0.49641 0.0
H1979 H 0.34547 0.18608 0.4872 0.0
H1980 H 0.25383 0.15395 0.52361 0.0
H1981 H 0.27679 0.1571 0.55661 0.0
H1982 H 0.34199 0.14774 0.52984 0.0
C1983 C 0.28674 0.1332 0.45675 0.0
C1984 C 0.26201 0.13131 0.44729 0.0
C1985 C 0.24398 0.13648 0.45865 0.0
C1986 C 0.25018 0.14298 0.47911 0.0
C1987 C 0.27457 0.14438 0.48798 0.0
C1988 C 0.29263 0.13975 0.47716 0.0
C1989 C 0.31686 0.14144 0.49034 0.0
C1990 C 0.31659 0.11338 0.48851 0.0
C1991 C 0.34554 0.16593 0.4859 0.0
C1992 C 0.30926 0.14713 0.5103 0.0
C1993 C 0.28492 0.14894 0.50863 0.0
C1994 C 0.27314 0.15295 0.5251 0.0
C1995 C 0.28646 0.15489 0.54381 0.0
C1996 C 0.31131 0.15281 0.5459 0.0
C1997 C 0.32293 0.14922 0.52882 0.0
H1998 H 0.87103 0.13285 0.45787 0.0
H1999 H 0.96158 0.16791 0.47221 0.0
H2000 H 0.95655 0.17638 0.50726 0.0
H2001 H 0.86435 0.18144 0.49189 0.0
H2002 H 0.82988 0.15521 0.49785 0.0
H2003 H 0.84092 0.15234 0.47399 0.0
H2004 H 0.83145 0.10237 0.47941 0.0
H2005 H 0.82058 0.10516 0.50333 0.0
H2006 H 0.84866 0.09737 0.5009 0.0
H2007 H 0.94096 0.17861 0.54095 0.0
H2008 H 0.9168 0.17762 0.5704 0.0
H2009 H 0.83684 0.1435 0.53345 0.0
C2010 C 0.88978 0.14232 0.46842 0.0
C2011 C 0.91668 0.14966 0.46243 0.0
C2012 C 0.94082 0.16232 0.47655 0.0
C2013 C 0.93814 0.16706 0.49646 0.0
C2014 C 0.91122 0.15928 0.50191 0.0
C2015 C 0.88753 0.14748 0.48826 0.0
C2016 C 0.86109 0.14132 0.49787 0.0
C2017 C 0.84832 0.15862 0.48993 0.0
C2018 C 0.83916 0.10968 0.49522 0.0
C2019 C 0.87353 0.1512 0.51911 0.0
C2020 C 0.90243 0.16136 0.52116 0.0
C2021 C 0.91839 0.17103 0.53949 0.0
C2022 C 0.90446 0.17053 0.55613 0.0
C2023 C 0.87486 0.16067 0.55434 0.0
C2024 C 0.85936 0.15087 0.53549 0.0
H2025 H 0.87082 0.77574 0.48822 0.0
H2026 H 0.91715 0.73935 0.4621 0.0
H2027 H 0.91444 0.71516 0.49185 0.0
H2028 H 0.90046 0.78535 0.53853 0.0
H2029 H 0.86737 0.77556 0.54851 0.0
H2030 H 0.87447 0.79141 0.52567 0.0
H2031 H 0.82792 0.74903 0.50839 0.0
H2032 H 0.82066 0.73305 0.53117 0.0
H2033 H 0.82207 0.71397 0.50943 0.0
H2034 H 0.90585 0.6941 0.52427 0.0
H2035 H 0.89057 0.6765 0.55633 0.0
H2036 H 0.84775 0.72465 0.56047 0.0
C2037 C 0.88027 0.76256 0.4886 0.0
C2038 C 0.89432 0.75964 0.4727 0.0
C2039 C 0.90674 0.74246 0.47414 0.0
C2040 C 0.90515 0.72844 0.49095 0.0
C2041 C 0.89093 0.73164 0.50621 0.0
C2042 C 0.87861 0.74818 0.50515 0.0
C2043 C 0.86369 0.74734 0.52326 0.0
C2044 C 0.87732 0.77666 0.53467 0.0
C2045 C 0.83169 0.73512 0.51772 0.0
C2046 C 0.86937 0.72756 0.53463 0.0
C2047 C 0.88536 0.71896 0.52463 0.0
C2048 C 0.89337 0.70074 0.53224 0.0
C2049 C 0.88471 0.69096 0.55049 0.0
C2050 C 0.868 0.69921 0.5609 0.0
C2051 C 0.86032 0.7178 0.55279 0.0
loop_
_geom_bond_atom_site_label_1
_geom_bond_atom_site_label_2
_geom_bond_distance
_geom_bond_site_symmetry_2
_ccdc_geom_bond_type
H0 C7 0.929 . S
H1 C10 0.930 . S
H2 C12 0.929 . S
H3 C4 0.969 . S
C4 H3 0.969 . S
C4 O5 1.550 . S
C4 H6 0.973 . S
O5 C4 1.550 . S
O5 C11 1.412 . S
H6 C4 0.973 . S
C7 H0 0.929 . S
C7 C8 1.400 . S
C7 C9 1.364 . S
C8 C7 1.400 . S
C8 C12 1.377 . S
C9 C7 1.364 . S
C9 C10 1.374 . S
C10 H1 0.930 . S
C10 C9 1.374 . S
C10 C11 1.383 . S
C11 O5 1.412 . S
C11 C10 1.383 . S
C11 C12 1.394 . S
C12 H2 0.929 . S
C12 C8 1.377 . S
C12 C11 1.394 . S
H13 C20 0.929 . S
H14 C23 0.930 . S
H15 C25 0.929 . S
H16 C17 0.969 . S
C17 H16 0.969 . S
C17 O18 1.550 . S
C17 H19 0.973 . S
O18 C17 1.550 . S
O18 C24 1.412 . S
H19 C17 0.973 . S
C20 H13 0.929 . S
C20 C21 1.400 . S
C20 C22 1.364 . S
C21 C20 1.400 . S
C21 C25 1.377 . S
C22 C20 1.364 . S
C22 C23 1.374 . S
C23 H14 0.930 . S
C23 C22 1.374 . S
C23 C24 1.383 . S
C24 O18 1.412 . S
C24 C23 1.383 . S
C24 C25 1.394 . S
C25 H15 0.929 . S
C25 C21 1.377 . S
C25 C24 1.394 . S
H26 C33 0.929 . S
H27 C36 0.930 . S
H28 C38 0.929 . S
H29 C30 0.969 . S
C30 H29 0.969 . S
C30 O31 1.550 . S
C30 H32 0.973 . S
O31 C30 1.550 . S
O31 C37 1.412 . S
H32 C30 0.973 . S
C33 H26 0.929 . S
C33 C34 1.400 . S
C33 C35 1.364 . S
C34 C33 1.400 . S
C34 C38 1.377 . S
C35 C33 1.364 . S
C35 C36 1.374 . S
C36 H27 0.930 . S
C36 C35 1.374 . S
C36 C37 1.383 . S
C37 O31 1.412 . S
C37 C36 1.383 . S
C37 C38 1.394 . S
C38 H28 0.929 . S
C38 C34 1.377 . S
C38 C37 1.394 . S
H39 C46 0.929 . S
H40 C49 0.930 . S
H41 C51 0.929 . S
H42 C43 0.969 . S
C43 H42 0.969 . S
C43 O44 1.550 . S
C43 H45 0.973 . S
O44 C43 1.550 . S
O44 C50 1.412 . S
H45 C43 0.973 . S
C46 H39 0.929 . S
C46 C47 1.400 . S
C46 C48 1.364 . S
C47 C46 1.400 . S
C47 C51 1.377 . S
C48 C46 1.364 . S
C48 C49 1.374 . S
C49 H40 0.930 . S
C49 C48 1.374 . S
C49 C50 1.383 . S
C50 O44 1.412 . S
C50 C49 1.383 . S
C50 C51 1.394 . S
C51 H41 0.929 . S
C51 C47 1.377 . S
C51 C50 1.394 . S
H52 C59 0.929 . S
H53 C62 0.930 . S
H54 C64 0.929 . S
H55 C56 0.969 . S
C56 H55 0.969 . S
C56 O57 1.550 . S
C56 H58 0.973 . S
O57 C56 1.550 . S
O57 C63 1.412 . S
H58 C56 0.973 . S
C59 H52 0.929 . S
C59 C60 1.400 . S
C59 C61 1.364 . S
C60 C59 1.400 . S
C60 C64 1.377 . S
C61 C59 1.364 . S
C61 C62 1.374 . S
C62 H53 0.930 . S
C62 C61 1.374 . S
C62 C63 1.383 . S
C63 O57 1.412 . S
C63 C62 1.383 . S
C63 C64 1.394 . S
C64 H54 0.929 . S
C64 C60 1.377 . S
C64 C63 1.394 . S
H65 C72 0.929 . S
H66 C75 0.930 . S
H67 C77 0.929 . S
H68 C69 0.969 . S
C69 H68 0.969 . S
C69 O70 1.550 . S
C69 H71 0.973 . S
O70 C69 1.550 . S
O70 C76 1.412 . S
H71 C69 0.973 . S
C72 H65 0.929 . S
C72 C73 1.400 . S
C72 C74 1.364 . S
C73 C72 1.400 . S
C73 C77 1.377 . S
C74 C72 1.364 . S
C74 C75 1.374 . S
C75 H66 0.930 . S
C75 C74 1.374 . S
C75 C76 1.383 . S
C76 O70 1.412 . S
C76 C75 1.383 . S
C76 C77 1.394 . S
C77 H67 0.929 . S
C77 C73 1.377 . S
C77 C76 1.394 . S
H78 C85 0.929 . S
H79 C88 0.930 . S
H80 C90 0.929 . S
H81 C82 0.969 . S
C82 H81 0.969 . S
C82 O83 1.550 . S
C82 H84 0.973 . S
O83 C82 1.550 . S
O83 C89 1.412 . S
H84 C82 0.973 . S
C85 H78 0.929 . S
C85 C86 1.400 . S
C85 C87 1.364 . S
C86 C85 1.400 . S
C86 C90 1.377 . S
C87 C85 1.364 . S
C87 C88 1.374 . S
C88 H79 0.930 . S
C88 C87 1.374 . S
C88 C89 1.383 . S
C89 O83 1.412 . S
C89 C88 1.383 . S
C89 C90 1.394 . S
C90 H80 0.929 . S
C90 C86 1.377 . S
C90 C89 1.394 . S
H91 C98 0.929 . S
H92 C101 0.930 . S
H93 C103 0.929 . S
H94 C95 0.969 . S
C95 H94 0.969 . S
C95 O96 1.550 . S
C95 H97 0.973 . S
O96 C95 1.550 . S
O96 C102 1.412 . S
H97 C95 0.973 . S
C98 H91 0.929 . S
C98 C99 1.400 . S
C98 C100 1.364 . S
C99 C98 1.400 . S
C99 C103 1.377 . S
C100 C98 1.364 . S
C100 C101 1.374 . S
C101 H92 0.930 . S
C101 C100 1.374 . S
C101 C102 1.383 . S
C102 O96 1.412 . S
C102 C101 1.383 . S
C102 C103 1.394 . S
C103 H93 0.929 . S
C103 C99 1.377 . S
C103 C102 1.394 . S
H104 C111 0.929 . S
H105 C114 0.930 . S
H106 C116 0.929 . S
H107 C108 0.969 . S
C108 H107 0.969 . S
C108 O109 1.550 . S
C108 H110 0.973 . S
O109 C108 1.550 . S
O109 C115 1.412 . S
H110 C108 0.973 . S
C111 H104 0.929 . S
C111 C112 1.400 . S
C111 C113 1.364 . S
C112 C111 1.400 . S
C112 C116 1.377 . S
C113 C111 1.364 . S
C113 C114 1.374 . S
C114 H105 0.930 . S
C114 C113 1.374 . S
C114 C115 1.383 . S
C115 O109 1.412 . S
C115 C114 1.383 . S
C115 C116 1.394 . S
C116 H106 0.929 . S
C116 C112 1.377 . S
C116 C115 1.394 . S
H117 C124 0.929 . S
H118 C127 0.930 . S
H119 C129 0.929 . S
H120 C121 0.969 . S
C121 H120 0.969 . S
C121 O122 1.550 . S
C121 H123 0.973 . S
O122 C121 1.550 . S
O122 C128 1.412 . S
H123 C121 0.973 . S
C124 H117 0.929 . S
C124 C125 1.400 . S
C124 C126 1.364 . S
C125 C124 1.400 . S
C125 C129 1.377 . S
C126 C124 1.364 . S
C126 C127 1.374 . S
C127 H118 0.930 . S
C127 C126 1.374 . S
C127 C128 1.383 . S
C128 O122 1.412 . S
C128 C127 1.383 . S
C128 C129 1.394 . S
C129 H119 0.929 . S
C129 C125 1.377 . S
C129 C128 1.394 . S
H130 C137 0.929 . S
H131 C140 0.930 . S
H132 C142 0.929 . S
H133 C134 0.969 . S
C134 H133 0.969 . S
C134 O135 1.550 . S
C134 H136 0.973 . S
O135 C134 1.550 . S
O135 C141 1.412 . S
H136 C134 0.973 . S
C137 H130 0.929 . S
C137 C138 1.400 . S
C137 C139 1.364 . S
C138 C137 1.400 . S
C138 C142 1.377 . S
C139 C137 1.364 . S
C139 C140 1.374 . S
C140 H131 0.930 . S
C140 C139 1.374 . S
C140 C141 1.383 . S
C141 O135 1.412 . S
C141 C140 1.383 . S
C141 C142 1.394 . S
C142 H132 0.929 . S
C142 C138 1.377 . S
C142 C141 1.394 . S
H143 C150 0.929 . S
H144 C153 0.930 . S
H145 C155 0.929 . S
H146 C147 0.969 . S
C147 H146 0.969 . S
C147 O148 1.550 . S
C147 H149 0.973 . S
O148 C147 1.550 . S
O148 C154 1.412 . S
H149 C147 0.973 . S
C150 H143 0.929 . S
C150 C151 1.400 . S
C150 C152 1.364 . S
C151 C150 1.400 . S
C151 C155 1.377 . S
C152 C150 1.364 . S
C152 C153 1.374 . S
C153 H144 0.930 . S
C153 C152 1.374 . S
C153 C154 1.383 . S
C154 O148 1.412 . S
C154 C153 1.383 . S
C154 C155 1.394 . S
C155 H145 0.929 . S
C155 C151 1.377 . S
C155 C154 1.394 . S
H156 C163 0.929 . S
H157 C166 0.930 . S
H158 C168 0.929 . S
H159 C160 0.969 . S
C160 H159 0.969 . S
C160 O161 1.550 . S
C160 H162 0.973 . S
O161 C160 1.550 . S
O161 C167 1.412 . S
H162 C160 0.973 . S
C163 H156 0.929 . S
C163 C164 1.400 . S
C163 C165 1.364 . S
C164 C163 1.400 . S
C164 C168 1.377 . S
C165 C163 1.364 . S
C165 C166 1.374 . S
C166 H157 0.930 . S
C166 C165 1.374 . S
C166 C167 1.383 . S
C167 O161 1.412 . S
C167 C166 1.383 . S
C167 C168 1.394 . S
C168 H158 0.929 . S
C168 C164 1.377 . S
C168 C167 1.394 . S
H169 C176 0.929 . S
H170 C179 0.930 . S
H171 C181 0.929 . S
H172 C173 0.969 . S
C173 H172 0.969 . S
C173 O174 1.550 . S
C173 H175 0.973 . S
O174 C173 1.550 . S
O174 C180 1.412 . S
H175 C173 0.973 . S
C176 H169 0.929 . S
C176 C177 1.400 . S
C176 C178 1.364 . S
C177 C176 1.400 . S
C177 C181 1.377 . S
C178 C176 1.364 . S
C178 C179 1.374 . S
C179 H170 0.930 . S
C179 C178 1.374 . S
C179 C180 1.383 . S
C180 O174 1.412 . S
C180 C179 1.383 . S
C180 C181 1.394 . S
C181 H171 0.929 . S
C181 C177 1.377 . S
C181 C180 1.394 . S
H182 C189 0.929 . S
H183 C192 0.930 . S
H184 C194 0.929 . S
H185 C186 0.969 . S
C186 H185 0.969 . S
C186 O187 1.550 . S
C186 H188 0.973 . S
O187 C186 1.550 . S
O187 C193 1.412 . S
H188 C186 0.973 . S
C189 H182 0.929 . S
C189 C190 1.400 . S
C189 C191 1.364 . S
C190 C189 1.400 . S
C190 C194 1.377 . S
C191 C189 1.364 . S
C191 C192 1.374 . S
C192 H183 0.930 . S
C192 C191 1.374 . S
C192 C193 1.383 . S
C193 O187 1.412 . S
C193 C192 1.383 . S
C193 C194 1.394 . S
C194 H184 0.929 . S
C194 C190 1.377 . S
C194 C193 1.394 . S
H195 C202 0.929 . S
H196 C205 0.930 . S
H197 C207 0.929 . S
H198 C199 0.969 . S
C199 H198 0.969 . S
C199 O200 1.550 . S
C199 H201 0.973 . S
O200 C199 1.550 . S
O200 C206 1.412 . S
H201 C199 0.973 . S
C202 H195 0.929 . S
C202 C203 1.400 . S
C202 C204 1.364 . S
C203 C202 1.400 . S
C203 C207 1.377 . S
C204 C202 1.364 . S
C204 C205 1.374 . S
C205 H196 0.930 . S
C205 C204 1.374 . S
C205 C206 1.383 . S
C206 O200 1.412 . S
C206 C205 1.383 . S
C206 C207 1.394 . S
C207 H197 0.929 . S
C207 C203 1.377 . S
C207 C206 1.394 . S
H208 C215 0.929 . S
H209 C218 0.930 . S
H210 C220 0.929 . S
H211 C212 0.969 . S
C212 H211 0.969 . S
C212 O213 1.550 . S
C212 H214 0.973 . S
O213 C212 1.550 . S
O213 C219 1.412 . S
H214 C212 0.973 . S
C215 H208 0.929 . S
C215 C216 1.400 . S
C215 C217 1.364 . S
C216 C215 1.400 . S
C216 C220 1.377 . S
C217 C215 1.364 . S
C217 C218 1.374 . S
C218 H209 0.930 . S
C218 C217 1.374 . S
C218 C219 1.383 . S
C219 O213 1.412 . S
C219 C218 1.383 . S
C219 C220 1.394 . S
C220 H210 0.929 . S
C220 C216 1.377 . S
C220 C219 1.394 . S
H221 C228 0.929 . S
H222 C231 0.930 . S
H223 C233 0.929 . S
H224 C225 0.969 . S
C225 H224 0.969 . S
C225 O226 1.550 . S
C225 H227 0.973 . S
O226 C225 1.550 . S
O226 C232 1.412 . S
H227 C225 0.973 . S
C228 H221 0.929 . S
C228 C229 1.400 . S
C228 C230 1.364 . S
C229 C228 1.400 . S
C229 C233 1.377 . S
C230 C228 1.364 . S
C230 C231 1.374 . S
C231 H222 0.930 . S
C231 C230 1.374 . S
C231 C232 1.383 . S
C232 O226 1.412 . S
C232 C231 1.383 . S
C232 C233 1.394 . S
C233 H223 0.929 . S
C233 C229 1.377 . S
C233 C232 1.394 . S
Eu234 C243 2.828 1_565 S
Eu234 O245 2.392 . S
Eu234 O247 2.418 . S
Eu234 O252 2.373 1_565 S
Eu234 O255 2.488 . S
Eu234 O256 2.471 1_565 S
Eu234 O257 2.349 1_565 S
Eu235 O244 2.373 1_545 S
Eu235 O248 2.488 . S
Eu235 O249 2.471 1_545 S
Eu235 O250 2.349 1_545 S
Eu235 O253 2.392 . S
Eu235 O254 2.418 . S
Eu235 C264 2.828 . S
C236 O254 1.244 . S
C236 O257 1.265 1_554 S
C237 C238 1.379 . S
C237 C241 1.373 1_545 S
C237 C243 1.505 . S
C238 C237 1.379 . S
C238 C240 1.369 . S
C238 H266 0.930 . S
C239 C241 1.383 1_545 S
C239 C242 1.382 . S
C239 H267 0.930 1_545 S
C240 C238 1.369 . S
C240 C242 1.392 . S
C240 H268 0.930 . S
C241 C237 1.373 1_565 S
C241 C239 1.383 1_565 S
C241 H269 0.931 . S
C242 C239 1.382 . S
C242 C240 1.392 . S
C243 Eu234 2.828 1_545 S
C243 C237 1.505 . S
C243 O255 1.249 1_545 S
C243 O256 1.244 . S
O244 Eu235 2.373 1_565 S
O244 C246 1.258 . S
O245 Eu234 2.392 . S
O245 C246 1.242 1_556 S
C246 O244 1.258 . S
C246 O245 1.242 1_554 S
O247 Eu234 2.418 . S
O247 C251 1.244 1_556 S
O248 Eu235 2.488 . S
O248 C264 1.249 . S
O249 Eu235 2.471 1_565 S
O249 C264 1.244 1_565 S
O250 Eu235 2.349 1_565 S
O250 C251 1.265 . S
C251 O247 1.244 1_554 S
C251 O250 1.265 . S
O252 Eu234 2.373 1_545 S
O252 C265 1.258 . S
O253 Eu235 2.392 . S
O253 C265 1.242 1_554 S
O254 Eu235 2.418 . S
O254 C236 1.244 . S
O255 Eu234 2.488 . S
O255 C243 1.249 1_565 S
O256 Eu234 2.471 1_545 S
O256 C243 1.244 . S
O257 Eu234 2.349 1_545 S
O257 C236 1.265 1_556 S
C258 C259 1.379 . S
C258 C262 1.373 1_565 S
C258 C264 1.505 1_565 S
C259 C258 1.379 . S
C259 C261 1.369 . S
C259 H270 0.930 . S
C260 C262 1.383 . S
C260 C263 1.382 1_545 S
C260 H271 0.930 . S
C261 C259 1.369 . S
C261 C263 1.392 . S
C261 H272 0.930 . S
C262 C258 1.373 1_545 S
C262 C260 1.383 . S
C262 H273 0.931 . S
C263 C260 1.382 1_565 S
C263 C261 1.392 . S
C264 Eu235 2.828 . S
C264 O248 1.249 . S
C264 O249 1.244 1_545 S
C264 C258 1.505 1_545 S
C265 O252 1.258 . S
C265 O253 1.242 1_556 S
H266 C238 0.930 . S
H267 C239 0.930 1_565 S
H268 C240 0.930 . S
H269 C241 0.931 . S
H270 C259 0.930 . S
H271 C260 0.930 . S
H272 C261 0.930 . S
H273 C262 0.931 . S
Eu274 C283 2.828 1_455 S
Eu274 O285 2.392 1_556 S
Eu274 O287 2.418 . S
Eu274 O292 2.373 1_455 S
Eu274 O295 2.488 . S
Eu274 O296 2.471 1_455 S
Eu274 O297 2.349 1_455 S
Eu275 O284 2.373 1_655 S
Eu275 O288 2.488 . S
Eu275 O289 2.471 1_655 S
Eu275 O290 2.349 1_655 S
Eu275 O293 2.392 . S
Eu275 O294 2.418 . S
Eu275 C304 2.828 1_655 S
C276 O294 1.244 . S
C276 O297 1.265 1_554 S
C277 C278 1.379 . S
C277 C281 1.373 1_655 S
C277 C283 1.505 . S
C278 C277 1.379 . S
C278 C280 1.369 . S
C278 H306 0.930 . S
C279 C281 1.383 1_655 S
C279 C282 1.382 . S
C279 H307 0.930 1_655 S
C280 C278 1.369 . S
C280 C282 1.392 . S
C280 H308 0.930 . S
C281 C277 1.373 1_455 S
C281 C279 1.383 1_455 S
C281 H309 0.931 . S
C282 C279 1.382 . S
C282 C280 1.392 . S
C283 Eu274 2.828 1_655 S
C283 C277 1.505 . S
C283 O295 1.249 1_655 S
C283 O296 1.244 . S
O284 Eu275 2.373 1_455 S
O284 C286 1.258 . S
O285 Eu274 2.392 1_554 S
O285 C286 1.242 . S
C286 O284 1.258 . S
C286 O285 1.242 . S
O287 Eu274 2.418 . S
O287 C291 1.244 1_556 S
O288 Eu275 2.488 . S
O288 C304 1.249 1_655 S
O289 Eu275 2.471 1_455 S
O289 C304 1.244 . S
O290 Eu275 2.349 1_455 S
O290 C291 1.265 . S
C291 O287 1.244 1_554 S
C291 O290 1.265 . S
O292 Eu274 2.373 1_655 S
O292 C305 1.258 . S
O293 Eu275 2.392 . S
O293 C305 1.242 1_554 S
O294 Eu275 2.418 . S
O294 C276 1.244 . S
O295 Eu274 2.488 . S
O295 C283 1.249 1_455 S
O296 Eu274 2.471 1_655 S
O296 C283 1.244 . S
O297 Eu274 2.349 1_655 S
O297 C276 1.265 1_556 S
C298 C299 1.379 . S
C298 C302 1.365 1_455 S
C298 C304 1.505 . S
C299 C298 1.379 . S
C299 C301 1.369 . S
C299 H310 0.930 . S
C300 C302 1.374 1_455 S
C300 C303 1.382 . S
C300 H311 0.930 1_455 S
C301 C299 1.369 . S
C301 C303 1.392 . S
C301 H312 0.930 . S
C302 C298 1.365 1_655 S
C302 C300 1.374 1_655 S
C302 H313 0.948 . S
C303 C300 1.382 . S
C303 C301 1.392 . S
C304 Eu275 2.828 1_455 S
C304 O288 1.249 1_455 S
C304 O289 1.244 . S
C304 C298 1.505 . S
C305 O292 1.258 . S
C305 O293 1.242 1_556 S
H306 C278 0.930 . S
H307 C279 0.930 1_455 S
H308 C280 0.930 . S
H309 C281 0.931 . S
H310 C299 0.930 . S
H311 C300 0.930 1_655 S
H312 C301 0.930 . S
H313 C302 0.948 . S
Eu314 C323 2.828 . S
Eu314 O325 2.392 . S
Eu314 O327 2.418 . S
Eu314 O332 2.373 . S
Eu314 O335 2.488 . S
Eu314 O336 2.471 . S
Eu314 O337 2.349 . S
Eu315 O324 2.373 . S
Eu315 O328 2.488 . S
Eu315 O329 2.471 . S
Eu315 O330 2.354 . S
Eu315 O333 2.392 1_556 S
Eu315 O334 2.418 . S
Eu315 C344 2.828 . S
C316 O334 1.244 1_554 S
C316 O337 1.265 . S
C317 C318 1.379 . S
C317 C321 1.373 . S
C317 C323 1.505 . S
C318 C317 1.379 . S
C318 C320 1.369 . S
C318 H346 0.930 . S
C319 C321 1.383 . S
C319 C322 1.382 . S
C319 H347 0.930 . S
C320 C318 1.369 . S
C320 C322 1.392 . S
C320 H348 0.930 . S
C321 C317 1.373 . S
C321 C319 1.383 . S
C321 H349 0.931 . S
C322 C319 1.382 . S
C322 C320 1.392 . S
C323 Eu314 2.828 . S
C323 C317 1.505 . S
C323 O335 1.249 . S
C323 O336 1.244 . S
O324 Eu315 2.373 . S
O324 C326 1.258 . S
O325 Eu314 2.392 . S
O325 C326 1.242 1_554 S
C326 O324 1.258 . S
C326 O325 1.242 1_556 S
O327 Eu314 2.418 . S
O327 C331 1.244 . S
O328 Eu315 2.488 . S
O328 C344 1.249 . S
O329 Eu315 2.471 . S
O329 C344 1.244 . S
O330 Eu315 2.354 . S
O330 C331 1.260 1_556 S
C331 O327 1.244 . S
C331 O330 1.260 1_554 S
O332 Eu314 2.373 . S
O332 C345 1.258 . S
O333 Eu315 2.392 1_554 S
O333 C345 1.242 . S
O334 Eu315 2.418 . S
O334 C316 1.244 1_556 S
O335 Eu314 2.488 . S
O335 C323 1.249 . S
O336 Eu314 2.471 . S
O336 C323 1.244 . S
O337 Eu314 2.349 . S
O337 C316 1.265 . S
C338 C339 1.379 . S
C338 C342 1.373 . S
C338 C344 1.505 . S
C339 C338 1.379 . S
C339 C341 1.369 . S
C339 H350 0.930 . S
C340 C342 1.383 . S
C340 C343 1.382 . S
C340 H351 0.930 . S
C341 C339 1.369 . S
C341 C343 1.392 . S
C341 H352 0.930 . S
C342 C338 1.373 . S
C342 C340 1.383 . S
C342 H353 0.931 . S
C343 C340 1.382 . S
C343 C341 1.392 . S
C344 Eu315 2.828 . S
C344 O328 1.249 . S
C344 O329 1.244 . S
C344 C338 1.505 . S
C345 O332 1.258 . S
C345 O333 1.242 . S
H346 C318 0.930 . S
H347 C319 0.930 . S
H348 C320 0.930 . S
H349 C321 0.931 . S
H350 C339 0.930 . S
H351 C340 0.930 . S
H352 C341 0.930 . S
H353 C342 0.931 . S
Eu354 C363 2.828 . S
Eu354 O365 2.392 . S
Eu354 O367 2.418 . S
Eu354 O372 2.373 . S
Eu354 O375 2.488 . S
Eu354 O376 2.471 . S
Eu354 O377 2.349 . S
Eu355 O364 2.373 . S
Eu355 O368 2.488 . S
Eu355 O369 2.471 . S
Eu355 O370 2.349 . S
Eu355 O373 2.392 . S
Eu355 O374 2.418 . S
Eu355 C384 2.828 . S
C356 O374 1.244 . S
C356 O377 1.265 . S
C357 C358 1.379 . S
C357 C361 1.373 . S
C357 C363 1.505 . S
C358 C357 1.379 . S
C358 C360 1.369 . S
C358 H386 0.930 . S
C359 C361 1.383 . S
C359 C362 1.382 . S
C359 H387 0.930 . S
C360 C358 1.369 . S
C360 C362 1.392 . S
C360 H388 0.930 . S
C361 C357 1.373 . S
C361 C359 1.383 . S
C361 H389 0.931 . S
C362 C359 1.382 . S
C362 C360 1.392 . S
C363 Eu354 2.828 . S
C363 C357 1.505 . S
C363 O375 1.249 . S
C363 O376 1.244 . S
O364 Eu355 2.373 . S
O364 C366 1.258 . S
O365 Eu354 2.392 . S
O365 C366 1.242 . S
C366 O364 1.258 . S
C366 O365 1.242 . S
O367 Eu354 2.418 . S
O367 C371 1.244 . S
O368 Eu355 2.488 . S
O368 C384 1.249 . S
O369 Eu355 2.471 . S
O369 C384 1.244 . S
O370 Eu355 2.349 . S
O370 C371 1.265 . S
C371 O367 1.244 . S
C371 O370 1.265 . S
O372 Eu354 2.373 . S
O372 C385 1.258 . S
O373 Eu355 2.392 . S
O373 C385 1.242 . S
O374 Eu355 2.418 . S
O374 C356 1.244 . S
O375 Eu354 2.488 . S
O375 C363 1.249 . S
O376 Eu354 2.471 . S
O376 C363 1.244 . S
O377 Eu354 2.349 . S
O377 C356 1.265 . S
C378 C379 1.379 . S
C378 C382 1.373 . S
C378 C384 1.505 . S
C379 C378 1.379 . S
C379 C381 1.369 . S
C379 H390 0.930 . S
C380 C382 1.383 . S
C380 C383 1.382 . S
C380 H391 0.930 . S
C381 C379 1.369 . S
C381 C383 1.392 . S
C381 H392 0.930 . S
C382 C378 1.373 . S
C382 C380 1.383 . S
C382 H393 0.931 . S
C383 C380 1.382 . S
C383 C381 1.392 . S
C384 Eu355 2.828 . S
C384 O368 1.249 . S
C384 O369 1.244 . S
C384 C378 1.505 . S
C385 O372 1.258 . S
C385 O373 1.242 . S
H386 C358 0.930 . S
H387 C359 0.930 . S
H388 C360 0.930 . S
H389 C361 0.931 . S
H390 C379 0.930 . S
H391 C380 0.930 . S
H392 C381 0.930 . S
H393 C382 0.931 . S
Eu394 C403 2.828 . S
Eu394 O405 2.392 . S
Eu394 O407 2.418 . S
Eu394 O412 2.373 . S
Eu394 O415 2.488 . S
Eu394 O416 2.471 . S
Eu394 O417 2.349 . S
Eu395 O404 2.373 . S
Eu395 O408 2.488 . S
Eu395 O409 2.471 . S
Eu395 O410 2.349 . S
Eu395 O413 2.392 . S
Eu395 O414 2.418 . S
Eu395 C424 2.828 . S
C396 O414 1.244 . S
C396 O417 1.265 . S
C397 C398 1.379 . S
C397 C401 1.373 . S
C397 C403 1.505 . S
C398 C397 1.379 . S
C398 C400 1.369 . S
C398 H426 0.930 . S
C399 C401 1.383 . S
C399 C402 1.382 . S
C399 H427 0.930 . S
C400 C398 1.369 . S
C400 C402 1.392 . S
C400 H428 0.930 . S
C401 C397 1.373 . S
C401 C399 1.383 . S
C401 H429 0.931 . S
C402 C399 1.382 . S
C402 C400 1.392 . S
C403 Eu394 2.828 . S
C403 C397 1.505 . S
C403 O415 1.249 . S
C403 O416 1.244 . S
O404 Eu395 2.373 . S
O404 C406 1.258 . S
O405 Eu394 2.392 . S
O405 C406 1.242 . S
C406 O404 1.258 . S
C406 O405 1.242 . S
O407 Eu394 2.418 . S
O407 C411 1.244 . S
O408 Eu395 2.488 . S
O408 C424 1.249 . S
O409 Eu395 2.471 . S
O409 C424 1.244 . S
O410 Eu395 2.349 . S
O410 C411 1.265 . S
C411 O407 1.244 . S
C411 O410 1.265 . S
O412 Eu394 2.373 . S
O412 C425 1.258 . S
O413 Eu395 2.392 . S
O413 C425 1.242 . S
O414 Eu395 2.418 . S
O414 C396 1.244 . S
O415 Eu394 2.488 . S
O415 C403 1.249 . S
O416 Eu394 2.471 . S
O416 C403 1.244 . S
O417 Eu394 2.349 . S
O417 C396 1.265 . S
C418 C419 1.379 . S
C418 C422 1.373 . S
C418 C424 1.505 . S
C419 C418 1.379 . S
C419 C421 1.369 . S
C419 H430 0.930 . S
C420 C422 1.383 . S
C420 C423 1.382 . S
C420 H431 0.930 . S
C421 C419 1.369 . S
C421 C423 1.392 . S
C421 H432 0.930 . S
C422 C418 1.373 . S
C422 C420 1.383 . S
C422 H433 0.931 . S
C423 C420 1.382 . S
C423 C421 1.392 . S
C424 Eu395 2.828 . S
C424 O408 1.249 . S
C424 O409 1.244 . S
C424 C418 1.505 . S
C425 O412 1.258 . S
C425 O413 1.242 . S
H426 C398 0.930 . S
H427 C399 0.930 . S
H428 C400 0.930 . S
H429 C401 0.931 . S
H430 C419 0.930 . S
H431 C420 0.930 . S
H432 C421 0.930 . S
H433 C422 0.931 . S
Eu434 C443 2.828 . S
Eu434 O445 2.392 . S
Eu434 O447 2.418 . S
Eu434 O452 2.373 . S
Eu434 O455 2.488 . S
Eu434 O456 2.471 . S
Eu434 O457 2.349 . S
Eu435 O444 2.373 . S
Eu435 O448 2.488 . S
Eu435 O449 2.471 . S
Eu435 O450 2.349 . S
Eu435 O453 2.392 . S
Eu435 O454 2.418 . S
Eu435 C464 2.828 . S
C436 O454 1.244 . S
C436 O457 1.265 . S
C437 C438 1.379 . S
C437 C441 1.373 . S
C437 C443 1.505 . S
C438 C437 1.379 . S
C438 C440 1.369 . S
C438 H466 0.930 . S
C439 C441 1.383 . S
C439 C442 1.382 . S
C439 H467 0.930 . S
C440 C438 1.369 . S
C440 C442 1.392 . S
C440 H468 0.930 . S
C441 C437 1.373 . S
C441 C439 1.383 . S
C441 H469 0.931 . S
C442 C439 1.382 . S
C442 C440 1.392 . S
C443 Eu434 2.828 . S
C443 C437 1.505 . S
C443 O455 1.249 . S
C443 O456 1.244 . S
O444 Eu435 2.373 . S
O444 C446 1.258 . S
O445 Eu434 2.392 . S
O445 C446 1.242 . S
C446 O444 1.258 . S
C446 O445 1.242 . S
O447 Eu434 2.418 . S
O447 C451 1.244 . S
O448 Eu435 2.488 . S
O448 C464 1.249 . S
O449 Eu435 2.471 . S
O449 C464 1.244 . S
O450 Eu435 2.349 . S
O450 C451 1.265 . S
C451 O447 1.244 . S
C451 O450 1.265 . S
O452 Eu434 2.373 . S
O452 C465 1.258 . S
O453 Eu435 2.392 . S
O453 C465 1.242 . S
O454 Eu435 2.418 . S
O454 C436 1.244 . S
O455 Eu434 2.488 . S
O455 C443 1.249 . S
O456 Eu434 2.471 . S
O456 C443 1.244 . S
O457 Eu434 2.349 . S
O457 C436 1.265 . S
C458 C459 1.379 . S
C458 C462 1.373 . S
C458 C464 1.505 . S
C459 C458 1.379 . S
C459 C461 1.369 . S
C459 H470 0.930 . S
C460 C462 1.383 . S
C460 C463 1.382 . S
C460 H471 0.930 . S
C461 C459 1.369 . S
C461 C463 1.392 . S
C461 H472 0.930 . S
C462 C458 1.373 . S
C462 C460 1.383 . S
C462 H473 0.931 . S
C463 C460 1.382 . S
C463 C461 1.392 . S
C464 Eu435 2.828 . S
C464 O448 1.249 . S
C464 O449 1.244 . S
C464 C458 1.505 . S
C465 O452 1.258 . S
C465 O453 1.242 . S
H466 C438 0.930 . S
H467 C439 0.930 . S
H468 C440 0.930 . S
H469 C441 0.931 . S
H470 C459 0.930 . S
H471 C460 0.930 . S
H472 C461 0.930 . S
H473 C462 0.931 . S
Eu474 C483 2.828 . S
Eu474 O485 2.392 . S
Eu474 O487 2.418 . S
Eu474 O492 2.373 . S
Eu474 O495 2.488 . S
Eu474 O496 2.471 . S
Eu474 O497 2.349 . S
Eu475 O484 2.373 . S
Eu475 O488 2.488 . S
Eu475 O489 2.471 . S
Eu475 O490 2.349 . S
Eu475 O493 2.392 . S
Eu475 O494 2.418 . S
Eu475 C504 2.828 . S
C476 O494 1.244 . S
C476 O497 1.265 . S
C477 C478 1.379 . S
C477 C481 1.373 . S
C477 C483 1.505 . S
C478 C477 1.379 . S
C478 C480 1.369 . S
C478 H506 0.930 . S
C479 C481 1.383 . S
C479 C482 1.382 . S
C479 H507 0.930 . S
C480 C478 1.369 . S
C480 C482 1.392 . S
C480 H508 0.930 . S
C481 C477 1.373 . S
C481 C479 1.383 . S
C481 H509 0.931 . S
C482 C479 1.382 . S
C482 C480 1.392 . S
C483 Eu474 2.828 . S
C483 C477 1.505 . S
C483 O495 1.249 . S
C483 O496 1.244 . S
O484 Eu475 2.373 . S
O484 C486 1.258 . S
O485 Eu474 2.392 . S
O485 C486 1.242 . S
C486 O484 1.258 . S
C486 O485 1.242 . S
O487 Eu474 2.418 . S
O487 C491 1.244 . S
O488 Eu475 2.488 . S
O488 C504 1.249 . S
O489 Eu475 2.471 . S
O489 C504 1.244 . S
O490 Eu475 2.349 . S
O490 C491 1.265 . S
C491 O487 1.244 . S
C491 O490 1.265 . S
O492 Eu474 2.373 . S
O492 C505 1.258 . S
O493 Eu475 2.392 . S
O493 C505 1.242 . S
O494 Eu475 2.418 . S
O494 C476 1.244 . S
O495 Eu474 2.488 . S
O495 C483 1.249 . S
O496 Eu474 2.471 . S
O496 C483 1.244 . S
O497 Eu474 2.349 . S
O497 C476 1.265 . S
C498 C499 1.379 . S
C498 C502 1.373 . S
C498 C504 1.505 . S
C499 C498 1.379 . S
C499 C501 1.369 . S
C499 H510 0.930 . S
C500 C502 1.383 . S
C500 C503 1.382 . S
C500 H511 0.930 . S
C501 C499 1.369 . S
C501 C503 1.392 . S
C501 H512 0.930 . S
C502 C498 1.373 . S
C502 C500 1.383 . S
C502 H513 0.931 . S
C503 C500 1.382 . S
C503 C501 1.392 . S
C504 Eu475 2.828 . S
C504 O488 1.249 . S
C504 O489 1.244 . S
C504 C498 1.505 . S
C505 O492 1.258 . S
C505 O493 1.242 . S
H506 C478 0.930 . S
H507 C479 0.930 . S
H508 C480 0.930 . S
H509 C481 0.931 . S
H510 C499 0.930 . S
H511 C500 0.930 . S
H512 C501 0.930 . S
H513 C502 0.931 . S
Eu514 C523 2.828 . S
Eu514 O525 2.392 . S
Eu514 O527 2.418 . S
Eu514 O532 2.373 . S
Eu514 O535 2.488 . S
Eu514 O536 2.471 . S
Eu514 O537 2.349 . S
Eu515 O524 2.373 . S
Eu515 O528 2.488 . S
Eu515 O529 2.471 . S
Eu515 O530 2.349 . S
Eu515 O533 2.392 . S
Eu515 O534 2.418 . S
Eu515 C544 2.828 . S
C516 O534 1.244 . S
C516 O537 1.265 . S
C517 C518 1.379 . S
C517 C521 1.373 . S
C517 C523 1.505 . S
C518 C517 1.379 . S
C518 C520 1.369 . S
C518 H546 0.930 . S
C519 C521 1.383 . S
C519 C522 1.382 . S
C519 H547 0.930 . S
C520 C518 1.369 . S
C520 C522 1.392 . S
C520 H548 0.930 . S
C521 C517 1.373 . S
C521 C519 1.383 . S
C521 H549 0.931 . S
C522 C519 1.382 . S
C522 C520 1.392 . S
C523 Eu514 2.828 . S
C523 C517 1.505 . S
C523 O535 1.249 . S
C523 O536 1.244 . S
O524 Eu515 2.373 . S
O524 C526 1.258 . S
O525 Eu514 2.392 . S
O525 C526 1.242 . S
C526 O524 1.258 . S
C526 O525 1.242 . S
O527 Eu514 2.418 . S
O527 C531 1.244 . S
O528 Eu515 2.488 . S
O528 C544 1.249 . S
O529 Eu515 2.471 . S
O529 C544 1.244 . S
O530 Eu515 2.349 . S
O530 C531 1.265 . S
C531 O527 1.244 . S
C531 O530 1.265 . S
O532 Eu514 2.373 . S
O532 C545 1.258 . S
O533 Eu515 2.392 . S
O533 C545 1.242 . S
O534 Eu515 2.418 . S
O534 C516 1.244 . S
O535 Eu514 2.488 . S
O535 C523 1.249 . S
O536 Eu514 2.471 . S
O536 C523 1.244 . S
O537 Eu514 2.349 . S
O537 C516 1.265 . S
C538 C539 1.379 . S
C538 C542 1.373 . S
C538 C544 1.505 . S
C539 C538 1.379 . S
C539 C541 1.369 . S
C539 H550 0.930 . S
C540 C542 1.383 . S
C540 C543 1.382 . S
C540 H551 0.930 . S
C541 C539 1.369 . S
C541 C543 1.392 . S
C541 H552 0.930 . S
C542 C538 1.373 . S
C542 C540 1.383 . S
C542 H553 0.931 . S
C543 C540 1.382 . S
C543 C541 1.392 . S
C544 Eu515 2.828 . S
C544 O528 1.249 . S
C544 O529 1.244 . S
C544 C538 1.505 . S
C545 O532 1.258 . S
C545 O533 1.242 . S
H546 C518 0.930 . S
H547 C519 0.930 . S
H548 C520 0.930 . S
H549 C521 0.931 . S
H550 C539 0.930 . S
H551 C540 0.930 . S
H552 C541 0.930 . S
H553 C542 0.931 . S
Eu554 C563 2.828 . S
Eu554 O565 2.392 . S
Eu554 O567 2.418 . S
Eu554 O572 2.373 . S
Eu554 O575 2.488 . S
Eu554 O576 2.471 . S
Eu554 O577 2.349 . S
Eu555 O564 2.373 . S
Eu555 O568 2.488 . S
Eu555 O569 2.471 . S
Eu555 O570 2.349 . S
Eu555 O573 2.392 . S
Eu555 O574 2.418 . S
Eu555 C584 2.828 . S
C556 O574 1.244 . S
C556 O577 1.265 . S
C557 C558 1.379 . S
C557 C561 1.373 . S
C557 C563 1.505 . S
C558 C557 1.379 . S
C558 C560 1.369 . S
C558 H586 0.930 . S
C559 C561 1.383 . S
C559 C562 1.382 . S
C559 H587 0.930 . S
C560 C558 1.369 . S
C560 C562 1.392 . S
C560 H588 0.930 . S
C561 C557 1.373 . S
C561 C559 1.383 . S
C561 H589 0.931 . S
C562 C559 1.382 . S
C562 C560 1.392 . S
C563 Eu554 2.828 . S
C563 C557 1.505 . S
C563 O575 1.249 . S
C563 O576 1.244 . S
O564 Eu555 2.373 . S
O564 C566 1.258 . S
O565 Eu554 2.392 . S
O565 C566 1.242 . S
C566 O564 1.258 . S
C566 O565 1.242 . S
O567 Eu554 2.418 . S
O567 C571 1.244 . S
O568 Eu555 2.488 . S
O568 C584 1.249 . S
O569 Eu555 2.471 . S
O569 C584 1.244 . S
O570 Eu555 2.349 . S
O570 C571 1.265 . S
C571 O567 1.244 . S
C571 O570 1.265 . S
O572 Eu554 2.373 . S
O572 C585 1.258 . S
O573 Eu555 2.392 . S
O573 C585 1.242 . S
O574 Eu555 2.418 . S
O574 C556 1.244 . S
O575 Eu554 2.488 . S
O575 C563 1.249 . S
O576 Eu554 2.471 . S
O576 C563 1.244 . S
O577 Eu554 2.349 . S
O577 C556 1.265 . S
C578 C579 1.379 . S
C578 C582 1.373 . S
C578 C584 1.505 . S
C579 C578 1.379 . S
C579 C581 1.369 . S
C579 H590 0.930 . S
C580 C582 1.383 . S
C580 C583 1.382 . S
C580 H591 0.930 . S
C581 C579 1.369 . S
C581 C583 1.392 . S
C581 H592 0.930 . S
C582 C578 1.373 . S
C582 C580 1.383 . S
C582 H593 0.931 . S
C583 C580 1.382 . S
C583 C581 1.392 . S
C584 Eu555 2.828 . S
C584 O568 1.249 . S
C584 O569 1.244 . S
C584 C578 1.505 . S
C585 O572 1.258 . S
C585 O573 1.242 . S
H586 C558 0.930 . S
H587 C559 0.930 . S
H588 C560 0.930 . S
H589 C561 0.931 . S
H590 C579 0.930 . S
H591 C580 0.930 . S
H592 C581 0.930 . S
H593 C582 0.931 . S
H594 C606 0.930 . S
H595 C608 0.930 . S
H596 C609 0.930 . S
H597 C613 0.953 1_554 S
H598 C613 0.959 . S
H599 C613 0.961 . S
H600 C614 0.960 1_556 S
H601 C614 0.961 1_556 S
H602 C614 0.959 . S
H603 C617 0.929 . S
H604 C618 0.931 . S
H605 C620 0.930 1_556 S
C606 H594 0.930 . S
C606 C607 1.399 . S
C606 C611 1.399 . S
C607 C606 1.399 . S
C607 C608 1.376 . S
C608 H595 0.930 . S
C608 C607 1.376 . S
C608 C609 1.388 . S
C609 H596 0.930 . S
C609 C608 1.388 . S
C609 C610 1.390 . S
C610 C609 1.390 . S
C610 C611 1.394 . S
C610 C616 1.465 . S
C611 C606 1.399 . S
C611 C610 1.394 . S
C611 C612 1.516 . S
C612 C611 1.516 . S
C612 C613 1.502 1_554 S
C612 C614 1.561 . S
C612 C615 1.526 . S
C613 H597 0.953 1_556 S
C613 H598 0.959 . S
C613 H599 0.961 . S
C613 C612 1.502 1_556 S
C614 H600 0.960 1_554 S
C614 H601 0.961 1_554 S
C614 H602 0.959 . S
C614 C612 1.561 . S
C615 C612 1.526 . S
C615 C616 1.396 . S
C615 C620 1.390 . S
C616 C610 1.465 . S
C616 C615 1.396 . S
C616 C617 1.399 . S
C617 H603 0.929 . S
C617 C616 1.399 . S
C617 C618 1.385 . S
C618 H604 0.931 . S
C618 C617 1.385 . S
C618 C619 1.389 . S
C619 C618 1.389 . S
C619 C620 1.387 . S
C620 H605 0.930 1_554 S
C620 C615 1.390 . S
C620 C619 1.387 . S
H621 C633 0.930 . S
H622 C635 0.930 . S
H623 C636 0.930 . S
H624 C640 0.959 . S
H625 C640 0.959 . S
H626 C640 0.961 . S
H627 C641 0.960 . S
H628 C641 0.961 . S
H629 C641 0.959 . S
H630 C644 0.929 . S
H631 C645 0.931 . S
H632 C647 0.930 . S
C633 H621 0.930 . S
C633 C634 1.399 . S
C633 C638 1.399 . S
C634 C633 1.399 . S
C634 C635 1.376 . S
C635 H622 0.930 . S
C635 C634 1.376 . S
C635 C636 1.388 . S
C636 H623 0.930 . S
C636 C635 1.388 . S
C636 C637 1.390 . S
C637 C636 1.390 . S
C637 C638 1.394 . S
C637 C643 1.465 . S
C638 C633 1.399 . S
C638 C637 1.394 . S
C638 C639 1.516 . S
C639 C638 1.516 . S
C639 C640 1.502 . S
C639 C641 1.561 . S
C639 C642 1.526 . S
C640 H624 0.959 . S
C640 H625 0.959 . S
C640 H626 0.961 . S
C640 C639 1.502 . S
C641 H627 0.960 . S
C641 H628 0.961 . S
C641 H629 0.959 . S
C641 C639 1.561 . S
C642 C639 1.526 . S
C642 C643 1.396 . S
C642 C647 1.390 . S
C643 C637 1.465 . S
C643 C642 1.396 . S
C643 C644 1.399 . S
C644 H630 0.929 . S
C644 C643 1.399 . S
C644 C645 1.385 . S
C645 H631 0.931 . S
C645 C644 1.385 . S
C645 C646 1.389 . S
C646 C645 1.389 . S
C646 C647 1.387 . S
C647 H632 0.930 . S
C647 C642 1.390 . S
C647 C646 1.387 . S
H648 C660 0.930 . S
H649 C662 0.930 . S
H650 C663 0.930 . S
H651 C667 0.959 . S
H652 C667 0.959 . S
H653 C667 0.961 . S
H654 C668 0.960 . S
H655 C668 0.961 . S
H656 C668 0.959 . S
H657 C671 0.929 . S
H658 C672 0.931 . S
H659 C674 0.930 . S
C660 H648 0.930 . S
C660 C661 1.399 . S
C660 C665 1.399 . S
C661 C660 1.399 . S
C661 C662 1.376 . S
C662 H649 0.930 . S
C662 C661 1.376 . S
C662 C663 1.388 . S
C663 H650 0.930 . S
C663 C662 1.388 . S
C663 C664 1.390 . S
C664 C663 1.390 . S
C664 C665 1.394 . S
C664 C670 1.465 . S
C665 C660 1.399 . S
C665 C664 1.394 . S
C665 C666 1.516 . S
C666 C665 1.516 . S
C666 C667 1.502 . S
C666 C668 1.561 1_554 S
C666 C669 1.526 . S
C667 H651 0.959 . S
C667 H652 0.959 . S
C667 H653 0.961 . S
C667 C666 1.502 . S
C668 H654 0.960 . S
C668 H655 0.961 . S
C668 H656 0.959 . S
C668 C666 1.561 1_556 S
C669 C666 1.526 . S
C669 C670 1.396 . S
C669 C674 1.390 . S
C670 C664 1.465 . S
C670 C669 1.396 . S
C670 C671 1.399 . S
C671 H657 0.929 . S
C671 C670 1.399 . S
C671 C672 1.385 . S
C672 H658 0.931 . S
C672 C671 1.385 . S
C672 C673 1.389 . S
C673 C672 1.389 . S
C673 C674 1.387 . S
C674 H659 0.930 . S
C674 C669 1.390 . S
C674 C673 1.387 . S
H675 C687 0.930 . S
H676 C689 0.930 . S
H677 C690 0.930 . S
H678 C694 0.959 . S
H679 C694 0.959 . S
H680 C694 0.961 . S
H681 C695 0.960 . S
H682 C695 0.961 . S
H683 C695 0.959 . S
H684 C698 0.929 . S
H685 C699 0.931 . S
H686 C701 0.930 . S
C687 H675 0.930 . S
C687 C688 1.399 . S
C687 C692 1.399 . S
C688 C687 1.399 . S
C688 C689 1.376 . S
C689 H676 0.930 . S
C689 C688 1.376 . S
C689 C690 1.388 . S
C690 H677 0.930 . S
C690 C689 1.388 . S
C690 C691 1.390 . S
C691 C690 1.390 . S
C691 C692 1.394 . S
C691 C697 1.465 . S
C692 C687 1.399 . S
C692 C691 1.394 . S
C692 C693 1.516 . S
C693 C692 1.516 . S
C693 C694 1.502 . S
C693 C695 1.561 1_556 S
C693 C696 1.526 . S
C694 H678 0.959 . S
C694 H679 0.959 . S
C694 H680 0.961 . S
C694 C693 1.502 . S
C695 H681 0.960 . S
C695 H682 0.961 . S
C695 H683 0.959 . S
C695 C693 1.561 1_554 S
C696 C693 1.526 . S
C696 C697 1.396 . S
C696 C701 1.390 . S
C697 C691 1.465 . S
C697 C696 1.396 . S
C697 C698 1.399 . S
C698 H684 0.929 . S
C698 C697 1.399 . S
C698 C699 1.385 . S
C699 H685 0.931 . S
C699 C698 1.385 . S
C699 C700 1.389 . S
C700 C699 1.389 . S
C700 C701 1.387 . S
C701 H686 0.930 . S
C701 C696 1.390 . S
C701 C700 1.387 . S
H702 C714 0.930 . S
H703 C716 0.930 . S
H704 C717 0.930 . S
H705 C721 0.959 . S
H706 C721 0.959 . S
H707 C721 0.961 . S
H708 C722 0.960 . S
H709 C722 0.961 . S
H710 C722 0.959 . S
H711 C725 0.929 . S
H712 C726 0.931 . S
H713 C728 0.930 . S
C714 H702 0.930 . S
C714 C715 1.399 . S
C714 C719 1.399 . S
C715 C714 1.399 . S
C715 C716 1.376 . S
C716 H703 0.930 . S
C716 C715 1.376 . S
C716 C717 1.388 . S
C717 H704 0.930 . S
C717 C716 1.388 . S
C717 C718 1.390 . S
C718 C717 1.390 . S
C718 C719 1.394 . S
C718 C724 1.465 . S
C719 C714 1.399 . S
C719 C718 1.394 . S
C719 C720 1.516 . S
C720 C719 1.516 . S
C720 C721 1.502 . S
C720 C722 1.561 . S
C720 C723 1.526 . S
C721 H705 0.959 . S
C721 H706 0.959 . S
C721 H707 0.961 . S
C721 C720 1.502 . S
C722 H708 0.960 . S
C722 H709 0.961 . S
C722 H710 0.959 . S
C722 C720 1.561 . S
C723 C720 1.526 . S
C723 C724 1.396 . S
C723 C728 1.390 . S
C724 C718 1.465 . S
C724 C723 1.396 . S
C724 C725 1.399 . S
C725 H711 0.929 . S
C725 C724 1.399 . S
C725 C726 1.385 . S
C726 H712 0.931 . S
C726 C725 1.385 . S
C726 C727 1.389 . S
C727 C726 1.389 . S
C727 C728 1.387 . S
C728 H713 0.930 . S
C728 C723 1.390 . S
C728 C727 1.387 . S
H729 C741 0.930 . S
H730 C743 0.925 1_554 S
H731 C744 0.930 . S
H732 C748 0.959 . S
H733 C748 0.959 . S
H734 C748 0.961 . S
H735 C749 0.960 . S
H736 C749 0.961 . S
H737 C749 0.959 . S
H738 C752 0.929 . S
H739 C753 0.931 . S
H740 C755 0.930 . S
C741 H729 0.930 . S
C741 C742 1.399 . S
C741 C746 1.399 . S
C742 C741 1.399 . S
C742 C743 1.387 . S
C743 H730 0.925 1_556 S
C743 C742 1.387 . S
C743 C744 1.384 1_556 S
C744 H731 0.930 . S
C744 C743 1.384 1_554 S
C744 C745 1.390 1_554 S
C745 C744 1.390 1_556 S
C745 C746 1.394 . S
C745 C751 1.464 . S
C746 C741 1.399 . S
C746 C745 1.394 . S
C746 C747 1.516 . S
C747 C746 1.516 . S
C747 C748 1.502 . S
C747 C749 1.561 . S
C747 C750 1.526 . S
C748 H732 0.959 . S
C748 H733 0.959 . S
C748 H734 0.961 . S
C748 C747 1.502 . S
C749 H735 0.960 . S
C749 H736 0.961 . S
C749 H737 0.959 . S
C749 C747 1.561 . S
C750 C747 1.526 . S
C750 C751 1.391 . S
C750 C755 1.390 . S
C751 C745 1.464 . S
C751 C750 1.391 . S
C751 C752 1.404 1_556 S
C752 H738 0.929 . S
C752 C751 1.404 1_554 S
C752 C753 1.385 . S
C753 H739 0.931 . S
C753 C752 1.385 . S
C753 C754 1.405 . S
C754 C753 1.405 . S
C754 C755 1.370 1_554 S
C755 H740 0.930 . S
C755 C750 1.390 . S
C755 C754 1.370 1_556 S
H756 C768 0.930 . S
H757 C770 0.930 . S
H758 C771 0.919 1_554 S
H759 C775 0.959 . S
H760 C775 0.959 . S
H761 C775 0.961 . S
H762 C776 0.960 . S
H763 C776 0.961 . S
H764 C776 0.959 . S
H765 C779 0.947 . S
H766 C780 0.931 . S
H767 C782 0.930 . S
C768 H756 0.930 . S
C768 C769 1.399 . S
C768 C773 1.399 . S
C769 C768 1.399 . S
C769 C770 1.376 . S
C770 H757 0.930 . S
C770 C769 1.376 . S
C770 C771 1.388 . S
C771 H758 0.919 1_556 S
C771 C770 1.388 . S
C771 C772 1.390 . S
C772 C771 1.390 . S
C772 C773 1.394 . S
C772 C778 1.465 . S
C773 C768 1.399 . S
C773 C772 1.394 . S
C773 C774 1.516 . S
C774 C773 1.516 . S
C774 C775 1.502 . S
C774 C776 1.561 . S
C774 C777 1.526 . S
C775 H759 0.959 . S
C775 H760 0.959 . S
C775 H761 0.961 . S
C775 C774 1.502 . S
C776 H762 0.960 . S
C776 H763 0.961 . S
C776 H764 0.959 . S
C776 C774 1.561 . S
C777 C774 1.526 . S
C777 C778 1.396 . S
C777 C782 1.390 . S
C778 C772 1.465 . S
C778 C777 1.396 . S
C778 C779 1.376 1_556 S
C779 H765 0.947 . S
C779 C778 1.376 1_554 S
C779 C780 1.391 . S
C780 H766 0.931 . S
C780 C779 1.391 . S
C780 C781 1.389 1_554 S
C781 C780 1.389 1_556 S
C781 C782 1.387 . S
C782 H767 0.930 . S
C782 C777 1.390 . S
C782 C781 1.387 . S
H783 C795 0.930 . S
H784 C797 0.930 . S
H785 C798 0.930 . S
H786 C802 0.966 . S
H787 C802 0.953 1_554 S
H788 C802 0.959 1_554 S
H789 C803 0.960 . S
H790 C803 0.961 . S
H791 C803 0.959 . S
H792 C806 0.929 . S
H793 C807 0.931 . S
H794 C809 0.930 1_554 S
C795 H783 0.930 . S
C795 C796 1.399 . S
C795 C800 1.399 . S
C796 C795 1.399 . S
C796 C797 1.376 . S
C797 H784 0.930 . S
C797 C796 1.376 . S
C797 C798 1.388 . S
C798 H785 0.930 . S
C798 C797 1.388 . S
C798 C799 1.390 . S
C799 C798 1.390 . S
C799 C800 1.394 . S
C799 C805 1.465 . S
C800 C795 1.399 . S
C800 C799 1.394 . S
C800 C801 1.516 . S
C801 C800 1.516 . S
C801 C802 1.504 . S
C801 C803 1.561 1_556 S
C801 C804 1.526 . S
C802 H786 0.966 . S
C802 H787 0.953 1_556 S
C802 H788 0.959 1_556 S
C802 C801 1.504 . S
C803 H789 0.960 . S
C803 H790 0.961 . S
C803 H791 0.959 . S
C803 C801 1.561 1_554 S
C804 C801 1.526 . S
C804 C805 1.396 . S
C804 C809 1.390 . S
C805 C799 1.465 . S
C805 C804 1.396 . S
C805 C806 1.399 . S
C806 H792 0.929 . S
C806 C805 1.399 . S
C806 C807 1.385 . S
C807 H793 0.931 . S
C807 C806 1.385 . S
C807 C808 1.389 . S
C808 C807 1.389 . S
C808 C809 1.387 . S
C809 H794 0.930 1_556 S
C809 C804 1.390 . S
C809 C808 1.387 . S
H810 C822 0.930 . S
H811 C824 0.930 . S
H812 C825 0.930 . S
H813 C829 0.959 . S
H814 C829 0.959 . S
H815 C829 0.961 . S
H816 C830 0.960 . S
H817 C830 0.961 . S
H818 C830 0.959 . S
H819 C833 0.929 . S
H820 C834 0.931 . S
H821 C836 0.930 . S
C822 H810 0.930 . S
C822 C823 1.399 . S
C822 C827 1.399 . S
C823 C822 1.399 . S
C823 C824 1.376 1_556 S
C824 H811 0.930 . S
C824 C823 1.376 1_554 S
C824 C825 1.388 . S
C825 H812 0.930 . S
C825 C824 1.388 . S
C825 C826 1.390 . S
C826 C825 1.390 . S
C826 C827 1.394 1_554 S
C826 C832 1.465 . S
C827 C822 1.399 . S
C827 C826 1.394 1_556 S
C827 C828 1.516 . S
C828 C827 1.516 . S
C828 C829 1.502 . S
C828 C830 1.561 . S
C828 C831 1.526 . S
C829 H813 0.959 . S
C829 H814 0.959 . S
C829 H815 0.961 . S
C829 C828 1.502 . S
C830 H816 0.960 . S
C830 H817 0.961 . S
C830 H818 0.959 . S
C830 C828 1.561 . S
C831 C828 1.526 . S
C831 C832 1.396 1_556 S
C831 C836 1.390 . S
C832 C826 1.465 . S
C832 C831 1.396 1_554 S
C832 C833 1.399 . S
C833 H819 0.929 . S
C833 C832 1.399 . S
C833 C834 1.385 . S
C834 H820 0.931 . S
C834 C833 1.385 . S
C834 C835 1.389 . S
C835 C834 1.389 . S
C835 C836 1.387 1_554 S
C836 H821 0.930 . S
C836 C831 1.390 . S
C836 C835 1.387 1_556 S
H837 C849 0.930 . S
H838 C851 0.930 . S
H839 C852 0.930 1_556 S
H840 C856 0.959 . S
H841 C856 0.959 . S
H842 C856 0.961 . S
H843 C857 0.960 . S
H844 C857 0.961 . S
H845 C857 0.959 . S
H846 C860 0.929 . S
H847 C861 0.931 . S
H848 C863 0.930 . S
C849 H837 0.930 . S
C849 C850 1.399 . S
C849 C854 1.399 . S
C850 C849 1.399 . S
C850 C851 1.376 . S
C851 H838 0.930 . S
C851 C850 1.376 . S
C851 C852 1.388 . S
C852 H839 0.930 1_554 S
C852 C851 1.388 . S
C852 C853 1.390 . S
C853 C852 1.390 . S
C853 C854 1.394 . S
C853 C859 1.465 . S
C854 C849 1.399 . S
C854 C853 1.394 . S
C854 C855 1.516 . S
C855 C854 1.516 . S
C855 C856 1.502 . S
C855 C857 1.561 . S
C855 C858 1.526 . S
C856 H840 0.959 . S
C856 H841 0.959 . S
C856 H842 0.961 . S
C856 C855 1.502 . S
C857 H843 0.960 . S
C857 H844 0.961 . S
C857 H845 0.959 . S
C857 C855 1.561 . S
C858 C855 1.526 . S
C858 C859 1.396 . S
C858 C863 1.390 . S
C859 C853 1.465 . S
C859 C858 1.396 . S
C859 C860 1.399 1_554 S
C860 H846 0.929 . S
C860 C859 1.399 1_556 S
C860 C861 1.385 . S
C861 H847 0.931 . S
C861 C860 1.385 . S
C861 C862 1.389 1_556 S
C862 C861 1.389 1_554 S
C862 C863 1.387 . S
C863 H848 0.930 . S
C863 C858 1.390 . S
C863 C862 1.387 . S
H864 C876 0.930 . S
H865 C878 0.930 . S
H866 C879 0.930 . S
H867 C883 0.959 . S
H868 C883 0.959 . S
H869 C883 0.961 . S
H870 C884 0.960 . S
H871 C884 0.961 . S
H872 C884 0.959 . S
H873 C887 0.929 . S
H874 C888 0.931 . S
H875 C890 0.930 . S
C876 H864 0.930 . S
C876 C877 1.399 . S
C876 C881 1.399 . S
C877 C876 1.399 . S
C877 C878 1.376 . S
C878 H865 0.930 . S
C878 C877 1.376 . S
C878 C879 1.388 . S
C879 H866 0.930 . S
C879 C878 1.388 . S
C879 C880 1.390 . S
C880 C879 1.390 . S
C880 C881 1.394 . S
C880 C886 1.465 . S
C881 C876 1.399 . S
C881 C880 1.394 . S
C881 C882 1.516 . S
C882 C881 1.516 . S
C882 C883 1.502 . S
C882 C884 1.561 . S
C882 C885 1.526 . S
C883 H867 0.959 . S
C883 H868 0.959 . S
C883 H869 0.961 . S
C883 C882 1.502 . S
C884 H870 0.960 . S
C884 H871 0.961 . S
C884 H872 0.959 . S
C884 C882 1.561 . S
C885 C882 1.526 . S
C885 C886 1.396 . S
C885 C890 1.390 . S
C886 C880 1.465 . S
C886 C885 1.396 . S
C886 C887 1.399 . S
C887 H873 0.929 . S
C887 C886 1.399 . S
C887 C888 1.385 . S
C888 H874 0.931 . S
C888 C887 1.385 . S
C888 C889 1.389 . S
C889 C888 1.389 . S
C889 C890 1.387 . S
C890 H875 0.930 . S
C890 C885 1.390 . S
C890 C889 1.387 . S
H891 C903 0.930 . S
H892 C905 0.930 . S
H893 C906 0.930 1_556 S
H894 C910 0.959 . S
H895 C910 0.959 . S
H896 C910 0.961 . S
H897 C911 0.960 . S
H898 C911 0.961 . S
H899 C911 0.959 . S
H900 C914 0.929 . S
H901 C915 0.931 . S
H902 C917 0.930 . S
C903 H891 0.930 . S
C903 C904 1.399 . S
C903 C908 1.399 . S
C904 C903 1.399 . S
C904 C905 1.376 . S
C905 H892 0.930 . S
C905 C904 1.376 . S
C905 C906 1.388 . S
C906 H893 0.930 1_554 S
C906 C905 1.388 . S
C906 C907 1.390 . S
C907 C906 1.390 . S
C907 C908 1.394 . S
C907 C913 1.465 . S
C908 C903 1.399 . S
C908 C907 1.394 . S
C908 C909 1.516 . S
C909 C908 1.516 . S
C909 C910 1.502 . S
C909 C911 1.561 . S
C909 C912 1.526 . S
C910 H894 0.959 . S
C910 H895 0.959 . S
C910 H896 0.961 . S
C910 C909 1.502 . S
C911 H897 0.960 . S
C911 H898 0.961 . S
C911 H899 0.959 . S
C911 C909 1.561 . S
C912 C909 1.526 . S
C912 C913 1.396 . S
C912 C917 1.390 . S
C913 C907 1.465 . S
C913 C912 1.396 . S
C913 C914 1.399 1_554 S
C914 H900 0.929 . S
C914 C913 1.399 1_556 S
C914 C915 1.385 . S
C915 H901 0.931 . S
C915 C914 1.385 . S
C915 C916 1.389 1_556 S
C916 C915 1.389 1_554 S
C916 C917 1.387 . S
C917 H902 0.930 . S
C917 C912 1.390 . S
C917 C916 1.387 . S
H918 C930 0.930 . S
H919 C932 0.930 . S
H920 C933 0.930 . S
H921 C937 0.959 . S
H922 C937 0.959 1_455 S
H923 C937 0.961 . S
H924 C938 0.960 1_655 S
H925 C938 0.961 . S
H926 C938 0.959 . S
H927 C941 0.929 . S
H928 C942 0.931 . S
H929 C944 0.930 . S
C930 H918 0.930 . S
C930 C931 1.399 . S
C930 C935 1.399 . S
C931 C930 1.399 . S
C931 C932 1.376 . S
C932 H919 0.930 . S
C932 C931 1.376 . S
C932 C933 1.388 . S
C933 H920 0.930 . S
C933 C932 1.388 . S
C933 C934 1.390 . S
C934 C933 1.390 . S
C934 C935 1.394 . S
C934 C940 1.465 1_655 S
C935 C930 1.399 . S
C935 C934 1.394 . S
C935 C936 1.516 . S
C936 C935 1.516 . S
C936 C937 1.502 . S
C936 C938 1.561 1_655 S
C936 C939 1.526 1_655 S
C937 H921 0.959 . S
C937 H922 0.959 1_655 S
C937 H923 0.961 . S
C937 C936 1.502 . S
C938 H924 0.960 1_455 S
C938 H925 0.961 . S
C938 H926 0.959 . S
C938 C936 1.561 1_455 S
C939 C936 1.526 1_455 S
C939 C940 1.396 . S
C939 C944 1.390 . S
C940 C934 1.465 1_455 S
C940 C939 1.396 . S
C940 C941 1.399 . S
C941 H927 0.929 . S
C941 C940 1.399 . S
C941 C942 1.385 . S
C942 H928 0.931 . S
C942 C941 1.385 . S
C942 C943 1.389 . S
C943 C942 1.389 . S
C943 C944 1.387 . S
C944 H929 0.930 . S
C944 C939 1.390 . S
C944 C943 1.387 . S
H945 C957 0.930 . S
H946 C959 0.930 . S
H947 C960 0.930 . S
H948 C964 0.959 . S
H949 C964 0.959 . S
H950 C964 0.961 . S
H951 C965 0.960 . S
H952 C965 0.961 . S
H953 C965 0.959 . S
H954 C968 0.929 . S
H955 C969 0.931 . S
H956 C971 0.930 . S
C957 H945 0.930 . S
C957 C958 1.399 . S
C957 C962 1.399 . S
C958 C957 1.399 . S
C958 C959 1.376 . S
C959 H946 0.930 . S
C959 C958 1.376 . S
C959 C960 1.388 . S
C960 H947 0.930 . S
C960 C959 1.388 . S
C960 C961 1.390 . S
C961 C960 1.390 . S
C961 C962 1.394 . S
C961 C967 1.465 . S
C962 C957 1.399 . S
C962 C961 1.394 . S
C962 C963 1.516 . S
C963 C962 1.516 . S
C963 C964 1.502 . S
C963 C965 1.561 . S
C963 C966 1.526 . S
C964 H948 0.959 . S
C964 H949 0.959 . S
C964 H950 0.961 . S
C964 C963 1.502 . S
C965 H951 0.960 . S
C965 H952 0.961 . S
C965 H953 0.959 . S
C965 C963 1.561 . S
C966 C963 1.526 . S
C966 C967 1.396 . S
C966 C971 1.390 . S
C967 C961 1.465 . S
C967 C966 1.396 . S
C967 C968 1.399 . S
C968 H954 0.929 . S
C968 C967 1.399 . S
C968 C969 1.385 . S
C969 H955 0.931 . S
C969 C968 1.385 . S
C969 C970 1.389 . S
C970 C969 1.389 . S
C970 C971 1.387 . S
C971 H956 0.930 . S
C971 C966 1.390 . S
C971 C970 1.387 . S
H972 C984 0.930 . S
H973 C986 0.930 . S
H974 C987 0.930 . S
H975 C991 0.959 . S
H976 C991 0.959 1_565 S
H977 C991 0.961 . S
H978 C992 0.960 . S
H979 C992 0.961 . S
H980 C992 0.959 . S
H981 C995 0.931 . S
H982 C996 0.931 . S
H983 C998 0.930 . S
C984 H972 0.930 . S
C984 C985 1.399 . S
C984 C989 1.399 . S
C985 C984 1.399 . S
C985 C986 1.376 . S
C986 H973 0.930 . S
C986 C985 1.376 . S
C986 C987 1.388 . S
C987 H974 0.930 . S
C987 C986 1.388 . S
C987 C988 1.390 . S
C988 C987 1.390 . S
C988 C989 1.394 . S
C988 C994 1.465 . S
C989 C984 1.399 . S
C989 C988 1.394 . S
C989 C990 1.516 . S
C990 C989 1.516 . S
C990 C991 1.502 . S
C990 C992 1.561 . S
C990 C993 1.526 1_545 S
C991 H975 0.959 . S
C991 H976 0.959 1_545 S
C991 H977 0.961 . S
C991 C990 1.502 . S
C992 H978 0.960 . S
C992 H979 0.961 . S
C992 H980 0.959 . S
C992 C990 1.561 . S
C993 C990 1.526 1_565 S
C993 C994 1.396 1_565 S
C993 C998 1.390 . S
C994 C988 1.465 . S
C994 C993 1.396 1_545 S
C994 C995 1.399 1_545 S
C995 H981 0.931 . S
C995 C994 1.399 1_565 S
C995 C996 1.385 . S
C996 H982 0.931 . S
C996 C995 1.385 . S
C996 C997 1.389 . S
C997 C996 1.389 . S
C997 C998 1.387 . S
C998 H983 0.930 . S
C998 C993 1.390 . S
C998 C997 1.387 . S
H999 C1011 0.930 . S
H1000 C1013 0.930 . S
H1001 C1014 0.930 . S
H1002 C1018 0.959 . S
H1003 C1018 0.959 . S
H1004 C1018 0.961 . S
H1005 C1019 0.960 . S
H1006 C1019 0.961 . S
H1007 C1019 0.959 . S
H1008 C1022 0.929 . S
H1009 C1023 0.931 . S
H1010 C1025 0.930 . S
C1011 H999 0.930 . S
C1011 C1012 1.399 . S
C1011 C1016 1.399 . S
C1012 C1011 1.399 . S
C1012 C1013 1.376 . S
C1013 H1000 0.930 . S
C1013 C1012 1.376 . S
C1013 C1014 1.388 . S
C1014 H1001 0.930 . S
C1014 C1013 1.388 . S
C1014 C1015 1.390 . S
C1015 C1014 1.390 . S
C1015 C1016 1.394 . S
C1015 C1021 1.465 . S
C1016 C1011 1.399 . S
C1016 C1015 1.394 . S
C1016 C1017 1.516 . S
C1017 C1016 1.516 . S
C1017 C1018 1.502 . S
C1017 C1019 1.561 . S
C1017 C1020 1.526 . S
C1018 H1002 0.959 . S
C1018 H1003 0.959 . S
C1018 H1004 0.961 . S
C1018 C1017 1.502 . S
C1019 H1005 0.960 . S
C1019 H1006 0.961 . S
C1019 H1007 0.959 . S
C1019 C1017 1.561 . S
C1020 C1017 1.526 . S
C1020 C1021 1.396 . S
C1020 C1025 1.390 . S
C1021 C1015 1.465 . S
C1021 C1020 1.396 . S
C1021 C1022 1.399 . S
C1022 H1008 0.929 . S
C1022 C1021 1.399 . S
C1022 C1023 1.385 . S
C1023 H1009 0.931 . S
C1023 C1022 1.385 . S
C1023 C1024 1.389 . S
C1024 C1023 1.389 . S
C1024 C1025 1.387 . S
C1025 H1010 0.930 . S
C1025 C1020 1.390 . S
C1025 C1024 1.387 . S
H1026 C1038 0.930 . S
H1027 C1040 0.930 . S
H1028 C1041 0.930 . S
H1029 C1045 0.959 . S
H1030 C1045 0.959 . S
H1031 C1045 0.961 . S
H1032 C1046 0.960 . S
H1033 C1046 0.961 . S
H1034 C1046 0.959 . S
H1035 C1049 0.929 . S
H1036 C1050 0.931 . S
H1037 C1052 0.930 . S
C1038 H1026 0.930 . S
C1038 C1039 1.399 . S
C1038 C1043 1.399 . S
C1039 C1038 1.399 . S
C1039 C1040 1.376 . S
C1040 H1027 0.930 . S
C1040 C1039 1.376 . S
C1040 C1041 1.388 . S
C1041 H1028 0.930 . S
C1041 C1040 1.388 . S
C1041 C1042 1.390 . S
C1042 C1041 1.390 . S
C1042 C1043 1.394 . S
C1042 C1048 1.465 . S
C1043 C1038 1.399 . S
C1043 C1042 1.394 . S
C1043 C1044 1.516 . S
C1044 C1043 1.516 . S
C1044 C1045 1.502 . S
C1044 C1046 1.561 . S
C1044 C1047 1.526 . S
C1045 H1029 0.959 . S
C1045 H1030 0.959 . S
C1045 H1031 0.961 . S
C1045 C1044 1.502 . S
C1046 H1032 0.960 . S
C1046 H1033 0.961 . S
C1046 H1034 0.959 . S
C1046 C1044 1.561 . S
C1047 C1044 1.526 . S
C1047 C1048 1.396 . S
C1047 C1052 1.390 . S
C1048 C1042 1.465 . S
C1048 C1047 1.396 . S
C1048 C1049 1.399 . S
C1049 H1035 0.929 . S
C1049 C1048 1.399 . S
C1049 C1050 1.385 . S
C1050 H1036 0.931 . S
C1050 C1049 1.385 . S
C1050 C1051 1.389 . S
C1051 C1050 1.389 . S
C1051 C1052 1.387 . S
C1052 H1037 0.930 . S
C1052 C1047 1.390 . S
C1052 C1051 1.387 . S
H1053 C1065 0.930 . S
H1054 C1067 0.930 . S
H1055 C1068 0.930 . S
H1056 C1072 0.959 . S
H1057 C1072 0.959 . S
H1058 C1072 0.961 . S
H1059 C1073 0.960 . S
H1060 C1073 0.961 . S
H1061 C1073 0.959 . S
H1062 C1076 0.929 . S
H1063 C1077 0.931 . S
H1064 C1079 0.930 . S
C1065 H1053 0.930 . S
C1065 C1066 1.399 . S
C1065 C1070 1.399 . S
C1066 C1065 1.399 . S
C1066 C1067 1.376 . S
C1067 H1054 0.930 . S
C1067 C1066 1.376 . S
C1067 C1068 1.388 . S
C1068 H1055 0.930 . S
C1068 C1067 1.388 . S
C1068 C1069 1.390 . S
C1069 C1068 1.390 . S
C1069 C1070 1.394 . S
C1069 C1075 1.465 . S
C1070 C1065 1.399 . S
C1070 C1069 1.394 . S
C1070 C1071 1.516 . S
C1071 C1070 1.516 . S
C1071 C1072 1.502 . S
C1071 C1073 1.561 . S
C1071 C1074 1.526 . S
C1072 H1056 0.959 . S
C1072 H1057 0.959 . S
C1072 H1058 0.961 . S
C1072 C1071 1.502 . S
C1073 H1059 0.960 . S
C1073 H1060 0.961 . S
C1073 H1061 0.959 . S
C1073 C1071 1.561 . S
C1074 C1071 1.526 . S
C1074 C1075 1.396 . S
C1074 C1079 1.390 . S
C1075 C1069 1.465 . S
C1075 C1074 1.396 . S
C1075 C1076 1.399 . S
C1076 H1062 0.929 . S
C1076 C1075 1.399 . S
C1076 C1077 1.385 . S
C1077 H1063 0.931 . S
C1077 C1076 1.385 . S
C1077 C1078 1.389 . S
C1078 C1077 1.389 . S
C1078 C1079 1.387 . S
C1079 H1064 0.930 . S
C1079 C1074 1.390 . S
C1079 C1078 1.387 . S
H1080 C1092 0.930 . S
H1081 C1094 0.930 . S
H1082 C1095 0.930 . S
H1083 C1099 0.959 . S
H1084 C1099 0.959 . S
H1085 C1099 0.961 . S
H1086 C1100 0.960 . S
H1087 C1100 0.961 . S
H1088 C1100 0.959 . S
H1089 C1103 0.929 . S
H1090 C1104 0.931 . S
H1091 C1106 0.930 . S
C1092 H1080 0.930 . S
C1092 C1093 1.399 . S
C1092 C1097 1.399 . S
C1093 C1092 1.399 . S
C1093 C1094 1.376 . S
C1094 H1081 0.930 . S
C1094 C1093 1.376 . S
C1094 C1095 1.388 . S
C1095 H1082 0.930 . S
C1095 C1094 1.388 . S
C1095 C1096 1.390 . S
C1096 C1095 1.390 . S
C1096 C1097 1.394 . S
C1096 C1102 1.465 . S
C1097 C1092 1.399 . S
C1097 C1096 1.394 . S
C1097 C1098 1.516 . S
C1098 C1097 1.516 . S
C1098 C1099 1.502 . S
C1098 C1100 1.561 . S
C1098 C1101 1.526 . S
C1099 H1083 0.959 . S
C1099 H1084 0.959 . S
C1099 H1085 0.961 . S
C1099 C1098 1.502 . S
C1100 H1086 0.960 . S
C1100 H1087 0.961 . S
C1100 H1088 0.959 . S
C1100 C1098 1.561 . S
C1101 C1098 1.526 . S
C1101 C1102 1.396 . S
C1101 C1106 1.390 . S
C1102 C1096 1.465 . S
C1102 C1101 1.396 . S
C1102 C1103 1.399 . S
C1103 H1089 0.929 . S
C1103 C1102 1.399 . S
C1103 C1104 1.385 . S
C1104 H1090 0.931 . S
C1104 C1103 1.385 . S
C1104 C1105 1.389 . S
C1105 C1104 1.389 . S
C1105 C1106 1.387 . S
C1106 H1091 0.930 . S
C1106 C1101 1.390 . S
C1106 C1105 1.387 . S
H1107 C1119 0.930 . S
H1108 C1121 0.930 . S
H1109 C1122 0.930 . S
H1110 C1126 0.959 . S
H1111 C1126 0.959 . S
H1112 C1126 0.961 . S
H1113 C1127 0.960 . S
H1114 C1127 0.961 . S
H1115 C1127 0.959 . S
H1116 C1130 0.929 . S
H1117 C1131 0.931 . S
H1118 C1133 0.930 . S
C1119 H1107 0.930 . S
C1119 C1120 1.399 . S
C1119 C1124 1.399 . S
C1120 C1119 1.399 . S
C1120 C1121 1.376 . S
C1121 H1108 0.930 . S
C1121 C1120 1.376 . S
C1121 C1122 1.388 . S
C1122 H1109 0.930 . S
C1122 C1121 1.388 . S
C1122 C1123 1.390 . S
C1123 C1122 1.390 . S
C1123 C1124 1.394 . S
C1123 C1129 1.465 . S
C1124 C1119 1.399 . S
C1124 C1123 1.394 . S
C1124 C1125 1.516 . S
C1125 C1124 1.516 . S
C1125 C1126 1.502 . S
C1125 C1127 1.561 . S
C1125 C1128 1.526 . S
C1126 H1110 0.959 . S
C1126 H1111 0.959 . S
C1126 H1112 0.961 . S
C1126 C1125 1.502 . S
C1127 H1113 0.960 . S
C1127 H1114 0.961 . S
C1127 H1115 0.959 . S
C1127 C1125 1.561 . S
C1128 C1125 1.526 . S
C1128 C1129 1.396 . S
C1128 C1133 1.390 . S
C1129 C1123 1.465 . S
C1129 C1128 1.396 . S
C1129 C1130 1.399 . S
C1130 H1116 0.929 . S
C1130 C1129 1.399 . S
C1130 C1131 1.385 . S
C1131 H1117 0.931 . S
C1131 C1130 1.385 . S
C1131 C1132 1.389 . S
C1132 C1131 1.389 . S
C1132 C1133 1.387 . S
C1133 H1118 0.930 . S
C1133 C1128 1.390 . S
C1133 C1132 1.387 . S
H1134 C1146 0.930 . S
H1135 C1148 0.930 . S
H1136 C1149 0.930 . S
H1137 C1153 0.959 . S
H1138 C1153 0.959 . S
H1139 C1153 0.961 . S
H1140 C1154 0.960 . S
H1141 C1154 0.961 . S
H1142 C1154 0.959 . S
H1143 C1157 0.929 . S
H1144 C1158 0.931 . S
H1145 C1160 0.930 . S
C1146 H1134 0.930 . S
C1146 C1147 1.399 . S
C1146 C1151 1.399 . S
C1147 C1146 1.399 . S
C1147 C1148 1.376 . S
C1148 H1135 0.930 . S
C1148 C1147 1.376 . S
C1148 C1149 1.388 . S
C1149 H1136 0.930 . S
C1149 C1148 1.388 . S
C1149 C1150 1.390 . S
C1150 C1149 1.390 . S
C1150 C1151 1.394 . S
C1150 C1156 1.465 . S
C1151 C1146 1.399 . S
C1151 C1150 1.394 . S
C1151 C1152 1.516 . S
C1152 C1151 1.516 . S
C1152 C1153 1.502 . S
C1152 C1154 1.561 . S
C1152 C1155 1.526 . S
C1153 H1137 0.959 . S
C1153 H1138 0.959 . S
C1153 H1139 0.961 . S
C1153 C1152 1.502 . S
C1154 H1140 0.960 . S
C1154 H1141 0.961 . S
C1154 H1142 0.959 . S
C1154 C1152 1.561 . S
C1155 C1152 1.526 . S
C1155 C1156 1.396 . S
C1155 C1160 1.390 . S
C1156 C1150 1.465 . S
C1156 C1155 1.396 . S
C1156 C1157 1.399 . S
C1157 H1143 0.929 . S
C1157 C1156 1.399 . S
C1157 C1158 1.385 . S
C1158 H1144 0.931 . S
C1158 C1157 1.385 . S
C1158 C1159 1.389 . S
C1159 C1158 1.389 . S
C1159 C1160 1.387 . S
C1160 H1145 0.930 . S
C1160 C1155 1.390 . S
C1160 C1159 1.387 . S
H1161 C1173 0.930 . S
H1162 C1175 0.930 . S
H1163 C1176 0.930 . S
H1164 C1180 0.959 . S
H1165 C1180 0.959 . S
H1166 C1180 0.961 . S
H1167 C1181 0.960 . S
H1168 C1181 0.961 . S
H1169 C1181 0.959 . S
H1170 C1184 0.929 . S
H1171 C1185 0.931 . S
H1172 C1187 0.930 . S
C1173 H1161 0.930 . S
C1173 C1174 1.399 . S
C1173 C1178 1.399 1_545 S
C1174 C1173 1.399 . S
C1174 C1175 1.376 . S
C1175 H1162 0.930 . S
C1175 C1174 1.376 . S
C1175 C1176 1.388 1_545 S
C1176 H1163 0.930 . S
C1176 C1175 1.388 1_565 S
C1176 C1177 1.390 . S
C1177 C1176 1.390 . S
C1177 C1178 1.394 . S
C1177 C1183 1.465 . S
C1178 C1173 1.399 1_565 S
C1178 C1177 1.394 . S
C1178 C1179 1.516 . S
C1179 C1178 1.516 . S
C1179 C1180 1.502 . S
C1179 C1181 1.561 . S
C1179 C1182 1.526 . S
C1180 H1164 0.959 . S
C1180 H1165 0.959 . S
C1180 H1166 0.961 . S
C1180 C1179 1.502 . S
C1181 H1167 0.960 . S
C1181 H1168 0.961 . S
C1181 H1169 0.959 . S
C1181 C1179 1.561 . S
C1182 C1179 1.526 . S
C1182 C1183 1.396 . S
C1182 C1187 1.390 . S
C1183 C1177 1.465 . S
C1183 C1182 1.396 . S
C1183 C1184 1.399 . S
C1184 H1170 0.929 . S
C1184 C1183 1.399 . S
C1184 C1185 1.385 . S
C1185 H1171 0.931 . S
C1185 C1184 1.385 . S
C1185 C1186 1.389 . S
C1186 C1185 1.389 . S
C1186 C1187 1.387 . S
C1187 H1172 0.930 . S
C1187 C1182 1.390 . S
C1187 C1186 1.387 . S
H1188 C1200 0.930 . S
H1189 C1202 0.930 . S
H1190 C1203 0.930 . S
H1191 C1207 0.959 . S
H1192 C1207 0.959 . S
H1193 C1207 0.961 . S
H1194 C1208 0.960 . S
H1195 C1208 0.961 . S
H1196 C1208 0.959 . S
H1197 C1211 0.929 . S
H1198 C1212 0.931 . S
H1199 C1214 0.930 . S
C1200 H1188 0.930 . S
C1200 C1201 1.399 1_455 S
C1200 C1205 1.399 . S
C1201 C1200 1.399 1_655 S
C1201 C1202 1.376 . S
C1202 H1189 0.930 . S
C1202 C1201 1.376 . S
C1202 C1203 1.388 1_655 S
C1203 H1190 0.930 . S
C1203 C1202 1.388 1_455 S
C1203 C1204 1.390 . S
C1204 C1203 1.390 . S
C1204 C1205 1.394 . S
C1204 C1210 1.465 . S
C1205 C1200 1.399 . S
C1205 C1204 1.394 . S
C1205 C1206 1.516 . S
C1206 C1205 1.516 . S
C1206 C1207 1.502 . S
C1206 C1208 1.561 . S
C1206 C1209 1.526 . S
C1207 H1191 0.959 . S
C1207 H1192 0.959 . S
C1207 H1193 0.961 . S
C1207 C1206 1.502 . S
C1208 H1194 0.960 . S
C1208 H1195 0.961 . S
C1208 H1196 0.959 . S
C1208 C1206 1.561 . S
C1209 C1206 1.526 . S
C1209 C1210 1.396 . S
C1209 C1214 1.390 . S
C1210 C1204 1.465 . S
C1210 C1209 1.396 . S
C1210 C1211 1.399 . S
C1211 H1197 0.929 . S
C1211 C1210 1.399 . S
C1211 C1212 1.385 . S
C1212 H1198 0.931 . S
C1212 C1211 1.385 . S
C1212 C1213 1.389 . S
C1213 C1212 1.389 . S
C1213 C1214 1.387 . S
C1214 H1199 0.930 . S
C1214 C1209 1.390 . S
C1214 C1213 1.387 . S
H1215 C1227 0.930 . S
H1216 C1229 0.930 . S
H1217 C1230 0.930 . S
H1218 C1234 0.959 . S
H1219 C1234 0.959 . S
H1220 C1234 0.961 . S
H1221 C1235 0.960 . S
H1222 C1235 0.961 . S
H1223 C1235 0.959 . S
H1224 C1238 0.929 . S
H1225 C1239 0.931 . S
H1226 C1241 0.930 . S
C1227 H1215 0.930 . S
C1227 C1228 1.399 . S
C1227 C1232 1.399 . S
C1228 C1227 1.399 . S
C1228 C1229 1.376 . S
C1229 H1216 0.930 . S
C1229 C1228 1.376 . S
C1229 C1230 1.388 . S
C1230 H1217 0.930 . S
C1230 C1229 1.388 . S
C1230 C1231 1.390 . S
C1231 C1230 1.390 . S
C1231 C1232 1.394 . S
C1231 C1237 1.465 . S
C1232 C1227 1.399 . S
C1232 C1231 1.394 . S
C1232 C1233 1.516 . S
C1233 C1232 1.516 . S
C1233 C1234 1.502 . S
C1233 C1235 1.561 . S
C1233 C1236 1.526 . S
C1234 H1218 0.959 . S
C1234 H1219 0.959 . S
C1234 H1220 0.961 . S
C1234 C1233 1.502 . S
C1235 H1221 0.960 . S
C1235 H1222 0.961 . S
C1235 H1223 0.959 . S
C1235 C1233 1.561 . S
C1236 C1233 1.526 . S
C1236 C1237 1.396 . S
C1236 C1241 1.390 . S
C1237 C1231 1.465 . S
C1237 C1236 1.396 . S
C1237 C1238 1.399 . S
C1238 H1224 0.929 . S
C1238 C1237 1.399 . S
C1238 C1239 1.385 . S
C1239 H1225 0.931 . S
C1239 C1238 1.385 . S
C1239 C1240 1.389 . S
C1240 C1239 1.389 . S
C1240 C1241 1.387 . S
C1241 H1226 0.930 . S
C1241 C1236 1.390 . S
C1241 C1240 1.387 . S
H1242 C1254 0.930 . S
H1243 C1256 0.930 . S
H1244 C1257 0.930 . S
H1245 C1261 0.959 . S
H1246 C1261 0.959 . S
H1247 C1261 0.961 . S
H1248 C1262 0.960 . S
H1249 C1262 0.961 . S
H1250 C1262 0.959 . S
H1251 C1265 0.929 . S
H1252 C1266 0.931 . S
H1253 C1268 0.930 . S
C1254 H1242 0.930 . S
C1254 C1255 1.399 . S
C1254 C1259 1.399 . S
C1255 C1254 1.399 . S
C1255 C1256 1.376 . S
C1256 H1243 0.930 . S
C1256 C1255 1.376 . S
C1256 C1257 1.388 . S
C1257 H1244 0.930 . S
C1257 C1256 1.388 . S
C1257 C1258 1.390 . S
C1258 C1257 1.390 . S
C1258 C1259 1.394 . S
C1258 C1264 1.465 . S
C1259 C1254 1.399 . S
C1259 C1258 1.394 . S
C1259 C1260 1.516 . S
C1260 C1259 1.516 . S
C1260 C1261 1.502 . S
C1260 C1262 1.561 . S
C1260 C1263 1.526 . S
C1261 H1245 0.959 . S
C1261 H1246 0.959 . S
C1261 H1247 0.961 . S
C1261 C1260 1.502 . S
C1262 H1248 0.960 . S
C1262 H1249 0.961 . S
C1262 H1250 0.959 . S
C1262 C1260 1.561 . S
C1263 C1260 1.526 . S
C1263 C1264 1.396 . S
C1263 C1268 1.390 . S
C1264 C1258 1.465 . S
C1264 C1263 1.396 . S
C1264 C1265 1.399 . S
C1265 H1251 0.929 . S
C1265 C1264 1.399 . S
C1265 C1266 1.385 . S
C1266 H1252 0.931 . S
C1266 C1265 1.385 . S
C1266 C1267 1.389 . S
C1267 C1266 1.389 . S
C1267 C1268 1.387 . S
C1268 H1253 0.930 . S
C1268 C1263 1.390 . S
C1268 C1267 1.387 . S
H1269 C1281 0.930 . S
H1270 C1283 0.930 . S
H1271 C1284 0.930 . S
H1272 C1288 0.959 . S
H1273 C1288 0.959 . S
H1274 C1288 0.961 . S
H1275 C1289 0.960 . S
H1276 C1289 0.961 . S
H1277 C1289 0.959 . S
H1278 C1292 0.929 . S
H1279 C1293 0.931 . S
H1280 C1295 0.930 . S
C1281 H1269 0.930 . S
C1281 C1282 1.399 . S
C1281 C1286 1.399 . S
C1282 C1281 1.399 . S
C1282 C1283 1.376 . S
C1283 H1270 0.930 . S
C1283 C1282 1.376 . S
C1283 C1284 1.388 . S
C1284 H1271 0.930 . S
C1284 C1283 1.388 . S
C1284 C1285 1.390 . S
C1285 C1284 1.390 . S
C1285 C1286 1.394 . S
C1285 C1291 1.465 . S
C1286 C1281 1.399 . S
C1286 C1285 1.394 . S
C1286 C1287 1.516 . S
C1287 C1286 1.516 . S
C1287 C1288 1.502 . S
C1287 C1289 1.561 . S
C1287 C1290 1.526 . S
C1288 H1272 0.959 . S
C1288 H1273 0.959 . S
C1288 H1274 0.961 . S
C1288 C1287 1.502 . S
C1289 H1275 0.960 . S
C1289 H1276 0.961 . S
C1289 H1277 0.959 . S
C1289 C1287 1.561 . S
C1290 C1287 1.526 . S
C1290 C1291 1.396 . S
C1290 C1295 1.390 . S
C1291 C1285 1.465 . S
C1291 C1290 1.396 . S
C1291 C1292 1.399 . S
C1292 H1278 0.929 . S
C1292 C1291 1.399 . S
C1292 C1293 1.385 . S
C1293 H1279 0.931 . S
C1293 C1292 1.385 . S
C1293 C1294 1.389 . S
C1294 C1293 1.389 . S
C1294 C1295 1.387 . S
C1295 H1280 0.930 . S
C1295 C1290 1.390 . S
C1295 C1294 1.387 . S
H1296 C1308 0.930 . S
H1297 C1310 0.930 . S
H1298 C1311 0.930 . S
H1299 C1315 0.959 . S
H1300 C1315 0.959 . S
H1301 C1315 0.961 . S
H1302 C1316 0.960 . S
H1303 C1316 0.961 . S
H1304 C1316 0.959 . S
H1305 C1319 0.929 . S
H1306 C1320 0.931 . S
H1307 C1322 0.930 . S
C1308 H1296 0.930 . S
C1308 C1309 1.399 . S
C1308 C1313 1.399 . S
C1309 C1308 1.399 . S
C1309 C1310 1.376 . S
C1310 H1297 0.930 . S
C1310 C1309 1.376 . S
C1310 C1311 1.388 . S
C1311 H1298 0.930 . S
C1311 C1310 1.388 . S
C1311 C1312 1.390 . S
C1312 C1311 1.390 . S
C1312 C1313 1.394 . S
C1312 C1318 1.465 . S
C1313 C1308 1.399 . S
C1313 C1312 1.394 . S
C1313 C1314 1.516 . S
C1314 C1313 1.516 . S
C1314 C1315 1.502 . S
C1314 C1316 1.561 . S
C1314 C1317 1.526 . S
C1315 H1299 0.959 . S
C1315 H1300 0.959 . S
C1315 H1301 0.961 . S
C1315 C1314 1.502 . S
C1316 H1302 0.960 . S
C1316 H1303 0.961 . S
C1316 H1304 0.959 . S
C1316 C1314 1.561 . S
C1317 C1314 1.526 . S
C1317 C1318 1.396 . S
C1317 C1322 1.390 . S
C1318 C1312 1.465 . S
C1318 C1317 1.396 . S
C1318 C1319 1.399 . S
C1319 H1305 0.929 . S
C1319 C1318 1.399 . S
C1319 C1320 1.385 . S
C1320 H1306 0.931 . S
C1320 C1319 1.385 . S
C1320 C1321 1.389 . S
C1321 C1320 1.389 . S
C1321 C1322 1.387 . S
C1322 H1307 0.930 . S
C1322 C1317 1.390 . S
C1322 C1321 1.387 . S
H1323 C1335 0.930 . S
H1324 C1337 0.930 . S
H1325 C1338 0.930 . S
H1326 C1342 0.959 . S
H1327 C1342 0.959 . S
H1328 C1342 0.961 . S
H1329 C1343 0.960 . S
H1330 C1343 0.961 . S
H1331 C1343 0.959 . S
H1332 C1346 0.929 . S
H1333 C1347 0.931 . S
H1334 C1349 0.930 . S
C1335 H1323 0.930 . S
C1335 C1336 1.399 . S
C1335 C1340 1.399 . S
C1336 C1335 1.399 . S
C1336 C1337 1.376 . S
C1337 H1324 0.930 . S
C1337 C1336 1.376 . S
C1337 C1338 1.388 . S
C1338 H1325 0.930 . S
C1338 C1337 1.388 . S
C1338 C1339 1.390 . S
C1339 C1338 1.390 . S
C1339 C1340 1.394 . S
C1339 C1345 1.465 1_565 S
C1340 C1335 1.399 . S
C1340 C1339 1.394 . S
C1340 C1341 1.516 . S
C1341 C1340 1.516 . S
C1341 C1342 1.502 . S
C1341 C1343 1.561 . S
C1341 C1344 1.526 1_565 S
C1342 H1326 0.959 . S
C1342 H1327 0.959 . S
C1342 H1328 0.961 . S
C1342 C1341 1.502 . S
C1343 H1329 0.960 . S
C1343 H1330 0.961 . S
C1343 H1331 0.959 . S
C1343 C1341 1.561 . S
C1344 C1341 1.526 1_545 S
C1344 C1345 1.396 . S
C1344 C1349 1.390 . S
C1345 C1339 1.465 1_545 S
C1345 C1344 1.396 . S
C1345 C1346 1.399 . S
C1346 H1332 0.929 . S
C1346 C1345 1.399 . S
C1346 C1347 1.385 . S
C1347 H1333 0.931 . S
C1347 C1346 1.385 . S
C1347 C1348 1.389 . S
C1348 C1347 1.389 . S
C1348 C1349 1.387 . S
C1349 H1334 0.930 . S
C1349 C1344 1.390 . S
C1349 C1348 1.387 . S
H1350 C1362 0.930 . S
H1351 C1364 0.930 . S
H1352 C1365 0.930 . S
H1353 C1369 0.959 . S
H1354 C1369 0.959 . S
H1355 C1369 0.961 . S
H1356 C1370 0.960 . S
H1357 C1370 0.954 1_655 S
H1358 C1370 0.959 1_655 S
H1359 C1373 0.929 . S
H1360 C1374 0.931 . S
H1361 C1376 0.930 . S
C1362 H1350 0.930 . S
C1362 C1363 1.399 . S
C1362 C1367 1.399 . S
C1363 C1362 1.399 . S
C1363 C1364 1.376 . S
C1364 H1351 0.930 . S
C1364 C1363 1.376 . S
C1364 C1365 1.388 . S
C1365 H1352 0.930 . S
C1365 C1364 1.388 . S
C1365 C1366 1.390 . S
C1366 C1365 1.390 . S
C1366 C1367 1.394 . S
C1366 C1372 1.465 1_455 S
C1367 C1362 1.399 . S
C1367 C1366 1.394 . S
C1367 C1368 1.516 . S
C1368 C1367 1.516 . S
C1368 C1369 1.502 . S
C1368 C1370 1.561 . S
C1368 C1371 1.526 1_455 S
C1369 H1353 0.959 . S
C1369 H1354 0.959 . S
C1369 H1355 0.961 . S
C1369 C1368 1.502 . S
C1370 H1356 0.960 . S
C1370 H1357 0.954 1_455 S
C1370 H1358 0.959 1_455 S
C1370 C1368 1.561 . S
C1371 C1368 1.526 1_655 S
C1371 C1372 1.396 . S
C1371 C1376 1.390 . S
C1372 C1366 1.465 1_655 S
C1372 C1371 1.396 . S
C1372 C1373 1.399 . S
C1373 H1359 0.929 . S
C1373 C1372 1.399 . S
C1373 C1374 1.385 . S
C1374 H1360 0.931 . S
C1374 C1373 1.385 . S
C1374 C1375 1.389 . S
C1375 C1374 1.389 . S
C1375 C1376 1.387 . S
C1376 H1361 0.930 . S
C1376 C1371 1.390 . S
C1376 C1375 1.387 . S
H1377 C1389 0.930 . S
H1378 C1391 0.930 . S
H1379 C1392 0.930 . S
H1380 C1396 0.959 . S
H1381 C1396 0.959 . S
H1382 C1396 0.961 . S
H1383 C1397 0.960 . S
H1384 C1397 0.961 . S
H1385 C1397 0.959 . S
H1386 C1400 0.929 . S
H1387 C1401 0.931 . S
H1388 C1403 0.930 . S
C1389 H1377 0.930 . S
C1389 C1390 1.399 . S
C1389 C1394 1.399 . S
C1390 C1389 1.399 . S
C1390 C1391 1.376 . S
C1391 H1378 0.930 . S
C1391 C1390 1.376 . S
C1391 C1392 1.388 . S
C1392 H1379 0.930 . S
C1392 C1391 1.388 . S
C1392 C1393 1.390 . S
C1393 C1392 1.390 . S
C1393 C1394 1.394 . S
C1393 C1399 1.465 . S
C1394 C1389 1.399 . S
C1394 C1393 1.394 . S
C1394 C1395 1.516 . S
C1395 C1394 1.516 . S
C1395 C1396 1.502 . S
C1395 C1397 1.561 . S
C1395 C1398 1.526 . S
C1396 H1380 0.959 . S
C1396 H1381 0.959 . S
C1396 H1382 0.961 . S
C1396 C1395 1.502 . S
C1397 H1383 0.960 . S
C1397 H1384 0.961 . S
C1397 H1385 0.959 . S
C1397 C1395 1.561 . S
C1398 C1395 1.526 . S
C1398 C1399 1.396 . S
C1398 C1403 1.390 . S
C1399 C1393 1.465 . S
C1399 C1398 1.396 . S
C1399 C1400 1.399 . S
C1400 H1386 0.929 . S
C1400 C1399 1.399 . S
C1400 C1401 1.385 . S
C1401 H1387 0.931 . S
C1401 C1400 1.385 . S
C1401 C1402 1.389 . S
C1402 C1401 1.389 . S
C1402 C1403 1.387 . S
C1403 H1388 0.930 . S
C1403 C1398 1.390 . S
C1403 C1402 1.387 . S
H1404 C1416 0.930 . S
H1405 C1418 0.930 . S
H1406 C1419 0.930 . S
H1407 C1423 0.959 . S
H1408 C1423 0.959 . S
H1409 C1423 0.961 . S
H1410 C1424 0.960 . S
H1411 C1424 0.961 . S
H1412 C1424 0.959 . S
H1413 C1427 0.929 . S
H1414 C1428 0.931 . S
H1415 C1430 0.930 . S
C1416 H1404 0.930 . S
C1416 C1417 1.399 . S
C1416 C1421 1.399 1_455 S
C1417 C1416 1.399 . S
C1417 C1418 1.376 . S
C1418 H1405 0.930 . S
C1418 C1417 1.376 . S
C1418 C1419 1.388 . S
C1419 H1406 0.930 . S
C1419 C1418 1.388 . S
C1419 C1420 1.390 1_455 S
C1420 C1419 1.390 1_655 S
C1420 C1421 1.394 . S
C1420 C1426 1.465 . S
C1421 C1416 1.399 1_655 S
C1421 C1420 1.394 . S
C1421 C1422 1.516 . S
C1422 C1421 1.516 . S
C1422 C1423 1.502 . S
C1422 C1424 1.561 . S
C1422 C1425 1.526 . S
C1423 H1407 0.959 . S
C1423 H1408 0.959 . S
C1423 H1409 0.961 . S
C1423 C1422 1.502 . S
C1424 H1410 0.960 . S
C1424 H1411 0.961 . S
C1424 H1412 0.959 . S
C1424 C1422 1.561 . S
C1425 C1422 1.526 . S
C1425 C1426 1.396 . S
C1425 C1430 1.390 . S
C1426 C1420 1.465 . S
C1426 C1425 1.396 . S
C1426 C1427 1.399 . S
C1427 H1413 0.929 . S
C1427 C1426 1.399 . S
C1427 C1428 1.385 . S
C1428 H1414 0.931 . S
C1428 C1427 1.385 . S
C1428 C1429 1.389 . S
C1429 C1428 1.389 . S
C1429 C1430 1.387 . S
C1430 H1415 0.930 . S
C1430 C1425 1.390 . S
C1430 C1429 1.387 . S
H1431 C1443 0.930 . S
H1432 C1445 0.930 . S
H1433 C1446 0.930 . S
H1434 C1450 0.959 . S
H1435 C1450 0.959 . S
H1436 C1450 0.961 . S
H1437 C1451 0.960 . S
H1438 C1451 0.961 . S
H1439 C1451 0.959 . S
H1440 C1454 0.929 . S
H1441 C1455 0.931 . S
H1442 C1457 0.930 . S
C1443 H1431 0.930 . S
C1443 C1444 1.399 . S
C1443 C1448 1.399 . S
C1444 C1443 1.399 . S
C1444 C1445 1.376 . S
C1445 H1432 0.930 . S
C1445 C1444 1.376 . S
C1445 C1446 1.388 . S
C1446 H1433 0.930 . S
C1446 C1445 1.388 . S
C1446 C1447 1.390 . S
C1447 C1446 1.390 . S
C1447 C1448 1.394 . S
C1447 C1453 1.465 . S
C1448 C1443 1.399 . S
C1448 C1447 1.394 . S
C1448 C1449 1.516 . S
C1449 C1448 1.516 . S
C1449 C1450 1.502 . S
C1449 C1451 1.561 . S
C1449 C1452 1.526 . S
C1450 H1434 0.959 . S
C1450 H1435 0.959 . S
C1450 H1436 0.961 . S
C1450 C1449 1.502 . S
C1451 H1437 0.960 . S
C1451 H1438 0.961 . S
C1451 H1439 0.959 . S
C1451 C1449 1.561 . S
C1452 C1449 1.526 . S
C1452 C1453 1.396 . S
C1452 C1457 1.390 . S
C1453 C1447 1.465 . S
C1453 C1452 1.396 . S
C1453 C1454 1.399 . S
C1454 H1440 0.929 . S
C1454 C1453 1.399 . S
C1454 C1455 1.385 . S
C1455 H1441 0.931 . S
C1455 C1454 1.385 . S
C1455 C1456 1.389 . S
C1456 C1455 1.389 . S
C1456 C1457 1.387 . S
C1457 H1442 0.930 . S
C1457 C1452 1.390 . S
C1457 C1456 1.387 . S
H1458 C1470 0.930 . S
H1459 C1472 0.930 . S
H1460 C1473 0.930 . S
H1461 C1477 0.959 . S
H1462 C1477 0.959 . S
H1463 C1477 0.961 . S
H1464 C1478 0.960 . S
H1465 C1478 0.961 . S
H1466 C1478 0.959 . S
H1467 C1481 0.929 . S
H1468 C1482 0.931 . S
H1469 C1484 0.930 . S
C1470 H1458 0.930 . S
C1470 C1471 1.399 . S
C1470 C1475 1.399 1_565 S
C1471 C1470 1.399 . S
C1471 C1472 1.376 . S
C1472 H1459 0.930 . S
C1472 C1471 1.376 . S
C1472 C1473 1.388 1_565 S
C1473 H1460 0.930 . S
C1473 C1472 1.388 1_545 S
C1473 C1474 1.390 . S
C1474 C1473 1.390 . S
C1474 C1475 1.394 . S
C1474 C1480 1.465 . S
C1475 C1470 1.399 1_545 S
C1475 C1474 1.394 . S
C1475 C1476 1.516 . S
C1476 C1475 1.516 . S
C1476 C1477 1.502 . S
C1476 C1478 1.561 . S
C1476 C1479 1.526 . S
C1477 H1461 0.959 . S
C1477 H1462 0.959 . S
C1477 H1463 0.961 . S
C1477 C1476 1.502 . S
C1478 H1464 0.960 . S
C1478 H1465 0.961 . S
C1478 H1466 0.959 . S
C1478 C1476 1.561 . S
C1479 C1476 1.526 . S
C1479 C1480 1.396 . S
C1479 C1484 1.390 . S
C1480 C1474 1.465 . S
C1480 C1479 1.396 . S
C1480 C1481 1.399 . S
C1481 H1467 0.929 . S
C1481 C1480 1.399 . S
C1481 C1482 1.385 . S
C1482 H1468 0.931 . S
C1482 C1481 1.385 . S
C1482 C1483 1.389 . S
C1483 C1482 1.389 . S
C1483 C1484 1.387 . S
C1484 H1469 0.930 . S
C1484 C1479 1.390 . S
C1484 C1483 1.387 . S
H1485 C1497 0.930 . S
H1486 C1499 0.930 . S
H1487 C1500 0.930 . S
H1488 C1504 0.959 . S
H1489 C1504 0.959 . S
H1490 C1504 0.961 . S
H1491 C1505 0.960 . S
H1492 C1505 0.961 . S
H1493 C1505 0.959 . S
H1494 C1508 0.929 . S
H1495 C1509 0.931 . S
H1496 C1511 0.930 . S
C1497 H1485 0.930 . S
C1497 C1498 1.399 . S
C1497 C1502 1.399 . S
C1498 C1497 1.399 . S
C1498 C1499 1.376 . S
C1499 H1486 0.930 . S
C1499 C1498 1.376 . S
C1499 C1500 1.388 . S
C1500 H1487 0.930 . S
C1500 C1499 1.388 . S
C1500 C1501 1.390 . S
C1501 C1500 1.390 . S
C1501 C1502 1.394 . S
C1501 C1507 1.465 . S
C1502 C1497 1.399 . S
C1502 C1501 1.394 . S
C1502 C1503 1.516 . S
C1503 C1502 1.516 . S
C1503 C1504 1.502 . S
C1503 C1505 1.561 . S
C1503 C1506 1.526 . S
C1504 H1488 0.959 . S
C1504 H1489 0.959 . S
C1504 H1490 0.961 . S
C1504 C1503 1.502 . S
C1505 H1491 0.960 . S
C1505 H1492 0.961 . S
C1505 H1493 0.959 . S
C1505 C1503 1.561 . S
C1506 C1503 1.526 . S
C1506 C1507 1.396 . S
C1506 C1511 1.390 . S
C1507 C1501 1.465 . S
C1507 C1506 1.396 . S
C1507 C1508 1.399 . S
C1508 H1494 0.929 . S
C1508 C1507 1.399 . S
C1508 C1509 1.385 . S
C1509 H1495 0.931 . S
C1509 C1508 1.385 . S
C1509 C1510 1.389 . S
C1510 C1509 1.389 . S
C1510 C1511 1.387 . S
C1511 H1496 0.930 . S
C1511 C1506 1.390 . S
C1511 C1510 1.387 . S
H1512 C1524 0.930 . S
H1513 C1526 0.930 . S
H1514 C1527 0.930 . S
H1515 C1531 0.959 . S
H1516 C1531 0.959 . S
H1517 C1531 0.961 . S
H1518 C1532 0.960 . S
H1519 C1532 0.961 . S
H1520 C1532 0.959 . S
H1521 C1535 0.929 . S
H1522 C1536 0.931 . S
H1523 C1538 0.930 . S
C1524 H1512 0.930 . S
C1524 C1525 1.399 . S
C1524 C1529 1.399 . S
C1525 C1524 1.399 . S
C1525 C1526 1.376 . S
C1526 H1513 0.930 . S
C1526 C1525 1.376 . S
C1526 C1527 1.388 . S
C1527 H1514 0.930 . S
C1527 C1526 1.388 . S
C1527 C1528 1.390 . S
C1528 C1527 1.390 . S
C1528 C1529 1.394 . S
C1528 C1534 1.465 . S
C1529 C1524 1.399 . S
C1529 C1528 1.394 . S
C1529 C1530 1.516 . S
C1530 C1529 1.516 . S
C1530 C1531 1.502 . S
C1530 C1532 1.561 . S
C1530 C1533 1.526 . S
C1531 H1515 0.959 . S
C1531 H1516 0.959 . S
C1531 H1517 0.961 . S
C1531 C1530 1.502 . S
C1532 H1518 0.960 . S
C1532 H1519 0.961 . S
C1532 H1520 0.959 . S
C1532 C1530 1.561 . S
C1533 C1530 1.526 . S
C1533 C1534 1.396 . S
C1533 C1538 1.390 . S
C1534 C1528 1.465 . S
C1534 C1533 1.396 . S
C1534 C1535 1.399 . S
C1535 H1521 0.929 . S
C1535 C1534 1.399 . S
C1535 C1536 1.385 . S
C1536 H1522 0.931 . S
C1536 C1535 1.385 . S
C1536 C1537 1.389 . S
C1537 C1536 1.389 . S
C1537 C1538 1.387 . S
C1538 H1523 0.930 . S
C1538 C1533 1.390 . S
C1538 C1537 1.387 . S
H1539 C1551 0.930 . S
H1540 C1553 0.930 . S
H1541 C1554 0.930 . S
H1542 C1558 0.959 . S
H1543 C1558 0.959 . S
H1544 C1558 0.961 . S
H1545 C1559 0.960 . S
H1546 C1559 0.961 . S
H1547 C1559 0.959 . S
H1548 C1562 0.929 . S
H1549 C1563 0.931 . S
H1550 C1565 0.930 . S
C1551 H1539 0.930 . S
C1551 C1552 1.399 . S
C1551 C1556 1.399 . S
C1552 C1551 1.399 . S
C1552 C1553 1.376 . S
C1553 H1540 0.930 . S
C1553 C1552 1.376 . S
C1553 C1554 1.388 . S
C1554 H1541 0.930 . S
C1554 C1553 1.388 . S
C1554 C1555 1.390 . S
C1555 C1554 1.390 . S
C1555 C1556 1.394 . S
C1555 C1561 1.465 . S
C1556 C1551 1.399 . S
C1556 C1555 1.394 . S
C1556 C1557 1.516 . S
C1557 C1556 1.516 . S
C1557 C1558 1.502 . S
C1557 C1559 1.561 . S
C1557 C1560 1.526 . S
C1558 H1542 0.959 . S
C1558 H1543 0.959 . S
C1558 H1544 0.961 . S
C1558 C1557 1.502 . S
C1559 H1545 0.960 . S
C1559 H1546 0.961 . S
C1559 H1547 0.959 . S
C1559 C1557 1.561 . S
C1560 C1557 1.526 . S
C1560 C1561 1.396 . S
C1560 C1565 1.390 . S
C1561 C1555 1.465 . S
C1561 C1560 1.396 . S
C1561 C1562 1.399 . S
C1562 H1548 0.929 . S
C1562 C1561 1.399 . S
C1562 C1563 1.385 . S
C1563 H1549 0.931 . S
C1563 C1562 1.385 . S
C1563 C1564 1.389 . S
C1564 C1563 1.389 . S
C1564 C1565 1.387 . S
C1565 H1550 0.930 . S
C1565 C1560 1.390 . S
C1565 C1564 1.387 . S
H1566 C1578 0.930 . S
H1567 C1580 0.930 . S
H1568 C1581 0.930 . S
H1569 C1585 0.959 . S
H1570 C1585 0.959 . S
H1571 C1585 0.961 . S
H1572 C1586 0.960 . S
H1573 C1586 0.961 . S
H1574 C1586 0.959 . S
H1575 C1589 0.929 1_545 S
H1576 C1590 0.931 1_545 S
H1577 C1592 0.930 . S
C1578 H1566 0.930 . S
C1578 C1579 1.399 . S
C1578 C1583 1.399 . S
C1579 C1578 1.399 . S
C1579 C1580 1.376 . S
C1580 H1567 0.930 . S
C1580 C1579 1.376 . S
C1580 C1581 1.388 . S
C1581 H1568 0.930 . S
C1581 C1580 1.388 . S
C1581 C1582 1.390 . S
C1582 C1581 1.390 . S
C1582 C1583 1.394 . S
C1582 C1588 1.465 . S
C1583 C1578 1.399 . S
C1583 C1582 1.394 . S
C1583 C1584 1.516 . S
C1584 C1583 1.516 . S
C1584 C1585 1.502 . S
C1584 C1586 1.561 . S
C1584 C1587 1.526 . S
C1585 H1569 0.959 . S
C1585 H1570 0.959 . S
C1585 H1571 0.961 . S
C1585 C1584 1.502 . S
C1586 H1572 0.960 . S
C1586 H1573 0.961 . S
C1586 H1574 0.959 . S
C1586 C1584 1.561 . S
C1587 C1584 1.526 . S
C1587 C1588 1.396 . S
C1587 C1592 1.390 . S
C1588 C1582 1.465 . S
C1588 C1587 1.396 . S
C1588 C1589 1.399 . S
C1589 H1575 0.929 1_565 S
C1589 C1588 1.399 . S
C1589 C1590 1.385 . S
C1590 H1576 0.931 1_565 S
C1590 C1589 1.385 . S
C1590 C1591 1.389 . S
C1591 C1590 1.389 . S
C1591 C1592 1.387 . S
C1592 H1577 0.930 . S
C1592 C1587 1.390 . S
C1592 C1591 1.387 . S
H1593 C1605 0.930 . S
H1594 C1607 0.930 . S
H1595 C1608 0.930 . S
H1596 C1612 0.959 . S
H1597 C1612 0.959 . S
H1598 C1612 0.961 . S
H1599 C1613 0.960 . S
H1600 C1613 0.961 . S
H1601 C1613 0.959 . S
H1602 C1616 0.929 . S
H1603 C1617 0.931 . S
H1604 C1619 0.930 . S
C1605 H1593 0.930 . S
C1605 C1606 1.399 . S
C1605 C1610 1.399 . S
C1606 C1605 1.399 . S
C1606 C1607 1.376 . S
C1607 H1594 0.930 . S
C1607 C1606 1.376 . S
C1607 C1608 1.388 . S
C1608 H1595 0.930 . S
C1608 C1607 1.388 . S
C1608 C1609 1.390 . S
C1609 C1608 1.390 . S
C1609 C1610 1.394 . S
C1609 C1615 1.465 . S
C1610 C1605 1.399 . S
C1610 C1609 1.394 . S
C1610 C1611 1.516 . S
C1611 C1610 1.516 . S
C1611 C1612 1.502 . S
C1611 C1613 1.561 . S
C1611 C1614 1.526 . S
C1612 H1596 0.959 . S
C1612 H1597 0.959 . S
C1612 H1598 0.961 . S
C1612 C1611 1.502 . S
C1613 H1599 0.960 . S
C1613 H1600 0.961 . S
C1613 H1601 0.959 . S
C1613 C1611 1.561 . S
C1614 C1611 1.526 . S
C1614 C1615 1.396 . S
C1614 C1619 1.390 . S
C1615 C1609 1.465 . S
C1615 C1614 1.396 . S
C1615 C1616 1.399 . S
C1616 H1602 0.929 . S
C1616 C1615 1.399 . S
C1616 C1617 1.385 . S
C1617 H1603 0.931 . S
C1617 C1616 1.385 . S
C1617 C1618 1.389 . S
C1618 C1617 1.389 . S
C1618 C1619 1.387 . S
C1619 H1604 0.930 . S
C1619 C1614 1.390 . S
C1619 C1618 1.387 . S
H1620 C1632 0.930 . S
H1621 C1634 0.930 . S
H1622 C1635 0.930 . S
H1623 C1639 0.959 . S
H1624 C1639 0.959 . S
H1625 C1639 0.961 . S
H1626 C1640 0.960 . S
H1627 C1640 0.961 . S
H1628 C1640 0.959 . S
H1629 C1643 0.929 . S
H1630 C1644 0.931 . S
H1631 C1646 0.930 . S
C1632 H1620 0.930 . S
C1632 C1633 1.399 . S
C1632 C1637 1.399 . S
C1633 C1632 1.399 . S
C1633 C1634 1.376 . S
C1634 H1621 0.930 . S
C1634 C1633 1.376 . S
C1634 C1635 1.388 . S
C1635 H1622 0.930 . S
C1635 C1634 1.388 . S
C1635 C1636 1.390 . S
C1636 C1635 1.390 . S
C1636 C1637 1.394 . S
C1636 C1642 1.465 . S
C1637 C1632 1.399 . S
C1637 C1636 1.394 . S
C1637 C1638 1.516 . S
C1638 C1637 1.516 . S
C1638 C1639 1.502 . S
C1638 C1640 1.561 . S
C1638 C1641 1.526 . S
C1639 H1623 0.959 . S
C1639 H1624 0.959 . S
C1639 H1625 0.961 . S
C1639 C1638 1.502 . S
C1640 H1626 0.960 . S
C1640 H1627 0.961 . S
C1640 H1628 0.959 . S
C1640 C1638 1.561 . S
C1641 C1638 1.526 . S
C1641 C1642 1.396 . S
C1641 C1646 1.390 . S
C1642 C1636 1.465 . S
C1642 C1641 1.396 . S
C1642 C1643 1.399 . S
C1643 H1629 0.929 . S
C1643 C1642 1.399 . S
C1643 C1644 1.385 . S
C1644 H1630 0.931 . S
C1644 C1643 1.385 . S
C1644 C1645 1.389 . S
C1645 C1644 1.389 . S
C1645 C1646 1.387 . S
C1646 H1631 0.930 . S
C1646 C1641 1.390 . S
C1646 C1645 1.387 . S
H1647 C1659 0.930 . S
H1648 C1661 0.930 . S
H1649 C1662 0.930 . S
H1650 C1666 0.959 . S
H1651 C1666 0.959 . S
H1652 C1666 0.961 . S
H1653 C1667 0.960 . S
H1654 C1667 0.961 . S
H1655 C1667 0.959 . S
H1656 C1670 0.929 . S
H1657 C1671 0.931 . S
H1658 C1673 0.930 . S
C1659 H1647 0.930 . S
C1659 C1660 1.399 . S
C1659 C1664 1.399 . S
C1660 C1659 1.399 . S
C1660 C1661 1.376 . S
C1661 H1648 0.930 . S
C1661 C1660 1.376 . S
C1661 C1662 1.388 . S
C1662 H1649 0.930 . S
C1662 C1661 1.388 . S
C1662 C1663 1.390 . S
C1663 C1662 1.390 . S
C1663 C1664 1.394 . S
C1663 C1669 1.465 . S
C1664 C1659 1.399 . S
C1664 C1663 1.394 . S
C1664 C1665 1.516 . S
C1665 C1664 1.516 . S
C1665 C1666 1.502 1_655 S
C1665 C1667 1.561 . S
C1665 C1668 1.526 . S
C1666 H1650 0.959 . S
C1666 H1651 0.959 . S
C1666 H1652 0.961 . S
C1666 C1665 1.502 1_455 S
C1667 H1653 0.960 . S
C1667 H1654 0.961 . S
C1667 H1655 0.959 . S
C1667 C1665 1.561 . S
C1668 C1665 1.526 . S
C1668 C1669 1.396 . S
C1668 C1673 1.390 . S
C1669 C1663 1.465 . S
C1669 C1668 1.396 . S
C1669 C1670 1.399 . S
C1670 H1656 0.929 . S
C1670 C1669 1.399 . S
C1670 C1671 1.385 . S
C1671 H1657 0.931 . S
C1671 C1670 1.385 . S
C1671 C1672 1.389 . S
C1672 C1671 1.389 . S
C1672 C1673 1.387 . S
C1673 H1658 0.930 . S
C1673 C1668 1.390 . S
C1673 C1672 1.387 . S
H1674 C1686 0.930 . S
H1675 C1688 0.930 . S
H1676 C1689 0.930 . S
H1677 C1693 0.959 . S
H1678 C1693 0.959 . S
H1679 C1693 0.961 . S
H1680 C1694 0.960 . S
H1681 C1694 0.961 . S
H1682 C1694 0.959 . S
H1683 C1697 0.929 . S
H1684 C1698 0.931 . S
H1685 C1700 0.930 . S
C1686 H1674 0.930 . S
C1686 C1687 1.399 . S
C1686 C1691 1.399 . S
C1687 C1686 1.399 . S
C1687 C1688 1.376 . S
C1688 H1675 0.930 . S
C1688 C1687 1.376 . S
C1688 C1689 1.388 . S
C1689 H1676 0.930 . S
C1689 C1688 1.388 . S
C1689 C1690 1.390 . S
C1690 C1689 1.390 . S
C1690 C1691 1.394 . S
C1690 C1696 1.465 . S
C1691 C1686 1.399 . S
C1691 C1690 1.394 . S
C1691 C1692 1.516 . S
C1692 C1691 1.516 . S
C1692 C1693 1.502 . S
C1692 C1694 1.561 . S
C1692 C1695 1.526 . S
C1693 H1677 0.959 . S
C1693 H1678 0.959 . S
C1693 H1679 0.961 . S
C1693 C1692 1.502 . S
C1694 H1680 0.960 . S
C1694 H1681 0.961 . S
C1694 H1682 0.959 . S
C1694 C1692 1.561 . S
C1695 C1692 1.526 . S
C1695 C1696 1.396 . S
C1695 C1700 1.390 . S
C1696 C1690 1.465 . S
C1696 C1695 1.396 . S
C1696 C1697 1.399 . S
C1697 H1683 0.929 . S
C1697 C1696 1.399 . S
C1697 C1698 1.385 . S
C1698 H1684 0.931 . S
C1698 C1697 1.385 . S
C1698 C1699 1.389 . S
C1699 C1698 1.389 . S
C1699 C1700 1.387 . S
C1700 H1685 0.930 . S
C1700 C1695 1.390 . S
C1700 C1699 1.387 . S
H1701 C1713 0.930 . S
H1702 C1715 0.930 . S
H1703 C1716 0.930 . S
H1704 C1720 0.959 . S
H1705 C1720 0.959 . S
H1706 C1720 0.961 . S
H1707 C1721 0.960 . S
H1708 C1721 0.961 1_565 S
H1709 C1721 0.959 . S
H1710 C1724 0.929 . S
H1711 C1725 0.931 . S
H1712 C1727 0.930 . S
C1713 H1701 0.930 . S
C1713 C1714 1.399 . S
C1713 C1718 1.399 . S
C1714 C1713 1.399 . S
C1714 C1715 1.376 . S
C1715 H1702 0.930 . S
C1715 C1714 1.376 . S
C1715 C1716 1.388 . S
C1716 H1703 0.930 . S
C1716 C1715 1.388 . S
C1716 C1717 1.390 . S
C1717 C1716 1.390 . S
C1717 C1718 1.394 . S
C1717 C1723 1.465 . S
C1718 C1713 1.399 . S
C1718 C1717 1.394 . S
C1718 C1719 1.516 . S
C1719 C1718 1.516 . S
C1719 C1720 1.502 . S
C1719 C1721 1.561 . S
C1719 C1722 1.526 . S
C1720 H1704 0.959 . S
C1720 H1705 0.959 . S
C1720 H1706 0.961 . S
C1720 C1719 1.502 . S
C1721 H1707 0.960 . S
C1721 H1708 0.961 1_545 S
C1721 H1709 0.959 . S
C1721 C1719 1.561 . S
C1722 C1719 1.526 . S
C1722 C1723 1.396 . S
C1722 C1727 1.390 . S
C1723 C1717 1.465 . S
C1723 C1722 1.396 . S
C1723 C1724 1.399 . S
C1724 H1710 0.929 . S
C1724 C1723 1.399 . S
C1724 C1725 1.385 . S
C1725 H1711 0.931 . S
C1725 C1724 1.385 . S
C1725 C1726 1.389 . S
C1726 C1725 1.389 . S
C1726 C1727 1.387 . S
C1727 H1712 0.930 . S
C1727 C1722 1.390 . S
C1727 C1726 1.387 . S
H1728 C1740 0.930 . S
H1729 C1742 0.930 . S
H1730 C1743 0.930 . S
H1731 C1747 0.959 . S
H1732 C1747 0.959 . S
H1733 C1747 0.961 . S
H1734 C1748 0.960 . S
H1735 C1748 0.961 . S
H1736 C1748 0.959 . S
H1737 C1751 0.929 . S
H1738 C1752 0.931 . S
H1739 C1754 0.930 . S
C1740 H1728 0.930 . S
C1740 C1741 1.399 . S
C1740 C1745 1.399 . S
C1741 C1740 1.399 . S
C1741 C1742 1.376 . S
C1742 H1729 0.930 . S
C1742 C1741 1.376 . S
C1742 C1743 1.388 . S
C1743 H1730 0.930 . S
C1743 C1742 1.388 . S
C1743 C1744 1.390 . S
C1744 C1743 1.390 . S
C1744 C1745 1.394 . S
C1744 C1750 1.465 . S
C1745 C1740 1.399 . S
C1745 C1744 1.394 . S
C1745 C1746 1.516 . S
C1746 C1745 1.516 . S
C1746 C1747 1.502 . S
C1746 C1748 1.561 . S
C1746 C1749 1.526 . S
C1747 H1731 0.959 . S
C1747 H1732 0.959 . S
C1747 H1733 0.961 . S
C1747 C1746 1.502 . S
C1748 H1734 0.960 . S
C1748 H1735 0.961 . S
C1748 H1736 0.959 . S
C1748 C1746 1.561 . S
C1749 C1746 1.526 . S
C1749 C1750 1.396 . S
C1749 C1754 1.390 . S
C1750 C1744 1.465 . S
C1750 C1749 1.396 . S
C1750 C1751 1.399 . S
C1751 H1737 0.929 . S
C1751 C1750 1.399 . S
C1751 C1752 1.385 . S
C1752 H1738 0.931 . S
C1752 C1751 1.385 . S
C1752 C1753 1.389 . S
C1753 C1752 1.389 . S
C1753 C1754 1.387 . S
C1754 H1739 0.930 . S
C1754 C1749 1.390 . S
C1754 C1753 1.387 . S
H1755 C1767 0.930 . S
H1756 C1769 0.930 . S
H1757 C1770 0.930 . S
H1758 C1774 0.959 . S
H1759 C1774 0.959 . S
H1760 C1774 0.961 . S
H1761 C1775 0.960 . S
H1762 C1775 0.961 . S
H1763 C1775 0.959 . S
H1764 C1778 0.929 . S
H1765 C1779 0.931 . S
H1766 C1781 0.930 . S
C1767 H1755 0.930 . S
C1767 C1768 1.399 . S
C1767 C1772 1.399 . S
C1768 C1767 1.399 . S
C1768 C1769 1.376 . S
C1769 H1756 0.930 . S
C1769 C1768 1.376 . S
C1769 C1770 1.388 . S
C1770 H1757 0.930 . S
C1770 C1769 1.388 . S
C1770 C1771 1.390 . S
C1771 C1770 1.390 . S
C1771 C1772 1.394 . S
C1771 C1777 1.465 . S
C1772 C1767 1.399 . S
C1772 C1771 1.394 . S
C1772 C1773 1.516 . S
C1773 C1772 1.516 . S
C1773 C1774 1.502 . S
C1773 C1775 1.561 . S
C1773 C1776 1.526 . S
C1774 H1758 0.959 . S
C1774 H1759 0.959 . S
C1774 H1760 0.961 . S
C1774 C1773 1.502 . S
C1775 H1761 0.960 . S
C1775 H1762 0.961 . S
C1775 H1763 0.959 . S
C1775 C1773 1.561 . S
C1776 C1773 1.526 . S
C1776 C1777 1.396 . S
C1776 C1781 1.390 . S
C1777 C1771 1.465 . S
C1777 C1776 1.396 . S
C1777 C1778 1.399 . S
C1778 H1764 0.929 . S
C1778 C1777 1.399 . S
C1778 C1779 1.385 . S
C1779 H1765 0.931 . S
C1779 C1778 1.385 . S
C1779 C1780 1.389 . S
C1780 C1779 1.389 . S
C1780 C1781 1.387 . S
C1781 H1766 0.930 . S
C1781 C1776 1.390 . S
C1781 C1780 1.387 . S
H1782 C1794 0.930 . S
H1783 C1796 0.930 . S
H1784 C1797 0.930 . S
H1785 C1801 0.959 . S
H1786 C1801 0.959 . S
H1787 C1801 0.961 . S
H1788 C1802 0.960 . S
H1789 C1802 0.961 . S
H1790 C1802 0.959 . S
H1791 C1805 0.929 . S
H1792 C1806 0.931 . S
H1793 C1808 0.930 . S
C1794 H1782 0.930 . S
C1794 C1795 1.399 . S
C1794 C1799 1.399 . S
C1795 C1794 1.399 . S
C1795 C1796 1.376 . S
C1796 H1783 0.930 . S
C1796 C1795 1.376 . S
C1796 C1797 1.388 . S
C1797 H1784 0.930 . S
C1797 C1796 1.388 . S
C1797 C1798 1.390 . S
C1798 C1797 1.390 . S
C1798 C1799 1.394 . S
C1798 C1804 1.465 . S
C1799 C1794 1.399 . S
C1799 C1798 1.394 . S
C1799 C1800 1.516 . S
C1800 C1799 1.516 . S
C1800 C1801 1.502 . S
C1800 C1802 1.561 . S
C1800 C1803 1.526 . S
C1801 H1785 0.959 . S
C1801 H1786 0.959 . S
C1801 H1787 0.961 . S
C1801 C1800 1.502 . S
C1802 H1788 0.960 . S
C1802 H1789 0.961 . S
C1802 H1790 0.959 . S
C1802 C1800 1.561 . S
C1803 C1800 1.526 . S
C1803 C1804 1.396 . S
C1803 C1808 1.390 . S
C1804 C1798 1.465 . S
C1804 C1803 1.396 . S
C1804 C1805 1.399 . S
C1805 H1791 0.929 . S
C1805 C1804 1.399 . S
C1805 C1806 1.385 . S
C1806 H1792 0.931 . S
C1806 C1805 1.385 . S
C1806 C1807 1.389 . S
C1807 C1806 1.389 . S
C1807 C1808 1.387 . S
C1808 H1793 0.930 . S
C1808 C1803 1.390 . S
C1808 C1807 1.387 . S
H1809 C1821 0.930 . S
H1810 C1823 0.930 . S
H1811 C1824 0.930 . S
H1812 C1828 0.959 . S
H1813 C1828 0.959 . S
H1814 C1828 0.961 . S
H1815 C1829 0.960 . S
H1816 C1829 0.961 . S
H1817 C1829 0.959 . S
H1818 C1832 0.929 . S
H1819 C1833 0.931 . S
H1820 C1835 0.930 . S
C1821 H1809 0.930 . S
C1821 C1822 1.399 . S
C1821 C1826 1.399 . S
C1822 C1821 1.399 . S
C1822 C1823 1.376 . S
C1823 H1810 0.930 . S
C1823 C1822 1.376 . S
C1823 C1824 1.388 . S
C1824 H1811 0.930 . S
C1824 C1823 1.388 . S
C1824 C1825 1.390 . S
C1825 C1824 1.390 . S
C1825 C1826 1.394 . S
C1825 C1831 1.465 . S
C1826 C1821 1.399 . S
C1826 C1825 1.394 . S
C1826 C1827 1.516 . S
C1827 C1826 1.516 . S
C1827 C1828 1.502 . S
C1827 C1829 1.561 . S
C1827 C1830 1.526 . S
C1828 H1812 0.959 . S
C1828 H1813 0.959 . S
C1828 H1814 0.961 . S
C1828 C1827 1.502 . S
C1829 H1815 0.960 . S
C1829 H1816 0.961 . S
C1829 H1817 0.959 . S
C1829 C1827 1.561 . S
C1830 C1827 1.526 . S
C1830 C1831 1.396 . S
C1830 C1835 1.390 . S
C1831 C1825 1.465 . S
C1831 C1830 1.396 . S
C1831 C1832 1.399 . S
C1832 H1818 0.929 . S
C1832 C1831 1.399 . S
C1832 C1833 1.385 . S
C1833 H1819 0.931 . S
C1833 C1832 1.385 . S
C1833 C1834 1.389 . S
C1834 C1833 1.389 . S
C1834 C1835 1.387 . S
C1835 H1820 0.930 . S
C1835 C1830 1.390 . S
C1835 C1834 1.387 . S
H1836 C1848 0.930 . S
H1837 C1850 0.930 . S
H1838 C1851 0.930 . S
H1839 C1855 0.959 . S
H1840 C1855 0.959 . S
H1841 C1855 0.961 . S
H1842 C1856 0.960 . S
H1843 C1856 0.961 . S
H1844 C1856 0.959 . S
H1845 C1859 0.929 . S
H1846 C1860 0.931 . S
H1847 C1862 0.930 . S
C1848 H1836 0.930 . S
C1848 C1849 1.399 . S
C1848 C1853 1.399 . S
C1849 C1848 1.399 . S
C1849 C1850 1.376 . S
C1850 H1837 0.930 . S
C1850 C1849 1.376 . S
C1850 C1851 1.388 . S
C1851 H1838 0.930 . S
C1851 C1850 1.388 . S
C1851 C1852 1.390 . S
C1852 C1851 1.390 . S
C1852 C1853 1.394 . S
C1852 C1858 1.465 . S
C1853 C1848 1.399 . S
C1853 C1852 1.394 . S
C1853 C1854 1.516 . S
C1854 C1853 1.516 . S
C1854 C1855 1.502 . S
C1854 C1856 1.561 . S
C1854 C1857 1.526 . S
C1855 H1839 0.959 . S
C1855 H1840 0.959 . S
C1855 H1841 0.961 . S
C1855 C1854 1.502 . S
C1856 H1842 0.960 . S
C1856 H1843 0.961 . S
C1856 H1844 0.959 . S
C1856 C1854 1.561 . S
C1857 C1854 1.526 . S
C1857 C1858 1.396 . S
C1857 C1862 1.390 . S
C1858 C1852 1.465 . S
C1858 C1857 1.396 . S
C1858 C1859 1.399 . S
C1859 H1845 0.929 . S
C1859 C1858 1.399 . S
C1859 C1860 1.385 . S
C1860 H1846 0.931 . S
C1860 C1859 1.385 . S
C1860 C1861 1.389 . S
C1861 C1860 1.389 . S
C1861 C1862 1.387 . S
C1862 H1847 0.930 . S
C1862 C1857 1.390 . S
C1862 C1861 1.387 . S
H1863 C1875 0.930 . S
H1864 C1877 0.930 . S
H1865 C1878 0.930 . S
H1866 C1882 0.959 . S
H1867 C1882 0.959 . S
H1868 C1882 0.961 . S
H1869 C1883 0.960 . S
H1870 C1883 0.961 . S
H1871 C1883 0.959 . S
H1872 C1886 0.929 . S
H1873 C1887 0.931 . S
H1874 C1889 0.930 . S
C1875 H1863 0.930 . S
C1875 C1876 1.399 . S
C1875 C1880 1.399 . S
C1876 C1875 1.399 . S
C1876 C1877 1.376 . S
C1877 H1864 0.930 . S
C1877 C1876 1.376 . S
C1877 C1878 1.388 . S
C1878 H1865 0.930 . S
C1878 C1877 1.388 . S
C1878 C1879 1.390 . S
C1879 C1878 1.390 . S
C1879 C1880 1.394 . S
C1879 C1885 1.465 . S
C1880 C1875 1.399 . S
C1880 C1879 1.394 . S
C1880 C1881 1.516 . S
C1881 C1880 1.516 . S
C1881 C1882 1.502 . S
C1881 C1883 1.561 . S
C1881 C1884 1.526 . S
C1882 H1866 0.959 . S
C1882 H1867 0.959 . S
C1882 H1868 0.961 . S
C1882 C1881 1.502 . S
C1883 H1869 0.960 . S
C1883 H1870 0.961 . S
C1883 H1871 0.959 . S
C1883 C1881 1.561 . S
C1884 C1881 1.526 . S
C1884 C1885 1.396 . S
C1884 C1889 1.390 . S
C1885 C1879 1.465 . S
C1885 C1884 1.396 . S
C1885 C1886 1.399 . S
C1886 H1872 0.929 . S
C1886 C1885 1.399 . S
C1886 C1887 1.385 . S
C1887 H1873 0.931 . S
C1887 C1886 1.385 . S
C1887 C1888 1.389 . S
C1888 C1887 1.389 . S
C1888 C1889 1.387 . S
C1889 H1874 0.930 . S
C1889 C1884 1.390 . S
C1889 C1888 1.387 . S
H1890 C1902 0.930 . S
H1891 C1904 0.930 . S
H1892 C1905 0.930 . S
H1893 C1909 0.959 . S
H1894 C1909 0.959 . S
H1895 C1909 0.961 . S
H1896 C1910 0.960 . S
H1897 C1910 0.961 . S
H1898 C1910 0.959 . S
H1899 C1913 0.929 . S
H1900 C1914 0.931 . S
H1901 C1916 0.930 . S
C1902 H1890 0.930 . S
C1902 C1903 1.399 . S
C1902 C1907 1.399 . S
C1903 C1902 1.399 . S
C1903 C1904 1.376 . S
C1904 H1891 0.930 . S
C1904 C1903 1.376 . S
C1904 C1905 1.388 . S
C1905 H1892 0.930 . S
C1905 C1904 1.388 . S
C1905 C1906 1.390 . S
C1906 C1905 1.390 . S
C1906 C1907 1.394 . S
C1906 C1912 1.465 . S
C1907 C1902 1.399 . S
C1907 C1906 1.394 . S
C1907 C1908 1.516 . S
C1908 C1907 1.516 . S
C1908 C1909 1.502 . S
C1908 C1910 1.561 . S
C1908 C1911 1.526 . S
C1909 H1893 0.959 . S
C1909 H1894 0.959 . S
C1909 H1895 0.961 . S
C1909 C1908 1.502 . S
C1910 H1896 0.960 . S
C1910 H1897 0.961 . S
C1910 H1898 0.959 . S
C1910 C1908 1.561 . S
C1911 C1908 1.526 . S
C1911 C1912 1.396 . S
C1911 C1916 1.390 . S
C1912 C1906 1.465 . S
C1912 C1911 1.396 . S
C1912 C1913 1.399 . S
C1913 H1899 0.929 . S
C1913 C1912 1.399 . S
C1913 C1914 1.385 . S
C1914 H1900 0.931 . S
C1914 C1913 1.385 . S
C1914 C1915 1.389 . S
C1915 C1914 1.389 . S
C1915 C1916 1.387 . S
C1916 H1901 0.930 . S
C1916 C1911 1.390 . S
C1916 C1915 1.387 . S
H1917 C1929 0.930 . S
H1918 C1931 0.930 . S
H1919 C1932 0.930 . S
H1920 C1936 0.959 . S
H1921 C1936 0.959 . S
H1922 C1936 0.961 . S
H1923 C1937 0.960 . S
H1924 C1937 0.961 . S
H1925 C1937 0.959 . S
H1926 C1940 0.929 . S
H1927 C1941 0.931 . S
H1928 C1943 0.930 . S
C1929 H1917 0.930 . S
C1929 C1930 1.399 . S
C1929 C1934 1.399 . S
C1930 C1929 1.399 . S
C1930 C1931 1.376 . S
C1931 H1918 0.930 . S
C1931 C1930 1.376 . S
C1931 C1932 1.388 . S
C1932 H1919 0.930 . S
C1932 C1931 1.388 . S
C1932 C1933 1.390 . S
C1933 C1932 1.390 . S
C1933 C1934 1.394 . S
C1933 C1939 1.465 . S
C1934 C1929 1.399 . S
C1934 C1933 1.394 . S
C1934 C1935 1.516 . S
C1935 C1934 1.516 . S
C1935 C1936 1.502 . S
C1935 C1937 1.561 . S
C1935 C1938 1.526 . S
C1936 H1920 0.959 . S
C1936 H1921 0.959 . S
C1936 H1922 0.961 . S
C1936 C1935 1.502 . S
C1937 H1923 0.960 . S
C1937 H1924 0.961 . S
C1937 H1925 0.959 . S
C1937 C1935 1.561 . S
C1938 C1935 1.526 . S
C1938 C1939 1.396 . S
C1938 C1943 1.390 . S
C1939 C1933 1.465 . S
C1939 C1938 1.396 . S
C1939 C1940 1.399 . S
C1940 H1926 0.929 . S
C1940 C1939 1.399 . S
C1940 C1941 1.385 . S
C1941 H1927 0.931 . S
C1941 C1940 1.385 . S
C1941 C1942 1.389 . S
C1942 C1941 1.389 . S
C1942 C1943 1.387 . S
C1943 H1928 0.930 . S
C1943 C1938 1.390 . S
C1943 C1942 1.387 . S
H1944 C1956 0.930 . S
H1945 C1958 0.930 . S
H1946 C1959 0.930 . S
H1947 C1963 0.959 . S
H1948 C1963 0.959 . S
H1949 C1963 0.961 . S
H1950 C1964 0.960 . S
H1951 C1964 0.961 . S
H1952 C1964 0.959 . S
H1953 C1967 0.929 . S
H1954 C1968 0.931 . S
H1955 C1970 0.930 . S
C1956 H1944 0.930 . S
C1956 C1957 1.399 . S
C1956 C1961 1.399 . S
C1957 C1956 1.399 . S
C1957 C1958 1.376 . S
C1958 H1945 0.930 . S
C1958 C1957 1.376 . S
C1958 C1959 1.388 . S
C1959 H1946 0.930 . S
C1959 C1958 1.388 . S
C1959 C1960 1.390 . S
C1960 C1959 1.390 . S
C1960 C1961 1.394 . S
C1960 C1966 1.465 . S
C1961 C1956 1.399 . S
C1961 C1960 1.394 . S
C1961 C1962 1.516 . S
C1962 C1961 1.516 . S
C1962 C1963 1.502 . S
C1962 C1964 1.561 . S
C1962 C1965 1.526 . S
C1963 H1947 0.959 . S
C1963 H1948 0.959 . S
C1963 H1949 0.961 . S
C1963 C1962 1.502 . S
C1964 H1950 0.960 . S
C1964 H1951 0.961 . S
C1964 H1952 0.959 . S
C1964 C1962 1.561 . S
C1965 C1962 1.526 . S
C1965 C1966 1.396 . S
C1965 C1970 1.390 . S
C1966 C1960 1.465 . S
C1966 C1965 1.396 . S
C1966 C1967 1.399 . S
C1967 H1953 0.929 . S
C1967 C1966 1.399 . S
C1967 C1968 1.385 . S
C1968 H1954 0.931 . S
C1968 C1967 1.385 . S
C1968 C1969 1.389 . S
C1969 C1968 1.389 . S
C1969 C1970 1.387 . S
C1970 H1955 0.930 . S
C1970 C1965 1.390 . S
C1970 C1969 1.387 . S
H1971 C1983 0.930 . S
H1972 C1985 0.930 . S
H1973 C1986 0.930 . S
H1974 C1990 0.959 . S
H1975 C1990 0.959 . S
H1976 C1990 0.961 . S
H1977 C1991 0.960 . S
H1978 C1991 0.961 . S
H1979 C1991 0.959 . S
H1980 C1994 0.929 . S
H1981 C1995 0.931 . S
H1982 C1997 0.930 . S
C1983 H1971 0.930 . S
C1983 C1984 1.399 . S
C1983 C1988 1.399 . S
C1984 C1983 1.399 . S
C1984 C1985 1.376 . S
C1985 H1972 0.930 . S
C1985 C1984 1.376 . S
C1985 C1986 1.388 . S
C1986 H1973 0.930 . S
C1986 C1985 1.388 . S
C1986 C1987 1.390 . S
C1987 C1986 1.390 . S
C1987 C1988 1.394 . S
C1987 C1993 1.465 . S
C1988 C1983 1.399 . S
C1988 C1987 1.394 . S
C1988 C1989 1.516 . S
C1989 C1988 1.516 . S
C1989 C1990 1.502 . S
C1989 C1991 1.561 . S
C1989 C1992 1.526 . S
C1990 H1974 0.959 . S
C1990 H1975 0.959 . S
C1990 H1976 0.961 . S
C1990 C1989 1.502 . S
C1991 H1977 0.960 . S
C1991 H1978 0.961 . S
C1991 H1979 0.959 . S
C1991 C1989 1.561 . S
C1992 C1989 1.526 . S
C1992 C1993 1.396 . S
C1992 C1997 1.390 . S
C1993 C1987 1.465 . S
C1993 C1992 1.396 . S
C1993 C1994 1.399 . S
C1994 H1980 0.929 . S
C1994 C1993 1.399 . S
C1994 C1995 1.385 . S
C1995 H1981 0.931 . S
C1995 C1994 1.385 . S
C1995 C1996 1.389 . S
C1996 C1995 1.389 . S
C1996 C1997 1.387 . S
C1997 H1982 0.930 . S
C1997 C1992 1.390 . S
C1997 C1996 1.387 . S
H1998 C2010 0.930 . S
H1999 C2012 0.930 . S
H2000 C2013 0.930 . S
H2001 C2017 0.959 . S
H2002 C2017 0.959 . S
H2003 C2017 0.961 . S
H2004 C2018 0.960 . S
H2005 C2018 0.961 . S
H2006 C2018 0.959 . S
H2007 C2021 0.929 . S
H2008 C2022 0.931 . S
H2009 C2024 0.930 . S
C2010 H1998 0.930 . S
C2010 C2011 1.399 . S
C2010 C2015 1.399 . S
C2011 C2010 1.399 . S
C2011 C2012 1.376 . S
C2012 H1999 0.930 . S
C2012 C2011 1.376 . S
C2012 C2013 1.388 . S
C2013 H2000 0.930 . S
C2013 C2012 1.388 . S
C2013 C2014 1.390 . S
C2014 C2013 1.390 . S
C2014 C2015 1.394 . S
C2014 C2020 1.465 . S
C2015 C2010 1.399 . S
C2015 C2014 1.394 . S
C2015 C2016 1.516 . S
C2016 C2015 1.516 . S
C2016 C2017 1.502 . S
C2016 C2018 1.561 . S
C2016 C2019 1.526 . S
C2017 H2001 0.959 . S
C2017 H2002 0.959 . S
C2017 H2003 0.961 . S
C2017 C2016 1.502 . S
C2018 H2004 0.960 . S
C2018 H2005 0.961 . S
C2018 H2006 0.959 . S
C2018 C2016 1.561 . S
C2019 C2016 1.526 . S
C2019 C2020 1.396 . S
C2019 C2024 1.390 . S
C2020 C2014 1.465 . S
C2020 C2019 1.396 . S
C2020 C2021 1.399 . S
C2021 H2007 0.929 . S
C2021 C2020 1.399 . S
C2021 C2022 1.385 . S
C2022 H2008 0.931 . S
C2022 C2021 1.385 . S
C2022 C2023 1.389 . S
C2023 C2022 1.389 . S
C2023 C2024 1.387 . S
C2024 H2009 0.930 . S
C2024 C2019 1.390 . S
C2024 C2023 1.387 . S
H2025 C2037 0.930 . S
H2026 C2039 0.930 . S
H2027 C2040 0.930 . S
H2028 C2044 0.959 . S
H2029 C2044 0.959 . S
H2030 C2044 0.961 . S
H2031 C2045 0.960 . S
H2032 C2045 0.961 . S
H2033 C2045 0.959 . S
H2034 C2048 0.929 . S
H2035 C2049 0.931 . S
H2036 C2051 0.930 . S
C2037 H2025 0.930 . S
C2037 C2038 1.399 . S
C2037 C2042 1.399 . S
C2038 C2037 1.399 . S
C2038 C2039 1.376 . S
C2039 H2026 0.930 . S
C2039 C2038 1.376 . S
C2039 C2040 1.388 . S
C2040 H2027 0.930 . S
C2040 C2039 1.388 . S
C2040 C2041 1.390 . S
C2041 C2040 1.390 . S
C2041 C2042 1.394 . S
C2041 C2047 1.465 . S
C2042 C2037 1.399 . S
C2042 C2041 1.394 . S
C2042 C2043 1.516 . S
C2043 C2042 1.516 . S
C2043 C2044 1.502 . S
C2043 C2045 1.561 . S
C2043 C2046 1.526 . S
C2044 H2028 0.959 . S
C2044 H2029 0.959 . S
C2044 H2030 0.961 . S
C2044 C2043 1.502 . S
C2045 H2031 0.960 . S
C2045 H2032 0.961 . S
C2045 H2033 0.959 . S
C2045 C2043 1.561 . S
C2046 C2043 1.526 . S
C2046 C2047 1.396 . S
C2046 C2051 1.390 . S
C2047 C2041 1.465 . S
C2047 C2046 1.396 . S
C2047 C2048 1.399 . S
C2048 H2034 0.929 . S
C2048 C2047 1.399 . S
C2048 C2049 1.385 . S
C2049 H2035 0.931 . S
C2049 C2048 1.385 . S
C2049 C2050 1.389 . S
C2050 C2049 1.389 . S
C2050 C2051 1.387 . S
C2051 H2036 0.930 . S
C2051 C2046 1.390 . S
C2051 C2050 1.387 . S
C607 C177 1.654 . S
C619 C246 1.675 . S
C634 C190 1.775 . S
C646 C286 1.785 . S
C661 C164 1.594 . S
C673 C316 1.604 . S
C688 C151 1.486 . S
C700 C276 1.467 1_556 S
C727 C326 1.504 . S
C715 C125 1.503 . S
C742 C138 1.361 . S
C754 C236 1.328 . S
C781 C265 1.647 . S
C769 C147 1.627 . S
C808 C305 1.683 . S
C796 C121 1.611 . S
C823 C134 1.625 . S
C835 C331 1.644 . S
C850 C173 1.478 . S
C862 C291 1.477 . S
C877 C186 1.400 . S
C889 C345 1.446 . S
C916 C251 1.451 . S
C904 C160 1.472 . S
C943 C366 1.668 . S
C931 C21 1.656 . S
C958 C34 1.775 . S
C970 C406 1.789 . S
C985 C8 1.583 . S
C997 C436 1.607 . S
C1012 C229 1.464 . S
C1024 C396 1.482 . S
C1039 C203 1.499 . S
C1051 C446 1.495 . S
C1066 C216 1.346 . S
C1078 C356 1.377 . S
C1093 C225 1.643 . S
C1105 C385 1.651 . S
C1120 C199 1.599 . S
C1132 C425 1.683 . S
C1159 C451 1.641 . S
C1147 C212 1.633 . S
C1174 C17 1.453 . S
C1186 C411 1.527 . S
C1213 C465 1.442 . S
C1201 C30 1.417 . S
C1228 C4 1.463 . S
C1240 C371 1.466 . S
C1267 C486 1.669 . S
C1255 C99 1.653 . S
C1282 C112 1.777 . S
C1294 C526 1.781 . S
C1321 C556 1.553 . S
C1309 C86 1.584 . S
C1348 C516 1.441 . S
C1336 C73 1.456 . S
C1375 C566 1.492 . S
C1363 C47 1.494 . S
C1390 C60 1.361 . S
C1402 C476 1.322 . S
C1417 C69 1.633 . S
C1429 C505 1.648 . S
C1444 C43 1.583 . S
C1456 C545 1.680 . S
C1483 C571 1.642 . S
C1471 C56 1.629 . S
C1498 C95 1.476 . S
C1510 C531 1.478 . S
C1525 C108 1.459 . S
C1537 C585 1.467 . S
C1552 C82 1.452 . S
C1564 C491 1.475 . S
C1579 C204 1.482 . S
C1591 C263 1.456 . S
C1618 C303 1.919 . S
C1606 C217 1.912 . S
C1633 C230 1.535 . S
C1645 C322 1.580 . S
C1660 C87 1.753 . S
C1672 C282 1.786 . S
C1687 C100 1.689 . S
C1699 C343 1.630 . S
C1726 C242 1.315 . S
C1714 C113 1.316 . S
C1741 C48 1.468 . S
C1753 C383 1.497 . S
C1768 C61 1.913 . S
C1780 C423 1.917 . S
C1795 C74 1.531 . S
C1807 C442 1.578 . S
C1822 C165 1.782 . S
C1834 C402 1.751 . S
C1861 C463 1.635 . S
C1849 C178 1.687 . S
C1876 C191 1.279 . S
C1888 C362 1.300 . S
C1903 C126 1.468 . S
C1915 C503 1.496 . S
C1930 C139 1.917 . S
C1942 C543 1.920 . S
C1969 C562 1.578 . S
C1957 C152 1.530 . S
C1984 C9 1.752 . S
C1996 C522 1.786 . S
C2011 C22 1.654 . S
C2023 C583 1.676 . S
C2038 C35 1.291 . S
C2050 C482 1.299 . S
